drugbank_target|P42263 Glutamate receptor 3 (DB00142; DB00237; DB00898; DB01356; DB04599; DB04982; DB05047; DB13146; DB14507; DB14508; DB14509)
 OpenBabel12092119413D

  0  0  0     0  0            999 V3000
M  V30 BEGIN CTAB
M  V30 COUNTS 14183 14347 0 0 0
M  V30 BEGIN ATOM
M  V30 1 H -0.908 1.98254 -0.117106 0
M  V30 2 N 0 1.576 0 0
M  V30 3 C 0.933 2.03868 1.02534 0
M  V30 4 C 1.911 0.928543 1.3348 0
M  V30 5 O 3.095 1.19667 1.45644 0
M  V30 6 C 0.222 2.43627 2.35294 0
M  V30 7 C -0.732 3.65373 2.2001 0
M  V30 8 S 0.101 5.13292 1.52614 0
M  V30 9 C 1.257 5.56322 2.86805 0
M  V30 10 H 1.49 2.90518 0.631377 0
M  V30 11 H -0.977 1.52953 0.210867 0
M  V30 12 H 0.981 2.67203 3.11629 0
M  V30 13 H -0.358 1.57376 2.7183 0
M  V30 14 H -1.165 3.90944 3.18086 0
M  V30 15 H -1.563 3.418 1.51819 0
M  V30 16 H 0.729 5.58782 3.83104 0
M  V30 17 H 1.672 6.56266 2.65933 0
M  V30 18 H 2.08 4.83886 2.90714 0
M  V30 19 N 1.4781 -0.272755 1.55222 0
M  V30 20 C 2.4411 -1.32041 1.87344 0
M  V30 21 C 3.4411 -1.42342 0.74803 0
M  V30 22 O 4.6311 -1.41488 1.0162 0
M  V30 23 C 1.7631 -2.70173 2.07893 0
M  V30 24 H 2.9561 -1.04789 2.80997 0
M  V30 25 H 0.5091 -0.51083 1.47717 0
M  V30 26 H 1.2441 -3.02605 1.16622 0
M  V30 27 H 1.0291 -2.64082 2.89833 0
M  V30 28 H 2.5191 -3.45869 2.34017 0
M  V30 29 N 2.9562 -1.48159 -0.537278 0
M  V30 30 C 4.3722 -1.34118 -0.865129 0
M  V30 31 C 4.5722 -0.346678 -1.98495 0
M  V30 32 O 3.6282 0.234715 -2.51407 0
M  V30 33 C 4.9412 -2.73963 -1.23954 0
M  V30 34 C 6.4892 -2.82397 -1.34984 0
M  V30 35 C 6.9642 -4.22928 -1.75772 0
M  V30 36 N 8.4552 -4.25566 -1.82887 0
M  V30 37 C 9.1902 -5.31235 -2.15817 0
M  V30 38 N 8.6862 -6.47189 -2.47222 0
M  V30 39 N 10.4792 -5.18624 -2.16761 0
M  V30 40 H 2.6302 -2.1144 0.201715 0
M  V30 41 H 4.8932 -0.947598 0.0275949 0
M  V30 42 H 4.5992 -3.48264 -0.490381 0
M  V30 43 H 4.4732 -3.0702 -2.19132 0
M  V30 44 H 6.8602 -2.08356 -2.08978 0
M  V30 45 H 6.9412 -2.5297 -0.379448 0
M  V30 46 H 6.5852 -4.97482 -1.02341 0
M  V30 47 H 6.5152 -4.49794 -2.73848 0
M  V30 48 H 9.0062 -3.41924 -1.60924 0
M  V30 49 H 9.3192 -7.23564 -2.71433 0
M  V30 50 H 7.6642 -6.50476 -2.44757 0
M  V30 51 H 10.8552 -4.27056 -1.91679 0
M  V30 52 H 11.0282 -6.01078 -2.42093 0
M  V30 53 N 4.4343 0.785586 -1.36625 0
M  V30 54 C 5.3663 1.90711 -1.2713 0
M  V30 55 C 6.3793 1.61688 -0.189986 0
M  V30 56 O 7.5683 1.72864 -0.445014 0
M  V30 57 C 4.6683 3.25611 -0.939713 0
M  V30 58 C 3.8413 3.82385 -2.12369 0
M  V30 59 C 2.9003 4.95732 -1.76456 0
M  V30 60 O 1.9263 5.12047 -2.48589 0
M  V30 61 N 3.1283 5.76258 -0.700492 0
M  V30 62 H 5.8933 1.99376 -2.23762 0
M  V30 63 H 3.4543 0.964041 -1.30069 0
M  V30 64 H 5.4463 3.98937 -0.680554 0
M  V30 65 H 4.0163 3.12538 -0.0624074 0
M  V30 66 H 3.2363 3.01001 -2.54543 0
M  V30 67 H 4.5243 4.17047 -2.9146 0
M  V30 68 H 3.9223 5.65609 -0.101624 0
M  V30 69 H 2.4793 6.4987 -0.501165 0
M  V30 70 N 5.9124 1.20967 1.01018 0
M  V30 71 C 6.8594 0.964281 2.09691 0
M  V30 72 C 7.8294 -0.107853 1.65749 0
M  V30 73 O 9.0144 0.0381987 1.90762 0
M  V30 74 C 6.1544 0.52943 3.41015 0
M  V30 75 C 5.2674 1.67043 3.98398 0
M  V30 76 C 4.4024 1.18525 5.17808 0
M  V30 77 C 3.4414 2.29892 5.67288 0
M  V30 78 N 2.5784 1.82546 6.77954 0
M  V30 79 H 7.4184 1.89463 2.30017 0
M  V30 80 H 4.9554 0.944289 1.1279 0
M  V30 81 H 6.9134 0.258588 4.16398 0
M  V30 82 H 5.5434 -0.363919 3.20742 0
M  V30 83 H 4.5954 2.05603 3.20049 0
M  V30 84 H 5.9074 2.50877 4.31117 0
M  V30 85 H 5.0614 0.870762 6.00419 0
M  V30 86 H 3.8004 0.316887 4.86669 0
M  V30 87 H 2.8054 2.6215 4.83278 0
M  V30 88 H 4.0304 3.17216 6.00459 0
M  V30 89 H 1.9764 0.980454 6.48632 0
M  V30 90 H 1.8934 2.59956 7.09901 0
M  V30 91 H 3.1614 1.54115 7.64113 0
M  V30 92 N 7.3905 -1.2043 1.01659 0
M  V30 93 C 8.3375 -2.23215 0.586822 0
M  V30 94 C 9.3075 -1.61382 -0.393085 0
M  V30 95 O 10.4925 -1.88544 -0.292525 0
M  V30 96 C 7.6325 -3.45032 -0.0687464 0
M  V30 97 C 6.7455 -4.21296 0.955724 0
M  V30 98 C 5.8805 -5.30507 0.271208 0
M  V30 99 C 4.9195 -5.98515 1.28244 0
M  V30 100 N 4.0565 -6.99316 0.62459 0
M  V30 101 H 8.8965 -2.59336 1.46796 0
M  V30 102 H 6.4335 -1.27431 0.734836 0
M  V30 103 H 8.3915 -4.1459 -0.465965 0
M  V30 104 H 7.0215 -3.09604 -0.913529 0
M  V30 105 H 6.0735 -3.50803 1.4711 0
M  V30 106 H 7.3855 -4.6803 1.72479 0
M  V30 107 H 6.5395 -6.06428 -0.18151 0
M  V30 108 H 5.2785 -4.8481 -0.530163 0
M  V30 109 H 4.2835 -5.21355 1.74554 0
M  V30 110 H 5.5085 -6.46298 2.08509 0
M  V30 111 H 3.4545 -6.55812 -0.156914 0
M  V30 112 H 3.3715 -7.44178 1.33172 0
M  V30 113 H 4.6395 -7.79255 0.195462 0
M  V30 114 N 8.8686 -0.792821 -1.36206 0
M  V30 115 C 9.8016 -0.139422 -2.27774 0
M  V30 116 C 10.7796 0.68649 -1.47398 0
M  V30 117 O 11.9636 0.656738 -1.7669 0
M  V30 118 C 9.0906 0.807947 -3.28922 0
M  V30 119 C 8.1366 0.0633999 -4.26453 0
M  V30 120 S 8.9696 -1.26319 -5.20388 0
M  V30 121 C 10.1256 -0.31991 -6.25082 0
M  V30 122 H 10.3586 -0.915809 -2.82843 0
M  V30 123 H 7.8916 -0.587203 -1.42798 0
M  V30 124 H 9.8496 1.34908 -3.87699 0
M  V30 125 H 8.5106 1.55761 -2.72759 0
M  V30 126 H 7.7036 0.782386 -4.9789 0
M  V30 127 H 7.3056 -0.407352 -3.71775 0
M  V30 128 H 9.5976 0.499985 -6.75653 0
M  V30 129 H 10.5406 -1.00307 -7.00959 0
M  V30 130 H 10.9486 0.0782694 -5.64446 0
M  V30 131 N 10.3467 1.47872 -0.545128 0
M  V30 132 C 11.5947 2.02093 -0.016553 0
M  V30 133 C 11.9157 1.42305 1.3332 0
M  V30 134 O 11.1857 0.593853 1.86682 0
M  V30 135 H 9.7657 0.746993 -0.00313038 0
M  V30 136 H 12.4277 1.81414 -0.712397 0
M  V30 137 H 11.5237 3.11996 0.0805422 0
M  V30 138 N 11.8248 0.280983 1.55075 0
M  V30 139 C 12.7568 -0.637268 2.20163 0
M  V30 140 C 13.7698 -1.11298 1.18813 0
M  V30 141 O 14.9588 -1.03388 1.4551 0
M  V30 142 C 12.0588 -1.88199 2.81841 0
M  V30 143 C 11.2318 -1.55211 4.08936 0
M  V30 144 C 10.2908 -2.64991 4.54606 0
M  V30 145 O 9.3168 -2.30929 5.2025 0
M  V30 146 N 10.5188 -3.95161 4.25238 0
M  V30 147 H 13.2838 -0.0801694 2.99593 0
M  V30 148 H 10.8448 0.102329 1.61576 0
M  V30 149 H 12.8368 -2.60948 3.09335 0
M  V30 150 H 11.4068 -2.34799 2.06369 0
M  V30 151 H 10.6268 -0.658185 3.88666 0
M  V30 152 H 11.9148 -1.30681 4.91732 0
M  V30 153 H 11.3128 -4.25653 3.72607 0
M  V30 154 H 9.8698 -4.6427 4.5749 0
M  V30 155 N 13.3029 -1.57598 0.00835791 0
M  V30 156 C 14.5279 -1.95617 -0.689103 0
M  V30 157 C 14.9529 -0.883753 -1.66046 0
M  V30 158 O 14.3109 0.157352 -1.80616 0
M  V30 159 C 14.3589 -3.32736 -1.38994 0
M  V30 160 O 13.4629 -3.27631 -2.50463 0
M  V30 161 H 12.8039 -0.638379 -0.182668 0
M  V30 162 H 15.3339 -2.045 0.064036 0
M  V30 163 H 15.3439 -3.68494 -1.75147 0
M  V30 164 H 14.0189 -4.1034 -0.677778 0
M  V30 165 H 12.5959 -3.03561 -2.16576 0
M  V30 166 N 14.781 0.264519 -1.55364 0
M  V30 167 C 16.027 0.99646 -1.76631 0
M  V30 168 C 16.36 1.85632 -0.570478 0
M  V30 169 O 15.635 1.89647 0.43175 0
M  V30 170 C 15.918 1.87187 -3.07625 0
M  V30 171 C 15.771 1.04138 -4.37579 0
M  V30 172 C 17.09 2.85749 -3.34717 0
M  V30 173 H 14.209 0.360841 -0.642622 0
M  V30 174 H 16.851 0.268218 -1.88097 0
M  V30 175 H 15.001 2.49279 -2.9798 0
M  V30 176 H 16.673 0.440517 -4.59192 0
M  V30 177 H 14.916 0.345115 -4.32425 0
M  V30 178 H 15.587 1.68729 -5.2558 0
M  V30 179 H 18.063 2.33793 -3.4421 0
M  V30 180 H 16.939 3.44136 -4.27623 0
M  V30 181 H 17.2 3.61311 -2.54768 0
M  V30 182 N 16.2591 1.48442 0.529413 0
M  V30 183 C 17.1891 1.65902 1.64313 0
M  V30 184 C 18.1701 0.507897 1.6234 0
M  V30 185 O 19.3551 0.740503 1.79528 0
M  V30 186 C 16.4851 1.69911 3.02898 0
M  V30 187 C 15.4391 2.8453 3.19729 0
M  V30 188 C 14.7651 2.73629 4.59381 0
M  V30 189 C 16.0651 4.25821 3.02447 0
M  V30 190 H 17.7591 2.5914 1.49955 0
M  V30 191 H 15.3051 1.24709 0.719982 0
M  V30 192 H 17.2581 1.80715 3.80684 0
M  V30 193 H 15.9821 0.732524 3.18279 0
M  V30 194 H 14.6411 2.73283 2.44361 0
M  V30 195 H 14.2891 1.74938 4.71599 0
M  V30 196 H 13.9891 3.50541 4.71588 0
M  V30 197 H 15.5131 2.86401 5.39265 0
M  V30 198 H 16.9271 4.37898 3.70024 0
M  V30 199 H 15.3241 5.03735 3.26146 0
M  V30 200 H 16.3941 4.42244 1.98867 0
M  V30 201 N 17.7372 -0.778329 1.37039 0
M  V30 202 C 19.1532 -1.07796 1.17695 0
M  V30 203 C 19.3532 -2.01498 0.00860115 0
M  V30 204 O 18.4092 -2.43901 -0.653352 0
M  V30 205 C 19.7222 -1.68178 2.49272 0
M  V30 206 C 21.2702 -1.80467 2.55735 0
M  V30 207 C 21.7452 -2.44263 3.87427 0
M  V30 208 N 23.2362 -2.51721 3.88833 0
M  V30 209 C 23.9712 -3.01919 4.87476 0
M  V30 210 N 23.4672 -3.5234 5.96513 0
M  V30 211 N 25.2602 -3.00733 4.74885 0
M  V30 212 H 17.4112 -0.156032 2.11826 0
M  V30 213 H 19.6742 -0.131844 0.938787 0
M  V30 214 H 19.3802 -1.06796 3.35093 0
M  V30 215 H 19.2542 -2.67554 2.65885 0
M  V30 216 H 21.6412 -2.40984 1.70325 0
M  V30 217 H 21.7222 -0.798656 2.43013 0
M  V30 218 H 21.3662 -1.84388 4.73248 0
M  V30 219 H 21.2962 -3.45458 3.9745 0
M  V30 220 H 23.7872 -2.1603 3.10063 0
M  V30 221 H 24.1002 -3.89027 6.67741 0
M  V30 222 H 22.4452 -3.50462 6.00168 0
M  V30 223 H 25.6362 -2.60638 3.88826 0
M  V30 224 H 25.8092 -3.39545 5.51918 0
M  V30 225 N 19.2153 -1.21501 -1.00376 0
M  V30 226 C 20.1783 -0.976927 -2.07337 0
M  V30 227 C 21.1783 0.0525322 -1.60714 0
M  V30 228 O 22.3683 -0.184869 -1.73216 0
M  V30 229 C 19.5003 -0.473423 -3.37597 0
M  V30 230 H 20.6933 -1.92587 -2.29892 0
M  V30 231 H 18.2463 -1.03217 -1.17371 0
M  V30 232 H 18.9813 0.480379 -3.20722 0
M  V30 233 H 18.7663 -1.216 -3.72768 0
M  V30 234 H 20.2563 -0.32675 -4.1632 0
M  V30 235 N 20.6934 1.19889 -1.02296 0
M  V30 236 C 21.9394 1.89701 -0.717033 0
M  V30 237 C 22.2724 1.7905 0.751989 0
M  V30 238 O 21.5474 1.17891 1.547 0
M  V30 239 C 21.8304 3.40858 -1.16136 0
M  V30 240 C 21.6834 3.60411 -2.69117 0
M  V30 241 C 23.0024 4.33876 -0.737549 0
M  V30 242 H 20.1214 0.688874 -0.261957 0
M  V30 243 H 22.7634 1.41154 -1.27183 0
M  V30 244 H 20.9134 3.82335 -0.689342 0
M  V30 245 H 22.5854 3.28145 -3.2422 0
M  V30 246 H 20.8284 3.03665 -3.0979 0
M  V30 247 H 21.4994 4.66396 -2.95261 0
M  V30 248 H 23.9754 4.00081 -1.14344 0
M  V30 249 H 22.8514 5.38242 -1.0764 0
M  V30 250 H 23.1124 4.40628 0.360436 0
M  V30 251 N 22.1715 0.800033 1.35784 0
M  V30 252 C 23.4185 0.377342 1.98953 0
M  V30 253 C 23.7465 -1.05378 1.6348 0
M  V30 254 O 23.0015 -1.74459 0.886707 0
M  V30 255 C 23.3005 0.500276 3.53881 0
M  V30 256 C 22.9665 1.89375 4.09204 0
M  V30 257 C 21.6285 2.27499 4.24025 0
M  V30 258 C 23.9805 2.8057 4.39238 0
M  V30 259 C 21.3085 3.562 4.66195 0
M  V30 260 C 23.6605 4.0871 4.82844 0
M  V30 261 C 22.3245 4.46843 4.95871 0
M  V30 262 H 21.5945 0.138079 0.728021 0
M  V30 263 H 24.2415 1.01955 1.62103 0
M  V30 264 H 22.5465 -0.225405 3.91151 0
M  V30 265 H 24.2435 0.154097 4.00704 0
M  V30 266 H 20.8335 1.58753 3.98115 0
M  V30 267 H 25.0175 2.52367 4.27346 0
M  V30 268 H 20.2735 3.85602 4.74469 0
M  V30 269 H 24.4475 4.79481 5.05046 0
M  V30 270 H 22.0745 5.46623 5.28306 0
M  V30 271 N 23.6496 -1.47581 0.552962 0
M  V30 272 C 24.8966 -2.02482 0.0273243 0
M  V30 273 C 25.2246 -1.42776 -1.32081 0
M  V30 274 O 24.4796 -0.571393 -1.87173 0
M  V30 275 C 24.7786 -3.57199 -0.119728 0
M  V30 276 C 24.4446 -4.35804 1.15697 0
M  V30 277 C 23.1066 -4.57 1.50681 0
M  V30 278 C 25.4586 -4.81167 2.00319 0
M  V30 279 C 22.7866 -5.20807 2.70142 0
M  V30 280 C 25.1386 -5.46293 3.18978 0
M  V30 281 C 23.8026 -5.65722 3.54281 0
M  V30 282 H 23.0726 -0.740933 0.00999866 0
M  V30 283 H 25.7196 -1.77302 0.72362 0
M  V30 284 H 24.0246 -3.81348 -0.89896 0
M  V30 285 H 25.7216 -3.97324 -0.541718 0
M  V30 286 H 22.3116 -4.19582 0.874561 0
M  V30 287 H 26.4956 -4.64574 1.74599 0
M  V30 288 H 21.7516 -5.34045 2.97668 0
M  V30 289 H 25.9256 -5.80407 3.84838 0
M  V30 290 H 23.5526 -6.14936 4.46942 0
M  V30 291 N 25.1277 -0.289203 -1.54924 0
M  V30 292 C 26.0577 0.58549 -2.2604 0
M  V30 293 C 27.0387 1.14753 -1.25562 0
M  V30 294 O 28.2237 1.17906 -1.54311 0
M  V30 295 C 25.3537 1.76305 -2.99222 0
M  V30 296 C 24.3077 1.33191 -4.06748 0
M  V30 297 C 23.6337 2.5937 -4.6758 0
M  V30 298 C 24.9337 0.471775 -5.20165 0
M  V30 299 H 26.6277 -0.00763532 -2.99399 0
M  V30 300 H 24.1737 -0.00511229 -1.43999 0
M  V30 301 H 26.1267 2.38097 -3.47689 0
M  V30 302 H 24.8507 2.38223 -2.23422 0
M  V30 303 H 23.5097 0.737121 -3.59113 0
M  V30 304 H 23.1577 3.19576 -3.88433 0
M  V30 305 H 22.8577 2.31228 -5.40192 0
M  V30 306 H 24.3817 3.21985 -5.18804 0
M  V30 307 H 25.7957 0.995056 -5.64599 0
M  V30 308 H 24.1927 0.284639 -5.99425 0
M  V30 309 H 25.2627 -0.506041 -4.82252 0
M  V30 310 N 26.6058 1.57591 -0.0167156 0
M  V30 311 C 27.8518 1.91567 0.665582 0
M  V30 312 C 28.1848 0.892298 1.72487 0
M  V30 313 O 27.4598 -0.0867127 1.94307 0
M  V30 314 C 27.7428 3.36069 1.29342 0
M  V30 315 C 27.5958 4.49135 0.244541 0
M  V30 316 C 28.9148 3.803 2.21495 0
M  V30 317 H 26.0338 0.69666 0.240488 0
M  V30 318 H 28.6758 1.89866 -0.0714356 0
M  V30 319 H 26.8258 3.3765 1.92158 0
M  V30 320 H 28.4978 4.59689 -0.385228 0
M  V30 321 H 26.7408 4.3165 -0.431379 0
M  V30 322 H 27.4118 5.47242 0.723207 0
M  V30 323 H 29.8878 3.80377 1.68678 0
M  V30 324 H 28.7638 4.82127 2.62382 0
M  V30 325 H 29.0248 3.15104 3.101 0
M  V30 326 N 28.0839 -0.256276 1.55502 0
M  V30 327 C 29.0139 -1.32102 1.92539 0
M  V30 328 C 29.9949 -1.50684 0.789194 0
M  V30 329 O 31.1799 -1.63449 1.04872 0
M  V30 330 C 28.3099 -2.67752 2.21192 0
M  V30 331 C 27.2639 -2.63878 3.36975 0
M  V30 332 C 26.5899 -4.03236 3.51147 0
M  V30 333 C 27.8899 -2.21682 4.72921 0
M  V30 334 H 29.5839 -1.01351 2.81724 0
M  V30 335 H 27.1299 -0.486105 1.35547 0
M  V30 336 H 29.0829 -3.42365 2.45691 0
M  V30 337 H 27.8069 -3.0012 1.28824 0
M  V30 338 H 26.4659 -1.91722 3.12471 0
M  V30 339 H 26.1139 -4.32854 2.56216 0
M  V30 340 H 25.8139 -4.01535 4.29003 0
M  V30 341 H 27.3379 -4.79563 3.77957 0
M  V30 342 H 28.7519 -2.86023 4.96854 0
M  V30 343 H 27.1489 -2.3111 5.53812 0
M  V30 344 H 28.2189 -1.16833 4.70615 0
M  V30 345 N 29.562 -1.4872 -0.521534 0
M  V30 346 C 30.81 -1.56857 -1.27437 0
M  V30 347 C 31.131 -0.247982 -1.93417 0
M  V30 348 O 30.401 0.731151 -1.81744 0
M  V30 349 H 28.981 -0.577885 -0.473347 0
M  V30 350 H 31.643 -1.85233 -0.606205 0
M  V30 351 H 30.739 -2.35402 -2.0492 0
M  V30 352 N 31.0401 0.771051 -1.3745 0
M  V30 353 C 31.9701 1.89827 -1.3597 0
M  V30 354 C 32.9511 1.68562 -0.228216 0
M  V30 355 O 34.1361 1.8941 -0.428675 0
M  V30 356 C 31.2661 3.2712 -1.16662 0
M  V30 357 C 30.2201 3.6295 -2.2683 0
M  V30 358 C 29.5461 4.98791 -1.92644 0
M  V30 359 C 30.8461 3.69627 -3.69017 0
M  V30 360 H 32.5401 1.91323 -2.30295 0
M  V30 361 H 30.0861 0.919082 -1.10855 0
M  V30 362 H 32.0391 4.05615 -1.14256 0
M  V30 363 H 30.7631 3.26059 -0.187926 0
M  V30 364 H 29.4221 2.86763 -2.28392 0
M  V30 365 H 29.0701 4.94271 -0.933021 0
M  V30 366 H 28.7701 5.23733 -2.66416 0
M  V30 367 H 30.2941 5.79685 -1.91826 0
M  V30 368 H 31.7081 4.38273 -3.69581 0
M  V30 369 H 30.1051 4.06067 -4.41848 0
M  V30 370 H 31.1751 2.70273 -4.02592 0
M  V30 371 N 32.5182 1.22032 0.997298 0
M  V30 372 C 33.4482 1.01065 2.10495 0
M  V30 373 C 34.4292 -0.0669542 1.69968 0
M  V30 374 O 35.6142 0.0943987 1.9397 0
M  V30 375 C 32.7442 0.582874 3.42374 0
M  V30 376 C 31.6982 1.60592 3.96729 0
M  V30 377 C 31.0242 1.03412 5.24605 0
M  V30 378 C 32.3242 2.99478 4.27914 0
M  V30 379 H 34.0182 1.93708 2.28292 0
M  V30 380 H 31.5642 0.932761 1.09707 0
M  V30 381 H 33.5172 0.423332 4.19268 0
M  V30 382 H 32.2412 -0.379213 3.24391 0
M  V30 383 H 30.9002 1.75316 3.21963 0
M  V30 384 H 30.5482 0.063518 5.0296 0
M  V30 385 H 30.2482 1.71754 5.61938 0
M  V30 386 H 31.7722 0.886066 6.04137 0
M  V30 387 H 33.1862 2.88153 4.95622 0
M  V30 388 H 31.5832 3.64903 4.76409 0
M  V30 389 H 32.6532 3.49742 3.3587 0
M  V30 390 N 33.9963 -1.19345 1.0293 0
M  V30 391 C 35.2443 -1.88665 0.724574 0
M  V30 392 C 35.5653 -1.80036 -0.749144 0
M  V30 393 O 34.8353 -1.2111 -1.53978 0
M  V30 394 H 33.4153 -0.698406 0.265025 0
M  V30 395 H 36.0773 -1.44885 1.30362 0
M  V30 396 H 35.1733 -2.94987 1.01926 0
M  V30 397 N 35.4744 -0.807222 -1.35358 0
M  V30 398 C 36.4244 -0.190706 -2.27201 0
M  V30 399 C 37.4084 0.635838 -1.47804 0
M  V30 400 O 38.6004 0.492991 -1.69996 0
M  V30 401 C 35.7294 0.659337 -3.36909 0
M  V30 402 C 34.8154 -0.176971 -4.23731 0
M  V30 403 N 35.2064 -1.24029 -4.90357 0
M  V30 404 C 33.5044 0.0412953 -4.45981 0
M  V30 405 C 34.2054 -1.75092 -5.54723 0
M  V30 406 N 33.1814 -1.05727 -5.33219 0
M  V30 407 H 36.9834 -1.0043 -2.76208 0
M  V30 408 H 34.4974 -0.648445 -1.48892 0
M  V30 409 H 36.4944 1.11706 -4.01656 0
M  V30 410 H 35.1544 1.47127 -2.89454 0
M  V30 411 H 36.1654 -1.62295 -4.91814 0
M  V30 412 H 32.8424 0.82232 -4.09322 0
M  V30 413 H 34.2324 -2.63963 -6.17878 0
M  V30 414 N 36.9525 1.47285 -0.560781 0
M  V30 415 C 38.1775 2.07359 -0.0410566 0
M  V30 416 C 38.6025 1.41017 1.24483 0
M  V30 417 O 37.9605 0.486368 1.74654 0
M  V30 418 C 38.0085 3.6035 0.134123 0
M  V30 419 O 37.1125 3.94681 1.19587 0
M  V30 420 H 36.4535 0.661887 -0.0529291 0
M  V30 421 H 38.9835 1.89252 -0.777482 0
M  V30 422 H 38.9935 4.0652 0.347207 0
M  V30 423 H 37.6685 4.08034 -0.805047 0
M  V30 424 H 36.2455 3.60251 0.962987 0
M  V30 425 N 38.4306 0.297415 1.54768 0
M  V30 426 C 39.3806 -0.595275 2.20092 0
M  V30 427 C 40.3646 -1.10163 1.17273 0
M  V30 428 O 41.5566 -1.043 1.43006 0
M  V30 429 C 38.6856 -1.7684 2.94249 0
M  V30 430 C 37.7716 -1.27818 4.0438 0
M  V30 431 N 38.1626 -0.505695 5.03266 0
M  V30 432 C 36.4606 -1.55923 4.17857 0
M  V30 433 C 37.1616 -0.245094 5.81183 0
M  V30 434 N 36.1376 -0.823881 5.3732 0
M  V30 435 H 39.9396 0.00250837 2.939 0
M  V30 436 H 37.4536 0.102007 1.62079 0
M  V30 437 H 39.4506 -2.41944 3.39513 0
M  V30 438 H 38.1106 -2.36992 2.21957 0
M  V30 439 H 39.1216 -0.150928 5.1768 0
M  V30 440 H 35.7986 -2.16849 3.56767 0
M  V30 441 H 37.1886 0.375084 6.70852 0
M  V30 442 N 39.9087 -1.5758 0.0250728 0
M  V30 443 C 41.1567 -1.91255 -0.653151 0
M  V30 444 C 41.4777 -0.901691 -1.729 0
M  V30 445 O 40.7477 0.0573785 -1.95816 0
M  V30 446 H 39.3277 -0.705942 -0.244243 0
M  V30 447 H 41.9897 -1.94767 0.0719209 0
M  V30 448 H 41.0857 -2.91752 -1.10847 0
M  V30 449 N 41.3868 0.248026 -1.55636 0
M  V30 450 C 42.6348 0.974295 -1.77065 0
M  V30 451 C 42.9558 1.85897 -0.588849 0
M  V30 452 O 42.2258 1.91868 0.395407 0
M  V30 453 H 40.8058 0.362733 -0.653019 0
M  V30 454 H 43.4678 0.266244 -1.93073 0
M  V30 455 H 42.5638 1.59667 -2.68166 0
M  V30 456 N 42.8649 1.48995 0.513639 0
M  V30 457 C 44.1119 1.57843 1.26854 0
M  V30 458 C 44.4399 0.259501 1.92761 0
M  V30 459 O 43.6949 -0.75159 1.80692 0
M  V30 460 C 43.9939 2.67756 2.36731 0
M  V30 461 C 43.6599 4.09669 1.88368 0
M  V30 462 C 42.3219 4.48291 1.74896 0
M  V30 463 C 44.6739 4.98537 1.52021 0
M  V30 464 C 42.0019 5.73568 1.23438 0
M  V30 465 C 44.3539 6.24319 1.0202 0
M  V30 466 C 43.0179 6.61783 0.871778 0
M  V30 467 H 42.2879 0.577587 0.464192 0
M  V30 468 H 44.9349 1.82778 0.571366 0
M  V30 469 H 43.2399 2.36743 3.12185 0
M  V30 470 H 44.9369 2.71813 2.9482 0
M  V30 471 H 41.5269 3.79176 1.99808 0
M  V30 472 H 45.7109 4.69363 1.61281 0
M  V30 473 H 40.9669 6.01304 1.10648 0
M  V30 474 H 45.1409 6.92566 0.729722 0
M  V30 475 H 42.7679 7.5874 0.470852 0
M  V30 476 N 44.343 -0.763751 1.37857 0
M  V30 477 C 45.754 -1.3405 1.29952 0
M  V30 478 C 46.105 -1.96138 -0.0492898 0
M  V30 479 O 45.23 -1.94372 -0.951239 0
M  V30 480 C 45.825 -2.43729 2.35333 0
M  V30 481 C 44.384 -2.97151 2.31037 0
M  V30 482 C 43.531 -1.70438 2.18738 0
M  V30 483 H 46.482 -0.563396 1.48363 0
M  V30 484 H 46.503 -3.23412 2.00462 0
M  V30 485 H 46.015 -1.9851 3.33489 0
M  V30 486 H 44.116 -3.46724 1.3643 0
M  V30 487 H 44.229 -3.52221 3.24772 0
M  V30 488 H 42.593 -1.93673 1.65418 0
M  V30 489 H 43.376 -1.27312 3.18821 0
M  V30 490 N 45.8211 -1.22559 -0.990812 0
M  V30 491 C 46.7691 -0.994798 -2.10253 0
M  V30 492 C 47.7631 0.0627798 -1.69284 0
M  V30 493 O 48.9691 -0.0898392 -1.79776 0
M  V30 494 H 45.3441 -0.304527 -0.687581 0
M  V30 495 H 47.3151 -1.93812 -2.26891 0
M  V30 496 C 46.0641 -0.591439 -3.42633 0
M  V30 497 H 45.3871 -1.3969 -3.74602 0
M  V30 498 H 46.8271 -0.469385 -4.21394 0
M  V30 499 C 45.2861 0.699232 -3.29564 0
M  V30 500 O 45.8161 1.75112 -3.61523 0
M  V30 501 N 44.0221 0.671182 -2.82743 0
M  V30 502 H 43.5691 -0.185136 -2.56934 0
M  V30 503 H 43.5271 1.53502 -2.7438 0
M  V30 504 N 47.2992 1.18797 -1.03562 0
M  V30 505 C 48.5272 1.92599 -0.755869 0
M  V30 506 C 48.9422 1.75886 0.686271 0
M  V30 507 O 48.2992 1.08517 1.46732 0
M  V30 508 C 48.3502 3.44159 -1.10619 0
M  V30 509 O 48.0712 3.60341 -2.4917 0
M  V30 510 C 49.5722 4.3507 -0.850214 0
M  V30 511 H 46.7922 0.611587 -0.276048 0
M  V30 512 H 49.3362 1.50742 -1.38192 0
M  V30 513 H 47.4912 3.83823 -0.525194 0
M  V30 514 H 47.9052 4.54128 -2.62427 0
M  V30 515 H 49.3792 5.39989 -1.14523 0
M  V30 516 H 49.8562 4.38673 0.215176 0
M  V30 517 H 50.4622 4.01097 -1.41426 0
M  V30 518 N 48.7773 0.814389 1.34928 0
M  V30 519 C 50.0263 0.394871 1.97797 0
M  V30 520 C 50.3393 -1.04555 1.65311 0
M  V30 521 O 51.5453 -1.56856 2.21604 0
M  V30 522 C 50.0013 0.655103 3.53888 0
M  V30 523 C 49.6093 2.10858 3.95276 0
M  V30 524 C 51.3533 0.301329 4.23429 0
M  V30 525 C 49.2603 2.31415 5.44244 0
M  V30 526 H 48.1903 0.143913 0.740139 0
M  V30 527 H 50.8413 0.999544 1.53888 0
M  V30 528 H 49.2233 -0.0196253 3.95995 0
M  V30 529 H 50.3973 2.82176 3.64298 0
M  V30 530 H 48.7123 2.42297 3.38646 0
M  V30 531 H 51.3093 0.432869 5.32945 0
M  V30 532 H 51.6523 -0.75331 4.09428 0
M  V30 533 H 52.1853 0.930288 3.86769 0
M  V30 534 H 48.9243 3.35353 5.63222 0
M  V30 535 H 48.4443 1.6463 5.76764 0
M  V30 536 H 50.1233 2.13352 6.10811 0
M  V30 537 N 50.2554 -1.46986 0.568584 0
M  V30 538 C 51.4804 -2.07335 0.0520528 0
M  V30 539 C 51.9054 -1.41675 -1.23733 0
M  V30 540 O 51.2634 -0.495623 -1.74394 0
M  V30 541 C 51.3114 -3.60417 -0.11501 0
M  V30 542 O 50.4154 -3.95309 -1.17492 0
M  V30 543 H 49.7564 -0.661597 0.0564385 0
M  V30 544 H 52.2864 -1.88837 0.787507 0
M  V30 545 H 52.2964 -4.06698 -0.325644 0
M  V30 546 H 50.9714 -4.07601 0.826675 0
M  V30 547 H 49.5484 -3.60757 -0.943869 0
M  V30 548 N 51.7335 -0.305618 -1.54608 0
M  V30 549 C 52.9825 0.303098 -1.9941 0
M  V30 550 C 53.2955 1.54648 -1.19764 0
M  V30 551 O 54.5015 2.23007 -1.54855 0
M  V30 552 C 52.9575 0.590588 -3.55021 0
M  V30 553 C 52.5655 -0.634719 -4.43481 0
M  V30 554 C 54.3095 1.16025 -4.08336 0
M  V30 555 C 52.2165 -0.320126 -5.90533 0
M  V30 556 H 51.1465 0.117031 -0.744862 0
M  V30 557 H 53.7975 -0.415045 -1.78745 0
M  V30 558 H 52.1795 1.36845 -3.71604 0
M  V30 559 H 53.3535 -1.41079 -4.38672 0
M  V30 560 H 51.6685 -1.12333 -4.00962 0
M  V30 561 H 54.2655 1.40994 -5.15776 0
M  V30 562 H 54.6085 2.10397 -3.5922 0
M  V30 563 H 55.1415 0.443985 -3.95315 0
M  V30 564 H 51.8805 -1.23254 -6.43808 0
M  V30 565 H 51.4005 0.418579 -5.98338 0
M  V30 566 H 53.0795 0.0766241 -6.46955 0
M  V30 567 N 53.2116 1.57565 -0.0334293 0
M  V30 568 C 54.4596 1.91598 0.642999 0
M  V30 569 C 54.7806 0.910847 1.7242 0
M  V30 570 O 54.0506 -0.0469931 1.95844 0
M  V30 571 H 52.6306 0.707228 0.240496 0
M  V30 572 H 55.2926 1.94726 -0.0822488 0
M  V30 573 H 54.3886 2.92336 1.09298 0
M  V30 574 N 54.6897 -0.239769 1.55765 0
M  V30 575 C 55.9377 -0.964892 1.77579 0
M  V30 576 C 56.2587 -1.85582 0.598699 0
M  V30 577 O 55.5287 -1.92075 -0.385226 0
M  V30 578 H 54.1087 -0.359265 0.654933 0
M  V30 579 H 56.7707 -0.256001 1.93211 0
M  V30 580 H 55.8667 -1.58243 2.69009 0
M  V30 581 N 56.1678 -1.49265 -0.50573 0
M  V30 582 C 57.0978 -1.68495 -1.61653 0
M  V30 583 C 58.0788 -0.53366 -1.61512 0
M  V30 584 O 59.2638 -0.76897 -1.78327 0
M  V30 585 C 56.3938 -1.74709 -3.00157 0
M  V30 586 C 55.3478 -2.89581 -3.15162 0
M  V30 587 C 54.6738 -2.80903 -4.5497 0
M  V30 588 C 55.9738 -4.30578 -2.95634 0
M  V30 589 H 57.6678 -2.61493 -1.45814 0
M  V30 590 H 55.2138 -1.25838 -0.70005 0
M  V30 591 H 57.1668 -1.86748 -3.77761 0
M  V30 592 H 55.8908 -0.783067 -3.17074 0
M  V30 593 H 54.5498 -2.77136 -2.39982 0
M  V30 594 H 54.1978 -1.82419 -4.68756 0
M  V30 595 H 53.8978 -3.57999 -4.65951 0
M  V30 596 H 55.4218 -2.94944 -5.34641 0
M  V30 597 H 56.8358 -4.4373 -3.63011 0
M  V30 598 H 55.2328 -5.0886 -3.18091 0
M  V30 599 H 56.3028 -4.45352 -1.91806 0
M  V30 600 N 57.6459 0.756429 -1.3826 0
M  V30 601 C 58.8929 1.51547 -1.34312 0
M  V30 602 C 59.2209 1.94382 0.0677144 0
M  V30 603 O 58.4759 1.65514 1.04421 0
M  V30 604 C 58.7749 2.78313 -2.24224 0
M  V30 605 C 58.4409 2.54455 -3.72241 0
M  V30 606 C 57.1029 2.47657 -4.12576 0
M  V30 607 C 59.4549 2.3354 -4.65949 0
M  V30 608 C 56.7829 2.17956 -5.44713 0
M  V30 609 C 59.1349 2.05359 -5.9834 0
M  V30 610 C 57.7989 1.97016 -6.37762 0
M  V30 611 H 57.0689 0.55455 -0.491482 0
M  V30 612 H 59.7159 0.870039 -1.70595 0
M  V30 613 H 58.0209 3.47492 -1.80987 0
M  V30 614 H 59.7179 3.36259 -2.18474 0
M  V30 615 H 56.3079 2.60616 -3.40261 0
M  V30 616 H 60.4919 2.37772 -4.35635 0
M  V30 617 H 55.7479 2.10003 -5.74203 0
M  V30 618 H 59.9219 1.88179 -6.70494 0
M  V30 619 H 57.5489 1.73766 -7.40074 0
M  V30 620 N 59.124 1.23083 0.984299 0
M  V30 621 C 60.057 0.951786 2.07404 0
M  V30 622 C 61.035 -0.10848 1.62238 0
M  V30 623 O 62.219 0.0249467 1.88483 0
M  V30 624 C 59.346 0.433142 3.35919 0
M  V30 625 C 58.392 1.47941 4.0002 0
M  V30 626 S 59.225 3.05556 4.39768 0
M  V30 627 C 60.381 2.55351 5.71442 0
M  V30 628 H 60.614 1.87456 2.30754 0
M  V30 629 H 58.147 1.06284 1.11996 0
M  V30 630 H 60.105 0.140506 4.10259 0
M  V30 631 H 58.766 -0.468656 3.10584 0
M  V30 632 H 57.959 1.06658 4.92585 0
M  V30 633 H 57.561 1.7212 3.3204 0
M  V30 634 H 59.853 1.97128 6.48187 0
M  V30 635 H 60.796 3.46441 6.17563 0
M  V30 636 H 61.204 1.96339 5.29255 0
M  V30 637 N 60.6021 -1.18246 1.0419 0
M  V30 638 C 62.0181 -1.40269 0.761366 0
M  V30 639 C 62.2181 -1.90777 -0.648578 0
M  V30 640 O 61.2741 -2.0929 -1.41258 0
M  V30 641 C 62.5871 -2.40237 1.8085 0
M  V30 642 C 64.1351 -2.53961 1.82955 0
M  V30 643 C 64.6101 -3.57194 2.86664 0
M  V30 644 N 66.1011 -3.64702 2.85563 0
M  V30 645 C 66.8361 -4.44309 3.6246 0
M  V30 646 N 66.3321 -5.27514 4.49111 0
M  V30 647 N 68.1251 -4.39084 3.50944 0
M  V30 648 H 60.2761 -0.837882 1.95175 0
M  V30 649 H 62.5391 -0.430608 0.84456 0
M  V30 650 H 62.2451 -2.10176 2.81991 0
M  V30 651 H 62.1191 -3.39601 1.64168 0
M  V30 652 H 64.5061 -2.83338 0.824855 0
M  V30 653 H 64.5871 -1.54706 2.03715 0
M  V30 654 H 64.2311 -3.28558 3.87314 0
M  V30 655 H 64.1611 -4.5613 2.6316 0
M  V30 656 H 66.6521 -3.05289 2.22727 0
M  V30 657 H 66.9651 -5.85411 5.04493 0
M  V30 658 H 65.3101 -5.2693 4.53178 0
M  V30 659 H 68.5011 -3.7313 2.82651 0
M  V30 660 H 68.6741 -5.00883 4.11121 0
M  V30 661 N 62.0802 -0.821533 -1.34494 0
M  V30 662 C 63.0282 -0.230702 -2.31453 0
M  V30 663 C 64.0222 0.627793 -1.57338 0
M  V30 664 O 65.2282 0.519288 -1.72347 0
M  V30 665 H 61.6032 -0.0558577 -0.749923 0
M  V30 666 H 63.5742 -1.06332 -2.78812 0
M  V30 667 C 62.3232 0.59391 -3.4259 0
M  V30 668 H 61.6462 -0.0573588 -3.99759 0
M  V30 669 H 63.0862 0.973446 -4.12674 0
M  V30 670 C 61.5452 1.76568 -2.86924 0
M  V30 671 O 62.0752 2.8638 -2.81691 0
M  V30 672 N 60.2812 1.58198 -2.43766 0
M  V30 673 H 59.8282 0.68872 -2.48222 0
M  V30 674 H 59.7862 2.36752 -2.06871 0
M  V30 675 N 63.5583 1.46682 -0.576371 0
M  V30 676 C 64.7863 2.06798 -0.0649635 0
M  V30 677 C 65.2013 1.42612 1.23723 0
M  V30 678 O 64.5583 0.529203 1.74659 0
M  V30 679 C 64.6093 3.6132 0.114202 0
M  V30 680 O 64.3303 4.23104 -1.13644 0
M  V30 681 C 65.8313 4.38349 0.66069 0
M  V30 682 H 63.0513 0.668778 -0.0545616 0
M  V30 683 H 65.5953 1.88404 -0.795237 0
M  V30 684 H 63.7503 3.79162 0.794673 0
M  V30 685 H 64.1643 5.15894 -0.946253 0
M  V30 686 H 65.6383 5.47081 0.73526 0
M  V30 687 H 66.1153 4.05953 1.67627 0
M  V30 688 H 66.7213 4.25297 0.0152951 0
M  V30 689 N 65.0364 0.313813 1.54444 0
M  V30 690 C 66.2824 -0.292108 2.00685 0
M  V30 691 C 66.6154 -1.52548 1.20177 0
M  V30 692 O 65.8904 -1.92452 0.281531 0
M  V30 693 C 66.1734 -0.635968 3.5444 0
M  V30 694 C 66.0264 0.607437 4.4568 0
M  V30 695 C 67.3454 -1.45747 4.15266 0
M  V30 696 H 64.4644 -0.104697 0.729526 0
M  V30 697 H 67.1064 0.428457 1.85106 0
M  V30 698 H 65.2564 -1.24986 3.67846 0
M  V30 699 H 66.9284 1.24581 4.44159 0
M  V30 700 H 65.1714 1.23822 4.15753 0
M  V30 701 H 65.8424 0.322515 5.51057 0
M  V30 702 H 68.3184 -0.938645 4.05375 0
M  V30 703 H 67.1944 -1.66683 5.2298 0
M  V30 704 H 67.4554 -2.45063 3.67963 0
M  V30 705 N 66.5145 -1.57545 0.0417849 0
M  V30 706 C 67.4465 -2.07904 -0.964799 0
M  V30 707 C 68.4595 -1.00497 -1.28079 0
M  V30 708 O 69.6485 -1.28087 -1.24322 0
M  V30 709 C 66.7485 -2.49928 -2.28887 0
M  V30 710 C 65.9215 -3.80562 -2.15619 0
M  V30 711 C 64.9805 -4.08999 -3.31069 0
M  V30 712 O 64.0065 -4.79061 -3.0739 0
M  V30 713 N 65.2085 -3.6017 -4.55256 0
M  V30 714 H 67.9735 -2.94886 -0.535029 0
M  V30 715 H 65.5345 -1.61252 -0.144681 0
M  V30 716 H 67.5265 -2.66034 -3.04972 0
M  V30 717 H 66.0965 -1.68245 -2.63463 0
M  V30 718 H 65.3165 -3.74129 -1.24183 0
M  V30 719 H 66.6045 -4.66126 -2.03971 0
M  V30 720 H 66.0025 -3.03512 -4.77386 0
M  V30 721 H 64.5595 -3.81532 -5.28466 0
M  V30 722 N 67.9926 0.231505 -1.5589 0
M  V30 723 C 68.9026 1.308 -1.94752 0
M  V30 724 C 69.9186 1.51826 -0.849989 0
M  V30 725 O 71.0946 1.6515 -1.15271 0
M  V30 726 C 68.1596 2.63968 -2.24771 0
M  V30 727 C 67.2206 2.51331 -3.48039 0
M  V30 728 C 66.4536 3.78148 -3.76616 0
M  V30 729 O 66.6766 4.80722 -3.07022 0
M  V30 730 O 65.6106 3.75857 -4.70123 0
M  V30 731 H 69.4366 1.0083 -2.86474 0
M  V30 732 H 67.0216 0.433547 -1.42971 0
M  V30 733 H 68.9036 3.42633 -2.45318 0
M  V30 734 H 67.5786 2.9364 -1.36225 0
M  V30 735 H 66.4856 1.709 -3.32782 0
M  V30 736 H 67.8186 2.26601 -4.36936 0
M  V30 737 N 69.4707 1.49531 0.497807 0
M  V30 738 C 70.4207 1.62829 1.59596 0
M  V30 739 C 71.4047 0.483824 1.53453 0
M  V30 740 O 72.5967 0.736937 1.60929 0
M  V30 741 C 69.7257 1.7011 2.98191 0
M  V30 742 C 68.8117 2.90144 3.09317 0
M  V30 743 N 69.2027 4.1418 2.90324 0
M  V30 744 C 67.5007 2.88148 3.40422 0
M  V30 745 C 68.2017 4.94886 3.05717 0
M  V30 746 N 67.1777 4.28314 3.34736 0
M  V30 747 H 70.9797 2.56446 1.4357 0
M  V30 748 H 68.4937 1.46347 0.704001 0
M  V30 749 H 70.4907 1.77735 3.77115 0
M  V30 750 H 69.1507 0.776315 3.15283 0
M  V30 751 H 70.1617 4.44109 2.66436 0
M  V30 752 H 66.8387 2.05061 3.63671 0
M  V30 753 H 68.2287 6.03432 2.95499 0
M  V30 754 N 70.9488 -0.749086 1.3866 0
M  V30 755 C 72.1738 -1.54344 1.38538 0
M  V30 756 C 72.5988 -1.88088 -0.0216655 0
M  V30 757 O 71.9568 -1.50899 -1.00494 0
M  V30 758 C 72.0048 -2.8164 2.25192 0
M  V30 759 O 71.1088 -3.7698 1.67212 0
M  V30 760 H 70.4498 -0.466654 0.472367 0
M  V30 761 H 72.9798 -0.925355 1.82478 0
M  V30 762 H 72.9898 -3.30519 2.3921 0
M  V30 763 H 71.6648 -2.56411 3.27454 0
M  V30 764 H 70.2418 -3.35699 1.6236 0
M  V30 765 N 72.4269 -1.23603 -0.977757 0
M  V30 766 C 73.3899 -1.02069 -2.05218 0
M  V30 767 C 74.3899 0.0184305 -1.60789 0
M  V30 768 O 75.5799 -0.221569 -1.72785 0
M  V30 769 C 72.7119 -0.544926 -3.36517 0
M  V30 770 H 73.9049 -1.9742 -2.25755 0
M  V30 771 H 71.4579 -1.05684 -1.15155 0
M  V30 772 H 72.1929 0.412241 -3.21669 0
M  V30 773 H 71.9779 -1.2948 -3.70105 0
M  V30 774 H 73.4679 -0.414985 -4.15533 0
M  V30 775 N 73.905 1.17692 -1.04816 0
M  V30 776 C 75.152 1.87859 -0.75599 0
M  V30 777 C 75.48 1.80812 0.716752 0
M  V30 778 O 74.735 1.20819 1.53952 0
M  V30 779 C 75.034 3.37462 -1.17703 0
M  V30 780 C 74.7 3.64713 -2.65133 0
M  V30 781 C 73.362 3.71859 -3.05408 0
M  V30 782 C 75.714 3.76492 -3.60421 0
M  V30 783 C 73.042 3.88271 -4.39843 0
M  V30 784 C 75.394 3.94421 -4.94585 0
M  V30 785 C 74.058 3.99806 -5.3452 0
M  V30 786 H 73.328 0.687425 -0.276636 0
M  V30 787 H 75.975 1.39255 -1.31455 0
M  V30 788 H 74.28 3.88097 -0.537395 0
M  V30 789 H 75.977 3.90109 -0.928218 0
M  V30 790 H 72.567 3.59772 -2.32942 0
M  V30 791 H 76.751 3.70295 -3.30447 0
M  V30 792 H 72.007 3.90687 -4.70291 0
M  V30 793 H 76.181 4.02477 -5.68318 0
M  V30 794 H 73.808 4.12276 -6.38696 0
M  V30 795 N 75.3831 0.828654 1.34056 0
M  V30 796 C 76.7991 0.515135 1.51058 0
M  V30 797 C 76.9991 -0.959581 1.77184 0
M  V30 798 O 76.0551 -1.74382 1.82612 0
M  V30 799 C 77.3681 1.37963 2.67183 0
M  V30 800 C 78.9161 1.37735 2.81066 0
M  V30 801 C 79.3911 2.22645 4.00241 0
M  V30 802 N 80.8821 2.203 4.07458 0
M  V30 803 C 81.6171 2.82744 4.98842 0
M  V30 804 N 81.1131 3.54201 5.9541 0
M  V30 805 N 82.9061 2.72268 4.91759 0
M  V30 806 H 75.0571 1.78343 1.15358 0
M  V30 807 H 77.3201 0.760304 0.566252 0
M  V30 808 H 77.0261 2.42714 2.54525 0
M  V30 809 H 76.9001 1.0484 3.62338 0
M  V30 810 H 79.2871 0.337593 2.93163 0
M  V30 811 H 79.3681 1.74859 1.86703 0
M  V30 812 H 79.0121 3.26674 3.88905 0
M  V30 813 H 78.9421 1.82869 4.93829 0
M  V30 814 H 81.4331 1.68327 3.38341 0
M  V30 815 H 81.7461 3.9908 6.61782 0
M  V30 816 H 80.0911 3.58308 5.95517 0
M  V30 817 H 83.2821 2.16014 4.15278 0
M  V30 818 H 83.4551 3.21219 5.62781 0
M  V30 819 N 76.8612 -1.46375 0.584142 0
M  V30 820 C 78.1082 -2.02378 0.0702675 0
M  V30 821 C 78.4362 -1.45545 -1.29023 0
M  V30 822 O 77.6912 -0.610967 -1.85918 0
M  V30 823 C 77.9902 -3.57373 -0.0439342 0
M  V30 824 C 77.6562 -4.33252 1.24915 0
M  V30 825 C 76.3182 -4.53701 1.60341 0
M  V30 826 C 78.6702 -4.7681 2.1048 0
M  V30 827 C 75.9982 -5.1496 2.81128 0
M  V30 828 C 78.3502 -5.39404 3.30494 0
M  V30 829 C 77.0142 -5.5808 3.66201 0
M  V30 830 H 76.2842 -0.740554 0.0257127 0
M  V30 831 H 78.9312 -1.75727 0.761065 0
M  V30 832 H 77.2362 -3.83169 -0.817869 0
M  V30 833 H 78.9332 -3.98384 -0.457318 0
M  V30 834 H 75.5232 -4.17633 0.963364 0
M  V30 835 H 79.7072 -4.60766 1.84414 0
M  V30 836 H 74.9632 -5.27611 3.08928 0
M  V30 837 H 79.1372 -5.72114 3.97063 0
M  V30 838 H 76.7642 -6.05318 4.59885 0
M  V30 839 N 78.3393 -0.321999 -1.54275 0
M  V30 840 C 79.3023 0.531975 -2.22941 0
M  V30 841 C 80.3023 1.04478 -1.22234 0
M  V30 842 O 81.4923 0.937452 -1.46825 0
M  V30 843 C 78.6243 1.73874 -2.93224 0
M  V30 844 H 79.8173 -0.0682612 -2.99822 0
M  V30 845 H 77.3703 -0.0730644 -1.56129 0
M  V30 846 H 78.1053 2.37825 -2.20476 0
M  V30 847 H 77.8903 1.37847 -3.6707 0
M  V30 848 H 79.3803 2.34496 -3.45545 0
M  V30 849 N 79.8174 1.5752 -0.0501392 0
M  V30 850 C 81.0634 1.92936 0.624798 0
M  V30 851 C 81.3964 0.928685 1.70555 0
M  V30 852 O 80.6714 -0.0454779 1.94447 0
M  V30 853 C 80.9544 3.38737 1.22185 0
M  V30 854 C 80.8074 4.49552 0.149218 0
M  V30 855 C 82.1264 3.84913 2.13378 0
M  V30 856 H 79.2454 0.701604 0.225657 0
M  V30 857 H 81.8874 1.89671 -0.111693 0
M  V30 858 H 80.0374 3.4165 1.84953 0
M  V30 859 H 81.7094 4.58768 -0.482648 0
M  V30 860 H 79.9524 4.30638 -0.522841 0
M  V30 861 H 80.6234 5.48653 0.606966 0
M  V30 862 H 83.0994 3.8387 1.60572 0
M  V30 863 H 81.9754 4.87584 2.52097 0
M  V30 864 H 82.2364 3.21611 3.03346 0
M  V30 865 N 81.2955 -0.223234 1.56011 0
M  V30 866 C 82.2275 -1.30006 1.88762 0
M  V30 867 C 83.2405 -1.43129 0.775746 0
M  V30 868 O 84.4295 -1.44057 1.05403 0
M  V30 869 C 81.5295 -2.67589 2.07965 0
M  V30 870 C 80.7025 -2.76434 3.38973 0
M  V30 871 C 79.7615 -3.95019 3.47629 0
M  V30 872 O 78.7875 -3.83436 4.20672 0
M  V30 873 N 79.9895 -5.09249 2.78649 0
M  V30 874 H 82.7545 -1.02238 2.81722 0
M  V30 875 H 80.3155 -0.413278 1.56536 0
M  V30 876 H 82.3075 -3.45297 2.11073 0
M  V30 877 H 80.8775 -2.87964 1.21638 0
M  V30 878 H 80.0975 -1.85216 3.47978 0
M  V30 879 H 81.3855 -2.79313 4.25278 0
M  V30 880 H 80.7835 -5.21556 2.19081 0
M  V30 881 H 79.3405 -5.85007 2.8742 0
M  V30 882 N 82.7736 -1.49793 -0.48987 0
M  V30 883 C 83.7036 -1.70201 -1.59856 0
M  V30 884 C 84.6846 -0.55076 -1.60937 0
M  V30 885 O 85.8696 -0.787841 -1.77501 0
M  V30 886 C 82.9996 -1.77882 -2.98287 0
M  V30 887 C 81.9536 -2.92907 -3.12073 0
M  V30 888 C 81.2796 -2.85712 -4.51965 0
M  V30 889 C 82.5796 -4.3369 -2.91051 0
M  V30 890 H 84.2736 -2.63025 -1.43032 0
M  V30 891 H 81.8196 -1.26574 -0.686664 0
M  V30 892 H 83.7726 -1.90744 -3.75759 0
M  V30 893 H 82.4966 -0.816653 -3.16225 0
M  V30 894 H 81.1556 -2.79665 -2.37029 0
M  V30 895 H 80.8036 -1.8738 -4.66795 0
M  V30 896 H 80.5036 -3.62921 -4.62128 0
M  V30 897 H 82.0276 -3.00598 -5.31482 0
M  V30 898 H 83.4416 -4.47555 -3.58284 0
M  V30 899 H 81.8386 -5.12205 -3.12675 0
M  V30 900 H 82.9086 -4.47362 -1.87071 0
M  V30 901 N 84.2517 0.741722 -1.39055 0
M  V30 902 C 85.4817 1.52876 -1.3897 0
M  V30 903 C 85.8897 1.8919 0.0193266 0
M  V30 904 O 85.2327 1.54138 0.999356 0
M  V30 905 C 85.2947 2.84929 -2.19216 0
M  V30 906 C 84.9587 2.71086 -3.67915 0
M  V30 907 C 85.9557 2.40084 -4.61146 0
M  V30 908 C 83.6407 2.88168 -4.11418 0
M  V30 909 C 85.6347 2.26335 -5.95862 0
M  V30 910 C 83.3217 2.74037 -5.46211 0
M  V30 911 C 84.3197 2.43166 -6.38247 0
M  V30 912 O 84.0077 2.29115 -7.70559 0
M  V30 913 H 83.7397 0.479252 -0.476753 0
M  V30 914 H 86.2937 0.924751 -1.83405 0
M  V30 915 H 84.5237 3.47564 -1.69518 0
M  V30 916 H 86.2127 3.46509 -2.11392 0
M  V30 917 H 86.9787 2.26545 -4.28838 0
M  V30 918 H 82.8577 3.11191 -3.40119 0
M  V30 919 H 86.4017 2.0216 -6.67665 0
M  V30 920 H 82.2987 2.87153 -5.78112 0
M  V30 921 H 83.0667 2.44237 -7.81211 0
M  V30 922 N 85.7298 1.2412 0.971189 0
M  V30 923 C 86.6778 1.02812 2.08644 0
M  V30 924 C 87.6718 -0.0358403 1.69362 0
M  V30 925 O 88.8778 0.118429 1.7961 0
M  V30 926 H 85.2528 0.315428 0.682649 0
M  V30 927 H 87.2238 1.97397 2.23779 0
M  V30 928 C 85.9728 0.645874 3.41649 0
M  V30 929 H 85.2958 1.45632 3.72332 0
M  V30 930 H 86.7358 0.536366 4.20594 0
M  V30 931 C 85.1948 -0.646713 3.30635 0
M  V30 932 O 85.7248 -1.69338 3.64263 0
M  V30 933 N 83.9308 -0.626115 2.83775 0
M  V30 934 H 83.4778 0.225988 2.56607 0
M  V30 935 H 83.4358 -1.49117 2.76788 0
M  V30 936 N 87.2079 -1.17134 1.05439 0
M  V30 937 C 88.4359 -1.91372 0.786414 0
M  V30 938 C 88.8509 -1.76955 -0.658202 0
M  V30 939 O 88.2079 -1.10838 -1.44987 0
M  V30 940 C 88.2589 -3.42356 1.1608 0
M  V30 941 O 87.9799 -3.56332 2.54871 0
M  V30 942 C 89.4809 -4.33663 0.919322 0
M  V30 943 H 86.7009 -0.607118 0.285743 0
M  V30 944 H 89.2449 -1.48525 1.40572 0
M  V30 945 H 87.3999 -3.82939 0.586191 0
M  V30 946 H 87.8139 -4.49896 2.69618 0
M  V30 947 H 89.2879 -5.38099 1.231 0
M  V30 948 H 89.7649 -4.38959 -0.145359 0
M  V30 949 H 90.3709 -3.98796 1.47789 0
M  V30 950 N 88.686 -0.835752 -1.33615 0
M  V30 951 C 89.634 -0.255238 -2.31195 0
M  V30 952 C 90.628 0.61107 -1.57995 0
M  V30 953 O 91.834 0.500979 -1.72888 0
M  V30 954 H 88.209 -0.0638085 -0.749288 0
M  V30 955 H 90.18 -1.09283 -2.77669 0
M  V30 956 C 88.929 0.55754 -3.43201 0
M  V30 957 H 88.252 -0.0997553 -3.99676 0
M  V30 958 H 89.692 0.929622 -4.13683 0
M  V30 959 C 88.151 1.73515 -2.88781 0
M  V30 960 O 88.681 2.83376 -2.84712 0
M  V30 961 N 86.887 1.55603 -2.4543 0
M  V30 962 H 86.434 0.662354 -2.48939 0
M  V30 963 H 86.392 2.34545 -2.09371 0
M  V30 964 N 90.1641 1.46063 -0.591896 0
M  V30 965 C 91.0961 2.28539 0.174001 0
M  V30 966 C 92.1091 1.39047 0.846753 0
M  V30 967 O 93.2981 1.63564 0.714774 0
M  V30 968 C 90.3981 3.14347 1.26645 0
M  V30 969 C 89.5711 4.32021 0.683856 0
M  V30 970 C 88.6301 4.99157 1.66518 0
M  V30 971 O 87.6561 5.56458 1.19763 0
M  V30 972 N 88.8581 4.97005 2.99943 0
M  V30 973 H 91.6231 2.94911 -0.533633 0
M  V30 974 H 89.1841 1.56077 -0.430294 0
M  V30 975 H 91.1761 3.56125 1.92242 0
M  V30 976 H 89.7461 2.49988 1.87682 0
M  V30 977 H 88.9661 3.93915 -0.1498 0
M  V30 978 H 90.2541 5.08059 0.274567 0
M  V30 979 H 89.6521 4.51714 3.40545 0
M  V30 980 H 88.2091 5.42696 3.61004 0
M  V30 981 N 91.6422 0.330177 1.54103 0
M  V30 982 C 92.5902 -0.548226 2.26047 0
M  V30 983 C 93.5842 -1.11309 1.27698 0
M  V30 984 O 94.7902 -1.06036 1.45452 0
M  V30 985 H 91.1652 -0.195456 0.726155 0
M  V30 986 H 93.1362 0.0807567 2.98291 0
M  V30 987 C 91.8852 -1.69415 3.03634 0
M  V30 988 H 91.2082 -1.26876 3.79134 0
M  V30 989 H 92.6482 -2.28423 3.5721 0
M  V30 990 C 91.1072 -2.61569 2.12328 0
M  V30 991 O 91.6372 -3.63462 1.7105 0
M  V30 992 N 89.8432 -2.29952 1.77681 0
M  V30 993 H 89.3902 -1.47134 2.11446 0
M  V30 994 H 89.3482 -2.91871 1.16869 0
M  V30 995 N 93.1203 -1.57491 0.0584922 0
M  V30 996 C 94.3483 -1.97296 -0.623037 0
M  V30 997 C 94.7633 -0.936338 -1.63946 0
M  V30 998 O 94.1203 0.0785981 -1.82331 0
M  V30 999 C 94.1713 -3.37183 -1.30345 0
M  V30 1000 O 93.8923 -4.36872 -0.32773 0
M  V30 1001 C 95.3933 -3.91788 -2.07406 0
M  V30 1002 H 92.6133 -0.649153 -0.169826 0
M  V30 1003 H 95.1573 -2.04106 0.12696 0
M  V30 1004 H 93.3123 -3.31502 -2.00463 0
M  V30 1005 H 93.7263 -5.18141 -0.814269 0
M  V30 1006 H 95.2003 -4.91926 -2.50425 0
M  V30 1007 H 95.6773 -3.27609 -2.92521 0
M  V30 1008 H 96.2833 -4.00829 -1.42184 0
M  V30 1009 N 94.5984 0.214957 -1.56127 0
M  V30 1010 C 95.8264 0.955092 -1.83536 0
M  V30 1011 C 96.2414 1.77677 -0.638472 0
M  V30 1012 O 95.5984 1.78219 0.392968 0
M  V30 1013 C 95.6494 1.86734 -3.09536 0
M  V30 1014 O 95.3704 1.07887 -4.24608 0
M  V30 1015 C 96.8714 2.72082 -3.4998 0
M  V30 1016 H 94.0914 0.279611 -0.609966 0
M  V30 1017 H 96.6354 0.228197 -2.03223 0
M  V30 1018 H 94.7904 2.5481 -2.91806 0
M  V30 1019 H 95.2044 1.69872 -4.9623 0
M  V30 1020 H 96.6784 3.31782 -4.41163 0
M  V30 1021 H 97.1554 3.44806 -2.7204 0
M  V30 1022 H 97.7614 2.09409 -3.70173 0
M  V30 1023 N 96.0765 1.50051 0.48192 0
M  V30 1024 C 96.9865 1.7089 1.60728 0
M  V30 1025 C 98.0025 0.591788 1.63627 0
M  V30 1026 O 99.1785 0.868817 1.81696 0
M  V30 1027 C 96.2435 1.78855 2.97005 0
M  V30 1028 C 95.3045 3.02537 3.04581 0
M  V30 1029 C 94.5375 3.10112 4.34357 0
M  V30 1030 O 94.7605 2.24765 5.24249 0
M  V30 1031 O 93.6945 4.02747 4.47301 0
M  V30 1032 H 97.5205 2.66264 1.46072 0
M  V30 1033 H 95.1055 1.34018 0.660264 0
M  V30 1034 H 96.9875 1.86336 3.77964 0
M  V30 1035 H 95.6625 0.866628 3.11883 0
M  V30 1036 H 94.5695 3.00563 2.22739 0
M  V30 1037 H 95.9025 3.94272 2.94636 0
M  V30 1038 N 97.5546 -0.734337 1.39446 0
M  V30 1039 C 98.5016 -1.84835 1.38219 0
M  V30 1040 C 99.4716 -1.64331 0.24179 0
M  V30 1041 O 100.657 -1.85728 0.437002 0
M  V30 1042 C 97.7966 -3.22355 1.23212 0
M  V30 1043 C 96.9096 -3.5456 2.46801 0
M  V30 1044 C 96.0446 -4.81485 2.24377 0
M  V30 1045 C 95.0836 -5.06536 3.43639 0
M  V30 1046 N 94.2206 -6.24665 3.20528 0
M  V30 1047 H 99.0606 -1.85219 2.33448 0
M  V30 1048 H 96.5976 -0.905039 1.15963 0
M  V30 1049 H 98.5556 -4.0174 1.12522 0
M  V30 1050 H 97.1856 -3.21248 0.316121 0
M  V30 1051 H 96.2376 -2.69872 2.68092 0
M  V30 1052 H 97.5496 -3.6899 3.3563 0
M  V30 1053 H 96.7036 -5.68852 2.10933 0
M  V30 1054 H 95.4426 -4.6923 1.32944 0
M  V30 1055 H 94.4476 -4.17632 3.5758 0
M  V30 1056 H 95.6726 -5.20676 4.35974 0
M  V30 1057 H 93.6186 -6.13696 2.3176 0
M  V30 1058 H 93.5356 -6.39685 4.02913 0
M  V30 1059 H 94.8036 -7.14868 3.10779 0
M  V30 1060 N 99.0327 -1.24633 -0.964593 0
M  V30 1061 C 100.444 -1.08045 -1.5226 0
M  V30 1062 C 100.795 0.347116 -1.93105 0
M  V30 1063 O 99.9197 1.23588 -1.77637 0
M  V30 1064 C 100.515 -1.95514 -2.76695 0
M  V30 1065 C 99.0737 -1.8314 -3.28841 0
M  V30 1066 C 98.2207 -1.90262 -2.01732 0
M  V30 1067 H 101.172 -1.38064 -0.782553 0
M  V30 1068 H 101.193 -1.48925 -3.50145 0
M  V30 1069 H 100.705 -2.99407 -2.46936 0
M  V30 1070 H 98.8057 -0.82092 -3.63444 0
M  V30 1071 H 98.9187 -2.67406 -3.97531 0
M  V30 1072 H 97.2827 -1.34027 -2.16584 0
M  V30 1073 H 98.0657 -2.9574 -1.74334 0
M  V30 1074 N 100.511 1.16574 -1.06058 0
M  V30 1075 C 101.758 1.87047 -0.775873 0
M  V30 1076 C 102.086 1.81562 0.697534 0
M  V30 1077 O 101.341 1.22445 1.52662 0
M  V30 1078 C 101.64 3.36195 -1.21275 0
M  V30 1079 C 101.306 3.6188 -2.68986 0
M  V30 1080 C 99.9678 3.68599 -3.09335 0
M  V30 1081 C 102.32 3.72648 -3.64394 0
M  V30 1082 C 99.6478 3.83584 -4.43937 0
M  V30 1083 C 102 3.89154 -4.98741 0
M  V30 1084 C 100.664 3.94114 -5.3873 0
M  V30 1085 H 99.9338 0.684452 -0.283912 0
M  V30 1086 H 102.581 1.37853 -1.32925 0
M  V30 1087 H 100.886 3.87505 -0.578528 0
M  V30 1088 H 102.583 3.89103 -0.969542 0
M  V30 1089 H 99.1728 3.57281 -2.36744 0
M  V30 1090 H 103.357 3.66769 -3.34356 0
M  V30 1091 H 98.6128 3.85677 -4.74409 0
M  V30 1092 H 102.787 3.96427 -5.72554 0
M  V30 1093 H 100.414 4.05478 -6.43033 0
M  V30 1094 N 101.989 0.842826 1.3317 0
M  V30 1095 C 102.939 0.250877 2.26616 0
M  V30 1096 C 103.923 -0.596427 1.49437 0
M  V30 1097 O 105.115 -0.447747 1.71243 0
M  V30 1098 C 102.244 -0.569779 3.38539 0
M  V30 1099 C 101.33 0.289254 4.23112 0
M  V30 1100 N 101.721 1.36987 4.86897 0
M  V30 1101 C 100.019 0.0769631 4.45934 0
M  V30 1102 C 100.72 1.89737 5.49886 0
M  V30 1103 N 99.6959 1.19827 5.30229 0
M  V30 1104 H 103.498 1.07718 2.73448 0
M  V30 1105 H 101.012 0.687693 1.47121 0
M  V30 1106 H 103.009 -1.01018 4.04476 0
M  V30 1107 H 101.669 -1.39401 2.93253 0
M  V30 1108 H 102.68 1.75277 4.87338 0
M  V30 1109 H 99.3569 -0.713507 4.11358 0
M  V30 1110 H 100.747 2.80253 6.10662 0
M  V30 1111 N 103.467 -1.45747 0.599634 0
M  V30 1112 C 104.397 -2.33235 -0.111306 0
M  V30 1113 C 105.378 -1.46359 -0.866781 0
M  V30 1114 O 106.563 -1.75146 -0.838904 0
M  V30 1115 C 103.693 -3.28932 -1.11451 0
M  V30 1116 C 102.647 -4.25381 -0.472772 0
M  V30 1117 C 101.973 -5.1071 -1.58365 0
M  V30 1118 C 103.273 -5.18831 0.600948 0
M  V30 1119 H 104.967 -2.92927 0.61919 0
M  V30 1120 H 102.513 -1.40857 0.299215 0
M  V30 1121 H 104.466 -3.89002 -1.62036 0
M  V30 1122 H 103.19 -2.67381 -1.8755 0
M  V30 1123 H 101.849 -3.66598 0.0121472 0
M  V30 1124 H 101.497 -4.45533 -2.33473 0
M  V30 1125 H 101.197 -5.7604 -1.15982 0
M  V30 1126 H 102.721 -5.73647 -2.09194 0
M  V30 1127 H 104.135 -5.73019 0.179491 0
M  V30 1128 H 102.532 -5.92595 0.946076 0
M  V30 1129 H 103.602 -4.6174 1.48068 0
M  V30 1130 N 104.945 -0.338344 -1.53925 0
M  V30 1131 C 105.893 0.536231 -2.26335 0
M  V30 1132 C 106.887 1.1063 -1.28286 0
M  V30 1133 O 108.093 1.05264 -1.46012 0
M  V30 1134 H 104.468 0.191602 -0.727181 0
M  V30 1135 H 106.439 -0.0965747 -2.98244 0
M  V30 1136 C 105.188 1.67803 -3.04528 0
M  V30 1137 H 104.511 1.24864 -3.79801 0
M  V30 1138 H 105.951 2.26526 -3.58416 0
M  V30 1139 C 104.41 2.60439 -2.13712 0
M  V30 1140 O 104.94 3.6255 -1.72975 0
M  V30 1141 N 103.146 2.29006 -1.78898 0
M  V30 1142 H 102.693 1.46011 -2.12223 0
M  V30 1143 H 102.651 2.91248 -1.18416 0
M  V30 1144 N 106.423 1.57458 -0.0668435 0
M  V30 1145 C 107.653 1.97337 0.611677 0
M  V30 1146 C 108.061 0.943744 1.63982 0
M  V30 1147 O 107.404 -0.0785584 1.83532 0
M  V30 1148 C 107.466 3.33511 1.34205 0
M  V30 1149 C 107.13 4.54598 0.467941 0
M  V30 1150 C 108.127 5.19186 -0.272439 0
M  V30 1151 C 105.812 5.0075 0.39427 0
M  V30 1152 C 107.806 6.28274 -1.07476 0
M  V30 1153 C 105.493 6.09711 -0.411729 0
M  V30 1154 C 106.491 6.73335 -1.14492 0
M  V30 1155 O 106.179 7.80199 -1.93763 0
M  V30 1156 H 105.911 0.654042 0.170893 0
M  V30 1157 H 108.465 2.04961 -0.134289 0
M  V30 1158 H 106.695 3.22487 2.13398 0
M  V30 1159 H 108.384 3.58029 1.91233 0
M  V30 1160 H 109.15 4.84477 -0.225086 0
M  V30 1161 H 105.029 4.51009 0.954569 0
M  V30 1162 H 108.573 6.77866 -1.64755 0
M  V30 1163 H 104.47 6.43854 -0.460664 0
M  V30 1164 H 105.238 7.97053 -1.86142 0
M  V30 1165 N 107.901 -0.206675 1.56239 0
M  V30 1166 C 108.851 -1.26 1.90021 0
M  V30 1167 C 109.835 -1.41566 0.764721 0
M  V30 1168 O 111.027 -1.44131 1.02739 0
M  V30 1169 C 108.156 -2.6073 2.23326 0
M  V30 1170 C 107.242 -2.49005 3.43304 0
M  V30 1171 N 107.633 -2.06946 4.61527 0
M  V30 1172 C 105.931 -2.79927 3.47213 0
M  V30 1173 C 106.632 -2.06832 5.43687 0
M  V30 1174 N 105.608 -2.47892 4.83788 0
M  V30 1175 H 109.41 -0.925955 2.78932 0
M  V30 1176 H 106.924 -0.415172 1.57003 0
M  V30 1177 H 108.921 -3.36798 2.45708 0
M  V30 1178 H 107.581 -2.94968 1.35735 0
M  V30 1179 H 108.592 -1.77839 4.86409 0
M  V30 1180 H 105.269 -3.18438 2.70006 0
M  V30 1181 H 106.659 -1.76312 6.48354 0
M  V30 1182 N 109.379 -1.50304 -0.473955 0
M  V30 1183 C 110.625 -1.61389 -1.22806 0
M  V30 1184 C 110.958 -0.311955 -1.91678 0
M  V30 1185 O 110.233 0.686384 -1.81986 0
M  V30 1186 C 110.516 -2.79219 -2.27396 0
M  V30 1187 C 110.369 -4.19286 -1.62848 0
M  V30 1188 C 111.688 -2.92614 -3.28732 0
M  V30 1189 H 108.807 -0.587399 -0.445119 0
M  V30 1190 H 111.449 -1.82681 -0.522265 0
M  V30 1191 H 109.599 -2.61195 -2.87592 0
M  V30 1192 H 111.271 -4.48892 -1.06271 0
M  V30 1193 H 109.514 -4.23677 -0.931693 0
M  V30 1194 H 110.185 -4.97655 -2.38838 0
M  V30 1195 H 112.661 -3.09105 -2.78556 0
M  V30 1196 H 111.537 -3.76688 -3.99246 0
M  V30 1197 H 111.798 -2.03107 -3.92683 0
M  V30 1198 N 110.857 0.726932 -1.39834 0
M  V30 1199 C 112.134 1.47902 -1.28001 0
M  V30 1200 C 112.514 2.1083 0.106789 0
M  V30 1201 O 111.862 1.99242 1.11869 0
M  V30 1202 C 112.072 2.52392 -2.41038 0
M  V30 1203 C 113.42 3.18546 -2.80737 0
M  V30 1204 O 114.444 2.62708 -2.40547 0
M  V30 1205 O 113.303 4.19604 -3.50135 0
M  V30 1206 H 110.397 0.657163 -0.502062 0
M  V30 1207 H 112.943 0.760071 -1.51727 0
M  V30 1208 H 111.715 2.04329 -3.33715 0
M  V30 1209 H 111.338 3.31837 -2.19021 0
M  V30 1210 N 112.336 1.25143 0.95797 0
M  V30 1211 C 113.286 1.01924 2.0395 0
M  V30 1212 C 114.27 -0.0427175 1.60843 0
M  V30 1213 O 115.462 0.17221 1.7616 0
M  V30 1214 C 112.591 0.636373 3.3735 0
M  V30 1215 C 111.677 1.73492 3.8699 0
M  V30 1216 N 112.068 2.96945 4.0946 0
M  V30 1217 C 110.366 1.61467 4.15746 0
M  V30 1218 C 111.067 3.68228 4.50315 0
M  V30 1219 N 110.043 2.95833 4.56053 0
M  V30 1220 H 113.845 1.95653 2.19311 0
M  V30 1221 H 111.359 1.15413 1.14253 0
M  V30 1222 H 113.356 0.451233 4.14451 0
M  V30 1223 H 112.016 -0.293621 3.2337 0
M  V30 1224 H 113.027 3.33025 3.96629 0
M  V30 1225 H 109.704 0.753394 4.10646 0
M  V30 1226 H 111.094 4.74178 4.76031 0
M  V30 1227 N 113.814 -1.1601 1.06675 0
M  V30 1228 C 114.744 -2.22688 0.702307 0
M  V30 1229 C 115.725 -1.67306 -0.307032 0
M  V30 1230 O 116.91 -1.93352 -0.181305 0
M  V30 1231 C 114.04 -3.47178 0.092038 0
M  V30 1232 C 112.994 -4.15477 1.02777 0
M  V30 1233 C 112.32 -5.33963 0.28061 0
M  V30 1234 C 113.62 -4.66019 2.35846 0
M  V30 1235 H 115.314 -2.53429 1.59419 0
M  V30 1236 H 112.86 -1.21813 0.767961 0
M  V30 1237 H 114.813 -4.21037 -0.174814 0
M  V30 1238 H 113.537 -3.15749 -0.834877 0
M  V30 1239 H 112.196 -3.43549 1.27944 0
M  V30 1240 H 111.844 -4.98788 -0.649545 0
M  V30 1241 H 111.544 -5.806 0.904258 0
M  V30 1242 H 113.068 -6.10596 0.021396 0
M  V30 1243 H 114.482 -5.3144 2.15045 0
M  V30 1244 H 112.879 -5.23293 2.93743 0
M  V30 1245 H 113.949 -3.82023 2.98641 0
M  V30 1246 N 115.292 -0.849877 -1.32721 0
M  V30 1247 C 116.569 -0.372405 -1.92022 0
M  V30 1248 C 116.949 1.1435 -1.77447 0
M  V30 1249 O 116.297 1.96296 -1.16962 0
M  V30 1250 C 116.507 -0.831482 -3.3895 0
M  V30 1251 C 117.855 -0.845882 -4.16089 0
M  V30 1252 O 118.879 -0.775806 -3.47649 0
M  V30 1253 O 117.738 -0.943753 -5.38289 0
M  V30 1254 H 114.832 -0.107667 -0.819961 0
M  V30 1255 H 117.378 -0.93646 -1.41522 0
M  V30 1256 H 116.15 -1.87448 -3.4348 0
M  V30 1257 H 115.773 -0.24461 -3.96847 0
M  V30 1258 N 116.77 1.45427 -0.607355 0
M  V30 1259 C 117.995 2.07124 -0.107006 0
M  V30 1260 C 118.42 1.44906 1.19933 0
M  V30 1261 O 117.778 0.541687 1.73019 0
M  V30 1262 C 117.826 3.60595 0.0194119 0
M  V30 1263 O 116.93 3.98285 1.0697 0
M  V30 1264 H 116.271 0.659868 -0.0739597 0
M  V30 1265 H 118.801 1.86683 -0.837297 0
M  V30 1266 H 118.811 4.07419 0.2177 0
M  V30 1267 H 117.486 4.05266 -0.934453 0
M  V30 1268 H 116.063 3.63133 0.847889 0
M  V30 1269 N 118.248 0.346503 1.53744 0
M  V30 1270 C 119.473 -0.253074 2.0585 0
M  V30 1271 C 119.898 -1.43202 1.21962 0
M  V30 1272 O 119.256 -1.79783 0.234073 0
M  V30 1273 C 119.304 -0.643193 3.54817 0
M  V30 1274 O 118.408 -1.74286 3.73762 0
M  V30 1275 H 117.749 -0.0413583 0.662711 0
M  V30 1276 H 120.279 0.501574 1.98357 0
M  V30 1277 H 120.289 -0.919526 3.97503 0
M  V30 1278 H 118.964 0.218966 4.15323 0
M  V30 1279 H 117.541 -1.46356 3.42979 0
M  V30 1280 N 119.726 -1.57421 0.075193 0
M  V30 1281 C 120.674 -2.14124 -0.908508 0
M  V30 1282 C 121.668 -1.07898 -1.30592 0
M  V30 1283 O 122.874 -1.26273 -1.28277 0
M  V30 1284 H 119.249 -0.684707 -0.310935 0
M  V30 1285 H 121.22 -2.95634 -0.405374 0
M  V30 1286 C 119.969 -2.72044 -2.16535 0
M  V30 1287 H 119.292 -3.53456 -1.86839 0
M  V30 1288 H 120.732 -3.15311 -2.83469 0
M  V30 1289 C 119.191 -1.66968 -2.92615 0
M  V30 1290 O 119.721 -1.0967 -3.86439 0
M  V30 1291 N 117.927 -1.37923 -2.55784 0
M  V30 1292 H 117.474 -1.84706 -1.79559 0
M  V30 1293 H 117.432 -0.67852 -3.06991 0
M  V30 1294 N 121.204 0.198386 -1.56346 0
M  V30 1295 C 122.429 0.939682 -1.84891 0
M  V30 1296 C 122.854 1.76202 -0.658369 0
M  V30 1297 O 122.212 1.76993 0.392851 0
M  V30 1298 C 122.26 1.81428 -3.11635 0
M  V30 1299 O 121.364 2.91265 -2.91956 0
M  V30 1300 H 120.705 0.264807 -0.608912 0
M  V30 1301 H 123.235 0.204695 -2.03573 0
M  V30 1302 H 123.245 2.21958 -3.42343 0
M  V30 1303 H 121.92 1.21004 -3.97908 0
M  V30 1304 H 120.497 2.54514 -2.72538 0
M  V30 1305 N 122.682 1.50554 0.465978 0
M  V30 1306 C 123.929 1.61798 1.21768 0
M  V30 1307 C 124.257 0.320696 1.91838 0
M  V30 1308 O 123.512 -0.693724 1.82992 0
M  V30 1309 C 123.811 2.75152 2.28093 0
M  V30 1310 C 123.477 4.15454 1.75239 0
M  V30 1311 C 122.139 4.53628 1.60546 0
M  V30 1312 C 124.491 5.03121 1.36083 0
M  V30 1313 C 121.819 5.77204 1.05128 0
M  V30 1314 C 124.171 6.27249 0.821056 0
M  V30 1315 C 122.835 6.64221 0.660795 0
M  V30 1316 H 122.105 0.592063 0.445582 0
M  V30 1317 H 124.752 1.84503 0.512927 0
M  V30 1318 H 123.057 2.46556 3.04496 0
M  V30 1319 H 124.754 2.81055 2.86023 0
M  V30 1320 H 121.344 3.85341 1.87644 0
M  V30 1321 H 125.528 4.74257 1.46267 0
M  V30 1322 H 120.784 6.0452 0.91462 0
M  V30 1323 H 124.958 6.94537 0.509018 0
M  V30 1324 H 122.585 7.59854 0.229226 0
M  V30 1325 N 124.16 -0.719506 1.40217 0
M  V30 1326 C 125.385 -1.51371 1.4178 0
M  V30 1327 C 125.81 -1.88091 0.0182355 0
M  V30 1328 O 125.168 -1.52997 -0.972707 0
M  V30 1329 C 125.216 -2.768 2.31115 0
M  V30 1330 O 124.32 -3.73349 1.7517 0
M  V30 1331 H 123.661 -0.456529 0.482159 0
M  V30 1332 H 126.191 -0.88644 1.844 0
M  V30 1333 H 126.201 -3.25371 2.46167 0
M  V30 1334 H 124.876 -2.49407 3.3282 0
M  V30 1335 H 123.453 -3.32179 1.69444 0
M  V30 1336 N 125.638 -1.25649 -0.95132 0
M  V30 1337 C 126.884 -1.10757 -1.69884 0
M  V30 1338 C 127.217 0.350061 -1.91019 0
M  V30 1339 O 126.492 1.25783 -1.48354 0
M  V30 1340 C 126.775 -1.86606 -3.07978 0
M  V30 1341 C 126.628 -3.40217 -2.94232 0
M  V30 1342 C 127.947 -1.65182 -4.07925 0
M  V30 1343 H 125.066 -0.40374 -0.616574 0
M  V30 1344 H 127.708 -1.54521 -1.10558 0
M  V30 1345 H 125.858 -1.49409 -3.58621 0
M  V30 1346 H 127.53 -3.87108 -2.50889 0
M  V30 1347 H 125.773 -3.67759 -2.30078 0
M  V30 1348 H 126.444 -3.88505 -3.92133 0
M  V30 1349 H 128.92 -1.9757 -3.66204 0
M  V30 1350 H 127.796 -2.20683 -5.02583 0
M  V30 1351 H 128.057 -0.593933 -4.38092 0
M  V30 1352 N 127.117 1.15442 -1.07289 0
M  V30 1353 C 128.345 1.90096 -0.81676 0
M  V30 1354 C 128.76 1.7798 0.629966 0
M  V30 1355 O 128.117 1.1313 1.43206 0
M  V30 1356 C 128.168 3.40466 -1.21512 0
M  V30 1357 O 127.889 3.52232 -2.60508 0
M  V30 1358 C 129.39 4.32145 -0.988198 0
M  V30 1359 H 126.61 0.602495 -0.295366 0
M  V30 1360 H 129.154 1.4627 -1.42918 0
M  V30 1361 H 127.309 3.81958 -0.647039 0
M  V30 1362 H 127.723 4.45549 -2.76742 0
M  V30 1363 H 129.197 5.36072 -1.31645 0
M  V30 1364 H 129.674 4.39135 0.0755063 0
M  V30 1365 H 130.28 3.96395 -1.54115 0
M  V30 1366 N 128.595 0.856903 1.32268 0
M  V30 1367 C 129.543 0.291987 2.3076 0
M  V30 1368 C 130.537 -0.585857 1.58947 0
M  V30 1369 O 131.743 -0.47341 1.73663 0
M  V30 1370 H 128.118 0.075721 0.748178 0
M  V30 1371 H 130.089 1.13687 2.75895 0
M  V30 1372 C 128.838 -0.502869 3.44044 0
M  V30 1373 H 128.161 0.163328 3.99466 0
M  V30 1374 H 129.601 -0.863691 4.1511 0
M  V30 1375 C 128.06 -1.68898 2.91505 0
M  V30 1376 O 128.59 -2.78811 2.89184 0
M  V30 1377 N 126.796 -1.51679 2.47875 0
M  V30 1378 H 126.343 -0.622666 2.49961 0
M  V30 1379 H 126.301 -2.31184 2.13076 0
M  V30 1380 N 130.073 -1.45103 0.615059 0
M  V30 1381 C 131.036 -2.29025 -0.0895485 0
M  V30 1382 C 132.036 -1.40174 -0.787906 0
M  V30 1383 O 133.226 -1.62217 -0.634933 0
M  V30 1384 C 130.358 -3.21376 -1.13711 0
M  V30 1385 H 131.551 -2.92807 0.648382 0
M  V30 1386 H 129.104 -1.51749 0.374444 0
M  V30 1387 H 129.839 -2.6241 -1.90556 0
M  V30 1388 H 129.624 -3.86834 -0.640475 0
M  V30 1389 H 131.114 -3.84459 -1.63036 0
M  V30 1390 N 131.551 -0.354651 -1.53558 0
M  V30 1391 C 132.798 0.238443 -2.01091 0
M  V30 1392 C 133.126 1.49663 -1.24222 0
M  V30 1393 O 132.381 1.93049 -0.321003 0
M  V30 1394 C 132.68 0.587121 -3.52545 0
M  V30 1395 C 132.346 -0.575472 -4.47213 0
M  V30 1396 C 131.008 -0.894497 -4.72813 0
M  V30 1397 C 133.36 -1.35489 -5.03281 0
M  V30 1398 C 130.688 -1.99511 -5.51736 0
M  V30 1399 C 133.04 -2.44583 -5.83405 0
M  V30 1400 C 131.704 -2.77033 -6.07296 0
M  V30 1401 H 130.974 0.0872526 -0.735845 0
M  V30 1402 H 133.621 -0.484859 -1.8526 0
M  V30 1403 H 131.926 1.39129 -3.66265 0
M  V30 1404 H 133.623 1.05809 -3.86789 0
M  V30 1405 H 130.213 -0.316774 -4.27428 0
M  V30 1406 H 134.397 -1.12167 -4.83459 0
M  V30 1407 H 129.653 -2.25063 -5.68469 0
M  V30 1408 H 133.827 -3.05401 -6.25862 0
M  V30 1409 H 131.454 -3.6244 -6.68237 0
M  V30 1410 N 133.029 1.57378 -0.0835403 0
M  V30 1411 C 134.269 1.95808 0.586381 0
M  V30 1412 C 134.633 0.963706 1.66062 0
M  V30 1413 O 135.834 1.23608 2.38693 0
M  V30 1414 C 134.105 3.38808 1.13771 0
M  V30 1415 S 135.664 3.99225 1.82112 0
M  V30 1416 H 132.482 0.684675 0.191679 0
M  V30 1417 H 135.084 1.94843 -0.160194 0
M  V30 1418 H 133.788 4.08954 0.344197 0
M  V30 1419 H 133.319 3.43344 1.92038 0
M  V30 1420 H 135.334 3.87087 3.10449 0
M  V30 1421 N 134.507 -0.190092 1.56449 0
M  V30 1422 C 135.732 -0.929864 1.85387 0
M  V30 1423 C 136.157 -1.7585 0.667704 0
M  V30 1424 O 135.515 -1.77198 -0.383459 0
M  V30 1425 C 135.563 -1.79773 3.12593 0
M  V30 1426 O 134.667 -2.89713 2.93496 0
M  V30 1427 H 134.008 -0.261574 0.610307 0
M  V30 1428 H 136.538 -0.193896 2.03679 0
M  V30 1429 H 136.548 -2.20139 3.43515 0
M  V30 1430 H 135.223 -1.18892 3.98544 0
M  V30 1431 H 133.8 -2.53065 2.73884 0
M  V30 1432 N 135.985 -1.50799 -0.457987 0
M  V30 1433 C 136.917 -1.66786 -1.57211 0
M  V30 1434 C 137.93 -0.548962 -1.53265 0
M  V30 1435 O 139.119 -0.8226 -1.58416 0
M  V30 1436 C 136.219 -1.64834 -2.96113 0
M  V30 1437 C 135.392 -2.92971 -3.24787 0
M  V30 1438 C 134.451 -2.83485 -4.43309 0
M  V30 1439 O 133.477 -3.5744 -4.42973 0
M  V30 1440 N 134.679 -1.97929 -5.45714 0
M  V30 1441 H 137.444 -2.62889 -1.43909 0
M  V30 1442 H 135.005 -1.48427 -0.646617 0
M  V30 1443 H 136.997 -1.56084 -3.7339 0
M  V30 1444 H 135.567 -0.764118 -3.03117 0
M  V30 1445 H 134.787 -3.15749 -2.36 0
M  V30 1446 H 136.075 -3.77834 -3.40762 0
M  V30 1447 H 135.473 -1.37182 -5.48815 0
M  V30 1448 H 134.03 -1.95073 -6.21924 0
M  V30 1449 N 137.463 0.71206 -1.40597 0
M  V30 1450 C 138.71 1.47197 -1.39065 0
M  V30 1451 C 139.038 1.94499 0.00583891 0
M  V30 1452 O 138.293 1.68752 0.99102 0
M  V30 1453 C 138.592 2.71039 -2.32965 0
M  V30 1454 C 138.258 2.42484 -3.80148 0
M  V30 1455 C 136.92 2.34406 -4.20247 0
M  V30 1456 C 139.272 2.18598 -4.73143 0
M  V30 1457 C 136.6 2.00516 -5.51371 0
M  V30 1458 C 138.952 1.8622 -6.0457 0
M  V30 1459 C 137.616 1.76626 -6.43708 0
M  V30 1460 H 136.886 0.538634 -0.508876 0
M  V30 1461 H 139.533 0.815325 -1.73276 0
M  V30 1462 H 137.838 3.41558 -1.91951 0
M  V30 1463 H 139.535 3.29138 -2.29061 0
M  V30 1464 H 136.125 2.49659 -3.4838 0
M  V30 1465 H 140.309 2.23793 -4.42979 0
M  V30 1466 H 135.565 1.91628 -5.80593 0
M  V30 1467 H 139.739 1.66752 -6.76141 0
M  V30 1468 H 137.366 1.50133 -7.45228 0
M  V30 1469 N 138.941 1.26152 0.944643 0
M  V30 1470 C 140.166 1.14363 1.7302 0
M  V30 1471 C 140.591 -0.29772 1.85729 0
M  V30 1472 O 139.949 -1.2157 1.34501 0
M  V30 1473 C 139.997 1.81378 3.11664 0
M  V30 1474 O 139.101 1.10022 3.97453 0
M  V30 1475 H 138.442 0.398694 0.53098 0
M  V30 1476 H 140.972 1.66906 1.18337 0
M  V30 1477 H 140.982 1.88064 3.62072 0
M  V30 1478 H 139.657 2.86237 3.0173 0
M  V30 1479 H 138.234 1.11287 3.55907 0
M  V30 1480 N 140.419 -1.14872 1.07899 0
M  V30 1481 C 141.835 -1.37776 0.805606 0
M  V30 1482 C 142.035 -1.92743 -0.587555 0
M  V30 1483 O 141.091 -2.13678 -1.34528 0
M  V30 1484 C 142.404 -2.34361 1.88402 0
M  V30 1485 C 143.952 -2.48012 1.90942 0
M  V30 1486 C 144.427 -3.47893 2.97883 0
M  V30 1487 N 145.918 -3.55433 2.97021 0
M  V30 1488 C 146.653 -4.32553 3.76412 0
M  V30 1489 N 146.149 -5.12959 4.65666 0
M  V30 1490 N 147.942 -4.27697 3.64735 0
M  V30 1491 H 140.093 -0.775365 1.97742 0
M  V30 1492 H 142.356 -0.403521 0.857831 0
M  V30 1493 H 142.062 -2.01098 2.88535 0
M  V30 1494 H 141.936 -3.34206 1.74889 0
M  V30 1495 H 144.323 -2.8057 0.914579 0
M  V30 1496 H 144.404 -1.48147 2.08534 0
M  V30 1497 H 144.048 -3.16069 3.97571 0
M  V30 1498 H 143.978 -4.47527 2.77538 0
M  V30 1499 H 146.469 -2.98048 2.32326 0
M  V30 1500 H 146.782 -5.69065 5.22862 0
M  V30 1501 H 145.127 -5.12245 4.69712 0
M  V30 1502 H 148.318 -3.63949 2.94378 0
M  V30 1503 H 148.491 -4.8755 4.26848 0
M  V30 1504 N 141.898 -0.863906 -1.31812 0
M  V30 1505 C 143.146 -0.470904 -1.96537 0
M  V30 1506 C 143.467 0.978771 -1.68657 0
M  V30 1507 O 142.737 1.6853 -0.998717 0
M  V30 1508 H 141.317 -0.171148 -0.72713 0
M  V30 1509 H 143.979 -1.10236 -1.60729 0
M  V30 1510 H 143.075 -0.623616 -3.05806 0
M  V30 1511 N 143.376 1.44774 -0.622745 0
M  V30 1512 C 144.622 2.0242 -0.124083 0
M  V30 1513 C 144.955 1.4881 1.24777 0
M  V30 1514 O 144.23 0.668799 1.8264 0
M  V30 1515 C 144.513 3.59957 -0.101619 0
M  V30 1516 C 144.366 4.23867 -1.50521 0
M  V30 1517 C 145.685 4.36284 0.578272 0
M  V30 1518 H 142.804 0.735528 -0.0465645 0
M  V30 1519 H 145.446 1.72447 -0.797617 0
M  V30 1520 H 143.596 3.85623 0.471934 0
M  V30 1521 H 145.268 4.09336 -2.12701 0
M  V30 1522 H 143.511 3.81684 -2.06154 0
M  V30 1523 H 144.182 5.32843 -1.4416 0
M  V30 1524 H 146.658 4.16001 0.0906057 0
M  V30 1525 H 145.534 5.46004 0.563149 0
M  V30 1526 H 145.795 4.10271 1.64713 0
M  V30 1527 N 144.854 0.36279 1.53368 0
M  V30 1528 C 146.084 -0.228281 2.05335 0
M  V30 1529 C 146.492 -1.43226 1.23625 0
M  V30 1530 O 145.835 -1.81717 0.269206 0
M  V30 1531 C 145.897 -0.688549 3.52845 0
M  V30 1532 C 145.561 0.398362 4.5526 0
M  V30 1533 C 146.558 1.24732 5.04716 0
M  V30 1534 C 144.243 0.557805 4.99193 0
M  V30 1535 C 146.237 2.2411 5.96702 0
M  V30 1536 C 143.924 1.55495 5.90986 0
M  V30 1537 C 144.922 2.39503 6.39631 0
M  V30 1538 O 144.61 3.37517 7.29615 0
M  V30 1539 H 144.342 -0.044395 0.674541 0
M  V30 1540 H 146.896 0.518668 1.98744 0
M  V30 1541 H 145.126 -1.48706 3.56964 0
M  V30 1542 H 146.815 -1.20231 3.87685 0
M  V30 1543 H 147.581 1.13532 4.71525 0
M  V30 1544 H 143.46 -0.0862959 4.60919 0
M  V30 1545 H 147.004 2.89718 6.34594 0
M  V30 1546 H 142.901 1.66744 6.23592 0
M  V30 1547 H 143.669 3.33213 7.47604 0
M  V30 1548 N 146.332 -1.57332 0.0918853 0
M  V30 1549 C 147.295 -2.12708 -0.85369 0
M  V30 1550 C 148.295 -1.05561 -1.213 0
M  V30 1551 O 149.485 -1.31461 -1.14296 0
M  V30 1552 C 146.617 -2.64503 -2.15061 0
M  V30 1553 H 147.81 -2.97573 -0.3729 0
M  V30 1554 H 145.363 -1.55509 -0.157072 0
M  V30 1555 H 146.098 -1.83149 -2.67632 0
M  V30 1556 H 145.883 -3.4284 -1.90272 0
M  V30 1557 H 147.373 -3.07351 -2.82711 0
M  V30 1558 N 147.81 0.181792 -1.56548 0
M  V30 1559 C 149.059 0.898348 -1.8059 0
M  V30 1560 C 149.372 1.83862 -0.667379 0
M  V30 1561 O 150.578 2.59678 -0.792446 0
M  V30 1562 C 149.034 1.64791 -3.19956 0
M  V30 1563 C 148.642 0.751789 -4.41647 0
M  V30 1564 C 150.386 2.35331 -3.53298 0
M  V30 1565 C 148.293 1.50098 -5.72035 0
M  V30 1566 H 147.223 0.339194 -0.673397 0
M  V30 1567 H 149.874 0.151413 -1.82874 0
M  V30 1568 H 148.256 2.43921 -3.11959 0
M  V30 1569 H 149.43 -0.0018076 -4.608 0
M  V30 1570 H 147.745 0.156562 -4.16106 0
M  V30 1571 H 150.342 2.91958 -4.47956 0
M  V30 1572 H 150.685 3.10164 -2.77676 0
M  V30 1573 H 151.218 1.63154 -3.62803 0
M  V30 1574 H 147.957 0.795175 -6.50659 0
M  V30 1575 H 147.477 2.22817 -5.56878 0
M  V30 1576 H 149.156 2.05125 -6.13622 0
M  V30 1577 N 149.288 1.51039 0.449983 0
M  V30 1578 C 150.535 1.63081 1.20045 0
M  V30 1579 C 150.863 0.341024 1.91487 0
M  V30 1580 O 150.118 -0.674276 1.83717 0
M  V30 1581 C 150.417 2.77556 2.25161 0
M  V30 1582 C 150.083 4.17289 1.70823 0
M  V30 1583 C 148.745 4.55305 1.55725 0
M  V30 1584 C 151.097 5.04536 1.3074 0
M  V30 1585 C 148.425 5.78287 0.989999 0
M  V30 1586 C 150.777 6.28085 0.754482 0
M  V30 1587 C 149.441 6.64885 0.590308 0
M  V30 1588 H 148.711 0.596755 0.439277 0
M  V30 1589 H 151.358 1.85037 0.49333 0
M  V30 1590 H 149.663 2.49771 3.01863 0
M  V30 1591 H 151.36 2.84073 2.83026 0
M  V30 1592 H 147.95 3.8731 1.83546 0
M  V30 1593 H 152.134 4.75782 1.41229 0
M  V30 1594 H 147.39 6.05456 0.850451 0
M  V30 1595 H 151.564 6.95038 0.435324 0
M  V30 1596 H 149.191 7.60055 0.14862 0
M  V30 1597 N 150.766 -0.704594 1.40972 0
M  V30 1598 C 152.014 -1.46169 1.39568 0
M  V30 1599 C 152.335 -1.95 0.00253745 0
M  V30 1600 O 151.605 -1.71095 -0.954114 0
M  V30 1601 H 150.185 -0.542326 0.513704 0
M  V30 1602 H 152.847 -0.834553 1.76128 0
M  V30 1603 H 151.943 -2.32922 2.07735 0
M  V30 1604 N 152.244 -1.26651 -0.937939 0
M  V30 1605 C 153.491 -1.12387 -1.6845 0
M  V30 1606 C 153.819 0.332208 -1.91642 0
M  V30 1607 O 153.074 1.2602 -1.49725 0
M  V30 1608 C 153.373 -1.84168 -3.06295 0
M  V30 1609 C 153.039 -3.34056 -3.02849 0
M  V30 1610 C 151.701 -3.74942 -3.01616 0
M  V30 1611 C 154.053 -4.29741 -2.9491 0
M  V30 1612 C 151.381 -5.09894 -2.90215 0
M  V30 1613 C 153.733 -5.64738 -2.8505 0
M  V30 1614 C 152.397 -6.0493 -2.82162 0
M  V30 1615 H 151.667 -0.411252 -0.616403 0
M  V30 1616 H 154.314 -1.57134 -1.09459 0
M  V30 1617 H 152.619 -1.319 -3.6893 0
M  V30 1618 H 154.316 -1.70569 -3.62915 0
M  V30 1619 H 150.906 -3.01534 -3.0459 0
M  V30 1620 H 155.09 -3.99133 -2.94969 0
M  V30 1621 H 150.346 -5.40194 -2.86358 0
M  V30 1622 H 154.52 -6.38561 -2.77872 0
M  V30 1623 H 152.147 -7.09457 -2.73084 0
M  V30 1624 N 153.722 1.14298 -1.08507 0
M  V30 1625 C 154.952 1.88945 -0.835663 0
M  V30 1626 C 155.36 1.78894 0.615928 0
M  V30 1627 O 154.703 1.1468 1.43506 0
M  V30 1628 C 154.765 3.39585 -1.17994 0
M  V30 1629 C 154.429 3.7342 -2.63451 0
M  V30 1630 C 155.426 3.73454 -3.61702 0
M  V30 1631 C 153.111 4.03368 -2.99332 0
M  V30 1632 C 155.105 4.02961 -4.93864 0
M  V30 1633 C 152.792 4.32538 -4.31687 0
M  V30 1634 C 153.79 4.32318 -5.28763 0
M  V30 1635 O 153.478 4.6078 -6.58739 0
M  V30 1636 H 153.21 0.605307 -0.300965 0
M  V30 1637 H 155.764 1.45673 -1.44806 0
M  V30 1638 H 153.994 3.83315 -0.51055 0
M  V30 1639 H 155.683 3.9554 -0.911182 0
M  V30 1640 H 156.449 3.50403 -3.35325 0
M  V30 1641 H 152.328 4.02692 -2.24411 0
M  V30 1642 H 155.872 4.02704 -5.69627 0
M  V30 1643 H 151.769 4.55059 -4.57812 0
M  V30 1644 H 152.537 4.78492 -6.64069 0
M  V30 1645 N 155.201 0.870884 1.31352 0
M  V30 1646 C 156.478 0.402907 1.91405 0
M  V30 1647 C 156.858 -1.11512 1.79244 0
M  V30 1648 O 156.206 -1.94411 1.2007 0
M  V30 1649 C 156.416 0.885301 3.37585 0
M  V30 1650 C 157.764 0.911971 4.14691 0
M  V30 1651 O 158.788 0.831016 3.46371 0
M  V30 1652 O 157.647 1.02927 5.3672 0
M  V30 1653 H 154.741 0.120698 0.818145 0
M  V30 1654 H 157.287 0.958857 1.40014 0
M  V30 1655 H 156.059 1.92889 3.40455 0
M  V30 1656 H 155.682 0.307714 3.96407 0
M  V30 1657 N 156.679 -1.44442 0.630414 0
M  V30 1658 C 157.611 -2.2892 -0.113347 0
M  V30 1659 C 158.624 -1.41243 -0.80959 0
M  V30 1660 O 159.813 -1.65402 -0.671156 0
M  V30 1661 C 156.913 -3.17594 -1.18266 0
M  V30 1662 C 156.086 -4.33682 -0.569073 0
M  V30 1663 C 155.145 -5.03397 -1.53226 0
M  V30 1664 O 154.171 -5.59438 -1.04967 0
M  V30 1665 N 155.373 -5.04783 -2.86661 0
M  V30 1666 H 158.138 -2.93392 0.611636 0
M  V30 1667 H 155.699 -1.54881 0.471523 0
M  V30 1668 H 157.691 -3.61097 -1.82732 0
M  V30 1669 H 156.261 -2.54876 -1.80988 0
M  V30 1670 H 155.481 -3.9338 0.254187 0
M  V30 1671 H 156.769 -5.08608 -0.139767 0
M  V30 1672 H 156.167 -4.60584 -3.28449 0
M  V30 1673 H 154.724 -5.52077 -3.46489 0
M  V30 1674 N 158.157 -0.370918 -1.53173 0
M  V30 1675 C 159.09 0.516727 -2.22273 0
M  V30 1676 C 160.068 1.07877 -1.21661 0
M  V30 1677 O 161.252 1.13389 -1.50583 0
M  V30 1678 C 158.379 1.71346 -2.92161 0
M  V30 1679 C 157.425 1.27838 -4.0689 0
M  V30 1680 S 158.258 0.275217 -5.34792 0
M  V30 1681 C 159.414 1.47816 -6.08195 0
M  V30 1682 H 159.647 -0.0701054 -2.97217 0
M  V30 1683 H 157.18 -0.155038 -1.5362 0
M  V30 1684 H 159.138 2.39988 -3.3304 0
M  V30 1685 H 157.799 2.27156 -2.16931 0
M  V30 1686 H 156.992 2.17141 -4.54825 0
M  V30 1687 H 156.594 0.671105 -3.6793 0
M  V30 1688 H 158.886 2.40831 -6.33251 0
M  V30 1689 H 159.829 1.04008 -7.0042 0
M  V30 1690 H 160.237 1.68663 -5.38714 0
M  V30 1691 N 159.635 1.57281 -0.100228 0
M  V30 1692 C 160.86 1.99302 0.573881 0
M  V30 1693 C 161.285 0.979059 1.60611 0
M  V30 1694 O 160.643 -0.0517803 1.81226 0
M  V30 1695 C 160.691 3.40274 1.19358 0
M  V30 1696 O 159.795 3.41676 2.30935 0
M  V30 1697 H 159.136 0.647944 0.145138 0
M  V30 1698 H 161.666 2.03779 -0.183156 0
M  V30 1699 H 161.676 3.78078 1.53365 0
M  V30 1700 H 160.351 4.13594 0.437385 0
M  V30 1701 H 158.928 3.15672 1.98509 0
M  V30 1702 N 161.113 -0.173488 1.56642 0
M  V30 1703 C 162.046 -1.24353 1.91342 0
M  V30 1704 C 163.024 -1.4289 0.775965 0
M  V30 1705 O 164.208 -1.57932 1.02907 0
M  V30 1706 C 161.335 -2.60683 2.16245 0
M  V30 1707 C 160.381 -2.58894 3.38934 0
M  V30 1708 S 161.214 -2.0819 4.93373 0
M  V30 1709 C 162.37 -3.46302 5.21369 0
M  V30 1710 H 162.603 -0.947345 2.81803 0
M  V30 1711 H 160.136 -0.377958 1.49703 0
M  V30 1712 H 162.094 -3.39149 2.31275 0
M  V30 1713 H 160.755 -2.87502 1.26496 0
M  V30 1714 H 159.948 -3.59188 3.53553 0
M  V30 1715 H 159.55 -1.88522 3.2301 0
M  V30 1716 H 161.842 -4.42287 5.13214 0
M  V30 1717 H 162.785 -3.3656 6.23003 0
M  V30 1718 H 163.193 -3.42214 4.48943 0
M  V30 1719 N 162.591 -1.51276 -0.441967 0
M  V30 1720 C 163.539 -1.72823 -1.55676 0
M  V30 1721 C 164.533 -0.59445 -1.58627 0
M  V30 1722 O 165.739 -0.775715 -1.62427 0
M  V30 1723 H 162.114 -0.545983 -0.517113 0
M  V30 1724 H 164.085 -2.6628 -1.34675 0
M  V30 1725 C 162.834 -1.86619 -2.93375 0
M  V30 1726 H 162.157 -2.73264 -2.91834 0
M  V30 1727 H 163.597 -2.05709 -3.70756 0
M  V30 1728 C 162.056 -0.624842 -3.31055 0
M  V30 1729 O 162.586 0.222636 -4.01083 0
M  V30 1730 N 160.792 -0.470288 -2.86769 0
M  V30 1731 H 160.339 -1.161 -2.29953 0
M  V30 1732 H 160.297 0.359051 -3.12343 0
M  V30 1733 N 164.069 0.697108 -1.41344 0
M  V30 1734 C 165.297 1.48593 -1.43972 0
M  V30 1735 C 165.712 1.88747 -0.0445612 0
M  V30 1736 O 165.069 1.56682 0.935785 0
M  V30 1737 C 165.12 2.74946 -2.34706 0
M  V30 1738 O 164.841 2.36484 -3.68791 0
M  V30 1739 C 166.342 3.687 -2.46121 0
M  V30 1740 H 163.562 0.457964 -0.490418 0
M  V30 1741 H 166.106 0.858429 -1.8561 0
M  V30 1742 H 164.261 3.33937 -1.9638 0
M  V30 1743 H 164.675 3.17918 -4.17167 0
M  V30 1744 H 166.149 4.54145 -3.13777 0
M  V30 1745 H 166.626 4.13081 -1.49199 0
M  V30 1746 H 167.232 3.15613 -2.85076 0
M  V30 1747 N 165.547 1.27147 0.931209 0
M  V30 1748 C 166.477 1.12081 2.04842 0
M  V30 1749 C 167.458 0.0232364 1.70084 0
M  V30 1750 O 168.643 0.197085 1.93197 0
M  V30 1751 C 165.773 0.76354 3.38803 0
M  V30 1752 C 164.727 1.81396 3.87659 0
M  V30 1753 C 164.053 1.31075 5.18385 0
M  V30 1754 C 165.353 3.21739 4.11438 0
M  V30 1755 H 167.047 2.05537 2.17703 0
M  V30 1756 H 164.593 0.989603 1.04608 0
M  V30 1757 H 166.546 0.644982 4.16435 0
M  V30 1758 H 165.27 -0.206727 3.25945 0
M  V30 1759 H 163.929 1.92136 3.12217 0
M  V30 1760 H 163.577 0.330037 5.01916 0
M  V30 1761 H 163.277 2.013 5.52044 0
M  V30 1762 H 164.801 1.20506 5.98591 0
M  V30 1763 H 166.215 3.14019 4.79651 0
M  V30 1764 H 164.612 3.89644 4.56397 0
M  V30 1765 H 165.682 3.67054 3.16859 0
M  V30 1766 N 167.025 -1.13721 1.09112 0
M  V30 1767 C 168.253 -1.88773 0.846899 0
M  V30 1768 C 168.668 -1.7896 -0.601572 0
M  V30 1769 O 168.025 -1.15394 -1.41388 0
M  V30 1770 C 168.076 -3.3849 1.26913 0
M  V30 1771 O 167.797 -3.48043 2.66079 0
M  V30 1772 C 169.298 -4.30518 1.05682 0
M  V30 1773 H 166.518 -0.59772 0.304914 0
M  V30 1774 H 169.062 -1.43977 1.45227 0
M  V30 1775 H 167.217 -3.80881 0.707723 0
M  V30 1776 H 167.631 -4.4109 2.83795 0
M  V30 1777 H 169.105 -5.3391 1.40156 0
M  V30 1778 H 169.582 -4.392 -0.00563416 0
M  V30 1779 H 170.188 -3.93893 1.60402 0
M  V30 1780 N 168.503 -0.877838 -1.30888 0
M  V30 1781 C 169.728 -0.506629 -2.01117 0
M  V30 1782 C 170.153 0.895564 -1.65412 0
M  V30 1783 O 169.511 1.5923 -0.866922 0
M  V30 1784 C 169.559 -0.680223 -3.54126 0
M  V30 1785 O 168.663 0.277033 -4.11468 0
M  V30 1786 H 168.004 -0.200518 -0.633 0
M  V30 1787 H 170.534 -1.18342 -1.66902 0
M  V30 1788 H 170.544 -0.5765 -4.03907 0
M  V30 1789 H 169.219 -1.70261 -3.79452 0
M  V30 1790 H 167.796 0.127606 -3.72682 0
M  V30 1791 N 169.982 1.44106 -0.638065 0
M  V30 1792 C 171.229 2.01978 -0.14533 0
M  V30 1793 C 171.557 1.50234 1.23532 0
M  V30 1794 O 170.812 0.679548 1.83523 0
M  V30 1795 C 171.111 3.5729 -0.0887327 0
M  V30 1796 C 170.777 4.28317 -1.40909 0
M  V30 1797 C 169.439 4.47437 -1.77069 0
M  V30 1798 C 171.791 4.6867 -2.28031 0
M  V30 1799 C 169.119 5.04171 -3.00047 0
M  V30 1800 C 171.471 5.26766 -3.50286 0
M  V30 1801 C 170.135 5.44104 -3.86661 0
M  V30 1802 H 169.405 0.739089 -0.0531801 0
M  V30 1803 H 172.052 1.72781 -0.825761 0
M  V30 1804 H 170.357 3.8594 0.675095 0
M  V30 1805 H 172.054 3.99807 0.309145 0
M  V30 1806 H 168.644 4.1377 -1.1177 0
M  V30 1807 H 172.828 4.53604 -2.01388 0
M  V30 1808 H 168.084 5.15782 -3.28298 0
M  V30 1809 H 172.258 5.56983 -4.18023 0
M  V30 1810 H 169.885 5.87832 -4.82034 0
M  V30 1811 N 171.46 0.379036 1.52974 0
M  V30 1812 C 172.7 -0.206325 2.03356 0
M  V30 1813 C 173.064 -1.44892 1.25977 0
M  V30 1814 O 174.265 -2.11078 1.66432 0
M  V30 1815 C 172.536 -0.477887 3.54191 0
M  V30 1816 S 174.095 -1.035 4.26419 0
M  V30 1817 H 170.913 -0.0590259 0.708546 0
M  V30 1818 H 173.515 0.525013 1.88319 0
M  V30 1819 H 172.219 0.433745 4.08101 0
M  V30 1820 H 171.75 -1.23793 3.73415 0
M  V30 1821 H 173.765 -2.31821 4.38718 0
M  V30 1822 N 172.938 -1.57226 0.108567 0
M  V30 1823 C 174.186 -1.94448 -0.550853 0
M  V30 1824 C 174.507 -0.992074 -1.67878 0
M  V30 1825 O 173.777 -0.0465 -1.95845 0
M  V30 1826 H 172.357 -0.717897 -0.206479 0
M  V30 1827 H 175.019 -1.94112 0.175062 0
M  V30 1828 H 174.115 -2.97218 -0.952259 0
M  V30 1829 N 174.416 0.165178 -1.56732 0
M  V30 1830 C 175.379 1.18822 -1.95995 0
M  V30 1831 C 176.379 1.3685 -0.84431 0
M  V30 1832 O 177.569 1.34152 -1.11126 0
M  V30 1833 C 174.701 2.5521 -2.26011 0
M  V30 1834 H 175.894 0.851825 -2.87548 0
M  V30 1835 H 173.447 0.407857 -1.50885 0
M  V30 1836 H 174.182 2.93852 -1.37191 0
M  V30 1837 H 173.967 2.43489 -3.07336 0
M  V30 1838 H 175.457 3.28927 -2.57288 0
M  V30 1839 N 175.894 1.51508 0.433938 0
M  V30 1840 C 176.824 1.76016 1.53429 0
M  V30 1841 C 177.805 0.610112 1.58782 0
M  V30 1842 O 178.99 0.853177 1.74455 0
M  V30 1843 C 176.12 1.88831 2.9148 0
M  V30 1844 C 175.074 3.04288 3.00987 0
M  V30 1845 C 174.4 3.0229 4.4105 0
M  V30 1846 C 175.7 4.44193 2.74754 0
M  V30 1847 H 177.394 2.68152 1.33171 0
M  V30 1848 H 174.94 1.29035 0.639214 0
M  V30 1849 H 176.893 2.04559 3.6842 0
M  V30 1850 H 175.617 0.933455 3.12976 0
M  V30 1851 H 174.276 2.8827 2.26486 0
M  V30 1852 H 173.924 2.04576 4.59519 0
M  V30 1853 H 173.624 3.79822 4.4834 0
M  V30 1854 H 175.148 3.20116 5.1996 0
M  V30 1855 H 176.562 4.60544 3.41426 0
M  V30 1856 H 174.959 5.23457 2.9345 0
M  V30 1857 H 176.029 4.53996 1.70339 0
M  V30 1858 N 177.372 -0.689602 1.41712 0
M  V30 1859 C 178.322 -1.79571 1.40493 0
M  V30 1860 C 179.306 -1.58473 0.278409 0
M  V30 1861 O 180.498 -1.69204 0.519532 0
M  V30 1862 C 177.627 -3.17923 1.29536 0
M  V30 1863 C 176.713 -3.44695 2.47075 0
M  V30 1864 N 177.104 -3.42132 3.72531 0
M  V30 1865 C 175.402 -3.75269 2.41017 0
M  V30 1866 C 176.103 -3.67976 4.50521 0
M  V30 1867 N 175.079 -3.88014 3.80718 0
M  V30 1868 H 178.881 -1.75961 2.35404 0
M  V30 1869 H 176.395 -0.889839 1.35851 0
M  V30 1870 H 178.392 -3.97167 1.26745 0
M  V30 1871 H 177.052 -3.22741 0.356153 0
M  V30 1872 H 178.063 -3.22375 4.05333 0
M  V30 1873 H 174.74 -3.87421 1.55599 0
M  V30 1874 H 176.13 -3.7208 5.59469 0
M  V30 1875 N 178.85 -1.27639 -0.924453 0
M  V30 1876 C 180.078 -1.16989 -1.70649 0
M  V30 1877 C 180.493 0.272869 -1.86818 0
M  V30 1878 O 179.85 1.18549 -1.38753 0
M  V30 1879 C 179.901 -1.85229 -3.10439 0
M  V30 1880 O 179.622 -3.23868 -2.95028 0
M  V30 1881 C 181.123 -1.80746 -4.04779 0
M  V30 1882 H 178.343 -0.406595 -0.53378 0
M  V30 1883 H 180.887 -1.68569 -1.15778 0
M  V30 1884 H 179.042 -1.37545 -3.6216 0
M  V30 1885 H 179.456 -3.57889 -3.83426 0
M  V30 1886 H 180.93 -2.33101 -5.00368 0
M  V30 1887 H 181.407 -0.777499 -4.32263 0
M  V30 1888 H 182.013 -2.28059 -3.58984 0
M  V30 1889 N 180.328 1.1314 -1.09713 0
M  V30 1890 C 181.553 1.88862 -0.857081 0
M  V30 1891 C 181.978 1.78729 0.586304 0
M  V30 1892 O 181.336 1.13692 1.41222 0
M  V30 1893 C 181.384 3.36325 -1.30069 0
M  V30 1894 O 180.488 4.09815 -0.461007 0
M  V30 1895 H 179.829 0.587108 -0.310162 0
M  V30 1896 H 182.359 1.43129 -1.46203 0
M  V30 1897 H 182.369 3.87157 -1.28738 0
M  V30 1898 H 181.044 3.43017 -2.35185 0
M  V30 1899 H 179.621 3.68986 -0.538888 0
M  V30 1900 N 181.806 0.884767 1.30421 0
M  V30 1901 C 183.053 0.503105 1.96151 0
M  V30 1902 C 183.381 -0.947676 1.69851 0
M  V30 1903 O 182.636 -1.68467 0.995861 0
M  V30 1904 C 182.935 0.724318 3.49983 0
M  V30 1905 C 182.601 2.15015 3.96332 0
M  V30 1906 C 181.263 2.54005 4.08699 0
M  V30 1907 C 183.615 3.07936 4.20505 0
M  V30 1908 C 180.943 3.85128 4.42599 0
M  V30 1909 C 183.295 4.3859 4.55874 0
M  V30 1910 C 181.959 4.77474 4.66449 0
M  V30 1911 H 181.229 0.184099 0.717766 0
M  V30 1912 H 183.876 1.12058 1.55291 0
M  V30 1913 H 182.181 0.0238086 3.91793 0
M  V30 1914 H 183.878 0.408617 3.98913 0
M  V30 1915 H 180.468 1.8375 3.87213 0
M  V30 1916 H 184.652 2.79033 4.10431 0
M  V30 1917 H 179.908 4.14996 4.48986 0
M  V30 1918 H 184.082 5.10629 4.7353 0
M  V30 1919 H 181.709 5.79115 4.92473 0
M  V30 1920 N 183.284 -1.43765 0.645699 0
M  V30 1921 C 184.53 -2.02197 0.156271 0
M  V30 1922 C 184.863 -1.50776 -1.22393 0
M  V30 1923 O 184.138 -0.697771 -1.81553 0
M  V30 1924 C 184.421 -3.59749 0.158872 0
M  V30 1925 C 184.274 -4.21419 1.57245 0
M  V30 1926 C 185.593 -4.37149 -0.50879 0
M  V30 1927 H 182.712 -0.734694 0.0582602 0
M  V30 1928 H 185.354 -1.71157 0.824951 0
M  V30 1929 H 183.504 -3.86325 -0.410525 0
M  V30 1930 H 185.176 -4.059 2.19186 0
M  V30 1931 H 183.419 -3.78356 2.122 0
M  V30 1932 H 184.09 -5.30482 1.52619 0
M  V30 1933 H 186.566 -4.16093 -0.024412 0
M  V30 1934 H 185.442 -5.4683 -0.476213 0
M  V30 1935 H 185.703 -4.12839 -1.58165 0
M  V30 1936 N 184.763 -0.387143 -1.52771 0
M  V30 1937 C 185.991 0.195869 -2.05971 0
M  V30 1938 C 186.406 1.40691 -1.25903 0
M  V30 1939 O 185.763 1.79931 -0.305134 0
M  V30 1940 C 185.814 0.56812 -3.57008 0
M  V30 1941 O 185.535 -0.594803 -4.34043 0
M  V30 1942 C 187.036 1.20723 -4.26545 0
M  V30 1943 H 184.256 0.0300578 -0.670326 0
M  V30 1944 H 186.8 -0.551749 -1.96916 0
M  V30 1945 H 184.955 1.26564 -3.66143 0
M  V30 1946 H 185.369 -0.289322 -5.23701 0
M  V30 1947 H 186.843 1.41807 -5.33474 0
M  V30 1948 H 187.32 2.17395 -3.81623 0
M  V30 1949 H 187.926 0.550535 -4.21722 0
M  V30 1950 N 186.241 1.57166 -0.116904 0
M  V30 1951 C 187.652 1.82169 0.408809 0
M  V30 1952 C 188.003 1.03393 1.66746 0
M  V30 1953 O 187.128 0.269886 2.1471 0
M  V30 1954 C 187.723 3.30429 0.748466 0
M  V30 1955 C 186.282 3.5612 1.21882 0
M  V30 1956 C 185.429 2.76374 0.226452 0
M  V30 1957 H 188.38 1.5497 -0.342063 0
M  V30 1958 H 188.401 3.44943 1.60607 0
M  V30 1959 H 187.913 3.87737 -0.167784 0
M  V30 1960 H 186.014 3.04168 2.15204 0
M  V30 1961 H 186.127 4.64705 1.16559 0
M  V30 1962 H 184.491 2.44515 0.713063 0
M  V30 1963 H 185.274 3.3644 -0.682859 0
M  V30 1964 N 187.719 -0.156864 1.56817 0
M  V30 1965 C 188.944 -0.890331 1.87318 0
M  V30 1966 C 189.369 -1.74394 0.704855 0
M  V30 1967 O 188.727 -1.77972 -0.345786 0
M  V30 1968 C 188.775 -1.73102 3.16336 0
M  V30 1969 O 187.879 -2.83422 2.99576 0
M  V30 1970 H 187.22 -0.24857 0.615718 0
M  V30 1971 H 189.75 -0.150649 2.04045 0
M  V30 1972 H 189.76 -2.12803 3.48107 0
M  V30 1973 H 188.435 -1.10412 4.00976 0
M  V30 1974 H 187.012 -2.47199 2.7919 0
M  V30 1975 N 189.197 -1.51736 -0.425897 0
M  V30 1976 C 190.444 -1.6497 -1.17436 0
M  V30 1977 C 190.772 -0.371445 -1.9092 0
M  V30 1978 O 190.027 0.644963 -1.84767 0
M  V30 1979 C 190.326 -2.81103 -2.20717 0
M  V30 1980 C 189.992 -4.19954 -1.64162 0
M  V30 1981 C 188.654 -4.57725 -1.48462 0
M  V30 1982 C 191.006 -5.06552 -1.22696 0
M  V30 1983 C 188.334 -5.79789 -0.897873 0
M  V30 1984 C 190.686 -6.29205 -0.654464 0
M  V30 1985 C 189.35 -6.6574 -0.484456 0
M  V30 1986 H 188.62 -0.603668 -0.429727 0
M  V30 1987 H 191.267 -1.85798 -0.463829 0
M  V30 1988 H 189.572 -2.54542 -2.97852 0
M  V30 1989 H 191.269 -2.8854 -2.78471 0
M  V30 1990 H 187.859 -3.90181 -1.77361 0
M  V30 1991 H 192.043 -4.77968 -1.33642 0
M  V30 1992 H 187.299 -6.06733 -0.75402 0
M  V30 1993 H 191.473 -6.95643 -0.324694 0
M  V30 1994 H 189.1 -7.60195 -0.0276833 0
M  V30 1995 N 190.675 0.682077 -1.42076 0
M  V30 1996 C 192.086 1.26246 -1.37546 0
M  V30 1997 C 192.437 1.96092 -0.0651481 0
M  V30 1998 O 191.562 1.99587 0.836297 0
M  V30 1999 C 192.157 2.29594 -2.49143 0
M  V30 2000 C 190.716 2.83175 -2.47969 0
M  V30 2001 C 189.863 1.57395 -2.28303 0
M  V30 2002 H 192.814 0.475937 -1.51395 0
M  V30 2003 H 192.835 3.11175 -2.18976 0
M  V30 2004 H 192.347 1.78729 -3.44496 0
M  V30 2005 H 190.448 3.3818 -1.56413 0
M  V30 2006 H 190.561 3.32687 -3.44755 0
M  V30 2007 H 188.925 1.83699 -1.76428 0
M  V30 2008 H 189.708 1.08507 -3.25701 0
M  V30 2009 N 192.153 1.28127 0.917671 0
M  V30 2010 C 193.381 1.17892 1.70026 0
M  V30 2011 C 193.796 -0.262958 1.8696 0
M  V30 2012 O 193.153 -1.17811 1.3938 0
M  V30 2013 C 193.204 1.86872 3.09453 0
M  V30 2014 O 192.925 3.25428 2.93306 0
M  V30 2015 C 194.426 1.8289 4.03815 0
M  V30 2016 H 191.646 0.40942 0.531617 0
M  V30 2017 H 194.19 1.69181 1.14883 0
M  V30 2018 H 192.345 1.39464 3.61426 0
M  V30 2019 H 192.759 3.59918 3.81523 0
M  V30 2020 H 194.233 2.35751 4.99125 0
M  V30 2021 H 194.71 0.800412 4.31845 0
M  V30 2022 H 195.316 2.29959 3.57769 0
M  V30 2023 N 193.631 -1.12557 1.10312 0
M  V30 2024 C 194.908 -1.80363 0.756878 0
M  V30 2025 C 195.288 -1.97067 -0.756824 0
M  V30 2026 O 194.636 -1.54601 -1.68259 0
M  V30 2027 C 194.846 -3.14812 1.50647 0
M  V30 2028 C 196.194 -3.90029 1.67817 0
M  V30 2029 O 197.218 -3.24464 1.46974 0
M  V30 2030 O 196.077 -5.07652 2.02365 0
M  V30 2031 H 193.171 -0.780667 0.272926 0
M  V30 2032 H 195.717 -1.19404 1.20586 0
M  V30 2033 H 194.489 -2.97936 2.53672 0
M  V30 2034 H 194.112 -3.83478 1.05026 0
M  V30 2035 N 195.109 -0.891671 -1.2995 0
M  V30 2036 C 196.072 -0.36828 -2.26222 0
M  V30 2037 C 197.072 0.493014 -1.53056 0
M  V30 2038 O 198.262 0.299213 -1.71611 0
M  V30 2039 C 195.394 0.47442 -3.37583 0
M  V30 2040 H 196.587 -1.21844 -2.74033 0
M  V30 2041 H 194.14 -0.669107 -1.41254 0
M  V30 2042 H 194.875 1.34489 -2.95099 0
M  V30 2043 H 194.66 -0.142615 -3.91841 0
M  V30 2044 H 196.15 0.83218 -4.09224 0
M  V30 2045 N 196.587 1.43421 -0.653314 0
M  V30 2046 C 197.864 1.95361 -0.0966581 0
M  V30 2047 C 198.244 1.59461 1.38331 0
M  V30 2048 O 197.592 0.879777 2.10884 0
M  V30 2049 C 197.802 3.47311 -0.342988 0
M  V30 2050 C 199.15 4.23875 -0.24798 0
M  V30 2051 O 200.174 3.55133 -0.275553 0
M  V30 2052 O 199.033 5.4623 -0.171771 0
M  V30 2053 H 196.127 0.826945 0.00956291 0
M  V30 2054 H 198.673 1.5336 -0.726558 0
M  V30 2055 H 197.445 3.66569 -1.36906 0
M  V30 2056 H 197.068 3.9631 0.319975 0
M  V30 2057 N 198.065 0.39524 1.52563 0
M  V30 2058 C 199.311 -0.185318 2.01952 0
M  V30 2059 C 199.644 -1.45964 1.28095 0
M  V30 2060 O 198.919 -1.90689 0.38315 0
M  V30 2061 C 199.202 -0.447193 3.57312 0
M  V30 2062 C 199.055 0.842828 4.41833 0
M  V30 2063 C 200.374 -1.23529 4.22408 0
M  V30 2064 H 197.493 -0.0658788 0.73405 0
M  V30 2065 H 200.135 0.525975 1.82575 0
M  V30 2066 H 198.285 -1.05312 3.73954 0
M  V30 2067 H 199.957 1.4795 4.36931 0
M  V30 2068 H 198.2 1.45686 4.08605 0
M  V30 2069 H 198.871 0.614165 5.48573 0
M  V30 2070 H 201.347 -0.722445 4.0978 0
M  V30 2071 H 200.223 -1.38727 5.3108 0
M  V30 2072 H 200.484 -2.25213 3.80436 0
M  V30 2073 N 199.544 -1.57102 0.125237 0
M  V30 2074 C 200.476 -2.12726 -0.853237 0
M  V30 2075 C 201.489 -1.07145 -1.22571 0
M  V30 2076 O 202.678 -1.34497 -1.17358 0
M  V30 2077 C 199.778 -2.61709 -2.15317 0
M  V30 2078 C 198.951 -3.91456 -1.95143 0
M  V30 2079 C 198.01 -4.25973 -3.08923 0
M  V30 2080 O 197.036 -4.94682 -2.81564 0
M  V30 2081 N 198.238 -3.83795 -4.35524 0
M  V30 2082 H 201.003 -2.97307 -0.377964 0
M  V30 2083 H 198.564 -1.61792 -0.0590011 0
M  V30 2084 H 200.556 -2.81826 -2.90441 0
M  V30 2085 H 199.126 -1.81974 -2.54174 0
M  V30 2086 H 198.346 -3.80185 -1.04177 0
M  V30 2087 H 199.634 -4.76283 -1.78976 0
M  V30 2088 H 199.032 -3.2839 -4.60626 0
M  V30 2089 H 197.589 -4.09008 -5.07499 0
M  V30 2090 N 201.022 0.148545 -1.56898 0
M  V30 2091 C 202.269 0.861418 -1.83264 0
M  V30 2092 C 202.597 1.81239 -0.705883 0
M  V30 2093 O 201.852 1.93305 0.305212 0
M  V30 2094 C 202.151 1.67064 -3.1595 0
M  V30 2095 C 201.817 0.866591 -4.42494 0
M  V30 2096 C 200.479 0.644762 -4.76861 0
M  V30 2097 C 202.831 0.30418 -5.20312 0
M  V30 2098 C 200.159 -0.15021 -5.86508 0
M  V30 2099 C 202.511 -0.477824 -6.30793 0
M  V30 2100 C 201.175 -0.710244 -6.63711 0
M  V30 2101 H 200.445 0.315215 -0.670612 0
M  V30 2102 H 203.092 0.125142 -1.91091 0
M  V30 2103 H 201.397 2.47698 -3.03567 0
M  V30 2104 H 203.094 2.22566 -3.33565 0
M  V30 2105 H 199.684 1.04955 -4.15551 0
M  V30 2106 H 203.868 0.462844 -4.94137 0
M  V30 2107 H 199.124 -0.339796 -6.10455 0
M  V30 2108 H 203.298 -0.92076 -6.90286 0
M  V30 2109 H 200.925 -1.3281 -7.48509 0
M  V30 2110 N 202.5 1.5196 0.417844 0
M  V30 2111 C 203.746 1.65836 1.16732 0
M  V30 2112 C 204.079 0.382881 1.90388 0
M  V30 2113 O 203.354 -0.618368 1.84408 0
M  V30 2114 C 203.637 2.87466 2.16876 0
M  V30 2115 C 203.49 4.25041 1.47174 0
M  V30 2116 C 204.809 3.04613 3.17646 0
M  V30 2117 H 201.928 0.603515 0.423011 0
M  V30 2118 H 204.57 1.84494 0.454105 0
M  V30 2119 H 202.72 2.71689 2.777 0
M  V30 2120 H 204.392 4.52527 0.895376 0
M  V30 2121 H 202.635 4.26843 0.773806 0
M  V30 2122 H 203.306 5.06176 2.20204 0
M  V30 2123 H 205.782 3.1923 2.66892 0
M  V30 2124 H 204.658 3.91247 3.8499 0
M  V30 2125 H 204.919 2.17541 3.84874 0
M  V30 2126 N 203.978 -0.674533 1.42435 0
M  V30 2127 C 205.227 -1.43034 1.42212 0
M  V30 2128 C 205.54 -1.95555 0.0420788 0
M  V30 2129 O 206.746 -2.71374 -0.0827558 0
M  V30 2130 C 205.202 -2.58748 2.50155 0
M  V30 2131 C 204.81 -2.12925 3.94166 0
M  V30 2132 C 206.554 -3.36257 2.59098 0
M  V30 2133 C 204.461 -3.25723 4.93618 0
M  V30 2134 H 203.391 -0.537345 0.528939 0
M  V30 2135 H 206.042 -0.73024 1.68344 0
M  V30 2136 H 204.424 -3.31128 2.17188 0
M  V30 2137 H 205.598 -1.47697 4.36488 0
M  V30 2138 H 203.913 -1.48354 3.89076 0
M  V30 2139 H 206.51 -4.20264 3.30578 0
M  V30 2140 H 206.853 -3.82866 1.63461 0
M  V30 2141 H 207.386 -2.70947 2.9126 0
M  V30 2142 H 204.125 -2.84105 5.90732 0
M  V30 2143 H 203.645 -3.89732 4.55926 0
M  V30 2144 H 205.324 -3.91186 5.15347 0
M  V30 2145 N 205.456 -1.28612 -0.910864 0
M  V30 2146 C 206.388 -1.08589 -2.01844 0
M  V30 2147 C 207.401 -0.0367419 -1.62759 0
M  V30 2148 O 208.59 -0.280101 -1.76289 0
M  V30 2149 C 205.69 -0.628626 -3.33019 0
M  V30 2150 C 204.863 -1.75382 -4.00699 0
M  V30 2151 C 203.922 -1.28945 -5.10156 0
M  V30 2152 O 202.948 -1.9922 -5.33198 0
M  V30 2153 N 204.15 -0.154224 -5.80295 0
M  V30 2154 H 206.915 -2.03973 -2.19579 0
M  V30 2155 H 204.476 -1.20403 -1.08234 0
M  V30 2156 H 206.468 -0.301508 -4.03575 0
M  V30 2157 H 205.038 0.232451 -3.11735 0
M  V30 2158 H 204.258 -2.25039 -3.23653 0
M  V30 2159 H 205.546 -2.50854 -4.42662 0
M  V30 2160 H 204.944 0.43194 -5.64049 0
M  V30 2161 H 203.501 0.113599 -6.51701 0
M  V30 2162 N 206.934 1.1197 -1.10907 0
M  V30 2163 C 207.867 2.16998 -0.706192 0
M  V30 2164 C 208.845 1.59903 0.294897 0
M  V30 2165 O 210.029 1.87513 0.192636 0
M  V30 2166 C 207.156 3.38673 -0.0427664 0
M  V30 2167 C 206.202 4.14414 -1.00811 0
M  V30 2168 S 207.035 4.72079 -2.52789 0
M  V30 2169 C 208.191 5.97083 -1.87731 0
M  V30 2170 H 208.424 2.50837 -1.59587 0
M  V30 2171 H 205.957 1.23508 -0.926555 0
M  V30 2172 H 207.915 4.09142 0.333668 0
M  V30 2173 H 206.576 3.03105 0.823788 0
M  V30 2174 H 205.769 5.016 -0.491259 0
M  V30 2175 H 205.371 3.49678 -1.3267 0
M  V30 2176 H 207.663 6.66599 -1.21044 0
M  V30 2177 H 208.606 6.53403 -2.72892 0
M  V30 2178 H 209.014 5.4837 -1.33979 0
M  V30 2179 N 208.412 0.89855 1.29475 0
M  V30 2180 C 209.828 0.594483 1.48115 0
M  V30 2181 C 210.028 -0.86431 1.82022 0
M  V30 2182 O 209.084 -1.64457 1.91599 0
M  V30 2183 C 210.397 1.51932 2.59494 0
M  V30 2184 C 211.945 1.5244 2.7337 0
M  V30 2185 C 212.42 2.43548 3.87877 0
M  V30 2186 N 213.911 2.41589 3.95208 0
M  V30 2187 C 214.646 3.08789 4.83153 0
M  V30 2188 N 214.142 3.85265 5.75798 0
M  V30 2189 N 215.935 2.97952 4.76635 0
M  V30 2190 H 208.086 1.84207 1.05742 0
M  V30 2191 H 210.349 0.789251 0.525154 0
M  V30 2192 H 210.055 2.55865 2.41301 0
M  V30 2193 H 209.929 1.23899 3.56271 0
M  V30 2194 H 212.316 0.492518 2.90961 0
M  V30 2195 H 212.397 1.8451 1.77172 0
M  V30 2196 H 212.041 3.46829 3.71041 0
M  V30 2197 H 211.971 2.08788 4.83441 0
M  V30 2198 H 214.462 1.86025 3.28943 0
M  V30 2199 H 214.775 4.33598 6.39697 0
M  V30 2200 H 213.12 3.89371 5.75687 0
M  V30 2201 H 216.311 2.37723 4.03244 0
M  V30 2202 H 216.484 3.50599 5.44962 0
M  V30 2203 N 209.89 -1.43072 0.660911 0
M  V30 2204 C 211.301 -1.84932 0.256348 0
M  V30 2205 C 211.652 -1.55325 -1.19868 0
M  V30 2206 O 210.777 -1.00607 -1.91591 0
M  V30 2207 C 211.372 -3.35684 0.458475 0
M  V30 2208 C 209.931 -3.76245 0.108161 0
M  V30 2209 C 209.078 -2.66749 0.757641 0
M  V30 2210 H 212.029 -1.33116 0.864051 0
M  V30 2211 H 212.05 -3.79365 -0.293683 0
M  V30 2212 H 211.562 -3.572 1.51755 0
M  V30 2213 H 209.663 -3.60338 -0.948014 0
M  V30 2214 H 209.776 -4.76058 0.538992 0
M  V30 2215 H 208.14 -2.53989 0.190185 0
M  V30 2216 H 208.923 -2.91092 1.81989 0
M  V30 2217 N 211.368 -0.403325 -1.52352 0
M  V30 2218 C 212.331 0.413051 -2.25447 0
M  V30 2219 C 213.331 0.978513 -1.276 0
M  V30 2220 O 214.521 0.858305 -1.51587 0
M  V30 2221 C 211.653 1.58087 -3.02029 0
M  V30 2222 H 212.846 -0.227094 -2.99039 0
M  V30 2223 H 210.399 -0.155722 -1.55522 0
M  V30 2224 H 211.134 2.25804 -2.32772 0
M  V30 2225 H 210.919 1.18195 -3.73861 0
M  V30 2226 H 212.409 2.1585 -3.57489 0
M  V30 2227 N 212.846 1.57033 -0.133567 0
M  V30 2228 C 213.776 2.1909 0.807567 0
M  V30 2229 C 214.757 1.13517 1.26681 0
M  V30 2230 O 215.942 1.41809 1.32679 0
M  V30 2231 C 213.072 2.80188 2.05212 0
M  V30 2232 C 212.026 3.91471 1.73015 0
M  V30 2233 C 211.352 4.39443 3.04622 0
M  V30 2234 C 212.652 5.12886 0.987168 0
M  V30 2235 H 214.346 2.97988 0.290403 0
M  V30 2236 H 211.892 1.43335 0.138239 0
M  V30 2237 H 213.845 3.22264 2.71521 0
M  V30 2238 H 212.569 1.98601 2.59278 0
M  V30 2239 H 211.228 3.49993 1.0909 0
M  V30 2240 H 210.876 3.54695 3.56651 0
M  V30 2241 H 210.576 5.14495 2.83847 0
M  V30 2242 H 212.1 4.8418 3.72024 0
M  V30 2243 H 213.514 5.51891 1.55208 0
M  V30 2244 H 211.911 5.93615 0.87985 0
M  V30 2245 H 212.981 4.84894 -0.0235286 0
M  V30 2246 N 214.325 -0.140222 1.56975 0
M  V30 2247 C 215.272 -1.17292 1.98774 0
M  V30 2248 C 216.242 -1.4232 0.856408 0
M  V30 2249 O 217.427 -1.54541 1.119 0
M  V30 2250 C 214.567 -2.49973 2.37923 0
M  V30 2251 C 213.68 -2.32062 3.64378 0
M  V30 2252 C 212.815 -3.57825 3.926 0
M  V30 2253 C 211.854 -3.3498 5.12303 0
M  V30 2254 N 210.991 -4.52891 5.36502 0
M  V30 2255 H 215.831 -0.809472 2.86795 0
M  V30 2256 H 213.368 -0.388237 1.41884 0
M  V30 2257 H 215.326 -3.27346 2.58652 0
M  V30 2258 H 213.956 -2.84252 1.52972 0
M  V30 2259 H 213.008 -1.45711 3.51387 0
M  V30 2260 H 214.32 -2.11145 4.51906 0
M  V30 2261 H 213.474 -4.43624 4.13863 0
M  V30 2262 H 212.213 -3.81753 3.03506 0
M  V30 2263 H 211.218 -2.4757 4.90906 0
M  V30 2264 H 212.443 -3.12444 6.02956 0
M  V30 2265 H 210.389 -4.76979 4.50363 0
M  V30 2266 H 210.306 -4.35001 6.18312 0
M  V30 2267 H 211.574 -5.39884 5.62268 0
M  V30 2268 N 215.803 -1.52179 -0.40978 0
M  V30 2269 C 217.051 -1.65878 -1.15451 0
M  V30 2270 C 217.372 -0.390771 -1.91044 0
M  V30 2271 O 216.642 0.594323 -1.86667 0
M  V30 2272 H 215.222 -0.611405 -0.429177 0
M  V30 2273 H 217.884 -1.89219 -0.467134 0
M  V30 2274 H 216.98 -2.49954 -1.86894 0
M  V30 2275 N 217.281 0.66697 -1.42791 0
M  V30 2276 C 218.244 1.76211 -1.46568 0
M  V30 2277 C 219.244 1.56896 -0.352196 0
M  V30 2278 O 220.434 1.63044 -0.613364 0
M  V30 2279 C 217.566 3.14935 -1.30494 0
M  V30 2280 H 218.759 1.74247 -2.44086 0
M  V30 2281 H 216.312 0.877342 -1.29354 0
M  V30 2282 H 217.047 3.2252 -0.339301 0
M  V30 2283 H 216.832 3.30359 -2.11199 0
M  V30 2284 H 218.322 3.94821 -1.36038 0
M  V30 2285 N 218.759 1.29093 0.90403 0
M  V30 2286 C 220.008 1.16187 1.64874 0
M  V30 2287 C 220.321 -0.286742 1.93487 0
M  V30 2288 O 221.527 -0.537062 2.66135 0
M  V30 2289 C 219.983 2.03177 2.97064 0
M  V30 2290 C 219.591 3.52836 2.76062 0
M  V30 2291 C 221.335 1.98984 3.74974 0
M  V30 2292 C 219.242 4.31945 4.03952 0
M  V30 2293 H 218.172 0.431246 0.618501 0
M  V30 2294 H 220.823 1.53699 1.00243 0
M  V30 2295 H 219.205 1.5853 3.62883 0
M  V30 2296 H 220.379 4.05507 2.18863 0
M  V30 2297 H 218.694 3.58656 2.11553 0
M  V30 2298 H 221.291 2.55351 4.69787 0
M  V30 2299 H 221.634 0.968815 4.0487 0
M  V30 2300 H 222.167 2.41652 3.15989 0
M  V30 2301 H 218.906 5.34667 3.79225 0
M  V30 2302 H 218.426 3.84045 4.60727 0
M  V30 2303 H 220.105 4.42379 4.72133 0
M  V30 2304 N 220.237 -1.11381 1.11499 0
M  V30 2305 C 221.167 -2.19509 0.796125 0
M  V30 2306 C 222.148 -1.68458 -0.235796 0
M  V30 2307 O 223.333 -1.93947 -0.0991344 0
M  V30 2308 C 220.463 -3.46475 0.239205 0
M  V30 2309 C 219.417 -4.10744 1.20307 0
M  V30 2310 C 218.743 -5.32293 0.50683 0
M  V30 2311 C 220.043 -4.55597 2.55399 0
M  V30 2312 H 221.737 -2.46439 1.70024 0
M  V30 2313 H 219.283 -1.18446 0.818935 0
M  V30 2314 H 221.236 -4.214 0.00392006 0
M  V30 2315 H 219.96 -3.19006 -0.700206 0
M  V30 2316 H 218.619 -3.37813 1.42399 0
M  V30 2317 H 218.267 -5.01095 -0.437408 0
M  V30 2318 H 217.967 -5.76243 1.1497 0
M  V30 2319 H 219.491 -6.09956 0.280351 0
M  V30 2320 H 220.905 -5.21841 2.37391 0
M  V30 2321 H 219.302 -5.10363 3.15673 0
M  V30 2322 H 220.372 -3.69013 3.14575 0
M  V30 2323 N 221.715 -0.905404 -1.28997 0
M  V30 2324 C 222.94 -0.549175 -1.99997 0
M  V30 2325 C 223.365 0.860276 -1.67275 0
M  V30 2326 O 222.723 1.57355 -0.900502 0
M  V30 2327 C 222.771 -0.755185 -3.52604 0
M  V30 2328 O 221.875 0.189692 -4.11964 0
M  V30 2329 H 221.216 -0.213899 -0.628604 0
M  V30 2330 H 223.746 -1.21856 -1.64354 0
M  V30 2331 H 223.756 -0.662045 -4.02593 0
M  V30 2332 H 222.431 -1.78271 -3.75755 0
M  V30 2333 H 221.008 0.0485257 -3.72868 0
M  V30 2334 N 223.193 1.4272 -0.668489 0
M  V30 2335 C 224.123 2.335 -0.000100175 0
M  V30 2336 C 225.104 1.50328 0.795964 0
M  V30 2337 O 226.289 1.78949 0.754385 0
M  V30 2338 C 223.419 3.33874 0.956302 0
M  V30 2339 C 222.373 4.27152 0.269278 0
M  V30 2340 C 221.699 5.17684 1.33818 0
M  V30 2341 C 222.999 5.15373 -0.847805 0
M  V30 2342 H 224.693 2.89639 -0.758244 0
M  V30 2343 H 222.239 1.39269 -0.366079 0
M  V30 2344 H 224.192 3.9629 1.43292 0
M  V30 2345 H 222.916 2.76025 1.74579 0
M  V30 2346 H 221.575 3.66123 -0.187042 0
M  V30 2347 H 221.223 4.56165 2.1195 0
M  V30 2348 H 220.923 5.80918 0.883659 0
M  V30 2349 H 222.447 5.82974 1.81586 0
M  V30 2350 H 223.861 5.7151 -0.452681 0
M  V30 2351 H 222.258 5.87407 -1.22773 0
M  V30 2352 H 223.328 4.5415 -1.69929 0
M  V30 2353 N 224.671 0.411399 1.52136 0
M  V30 2354 C 225.601 -0.404015 2.29978 0
M  V30 2355 C 226.582 -1.04412 1.34284 0
M  V30 2356 O 227.767 -1.0527 1.63192 0
M  V30 2357 C 224.897 -1.5197 3.12286 0
M  V30 2358 C 223.851 -1.00448 4.16046 0
M  V30 2359 C 223.177 -2.21393 4.86712 0
M  V30 2360 C 224.477 -0.0569336 5.22269 0
M  V30 2361 H 226.171 0.245529 2.98392 0
M  V30 2362 H 223.717 0.119525 1.43503 0
M  V30 2363 H 225.67 -2.09715 3.6551 0
M  V30 2364 H 224.394 -2.19716 2.41646 0
M  V30 2365 H 223.053 -0.449421 3.63835 0
M  V30 2366 H 222.701 -2.87699 4.12599 0
M  V30 2367 H 222.401 -1.87571 5.56858 0
M  V30 2368 H 223.925 -2.7974 5.4275 0
M  V30 2369 H 225.339 -0.54325 5.7072 0
M  V30 2370 H 223.736 0.192594 5.99791 0
M  V30 2371 H 224.806 0.887663 4.76706 0
M  V30 2372 N 226.149 -1.5696 0.141893 0
M  V30 2373 C 227.397 -1.95573 -0.509484 0
M  V30 2374 C 227.718 -1.02746 -1.65736 0
M  V30 2375 O 226.988 -0.0880311 -1.95702 0
M  V30 2376 H 225.568 -0.722115 -0.191205 0
M  V30 2377 H 228.23 -1.93697 0.216196 0
M  V30 2378 H 227.326 -2.99171 -0.889 0
M  V30 2379 N 227.627 0.131896 -1.57047 0
M  V30 2380 C 228.577 1.1679 -1.95816 0
M  V30 2381 C 229.561 1.37756 -0.831393 0
M  V30 2382 O 230.753 1.39065 -1.09499 0
M  V30 2383 C 227.882 2.49778 -2.35512 0
M  V30 2384 C 226.968 2.32342 -3.54793 0
M  V30 2385 N 227.359 1.8469 -4.70875 0
M  V30 2386 C 225.657 2.63043 -3.60173 0
M  V30 2387 C 226.358 1.80656 -5.52936 0
M  V30 2388 N 225.334 2.24528 -4.95064 0
M  V30 2389 H 229.136 0.791818 -2.83033 0
M  V30 2390 H 226.65 0.339791 -1.58805 0
M  V30 2391 H 228.647 3.24692 -2.61498 0
M  V30 2392 H 227.307 2.88156 -1.49654 0
M  V30 2393 H 228.318 1.54429 -4.9434 0
M  V30 2394 H 224.995 3.05193 -2.84892 0
M  V30 2395 H 226.385 1.45178 -6.56028 0
M  V30 2396 N 229.106 1.52395 0.401703 0
M  V30 2397 C 230.336 1.70429 1.1678 0
M  V30 2398 C 230.744 0.416702 1.84554 0
M  V30 2399 O 230.087 -0.617697 1.73003 0
M  V30 2400 C 230.149 2.78919 2.26814 0
M  V30 2401 C 229.813 4.20437 1.79113 0
M  V30 2402 C 230.81 5.04028 1.27482 0
M  V30 2403 C 228.495 4.66704 1.85722 0
M  V30 2404 C 230.489 6.31961 0.830913 0
M  V30 2405 C 228.176 5.94625 1.40942 0
M  V30 2406 C 229.174 6.77082 0.897128 0
M  V30 2407 O 228.862 8.02607 0.455822 0
M  V30 2408 H 228.594 0.574272 0.356634 0
M  V30 2409 H 231.148 1.99767 0.477724 0
M  V30 2410 H 229.378 2.44973 2.99207 0
M  V30 2411 H 231.067 2.8548 2.88541 0
M  V30 2412 H 231.833 4.69471 1.21744 0
M  V30 2413 H 227.712 4.0262 2.24539 0
M  V30 2414 H 231.256 6.96271 0.430368 0
M  V30 2415 H 227.153 6.28688 1.46362 0
M  V30 2416 H 227.921 8.16453 0.578457 0
M  V30 2417 N 230.584 -0.659388 1.43143 0
M  V30 2418 C 231.531 -1.77249 1.47822 0
M  V30 2419 C 232.501 -1.62818 0.328558 0
M  V30 2420 O 233.686 -1.83151 0.534838 0
M  V30 2421 C 230.826 -3.15371 1.40126 0
M  V30 2422 C 229.939 -3.4098 2.65249 0
M  V30 2423 C 229.074 -4.68915 2.49584 0
M  V30 2424 C 228.113 -4.87608 3.70006 0
M  V30 2425 N 227.25 -6.06796 3.53189 0
M  V30 2426 H 232.09 -1.72584 2.42938 0
M  V30 2427 H 229.627 -0.842297 1.20598 0
M  V30 2428 H 231.585 -3.9521 1.33659 0
M  V30 2429 H 230.215 -3.19121 0.485964 0
M  V30 2430 H 229.267 -2.55282 2.8202 0
M  V30 2431 H 230.579 -3.50681 3.54717 0
M  V30 2432 H 229.733 -5.56871 2.4079 0
M  V30 2433 H 228.472 -4.61524 1.5763 0
M  V30 2434 H 227.477 -3.9809 3.79215 0
M  V30 2435 H 228.702 -4.96834 4.62961 0
M  V30 2436 H 226.648 -6.00549 2.63965 0
M  V30 2437 H 226.565 -6.17428 4.36255 0
M  V30 2438 H 227.833 -6.9739 3.48236 0
M  V30 2439 N 232.062 -1.29571 -0.897171 0
M  V30 2440 C 233.308 -1.18873 -1.65048 0
M  V30 2441 C 233.663 0.256707 -1.9068 0
M  V30 2442 O 232.956 1.18202 -1.50794 0
M  V30 2443 C 233.15 -1.9382 -3.00281 0
M  V30 2444 C 232.979 -3.45503 -2.8785 0
M  V30 2445 C 231.749 -4.14856 -2.88483 0
M  V30 2446 C 233.947 -4.40956 -2.64693 0
M  V30 2447 N 231.929 -5.52886 -2.66815 0
M  V30 2448 C 233.3 -5.66464 -2.5203 0
M  V30 2449 C 235.355 -4.3069 -2.49821 0
M  V30 2450 C 234.058 -6.82871 -2.26008 0
M  V30 2451 C 236.084 -5.46852 -2.25182 0
M  V30 2452 C 235.446 -6.71333 -2.13286 0
M  V30 2453 H 231.545 -0.489998 -0.609447 0
M  V30 2454 H 234.129 -1.63431 -1.05822 0
M  V30 2455 H 232.3 -1.51671 -3.57562 0
M  V30 2456 H 234.032 -1.75366 -3.64731 0
M  V30 2457 H 230.787 -3.66579 -2.99861 0
M  V30 2458 H 231.211 -6.25487 -2.59027 0
M  V30 2459 H 235.853 -3.35141 -2.5776 0
M  V30 2460 H 233.571 -7.78473 -2.16806 0
M  V30 2461 H 237.157 -5.40809 -2.14515 0
M  V30 2462 H 236.037 -7.59701 -1.94485 0
M  V30 2463 N 233.54 1.10788 -1.12088 0
M  V30 2464 C 234.45 2.20599 -0.798338 0
M  V30 2465 C 235.466 1.72712 0.21135 0
M  V30 2466 O 236.642 2.01348 0.0458477 0
M  V30 2467 C 233.707 3.45771 -0.253674 0
M  V30 2468 C 232.768 4.08411 -1.32283 0
M  V30 2469 C 232.001 5.27608 -0.80406 0
M  V30 2470 O 232.224 5.69241 0.363478 0
M  V30 2471 O 231.158 5.8101 -1.57198 0
M  V30 2472 H 234.984 2.50614 -1.7154 0
M  V30 2473 H 232.569 1.19454 -0.897275 0
M  V30 2474 H 234.451 4.21376 0.0453691 0
M  V30 2475 H 233.126 3.1739 0.636005 0
M  V30 2476 H 232.033 3.34507 -1.67499 0
M  V30 2477 H 233.366 4.40986 -2.18614 0
M  V30 2478 N 235.018 0.912232 1.28515 0
M  V30 2479 C 235.965 0.397954 2.27343 0
M  V30 2480 C 236.935 -0.526766 1.57526 0
M  V30 2481 O 238.12 -0.449292 1.85435 0
M  V30 2482 C 235.26 -0.357263 3.43246 0
M  V30 2483 C 234.373 0.599788 4.27816 0
M  V30 2484 C 233.508 -0.173725 5.30916 0
M  V30 2485 C 232.547 0.777039 6.07148 0
M  V30 2486 N 231.684 0.0371398 7.0209 0
M  V30 2487 H 236.524 1.24577 2.70711 0
M  V30 2488 H 234.061 0.625612 1.33133 0
M  V30 2489 H 236.019 -0.8113 4.09236 0
M  V30 2490 H 234.649 -1.16943 3.00872 0
M  V30 2491 H 233.701 1.17235 3.61884 0
M  V30 2492 H 235.013 1.32704 4.80823 0
M  V30 2493 H 234.167 -0.688394 6.02782 0
M  V30 2494 H 232.906 -0.934041 4.78672 0
M  V30 2495 H 231.911 1.3031 5.34134 0
M  V30 2496 H 233.136 1.53689 6.61481 0
M  V30 2497 H 231.082 -0.705213 6.52198 0
M  V30 2498 H 230.999 0.704249 7.52713 0
M  V30 2499 H 232.267 -0.457383 7.78157 0
M  V30 2500 N 236.496 -1.42363 0.676048 0
M  V30 2501 C 237.743 -2.01522 0.19883 0
M  V30 2502 C 238.071 -1.53456 -1.19505 0
M  V30 2503 O 237.326 -0.727967 -1.81657 0
M  V30 2504 C 237.625 -3.56929 0.183431 0
M  V30 2505 C 237.291 -4.24431 1.52215 0
M  V30 2506 C 235.953 -4.42585 1.8887 0
M  V30 2507 C 238.305 -4.62459 2.40377 0
M  V30 2508 C 235.633 -4.96039 3.13309 0
M  V30 2509 C 237.985 -5.17294 3.64129 0
M  V30 2510 C 236.649 -5.33661 4.00951 0
M  V30 2511 H 235.919 -0.737419 0.0727571 0
M  V30 2512 H 238.566 -1.70531 0.871281 0
M  V30 2513 H 236.871 -3.87594 -0.572532 0
M  V30 2514 H 238.568 -4.00486 -0.203035 0
M  V30 2515 H 235.158 -4.10661 1.22701 0
M  V30 2516 H 239.342 -4.48105 2.13343 0
M  V30 2517 H 234.598 -5.06896 3.41857 0
M  V30 2518 H 238.772 -5.45704 4.32644 0
M  V30 2519 H 236.399 -5.74845 4.9745 0
M  V30 2520 N 237.974 -0.419461 -1.51915 0
M  V30 2521 C 239.22 0.153166 -2.02221 0
M  V30 2522 C 239.553 1.43907 -1.30401 0
M  V30 2523 O 238.828 1.90055 -0.413438 0
M  V30 2524 C 239.111 0.390291 -3.57979 0
M  V30 2525 C 238.964 -0.913014 -4.40436 0
M  V30 2526 C 240.283 1.16794 -4.2432 0
M  V30 2527 H 237.402 0.0541924 -0.735005 0
M  V30 2528 H 240.044 -0.554955 -1.81715 0
M  V30 2529 H 238.194 0.993491 -3.75582 0
M  V30 2530 H 239.866 -1.54882 -4.34522 0
M  V30 2531 H 238.109 -1.52168 -4.06236 0
M  V30 2532 H 238.78 -0.701361 -5.47526 0
M  V30 2533 H 241.256 0.657161 -4.10878 0
M  V30 2534 H 240.132 1.3026 -5.3322 0
M  V30 2535 H 240.393 2.19132 -3.83971 0
M  V30 2536 N 239.452 1.56882 -0.150215 0
M  V30 2537 C 240.682 2.00302 0.506213 0
M  V30 2538 C 241.09 1.02934 1.58749 0
M  V30 2539 O 240.433 0.0188384 1.8369 0
M  V30 2540 C 240.495 3.40156 1.16337 0
M  V30 2541 C 240.159 4.56439 0.226311 0
M  V30 2542 C 241.156 5.17012 -0.547265 0
M  V30 2543 C 238.841 5.02136 0.128279 0
M  V30 2544 C 240.835 6.21693 -1.40629 0
M  V30 2545 C 238.522 6.06672 -0.734345 0
M  V30 2546 C 239.52 6.6632 -1.50023 0
M  V30 2547 O 239.208 7.68831 -2.34848 0
M  V30 2548 H 238.94 0.662182 0.135984 0
M  V30 2549 H 241.494 2.03961 -0.242746 0
M  V30 2550 H 239.724 3.33346 1.96004 0
M  V30 2551 H 241.413 3.67663 1.71985 0
M  V30 2552 H 242.179 4.82603 -0.48158 0
M  V30 2553 H 238.058 4.55435 0.714157 0
M  V30 2554 H 241.602 6.68179 -2.00455 0
M  V30 2555 H 237.499 6.40507 -0.801309 0
M  V30 2556 H 238.267 7.86065 -2.28131 0
M  V30 2557 N 240.93 -0.123565 1.57115 0
M  V30 2558 C 241.86 -1.15309 2.03042 0
M  V30 2559 C 242.841 -1.43454 0.914061 0
M  V30 2560 O 244.026 -1.53973 1.18347 0
M  V30 2561 C 241.156 -2.48043 2.43089 0
M  V30 2562 C 240.11 -2.3437 3.58127 0
M  V30 2563 C 239.436 -3.72026 3.84059 0
M  V30 2564 C 240.736 -1.80804 4.90007 0
M  V30 2565 H 242.43 -0.771102 2.893 0
M  V30 2566 H 239.976 -0.369479 1.39179 0
M  V30 2567 H 241.929 -3.20311 2.73823 0
M  V30 2568 H 240.653 -2.88122 1.53796 0
M  V30 2569 H 239.312 -1.64551 3.27595 0
M  V30 2570 H 238.96 -4.09582 2.91979 0
M  V30 2571 H 238.66 -3.63732 4.6149 0
M  V30 2572 H 240.184 -4.45806 4.1724 0
M  V30 2573 H 241.598 -2.42886 5.19307 0
M  V30 2574 H 239.995 -1.83343 5.71407 0
M  V30 2575 H 241.065 -0.76528 4.78823 0
M  V30 2576 N 242.408 -1.52605 -0.393616 0
M  V30 2577 C 243.638 -1.71046 -1.15874 0
M  V30 2578 C 244.046 -0.426483 -1.84331 0
M  V30 2579 O 243.389 0.608513 -1.73329 0
M  V30 2580 C 243.451 -2.80118 -2.25332 0
M  V30 2581 C 243.115 -4.21381 -1.76881 0
M  V30 2582 C 244.112 -5.04697 -1.24808 0
M  V30 2583 C 241.797 -4.67683 -1.83244 0
M  V30 2584 C 243.791 -6.32393 -0.797387 0
M  V30 2585 C 241.478 -5.95364 -1.37787 0
M  V30 2586 C 242.476 -6.77549 -0.861208 0
M  V30 2587 O 242.164 -8.02837 -0.413252 0
M  V30 2588 H 241.896 -0.576155 -0.353583 0
M  V30 2589 H 244.45 -2.00018 -0.467123 0
M  V30 2590 H 242.68 -2.46557 -2.97904 0
M  V30 2591 H 244.369 -2.87006 -2.87023 0
M  V30 2592 H 245.135 -4.70111 -1.19252 0
M  V30 2593 H 241.014 -4.03805 -2.22401 0
M  V30 2594 H 244.558 -6.9649 -0.393437 0
M  V30 2595 H 240.455 -6.29455 -1.43026 0
M  V30 2596 H 241.223 -8.16749 -0.53515 0
M  V30 2597 N 243.887 0.651787 -1.4349 0
M  V30 2598 C 245.164 1.40909 -1.35661 0
M  V30 2599 C 245.544 2.11099 -0.00511733 0
M  V30 2600 O 244.892 2.04892 1.0115 0
M  V30 2601 C 245.102 2.3926 -2.54078 0
M  V30 2602 C 246.45 3.03217 -2.97228 0
M  V30 2603 O 247.474 2.49588 -2.54135 0
M  V30 2604 O 246.333 4.00455 -3.71885 0
M  V30 2605 H 243.427 0.629625 -0.536191 0
M  V30 2606 H 245.973 0.678575 -1.55542 0
M  V30 2607 H 244.745 1.86352 -3.44076 0
M  V30 2608 H 244.368 3.1976 -2.36303 0
M  V30 2609 N 245.365 1.30045 0.890287 0
M  V30 2610 C 246.593 1.21472 1.67487 0
M  V30 2611 C 247.008 -0.223241 1.87476 0
M  V30 2612 O 246.365 -1.14828 1.41847 0
M  V30 2613 C 246.416 1.93394 3.05419 0
M  V30 2614 O 246.137 3.31576 2.86337 0
M  V30 2615 C 247.638 1.91414 3.99844 0
M  V30 2616 H 244.858 0.420604 0.522813 0
M  V30 2617 H 247.402 1.7158 1.11268 0
M  V30 2618 H 245.557 1.47099 3.58386 0
M  V30 2619 H 245.971 3.67929 3.73802 0
M  V30 2620 H 247.445 2.46285 4.94012 0
M  V30 2621 H 247.922 0.891833 4.3005 0
M  V30 2622 H 248.528 2.37496 3.52811 0
M  V30 2623 N 246.843 -1.10192 1.12674 0
M  V30 2624 C 247.753 -2.20172 0.810026 0
M  V30 2625 C 248.769 -1.72821 -0.202188 0
M  V30 2626 O 249.945 -2.01369 -0.0351691 0
M  V30 2627 C 247.01 -3.45631 0.272007 0
M  V30 2628 C 246.071 -4.07704 1.34447 0
M  V30 2629 C 245.304 -5.27175 0.832029 0
M  V30 2630 O 245.527 -5.69425 -0.333284 0
M  V30 2631 O 244.461 -5.80168 1.60277 0
M  V30 2632 H 248.287 -2.49701 1.72867 0
M  V30 2633 H 245.872 -1.18977 0.903597 0
M  V30 2634 H 247.754 -4.21394 -0.0230219 0
M  V30 2635 H 246.429 -3.17723 -0.619164 0
M  V30 2636 H 245.336 -3.33614 1.6927 0
M  V30 2637 H 246.669 -4.3982 2.2095 0
M  V30 2638 N 248.321 -0.919034 -1.28029 0
M  V30 2639 C 249.737 -0.617972 -1.4715 0
M  V30 2640 C 249.937 0.835242 -1.83374 0
M  V30 2641 O 248.993 1.61388 -1.94191 0
M  V30 2642 C 250.306 -1.56041 -2.57044 0
M  V30 2643 C 251.854 -1.56769 -2.7091 0
M  V30 2644 C 252.329 -2.49688 -3.83953 0
M  V30 2645 N 253.82 -2.47845 -3.91314 0
M  V30 2646 C 254.555 -3.16437 -4.78179 0
M  V30 2647 N 254.051 -3.94376 -5.69596 0
M  V30 2648 N 255.844 -3.05498 -4.71834 0
M  V30 2649 H 247.995 -1.85866 -1.02798 0
M  V30 2650 H 250.258 -0.797506 -0.512531 0
M  V30 2651 H 249.964 -2.59671 -2.372 0
M  V30 2652 H 249.838 -1.29551 -3.54255 0
M  V30 2653 H 252.225 -0.538745 -2.90141 0
M  V30 2654 H 252.306 -1.87305 -1.74214 0
M  V30 2655 H 251.95 -3.52688 -3.65477 0
M  V30 2656 H 251.88 -2.16453 -4.80058 0
M  V30 2657 H 254.371 -1.91234 -3.25941 0
M  V30 2658 H 254.684 -4.43721 -6.32718 0
M  V30 2659 H 253.029 -3.98481 -5.69419 0
M  V30 2660 H 256.22 -2.44108 -3.99411 0
M  V30 2661 H 256.393 -3.59225 -5.39316 0
M  V30 2662 N 249.799 1.42003 -0.683588 0
M  V30 2663 C 251.047 2.01015 -0.209101 0
M  V30 2664 C 251.368 1.54365 1.19149 0
M  V30 2665 O 250.638 0.769083 1.80172 0
M  V30 2666 H 249.218 0.743294 -0.074315 0
M  V30 2667 H 251.88 1.73798 -0.882066 0
M  V30 2668 H 250.976 3.11343 -0.2172 0
M  V30 2669 N 251.277 0.427512 1.51691 0
M  V30 2670 C 252.524 -0.142229 2.02 0
M  V30 2671 C 252.852 -1.43566 1.31221 0
M  V30 2672 O 252.107 -1.91298 0.412744 0
M  V30 2673 C 252.406 -0.418249 3.54944 0
M  V30 2674 C 252.072 0.788187 4.43958 0
M  V30 2675 C 250.734 1.11906 4.68007 0
M  V30 2676 C 253.086 1.59347 4.96244 0
M  V30 2677 C 250.414 2.25608 5.41588 0
M  V30 2678 C 252.766 2.7214 5.71072 0
M  V30 2679 C 251.43 3.05692 5.93387 0
M  V30 2680 H 250.7 -0.0520451 0.73917 0
M  V30 2681 H 253.347 0.572697 1.82736 0
M  V30 2682 H 251.652 -1.21496 3.72486 0
M  V30 2683 H 253.349 -0.872339 3.91397 0
M  V30 2684 H 249.939 0.520344 4.2543 0
M  V30 2685 H 254.123 1.35106 4.77556 0
M  V30 2686 H 249.379 2.51929 5.57083 0
M  V30 2687 H 253.553 3.34914 6.10578 0
M  V30 2688 H 251.18 3.9391 6.50184 0
M  V30 2689 N 252.755 -1.56801 0.158532 0
M  V30 2690 C 253.98 -2.01295 -0.499516 0
M  V30 2691 C 254.405 -1.03799 -1.56867 0
M  V30 2692 O 253.763 -0.0155162 -1.81293 0
M  V30 2693 C 253.811 -3.44469 -1.06647 0
M  V30 2694 O 252.915 -3.50012 -2.18095 0
M  V30 2695 H 252.256 -0.652884 -0.12099 0
M  V30 2696 H 254.786 -2.02958 0.258661 0
M  V30 2697 H 254.796 -3.8351 -1.39227 0
M  V30 2698 H 253.471 -4.14932 -0.283581 0
M  V30 2699 H 252.048 -3.22822 -1.86656 0
M  V30 2700 N 254.233 0.115231 -1.57178 0
M  V30 2701 C 255.482 0.820945 -1.84237 0
M  V30 2702 C 255.795 1.80866 -0.744761 0
M  V30 2703 O 257.001 2.56083 -0.901871 0
M  V30 2704 C 255.457 1.51072 -3.26658 0
M  V30 2705 C 255.065 0.563795 -4.44438 0
M  V30 2706 C 256.809 2.20134 -3.62962 0
M  V30 2707 C 254.716 1.25701 -5.77887 0
M  V30 2708 H 253.646 0.310328 -0.687177 0
M  V30 2709 H 256.297 0.0737134 -1.83352 0
M  V30 2710 H 254.679 2.30471 -3.22024 0
M  V30 2711 H 255.853 -0.197247 -4.60378 0
M  V30 2712 H 254.168 -0.0200638 -4.16395 0
M  V30 2713 H 256.765 2.72696 -4.59936 0
M  V30 2714 H 257.108 2.98107 -2.90582 0
M  V30 2715 H 257.641 1.47619 -3.69396 0
M  V30 2716 H 254.38 0.518493 -6.53446 0
M  V30 2717 H 253.9 1.98997 -5.65827 0
M  V30 2718 H 255.579 1.78915 -6.2177 0
M  V30 2719 N 255.711 1.52812 0.385517 0
M  V30 2720 C 256.641 1.80808 1.47752 0
M  V30 2721 C 257.622 0.660318 1.5676 0
M  V30 2722 O 258.807 0.908246 1.71652 0
M  V30 2723 C 255.937 1.98008 2.85324 0
M  V30 2724 C 254.891 3.13709 2.91154 0
M  V30 2725 C 254.217 3.16169 4.31209 0
M  V30 2726 C 255.517 4.52709 2.60483 0
M  V30 2727 H 257.211 2.72253 1.24573 0
M  V30 2728 H 254.757 1.31003 0.597839 0
M  V30 2729 H 256.71 2.16176 3.61726 0
M  V30 2730 H 255.434 1.03255 3.09848 0
M  V30 2731 H 254.093 2.95329 2.17201 0
M  V30 2732 H 253.741 2.19092 4.52778 0
M  V30 2733 H 253.441 3.93894 4.36029 0
M  V30 2734 H 254.965 3.36496 5.09512 0
M  V30 2735 H 256.379 4.71173 3.26602 0
M  V30 2736 H 254.776 5.32528 2.76648 0
M  V30 2737 H 255.846 4.59186 1.55809 0
M  V30 2738 N 257.189 -0.644168 1.43834 0
M  V30 2739 C 258.121 -1.76955 1.45669 0
M  V30 2740 C 259.134 -1.58956 0.351666 0
M  V30 2741 O 260.323 -1.6751 0.616644 0
M  V30 2742 C 257.423 -3.14507 1.26248 0
M  V30 2743 C 256.596 -3.59083 2.49757 0
M  V30 2744 C 255.655 -4.75467 2.25427 0
M  V30 2745 O 254.681 -4.84444 2.98836 0
M  V30 2746 N 255.883 -5.66289 1.27661 0
M  V30 2747 H 258.648 -1.75856 2.42682 0
M  V30 2748 H 256.209 -0.828312 1.39106 0
M  V30 2749 H 258.201 -3.90067 1.0784 0
M  V30 2750 H 256.771 -3.10325 0.376478 0
M  V30 2751 H 255.991 -2.7387 2.8353 0
M  V30 2752 H 257.279 -3.85613 3.31934 0
M  V30 2753 H 256.677 -5.61718 0.670064 0
M  V30 2754 H 255.234 -6.41533 1.15234 0
M  V30 2755 N 258.668 -1.30515 -0.883378 0
M  V30 2756 C 259.631 -1.1701 -1.97082 0
M  V30 2757 C 260.631 -0.10089 -1.60483 0
M  V30 2758 O 261.821 -0.349127 -1.70666 0
M  V30 2759 C 258.953 -0.793045 -3.31547 0
M  V30 2760 H 260.146 -2.13622 -2.10489 0
M  V30 2761 H 257.699 -1.13935 -1.06998 0
M  V30 2762 H 258.434 0.172499 -3.23841 0
M  V30 2763 H 258.219 -1.56576 -3.5948 0
M  V30 2764 H 259.709 -0.722073 -4.1131 0
M  V30 2765 N 260.146 1.09593 -1.13257 0
M  V30 2766 C 261.395 1.81105 -0.887917 0
M  V30 2767 C 261.708 1.86563 0.587672 0
M  V30 2768 O 262.914 2.54367 0.949204 0
M  V30 2769 C 261.37 3.25338 -1.53895 0
M  V30 2770 C 260.978 3.28151 -3.04994 0
M  V30 2771 C 262.722 4.01617 -1.37492 0
M  V30 2772 C 260.629 4.66897 -3.6299 0
M  V30 2773 H 259.559 0.678661 -0.328534 0
M  V30 2774 H 262.21 1.23183 -1.36008 0
M  V30 2775 H 260.592 3.8331 -0.994446 0
M  V30 2776 H 261.766 2.79953 -3.66009 0
M  V30 2777 H 260.081 2.65361 -3.20893 0
M  V30 2778 H 262.678 5.04119 -1.78235 0
M  V30 2779 H 263.021 4.15072 -0.31957 0
M  V30 2780 H 263.554 3.50082 -1.88912 0
M  V30 2781 H 260.293 4.58643 -4.68323 0
M  V30 2782 H 259.813 5.15426 -3.06752 0
M  V30 2783 H 261.492 5.3587 -3.62563 0
M  V30 2784 N 261.624 0.925811 1.2754 0
M  V30 2785 C 262.557 0.367836 2.25216 0
M  V30 2786 C 263.535 -0.534738 1.53556 0
M  V30 2787 O 264.719 -0.475672 1.824 0
M  V30 2788 C 261.846 -0.47298 3.35381 0
M  V30 2789 C 260.892 0.365898 4.24928 0
M  V30 2790 S 261.725 1.78025 5.05042 0
M  V30 2791 C 262.881 0.947068 6.18693 0
M  V30 2792 H 263.114 1.19568 2.72196 0
M  V30 2793 H 260.647 0.727867 1.36167 0
M  V30 2794 H 262.605 -0.952242 3.99303 0
M  V30 2795 H 261.266 -1.27533 2.87044 0
M  V30 2796 H 260.459 -0.277582 5.03235 0
M  V30 2797 H 260.061 0.779261 3.65792 0
M  V30 2798 H 262.353 0.182201 6.77255 0
M  V30 2799 H 263.296 1.70309 6.87314 0
M  V30 2800 H 263.704 0.489913 5.6237 0
M  V30 2801 N 263.102 -1.41638 0.69111 0
M  V30 2802 C 264.012 -2.34588 0.0233487 0
M  V30 2803 C 265.028 -1.55987 -0.770984 0
M  V30 2804 O 266.204 -1.88486 -0.709569 0
M  V30 2805 C 263.269 -3.34684 -0.904851 0
M  V30 2806 C 262.33 -4.29176 -0.103225 0
M  V30 2807 C 261.563 -5.2449 -0.987216 0
M  V30 2808 O 261.786 -5.2514 -2.22674 0
M  V30 2809 O 260.72 -6.00295 -0.439281 0
M  V30 2810 H 264.546 -2.93261 0.789416 0
M  V30 2811 H 262.131 -1.42417 0.45142 0
M  V30 2812 H 264.013 -3.96133 -1.43724 0
M  V30 2813 H 262.688 -2.78461 -1.65049 0
M  V30 2814 H 261.595 -3.71089 0.473655 0
M  V30 2815 H 262.928 -4.88484 0.60365 0
M  V30 2816 N 264.58 -0.43555 -1.51462 0
M  V30 2817 C 265.543 0.365137 -2.26273 0
M  V30 2818 C 266.543 0.951227 -1.29647 0
M  V30 2819 O 267.733 0.825958 -1.53374 0
M  V30 2820 C 264.865 1.51645 -3.05314 0
M  V30 2821 H 266.058 -0.290474 -2.9849 0
M  V30 2822 H 263.611 -0.188676 -1.55157 0
M  V30 2823 H 264.346 2.20816 -2.3751 0
M  V30 2824 H 264.131 1.10238 -3.76284 0
M  V30 2825 H 265.621 2.08218 -3.61987 0
M  V30 2826 N 266.058 1.56714 -0.166846 0
M  V30 2827 C 267.021 2.16539 0.751232 0
M  V30 2828 C 268.021 1.11228 1.16125 0
M  V30 2829 O 269.211 1.36765 1.07894 0
M  V30 2830 C 266.343 2.74462 2.02196 0
M  V30 2831 H 267.536 2.99013 0.230499 0
M  V30 2832 H 265.089 1.56081 0.0826982 0
M  V30 2833 H 265.824 1.95709 2.58589 0
M  V30 2834 H 265.609 3.51527 1.73698 0
M  V30 2835 H 267.099 3.20489 2.67725 0
M  V30 2836 N 267.536 -0.106894 1.57237 0
M  V30 2837 C 268.782 -0.81373 1.85759 0
M  V30 2838 C 269.115 -1.78952 0.754315 0
M  V30 2839 O 268.39 -1.93029 -0.23879 0
M  V30 2840 C 268.673 -1.55293 3.24894 0
M  V30 2841 C 268.526 -0.595929 4.45835 0
M  V30 2842 C 269.845 -2.5063 3.61763 0
M  V30 2843 H 266.964 -0.294369 0.67566 0
M  V30 2844 H 269.606 -0.0776472 1.89841 0
M  V30 2845 H 267.756 -2.1804 3.21544 0
M  V30 2846 H 269.428 0.0236262 4.61294 0
M  V30 2847 H 267.671 0.0916191 4.33703 0
M  V30 2848 H 268.342 -1.15004 5.39887 0
M  V30 2849 H 270.818 -1.97982 3.65981 0
M  V30 2850 H 269.694 -2.99376 4.60071 0
M  V30 2851 H 269.955 -3.3385 2.89821 0
M  V30 2852 N 269.014 -1.53014 -0.377408 0
M  V30 2853 C 269.946 -1.74884 -1.48149 0
M  V30 2854 C 270.959 -0.629433 -1.5014 0
M  V30 2855 O 272.148 -0.905416 -1.53833 0
M  V30 2856 C 269.248 -1.80299 -2.86959 0
M  V30 2857 C 268.421 -3.09776 -3.08801 0
M  V30 2858 C 267.48 -3.06586 -4.27658 0
M  V30 2859 O 266.506 -3.80419 -4.23403 0
M  V30 2860 N 267.708 -2.26578 -5.34455 0
M  V30 2861 H 270.473 -2.70147 -1.29771 0
M  V30 2862 H 268.034 -1.51646 -0.56703 0
M  V30 2863 H 270.026 -1.75657 -3.64591 0
M  V30 2864 H 268.596 -0.92372 -2.98641 0
M  V30 2865 H 267.816 -3.27815 -2.18931 0
M  V30 2866 H 269.104 -3.95366 -3.20255 0
M  V30 2867 H 268.502 -1.66081 -5.40771 0
M  V30 2868 H 267.059 -2.27766 -6.10709 0
M  V30 2869 N 270.492 0.636531 -1.44174 0
M  V30 2870 C 271.44 1.76995 -1.50915 0
M  V30 2871 C 272.434 1.65053 -0.381295 0
M  V30 2872 O 273.64 1.71197 -0.55601 0
M  V30 2873 H 270.015 0.584247 -0.473455 0
M  V30 2874 H 271.986 1.68432 -2.4632 0
M  V30 2875 C 270.735 3.15314 -1.46534 0
M  V30 2876 H 270.058 3.25149 -2.32633 0
M  V30 2877 H 271.498 3.9453 -1.55312 0
M  V30 2878 C 269.957 3.3639 -0.185305 0
M  V30 2879 O 270.487 3.94699 0.746688 0
M  V30 2880 N 268.693 2.9046 -0.0901606 0
M  V30 2881 H 268.24 2.43193 -0.849416 0
M  V30 2882 H 268.198 3.04937 0.765553 0
M  V30 2883 N 271.97 1.30982 0.876444 0
M  V30 2884 C 272.918 1.18006 2.00443 0
M  V30 2885 C 273.912 0.0898871 1.69161 0
M  V30 2886 O 275.118 0.251333 1.78237 0
M  V30 2887 H 271.493 0.365196 0.65737 0
M  V30 2888 H 273.464 2.13453 2.0852 0
M  V30 2889 C 272.213 0.897521 3.35916 0
M  V30 2890 H 271.536 1.7285 3.60504 0
M  V30 2891 H 272.976 0.846874 4.15456 0
M  V30 2892 C 271.435 -0.399674 3.34521 0
M  V30 2893 O 271.965 -1.41852 3.7582 0
M  V30 2894 N 270.171 -0.413893 2.87637 0
M  V30 2895 H 269.718 0.41571 2.54224 0
M  V30 2896 H 269.676 -1.28175 2.87086 0
M  V30 2897 N 273.449 -1.08991 1.13837 0
M  V30 2898 C 274.695 -1.81699 0.91417 0
M  V30 2899 C 275.05 -1.84264 -0.553594 0
M  V30 2900 O 274.343 -1.30313 -1.4046 0
M  V30 2901 C 274.537 -3.27042 1.44147 0
M  V30 2902 C 274.366 -3.38637 2.95897 0
M  V30 2903 C 273.136 -3.50177 3.64286 0
M  V30 2904 C 275.334 -3.30791 3.93804 0
M  V30 2905 N 273.316 -3.50501 5.04006 0
M  V30 2906 C 274.687 -3.38037 5.19741 0
M  V30 2907 C 276.742 -3.14488 3.86007 0
M  V30 2908 C 275.445 -3.30659 6.38793 0
M  V30 2909 C 277.471 -3.08438 5.04599 0
M  V30 2910 C 276.833 -3.1628 6.29402 0
M  V30 2911 H 272.932 -0.678967 0.387979 0
M  V30 2912 H 275.516 -1.30224 1.4474 0
M  V30 2913 H 273.687 -3.76976 0.935091 0
M  V30 2914 H 275.419 -3.87785 1.1578 0
M  V30 2915 H 272.174 -3.53815 3.1482 0
M  V30 2916 H 272.598 -3.54236 5.76928 0
M  V30 2917 H 277.24 -3.07291 2.90399 0
M  V30 2918 H 274.958 -3.36618 7.34652 0
M  V30 2919 H 278.544 -2.96952 5.0031 0
M  V30 2920 H 277.424 -3.1162 7.19627 0
M  V30 2921 N 274.927 -0.932562 -1.27047 0
M  V30 2922 C 275.859 -0.392734 -2.2581 0
M  V30 2923 C 276.872 0.479241 -1.55586 0
M  V30 2924 O 278.061 0.291078 -1.76111 0
M  V30 2925 C 275.161 0.455456 -3.35826 0
M  V30 2926 C 274.334 -0.398355 -4.35582 0
M  V30 2927 C 273.393 0.387985 -5.24768 0
M  V30 2928 O 272.419 -0.206003 -5.68827 0
M  V30 2929 N 273.621 1.68664 -5.55457 0
M  V30 2930 H 276.386 -1.24173 -2.72766 0
M  V30 2931 H 273.947 -0.800511 -1.40725 0
M  V30 2932 H 275.939 0.988692 -3.92437 0
M  V30 2933 H 274.509 1.20522 -2.88432 0
M  V30 2934 H 273.729 -1.11286 -3.78165 0
M  V30 2935 H 275.017 -0.981889 -4.99236 0
M  V30 2936 H 274.415 2.19147 -5.21528 0
M  V30 2937 H 272.972 2.1663 -6.14748 0
M  V30 2938 N 276.405 1.4127 -0.698611 0
M  V30 2939 C 277.651 2.01478 -0.231207 0
M  V30 2940 C 277.984 1.55215 1.16713 0
M  V30 2941 O 277.259 0.764672 1.78838 0
M  V30 2942 C 277.542 3.58912 -0.292281 0
M  V30 2943 C 277.395 4.15293 -1.72778 0
M  V30 2944 C 278.714 4.38736 0.346194 0
M  V30 2945 H 275.833 0.732025 -0.0854878 0
M  V30 2946 H 278.475 1.67977 -0.887906 0
M  V30 2947 H 276.625 3.87582 0.26686 0
M  V30 2948 H 278.297 3.97486 -2.341 0
M  V30 2949 H 276.54 3.7022 -2.26096 0
M  V30 2950 H 277.211 5.24452 -1.72202 0
M  V30 2951 H 279.687 4.15897 -0.130035 0
M  V30 2952 H 278.563 5.48221 0.272932 0
M  V30 2953 H 278.824 4.18425 1.42734 0
M  V30 2954 N 277.883 0.443576 1.51229 0
M  V30 2955 C 279.111 -0.11929 2.06556 0
M  V30 2956 C 279.526 -1.35921 1.31038 0
M  V30 2957 O 278.883 -1.78675 0.371704 0
M  V30 2958 C 278.934 -0.435228 3.5887 0
M  V30 2959 O 278.655 0.755486 4.31537 0
M  V30 2960 C 280.156 -1.04808 4.30732 0
M  V30 2961 H 277.376 -0.0051584 0.67098 0
M  V30 2962 H 279.92 0.624453 1.94733 0
M  V30 2963 H 278.075 -1.12887 3.70588 0
M  V30 2964 H 278.489 0.483491 5.22267 0
M  V30 2965 H 279.963 -1.2191 5.3837 0
M  V30 2966 H 280.44 -2.03081 3.89429 0
M  V30 2967 H 281.046 -0.393637 4.23474 0
M  V30 2968 N 279.361 -1.56624 0.175154 0
M  V30 2969 C 280.324 -2.16934 -0.739738 0
M  V30 2970 C 281.324 -1.11842 -1.15533 0
M  V30 2971 O 282.514 -1.37335 -1.07167 0
M  V30 2972 C 279.646 -2.75531 -2.00738 0
M  V30 2973 H 280.839 -2.99131 -0.214639 0
M  V30 2974 H 278.392 -1.56123 -0.0744197 0
M  V30 2975 H 279.127 -1.97078 -2.57548 0
M  V30 2976 H 278.912 -3.52444 -1.71831 0
M  V30 2977 H 280.402 -3.21904 -2.66021 0
M  V30 2978 N 280.839 0.0985539 -1.57292 0
M  V30 2979 C 282.255 0.45267 -1.53046 0
M  V30 2980 C 282.455 1.80713 -0.891342 0
M  V30 2981 O 281.511 2.4785 -0.482375 0
M  V30 2982 C 282.824 0.418341 -2.97776 0
M  V30 2983 C 284.372 0.500443 -3.08973 0
M  V30 2984 C 284.847 0.496297 -4.55303 0
M  V30 2985 N 286.338 0.557151 -4.59837 0
M  V30 2986 C 287.073 0.575726 -5.70502 0
M  V30 2987 N 286.569 0.550714 -6.90608 0
M  V30 2988 N 288.362 0.620277 -5.58667 0
M  V30 2989 H 280.513 -0.788673 -1.97215 0
M  V30 2990 H 282.776 -0.293188 -0.901524 0
M  V30 2991 H 282.482 -0.509659 -3.47988 0
M  V30 2992 H 282.356 1.2386 -3.56284 0
M  V30 2993 H 284.743 1.41886 -2.58751 0
M  V30 2994 H 284.824 -0.347894 -2.53423 0
M  V30 2995 H 284.468 -0.418162 -5.06176 0
M  V30 2996 H 284.398 1.3618 -5.08687 0
M  V30 2997 H 286.889 0.581816 -3.73394 0
M  V30 2998 H 287.202 0.568075 -7.70709 0
M  V30 2999 H 285.547 0.517816 -6.93068 0
M  V30 3000 H 288.738 0.637322 -4.63741 0
M  V30 3001 H 288.911 0.631283 -6.44918 0
M  V30 3002 N 282.317 1.53212 0.369288 0
M  V30 3003 C 283.542 1.73423 1.1375 0
M  V30 3004 C 283.967 0.460404 1.82378 0
M  V30 3005 O 283.325 -0.585298 1.71592 0
M  V30 3006 C 283.373 2.89769 2.1463 0
M  V30 3007 O 282.477 2.58119 3.21634 0
M  V30 3008 H 281.818 0.576061 0.330227 0
M  V30 3009 H 284.348 2.00083 0.427547 0
M  V30 3010 H 284.358 3.15829 2.58294 0
M  V30 3011 H 283.033 3.8217 1.64071 0
M  V30 3012 H 281.61 2.42864 2.82969 0
M  V30 3013 N 283.795 -0.628877 1.44509 0
M  V30 3014 C 285.041 -1.39045 1.47629 0
M  V30 3015 C 285.374 -1.93892 0.109343 0
M  V30 3016 O 284.649 -1.7379 -0.87334 0
M  V30 3017 C 284.932 -2.55408 2.53848 0
M  V30 3018 C 284.785 -2.05896 3.99909 0
M  V30 3019 C 286.104 -3.5759 2.56549 0
M  V30 3020 H 283.223 -0.504232 0.537512 0
M  V30 3021 H 285.865 -0.710854 1.76201 0
M  V30 3022 H 284.015 -3.13384 2.29615 0
M  V30 3023 H 285.687 -1.52734 4.35282 0
M  V30 3024 H 283.93 -1.37061 4.11578 0
M  V30 3025 H 284.601 -2.89681 4.69882 0
M  V30 3026 H 287.077 -3.09419 2.78207 0
M  V30 3027 H 285.953 -4.36527 3.32769 0
M  V30 3028 H 286.214 -4.11808 1.60832 0
M  V30 3029 N 285.273 -1.31445 -0.869486 0
M  V30 3030 C 286.521 -1.20918 -1.61936 0
M  V30 3031 C 286.842 0.232683 -1.93607 0
M  V30 3032 O 286.112 1.15352 -1.58338 0
M  V30 3033 H 284.692 -0.44454 -0.600328 0
M  V30 3034 H 287.354 -1.64776 -1.0409 0
M  V30 3035 H 286.45 -1.78124 -2.56278 0
M  V30 3036 N 286.751 1.08385 -1.14413 0
M  V30 3037 C 287.699 2.17406 -0.826888 0
M  V30 3038 C 288.693 1.6827 0.195312 0
M  V30 3039 O 289.899 1.79927 0.0513892 0
M  V30 3040 H 286.274 0.70934 -0.249681 0
M  V30 3041 H 288.245 2.41388 -1.75426 0
M  V30 3042 C 286.994 3.46215 -0.320979 0
M  V30 3043 H 286.317 3.84401 -1.0989 0
M  V30 3044 H 287.757 4.23777 -0.137549 0
M  V30 3045 C 286.216 3.23067 0.955472 0
M  V30 3046 O 286.746 3.4668 2.02918 0
M  V30 3047 N 284.952 2.7661 0.890798 0
M  V30 3048 H 284.499 2.57594 0.0168815 0
M  V30 3049 H 284.457 2.61501 1.74542 0
M  V30 3050 N 288.23 0.939286 1.26551 0
M  V30 3051 C 289.479 0.581601 1.93133 0
M  V30 3052 C 289.792 -0.883224 1.74524 0
M  V30 3053 O 290.998 -1.3502 2.35546 0
M  V30 3054 C 289.454 0.989425 3.46032 0
M  V30 3055 C 289.062 2.47573 3.73379 0
M  V30 3056 C 290.806 0.703544 4.18629 0
M  V30 3057 C 288.713 2.82235 5.19709 0
M  V30 3058 H 287.643 0.213803 0.723052 0
M  V30 3059 H 290.294 1.14167 1.4366 0
M  V30 3060 H 288.676 0.357902 3.94379 0
M  V30 3061 H 289.85 3.15614 3.35744 0
M  V30 3062 H 288.165 2.73471 3.1401 0
M  V30 3063 H 290.762 0.938869 5.26393 0
M  V30 3064 H 291.105 -0.359639 4.14744 0
M  V30 3065 H 291.638 1.2947 3.76141 0
M  V30 3066 H 288.377 3.87509 5.28694 0
M  V30 3067 H 287.897 2.18854 5.58447 0
M  V30 3068 H 289.576 2.70599 5.87695 0
M  V30 3069 N 289.708 -1.40897 0.706093 0
M  V30 3070 C 290.655 -2.30751 0.0474474 0
M  V30 3071 C 291.625 -1.47678 -0.76029 0
M  V30 3072 O 292.81 -1.76441 -0.726177 0
M  V30 3073 C 289.95 -3.33815 -0.875309 0
M  V30 3074 C 289.063 -4.31961 -0.0580623 0
M  V30 3075 C 288.198 -5.22093 -0.979425 0
M  V30 3076 C 287.237 -6.11902 -0.155706 0
M  V30 3077 N 286.374 -6.94482 -1.03144 0
M  V30 3078 H 291.214 -2.86513 0.819413 0
M  V30 3079 H 288.751 -1.41102 0.415783 0
M  V30 3080 H 290.709 -3.92129 -1.42446 0
M  V30 3081 H 289.339 -2.79579 -1.61356 0
M  V30 3082 H 288.391 -3.75507 0.608147 0
M  V30 3083 H 289.703 -4.95415 0.580082 0
M  V30 3084 H 288.857 -5.85292 -1.59744 0
M  V30 3085 H 287.596 -4.5889 -1.65141 0
M  V30 3086 H 286.601 -5.47742 0.475309 0
M  V30 3087 H 287.826 -6.77162 0.512635 0
M  V30 3088 H 285.772 -6.33877 -1.68924 0
M  V30 3089 H 285.689 -7.54665 -0.449108 0
M  V30 3090 H 286.957 -7.6214 -1.63593 0
M  V30 3091 N 291.186 -0.45159 -1.50991 0
M  V30 3092 C 292.463 0.170707 -1.94854 0
M  V30 3093 C 292.843 1.58788 -1.39103 0
M  V30 3094 O 292.191 2.20913 -0.583921 0
M  V30 3095 C 292.401 0.133929 -3.48743 0
M  V30 3096 C 293.749 0.33248 -4.23296 0
M  V30 3097 O 294.773 0.211403 -3.55572 0
M  V30 3098 O 293.632 0.57486 -5.43468 0
M  V30 3099 H 290.726 0.122264 -0.817912 0
M  V30 3100 H 293.272 -0.510594 -1.61836 0
M  V30 3101 H 292.044 -0.856283 -3.81816 0
M  V30 3102 H 291.667 0.857529 -3.88242 0
M  V30 3103 N 292.664 1.56529 -0.183458 0
M  V30 3104 C 293.91 1.97537 0.459036 0
M  V30 3105 C 294.243 1.06989 1.62071 0
M  V30 3106 O 293.518 0.11948 1.94133 0
M  V30 3107 C 293.801 3.47874 0.930368 0
M  V30 3108 C 293.654 4.492 -0.232317 0
M  V30 3109 C 294.973 4.01612 1.79989 0
M  V30 3110 H 292.092 0.718204 0.165383 0
M  V30 3111 H 294.734 1.88042 -0.272038 0
M  V30 3112 H 292.884 3.56095 1.55333 0
M  V30 3113 H 294.556 4.53027 -0.86972 0
M  V30 3114 H 292.799 4.24657 -0.885928 0
M  V30 3115 H 293.47 5.51823 0.139796 0
M  V30 3116 H 295.946 3.96097 1.27461 0
M  V30 3117 H 294.822 5.07195 2.09867 0
M  V30 3118 H 295.083 3.46163 2.74998 0
M  V30 3119 N 294.142 -0.090211 1.57342 0
M  V30 3120 C 295.074 -1.13541 1.99101 0
M  V30 3121 C 296.087 -1.3604 0.894258 0
M  V30 3122 O 297.276 -1.34606 1.17233 0
M  V30 3123 C 294.376 -2.49001 2.29895 0
M  V30 3124 C 293.549 -2.46712 3.61182 0
M  V30 3125 C 292.608 -3.64136 3.79857 0
M  V30 3126 O 291.634 -3.46405 4.51655 0
M  V30 3127 N 292.836 -4.83802 3.20806 0
M  V30 3128 H 295.601 -0.779942 2.89373 0
M  V30 3129 H 293.162 -0.279125 1.59476 0
M  V30 3130 H 295.154 -3.26166 2.39578 0
M  V30 3131 H 293.724 -2.76619 1.45605 0
M  V30 3132 H 292.944 -1.55058 3.62423 0
M  V30 3133 H 294.232 -2.42265 4.4742 0
M  V30 3134 H 293.63 -5.01112 2.62494 0
M  V30 3135 H 292.187 -5.58543 3.35966 0
M  V30 3136 N 295.62 -1.53406 -0.361157 0
M  V30 3137 C 296.53 -1.83122 -1.4664 0
M  V30 3138 C 297.546 -0.719943 -1.58407 0
M  V30 3139 O 298.722 -1.01046 -1.74218 0
M  V30 3140 C 295.787 -2.01891 -2.81853 0
M  V30 3141 C 294.848 -3.25784 -2.79577 0
M  V30 3142 C 294.081 -3.43648 -4.0834 0
M  V30 3143 O 294.304 -2.65714 -5.0473 0
M  V30 3144 O 293.238 -4.37018 -4.13883 0
M  V30 3145 H 297.064 -2.7703 -1.24451 0
M  V30 3146 H 294.649 -1.38841 -0.551678 0
M  V30 3147 H 296.531 -2.15782 -3.61962 0
M  V30 3148 H 295.206 -1.11173 -3.0401 0
M  V30 3149 H 294.113 -3.17312 -1.98151 0
M  V30 3150 H 295.446 -4.16439 -2.62373 0
M  V30 3151 N 297.098 0.621204 -1.44841 0
M  V30 3152 C 298.345 1.38055 -1.48145 0
M  V30 3153 C 298.673 1.94143 -0.117867 0
M  V30 3154 O 297.928 1.74713 0.881694 0
M  V30 3155 C 298.227 2.55675 -2.4973 0
M  V30 3156 C 297.893 2.17817 -3.94799 0
M  V30 3157 C 296.555 2.07205 -4.34303 0
M  V30 3158 C 298.907 1.88065 -4.86087 0
M  V30 3159 C 296.235 1.65045 -5.63007 0
M  V30 3160 C 298.587 1.47394 -6.15189 0
M  V30 3161 C 297.251 1.35331 -6.53637 0
M  V30 3162 H 296.521 0.505181 -0.542101 0
M  V30 3163 H 299.168 0.703477 -1.78111 0
M  V30 3164 H 297.473 3.2866 -2.13284 0
M  V30 3165 H 299.17 3.13904 -2.4953 0
M  V30 3166 H 295.76 2.26998 -3.63552 0
M  V30 3167 H 299.944 1.95168 -4.56315 0
M  V30 3168 H 295.2 1.54317 -5.91605 0
M  V30 3169 H 299.374 1.23415 -6.85377 0
M  V30 3170 H 297.001 1.02435 -7.53267 0
M  V30 3171 N 298.576 1.31904 0.862503 0
M  V30 3172 C 299.992 1.10724 1.14945 0
M  V30 3173 C 300.192 -0.117421 2.01158 0
M  V30 3174 O 299.248 -0.804595 2.39338 0
M  V30 3175 C 300.561 2.38267 1.83437 0
M  V30 3176 C 302.109 2.43949 1.96106 0
M  V30 3177 C 302.584 3.71394 2.68013 0
M  V30 3178 N 304.075 3.72331 2.75543 0
M  V30 3179 C 304.81 4.67641 3.31812 0
M  V30 3180 N 304.306 5.73313 3.88953 0
M  V30 3181 N 306.099 4.5515 3.29841 0
M  V30 3182 H 298.25 2.10436 0.288191 0
M  V30 3183 H 300.513 0.928705 0.190292 0
M  V30 3184 H 300.219 3.27759 1.27542 0
M  V30 3185 H 300.093 2.48633 2.83657 0
M  V30 3186 H 302.48 1.54922 2.51164 0
M  V30 3187 H 302.561 2.37543 0.949059 0
M  V30 3188 H 302.205 4.60791 2.13621 0
M  V30 3189 H 302.135 3.75069 3.69636 0
M  V30 3190 H 304.626 2.95947 2.34997 0
M  V30 3191 H 304.939 6.42107 4.30022 0
M  V30 3192 H 303.284 5.77077 3.87308 0
M  V30 3193 H 306.475 3.71766 2.84443 0
M  V30 3194 H 306.648 5.29604 3.73394 0
M  V30 3195 N 300.054 -1.07777 1.14986 0
M  V30 3196 C 301.47 -1.32373 0.891596 0
M  V30 3197 C 301.67 -1.9609 -0.463788 0
M  V30 3198 O 300.726 -2.21801 -1.20667 0
M  V30 3199 C 302.039 -2.21905 2.02925 0
M  V30 3200 C 303.587 -2.35367 2.06329 0
M  V30 3201 C 304.062 -3.28245 3.19405 0
M  V30 3202 N 305.553 -3.35824 3.19024 0
M  V30 3203 C 306.288 -4.07739 4.03158 0
M  V30 3204 N 305.784 -4.82306 4.97346 0
M  V30 3205 N 307.577 -4.03635 3.91197 0
M  V30 3206 H 299.728 -0.648039 2.02273 0
M  V30 3207 H 301.991 -0.348149 0.881757 0
M  V30 3208 H 301.697 -1.82342 3.0074 0
M  V30 3209 H 301.571 -3.22407 1.95789 0
M  V30 3210 H 303.958 -2.74186 1.09116 0
M  V30 3211 H 304.039 -1.34585 2.17533 0
M  V30 3212 H 303.683 -2.90146 4.16867 0
M  V30 3213 H 303.613 -4.28971 3.05437 0
M  V30 3214 H 306.104 -2.8267 2.50811 0
M  V30 3215 H 306.417 -5.34661 5.57994 0
M  V30 3216 H 304.762 -4.81337 5.01338 0
M  V30 3217 H 307.953 -3.44491 3.16928 0
M  V30 3218 H 308.126 -4.59417 4.5699 0
M  V30 3219 N 301.532 -0.945985 -1.26051 0
M  V30 3220 C 302.781 -0.591836 -1.92822 0
M  V30 3221 C 303.094 0.873956 -1.7499 0
M  V30 3222 O 304.3 1.33769 -2.36259 0
M  V30 3223 C 302.756 -1.00776 -3.45503 0
M  V30 3224 C 302.364 -2.4955 -3.7206 0
M  V30 3225 C 304.108 -0.725735 -4.1825 0
M  V30 3226 C 302.015 -2.84988 -5.18205 0
M  V30 3227 H 300.945 -0.217635 -0.721908 0
M  V30 3228 H 303.596 -1.14927 -1.43052 0
M  V30 3229 H 301.978 -0.378812 -3.94184 0
M  V30 3230 H 303.152 -3.1739 -3.34066 0
M  V30 3231 H 301.467 -2.75133 -3.12555 0
M  V30 3232 H 304.064 -0.966771 -5.25887 0
M  V30 3233 H 304.407 0.337639 -4.14929 0
M  V30 3234 H 304.94 -1.31463 -3.7545 0
M  V30 3235 H 301.679 -3.90307 -5.26631 0
M  V30 3236 H 301.199 -2.21813 -5.57278 0
M  V30 3237 H 302.878 -2.73712 -5.86252 0
M  V30 3238 N 303.011 1.40521 -0.713556 0
M  V30 3239 C 304.26 2.00155 -0.249192 0
M  V30 3240 C 304.573 1.57224 1.16362 0
M  V30 3241 O 305.779 2.09542 1.72639 0
M  V30 3242 C 304.235 3.5773 -0.3946 0
M  V30 3243 C 303.843 4.09635 -1.81392 0
M  V30 3244 C 305.587 4.24499 0.00907364 0
M  V30 3245 C 303.494 5.59707 -1.91003 0
M  V30 3246 H 302.424 0.74868 -0.0894114 0
M  V30 3247 H 305.075 1.60784 -0.884352 0
M  V30 3248 H 303.457 3.94792 0.30911 0
M  V30 3249 H 304.631 3.83955 -2.54785 0
M  V30 3250 H 302.946 3.55456 -2.16888 0
M  V30 3251 H 305.543 5.34683 -0.0420404 0
M  V30 3252 H 305.886 4.02824 1.05065 0
M  V30 3253 H 306.419 3.92536 -0.645007 0
M  V30 3254 H 303.158 5.86234 -2.93275 0
M  V30 3255 H 302.678 5.87258 -1.22019 0
M  V30 3256 H 304.357 6.24776 -1.6812 0
M  V30 3257 N 304.489 0.459591 1.5075 0
M  V30 3258 C 305.399 -0.34613 2.32033 0
M  V30 3259 C 306.415 -1.00686 1.41909 0
M  V30 3260 O 307.591 -0.997361 1.7497 0
M  V30 3261 C 304.656 -1.42029 3.16273 0
M  V30 3262 C 303.717 -0.777362 4.22203 0
M  V30 3263 C 302.95 -1.80034 5.02418 0
M  V30 3264 O 303.173 -3.02544 4.83553 0
M  V30 3265 O 302.107 -1.37853 5.85901 0
M  V30 3266 H 305.933 0.318054 3.0203 0
M  V30 3267 H 303.518 0.221663 1.47746 0
M  V30 3268 H 305.4 -2.04275 3.68578 0
M  V30 3269 H 304.075 -2.06815 2.49016 0
M  V30 3270 H 302.982 -0.116256 3.73919 0
M  V30 3271 H 304.315 -0.172634 4.91897 0
M  V30 3272 N 305.967 -1.56429 0.191757 0
M  V30 3273 C 306.877 -2.22541 -0.742481 0
M  V30 3274 C 307.893 -1.22342 -1.23727 0
M  V30 3275 O 309.069 -1.55069 -1.28513 0
M  V30 3276 C 306.134 -2.8692 -1.94623 0
M  V30 3277 C 305.195 -4.02378 -1.49633 0
M  V30 3278 C 304.428 -4.63678 -2.6427 0
M  V30 3279 O 304.651 -4.23895 -3.81666 0
M  V30 3280 O 303.585 -5.53202 -2.37174 0
M  V30 3281 H 307.411 -3.02977 -0.209462 0
M  V30 3282 H 304.996 -1.49353 -0.0373832 0
M  V30 3283 H 306.878 -3.27663 -2.64982 0
M  V30 3284 H 305.553 -2.09466 -2.46791 0
M  V30 3285 H 304.46 -3.66265 -0.761636 0
M  V30 3286 H 305.793 -4.81487 -1.02134 0
M  V30 3287 N 307.445 0.0818655 -1.57387 0
M  V30 3288 C 308.378 1.12986 -1.98266 0
M  V30 3289 C 309.356 1.38123 -0.857954 0
M  V30 3290 O 310.54 1.51663 -1.1194 0
M  V30 3291 C 307.667 2.47632 -2.31076 0
M  V30 3292 C 306.713 2.38693 -3.53452 0
M  V30 3293 S 307.546 1.79071 -5.04672 0
M  V30 3294 C 308.702 3.15316 -5.40673 0
M  V30 3295 H 308.935 0.781435 -2.86846 0
M  V30 3296 H 306.468 0.290034 -1.51651 0
M  V30 3297 H 308.426 3.25089 -2.50654 0
M  V30 3298 H 307.087 2.79638 -1.43043 0
M  V30 3299 H 306.28 3.37964 -3.73893 0
M  V30 3300 H 305.882 1.69369 -3.33452 0
M  V30 3301 H 308.174 4.11613 -5.38127 0
M  V30 3302 H 309.117 2.99664 -6.41566 0
M  V30 3303 H 309.525 3.15457 -4.68132 0
M  V30 3304 N 308.923 1.53595 0.353017 0
M  V30 3305 C 310.2 1.61002 1.11075 0
M  V30 3306 C 310.58 0.425356 2.0677 0
M  V30 3307 O 309.928 -0.583267 2.2093 0
M  V30 3308 C 310.138 2.96631 1.83877 0
M  V30 3309 C 311.486 3.51653 2.37961 0
M  V30 3310 O 312.51 2.98743 1.93987 0
M  V30 3311 O 311.369 4.44177 3.18386 0
M  V30 3312 H 308.463 0.650825 0.510251 0
M  V30 3313 H 311.009 1.6594 0.35527 0
M  V30 3314 H 309.781 3.74293 1.14108 0
M  V30 3315 H 309.404 2.95242 2.66304 0
M  V30 3316 N 310.401 -0.613514 1.45168 0
M  V30 3317 C 311.817 -0.933629 1.29443 0
M  V30 3318 C 312.017 -2.00028 0.243101 0
M  V30 3319 O 311.073 -2.49848 -0.364992 0
M  V30 3320 C 312.386 -1.38018 2.67155 0
M  V30 3321 C 313.934 -1.49471 2.75004 0
M  V30 3322 C 314.409 -1.97503 4.13227 0
M  V30 3323 N 315.9 -2.04746 4.15491 0
M  V30 3324 C 316.635 -2.43121 5.19307 0
M  V30 3325 N 316.131 -2.80506 6.33473 0
M  V30 3326 N 317.924 -2.43408 5.06664 0
M  V30 3327 H 310.075 0.0916097 2.12202 0
M  V30 3328 H 312.338 -0.0216655 0.947752 0
M  V30 3329 H 312.044 -0.670625 3.45247 0
M  V30 3330 H 311.918 -2.34784 2.95222 0
M  V30 3331 H 314.305 -2.19519 1.9722 0
M  V30 3332 H 314.386 -0.510342 2.50657 0
M  V30 3333 H 314.03 -1.28045 4.91495 0
M  V30 3334 H 313.96 -2.96843 4.34962 0
M  V30 3335 H 316.451 -1.78468 3.33103 0
M  V30 3336 H 316.764 -3.08652 7.08487 0
M  V30 3337 H 315.109 -2.78216 6.36884 0
M  V30 3338 H 318.3 -2.13604 4.16523 0
M  V30 3339 H 318.473 -2.72989 5.87691 0
M  V30 3340 N 311.879 -1.3236 -0.855495 0
M  V30 3341 C 313.295 -1.11332 -1.14356 0
M  V30 3342 C 313.495 0.106751 -2.01217 0
M  V30 3343 O 312.551 0.791891 -2.39761 0
M  V30 3344 C 313.864 -2.39237 -1.82171 0
M  V30 3345 C 315.412 -2.44986 -1.9481 0
M  V30 3346 C 315.887 -3.7281 -2.66039 0
M  V30 3347 N 317.378 -3.73787 -2.73565 0
M  V30 3348 C 318.113 -4.69394 -3.29327 0
M  V30 3349 N 317.609 -5.75367 -3.85907 0
M  V30 3350 N 319.402 -4.56893 -3.27423 0
M  V30 3351 H 311.553 -2.10586 -0.277027 0
M  V30 3352 H 313.816 -0.929701 -0.185364 0
M  V30 3353 H 313.522 -3.28431 -1.25802 0
M  V30 3354 H 313.396 -2.50134 -2.82335 0
M  V30 3355 H 315.783 -1.56252 -2.50338 0
M  V30 3356 H 315.864 -2.38043 -0.936448 0
M  V30 3357 H 315.508 -4.61918 -2.11174 0
M  V30 3358 H 315.438 -3.77024 -3.67642 0
M  V30 3359 H 317.929 -2.97189 -2.33424 0
M  V30 3360 H 318.242 -6.44378 -4.26611 0
M  V30 3361 H 316.587 -5.79123 -3.84242 0
M  V30 3362 H 319.778 -3.73269 -2.82467 0
M  V30 3363 H 319.951 -5.31577 -3.7058 0
M  V30 3364 N 313.357 1.07166 -1.15556 0
M  V30 3365 C 314.289 2.14341 -0.811815 0
M  V30 3366 C 315.302 1.61835 0.177015 0
M  V30 3367 O 316.491 1.78439 -0.0464996 0
M  V30 3368 C 313.591 3.38387 -0.186481 0
M  V30 3369 C 312.764 4.20238 -1.21321 0
M  V30 3370 C 311.823 5.2266 -0.609302 0
M  V30 3371 O 310.849 5.54719 -1.27576 0
M  V30 3372 N 312.051 5.77306 0.608099 0
M  V30 3373 H 314.816 2.44431 -1.73417 0
M  V30 3374 H 312.377 1.23089 -1.0517 0
M  V30 3375 H 314.369 4.04044 0.230339 0
M  V30 3376 H 312.939 3.05994 0.639249 0
M  V30 3377 H 312.159 3.50369 -1.80652 0
M  V30 3378 H 313.447 4.71736 -1.90638 0
M  V30 3379 H 312.845 5.53513 1.1679 0
M  V30 3380 H 311.402 6.44583 0.96725 0
M  V30 3381 N 314.835 0.952656 1.25548 0
M  V30 3382 C 315.745 0.47782 2.29682 0
M  V30 3383 C 316.761 -0.453859 1.67977 0
M  V30 3384 O 317.937 -0.330587 1.98668 0
M  V30 3385 C 315.002 -0.238655 3.45878 0
M  V30 3386 C 314.063 0.730994 4.23031 0
M  V30 3387 C 313.296 0.0486165 5.33678 0
M  V30 3388 O 313.519 -1.16612 5.58353 0
M  V30 3389 O 312.453 0.733152 5.97418 0
M  V30 3390 H 316.279 1.34312 2.72386 0
M  V30 3391 H 313.864 0.719026 1.30959 0
M  V30 3392 H 315.746 -0.641774 4.16484 0
M  V30 3393 H 314.421 -1.07916 3.05181 0
M  V30 3394 H 313.328 1.18428 3.5486 0
M  V30 3395 H 314.661 1.53946 4.67506 0
M  V30 3396 N 316.313 -1.40141 0.720998 0
M  V30 3397 C 317.26 -2.30688 0.071919 0
M  V30 3398 C 318.23 -1.48476 -0.744584 0
M  V30 3399 O 319.415 -1.77201 -0.707423 0
M  V30 3400 C 316.555 -3.34724 -0.839855 0
M  V30 3401 C 315.668 -4.31998 -0.0122438 0
M  V30 3402 C 314.803 -5.23102 -0.923995 0
M  V30 3403 C 313.842 -6.12033 -0.0907969 0
M  V30 3404 N 312.979 -6.95537 -0.957718 0
M  V30 3405 H 317.819 -2.85628 0.849755 0
M  V30 3406 H 315.356 -1.40653 0.430726 0
M  V30 3407 H 317.314 -3.93618 -1.38279 0
M  V30 3408 H 315.944 -2.81274 -1.58381 0
M  V30 3409 H 314.996 -3.74841 0.64794 0
M  V30 3410 H 316.308 -4.94772 0.632595 0
M  V30 3411 H 315.462 -5.86953 -1.53527 0
M  V30 3412 H 314.201 -4.60615 -1.60264 0
M  V30 3413 H 313.206 -5.47207 0.533377 0
M  V30 3414 H 314.431 -6.76581 0.584428 0
M  V30 3415 H 312.377 -6.35633 -1.62192 0
M  V30 3416 H 312.294 -7.55099 -0.36904 0
M  V30 3417 H 313.562 -7.63832 -1.555 0
M  V30 3418 N 317.792 -0.46758 -1.50504 0
M  V30 3419 C 319.208 -0.121533 -1.59137 0
M  V30 3420 C 319.408 1.3717 -1.47603 0
M  V30 3421 O 318.464 2.14464 -1.33272 0
M  V30 3422 C 319.777 -0.6686 -2.93173 0
M  V30 3423 C 321.325 -0.631716 -3.06559 0
M  V30 3424 C 321.8 -1.15627 -4.43164 0
M  V30 3425 N 323.291 -1.11553 -4.49567 0
M  V30 3426 C 324.026 -1.49195 -5.5365 0
M  V30 3427 N 323.522 -1.94269 -6.65005 0
M  V30 3428 N 325.315 -1.4082 -5.44175 0
M  V30 3429 H 317.466 -1.4388 -1.56245 0
M  V30 3430 H 319.729 -0.594784 -0.738198 0
M  V30 3431 H 319.435 -1.71453 -3.07078 0
M  V30 3432 H 319.309 -0.11021 -3.77039 0
M  V30 3433 H 321.696 0.405297 -2.92304 0
M  V30 3434 H 321.777 -1.22687 -2.24458 0
M  V30 3435 H 321.421 -2.1919 -4.58168 0
M  V30 3436 H 321.351 -0.537365 -5.23851 0
M  V30 3437 H 323.842 -0.784895 -3.69659 0
M  V30 3438 H 324.155 -2.21148 -7.40482 0
M  V30 3439 H 322.5 -1.98219 -6.66134 0
M  V30 3440 H 325.691 -1.0545 -4.56068 0
M  V30 3441 H 325.864 -1.70481 -6.25172 0
M  V30 3442 N 319.27 1.56325 -0.20005 0
M  V30 3443 C 320.5 2.01811 0.442232 0
M  V30 3444 C 320.908 1.07932 1.55394 0
M  V30 3445 O 320.251 0.0772685 1.83537 0
M  V30 3446 C 320.313 3.43685 1.05457 0
M  V30 3447 C 319.977 4.56928 0.0809833 0
M  V30 3448 C 320.974 5.15009 -0.711471 0
M  V30 3449 C 318.659 5.0229 -0.0315364 0
M  V30 3450 C 320.653 6.16904 -1.60336 0
M  V30 3451 C 318.34 6.04028 -0.926981 0
M  V30 3452 C 319.338 6.6121 -1.71146 0
M  V30 3453 O 319.026 7.60971 -2.59189 0
M  V30 3454 H 318.758 0.666173 0.114848 0
M  V30 3455 H 321.312 2.03085 -0.307511 0
M  V30 3456 H 319.542 3.39413 1.85299 0
M  V30 3457 H 321.231 3.72948 1.60201 0
M  V30 3458 H 321.997 4.80827 -0.634873 0
M  V30 3459 H 317.876 4.57476 0.568902 0
M  V30 3460 H 321.42 6.61464 -2.21611 0
M  V30 3461 H 317.317 6.37634 -1.00468 0
M  V30 3462 H 318.085 7.7841 -2.53023 0
M  V30 3463 N 320.748 -0.0735177 1.57428 0
M  V30 3464 C 321.678 -1.0879 2.06608 0
M  V30 3465 C 322.659 -1.40473 0.959237 0
M  V30 3466 O 323.844 -1.5013 1.23185 0
M  V30 3467 C 320.974 -2.40183 2.50857 0
M  V30 3468 C 319.928 -2.22858 3.65402 0
M  V30 3469 C 319.254 -3.59619 3.957 0
M  V30 3470 C 320.554 -1.65123 4.95511 0
M  V30 3471 H 322.248 -0.678673 2.91607 0
M  V30 3472 H 319.794 -0.325013 1.40284 0
M  V30 3473 H 321.747 -3.11437 2.83874 0
M  V30 3474 H 320.471 -2.83083 1.62885 0
M  V30 3475 H 319.13 -1.54045 3.32664 0
M  V30 3476 H 318.778 -4.00086 3.04861 0
M  V30 3477 H 318.478 -3.48866 4.72828 0
M  V30 3478 H 320.002 -4.32306 4.31212 0
M  V30 3479 H 321.416 -2.26241 5.26771 0
M  V30 3480 H 319.813 -1.65071 5.7695 0
M  V30 3481 H 320.883 -0.612559 4.81015 0
M  V30 3482 N 322.226 -1.5378 -0.344866 0
M  V30 3483 C 323.475 -1.7018 -1.08267 0
M  V30 3484 C 323.788 -0.471 -1.89845 0
M  V30 3485 O 324.994 -0.515917 -2.66553 0
M  V30 3486 C 323.45 -3.00923 -1.97417 0
M  V30 3487 C 323.058 -4.31335 -1.21053 0
M  V30 3488 C 324.802 -3.26688 -2.71063 0
M  V30 3489 C 322.709 -5.53153 -2.09225 0
M  V30 3490 H 321.639 -0.634138 -0.407903 0
M  V30 3491 H 324.29 -1.8028 -0.342246 0
M  V30 3492 H 322.672 -2.84676 -2.75274 0
M  V30 3493 H 323.846 -4.58281 -0.481159 0
M  V30 3494 H 322.161 -4.12173 -0.591813 0
M  V30 3495 H 324.758 -4.1489 -3.37299 0
M  V30 3496 H 325.101 -2.43639 -3.37558 0
M  V30 3497 H 325.634 -3.43705 -2.0028 0
M  V30 3498 H 322.373 -6.38741 -1.47274 0
M  V30 3499 H 321.893 -5.30458 -2.79955 0
M  V30 3500 H 323.572 -5.88744 -2.68308 0
M  V30 3501 N 323.704 0.605807 -1.45491 0
M  V30 3502 C 324.981 1.36522 -1.40075 0
M  V30 3503 C 325.361 2.10976 -0.0722744 0
M  V30 3504 O 324.709 2.08007 0.945808 0
M  V30 3505 C 324.919 2.31056 -2.61561 0
M  V30 3506 C 326.267 2.93608 -3.06724 0
M  V30 3507 O 327.291 2.41376 -2.61946 0
M  V30 3508 O 326.15 3.88421 -3.84437 0
M  V30 3509 H 323.244 0.612248 -0.555951 0
M  V30 3510 H 325.79 0.628747 -1.57623 0
M  V30 3511 H 324.562 1.75311 -3.49831 0
M  V30 3512 H 324.185 3.12081 -2.46356 0
M  V30 3513 N 325.182 1.32811 0.848464 0
M  V30 3514 C 326.422 1.25046 1.61687 0
M  V30 3515 C 326.786 -0.183464 1.91121 0
M  V30 3516 O 327.987 -0.384937 2.66029 0
M  V30 3517 C 326.258 2.09201 2.89775 0
M  V30 3518 S 327.817 2.18526 3.80515 0
M  V30 3519 H 324.635 0.445023 0.554505 0
M  V30 3520 H 327.237 1.67733 1.00429 0
M  V30 3521 H 325.941 3.12433 2.66108 0
M  V30 3522 H 325.472 1.67315 3.56047 0
M  V30 3523 H 327.487 1.3393 4.77784 0
M  V30 3524 N 326.66 -1.06551 1.16123 0
M  V30 3525 C 327.57 -2.17484 0.879662 0
M  V30 3526 C 328.586 -1.73377 -0.147104 0
M  V30 3527 O 329.762 -2.01379 0.0289128 0
M  V30 3528 C 326.827 -3.44591 0.381829 0
M  V30 3529 C 325.888 -4.0322 1.4735 0
M  V30 3530 C 325.121 -5.24261 0.999324 0
M  V30 3531 O 325.344 -5.70198 -0.151957 0
M  V30 3532 O 324.278 -5.74775 1.78653 0
M  V30 3533 H 328.104 -2.44075 1.80724 0
M  V30 3534 H 325.689 -1.16042 0.940992 0
M  V30 3535 H 327.571 -4.21254 0.111053 0
M  V30 3536 H 326.246 -3.19532 -0.51777 0
M  V30 3537 H 325.153 -3.2806 1.79798 0
M  V30 3538 H 326.486 -4.32568 2.34831 0
M  V30 3539 N 328.138 -0.959301 -1.25041 0
M  V30 3540 C 329.384 -0.617525 -1.9317 0
M  V30 3541 C 329.717 0.843981 -1.74902 0
M  V30 3542 O 328.992 1.60615 -1.09696 0
M  V30 3543 C 329.275 -0.982736 -3.46431 0
M  V30 3544 C 329.128 -2.50032 -3.73904 0
M  V30 3545 C 330.447 -0.511176 -4.37121 0
M  V30 3546 H 327.566 -0.22582 -0.701552 0
M  V30 3547 H 330.208 -1.19679 -1.4757 0
M  V30 3548 H 328.358 -0.489806 -3.854 0
M  V30 3549 H 330.03 -3.06737 -3.44544 0
M  V30 3550 H 328.273 -2.93598 -3.19348 0
M  V30 3551 H 328.944 -2.70635 -4.81103 0
M  V30 3552 H 331.42 -0.934075 -4.0548 0
M  V30 3553 H 330.296 -0.795361 -5.43107 0
M  V30 3554 H 330.557 0.588834 -4.38161 0
M  V30 3555 N 329.616 1.39756 -0.72842 0
M  V30 3556 C 330.526 2.34444 -0.0855374 0
M  V30 3557 C 331.542 1.57976 0.729356 0
M  V30 3558 O 332.718 1.90301 0.659346 0
M  V30 3559 C 329.783 3.36965 0.815798 0
M  V30 3560 C 328.844 4.29299 -0.0105996 0
M  V30 3561 C 328.077 5.26923 0.84781 0
M  V30 3562 O 328.3 5.30859 2.08673 0
M  V30 3563 O 327.234 6.01249 0.279969 0
M  V30 3564 H 331.06 2.91065 -0.866892 0
M  V30 3565 H 328.645 1.4117 -0.48902 0
M  V30 3566 H 330.527 3.99804 1.33171 0
M  V30 3567 H 329.202 2.82739 1.57608 0
M  V30 3568 H 328.109 3.69703 -0.571877 0
M  V30 3569 H 329.442 4.86712 -0.73295 0
M  V30 3570 N 331.094 0.475555 1.50254 0
M  V30 3571 C 332.51 0.12997 1.5907 0
M  V30 3572 C 332.71 -1.36385 1.48328 0
M  V30 3573 O 331.766 -2.13754 1.34407 0
M  V30 3574 C 333.079 0.684139 2.92814 0
M  V30 3575 C 334.627 0.647965 3.0622 0
M  V30 3576 C 335.102 1.17975 4.42545 0
M  V30 3577 N 336.593 1.13936 4.48969 0
M  V30 3578 C 337.328 1.52129 5.52851 0
M  V30 3579 N 336.824 1.97793 6.63965 0
M  V30 3580 N 338.617 1.43704 5.4342 0
M  V30 3581 H 330.768 1.44706 1.55479 0
M  V30 3582 H 333.031 0.598691 0.735033 0
M  V30 3583 H 332.737 1.73079 3.06164 0
M  V30 3584 H 332.611 0.130204 3.76975 0
M  V30 3585 H 334.998 -0.38979 2.92514 0
M  V30 3586 H 335.079 1.23876 2.23805 0
M  V30 3587 H 334.723 2.21616 4.57 0
M  V30 3588 H 334.653 0.565138 5.23559 0
M  V30 3589 H 337.144 0.804488 3.69238 0
M  V30 3590 H 337.457 2.25072 7.39299 0
M  V30 3591 H 335.802 2.01749 6.65073 0
M  V30 3592 H 338.993 1.07867 4.55502 0
M  V30 3593 H 339.166 1.73794 6.24259 0
M  V30 3594 N 332.573 -1.56217 0.208337 0
M  V30 3595 C 333.822 -1.97124 -0.427204 0
M  V30 3596 C 334.135 -1.09859 -1.61835 0
M  V30 3597 O 335.341 -1.40606 -2.32255 0
M  V30 3598 C 333.797 -3.50633 -0.811442 0
M  V30 3599 C 333.405 -4.46582 0.35615 0
M  V30 3600 C 335.149 -4.00282 -1.41332 0
M  V30 3601 C 333.056 -5.91379 -0.0497852 0
M  V30 3602 H 331.986 -0.736086 -0.163381 0
M  V30 3603 H 334.637 -1.8099 0.302456 0
M  V30 3604 H 333.019 -3.62319 -1.59815 0
M  V30 3605 H 334.193 -4.46636 1.1337 0
M  V30 3606 H 332.508 -4.07202 0.870396 0
M  V30 3607 H 335.105 -5.0595 -1.72972 0
M  V30 3608 H 335.448 -3.45359 -2.32449 0
M  V30 3609 H 335.981 -3.91764 -0.690323 0
M  V30 3610 H 332.72 -6.50255 0.827529 0
M  V30 3611 H 332.24 -5.94549 -0.791926 0
M  V30 3612 H 333.919 -6.45209 -0.481042 0
M  V30 3613 N 334.051 0.0651679 -1.57465 0
M  V30 3614 C 334.999 1.09542 -2.05191 0
M  V30 3615 C 335.993 1.39675 -0.958509 0
M  V30 3616 O 337.199 1.39003 -1.14359 0
M  V30 3617 H 333.574 0.370623 -0.654326 0
M  V30 3618 H 335.545 0.666802 -2.90854 0
M  V30 3619 C 334.294 2.39881 -2.51699 0
M  V30 3620 H 333.617 2.17547 -3.3543 0
M  V30 3621 H 335.057 3.104 -2.88839 0
M  V30 3622 C 333.516 3.0631 -1.40271 0
M  V30 3623 O 334.046 3.94664 -0.748523 0
M  V30 3624 N 332.252 2.67041 -1.14618 0
M  V30 3625 H 331.799 1.95281 -1.67997 0
M  V30 3626 H 331.757 3.1181 -0.402688 0
M  V30 3627 N 335.529 1.53961 0.336706 0
M  V30 3628 C 336.757 1.75483 1.09605 0
M  V30 3629 C 337.172 0.4972 1.82136 0
M  V30 3630 O 336.529 -0.53149 1.74589 0
M  V30 3631 C 336.58 2.93943 2.10428 0
M  V30 3632 O 336.301 4.14842 1.40846 0
M  V30 3633 C 337.802 3.27571 2.98684 0
M  V30 3634 H 335.022 0.586166 0.326574 0
M  V30 3635 H 337.566 2.00808 0.38683 0
M  V30 3636 H 335.721 2.70929 2.76905 0
M  V30 3637 H 336.135 4.81383 2.08255 0
M  V30 3638 H 337.609 4.13791 3.6535 0
M  V30 3639 H 338.086 2.44168 3.65074 0
M  V30 3640 H 338.692 3.52615 2.37787 0
M  V30 3641 N 337.007 -0.598083 1.45811 0
M  V30 3642 C 338.256 -1.35295 1.49594 0
M  V30 3643 C 338.569 -1.95057 0.145679 0
M  V30 3644 O 339.775 -2.71431 0.0612099 0
M  V30 3645 C 338.231 -2.45124 2.63519 0
M  V30 3646 C 337.839 -1.91732 4.04899 0
M  V30 3647 C 339.583 -3.2205 2.76558 0
M  V30 3648 C 337.49 -2.991 5.1019 0
M  V30 3649 H 336.42 -0.508552 0.556679 0
M  V30 3650 H 339.071 -0.639977 1.71978 0
M  V30 3651 H 337.453 -3.19149 2.34435 0
M  V30 3652 H 338.627 -1.24352 4.43704 0
M  V30 3653 H 336.942 -1.27522 3.96393 0
M  V30 3654 H 339.539 -4.0215 3.52391 0
M  V30 3655 H 339.882 -3.73663 1.83526 0
M  V30 3656 H 340.415 -2.55127 3.05213 0
M  V30 3657 H 337.154 -2.52393 6.04961 0
M  V30 3658 H 336.674 -3.65017 4.75944 0
M  V30 3659 H 338.353 -3.63318 5.35359 0
M  V30 3660 N 338.485 -1.33259 -0.841409 0
M  V30 3661 C 339.415 -1.25926 -1.96634 0
M  V30 3662 C 340.396 -0.140349 -1.6952 0
M  V30 3663 O 341.581 -0.329707 -1.91381 0
M  V30 3664 C 338.711 -0.99512 -3.32738 0
M  V30 3665 C 337.665 -2.0767 -3.74242 0
M  V30 3666 C 336.991 -1.66474 -5.08125 0
M  V30 3667 C 338.291 -3.49318 -3.88297 0
M  V30 3668 H 339.985 -2.20046 -2.03027 0
M  V30 3669 H 337.531 -1.05931 -0.975425 0
M  V30 3670 H 339.484 -0.930323 -4.11002 0
M  V30 3671 H 338.208 -0.0183004 -3.26595 0
M  V30 3672 H 336.867 -2.13187 -2.98239 0
M  V30 3673 H 336.515 -0.675012 -4.9845 0
M  V30 3674 H 336.215 -2.3885 -5.36865 0
M  V30 3675 H 337.739 -1.61455 -5.88867 0
M  V30 3676 H 339.153 -3.46316 -4.56879 0
M  V30 3677 H 337.55 -4.20158 -4.28471 0
M  V30 3678 H 338.62 -3.8801 -2.9082 0
M  V30 3679 N 339.963 1.05934 -1.16686 0
M  V30 3680 C 340.873 2.17014 -0.891183 0
M  V30 3681 C 341.889 1.73453 0.137907 0
M  V30 3682 O 343.065 2.01361 -0.039592 0
M  V30 3683 C 340.13 3.44384 -0.400099 0
M  V30 3684 C 339.191 4.02433 -1.49486 0
M  V30 3685 C 338.424 5.23723 -1.02711 0
M  V30 3686 O 338.647 5.7027 0.121716 0
M  V30 3687 O 337.581 5.7382 -1.81699 0
M  V30 3688 H 341.407 2.43113 -1.82015 0
M  V30 3689 H 338.992 1.15541 -0.947132 0
M  V30 3690 H 340.874 4.21189 -0.133392 0
M  V30 3691 H 339.549 3.19802 0.500817 0
M  V30 3692 H 338.456 3.27102 -1.81535 0
M  V30 3693 H 339.789 4.31317 -2.37121 0
M  V30 3694 N 341.441 0.965919 1.2453 0
M  V30 3695 C 342.373 0.452465 2.2469 0
M  V30 3696 C 343.386 -0.437821 1.56802 0
M  V30 3697 O 344.575 -0.244283 1.76821 0
M  V30 3698 C 341.675 -0.366258 3.36915 0
M  V30 3699 C 340.848 0.513701 4.34373 0
M  V30 3700 C 339.907 -0.248716 5.25612 0
M  V30 3701 O 338.933 0.356745 5.68081 0
M  V30 3702 N 340.135 -1.53877 5.59734 0
M  V30 3703 H 342.9 1.31361 2.69378 0
M  V30 3704 H 340.461 0.837541 1.38553 0
M  V30 3705 H 342.453 -0.884297 3.94921 0
M  V30 3706 H 341.023 -1.12832 2.91526 0
M  V30 3707 H 340.243 1.21273 3.75082 0
M  V30 3708 H 341.531 1.11391 4.96457 0
M  V30 3709 H 340.929 -2.05243 5.27154 0
M  V30 3710 H 339.486 -2.00254 6.20275 0
M  V30 3711 N 342.919 -1.39368 0.735821 0
M  V30 3712 C 344.165 -2.00794 0.284544 0
M  V30 3713 C 344.498 -1.58255 -1.12557 0
M  V30 3714 O 343.773 -0.811819 -1.76748 0
M  V30 3715 C 344.056 -3.58011 0.387337 0
M  V30 3716 C 343.909 -4.10566 1.83728 0
M  V30 3717 C 345.228 -4.395 -0.22975 0
M  V30 3718 H 342.347 -0.729501 0.104866 0
M  V30 3719 H 344.989 -1.65564 0.93213 0
M  V30 3720 H 343.139 -3.88154 -0.164006 0
M  V30 3721 H 344.811 -3.91139 2.44556 0
M  V30 3722 H 343.054 -3.64095 2.35833 0
M  V30 3723 H 343.725 -5.19702 1.86047 0
M  V30 3724 H 346.201 -4.15406 0.240257 0
M  V30 3725 H 345.077 -5.48752 -0.127485 0
M  V30 3726 H 345.338 -4.22062 -1.3159 0
M  V30 3727 N 344.397 -0.483516 -1.5 0
M  V30 3728 C 345.643 0.0672592 -2.02688 0
M  V30 3729 C 345.976 1.38247 -1.36387 0
M  V30 3730 O 345.251 1.88131 -0.493675 0
M  V30 3731 C 345.534 0.238109 -3.59312 0
M  V30 3732 C 345.387 -1.099 -4.36168 0
M  V30 3733 C 346.706 0.986916 -4.28892 0
M  V30 3734 H 343.825 0.0229696 -0.736642 0
M  V30 3735 H 346.467 -0.631527 -1.79197 0
M  V30 3736 H 344.617 0.8333 -3.79458 0
M  V30 3737 H 346.289 -1.73172 -4.27562 0
M  V30 3738 H 344.532 -1.69261 -3.99416 0
M  V30 3739 H 345.203 -0.932954 -5.44059 0
M  V30 3740 H 347.679 0.482302 -4.13295 0
M  V30 3741 H 346.555 1.07527 -5.38265 0
M  V30 3742 H 346.816 2.0265 -3.92919 0
M  V30 3743 N 345.875 1.56104 -0.216619 0
M  V30 3744 C 347.124 1.97348 0.416744 0
M  V30 3745 C 347.437 1.10715 1.6125 0
M  V30 3746 O 348.643 1.41836 2.31506 0
M  V30 3747 C 347.099 3.51059 0.792835 0
M  V30 3748 C 346.707 4.46387 -0.379828 0
M  V30 3749 C 348.451 4.01026 1.39208 0
M  V30 3750 C 346.358 5.91397 0.0184223 0
M  V30 3751 H 345.288 0.736942 0.159475 0
M  V30 3752 H 347.939 1.80827 -0.31205 0
M  V30 3753 H 346.321 3.63162 1.57891 0
M  V30 3754 H 347.495 4.46029 -1.15737 0
M  V30 3755 H 345.81 4.06734 -0.891979 0
M  V30 3756 H 348.407 5.0686 1.70286 0
M  V30 3757 H 348.75 3.46587 2.30614 0
M  V30 3758 H 349.283 3.92125 0.669537 0
M  V30 3759 H 346.022 6.49807 -0.862002 0
M  V30 3760 H 345.542 5.94961 0.760384 0
M  V30 3761 H 347.221 6.45455 0.446818 0
M  V30 3762 N 347.353 -0.0568162 1.57498 0
M  V30 3763 C 348.283 -1.06593 2.0775 0
M  V30 3764 C 349.264 -1.39448 0.974082 0
M  V30 3765 O 350.449 -1.48815 1.24771 0
M  V30 3766 C 347.579 -2.37509 2.5339 0
M  V30 3767 C 346.533 -2.1897 3.67745 0
M  V30 3768 C 345.859 -3.55402 3.99492 0
M  V30 3769 C 347.159 -1.59859 4.97235 0
M  V30 3770 H 348.853 -0.647706 2.9231 0
M  V30 3771 H 346.399 -0.310116 1.40621 0
M  V30 3772 H 348.352 -3.08409 2.87162 0
M  V30 3773 H 347.076 -2.8134 1.65878 0
M  V30 3774 H 345.735 -1.50508 3.3428 0
M  V30 3775 H 345.383 -3.9683 3.09088 0
M  V30 3776 H 345.083 -3.43831 4.76502 0
M  V30 3777 H 346.607 -4.27708 4.35773 0
M  V30 3778 H 348.021 -2.20642 5.29141 0
M  V30 3779 H 346.418 -1.58942 5.78669 0
M  V30 3780 H 347.488 -0.561506 4.81638 0
M  V30 3781 N 348.832 -1.54138 -0.328536 0
M  V30 3782 C 350.08 -1.71765 -1.06496 0
M  V30 3783 C 350.401 -0.49149 -1.88704 0
M  V30 3784 O 349.671 0.494539 -1.89555 0
M  V30 3785 H 348.251 -0.633295 -0.396164 0
M  V30 3786 H 350.913 -1.91429 -0.366176 0
M  V30 3787 H 350.009 -2.5951 -1.73381 0
M  V30 3788 N 350.31 0.590341 -1.46126 0
M  V30 3789 C 351.257 1.69994 -1.56111 0
M  V30 3790 C 352.227 1.61065 -0.405867 0
M  V30 3791 O 353.412 1.8039 -0.621613 0
M  V30 3792 C 350.552 3.08326 -1.55013 0
M  V30 3793 C 349.665 3.27936 -2.81215 0
M  V30 3794 C 348.8 4.56473 -2.71673 0
M  V30 3795 C 347.839 4.694 -3.92849 0
M  V30 3796 N 346.976 5.89254 -3.81738 0
M  V30 3797 H 351.816 1.60797 -2.50895 0
M  V30 3798 H 349.353 0.783799 -1.24479 0
M  V30 3799 H 351.311 3.88383 -1.52362 0
M  V30 3800 H 349.941 3.16439 -0.637667 0
M  V30 3801 H 348.993 2.41536 -2.93879 0
M  V30 3802 H 350.305 3.33357 -3.71045 0
M  V30 3803 H 349.459 5.44748 -2.67085 0
M  V30 3804 H 348.198 4.53477 -1.7947 0
M  V30 3805 H 347.203 3.79544 -3.97777 0
M  V30 3806 H 348.428 4.7418 -4.86138 0
M  V30 3807 H 346.374 5.87271 -2.92317 0
M  V30 3808 H 346.291 5.95911 -4.65217 0
M  V30 3809 H 347.559 6.79981 -3.81112 0
M  V30 3810 N 351.788 1.33704 0.83433 0
M  V30 3811 C 352.738 1.20899 1.93306 0
M  V30 3812 C 353.722 0.110783 1.60518 0
M  V30 3813 O 354.914 0.339331 1.73717 0
M  V30 3814 C 352.043 0.955018 3.29749 0
M  V30 3815 C 351.129 2.09587 3.68692 0
M  V30 3816 N 351.52 3.34621 3.79292 0
M  V30 3817 C 349.818 2.00358 3.98463 0
M  V30 3818 C 350.519 4.09472 4.13167 0
M  V30 3819 N 349.495 3.37954 4.25779 0
M  V30 3820 H 353.297 2.15665 1.99664 0
M  V30 3821 H 350.811 1.25777 1.02732 0
M  V30 3822 H 352.808 0.844208 4.08263 0
M  V30 3823 H 351.468 0.0159317 3.24696 0
M  V30 3824 H 352.479 3.69313 3.63082 0
M  V30 3825 H 349.156 1.14137 4.01596 0
M  V30 3826 H 350.546 5.17391 4.28668 0
M  V30 3827 N 353.266 -1.05314 1.17247 0
M  V30 3828 C 354.491 -1.82509 0.985148 0
M  V30 3829 C 354.916 -1.82343 -0.461788 0
M  V30 3830 O 354.274 -1.23151 -1.33055 0
M  V30 3831 C 354.322 -3.26566 1.52929 0
M  V30 3832 O 353.426 -4.05666 0.742225 0
M  V30 3833 H 352.767 -0.564347 0.349869 0
M  V30 3834 H 355.297 -1.32718 1.55715 0
M  V30 3835 H 355.307 -3.77369 1.55103 0
M  V30 3836 H 353.982 -3.26001 2.58256 0
M  V30 3837 H 352.559 -3.64397 0.791794 0
M  V30 3838 N 354.744 -0.972509 -1.24016 0
M  V30 3839 C 356.16 -0.679827 -1.44397 0
M  V30 3840 C 356.36 0.756716 -1.86751 0
M  V30 3841 O 355.416 1.53007 -2.00861 0
M  V30 3842 C 356.729 -1.66803 -2.50195 0
M  V30 3843 C 358.277 -1.68119 -2.64017 0
M  V30 3844 C 358.752 -2.65748 -3.73017 0
M  V30 3845 N 360.243 -2.64219 -3.8045 0
M  V30 3846 C 360.978 -3.36433 -4.64328 0
M  V30 3847 N 360.474 -4.1818 -5.52356 0
M  V30 3848 N 362.267 -3.25235 -4.58453 0
M  V30 3849 H 354.418 -1.90059 -0.948228 0
M  V30 3850 H 356.681 -0.818527 -0.478245 0
M  V30 3851 H 356.387 -2.69498 -2.25973 0
M  V30 3852 H 356.261 -1.4446 -3.48441 0
M  V30 3853 H 358.648 -0.661319 -2.87594 0
M  V30 3854 H 358.729 -1.94525 -1.66113 0
M  V30 3855 H 358.373 -3.67872 -3.50189 0
M  V30 3856 H 358.303 -2.36619 -4.70446 0
M  V30 3857 H 360.794 -2.04887 -3.17537 0
M  V30 3858 H 361.107 -4.70157 -6.13329 0
M  V30 3859 H 359.452 -4.22273 -5.52006 0
M  V30 3860 H 362.643 -2.60829 -3.88698 0
M  V30 3861 H 362.816 -3.81776 -5.23594 0
M  V30 3862 N 356.222 1.38976 -0.743202 0
M  V30 3863 C 357.47 1.99948 -0.29417 0
M  V30 3864 C 357.791 1.59279 1.12495 0
M  V30 3865 O 357.061 0.844808 1.76748 0
M  V30 3866 H 355.641 0.739473 -0.105774 0
M  V30 3867 H 358.303 1.699 -0.954986 0
M  V30 3868 H 357.399 3.10142 -0.349056 0
M  V30 3869 N 357.7 0.491464 1.49741 0
M  V30 3870 C 358.93 -0.0534375 2.06531 0
M  V30 3871 C 359.338 -1.32233 1.35318 0
M  V30 3872 O 358.681 -1.78781 0.422243 0
M  V30 3873 C 358.743 -0.387034 3.57411 0
M  V30 3874 C 358.407 0.782764 4.50246 0
M  V30 3875 C 359.404 1.67059 4.92329 0
M  V30 3876 C 357.089 0.978866 4.9267 0
M  V30 3877 C 359.083 2.73874 5.75562 0
M  V30 3878 C 356.77 2.05022 5.75682 0
M  V30 3879 C 357.768 2.92851 6.17031 0
M  V30 3880 O 357.456 3.98138 6.98385 0
M  V30 3881 H 357.188 0.0129324 0.675876 0
M  V30 3882 H 359.742 0.685238 1.93633 0
M  V30 3883 H 357.972 -1.17918 3.68283 0
M  V30 3884 H 359.661 -0.869419 3.96479 0
M  V30 3885 H 360.427 1.53086 4.60206 0
M  V30 3886 H 356.306 0.304646 4.59992 0
M  V30 3887 H 359.85 3.42458 6.07757 0
M  V30 3888 H 355.747 2.18993 6.07217 0
M  V30 3889 H 356.515 3.95374 7.16674 0
M  V30 3890 N 359.178 -1.55987 0.224894 0
M  V30 3891 C 360.128 -2.17076 -0.697296 0
M  V30 3892 C 361.112 -1.12006 -1.15514 0
M  V30 3893 O 362.304 -1.37985 -1.10857 0
M  V30 3894 C 359.433 -2.85679 -1.90374 0
M  V30 3895 C 358.519 -3.97977 -1.46543 0
M  V30 3896 N 358.91 -5.00359 -0.739909 0
M  V30 3897 C 357.208 -4.10128 -1.75245 0
M  V30 3898 C 357.909 -5.79407 -0.515939 0
M  V30 3899 N 356.885 -5.32892 -1.07364 0
M  V30 3900 H 360.687 -2.93592 -0.134594 0
M  V30 3901 H 358.201 -1.62379 0.0262885 0
M  V30 3902 H 360.198 -3.27857 -2.57518 0
M  V30 3903 H 358.858 -2.1066 -2.47088 0
M  V30 3904 H 359.869 -5.16412 -0.392253 0
M  V30 3905 H 356.546 -3.46263 -2.33255 0
M  V30 3906 H 357.936 -6.71872 0.0617349 0
M  V30 3907 N 360.656 0.0484629 -1.57525 0
M  V30 3908 C 361.886 0.754326 -1.92337 0
M  V30 3909 C 362.294 1.70443 -0.82132 0
M  V30 3910 O 361.637 1.82466 0.21254 0
M  V30 3911 C 361.699 1.58231 -3.22805 0
M  V30 3912 C 361.363 0.799074 -4.4996 0
M  V30 3913 C 362.36 0.1079 -5.19788 0
M  V30 3914 C 360.045 0.759345 -4.96527 0
M  V30 3915 C 362.039 -0.612516 -6.3445 0
M  V30 3916 C 359.726 0.0351713 -6.1109 0
M  V30 3917 C 360.724 -0.649537 -6.79904 0
M  V30 3918 O 360.412 -1.36199 -7.92278 0
M  V30 3919 H 360.144 0.218257 -0.639797 0
M  V30 3920 H 362.698 0.0159295 -2.05394 0
M  V30 3921 H 360.928 2.36406 -3.06021 0
M  V30 3922 H 362.617 2.16898 -3.43089 0
M  V30 3923 H 363.383 0.129748 -4.84826 0
M  V30 3924 H 359.262 1.28177 -4.42822 0
M  V30 3925 H 362.806 -1.14751 -6.88097 0
M  V30 3926 H 358.703 0.0113314 -6.45499 0
M  V30 3927 H 359.471 -1.27366 -8.0853 0
M  V30 3928 N 362.134 1.5431 0.320358 0
M  V30 3929 C 363.067 1.78769 1.41834 0
M  V30 3930 C 364.045 0.63783 1.49568 0
M  V30 3931 O 365.229 0.875628 1.66928 0
M  V30 3932 C 362.356 1.90712 2.79905 0
M  V30 3933 C 361.402 3.13023 2.89687 0
M  V30 3934 S 362.235 4.71554 2.53766 0
M  V30 3935 C 363.391 4.86408 3.93902 0
M  V30 3936 H 363.624 2.71619 1.20874 0
M  V30 3937 H 361.157 1.45474 0.517377 0
M  V30 3938 H 363.115 1.98279 3.59438 0
M  V30 3939 H 361.776 0.988343 2.98145 0
M  V30 3940 H 360.969 3.18124 3.90913 0
M  V30 3941 H 360.571 3.03803 2.18128 0
M  V30 3942 H 362.863 4.69241 4.88691 0
M  V30 3943 H 363.806 5.88508 3.93782 0
M  V30 3944 H 364.214 4.14689 3.83005 0
M  V30 3945 N 363.613 -0.582584 1.46437 0
M  V30 3946 C 364.543 -1.70187 1.59871 0
M  V30 3947 C 365.524 -1.64066 0.449042 0
M  V30 3948 O 366.709 -1.82081 0.6753 0
M  V30 3949 C 363.839 -3.08827 1.58881 0
M  V30 3950 C 362.793 -3.29779 2.72819 0
M  V30 3951 C 362.119 -4.68947 2.5689 0
M  V30 3952 C 363.419 -3.17601 4.1464 0
M  V30 3953 H 365.113 -1.592 2.53566 0
M  V30 3954 H 362.659 -0.764472 1.22032 0
M  V30 3955 H 364.612 -3.86951 1.66873 0
M  V30 3956 H 363.336 -3.20713 0.617306 0
M  V30 3957 H 361.995 -2.54054 2.64296 0
M  V30 3958 H 361.643 -4.77599 1.57823 0
M  V30 3959 H 361.343 -4.83919 3.33312 0
M  V30 3960 H 362.867 -5.4924 2.66773 0
M  V30 3961 H 364.281 -3.8557 4.24274 0
M  V30 3962 H 362.678 -3.44094 4.9165 0
M  V30 3963 H 363.748 -2.14681 4.34788 0
M  V30 3964 N 365.091 -1.34144 -0.827227 0
M  V30 3965 C 366.054 -1.25264 -1.91942 0
M  V30 3966 C 367.054 -0.168866 -1.59911 0
M  V30 3967 O 368.244 -0.421198 -1.69031 0
M  V30 3968 C 365.376 -0.932952 -3.27885 0
M  V30 3969 H 366.569 -2.22357 -2.0124 0
M  V30 3970 H 364.122 -1.1837 -1.0207 0
M  V30 3971 H 364.857 0.0349917 -3.24281 0
M  V30 3972 H 364.642 -1.71682 -3.52516 0
M  V30 3973 H 366.132 -0.895874 -4.07877 0
M  V30 3974 N 366.569 1.04691 -1.17803 0
M  V30 3975 C 367.517 2.14665 -0.895635 0
M  V30 3976 C 368.511 1.68806 0.141679 0
M  V30 3977 O 369.717 1.79999 -0.00587914 0
M  V30 3978 H 366.092 0.701038 -0.272121 0
M  V30 3979 H 368.063 2.35685 -1.83017 0
M  V30 3980 C 366.812 3.45019 -0.430962 0
M  V30 3981 H 366.135 3.8071 -1.22064 0
M  V30 3982 H 367.575 4.23125 -0.272301 0
M  V30 3983 C 366.034 3.25943 0.852207 0
M  V30 3984 O 366.564 3.5296 1.91786 0
M  V30 3985 N 364.77 2.79304 0.802346 0
M  V30 3986 H 364.317 2.57518 -0.0650788 0
M  V30 3987 H 364.275 2.66921 1.66134 0
M  V30 3988 N 368.047 0.979072 1.23499 0
M  V30 3989 C 368.977 0.537606 2.27227 0
M  V30 3990 C 369.958 -0.428539 1.64613 0
M  V30 3991 O 371.143 -0.322191 1.91509 0
M  V30 3992 C 368.273 -0.162052 3.46922 0
M  V30 3993 C 367.227 0.721242 4.21879 0
M  V30 3994 C 366.553 -0.110555 5.34586 0
M  V30 3995 C 367.853 2.01141 4.82016 0
M  V30 3996 H 369.547 1.40462 2.64406 0
M  V30 3997 H 367.093 0.67684 1.27102 0
M  V30 3998 H 369.046 -0.482192 4.18632 0
M  V30 3999 H 367.77 -1.06351 3.08799 0
M  V30 4000 H 366.429 1.02482 3.51984 0
M  V30 4001 H 366.077 -1.0125 4.92704 0
M  V30 4002 H 365.777 0.477325 5.85658 0
M  V30 4003 H 367.301 -0.425107 6.09118 0
M  V30 4004 H 368.715 1.75612 5.45741 0
M  V30 4005 H 367.112 2.54695 5.43369 0
M  V30 4006 H 368.182 2.69909 4.02836 0
M  V30 4007 N 369.525 -1.3858 0.750561 0
M  V30 4008 C 370.773 -1.99789 0.30477 0
M  V30 4009 C 371.094 -1.59874 -1.11649 0
M  V30 4010 O 370.364 -0.85417 -1.76297 0
M  V30 4011 H 368.944 -0.738902 0.109694 0
M  V30 4012 H 371.606 -1.69391 0.963983 0
M  V30 4013 H 370.702 -3.09952 0.365499 0
M  V30 4014 N 371.003 -0.499398 -1.49478 0
M  V30 4015 C 372.25 0.0456899 -2.02448 0
M  V30 4016 C 372.578 1.37142 -1.37921 0
M  V30 4017 O 371.833 1.89111 -0.503544 0
M  V30 4018 C 372.132 0.248424 -3.56536 0
M  V30 4019 C 371.798 -0.999107 -4.39692 0
M  V30 4020 C 370.46 -1.34108 -4.62135 0
M  V30 4021 C 372.812 -1.82842 -4.88076 0
M  V30 4022 C 370.14 -2.51191 -5.30208 0
M  V30 4023 C 372.492 -2.99076 -5.57437 0
M  V30 4024 C 371.156 -3.33655 -5.78127 0
M  V30 4025 H 370.426 0.0167191 -0.740811 0
M  V30 4026 H 373.073 -0.65923 -1.79795 0
M  V30 4027 H 371.378 1.03586 -3.77859 0
M  V30 4028 H 373.075 0.684605 -3.95113 0
M  V30 4029 H 369.665 -0.722729 -4.22463 0
M  V30 4030 H 373.849 -1.57737 -4.70566 0
M  V30 4031 H 369.105 -2.78221 -5.44429 0
M  V30 4032 H 373.279 -3.63664 -5.93904 0
M  V30 4033 H 370.906 -4.24483 -6.30649 0
M  V30 4034 N 372.481 1.55866 -0.233164 0
M  V30 4035 C 373.709 2.02998 0.399905 0
M  V30 4036 C 374.124 1.11274 1.52524 0
M  V30 4037 O 373.481 0.124528 1.82075 0
M  V30 4038 C 373.532 3.4958 0.920639 0
M  V30 4039 O 373.253 4.37808 -0.159834 0
M  V30 4040 C 374.754 4.12411 1.62578 0
M  V30 4041 H 371.974 0.664006 0.0966281 0
M  V30 4042 H 374.518 2.0143 -0.353013 0
M  V30 4043 H 372.673 3.51727 1.62379 0
M  V30 4044 H 373.087 5.23981 0.23337 0
M  V30 4045 H 374.561 5.16711 1.94201 0
M  V30 4046 H 375.038 3.5809 2.54299 0
M  V30 4047 H 375.644 4.14148 0.967553 0
M  V30 4048 N 373.959 -0.0401083 1.57549 0
M  V30 4049 C 375.236 -0.767917 1.79896 0
M  V30 4050 C 375.616 -1.9416 0.82856 0
M  V30 4051 O 374.964 -2.2812 -0.131671 0
M  V30 4052 C 375.174 -1.2113 3.27305 0
M  V30 4053 C 376.522 -1.63175 3.91994 0
M  V30 4054 O 377.546 -1.30616 3.31388 0
M  V30 4055 O 376.405 -2.23565 4.98679 0
M  V30 4056 H 373.499 -0.370441 0.739393 0
M  V30 4057 H 376.045 -0.017737 1.69691 0
M  V30 4058 H 374.817 -0.372937 3.89519 0
M  V30 4059 H 374.44 -2.02183 3.42356 0
M  V30 4060 N 375.437 -1.54477 -0.31217 0
M  V30 4061 C 376.686 -1.72438 -1.04633 0
M  V30 4062 C 376.999 -0.511163 -1.88803 0
M  V30 4063 O 378.205 -0.572341 -2.65399 0
M  V30 4064 C 376.661 -3.05043 -1.9099 0
M  V30 4065 C 376.269 -4.33806 -1.11877 0
M  V30 4066 C 378.013 -3.32364 -2.64073 0
M  V30 4067 C 375.92 -5.57467 -1.97445 0
M  V30 4068 H 374.85 -0.642647 -0.394361 0
M  V30 4069 H 377.501 -1.80966 -0.303929 0
M  V30 4070 H 375.883 -2.90451 -2.69173 0
M  V30 4071 H 377.057 -4.59199 -0.383843 0
M  V30 4072 H 375.372 -4.13336 -0.504252 0
M  V30 4073 H 377.969 -4.21951 -3.28423 0
M  V30 4074 H 378.312 -2.50745 -3.32314 0
M  V30 4075 H 378.845 -3.47875 -1.92944 0
M  V30 4076 H 375.584 -6.41722 -1.33692 0
M  V30 4077 H 375.104 -5.36277 -2.6864 0
M  V30 4078 H 376.783 -5.94303 -2.5576 0
M  V30 4079 N 376.915 0.57481 -1.46744 0
M  V30 4080 C 377.845 1.69337 -1.60771 0
M  V30 4081 C 378.826 1.63825 -0.457736 0
M  V30 4082 O 380.011 1.8172 -0.684947 0
M  V30 4083 C 377.141 3.0798 -1.60517 0
M  V30 4084 C 376.095 3.28327 -2.74564 0
M  V30 4085 C 375.421 4.67578 -2.59373 0
M  V30 4086 C 376.721 3.15398 -4.16319 0
M  V30 4087 H 378.415 1.57853 -2.54407 0
M  V30 4088 H 375.961 0.75799 -1.22436 0
M  V30 4089 H 377.914 3.86061 -1.68923 0
M  V30 4090 H 376.638 3.20381 -0.634305 0
M  V30 4091 H 375.297 2.52649 -2.65639 0
M  V30 4092 H 374.945 4.76755 -1.60353 0
M  V30 4093 H 374.645 4.82144 -3.35873 0
M  V30 4094 H 376.169 5.47817 -2.69682 0
M  V30 4095 H 377.583 3.83315 -4.26313 0
M  V30 4096 H 375.98 3.41482 -4.93468 0
M  V30 4097 H 377.05 2.12372 -4.3592 0
M  V30 4098 N 378.394 1.34581 0.820102 0
M  V30 4099 C 379.324 1.29038 1.94606 0
M  V30 4100 C 380.305 0.1673 1.69275 0
M  V30 4101 O 381.49 0.360112 1.90832 0
M  V30 4102 C 378.62 1.04793 3.31113 0
M  V30 4103 C 377.574 2.13597 3.70891 0
M  V30 4104 C 376.9 1.74537 5.05412 0
M  V30 4105 C 378.2 3.55451 3.8269 0
M  V30 4106 H 379.894 2.23248 1.99501 0
M  V30 4107 H 377.44 1.0747 0.958449 0
M  V30 4108 H 379.393 0.995592 4.0947 0
M  V30 4109 H 378.117 0.0702565 3.26524 0
M  V30 4110 H 376.776 2.17905 2.9481 0
M  V30 4111 H 376.424 0.754226 4.97313 0
M  V30 4112 H 376.124 2.47361 5.32997 0
M  V30 4113 H 377.648 1.70803 5.86224 0
M  V30 4114 H 379.062 3.5354 4.51312 0
M  V30 4115 H 377.459 4.26922 4.21732 0
M  V30 4116 H 378.529 3.92587 2.84611 0
M  V30 4117 N 379.872 -1.04064 1.18357 0
M  V30 4118 C 380.782 -2.15569 0.925596 0
M  V30 4119 C 381.798 -1.7365 -0.110295 0
M  V30 4120 O 382.974 -2.01273 0.0716218 0
M  V30 4121 C 380.039 -3.43704 0.454836 0
M  V30 4122 C 379.1 -4.00004 1.55869 0
M  V30 4123 C 378.333 -5.22023 1.1103 0
M  V30 4124 O 378.556 -5.70392 -0.0309756 0
M  V30 4125 O 377.49 -5.70856 1.90805 0
M  V30 4126 H 381.316 -2.40187 1.8586 0
M  V30 4127 H 378.901 -1.1402 0.965394 0
M  V30 4128 H 380.783 -4.20923 0.200382 0
M  V30 4129 H 379.458 -3.20559 -0.449876 0
M  V30 4130 H 378.365 -3.24172 1.86716 0
M  V30 4131 H 379.698 -4.2749 2.43953 0
M  V30 4132 N 381.35 -0.985608 -1.22978 0
M  V30 4133 C 382.766 -0.695104 -1.43668 0
M  V30 4134 C 382.966 0.736866 -1.87543 0
M  V30 4135 O 382.022 1.50868 -2.02473 0
M  V30 4136 C 383.335 -1.69447 -2.48412 0
M  V30 4137 C 384.883 -1.70909 -2.62219 0
M  V30 4138 C 385.358 -2.6969 -3.70178 0
M  V30 4139 N 386.849 -2.6824 -3.77626 0
M  V30 4140 C 387.584 -3.41339 -4.60733 0
M  V30 4141 N 387.08 -4.24015 -5.4789 0
M  V30 4142 N 388.873 -3.30079 -4.54977 0
M  V30 4143 H 381.024 -1.91054 -0.928016 0
M  V30 4144 H 383.287 -0.823553 -0.469536 0
M  V30 4145 H 382.993 -2.7188 -2.23102 0
M  V30 4146 H 382.867 -1.48147 -3.46889 0
M  V30 4147 H 385.254 -0.691785 -2.86877 0
M  V30 4148 H 385.335 -1.96276 -1.6404 0
M  V30 4149 H 384.979 -3.71566 -3.46268 0
M  V30 4150 H 384.909 -2.41595 -4.67909 0
M  V30 4151 H 387.4 -2.08243 -3.15346 0
M  V30 4152 H 387.713 -4.76636 -6.08308 0
M  V30 4153 H 386.058 -4.28104 -5.47496 0
M  V30 4154 H 389.249 -2.64937 -3.85909 0
M  V30 4155 H 389.422 -3.87308 -5.19516 0
M  V30 4156 N 382.828 1.3818 -0.7579 0
M  V30 4157 C 384.074 2.00316 -0.316453 0
M  V30 4158 C 384.407 1.60026 1.10025 0
M  V30 4159 O 383.682 0.839835 1.75434 0
M  V30 4160 C 383.965 3.57349 -0.444245 0
M  V30 4161 C 383.818 4.07591 -1.90236 0
M  V30 4162 C 385.137 4.3981 0.1598 0
M  V30 4163 H 382.256 0.727741 -0.116459 0
M  V30 4164 H 384.898 1.6406 -0.958352 0
M  V30 4165 H 383.048 3.88365 0.102233 0
M  V30 4166 H 384.72 3.87199 -2.50748 0
M  V30 4167 H 382.963 3.60297 -2.41595 0
M  V30 4168 H 383.634 5.16677 -1.94291 0
M  V30 4169 H 386.11 4.14971 -0.306314 0
M  V30 4170 H 384.986 5.48885 0.0401675 0
M  V30 4171 H 385.247 4.24102 1.24859 0
M  V30 4172 N 384.306 0.507319 1.49211 0
M  V30 4173 C 385.239 -0.314509 2.26022 0
M  V30 4174 C 386.217 -0.964849 1.30879 0
M  V30 4175 O 387.401 -0.993707 1.6018 0
M  V30 4176 C 384.528 -1.44346 3.06402 0
M  V30 4177 C 383.574 -0.90685 4.16748 0
M  V30 4178 S 384.407 0.207392 5.35098 0
M  V30 4179 C 385.563 -0.924573 6.19033 0
M  V30 4180 H 385.796 0.337416 2.95379 0
M  V30 4181 H 383.329 0.292718 1.516 0
M  V30 4182 H 385.287 -2.09029 3.53295 0
M  V30 4183 H 383.948 -2.06702 2.36502 0
M  V30 4184 H 383.141 -1.75309 4.72528 0
M  V30 4185 H 382.743 -0.33712 3.72478 0
M  V30 4186 H 385.035 -1.82839 6.52362 0
M  V30 4187 H 385.978 -0.405248 7.06939 0
M  V30 4188 H 386.386 -1.19476 5.51712 0
M  V30 4189 N 385.784 -1.5574 0.241426 0
M  V30 4190 C 386.734 -2.17803 -0.674233 0
M  V30 4191 C 387.718 -1.13225 -1.14319 0
M  V30 4192 O 388.91 -1.39153 -1.09387 0
M  V30 4193 C 386.039 -2.87682 -1.87333 0
M  V30 4194 C 385.125 -3.99509 -1.42313 0
M  V30 4195 N 385.516 -5.01115 -0.686798 0
M  V30 4196 C 383.814 -4.11964 -1.70885 0
M  V30 4197 C 384.515 -5.79922 -0.454456 0
M  V30 4198 N 383.491 -5.34001 -1.01705 0
M  V30 4199 H 387.293 -2.93718 -0.103447 0
M  V30 4200 H 384.807 -1.62342 0.0435095 0
M  V30 4201 H 386.804 -3.3057 -2.54026 0
M  V30 4202 H 385.464 -2.13269 -2.4484 0
M  V30 4203 H 386.475 -5.16799 -0.337459 0
M  V30 4204 H 383.152 -3.48718 -2.2957 0
M  V30 4205 H 384.542 -6.71768 0.132992 0
M  V30 4206 N 387.262 0.0317525 -1.57568 0
M  V30 4207 C 388.51 0.721676 -1.88776 0
M  V30 4208 C 388.831 1.76039 -0.838772 0
M  V30 4209 O 388.101 1.95482 0.127935 0
M  V30 4210 H 386.681 0.269534 -0.696678 0
M  V30 4211 H 389.343 -0.00165879 -1.949 0
M  V30 4212 H 388.439 1.21293 -2.87566 0
M  V30 4213 N 388.74 1.54641 0.303973 0
M  V30 4214 C 389.988 1.73437 1.0375 0
M  V30 4215 C 390.309 0.521449 1.87899 0
M  V30 4216 O 389.579 -0.46432 1.90318 0
M  V30 4217 H 388.159 0.639518 0.386039 0
M  V30 4218 H 390.821 1.91988 0.335675 0
M  V30 4219 H 389.917 2.62235 1.69231 0
M  V30 4220 N 390.218 -0.567019 1.47046 0
M  V30 4221 C 391.181 -1.65696 1.58359 0
M  V30 4222 C 392.181 -1.54097 0.459441 0
M  V30 4223 O 393.371 -1.58432 0.724225 0
M  V30 4224 C 390.503 -3.05197 1.51879 0
M  V30 4225 H 391.696 -1.57019 2.5551 0
M  V30 4226 H 389.249 -0.786148 1.3509 0
M  V30 4227 H 389.984 -3.19417 0.560673 0
M  V30 4228 H 389.769 -3.15025 2.33455 0
M  V30 4229 H 391.259 -3.84511 1.62913 0
M  V30 4230 N 391.696 -1.35014 -0.812953 0
M  V30 4231 C 392.644 -1.27435 -1.94585 0
M  V30 4232 C 393.638 -0.170494 -1.6854 0
M  V30 4233 O 394.844 -0.336085 -1.76835 0
M  V30 4234 H 391.219 -0.396144 -0.639198 0
M  V30 4235 H 393.19 -2.23158 -1.98098 0
M  V30 4236 C 391.939 -1.05677 -3.31252 0
M  V30 4237 H 391.262 -1.89853 -3.51846 0
M  V30 4238 H 392.702 -1.04413 -4.10943 0
M  V30 4239 C 391.161 0.239615 -3.36047 0
M  V30 4240 O 391.691 1.23759 -3.8216 0
M  V30 4241 N 389.897 0.276186 -2.89285 0
M  V30 4242 H 389.444 -0.53653 -2.51951 0
M  V30 4243 H 389.402 1.14332 -2.92875 0
M  V30 4244 N 393.175 1.03435 -1.18907 0
M  V30 4245 C 394.424 1.76143 -0.982669 0
M  V30 4246 C 394.737 1.89416 0.487953 0
M  V30 4247 O 395.943 2.59041 0.813036 0
M  V30 4248 C 394.399 3.16722 -1.70924 0
M  V30 4249 C 394.007 3.11522 -3.21959 0
M  V30 4250 C 395.751 3.93764 -1.58588 0
M  V30 4251 C 393.658 4.46999 -3.87228 0
M  V30 4252 H 392.588 0.660292 -0.364047 0
M  V30 4253 H 395.239 1.158 -1.42347 0
M  V30 4254 H 393.621 3.775 -1.19623 0
M  V30 4255 H 394.795 2.60158 -3.80335 0
M  V30 4256 H 393.11 2.47978 -3.34508 0
M  V30 4257 H 395.707 4.93963 -2.04707 0
M  V30 4258 H 396.05 4.12794 -0.539142 0
M  V30 4259 H 396.583 3.39576 -2.07203 0
M  V30 4260 H 393.322 4.33174 -4.91976 0
M  V30 4261 H 392.842 4.98441 -3.33642 0
M  V30 4262 H 394.521 5.15898 -3.90459 0
M  V30 4263 N 394.653 0.992116 1.22453 0
M  V30 4264 C 395.881 0.685944 1.95198 0
M  V30 4265 C 396.296 -0.749233 1.73297 0
M  V30 4266 O 395.653 -1.50549 1.03156 0
M  V30 4267 C 395.704 0.981395 3.47924 0
M  V30 4268 O 395.425 2.36018 3.6909 0
M  V30 4269 C 396.926 0.692815 4.37853 0
M  V30 4270 H 394.146 0.253821 0.621141 0
M  V30 4271 H 396.69 1.32668 1.55626 0
M  V30 4272 H 394.845 0.386481 3.85467 0
M  V30 4273 H 395.259 2.45884 4.63294 0
M  V30 4274 H 396.733 0.949818 5.43767 0
M  V30 4275 H 397.21 -0.373181 4.37612 0
M  V30 4276 H 397.816 1.26874 4.05935 0
M  V30 4277 N 396.131 -1.37776 0.765217 0
M  V30 4278 C 397.379 -1.99454 0.325943 0
M  V30 4279 C 397.7 -1.61049 -1.09947 0
M  V30 4280 O 396.97 -0.872821 -1.75381 0
M  V30 4281 H 395.55 -0.737697 0.117525 0
M  V30 4282 H 398.212 -1.68359 0.981895 0
M  V30 4283 H 397.308 -3.09547 0.398353 0
M  V30 4284 N 397.609 -0.515225 -1.4894 0
M  V30 4285 C 398.856 0.024215 -2.02486 0
M  V30 4286 C 399.184 1.35671 -1.39368 0
M  V30 4287 O 398.439 1.88566 -0.523574 0
M  V30 4288 C 398.738 0.210595 -3.56779 0
M  V30 4289 C 398.404 -1.04569 -4.38607 0
M  V30 4290 C 397.066 -1.39002 -4.60686 0
M  V30 4291 C 399.418 -1.88008 -4.86109 0
M  V30 4292 C 396.746 -2.568 -5.27514 0
M  V30 4293 C 399.098 -3.04972 -5.54234 0
M  V30 4294 C 397.762 -3.39768 -5.74555 0
M  V30 4295 H 397.032 0.00886088 -0.740947 0
M  V30 4296 H 399.679 -0.678263 -1.79086 0
M  V30 4297 H 397.984 0.99572 -3.78936 0
M  V30 4298 H 399.681 0.642659 -3.95817 0
M  V30 4299 H 396.271 -0.767497 -4.21672 0
M  V30 4300 H 400.455 -1.62719 -4.68867 0
M  V30 4301 H 395.711 -2.8398 -5.41447 0
M  V30 4302 H 399.885 -3.69943 -5.90013 0
M  V30 4303 H 397.512 -4.31148 -6.26112 0
M  V30 4304 N 399.087 1.5561 -0.249682 0
M  V30 4305 C 400.019 2.18834 0.681496 0
M  V30 4306 C 401.032 1.16546 1.1367 0
M  V30 4307 O 402.221 1.43397 1.06299 0
M  V30 4308 C 399.321 2.77992 1.9384 0
M  V30 4309 C 398.494 4.05725 1.63419 0
M  V30 4310 C 397.553 4.49174 2.74096 0
M  V30 4311 O 396.579 5.15492 2.41364 0
M  V30 4312 N 397.781 4.17191 4.03649 0
M  V30 4313 H 400.546 2.9937 0.140514 0
M  V30 4314 H 398.107 1.6175 -0.0697541 0
M  V30 4315 H 400.099 3.04015 2.67127 0
M  V30 4316 H 398.669 2.01596 2.38909 0
M  V30 4317 H 397.889 3.87261 0.736358 0
M  V30 4318 H 399.177 4.88999 1.40562 0
M  V30 4319 H 398.575 3.63955 4.33074 0
M  V30 4320 H 397.132 4.48043 4.73393 0
M  V30 4321 N 400.565 -0.0233959 1.57583 0
M  V30 4322 C 401.814 -0.712133 1.8871 0
M  V30 4323 C 402.127 -1.76217 0.848944 0
M  V30 4324 O 403.333 -2.50389 1.04964 0
M  V30 4325 C 401.789 -1.3177 3.3491 0
M  V30 4326 C 401.397 -0.303715 4.46969 0
M  V30 4327 C 403.141 -1.98598 3.75179 0
M  V30 4328 C 401.048 -0.917945 5.84233 0
M  V30 4329 H 399.978 -0.269735 0.704101 0
M  V30 4330 H 402.629 0.0333114 1.8347 0
M  V30 4331 H 401.011 -2.11304 3.34913 0
M  V30 4332 H 402.185 0.465325 4.58445 0
M  V30 4333 H 400.5 0.2628 4.1557 0
M  V30 4334 H 403.097 -2.45416 4.75053 0
M  V30 4335 H 403.44 -2.80659 3.07468 0
M  V30 4336 H 403.973 -1.25831 3.77374 0
M  V30 4337 H 400.712 -0.136633 6.55358 0
M  V30 4338 H 400.232 -1.65669 5.76467 0
M  V30 4339 H 401.911 -1.4236 6.31144 0
M  V30 4340 N 402.043 -1.548 -0.295768 0
M  V30 4341 C 403.289 -1.74588 -1.03184 0
M  V30 4342 C 403.622 -0.532962 -1.86744 0
M  V30 4343 O 402.897 0.469872 -1.88739 0
M  V30 4344 C 403.18 -3.03791 -1.93347 0
M  V30 4345 C 403.033 -4.35392 -1.12933 0
M  V30 4346 C 404.352 -3.28892 -2.92435 0
M  V30 4347 H 401.471 -0.635221 -0.373715 0
M  V30 4348 H 404.113 -1.87519 -0.30606 0
M  V30 4349 H 402.263 -2.92898 -2.55232 0
M  V30 4350 H 403.935 -4.58211 -0.532943 0
M  V30 4351 H 402.178 -4.31642 -0.432168 0
M  V30 4352 H 402.849 -5.22074 -1.79284 0
M  V30 4353 H 405.325 -3.39429 -2.4068 0
M  V30 4354 H 404.201 -4.20603 -3.52682 0
M  V30 4355 H 404.462 -2.47437 -3.6637 0
M  V30 4356 N 403.521 0.559213 -1.47345 0
M  V30 4357 C 404.469 1.68747 -1.60085 0
M  V30 4358 C 405.463 1.628 -0.46825 0
M  V30 4359 O 406.669 1.68009 -0.645977 0
M  V30 4360 H 403.044 0.558329 -0.503759 0
M  V30 4361 H 405.015 1.55138 -2.54902 0
M  V30 4362 C 403.764 3.07103 -1.63042 0
M  V30 4363 H 403.087 3.12361 -2.49541 0
M  V30 4364 H 404.527 3.85743 -1.76006 0
M  V30 4365 C 402.986 3.34935 -0.363357 0
M  V30 4366 O 403.516 3.98102 0.536416 0
M  V30 4367 N 401.722 2.89574 -0.244 0
M  V30 4368 H 401.269 2.38348 -0.977133 0
M  V30 4369 H 401.227 3.08566 0.602836 0
M  V30 4370 N 404.999 1.35443 0.805782 0
M  V30 4371 C 405.947 1.28465 1.93906 0
M  V30 4372 C 406.941 0.17943 1.68447 0
M  V30 4373 O 408.147 0.345459 1.76654 0
M  V30 4374 H 404.522 0.399528 0.637088 0
M  V30 4375 H 406.493 2.24206 1.96912 0
M  V30 4376 C 405.242 1.07432 3.30687 0
M  V30 4377 H 404.565 1.91716 3.50835 0
M  V30 4378 H 406.005 1.06591 4.10383 0
M  V30 4379 C 404.464 -0.22179 3.36169 0
M  V30 4380 O 404.994 -1.21731 3.82811 0
M  V30 4381 N 403.2 -0.260841 2.89427 0
M  V30 4382 H 402.747 0.549884 2.51663 0
M  V30 4383 H 402.705 -1.12777 2.93477 0
M  V30 4384 N 406.477 -1.02803 1.19454 0
M  V30 4385 C 407.387 -2.14575 0.948408 0
M  V30 4386 C 408.403 -1.73757 -0.091871 0
M  V30 4387 O 409.579 -2.01185 0.0929654 0
M  V30 4388 C 406.644 -3.43202 0.491265 0
M  V30 4389 C 405.705 -3.98328 1.60103 0
M  V30 4390 C 404.938 -5.20816 1.16561 0
M  V30 4391 O 405.161 -5.70392 0.0295238 0
M  V30 4392 O 404.095 -5.68801 1.96849 0
M  V30 4393 H 407.921 -2.38202 1.88397 0
M  V30 4394 H 405.506 -1.12989 0.977433 0
M  V30 4395 H 407.388 -4.20687 0.245015 0
M  V30 4396 H 406.063 -3.21018 -0.415851 0
M  V30 4397 H 404.97 -3.22174 1.90144 0
M  V30 4398 H 406.303 -4.24879 2.48473 0
M  V30 4399 N 407.956 -0.998596 -1.21925 0
M  V30 4400 C 408.904 -0.546641 -2.26085 0
M  V30 4401 C 409.898 0.405576 -1.64473 0
M  V30 4402 O 411.104 0.277471 -1.77849 0
M  V30 4403 H 407.479 -0.158403 -0.735127 0
M  V30 4404 H 409.45 -1.43645 -2.61551 0
M  V30 4405 C 408.199 0.117388 -3.47502 0
M  V30 4406 H 407.522 -0.606277 -3.95176 0
M  V30 4407 H 408.962 0.396993 -4.22137 0
M  V30 4408 C 407.421 1.35455 -3.0847 0
M  V30 4409 O 407.951 2.44944 -3.18379 0
M  V30 4410 N 406.157 1.23191 -2.63196 0
M  V30 4411 H 405.704 0.341006 -2.55333 0
M  V30 4412 H 405.662 2.06071 -2.37449 0
M  V30 4413 N 409.434 1.37368 -0.772513 0
M  V30 4414 C 410.845 1.8231 -0.402493 0
M  V30 4415 C 411.196 1.6436 1.07146 0
M  V30 4416 O 410.321 1.15514 1.82991 0
M  V30 4417 C 410.916 3.30979 -0.723776 0
M  V30 4418 C 409.475 3.74195 -0.406802 0
M  V30 4419 C 408.622 2.59885 -0.967218 0
M  V30 4420 H 411.573 1.25829 -0.967099 0
M  V30 4421 H 411.594 3.80499 -0.00870832 0
M  V30 4422 H 411.106 3.44011 -1.7966 0
M  V30 4423 H 409.207 3.66732 0.658673 0
M  V30 4424 H 409.32 4.7027 -0.915588 0
M  V30 4425 H 407.684 2.51674 -0.391416 0
M  V30 4426 H 408.467 2.7571 -2.04546 0
M  V30 4427 N 410.912 0.523116 1.48665 0
M  V30 4428 C 411.845 -0.290518 2.26343 0
M  V30 4429 C 412.823 -0.950913 1.31895 0
M  V30 4430 O 414.007 -0.976662 1.61225 0
M  V30 4431 C 411.134 -1.41088 3.07915 0
M  V30 4432 C 410.18 -0.862597 4.17686 0
M  V30 4433 S 411.013 0.264135 5.34848 0
M  V30 4434 C 412.169 -0.858864 6.19979 0
M  V30 4435 H 412.402 0.368726 2.95005 0
M  V30 4436 H 409.935 0.30878 1.51281 0
M  V30 4437 H 411.893 -2.0527 3.55492 0
M  V30 4438 H 410.554 -2.04182 2.38681 0
M  V30 4439 H 409.747 -1.70287 4.74361 0
M  V30 4440 H 409.349 -0.297595 3.72814 0
M  V30 4441 H 411.641 -1.7591 6.54264 0
M  V30 4442 H 412.584 -0.330244 7.07329 0
M  V30 4443 H 412.992 -1.13617 5.52948 0
M  V30 4444 N 412.39 -1.55475 0.257931 0
M  V30 4445 C 413.636 -1.99502 -0.364266 0
M  V30 4446 C 413.969 -1.146 -1.56782 0
M  V30 4447 O 413.244 -0.211968 -1.93342 0
M  V30 4448 C 413.527 -3.51917 -0.763333 0
M  V30 4449 C 413.38 -4.4758 0.446371 0
M  V30 4450 C 414.699 -4.09742 -1.60623 0
M  V30 4451 H 411.818 -0.725277 -0.130929 0
M  V30 4452 H 414.46 -1.8653 0.361446 0
M  V30 4453 H 412.61 -3.63101 -1.38166 0
M  V30 4454 H 414.282 -4.48362 1.08487 0
M  V30 4455 H 412.525 -4.19947 1.08753 0
M  V30 4456 H 413.196 -5.51862 0.123645 0
M  V30 4457 H 415.672 -4.01727 -1.08418 0
M  V30 4458 H 414.548 -5.16631 -1.85429 0
M  V30 4459 H 414.809 -3.58889 -2.58169 0
M  V30 4460 N 413.868 0.0150385 -1.57593 0
M  V30 4461 C 414.8 1.03912 -2.04291 0
M  V30 4462 C 415.813 1.31618 -0.958146 0
M  V30 4463 O 417.002 1.28859 -1.23522 0
M  V30 4464 C 414.102 2.37749 -2.41514 0
M  V30 4465 C 413.275 2.29198 -3.72541 0
M  V30 4466 C 412.334 3.45598 -3.96797 0
M  V30 4467 O 411.36 3.24461 -4.67668 0
M  V30 4468 N 412.562 4.67945 -3.43523 0
M  V30 4469 H 415.327 0.64099 -2.92765 0
M  V30 4470 H 412.888 0.20272 -1.60626 0
M  V30 4471 H 414.88 3.14364 -2.54867 0
M  V30 4472 H 413.45 2.69357 -1.58637 0
M  V30 4473 H 412.67 1.3759 -3.69408 0
M  V30 4474 H 413.958 2.20642 -4.5847 0
M  V30 4475 H 413.356 4.88017 -2.86104 0
M  V30 4476 H 411.913 5.41878 -3.62232 0
M  V30 4477 N 415.346 1.54954 0.287554 0
M  V30 4478 C 416.278 1.83224 1.37701 0
M  V30 4479 C 417.291 0.715898 1.46215 0
M  V30 4480 O 418.48 0.993565 1.48292 0
M  V30 4481 C 415.58 1.96723 2.75959 0
M  V30 4482 C 414.753 3.27253 2.90215 0
M  V30 4483 C 413.812 3.30998 4.09056 0
M  V30 4484 O 412.838 4.04457 4.00503 0
M  V30 4485 N 414.04 2.57353 5.20336 0
M  V30 4486 H 416.805 2.77254 1.138 0
M  V30 4487 H 414.366 1.54694 0.477652 0
M  V30 4488 H 416.358 1.96615 3.5373 0
M  V30 4489 H 414.928 1.09626 2.92747 0
M  V30 4490 H 414.148 3.40022 1.99447 0
M  V30 4491 H 415.436 4.13365 2.96659 0
M  V30 4492 H 414.834 1.97327 5.30169 0
M  V30 4493 H 413.391 2.62984 5.96391 0
M  V30 4494 N 416.824 -0.551391 1.4764 0
M  V30 4495 C 418.071 -1.3083 1.54563 0
M  V30 4496 C 418.399 -1.93359 0.210361 0
M  V30 4497 O 417.654 -1.78721 -0.797332 0
M  V30 4498 C 417.953 -2.43469 2.61644 0
M  V30 4499 C 417.619 -1.98732 4.04742 0
M  V30 4500 C 416.281 -1.86248 4.43695 0
M  V30 4501 C 418.633 -1.64659 4.94507 0
M  V30 4502 C 415.961 -1.37995 5.70241 0
M  V30 4503 C 418.313 -1.17875 6.21521 0
M  V30 4504 C 416.977 -1.03992 6.5935 0
M  V30 4505 H 416.247 -0.478741 0.565587 0
M  V30 4506 H 418.894 -0.617697 1.81264 0
M  V30 4507 H 417.199 -3.18109 2.28722 0
M  V30 4508 H 418.896 -3.01642 2.64222 0
M  V30 4509 H 415.486 -2.09393 3.73968 0
M  V30 4510 H 419.67 -1.73174 4.65107 0
M  V30 4511 H 414.926 -1.25915 5.98294 0
M  V30 4512 H 419.1 -0.905739 6.90485 0
M  V30 4513 H 416.727 -0.663794 7.57296 0
M  V30 4514 N 418.302 -1.35869 -0.798587 0
M  V30 4515 C 419.551 -1.28921 -1.5512 0
M  V30 4516 C 419.864 0.13208 -1.95154 0
M  V30 4517 O 421.07 0.323879 -2.69561 0
M  V30 4518 C 419.526 -2.26141 -2.79979 0
M  V30 4519 C 419.134 -3.73658 -2.47151 0
M  V30 4520 C 420.878 -2.28152 -3.57976 0
M  V30 4521 C 418.785 -4.62679 -3.6835 0
M  V30 4522 H 417.715 -0.479031 -0.582276 0
M  V30 4523 H 420.366 -1.61179 -0.877125 0
M  V30 4524 H 418.748 -1.86865 -3.49138 0
M  V30 4525 H 419.922 -4.21616 -1.85947 0
M  V30 4526 H 418.237 -3.74333 -1.82383 0
M  V30 4527 H 420.834 -2.91875 -4.4801 0
M  V30 4528 H 421.177 -1.28748 -3.95891 0
M  V30 4529 H 421.71 -2.65998 -2.95787 0
M  V30 4530 H 418.449 -5.63111 -3.35538 0
M  V30 4531 H 417.969 -4.19442 -4.28752 0
M  V30 4532 H 419.648 -4.78498 -4.35487 0
M  V30 4533 N 419.78 1.02168 -1.19998 0
M  V30 4534 C 420.712 2.10705 -0.901994 0
M  V30 4535 C 421.725 1.6244 0.108216 0
M  V30 4536 O 422.914 1.78082 -0.12214 0
M  V30 4537 C 420.014 3.37291 -0.329834 0
M  V30 4538 C 419.187 4.14714 -1.39035 0
M  V30 4539 C 418.246 5.19606 -0.830432 0
M  V30 4540 O 417.272 5.48809 -1.50989 0
M  V30 4541 N 418.474 5.79366 0.362696 0
M  V30 4542 H 421.239 2.36856 -1.83628 0
M  V30 4543 H 418.8 1.18518 -1.10296 0
M  V30 4544 H 420.792 4.04657 0.0587633 0
M  V30 4545 H 419.362 3.0843 0.508891 0
M  V30 4546 H 418.582 3.42392 -1.9535 0
M  V30 4547 H 419.87 4.63226 -2.10474 0
M  V30 4548 H 419.268 5.57968 0.932081 0
M  V30 4549 H 417.825 6.48106 0.69299 0
M  V30 4550 N 421.258 1.00505 1.21394 0
M  V30 4551 C 422.674 0.717873 1.42544 0
M  V30 4552 C 422.874 -0.706936 1.88692 0
M  V30 4553 O 421.93 -1.47627 2.04847 0
M  V30 4554 C 423.243 1.73377 2.45684 0
M  V30 4555 C 424.791 1.75059 2.59467 0
M  V30 4556 C 425.266 2.75545 3.6584 0
M  V30 4557 N 426.757 2.74213 3.73311 0
M  V30 4558 C 427.492 3.48626 4.55245 0
M  V30 4559 N 426.988 4.32678 5.41075 0
M  V30 4560 N 428.781 3.37276 4.49668 0
M  V30 4561 H 420.932 1.92506 0.897503 0
M  V30 4562 H 423.195 0.830919 0.456375 0
M  V30 4563 H 422.901 2.75395 2.18748 0
M  V30 4564 H 422.775 1.53647 3.44489 0
M  V30 4565 H 425.162 0.737337 2.8574 0
M  V30 4566 H 425.243 1.98861 1.60897 0
M  V30 4567 H 424.887 3.77028 3.40313 0
M  V30 4568 H 424.817 2.49009 4.64007 0
M  V30 4569 H 427.308 2.13234 3.11993 0
M  V30 4570 H 427.621 4.86253 6.00648 0
M  V30 4571 H 425.966 4.3676 5.40616 0
M  V30 4572 H 429.157 2.71043 3.81646 0
M  V30 4573 H 429.33 3.95524 5.13288 0
M  V30 4574 N 422.737 -1.36956 0.779787 0
M  V30 4575 C 423.983 -2.00237 0.357324 0
M  V30 4576 C 424.338 -1.60787 -1.05666 0
M  V30 4577 O 423.631 -0.847836 -1.71821 0
M  V30 4578 C 423.825 -3.54585 0.447686 0
M  V30 4579 C 423.654 -4.09025 1.86891 0
M  V30 4580 C 422.424 -4.39612 2.49138 0
M  V30 4581 C 424.622 -4.29461 2.82963 0
M  V30 4582 N 422.604 -4.79816 3.82949 0
M  V30 4583 C 423.975 -4.72363 4.01588 0
M  V30 4584 C 426.03 -4.1161 2.80145 0
M  V30 4585 C 424.733 -4.99284 5.17791 0
M  V30 4586 C 426.759 -4.39672 3.95528 0
M  V30 4587 C 426.121 -4.82822 5.12896 0
M  V30 4588 H 422.22 -0.76148 0.177968 0
M  V30 4589 H 424.804 -1.6613 1.01533 0
M  V30 4590 H 422.975 -3.87982 -0.180184 0
M  V30 4591 H 424.707 -4.047 0.0023955 0
M  V30 4592 H 421.462 -4.28975 2.00693 0
M  V30 4593 H 421.886 -5.04216 4.51769 0
M  V30 4594 H 426.528 -3.77415 1.90572 0
M  V30 4595 H 424.246 -5.32365 6.07958 0
M  V30 4596 H 427.832 -4.27441 3.94697 0
M  V30 4597 H 426.712 -5.04118 6.00695 0
M  V30 4598 N 424.215 -0.530993 -1.48385 0
M  V30 4599 C 425.461 0.00274135 -2.028 0
M  V30 4600 C 425.794 1.33838 -1.40716 0
M  V30 4601 O 425.069 1.86465 -0.553277 0
M  V30 4602 C 425.352 0.123676 -3.59888 0
M  V30 4603 C 425.205 -1.2372 -4.3245 0
M  V30 4604 C 426.524 0.849967 -4.31814 0
M  V30 4605 H 423.643 -0.000477758 -0.737 0
M  V30 4606 H 426.285 -0.688217 -1.77098 0
M  V30 4607 H 424.435 0.712157 -3.81917 0
M  V30 4608 H 426.107 -1.86687 -4.21836 0
M  V30 4609 H 424.35 -1.81882 -3.93829 0
M  V30 4610 H 425.021 -1.10557 -5.40815 0
M  V30 4611 H 427.497 0.350572 -4.14621 0
M  V30 4612 H 426.373 0.903486 -5.41413 0
M  V30 4613 H 426.634 1.90047 -3.99167 0
M  V30 4614 N 425.693 1.55336 -0.266172 0
M  V30 4615 C 427.109 1.59356 0.0882065 0
M  V30 4616 C 427.309 1.2834 1.55342 0
M  V30 4617 O 426.365 1.03996 2.30089 0
M  V30 4618 C 427.678 2.99409 -0.278364 0
M  V30 4619 C 429.226 3.12196 -0.224243 0
M  V30 4620 C 429.701 4.545 -0.565123 0
M  V30 4621 N 431.192 4.60313 -0.51634 0
M  V30 4622 C 431.927 5.68434 -0.753013 0
M  V30 4623 N 431.423 6.84738 -1.05383 0
M  V30 4624 N 433.216 5.57942 -0.682414 0
M  V30 4625 H 425.367 1.73764 -1.22147 0
M  V30 4626 H 427.63 0.809822 -0.492841 0
M  V30 4627 H 427.336 3.2691 -1.29703 0
M  V30 4628 H 427.21 3.75228 0.385186 0
M  V30 4629 H 429.597 2.84464 0.78512 0
M  V30 4630 H 429.678 2.38609 -0.921922 0
M  V30 4631 H 429.322 4.82956 -1.57213 0
M  V30 4632 H 429.252 5.26374 0.154248 0
M  V30 4633 H 431.743 3.7676 -0.29335 0
M  V30 4634 H 432.056 7.63088 -1.22133 0
M  V30 4635 H 430.401 6.86375 -1.09151 0
M  V30 4636 H 433.592 4.65958 -0.44731 0
M  V30 4637 H 433.765 6.4213 -0.870248 0
M  V30 4638 N 427.171 -0.0066808 1.57599 0
M  V30 4639 C 428.101 -0.999296 2.11036 0
M  V30 4640 C 429.082 -1.36278 1.01795 0
M  V30 4641 O 430.267 -1.4477 1.29442 0
M  V30 4642 C 427.397 -2.29328 2.60818 0
M  V30 4643 C 426.351 -2.07159 3.74525 0
M  V30 4644 C 425.677 -3.42512 4.10596 0
M  V30 4645 C 426.977 -1.43959 5.02069 0
M  V30 4646 H 428.671 -0.554382 2.94223 0
M  V30 4647 H 426.217 -0.265221 1.41536 0
M  V30 4648 H 428.17 -2.99117 2.96828 0
M  V30 4649 H 426.894 -2.7592 1.74745 0
M  V30 4650 H 425.553 -1.39797 3.38899 0
M  V30 4651 H 425.201 -3.86795 3.21556 0
M  V30 4652 H 424.901 -3.28498 4.87199 0
M  V30 4653 H 426.425 -4.13628 4.4916 0
M  V30 4654 H 427.839 -2.03696 5.35893 0
M  V30 4655 H 426.236 -1.40452 5.83432 0
M  V30 4656 H 427.306 -0.407992 4.83181 0
M  V30 4657 N 428.649 -1.55105 -0.279332 0
M  V30 4658 C 429.926 -1.66119 -1.03267 0
M  V30 4659 C 430.306 -0.523525 -2.04505 0
M  V30 4660 O 429.654 0.477194 -2.23462 0
M  V30 4661 C 429.864 -3.05067 -1.69515 0
M  V30 4662 C 431.212 -3.62606 -2.20912 0
M  V30 4663 O 432.236 -3.07659 -1.79512 0
M  V30 4664 O 431.095 -4.58861 -2.96831 0
M  V30 4665 H 428.189 -0.674429 -0.478618 0
M  V30 4666 H 430.735 -1.67446 -0.275694 0
M  V30 4667 H 429.507 -3.79311 -0.9612 0
M  V30 4668 H 429.13 -3.07611 -2.51915 0
M  V30 4669 N 430.127 0.543554 -1.4793 0
M  V30 4670 C 431.037 1.67657 -1.64098 0
M  V30 4671 C 432.053 1.65934 -0.523622 0
M  V30 4672 O 433.229 1.85133 -0.792943 0
M  V30 4673 C 430.294 3.04146 -1.66421 0
M  V30 4674 C 429.355 3.16831 -2.89684 0
M  V30 4675 C 428.588 4.46809 -2.91886 0
M  V30 4676 O 428.811 5.33095 -2.02895 0
M  V30 4677 O 427.745 4.63573 -3.83906 0
M  V30 4678 H 431.571 1.56957 -2.59997 0
M  V30 4679 H 429.156 0.715116 -1.31173 0
M  V30 4680 H 431.038 3.85346 -1.70548 0
M  V30 4681 H 429.713 3.152 -0.736923 0
M  V30 4682 H 428.62 2.34977 -2.91095 0
M  V30 4683 H 429.953 3.10687 -3.81752 0
M  V30 4684 N 431.605 1.3629 0.791371 0
M  V30 4685 C 433.021 1.16661 1.08914 0
M  V30 4686 C 433.221 -0.0106266 2.01497 0
M  V30 4687 O 432.277 -0.676596 2.43266 0
M  V30 4688 C 433.59 2.47656 1.70549 0
M  V30 4689 C 435.138 2.54002 1.82899 0
M  V30 4690 C 435.613 3.85078 2.47949 0
M  V30 4691 N 437.104 3.86413 2.5542 0
M  V30 4692 C 437.839 4.84572 3.06557 0
M  V30 4693 N 437.335 5.93124 3.58016 0
M  V30 4694 N 439.128 4.71994 3.05251 0
M  V30 4695 H 431.279 2.11668 0.176238 0
M  V30 4696 H 433.542 0.937486 0.140796 0
M  V30 4697 H 433.248 3.34059 1.09989 0
M  V30 4698 H 433.122 2.63319 2.70079 0
M  V30 4699 H 435.509 1.68018 2.42598 0
M  V30 4700 H 435.59 2.42239 0.821808 0
M  V30 4701 H 435.234 4.71467 1.88895 0
M  V30 4702 H 435.164 3.94135 3.49235 0
M  V30 4703 H 437.655 3.07988 2.18979 0
M  V30 4704 H 437.968 6.63999 3.95381 0
M  V30 4705 H 436.313 5.96796 3.56173 0
M  V30 4706 H 439.504 3.86321 2.64336 0
M  V30 4707 H 439.677 5.48653 3.44796 0
M  V30 4708 N 433.083 -1.0153 1.20538 0
M  V30 4709 C 433.993 -2.13557 0.971113 0
M  V30 4710 C 435.009 -1.73845 -0.0734366 0
M  V30 4711 O 436.185 -2.01075 0.114299 0
M  V30 4712 C 433.25 -3.42661 0.527639 0
M  V30 4713 C 432.311 -3.96608 1.64319 0
M  V30 4714 C 431.544 -5.1955 1.22078 0
M  V30 4715 O 431.767 -5.70329 0.0900198 0
M  V30 4716 O 430.701 -5.66681 2.02871 0
M  V30 4717 H 434.527 -2.3619 1.90913 0
M  V30 4718 H 432.112 -1.11946 0.989362 0
M  V30 4719 H 433.994 -4.20404 0.289621 0
M  V30 4720 H 432.669 -3.21441 -0.381779 0
M  V30 4721 H 431.576 -3.20139 1.93551 0
M  V30 4722 H 432.909 -4.22219 2.52966 0
M  V30 4723 N 434.561 -1.01147 -1.20859 0
M  V30 4724 C 435.808 -0.697865 -1.90095 0
M  V30 4725 C 436.136 0.772014 -1.78522 0
M  V30 4726 O 435.391 1.57595 -1.16027 0
M  V30 4727 C 435.69 -1.0727 -3.40922 0
M  V30 4728 C 435.356 -2.53792 -3.72693 0
M  V30 4729 C 434.018 -2.93829 -3.81075 0
M  V30 4730 C 436.37 -3.48674 -3.87397 0
M  V30 4731 C 433.698 -4.27696 -4.01613 0
M  V30 4732 C 436.05 -4.82223 -4.09444 0
M  V30 4733 C 434.714 -5.21973 -4.16054 0
M  V30 4734 H 433.984 -0.255367 -0.695607 0
M  V30 4735 H 436.631 -1.27111 -1.43231 0
M  V30 4736 H 434.936 -0.417799 -3.89566 0
M  V30 4737 H 436.633 -0.807818 -3.92779 0
M  V30 4738 H 433.223 -2.21768 -3.66765 0
M  V30 4739 H 437.407 -3.18904 -3.80281 0
M  V30 4740 H 432.663 -4.58055 -4.04964 0
M  V30 4741 H 436.837 -5.55672 -4.19763 0
M  V30 4742 H 434.464 -6.25717 -4.31721 0
M  V30 4743 N 436.039 1.36541 -0.78704 0
M  V30 4744 C 437.45 1.81873 -0.421807 0
M  V30 4745 C 437.801 1.65487 1.05397 0
M  V30 4746 O 436.926 1.17448 1.81755 0
M  V30 4747 C 437.521 3.30192 -0.758841 0
M  V30 4748 C 436.08 3.73743 -0.446468 0
M  V30 4749 C 435.227 2.58844 -0.994728 0
M  V30 4750 H 438.178 1.24796 -0.98039 0
M  V30 4751 H 438.199 3.80468 -0.0490648 0
M  V30 4752 H 437.711 3.42087 -1.83299 0
M  V30 4753 H 435.812 3.6741 0.619739 0
M  V30 4754 H 435.925 4.69272 -0.965415 0
M  V30 4755 H 434.289 2.51245 -0.418087 0
M  V30 4756 H 435.072 2.73525 -2.07458 0
M  V30 4757 N 437.518 0.538854 1.48102 0
M  V30 4758 C 438.428 -0.222648 2.33541 0
M  V30 4759 C 439.444 -0.930225 1.47047 0
M  V30 4760 O 440.62 -0.903211 1.80011 0
M  V30 4761 C 437.685 -1.25064 3.23357 0
M  V30 4762 C 436.746 -0.552469 4.2573 0
M  V30 4763 C 435.979 -1.53149 5.11254 0
M  V30 4764 O 436.202 -2.76487 4.9891 0
M  V30 4765 O 435.136 -1.06602 5.92385 0
M  V30 4766 H 438.962 0.477707 2.99919 0
M  V30 4767 H 436.547 0.299669 1.46364 0
M  V30 4768 H 438.429 -1.8445 3.78888 0
M  V30 4769 H 437.104 -1.93325 2.59629 0
M  V30 4770 H 436.011 0.082114 3.7401 0
M  V30 4771 H 437.344 0.0883526 4.92121 0
M  V30 4772 N 438.996 -1.55193 0.274407 0
M  V30 4773 C 439.959 -2.212 -0.600279 0
M  V30 4774 C 440.959 -1.18963 -1.08187 0
M  V30 4775 O 442.149 -1.43873 -0.982158 0
M  V30 4776 C 439.281 -2.87739 -1.82809 0
M  V30 4777 H 440.474 -2.9989 -0.0239682 0
M  V30 4778 H 438.027 -1.5628 0.0250192 0
M  V30 4779 H 438.762 -2.13058 -2.44493 0
M  V30 4780 H 438.547 -3.62658 -1.49069 0
M  V30 4781 H 440.037 -3.38171 -2.45011 0
M  V30 4782 N 440.474 -0.00167713 -1.576 0
M  V30 4783 C 441.421 0.989195 -2.08527 0
M  V30 4784 C 442.391 1.34031 -0.981065 0
M  V30 4785 O 443.576 1.43839 -1.2536 0
M  V30 4786 C 440.716 2.27537 -2.59463 0
M  V30 4787 C 439.829 1.98314 -3.83791 0
M  V30 4788 C 438.964 3.21025 -4.23222 0
M  V30 4789 C 438.003 2.87495 -5.40382 0
M  V30 4790 N 437.14 4.02749 -5.75098 0
M  V30 4791 H 441.98 0.547973 -2.92919 0
M  V30 4792 H 439.517 0.258917 -1.44803 0
M  V30 4793 H 441.475 3.02729 -2.87073 0
M  V30 4794 H 440.105 2.69325 -1.77943 0
M  V30 4795 H 439.157 1.13482 -3.63078 0
M  V30 4796 H 440.469 1.69601 -4.69081 0
M  V30 4797 H 439.623 4.04561 -4.52123 0
M  V30 4798 H 438.362 3.52877 -3.36644 0
M  V30 4799 H 437.367 2.02367 -5.11202 0
M  V30 4800 H 438.592 2.56889 -6.28637 0
M  V30 4801 H 436.538 4.34494 -4.91478 0
M  V30 4802 H 436.455 3.77566 -6.54966 0
M  V30 4803 H 437.723 4.87068 -6.08592 0
M  V30 4804 N 441.952 1.55251 0.271103 0
M  V30 4805 C 442.9 1.89054 1.35504 0
M  V30 4806 C 443.894 0.767064 1.51038 0
M  V30 4807 O 445.1 0.951429 1.528 0
M  V30 4808 H 441.475 0.600072 0.45323 0
M  V30 4809 H 443.446 2.79598 1.04247 0
M  V30 4810 C 442.195 2.18068 2.70817 0
M  V30 4811 H 441.518 3.04005 2.59656 0
M  V30 4812 H 442.958 2.4564 3.45597 0
M  V30 4813 C 441.417 0.988901 3.2206 0
M  V30 4814 O 441.947 0.224501 4.01072 0
M  V30 4815 N 440.153 0.786085 2.79766 0
M  V30 4816 H 439.7 1.40937 2.15626 0
M  V30 4817 H 439.658 -0.00969349 3.14399 0
M  V30 4818 N 443.43 -0.535701 1.48216 0
M  V30 4819 C 444.393 -1.623 1.61838 0
M  V30 4820 C 445.393 -1.53087 0.492024 0
M  V30 4821 O 446.583 -1.5686 0.757668 0
M  V30 4822 C 443.715 -3.01907 1.58319 0
M  V30 4823 H 444.908 -1.51564 2.58783 0
M  V30 4824 H 442.461 -0.757317 1.36727 0
M  V30 4825 H 443.196 -3.18155 0.628299 0
M  V30 4826 H 442.981 -3.10003 2.40085 0
M  V30 4827 H 444.471 -3.80969 1.71033 0
M  V30 4828 N 444.908 -1.36708 -0.784132 0
M  V30 4829 C 446.319 -1.27947 -1.35965 0
M  V30 4830 C 446.67 0.0784013 -1.96043 0
M  V30 4831 O 445.795 0.979989 -1.92938 0
M  V30 4832 C 446.39 -2.31689 -2.47195 0
M  V30 4833 C 444.949 -2.26601 -3.00548 0
M  V30 4834 C 444.096 -2.16184 -1.73666 0
M  V30 4835 H 447.047 -1.4751 -0.585358 0
M  V30 4836 H 447.068 -1.95638 -3.26352 0
M  V30 4837 H 446.58 -3.30506 -2.03439 0
M  V30 4838 H 444.681 -1.31268 -3.48711 0
M  V30 4839 H 444.794 -3.19508 -3.57004 0
M  V30 4840 H 443.158 -1.62524 -1.96107 0
M  V30 4841 H 443.941 -3.16896 -1.32031 0
M  V30 4842 N 446.386 1.0089 -1.21074 0
M  V30 4843 C 447.316 2.1145 -0.990523 0
M  V30 4844 C 448.297 1.69897 0.0831699 0
M  V30 4845 O 449.482 1.94052 -0.0758853 0
M  V30 4846 C 446.612 3.42914 -0.550177 0
M  V30 4847 C 445.566 3.98244 -1.56799 0
M  V30 4848 C 444.892 5.25568 -0.984013 0
M  V30 4849 C 446.192 4.30752 -2.95381 0
M  V30 4850 H 447.886 2.3013 -1.91521 0
M  V30 4851 H 445.432 1.10592 -0.92225 0
M  V30 4852 H 447.385 4.19653 -0.383305 0
M  V30 4853 H 446.109 3.24014 0.41015 0
M  V30 4854 H 444.768 3.23621 -1.72236 0
M  V30 4855 H 444.416 5.02998 -0.0155216 0
M  V30 4856 H 444.116 5.63551 -1.66384 0
M  V30 4857 H 445.64 6.04955 -0.828378 0
M  V30 4858 H 447.054 4.98349 -2.8341 0
M  V30 4859 H 445.451 4.79869 -3.60341 0
M  V30 4860 H 446.521 3.39192 -3.46521 0
M  V30 4861 N 447.864 1.01787 1.20321 0
M  V30 4862 C 448.811 0.589197 2.23153 0
M  V30 4863 C 449.781 -0.391367 1.61423 0
M  V30 4864 O 450.966 -0.290518 1.88575 0
M  V30 4865 C 448.106 -0.0650747 3.45039 0
M  V30 4866 C 447.219 0.960207 4.21194 0
M  V30 4867 C 446.354 0.276854 5.30478 0
M  V30 4868 C 445.393 1.2888 5.98378 0
M  V30 4869 N 444.53 0.632031 6.99249 0
M  V30 4870 H 449.37 1.47071 2.59179 0
M  V30 4871 H 446.907 0.736192 1.27352 0
M  V30 4872 H 448.865 -0.461552 4.14639 0
M  V30 4873 H 447.495 -0.910233 3.09701 0
M  V30 4874 H 446.547 1.47484 3.50646 0
M  V30 4875 H 447.859 1.72977 4.67847 0
M  V30 4876 H 447.013 -0.175056 6.06447 0
M  V30 4877 H 445.752 -0.525004 4.84866 0
M  V30 4878 H 444.757 1.75109 5.21169 0
M  V30 4879 H 445.982 2.09196 6.46076 0
M  V30 4880 H 443.928 -0.149935 6.55829 0
M  V30 4881 H 443.845 1.33964 7.44036 0
M  V30 4882 H 445.113 0.203755 7.79234 0
M  V30 4883 N 449.342 -1.36122 0.79427 0
M  V30 4884 C 450.572 -2.03067 0.380437 0
M  V30 4885 C 450.98 -1.60018 -1.00949 0
M  V30 4886 O 450.323 -0.787425 -1.65968 0
M  V30 4887 C 450.385 -3.57587 0.37034 0
M  V30 4888 C 450.049 -4.23855 1.70867 0
M  V30 4889 C 451.046 -4.46404 2.66496 0
M  V30 4890 C 448.731 -4.61229 1.9893 0
M  V30 4891 C 450.725 -5.05412 3.88378 0
M  V30 4892 C 448.412 -5.19953 3.21079 0
M  V30 4893 C 449.41 -5.41985 4.15621 0
M  V30 4894 O 449.098 -5.99475 5.35616 0
M  V30 4895 H 448.83 -0.658168 0.154243 0
M  V30 4896 H 451.384 -1.7498 1.0757 0
M  V30 4897 H 449.614 -3.84814 -0.381444 0
M  V30 4898 H 451.303 -4.05895 -0.0194894 0
M  V30 4899 H 452.069 -4.17921 2.46103 0
M  V30 4900 H 447.948 -4.43402 1.26158 0
M  V30 4901 H 451.492 -5.22524 4.62185 0
M  V30 4902 H 447.389 -5.47862 3.41347 0
M  V30 4903 H 448.157 -6.17937 5.36745 0
M  V30 4904 N 450.82 -0.546701 -1.47814 0
M  V30 4905 C 452.048 -0.0232857 -2.06887 0
M  V30 4906 C 452.463 1.26571 -1.4009 0
M  V30 4907 O 451.82 1.7569 -0.493906 0
M  V30 4908 C 451.871 0.186975 -3.61016 0
M  V30 4909 O 451.592 -1.05097 -4.25307 0
M  V30 4910 C 453.093 0.748872 -4.36929 0
M  V30 4911 H 450.313 -0.0410763 -0.669742 0
M  V30 4912 H 452.857 -0.757117 -1.89968 0
M  V30 4913 H 451.012 0.870903 -3.77484 0
M  V30 4914 H 451.426 -0.842121 -5.17695 0
M  V30 4915 H 452.9 0.845334 -5.45489 0
M  V30 4916 H 453.377 1.75772 -4.02493 0
M  V30 4917 H 453.983 0.100979 -4.2518 0
M  V30 4918 N 452.299 1.55045 -0.282633 0
M  V30 4919 C 453.524 2.04628 0.337977 0
M  V30 4920 C 453.949 1.15937 1.48123 0
M  V30 4921 O 453.307 0.159532 1.80597 0
M  V30 4922 C 453.355 3.51854 0.78936 0
M  V30 4923 O 452.459 3.66236 1.89592 0
M  V30 4924 H 451.8 0.660434 0.0687261 0
M  V30 4925 H 454.33 2.00261 -0.419124 0
M  V30 4926 H 454.34 3.93361 1.08311 0
M  V30 4927 H 453.015 4.15873 -0.0470419 0
M  V30 4928 H 451.592 3.36633 1.60413 0
M  V30 4929 N 453.777 0.010035 1.57597 0
M  V30 4930 C 454.74 -0.963029 2.07986 0
M  V30 4931 C 455.74 -1.26619 0.991173 0
M  V30 4932 O 456.93 -1.2097 1.25347 0
M  V30 4933 C 454.062 -2.2851 2.52974 0
M  V30 4934 H 455.255 -0.526971 2.95234 0
M  V30 4935 H 452.808 -0.237639 1.54483 0
M  V30 4936 H 453.543 -2.76784 1.69 0
M  V30 4937 H 453.328 -2.07824 3.32493 0
M  V30 4938 H 454.818 -2.98294 2.9225 0
M  V30 4939 N 455.255 -1.55392 -0.262866 0
M  V30 4940 C 456.185 -1.91978 -1.32917 0
M  V30 4941 C 457.166 -0.7828 -1.51017 0
M  V30 4942 O 458.351 -1.04178 -1.63892 0
M  V30 4943 C 455.481 -2.20055 -2.68687 0
M  V30 4944 C 454.435 -3.35854 -2.65304 0
M  V30 4945 C 453.761 -3.49435 -4.04721 0
M  V30 4946 C 455.061 -4.71977 -2.23685 0
M  V30 4947 H 456.755 -2.81292 -1.02544 0
M  V30 4948 H 454.301 -1.3534 -0.491846 0
M  V30 4949 H 456.254 -2.44237 -3.43404 0
M  V30 4950 H 454.978 -1.27551 -3.00663 0
M  V30 4951 H 453.637 -3.11655 -1.93045 0
M  V30 4952 H 453.285 -2.54379 -4.33936 0
M  V30 4953 H 452.985 -4.27297 -4.0335 0
M  V30 4954 H 454.509 -3.7592 -4.81161 0
M  V30 4955 H 455.923 -4.95637 -2.88127 0
M  V30 4956 H 454.32 -5.52828 -2.33456 0
M  V30 4957 H 455.39 -4.70115 -1.18827 0
M  V30 4958 N 456.733 0.527833 -1.48498 0
M  V30 4959 C 457.961 1.30823 -1.6029 0
M  V30 4960 C 458.376 1.86945 -0.263974 0
M  V30 4961 O 457.733 1.6651 0.747034 0
M  V30 4962 C 457.784 2.45756 -2.65116 0
M  V30 4963 O 457.505 1.91946 -3.93813 0
M  V30 4964 C 459.006 3.37543 -2.87367 0
M  V30 4965 H 456.226 0.397763 -0.540394 0
M  V30 4966 H 458.77 0.636529 -1.94341 0
M  V30 4967 H 456.925 3.08806 -2.33917 0
M  V30 4968 H 457.339 2.67195 -4.51339 0
M  V30 4969 H 458.813 4.14532 -3.6451 0
M  V30 4970 H 459.29 3.92905 -1.9627 0
M  V30 4971 H 459.896 2.80283 -3.19878 0
M  V30 4972 N 458.211 1.37122 0.776871 0
M  V30 4973 C 459.161 1.28989 1.88005 0
M  V30 4974 C 460.145 0.178765 1.59904 0
M  V30 4975 O 461.337 0.412705 1.72121 0
M  V30 4976 C 458.466 1.09402 3.25402 0
M  V30 4977 C 457.552 2.25036 3.59471 0
M  V30 4978 N 457.943 3.50407 3.64759 0
M  V30 4979 C 456.241 2.17078 3.89607 0
M  V30 4980 C 456.942 4.26628 3.95428 0
M  V30 4981 N 455.918 3.55709 4.11062 0
M  V30 4982 H 459.72 2.2394 1.90337 0
M  V30 4983 H 457.234 1.30021 0.973052 0
M  V30 4984 H 459.231 1.01661 4.04315 0
M  V30 4985 H 457.891 0.153632 3.24336 0
M  V30 4986 H 458.902 3.8438 3.47091 0
M  V30 4987 H 455.579 1.31067 3.96393 0
M  V30 4988 H 456.969 5.35107 4.06338 0
M  V30 4989 N 459.689 -1.00246 1.21608 0
M  V30 4990 C 460.966 -1.71336 0.943568 0
M  V30 4991 C 461.346 -2.03972 -0.543943 0
M  V30 4992 O 460.694 -1.71545 -1.50946 0
M  V30 4993 C 460.904 -2.97094 1.83128 0
M  V30 4994 C 462.252 -3.70071 2.08165 0
M  V30 4995 O 463.276 -3.07081 1.80498 0
M  V30 4996 O 462.135 -4.83376 2.54971 0
M  V30 4997 H 459.229 -0.747386 0.354039 0
M  V30 4998 H 461.775 -1.05967 1.32549 0
M  V30 4999 H 460.547 -2.69407 2.83788 0
M  V30 5000 H 460.17 -3.70204 1.45034 0
M  V30 5001 N 461.167 -1.02423 -1.1978 0
M  V30 5002 C 462.13 -0.605703 -2.21052 0
M  V30 5003 C 463.13 0.328209 -1.57415 0
M  V30 5004 O 464.32 0.115853 -1.73814 0
M  V30 5005 C 461.452 0.114366 -3.40708 0
M  V30 5006 H 462.645 -1.5017 -2.59594 0
M  V30 5007 H 460.198 -0.814888 -1.33376 0
M  V30 5008 H 460.933 1.02492 -3.07678 0
M  V30 5009 H 460.718 -0.556641 -3.88129 0
M  V30 5010 H 462.208 0.394272 -4.15735 0
M  V30 5011 N 462.645 1.35699 -0.801477 0
M  V30 5012 C 463.894 1.98165 -0.375979 0
M  V30 5013 C 464.207 1.64306 1.06127 0
M  V30 5014 O 465.413 2.20097 1.58964 0
M  V30 5015 C 463.869 3.54497 -0.621305 0
M  V30 5016 C 463.477 3.9727 -2.07076 0
M  V30 5017 C 465.221 4.23697 -0.26091 0
M  V30 5018 C 463.128 5.46427 -2.26211 0
M  V30 5019 H 462.058 0.741478 -0.136844 0
M  V30 5020 H 464.709 1.54834 -0.984814 0
M  V30 5021 H 463.091 3.95958 0.0574112 0
M  V30 5022 H 464.265 3.66974 -2.78687 0
M  V30 5023 H 462.58 3.40943 -2.39054 0
M  V30 5024 H 465.177 5.33334 -0.381994 0
M  V30 5025 H 465.52 4.0869 0.792344 0
M  V30 5026 H 466.053 3.87639 -0.893339 0
M  V30 5027 H 462.792 5.66396 -3.29963 0
M  V30 5028 H 462.312 5.78309 -1.59119 0
M  V30 5029 H 463.991 6.12819 -2.07513 0
M  V30 5030 N 464.123 0.554532 1.47522 0
M  V30 5031 C 465.053 -0.182974 2.32782 0
M  V30 5032 C 466.034 -0.911377 1.43624 0
M  V30 5033 O 467.219 -0.892366 1.72483 0
M  V30 5034 C 464.349 -1.21513 3.25349 0
M  V30 5035 C 463.303 -0.603355 4.23726 0
M  V30 5036 C 462.629 -1.73995 5.05598 0
M  V30 5037 C 463.929 0.441121 5.20434 0
M  V30 5038 H 465.623 0.52882 2.94693 0
M  V30 5039 H 463.169 0.255759 1.41711 0
M  V30 5040 H 465.122 -1.73922 3.83835 0
M  V30 5041 H 463.846 -1.95683 2.61487 0
M  V30 5042 H 462.505 -0.10059 3.66462 0
M  V30 5043 H 462.153 -2.47063 4.38143 0
M  V30 5044 H 461.853 -1.3364 5.72201 0
M  V30 5045 H 463.377 -2.26735 5.66942 0
M  V30 5046 H 464.791 0.00319931 5.733 0
M  V30 5047 H 463.188 0.763402 5.95224 0
M  V30 5048 H 464.258 1.33799 4.66075 0
M  V30 5049 N 465.601 -1.54893 0.290851 0
M  V30 5050 C 466.847 -2.0023 -0.321867 0
M  V30 5051 C 467.18 -1.179 -1.54316 0
M  V30 5052 O 466.455 -0.25293 -1.92848 0
M  V30 5053 C 466.738 -3.53456 -0.688515 0
M  V30 5054 C 466.591 -4.46532 0.541209 0
M  V30 5055 C 467.91 -4.13057 -1.51895 0
M  V30 5056 H 465.029 -0.727891 -0.115515 0
M  V30 5057 H 467.671 -1.85722 0.400931 0
M  V30 5058 H 465.821 -3.6595 -1.30433 0
M  V30 5059 H 467.493 -4.4596 1.17973 0
M  V30 5060 H 465.736 -4.17545 1.17636 0
M  V30 5061 H 466.407 -5.51475 0.240675 0
M  V30 5062 H 468.883 -4.03937 -0.99872 0
M  V30 5063 H 467.759 -5.20448 -1.74429 0
M  V30 5064 H 468.02 -3.64284 -2.50498 0
M  V30 5065 N 467.08 -0.0183926 -1.57589 0
M  V30 5066 C 468.329 0.66185 -1.90532 0
M  V30 5067 C 468.642 1.73904 -0.895366 0
M  V30 5068 O 469.848 2.47518 -1.11566 0
M  V30 5069 C 468.304 1.22844 -3.38286 0
M  V30 5070 C 467.912 0.185103 -4.47617 0
M  V30 5071 C 469.656 1.88581 -3.80312 0
M  V30 5072 C 467.563 0.762723 -5.86461 0
M  V30 5073 H 466.493 0.250972 -0.711006 0
M  V30 5074 H 469.144 -0.0819435 -1.83317 0
M  V30 5075 H 467.526 2.0235 -3.40398 0
M  V30 5076 H 468.7 -0.58671 -4.5705 0
M  V30 5077 H 467.015 -0.372889 -4.14727 0
M  V30 5078 H 469.612 2.32735 -4.81392 0
M  V30 5079 H 469.955 2.72408 -3.14801 0
M  V30 5080 H 470.488 1.15782 -3.80578 0
M  V30 5081 H 467.227 -0.0371713 -6.55489 0
M  V30 5082 H 466.747 1.50327 -5.80656 0
M  V30 5083 H 468.426 1.25576 -6.34697 0
M  V30 5084 N 468.558 1.5553 0.254621 0
M  V30 5085 C 469.521 1.88872 1.29846 0
M  V30 5086 C 470.521 0.764591 1.41459 0
M  V30 5087 O 471.711 1.03265 1.40293 0
M  V30 5088 C 468.843 2.11032 2.67728 0
M  V30 5089 H 470.036 2.82201 1.01502 0
M  V30 5090 H 467.589 1.48303 0.493556 0
M  V30 5091 H 468.324 1.20146 3.01223 0
M  V30 5092 H 468.109 2.92895 2.60682 0
M  V30 5093 H 469.599 2.38038 3.43115 0
M  V30 5094 N 470.036 -0.519951 1.48776 0
M  V30 5095 C 470.946 -1.65025 1.66745 0
M  V30 5096 C 471.962 -1.6508 0.549954 0
M  V30 5097 O 473.138 -1.83848 0.822295 0
M  V30 5098 C 470.203 -3.0146 1.71238 0
M  V30 5099 C 469.264 -3.12182 2.94688 0
M  V30 5100 C 468.497 -4.42109 2.98958 0
M  V30 5101 O 468.72 -5.29799 2.1135 0
M  V30 5102 O 467.654 -4.57406 3.91233 0
M  V30 5103 H 471.48 -1.52801 2.62461 0
M  V30 5104 H 469.065 -0.694157 1.32294 0
M  V30 5105 H 470.947 -3.82584 1.76657 0
M  V30 5106 H 469.622 -3.13988 0.786975 0
M  V30 5107 H 468.529 -2.30316 2.94797 0
M  V30 5108 H 469.862 -3.04574 3.86646 0
M  V30 5109 N 471.514 -1.37532 -0.769588 0
M  V30 5110 C 472.477 -1.33292 -1.86456 0
M  V30 5111 C 473.477 -0.236537 -1.59051 0
M  V30 5112 O 474.667 -0.492511 -1.67093 0
M  V30 5113 C 471.799 -1.07118 -3.23633 0
M  V30 5114 H 472.992 -2.30692 -1.91628 0
M  V30 5115 H 470.545 -1.22593 -0.969572 0
M  V30 5116 H 471.28 -0.102578 -3.24138 0
M  V30 5117 H 471.065 -1.86479 -3.44917 0
M  V30 5118 H 472.555 -1.06806 -4.03711 0
M  V30 5119 N 472.992 0.995999 -1.22138 0
M  V30 5120 C 474.239 1.7351 -1.04406 0
M  V30 5121 C 474.567 1.89884 0.421244 0
M  V30 5122 O 473.822 1.43683 1.32867 0
M  V30 5123 C 474.121 3.14553 -1.6968 0
M  V30 5124 C 473.787 3.18102 -3.19565 0
M  V30 5125 C 472.449 3.18778 -3.60464 0
M  V30 5126 C 474.801 3.14636 -4.15516 0
M  V30 5127 C 472.129 3.13684 -4.95801 0
M  V30 5128 C 474.481 3.11084 -5.50826 0
M  V30 5129 C 473.145 3.10074 -5.91109 0
M  V30 5130 H 472.415 0.634916 -0.38205 0
M  V30 5131 H 475.062 1.1667 -1.51857 0
M  V30 5132 H 473.367 3.74682 -1.14546 0
M  V30 5133 H 475.064 3.70477 -1.53454 0
M  V30 5134 H 471.654 3.18324 -2.86998 0
M  V30 5135 H 475.838 3.13266 -3.84939 0
M  V30 5136 H 471.094 3.11245 -5.26247 0
M  V30 5137 H 475.268 3.07357 -6.24904 0
M  V30 5138 H 472.895 3.05882 -6.95946 0
M  V30 5139 N 474.47 1.03057 1.19235 0
M  V30 5140 C 475.886 0.747947 1.40989 0
M  V30 5141 C 476.086 -0.666752 1.90149 0
M  V30 5142 O 475.142 -1.43249 2.07933 0
M  V30 5143 C 476.455 1.7855 2.41951 0
M  V30 5144 C 478.003 1.80524 2.55695 0
M  V30 5145 C 478.478 2.83243 3.59913 0
M  V30 5146 N 479.969 2.8207 3.67411 0
M  V30 5147 C 480.704 3.58204 4.47747 0
M  V30 5148 N 480.2 4.44057 5.31775 0
M  V30 5149 N 481.993 3.46738 4.42413 0
M  V30 5150 H 474.144 1.94367 0.856468 0
M  V30 5151 H 476.407 0.840412 0.438647 0
M  V30 5152 H 476.113 2.79973 2.12857 0
M  V30 5153 H 475.987 1.6092 3.41152 0
M  V30 5154 H 478.374 0.79778 2.84112 0
M  V30 5155 H 478.455 2.02229 1.56643 0
M  V30 5156 H 478.099 3.84161 3.32239 0
M  V30 5157 H 478.029 2.58795 4.5862 0
M  V30 5158 H 480.52 2.19803 3.074 0
M  V30 5159 H 480.833 4.98884 5.90199 0
M  V30 5160 H 479.178 4.48129 5.3123 0
M  V30 5161 H 482.369 2.79077 3.75811 0
M  V30 5162 H 482.542 4.06322 5.04783 0
M  V30 5163 N 475.948 -1.35272 0.808662 0
M  V30 5164 C 477.178 -2.02652 0.401953 0
M  V30 5165 C 477.586 -1.6108 -0.992462 0
M  V30 5166 O 476.929 -0.804984 -1.65123 0
M  V30 5167 C 476.991 -3.57174 0.408246 0
M  V30 5168 C 476.655 -4.22019 1.75353 0
M  V30 5169 C 477.652 -4.43552 2.71215 0
M  V30 5170 C 475.337 -4.59093 2.03811 0
M  V30 5171 C 477.331 -5.01264 3.93717 0
M  V30 5172 C 475.018 -5.16519 3.26576 0
M  V30 5173 C 476.016 -5.37546 4.21347 0
M  V30 5174 O 475.704 -5.93761 5.41944 0
M  V30 5175 H 475.436 -0.656495 0.161216 0
M  V30 5176 H 477.99 -1.73829 1.0942 0
M  V30 5177 H 476.22 -3.85197 -0.340608 0
M  V30 5178 H 477.909 -4.05893 0.0235623 0
M  V30 5179 H 478.675 -4.15288 2.50522 0
M  V30 5180 H 474.554 -4.42039 1.30854 0
M  V30 5181 H 478.098 -5.17592 4.67701 0
M  V30 5182 H 473.995 -5.4421 3.47139 0
M  V30 5183 H 474.763 -6.1221 5.43269 0
M  V30 5184 N 477.426 -0.562348 -1.47226 0
M  V30 5185 C 478.356 0.170627 -2.32876 0
M  V30 5186 C 479.337 0.903748 -1.44106 0
M  V30 5187 O 480.522 0.883206 -1.72954 0
M  V30 5188 C 477.652 1.19786 -3.25989 0
M  V30 5189 C 476.606 0.580875 -4.2404 0
M  V30 5190 C 475.932 1.71311 -5.06514 0
M  V30 5191 C 477.232 -0.468714 -5.20193 0
M  V30 5192 H 478.926 -0.544441 -2.94408 0
M  V30 5193 H 476.472 -0.263271 -1.41573 0
M  V30 5194 H 478.425 1.71884 -3.84752 0
M  V30 5195 H 477.149 1.94294 -2.62521 0
M  V30 5196 H 475.808 0.0811538 -3.6651 0
M  V30 5197 H 475.456 2.44736 -4.39447 0
M  V30 5198 H 475.156 1.30604 -5.72902 0
M  V30 5199 H 476.68 2.23725 -5.68137 0
M  V30 5200 H 478.094 -0.0336028 -5.7329 0
M  V30 5201 H 476.491 -0.794957 -5.94811 0
M  V30 5202 H 477.561 -1.36269 -4.65359 0
M  V30 5203 N 478.904 1.54736 -0.299062 0
M  V30 5204 C 480.32 1.59507 0.0543849 0
M  V30 5205 C 480.52 1.31606 1.52585 0
M  V30 5206 O 479.576 1.08853 2.27832 0
M  V30 5207 C 480.889 2.98751 -0.34181 0
M  V30 5208 C 482.437 3.1165 -0.290414 0
M  V30 5209 C 482.912 4.53199 -0.661402 0
M  V30 5210 N 484.403 4.59114 -0.613863 0
M  V30 5211 C 485.138 5.66709 -0.873417 0
M  V30 5212 N 484.634 6.82349 -1.19884 0
M  V30 5213 N 486.427 5.56369 -0.800608 0
M  V30 5214 H 478.578 1.71133 -1.25806 0
M  V30 5215 H 480.841 0.799186 -0.509908 0
M  V30 5216 H 480.547 3.24085 -1.36608 0
M  V30 5217 H 480.421 3.75961 0.305508 0
M  V30 5218 H 482.808 2.86066 0.724605 0
M  V30 5219 H 482.889 2.366 -0.972327 0
M  V30 5220 H 482.533 4.79513 -1.67422 0
M  V30 5221 H 482.463 5.26583 0.0425612 0
M  V30 5222 H 484.954 3.76053 -0.3732 0
M  V30 5223 H 485.267 7.60326 -1.38291 0
M  V30 5224 H 483.612 6.83906 -1.23685 0
M  V30 5225 H 486.803 4.64904 -0.546045 0
M  V30 5226 H 486.976 6.40139 -1.00626 0
M  V30 5227 N 480.382 0.0267497 1.57577 0
M  V30 5228 C 481.798 -0.32962 1.56159 0
M  V30 5229 C 481.998 -1.73059 1.03213 0
M  V30 5230 O 481.054 -2.43233 0.677804 0
M  V30 5231 C 482.367 -0.18039 3.00158 0
M  V30 5232 C 483.915 -0.253334 3.11973 0
M  V30 5233 C 484.39 -0.132921 4.57807 0
M  V30 5234 N 485.881 -0.189979 4.6281 0
M  V30 5235 C 486.616 -0.120554 5.73273 0
M  V30 5236 N 486.112 -0.000180315 6.928 0
M  V30 5237 N 487.905 -0.174369 5.61829 0
M  V30 5238 H 480.056 0.942896 1.90324 0
M  V30 5239 H 482.319 0.3639 0.875375 0
M  V30 5240 H 482.025 0.784576 3.42837 0
M  V30 5241 H 481.899 -0.951565 3.65 0
M  V30 5242 H 484.286 -1.20876 2.69208 0
M  V30 5243 H 484.367 0.548177 2.49857 0
M  V30 5244 H 484.011 0.819073 5.01252 0
M  V30 5245 H 483.941 -0.953264 5.179 0
M  V30 5246 H 486.432 -0.283257 3.76837 0
M  V30 5247 H 486.745 0.0461666 7.72786 0
M  V30 5248 H 485.09 0.034569 6.94991 0
M  V30 5249 H 488.281 -0.266794 4.67339 0
M  V30 5250 H 488.454 -0.116802 6.47895 0
M  V30 5251 N 481.861 -1.55662 -0.24637 0
M  V30 5252 C 482.793 -1.86811 -1.32794 0
M  V30 5253 C 483.806 -0.754413 -1.44265 0
M  V30 5254 O 484.995 -1.03253 -1.45606 0
M  V30 5255 C 482.095 -2.0397 -2.70646 0
M  V30 5256 C 481.268 -3.34832 -2.81436 0
M  V30 5257 C 480.327 -3.41727 -4.00136 0
M  V30 5258 O 479.353 -4.14934 -3.89639 0
M  V30 5259 N 480.555 -2.71058 -5.1333 0
M  V30 5260 H 483.32 -2.80174 -1.06409 0
M  V30 5261 H 480.881 -1.55906 -0.43647 0
M  V30 5262 H 482.873 -2.05924 -3.48393 0
M  V30 5263 H 481.443 -1.1735 -2.89738 0
M  V30 5264 H 480.663 -3.4519 -1.90361 0
M  V30 5265 H 481.951 -4.21085 -2.85595 0
M  V30 5266 H 481.349 -2.11314 -5.2475 0
M  V30 5267 H 479.906 -2.78704 -5.89209 0
M  V30 5268 N 483.339 0.512053 -1.4905 0
M  V30 5269 C 484.755 0.84224 -1.35567 0
M  V30 5270 C 484.955 1.97878 -0.380319 0
M  V30 5271 O 484.011 2.51769 0.19201 0
M  V30 5272 C 485.324 1.19286 -2.76028 0
M  V30 5273 C 486.872 1.30171 -2.84648 0
M  V30 5274 C 487.347 1.68568 -4.25851 0
M  V30 5275 N 488.838 1.75638 -4.28609 0
M  V30 5276 C 489.573 2.06769 -5.34821 0
M  V30 5277 N 489.069 2.36201 -6.51292 0
M  V30 5278 N 490.862 2.07927 -5.22229 0
M  V30 5279 H 483.013 -0.237574 -2.11067 0
M  V30 5280 H 485.276 -0.0436747 -0.946993 0
M  V30 5281 H 484.982 0.431199 -3.49047 0
M  V30 5282 H 484.856 2.13889 -3.10695 0
M  V30 5283 H 487.243 2.05411 -2.11873 0
M  V30 5284 H 487.324 0.336457 -2.53578 0
M  V30 5285 H 486.968 0.938824 -4.99148 0
M  V30 5286 H 486.898 2.66174 -4.54377 0
M  V30 5287 H 489.389 1.55097 -3.44606 0
M  V30 5288 H 489.702 2.59112 -7.28066 0
M  V30 5289 H 488.047 2.33681 -6.54536 0
M  V30 5290 H 491.238 1.84403 -4.30248 0
M  V30 5291 H 491.411 2.31856 -6.05101 0
M  V30 5292 N 484.817 1.37938 0.762283 0
M  V30 5293 C 486.063 1.33866 1.52341 0
M  V30 5294 C 486.396 -0.0738961 1.94059 0
M  V30 5295 O 485.671 -1.03326 1.64785 0
M  V30 5296 C 485.954 2.28644 2.78197 0
M  V30 5297 C 485.807 3.78722 2.42672 0
M  V30 5298 C 487.126 2.21702 3.80179 0
M  V30 5299 H 484.245 0.487593 0.55265 0
M  V30 5300 H 486.887 1.68717 0.873767 0
M  V30 5301 H 485.037 1.99055 3.33631 0
M  V30 5302 H 486.709 4.18948 1.93081 0
M  V30 5303 H 484.952 3.96827 1.75244 0
M  V30 5304 H 485.623 4.40486 3.3268 0
M  V30 5305 H 488.099 2.47805 3.34263 0
M  V30 5306 H 486.975 2.90143 4.65949 0
M  V30 5307 H 487.236 1.21301 4.25133 0
M  V30 5308 N 486.295 -0.989507 1.22664 0
M  V30 5309 C 487.572 -1.70326 0.961688 0
M  V30 5310 C 487.952 -2.04537 -0.522279 0
M  V30 5311 O 487.3 -1.73136 -1.49118 0
M  V30 5312 C 487.51 -2.95135 1.86269 0
M  V30 5313 C 488.858 -3.67842 2.12078 0
M  V30 5314 O 489.882 -3.0515 1.83745 0
M  V30 5315 O 488.741 -4.80644 2.60083 0
M  V30 5316 H 485.835 -0.743589 0.361946 0
M  V30 5317 H 488.381 -1.04555 1.33665 0
M  V30 5318 H 487.153 -2.66382 2.8663 0
M  V30 5319 H 486.776 -3.68645 1.48952 0
M  V30 5320 N 487.773 -1.03688 -1.18687 0
M  V30 5321 C 489.019 -0.739123 -1.88851 0
M  V30 5322 C 489.352 0.731042 -1.79915 0
M  V30 5323 O 488.627 1.53313 -1.19688 0
M  V30 5324 C 488.91 -1.20106 -3.3948 0
M  V30 5325 C 488.763 -2.73304 -3.57246 0
M  V30 5326 C 490.082 -0.788134 -4.32986 0
M  V30 5327 H 487.201 -0.269978 -0.68577 0
M  V30 5328 H 489.843 -1.28822 -1.3966 0
M  V30 5329 H 487.993 -0.733915 -3.81505 0
M  V30 5330 H 489.665 -3.28027 -3.24339 0
M  V30 5331 H 487.908 -3.13313 -3.00029 0
M  V30 5332 H 488.579 -3.00684 -4.62918 0
M  V30 5333 H 491.055 -1.19005 -3.98719 0
M  V30 5334 H 489.931 -1.13915 -5.36949 0
M  V30 5335 H 490.192 0.308988 -4.41019 0
M  V30 5336 N 489.251 1.34841 -0.815825 0
M  V30 5337 C 490.476 2.03261 -0.41226 0
M  V30 5338 C 490.901 1.61055 0.971751 0
M  V30 5339 O 490.259 0.7917 1.63101 0
M  V30 5340 C 490.307 3.56914 -0.514289 0
M  V30 5341 O 489.411 4.09728 0.468675 0
M  V30 5342 H 488.752 0.641664 -0.170771 0
M  V30 5343 H 491.282 1.72241 -1.10427 0
M  V30 5344 H 491.292 4.06156 -0.387457 0
M  V30 5345 H 489.967 3.86982 -1.52375 0
M  V30 5346 H 488.544 3.71681 0.301316 0
M  V30 5347 N 490.729 0.570148 1.46925 0
M  V30 5348 C 492.145 0.23087 1.57921 0
M  V30 5349 C 492.345 -1.26676 1.56702 0
M  V30 5350 O 491.401 -2.04774 1.47729 0
M  V30 5351 C 492.714 0.868973 2.8787 0
M  V30 5352 C 494.262 0.841397 3.01479 0
M  V30 5353 C 494.737 1.45881 4.34146 0
M  V30 5354 N 496.228 1.42258 4.40814 0
M  V30 5355 C 496.963 1.8698 5.42057 0
M  V30 5356 N 496.459 2.39618 6.50042 0
M  V30 5357 N 498.252 1.77972 5.33181 0
M  V30 5358 H 490.403 1.54301 1.45962 0
M  V30 5359 H 492.666 0.644224 0.69547 0
M  V30 5360 H 492.372 1.922 2.94537 0
M  V30 5361 H 492.246 0.369682 3.75384 0
M  V30 5362 H 494.633 -0.202973 2.94401 0
M  V30 5363 H 494.714 1.37858 2.15474 0
M  V30 5364 H 494.358 2.50231 4.4198 0
M  V30 5365 H 494.288 0.896958 5.18905 0
M  V30 5366 H 496.779 1.03768 3.63374 0
M  V30 5367 H 497.092 2.71633 7.23488 0
M  V30 5368 H 495.437 2.43636 6.50897 0
M  V30 5369 H 498.628 1.36617 4.4772 0
M  V30 5370 H 498.801 2.13143 6.11943 0
M  V30 5371 N 492.207 -1.54576 0.307264 0
M  V30 5372 C 493.623 -1.59534 -0.0459251 0
M  V30 5373 C 493.823 -1.32414 -1.51884 0
M  V30 5374 O 492.879 -1.1006 -2.27251 0
M  V30 5375 C 494.192 -2.98566 0.357649 0
M  V30 5376 C 495.74 -3.11491 0.306937 0
M  V30 5377 C 496.215 -4.52842 0.685427 0
M  V30 5378 N 497.706 -4.58782 0.638203 0
M  V30 5379 C 498.441 -5.66238 0.903458 0
M  V30 5380 N 497.937 -6.81703 1.23501 0
M  V30 5381 N 499.73 -5.55937 0.830102 0
M  V30 5382 H 491.881 -1.70464 1.26712 0
M  V30 5383 H 494.144 -0.79647 0.514139 0
M  V30 5384 H 493.85 -3.23356 1.38325 0
M  V30 5385 H 493.724 -3.76117 -0.285565 0
M  V30 5386 H 496.111 -2.86446 -0.709424 0
M  V30 5387 H 496.192 -2.36081 0.984861 0
M  V30 5388 H 495.836 -4.78618 1.69963 0
M  V30 5389 H 495.766 -5.26598 -0.0146346 0
M  V30 5390 H 498.257 -3.75849 0.393138 0
M  V30 5391 H 498.57 -7.59582 1.42322 0
M  V30 5392 H 496.915 -6.8324 1.27311 0
M  V30 5393 H 500.106 -4.64608 0.570693 0
M  V30 5394 H 500.279 -6.39597 1.04019 0
M  V30 5395 N 493.685 -0.035106 -1.57561 0
M  V30 5396 C 494.933 0.64096 -1.91667 0
M  V30 5397 C 495.254 1.72323 -0.912681 0
M  V30 5398 O 494.524 1.95849 0.0449089 0
M  V30 5399 H 493.104 0.239743 -0.707483 0
M  V30 5400 H 495.766 -0.084321 -1.94718 0
M  V30 5401 H 494.862 1.08987 -2.92452 0
M  V30 5402 N 495.163 1.55791 0.238111 0
M  V30 5403 C 496.388 1.8244 0.986432 0
M  V30 5404 C 496.813 0.613314 1.7782 0
M  V30 5405 O 496.171 -0.437767 1.75935 0
M  V30 5406 C 496.219 3.06917 1.893 0
M  V30 5407 O 495.323 2.84449 2.98601 0
M  V30 5408 H 494.664 0.601975 0.280218 0
M  V30 5409 H 497.194 2.02987 0.256437 0
M  V30 5410 H 497.204 3.36583 2.30598 0
M  V30 5411 H 495.879 3.947 1.31091 0
M  V30 5412 H 494.456 2.65972 2.61368 0
M  V30 5413 N 496.642 -0.504142 1.49319 0
M  V30 5414 C 497.605 -1.5883 1.65244 0
M  V30 5415 C 498.605 -1.52009 0.524386 0
M  V30 5416 O 499.795 -1.55218 0.79077 0
M  V30 5417 C 496.927 -2.98481 1.64687 0
M  V30 5418 H 498.12 -1.4604 2.61939 0
M  V30 5419 H 495.673 -0.728144 1.38303 0
M  V30 5420 H 496.408 -3.16751 0.695644 0
M  V30 5421 H 496.193 -3.0484 2.46607 0
M  V30 5422 H 497.683 -3.77256 1.79075 0
M  V30 5423 N 498.12 -1.38341 -0.754957 0
M  V30 5424 C 499.368 -1.34208 -1.51105 0
M  V30 5425 C 499.689 0.0677634 -1.94882 0
M  V30 5426 O 498.959 1.01517 -1.67544 0
M  V30 5427 H 497.539 -0.493819 -0.560493 0
M  V30 5428 H 500.201 -1.73005 -0.897507 0
M  V30 5429 H 499.297 -1.99203 -2.4026 0
M  V30 5430 N 499.598 0.982988 -1.23187 0
M  V30 5431 C 500.875 1.69814 -0.970707 0
M  V30 5432 C 501.255 2.04811 0.511424 0
M  V30 5433 O 500.603 1.73924 1.48198 0
M  V30 5434 C 500.813 2.94143 -1.87831 0
M  V30 5435 C 502.161 3.66712 -2.14026 0
M  V30 5436 O 503.185 3.04171 -1.8536 0
M  V30 5437 O 502.044 4.79258 -2.62629 0
M  V30 5438 H 499.138 0.741659 -0.365884 0
M  V30 5439 H 501.684 1.03844 -1.34218 0
M  V30 5440 H 500.456 2.64858 -2.88038 0
M  V30 5441 H 500.079 3.6785 -1.50905 0
M  V30 5442 N 501.076 1.04316 1.18135 0
M  V30 5443 C 502.316 0.756937 1.89868 0
M  V30 5444 C 502.68 -0.702609 1.78682 0
M  V30 5445 O 503.881 -1.10255 2.45148 0
M  V30 5446 C 502.152 1.21327 3.36176 0
M  V30 5447 S 503.711 1.05307 4.25976 0
M  V30 5448 H 500.529 0.275143 0.655604 0
M  V30 5449 H 503.131 1.33597 1.42731 0
M  V30 5450 H 501.835 2.27086 3.41848 0
M  V30 5451 H 501.366 0.628137 3.88353 0
M  V30 5452 H 503.381 -0.0280093 4.96192 0
M  V30 5453 N 502.554 -1.34406 0.822964 0
M  V30 5454 C 503.484 -2.32052 0.259608 0
M  V30 5455 C 504.465 -1.58243 -0.623961 0
M  V30 5456 O 505.65 -1.86224 -0.55083 0
M  V30 5457 C 502.78 -3.42434 -0.579314 0
M  V30 5458 C 501.734 -4.27499 0.20712 0
M  V30 5459 C 501.06 -5.29349 -0.754547 0
M  V30 5460 C 502.36 -5.02758 1.41533 0
M  V30 5461 H 504.054 -2.79418 1.07545 0
M  V30 5462 H 501.6 -1.34338 0.518593 0
M  V30 5463 H 503.553 -4.0976 -0.983612 0
M  V30 5464 H 502.277 -2.93717 -1.4282 0
M  V30 5465 H 500.936 -3.61776 0.592787 0
M  V30 5466 H 500.584 -4.76895 -1.59939 0
M  V30 5467 H 500.284 -5.8714 -0.232561 0
M  V30 5468 H 501.808 -5.99544 -1.1567 0
M  V30 5469 H 503.222 -5.62938 1.08504 0
M  V30 5470 H 501.619 -5.70123 1.87296 0
M  V30 5471 H 502.689 -4.32451 2.1935 0
M  V30 5472 N 504.032 -0.577932 -1.46621 0
M  V30 5473 C 504.995 0.147805 -2.28723 0
M  V30 5474 C 505.995 0.823325 -1.38123 0
M  V30 5475 O 507.185 0.676011 -1.60548 0
M  V30 5476 C 504.317 1.21853 -3.18378 0
M  V30 5477 H 505.51 -0.573654 -2.94362 0
M  V30 5478 H 503.063 -0.335703 -1.52652 0
M  V30 5479 H 503.798 1.97173 -2.57475 0
M  V30 5480 H 503.583 0.738714 -3.85078 0
M  V30 5481 H 505.073 1.72768 -3.80186 0
M  V30 5482 N 505.51 1.54411 -0.315457 0
M  V30 5483 C 506.458 2.25514 0.569771 0
M  V30 5484 C 507.452 1.2663 1.12522 0
M  V30 5485 O 508.658 1.44434 1.07419 0
M  V30 5486 H 505.033 0.724257 0.202376 0
M  V30 5487 H 507.004 2.98354 -0.0522895 0
M  V30 5488 C 505.753 3.02004 1.72305 0
M  V30 5489 H 505.076 3.77906 1.30488 0
M  V30 5490 H 506.516 3.55014 2.31821 0
M  V30 5491 C 504.975 2.09822 2.63583 0
M  V30 5492 O 505.505 1.67574 3.65078 0
M  V30 5493 N 503.711 1.75478 2.31637 0
M  V30 5494 H 503.258 2.10032 1.49145 0
M  V30 5495 H 503.216 1.14079 2.92973 0
M  V30 5496 N 506.988 0.0434614 1.5754 0
M  V30 5497 C 508.399 -0.493343 1.80064 0
M  V30 5498 C 508.75 -1.71388 0.955023 0
M  V30 5499 O 507.875 -2.15736 0.169434 0
M  V30 5500 C 508.47 -0.90179 3.26578 0
M  V30 5501 C 507.029 -1.38362 3.50047 0
M  V30 5502 C 506.176 -0.355129 2.75017 0
M  V30 5503 H 509.127 0.2694 1.56397 0
M  V30 5504 H 509.148 -1.76523 3.37075 0
M  V30 5505 H 508.66 -0.013271 3.88098 0
M  V30 5506 H 506.761 -2.29159 2.93798 0
M  V30 5507 H 506.874 -1.3811 4.58762 0
M  V30 5508 H 505.238 -0.826348 2.40922 0
M  V30 5509 H 506.021 0.525172 3.39259 0
M  V30 5510 N 508.466 -1.55915 -0.229846 0
M  V30 5511 C 509.429 -1.90914 -1.26824 0
M  V30 5512 C 510.429 -0.786999 -1.40225 0
M  V30 5513 O 511.619 -1.05484 -1.38632 0
M  V30 5514 C 508.751 -2.15264 -2.64337 0
M  V30 5515 H 509.944 -2.8378 -0.969998 0
M  V30 5516 H 507.497 -1.49069 -0.4699 0
M  V30 5517 H 508.232 -1.24923 -2.99274 0
M  V30 5518 H 508.017 -2.97005 -2.55989 0
M  V30 5519 H 509.507 -2.43467 -3.39284 0
M  V30 5520 N 509.944 0.496216 -1.49584 0
M  V30 5521 C 511.19 1.25189 -1.59548 0
M  V30 5522 C 511.523 1.9212 -0.283466 0
M  V30 5523 O 510.798 1.80947 0.713324 0
M  V30 5524 C 511.081 2.31516 -2.75812 0
M  V30 5525 C 510.934 1.69054 -4.16822 0
M  V30 5526 C 512.253 3.3304 -2.87702 0
M  V30 5527 H 509.372 0.45379 -0.580727 0
M  V30 5528 H 512.014 0.549327 -1.81886 0
M  V30 5529 H 510.164 2.91438 -2.56897 0
M  V30 5530 H 511.836 1.12923 -4.47265 0
M  V30 5531 H 510.079 0.994485 -4.22247 0
M  V30 5532 H 510.75 2.462 -4.94054 0
M  V30 5533 H 513.226 2.83114 -3.04936 0
M  V30 5534 H 512.102 4.04794 -3.7072 0
M  V30 5535 H 512.363 3.95655 -1.97255 0
M  V30 5536 N 511.423 1.38739 0.74761 0
M  V30 5537 C 512.834 1.31507 1.32524 0
M  V30 5538 C 513.185 -0.0263963 1.96182 0
M  V30 5539 O 512.31 -0.92849 1.95469 0
M  V30 5540 C 512.905 2.38162 2.40966 0
M  V30 5541 C 511.464 2.34489 2.94434 0
M  V30 5542 C 510.611 2.20712 1.67873 0
M  V30 5543 H 513.562 1.4901 0.546043 0
M  V30 5544 H 513.583 2.04222 3.21051 0
M  V30 5545 H 513.095 3.35783 1.94605 0
M  V30 5546 H 511.196 1.40467 3.45108 0
M  V30 5547 H 511.309 3.28861 3.48407 0
M  V30 5548 H 509.673 1.67667 1.91729 0
M  V30 5549 H 510.456 3.20285 1.23582 0
M  V30 5550 N 512.901 -0.976442 1.23707 0
M  V30 5551 C 514.147 -1.72158 1.08319 0
M  V30 5552 C 514.502 -1.88701 -0.375445 0
M  V30 5553 O 513.795 -1.43107 -1.274 0
M  V30 5554 C 513.989 -3.11814 1.74662 0
M  V30 5555 C 513.818 -3.08892 3.26827 0
M  V30 5556 C 512.588 -3.13861 3.96004 0
M  V30 5557 C 514.786 -2.9175 4.2354 0
M  V30 5558 N 512.768 -3.00867 5.35119 0
M  V30 5559 C 514.139 -2.8696 5.49595 0
M  V30 5560 C 516.194 -2.76265 4.14225 0
M  V30 5561 C 514.897 -2.68268 6.67401 0
M  V30 5562 C 516.923 -2.58938 5.317 0
M  V30 5563 C 516.285 -2.54849 6.56682 0
M  V30 5564 H 512.384 -0.638896 0.450927 0
M  V30 5565 H 514.968 -1.15835 1.56494 0
M  V30 5566 H 513.139 -3.66347 1.29014 0
M  V30 5567 H 514.871 -3.74984 1.52215 0
M  V30 5568 H 511.626 -3.22198 3.4711 0
M  V30 5569 H 512.05 -2.97634 6.08065 0
M  V30 5570 H 516.692 -2.78213 3.18366 0
M  V30 5571 H 514.41 -2.65063 7.63392 0
M  V30 5572 H 517.996 -2.47914 5.26336 0
M  V30 5573 H 516.876 -2.41611 7.46052 0
M  V30 5574 N 514.379 -1.04941 -1.1758 0
M  V30 5575 C 515.604 -0.778253 -1.92245 0
M  V30 5576 C 516.029 0.659707 -1.76152 0
M  V30 5577 O 515.387 1.45803 -1.07755 0
M  V30 5578 C 515.435 -1.16051 -3.41416 0
M  V30 5579 O 514.539 -0.291153 -4.11371 0
M  V30 5580 H 513.88 -0.285619 -0.599431 0
M  V30 5581 H 516.41 -1.40159 -1.49052 0
M  V30 5582 H 516.42 -1.12619 -3.92149 0
M  V30 5583 H 515.095 -2.208 -3.52449 0
M  V30 5584 H 513.672 -0.385851 -3.70898 0
M  V30 5585 N 515.857 1.33968 -0.830081 0
M  V30 5586 C 516.789 2.28194 -0.21448 0
M  V30 5587 C 517.802 1.5135 0.599752 0
M  V30 5588 O 518.991 1.73286 0.42826 0
M  V30 5589 C 516.091 3.31221 0.717356 0
M  V30 5590 C 515.264 4.37365 -0.055613 0
M  V30 5591 C 514.323 5.2011 0.798231 0
M  V30 5592 O 513.349 5.68691 0.240616 0
M  V30 5593 N 514.551 5.40523 2.11695 0
M  V30 5594 H 517.316 2.81662 -1.02405 0
M  V30 5595 H 514.877 1.46568 -0.687713 0
M  V30 5596 H 516.869 3.83477 1.29334 0
M  V30 5597 H 515.439 2.78095 1.42765 0
M  V30 5598 H 514.659 3.85727 -0.812936 0
M  V30 5599 H 515.947 5.05397 -0.587444 0
M  V30 5600 H 515.345 5.0274 2.59363 0
M  V30 5601 H 513.902 5.95871 2.64162 0
M  V30 5602 N 517.335 0.585699 1.46312 0
M  V30 5603 C 518.583 0.072278 2.01971 0
M  V30 5604 C 518.904 -1.29345 1.45928 0
M  V30 5605 O 518.174 -1.84973 0.645109 0
M  V30 5606 H 516.754 0.023729 0.746623 0
M  V30 5607 H 519.416 0.762155 1.7938 0
M  V30 5608 H 518.512 0.00552767 3.121 0
M  V30 5609 N 518.813 -1.54241 0.323641 0
M  V30 5610 C 520.062 -1.9975 -0.279806 0
M  V30 5611 C 520.375 -1.2156 -1.5324 0
M  V30 5612 O 521.581 -1.57447 -2.21185 0
M  V30 5613 C 520.037 -3.55686 -0.549115 0
M  V30 5614 C 519.645 -4.4271 0.686432 0
M  V30 5615 C 521.389 -4.09663 -1.11251 0
M  V30 5616 C 519.296 -5.90119 0.389022 0
M  V30 5617 H 518.226 -0.746177 -0.10833 0
M  V30 5618 H 520.877 -1.78248 0.435877 0
M  V30 5619 H 519.259 -3.73176 -1.32499 0
M  V30 5620 H 520.433 -4.36996 1.46188 0
M  V30 5621 H 518.748 -3.99623 1.17005 0
M  V30 5622 H 521.345 -5.17386 -1.34965 0
M  V30 5623 H 521.688 -3.61651 -2.06191 0
M  V30 5624 H 522.221 -3.95806 -0.39782 0
M  V30 5625 H 518.96 -6.42326 1.30759 0
M  V30 5626 H 518.48 -5.98785 -0.348722 0
M  V30 5627 H 520.159 -6.47 -0.0011164 0
M  V30 5628 N 520.291 -0.0518155 -1.57515 0
M  V30 5629 C 521.568 0.661727 -1.84067 0
M  V30 5630 C 521.948 1.88999 -0.940351 0
M  V30 5631 O 521.296 2.285 -0.00155404 0
M  V30 5632 C 521.506 1.01841 -3.3381 0
M  V30 5633 C 522.854 1.40043 -4.00841 0
M  V30 5634 O 523.878 1.11073 -3.38439 0
M  V30 5635 O 522.737 1.94111 -5.10865 0
M  V30 5636 H 519.831 0.326702 -0.759733 0
M  V30 5637 H 522.377 -0.0812277 -1.69505 0
M  V30 5638 H 521.149 0.145202 -3.91031 0
M  V30 5639 H 520.772 1.81879 -3.53562 0
M  V30 5640 N 521.769 1.56035 0.221574 0
M  V30 5641 C 523.018 1.78245 0.944016 0
M  V30 5642 C 523.331 0.620371 1.85501 0
M  V30 5643 O 524.537 0.726103 2.6161 0
M  V30 5644 C 522.993 3.15659 1.7288 0
M  V30 5645 C 522.601 4.39591 0.863942 0
M  V30 5646 C 524.345 3.47195 2.44246 0
M  V30 5647 C 522.252 5.6803 1.64607 0
M  V30 5648 H 521.182 0.664547 0.356222 0
M  V30 5649 H 523.833 1.8243 0.197904 0
M  V30 5650 H 522.215 3.0565 2.51781 0
M  V30 5651 H 523.389 4.60655 0.115464 0
M  V30 5652 H 521.704 4.15572 0.262407 0
M  V30 5653 H 524.301 4.40381 3.03263 0
M  V30 5654 H 524.644 2.69693 3.1713 0
M  V30 5655 H 525.177 3.58533 1.72334 0
M  V30 5656 H 521.916 6.48425 0.960507 0
M  V30 5657 H 521.436 5.51027 2.36917 0
M  V30 5658 H 523.115 6.08203 2.20675 0
M  V30 5659 N 523.247 -0.488276 1.49845 0
M  V30 5660 C 524.157 -1.61451 1.70207 0
M  V30 5661 C 525.173 -1.63877 0.584846 0
M  V30 5662 O 526.349 -1.82063 0.861107 0
M  V30 5663 C 523.414 -2.9776 1.77594 0
M  V30 5664 C 522.475 -3.05861 3.01243 0
M  V30 5665 C 521.708 -4.35668 3.08268 0
M  V30 5666 O 521.931 -5.25197 2.22541 0
M  V30 5667 O 520.865 -4.49005 4.00847 0
M  V30 5668 H 524.691 -1.47199 2.65643 0
M  V30 5669 H 522.276 -0.665939 1.33737 0
M  V30 5670 H 524.158 -3.7875 1.84732 0
M  V30 5671 H 522.833 -3.12248 0.8534 0
M  V30 5672 H 521.74 -2.24012 2.99616 0
M  V30 5673 H 523.073 -2.96304 3.9302 0
M  V30 5674 N 524.725 -1.39134 -0.740242 0
M  V30 5675 C 526.141 -1.20623 -1.0451 0
M  V30 5676 C 526.341 -0.0641651 -2.01398 0
M  V30 5677 O 525.397 0.585843 -2.4561 0
M  V30 5678 C 526.71 -2.53815 -1.6124 0
M  V30 5679 C 528.258 -2.60615 -1.73346 0
M  V30 5680 C 528.733 -3.94015 -2.33486 0
M  V30 5681 N 530.224 -3.95627 -2.40902 0
M  V30 5682 C 530.959 -4.95616 -2.88361 0
M  V30 5683 N 530.455 -6.06003 -3.35756 0
M  V30 5684 N 532.248 -4.82998 -2.87523 0
M  V30 5685 H 524.399 -2.12176 -0.0975576 0
M  V30 5686 H 526.662 -0.942066 -0.105904 0
M  V30 5687 H 526.368 -3.37911 -0.975144 0
M  V30 5688 H 526.242 -2.73162 -2.6012 0
M  V30 5689 H 528.629 -1.76906 -2.36195 0
M  V30 5690 H 528.71 -2.45123 -0.731336 0
M  V30 5691 H 528.354 -4.78153 -1.71267 0
M  V30 5692 H 528.284 -4.06825 -3.34366 0
M  V30 5693 H 530.775 -3.15903 -2.07398 0
M  V30 5694 H 531.088 -6.78215 -3.70464 0
M  V30 5695 H 529.433 -6.09604 -3.33778 0
M  V30 5696 H 532.624 -3.95866 -2.49816 0
M  V30 5697 H 532.797 -5.61072 -3.24196 0
M  V30 5698 N 526.204 0.969867 -1.24223 0
M  V30 5699 C 527.167 2.04564 -1.03373 0
M  V30 5700 C 528.167 1.60798 0.00819206 0
M  V30 5701 O 529.357 1.72641 -0.232567 0
M  V30 5702 C 526.489 3.36163 -0.566343 0
M  V30 5703 H 527.682 2.24494 -1.98853 0
M  V30 5704 H 525.235 1.1448 -1.06415 0
M  V30 5705 H 525.97 3.21925 0.391751 0
M  V30 5706 H 525.755 3.69273 -1.31834 0
M  V30 5707 H 527.245 4.1526 -0.441435 0
M  V30 5708 N 527.682 1.05563 1.17022 0
M  V30 5709 C 528.612 0.681026 2.23348 0
M  V30 5710 C 529.593 -0.322983 1.67005 0
M  V30 5711 O 530.778 -0.199746 1.9317 0
M  V30 5712 C 527.908 0.0589053 3.4725 0
M  V30 5713 C 526.862 0.988082 4.16438 0
M  V30 5714 C 526.188 0.229646 5.34207 0
M  V30 5715 C 527.488 2.31388 4.68249 0
M  V30 5716 H 529.182 1.56993 2.54938 0
M  V30 5717 H 526.728 0.756302 1.2254 0
M  V30 5718 H 528.681 -0.214982 4.20851 0
M  V30 5719 H 527.405 -0.864968 3.14938 0
M  V30 5720 H 526.064 1.24659 3.44754 0
M  V30 5721 H 525.712 -0.697111 4.98146 0
M  V30 5722 H 525.412 0.848815 5.81437 0
M  V30 5723 H 526.936 -0.0368694 6.10589 0
M  V30 5724 H 528.35 2.09964 5.33468 0
M  V30 5725 H 526.747 2.88736 5.26072 0
M  V30 5726 H 527.817 2.94982 3.84855 0
M  V30 5727 N 529.16 -1.33526 0.837174 0
M  V30 5728 C 530.107 -2.29248 0.267169 0
M  V30 5729 C 531.077 -1.54252 -0.616071 0
M  V30 5730 O 532.262 -1.82559 -0.554699 0
M  V30 5731 C 529.402 -3.40638 -0.553152 0
M  V30 5732 C 528.515 -4.30548 0.353921 0
M  V30 5733 C 527.65 -5.29051 -0.477339 0
M  V30 5734 C 526.689 -6.106 0.42823 0
M  V30 5735 N 525.826 -7.01152 -0.364801 0
M  V30 5736 H 530.666 -2.77398 1.08877 0
M  V30 5737 H 528.203 -1.36496 0.54838 0
M  V30 5738 H 530.161 -4.03921 -1.04422 0
M  V30 5739 H 528.791 -2.93685 -1.33973 0
M  V30 5740 H 527.843 -3.68001 0.963289 0
M  V30 5741 H 529.155 -4.87631 1.04964 0
M  V30 5742 H 528.309 -5.97853 -1.0323 0
M  V30 5743 H 527.048 -4.72541 -1.2065 0
M  V30 5744 H 526.053 -5.40718 0.995219 0
M  V30 5745 H 527.278 -6.69193 1.15573 0
M  V30 5746 H 525.224 -6.47092 -1.07738 0
M  V30 5747 H 525.141 -7.5551 0.272238 0
M  V30 5748 H 526.409 -7.74263 -0.902054 0
M  V30 5749 N 530.638 -0.59345 -1.46 0
M  V30 5750 C 531.571 0.182196 -2.27472 0
M  V30 5751 C 532.549 0.886901 -1.36282 0
M  V30 5752 O 533.733 0.898627 -1.65701 0
M  V30 5753 C 530.86 1.26236 -3.14296 0
M  V30 5754 C 529.906 0.662331 -4.21326 0
M  V30 5755 S 530.739 -0.519017 -5.32979 0
M  V30 5756 C 531.895 0.562086 -6.23371 0
M  V30 5757 H 532.128 -0.509056 -2.92909 0
M  V30 5758 H 529.661 -0.380607 -1.49635 0
M  V30 5759 H 531.619 1.88075 -3.64881 0
M  V30 5760 H 530.28 1.92562 -2.48151 0
M  V30 5761 H 529.473 1.47461 -4.81945 0
M  V30 5762 H 529.075 0.119381 -3.73809 0
M  V30 5763 H 531.367 1.44494 -6.61912 0
M  V30 5764 H 532.31 -0.00760776 -7.081 0
M  V30 5765 H 532.718 0.871061 -5.57739 0
M  V30 5766 N 532.116 1.54067 -0.331816 0
M  V30 5767 C 533.362 2.01012 0.268667 0
M  V30 5768 C 533.695 1.2195 1.51136 0
M  V30 5769 O 532.97 0.303972 1.9211 0
M  V30 5770 C 533.253 3.55158 0.59456 0
M  V30 5771 C 533.106 4.4494 -0.659409 0
M  V30 5772 C 534.425 4.16939 1.4089 0
M  V30 5773 H 531.544 0.730698 0.0961756 0
M  V30 5774 H 534.186 1.84593 -0.450031 0
M  V30 5775 H 532.336 3.6928 1.20685 0
M  V30 5776 H 534.008 4.42675 -1.29756 0
M  V30 5777 H 532.251 4.1428 -1.28665 0
M  V30 5778 H 532.922 5.50643 -0.386804 0
M  V30 5779 H 535.398 4.06443 0.891272 0
M  V30 5780 H 534.274 5.24889 1.60569 0
M  V30 5781 H 534.535 3.70798 2.40752 0
M  V30 5782 N 533.594 0.0601682 1.57485 0
M  V30 5783 C 534.526 -0.94047 2.09016 0
M  V30 5784 C 535.539 -1.26897 1.01985 0
M  V30 5785 O 536.728 -1.22819 1.29529 0
M  V30 5786 C 533.828 -2.25955 2.52582 0
M  V30 5787 C 533.001 -2.11163 3.83052 0
M  V30 5788 C 532.06 -3.26273 4.12835 0
M  V30 5789 O 531.086 -3.01779 4.82616 0
M  V30 5790 N 532.288 -4.51022 3.65458 0
M  V30 5791 H 535.053 -0.500578 2.9549 0
M  V30 5792 H 532.614 -0.125852 1.6141 0
M  V30 5793 H 534.606 -3.01846 2.69575 0
M  V30 5794 H 533.176 -2.61481 1.71308 0
M  V30 5795 H 532.396 -1.19808 3.75552 0
M  V30 5796 H 533.684 -1.98517 4.68475 0
M  V30 5797 H 533.082 -4.73811 3.09062 0
M  V30 5798 H 531.639 -5.23978 3.87673 0
M  V30 5799 N 535.072 -1.5615 -0.213296 0
M  V30 5800 C 536.318 -1.79812 -0.937849 0
M  V30 5801 C 536.651 -0.631201 -1.83656 0
M  V30 5802 O 535.926 0.369165 -1.90964 0
M  V30 5803 C 536.209 -3.13613 -1.76972 0
M  V30 5804 C 536.062 -4.40766 -0.89695 0
M  V30 5805 C 537.381 -3.43931 -2.7459 0
M  V30 5806 H 534.5 -0.654138 -0.339518 0
M  V30 5807 H 537.142 -1.88877 -0.20623 0
M  V30 5808 H 535.292 -3.06015 -2.39347 0
M  V30 5809 H 536.964 -4.60392 -0.289306 0
M  V30 5810 H 535.207 -4.33326 -0.202756 0
M  V30 5811 H 535.878 -5.30843 -1.51358 0
M  V30 5812 H 538.354 -3.5171 -2.22349 0
M  V30 5813 H 537.23 -4.38706 -3.29891 0
M  V30 5814 H 537.491 -2.6651 -3.52739 0
M  V30 5815 N 536.55 0.480323 -1.50102 0
M  V30 5816 C 537.482 1.59669 -1.64433 0
M  V30 5817 C 538.495 1.54063 -0.52615 0
M  V30 5818 O 539.684 1.59619 -0.798992 0
M  V30 5819 C 536.784 2.98527 -1.6042 0
M  V30 5820 C 535.957 3.291 -2.88117 0
M  V30 5821 C 535.016 4.47468 -2.76873 0
M  V30 5822 O 534.042 4.4823 -3.50825 0
M  V30 5823 N 535.244 5.48593 -1.89806 0
M  V30 5824 H 538.009 1.47795 -2.60723 0
M  V30 5825 H 535.57 0.66858 -1.4745 0
M  V30 5826 H 537.562 3.75666 -1.50523 0
M  V30 5827 H 536.132 3.04218 -0.719036 0
M  V30 5828 H 535.352 2.40662 -3.12211 0
M  V30 5829 H 536.64 3.46334 -3.72734 0
M  V30 5830 H 536.038 5.50791 -1.2902 0
M  V30 5831 H 534.595 6.24752 -1.85819 0
M  V30 5832 N 538.028 1.39524 0.732853 0
M  V30 5833 C 539.276 1.36594 1.48951 0
M  V30 5834 C 539.597 -0.0367507 1.94965 0
M  V30 5835 O 538.867 -0.988391 1.69138 0
M  V30 5836 H 537.447 0.502673 0.552566 0
M  V30 5837 H 540.109 1.74411 0.869869 0
M  V30 5838 H 539.205 2.03 2.3706 0
M  V30 5839 N 539.506 -0.963266 1.24736 0
M  V30 5840 C 540.439 -2.05758 0.986852 0
M  V30 5841 C 541.417 -1.62398 -0.0809272 0
M  V30 5842 O 542.601 -1.88414 0.0569347 0
M  V30 5843 C 539.728 -3.35135 0.490095 0
M  V30 5844 C 538.774 -3.97451 1.54709 0
M  V30 5845 S 539.607 -4.34519 3.12976 0
M  V30 5846 C 540.763 -5.67026 2.65014 0
M  V30 5847 H 540.996 -2.27539 1.91346 0
M  V30 5848 H 538.529 -1.10176 1.08169 0
M  V30 5849 H 540.487 -4.09962 0.21012 0
M  V30 5850 H 539.148 -3.11335 -0.415873 0
M  V30 5851 H 538.341 -4.90704 1.15003 0
M  V30 5852 H 537.943 -3.29071 1.77731 0
M  V30 5853 H 540.235 -6.44748 2.08102 0
M  V30 5854 H 541.178 -6.11594 3.56873 0
M  V30 5855 H 541.586 -5.25847 2.05294 0
M  V30 5856 N 540.985 -1.06182 -1.16461 0
M  V30 5857 C 542.213 -0.798583 -1.90867 0
M  V30 5858 C 542.628 0.646921 -1.77371 0
M  V30 5859 O 541.985 1.44279 -1.11758 0
M  V30 5860 C 542.036 -1.18258 -3.4161 0
M  V30 5861 O 541.757 -2.57135 -3.54701 0
M  V30 5862 C 543.258 -0.946917 -4.33069 0
M  V30 5863 H 540.478 -0.289603 -0.605286 0
M  V30 5864 H 543.022 -1.41515 -1.47627 0
M  V30 5865 H 541.177 -0.610562 -3.82558 0
M  V30 5866 H 541.591 -2.72477 -4.4817 0
M  V30 5867 H 543.065 -1.26523 -5.37304 0
M  V30 5868 H 543.542 0.117406 -4.39043 0
M  V30 5869 H 544.148 -1.50326 -3.97847 0
M  V30 5870 N 542.463 1.3308 -0.844243 0
M  V30 5871 C 543.711 1.97215 -0.441676 0
M  V30 5872 C 544.032 1.67185 1.0037 0
M  V30 5873 O 543.302 0.973588 1.69994 0
M  V30 5874 H 541.882 0.72959 -0.160335 0
M  V30 5875 H 544.544 1.62348 -1.07838 0
M  V30 5876 H 543.64 3.06698 -0.57815 0
M  V30 5877 N 543.941 0.601185 1.45683 0
M  V30 5878 C 544.889 -0.133955 2.32214 0
M  V30 5879 C 545.883 -0.866034 1.45589 0
M  V30 5880 O 547.089 -0.782326 1.6211 0
M  V30 5881 H 543.464 -0.0620613 0.749435 0
M  V30 5882 H 545.435 0.614389 2.92007 0
M  V30 5883 C 544.184 -1.12216 3.29094 0
M  V30 5884 H 543.507 -0.568273 3.95741 0
M  V30 5885 H 544.947 -1.60659 3.92383 0
M  V30 5886 C 543.406 -2.19251 2.55794 0
M  V30 5887 O 543.936 -3.26894 2.33459 0
M  V30 5888 N 542.142 -1.9436 2.16039 0
M  V30 5889 H 541.689 -1.06829 2.34404 0
M  V30 5890 H 541.647 -2.66181 1.67318 0
M  V30 5891 N 545.419 -1.53889 0.339982 0
M  V30 5892 C 546.668 -2.00035 -0.258604 0
M  V30 5893 C 546.981 -1.23179 -1.51942 0
M  V30 5894 O 548.187 -1.59784 -2.19503 0
M  V30 5895 C 546.643 -3.56249 -0.511359 0
M  V30 5896 C 546.251 -4.41957 0.733349 0
M  V30 5897 C 547.995 -4.1082 -1.069 0
M  V30 5898 C 545.902 -5.89673 0.451591 0
M  V30 5899 H 544.832 -0.747284 -0.10041 0
M  V30 5900 H 547.483 -1.77776 0.454758 0
M  V30 5901 H 545.865 -3.7456 -1.28533 0
M  V30 5902 H 547.039 -4.35421 1.50815 0
M  V30 5903 H 545.354 -3.9836 1.21237 0
M  V30 5904 H 547.951 -5.18789 -1.2947 0
M  V30 5905 H 548.294 -3.63817 -2.02343 0
M  V30 5906 H 548.827 -3.96205 -0.355817 0
M  V30 5907 H 545.566 -6.40903 1.37565 0
M  V30 5908 H 545.086 -5.99122 -0.285193 0
M  V30 5909 H 546.765 -6.46965 0.0675067 0
M  V30 5910 N 546.897 -0.0685191 -1.57451 0
M  V30 5911 C 547.829 0.929372 -2.09512 0
M  V30 5912 C 548.842 1.26354 -1.02657 0
M  V30 5913 O 550.031 1.2213 -1.30179 0
M  V30 5914 C 547.131 2.24612 -2.53777 0
M  V30 5915 C 546.304 2.09128 -3.84167 0
M  V30 5916 C 545.363 3.24079 -4.14559 0
M  V30 5917 O 544.389 2.99215 -4.8421 0
M  V30 5918 N 545.591 4.49077 -3.67845 0
M  V30 5919 H 548.356 0.484901 -2.95751 0
M  V30 5920 H 545.917 0.11729 -1.61475 0
M  V30 5921 H 547.909 3.00412 -2.71172 0
M  V30 5922 H 546.479 2.60569 -1.72692 0
M  V30 5923 H 545.699 1.17815 -3.76182 0
M  V30 5924 H 546.987 1.9603 -4.69521 0
M  V30 5925 H 546.385 4.72165 -3.11571 0
M  V30 5926 H 544.942 5.21915 -3.90446 0
M  V30 5927 N 548.375 1.56261 0.205012 0
M  V30 5928 C 549.622 1.8004 0.926927 0
M  V30 5929 C 549.95 0.640086 1.83666 0
M  V30 5930 O 549.205 -0.374702 1.92079 0
M  V30 5931 C 549.504 3.09722 1.78345 0
M  V30 5932 C 549.17 4.39082 1.02555 0
M  V30 5933 C 547.832 4.74226 0.816256 0
M  V30 5934 C 550.184 5.18877 0.491559 0
M  V30 5935 C 547.512 5.86668 0.0613287 0
M  V30 5936 C 549.864 6.32105 -0.250107 0
M  V30 5937 C 548.528 6.6584 -0.470508 0
M  V30 5938 H 547.798 0.658812 0.339187 0
M  V30 5939 H 550.445 1.90515 0.19395 0
M  V30 5940 H 548.75 2.9444 2.5848 0
M  V30 5941 H 550.447 3.25324 2.34446 0
M  V30 5942 H 547.037 4.11497 1.19868 0
M  V30 5943 H 551.221 4.92147 0.640684 0
M  V30 5944 H 546.477 6.11283 -0.119501 0
M  V30 5945 H 550.651 6.93157 -0.671307 0
M  V30 5946 H 548.278 7.5281 -1.05739 0
M  V30 5947 N 549.853 -0.472356 1.50355 0
M  V30 5948 C 551.13 -1.23356 1.51798 0
M  V30 5949 C 551.51 -2.09469 0.26193 0
M  V30 5950 O 550.858 -2.15677 -0.754691 0
M  V30 5951 C 551.068 -2.06568 2.81302 0
M  V30 5952 C 552.416 -2.648 3.31913 0
M  V30 5953 O 553.44 -2.16812 2.82614 0
M  V30 5954 O 552.299 -3.52231 4.17846 0
M  V30 5955 H 549.393 -0.559707 0.608816 0
M  V30 5956 H 551.939 -0.48428 1.62643 0
M  V30 5957 H 550.711 -1.43103 3.64194 0
M  V30 5958 H 550.334 -2.88633 2.73454 0
M  V30 5959 N 551.331 -1.39911 -0.725443 0
M  V30 5960 C 552.559 -1.40949 -1.51463 0
M  V30 5961 C 552.974 -0.0065242 -1.88799 0
M  V30 5962 O 552.331 0.967163 -1.54765 0
M  V30 5963 C 552.382 -2.29119 -2.79619 0
M  V30 5964 O 552.103 -3.63952 -2.43866 0
M  V30 5965 C 553.604 -2.38642 -3.73584 0
M  V30 5966 H 550.824 -0.481091 -0.467752 0
M  V30 5967 H 553.368 -1.83843 -0.895651 0
M  V30 5968 H 551.523 -1.89612 -3.37826 0
M  V30 5969 H 551.937 -4.10677 -3.26258 0
M  V30 5970 H 553.411 -3.04563 -4.60375 0
M  V30 5971 H 553.888 -1.40846 -4.16004 0
M  V30 5972 H 554.494 -2.78659 -3.21293 0
M  V30 5973 N 552.809 0.956637 -1.25245 0
M  V30 5974 C 554.039 1.7332 -1.12445 0
M  V30 5975 C 554.447 1.86392 0.324732 0
M  V30 5976 O 553.79 1.35967 1.23526 0
M  V30 5977 C 553.852 3.16603 -1.70303 0
M  V30 5978 C 553.516 3.26966 -3.19284 0
M  V30 5979 C 554.513 3.11434 -4.16299 0
M  V30 5980 C 552.198 3.50851 -3.59456 0
M  V30 5981 C 554.192 3.1963 -5.51467 0
M  V30 5982 C 551.879 3.58684 -4.94761 0
M  V30 5983 C 552.877 3.43087 -5.90576 0
M  V30 5984 O 552.565 3.50598 -7.2342 0
M  V30 5985 H 552.297 0.549981 -0.393061 0
M  V30 5986 H 554.851 1.20892 -1.66055 0
M  V30 5987 H 553.081 3.70385 -1.11138 0
M  V30 5988 H 554.77 3.76109 -1.52632 0
M  V30 5989 H 555.536 2.92853 -3.86604 0
M  V30 5990 H 551.415 3.62053 -2.85375 0
M  V30 5991 H 554.959 3.07373 -6.26233 0
M  V30 5992 H 550.856 3.76782 -5.24124 0
M  V30 5993 H 551.624 3.67242 -7.31489 0
M  V30 5994 N 554.287 1.06798 1.15896 0
M  V30 5995 C 555.535 0.786211 1.8618 0
M  V30 5996 C 555.856 -0.689547 1.82401 0
M  V30 5997 O 555.126 -1.49913 1.26107 0
M  V30 5998 H 553.706 0.287843 0.689315 0
M  V30 5999 H 556.368 1.35055 1.40521 0
M  V30 6000 H 555.464 1.1157 2.91477 0
M  V30 6001 N 555.766 -1.3263 0.851289 0
M  V30 6002 C 557.182 -1.50162 0.5407 0
M  V30 6003 C 557.382 -1.78788 -0.929369 0
M  V30 6004 O 556.438 -1.85545 -1.71258 0
M  V30 6005 C 557.751 -2.64803 1.42478 0
M  V30 6006 C 559.299 -2.78688 1.42485 0
M  V30 6007 C 559.774 -3.96405 2.29407 0
M  V30 6008 N 561.265 -4.0366 2.27184 0
M  V30 6009 C 562 -4.93971 2.9117 0
M  V30 6010 N 561.496 -5.89313 3.64256 0
M  V30 6011 N 563.289 -4.87066 2.80576 0
M  V30 6012 H 555.44 -1.12315 1.80275 0
M  V30 6013 H 557.703 -0.553266 0.769806 0
M  V30 6014 H 557.409 -2.50368 2.46999 0
M  V30 6015 H 557.283 -3.60506 1.10974 0
M  V30 6016 H 559.67 -2.92547 0.387304 0
M  V30 6017 H 559.751 -1.83708 1.78002 0
M  V30 6018 H 559.395 -3.83304 3.33228 0
M  V30 6019 H 559.325 -4.90654 1.91224 0
M  V30 6020 H 561.816 -3.35435 1.74045 0
M  V30 6021 H 562.129 -6.54913 4.10255 0
M  V30 6022 H 560.474 -5.8935 3.68364 0
M  V30 6023 H 563.665 -4.11552 2.23031 0
M  V30 6024 H 563.838 -5.57248 3.30725 0
M  V30 6025 N 557.244 -0.608902 -1.45362 0
M  V30 6026 C 558.66 -0.272659 -1.57254 0
M  V30 6027 C 558.86 1.22477 -1.60005 0
M  V30 6028 O 557.916 2.00785 -1.53106 0
M  V30 6029 C 559.229 -0.944991 -2.85465 0
M  V30 6030 C 560.777 -0.921033 -2.99142 0
M  V30 6031 C 561.252 -1.5734 -4.30126 0
M  V30 6032 N 562.743 -1.53895 -4.36887 0
M  V30 6033 C 563.478 -2.01286 -5.36909 0
M  V30 6034 N 562.974 -2.56768 -6.43461 0
M  V30 6035 N 564.767 -1.92046 -5.28275 0
M  V30 6036 H 556.918 -1.58117 -1.4182 0
M  V30 6037 H 559.181 -0.662437 -0.678146 0
M  V30 6038 H 558.887 -1.99941 -2.89338 0
M  V30 6039 H 558.761 -0.469079 -3.74272 0
M  V30 6040 H 561.148 0.124846 -2.94836 0
M  V30 6041 H 561.229 -1.43522 -2.11743 0
M  V30 6042 H 560.873 -2.61862 -4.35191 0
M  V30 6043 H 560.803 -1.03422 -5.16344 0
M  V30 6044 H 563.294 -1.13366 -3.60495 0
M  V30 6045 H 563.607 -2.9072 -7.16032 0
M  V30 6046 H 561.952 -2.60808 -6.44208 0
M  V30 6047 H 565.143 -1.48439 -4.43941 0
M  V30 6048 H 565.316 -2.29293 -6.06077 0
M  V30 6049 N 558.722 1.53707 -0.348139 0
M  V30 6050 C 559.95 2.05406 0.248224 0
M  V30 6051 C 560.365 1.22282 1.43849 0
M  V30 6052 O 559.722 0.259244 1.80649 0
M  V30 6053 C 559.773 3.55446 0.658793 0
M  V30 6054 O 559.494 4.35417 -0.484149 0
M  V30 6055 C 560.995 4.23335 1.31539 0
M  V30 6056 H 558.215 0.669344 0.0471075 0
M  V30 6057 H 560.759 1.98257 -0.501456 0
M  V30 6058 H 558.914 3.62803 1.35841 0
M  V30 6059 H 559.328 5.24268 -0.155949 0
M  V30 6060 H 560.802 5.29692 1.55338 0
M  V30 6061 H 561.279 3.75967 2.27036 0
M  V30 6062 H 561.885 4.20184 0.657683 0
M  V30 6063 N 560.2 0.0768682 1.57412 0
M  V30 6064 C 561.148 -0.906229 2.1422 0
M  V30 6065 C 562.142 -1.30477 1.08037 0
M  V30 6066 O 563.348 -1.28143 1.2641 0
M  V30 6067 H 559.723 -0.310207 0.685037 0
M  V30 6068 H 561.694 -0.402228 2.95677 0
M  V30 6069 C 560.443 -2.16245 2.72274 0
M  V30 6070 H 559.766 -1.86463 3.53655 0
M  V30 6071 H 561.206 -2.83134 3.15613 0
M  V30 6072 C 559.665 -2.92437 1.67279 0
M  V30 6073 O 560.195 -3.86322 1.10081 0
M  V30 6074 N 558.401 -2.55637 1.38195 0
M  V30 6075 H 557.948 -1.79363 1.84897 0
M  V30 6076 H 557.906 -3.06919 0.681787 0
M  V30 6077 N 561.678 -1.56367 -0.196722 0
M  V30 6078 C 562.908 -1.84371 -0.932254 0
M  V30 6079 C 563.316 -0.657013 -1.77426 0
M  V30 6080 O 562.659 0.383576 -1.79651 0
M  V30 6081 C 562.721 -3.06454 -1.87952 0
M  V30 6082 C 562.385 -4.40425 -1.21962 0
M  V30 6083 C 563.382 -5.16457 -0.597343 0
M  V30 6084 C 561.067 -4.8716 -1.22396 0
M  V30 6085 C 563.061 -6.37399 0.0117913 0
M  V30 6086 C 560.748 -6.08038 -0.610995 0
M  V30 6087 C 561.746 -6.83 0.00580487 0
M  V30 6088 O 561.434 -8.01589 0.609173 0
M  V30 6089 H 561.166 -0.616377 -0.277589 0
M  V30 6090 H 563.72 -2.04329 -0.209452 0
M  V30 6091 H 561.95 -2.82377 -2.64197 0
M  V30 6092 H 563.639 -3.21118 -2.48271 0
M  V30 6093 H 564.405 -4.81445 -0.586142 0
M  V30 6094 H 560.284 -4.2877 -1.69345 0
M  V30 6095 H 563.828 -6.9585 0.493836 0
M  V30 6096 H 559.725 -6.42519 -0.619693 0
M  V30 6097 H 560.493 -8.16935 0.505919 0
M  V30 6098 N 563.156 0.464375 -1.50603 0
M  V30 6099 C 564.384 1.23907 -1.65695 0
M  V30 6100 C 564.799 1.85658 -0.343027 0
M  V30 6101 O 564.156 1.69529 0.675739 0
M  V30 6102 C 564.207 2.3429 -2.75301 0
M  V30 6103 O 563.928 1.7507 -4.01599 0
M  V30 6104 C 565.429 3.25051 -3.01424 0
M  V30 6105 H 562.649 0.374485 -0.556778 0
M  V30 6106 H 565.193 0.55353 -1.96866 0
M  V30 6107 H 563.348 2.98607 -2.46804 0
M  V30 6108 H 563.762 2.47812 -4.62266 0
M  V30 6109 H 565.236 3.98699 -3.81763 0
M  V30 6110 H 565.713 3.84227 -2.12758 0
M  V30 6111 H 566.319 2.66463 -3.31477 0
M  V30 6112 N 564.634 1.40294 0.718013 0
M  V30 6113 C 565.883 1.37746 1.4734 0
M  V30 6114 C 566.196 -0.0180754 1.95592 0
M  V30 6115 O 567.402 -0.166166 2.70991 0
M  V30 6116 C 565.858 2.4208 2.66318 0
M  V30 6117 C 565.466 3.87432 2.24945 0
M  V30 6118 C 567.21 2.48635 3.44065 0
M  V30 6119 C 565.117 4.83368 3.40748 0
M  V30 6120 H 564.047 0.512165 0.553356 0
M  V30 6121 H 566.698 1.66019 0.781661 0
M  V30 6122 H 565.08 2.06903 3.3765 0
M  V30 6123 H 566.254 4.3174 1.6105 0
M  V30 6124 H 564.569 3.8433 1.60249 0
M  V30 6125 H 567.166 3.17499 4.30231 0
M  V30 6126 H 567.509 1.51611 3.87711 0
M  V30 6127 H 568.042 2.82791 2.79775 0
M  V30 6128 H 564.781 5.81716 3.02136 0
M  V30 6129 H 564.301 4.43726 4.03568 0
M  V30 6130 H 565.98 5.03074 4.06848 0
M  V30 6131 N 566.112 -0.949982 1.2575 0
M  V30 6132 C 567.389 -1.6718 1.01539 0
M  V30 6133 C 567.769 -2.06095 -0.456942 0
M  V30 6134 O 567.117 -1.77792 -1.43534 0
M  V30 6135 C 567.327 -2.8906 1.95564 0
M  V30 6136 C 568.675 -3.60909 2.23673 0
M  V30 6137 O 569.699 -2.9915 1.9336 0
M  V30 6138 O 568.558 -4.72127 2.75243 0
M  V30 6139 H 565.652 -0.731697 0.385419 0
M  V30 6140 H 568.198 -1.00249 1.36924 0
M  V30 6141 H 566.97 -2.57128 2.94959 0
M  V30 6142 H 566.593 -3.63719 1.60605 0
M  V30 6143 N 567.59 -1.07411 -1.15328 0
M  V30 6144 C 568.836 -0.798831 -1.86404 0
M  V30 6145 C 569.169 0.673433 -1.8215 0
M  V30 6146 O 568.444 1.49428 -1.24505 0
M  V30 6147 C 568.727 -1.30846 -3.35487 0
M  V30 6148 C 568.58 -2.84532 -3.4837 0
M  V30 6149 C 569.899 -0.925486 -4.30259 0
M  V30 6150 H 567.018 -0.291659 -0.676834 0
M  V30 6151 H 569.66 -1.332 -1.35491 0
M  V30 6152 H 567.81 -0.854916 -3.78977 0
M  V30 6153 H 569.482 -3.3818 -3.13739 0
M  V30 6154 H 567.725 -3.22699 -2.8991 0
M  V30 6155 H 568.396 -3.15259 -4.53118 0
M  V30 6156 H 570.872 -1.3163 -3.94731 0
M  V30 6157 H 569.748 -1.3094 -5.33053 0
M  V30 6158 H 570.009 0.168525 -4.41779 0
M  V30 6159 N 569.068 1.32177 -0.85831 0
M  V30 6160 C 570.298 2.01021 -0.476889 0
M  V30 6161 C 570.706 1.64653 0.931995 0
M  V30 6162 O 570.049 0.865713 1.62022 0
M  V30 6163 C 570.111 3.55413 -0.540528 0
M  V30 6164 C 569.775 4.1522 -1.90895 0
M  V30 6165 C 570.772 4.3318 -2.87491 0
M  V30 6166 C 568.457 4.51212 -2.20709 0
M  V30 6167 C 570.451 4.86306 -4.1205 0
M  V30 6168 C 568.138 5.04042 -3.45521 0
M  V30 6169 C 569.136 5.21538 -4.41007 0
M  V30 6170 O 568.824 5.73238 -5.63608 0
M  V30 6171 H 568.556 0.650059 -0.18547 0
M  V30 6172 H 571.11 1.69648 -1.15796 0
M  V30 6173 H 569.34 3.86196 0.19741 0
M  V30 6174 H 571.029 4.05526 -0.174191 0
M  V30 6175 H 571.795 4.05704 -2.65762 0
M  V30 6176 H 567.674 4.36878 -1.4717 0
M  V30 6177 H 571.218 4.99877 -4.86589 0
M  V30 6178 H 567.115 5.30952 -3.67098 0
M  V30 6179 H 567.883 5.91625 -5.65617 0
M  V30 6180 N 570.547 0.616602 1.45037 0
M  V30 6181 C 571.457 -0.0985401 2.34393 0
M  V30 6182 C 572.473 -0.850971 1.51771 0
M  V30 6183 O 573.649 -0.806521 1.84546 0
M  V30 6184 C 570.714 -1.07748 3.29532 0
M  V30 6185 C 569.775 -0.326022 4.2806 0
M  V30 6186 C 569.008 -1.25833 5.18654 0
M  V30 6187 O 569.231 -2.49652 5.12864 0
M  V30 6188 O 568.165 -0.750512 5.97203 0
M  V30 6189 H 571.991 0.636016 2.96966 0
M  V30 6190 H 569.576 0.376832 1.44569 0
M  V30 6191 H 571.458 -1.64107 3.88133 0
M  V30 6192 H 570.133 -1.79291 2.69512 0
M  V30 6193 H 569.04 0.280253 3.73049 0
M  V30 6194 H 570.373 0.349091 4.9096 0
M  V30 6195 N 572.025 -1.5352 0.356285 0
M  V30 6196 C 572.958 -2.2177 -0.537913 0
M  V30 6197 C 573.936 -1.20626 -1.09033 0
M  V30 6198 O 575.12 -1.49494 -1.1482 0
M  V30 6199 C 572.247 -2.90513 -1.74126 0
M  V30 6200 C 571.293 -4.05652 -1.31715 0
M  V30 6201 S 572.126 -5.34505 -0.326236 0
M  V30 6202 C 573.282 -6.06757 -1.53612 0
M  V30 6203 H 573.515 -2.97271 0.0417411 0
M  V30 6204 H 571.048 -1.53761 0.140372 0
M  V30 6205 H 573.006 -3.30735 -2.43155 0
M  V30 6206 H 571.667 -2.14754 -2.29215 0
M  V30 6207 H 570.86 -4.52733 -2.21471 0
M  V30 6208 H 570.462 -3.67272 -0.706183 0
M  V30 6209 H 572.754 -6.30924 -2.46863 0
M  V30 6210 H 573.697 -6.99395 -1.10687 0
M  V30 6211 H 574.105 -5.3708 -1.73796 0
M  V30 6212 N 573.503 -0.0852151 -1.57369 0
M  V30 6213 C 574.45 0.877268 -2.13478 0
M  V30 6214 C 575.42 1.28642 -1.05073 0
M  V30 6215 O 576.605 1.36992 -1.32808 0
M  V30 6216 C 573.745 2.13464 -2.71159 0
M  V30 6217 C 572.858 1.77691 -3.93764 0
M  V30 6218 C 571.993 2.98139 -4.39643 0
M  V30 6219 C 571.032 2.58447 -5.54862 0
M  V30 6220 N 570.169 3.71698 -5.95639 0
M  V30 6221 H 575.009 0.391933 -2.95411 0
M  V30 6222 H 572.546 0.181796 -1.45972 0
M  V30 6223 H 574.504 2.87086 -3.02717 0
M  V30 6224 H 573.134 2.59514 -1.91969 0
M  V30 6225 H 572.186 0.940768 -3.68583 0
M  V30 6226 H 573.498 1.44497 -4.77412 0
M  V30 6227 H 572.652 3.80026 -4.72933 0
M  V30 6228 H 571.391 3.34536 -3.54876 0
M  V30 6229 H 570.396 1.74984 -5.21211 0
M  V30 6230 H 571.621 2.23205 -6.41371 0
M  V30 6231 H 569.567 4.07831 -5.13819 0
M  V30 6232 H 569.484 3.42317 -6.74059 0
M  V30 6233 H 570.752 4.54123 -6.33555 0
M  V30 6234 N 574.981 1.5647 0.188427 0
M  V30 6235 C 576.227 1.81281 0.909124 0
M  V30 6236 C 576.56 0.66034 1.82628 0
M  V30 6237 O 575.835 -0.338737 1.91528 0
M  V30 6238 C 576.118 3.16388 1.7196 0
M  V30 6239 C 575.971 4.42137 0.826714 0
M  V30 6240 C 577.29 3.48256 2.69083 0
M  V30 6241 H 574.409 0.659457 0.329068 0
M  V30 6242 H 577.051 1.89182 0.176156 0
M  V30 6243 H 575.201 3.09784 2.34448 0
M  V30 6244 H 576.873 4.60794 0.216025 0
M  V30 6245 H 575.116 4.33594 0.133792 0
M  V30 6246 H 575.787 5.33184 1.42893 0
M  V30 6247 H 578.263 3.55203 2.16726 0
M  V30 6248 H 577.139 4.43899 3.2287 0
M  V30 6249 H 577.4 2.72088 3.48455 0
M  V30 6250 N 576.459 -0.456382 1.50847 0
M  V30 6251 C 577.684 -1.2349 1.66628 0
M  V30 6252 C 578.109 -1.84715 0.355254 0
M  V30 6253 O 577.467 -1.67961 -0.682559 0
M  V30 6254 C 577.515 -2.30865 2.77009 0
M  V30 6255 O 576.619 -3.35882 2.39285 0
M  V30 6256 H 575.96 -0.36266 0.556214 0
M  V30 6257 H 578.49 -0.541374 1.97308 0
M  V30 6258 H 578.5 -2.75949 3.00526 0
M  V30 6259 H 577.175 -1.85677 3.72152 0
M  V30 6260 H 575.752 -2.96406 2.26269 0
M  V30 6261 N 577.937 -1.40673 -0.710563 0
M  V30 6262 C 579.185 -1.38947 -1.46759 0
M  V30 6263 C 579.506 0.00572879 -1.94999 0
M  V30 6264 O 578.776 0.961358 -1.70689 0
M  V30 6265 H 577.356 -0.5114 -0.544499 0
M  V30 6266 H 580.018 -1.75773 -0.842012 0
M  V30 6267 H 579.114 -2.06745 -2.33801 0
M  V30 6268 N 579.415 0.9433 -1.26252 0
M  V30 6269 C 580.64 1.72898 -1.14547 0
M  V30 6270 C 581.065 1.85761 0.295743 0
M  V30 6271 O 580.423 1.3463 1.21427 0
M  V30 6272 C 580.471 3.11471 -1.8171 0
M  V30 6273 O 579.575 3.97336 -1.10445 0
M  V30 6274 H 578.916 0.530555 -0.399259 0
M  V30 6275 H 581.446 1.18159 -1.67032 0
M  V30 6276 H 581.456 3.61872 -1.88449 0
M  V30 6277 H 580.131 3.01425 -2.86558 0
M  V30 6278 H 578.708 3.55788 -1.11666 0
M  V30 6279 N 580.893 1.08022 1.14757 0
M  V30 6280 C 582.309 0.807072 1.3769 0
M  V30 6281 C 582.509 -0.585504 1.92806 0
M  V30 6282 O 581.565 -1.34301 2.13821 0
M  V30 6283 C 582.878 1.88651 2.34161 0
M  V30 6284 C 584.426 1.91206 2.47809 0
M  V30 6285 C 584.901 2.98253 3.47576 0
M  V30 6286 N 586.392 2.974 3.55117 0
M  V30 6287 C 587.127 3.76872 4.32152 0
M  V30 6288 N 586.623 4.66212 5.12463 0
M  V30 6289 N 588.416 3.6519 4.27309 0
M  V30 6290 H 580.567 1.97824 0.77326 0
M  V30 6291 H 582.83 0.85826 0.402608 0
M  V30 6292 H 582.536 2.88749 2.00791 0
M  V30 6293 H 582.41 1.75244 3.3402 0
M  V30 6294 H 584.797 0.917564 2.80472 0
M  V30 6295 H 584.878 2.08691 1.47925 0
M  V30 6296 H 584.522 3.97907 3.15646 0
M  V30 6297 H 584.452 2.78014 4.47231 0
M  V30 6298 H 586.943 2.32643 2.97801 0
M  V30 6299 H 587.256 5.23468 5.68508 0
M  V30 6300 H 585.601 4.70257 5.11745 0
M  V30 6301 H 588.792 2.94765 3.63636 0
M  V30 6302 H 588.965 4.27366 4.87095 0
M  V30 6303 N 582.371 -1.3172 0.865308 0
M  V30 6304 C 583.318 -2.2863 0.315736 0
M  V30 6305 C 584.288 -1.55524 -0.583213 0
M  V30 6306 O 585.473 -1.83694 -0.51585 0
M  V30 6307 C 582.613 -3.41735 -0.480773 0
M  V30 6308 C 581.726 -4.297 0.445167 0
M  V30 6309 C 580.861 -5.29944 -0.365012 0
M  V30 6310 C 579.9 -6.09554 0.557651 0
M  V30 6311 N 579.037 -7.01768 -0.215994 0
M  V30 6312 H 583.877 -2.75026 1.14736 0
M  V30 6313 H 581.414 -1.35302 0.577209 0
M  V30 6314 H 583.372 -4.06045 -0.958306 0
M  V30 6315 H 582.002 -2.96461 -1.27714 0
M  V30 6316 H 581.054 -3.65875 1.04113 0
M  V30 6317 H 582.366 -4.85295 1.15284 0
M  V30 6318 H 581.52 -5.99908 -0.905255 0
M  V30 6319 H 580.259 -4.74994 -1.106 0
M  V30 6320 H 579.264 -5.38485 1.10969 0
M  V30 6321 H 580.489 -6.66591 1.29742 0
M  V30 6322 H 578.435 -6.49232 -0.939878 0
M  V30 6323 H 578.352 -7.54762 0.432431 0
M  V30 6324 H 579.62 -7.76002 -0.737618 0
M  V30 6325 N 583.85 -0.624285 -1.44708 0
M  V30 6326 C 584.812 0.0749638 -2.29077 0
M  V30 6327 C 585.812 0.778965 -1.40673 0
M  V30 6328 O 587.003 0.624591 -1.62618 0
M  V30 6329 C 584.135 1.11663 -3.22094 0
M  V30 6330 H 585.327 -0.667013 -2.92388 0
M  V30 6331 H 582.88 -0.384098 -1.51507 0
M  V30 6332 H 583.615 1.88881 -2.63618 0
M  V30 6333 H 583.401 0.61583 -3.87234 0
M  V30 6334 H 584.891 1.60585 -3.8549 0
M  V30 6335 N 585.328 1.53329 -0.364422 0
M  V30 6336 C 586.576 2.00842 0.225189 0
M  V30 6337 C 586.897 1.25345 1.49378 0
M  V30 6338 O 586.167 0.366396 1.92443 0
M  V30 6339 H 584.747 0.742009 0.0862027 0
M  V30 6340 H 587.409 1.8863 -0.490389 0
M  V30 6341 H 586.505 3.08795 0.452987 0
M  V30 6342 N 586.806 0.0935595 1.57322 0
M  V30 6343 C 588.036 -0.578095 1.98347 0
M  V30 6344 C 588.444 -1.62357 0.971441 0
M  V30 6345 O 587.787 -1.83639 -0.0473959 0
M  V30 6346 C 587.849 -1.28525 3.3574 0
M  V30 6347 C 587.513 -0.390714 4.55327 0
M  V30 6348 C 588.51 0.360522 5.18648 0
M  V30 6349 C 586.195 -0.309221 5.01347 0
M  V30 6350 C 588.189 1.18125 6.26359 0
M  V30 6351 C 585.876 0.515157 6.08925 0
M  V30 6352 C 586.874 1.25904 6.71295 0
M  V30 6353 O 586.562 2.06978 7.76798 0
M  V30 6354 H 586.294 -0.159767 0.656849 0
M  V30 6355 H 588.848 0.169058 2.04703 0
M  V30 6356 H 587.078 -2.07894 3.26063 0
M  V30 6357 H 588.767 -1.85128 3.61223 0
M  V30 6358 H 589.533 0.307285 4.84026 0
M  V30 6359 H 585.412 -0.877881 4.52564 0
M  V30 6360 H 588.956 1.76236 6.74971 0
M  V30 6361 H 584.853 0.56988 6.42979 0
M  V30 6362 H 585.621 1.99644 7.93779 0
M  V30 6363 N 588.284 -1.56567 -0.180126 0
M  V30 6364 C 589.53 -1.82658 -0.894859 0
M  V30 6365 C 589.885 -0.672826 -1.80252 0
M  V30 6366 O 589.178 0.331227 -1.88715 0
M  V30 6367 C 589.372 -3.1252 -1.73395 0
M  V30 6368 C 589.201 -4.40417 -0.909028 0
M  V30 6369 C 587.971 -5.01872 -0.587562 0
M  V30 6370 C 590.169 -5.13669 -0.254698 0
M  V30 6371 N 588.151 -6.13373 0.254428 0
M  V30 6372 C 589.522 -6.18373 0.448837 0
M  V30 6373 C 591.577 -4.97603 -0.171958 0
M  V30 6374 C 590.28 -7.08753 1.22725 0
M  V30 6375 C 592.306 -5.88418 0.593101 0
M  V30 6376 C 591.668 -6.92579 1.28503 0
M  V30 6377 H 587.767 -0.719493 -0.306356 0
M  V30 6378 H 590.351 -1.94021 -0.16247 0
M  V30 6379 H 588.522 -3.02365 -2.43783 0
M  V30 6380 H 590.254 -3.2664 -2.38931 0
M  V30 6381 H 587.009 -4.64666 -0.915557 0
M  V30 6382 H 587.433 -6.73721 0.665474 0
M  V30 6383 H 592.075 -4.17089 -0.692555 0
M  V30 6384 H 589.793 -7.88718 1.75923 0
M  V30 6385 H 593.379 -5.78059 0.658674 0
M  V30 6386 H 592.259 -7.61638 1.86754 0
M  V30 6387 N 589.762 0.448376 -1.51087 0
M  V30 6388 C 590.71 1.56407 -1.72161 0
M  V30 6389 C 591.704 1.58878 -0.587721 0
M  V30 6390 O 592.91 1.62755 -0.768822 0
M  V30 6391 H 589.285 0.519423 -0.543786 0
M  V30 6392 H 591.256 1.35803 -2.65707 0
M  V30 6393 C 590.005 2.94163 -1.85373 0
M  V30 6394 H 589.328 2.9299 -2.72024 0
M  V30 6395 H 590.768 3.71625 -2.04135 0
M  V30 6396 C 589.227 3.31317 -0.610803 0
M  V30 6397 O 589.757 4.00985 0.239636 0
M  V30 6398 N 587.963 2.86966 -0.458127 0
M  V30 6399 H 587.51 2.30443 -1.15124 0
M  V30 6400 H 587.468 3.12188 0.372289 0
M  V30 6401 N 591.24 1.41047 0.703093 0
M  V30 6402 C 592.15 1.44645 1.84703 0
M  V30 6403 C 593.166 0.337778 1.7069 0
M  V30 6404 O 594.342 0.584327 1.92737 0
M  V30 6405 C 591.407 1.31928 3.20618 0
M  V30 6406 C 590.468 2.53047 3.46794 0
M  V30 6407 C 589.701 2.40927 4.76224 0
M  V30 6408 O 589.924 1.42978 5.5219 0
M  V30 6409 O 588.858 3.30543 5.03016 0
M  V30 6410 H 592.684 2.41139 1.84624 0
M  V30 6411 H 590.269 1.22504 0.855167 0
M  V30 6412 H 592.151 1.27092 4.01778 0
M  V30 6413 H 590.826 0.385469 3.21397 0
M  V30 6414 H 589.733 2.6346 2.65593 0
M  V30 6415 H 591.066 3.45231 3.50822 0
M  V30 6416 N 592.718 -0.936591 1.26751 0
M  V30 6417 C 593.948 -1.71509 1.15188 0
M  V30 6418 C 594.356 -1.86885 -0.295037 0
M  V30 6419 O 593.699 -1.37915 -1.21347 0
M  V30 6420 C 593.761 -3.13853 1.75318 0
M  V30 6421 C 593.425 -3.21845 3.24445 0
M  V30 6422 C 594.422 -3.04771 4.21201 0
M  V30 6423 C 592.107 -3.45088 3.64992 0
M  V30 6424 C 594.101 -3.10816 5.56482 0
M  V30 6425 C 591.788 -3.50767 5.00405 0
M  V30 6426 C 592.786 -3.33648 5.9596 0
M  V30 6427 O 592.474 -3.39045 7.28906 0
M  V30 6428 H 592.206 -0.543658 0.401761 0
M  V30 6429 H 594.76 -1.18234 1.67958 0
M  V30 6430 H 592.99 -3.6857 1.17016 0
M  V30 6431 H 594.679 -3.73634 1.58596 0
M  V30 6432 H 595.445 -2.86665 3.91214 0
M  V30 6433 H 591.324 -3.57467 2.91098 0
M  V30 6434 H 594.868 -2.97372 6.31043 0
M  V30 6435 H 590.765 -3.68396 5.30052 0
M  V30 6436 H 591.533 -3.55558 7.37238 0
M  V30 6437 N 594.196 -1.08629 -1.14182 0
M  V30 6438 C 595.106 -0.730126 -2.22949 0
M  V30 6439 C 596.122 0.26436 -1.7198 0
M  V30 6440 O 597.298 0.107742 -2.01112 0
M  V30 6441 C 594.363 -0.147227 -3.46387 0
M  V30 6442 C 593.424 -1.19662 -4.12286 0
M  V30 6443 C 592.657 -0.641437 -5.29831 0
M  V30 6444 O 592.88 0.538351 -5.67854 0
M  V30 6445 O 591.814 -1.39257 -5.85569 0
M  V30 6446 H 595.64 -1.63753 -2.55771 0
M  V30 6447 H 593.225 -0.860118 -1.22157 0
M  V30 6448 H 595.107 0.174923 -4.21037 0
M  V30 6449 H 593.782 0.733304 -3.15285 0
M  V30 6450 H 592.689 -1.57133 -3.395 0
M  V30 6451 H 594.022 -2.0495 -4.475 0
M  V30 6452 N 595.674 1.31259 -0.872281 0
M  V30 6453 C 597.09 1.49283 -0.564521 0
M  V30 6454 C 597.29 1.80243 0.900807 0
M  V30 6455 O 596.346 1.88246 1.68284 0
M  V30 6456 C 597.659 2.62503 -1.46673 0
M  V30 6457 C 599.207 2.76386 -1.46901 0
M  V30 6458 C 599.682 3.92705 -2.35684 0
M  V30 6459 N 601.173 3.99995 -2.33577 0
M  V30 6460 C 601.908 4.89276 -2.98992 0
M  V30 6461 N 601.404 5.83443 -3.73585 0
M  V30 6462 N 603.197 4.82541 -2.88289 0
M  V30 6463 H 595.348 1.09432 -1.82039 0
M  V30 6464 H 597.611 0.540949 -0.77851 0
M  V30 6465 H 597.317 2.46407 -2.50951 0
M  V30 6466 H 597.191 3.58695 -1.16696 0
M  V30 6467 H 599.578 2.91894 -0.433796 0
M  V30 6468 H 599.659 1.80853 -1.80903 0
M  V30 6469 H 599.303 3.77954 -3.39283 0
M  V30 6470 H 599.233 4.87549 -1.99006 0
M  V30 6471 H 601.724 3.32624 -1.7936 0
M  V30 6472 H 602.037 6.48303 -4.20622 0
M  V30 6473 H 600.382 5.83415 -3.77694 0
M  V30 6474 H 603.573 4.07951 -2.2955 0
M  V30 6475 H 603.746 5.51916 -3.39549 0
M  V30 6476 N 597.152 0.631951 1.44375 0
M  V30 6477 C 598.399 0.136767 2.02038 0
M  V30 6478 C 598.727 -1.24168 1.49709 0
M  V30 6479 O 597.982 -1.83809 0.671763 0
M  V30 6480 C 598.281 0.0735861 3.57324 0
M  V30 6481 C 597.947 1.39092 4.28911 0
M  V30 6482 C 596.609 1.75171 4.48184 0
M  V30 6483 C 598.961 2.26042 4.69632 0
M  V30 6484 C 596.289 2.97907 5.05439 0
M  V30 6485 C 598.641 3.4805 5.28246 0
M  V30 6486 C 597.305 3.84351 5.45738 0
M  V30 6487 H 596.575 0.0500466 0.739308 0
M  V30 6488 H 599.222 0.818429 1.7313 0
M  V30 6489 H 597.527 -0.691449 3.8565 0
M  V30 6490 H 599.224 -0.326091 3.99672 0
M  V30 6491 H 595.814 1.10015 4.1424 0
M  V30 6492 H 599.998 1.99463 4.54454 0
M  V30 6493 H 595.254 3.26108 5.17169 0
M  V30 6494 H 599.428 4.15658 5.5875 0
M  V30 6495 H 597.055 4.79538 5.8987 0
M  V30 6496 N 598.631 -1.53133 0.372548 0
M  V30 6497 C 599.877 -2.01654 -0.215277 0
M  V30 6498 C 600.21 -1.25914 -1.47849 0
M  V30 6499 O 599.485 -0.3548 -1.91237 0
M  V30 6500 C 599.768 -3.56609 -0.500187 0
M  V30 6501 C 599.621 -4.43036 0.777145 0
M  V30 6502 C 600.94 -4.20528 -1.29786 0
M  V30 6503 H 598.059 -0.732991 -0.0767686 0
M  V30 6504 H 600.701 -1.83335 0.498814 0
M  V30 6505 H 598.851 -3.7235 -1.10852 0
M  V30 6506 H 600.523 -4.39079 1.41447 0
M  V30 6507 H 598.766 -4.10723 1.39604 0
M  V30 6508 H 599.437 -5.49424 0.532662 0
M  V30 6509 H 601.913 -4.08663 -0.783198 0
M  V30 6510 H 600.789 -5.28962 -1.46596 0
M  V30 6511 H 601.05 -3.77051 -2.30836 0
M  V30 6512 N 600.109 -0.101901 -1.5727 0
M  V30 6513 C 601.52 0.426173 -1.81771 0
M  V30 6514 C 601.871 1.67725 -1.01797 0
M  V30 6515 O 600.996 2.14958 -0.249386 0
M  V30 6516 C 601.591 0.779962 -3.297 0
M  V30 6517 C 600.15 1.25275 -3.54941 0
M  V30 6518 C 599.297 0.252814 -2.76145 0
M  V30 6519 H 602.248 -0.32726 -1.55289 0
M  V30 6520 H 602.269 1.63891 -3.43395 0
M  V30 6521 H 601.781 -0.130778 -3.8788 0
M  V30 6522 H 599.882 2.18097 -3.021 0
M  V30 6523 H 599.995 1.20988 -4.63572 0
M  V30 6524 H 598.359 0.736362 -2.43823 0
M  V30 6525 H 599.142 -0.650724 -3.37076 0
M  V30 6526 N 601.587 1.56661 0.17182 0
M  V30 6527 C 602.834 1.81965 0.888529 0
M  V30 6528 C 603.162 0.6789 1.82267 0
M  V30 6529 O 602.417 -0.333875 1.92831 0
M  V30 6530 C 602.716 3.13435 1.71736 0
M  V30 6531 C 602.382 4.41159 0.932184 0
M  V30 6532 C 601.044 4.75851 0.715481 0
M  V30 6533 C 603.396 5.19803 0.381387 0
M  V30 6534 C 600.724 5.86666 -0.063126 0
M  V30 6535 C 603.076 6.31433 -0.384129 0
M  V30 6536 C 601.74 6.64692 -0.611637 0
M  V30 6537 H 601.01 0.665859 0.325136 0
M  V30 6538 H 603.657 1.90884 0.153495 0
M  V30 6539 H 601.962 2.99857 2.52177 0
M  V30 6540 H 603.659 3.30224 2.27493 0
M  V30 6541 H 600.249 4.13947 1.11112 0
M  V30 6542 H 604.433 4.93396 0.536148 0
M  V30 6543 H 599.689 6.10892 -0.249136 0
M  V30 6544 H 603.863 6.91577 -0.818185 0
M  V30 6545 H 601.49 7.50398 -1.21684 0
M  V30 6546 N 603.065 -0.440357 1.51323 0
M  V30 6547 C 604.29 -1.21716 1.67928 0
M  V30 6548 C 604.715 -1.84328 0.374826 0
M  V30 6549 O 604.073 -1.68675 -0.664706 0
M  V30 6550 C 604.121 -2.27914 2.79442 0
M  V30 6551 O 603.225 -3.33325 2.42834 0
M  V30 6552 H 602.566 -0.35674 0.560029 0
M  V30 6553 H 605.096 -0.520417 1.97871 0
M  V30 6554 H 605.106 -2.72746 3.03436 0
M  V30 6555 H 603.781 -1.8172 3.741 0
M  V30 6556 H 602.358 -2.9399 2.294 0
M  V30 6557 N 604.543 -1.41418 -0.695603 0
M  V30 6558 C 605.82 -1.31264 -1.45014 0
M  V30 6559 C 606.2 0.0597994 -2.11015 0
M  V30 6560 O 605.548 1.07403 -2.01685 0
M  V30 6561 C 605.758 -2.466 -2.4696 0
M  V30 6562 C 607.106 -2.87763 -3.12214 0
M  V30 6563 O 608.13 -2.46339 -2.57285 0
M  V30 6564 O 606.989 -3.59395 -4.11701 0
M  V30 6565 H 604.083 -0.516576 -0.645816 0
M  V30 6566 H 606.629 -1.53382 -0.726084 0
M  V30 6567 H 605.401 -3.38183 -1.96845 0
M  V30 6568 H 605.024 -2.26358 -3.26876 0
M  V30 6569 N 606.021 0.929856 -1.27246 0
M  V30 6570 C 606.953 2.03434 -1.0558 0
M  V30 6571 C 607.966 1.62795 -0.0125762 0
M  V30 6572 O 609.155 1.76685 -0.2539 0
M  V30 6573 C 606.255 3.33915 -0.57912 0
M  V30 6574 C 605.428 4.03259 -1.69415 0
M  V30 6575 C 604.487 5.12014 -1.21357 0
M  V30 6576 O 603.513 5.36097 -1.91282 0
M  V30 6577 N 604.715 5.8046 -0.0680622 0
M  V30 6578 H 607.48 2.22583 -2.00691 0
M  V30 6579 H 605.041 1.1001 -1.18783 0
M  V30 6580 H 607.033 4.03978 -0.241563 0
M  V30 6581 H 605.603 3.11355 0.278703 0
M  V30 6582 H 604.823 3.26958 -2.20209 0
M  V30 6583 H 606.111 4.46337 -2.44255 0
M  V30 6584 H 605.509 5.63345 0.515626 0
M  V30 6585 H 604.066 6.51461 0.210332 0
M  V30 6586 N 607.499 1.09233 1.13605 0
M  V30 6587 C 608.431 0.687794 2.18637 0
M  V30 6588 C 609.444 -0.26936 1.60556 0
M  V30 6589 O 610.633 -0.0557162 1.78413 0
M  V30 6590 C 607.733 -0.00751901 3.38899 0
M  V30 6591 C 606.906 0.97067 4.26494 0
M  V30 6592 C 605.965 0.309129 5.25291 0
M  V30 6593 O 604.991 0.956149 5.61112 0
M  V30 6594 N 606.193 -0.937555 5.72879 0
M  V30 6595 H 608.958 1.59141 2.53957 0
M  V30 6596 H 606.519 0.979515 1.28907 0
M  V30 6597 H 608.511 -0.461238 4.02063 0
M  V30 6598 H 607.081 -0.813353 3.01833 0
M  V30 6599 H 606.301 1.603 3.60135 0
M  V30 6600 H 607.589 1.63323 4.81875 0
M  V30 6601 H 606.987 -1.48281 5.4592 0
M  V30 6602 H 605.544 -1.33463 6.3799 0
M  V30 6603 N 608.977 -1.30795 0.87923 0
M  V30 6604 C 610.226 -1.95636 0.490875 0
M  V30 6605 C 610.539 -1.70214 -0.963674 0
M  V30 6606 O 611.745 -2.28991 -1.45861 0
M  V30 6607 C 610.201 -3.50271 0.826929 0
M  V30 6608 C 609.809 -3.84521 2.29886 0
M  V30 6609 C 611.553 -4.21456 0.507494 0
M  V30 6610 C 609.46 -5.32309 2.57685 0
M  V30 6611 H 608.39 -0.732238 0.179841 0
M  V30 6612 H 611.041 -1.48829 1.07341 0
M  V30 6613 H 609.423 -3.9562 0.173542 0
M  V30 6614 H 610.597 -3.50102 2.99609 0
M  V30 6615 H 608.912 -3.26425 2.58526 0
M  V30 6616 H 611.509 -5.30199 0.692293 0
M  V30 6617 H 611.852 -4.12614 -0.552718 0
M  V30 6618 H 612.385 -3.81772 1.11782 0
M  V30 6619 H 609.124 -5.46195 3.62424 0
M  V30 6620 H 608.644 -5.68048 1.92566 0
M  V30 6621 H 610.323 -5.99678 2.42889 0
M  V30 6622 N 610.455 -0.639598 -1.44038 0
M  V30 6623 C 611.68 -0.153117 -2.06834 0
M  V30 6624 C 612.105 1.16676 -1.47541 0
M  V30 6625 O 611.463 1.71769 -0.580093 0
M  V30 6626 C 611.511 -0.0609169 -3.60549 0
M  V30 6627 O 610.615 0.98071 -4.00569 0
M  V30 6628 H 609.956 -0.0886402 -0.658057 0
M  V30 6629 H 612.486 -0.878674 -1.84771 0
M  V30 6630 H 612.496 0.126892 -4.07803 0
M  V30 6631 H 611.171 -1.0245 -4.03084 0
M  V30 6632 H 609.748 0.766789 -3.64931 0
M  V30 6633 N 611.933 1.52934 -0.380664 0
M  V30 6634 C 612.881 2.27727 0.47361 0
M  V30 6635 C 613.875 1.31288 1.0705 0
M  V30 6636 O 615.081 1.4886 1.01197 0
M  V30 6637 H 611.456 0.732189 0.171475 0
M  V30 6638 H 613.427 2.97864 -0.178785 0
M  V30 6639 C 612.176 3.0904 1.59341 0
M  V30 6640 H 611.499 3.831 1.14343 0
M  V30 6641 H 612.939 3.64527 2.16555 0
M  V30 6642 C 611.398 2.20813 2.54447 0
M  V30 6643 O 611.928 1.82907 3.57642 0
M  V30 6644 N 610.134 1.85145 2.23986 0
M  V30 6645 H 609.681 2.16169 1.40103 0
M  V30 6646 H 609.639 1.26402 2.87871 0
M  V30 6647 N 613.412 0.11024 1.57214 0
M  V30 6648 C 614.689 -0.592956 1.86396 0
M  V30 6649 C 615.069 -1.85379 1.00985 0
M  V30 6650 O 614.417 -2.28337 0.0863592 0
M  V30 6651 C 614.627 -0.893816 3.3736 0
M  V30 6652 C 615.975 -1.25069 4.05762 0
M  V30 6653 O 616.999 -0.984356 3.42329 0
M  V30 6654 O 615.858 -1.75017 5.17718 0
M  V30 6655 H 612.952 -0.29828 0.771335 0
M  V30 6656 H 615.498 0.144083 1.69087 0
M  V30 6657 H 614.27 2.6031e-05 3.913 0
M  V30 6658 H 613.893 -1.68631 3.60068 0
M  V30 6659 N 614.89 -1.56749 -0.16351 0
M  V30 6660 C 616.115 -1.86938 -0.898264 0
M  V30 6661 C 616.54 -0.697456 -1.74692 0
M  V30 6662 O 615.898 0.353327 -1.77824 0
M  V30 6663 C 615.946 -3.15599 -1.74441 0
M  V30 6664 O 615.05 -2.98371 -2.8469 0
M  V30 6665 H 614.391 -0.614659 -0.251178 0
M  V30 6666 H 616.921 -2.03979 -0.159298 0
M  V30 6667 H 616.931 -3.47202 -2.14277 0
M  V30 6668 H 615.606 -4.00505 -1.1211 0
M  V30 6669 H 614.183 -2.7814 -2.4838 0
M  V30 6670 N 616.368 0.432326 -1.51554 0
M  V30 6671 C 617.331 1.50765 -1.72634 0
M  V30 6672 C 618.331 1.49334 -0.596314 0
M  V30 6673 O 619.521 1.51268 -0.863925 0
M  V30 6674 C 616.653 2.90284 -1.7874 0
M  V30 6675 H 617.846 1.33377 -2.68609 0
M  V30 6676 H 615.399 0.661329 -1.4162 0
M  V30 6677 H 616.134 3.13071 -0.845977 0
M  V30 6678 H 615.919 2.92727 -2.6087 0
M  V30 6679 H 617.409 3.68282 -1.96871 0
M  V30 6680 N 617.846 1.41785 0.688094 0
M  V30 6681 C 619.071 1.45117 1.48175 0
M  V30 6682 C 619.496 0.060129 1.88004 0
M  V30 6683 O 618.854 -0.938385 1.55126 0
M  V30 6684 C 618.902 2.37224 2.71583 0
M  V30 6685 O 618.006 1.83443 3.69354 0
M  V30 6686 H 617.347 0.492208 0.445676 0
M  V30 6687 H 619.877 1.86329 0.845145 0
M  V30 6688 H 619.887 2.53353 3.19806 0
M  V30 6689 H 618.562 3.38293 2.41931 0
M  V30 6690 H 617.139 1.76802 3.28322 0
M  V30 6691 N 619.324 -0.923095 1.27737 0
M  V30 6692 C 620.549 -1.71054 1.17283 0
M  V30 6693 C 620.974 -1.86208 -0.266153 0
M  V30 6694 O 620.332 -1.36545 -1.1927 0
M  V30 6695 C 620.38 -3.0854 1.86642 0
M  V30 6696 O 619.484 -3.95528 1.16752 0
M  V30 6697 H 618.825 -0.524136 0.407649 0
M  V30 6698 H 621.355 -1.15487 1.6889 0
M  V30 6699 H 621.365 -3.58828 1.94182 0
M  V30 6700 H 620.04 -2.96828 2.91317 0
M  V30 6701 H 618.617 -3.53967 1.17312 0
M  V30 6702 N 620.802 -1.09834 -1.13024 0
M  V30 6703 C 621.712 -0.753731 -2.22162 0
M  V30 6704 C 622.728 0.246105 -1.72251 0
M  V30 6705 O 623.904 0.0864051 -2.01215 0
M  V30 6706 C 620.969 -0.183958 -3.46212 0
M  V30 6707 C 620.03 -1.24028 -4.10993 0
M  V30 6708 C 619.263 -0.697597 -5.29121 0
M  V30 6709 O 619.486 0.478092 -5.68393 0
M  V30 6710 O 618.42 -1.4546 -5.84059 0
M  V30 6711 H 622.246 -1.66456 -2.5402 0
M  V30 6712 H 619.831 -0.873026 -1.21238 0
M  V30 6713 H 621.713 0.130257 -4.21199 0
M  V30 6714 H 620.388 0.699823 -3.16045 0
M  V30 6715 H 619.295 -1.60725 -3.37814 0
M  V30 6716 H 620.628 -2.09685 -4.45301 0
M  V30 6717 N 622.28 1.30327 -0.886154 0
M  V30 6718 C 623.228 2.30052 -0.343317 0
M  V30 6719 C 624.222 1.60212 0.550305 0
M  V30 6720 O 625.428 1.74674 0.434609 0
M  V30 6721 H 621.803 0.746306 -0.0923681 0
M  V30 6722 H 623.774 2.73294 -1.19804 0
M  V30 6723 C 622.523 3.45079 0.426107 0
M  V30 6724 H 621.846 3.99003 -0.25227 0
M  V30 6725 H 623.286 4.16931 0.771009 0
M  V30 6726 C 621.745 2.95195 1.62363 0
M  V30 6727 O 622.275 2.95323 2.723 0
M  V30 6728 N 620.481 2.51192 1.4612 0
M  V30 6729 H 620.028 2.51286 0.566832 0
M  V30 6730 H 619.986 2.18173 2.2638 0
M  V30 6731 N 623.758 0.647228 1.43697 0
M  V30 6732 C 625.174 0.314256 1.56476 0
M  V30 6733 C 625.374 -1.18191 1.63196 0
M  V30 6734 O 624.43 -1.96655 1.58376 0
M  V30 6735 C 625.743 1.02034 2.82859 0
M  V30 6736 C 627.291 1.00002 2.96595 0
M  V30 6737 C 627.766 1.68689 4.25803 0
M  V30 6738 N 629.257 1.65424 4.32654 0
M  V30 6739 C 629.992 2.1545 5.31384 0
M  V30 6740 N 629.488 2.73738 6.36427 0
M  V30 6741 N 631.281 2.05985 5.22998 0
M  V30 6742 H 623.432 1.61821 1.37578 0
M  V30 6743 H 625.695 0.680184 0.660344 0
M  V30 6744 H 625.401 2.07542 2.83935 0
M  V30 6745 H 625.275 0.568146 3.72897 0
M  V30 6746 H 627.662 -0.0466319 2.95063 0
M  V30 6747 H 627.743 1.49086 2.07863 0
M  V30 6748 H 627.387 2.73308 4.28095 0
M  V30 6749 H 627.317 1.17076 5.13421 0
M  V30 6750 H 629.808 1.22884 3.57363 0
M  V30 6751 H 630.121 3.09602 7.08072 0
M  V30 6752 H 628.466 2.77796 6.37067 0
M  V30 6753 H 631.657 1.60157 4.39849 0
M  V30 6754 H 631.83 2.45281 5.99784 0
M  V30 6755 N 625.236 -1.5273 0.388769 0
M  V30 6756 C 626.464 -2.05992 -0.193677 0
M  V30 6757 C 626.879 -1.26053 -1.40557 0
M  V30 6758 O 626.236 -0.307049 -1.79898 0
M  V30 6759 C 626.287 -3.57068 -0.564321 0
M  V30 6760 O 626.008 -4.3398 0.599422 0
M  V30 6761 C 627.509 -4.26674 -1.20269 0
M  V30 6762 H 624.729 -0.670358 -0.0293445 0
M  V30 6763 H 627.273 -1.96857 0.553844 0
M  V30 6764 H 625.428 -3.66277 -1.26174 0
M  V30 6765 H 625.842 -5.2367 0.294895 0
M  V30 6766 H 627.316 -5.33625 -1.4124 0
M  V30 6767 H 627.793 -3.81854 -2.16989 0
M  V30 6768 H 628.399 -4.2178 -0.546047 0
M  V30 6769 N 626.714 -0.118576 -1.57153 0
M  V30 6770 C 627.963 0.539339 -1.94355 0
M  V30 6771 C 628.276 1.67858 -1.00415 0
M  V30 6772 O 629.482 2.39922 -1.27081 0
M  V30 6773 C 627.938 1.01082 -3.45414 0
M  V30 6774 C 627.546 -0.0999402 -4.47889 0
M  V30 6775 C 629.29 1.64013 -3.91535 0
M  V30 6776 C 627.197 0.388212 -5.90124 0
M  V30 6777 H 626.127 0.205247 -0.725527 0
M  V30 6778 H 628.778 -0.19836 -1.82425 0
M  V30 6779 H 627.16 1.80292 -3.52577 0
M  V30 6780 H 628.334 -0.876189 -4.52393 0
M  V30 6781 H 626.649 -0.635885 -4.11516 0
M  V30 6782 H 629.246 2.01649 -4.95219 0
M  V30 6783 H 629.589 2.51836 -3.31488 0
M  V30 6784 H 630.122 0.913439 -3.87171 0
M  V30 6785 H 626.861 -0.453963 -6.53926 0
M  V30 6786 H 626.381 1.13095 -5.89041 0
M  V30 6787 H 628.06 0.849574 -6.41398 0
M  V30 6788 N 628.193 1.56834 0.155195 0
M  V30 6789 C 629.439 1.83169 0.870467 0
M  V30 6790 C 629.772 0.698929 1.81187 0
M  V30 6791 O 629.047 -0.298035 1.92203 0
M  V30 6792 C 629.33 3.19965 1.65211 0
M  V30 6793 C 629.183 4.43792 0.732744 0
M  V30 6794 C 630.502 3.53885 2.61636 0
M  V30 6795 H 627.621 0.666288 0.315006 0
M  V30 6796 H 630.263 1.89513 0.135988 0
M  V30 6797 H 628.413 3.14687 2.27825 0
M  V30 6798 H 630.085 4.61148 0.118236 0
M  V30 6799 H 628.328 4.3378 0.0417906 0
M  V30 6800 H 628.999 5.36095 1.31552 0
M  V30 6801 H 631.475 3.5972 2.09143 0
M  V30 6802 H 630.351 4.50648 3.13381 0
M  V30 6803 H 630.612 2.79418 3.42605 0
M  V30 6804 N 629.671 -0.424282 1.51781 0
M  V30 6805 C 630.917 -1.17434 1.6534 0
M  V30 6806 C 631.25 -1.90549 0.374806 0
M  V30 6807 O 630.525 -1.84145 -0.626179 0
M  V30 6808 C 630.808 -2.18093 2.86544 0
M  V30 6809 C 630.661 -1.48975 4.24413 0
M  V30 6810 C 631.98 -3.18934 3.03264 0
M  V30 6811 H 629.099 -0.425566 0.601716 0
M  V30 6812 H 631.741 -0.461921 1.84299 0
M  V30 6813 H 629.891 -2.78849 2.7051 0
M  V30 6814 H 631.563 -0.914551 4.52143 0
M  V30 6815 H 629.806 -0.791893 4.26511 0
M  V30 6816 H 630.477 -2.22347 5.05238 0
M  V30 6817 H 632.953 -2.68243 3.18096 0
M  V30 6818 H 631.829 -3.86645 3.89611 0
M  V30 6819 H 632.09 -3.85793 2.15908 0
M  V30 6820 N 631.149 -1.42148 -0.680565 0
M  V30 6821 C 632.377 -1.45696 -1.46902 0
M  V30 6822 C 632.792 -0.0665858 -1.88683 0
M  V30 6823 O 632.149 0.917436 -1.57764 0
M  V30 6824 C 632.2 -2.37898 -2.72188 0
M  V30 6825 O 631.921 -3.71526 -2.32163 0
M  V30 6826 C 633.422 -2.50407 -3.65802 0
M  V30 6827 H 630.642 -0.495729 -0.45221 0
M  V30 6828 H 633.186 -1.866 -0.836709 0
M  V30 6829 H 631.341 -2.00263 -3.31622 0
M  V30 6830 H 631.755 -4.20849 -3.13027 0
M  V30 6831 H 633.229 -3.19056 -4.50452 0
M  V30 6832 H 633.706 -1.5401 -4.11312 0
M  V30 6833 H 634.312 -2.8874 -3.12265 0
M  V30 6834 N 632.627 0.916307 -1.28225 0
M  V30 6835 C 633.855 1.69901 -1.18073 0
M  V30 6836 C 634.27 1.86988 0.260968 0
M  V30 6837 O 633.627 1.39505 1.17663 0
M  V30 6838 C 633.678 3.09254 -1.87201 0
M  V30 6839 O 633.399 2.92959 -3.2574 0
M  V30 6840 C 634.9 4.0362 -1.83319 0
M  V30 6841 H 632.12 0.531181 -0.409985 0
M  V30 6842 H 634.664 1.14703 -1.69303 0
M  V30 6843 H 632.819 3.61277 -1.39848 0
M  V30 6844 H 633.233 3.81139 -3.60324 0
M  V30 6845 H 634.707 4.98873 -2.36282 0
M  V30 6846 H 635.184 4.3176 -0.805007 0
M  V30 6847 H 635.79 3.57524 -2.3034 0
M  V30 6848 N 634.105 1.10431 1.1244 0
M  V30 6849 C 635.354 0.841539 1.83306 0
M  V30 6850 C 635.667 -0.634961 1.85007 0
M  V30 6851 O 636.873 -1.01363 2.51869 0
M  V30 6852 C 635.329 1.45565 3.29149 0
M  V30 6853 C 634.937 2.96544 3.35806 0
M  V30 6854 C 636.681 1.27227 4.04986 0
M  V30 6855 C 634.588 3.5099 4.75983 0
M  V30 6856 H 633.518 0.311156 0.686803 0
M  V30 6857 H 636.169 1.32829 1.26604 0
M  V30 6858 H 634.551 0.896574 3.85717 0
M  V30 6859 H 635.725 3.58766 2.89177 0
M  V30 6860 H 634.04 3.14036 2.73442 0
M  V30 6861 H 636.637 1.65348 5.08492 0
M  V30 6862 H 636.98 0.213834 4.1575 0
M  V30 6863 H 637.513 1.79941 3.54776 0
M  V30 6864 H 634.252 4.56499 4.70413 0
M  V30 6865 H 633.772 2.93535 5.23065 0
M  V30 6866 H 635.451 3.48808 5.44924 0
M  V30 6867 N 635.583 -1.29855 0.893053 0
M  V30 6868 C 636.513 -2.3035 0.382249 0
M  V30 6869 C 637.494 -1.61328 -0.539203 0
M  V30 6870 O 638.679 -1.88882 -0.451342 0
M  V30 6871 C 635.809 -3.45024 -0.396983 0
M  V30 6872 C 634.763 -4.258 0.433437 0
M  V30 6873 C 634.089 -5.32605 -0.472889 0
M  V30 6874 C 635.389 -4.94549 1.67984 0
M  V30 6875 H 637.083 -2.73325 1.22205 0
M  V30 6876 H 634.629 -1.314 0.589073 0
M  V30 6877 H 636.582 -4.14398 -0.765024 0
M  V30 6878 H 635.306 -3.00875 -1.2705 0
M  V30 6879 H 633.965 -3.58125 0.783723 0
M  V30 6880 H 633.613 -4.84702 -1.34435 0
M  V30 6881 H 633.313 -5.87547 0.0789958 0
M  V30 6882 H 634.837 -6.04832 -0.837269 0
M  V30 6883 H 636.251 -5.56395 1.38192 0
M  V30 6884 H 634.648 -5.59393 2.17254 0
M  V30 6885 H 635.718 -4.20215 2.41965 0
M  V30 6886 N 637.061 -0.65484 -1.43351 0
M  V30 6887 C 637.971 0.0363603 -2.34572 0
M  V30 6888 C 638.987 0.810432 -1.53974 0
M  V30 6889 O 640.163 0.757308 -1.86619 0
M  V30 6890 C 637.228 0.989733 -3.32273 0
M  V30 6891 C 636.289 0.212414 -4.28774 0
M  V30 6892 C 635.522 1.12038 -5.21808 0
M  V30 6893 O 635.745 2.35967 -5.19303 0
M  V30 6894 O 634.679 0.59191 -5.98982 0
M  V30 6895 H 638.505 -0.714527 -2.95175 0
M  V30 6896 H 636.09 -0.415029 -1.4352 0
M  V30 6897 H 637.972 1.53759 -3.92347 0
M  V30 6898 H 636.647 1.72082 -2.74171 0
M  V30 6899 H 635.554 -0.379062 -3.72175 0
M  V30 6900 H 636.887 -0.479138 -4.89862 0
M  V30 6901 N 638.539 1.52521 -0.396863 0
M  V30 6902 C 639.764 2.06571 0.185258 0
M  V30 6903 C 640.189 1.26605 1.39115 0
M  V30 6904 O 639.547 0.293055 1.78916 0
M  V30 6905 C 639.595 3.5674 0.526189 0
M  V30 6906 O 638.699 3.7929 1.61903 0
M  V30 6907 H 638.04 0.663712 0.0195474 0
M  V30 6908 H 640.57 1.966 -0.566519 0
M  V30 6909 H 640.58 4.00311 0.788338 0
M  V30 6910 H 639.255 4.14379 -0.355397 0
M  V30 6911 H 637.832 3.47605 1.35 0
M  V30 6912 N 640.017 0.126909 1.57088 0
M  V30 6913 C 641.428 -0.397201 1.82426 0
M  V30 6914 C 641.779 -1.66084 1.04453 0
M  V30 6915 O 640.904 -2.14534 0.283552 0
M  V30 6916 C 641.499 -0.727411 3.30899 0
M  V30 6917 C 640.058 -1.19612 3.56889 0
M  V30 6918 C 639.205 -0.20885 2.76512 0
M  V30 6919 H 642.156 0.351924 1.54749 0
M  V30 6920 H 642.177 -1.58407 3.45959 0
M  V30 6921 H 641.689 0.19247 3.87622 0
M  V30 6922 H 639.79 -2.13263 3.05532 0
M  V30 6923 H 639.903 -1.13598 4.65438 0
M  V30 6924 H 638.267 -0.697479 2.44964 0
M  V30 6925 H 639.05 0.704267 3.35998 0
M  V30 6926 N 641.495 -1.56914 -0.146875 0
M  V30 6927 C 642.725 -1.87243 -0.873126 0
M  V30 6928 C 643.133 -0.713127 -1.75246 0
M  V30 6929 O 642.476 0.326228 -1.8078 0
M  V30 6930 C 642.538 -3.12279 -1.78107 0
M  V30 6931 C 642.202 -4.44082 -1.07889 0
M  V30 6932 C 643.199 -5.18096 -0.432734 0
M  V30 6933 C 640.884 -4.90807 -1.06836 0
M  V30 6934 C 642.878 -6.37039 0.214569 0
M  V30 6935 C 640.565 -6.09674 -0.417243 0
M  V30 6936 C 641.563 -6.82636 0.223093 0
M  V30 6937 O 641.251 -7.99245 0.863884 0
M  V30 6938 H 640.983 -0.624896 -0.257839 0
M  V30 6939 H 643.537 -2.04892 -0.14434 0
M  V30 6940 H 641.767 -2.90639 -2.5508 0
M  V30 6941 H 643.456 -3.28854 -2.37929 0
M  V30 6942 H 644.222 -4.83066 -0.432677 0
M  V30 6943 H 640.101 -4.3394 -1.55618 0
M  V30 6944 H 643.645 -6.93927 0.714965 0
M  V30 6945 H 639.542 -6.44165 -0.414967 0
M  V30 6946 H 640.31 -8.14912 0.765564 0
M  V30 6947 N 642.974 0.416227 -1.52004 0
M  V30 6948 C 644.22 1.16555 -1.6596 0
M  V30 6949 C 644.553 1.90347 -0.384906 0
M  V30 6950 O 643.828 1.84474 0.616405 0
M  V30 6951 C 644.111 2.1657 -2.87696 0
M  V30 6952 C 643.964 1.46722 -4.25197 0
M  V30 6953 C 645.283 3.17321 -3.04951 0
M  V30 6954 H 642.402 0.422369 -0.603965 0
M  V30 6955 H 645.044 0.452141 -1.84542 0
M  V30 6956 H 643.194 2.77411 -2.71985 0
M  V30 6957 H 644.866 0.89056 -4.52622 0
M  V30 6958 H 643.109 0.769263 -4.26925 0
M  V30 6959 H 643.78 2.19665 -5.0641 0
M  V30 6960 H 646.256 2.66552 -3.19514 0
M  V30 6961 H 645.132 3.84573 -3.91656 0
M  V30 6962 H 645.393 3.84643 -2.17951 0
M  V30 6963 N 644.452 1.42507 0.673017 0
M  V30 6964 C 645.385 1.40557 1.79774 0
M  V30 6965 C 646.363 0.269606 1.60349 0
M  V30 6966 O 647.547 0.460105 1.82798 0
M  V30 6967 C 644.674 1.19815 3.168 0
M  V30 6968 C 643.72 2.36429 3.5497 0
M  V30 6969 S 644.553 3.98963 3.57196 0
M  V30 6970 C 645.709 3.80567 4.9691 0
M  V30 6971 H 645.942 2.35734 1.81154 0
M  V30 6972 H 643.475 1.293 0.843846 0
M  V30 6973 H 645.433 1.08535 3.95892 0
M  V30 6974 H 644.094 0.262215 3.13004 0
M  V30 6975 H 643.287 2.17669 4.54573 0
M  V30 6976 H 642.889 2.44233 2.83242 0
M  V30 6977 H 645.181 3.41668 5.85038 0
M  V30 6978 H 646.124 4.79852 5.20718 0
M  V30 6979 H 646.532 3.13399 4.69512 0
M  V30 6980 N 645.93 -0.909495 1.28709 0
M  V30 6981 C 647.16 -1.69027 1.188 0
M  V30 6982 C 647.568 -1.87469 -0.255329 0
M  V30 6983 O 646.911 -1.40458 -1.18394 0
M  V30 6984 C 646.973 -3.10064 1.81936 0
M  V30 6985 C 646.637 -3.14891 3.31199 0
M  V30 6986 C 647.634 -2.95768 4.27571 0
M  V30 6987 C 645.319 -3.37269 3.7223 0
M  V30 6988 C 647.313 -2.98942 5.6295 0
M  V30 6989 C 645 -3.40074 5.07733 0
M  V30 6990 C 645.998 -3.20932 6.02903 0
M  V30 6991 O 645.686 -3.23507 7.35934 0
M  V30 6992 H 645.418 -0.535014 0.413203 0
M  V30 6993 H 647.972 -1.14645 1.70428 0
M  V30 6994 H 646.202 -3.66005 1.24808 0
M  V30 6995 H 647.891 -3.70185 1.66486 0
M  V30 6996 H 648.657 -2.78302 3.97206 0
M  V30 6997 H 644.536 -3.51212 2.98615 0
M  V30 6998 H 648.08 -2.83919 6.37209 0
M  V30 6999 H 643.977 -3.5707 5.37747 0
M  V30 7000 H 644.745 -3.3984 7.44615 0
M  V30 7001 N 647.408 -1.11026 -1.11852 0
M  V30 7002 C 648.355 -0.764662 -2.17765 0
M  V30 7003 C 649.325 0.261854 -1.64023 0
M  V30 7004 O 650.51 0.139748 -1.90288 0
M  V30 7005 C 647.65 -0.209317 -3.44465 0
M  V30 7006 C 646.763 -1.29187 -4.12231 0
M  V30 7007 C 645.898 -0.697523 -5.266 0
M  V30 7008 C 644.937 -1.76023 -5.86244 0
M  V30 7009 N 644.074 -1.18569 -6.92016 0
M  V30 7010 H 648.914 -1.67202 -2.46673 0
M  V30 7011 H 646.451 -0.835065 -1.21099 0
M  V30 7012 H 648.409 0.130599 -4.16996 0
M  V30 7013 H 647.039 0.661251 -3.15955 0
M  V30 7014 H 646.091 -1.74881 -3.37818 0
M  V30 7015 H 647.403 -2.09607 -4.52622 0
M  V30 7016 H 646.557 -0.307412 -6.05921 0
M  V30 7017 H 645.296 0.138044 -4.87505 0
M  V30 7018 H 644.301 -2.1597 -5.05606 0
M  V30 7019 H 645.526 -2.59875 -6.27409 0
M  V30 7020 H 643.472 -0.371695 -6.54946 0
M  V30 7021 H 643.389 -1.92666 -7.31038 0
M  V30 7022 H 644.657 -0.82233 -7.7515 0
M  V30 7023 N 648.886 1.2938 -0.899927 0
M  V30 7024 C 649.833 2.27713 -0.376243 0
M  V30 7025 C 650.803 1.57016 0.541774 0
M  V30 7026 O 651.988 1.84997 0.466966 0
M  V30 7027 C 649.128 3.42889 0.39 0
M  V30 7028 C 648.241 4.28369 -0.558938 0
M  V30 7029 C 647.376 5.30726 0.224379 0
M  V30 7030 C 646.415 6.07862 -0.719068 0
M  V30 7031 N 645.552 7.02094 0.0298569 0
M  V30 7032 H 650.392 2.71888 -1.21988 0
M  V30 7033 H 647.929 1.33724 -0.612879 0
M  V30 7034 H 649.887 4.08443 0.850314 0
M  V30 7035 H 648.517 2.99743 1.19809 0
M  V30 7036 H 647.569 3.62986 -1.13777 0
M  V30 7037 H 648.881 4.82068 -1.2811 0
M  V30 7038 H 648.035 6.02098 0.745881 0
M  V30 7039 H 646.774 4.77759 0.979674 0
M  V30 7040 H 645.779 5.35353 -1.25207 0
M  V30 7041 H 647.004 6.62917 -1.4737 0
M  V30 7042 H 644.95 6.51496 0.767415 0
M  V30 7043 H 644.867 7.5335 -0.632391 0
M  V30 7044 H 646.135 7.77685 0.531615 0
M  V30 7045 N 650.364 0.662433 1.43002 0
M  V30 7046 C 651.312 -0.035345 2.32573 0
M  V30 7047 C 652.306 -0.803505 1.49131 0
M  V30 7048 O 653.512 -0.712865 1.65282 0
M  V30 7049 H 649.887 -0.0302194 0.751393 0
M  V30 7050 H 651.858 0.737686 2.89138 0
M  V30 7051 C 650.607 -0.981575 3.33557 0
M  V30 7052 H 649.93 -0.399914 3.97795 0
M  V30 7053 H 651.37 -1.43873 3.98844 0
M  V30 7054 C 649.829 -2.08204 2.64863 0
M  V30 7055 O 650.359 -3.16698 2.47113 0
M  V30 7056 N 648.565 -1.85022 2.24088 0
M  V30 7057 H 648.112 -0.967909 2.38724 0
M  V30 7058 H 648.07 -2.58845 1.78457 0
M  V30 7059 N 651.842 -1.52309 0.404946 0
M  V30 7060 C 652.792 -2.23717 -0.439864 0
M  V30 7061 C 653.776 -1.24692 -1.0169 0
M  V30 7062 O 654.968 -1.49951 -0.940409 0
M  V30 7063 C 652.097 -3.05898 -1.55825 0
M  V30 7064 C 651.183 -4.12331 -0.992188 0
M  V30 7065 N 651.574 -5.0557 -0.152424 0
M  V30 7066 C 649.872 -4.2774 -1.26312 0
M  V30 7067 C 650.573 -5.81474 0.162041 0
M  V30 7068 N 649.549 -5.41767 -0.44601 0
M  V30 7069 H 653.351 -2.93162 0.208084 0
M  V30 7070 H 650.865 -1.60969 0.215131 0
M  V30 7071 H 652.862 -3.55605 -2.17603 0
M  V30 7072 H 651.522 -2.37991 -2.20886 0
M  V30 7073 H 652.533 -5.17468 0.211556 0
M  V30 7074 H 649.21 -3.71062 -1.91362 0
M  V30 7075 H 650.6 -6.66585 0.843423 0
M  V30 7076 N 653.32 -0.135238 -1.57019 0
M  V30 7077 C 654.23 0.822226 -2.19719 0
M  V30 7078 C 655.246 1.28057 -1.17802 0
M  V30 7079 O 656.422 1.3402 -1.50335 0
M  V30 7080 C 653.487 2.0484 -2.79717 0
M  V30 7081 C 652.548 1.64042 -3.96723 0
M  V30 7082 C 651.781 2.80814 -4.53849 0
M  V30 7083 O 652.004 3.967 -4.0986 0
M  V30 7084 O 650.938 2.56963 -5.44292 0
M  V30 7085 H 654.764 0.318552 -3.02025 0
M  V30 7086 H 652.349 0.0912021 -1.49121 0
M  V30 7087 H 654.231 2.76622 -3.17897 0
M  V30 7088 H 652.906 2.54182 -2.00432 0
M  V30 7089 H 651.813 0.893182 -3.63281 0
M  V30 7090 H 653.146 1.19426 -4.77492 0
M  V30 7091 N 654.798 1.5699 0.138552 0
M  V30 7092 C 655.73 1.95515 1.1961 0
M  V30 7093 C 656.743 0.852002 1.38726 0
M  V30 7094 O 657.932 1.13038 1.38147 0
M  V30 7095 C 655.032 2.2213 2.55952 0
M  V30 7096 C 654.205 3.53424 2.57702 0
M  V30 7097 C 653.264 3.6848 3.75645 0
M  V30 7098 O 652.29 4.4079 3.60129 0
M  V30 7099 N 653.492 3.05777 4.93438 0
M  V30 7100 H 656.257 2.86838 0.868557 0
M  V30 7101 H 653.818 1.58542 0.328033 0
M  V30 7102 H 655.81 2.29435 3.33379 0
M  V30 7103 H 654.38 1.3703 2.80965 0
M  V30 7104 H 653.6 3.57484 1.6613 0
M  V30 7105 H 654.888 4.39759 2.55909 0
M  V30 7106 H 654.286 2.46961 5.08947 0
M  V30 7107 H 652.843 3.18631 5.6861 0
M  V30 7108 N 656.276 -0.40816 1.52223 0
M  V30 7109 C 657.206 -1.5042 1.78595 0
M  V30 7110 C 658.187 -1.57723 0.636974 0
M  V30 7111 O 659.372 -1.72982 0.882664 0
M  V30 7112 C 656.502 -2.88232 1.93751 0
M  V30 7113 C 655.456 -2.95779 3.09352 0
M  V30 7114 C 654.782 -4.35855 3.09732 0
M  V30 7115 C 656.082 -2.67175 4.48793 0
M  V30 7116 H 657.776 -1.28601 2.70374 0
M  V30 7117 H 655.322 -0.617221 1.30101 0
M  V30 7118 H 657.275 -3.64895 2.10783 0
M  V30 7119 H 655.999 -3.11347 0.986443 0
M  V30 7120 H 654.658 -2.21561 2.92072 0
M  V30 7121 H 654.306 -4.55981 2.12346 0
M  V30 7122 H 654.006 -4.41829 3.87377 0
M  V30 7123 H 655.53 -5.14451 3.28895 0
M  V30 7124 H 656.944 -3.3356 4.66273 0
M  V30 7125 H 655.341 -2.84523 5.28362 0
M  V30 7126 H 656.411 -1.62609 4.56822 0
M  V30 7127 N 657.755 -1.42862 -0.66545 0
M  V30 7128 C 658.665 -1.49491 -1.80803 0
M  V30 7129 C 659.681 -0.382914 -1.69734 0
M  V30 7130 O 660.857 -0.635223 -1.9112 0
M  V30 7131 C 657.922 -1.40383 -3.17007 0
M  V30 7132 C 656.983 -2.62152 -3.39963 0
M  V30 7133 C 656.216 -2.53469 -4.69669 0
M  V30 7134 O 656.439 -1.57568 -5.48205 0
M  V30 7135 O 655.373 -3.43763 -4.94075 0
M  V30 7136 H 659.199 -2.45949 -1.78165 0
M  V30 7137 H 656.784 -1.24728 -0.822387 0
M  V30 7138 H 658.666 -1.377 -3.98267 0
M  V30 7139 H 657.341 -0.470546 -3.20262 0
M  V30 7140 H 656.248 -2.70409 -2.58515 0
M  V30 7141 H 657.581 -3.54411 -3.41546 0
M  V30 7142 N 659.233 0.902656 -1.29189 0
M  V30 7143 C 660.481 1.6496 -1.16758 0
M  V30 7144 C 660.802 1.92952 0.28188 0
M  V30 7145 O 660.072 1.55351 1.19344 0
M  V30 7146 H 658.652 0.611447 -0.429118 0
M  V30 7147 H 661.314 1.0825 -1.62074 0
M  V30 7148 H 660.41 2.60728 -1.71544 0
M  V30 7149 N 660.711 1.11618 1.11262 0
M  V30 7150 C 661.659 0.771291 2.1944 0
M  V30 7151 C 662.653 -0.238073 1.67719 0
M  V30 7152 O 663.859 -0.0971628 1.79738 0
M  V30 7153 H 660.234 0.231548 0.715465 0
M  V30 7154 H 662.205 1.69226 2.45775 0
M  V30 7155 C 660.954 0.232765 3.4692 0
M  V30 7156 H 660.277 1.00072 3.87073 0
M  V30 7157 H 661.717 0.0296561 4.2399 0
M  V30 7158 C 660.176 -1.03738 3.20531 0
M  V30 7159 O 660.706 -2.11675 3.41404 0
M  V30 7160 N 658.912 -0.960906 2.74253 0
M  V30 7161 H 658.459 -0.0824323 2.57468 0
M  V30 7162 H 658.417 -1.8114 2.56974 0
M  V30 7163 N 662.189 -1.289 0.906776 0
M  V30 7164 C 663.099 -2.31256 0.394707 0
M  V30 7165 C 664.115 -1.66231 -0.514121 0
M  V30 7166 O 665.291 -1.97347 -0.401994 0
M  V30 7167 C 662.356 -3.44792 -0.363191 0
M  V30 7168 C 661.417 -4.25391 0.578012 0
M  V30 7169 C 660.65 -5.33506 -0.143811 0
M  V30 7170 O 660.873 -5.53786 -1.36665 0
M  V30 7171 O 659.807 -5.99673 0.5173 0
M  V30 7172 H 663.633 -2.77051 1.24405 0
M  V30 7173 H 661.218 -1.33466 0.671346 0
M  V30 7174 H 663.1 -4.139 -0.791503 0
M  V30 7175 H 661.775 -3.01093 -1.18848 0
M  V30 7176 H 660.682 -3.58899 1.05558 0
M  V30 7177 H 662.015 -4.72752 1.36992 0
M  V30 7178 N 663.667 -0.670007 -1.42649 0
M  V30 7179 C 665.083 -0.33911 -1.55956 0
M  V30 7180 C 665.283 1.1558 -1.65056 0
M  V30 7181 O 664.339 1.94111 -1.61485 0
M  V30 7182 C 665.652 -1.06522 -2.812 0
M  V30 7183 C 667.2 -1.04708 -2.94966 0
M  V30 7184 C 667.675 -1.75442 -4.23065 0
M  V30 7185 N 669.166 -1.72286 -4.29967 0
M  V30 7186 C 669.901 -2.23877 -5.27889 0
M  V30 7187 N 669.397 -2.83829 -6.31991 0
M  V30 7188 N 671.19 -2.14279 -5.19654 0
M  V30 7189 H 663.341 -1.6399 -1.34986 0
M  V30 7190 H 665.604 -0.690603 -0.649439 0
M  V30 7191 H 665.31 -2.12033 -2.80597 0
M  V30 7192 H 665.184 -0.627398 -3.71946 0
M  V30 7193 H 667.571 -0.000315966 -2.951 0
M  V30 7194 H 667.652 -1.52374 -2.05465 0
M  V30 7195 H 667.296 -2.80084 -4.23693 0
M  V30 7196 H 667.226 -1.25229 -5.11493 0
M  V30 7197 H 669.717 -1.28554 -3.55362 0
M  V30 7198 H 670.03 -3.20827 -7.03057 0
M  V30 7199 H 668.375 -2.87896 -6.32567 0
M  V30 7200 H 671.566 -1.67135 -4.37245 0
M  V30 7201 H 671.739 -2.54792 -5.95806 0
M  V30 7202 N 665.145 1.52092 -0.413018 0
M  V30 7203 C 666.375 2.05974 0.160648 0
M  V30 7204 C 666.783 1.28267 1.39084 0
M  V30 7205 O 666.126 0.328805 1.80733 0
M  V30 7206 C 666.188 3.54918 0.572169 0
M  V30 7207 C 665.852 4.53705 -0.547826 0
M  V30 7208 C 666.849 5.00342 -1.41259 0
M  V30 7209 C 664.534 4.97089 -0.721627 0
M  V30 7210 C 666.528 5.89011 -2.43607 0
M  V30 7211 C 664.215 5.85554 -1.74841 0
M  V30 7212 C 665.213 6.3141 -2.60403 0
M  V30 7213 O 664.901 7.18123 -3.61323 0
M  V30 7214 H 664.633 0.675636 0.0221936 0
M  V30 7215 H 667.187 1.96931 -0.58373 0
M  V30 7216 H 665.417 3.61661 1.36889 0
M  V30 7217 H 667.106 3.91428 1.0742 0
M  V30 7218 H 667.872 4.67537 -1.28974 0
M  V30 7219 H 663.751 4.60954 -0.0652911 0
M  V30 7220 H 667.295 6.24725 -3.10425 0
M  V30 7221 H 663.192 6.17773 -1.87156 0
M  V30 7222 H 663.96 7.36244 -3.57613 0
M  V30 7223 N 666.623 0.143563 1.56945 0
M  V30 7224 C 667.533 -0.810562 2.20152 0
M  V30 7225 C 668.549 -1.27431 1.1848 0
M  V30 7226 O 669.725 -1.33221 1.51044 0
M  V30 7227 C 666.79 -2.03353 2.80799 0
M  V30 7228 C 665.851 -1.61936 3.97587 0
M  V30 7229 C 665.084 -2.78403 4.55332 0
M  V30 7230 O 665.307 -3.94521 4.11958 0
M  V30 7231 O 664.241 -2.54073 5.45647 0
M  V30 7232 H 668.067 -0.30253 3.02189 0
M  V30 7233 H 665.652 -0.0832925 1.49168 0
M  V30 7234 H 667.534 -2.74932 3.19359 0
M  V30 7235 H 666.209 -2.53116 2.01777 0
M  V30 7236 H 665.116 -0.873904 3.6375 0
M  V30 7237 H 666.449 -1.16892 4.78118 0
M  V30 7238 N 668.101 -1.57061 -0.130224 0
M  V30 7239 C 669.349 -1.83893 -0.838313 0
M  V30 7240 C 669.67 -0.727046 -1.80939 0
M  V30 7241 O 668.94 0.249927 -1.94299 0
M  V30 7242 H 667.52 -0.67846 -0.312573 0
M  V30 7243 H 670.182 -1.94529 -0.120224 0
M  V30 7244 H 669.278 -2.79419 -1.39038 0
M  V30 7245 N 669.579 0.400081 -1.52437 0
M  V30 7246 C 670.809 1.16598 -1.70553 0
M  V30 7247 C 671.217 1.8451 -0.418665 0
M  V30 7248 O 670.56 1.73069 0.615855 0
M  V30 7249 C 670.622 2.26517 -2.7916 0
M  V30 7250 C 670.286 1.78666 -4.20628 0
M  V30 7251 C 671.283 1.26946 -5.04163 0
M  V30 7252 C 668.968 1.85225 -4.66902 0
M  V30 7253 C 670.962 0.824187 -6.32049 0
M  V30 7254 C 668.649 1.40309 -5.94774 0
M  V30 7255 C 669.647 0.889922 -6.77178 0
M  V30 7256 O 669.335 0.447281 -8.02655 0
M  V30 7257 H 669.067 0.356023 -0.574651 0
M  V30 7258 H 671.621 0.475598 -1.99818 0
M  V30 7259 H 669.851 2.98946 -2.45292 0
M  V30 7260 H 671.54 2.88237 -2.85787 0
M  V30 7261 H 672.306 1.21244 -4.69601 0
M  V30 7262 H 668.185 2.24111 -4.02859 0
M  V30 7263 H 671.729 0.422958 -6.96317 0
M  V30 7264 H 667.626 1.45693 -6.28843 0
M  V30 7265 H 668.394 0.569768 -8.16514 0
M  V30 7266 N 671.057 1.43213 0.657864 0
M  V30 7267 C 672.297 1.46083 1.42965 0
M  V30 7268 C 672.661 0.0809712 1.91829 0
M  V30 7269 O 673.862 -0.0156305 2.68795 0
M  V30 7270 C 672.133 2.47044 2.58271 0
M  V30 7271 S 673.692 2.68753 3.46868 0
M  V30 7272 H 670.51 0.517015 0.488074 0
M  V30 7273 H 673.112 1.79945 0.764213 0
M  V30 7274 H 671.816 3.46044 2.20639 0
M  V30 7275 H 671.347 2.14665 3.2967 0
M  V30 7276 H 673.362 1.98329 4.54841 0
M  V30 7277 N 672.536 -0.895792 1.29666 0
M  V30 7278 C 673.782 -1.64908 1.18039 0
M  V30 7279 C 674.115 -1.9236 -0.266682 0
M  V30 7280 O 673.39 -1.53682 -1.19214 0
M  V30 7281 C 673.673 -2.99574 1.99819 0
M  V30 7282 C 673.526 -2.79163 3.52687 0
M  V30 7283 C 674.845 -4.00358 1.82761 0
M  V30 7284 H 671.964 -0.598437 0.430165 0
M  V30 7285 H 674.606 -1.03736 1.59182 0
M  V30 7286 H 672.756 -3.51786 1.64859 0
M  V30 7287 H 674.428 -2.33821 3.9765 0
M  V30 7288 H 672.671 -2.13871 3.77414 0
M  V30 7289 H 673.342 -3.74871 4.05186 0
M  V30 7290 H 675.818 -3.57268 2.13304 0
M  V30 7291 H 674.694 -4.92514 2.42325 0
M  V30 7292 H 674.955 -4.35096 0.783839 0
M  V30 7293 N 674.014 -1.12206 -1.10668 0
M  V30 7294 C 675.291 -0.787382 -1.79052 0
M  V30 7295 C 675.671 0.723267 -1.98323 0
M  V30 7296 O 675.019 1.6561 -1.57434 0
M  V30 7297 C 675.229 -1.55968 -3.1221 0
M  V30 7298 C 676.577 -1.74413 -3.87125 0
M  V30 7299 O 677.601 -1.5246 -3.21923 0
M  V30 7300 O 676.46 -2.10952 -5.04144 0
M  V30 7301 H 673.554 -0.286137 -0.775922 0
M  V30 7302 H 676.1 -1.22595 -1.1734 0
M  V30 7303 H 674.872 -2.58692 -2.93588 0
M  V30 7304 H 674.495 -1.1152 -3.8164 0
M  V30 7305 N 675.492 1.28418 -0.913599 0
M  V30 7306 C 676.422 2.29713 -0.418847 0
M  V30 7307 C 677.403 1.62165 0.513469 0
M  V30 7308 O 678.588 1.89576 0.421235 0
M  V30 7309 C 675.718 3.45612 0.342042 0
M  V30 7310 C 674.672 4.25056 -0.501123 0
M  V30 7311 C 673.998 5.3329 0.388097 0
M  V30 7312 C 675.298 4.91814 -1.75831 0
M  V30 7313 H 676.992 2.71346 -1.26538 0
M  V30 7314 H 674.538 1.30446 -0.609903 0
M  V30 7315 H 676.491 4.15562 0.699 0
M  V30 7316 H 675.215 3.02858 1.22248 0
M  V30 7317 H 673.874 3.56833 -0.840598 0
M  V30 7318 H 673.522 4.8678 1.26707 0
M  V30 7319 H 673.222 5.87347 -0.172459 0
M  V30 7320 H 674.746 6.06088 0.74094 0
M  V30 7321 H 676.16 5.54126 -1.47026 0
M  V30 7322 H 674.557 5.55866 -2.26126 0
M  V30 7323 H 675.627 4.16313 -2.4862 0
M  V30 7324 N 676.97 0.677563 1.42291 0
M  V30 7325 C 677.933 0.0101085 2.29198 0
M  V30 7326 C 678.933 -0.726219 1.43467 0
M  V30 7327 O 680.123 -0.563807 1.64824 0
M  V30 7328 C 677.255 -0.996316 3.26016 0
M  V30 7329 H 678.448 0.775071 2.89711 0
M  V30 7330 H 676.001 0.440065 1.49977 0
M  V30 7331 H 676.736 -1.78967 2.70446 0
M  V30 7332 H 676.521 -0.471687 3.89253 0
M  V30 7333 H 678.011 -1.46167 3.91184 0
M  V30 7334 N 678.448 -1.51871 0.421078 0
M  V30 7335 C 679.678 -2.06057 -0.149723 0
M  V30 7336 C 680.086 -1.29002 -1.38402 0
M  V30 7337 O 679.429 -0.338385 -1.80556 0
M  V30 7338 C 679.491 -3.55216 -0.553339 0
M  V30 7339 C 679.155 -4.53408 0.571879 0
M  V30 7340 C 680.152 -4.99586 1.4391 0
M  V30 7341 C 677.837 -4.967 0.747979 0
M  V30 7342 C 679.831 -5.87711 2.46727 0
M  V30 7343 C 677.518 -5.84619 1.77944 0
M  V30 7344 C 678.516 -6.30021 2.63748 0
M  V30 7345 O 678.204 -7.16197 3.65126 0
M  V30 7346 H 677.936 -0.675744 -0.0186102 0
M  V30 7347 H 680.49 -1.96618 0.594166 0
M  V30 7348 H 678.72 -3.62381 -1.34969 0
M  V30 7349 H 680.409 -3.91992 -1.05342 0
M  V30 7350 H 681.175 -4.66846 1.31451 0
M  V30 7351 H 677.054 -4.60913 0.0897357 0
M  V30 7352 H 680.598 -6.2307 3.13734 0
M  V30 7353 H 676.495 -6.16771 1.90429 0
M  V30 7354 H 677.263 -7.34337 3.61512 0
M  V30 7355 N 679.926 -0.151884 -1.56866 0
M  V30 7356 C 680.836 0.798876 -2.20579 0
M  V30 7357 C 681.852 1.268 -1.19154 0
M  V30 7358 O 683.028 1.32418 -1.51748 0
M  V30 7359 C 680.093 2.01861 -2.81874 0
M  V30 7360 C 679.154 1.59825 -3.9844 0
M  V30 7361 C 678.387 2.75984 -4.56802 0
M  V30 7362 O 678.61 3.92331 -4.14044 0
M  V30 7363 O 677.544 2.51175 -5.46987 0
M  V30 7364 H 681.37 0.2865 -3.02346 0
M  V30 7365 H 678.955 0.0753806 -1.4921 0
M  V30 7366 H 680.837 2.73235 -3.20813 0
M  V30 7367 H 679.512 2.52042 -2.03117 0
M  V30 7368 H 678.419 0.854601 -3.64208 0
M  V30 7369 H 679.752 1.14355 -4.78731 0
M  V30 7370 N 681.404 1.57128 0.121893 0
M  V30 7371 C 682.653 1.83888 0.828748 0
M  V30 7372 C 682.966 0.737087 1.81181 0
M  V30 7373 O 684.172 0.891007 2.56463 0
M  V30 7374 C 682.628 3.26014 1.52455 0
M  V30 7375 C 682.236 4.44195 0.58263 0
M  V30 7376 C 683.98 3.62025 2.21671 0
M  V30 7377 C 681.887 5.77349 1.28149 0
M  V30 7378 H 680.817 0.685856 0.313238 0
M  V30 7379 H 683.468 1.83319 0.0814851 0
M  V30 7380 H 681.85 3.21044 2.31834 0
M  V30 7381 H 683.024 4.60457 -0.177729 0
M  V30 7382 H 681.339 4.164 -0.00241228 0
M  V30 7383 H 683.936 4.58776 2.74643 0
M  V30 7384 H 684.279 2.89315 2.99337 0
M  V30 7385 H 684.812 3.68767 1.49184 0
M  V30 7386 H 681.551 6.53221 0.546189 0
M  V30 7387 H 681.071 5.64978 2.01394 0
M  V30 7388 H 682.75 6.21006 1.81549 0
M  V30 7389 N 682.882 -0.391992 1.52647 0
M  V30 7390 C 683.845 -1.46135 1.7657 0
M  V30 7391 C 684.845 -1.47701 0.635698 0
M  V30 7392 O 686.035 -1.48924 0.903728 0
M  V30 7393 C 683.167 -2.85443 1.86374 0
M  V30 7394 H 684.36 -1.26208 2.72051 0
M  V30 7395 H 681.913 -0.623549 1.43323 0
M  V30 7396 H 682.648 -3.10718 0.928685 0
M  V30 7397 H 682.433 -2.85708 2.68539 0
M  V30 7398 H 683.923 -3.62933 2.06566 0
M  V30 7399 N 684.36 -1.4356 -0.65026 0
M  V30 7400 C 685.307 -1.48948 -1.76304 0
M  V30 7401 C 686.277 -0.338919 -1.62605 0
M  V30 7402 O 687.462 -0.54649 -1.82806 0
M  V30 7403 C 684.602 -1.42131 -3.14472 0
M  V30 7404 C 683.715 -2.67415 -3.39284 0
M  V30 7405 C 682.85 -2.52565 -4.67316 0
M  V30 7406 C 681.889 -3.73103 -4.85243 0
M  V30 7407 N 681.026 -3.57046 -6.04535 0
M  V30 7408 H 685.866 -2.44032 -1.71034 0
M  V30 7409 H 683.403 -1.21131 -0.834601 0
M  V30 7410 H 685.361 -1.36172 -3.94351 0
M  V30 7411 H 683.991 -0.506273 -3.18805 0
M  V30 7412 H 683.043 -2.8364 -2.53481 0
M  V30 7413 H 684.355 -3.56943 -3.48415 0
M  V30 7414 H 683.509 -2.44331 -5.55326 0
M  V30 7415 H 682.248 -1.60566 -4.60511 0
M  V30 7416 H 681.253 -3.81743 -3.95667 0
M  V30 7417 H 682.478 -4.66115 -4.93876 0
M  V30 7418 H 680.424 -2.67783 -5.98856 0
M  V30 7419 H 680.341 -4.40178 -6.14638 0
M  V30 7420 H 681.609 -3.52669 -6.95158 0
M  V30 7421 N 685.838 0.888903 -1.30139 0
M  V30 7422 C 686.788 1.9814 -1.12803 0
M  V30 7423 C 687.772 1.60839 -0.0443137 0
M  V30 7424 O 688.964 1.74971 -0.267208 0
M  V30 7425 C 686.093 3.33416 -0.817849 0
M  V30 7426 C 685.179 3.77043 -1.94163 0
M  V30 7427 N 685.57 3.92805 -3.18651 0
M  V30 7428 C 683.868 4.06407 -1.8371 0
M  V30 7429 C 684.569 4.29746 -3.92038 0
M  V30 7430 N 683.545 4.3939 -3.20059 0
M  V30 7431 H 687.347 2.08411 -2.07225 0
M  V30 7432 H 684.861 1.07845 -1.21421 0
M  V30 7433 H 686.858 4.11405 -0.674668 0
M  V30 7434 H 685.518 3.24484 0.118344 0
M  V30 7435 H 686.529 3.78042 -3.53984 0
M  V30 7436 H 683.206 4.05972 -0.974331 0
M  V30 7437 H 684.596 4.49695 -4.99223 0
M  V30 7438 N 687.317 1.12792 1.10072 0
M  V30 7439 C 688.563 0.886857 1.82381 0
M  V30 7440 C 688.896 -0.58576 1.85155 0
M  V30 7441 O 688.171 -1.43317 1.31493 0
M  V30 7442 C 688.454 1.46703 3.28862 0
M  V30 7443 C 688.307 3.00829 3.34398 0
M  V30 7444 C 689.626 1.12971 4.25353 0
M  V30 7445 H 686.745 0.32362 0.662148 0
M  V30 7446 H 689.387 1.39513 1.28982 0
M  V30 7447 H 687.537 1.03476 3.74466 0
M  V30 7448 H 689.209 3.52764 2.97247 0
M  V30 7449 H 687.452 3.36164 2.74183 0
M  V30 7450 H 688.123 3.36519 4.3756 0
M  V30 7451 H 690.599 1.50313 3.88001 0
M  V30 7452 H 689.475 1.56223 5.26199 0
M  V30 7453 H 689.736 0.0424452 4.4208 0
M  V30 7454 N 688.795 -1.27931 0.920396 0
M  V30 7455 C 690.211 -1.47085 0.619537 0
M  V30 7456 C 690.411 -1.83463 -0.833291 0
M  V30 7457 O 689.467 -1.94363 -1.61181 0
M  V30 7458 C 690.78 -2.56878 1.56314 0
M  V30 7459 C 692.328 -2.70743 1.57058 0
M  V30 7460 C 692.803 -3.83687 2.50097 0
M  V30 7461 N 694.294 -3.9105 2.48262 0
M  V30 7462 C 695.029 -4.77842 3.16945 0
M  V30 7463 N 694.525 -5.69176 3.94982 0
M  V30 7464 N 696.318 -4.71509 3.06 0
M  V30 7465 H 688.469 -1.02601 1.85975 0
M  V30 7466 H 690.732 -0.511682 0.798051 0
M  V30 7467 H 690.438 -2.36923 2.59923 0
M  V30 7468 H 690.312 -3.54117 1.29928 0
M  V30 7469 H 692.699 -2.90083 0.541832 0
M  V30 7470 H 692.78 -1.74015 1.8749 0
M  V30 7471 H 692.424 -3.65101 3.53077 0
M  V30 7472 H 692.354 -4.79827 2.16964 0
M  V30 7473 H 694.845 -3.25738 1.91581 0
M  V30 7474 H 695.158 -6.32245 4.44394 0
M  V30 7475 H 693.503 -5.68995 3.99086 0
M  V30 7476 H 696.694 -3.99151 2.44533 0
M  V30 7477 H 696.867 -5.38933 3.59799 0
M  V30 7478 N 690.273 -0.685099 -1.4193 0
M  V30 7479 C 691.522 -0.208816 -2.00616 0
M  V30 7480 C 691.835 1.19506 -1.54847 0
M  V30 7481 O 693.041 1.76826 -2.06021 0
M  V30 7482 C 691.497 -0.322446 -3.58453 0
M  V30 7483 C 691.105 -1.73102 -4.13206 0
M  V30 7484 C 692.849 0.0945979 -4.24395 0
M  V30 7485 C 690.756 -1.79687 -5.63442 0
M  V30 7486 H 689.686 -0.0743092 -0.750329 0
M  V30 7487 H 692.337 -0.851778 -1.62533 0
M  V30 7488 H 690.719 0.388588 -3.94089 0
M  V30 7489 H 691.893 -2.46997 -3.8901 0
M  V30 7490 H 690.208 -2.09682 -3.59753 0
M  V30 7491 H 692.805 0.0656937 -5.3466 0
M  V30 7492 H 693.148 1.1316 -4.00625 0
M  V30 7493 H 693.681 -0.56579 -3.93756 0
M  V30 7494 H 690.42 -2.81404 -5.92024 0
M  V30 7495 H 689.94 -1.10162 -5.89597 0
M  V30 7496 H 691.619 -1.55498 -6.28036 0
M  V30 7497 N 691.751 1.51645 -0.429126 0
M  V30 7498 C 692.698 2.27542 0.386446 0
M  V30 7499 C 693.668 1.30786 1.02393 0
M  V30 7500 O 694.853 1.59678 1.0444 0
M  V30 7501 C 691.993 3.11457 1.48623 0
M  V30 7502 C 691.106 4.23196 0.867691 0
M  V30 7503 C 690.241 4.94435 1.94183 0
M  V30 7504 C 689.28 5.98108 1.30129 0
M  V30 7505 N 688.417 6.62786 2.31644 0
M  V30 7506 H 693.257 2.968 -0.267155 0
M  V30 7507 H 690.794 1.46397 -0.143591 0
M  V30 7508 H 692.752 3.58429 2.13506 0
M  V30 7509 H 691.382 2.44329 2.10957 0
M  V30 7510 H 690.434 3.80248 0.107373 0
M  V30 7511 H 691.746 4.97499 0.35997 0
M  V30 7512 H 690.9 5.44914 2.66747 0
M  V30 7513 H 689.639 4.19744 2.48326 0
M  V30 7514 H 688.644 5.4693 0.561082 0
M  V30 7515 H 689.869 6.74751 0.767303 0
M  V30 7516 H 687.815 5.90913 2.84883 0
M  V30 7517 H 687.732 7.32828 1.85741 0
M  V30 7518 H 689 7.17897 3.03717 0
M  V30 7519 N 693.229 0.160201 1.56784 0
M  V30 7520 C 694.459 -0.493449 2.00621 0
M  V30 7521 C 694.867 -1.5809 1.03943 0
M  V30 7522 O 694.21 -1.83675 0.0305343 0
M  V30 7523 C 694.272 -1.14169 3.4089 0
M  V30 7524 C 693.936 -0.197243 4.56574 0
M  V30 7525 C 694.933 0.580174 5.16653 0
M  V30 7526 C 692.618 -0.0963038 5.02208 0
M  V30 7527 C 694.612 1.44584 6.20785 0
M  V30 7528 C 692.299 0.772959 6.06192 0
M  V30 7529 C 693.297 1.54263 6.65351 0
M  V30 7530 O 692.985 2.39738 7.67321 0
M  V30 7531 H 692.717 -0.131764 0.663034 0
M  V30 7532 H 695.271 0.255728 2.03802 0
M  V30 7533 H 693.501 -1.93877 3.34587 0
M  V30 7534 H 695.19 -1.69641 3.6875 0
M  V30 7535 H 695.956 0.5123 4.82287 0
M  V30 7536 H 691.835 -0.685143 4.5588 0
M  V30 7537 H 695.379 2.04706 6.66889 0
M  V30 7538 H 691.276 0.842077 6.39984 0
M  V30 7539 H 692.044 2.33131 7.84597 0
M  V30 7540 N 694.707 -1.5719 -0.113559 0
M  V30 7541 C 695.654 -2.00736 -1.13901 0
M  V30 7542 C 696.624 -0.88044 -1.40846 0
M  V30 7543 O 697.809 -1.14507 -1.5262 0
M  V30 7544 C 694.949 -2.42132 -2.45899 0
M  V30 7545 C 694.062 -3.68264 -2.25844 0
M  V30 7546 C 693.197 -3.98617 -3.5111 0
M  V30 7547 C 692.236 -5.17915 -3.26236 0
M  V30 7548 N 691.373 -5.44111 -4.4372 0
M  V30 7549 H 696.213 -2.88128 -0.760677 0
M  V30 7550 H 693.75 -1.42523 -0.364099 0
M  V30 7551 H 695.708 -2.6417 -3.22908 0
M  V30 7552 H 694.338 -1.57775 -2.81615 0
M  V30 7553 H 693.39 -3.53809 -1.39726 0
M  V30 7554 H 694.702 -4.55425 -2.03444 0
M  V30 7555 H 693.856 -4.21333 -4.36536 0
M  V30 7556 H 692.595 -3.09942 -3.76546 0
M  V30 7557 H 691.6 -4.95038 -2.39202 0
M  V30 7558 H 692.825 -6.08172 -3.02165 0
M  V30 7559 H 690.771 -4.58394 -4.69266 0
M  V30 7560 H 690.688 -6.25606 -4.24444 0
M  V30 7561 H 691.956 -5.71351 -5.30263 0
M  V30 7562 N 696.185 0.383891 -1.52853 0
M  V30 7563 C 697.115 1.47559 -1.80965 0
M  V30 7564 C 698.096 1.5669 -0.661986 0
M  V30 7565 O 699.281 1.71556 -0.910072 0
M  V30 7566 C 696.411 2.85114 -1.98312 0
M  V30 7567 C 695.365 2.9082 -3.14019 0
M  V30 7568 C 694.691 4.30873 -3.16627 0
M  V30 7569 C 695.991 2.60001 -4.52986 0
M  V30 7570 H 697.685 1.24283 -2.72386 0
M  V30 7571 H 695.231 0.596445 -1.31067 0
M  V30 7572 H 697.184 3.61496 -2.16561 0
M  V30 7573 H 695.908 3.09738 -1.03585 0
M  V30 7574 H 694.567 2.16886 -2.9556 0
M  V30 7575 H 694.215 4.52545 -2.19573 0
M  V30 7576 H 693.915 4.3561 -3.94357 0
M  V30 7577 H 695.439 5.09154 -3.37038 0
M  V30 7578 H 696.853 3.261 -4.71521 0
M  V30 7579 H 695.25 2.76081 -5.32822 0
M  V30 7580 H 696.32 1.5532 -4.59351 0
M  V30 7581 N 697.663 1.43903 0.642637 0
M  V30 7582 C 698.888 1.49758 1.43483 0
M  V30 7583 C 699.313 0.119911 1.87717 0
M  V30 7584 O 698.671 -0.888558 1.58033 0
M  V30 7585 C 698.719 2.45744 2.63898 0
M  V30 7586 O 697.823 1.95101 3.63331 0
M  V30 7587 H 697.164 0.506138 0.429791 0
M  V30 7588 H 699.694 1.88923 0.785438 0
M  V30 7589 H 699.704 2.63399 3.11584 0
M  V30 7590 H 698.379 3.45818 2.31046 0
M  V30 7591 H 696.956 1.87158 3.22531 0
M  V30 7592 N 699.141 -0.881989 1.30609 0
M  V30 7593 C 700.39 -1.62878 1.18969 0
M  V30 7594 C 700.703 -1.93946 -0.253859 0
M  V30 7595 O 701.909 -2.67008 -0.491813 0
M  V30 7596 C 700.365 -2.93573 2.0819 0
M  V30 7597 C 699.973 -2.70034 3.57471 0
M  V30 7598 C 701.717 -3.71543 2.0532 0
M  V30 7599 C 699.624 -3.96563 4.38739 0
M  V30 7600 H 698.554 -0.611092 0.441682 0
M  V30 7601 H 701.205 -0.976201 1.55379 0
M  V30 7602 H 699.587 -3.6014 1.64666 0
M  V30 7603 H 700.761 -2.11949 4.09163 0
M  V30 7604 H 699.076 -2.05435 3.62195 0
M  V30 7605 H 701.673 -4.65386 2.63288 0
M  V30 7606 H 702.016 -4.03167 1.03739 0
M  V30 7607 H 702.549 -3.11842 2.46981 0
M  V30 7608 H 699.288 -3.70095 5.41027 0
M  V30 7609 H 698.808 -4.54142 3.9181 0
M  V30 7610 H 700.487 -4.64557 4.50329 0
M  V30 7611 N 700.619 -1.13374 -1.09472 0
M  V30 7612 C 701.865 -0.896516 -1.81908 0
M  V30 7613 C 702.198 0.575933 -1.85463 0
M  V30 7614 O 701.473 1.42618 -1.32251 0
M  V30 7615 C 701.756 -1.48445 -3.28079 0
M  V30 7616 C 701.609 -3.02598 -3.32798 0
M  V30 7617 C 702.928 -1.15226 -4.24748 0
M  V30 7618 H 700.047 -0.327127 -0.660422 0
M  V30 7619 H 702.689 -1.40195 -1.2824 0
M  V30 7620 H 700.839 -1.0546 -3.73912 0
M  V30 7621 H 702.511 -3.54335 -2.95372 0
M  V30 7622 H 700.754 -3.37613 -2.72397 0
M  V30 7623 H 701.425 -3.38835 -4.3577 0
M  V30 7624 H 703.901 -1.52369 -3.87199 0
M  V30 7625 H 702.777 -1.59012 -5.25363 0
M  V30 7626 H 703.038 -0.0658891 -4.42051 0
M  V30 7627 N 702.098 1.27442 -0.927168 0
M  V30 7628 C 703.346 1.94007 -0.566203 0
M  V30 7629 C 703.667 1.7323 0.895345 0
M  V30 7630 O 702.937 1.07973 1.63459 0
M  V30 7631 H 701.517 0.717917 -0.206409 0
M  V30 7632 H 704.179 1.55161 -1.17945 0
M  V30 7633 H 703.275 3.02401 -0.772028 0
M  V30 7634 N 703.576 0.692616 1.41565 0
M  V30 7635 C 704.853 0.150496 1.9502 0
M  V30 7636 C 705.233 -1.33881 1.63215 0
M  V30 7637 O 704.581 -2.08378 0.937598 0
M  V30 7638 C 704.791 0.438636 3.46233 0
M  V30 7639 C 706.139 0.364777 4.2303 0
M  V30 7640 O 707.163 0.373383 3.54238 0
M  V30 7641 O 706.022 0.32234 5.45549 0
M  V30 7642 H 703.116 0.0132454 0.826894 0
M  V30 7643 H 705.662 0.768574 1.51298 0
M  V30 7644 H 704.434 1.46962 3.62654 0
M  V30 7645 H 704.057 -0.210562 3.97042 0
M  V30 7646 N 705.054 -1.51416 0.437162 0
M  V30 7647 C 706.302 -2.01687 -0.129108 0
M  V30 7648 C 706.623 -1.32329 -1.43227 0
M  V30 7649 O 705.893 -0.457796 -1.90476 0
M  V30 7650 H 704.473 -0.745277 -0.0507023 0
M  V30 7651 H 707.135 -1.86075 0.579828 0
M  V30 7652 H 706.231 -3.10605 -0.305141 0
M  V30 7653 N 706.532 -0.168513 -1.56696 0
M  V30 7654 C 707.479 0.762875 -2.17828 0
M  V30 7655 C 708.449 1.22892 -1.11745 0
M  V30 7656 O 709.634 1.29759 -1.39883 0
M  V30 7657 C 706.774 1.9879 -2.82093 0
M  V30 7658 C 705.887 1.56568 -4.02629 0
M  V30 7659 C 705.022 2.74416 -4.54829 0
M  V30 7660 C 704.061 2.28671 -5.67782 0
M  V30 7661 N 703.198 3.39602 -6.14504 0
M  V30 7662 H 708.038 0.23479 -2.97074 0
M  V30 7663 H 705.575 0.104163 -1.46731 0
M  V30 7664 H 707.533 2.70636 -3.17509 0
M  V30 7665 H 706.163 2.48973 -2.05456 0
M  V30 7666 H 705.215 0.744067 -3.73052 0
M  V30 7667 H 706.527 1.18988 -4.844 0
M  V30 7668 H 705.681 3.54423 -4.92412 0
M  V30 7669 H 704.42 3.15254 -3.7211 0
M  V30 7670 H 703.425 1.4711 -5.29753 0
M  V30 7671 H 704.65 1.88894 -6.52301 0
M  V30 7672 H 702.596 3.80021 -5.34715 0
M  V30 7673 H 702.513 3.06105 -6.91257 0
M  V30 7674 H 703.781 4.19902 -6.56737 0
M  V30 7675 N 708.01 1.57248 0.105221 0
M  V30 7676 C 709.24 1.89492 0.823175 0
M  V30 7677 C 709.648 0.75934 1.73294 0
M  V30 7678 O 708.991 -0.278182 1.81581 0
M  V30 7679 C 709.053 3.16891 1.69765 0
M  V30 7680 C 708.717 4.46787 0.960769 0
M  V30 7681 C 709.714 5.19061 0.295218 0
M  V30 7682 C 707.399 4.93467 0.937854 0
M  V30 7683 C 709.393 6.36246 -0.383393 0
M  V30 7684 C 707.08 6.10566 0.255452 0
M  V30 7685 C 708.078 6.81804 -0.404003 0
M  V30 7686 O 707.766 7.96673 -1.07549 0
M  V30 7687 H 707.498 0.631512 0.24118 0
M  V30 7688 H 710.052 2.05203 0.0899655 0
M  V30 7689 H 708.282 2.973 2.47285 0
M  V30 7690 H 709.971 3.35046 2.29126 0
M  V30 7691 H 710.737 4.84044 0.304448 0
M  V30 7692 H 706.616 4.37913 1.44058 0
M  V30 7693 H 710.16 6.91787 -0.898696 0
M  V30 7694 H 706.057 6.45039 0.244032 0
M  V30 7695 H 706.825 8.12596 -0.981355 0
M  V30 7696 N 709.488 -0.375779 1.53054 0
M  V30 7697 C 710.736 -1.11727 1.68409 0
M  V30 7698 C 711.057 -1.90127 0.43323 0
M  V30 7699 O 710.327 -1.87945 -0.552595 0
M  V30 7700 H 708.907 -0.415451 0.620813 0
M  V30 7701 H 711.569 -0.424869 1.90213 0
M  V30 7702 H 710.665 -1.8128 2.54055 0
M  V30 7703 N 710.966 -1.44241 -0.634997 0
M  V30 7704 C 711.929 -1.50457 -1.72903 0
M  V30 7705 C 712.929 -0.387058 -1.56072 0
M  V30 7706 O 714.119 -0.649531 -1.61638 0
M  V30 7707 C 711.251 -1.37477 -3.1195 0
M  V30 7708 H 712.444 -2.47907 -1.68767 0
M  V30 7709 H 709.997 -1.31276 -0.84831 0
M  V30 7710 H 710.732 -0.41106 -3.21684 0
M  V30 7711 H 710.517 -2.18506 -3.25573 0
M  V30 7712 H 712.007 -1.44799 -3.91692 0
M  V30 7713 N 712.444 0.87505 -1.31075 0
M  V30 7714 C 713.86 1.15997 -1.09622 0
M  V30 7715 C 714.06 2.01036 0.136611 0
M  V30 7716 O 713.116 2.38559 0.827397 0
M  V30 7717 C 714.429 1.85702 -2.36506 0
M  V30 7718 C 715.977 1.98425 -2.42067 0
M  V30 7719 C 716.452 2.71544 -3.68819 0
M  V30 7720 N 717.943 2.79084 -3.69684 0
M  V30 7721 C 718.678 3.36259 -4.64454 0
M  V30 7722 N 718.174 3.94406 -5.69575 0
M  V30 7723 N 719.967 3.34169 -4.51982 0
M  V30 7724 H 712.118 0.308258 -2.10151 0
M  V30 7725 H 714.381 0.199145 -0.926847 0
M  V30 7726 H 714.087 1.30663 -3.26527 0
M  V30 7727 H 713.961 2.86017 -2.45915 0
M  V30 7728 H 716.348 2.5263 -1.52518 0
M  V30 7729 H 716.429 0.971682 -2.36626 0
M  V30 7730 H 716.073 2.18008 -4.58732 0
M  V30 7731 H 716.003 3.73198 -3.71525 0
M  V30 7732 H 718.494 2.3781 -2.93691 0
M  V30 7733 H 718.807 4.36129 -6.37974 0
M  V30 7734 H 717.152 3.92797 -5.73355 0
M  V30 7735 H 720.343 2.87977 -3.69035 0
M  V30 7736 H 720.516 3.78431 -5.26017 0
M  V30 7737 N 713.922 1.13953 1.08869 0
M  V30 7738 C 715.199 0.815768 1.77777 0
M  V30 7739 C 715.579 -0.691624 1.99449 0
M  V30 7740 O 714.927 -1.63085 1.60049 0
M  V30 7741 C 715.137 1.60916 3.09689 0
M  V30 7742 C 716.485 1.80549 3.84301 0
M  V30 7743 O 717.509 1.57562 3.19457 0
M  V30 7744 O 716.368 2.18946 5.00724 0
M  V30 7745 H 713.462 0.298445 0.771271 0
M  V30 7746 H 716.008 1.24446 1.15374 0
M  V30 7747 H 714.78 2.6333 2.89435 0
M  V30 7748 H 714.403 1.17578 3.79817 0
M  V30 7749 N 715.4 -1.26948 0.933913 0
M  V30 7750 C 716.811 -1.76058 0.621324 0
M  V30 7751 C 717.162 -1.76175 -0.863522 0
M  V30 7752 O 716.287 -1.36921 -1.67576 0
M  V30 7753 C 716.882 -3.19713 1.12111 0
M  V30 7754 C 715.441 -3.66465 0.859074 0
M  V30 7755 C 714.588 -2.46186 1.27624 0
M  V30 7756 H 717.539 -1.13127 1.11301 0
M  V30 7757 H 717.56 -3.77566 0.471608 0
M  V30 7758 H 717.072 -3.19596 2.20182 0
M  V30 7759 H 715.173 -3.72021 -0.207566 0
M  V30 7760 H 715.286 -4.55636 1.48098 0
M  V30 7761 H 713.65 -2.45042 0.694727 0
M  V30 7762 H 714.433 -2.48774 2.36572 0
M  V30 7763 N 716.879 -0.700114 -1.41195 0
M  V30 7764 C 717.789 -0.0382854 -2.34569 0
M  V30 7765 C 718.805 0.761036 -1.56474 0
M  V30 7766 O 719.981 0.697553 -1.88934 0
M  V30 7767 C 717.046 0.883522 -3.35253 0
M  V30 7768 C 716.107 0.0758957 -4.29233 0
M  V30 7769 C 715.34 0.9538 -5.25108 0
M  V30 7770 O 715.563 2.19326 -5.26547 0
M  V30 7771 O 714.497 0.401049 -6.00562 0
M  V30 7772 H 718.323 -0.808073 -2.92752 0
M  V30 7773 H 715.908 -0.460479 -1.42127 0
M  V30 7774 H 717.79 1.41199 -3.9704 0
M  V30 7775 H 716.465 1.63272 -2.79506 0
M  V30 7776 H 715.372 -0.497274 -3.7078 0
M  V30 7777 H 716.705 -0.634741 -4.8809 0
M  V30 7778 N 718.357 1.51182 -0.445186 0
M  V30 7779 C 719.585 2.06568 0.117091 0
M  V30 7780 C 720 1.31182 1.35781 0
M  V30 7781 O 719.357 0.373605 1.78635 0
M  V30 7782 C 719.408 3.58917 0.431408 0
M  V30 7783 O 719.129 4.31456 -0.760078 0
M  V30 7784 C 720.63 4.30843 1.0435 0
M  V30 7785 H 717.85 0.670985 0.00444436 0
M  V30 7786 H 720.394 1.94666 -0.626525 0
M  V30 7787 H 718.549 3.70708 1.12493 0
M  V30 7788 H 718.963 5.22215 -0.489048 0
M  V30 7789 H 720.437 5.38499 1.21337 0
M  V30 7790 H 720.914 3.89644 2.02667 0
M  V30 7791 H 721.52 4.23516 0.38913 0
M  V30 7792 N 719.835 0.176821 1.56605 0
M  V30 7793 C 720.782 -0.751312 2.18229 0
M  V30 7794 C 721.752 -1.22297 1.12395 0
M  V30 7795 O 722.937 -1.29015 1.40569 0
M  V30 7796 C 720.077 -1.97291 2.83143 0
M  V30 7797 C 719.19 -1.54431 4.03454 0
M  V30 7798 C 718.325 -2.72 4.56278 0
M  V30 7799 C 717.364 -2.25657 5.68986 0
M  V30 7800 N 716.501 -3.36338 6.16296 0
M  V30 7801 H 721.341 -0.219033 2.97194 0
M  V30 7802 H 718.878 -0.0963803 1.46784 0
M  V30 7803 H 720.836 -2.68949 3.1894 0
M  V30 7804 H 719.466 -2.4788 2.06773 0
M  V30 7805 H 718.518 -0.724273 3.73441 0
M  V30 7806 H 719.83 -1.16417 4.85024 0
M  V30 7807 H 718.984 -3.51806 4.94285 0
M  V30 7808 H 717.723 -3.13277 3.73777 0
M  V30 7809 H 716.728 -1.44299 5.30526 0
M  V30 7810 H 717.953 -1.85432 6.53293 0
M  V30 7811 H 715.899 -3.7718 5.36723 0
M  V30 7812 H 715.816 -3.02435 6.9287 0
M  V30 7813 H 717.084 -4.16413 6.58954 0
M  V30 7814 N 721.313 -1.57302 -0.09688 0
M  V30 7815 C 722.562 -1.85183 -0.799388 0
M  V30 7816 C 722.875 -0.765818 -1.79985 0
M  V30 7817 O 724.081 -0.931696 -2.55013 0
M  V30 7818 C 722.537 -3.28399 -1.47249 0
M  V30 7819 C 722.145 -4.45066 -0.511888 0
M  V30 7820 C 723.889 -3.65506 -2.15883 0
M  V30 7821 C 721.796 -5.79315 -1.18948 0
M  V30 7822 H 720.726 -0.690752 -0.302287 0
M  V30 7823 H 723.377 -1.83425 -0.0523104 0
M  V30 7824 H 721.759 -3.24692 -2.26697 0
M  V30 7825 H 722.933 -4.60116 0.250962 0
M  V30 7826 H 721.248 -4.16343 0.0686576 0
M  V30 7827 H 723.845 -4.63087 -2.67309 0
M  V30 7828 H 724.188 -2.94041 -2.94696 0
M  V30 7829 H 724.721 -3.71094 -1.43298 0
M  V30 7830 H 721.46 -6.54007 -0.442198 0
M  V30 7831 H 720.98 -5.68111 -1.9238 0
M  V30 7832 H 722.659 -6.23816 -1.71646 0
M  V30 7833 N 722.791 0.367657 -1.53252 0
M  V30 7834 C 724.037 1.10864 -1.70531 0
M  V30 7835 C 724.392 1.87051 -0.4505 0
M  V30 7836 O 723.685 1.83342 0.556431 0
M  V30 7837 C 723.879 2.09825 -2.89324 0
M  V30 7838 C 723.708 1.43361 -4.26237 0
M  V30 7839 C 722.478 1.18861 -4.91121 0
M  V30 7840 C 724.676 0.872409 -5.06847 0
M  V30 7841 N 722.658 0.487258 -6.11963 0
M  V30 7842 C 724.029 0.300301 -6.19272 0
M  V30 7843 C 726.084 0.770895 -4.91896 0
M  V30 7844 C 724.787 -0.363419 -7.18381 0
M  V30 7845 C 726.813 0.12096 -5.91276 0
M  V30 7846 C 726.175 -0.440283 -7.03023 0
M  V30 7847 H 722.274 0.390902 -0.677288 0
M  V30 7848 H 724.858 0.395305 -1.90645 0
M  V30 7849 H 723.029 2.78473 -2.70753 0
M  V30 7850 H 724.761 2.76585 -2.95436 0
M  V30 7851 H 721.516 1.46934 -4.5023 0
M  V30 7852 H 721.94 0.152005 -6.76829 0
M  V30 7853 H 726.582 1.19058 -4.05691 0
M  V30 7854 H 724.3 -0.795057 -8.04179 0
M  V30 7855 H 727.886 0.0433702 -5.81784 0
M  V30 7856 H 726.766 -0.935244 -7.78603 0
M  V30 7857 N 724.269 1.44576 0.627338 0
M  V30 7858 C 725.217 1.52039 1.76031 0
M  V30 7859 C 726.211 0.391796 1.64807 0
M  V30 7860 O 727.417 0.5669 1.7084 0
M  V30 7861 H 723.792 0.477165 0.581221 0
M  V30 7862 H 725.763 2.47387 1.6686 0
M  V30 7863 C 724.512 1.48539 3.14375 0
M  V30 7864 H 723.835 2.34699 3.23661 0
M  V30 7865 H 725.275 1.57821 3.93534 0
M  V30 7866 C 723.734 0.20672 3.36265 0
M  V30 7867 O 724.264 -0.72154 3.95167 0
M  V30 7868 N 722.47 0.108654 2.90397 0
M  V30 7869 H 722.017 0.864884 2.42647 0
M  V30 7870 H 721.975 -0.746121 3.05418 0
M  V30 7871 N 725.747 -0.868086 1.31537 0
M  V30 7872 C 726.995 -1.61807 1.21091 0
M  V30 7873 C 727.316 -1.93631 -0.230623 0
M  V30 7874 O 726.586 -1.5846 -1.15183 0
M  V30 7875 H 725.166 -0.599854 0.445178 0
M  V30 7876 H 727.828 -1.03915 1.64887 0
M  V30 7877 H 726.924 -2.56088 1.78396 0
M  V30 7878 N 727.225 -1.14528 -1.08264 0
M  V30 7879 C 728.158 -0.777154 -2.14559 0
M  V30 7880 C 729.136 0.242165 -1.60787 0
M  V30 7881 O 730.32 0.130882 -1.88045 0
M  V30 7882 C 727.447 -0.154092 -3.38349 0
M  V30 7883 C 726.493 -1.14382 -4.10876 0
M  V30 7884 S 727.326 -2.68173 -4.63512 0
M  V30 7885 C 728.482 -2.0726 -5.90588 0
M  V30 7886 H 728.715 -1.67748 -2.45454 0
M  V30 7887 H 726.248 -0.966661 -1.20395 0
M  V30 7888 H 728.206 0.19897 -4.10018 0
M  V30 7889 H 726.867 0.723688 -3.05649 0
M  V30 7890 H 726.06 -0.655908 -4.99714 0
M  V30 7891 H 725.662 -1.44095 -3.45127 0
M  V30 7892 H 727.954 -1.42895 -6.62259 0
M  V30 7893 H 728.897 -2.94227 -6.44078 0
M  V30 7894 H 729.305 -1.51935 -5.43669 0
M  V30 7895 N 728.703 1.26451 -0.940633 0
M  V30 7896 C 729.949 1.94065 -0.58878 0
M  V30 7897 C 730.282 1.7363 0.869853 0
M  V30 7898 O 729.557 1.073 1.62225 0
M  V30 7899 C 729.84 3.47852 -0.931199 0
M  V30 7900 C 729.693 3.77575 -2.44453 0
M  V30 7901 C 731.012 4.37832 -0.446229 0
M  V30 7902 H 728.131 0.704827 -0.21538 0
M  V30 7903 H 730.773 1.4933 -1.17475 0
M  V30 7904 H 728.923 3.86085 -0.432539 0
M  V30 7905 H 730.595 3.49059 -3.01588 0
M  V30 7906 H 728.838 3.23671 -2.88825 0
M  V30 7907 H 729.509 4.85068 -2.63464 0
M  V30 7908 H 731.985 4.06822 -0.873778 0
M  V30 7909 H 730.861 5.44228 -0.714648 0
M  V30 7910 H 731.122 4.37239 0.653815 0
M  V30 7911 N 730.181 0.707592 1.40822 0
M  V30 7912 C 731.429 0.243189 2.00632 0
M  V30 7913 C 731.75 -1.16512 1.56365 0
M  V30 7914 O 731.02 -1.78841 0.799553 0
M  V30 7915 H 729.6 0.0869203 0.741926 0
M  V30 7916 H 732.262 0.911438 1.72275 0
M  V30 7917 H 731.358 0.270014 3.1093 0
M  V30 7918 N 731.66 -1.50943 0.453197 0
M  V30 7919 C 732.57 -2.31884 -0.355963 0
M  V30 7920 C 733.586 -1.41481 -1.01287 0
M  V30 7921 O 734.762 -1.74546 -1.00477 0
M  V30 7922 C 731.827 -3.15668 -1.43369 0
M  V30 7923 C 730.888 -4.2187 -0.795253 0
M  V30 7924 C 730.121 -5.0165 -1.82162 0
M  V30 7925 O 730.344 -4.82266 -3.04592 0
M  V30 7926 O 729.278 -5.85311 -1.40336 0
M  V30 7927 H 733.104 -3.02162 0.305248 0
M  V30 7928 H 730.689 -1.47839 0.215398 0
M  V30 7929 H 732.571 -3.67709 -2.05836 0
M  V30 7930 H 731.246 -2.48137 -2.07869 0
M  V30 7931 H 730.153 -3.73867 -0.132106 0
M  V30 7932 H 731.486 -4.9182 -0.193484 0
M  V30 7933 N 733.138 -0.185124 -1.56509 0
M  V30 7934 C 734.068 0.735098 -2.21627 0
M  V30 7935 C 735.049 1.2288 -1.1762 0
M  V30 7936 O 736.234 1.27945 -1.46095 0
M  V30 7937 C 733.364 1.95889 -2.86783 0
M  V30 7938 C 732.318 1.6005 -3.96948 0
M  V30 7939 C 731.644 2.90009 -4.4922 0
M  V30 7940 C 732.944 0.818008 -5.15855 0
M  V30 7941 H 734.638 0.192274 -2.98782 0
M  V30 7942 H 732.184 0.0910393 -1.43712 0
M  V30 7943 H 734.137 2.60779 -3.31017 0
M  V30 7944 H 732.861 2.52608 -2.07018 0
M  V30 7945 H 731.52 0.975237 -3.5339 0
M  V30 7946 H 731.168 3.44797 -3.6623 0
M  V30 7947 H 730.868 2.66778 -5.23549 0
M  V30 7948 H 732.392 3.55904 -4.9615 0
M  V30 7949 H 733.806 1.36979 -5.56695 0
M  V30 7950 H 732.203 0.684207 -5.96187 0
M  V30 7951 H 733.273 -0.182939 -4.84555 0
M  V30 7952 N 734.616 1.57351 0.0885366 0
M  V30 7953 C 735.862 1.86696 0.791996 0
M  V30 7954 C 736.195 0.775148 1.78059 0
M  V30 7955 O 735.47 -0.216247 1.93294 0
M  V30 7956 C 735.753 3.26684 1.51491 0
M  V30 7957 C 735.606 4.465 0.543858 0
M  V30 7958 C 736.925 3.64664 2.46391 0
M  V30 7959 H 734.044 0.679049 0.286463 0
M  V30 7960 H 736.686 1.89919 0.0554866 0
M  V30 7961 H 734.836 3.24067 2.14273 0
M  V30 7962 H 736.508 4.61235 -0.0774597 0
M  V30 7963 H 734.751 4.33567 -0.142228 0
M  V30 7964 H 735.422 5.41192 1.08696 0
M  V30 7965 H 737.898 3.68267 1.93698 0
M  V30 7966 H 736.774 4.63534 2.93986 0
M  V30 7967 H 737.035 2.93698 3.30445 0
M  V30 7968 N 736.094 -0.359525 1.53444 0
M  V30 7969 C 737.324 -1.12036 1.73585 0
M  V30 7970 C 737.732 -1.83335 0.467438 0
M  V30 7971 O 737.075 -1.74641 -0.569753 0
M  V30 7972 C 737.137 -2.19036 2.85068 0
M  V30 7973 C 736.801 -1.67451 4.25217 0
M  V30 7974 C 737.798 -1.13534 5.07352 0
M  V30 7975 C 735.483 -1.72781 4.71648 0
M  V30 7976 C 737.477 -0.656321 6.34012 0
M  V30 7977 C 735.164 -1.2449 5.98285 0
M  V30 7978 C 736.162 -0.710068 6.79299 0
M  V30 7979 O 735.85 -0.234314 8.03558 0
M  V30 7980 H 735.582 -0.340662 0.583888 0
M  V30 7981 H 738.136 -0.422452 2.01009 0
M  V30 7982 H 736.366 -2.92338 2.53131 0
M  V30 7983 H 738.055 -2.80559 2.93328 0
M  V30 7984 H 738.821 -1.08751 4.7265 0
M  V30 7985 H 734.7 -2.13351 4.08659 0
M  V30 7986 H 738.244 -0.238193 6.97193 0
M  V30 7987 H 734.141 -1.28969 6.32485 0
M  V30 7988 H 734.909 -0.353084 8.17738 0
M  V30 7989 N 737.572 -1.44907 -0.619662 0
M  V30 7990 C 738.82 -1.47999 -1.37625 0
M  V30 7991 C 739.141 -0.118295 -1.94641 0
M  V30 7992 O 738.411 0.85086 -1.76457 0
M  V30 7993 H 736.991 -0.544993 -0.510873 0
M  V30 7994 H 739.653 -1.80772 -0.728522 0
M  V30 7995 H 738.749 -2.21196 -2.20179 0
M  V30 7996 N 739.05 0.861098 -1.31996 0
M  V30 7997 C 740.466 1.14827 -1.10846 0
M  V30 7998 C 740.666 2.0117 0.11528 0
M  V30 7999 O 739.722 2.39423 0.802048 0
M  V30 8000 C 741.035 1.83183 -2.38462 0
M  V30 8001 C 742.583 1.95847 -2.44158 0
M  V30 8002 C 743.058 2.67617 -3.71679 0
M  V30 8003 N 744.549 2.75147 -3.72624 0
M  V30 8004 C 745.284 3.31314 -4.67994 0
M  V30 8005 N 744.78 3.88343 -5.73726 0
M  V30 8006 N 746.573 3.29356 -4.55501 0
M  V30 8007 H 738.724 0.285951 -2.10466 0
M  V30 8008 H 740.987 0.189303 -0.928907 0
M  V30 8009 H 740.693 1.27193 -3.27895 0
M  V30 8010 H 740.567 2.83393 -2.48935 0
M  V30 8011 H 742.954 2.50999 -1.55189 0
M  V30 8012 H 743.035 0.94653 -2.37644 0
M  V30 8013 H 742.679 2.13131 -4.61018 0
M  V30 8014 H 742.609 3.69237 -3.75462 0
M  V30 8015 H 745.1 2.34682 -2.96197 0
M  V30 8016 H 745.413 4.29338 -6.42564 0
M  V30 8017 H 743.758 3.86693 -5.77489 0
M  V30 8018 H 746.949 2.84047 -3.72069 0
M  V30 8019 H 747.122 3.7283 -5.30001 0
M  V30 8020 N 740.528 1.15101 1.07655 0
M  V30 8021 C 741.491 0.847625 2.12951 0
M  V30 8022 C 742.491 -0.151227 1.60087 0
M  V30 8023 O 743.681 0.0780399 1.74025 0
M  V30 8024 C 740.813 0.265 3.39868 0
M  V30 8025 H 742.006 1.7809 2.41296 0
M  V30 8026 H 739.559 0.958072 1.23494 0
M  V30 8027 H 740.294 -0.676625 3.17163 0
M  V30 8028 H 740.079 0.984554 3.79538 0
M  V30 8029 H 741.569 0.0702121 4.17541 0
M  V30 8030 N 742.006 -1.2595 0.947325 0
M  V30 8031 C 743.283 -1.88676 0.515824 0
M  V30 8032 C 743.663 -1.85547 -1.00675 0
M  V30 8033 O 743.011 -1.31399 -1.8694 0
M  V30 8034 C 743.221 -3.31734 1.08415 0
M  V30 8035 C 744.569 -4.08545 1.15654 0
M  V30 8036 O 745.593 -3.40826 1.03517 0
M  V30 8037 O 744.452 -5.29663 1.34608 0
M  V30 8038 H 741.546 -0.809537 0.169055 0
M  V30 8039 H 744.092 -1.34075 1.04029 0
M  V30 8040 H 742.864 -3.28404 2.1276 0
M  V30 8041 H 742.487 -3.93882 0.542499 0
M  V30 8042 N 743.484 -0.715051 -1.40445 0
M  V30 8043 C 744.733 -0.251322 -2.00128 0
M  V30 8044 C 745.046 1.16194 -1.57347 0
M  V30 8045 O 746.252 1.72416 -2.09726 0
M  V30 8046 C 744.708 -0.398407 -3.57688 0
M  V30 8047 C 744.316 -1.81828 -4.09442 0
M  V30 8048 C 746.06 0.00455625 -4.245 0
M  V30 8049 C 743.967 -1.91598 -5.59503 0
M  V30 8050 H 742.897 -0.0902081 -0.748584 0
M  V30 8051 H 745.548 -0.886062 -1.6069 0
M  V30 8052 H 743.93 0.304908 -3.94824 0
M  V30 8053 H 745.104 -2.55193 -3.83684 0
M  V30 8054 H 743.419 -2.17266 -3.55225 0
M  V30 8055 H 746.016 -0.0477303 -5.34679 0
M  V30 8056 H 746.359 1.04636 -4.02935 0
M  V30 8057 H 746.892 -0.649184 -3.92467 0
M  V30 8058 H 743.631 -2.93898 -5.85922 0
M  V30 8059 H 743.151 -1.22644 -5.87127 0
M  V30 8060 H 744.83 -1.68785 -6.24596 0
M  V30 8061 N 744.962 1.50701 -0.461195 0
M  V30 8062 C 745.925 2.2686 0.326679 0
M  V30 8063 C 746.925 1.31243 0.929085 0
M  V30 8064 O 748.115 1.54754 0.799807 0
M  V30 8065 C 745.247 3.07844 1.46441 0
M  V30 8066 H 746.44 2.97954 -0.341095 0
M  V30 8067 H 743.993 1.54814 -0.214984 0
M  V30 8068 H 744.728 2.41223 2.16753 0
M  V30 8069 H 744.513 3.78101 1.03836 0
M  V30 8070 H 746.003 3.65469 2.02044 0
M  V30 8071 N 746.441 0.193421 1.56409 0
M  V30 8072 C 747.687 -0.446449 1.97825 0
M  V30 8073 C 748.02 -1.61386 1.08019 0
M  V30 8074 O 747.295 -1.94053 0.131839 0
M  V30 8075 C 747.578 -0.908199 3.48459 0
M  V30 8076 C 747.431 0.260914 4.49043 0
M  V30 8077 C 748.75 -1.77428 4.0275 0
M  V30 8078 H 745.869 -0.160807 0.719243 0
M  V30 8079 H 748.511 0.284006 1.87865 0
M  V30 8080 H 746.661 -1.53062 3.57077 0
M  V30 8081 H 748.333 0.898548 4.52464 0
M  V30 8082 H 746.576 0.912949 4.24085 0
M  V30 8083 H 747.247 -0.104657 5.51901 0
M  V30 8084 H 749.723 -1.24936 3.96901 0
M  V30 8085 H 748.599 -2.06633 5.08521 0
M  V30 8086 H 748.86 -2.72788 3.47907 0
M  V30 8087 N 747.919 -1.57396 -0.0801906 0
M  V30 8088 C 748.882 -2.02133 -1.0805 0
M  V30 8089 C 749.882 -0.91707 -1.32085 0
M  V30 8090 O 751.072 -1.18217 -1.27947 0
M  V30 8091 C 748.204 -2.39479 -2.42616 0
M  V30 8092 H 749.397 -2.91733 -0.6951 0
M  V30 8093 H 746.95 -1.52869 -0.325677 0
M  V30 8094 H 747.685 -1.52879 -2.86004 0
M  V30 8095 H 747.47 -3.20052 -2.26515 0
M  V30 8096 H 748.96 -2.74697 -3.14534 0
M  V30 8097 N 749.397 0.351382 -1.53633 0
M  V30 8098 C 750.808 0.927429 -1.62036 0
M  V30 8099 C 751.159 1.89809 -0.496706 0
M  V30 8100 O 750.284 2.1313 0.374749 0
M  V30 8101 C 750.879 1.68886 -2.93706 0
M  V30 8102 C 749.438 2.21404 -3.04397 0
M  V30 8103 C 748.585 1.03075 -2.57431 0
M  V30 8104 H 751.536 0.129748 -1.58169 0
M  V30 8105 H 751.557 2.55116 -2.82305 0
M  V30 8106 H 751.069 0.982149 -3.75467 0
M  V30 8107 H 749.17 2.95274 -2.27253 0
M  V30 8108 H 749.283 2.48312 -4.09729 0
M  V30 8109 H 747.647 1.40188 -2.12649 0
M  V30 8110 H 748.43 0.338793 -3.41624 0
M  V30 8111 N 750.875 1.45233 0.611969 0
M  V30 8112 C 751.805 1.5641 1.73373 0
M  V30 8113 C 752.786 0.415896 1.64937 0
M  V30 8114 O 753.971 0.638478 1.83404 0
M  V30 8115 C 751.101 1.52627 3.11965 0
M  V30 8116 C 750.055 2.66119 3.35208 0
M  V30 8117 C 749.381 2.4739 4.74028 0
M  V30 8118 C 750.681 4.08157 3.25891 0
M  V30 8119 H 752.375 2.50307 1.64277 0
M  V30 8120 H 749.921 1.20467 0.788904 0
M  V30 8121 H 751.874 1.59043 3.90235 0
M  V30 8122 H 750.598 0.552564 3.21892 0
M  V30 8123 H 749.257 2.59123 2.59327 0
M  V30 8124 H 748.905 1.48168 4.80682 0
M  V30 8125 H 748.605 3.23494 4.90536 0
M  V30 8126 H 750.129 2.55653 5.54503 0
M  V30 8127 H 751.543 4.1642 3.9404 0
M  V30 8128 H 749.94 4.84617 3.5393 0
M  V30 8129 H 751.01 4.30374 2.23397 0
M  V30 8130 N 752.353 -0.854086 1.3245 0
M  V30 8131 C 753.581 -1.64074 1.26045 0
M  V30 8132 C 753.996 -1.8802 -0.171456 0
M  V30 8133 O 753.353 -1.4496 -1.10873 0
M  V30 8134 C 753.404 -2.9997 2.01743 0
M  V30 8135 O 753.125 -2.77084 3.39346 0
M  V30 8136 C 754.626 -3.94414 2.02368 0
M  V30 8137 H 751.846 -0.511015 0.434862 0
M  V30 8138 H 754.39 -1.06494 1.74583 0
M  V30 8139 H 752.545 -3.54193 1.56926 0
M  V30 8140 H 752.959 -3.63514 3.78098 0
M  V30 8141 H 754.433 -4.87032 2.59815 0
M  V30 8142 H 754.91 -4.27427 1.01009 0
M  V30 8143 H 755.516 -3.46127 2.47135 0
M  V30 8144 N 753.831 -1.1567 -1.07043 0
M  V30 8145 C 755.08 -0.928039 -1.79082 0
M  V30 8146 C 755.393 0.545968 -1.87826 0
M  V30 8147 O 756.599 0.892308 -2.56418 0
M  V30 8148 C 755.055 -1.61103 -3.21829 0
M  V30 8149 C 754.663 -3.12228 -3.21275 0
M  V30 8150 C 756.407 -1.46404 -3.98455 0
M  V30 8151 C 754.314 -3.733 -4.58695 0
M  V30 8152 H 753.244 -0.34357 -0.671175 0
M  V30 8153 H 755.895 -1.38718 -1.20123 0
M  V30 8154 H 754.277 -1.07958 -3.81 0
M  V30 8155 H 755.451 -3.72155 -2.71731 0
M  V30 8156 H 753.766 -3.26725 -2.58147 0
M  V30 8157 H 756.363 -1.8942 -5.00024 0
M  V30 8158 H 756.706 -0.41195 -4.14257 0
M  V30 8159 H 757.239 -1.96663 -3.45787 0
M  V30 8160 H 753.978 -4.78423 -4.48098 0
M  V30 8161 H 753.498 -3.18157 -5.08465 0
M  V30 8162 H 755.177 -3.7441 -5.27661 0
M  V30 8163 N 755.309 1.25446 -0.953992 0
M  V30 8164 C 756.537 1.97215 -0.625595 0
M  V30 8165 C 756.952 1.70911 0.802168 0
M  V30 8166 O 756.309 0.984782 1.5365 0
M  V30 8167 C 756.36 3.50777 -0.873943 0
M  V30 8168 O 756.081 3.76173 -2.24556 0
M  V30 8169 C 757.582 4.39776 -0.557845 0
M  V30 8170 H 754.802 0.628652 -0.2346 0
M  V30 8171 H 757.346 1.59632 -1.27819 0
M  V30 8172 H 755.501 3.86474 -0.267765 0
M  V30 8173 H 755.915 4.70636 -2.31522 0
M  V30 8174 H 757.389 5.46431 -0.782157 0
M  V30 8175 H 757.866 4.36257 0.507573 0
M  V30 8176 H 758.472 4.09644 -1.14332 0
M  V30 8177 N 756.787 0.722489 1.40064 0
M  V30 8178 C 757.717 0.0892452 2.33329 0
M  V30 8179 C 758.698 -0.737992 1.53257 0
M  V30 8180 O 759.883 -0.685516 1.81698 0
M  V30 8181 C 757.013 -0.828139 3.37282 0
M  V30 8182 C 755.967 -0.106005 4.27869 0
M  V30 8183 C 755.293 -1.13957 5.22415 0
M  V30 8184 C 756.593 1.04395 5.11761 0
M  V30 8185 H 758.287 0.868269 2.86534 0
M  V30 8186 H 755.833 0.418982 1.3777 0
M  V30 8187 H 757.786 -1.28058 4.01471 0
M  V30 8188 H 756.51 -1.63914 2.82489 0
M  V30 8189 H 755.169 0.326683 3.65142 0
M  V30 8190 H 754.817 -1.9438 4.63924 0
M  V30 8191 H 754.517 -0.661233 5.83868 0
M  V30 8192 H 756.041 -1.59197 5.89482 0
M  V30 8193 H 757.455 0.670541 5.69365 0
M  V30 8194 H 755.852 1.4511 5.82291 0
M  V30 8195 H 756.922 1.87144 4.47331 0
M  V30 8196 N 758.265 -1.50454 0.469181 0
M  V30 8197 C 759.511 -2.02615 -0.0865971 0
M  V30 8198 C 759.844 -1.35062 -1.39542 0
M  V30 8199 O 759.119 -0.475701 -1.88593 0
M  V30 8200 C 759.402 -3.59068 -0.272385 0
M  V30 8201 C 759.255 -4.37196 1.05733 0
M  V30 8202 C 760.574 -4.2793 -1.0278 0
M  V30 8203 H 757.693 -0.736389 -0.0299977 0
M  V30 8204 H 760.335 -1.79792 0.614399 0
M  V30 8205 H 758.485 -3.78646 -0.869471 0
M  V30 8206 H 760.157 -4.29195 1.69084 0
M  V30 8207 H 758.4 -4.01013 1.65442 0
M  V30 8208 H 759.071 -5.44924 0.880997 0
M  V30 8209 H 761.547 -4.12816 -0.521718 0
M  V30 8210 H 760.423 -5.37214 -1.12659 0
M  V30 8211 H 760.684 -3.90968 -2.0639 0
M  V30 8212 N 759.743 -0.201713 -1.56304 0
M  V30 8213 C 761.159 0.154025 -1.58855 0
M  V30 8214 C 761.359 1.60516 -1.21807 0
M  V30 8215 O 760.415 2.34193 -0.94393 0
M  V30 8216 C 761.728 -0.154319 -3.00304 0
M  V30 8217 C 763.276 -0.0949578 -3.12856 0
M  V30 8218 C 763.751 -0.376703 -4.56448 0
M  V30 8219 N 765.242 -0.325558 -4.62054 0
M  V30 8220 C 765.977 -0.51732 -5.71062 0
M  V30 8221 N 765.473 -0.769789 -6.8851 0
M  V30 8222 N 767.266 -0.45112 -5.60287 0
M  V30 8223 H 759.417 -1.14858 -1.78666 0
M  V30 8224 H 761.68 -0.458934 -0.829508 0
M  V30 8225 H 761.386 -1.16074 -3.31994 0
M  V30 8226 H 761.26 0.540014 -3.73314 0
M  V30 8227 H 763.647 0.902075 -2.80974 0
M  V30 8228 H 763.728 -0.822468 -2.42217 0
M  V30 8229 H 763.372 -1.37108 -4.89044 0
M  V30 8230 H 763.302 0.371772 -5.25286 0
M  V30 8231 H 765.793 -0.137308 -3.7765 0
M  V30 8232 H 766.106 -0.904744 -7.67486 0
M  V30 8233 H 764.451 -0.806758 -6.90302 0
M  V30 8234 H 767.642 -0.254253 -4.67409 0
M  V30 8235 H 767.815 -0.603982 -6.45179 0
M  V30 8236 N 761.222 1.57436 0.0718424 0
M  V30 8237 C 762.132 2.07039 1.10326 0
M  V30 8238 C 763.148 0.999918 1.424 0
M  V30 8239 O 764.324 1.31462 1.52577 0
M  V30 8240 C 761.389 2.50439 2.39752 0
M  V30 8241 C 760.45 3.71784 2.14651 0
M  V30 8242 C 759.683 4.13104 3.37906 0
M  V30 8243 O 759.906 3.54298 4.47023 0
M  V30 8244 O 758.84 5.05894 3.26121 0
M  V30 8245 H 762.666 2.95239 0.711872 0
M  V30 8246 H 760.251 1.46638 0.28597 0
M  V30 8247 H 762.133 2.78876 3.15921 0
M  V30 8248 H 760.808 1.65368 2.78271 0
M  V30 8249 H 759.715 3.48431 1.36187 0
M  V30 8250 H 761.048 4.57707 1.81012 0
M  V30 8251 N 762.7 -0.34323 1.53817 0
M  V30 8252 C 763.61 -1.44493 1.84821 0
M  V30 8253 C 764.626 -1.57556 0.738381 0
M  V30 8254 O 765.802 -1.73026 1.03072 0
M  V30 8255 C 762.867 -2.79478 2.05166 0
M  V30 8256 C 761.928 -2.75756 3.29025 0
M  V30 8257 C 761.161 -4.04302 3.4839 0
M  V30 8258 O 761.384 -5.01595 2.71586 0
M  V30 8259 O 760.318 -4.08754 4.41819 0
M  V30 8260 H 764.144 -1.21209 2.78464 0
M  V30 8261 H 761.729 -0.535437 1.39476 0
M  V30 8262 H 763.611 -3.59419 2.19991 0
M  V30 8263 H 762.286 -3.02692 1.14713 0
M  V30 8264 H 761.193 -1.94434 3.19603 0
M  V30 8265 H 762.526 -2.57495 4.19472 0
M  V30 8266 N 764.178 -1.45556 -0.604258 0
M  V30 8267 C 765.424 -1.49968 -1.36519 0
M  V30 8268 C 765.757 -0.142236 -1.93678 0
M  V30 8269 O 765.032 0.843717 -1.75247 0
M  V30 8270 C 765.315 -2.58146 -2.51063 0
M  V30 8271 C 765.168 -4.03346 -1.99078 0
M  V30 8272 C 766.487 -2.62581 -3.53184 0
M  V30 8273 H 763.606 -0.545993 -0.495036 0
M  V30 8274 H 766.248 -1.77382 -0.680845 0
M  V30 8275 H 764.398 -2.34901 -3.09441 0
M  V30 8276 H 766.07 -4.37811 -1.45323 0
M  V30 8277 H 764.313 -4.13845 -1.30055 0
M  V30 8278 H 764.984 -4.74731 -2.81664 0
M  V30 8279 H 767.46 -2.83419 -3.04652 0
M  V30 8280 H 766.336 -3.40131 -4.30816 0
M  V30 8281 H 766.597 -1.67798 -4.09019 0
M  V30 8282 N 765.656 0.84705 -1.32902 0
M  V30 8283 C 766.905 1.59667 -1.23245 0
M  V30 8284 C 767.218 1.94551 0.202349 0
M  V30 8285 O 768.424 2.68218 0.420847 0
M  V30 8286 C 766.88 2.8795 -2.15901 0
M  V30 8287 C 766.488 2.60461 -3.64505 0
M  V30 8288 C 768.232 3.65968 -2.15098 0
M  V30 8289 C 766.139 3.84791 -4.49099 0
M  V30 8290 H 765.069 0.599167 -0.457728 0
M  V30 8291 H 767.72 0.934662 -1.57912 0
M  V30 8292 H 766.102 3.55648 -1.74157 0
M  V30 8293 H 767.276 2.01026 -4.14639 0
M  V30 8294 H 765.591 1.9576 -3.67515 0
M  V30 8295 H 768.188 4.58241 -2.75534 0
M  V30 8296 H 768.531 4.00275 -1.14392 0
M  V30 8297 H 769.064 3.05184 -2.55162 0
M  V30 8298 H 765.803 3.55621 -5.50649 0
M  V30 8299 H 765.323 4.43594 -4.03713 0
M  V30 8300 H 767.002 4.52454 -4.62487 0
M  V30 8301 N 767.134 1.16236 1.06428 0
M  V30 8302 C 768.411 0.853294 1.76006 0
M  V30 8303 C 768.791 -0.649162 2.00871 0
M  V30 8304 O 768.139 -1.59653 1.63472 0
M  V30 8305 C 768.349 1.67448 3.06206 0
M  V30 8306 C 769.697 1.8866 3.80385 0
M  V30 8307 O 770.721 1.64303 3.16043 0
M  V30 8308 O 769.58 2.29518 4.95968 0
M  V30 8309 H 766.674 0.314737 0.764767 0
M  V30 8310 H 769.22 1.26865 1.12709 0
M  V30 8311 H 767.992 2.69411 2.83784 0
M  V30 8312 H 767.615 1.25608 3.77238 0
M  V30 8313 N 768.612 -1.24939 0.960631 0
M  V30 8314 C 769.859 -1.92818 0.618663 0
M  V30 8315 C 770.187 -1.75177 -0.845173 0
M  V30 8316 O 769.442 -1.09412 -1.62258 0
M  V30 8317 C 769.741 -3.45066 0.930809 0
M  V30 8318 C 769.407 -3.82869 2.38164 0
M  V30 8319 C 768.069 -3.92899 2.7782 0
M  V30 8320 C 770.421 -4.01483 3.32356 0
M  V30 8321 C 767.749 -4.18955 4.10723 0
M  V30 8322 C 770.101 -4.29033 4.6488 0
M  V30 8323 C 768.765 -4.37282 5.04322 0
M  V30 8324 H 768.035 -0.705571 0.226385 0
M  V30 8325 H 770.682 -1.48365 1.21079 0
M  V30 8326 H 768.987 -3.9096 0.256355 0
M  V30 8327 H 770.684 -3.95783 0.644712 0
M  V30 8328 H 767.274 -3.75622 2.06413 0
M  V30 8329 H 771.458 -3.93143 3.02907 0
M  V30 8330 H 766.714 -4.23558 4.40918 0
M  V30 8331 H 770.888 -4.42381 5.3784 0
M  V30 8332 H 768.515 -4.57225 6.0733 0
M  V30 8333 N 770.09 -0.729906 -1.39679 0
M  V30 8334 C 771.315 -0.284345 -2.05442 0
M  V30 8335 C 771.74 1.07056 -1.54663 0
M  V30 8336 O 771.098 1.67732 -0.688157 0
M  V30 8337 C 771.146 -0.290089 -3.59431 0
M  V30 8338 O 770.25 0.723978 -4.05995 0
M  V30 8339 H 769.591 -0.130311 -0.651088 0
M  V30 8340 H 772.121 -0.994403 -1.78809 0
M  V30 8341 H 772.131 -0.132712 -4.07784 0
M  V30 8342 H 770.806 -1.27877 -3.95753 0
M  V30 8343 H 769.383 0.533154 -3.69069 0
M  V30 8344 N 771.568 1.50203 -0.477153 0
M  V30 8345 C 772.515 2.28656 0.31386 0
M  V30 8346 C 773.485 1.33977 0.981802 0
M  V30 8347 O 774.67 1.62919 0.993072 0
M  V30 8348 C 771.81 3.16027 1.38639 0
M  V30 8349 C 770.923 4.25743 0.732615 0
M  V30 8350 C 770.058 5.00363 1.78355 0
M  V30 8351 C 769.097 6.01945 1.11035 0
M  V30 8352 N 768.234 6.6982 2.10441 0
M  V30 8353 H 773.074 2.958 -0.361445 0
M  V30 8354 H 770.611 1.45867 -0.190093 0
M  V30 8355 H 772.569 3.6504 2.01994 0
M  V30 8356 H 771.199 2.50917 2.03077 0
M  V30 8357 H 770.251 3.80398 -0.0136546 0
M  V30 8358 H 771.563 4.98393 0.201513 0
M  V30 8359 H 770.717 5.53124 2.49276 0
M  V30 8360 H 769.456 4.27432 2.34847 0
M  V30 8361 H 768.461 5.48438 0.386797 0
M  V30 8362 H 769.686 6.76851 0.552248 0
M  V30 8363 H 767.632 5.99677 2.65939 0
M  V30 8364 H 767.549 7.38366 1.62332 0
M  V30 8365 H 768.817 7.27196 2.80724 0
M  V30 8366 N 773.046 0.209999 1.56195 0
M  V30 8367 C 774.457 -0.299943 1.84275 0
M  V30 8368 C 774.808 -1.60314 1.1311 0
M  V30 8369 O 773.933 -2.1273 0.396874 0
M  V30 8370 C 774.528 -0.550986 3.3429 0
M  V30 8371 C 773.087 -1.00526 3.62728 0
M  V30 8372 C 772.234 -0.0619828 2.77231 0
M  V30 8373 H 775.185 0.433458 1.52666 0
M  V30 8374 H 775.206 -1.39846 3.53869 0
M  V30 8375 H 774.718 0.397669 3.86057 0
M  V30 8376 H 772.819 -1.96768 3.16407 0
M  V30 8377 H 772.932 -0.887664 4.70805 0
M  V30 8378 H 771.296 -0.566648 2.48317 0
M  V30 8379 H 772.079 0.881383 3.31793 0
M  V30 8380 N 774.524 -1.57472 -0.0634922 0
M  V30 8381 C 775.771 -1.87654 -0.761066 0
M  V30 8382 C 776.099 -0.802847 -1.77157 0
M  V30 8383 O 775.354 0.200244 -1.94673 0
M  V30 8384 C 775.653 -3.24521 -1.49736 0
M  V30 8385 C 775.319 -4.46532 -0.626065 0
M  V30 8386 C 773.981 -4.7965 -0.385978 0
M  V30 8387 C 776.333 -5.21195 -0.0224001 0
M  V30 8388 C 773.661 -5.84837 0.467118 0
M  V30 8389 C 776.013 -6.27286 0.818198 0
M  V30 8390 C 774.677 -6.58899 1.06808 0
M  V30 8391 H 773.947 -0.686675 -0.278494 0
M  V30 8392 H 776.594 -1.91488 -0.0216348 0
M  V30 8393 H 774.899 -3.16516 -2.30921 0
M  V30 8394 H 776.596 -3.45111 -2.04204 0
M  V30 8395 H 773.186 -4.20618 -0.823325 0
M  V30 8396 H 777.37 -4.95917 -0.194985 0
M  V30 8397 H 772.626 -6.07725 0.669375 0
M  V30 8398 H 776.8 -6.84298 1.29265 0
M  V30 8399 H 774.427 -7.40233 1.73088 0
M  V30 8400 N 776.003 0.335068 -1.53997 0
M  V30 8401 C 776.936 1.43533 -1.77407 0
M  V30 8402 C 777.914 1.5017 -0.623529 0
M  V30 8403 O 779.098 1.67756 -0.85966 0
M  V30 8404 C 776.225 2.81712 -1.88033 0
M  V30 8405 C 775.271 2.92661 -3.10245 0
M  V30 8406 S 776.104 2.58254 -4.69111 0
M  V30 8407 C 777.26 3.98525 -4.82627 0
M  V30 8408 H 777.493 1.2346 -2.70453 0
M  V30 8409 H 775.026 0.531234 -1.44973 0
M  V30 8410 H 776.984 3.61314 -1.9484 0
M  V30 8411 H 775.645 2.99075 -0.959849 0
M  V30 8412 H 774.838 3.93931 -3.14379 0
M  V30 8413 H 774.44 2.21017 -3.01708 0
M  V30 8414 H 776.732 4.93146 -4.64557 0
M  V30 8415 H 777.675 3.9938 -5.84723 0
M  V30 8416 H 778.083 3.86945 -4.11016 0
M  V30 8417 N 777.481 1.45874 0.596531 0
M  V30 8418 C 778.706 1.54247 1.38646 0
M  V30 8419 C 779.131 0.179571 1.87241 0
M  V30 8420 O 778.489 -0.837831 1.6078 0
M  V30 8421 C 778.537 2.54015 2.55946 0
M  V30 8422 O 777.641 2.06561 3.5694 0
M  V30 8423 H 776.982 0.519555 0.413471 0
M  V30 8424 H 779.512 1.91327 0.724936 0
M  V30 8425 H 779.522 2.73179 3.03047 0
M  V30 8426 H 778.197 3.52994 2.19928 0
M  V30 8427 H 776.774 1.97324 3.16414 0
M  V30 8428 N 778.959 -0.83999 1.33349 0
M  V30 8429 C 779.889 -1.965 1.26135 0
M  V30 8430 C 780.87 -1.69505 0.142152 0
M  V30 8431 O 782.055 -1.91346 0.331743 0
M  V30 8432 C 779.185 -3.32632 0.99866 0
M  V30 8433 C 778.139 -3.74021 2.08068 0
M  V30 8434 C 777.465 -5.07947 1.67014 0
M  V30 8435 C 778.765 -3.87925 3.49731 0
M  V30 8436 H 780.459 -2.02793 2.20262 0
M  V30 8437 H 778.005 -0.974297 1.06035 0
M  V30 8438 H 779.958 -4.10903 0.934696 0
M  V30 8439 H 778.682 -3.26593 0.0217759 0
M  V30 8440 H 777.341 -2.98012 2.13505 0
M  V30 8441 H 776.989 -4.98378 0.680316 0
M  V30 8442 H 776.689 -5.36611 2.39422 0
M  V30 8443 H 778.213 -5.88695 1.62082 0
M  V30 8444 H 779.627 -4.5651 3.46802 0
M  V30 8445 H 778.024 -4.28023 4.20614 0
M  V30 8446 H 779.094 -2.90407 3.88319 0
M  V30 8447 N 780.437 -1.16799 -1.0581 0
M  V30 8448 C 781.685 -0.950642 -1.78346 0
M  V30 8449 C 782.006 0.522524 -1.87869 0
M  V30 8450 O 781.276 1.3795 -1.39092 0
M  V30 8451 H 779.856 -0.348736 -0.6606 0
M  V30 8452 H 782.518 -1.47158 -1.27791 0
M  V30 8453 H 781.614 -1.37359 -2.80248 0
M  V30 8454 N 781.915 1.24427 -0.967243 0
M  V30 8455 C 783.164 1.91789 -0.624478 0
M  V30 8456 C 783.477 1.76448 0.844129 0
M  V30 8457 O 784.683 2.38495 1.2974 0
M  V30 8458 C 783.139 3.43743 -1.06626 0
M  V30 8459 C 782.747 3.67771 -2.55829 0
M  V30 8460 C 784.491 4.16958 -0.79662 0
M  V30 8461 C 782.398 5.13293 -2.93742 0
M  V30 8462 H 781.328 0.71811 -0.229856 0
M  V30 8463 H 783.979 1.41081 -1.17339 0
M  V30 8464 H 782.361 3.93484 -0.445663 0
M  V30 8465 H 783.535 3.28631 -3.23015 0
M  V30 8466 H 781.85 3.07841 -2.80398 0
M  V30 8467 H 784.447 5.24171 -1.05589 0
M  V30 8468 H 784.79 4.15442 0.267163 0
M  V30 8469 H 785.323 3.73164 -1.37816 0
M  V30 8470 H 782.062 5.19931 -3.9919 0
M  V30 8471 H 781.582 5.53433 -2.3124 0
M  V30 8472 H 783.261 5.81521 -2.83623 0
M  V30 8473 N 783.393 0.737304 1.3929 0
M  V30 8474 C 784.618 0.295237 2.05288 0
M  V30 8475 C 785.043 -1.06235 1.55228 0
M  V30 8476 O 784.401 -1.67365 0.697043 0
M  V30 8477 C 784.449 0.309146 3.59272 0
M  V30 8478 O 783.553 -0.702437 4.06374 0
M  V30 8479 H 782.894 0.133762 0.650387 0
M  V30 8480 H 785.424 1.00387 1.78279 0
M  V30 8481 H 785.434 0.154336 4.07708 0
M  V30 8482 H 784.109 1.29974 3.95069 0
M  V30 8483 H 782.686 -0.513574 3.69346 0
M  V30 8484 N 784.871 -1.49948 0.485112 0
M  V30 8485 C 786.12 -2.01589 -0.066765 0
M  V30 8486 C 786.433 -1.371 -1.39509 0
M  V30 8487 O 787.639 -1.79978 -2.03274 0
M  V30 8488 C 786.095 -3.59501 -0.169476 0
M  V30 8489 C 785.703 -4.32955 1.15126 0
M  V30 8490 C 787.447 -4.19138 -0.672564 0
M  V30 8491 C 785.354 -5.82684 1.01158 0
M  V30 8492 H 784.284 -0.753453 -0.0287259 0
M  V30 8493 H 786.935 -1.72632 0.622132 0
M  V30 8494 H 785.317 -3.85106 -0.922471 0
M  V30 8495 H 786.491 -4.19064 1.9163 0
M  V30 8496 H 784.806 -3.84991 1.58654 0
M  V30 8497 H 787.403 -5.28767 -0.794325 0
M  V30 8498 H 787.746 -3.81447 -1.66745 0
M  V30 8499 H 788.279 -3.97793 0.0234415 0
M  V30 8500 H 785.018 -6.24873 1.98025 0
M  V30 8501 H 784.538 -5.99112 0.287151 0
M  V30 8502 H 786.217 -6.43376 0.683847 0
M  V30 8503 N 786.349 -0.21828 -1.56081 0
M  V30 8504 C 787.282 0.733096 -2.16104 0
M  V30 8505 C 788.26 1.19333 -1.10447 0
M  V30 8506 O 789.444 1.27666 -1.38685 0
M  V30 8507 C 786.571 1.99283 -2.73868 0
M  V30 8508 C 785.617 1.67285 -3.92324 0
M  V30 8509 S 786.45 0.800511 -5.29483 0
M  V30 8510 C 787.606 2.06988 -5.90683 0
M  V30 8511 H 787.839 0.222917 -2.96463 0
M  V30 8512 H 785.372 -0.00300946 -1.544 0
M  V30 8513 H 787.33 2.71618 -3.07789 0
M  V30 8514 H 785.991 2.47414 -1.93508 0
M  V30 8515 H 785.184 2.60874 -4.31232 0
M  V30 8516 H 784.786 1.03016 -3.59533 0
M  V30 8517 H 787.078 3.02019 -6.06457 0
M  V30 8518 H 788.021 1.72476 -6.86773 0
M  V30 8519 H 788.429 2.20893 -5.19487 0
M  V30 8520 N 787.827 1.57504 0.0551401 0
M  V30 8521 C 789.076 1.87237 0.750009 0
M  V30 8522 C 789.389 0.813268 1.77891 0
M  V30 8523 O 790.595 0.99898 2.52453 0
M  V30 8524 C 789.051 3.32187 1.38491 0
M  V30 8525 C 788.659 4.46267 0.393707 0
M  V30 8526 C 790.403 3.71101 2.06117 0
M  V30 8527 C 788.31 5.82265 1.03547 0
M  V30 8528 H 787.24 0.698524 0.283866 0
M  V30 8529 H 789.891 1.835 0.00365997 0
M  V30 8530 H 788.273 3.30588 2.18008 0
M  V30 8531 H 789.447 4.59289 -0.372865 0
M  V30 8532 H 787.762 4.16015 -0.17902 0
M  V30 8533 H 790.359 4.70012 2.54937 0
M  V30 8534 H 790.702 3.01751 2.86796 0
M  V30 8535 H 791.235 3.74762 1.33409 0
M  V30 8536 H 787.974 6.54949 0.268644 0
M  V30 8537 H 787.494 5.73012 1.7725 0
M  V30 8538 H 789.173 6.28148 1.55047 0
M  V30 8539 N 789.305 -0.326896 1.54172 0
M  V30 8540 C 790.252 -1.40216 1.83325 0
M  V30 8541 C 791.222 -1.51538 0.680107 0
M  V30 8542 O 792.407 -1.66811 0.926206 0
M  V30 8543 C 789.547 -2.76626 2.0633 0
M  V30 8544 C 788.66 -2.73963 3.34019 0
M  V30 8545 C 787.795 -4.02198 3.47002 0
M  V30 8546 C 786.834 -3.93828 4.68578 0
M  V30 8547 N 785.971 -5.13787 4.78506 0
M  V30 8548 H 790.811 -1.14656 2.7506 0
M  V30 8549 H 788.348 -0.555089 1.36225 0
M  V30 8550 H 790.306 -3.55922 2.17659 0
M  V30 8551 H 788.936 -3.00503 1.1789 0
M  V30 8552 H 787.988 -1.86677 3.31445 0
M  V30 8553 H 789.3 -2.6366 4.2342 0
M  V30 8554 H 788.454 -4.89923 3.57855 0
M  V30 8555 H 787.193 -4.15302 2.55687 0
M  V30 8556 H 786.198 -3.04487 4.57786 0
M  V30 8557 H 787.423 -3.82292 5.61275 0
M  V30 8558 H 785.369 -5.27403 3.90105 0
M  V30 8559 H 785.286 -5.05807 5.61868 0
M  V30 8560 H 786.554 -6.03236 4.93686 0
M  V30 8561 N 790.784 -1.46188 -0.588786 0
M  V30 8562 C 791.731 -1.56292 -1.69828 0
M  V30 8563 C 792.701 -0.407581 -1.61022 0
M  V30 8564 O 793.886 -0.623532 -1.80324 0
M  V30 8565 C 791.026 -1.55341 -3.08161 0
M  V30 8566 C 790.139 -2.81564 -3.27636 0
M  V30 8567 C 789.274 -2.72158 -4.56183 0
M  V30 8568 C 788.313 -3.93348 -4.68981 0
M  V30 8569 N 787.45 -3.82365 -5.88848 0
M  V30 8570 H 792.29 -2.51066 -1.6053 0
M  V30 8571 H 789.827 -1.24562 -0.782474 0
M  V30 8572 H 791.785 -1.52776 -3.88221 0
M  V30 8573 H 790.415 -0.641034 -3.16371 0
M  V30 8574 H 789.467 -2.94136 -2.41223 0
M  V30 8575 H 790.779 -3.714 -3.32962 0
M  V30 8576 H 789.933 -2.67665 -5.44464 0
M  V30 8577 H 788.672 -1.79953 -4.53286 0
M  V30 8578 H 787.677 -3.98181 -3.7912 0
M  V30 8579 H 788.902 -4.86643 -4.73662 0
M  V30 8580 H 786.848 -2.92942 -5.86959 0
M  V30 8581 H 786.765 -4.65851 -5.95415 0
M  V30 8582 H 788.033 -3.81836 -6.79575 0
M  V30 8583 N 792.262 0.832906 -1.33792 0
M  V30 8584 C 793.673 1.40489 -1.22963 0
M  V30 8585 C 794.024 1.95633 0.149026 0
M  V30 8586 O 793.149 1.8928 1.04891 0
M  V30 8587 C 793.744 2.55387 -2.22627 0
M  V30 8588 C 792.303 3.08522 -2.15618 0
M  V30 8589 C 791.45 1.81347 -2.09782 0
M  V30 8590 H 794.401 0.638156 -1.45304 0
M  V30 8591 H 794.422 3.33193 -1.83746 0
M  V30 8592 H 793.934 2.15222 -3.22957 0
M  V30 8593 H 792.035 3.53217 -1.18611 0
M  V30 8594 H 792.148 3.6829 -3.0643 0
M  V30 8595 H 790.512 2.01839 -1.55349 0
M  V30 8596 H 791.295 1.43369 -3.1193 0
M  V30 8597 N 793.74 1.17359 1.05189 0
M  V30 8598 C 794.672 0.848078 2.12933 0
M  V30 8599 C 795.685 -0.149521 1.62112 0
M  V30 8600 O 796.874 0.0767797 1.78335 0
M  V30 8601 C 793.974 0.243889 3.38021 0
M  V30 8602 C 793.147 1.28436 4.18118 0
M  V30 8603 C 792.206 0.697926 5.21551 0
M  V30 8604 O 791.232 1.36973 5.52473 0
M  V30 8605 N 792.434 -0.510024 5.78255 0
M  V30 8606 H 795.199 1.7754 2.41453 0
M  V30 8607 H 792.76 1.07244 1.21286 0
M  V30 8608 H 794.752 -0.161727 4.04377 0
M  V30 8609 H 793.322 -0.58722 3.07035 0
M  V30 8610 H 792.542 1.86573 3.47252 0
M  V30 8611 H 793.83 1.98617 4.68432 0
M  V30 8612 H 793.228 -1.07378 5.55416 0
M  V30 8613 H 791.785 -0.857705 6.46132 0
M  V30 8614 N 795.218 -1.23913 0.973828 0
M  V30 8615 C 796.165 -2.25132 0.508366 0
M  V30 8616 C 797.135 -1.59908 -0.449307 0
M  V30 8617 O 798.32 -1.87405 -0.358313 0
M  V30 8618 C 795.46 -3.4458 -0.189422 0
M  V30 8619 C 794.573 -4.24381 0.807738 0
M  V30 8620 C 793.708 -5.31131 0.0854315 0
M  V30 8621 C 792.747 -6.02635 1.07225 0
M  V30 8622 N 791.884 -7.01073 0.379535 0
M  V30 8623 H 796.724 -2.64313 1.37632 0
M  V30 8624 H 794.261 -1.29924 0.689802 0
M  V30 8625 H 796.219 -4.12706 -0.610733 0
M  V30 8626 H 794.849 -3.06218 -1.02129 0
M  V30 8627 H 793.901 -3.55735 1.34747 0
M  V30 8628 H 795.213 -4.73778 1.55998 0
M  V30 8629 H 794.367 -6.05422 -0.393572 0
M  V30 8630 H 793.106 -4.82658 -0.699461 0
M  V30 8631 H 792.111 -5.27143 1.56207 0
M  V30 8632 H 793.336 -6.53197 1.85769 0
M  V30 8633 H 791.282 -6.54862 -0.386269 0
M  V30 8634 H 791.199 -7.48382 1.07054 0
M  V30 8635 H 792.467 -7.79462 -0.0772984 0
M  V30 8636 N 796.696 -0.74468 -1.38897 0
M  V30 8637 C 797.921 -0.306119 -2.05128 0
M  V30 8638 C 798.346 1.0541 -1.55789 0
M  V30 8639 O 797.704 1.66993 -0.705909 0
M  V30 8640 C 797.752 -0.328195 -3.59103 0
M  V30 8641 O 796.856 0.680876 -4.06741 0
M  V30 8642 H 796.197 -0.137209 -0.649669 0
M  V30 8643 H 798.727 -1.01331 -1.77745 0
M  V30 8644 H 798.737 -0.175956 -4.0762 0
M  V30 8645 H 797.412 -1.32067 -3.94374 0
M  V30 8646 H 795.989 0.49398 -3.69614 0
M  V30 8647 N 798.174 1.49689 -0.493057 0
M  V30 8648 C 799.121 2.28976 0.28959 0
M  V30 8649 C 800.091 1.35011 0.967536 0
M  V30 8650 O 801.276 1.63964 0.975736 0
M  V30 8651 C 798.416 3.1748 1.35279 0
M  V30 8652 C 797.529 4.26496 0.687418 0
M  V30 8653 C 796.664 5.02226 1.73038 0
M  V30 8654 C 795.703 6.03089 1.04645 0
M  V30 8655 N 794.84 6.72014 2.03325 0
M  V30 8656 H 799.68 2.954 -0.392798 0
M  V30 8657 H 797.217 1.45657 -0.205554 0
M  V30 8658 H 799.175 3.67162 1.98111 0
M  V30 8659 H 797.805 2.53057 2.00405 0
M  V30 8660 H 796.857 3.80362 -0.0540001 0
M  V30 8661 H 798.169 4.98578 0.14864 0
M  V30 8662 H 797.323 5.55737 2.43395 0
M  V30 8663 H 796.062 4.29899 2.303 0
M  V30 8664 H 795.067 5.48817 0.328606 0
M  V30 8665 H 796.292 6.77398 0.480428 0
M  V30 8666 H 794.238 6.02464 2.59564 0
M  V30 8667 H 794.155 7.40046 1.54492 0
M  V30 8668 H 795.423 7.30133 2.72995 0
M  V30 8669 N 799.652 0.226554 1.55963 0
M  V30 8670 C 801.063 -0.280381 1.84583 0
M  V30 8671 C 801.414 -1.59105 1.14804 0
M  V30 8672 O 800.539 -2.12297 0.419414 0
M  V30 8673 C 801.134 -0.515499 3.34855 0
M  V30 8674 C 799.693 -0.966733 3.63774 0
M  V30 8675 C 798.84 -0.0325753 2.77281 0
M  V30 8676 H 801.791 0.449626 1.52197 0
M  V30 8677 H 801.812 -1.36085 3.55332 0
M  V30 8678 H 801.324 0.438594 3.85614 0
M  V30 8679 H 799.425 -1.93401 3.18476 0
M  V30 8680 H 799.538 -0.837679 4.7172 0
M  V30 8681 H 797.902 -0.540279 2.48904 0
M  V30 8682 H 798.685 0.916524 3.30839 0
M  V30 8683 N 801.13 -1.57531 -0.0467866 0
M  V30 8684 C 802.378 -1.88078 -0.739656 0
M  V30 8685 C 802.699 -0.821936 -1.76831 0
M  V30 8686 O 801.969 0.146582 -1.95351 0
M  V30 8687 H 800.549 -0.694075 -0.276169 0
M  V30 8688 H 803.211 -1.94893 -0.0169391 0
M  V30 8689 H 802.307 -2.86396 -1.24031 0
M  V30 8690 N 802.608 0.318715 -1.54344 0
M  V30 8691 C 803.854 1.05765 -1.73037 0
M  V30 8692 C 804.187 1.87514 -0.505181 0
M  V30 8693 O 803.462 1.88021 0.497838 0
M  V30 8694 C 803.745 1.97836 -3.00887 0
M  V30 8695 C 803.598 1.19384 -4.33668 0
M  V30 8696 C 804.917 2.97285 -3.24514 0
M  V30 8697 H 802.036 0.383104 -0.629603 0
M  V30 8698 H 804.678 0.333864 -1.87044 0
M  V30 8699 H 802.828 2.59552 -2.89076 0
M  V30 8700 H 804.5 0.600906 -4.57369 0
M  V30 8701 H 802.743 0.496198 -4.30953 0
M  V30 8702 H 803.414 1.87014 -5.19355 0
M  V30 8703 H 805.89 2.45693 -3.35819 0
M  V30 8704 H 804.766 3.58887 -4.15321 0
M  V30 8705 H 805.027 3.70003 -2.41971 0
M  V30 8706 N 804.086 1.46499 0.581025 0
M  V30 8707 C 805.333 1.51896 1.33918 0
M  V30 8708 C 805.661 0.171361 1.93744 0
M  V30 8709 O 804.916 -0.833178 1.77078 0
M  V30 8710 C 805.215 2.56686 2.48691 0
M  V30 8711 C 804.881 4.00656 2.06847 0
M  V30 8712 C 803.543 4.39852 1.9515 0
M  V30 8713 C 805.895 4.91089 1.74589 0
M  V30 8714 C 803.223 5.67345 1.49456 0
M  V30 8715 C 805.575 6.1902 1.30373 0
M  V30 8716 C 804.239 6.57121 1.17255 0
M  V30 8717 H 803.509 0.555826 0.490039 0
M  V30 8718 H 806.156 1.79983 0.654092 0
M  V30 8719 H 804.461 2.22266 3.22653 0
M  V30 8720 H 806.158 2.58091 3.06904 0
M  V30 8721 H 802.748 3.69674 2.16886 0
M  V30 8722 H 806.932 4.61523 1.8251 0
M  V30 8723 H 802.188 5.95635 1.37944 0
M  V30 8724 H 806.362 6.8852 1.04467 0
M  V30 8725 H 803.989 7.55805 0.816236 0
M  V30 8726 N 805.565 -0.825799 1.34232 0
M  V30 8727 C 806.79 -1.61883 1.29648 0
M  V30 8728 C 807.215 -1.87669 -0.127295 0
M  V30 8729 O 806.573 -1.45016 -1.08813 0
M  V30 8730 C 806.621 -2.93846 2.09014 0
M  V30 8731 O 805.725 -3.85778 1.4577 0
M  V30 8732 H 805.066 -0.492454 0.445405 0
M  V30 8733 H 807.596 -1.02641 1.76992 0
M  V30 8734 H 807.606 -3.43435 2.20264 0
M  V30 8735 H 806.281 -2.74401 3.12533 0
M  V30 8736 H 804.858 -3.4429 1.43245 0
M  V30 8737 N 807.043 -1.17915 -1.04565 0
M  V30 8738 C 808.29 -0.971424 -1.77678 0
M  V30 8739 C 808.618 0.499401 -1.87979 0
M  V30 8740 O 807.873 1.38695 -1.38066 0
M  V30 8741 C 808.172 -1.56528 -3.213 0
M  V30 8742 C 807.838 -3.06138 -3.31044 0
M  V30 8743 C 806.5 -3.46974 -3.33411 0
M  V30 8744 C 808.852 -4.02151 -3.31548 0
M  V30 8745 C 806.18 -4.82406 -3.33918 0
M  V30 8746 C 808.532 -5.37492 -3.33595 0
M  V30 8747 C 807.196 -5.77782 -3.34251 0
M  V30 8748 H 806.466 -0.355469 -0.650171 0
M  V30 8749 H 809.113 -1.46902 -1.22849 0
M  V30 8750 H 807.418 -0.98955 -3.79098 0
M  V30 8751 H 809.115 -1.38003 -3.76505 0
M  V30 8752 H 805.705 -2.73589 -3.29919 0
M  V30 8753 H 809.889 -3.71656 -3.28916 0
M  V30 8754 H 805.145 -5.12927 -3.3274 0
M  V30 8755 H 809.319 -6.1166 -3.32934 0
M  V30 8756 H 806.946 -6.82702 -3.34397 0
M  V30 8757 N 808.521 1.23394 -0.980386 0
M  V30 8758 C 809.451 2.2717 -0.540024 0
M  V30 8759 C 810.432 1.64659 0.426787 0
M  V30 8760 O 811.617 1.91543 0.320153 0
M  V30 8761 C 808.747 3.46939 0.15836 0
M  V30 8762 C 807.701 4.21802 -0.725732 0
M  V30 8763 C 807.027 5.34597 0.104866 0
M  V30 8764 C 808.327 4.81802 -2.01654 0
M  V30 8765 H 810.021 2.64257 -1.40743 0
M  V30 8766 H 807.567 1.2703 -0.678193 0
M  V30 8767 H 809.52 4.18683 0.477737 0
M  V30 8768 H 808.244 3.08912 1.06022 0
M  V30 8769 H 806.903 3.51875 -1.02857 0
M  V30 8770 H 806.551 4.92812 1.00726 0
M  V30 8771 H 806.251 5.85607 -0.483557 0
M  V30 8772 H 807.775 6.09163 0.418624 0
M  V30 8773 H 809.189 5.45554 -1.76193 0
M  V30 8774 H 807.586 5.43098 -2.55273 0
M  V30 8775 H 808.656 4.02549 -2.70338 0
M  V30 8776 N 809.999 0.752036 1.385 0
M  V30 8777 C 811.276 0.233075 1.94206 0
M  V30 8778 C 811.656 -1.26838 1.68746 0
M  V30 8779 O 811.004 -2.04214 1.02513 0
M  V30 8780 C 811.214 0.58509 3.44061 0
M  V30 8781 C 812.562 0.543871 4.21102 0
M  V30 8782 O 813.586 0.523291 3.52335 0
M  V30 8783 O 812.445 0.553436 5.4369 0
M  V30 8784 H 809.539 0.0483049 0.825588 0
M  V30 8785 H 812.085 0.832053 1.47902 0
M  V30 8786 H 810.857 1.62212 3.56094 0
M  V30 8787 H 810.48 -0.0419738 3.97578 0
M  V30 8788 N 811.477 -1.49425 0.500989 0
M  V30 8789 C 812.888 -1.86624 0.0532011 0
M  V30 8790 C 813.239 -1.41331 -1.36088 0
M  V30 8791 O 812.364 -0.791195 -2.01418 0
M  V30 8792 C 812.959 -3.38681 0.0897693 0
M  V30 8793 C 811.518 -3.75181 -0.302677 0
M  V30 8794 C 810.665 -2.73419 0.462307 0
M  V30 8795 H 813.616 -1.41743 0.713773 0
M  V30 8796 H 813.637 -3.73902 -0.705528 0
M  V30 8797 H 813.149 -3.71616 1.11907 0
M  V30 8798 H 811.25 -3.47855 -1.33521 0
M  V30 8799 H 811.363 -4.79097 0.0167653 0
M  V30 8800 H 809.727 -2.54548 -0.0878557 0
M  V30 8801 H 810.51 -3.09198 1.49169 0
M  V30 8802 N 812.955 -0.234822 -1.55841 0
M  V30 8803 C 813.885 0.664217 -2.23854 0
M  V30 8804 C 814.866 1.19076 -1.2147 0
M  V30 8805 O 816.051 1.23232 -1.50091 0
M  V30 8806 C 813.181 1.86666 -2.9287 0
M  V30 8807 C 812.135 1.47341 -4.01839 0
M  V30 8808 C 811.461 2.75571 -4.58219 0
M  V30 8809 C 812.761 0.653479 -5.18196 0
M  V30 8810 H 814.455 0.0971213 -2.99242 0
M  V30 8811 H 812.001 0.0452724 -1.43929 0
M  V30 8812 H 813.954 2.50116 -3.39146 0
M  V30 8813 H 812.678 2.45894 -2.1495 0
M  V30 8814 H 811.337 0.862314 -3.56314 0
M  V30 8815 H 810.985 3.32971 -3.77014 0
M  V30 8816 H 810.685 2.49987 -5.31771 0
M  V30 8817 H 812.209 3.39939 -5.07221 0
M  V30 8818 H 813.623 1.19198 -5.60771 0
M  V30 8819 H 812.02 0.494188 -5.98062 0
M  V30 8820 H 813.09 -0.337004 -4.83728 0
M  V30 8821 N 814.433 1.57553 0.0384317 0
M  V30 8822 C 815.396 2.04927 1.02653 0
M  V30 8823 C 816.396 0.951768 1.29607 0
M  V30 8824 O 817.586 1.21568 1.24768 0
M  V30 8825 C 814.718 2.45828 2.36181 0
M  V30 8826 H 815.911 2.93474 0.617508 0
M  V30 8827 H 813.464 1.53679 0.285031 0
M  V30 8828 H 814.199 1.60408 2.8185 0
M  V30 8829 H 813.984 3.25945 2.1795 0
M  V30 8830 H 815.474 2.82939 3.0714 0
M  V30 8831 N 815.911 -0.310526 1.54511 0
M  V30 8832 C 817.141 -1.06456 1.77061 0
M  V30 8833 C 817.549 -1.81755 0.525528 0
M  V30 8834 O 816.892 -1.76365 -0.513904 0
M  V30 8835 C 816.954 -2.09856 2.91892 0
M  V30 8836 C 816.618 -1.53838 4.30329 0
M  V30 8837 C 817.615 -0.973358 5.10707 0
M  V30 8838 C 815.3 -1.57688 4.76906 0
M  V30 8839 C 817.294 -0.454283 6.35779 0
M  V30 8840 C 814.981 -1.05393 6.01943 0
M  V30 8841 C 815.979 -0.493595 6.81214 0
M  V30 8842 O 815.667 0.0214506 8.03897 0
M  V30 8843 H 815.399 -0.321913 0.594431 0
M  V30 8844 H 817.953 -0.358289 2.02251 0
M  V30 8845 H 816.183 -2.84137 2.62304 0
M  V30 8846 H 817.872 -2.71085 3.02106 0
M  V30 8847 H 818.638 -0.936588 4.75871 0
M  V30 8848 H 814.517 -2.00242 4.1524 0
M  V30 8849 H 818.061 -0.0162657 6.97598 0
M  V30 8850 H 813.958 -1.08782 6.36268 0
M  V30 8851 H 814.726 -0.0927478 8.18447 0
M  V30 8852 N 817.389 -1.46805 -0.573248 0
M  V30 8853 C 818.299 -1.60687 -1.70929 0
M  V30 8854 C 819.315 -0.490084 -1.66956 0
M  V30 8855 O 820.491 -0.755482 -1.86693 0
M  V30 8856 C 817.556 -1.60259 -3.07438 0
M  V30 8857 C 816.617 -2.83242 -3.22603 0
M  V30 8858 C 815.85 -2.82825 -4.52599 0
M  V30 8859 O 816.073 -1.92113 -5.37074 0
M  V30 8860 O 815.007 -3.74489 -4.71213 0
M  V30 8861 H 818.833 -2.56782 -1.62163 0
M  V30 8862 H 816.418 -1.29706 -0.741399 0
M  V30 8863 H 818.3 -1.6275 -3.88704 0
M  V30 8864 H 816.975 -0.673268 -3.16621 0
M  V30 8865 H 815.882 -2.86302 -2.40794 0
M  V30 8866 H 817.215 -3.75415 -3.18315 0
M  V30 8867 N 818.867 0.818669 -1.34668 0
M  V30 8868 C 820.116 1.57017 -1.26604 0
M  V30 8869 C 820.429 1.94936 0.161036 0
M  V30 8870 O 821.635 2.69051 0.36386 0
M  V30 8871 C 820.091 2.83305 -2.2196 0
M  V30 8872 C 819.699 2.52671 -3.69948 0
M  V30 8873 C 821.443 3.61324 -2.22813 0
M  V30 8874 C 819.35 3.75178 -4.5716 0
M  V30 8875 H 818.28 0.589323 -0.470335 0
M  V30 8876 H 820.931 0.900956 -1.59859 0
M  V30 8877 H 819.313 3.51874 -1.81661 0
M  V30 8878 H 820.487 1.92186 -4.18809 0
M  V30 8879 H 818.802 1.8792 -3.71584 0
M  V30 8880 H 821.399 4.52294 -2.85192 0
M  V30 8881 H 821.742 3.97759 -1.22857 0
M  V30 8882 H 822.275 2.99703 -2.61578 0
M  V30 8883 H 819.014 3.43861 -5.58068 0
M  V30 8884 H 818.534 4.34931 -4.13031 0
M  V30 8885 H 820.213 4.42542 -4.71981 0
M  V30 8886 N 820.346 1.18468 1.03938 0
M  V30 8887 C 821.592 0.992302 1.77553 0
M  V30 8888 C 821.947 -0.472959 1.86496 0
M  V30 8889 O 821.24 -1.34662 1.36296 0
M  V30 8890 C 821.434 1.58229 3.20466 0
M  V30 8891 C 821.263 3.1034 3.25452 0
M  V30 8892 C 820.033 3.79166 3.34008 0
M  V30 8893 C 822.231 4.07814 3.13357 0
M  V30 8894 N 820.213 5.18768 3.28258 0
M  V30 8895 C 821.584 5.33946 3.15121 0
M  V30 8896 C 823.639 3.99315 2.97409 0
M  V30 8897 C 822.342 6.52565 3.02574 0
M  V30 8898 C 824.368 5.17532 2.86208 0
M  V30 8899 C 823.73 6.42557 2.88617 0
M  V30 8900 H 819.829 0.417131 0.661457 0
M  V30 8901 H 822.413 1.50265 1.23808 0
M  V30 8902 H 820.584 1.0981 3.72554 0
M  V30 8903 H 822.316 1.32531 3.82384 0
M  V30 8904 H 819.071 3.29905 3.39794 0
M  V30 8905 H 819.495 5.91783 3.28818 0
M  V30 8906 H 824.137 3.03485 2.94375 0
M  V30 8907 H 821.855 7.48592 3.0436 0
M  V30 8908 H 825.441 5.12748 2.7492 0
M  V30 8909 H 824.321 7.32494 2.80039 0
M  V30 8910 N 821.824 -1.22873 0.986916 0
M  V30 8911 C 822.757 -2.23154 0.477245 0
M  V30 8912 C 823.735 -1.55981 -0.459206 0
M  V30 8913 O 824.919 -1.84503 -0.386141 0
M  V30 8914 C 822.046 -3.37289 -0.308838 0
M  V30 8915 C 821.092 -4.22637 0.572717 0
M  V30 8916 S 821.925 -4.95758 2.02446 0
M  V30 8917 C 823.081 -6.13338 1.2477 0
M  V30 8918 H 823.314 -2.6604 1.32702 0
M  V30 8919 H 820.847 -1.32455 0.793415 0
M  V30 8920 H 822.805 -4.03472 -0.756351 0
M  V30 8921 H 821.466 -2.92922 -1.13381 0
M  V30 8922 H 820.659 -5.0399 -0.0318024 0
M  V30 8923 H 820.261 -3.61555 0.956746 0
M  V30 8924 H 822.553 -6.7556 0.51231 0
M  V30 8925 H 823.496 -6.78189 2.03629 0
M  V30 8926 H 823.904 -5.59311 0.763622 0
M  V30 8927 N 823.302 -0.75937 -1.38099 0
M  V30 8928 C 824.542 -0.323116 -2.0183 0
M  V30 8929 C 824.906 1.07658 -1.58977 0
M  V30 8930 O 826.107 1.61227 -2.1508 0
M  V30 8931 C 824.378 -0.448234 -3.54578 0
M  V30 8932 S 825.937 -0.0954152 -4.38696 0
M  V30 8933 H 822.755 -0.125013 -0.699923 0
M  V30 8934 H 825.357 -0.991262 -1.68506 0
M  V30 8935 H 824.061 -1.46778 -3.83255 0
M  V30 8936 H 823.592 0.236895 -3.92686 0
M  V30 8937 H 825.607 1.11312 -4.83554 0
M  V30 8938 N 824.78 1.49157 -0.508906 0
M  V30 8939 C 826.029 2.0167 0.0346854 0
M  V30 8940 C 826.342 1.39302 1.37311 0
M  V30 8941 O 827.548 1.83189 2.00385 0
M  V30 8942 C 826.004 3.59725 0.112261 0
M  V30 8943 C 825.612 4.31069 -1.21999 0
M  V30 8944 C 827.356 4.20155 0.605798 0
M  V30 8945 C 825.263 5.81001 -1.10415 0
M  V30 8946 H 824.193 0.753814 0.0167355 0
M  V30 8947 H 826.844 1.7162 -0.649518 0
M  V30 8948 H 825.226 3.86525 0.861087 0
M  V30 8949 H 826.4 4.15962 -1.98273 0
M  V30 8950 H 824.715 3.82418 -1.64759 0
M  V30 8951 H 827.312 5.29964 0.710102 0
M  V30 8952 H 827.655 3.84051 1.60656 0
M  V30 8953 H 828.188 3.97705 -0.0867239 0
M  V30 8954 H 824.927 6.21643 -2.07941 0
M  V30 8955 H 824.447 5.9858 -0.382428 0
M  V30 8956 H 826.126 6.42207 -0.786116 0
M  V30 8957 N 826.258 0.243083 1.55714 0
M  V30 8958 C 827.504 -0.383287 1.99145 0
M  V30 8959 C 827.837 -1.57868 1.13098 0
M  V30 8960 O 827.112 -1.93535 0.193509 0
M  V30 8961 C 827.395 -0.796879 3.51172 0
M  V30 8962 C 827.248 0.403642 4.47985 0
M  V30 8963 C 828.567 -1.64525 4.08191 0
M  V30 8964 H 825.686 -0.137843 0.723995 0
M  V30 8965 H 828.328 0.343631 1.86867 0
M  V30 8966 H 826.478 -1.41625 3.61766 0
M  V30 8967 H 828.15 1.04204 4.49376 0
M  V30 8968 H 826.393 1.04741 4.20965 0
M  V30 8969 H 827.064 0.0709794 5.51954 0
M  V30 8970 H 829.54 -1.12246 4.00674 0
M  V30 8971 H 828.416 -1.9035 5.14838 0
M  V30 8972 H 828.677 -2.61582 3.56409 0
M  V30 8973 N 827.736 -1.57571 -0.0300757 0
M  V30 8974 C 828.983 -1.89226 -0.721091 0
M  V30 8975 C 829.311 -0.840244 -1.75414 0
M  V30 8976 O 828.566 0.158906 -1.95054 0
M  V30 8977 C 828.865 -3.27624 -1.42818 0
M  V30 8978 C 828.531 -4.4776 -0.531208 0
M  V30 8979 C 827.193 -4.8036 -0.28415 0
M  V30 8980 C 829.545 -5.21125 0.0881582 0
M  V30 8981 C 826.873 -5.83715 0.591065 0
M  V30 8982 C 829.225 -6.2541 0.95107 0
M  V30 8983 C 827.889 -6.56486 1.2076 0
M  V30 8984 H 827.159 -0.692428 -0.263866 0
M  V30 8985 H 829.806 -1.91491 0.0189874 0
M  V30 8986 H 828.111 -3.21343 -2.24155 0
M  V30 8987 H 829.808 -3.49365 -1.96838 0
M  V30 8988 H 826.398 -4.2227 -0.73392 0
M  V30 8989 H 830.582 -4.96219 -0.0897496 0
M  V30 8990 H 825.838 -6.06168 0.798132 0
M  V30 8991 H 830.012 -6.81402 1.43751 0
M  V30 8992 H 827.639 -7.36395 1.88751 0
M  V30 8993 N 829.214 0.302327 -1.54673 0
M  V30 8994 C 830.177 1.35592 -1.8479 0
M  V30 8995 C 831.177 1.43743 -0.72073 0
M  V30 8996 O 832.367 1.43402 -0.989017 0
M  V30 8997 C 829.499 2.74091 -2.02699 0
M  V30 8998 H 830.692 1.10132 -2.78946 0
M  V30 8999 H 828.245 0.538926 -1.46715 0
M  V30 9000 H 828.98 3.04775 -1.10826 0
M  V30 9001 H 828.765 2.69565 -2.8474 0
M  V30 9002 H 830.255 3.50272 -2.27374 0
M  V30 9003 N 830.692 1.47107 0.565454 0
M  V30 9004 C 831.922 1.56681 1.34664 0
M  V30 9005 C 832.33 0.213011 1.87997 0
M  V30 9006 O 831.673 -0.802629 1.65238 0
M  V30 9007 C 831.735 2.52528 2.55871 0
M  V30 9008 C 831.399 3.98403 2.23883 0
M  V30 9009 C 832.396 4.87125 1.81673 0
M  V30 9010 C 830.081 4.43674 2.35496 0
M  V30 9011 C 832.075 6.19135 1.51494 0
M  V30 9012 C 829.762 5.75714 2.0493 0
M  V30 9013 C 830.76 6.63266 1.62996 0
M  V30 9014 O 830.448 7.92853 1.32813 0
M  V30 9015 H 830.18 0.531967 0.417117 0
M  V30 9016 H 832.734 1.93368 0.692669 0
M  V30 9017 H 830.964 2.10893 3.24131 0
M  V30 9018 H 832.653 2.5232 3.17945 0
M  V30 9019 H 833.419 4.534 1.72201 0
M  V30 9020 H 829.298 3.7574 2.67096 0
M  V30 9021 H 832.842 6.87429 1.1869 0
M  V30 9022 H 828.739 6.08983 2.14031 0
M  V30 9023 H 829.507 8.0528 1.46513 0
M  V30 9024 N 832.17 -0.811516 1.35101 0
M  V30 9025 C 833.419 -1.56343 1.27435 0
M  V30 9026 C 833.732 -1.95019 -0.150696 0
M  V30 9027 O 834.938 -2.6924 -0.349586 0
M  V30 9028 C 833.394 -2.82124 2.23459 0
M  V30 9029 C 833.002 -2.50706 3.71283 0
M  V30 9030 C 834.746 -3.60137 2.24726 0
M  V30 9031 C 832.653 -3.72748 4.59143 0
M  V30 9032 H 831.583 -0.58682 0.473453 0
M  V30 9033 H 834.234 -0.892465 1.60335 0
M  V30 9034 H 832.616 -3.50905 1.83525 0
M  V30 9035 H 833.79 -1.89962 4.19823 0
M  V30 9036 H 832.105 -1.85947 3.72576 0
M  V30 9037 H 834.702 -4.50775 2.87587 0
M  V30 9038 H 835.045 -3.97101 1.24965 0
M  V30 9039 H 835.578 -2.98311 2.63164 0
M  V30 9040 H 832.317 -3.40896 5.59884 0
M  V30 9041 H 831.837 -4.32735 4.15332 0
M  V30 9042 H 833.516 -4.40033 4.74321 0
M  V30 9043 N 833.648 -1.19017 -1.03309 0
M  V30 9044 C 834.896 -0.988258 -1.76289 0
M  V30 9045 C 835.217 0.482557 -1.88935 0
M  V30 9046 O 834.487 1.34969 -1.41987 0
M  V30 9047 H 833.067 -0.36267 -0.653054 0
M  V30 9048 H 835.729 -1.49836 -1.2464 0
M  V30 9049 H 834.825 -1.43273 -2.77271 0
M  V30 9050 N 835.127 1.22348 -0.993418 0
M  V30 9051 C 836.373 1.91393 -0.67056 0
M  V30 9052 C 836.706 1.77163 0.795428 0
M  V30 9053 O 835.981 1.14084 1.57528 0
M  V30 9054 C 836.264 3.43589 -1.0779 0
M  V30 9055 C 836.117 3.66867 -2.60248 0
M  V30 9056 C 837.436 4.35545 -0.631527 0
M  V30 9057 H 834.555 0.695057 -0.24508 0
M  V30 9058 H 837.197 1.44213 -1.23703 0
M  V30 9059 H 835.347 3.83903 -0.595902 0
M  V30 9060 H 837.019 3.35954 -3.16121 0
M  V30 9061 H 835.262 3.1113 -3.02293 0
M  V30 9062 H 835.933 4.73457 -2.838 0
M  V30 9063 H 838.409 4.0275 -1.04554 0
M  V30 9064 H 837.285 5.40707 -0.944831 0
M  V30 9065 H 837.546 4.39618 0.467779 0
M  V30 9066 N 836.605 0.766683 1.37694 0
M  V30 9067 C 837.83 0.338715 2.04615 0
M  V30 9068 C 838.255 -1.02918 1.57447 0
M  V30 9069 O 837.613 -1.65849 0.732386 0
M  V30 9070 C 837.661 0.385284 3.58536 0
M  V30 9071 O 836.765 -0.616081 4.07772 0
M  V30 9072 H 836.106 0.147527 0.647404 0
M  V30 9073 H 838.636 1.04146 1.7611 0
M  V30 9074 H 838.646 0.240782 4.07289 0
M  V30 9075 H 837.321 1.38325 3.92223 0
M  V30 9076 H 835.898 -0.435115 3.70353 0
M  V30 9077 N 838.083 -1.48885 0.516809 0
M  V30 9078 C 839.329 -2.02788 -0.0220928 0
M  V30 9079 C 839.662 -1.39433 -1.35175 0
M  V30 9080 O 838.937 -0.535459 -1.86984 0
M  V30 9081 C 839.22 -3.59753 -0.158012 0
M  V30 9082 C 839.073 -4.33611 1.19588 0
M  V30 9083 C 840.392 -4.30984 -0.891133 0
M  V30 9084 H 837.511 -0.736971 -0.00655488 0
M  V30 9085 H 840.153 -1.77746 0.671287 0
M  V30 9086 H 838.303 -3.8122 -0.748568 0
M  V30 9087 H 839.975 -4.23598 1.82653 0
M  V30 9088 H 838.218 -3.95547 1.78116 0
M  V30 9089 H 838.889 -5.41846 1.05391 0
M  V30 9090 H 841.365 -4.14267 -0.39012 0
M  V30 9091 H 840.241 -5.40527 -0.955107 0
M  V30 9092 H 840.502 -3.97336 -1.93847 0
M  V30 9093 N 839.561 -0.251338 -1.55583 0
M  V30 9094 C 840.807 0.37272 -1.99346 0
M  V30 9095 C 841.14 1.57266 -1.13934 0
M  V30 9096 O 840.415 1.9343 -0.20377 0
M  V30 9097 C 840.698 0.778245 -3.5159 0
M  V30 9098 C 840.551 -0.427394 -4.47765 0
M  V30 9099 C 841.87 1.62358 -4.09057 0
M  V30 9100 H 838.989 0.134002 -0.724715 0
M  V30 9101 H 841.631 -0.353536 -1.86682 0
M  V30 9102 H 839.781 1.39704 -3.62512 0
M  V30 9103 H 841.453 -1.06586 -4.48818 0
M  V30 9104 H 839.696 -1.06972 -4.20404 0
M  V30 9105 H 840.367 -0.10025 -5.51909 0
M  V30 9106 H 842.843 1.1012 -4.01264 0
M  V30 9107 H 841.719 1.87617 -5.1584 0
M  V30 9108 H 841.98 2.59688 -3.57791 0
M  V30 9109 N 841.039 1.57585 0.0217189 0
M  V30 9110 C 841.969 2.10073 1.01939 0
M  V30 9111 C 842.95 1.0049 1.37243 0
M  V30 9112 O 844.135 1.28055 1.45999 0
M  V30 9113 C 841.265 2.58618 2.31806 0
M  V30 9114 C 840.219 3.72531 2.10724 0
M  V30 9115 C 839.545 4.07309 3.46415 0
M  V30 9116 C 840.845 5.00672 1.48743 0
M  V30 9117 H 842.539 2.9368 0.582432 0
M  V30 9118 H 840.085 1.41277 0.278715 0
M  V30 9119 H 842.038 2.9396 3.01936 0
M  V30 9120 H 840.762 1.72104 2.77575 0
M  V30 9121 H 839.421 3.37549 1.43025 0
M  V30 9122 H 839.069 3.17851 3.89846 0
M  V30 9123 H 838.769 4.84042 3.33132 0
M  V30 9124 H 840.293 4.45192 4.17895 0
M  V30 9125 H 841.707 5.33925 2.088 0
M  V30 9126 H 840.104 5.82065 1.46013 0
M  V30 9127 H 841.174 4.82769 0.45408 0
M  V30 9128 N 842.517 -0.29412 1.54831 0
M  V30 9129 C 843.764 -1.02846 1.74439 0
M  V30 9130 C 844.092 -1.87029 0.533905 0
M  V30 9131 O 843.347 -1.8962 -0.484035 0
M  V30 9132 C 843.646 -1.95782 2.99006 0
M  V30 9133 C 843.312 -1.2752 4.32492 0
M  V30 9134 C 841.974 -1.08637 4.68777 0
M  V30 9135 C 844.326 -0.787761 5.15212 0
M  V30 9136 C 841.654 -0.39704 5.85355 0
M  V30 9137 C 844.006 -0.112123 6.32501 0
M  V30 9138 C 842.67 0.0886071 6.67441 0
M  V30 9139 H 841.94 -0.376341 0.638317 0
M  V30 9140 H 844.587 -0.302684 1.89093 0
M  V30 9141 H 842.892 -2.74911 2.79162 0
M  V30 9142 H 844.589 -2.52684 3.11371 0
M  V30 9143 H 841.179 -1.43226 4.03961 0
M  V30 9144 H 845.363 -0.921341 4.87673 0
M  V30 9145 H 840.619 -0.230597 6.10965 0
M  V30 9146 H 844.793 0.27344 6.95863 0
M  V30 9147 H 842.42 0.624748 7.57628 0
M  V30 9148 N 843.995 -1.47404 -0.557645 0
M  V30 9149 C 844.925 -1.62736 -1.67449 0
M  V30 9150 C 845.906 -0.476824 -1.6328 0
M  V30 9151 O 847.091 -0.706108 -1.80908 0
M  V30 9152 C 844.221 -1.641 -3.06086 0
M  V30 9153 C 843.175 -2.78377 -3.25101 0
M  V30 9154 C 842.501 -2.64812 -4.6452 0
M  V30 9155 C 843.801 -4.19971 -3.10518 0
M  V30 9156 H 845.495 -2.56232 -1.54873 0
M  V30 9157 H 843.041 -1.23312 -0.743649 0
M  V30 9158 H 844.994 -1.73417 -3.84063 0
M  V30 9159 H 843.718 -0.671652 -3.19619 0
M  V30 9160 H 842.377 -2.6857 -2.49531 0
M  V30 9161 H 842.025 -1.65906 -4.74852 0
M  V30 9162 H 841.725 -3.41477 -4.78191 0
M  V30 9163 H 843.249 -2.76057 -5.44633 0
M  V30 9164 H 844.663 -4.30757 -3.78313 0
M  V30 9165 H 843.06 -4.97419 -3.35699 0
M  V30 9166 H 844.13 -4.38369 -2.0727 0
M  V30 9167 N 845.473 0.80434 -1.35529 0
M  V30 9168 C 846.719 1.56385 -1.29118 0
M  V30 9169 C 847.052 1.9374 0.133536 0
M  V30 9170 O 846.327 1.6153 1.08344 0
M  V30 9171 C 846.61 2.85097 -2.19981 0
M  V30 9172 C 846.463 2.54204 -3.7108 0
M  V30 9173 C 847.782 3.86817 -2.09907 0
M  V30 9174 H 844.901 0.567382 -0.470368 0
M  V30 9175 H 847.543 0.925235 -1.6595 0
M  V30 9176 H 845.693 3.39594 -1.88701 0
M  V30 9177 H 847.365 2.05872 -4.12813 0
M  V30 9178 H 845.608 1.87364 -3.91251 0
M  V30 9179 H 846.279 3.46068 -4.30048 0
M  V30 9180 H 848.755 3.41725 -2.37409 0
M  V30 9181 H 847.631 4.7465 -2.75678 0
M  V30 9182 H 847.892 4.28663 -1.08171 0
M  V30 9183 N 846.951 1.19563 1.02676 0
M  V30 9184 C 848.176 1.02556 1.80269 0
M  V30 9185 C 848.601 -0.421056 1.83327 0
M  V30 9186 O 847.959 -1.30279 1.26084 0
M  V30 9187 C 848.007 1.60165 3.23078 0
M  V30 9188 O 847.111 0.832404 4.03912 0
M  V30 9189 H 846.452 0.362354 0.556413 0
M  V30 9190 H 848.982 1.58633 1.29216 0
M  V30 9191 H 848.992 1.6347 3.7382 0
M  V30 9192 H 847.667 2.65454 3.20167 0
M  V30 9193 H 846.244 0.872768 3.62543 0
M  V30 9194 N 848.429 -1.21819 0.999893 0
M  V30 9195 C 849.845 -1.42847 0.711824 0
M  V30 9196 C 850.045 -1.88391 -0.714928 0
M  V30 9197 O 849.101 -2.0422 -1.48494 0
M  V30 9198 C 850.414 -2.46417 1.72334 0
M  V30 9199 C 851.962 -2.60207 1.73958 0
M  V30 9200 C 852.437 -3.67005 2.73992 0
M  V30 9201 N 853.928 -3.7447 2.72628 0
M  V30 9202 C 854.663 -4.56718 3.46693 0
M  V30 9203 N 854.159 -5.42904 4.3038 0
M  V30 9204 N 855.952 -4.51094 3.35366 0
M  V30 9205 H 848.103 -0.905656 1.92124 0
M  V30 9206 H 850.366 -0.459893 0.828977 0
M  V30 9207 H 850.072 -2.19914 2.74465 0
M  V30 9208 H 849.946 -3.45137 1.52186 0
M  V30 9209 H 852.333 -2.8605 0.725217 0
M  V30 9210 H 852.414 -1.61739 1.98177 0
M  V30 9211 H 852.058 -3.41908 3.75582 0
M  V30 9212 H 851.988 -4.65058 2.4704 0
M  V30 9213 H 854.479 -3.12895 2.11909 0
M  V30 9214 H 854.792 -6.02704 4.83702 0
M  V30 9215 H 853.137 -5.42463 4.34464 0
M  V30 9216 H 856.328 -3.82791 2.69423 0
M  V30 9217 H 856.501 -5.1496 3.93344 0
M  V30 9218 N 849.908 -0.773975 -1.37286 0
M  V30 9219 C 851.155 -0.339306 -1.99637 0
M  V30 9220 C 851.483 1.08478 -1.61439 0
M  V30 9221 O 850.738 1.7612 -0.853252 0
M  V30 9222 C 851.037 -0.432651 -3.54772 0
M  V30 9223 C 850.703 -1.81531 -4.12744 0
M  V30 9224 C 849.365 -2.19366 -4.2829 0
M  V30 9225 C 851.717 -2.72137 -4.44512 0
M  V30 9226 C 849.045 -3.47239 -4.72908 0
M  V30 9227 C 851.397 -3.99421 -4.90556 0
M  V30 9228 C 850.061 -4.37298 -5.04308 0
M  V30 9229 H 849.331 -0.124161 -0.730524 0
M  V30 9230 H 851.978 -0.988432 -1.64019 0
M  V30 9231 H 850.283 0.30001 -3.9065 0
M  V30 9232 H 851.98 -0.0776 -4.00925 0
M  V30 9233 H 848.57 -1.51126 -4.01072 0
M  V30 9234 H 852.754 -2.44165 -4.32084 0
M  V30 9235 H 848.01 -3.76477 -4.81742 0
M  V30 9236 H 852.184 -4.69756 -5.14104 0
M  V30 9237 H 849.811 -5.36442 -5.38641 0
M  V30 9238 N 851.386 1.48609 -0.524698 0
M  V30 9239 C 852.611 2.07398 0.00952139 0
M  V30 9240 C 853.036 1.37939 1.27884 0
M  V30 9241 O 852.394 0.443633 1.75788 0
M  V30 9242 C 852.442 3.59916 0.221956 0
M  V30 9243 O 851.546 3.91647 1.29175 0
M  V30 9244 H 850.887 0.662981 -0.0367729 0
M  V30 9245 H 853.417 1.91092 -0.7311 0
M  V30 9246 H 853.427 4.05552 0.446236 0
M  V30 9247 H 852.102 4.09876 -0.705306 0
M  V30 9248 H 850.679 3.57796 1.05055 0
M  V30 9249 N 852.864 0.259585 1.55447 0
M  V30 9250 C 854.275 -0.241165 1.85136 0
M  V30 9251 C 854.626 -1.56634 1.18153 0
M  V30 9252 O 853.751 -2.11359 0.464351 0
M  V30 9253 C 854.346 -0.444355 3.35873 0
M  V30 9254 C 852.905 -0.889354 3.65742 0
M  V30 9255 C 852.052 0.0262474 2.77288 0
M  V30 9256 H 855.003 0.481808 1.51209 0
M  V30 9257 H 855.024 -1.28517 3.58139 0
M  V30 9258 H 854.536 0.520289 3.84597 0
M  V30 9259 H 852.637 -1.86602 3.22507 0
M  V30 9260 H 852.75 -0.737432 4.73391 0
M  V30 9261 H 851.114 -0.487361 2.49994 0
M  V30 9262 H 851.897 0.986494 3.28821 0
M  V30 9263 N 854.342 -1.57594 -0.0133615 0
M  V30 9264 C 855.572 -1.93969 -0.711295 0
M  V30 9265 C 855.98 -0.859084 -1.68572 0
M  V30 9266 O 855.323 0.171842 -1.82894 0
M  V30 9267 C 855.385 -3.2625 -1.51001 0
M  V30 9268 C 855.049 -4.51628 -0.698645 0
M  V30 9269 C 856.046 -5.19899 0.00791185 0
M  V30 9270 C 853.731 -4.98095 -0.648553 0
M  V30 9271 C 855.725 -6.32928 0.753691 0
M  V30 9272 C 853.412 -6.11017 0.10096 0
M  V30 9273 C 854.41 -6.78289 0.800828 0
M  V30 9274 O 854.098 -7.89048 1.53814 0
M  V30 9275 H 853.83 -0.6445 -0.203951 0
M  V30 9276 H 856.384 -2.05378 0.0298267 0
M  V30 9277 H 854.614 -3.11211 -2.29531 0
M  V30 9278 H 856.303 -3.47835 -2.09202 0
M  V30 9279 H 857.069 -4.84995 -0.0217192 0
M  V30 9280 H 852.948 -4.45568 -1.18282 0
M  V30 9281 H 856.492 -6.85371 1.3005 0
M  V30 9282 H 852.389 -6.45364 0.132459 0
M  V30 9283 H 853.157 -8.05492 1.45345 0
M  V30 9284 N 855.82 0.285905 -1.54985 0
M  V30 9285 C 856.73 1.37534 -1.90057 0
M  V30 9286 C 857.746 1.54707 -0.796348 0
M  V30 9287 O 858.922 1.69082 -1.09423 0
M  V30 9288 C 855.987 2.7167 -2.15398 0
M  V30 9289 C 855.048 2.63354 -3.39033 0
M  V30 9290 C 854.281 3.91093 -3.63155 0
M  V30 9291 O 854.504 4.91169 -2.90015 0
M  V30 9292 O 853.438 3.92075 -4.56685 0
M  V30 9293 H 857.264 1.10791 -2.8277 0
M  V30 9294 H 854.849 0.483303 -1.41367 0
M  V30 9295 H 856.731 3.51006 -2.33179 0
M  V30 9296 H 855.406 2.98226 -1.25868 0
M  V30 9297 H 854.313 1.82438 -3.26599 0
M  V30 9298 H 855.646 2.41749 -4.2874 0
M  V30 9299 N 857.298 1.47698 0.54982 0
M  V30 9300 C 858.544 1.55914 1.30624 0
M  V30 9301 C 858.899 0.221596 1.9112 0
M  V30 9302 O 858.192 -0.77351 1.75292 0
M  V30 9303 C 858.386 2.61903 2.4319 0
M  V30 9304 C 858.215 4.05833 1.93725 0
M  V30 9305 C 856.985 4.73199 1.77231 0
M  V30 9306 C 859.183 4.92624 1.47738 0
M  V30 9307 N 857.165 6.01618 1.22183 0
M  V30 9308 C 858.536 6.11129 1.04505 0
M  V30 9309 C 860.591 4.79006 1.35857 0
M  V30 9310 C 859.294 7.1752 0.505722 0
M  V30 9311 C 861.32 5.85501 0.833254 0
M  V30 9312 C 860.682 7.03201 0.410894 0
M  V30 9313 H 856.781 0.625194 0.469741 0
M  V30 9314 H 859.365 1.84485 0.622369 0
M  V30 9315 H 857.536 2.35188 3.09098 0
M  V30 9316 H 859.268 2.59919 3.102 0
M  V30 9317 H 856.023 4.29221 2.00166 0
M  V30 9318 H 856.447 6.70054 0.967263 0
M  V30 9319 H 861.089 3.88369 1.67122 0
M  V30 9320 H 858.807 8.07898 0.180721 0
M  V30 9321 H 862.393 5.77013 0.744781 0
M  V30 9322 H 861.273 7.84199 0.0107086 0
M  V30 9323 N 858.776 -0.797141 1.35954 0
M  V30 9324 C 859.726 -1.89899 1.26184 0
M  V30 9325 C 860.71 -1.60152 0.155007 0
M  V30 9326 O 861.902 -1.72715 0.387108 0
M  V30 9327 C 859.031 -3.2699 1.04559 0
M  V30 9328 C 858.117 -3.62772 2.19675 0
M  V30 9329 N 858.508 -3.6992 3.44953 0
M  V30 9330 C 856.806 -3.92786 2.1127 0
M  V30 9331 C 857.507 -4.01718 4.20711 0
M  V30 9332 N 856.483 -4.16298 3.49567 0
M  V30 9333 H 860.285 -1.9364 2.2109 0
M  V30 9334 H 857.799 -0.992246 1.28562 0
M  V30 9335 H 859.796 -4.0578 0.956474 0
M  V30 9336 H 858.456 -3.24529 0.105467 0
M  V30 9337 H 859.467 -3.52759 3.79185 0
M  V30 9338 H 856.144 -3.98295 1.25168 0
M  V30 9339 H 857.534 -4.14237 5.29016 0
M  V30 9340 N 860.254 -1.20106 -1.0204 0
M  V30 9341 C 861.184 -0.970301 -2.12385 0
M  V30 9342 C 862.165 0.099378 -1.69809 0
M  V30 9343 O 863.35 -0.057365 -1.94115 0
M  V30 9344 C 860.48 -0.517431 -3.43424 0
M  V30 9345 C 859.434 -1.52992 -3.99722 0
M  V30 9346 C 858.76 -0.933817 -5.26483 0
M  V30 9347 C 860.06 -2.91257 -4.33551 0
M  V30 9348 H 861.754 -1.89316 -2.31948 0
M  V30 9349 H 859.3 -0.911655 -1.11467 0
M  V30 9350 H 861.253 -0.343243 -4.2 0
M  V30 9351 H 859.977 0.441049 -3.23608 0
M  V30 9352 H 858.636 -1.6914 -3.2525 0
M  V30 9353 H 858.284 0.0324763 -5.0299 0
M  V30 9354 H 857.984 -1.60999 -5.65113 0
M  V30 9355 H 859.508 -0.770614 -6.05718 0
M  V30 9356 H 860.922 -2.78642 -5.0103 0
M  V30 9357 H 859.319 -3.55745 -4.83286 0
M  V30 9358 H 860.389 -3.43269 -3.42483 0
M  V30 9359 N 861.732 1.21287 -1.00634 0
M  V30 9360 C 862.642 2.27388 -0.577226 0
M  V30 9361 C 863.658 1.69791 0.380399 0
M  V30 9362 O 864.834 1.99918 0.2439 0
M  V30 9363 C 861.899 3.46588 0.0880532 0
M  V30 9364 C 860.96 4.19453 -0.914222 0
M  V30 9365 C 860.193 5.32962 -0.280596 0
M  V30 9366 O 860.416 5.62895 0.922265 0
M  V30 9367 O 859.35 5.93666 -0.992196 0
M  V30 9368 H 863.176 2.66289 -1.46028 0
M  V30 9369 H 860.761 1.2771 -0.775283 0
M  V30 9370 H 862.643 4.18881 0.460094 0
M  V30 9371 H 861.318 3.09585 0.945461 0
M  V30 9372 H 860.225 3.49376 -1.33744 0
M  V30 9373 H 861.558 4.6037 -1.74126 0
M  V30 9374 N 863.21 0.781244 1.36873 0
M  V30 9375 C 864.487 0.274217 1.93668 0
M  V30 9376 C 864.867 -1.2323 1.71399 0
M  V30 9377 O 864.215 -2.01993 1.06822 0
M  V30 9378 C 864.425 0.657939 3.42742 0
M  V30 9379 C 865.773 0.63307 4.19854 0
M  V30 9380 O 866.797 0.597909 3.51146 0
M  V30 9381 O 865.656 0.668636 5.42394 0
M  V30 9382 H 862.75 0.0658059 0.824378 0
M  V30 9383 H 865.296 0.863238 1.46104 0
M  V30 9384 H 864.068 1.69728 3.52573 0
M  V30 9385 H 863.691 0.0423678 3.97577 0
M  V30 9386 N 864.689 -1.48329 0.532571 0
M  V30 9387 C 865.637 -2.31336 -0.242133 0
M  V30 9388 C 866.631 -1.41391 -0.933006 0
M  V30 9389 O 867.837 -1.58284 -0.857096 0
M  V30 9390 H 864.212 -0.745724 -0.0969536 0
M  V30 9391 H 866.183 -2.94555 0.477504 0
M  V30 9392 C 864.932 -3.23501 -1.27446 0
M  V30 9393 H 864.255 -3.92659 -0.752261 0
M  V30 9394 H 865.695 -3.84461 -1.78789 0
M  V30 9395 C 864.154 -2.45288 -2.30944 0
M  V30 9396 O 864.684 -2.17955 -3.37429 0
M  V30 9397 N 862.89 -2.06737 -2.04226 0
M  V30 9398 H 862.437 -2.29166 -1.17647 0
M  V30 9399 H 862.395 -1.54719 -2.73696 0
M  V30 9400 N 866.167 -0.267825 -1.55308 0
M  V30 9401 C 867.115 0.638848 -2.23655 0
M  V30 9402 C 868.109 1.16363 -1.2311 0
M  V30 9403 O 869.315 1.1181 -1.41062 0
M  V30 9404 H 865.69 0.224551 -0.717691 0
M  V30 9405 H 867.661 0.0394809 -2.98374 0
M  V30 9406 C 866.41 1.8151 -2.96562 0
M  V30 9407 H 865.733 1.42048 -3.73715 0
M  V30 9408 H 867.173 2.42629 -3.47717 0
M  V30 9409 C 865.632 2.69911 -2.01618 0
M  V30 9410 O 866.162 3.70058 -1.56268 0
M  V30 9411 N 864.368 2.36924 -1.68272 0
M  V30 9412 H 863.915 1.55533 -2.05347 0
M  V30 9413 H 863.873 2.96343 -1.05016 0
M  V30 9414 N 867.645 1.57599 0.00500368 0
M  V30 9415 C 868.555 2.11532 1.01446 0
M  V30 9416 C 869.571 1.05941 1.3803 0
M  V30 9417 O 870.747 1.37815 1.46864 0
M  V30 9418 C 867.812 2.60382 2.28915 0
M  V30 9419 C 866.873 3.80554 1.98689 0
M  V30 9420 C 866.106 4.27064 3.20081 0
M  V30 9421 O 866.329 3.72939 4.31593 0
M  V30 9422 O 865.263 5.1927 3.04371 0
M  V30 9423 H 869.089 2.97993 0.586011 0
M  V30 9424 H 866.674 1.47718 0.223519 0
M  V30 9425 H 868.556 2.92024 3.03809 0
M  V30 9426 H 867.231 1.77022 2.71007 0
M  V30 9427 H 866.138 3.53893 1.21286 0
M  V30 9428 H 867.471 4.64972 1.61437 0
M  V30 9429 N 869.123 -0.277682 1.55134 0
M  V30 9430 C 870.033 -1.36524 1.90783 0
M  V30 9431 C 871.049 -1.54283 0.804542 0
M  V30 9432 O 872.225 -1.68499 1.10318 0
M  V30 9433 C 869.29 -2.70524 2.16835 0
M  V30 9434 C 868.351 -2.61552 3.40424 0
M  V30 9435 C 867.584 -3.89162 3.65224 0
M  V30 9436 O 867.807 -4.89624 2.92616 0
M  V30 9437 O 866.741 -3.89647 4.58758 0
M  V30 9438 H 870.567 -1.0929 2.83354 0
M  V30 9439 H 868.152 -0.475799 1.41621 0
M  V30 9440 H 870.034 -3.49765 2.35038 0
M  V30 9441 H 868.709 -2.97555 1.27448 0
M  V30 9442 H 867.616 -1.80704 3.27562 0
M  V30 9443 H 868.949 -2.39472 4.30016 0
M  V30 9444 N 870.601 -1.47988 -0.541979 0
M  V30 9445 C 872.012 -1.49073 -1.12402 0
M  V30 9446 C 872.363 -0.253825 -1.94551 0
M  V30 9447 O 871.488 0.640056 -2.06718 0
M  V30 9448 C 872.083 -2.7011 -2.04514 0
M  V30 9449 C 870.642 -2.74105 -2.5796 0
M  V30 9450 C 869.789 -2.42409 -1.3466 0
M  V30 9451 H 872.74 -1.55277 -0.327818 0
M  V30 9452 H 872.761 -2.47946 -2.88623 0
M  V30 9453 H 872.273 -3.60117 -1.44697 0
M  V30 9454 H 870.374 -1.88276 -3.21532 0
M  V30 9455 H 870.487 -3.75213 -2.97913 0
M  V30 9456 H 868.851 -1.9331 -1.65841 0
M  V30 9457 H 869.634 -3.34642 -0.766133 0
M  V30 9458 N 872.079 0.78992 -1.36375 0
M  V30 9459 C 873.495 1.0879 -1.16777 0
M  V30 9460 C 873.695 2.01498 0.00848236 0
M  V30 9461 O 872.751 2.43338 0.674007 0
M  V30 9462 C 874.064 1.70285 -2.47837 0
M  V30 9463 C 875.612 1.82629 -2.54196 0
M  V30 9464 C 876.087 2.47539 -3.85342 0
M  V30 9465 N 877.578 2.55008 -3.86685 0
M  V30 9466 C 878.313 3.06041 -4.84898 0
M  V30 9467 N 877.809 3.57385 -5.93505 0
M  V30 9468 N 879.602 3.04748 -4.72319 0
M  V30 9469 H 871.753 0.173985 -2.11686 0
M  V30 9470 H 874.016 0.139798 -0.937636 0
M  V30 9471 H 873.722 1.09633 -3.34176 0
M  V30 9472 H 873.596 2.69799 -2.63607 0
M  V30 9473 H 875.983 2.42419 -1.68276 0
M  V30 9474 H 876.064 0.81923 -2.42327 0
M  V30 9475 H 875.708 1.88393 -4.71668 0
M  V30 9476 H 875.638 3.48815 -3.94507 0
M  V30 9477 H 878.129 2.18651 -3.08221 0
M  V30 9478 H 878.442 3.94674 -6.64419 0
M  V30 9479 H 876.787 3.55538 -5.97175 0
M  V30 9480 H 879.978 2.63925 -3.86602 0
M  V30 9481 H 880.151 3.44212 -5.49019 0
M  V30 9482 N 873.557 1.20646 1.01402 0
M  V30 9483 C 874.834 0.927176 1.72229 0
M  V30 9484 C 875.214 -0.563382 2.03443 0
M  V30 9485 O 874.562 -1.52576 1.70096 0
M  V30 9486 C 874.772 1.80285 2.98828 0
M  V30 9487 C 876.12 2.04624 3.72041 0
M  V30 9488 O 877.144 1.77559 3.0879 0
M  V30 9489 O 876.003 2.50347 4.85787 0
M  V30 9490 H 873.097 0.346891 0.75073 0
M  V30 9491 H 875.643 1.31532 1.07227 0
M  V30 9492 H 874.415 2.81204 2.72102 0
M  V30 9493 H 874.038 1.41495 3.71571 0
M  V30 9494 N 875.035 -1.20752 1.01276 0
M  V30 9495 C 876.446 -1.7175 0.732033 0
M  V30 9496 C 876.797 -1.8131 -0.749733 0
M  V30 9497 O 875.922 -1.47301 -1.58529 0
M  V30 9498 C 876.517 -3.11936 1.32217 0
M  V30 9499 C 875.076 -3.6026 1.09039 0
M  V30 9500 C 874.223 -2.37571 1.43022 0
M  V30 9501 H 877.174 -1.0582 1.1827 0
M  V30 9502 H 877.195 -3.73802 0.710771 0
M  V30 9503 H 876.707 -3.04946 2.40061 0
M  V30 9504 H 874.808 -3.72588 0.0294464 0
M  V30 9505 H 874.921 -4.45295 1.76775 0
M  V30 9506 H 873.285 -2.40128 0.849159 0
M  V30 9507 H 874.068 -2.33225 2.51915 0
M  V30 9508 N 876.513 -0.788492 -1.36457 0
M  V30 9509 C 877.445 -0.144208 -2.28746 0
M  V30 9510 C 878.458 0.646009 -1.49434 0
M  V30 9511 O 879.647 0.481344 -1.71888 0
M  V30 9512 C 876.747 0.818869 -3.28858 0
M  V30 9513 C 875.92 0.0789055 -4.37329 0
M  V30 9514 C 874.979 0.957791 -5.1741 0
M  V30 9515 O 874.005 0.415378 -5.67682 0
M  V30 9516 N 875.207 2.28216 -5.33758 0
M  V30 9517 H 877.972 -0.936949 -2.84678 0
M  V30 9518 H 875.533 -0.642317 -1.48613 0
M  V30 9519 H 877.525 1.41065 -3.79319 0
M  V30 9520 H 876.095 1.51249 -2.73573 0
M  V30 9521 H 875.315 -0.693939 -3.88044 0
M  V30 9522 H 876.603 -0.431753 -5.06965 0
M  V30 9523 H 876.001 2.747 -4.94527 0
M  V30 9524 H 874.558 2.8236 -5.87466 0
M  V30 9525 N 877.991 1.48044 -0.54043 0
M  V30 9526 C 879.216 2.07396 -0.0124765 0
M  V30 9527 C 879.641 1.39288 1.26414 0
M  V30 9528 O 878.999 0.462252 1.75308 0
M  V30 9529 C 879.047 3.60131 0.18377 0
M  V30 9530 O 878.151 3.92995 1.25014 0
M  V30 9531 H 877.492 0.662554 -0.0438026 0
M  V30 9532 H 880.022 1.90306 -0.751327 0
M  V30 9533 H 880.032 4.06003 0.403197 0
M  V30 9534 H 878.707 4.09105 -0.74874 0
M  V30 9535 H 877.284 3.5889 1.01254 0
M  V30 9536 N 879.47 0.276058 1.55163 0
M  V30 9537 C 880.881 -0.221516 1.85381 0
M  V30 9538 C 881.232 -1.55372 1.19808 0
M  V30 9539 O 880.357 -2.10855 0.486742 0
M  V30 9540 C 880.952 -0.408706 3.36326 0
M  V30 9541 C 879.511 -0.850512 3.66665 0
M  V30 9542 C 878.658 0.055656 2.77244 0
M  V30 9543 H 881.609 0.497819 1.5069 0
M  V30 9544 H 881.63 -1.24711 3.59482 0
M  V30 9545 H 881.142 0.561052 3.84023 0
M  V30 9546 H 879.243 -1.83171 3.24468 0
M  V30 9547 H 879.356 -0.687181 4.74146 0
M  V30 9548 H 877.72 -0.460819 2.50497 0
M  V30 9549 H 878.503 1.02131 3.27756 0
M  V30 9550 N 880.948 -1.576 0.00335426 0
M  V30 9551 C 882.359 -1.7875 -0.539008 0
M  V30 9552 C 882.71 -0.911097 -1.73763 0
M  V30 9553 O 881.835 -0.114476 -2.16097 0
M  V30 9554 C 882.43 -3.24177 -0.984611 0
M  V30 9555 C 880.989 -3.46412 -1.47226 0
M  V30 9556 C 880.136 -2.74024 -0.425004 0
M  V30 9557 H 883.087 -1.57032 0.229511 0
M  V30 9558 H 883.108 -3.32474 -1.85044 0
M  V30 9559 H 882.62 -3.87938 -0.112035 0
M  V30 9560 H 880.721 -2.8787 -2.36562 0
M  V30 9561 H 880.834 -4.55098 -1.49741 0
M  V30 9562 H 879.198 -2.38741 -0.887394 0
M  V30 9563 H 879.981 -3.40486 0.438662 0
M  V30 9564 N 882.426 0.269451 -1.5528 0
M  V30 9565 C 883.703 1.02207 -1.66773 0
M  V30 9566 C 884.083 2.04168 -0.536536 0
M  V30 9567 O 883.431 2.23761 0.462956 0
M  V30 9568 C 883.641 1.67569 -3.0614 0
M  V30 9569 C 884.989 2.18599 -3.64005 0
M  V30 9570 O 886.013 1.7755 -3.08795 0
M  V30 9571 O 884.872 2.93903 -4.60742 0
M  V30 9572 H 881.966 0.474314 -0.677462 0
M  V30 9573 H 884.512 0.265026 -1.67618 0
M  V30 9574 H 883.284 0.937029 -3.79915 0
M  V30 9575 H 882.907 2.49951 -3.09209 0
M  V30 9576 N 883.904 1.48273 0.534124 0
M  V30 9577 C 885.315 1.49667 1.1161 0
M  V30 9578 C 885.666 0.264139 1.94414 0
M  V30 9579 O 884.791 -0.629084 2.07054 0
M  V30 9580 C 885.386 2.71191 2.03079 0
M  V30 9581 C 883.945 2.7547 2.56502 0
M  V30 9582 C 883.092 2.43119 1.33373 0
M  V30 9583 H 886.043 1.55449 0.319578 0
M  V30 9584 H 886.064 2.49473 2.87304 0
M  V30 9585 H 885.576 3.60879 1.42785 0
M  V30 9586 H 883.677 1.89979 3.20529 0
M  V30 9587 H 883.79 3.76787 2.95919 0
M  V30 9588 H 882.154 1.94187 1.64813 0
M  V30 9589 H 882.937 3.35044 0.748375 0
M  V30 9590 N 885.382 -0.782676 1.36792 0
M  V30 9591 C 886.793 -1.35828 1.28092 0
M  V30 9592 C 887.144 -1.96052 -0.076315 0
M  V30 9593 O 886.269 -1.93042 -0.977935 0
M  V30 9594 C 886.864 -2.46949 2.31952 0
M  V30 9595 C 885.423 -3.00307 2.2692 0
M  V30 9596 C 884.57 -1.73436 2.16368 0
M  V30 9597 H 887.521 -0.583788 1.47572 0
M  V30 9598 H 887.542 -3.26144 1.95986 0
M  V30 9599 H 887.054 -2.03087 3.30722 0
M  V30 9600 H 885.155 -3.48571 1.31639 0
M  V30 9601 H 885.268 -3.56663 3.19887 0
M  V30 9602 H 883.632 -1.95934 1.62733 0
M  V30 9603 H 884.415 -1.31693 3.17036 0
M  V30 9604 N 886.86 -1.21182 -1.00761 0
M  V30 9605 C 887.808 -0.965728 -2.11604 0
M  V30 9606 C 888.802 0.0861028 -1.69181 0
M  V30 9607 O 890.008 -0.0650558 -1.79882 0
M  V30 9608 H 886.383 -0.295023 -0.691712 0
M  V30 9609 H 888.354 -1.90667 -2.2954 0
M  V30 9610 C 887.103 -0.544164 -3.43415 0
M  V30 9611 H 886.426 -1.34515 -3.76491 0
M  V30 9612 H 887.866 -0.411268 -4.22001 0
M  V30 9613 C 886.325 0.744583 -3.28569 0
M  V30 9614 O 886.855 1.80078 -3.59075 0
M  V30 9615 N 885.061 0.710083 -2.81791 0
M  V30 9616 H 884.608 -0.14971 -2.57165 0
M  V30 9617 H 884.566 1.57268 -2.72239 0
M  V30 9618 N 888.338 1.20213 -1.01915 0
M  V30 9619 C 889.248 2.26763 -0.601311 0
M  V30 9620 C 890.264 1.70185 0.362369 0
M  V30 9621 O 891.44 2.00165 0.222682 0
M  V30 9622 C 888.505 3.46662 0.0512879 0
M  V30 9623 C 887.566 4.18459 -0.958659 0
M  V30 9624 C 886.799 5.32634 -0.337107 0
M  V30 9625 O 887.022 5.63841 0.86251 0
M  V30 9626 O 885.956 5.9258 -1.05511 0
M  V30 9627 H 889.782 2.64725 -1.48844 0
M  V30 9628 H 887.367 1.2688 -0.788784 0
M  V30 9629 H 889.249 4.19345 0.41564 0
M  V30 9630 H 887.924 3.1057 0.912572 0
M  V30 9631 H 886.831 3.47937 -1.37442 0
M  V30 9632 H 888.164 4.58498 -1.78999 0
M  V30 9633 N 889.816 0.795718 1.36037 0
M  V30 9634 C 891.063 0.371024 1.99072 0
M  V30 9635 C 891.391 -1.05896 1.63145 0
M  V30 9636 O 890.646 -1.7474 0.881163 0
M  V30 9637 C 890.945 0.489038 3.54038 0
M  V30 9638 C 890.611 1.88075 4.09803 0
M  V30 9639 C 889.273 2.26152 4.24745 0
M  V30 9640 C 891.625 2.79174 4.40126 0
M  V30 9641 C 888.953 3.54718 4.67324 0
M  V30 9642 C 891.305 4.07175 4.8414 0
M  V30 9643 C 889.969 4.45266 4.97287 0
M  V30 9644 H 889.239 0.135767 0.728456 0
M  V30 9645 H 891.886 1.0144 1.62426 0
M  V30 9646 H 890.191 -0.237823 3.91078 0
M  V30 9647 H 891.888 0.141374 4.00751 0
M  V30 9648 H 888.478 1.57488 3.98617 0
M  V30 9649 H 892.662 2.51009 4.28145 0
M  V30 9650 H 887.918 3.84093 4.75691 0
M  V30 9651 H 892.092 4.77875 5.06565 0
M  V30 9652 H 889.719 5.44943 5.30038 0
M  V30 9653 N 891.294 -1.47756 0.548274 0
M  V30 9654 C 892.542 -2.02089 0.0208542 0
M  V30 9655 C 892.863 -1.42589 -1.33017 0
M  V30 9656 O 892.133 -0.597825 -1.86555 0
M  V30 9657 H 890.713 -0.746985 0.00472023 0
M  V30 9658 H 893.375 -1.81262 0.716257 0
M  V30 9659 H 892.471 -3.12012 -0.0739016 0
M  V30 9660 N 892.772 -0.284283 -1.55015 0
M  V30 9661 C 894.021 0.33055 -1.98973 0
M  V30 9662 C 894.334 1.56284 -1.17621 0
M  V30 9663 O 895.54 2.2512 -1.51767 0
M  V30 9664 C 893.996 0.639457 -3.54174 0
M  V30 9665 C 893.604 -0.573543 -4.44313 0
M  V30 9666 C 895.348 1.21641 -4.06699 0
M  V30 9667 C 893.255 -0.238715 -5.90918 0
M  V30 9668 H 892.185 0.127285 -0.743179 0
M  V30 9669 H 894.836 -0.390372 -1.793 0
M  V30 9670 H 893.218 1.41953 -3.69683 0
M  V30 9671 H 894.392 -1.3502 -4.40575 0
M  V30 9672 H 892.707 -1.06797 -4.02472 0
M  V30 9673 H 895.304 1.48088 -5.13784 0
M  V30 9674 H 895.647 2.15328 -3.56286 0
M  V30 9675 H 896.18 0.498422 -3.94665 0
M  V30 9676 H 892.919 -1.1437 -6.45445 0
M  V30 9677 H 892.439 0.500997 -5.97704 0
M  V30 9678 H 894.118 0.165774 -6.46788 0
M  V30 9679 N 894.251 1.57596 -0.0117121 0
M  V30 9680 C 895.498 1.91071 0.670667 0
M  V30 9681 C 895.826 0.886457 1.73125 0
M  V30 9682 O 895.081 -0.107135 1.95407 0
M  V30 9683 C 895.38 3.31296 1.34082 0
M  V30 9684 C 895.046 4.49011 0.412305 0
M  V30 9685 C 893.708 4.80945 0.156691 0
M  V30 9686 C 896.06 5.20709 -0.226294 0
M  V30 9687 C 893.388 5.81943 -0.745619 0
M  V30 9688 C 895.74 6.22668 -1.11655 0
M  V30 9689 C 894.404 6.53053 -1.38123 0
M  V30 9690 H 893.674 0.69918 0.245415 0
M  V30 9691 H 896.321 1.91373 -0.0697511 0
M  V30 9692 H 894.626 3.27174 2.15557 0
M  V30 9693 H 896.323 3.54461 1.87506 0
M  V30 9694 H 892.913 4.24067 0.621705 0
M  V30 9695 H 897.097 4.96282 -0.0418456 0
M  V30 9696 H 892.353 6.03839 -0.958566 0
M  V30 9697 H 896.527 6.77351 -1.61767 0
M  V30 9698 H 894.154 7.31132 -2.08208 0
M  V30 9699 N 895.729 -0.261212 1.5542 0
M  V30 9700 C 896.677 -1.34298 1.89913 0
M  V30 9701 C 897.671 -1.50547 0.776665 0
M  V30 9702 O 898.877 -1.52191 0.961139 0
M  V30 9703 H 895.252 -0.4494 0.602946 0
M  V30 9704 H 897.223 -1.02464 2.80256 0
M  V30 9705 C 895.972 -2.69423 2.19788 0
M  V30 9706 H 895.295 -2.57715 3.05652 0
M  V30 9707 H 896.735 -3.44026 2.47835 0
M  V30 9708 C 895.194 -3.21423 1.00939 0
M  V30 9709 O 895.724 -4.00921 0.250034 0
M  V30 9710 N 893.93 -2.7926 0.803883 0
M  V30 9711 H 893.477 -2.14724 1.42308 0
M  V30 9712 H 893.435 -3.14398 0.0103257 0
M  V30 9713 N 897.207 -1.48554 -0.526253 0
M  V30 9714 C 898.432 -1.60686 -1.31129 0
M  V30 9715 C 898.857 -0.268701 -1.86171 0
M  V30 9716 O 898.215 0.760167 -1.64594 0
M  V30 9717 C 898.263 -2.65938 -2.43536 0
M  V30 9718 O 897.367 -2.23356 -3.46678 0
M  V30 9719 H 896.708 -0.538691 -0.388211 0
M  V30 9720 H 899.238 -1.94567 -0.632826 0
M  V30 9721 H 899.248 -2.87327 -2.89668 0
M  V30 9722 H 897.923 -3.63085 -2.02835 0
M  V30 9723 H 896.5 -2.12196 -3.06639 0
M  V30 9724 N 898.685 0.775411 -1.37205 0
M  V30 9725 C 899.615 1.90258 -1.35367 0
M  V30 9726 C 900.596 1.68634 -0.222864 0
M  V30 9727 O 901.781 1.89545 -0.422659 0
M  V30 9728 C 898.911 3.27488 -1.15623 0
M  V30 9729 C 897.865 3.63668 -2.25676 0
M  V30 9730 C 897.191 4.994 -1.91059 0
M  V30 9731 C 898.491 3.70797 -3.67841 0
M  V30 9732 H 900.185 1.92053 -2.29687 0
M  V30 9733 H 897.731 0.922597 -1.10563 0
M  V30 9734 H 899.684 4.05976 -1.12968 0
M  V30 9735 H 898.408 3.26117 -0.177573 0
M  V30 9736 H 897.067 2.87486 -2.2748 0
M  V30 9737 H 896.715 4.94565 -0.917324 0
M  V30 9738 H 896.415 5.24576 -2.64751 0
M  V30 9739 H 897.939 5.80291 -1.89985 0
M  V30 9740 H 899.353 4.39444 -3.68187 0
M  V30 9741 H 897.75 4.07468 -4.40556 0
M  V30 9742 H 898.82 2.71549 -4.01732 0
M  V30 9743 N 900.163 1.21714 1.00117 0
M  V30 9744 C 901.409 1.04829 1.74306 0
M  V30 9745 C 901.764 -0.413387 1.87907 0
M  V30 9746 O 901.057 -1.30258 1.40512 0
M  V30 9747 C 901.251 1.68345 3.15269 0
M  V30 9748 C 901.08 3.20537 3.15414 0
M  V30 9749 C 899.85 3.896 3.21776 0
M  V30 9750 C 902.048 4.17576 3.00224 0
M  V30 9751 N 900.03 5.28949 3.11587 0
M  V30 9752 C 901.401 5.43701 2.97974 0
M  V30 9753 C 903.456 4.08575 2.84554 0
M  V30 9754 C 902.159 6.61861 2.8166 0
M  V30 9755 C 904.185 5.26375 2.69598 0
M  V30 9756 C 903.547 6.51414 2.68028 0
M  V30 9757 H 899.646 0.437964 0.647852 0
M  V30 9758 H 902.23 1.54128 1.18965 0
M  V30 9759 H 900.401 1.21607 3.68872 0
M  V30 9760 H 902.133 1.44629 3.77974 0
M  V30 9761 H 898.888 3.40548 3.29126 0
M  V30 9762 H 899.312 6.01945 3.09825 0
M  V30 9763 H 903.954 3.12696 2.84571 0
M  V30 9764 H 901.672 7.57896 2.8039 0
M  V30 9765 H 905.258 5.21235 2.58468 0
M  V30 9766 H 904.138 7.41033 2.56593 0
M  V30 9767 N 901.641 -1.19671 1.02551 0
M  V30 9768 C 902.888 -1.89268 0.720002 0
M  V30 9769 C 903.216 -1.79411 -0.751127 0
M  V30 9770 O 902.471 -1.17859 -1.5623 0
M  V30 9771 C 902.77 -3.39647 1.11241 0
M  V30 9772 C 902.436 -3.69706 2.58125 0
M  V30 9773 C 901.098 -3.7762 2.98256 0
M  V30 9774 C 903.45 -3.83301 3.53171 0
M  V30 9775 C 900.778 -3.96594 4.32354 0
M  V30 9776 C 903.13 -4.03788 4.86968 0
M  V30 9777 C 901.794 -4.09934 5.26793 0
M  V30 9778 H 901.064 -0.692579 0.263467 0
M  V30 9779 H 903.711 -1.41738 1.28774 0
M  V30 9780 H 902.016 -3.89052 0.463234 0
M  V30 9781 H 903.713 -3.91809 0.853602 0
M  V30 9782 H 900.303 -3.64152 2.26033 0
M  V30 9783 H 904.487 -3.76534 3.2332 0
M  V30 9784 H 899.743 -3.9959 4.6275 0
M  V30 9785 H 903.917 -4.1325 5.60533 0
M  V30 9786 H 901.544 -4.24389 6.30712 0
M  V30 9787 N 903.119 -0.802921 -1.35613 0
M  V30 9788 C 904.344 -0.392846 -2.03645 0
M  V30 9789 C 904.769 0.987075 -1.6012 0
M  V30 9790 O 904.127 1.63849 -0.776101 0
M  V30 9791 C 904.175 -0.480208 -3.57388 0
M  V30 9792 O 903.279 0.507751 -4.09262 0
M  V30 9793 H 902.62 -0.16464 -0.643265 0
M  V30 9794 H 905.15 -1.08779 -1.73287 0
M  V30 9795 H 905.16 -0.348683 -4.06507 0
M  V30 9796 H 903.835 -1.48675 -3.88418 0
M  V30 9797 H 902.412 0.336769 -3.71376 0
M  V30 9798 N 904.597 1.47463 -0.556102 0
M  V30 9799 C 905.527 2.32801 0.180497 0
M  V30 9800 C 906.508 1.43721 0.909848 0
M  V30 9801 O 907.693 1.72578 0.89053 0
M  V30 9802 C 904.823 3.25478 1.21167 0
M  V30 9803 C 903.777 4.2379 0.598846 0
M  V30 9804 C 903.103 5.05783 1.73457 0
M  V30 9805 C 904.403 5.20387 -0.446659 0
M  V30 9806 H 906.097 2.94636 -0.531956 0
M  V30 9807 H 903.643 1.41683 -0.257267 0
M  V30 9808 H 905.596 3.8402 1.73513 0
M  V30 9809 H 904.32 2.61695 1.95405 0
M  V30 9810 H 902.979 3.66472 0.0966897 0
M  V30 9811 H 902.627 4.38405 2.46596 0
M  V30 9812 H 902.327 5.72343 1.33031 0
M  V30 9813 H 903.851 5.67183 2.26131 0
M  V30 9814 H 905.265 5.73299 -0.00930019 0
M  V30 9815 H 903.662 5.95143 -0.769735 0
M  V30 9816 H 904.732 4.65932 -1.34295 0
M  V30 9817 N 906.075 0.2925 1.54862 0
M  V30 9818 C 907.323 -0.318633 1.99572 0
M  V30 9819 C 907.644 -1.55062 1.1824 0
M  V30 9820 O 906.914 -1.93943 0.276226 0
M  V30 9821 H 905.494 -0.120722 0.737181 0
M  V30 9822 H 908.156 0.401862 1.90712 0
M  V30 9823 H 907.252 -0.596542 3.06346 0
M  V30 9824 N 907.553 -1.57587 0.0200696 0
M  V30 9825 C 908.516 -2.08595 -0.949767 0
M  V30 9826 C 909.516 -0.999215 -1.25985 0
M  V30 9827 O 910.706 -1.26115 -1.2017 0
M  V30 9828 C 907.838 -2.54424 -2.26895 0
M  V30 9829 H 909.031 -2.95563 -0.508161 0
M  V30 9830 H 906.584 -1.54631 -0.227798 0
M  V30 9831 H 907.319 -1.70758 -2.75703 0
M  V30 9832 H 907.104 -3.3381 -2.05702 0
M  V30 9833 H 908.594 -2.94144 -2.96427 0
M  V30 9834 N 909.032 0.252966 -1.55557 0
M  V30 9835 C 910.279 0.981852 -1.77104 0
M  V30 9836 C 910.607 1.85547 -0.583305 0
M  V30 9837 O 909.862 1.90836 0.43359 0
M  V30 9838 C 910.161 1.87785 -3.04091 0
M  V30 9839 C 909.827 1.16009 -4.35721 0
M  V30 9840 C 908.489 0.961697 -4.71492 0
M  V30 9841 C 910.841 0.650884 -5.1712 0
M  V30 9842 C 908.169 0.241704 -5.86202 0
M  V30 9843 C 910.521 -0.0556124 -6.32576 0
M  V30 9844 C 909.185 -0.265536 -6.66972 0
M  V30 9845 H 908.455 0.359285 -0.64807 0
M  V30 9846 H 911.102 0.252443 -1.89829 0
M  V30 9847 H 909.407 2.67412 -2.86353 0
M  V30 9848 H 911.104 2.44339 -3.17961 0
M  V30 9849 H 907.694 1.32465 -4.07616 0
M  V30 9850 H 911.878 0.791719 -4.89944 0
M  V30 9851 H 907.134 0.0685292 -6.11362 0
M  V30 9852 H 911.308 -0.457839 -6.94893 0
M  V30 9853 H 908.935 -0.8254 -7.55706 0
M  V30 9854 N 910.51 1.48831 0.518367 0
M  V30 9855 C 911.443 1.588 1.63884 0
M  V30 9856 C 912.421 0.437847 1.56594 0
M  V30 9857 O 913.605 0.651042 1.769 0
M  V30 9858 C 910.732 1.52681 3.02335 0
M  V30 9859 C 909.778 2.7268 3.27945 0
M  V30 9860 S 910.611 4.34536 3.12951 0
M  V30 9861 C 911.767 4.31034 4.53828 0
M  V30 9862 H 912 2.53587 1.5518 0
M  V30 9863 H 909.533 1.37507 0.702218 0
M  V30 9864 H 911.491 1.49837 3.82177 0
M  V30 9865 H 910.152 0.592107 3.08469 0
M  V30 9866 H 909.345 2.64569 4.28974 0
M  V30 9867 H 908.947 2.72847 2.55794 0
M  V30 9868 H 911.239 4.01683 5.45579 0
M  V30 9869 H 912.182 5.32282 4.66991 0
M  V30 9870 H 912.59 3.61343 4.33695 0
M  V30 9871 N 911.988 -0.768124 1.37614 0
M  V30 9872 C 912.92 -1.89076 1.29548 0
M  V30 9873 C 913.933 -1.61433 0.21056 0
M  V30 9874 O 915.122 -1.72283 0.466992 0
M  V30 9875 C 912.222 -3.24388 0.981102 0
M  V30 9876 C 911.395 -3.79649 2.17222 0
M  V30 9877 C 910.454 -4.93444 1.82754 0
M  V30 9878 O 909.48 -5.0884 2.5509 0
M  V30 9879 N 910.682 -5.75319 0.773819 0
M  V30 9880 H 913.447 -1.9651 2.26283 0
M  V30 9881 H 911.008 -0.947399 1.31286 0
M  V30 9882 H 913 -3.98038 0.731301 0
M  V30 9883 H 911.57 -3.12433 0.102203 0
M  V30 9884 H 910.79 -2.97735 2.58355 0
M  V30 9885 H 912.078 -4.13302 2.96748 0
M  V30 9886 H 911.476 -5.65433 0.173644 0
M  V30 9887 H 910.033 -6.4918 0.583882 0
M  V30 9888 N 913.466 -1.22244 -0.994698 0
M  V30 9889 C 914.398 -0.948706 -2.08644 0
M  V30 9890 C 915.411 0.0720049 -1.62641 0
M  V30 9891 O 916.6 -0.161778 -1.77765 0
M  V30 9892 C 913.7 -0.404885 -3.36473 0
M  V30 9893 C 912.873 -1.48239 -4.11514 0
M  V30 9894 C 911.932 -0.94597 -5.17627 0
M  V30 9895 O 910.958 -1.63177 -5.45309 0
M  V30 9896 N 912.16 0.23355 -5.8003 0
M  V30 9897 H 914.925 -1.88858 -2.32707 0
M  V30 9898 H 912.486 -1.12908 -1.16032 0
M  V30 9899 H 914.478 -0.0313903 -4.04688 0
M  V30 9900 H 913.048 0.440061 -3.09487 0
M  V30 9901 H 912.268 -2.02928 -3.37955 0
M  V30 9902 H 913.556 -2.20741 -4.58422 0
M  V30 9903 H 912.954 0.80756 -5.59906 0
M  V30 9904 H 911.511 0.54845 -6.49488 0
M  V30 9905 N 914.944 1.19125 -1.03184 0
M  V30 9906 C 916.192 1.8851 -0.728587 0
M  V30 9907 C 916.513 1.80195 0.74531 0
M  V30 9908 O 915.783 1.21437 1.5372 0
M  V30 9909 H 914.363 0.69784 -0.266511 0
M  V30 9910 H 917.025 1.44607 -1.3067 0
M  V30 9911 H 916.121 2.9477 -1.02554 0
M  V30 9912 N 916.422 0.810101 1.35185 0
M  V30 9913 C 917.662 0.397802 2.00492 0
M  V30 9914 C 918.026 -1.01684 1.62863 0
M  V30 9915 O 919.227 -1.53133 2.20916 0
M  V30 9916 C 917.498 0.579524 3.5267 0
M  V30 9917 S 919.057 0.258169 4.3804 0
M  V30 9918 H 915.875 0.150904 0.694801 0
M  V30 9919 H 918.477 1.05312 1.64711 0
M  V30 9920 H 917.181 1.60901 3.77543 0
M  V30 9921 H 916.712 -0.0909886 3.93295 0
M  V30 9922 H 918.727 -0.932882 4.87352 0
M  V30 9923 N 917.9 -1.47166 0.563914 0
M  V30 9924 C 919.177 -1.95586 -0.0236172 0
M  V30 9925 C 919.557 -1.50655 -1.47872 0
M  V30 9926 O 918.905 -0.748479 -2.15894 0
M  V30 9927 C 919.115 -3.48762 0.128841 0
M  V30 9928 C 920.463 -4.24598 -0.0130544 0
M  V30 9929 O 921.487 -3.56155 0.0567242 0
M  V30 9930 O 920.346 -5.46253 -0.164332 0
M  V30 9931 H 917.44 -0.824793 -0.0603789 0
M  V30 9932 H 919.986 -1.57536 0.63091 0
M  V30 9933 H 918.758 -3.74291 1.14113 0
M  V30 9934 H 918.381 -3.93594 -0.56299 0
M  V30 9935 N 919.378 -0.300708 -1.54705 0
M  V30 9936 C 920.627 0.309428 -1.99312 0
M  V30 9937 C 920.94 1.55027 -1.19272 0
M  V30 9938 O 922.146 2.23498 -1.54146 0
M  V30 9939 C 920.602 0.601856 -3.54832 0
M  V30 9940 C 920.21 -0.620636 -4.4368 0
M  V30 9941 C 921.954 1.1732 -4.07966 0
M  V30 9942 C 919.861 -0.301376 -5.90632 0
M  V30 9943 H 918.791 0.119395 -0.744487 0
M  V30 9944 H 921.442 -0.409368 -1.78875 0
M  V30 9945 H 919.824 1.38024 -3.71168 0
M  V30 9946 H 920.998 -1.39685 -4.39118 0
M  V30 9947 H 919.313 -1.1106 -4.01316 0
M  V30 9948 H 921.91 1.42631 -5.15326 0
M  V30 9949 H 922.253 2.11537 -3.5855 0
M  V30 9950 H 922.786 0.456534 -3.95172 0
M  V30 9951 H 919.525 -1.21209 -6.44196 0
M  V30 9952 H 919.045 0.437574 -5.98202 0
M  V30 9953 H 920.724 0.097164 -6.46927 0
M  V30 9954 N 920.856 1.57574 -0.0284266 0
M  V30 9955 C 922.081 1.96479 0.664137 0
M  V30 9956 C 922.506 0.904826 1.64908 0
M  V30 9957 O 921.864 -0.134339 1.80802 0
M  V30 9958 C 921.912 3.34479 1.34745 0
M  V30 9959 O 921.016 3.30794 2.46271 0
M  V30 9960 H 920.357 0.640654 0.174524 0
M  V30 9961 H 922.887 2.04402 -0.0900729 0
M  V30 9962 H 922.897 3.70694 1.7044 0
M  V30 9963 H 921.572 4.1117 0.625468 0
M  V30 9964 H 920.149 3.06294 2.12693 0
M  V30 9965 N 922.334 -0.244713 1.55689 0
M  V30 9966 C 923.745 -0.813603 1.6804 0
M  V30 9967 C 924.096 -1.85936 0.626281 0
M  V30 9968 O 923.221 -2.15206 -0.227038 0
M  V30 9969 C 923.816 -1.48252 3.04642 0
M  V30 9970 C 922.375 -1.99908 3.18926 0
M  V30 9971 C 921.522 -0.850958 2.6392 0
M  V30 9972 H 924.473 -0.0204805 1.58687 0
M  V30 9973 H 924.494 -2.35062 2.99209 0
M  V30 9974 H 924.006 -0.721164 3.81341 0
M  V30 9975 H 922.107 -2.78918 2.47054 0
M  V30 9976 H 922.22 -2.19497 4.25862 0
M  V30 9977 H 920.584 -1.25206 2.21801 0
M  V30 9978 H 921.367 -0.10265 3.43146 0
M  V30 9979 N 923.813 -1.49104 -0.510467 0
M  V30 9980 C 925.229 -1.35657 -0.840797 0
M  V30 9981 C 925.429 -0.382425 -1.97838 0
M  V30 9982 O 924.485 0.189331 -2.51789 0
M  V30 9983 C 925.798 -2.76155 -1.18992 0
M  V30 9984 C 927.346 -2.84786 -1.29868 0
M  V30 9985 C 927.821 -4.2603 -1.68115 0
M  V30 9986 N 929.312 -4.28796 -1.75181 0
M  V30 9987 C 930.047 -5.35041 -2.062 0
M  V30 9988 N 929.543 -6.51543 -2.35508 0
M  V30 9989 N 931.336 -5.2245 -2.07371 0
M  V30 9990 H 923.487 -2.11042 0.23982 0
M  V30 9991 H 925.75 -0.946946 0.0446824 0
M  V30 9992 H 925.456 -3.49092 -0.427484 0
M  V30 9993 H 925.33 -3.10922 -2.13558 0
M  V30 9994 H 927.717 -2.12092 -2.05186 0
M  V30 9995 H 927.798 -2.53613 -0.333758 0
M  V30 9996 H 927.442 -4.99247 -0.933512 0
M  V30 9997 H 927.372 -4.5466 -2.65691 0
M  V30 9998 H 929.863 -3.44771 -1.5473 0
M  V30 9999 H 930.176 -7.28342 -2.58337 0
M  V30 10000 H 928.521 -6.54785 -2.32985 0
M  V30 10001 H 931.712 -4.30444 -1.83945 0
M  V30 10002 H 931.885 -6.05347 -2.31212 0
M  V30 10003 N 925.291 0.760815 -1.38019 0
M  V30 10004 C 926.516 1.55513 -1.37224 0
M  V30 10005 C 926.941 1.88062 0.037611 0
M  V30 10006 O 926.299 1.50042 1.0177 0
M  V30 10007 C 926.347 2.83539 -2.22796 0
M  V30 10008 O 925.451 3.78384 -1.64009 0
M  V30 10009 H 924.792 0.470642 -0.468393 0
M  V30 10010 H 927.322 0.940792 -1.81687 0
M  V30 10011 H 927.332 3.32535 -2.36399 0
M  V30 10012 H 926.007 2.59178 -3.25269 0
M  V30 10013 H 924.584 3.37063 -1.59508 0
M  V30 10014 N 926.769 1.22769 0.988202 0
M  V30 10015 C 927.699 1.02627 2.09738 0
M  V30 10016 C 928.68 -0.0543211 1.70013 0
M  V30 10017 O 929.865 0.108811 1.93895 0
M  V30 10018 C 926.995 0.608302 3.41931 0
M  V30 10019 C 925.949 1.63536 3.95525 0
M  V30 10020 C 925.275 1.07308 5.23822 0
M  V30 10021 C 926.575 3.02649 4.25677 0
M  V30 10022 H 928.269 1.954 2.26847 0
M  V30 10023 H 925.815 0.940888 1.09011 0
M  V30 10024 H 927.768 0.454478 4.18942 0
M  V30 10025 H 926.492 -0.355095 3.24664 0
M  V30 10026 H 925.151 1.77704 3.20651 0
M  V30 10027 H 924.799 0.100894 5.02899 0
M  V30 10028 H 924.499 1.75925 5.60646 0
M  V30 10029 H 926.023 0.930938 6.03462 0
M  V30 10030 H 927.437 2.91828 4.93467 0
M  V30 10031 H 925.834 3.68434 4.73684 0
M  V30 10032 H 926.904 3.52228 3.33262 0
M  V30 10033 N 928.247 -1.18576 1.03814 0
M  V30 10034 C 929.472 -1.92978 0.759873 0
M  V30 10035 C 929.897 -1.75514 -0.676486 0
M  V30 10036 O 929.255 -1.06359 -1.46824 0
M  V30 10037 C 929.303 -3.42507 1.12788 0
M  V30 10038 O 928.407 -4.1163 0.251886 0
M  V30 10039 H 927.748 -0.602129 0.279886 0
M  V30 10040 H 930.278 -1.50383 1.3873 0
M  V30 10041 H 930.288 -3.93206 1.08872 0
M  V30 10042 H 928.963 -3.5454 2.17427 0
M  V30 10043 H 927.54 -3.7125 0.350441 0
M  V30 10044 N 929.725 -0.817259 -1.34754 0
M  V30 10045 C 930.973 -0.401852 -1.98065 0
M  V30 10046 C 931.294 1.03718 -1.65129 0
M  V30 10047 O 930.564 1.71921 -0.939141 0
M  V30 10048 H 929.144 -0.145603 -0.732672 0
M  V30 10049 H 931.806 -1.04545 -1.64488 0
M  V30 10050 H 930.902 -0.516241 -3.07801 0
M  V30 10051 N 931.203 1.46865 -0.571711 0
M  V30 10052 C 932.619 1.57897 -0.23255 0
M  V30 10053 C 932.819 1.56836 1.26509 0
M  V30 10054 O 931.875 1.47947 2.04617 0
M  V30 10055 C 933.188 2.87778 -0.872036 0
M  V30 10056 C 934.736 3.01389 -0.844605 0
M  V30 10057 C 935.211 4.33991 -1.46343 0
M  V30 10058 N 936.702 4.40662 -1.42727 0
M  V30 10059 C 937.437 5.41858 -1.87557 0
M  V30 10060 N 936.933 6.49787 -2.4031 0
M  V30 10061 N 938.726 5.32992 -1.7854 0
M  V30 10062 H 930.877 1.45798 -1.54457 0
M  V30 10063 H 933.14 0.694785 -0.644964 0
M  V30 10064 H 932.846 2.94332 -1.92513 0
M  V30 10065 H 932.72 3.75345 -0.373677 0
M  V30 10066 H 935.107 2.94423 0.19984 0
M  V30 10067 H 935.188 2.15327 -1.38087 0
M  V30 10068 H 934.832 4.41714 -2.50701 0
M  V30 10069 H 934.762 5.18809 -0.902479 0
M  V30 10070 H 937.253 3.63263 -1.04155 0
M  V30 10071 H 937.566 7.23199 -2.72403 0
M  V30 10072 H 935.911 6.50637 -2.44329 0
M  V30 10073 H 939.102 4.47575 -1.37093 0
M  V30 10074 H 939.275 6.11716 -2.13794 0
M  V30 10075 N 932.681 0.308908 1.54543 0
M  V30 10076 C 933.93 -0.298854 1.99474 0
M  V30 10077 C 934.243 -1.54393 1.20093 0
M  V30 10078 O 935.449 -2.22677 1.55329 0
M  V30 10079 C 933.905 -0.58303 3.55146 0
M  V30 10080 C 933.513 0.644157 4.43345 0
M  V30 10081 C 935.257 -1.15155 4.08582 0
M  V30 10082 C 933.164 0.332694 5.90463 0
M  V30 10083 H 932.094 -0.115445 0.74511 0
M  V30 10084 H 934.745 0.418848 1.78656 0
M  V30 10085 H 933.127 -1.36053 3.71894 0
M  V30 10086 H 934.301 1.42012 4.38371 0
M  V30 10087 H 932.616 1.13186 4.00722 0
M  V30 10088 H 935.213 -1.39896 5.16075 0
M  V30 10089 H 935.556 -2.09632 3.59667 0
M  V30 10090 H 936.089 -0.435571 3.95408 0
M  V30 10091 H 932.828 1.24624 6.43544 0
M  V30 10092 H 932.348 -0.405844 5.98425 0
M  V30 10093 H 934.027 -0.0628545 6.46969 0
M  V30 10094 N 934.159 -1.57557 0.0367827 0
M  V30 10095 C 935.405 -1.92399 -0.641133 0
M  V30 10096 C 935.738 -0.914191 -1.71336 0
M  V30 10097 O 935.013 0.0619616 -1.94401 0
M  V30 10098 C 935.296 -3.37689 -1.25052 0
M  V30 10099 C 935.149 -4.4941 -0.187326 0
M  V30 10100 C 936.468 -3.8309 -2.16634 0
M  V30 10101 H 933.587 -0.699666 -0.231597 0
M  V30 10102 H 936.229 -1.89759 0.0956083 0
M  V30 10103 H 934.379 -3.40069 -1.87843 0
M  V30 10104 H 936.051 -4.59161 0.443736 0
M  V30 10105 H 934.294 -4.31065 0.486313 0
M  V30 10106 H 934.965 -5.48119 -0.653459 0
M  V30 10107 H 937.441 -3.82494 -1.63821 0
M  V30 10108 H 936.317 -4.85429 -2.56222 0
M  V30 10109 H 936.578 -3.19028 -3.06062 0
M  V30 10110 N 935.637 0.236453 -1.55816 0
M  V30 10111 C 936.885 0.96111 -1.77784 0
M  V30 10112 C 937.206 1.85454 -0.602648 0
M  V30 10113 O 936.476 1.92157 0.381137 0
M  V30 10114 H 935.056 0.35787 -0.655697 0
M  V30 10115 H 937.718 0.251888 -1.93265 0
M  V30 10116 H 936.814 1.5767 -2.69345 0
M  V30 10117 N 937.115 1.49373 0.502552 0
M  V30 10118 C 938.363 1.58467 1.25429 0
M  V30 10119 C 938.684 0.272593 1.93085 0
M  V30 10120 O 937.954 -0.707947 1.82661 0
M  V30 10121 H 936.534 0.583866 0.46595 0
M  V30 10122 H 939.196 1.8599 0.582568 0
M  V30 10123 H 938.292 2.37993 2.01906 0
M  V30 10124 N 938.594 -0.753485 1.38421 0
M  V30 10125 C 939.84 -1.51485 1.34834 0
M  V30 10126 C 940.173 -1.94102 -0.0615381 0
M  V30 10127 O 939.448 -1.65439 -1.02274 0
M  V30 10128 C 939.731 -2.76736 2.30411 0
M  V30 10129 C 939.584 -2.40256 3.80259 0
M  V30 10130 C 940.903 -3.7876 2.24119 0
M  V30 10131 H 938.022 -0.549534 0.491102 0
M  V30 10132 H 940.664 -0.863006 1.6927 0
M  V30 10133 H 938.814 -3.32357 2.01175 0
M  V30 10134 H 940.486 -1.90409 4.20169 0
M  V30 10135 H 938.729 -1.72714 3.97935 0
M  V30 10136 H 939.4 -3.29869 4.42595 0
M  V30 10137 H 941.876 -3.32679 2.49928 0
M  V30 10138 H 940.752 -4.64092 2.93104 0
M  V30 10139 H 941.013 -4.24352 1.24006 0
M  V30 10140 N 940.072 -1.23292 -0.981677 0
M  V30 10141 C 941.318 -1.07588 -1.72616 0
M  V30 10142 C 941.673 0.383441 -1.8854 0
M  V30 10143 O 940.966 1.28006 -1.42566 0
M  V30 10144 C 941.16 -1.73339 -3.12551 0
M  V30 10145 C 940.989 -3.25514 -3.10275 0
M  V30 10146 C 939.759 -3.9467 -3.15537 0
M  V30 10147 C 941.957 -4.223 -2.93543 0
M  V30 10148 N 939.939 -5.33839 -3.03133 0
M  V30 10149 C 941.31 -5.48373 -2.89287 0
M  V30 10150 C 943.365 -4.1305 -2.78018 0
M  V30 10151 C 942.068 -6.66258 -2.71095 0
M  V30 10152 C 944.094 -5.30598 -2.6119 0
M  V30 10153 C 943.456 -6.55596 -2.57631 0
M  V30 10154 H 939.555 -0.448215 -0.640802 0
M  V30 10155 H 942.139 -1.56001 -1.16498 0
M  V30 10156 H 940.31 -1.2746 -3.6689 0
M  V30 10157 H 942.042 -1.50624 -3.75626 0
M  V30 10158 H 938.797 -3.45741 -3.23666 0
M  V30 10159 H 939.221 -6.06798 -3.00209 0
M  V30 10160 H 943.863 -3.17184 -2.7956 0
M  V30 10161 H 941.581 -7.62261 -2.68297 0
M  V30 10162 H 945.167 -5.25281 -2.50143 0
M  V30 10163 H 944.047 -7.45021 -2.44772 0
M  V30 10164 N 941.55 1.18024 -1.04442 0
M  V30 10165 C 942.796 1.88631 -0.760907 0
M  V30 10166 C 943.151 1.79059 0.703957 0
M  V30 10167 O 942.444 1.18261 1.50748 0
M  V30 10168 C 942.638 3.37834 -1.16631 0
M  V30 10169 C 942.467 3.61929 -2.66904 0
M  V30 10170 C 941.237 3.7908 -3.34105 0
M  V30 10171 C 943.435 3.622 -3.65124 0
M  V30 10172 N 941.417 3.90949 -4.73321 0
M  V30 10173 C 942.788 3.79827 -4.90032 0
M  V30 10174 C 944.843 3.45308 -3.58701 0
M  V30 10175 C 943.546 3.82312 -6.09287 0
M  V30 10176 C 945.572 3.49078 -4.77387 0
M  V30 10177 C 944.934 3.67206 -6.01115 0
M  V30 10178 H 941.033 0.708704 -0.330549 0
M  V30 10179 H 943.617 1.41739 -1.33485 0
M  V30 10180 H 941.788 3.83413 -0.6204 0
M  V30 10181 H 943.52 3.96026 -0.83342 0
M  V30 10182 H 940.275 3.78619 -2.84508 0
M  V30 10183 H 940.699 4.00696 -5.45685 0
M  V30 10184 H 945.341 3.30236 -2.64015 0
M  V30 10185 H 943.059 3.96171 -7.04325 0
M  V30 10186 H 946.645 3.37277 -4.74063 0
M  V30 10187 H 945.525 3.70017 -6.91417 0
M  V30 10188 N 943.028 0.824394 1.34319 0
M  V30 10189 C 944.275 0.413167 1.9824 0
M  V30 10190 C 944.603 -1.02412 1.65354 0
M  V30 10191 O 943.858 -1.72831 0.91803 0
M  V30 10192 C 944.157 0.564024 3.52921 0
M  V30 10193 C 943.823 1.96725 4.05722 0
M  V30 10194 C 942.485 2.35111 4.19853 0
M  V30 10195 C 944.837 2.88447 4.34106 0
M  V30 10196 C 942.165 3.64551 4.59695 0
M  V30 10197 C 944.517 4.17353 4.75394 0
M  V30 10198 C 943.181 4.55714 4.8773 0
M  V30 10199 H 942.451 0.151188 0.725412 0
M  V30 10200 H 945.098 1.04863 1.60238 0
M  V30 10201 H 943.403 -0.154816 3.91494 0
M  V30 10202 H 945.1 0.226347 4.00361 0
M  V30 10203 H 941.69 1.65908 3.95187 0
M  V30 10204 H 945.874 2.60034 4.22725 0
M  V30 10205 H 941.13 3.94097 4.67437 0
M  V30 10206 H 945.304 4.88512 4.96315 0
M  V30 10207 H 942.931 5.56064 5.1836 0
M  V30 10208 N 944.506 -1.46559 0.579492 0
M  V30 10209 C 945.753 -2.02399 0.0638418 0
M  V30 10210 C 946.081 -1.45135 -1.29484 0
M  V30 10211 O 945.336 -0.605061 -1.86112 0
M  V30 10212 C 945.635 -3.57357 -0.0552803 0
M  V30 10213 C 945.301 -4.33646 1.23539 0
M  V30 10214 C 943.963 -4.54207 1.589 0
M  V30 10215 C 946.315 -4.77476 2.08965 0
M  V30 10216 C 943.643 -5.1585 2.79492 0
M  V30 10217 C 945.995 -5.4045 3.2878 0
M  V30 10218 C 944.659 -5.5924 3.64427 0
M  V30 10219 H 943.929 -0.740632 0.0233614 0
M  V30 10220 H 946.576 -1.75968 0.755482 0
M  V30 10221 H 944.881 -3.82907 -0.83003 0
M  V30 10222 H 946.578 -3.98237 -0.469964 0
M  V30 10223 H 943.168 -4.17937 0.9501 0
M  V30 10224 H 947.352 -4.61349 1.8295 0
M  V30 10225 H 942.608 -5.28589 3.07252 0
M  V30 10226 H 946.782 -5.73371 3.95245 0
M  V30 10227 H 944.409 -6.06775 4.57961 0
M  V30 10228 N 945.984 -0.3171 -1.54377 0
M  V30 10229 C 947.212 0.289558 -2.04864 0
M  V30 10230 C 947.627 1.46284 -1.19359 0
M  V30 10231 O 946.984 1.81135 -0.222795 0
M  V30 10232 C 947.035 0.730273 -3.54047 0
M  V30 10233 O 946.756 -0.396325 -4.36304 0
M  V30 10234 C 948.257 1.40041 -4.20599 0
M  V30 10235 H 945.477 0.0605836 -0.668259 0
M  V30 10236 H 948.021 -0.461411 -1.99227 0
M  V30 10237 H 946.176 1.43123 -3.59992 0
M  V30 10238 H 946.59 -0.0502901 -5.24476 0
M  V30 10239 H 948.064 1.65979 -5.26455 0
M  V30 10240 H 948.541 2.34565 -3.71316 0
M  V30 10241 H 949.147 0.742206 -4.18774 0
M  V30 10242 N 947.462 1.57535 -0.0451378 0
M  V30 10243 C 948.392 2.14208 0.929372 0
M  V30 10244 C 949.373 1.06221 1.32858 0
M  V30 10245 O 950.558 1.34132 1.40436 0
M  V30 10246 C 947.688 2.68217 2.20629 0
M  V30 10247 C 946.642 3.81134 1.94734 0
M  V30 10248 C 945.968 4.21636 3.28828 0
M  V30 10249 C 947.268 5.06531 1.27374 0
M  V30 10250 H 948.962 2.95886 0.457348 0
M  V30 10251 H 946.508 1.42332 0.218544 0
M  V30 10252 H 948.461 3.06502 2.89196 0
M  V30 10253 H 947.185 1.83722 2.70026 0
M  V30 10254 H 945.844 3.43312 1.28579 0
M  V30 10255 H 945.492 3.34099 3.76014 0
M  V30 10256 H 945.192 4.97736 3.12302 0
M  V30 10257 H 946.716 4.62516 3.98637 0
M  V30 10258 H 948.13 5.423 1.85967 0
M  V30 10259 H 946.527 5.87735 1.21194 0
M  V30 10260 H 947.597 4.84261 0.248913 0
M  V30 10261 N 948.94 -0.228186 1.55939 0
M  V30 10262 C 950.189 -0.951563 1.77843 0
M  V30 10263 C 950.502 -1.85763 0.612501 0
M  V30 10264 O 951.708 -2.61916 0.715006 0
M  V30 10265 C 950.164 -1.74216 3.14923 0
M  V30 10266 C 949.772 -0.882569 4.39221 0
M  V30 10267 C 951.516 -2.45715 3.46156 0
M  V30 10268 C 949.423 -1.67014 5.67327 0
M  V30 10269 H 948.353 -0.359035 0.663031 0
M  V30 10270 H 951.004 -0.205636 1.82344 0
M  V30 10271 H 949.386 -2.53075 3.0458 0
M  V30 10272 H 950.56 -0.13499 4.60602 0
M  V30 10273 H 948.875 -0.280022 4.15457 0
M  V30 10274 H 951.472 -3.05127 4.39092 0
M  V30 10275 H 951.815 -3.1827 2.68346 0
M  V30 10276 H 952.348 -1.73852 3.57799 0
M  V30 10277 H 949.087 -0.987985 6.48012 0
M  V30 10278 H 948.607 -2.3925 5.50018 0
M  V30 10279 H 950.286 -2.23252 6.07262 0
M  V30 10280 N 950.418 -1.49637 -0.494624 0
M  V30 10281 C 951.667 -1.58691 -1.24499 0
M  V30 10282 C 951.98 -0.281763 -1.9356 0
M  V30 10283 O 953.186 -0.250925 -2.70338 0
M  V30 10284 C 951.642 -2.8002 -2.26091 0
M  V30 10285 C 951.25 -4.17318 -1.6294 0
M  V30 10286 C 952.994 -2.98407 -3.01916 0
M  V30 10287 C 950.901 -5.29862 -2.62679 0
M  V30 10288 H 949.831 -0.590888 -0.468367 0
M  V30 10289 H 952.482 -1.76034 -0.518112 0
M  V30 10290 H 950.864 -2.56185 -3.01969 0
M  V30 10291 H 952.038 -4.51315 -0.930108 0
M  V30 10292 H 950.353 -4.04342 -0.994819 0
M  V30 10293 H 952.95 -3.79658 -3.76516 0
M  V30 10294 H 953.293 -2.09214 -3.5991 0
M  V30 10295 H 953.826 -3.22312 -2.33152 0
M  V30 10296 H 950.565 -6.21134 -2.09458 0
M  V30 10297 H 950.085 -5.00311 -3.3083 0
M  V30 10298 H 951.764 -5.59461 -3.2498 0
M  V30 10299 N 951.896 0.746133 -1.38819 0
M  V30 10300 C 953.145 1.50085 -1.34749 0
M  V30 10301 C 953.458 1.95516 0.0574786 0
M  V30 10302 O 954.664 2.70601 0.22073 0
M  V30 10303 C 953.12 2.71141 -2.36665 0
M  V30 10304 C 952.728 2.32706 -3.82821 0
M  V30 10305 C 954.472 3.49005 -2.41652 0
M  V30 10306 C 952.379 3.50418 -4.76405 0
M  V30 10307 H 951.309 0.563563 -0.500912 0
M  V30 10308 H 953.96 0.814951 -1.6441 0
M  V30 10309 H 952.342 3.4175 -2.00058 0
M  V30 10310 H 953.516 1.69715 -4.28408 0
M  V30 10311 H 951.831 1.67959 -3.81023 0
M  V30 10312 H 954.428 4.36541 -3.08766 0
M  V30 10313 H 954.771 3.90687 -1.43769 0
M  V30 10314 H 955.304 2.85416 -2.77097 0
M  V30 10315 H 952.043 3.13795 -5.75511 0
M  V30 10316 H 951.563 4.12426 -4.35505 0
M  V30 10317 H 953.242 4.16901 -4.94775 0
M  V30 10318 N 953.375 1.23811 0.975125 0
M  V30 10319 C 954.6 1.10109 1.75757 0
M  V30 10320 C 955.025 -0.342922 1.84948 0
M  V30 10321 O 954.383 -1.24814 1.31496 0
M  V30 10322 C 954.431 1.73724 3.15994 0
M  V30 10323 O 953.535 1.00297 4.00018 0
M  V30 10324 H 952.876 0.385627 0.540544 0
M  V30 10325 H 955.406 1.63971 1.22372 0
M  V30 10326 H 955.416 1.79178 3.6655 0
M  V30 10327 H 954.091 2.78794 3.0862 0
M  V30 10328 H 952.668 1.02575 3.58515 0
M  V30 10329 N 954.853 -1.17469 1.05066 0
M  V30 10330 C 956.078 -1.92162 0.780298 0
M  V30 10331 C 956.503 -1.76222 -0.657832 0
M  V30 10332 O 955.861 -1.0791 -1.45688 0
M  V30 10333 C 955.909 -3.41292 1.16414 0
M  V30 10334 O 955.013 -4.1134 0.295531 0
M  V30 10335 H 954.354 -0.599127 0.286257 0
M  V30 10336 H 956.884 -1.48903 1.40318 0
M  V30 10337 H 956.894 -3.92029 1.13036 0
M  V30 10338 H 955.569 -3.52214 2.21175 0
M  V30 10339 H 954.146 -3.70857 0.389797 0
M  V30 10340 N 956.331 -0.831506 -1.3388 0
M  V30 10341 C 957.561 -0.436292 -2.01941 0
M  V30 10342 C 957.969 0.964979 -1.62741 0
M  V30 10343 O 957.312 1.63733 -0.832894 0
M  V30 10344 C 957.374 -0.468811 -3.5643 0
M  V30 10345 C 957.038 -1.82491 -4.18982 0
M  V30 10346 C 958.035 -2.78705 -4.38885 0
M  V30 10347 C 955.72 -2.11574 -4.55568 0
M  V30 10348 C 957.714 -4.02168 -4.94509 0
M  V30 10349 C 955.401 -3.35296 -5.10901 0
M  V30 10350 C 956.399 -4.3041 -5.30317 0
M  V30 10351 O 956.087 -5.51944 -5.84477 0
M  V30 10352 H 955.819 -0.172335 -0.653664 0
M  V30 10353 H 958.373 -1.12354 -1.71947 0
M  V30 10354 H 956.603 0.275179 -3.8572 0
M  V30 10355 H 958.292 -0.0924518 -4.05795 0
M  V30 10356 H 959.058 -2.57534 -4.10976 0
M  V30 10357 H 954.937 -1.38338 -4.39754 0
M  V30 10358 H 958.481 -4.76418 -5.09579 0
M  V30 10359 H 954.378 -3.56326 -5.3824 0
M  V30 10360 H 955.146 -5.53582 -6.029 0
M  V30 10361 N 957.809 1.4625 -0.587256 0
M  V30 10362 C 959.037 2.06744 -0.08033 0
M  V30 10363 C 959.452 1.43527 1.2266 0
M  V30 10364 O 958.809 0.542168 1.74261 0
M  V30 10365 C 958.86 3.61394 0.0873469 0
M  V30 10366 O 958.581 4.22247 -1.16785 0
M  V30 10367 C 960.082 4.38828 0.628095 0
M  V30 10368 H 957.302 0.668354 -0.0595301 0
M  V30 10369 H 959.846 1.87808 -0.809217 0
M  V30 10370 H 958.001 3.79742 0.766473 0
M  V30 10371 H 958.415 5.15176 -0.984565 0
M  V30 10372 H 959.889 5.47613 0.694583 0
M  V30 10373 H 960.366 4.07188 1.64606 0
M  V30 10374 H 960.972 4.25297 -0.0163115 0
M  V30 10375 N 959.287 0.325282 1.54207 0
M  V30 10376 C 960.25 -0.527228 2.23054 0
M  V30 10377 C 961.25 -1.04217 1.22456 0
M  V30 10378 O 962.44 -0.934325 1.47024 0
M  V30 10379 C 959.572 -1.7325 2.93594 0
M  V30 10380 H 960.765 0.0746423 2.99807 0
M  V30 10381 H 958.318 0.0763872 1.56113 0
M  V30 10382 H 959.053 -2.37356 2.20981 0
M  V30 10383 H 958.838 -1.37065 3.67363 0
M  V30 10384 H 960.328 -2.3376 3.46043 0
M  V30 10385 N 960.765 -1.57509 0.0534917 0
M  V30 10386 C 961.713 -2.12851 -0.937931 0
M  V30 10387 C 962.707 -1.06088 -1.32067 0
M  V30 10388 O 963.913 -1.24494 -1.30005 0
M  V30 10389 H 960.288 -0.680357 -0.320342 0
M  V30 10390 H 962.259 -2.95047 -0.446077 0
M  V30 10391 C 961.008 -2.69034 -2.20264 0
M  V30 10392 H 960.331 -3.50848 -1.91693 0
M  V30 10393 H 961.771 -3.11375 -2.87788 0
M  V30 10394 C 960.23 -1.62919 -2.94888 0
M  V30 10395 O 960.76 -1.04334 -3.87914 0
M  V30 10396 N 958.966 -1.34385 -2.57661 0
M  V30 10397 H 958.513 -1.82214 -1.82088 0
M  V30 10398 H 958.471 -0.636149 -3.07897 0
M  V30 10399 N 962.243 0.219913 -1.56058 0
M  V30 10400 C 963.173 1.27572 -1.9557 0
M  V30 10401 C 964.154 1.48801 -0.824148 0
M  V30 10402 O 965.339 1.60957 -1.08658 0
M  V30 10403 C 962.469 2.62517 -2.27381 0
M  V30 10404 C 961.423 2.55941 -3.43042 0
M  V30 10405 C 960.749 3.94931 -3.60463 0
M  V30 10406 C 962.049 2.10584 -4.77966 0
M  V30 10407 H 963.743 0.947482 -2.84013 0
M  V30 10408 H 961.289 0.454337 -1.36645 0
M  V30 10409 H 963.242 3.36538 -2.53615 0
M  V30 10410 H 961.966 2.97031 -1.35794 0
M  V30 10411 H 960.625 1.84377 -3.1686 0
M  V30 10412 H 960.273 4.26756 -2.66249 0
M  V30 10413 H 959.973 3.91413 -4.38258 0
M  V30 10414 H 961.497 4.70611 -3.89046 0
M  V30 10415 H 962.911 2.74349 -5.03394 0
M  V30 10416 H 961.308 2.18122 -5.59055 0
M  V30 10417 H 962.378 1.05818 -4.73213 0
M  V30 10418 N 963.721 1.49897 0.486681 0
M  V30 10419 C 964.684 1.67086 1.56891 0
M  V30 10420 C 965.684 0.54209 1.51387 0
M  V30 10421 O 966.874 0.80883 1.54284 0
M  V30 10422 C 964.006 1.68159 2.96539 0
M  V30 10423 H 965.199 2.63626 1.42974 0
M  V30 10424 H 962.752 1.39143 0.711954 0
M  V30 10425 H 963.487 0.732562 3.15918 0
M  V30 10426 H 963.272 2.50147 3.01942 0
M  V30 10427 H 964.762 1.83466 3.7514 0
M  V30 10428 N 965.199 -0.738761 1.39212 0
M  V30 10429 C 966.162 -1.83441 1.37412 0
M  V30 10430 C 967.162 -1.58484 0.271908 0
M  V30 10431 O 968.352 -1.65954 0.529609 0
M  V30 10432 C 965.484 -3.21167 1.143 0
M  V30 10433 H 966.677 -1.86441 2.34904 0
M  V30 10434 H 964.23 -0.942023 1.24722 0
M  V30 10435 H 964.965 -3.23829 0.174756 0
M  V30 10436 H 964.75 -3.40678 1.94116 0
M  V30 10437 H 966.24 -4.01231 1.15773 0
M  V30 10438 N 966.677 -1.24326 -0.968545 0
M  V30 10439 C 967.924 -1.08245 -1.71141 0
M  V30 10440 C 968.252 0.378842 -1.90775 0
M  V30 10441 O 967.507 1.29634 -1.46607 0
M  V30 10442 C 967.806 -1.76644 -3.10695 0
M  V30 10443 C 967.472 -3.26572 -3.10905 0
M  V30 10444 C 966.134 -3.67475 -3.10669 0
M  V30 10445 C 968.486 -4.22422 -3.05302 0
M  V30 10446 C 965.814 -5.02666 -3.02562 0
M  V30 10447 C 968.166 -5.57619 -2.98737 0
M  V30 10448 C 966.83 -5.9787 -2.9683 0
M  V30 10449 H 966.1 -0.396098 -0.626249 0
M  V30 10450 H 968.747 -1.54418 -1.13258 0
M  V30 10451 H 967.052 -1.22864 -3.72037 0
M  V30 10452 H 968.749 -1.61668 -3.66967 0
M  V30 10453 H 965.339 -2.94017 -3.11852 0
M  V30 10454 H 969.523 -3.91821 -3.04614 0
M  V30 10455 H 964.779 -5.3305 -2.99446 0
M  V30 10456 H 968.953 -6.31595 -2.93361 0
M  V30 10457 H 966.58 -7.02587 -2.90303 0
M  V30 10458 N 968.156 1.1691 -1.05688 0
M  V30 10459 C 969.086 2.23275 -0.683402 0
M  V30 10460 C 970.067 1.6704 0.321206 0
M  V30 10461 O 971.252 1.93191 0.197691 0
M  V30 10462 C 968.382 3.47244 -0.0626006 0
M  V30 10463 C 967.336 4.16333 -0.992513 0
M  V30 10464 C 966.662 5.34182 -0.23533 0
M  V30 10465 C 967.962 4.68002 -2.31886 0
M  V30 10466 H 969.656 2.54771 -1.57264 0
M  V30 10467 H 967.202 1.2246 -0.757606 0
M  V30 10468 H 969.155 4.20874 0.210503 0
M  V30 10469 H 967.879 3.1503 0.861616 0
M  V30 10470 H 966.538 3.44622 -1.25026 0
M  V30 10471 H 966.186 4.9822 0.69181 0
M  V30 10472 H 965.886 5.81346 -0.855002 0
M  V30 10473 H 967.41 6.10592 0.0303717 0
M  V30 10474 H 968.824 5.33244 -2.10531 0
M  V30 10475 H 967.221 5.25764 -2.89296 0
M  V30 10476 H 968.291 3.84541 -2.95391 0
M  V30 10477 N 969.634 0.838594 1.33437 0
M  V30 10478 C 970.862 0.447644 2.01999 0
M  V30 10479 C 971.277 -0.951053 1.63096 0
M  V30 10480 O 970.634 -1.61802 0.844169 0
M  V30 10481 C 970.685 0.558378 3.57162 0
M  V30 10482 O 970.406 1.90196 3.94661 0
M  V30 10483 C 971.907 0.164348 4.42995 0
M  V30 10484 H 969.127 0.177736 0.647032 0
M  V30 10485 H 971.671 1.13109 1.70372 0
M  V30 10486 H 969.826 -0.0771563 3.87323 0
M  V30 10487 H 970.24 1.88729 4.89369 0
M  V30 10488 H 971.714 0.292876 5.51222 0
M  V30 10489 H 972.191 -0.893713 4.30011 0
M  V30 10490 H 972.797 0.774306 4.18192 0
M  V30 10491 N 971.112 -1.45937 0.595003 0
M  V30 10492 C 972.358 -2.0262 0.0854317 0
M  V30 10493 C 972.691 -1.46402 -1.27594 0
M  V30 10494 O 971.966 -0.633823 -1.83883 0
M  V30 10495 C 972.249 -3.60085 0.0329075 0
M  V30 10496 C 972.102 -4.26663 1.42405 0
M  V30 10497 C 973.421 -4.35101 -0.661426 0
M  V30 10498 H 970.54 -0.736282 0.0325196 0
M  V30 10499 H 973.182 -1.73938 0.764563 0
M  V30 10500 H 971.332 -3.84652 -0.545439 0
M  V30 10501 H 973.004 -4.13321 2.04851 0
M  V30 10502 H 971.247 -3.85549 1.98833 0
M  V30 10503 H 971.918 -5.35497 1.33965 0
M  V30 10504 H 974.394 -4.15753 -0.169977 0
M  V30 10505 H 973.27 -5.44829 -0.667243 0
M  V30 10506 H 973.531 -4.07053 -1.72513 0
M  V30 10507 N 972.59 -0.333456 -1.54032 0
M  V30 10508 C 973.5 0.536674 -2.28379 0
M  V30 10509 C 974.516 1.12068 -1.33104 0
M  V30 10510 O 975.692 1.13853 -1.66131 0
M  V30 10511 C 972.757 1.67677 -3.03456 0
M  V30 10512 C 971.818 1.12357 -4.14336 0
M  V30 10513 C 971.051 2.20933 -4.85823 0
M  V30 10514 O 971.274 3.41466 -4.569 0
M  V30 10515 O 970.208 1.85795 -5.72507 0
M  V30 10516 H 974.034 -0.0674003 -3.03625 0
M  V30 10517 H 971.619 -0.098823 -1.49073 0
M  V30 10518 H 973.501 2.34032 -3.50438 0
M  V30 10519 H 972.176 2.26684 -2.31076 0
M  V30 10520 H 971.083 0.424827 -3.7168 0
M  V30 10521 H 972.416 0.578497 -4.88789 0
M  V30 10522 N 974.068 1.57479 -0.061844 0
M  V30 10523 C 975.484 1.56855 0.294753 0
M  V30 10524 C 975.684 1.07042 1.70717 0
M  V30 10525 O 974.74 0.731817 2.41662 0
M  V30 10526 C 976.053 3.00486 0.113484 0
M  V30 10527 C 977.601 3.1246 0.183778 0
M  V30 10528 C 978.076 4.5799 0.0309092 0
M  V30 10529 N 979.567 4.63119 0.0868393 0
M  V30 10530 C 980.302 5.734 -0.00717446 0
M  V30 10531 N 979.798 6.92628 -0.154144 0
M  V30 10532 N 981.591 5.62078 0.0491763 0
M  V30 10533 H 973.742 1.88176 -0.985058 0
M  V30 10534 H 976.005 0.867051 -0.383309 0
M  V30 10535 H 975.711 3.41004 -0.86075 0
M  V30 10536 H 975.585 3.67029 0.870023 0
M  V30 10537 H 977.972 2.71834 1.14849 0
M  V30 10538 H 978.053 2.48574 -0.603697 0
M  V30 10539 H 977.697 4.99303 -0.930526 0
M  V30 10540 H 977.627 5.19895 0.837664 0
M  V30 10541 H 980.118 3.77374 0.199245 0
M  V30 10542 H 980.431 7.72492 -0.218296 0
M  V30 10543 H 978.776 6.94742 -0.189372 0
M  V30 10544 H 981.967 4.67817 0.162626 0
M  V30 10545 H 982.14 6.47994 -0.0275478 0
M  V30 10546 N 975.546 -0.211634 1.56173 0
M  V30 10547 C 976.479 -1.28982 1.88252 0
M  V30 10548 C 977.457 -1.4474 0.740889 0
M  V30 10549 O 978.641 -1.60394 0.990249 0
M  V30 10550 C 975.768 -2.65879 2.09824 0
M  V30 10551 C 974.814 -2.67082 3.3252 0
M  V30 10552 S 975.647 -2.2016 4.8815 0
M  V30 10553 C 976.803 -3.58913 5.12769 0
M  V30 10554 H 977.036 -1.01578 2.79409 0
M  V30 10555 H 974.569 -0.414351 1.48736 0
M  V30 10556 H 976.527 -3.44688 2.22935 0
M  V30 10557 H 975.188 -2.90502 1.19447 0
M  V30 10558 H 974.381 -3.67703 3.44689 0
M  V30 10559 H 973.983 -1.96343 3.18317 0
M  V30 10560 H 976.275 -4.54671 5.02276 0
M  V30 10561 H 977.218 -3.51652 6.14611 0
M  V30 10562 H 977.626 -3.5306 4.40465 0
M  V30 10563 N 977.024 -1.50153 -0.478725 0
M  V30 10564 C 978.27 -1.60998 -1.23318 0
M  V30 10565 C 978.603 -0.305868 -1.91776 0
M  V30 10566 O 977.878 0.692158 -1.81767 0
M  V30 10567 C 978.161 -2.78495 -2.28282 0
M  V30 10568 C 978.014 -4.18767 -1.64178 0
M  V30 10569 C 979.333 -2.91569 -3.2966 0
M  V30 10570 H 976.452 -0.585983 -0.446982 0
M  V30 10571 H 979.094 -1.82514 -0.528063 0
M  V30 10572 H 977.244 -2.60281 -2.8842 0
M  V30 10573 H 978.916 -4.48552 -1.07696 0
M  V30 10574 H 977.159 -4.23379 -0.94514 0
M  V30 10575 H 977.83 -4.96894 -2.40417 0
M  V30 10576 H 980.306 -3.08219 -2.79536 0
M  V30 10577 H 979.182 -3.75419 -4.0044 0
M  V30 10578 H 979.443 -2.01859 -3.93326 0
M  V30 10579 N 978.502 0.731368 -1.39602 0
M  V30 10580 C 979.727 1.52567 -1.40492 0
M  V30 10581 C 980.152 1.881 -0.00228828 0
M  V30 10582 O 979.51 1.52167 0.985643 0
M  V30 10583 C 979.558 2.78749 -2.2876 0
M  V30 10584 O 978.662 3.7482 -1.71999 0
M  V30 10585 H 978.003 0.460601 -0.478271 0
M  V30 10586 H 980.533 0.902042 -1.83642 0
M  V30 10587 H 980.543 3.27446 -2.43399 0
M  V30 10588 H 979.218 2.5222 -3.30693 0
M  V30 10589 H 977.795 3.33604 -1.66622 0
M  V30 10590 N 979.98 1.24838 0.961938 0
M  V30 10591 C 981.391 1.08369 1.5203 0
M  V30 10592 C 981.742 -0.343005 1.93178 0
M  V30 10593 O 980.867 -1.2321 1.779 0
M  V30 10594 C 981.462 1.96102 2.76278 0
M  V30 10595 C 980.021 1.8384 3.28451 0
M  V30 10596 C 979.168 1.9069 2.01327 0
M  V30 10597 H 982.119 1.38231 0.779613 0
M  V30 10598 H 982.14 1.4967 3.49827 0
M  V30 10599 H 981.652 2.99931 2.46298 0
M  V30 10600 H 979.753 0.828653 3.63269 0
M  V30 10601 H 979.866 2.68251 3.96961 0
M  V30 10602 H 978.23 1.34488 2.16299 0
M  V30 10603 H 979.013 2.96111 1.73705 0
M  V30 10604 N 981.458 -1.16348 1.06306 0
M  V30 10605 C 982.707 -1.8622 0.774909 0
M  V30 10606 C 983.02 -1.82598 -0.701245 0
M  V30 10607 O 984.226 -2.48051 -1.10377 0
M  V30 10608 C 982.682 -3.34182 1.33604 0
M  V30 10609 C 982.29 -3.46279 2.84245 0
M  V30 10610 C 984.034 -4.09309 1.12544 0
M  V30 10611 C 981.941 -4.88327 3.33602 0
M  V30 10612 H 980.871 -0.697574 0.286194 0
M  V30 10613 H 983.522 -1.31311 1.28179 0
M  V30 10614 H 981.904 -3.88698 0.756937 0
M  V30 10615 H 983.078 -3.01923 3.48108 0
M  V30 10616 H 981.393 -2.84585 3.03974 0
M  V30 10617 H 983.99 -5.14123 1.46909 0
M  V30 10618 H 984.333 -4.16251 0.0638129 0
M  V30 10619 H 984.866 -3.61032 1.67034 0
M  V30 10620 H 981.605 -4.86565 4.39244 0
M  V30 10621 H 981.125 -5.33307 2.74487 0
M  V30 10622 H 982.804 -5.57144 3.28937 0
M  V30 10623 N 982.937 -0.845659 -1.3299 0
M  V30 10624 C 983.847 -0.2864 -2.32845 0
M  V30 10625 C 984.863 0.591105 -1.63652 0
M  V30 10626 O 986.039 0.493615 -1.95257 0
M  V30 10627 C 983.104 0.523636 -3.42723 0
M  V30 10628 C 982.165 -0.378945 -4.27624 0
M  V30 10629 C 981.398 0.392526 -5.32255 0
M  V30 10630 O 981.621 1.6235 -5.46808 0
M  V30 10631 O 980.555 -0.237 -6.01433 0
M  V30 10632 H 984.381 -1.11346 -2.82552 0
M  V30 10633 H 981.966 -0.608356 -1.36453 0
M  V30 10634 H 983.848 0.983718 -4.09757 0
M  V30 10635 H 982.523 1.32764 -2.95221 0
M  V30 10636 H 981.43 -0.887012 -3.63432 0
M  V30 10637 H 982.763 -1.1479 -4.78627 0
M  V30 10638 N 984.415 1.45619 -0.602734 0
M  V30 10639 C 985.64 2.07157 -0.100429 0
M  V30 10640 C 986.065 1.44524 1.20393 0
M  V30 10641 O 985.423 0.536191 1.7319 0
M  V30 10642 C 985.471 3.60587 0.0308604 0
M  V30 10643 O 984.575 3.97944 1.08234 0
M  V30 10644 H 983.916 0.6601 -0.0718643 0
M  V30 10645 H 986.446 1.86948 -0.831366 0
M  V30 10646 H 986.456 4.07348 0.230634 0
M  V30 10647 H 985.131 4.05561 -0.921581 0
M  V30 10648 H 983.708 3.62862 0.859414 0
M  V30 10649 N 985.893 0.34162 1.53853 0
M  V30 10650 C 986.856 -0.503541 2.236 0
M  V30 10651 C 987.856 -1.02912 1.23554 0
M  V30 10652 O 989.046 -0.918678 1.48007 0
M  V30 10653 C 986.178 -1.70126 2.95415 0
M  V30 10654 H 987.371 0.106437 2.99711 0
M  V30 10655 H 984.924 0.0929408 1.56023 0
M  V30 10656 H 985.659 -2.34999 2.23486 0
M  V30 10657 H 985.444 -1.33161 3.68796 0
M  V30 10658 H 986.934 -2.30077 3.48503 0
M  V30 10659 N 987.371 -1.57444 0.0701946 0
M  V30 10660 C 988.281 -2.16132 -0.912377 0
M  V30 10661 C 989.297 -1.12406 -1.32819 0
M  V30 10662 O 990.473 -1.44665 -1.40121 0
M  V30 10663 C 987.538 -2.71008 -2.16231 0
M  V30 10664 C 986.599 -3.896 -1.80306 0
M  V30 10665 C 985.832 -4.4185 -2.9934 0
M  V30 10666 O 986.055 -3.93106 -4.13309 0
M  V30 10667 O 984.989 -5.33201 -2.7925 0
M  V30 10668 H 988.815 -3.00449 -0.443167 0
M  V30 10669 H 986.4 -1.48617 -0.152786 0
M  V30 10670 H 988.282 -3.06186 -2.8953 0
M  V30 10671 H 986.957 -1.8975 -2.62253 0
M  V30 10672 H 985.864 -3.59277 -1.04264 0
M  V30 10673 H 987.197 -4.72145 -1.39068 0
M  V30 10674 N 988.849 0.203349 -1.56283 0
M  V30 10675 C 990.126 0.950415 -1.70958 0
M  V30 10676 C 990.506 2.01708 -0.622647 0
M  V30 10677 O 989.854 2.25523 0.367635 0
M  V30 10678 C 990.064 1.54434 -3.12971 0
M  V30 10679 C 991.412 2.02964 -3.72949 0
M  V30 10680 O 992.436 1.64293 -3.16048 0
M  V30 10681 O 991.295 2.74097 -4.72793 0
M  V30 10682 H 988.389 0.445154 -0.69697 0
M  V30 10683 H 990.935 0.193695 -1.68591 0
M  V30 10684 H 989.707 0.77505 -3.83547 0
M  V30 10685 H 989.33 2.36611 -3.19532 0
M  V30 10686 N 990.327 1.50405 0.470755 0
M  V30 10687 C 991.257 1.72222 1.57676 0
M  V30 10688 C 992.238 0.57121 1.60222 0
M  V30 10689 O 993.423 0.810381 1.76484 0
M  V30 10690 C 990.553 1.81666 2.95998 0
M  V30 10691 C 989.507 2.96857 3.08318 0
M  V30 10692 C 988.833 2.91445 4.4829 0
M  V30 10693 C 990.133 4.37361 2.85504 0
M  V30 10694 H 991.827 2.64825 1.39671 0
M  V30 10695 H 989.373 1.27438 0.67049 0
M  V30 10696 H 991.326 1.95514 3.73299 0
M  V30 10697 H 990.05 0.856856 3.1516 0
M  V30 10698 H 988.709 2.82661 2.33449 0
M  V30 10699 H 988.357 1.93309 4.64371 0
M  V30 10700 H 988.057 3.68776 4.57469 0
M  V30 10701 H 989.581 3.07341 5.27611 0
M  V30 10702 H 990.995 4.52081 3.52555 0
M  V30 10703 H 989.392 5.16145 3.06127 0
M  V30 10704 H 990.462 4.49708 1.81359 0
M  V30 10705 N 991.805 -0.723954 1.39988 0
M  V30 10706 C 992.768 -1.81973 1.3935 0
M  V30 10707 C 993.768 -1.58187 0.288702 0
M  V30 10708 O 994.958 -1.65383 0.547181 0
M  V30 10709 C 992.09 -3.19937 1.177 0
M  V30 10710 H 993.283 -1.83939 2.36868 0
M  V30 10711 H 990.836 -0.928742 1.25714 0
M  V30 10712 H 991.571 -3.23625 0.209093 0
M  V30 10713 H 991.356 -3.386 1.97719 0
M  V30 10714 H 992.846 -3.99981 1.20022 0
M  V30 10715 N 993.283 -1.25346 -0.955304 0
M  V30 10716 C 994.23 -1.05672 -2.05188 0
M  V30 10717 C 995.2 0.0339217 -1.66065 0
M  V30 10718 O 996.385 -0.123126 -1.90402 0
M  V30 10719 C 993.525 -0.680791 -3.38318 0
M  V30 10720 C 992.638 -1.84622 -3.90562 0
M  V30 10721 C 991.773 -1.41471 -5.12015 0
M  V30 10722 C 990.812 -2.54931 -5.56486 0
M  V30 10723 N 989.949 -2.1256 -6.69151 0
M  V30 10724 H 994.789 -1.9952 -2.2135 0
M  V30 10725 H 992.326 -0.993588 -1.08472 0
M  V30 10726 H 994.284 -0.443794 -4.14833 0
M  V30 10727 H 992.914 0.2207 -3.22045 0
M  V30 10728 H 991.966 -2.19654 -3.10574 0
M  V30 10729 H 993.278 -2.6983 -4.19515 0
M  V30 10730 H 992.432 -1.13732 -5.95945 0
M  V30 10731 H 991.171 -0.533334 -4.84775 0
M  V30 10732 H 990.176 -2.83415 -4.71122 0
M  V30 10733 H 991.401 -3.43645 -5.85734 0
M  V30 10734 H 989.347 -1.26838 -6.43621 0
M  V30 10735 H 989.264 -2.91317 -6.97618 0
M  V30 10736 H 990.532 -1.87996 -7.5649 0
M  V30 10737 N 994.761 1.15782 -1.06922 0
M  V30 10738 C 995.693 2.19978 -0.643604 0
M  V30 10739 C 996.706 1.59981 0.301653 0
M  V30 10740 O 997.895 1.78265 0.0916508 0
M  V30 10741 C 994.995 3.38815 0.0757973 0
M  V30 10742 C 994.168 4.28363 -0.884545 0
M  V30 10743 C 993.227 5.25807 -0.203233 0
M  V30 10744 O 992.253 5.62924 -0.842904 0
M  V30 10745 N 993.455 5.70874 1.05279 0
M  V30 10746 H 996.22 2.57112 -1.53992 0
M  V30 10747 H 993.781 1.30855 -0.953344 0
M  V30 10748 H 995.773 4.01052 0.542151 0
M  V30 10749 H 994.343 3.00133 0.874 0
M  V30 10750 H 993.563 3.63292 -1.53012 0
M  V30 10751 H 994.851 4.85067 -1.53581 0
M  V30 10752 H 994.249 5.42822 1.5925 0
M  V30 10753 H 992.806 6.35171 1.46289 0
M  V30 10754 N 996.239 0.8527 1.3254 0
M  V30 10755 C 997.467 0.469044 2.01513 0
M  V30 10756 C 997.882 -0.933701 1.64096 0
M  V30 10757 O 997.239 -1.60898 0.861283 0
M  V30 10758 C 997.29 0.596228 3.56549 0
M  V30 10759 O 997.011 1.94371 3.92621 0
M  V30 10760 C 998.512 0.211324 4.42796 0
M  V30 10761 H 995.732 0.184589 0.645111 0
M  V30 10762 H 998.276 1.1491 1.69163 0
M  V30 10763 H 996.431 -0.0360712 3.87383 0
M  V30 10764 H 996.845 1.93909 4.87339 0
M  V30 10765 H 998.319 0.351324 5.50881 0
M  V30 10766 H 998.796 -0.848055 4.30935 0
M  V30 10767 H 999.402 0.818617 4.17347 0
M  V30 10768 N 997.718 -1.45297 0.610449 0
M  V30 10769 C 998.628 -2.34349 -0.108475 0
M  V30 10770 C 999.644 -1.51409 -0.857397 0
M  V30 10771 O 1000.82 -1.84202 -0.814337 0
M  V30 10772 C 997.885 -3.29072 -1.09144 0
M  V30 10773 C 996.946 -4.27918 -0.344165 0
M  V30 10774 C 996.179 -5.18116 -1.28031 0
M  V30 10775 O 996.402 -5.11802 -2.51824 0
M  V30 10776 O 995.336 -5.96879 -0.775821 0
M  V30 10777 H 999.162 -2.97232 0.623421 0
M  V30 10778 H 996.747 -1.44728 0.3707 0
M  V30 10779 H 998.629 -3.87433 -1.65751 0
M  V30 10780 H 997.304 -2.68749 -1.80431 0
M  V30 10781 H 996.211 -3.73164 0.264437 0
M  V30 10782 H 997.544 -4.91104 0.328275 0
M  V30 10783 N 999.196 -0.349774 -1.5367 0
M  V30 10784 C 1000.44 0.245862 -2.00196 0
M  V30 10785 C 1000.76 1.51154 -1.24144 0
M  V30 10786 O 1001.96 2.18481 -1.61178 0
M  V30 10787 C 1000.42 0.488665 -3.56567 0
M  V30 10788 C 1000.03 -0.761475 -4.41481 0
M  V30 10789 C 1001.77 1.04282 -4.11492 0
M  V30 10790 C 999.679 -0.489128 -5.89374 0
M  V30 10791 H 998.609 0.0956493 -0.747909 0
M  V30 10792 H 1001.26 -0.466068 -1.77483 0
M  V30 10793 H 999.642 1.26145 -3.75371 0
M  V30 10794 H 1000.82 -1.53585 -4.34452 0
M  V30 10795 H 999.131 -1.23771 -3.9758 0
M  V30 10796 H 1001.73 1.26164 -5.19603 0
M  V30 10797 H 1002.07 2.00023 -3.65098 0
M  V30 10798 H 1002.6 0.330582 -3.96424 0
M  V30 10799 H 999.343 -1.41643 -6.40014 0
M  V30 10800 H 998.863 0.247039 -5.99291 0
M  V30 10801 H 1000.54 -0.1087 -6.46909 0
M  V30 10802 N 1000.67 1.57404 -0.0785433 0
M  V30 10803 C 1001.64 2.11977 0.871693 0
M  V30 10804 C 1002.64 1.04529 1.2219 0
M  V30 10805 O 1003.83 1.30488 1.15406 0
M  V30 10806 C 1000.96 2.6267 2.17296 0
M  V30 10807 H 1002.15 2.97246 0.398115 0
M  V30 10808 H 999.705 1.5537 0.170251 0
M  V30 10809 H 1000.44 1.80873 2.69175 0
M  V30 10810 H 1000.22 3.41214 1.93171 0
M  V30 10811 H 1001.71 3.04943 2.85306 0
M  V30 10812 N 1002.15 -0.195058 1.56388 0
M  V30 10813 C 1003.38 -0.930291 1.8447 0
M  V30 10814 C 1003.79 -1.77356 0.658901 0
M  V30 10815 O 1003.13 -1.79691 -0.381664 0
M  V30 10816 C 1003.19 -1.87626 3.06654 0
M  V30 10817 C 1002.86 -1.21494 4.40555 0
M  V30 10818 C 1003.86 -0.591847 5.1652 0
M  V30 10819 C 1001.54 -1.21878 4.8729 0
M  V30 10820 C 1003.53 0.0185743 6.37397 0
M  V30 10821 C 1001.22 -0.604524 6.08103 0
M  V30 10822 C 1002.22 0.0130731 6.82999 0
M  V30 10823 O 1001.91 0.617703 8.01523 0
M  V30 10824 H 1001.64 -0.276933 0.616672 0
M  V30 10825 H 1004.19 -0.207277 2.04351 0
M  V30 10826 H 1002.42 -2.63897 2.82658 0
M  V30 10827 H 1004.11 -2.47929 3.21382 0
M  V30 10828 H 1004.88 -0.581018 4.81507 0
M  V30 10829 H 1000.76 -1.68888 4.2895 0
M  V30 10830 H 1004.3 0.50124 6.95797 0
M  V30 10831 H 1000.2 -0.612855 6.42584 0
M  V30 10832 H 1000.97 0.514612 8.16881 0
M  V30 10833 N 1003.63 -1.50653 -0.462772 0
M  V30 10834 C 1004.88 -1.61737 -1.21184 0
M  V30 10835 C 1005.2 -0.32369 -1.92295 0
M  V30 10836 O 1004.47 0.659269 -1.84473 0
M  V30 10837 H 1003.05 -0.596015 -0.450306 0
M  V30 10838 H 1005.71 -1.87469 -0.533051 0
M  V30 10839 H 1004.81 -2.43262 -1.95525 0
M  V30 10840 N 1005.11 0.71652 -1.4037 0
M  V30 10841 C 1006.34 1.50563 -1.4191 0
M  V30 10842 C 1006.75 1.88791 -0.0185456 0
M  V30 10843 O 1006.11 1.55378 0.957289 0
M  V30 10844 C 1006.16 2.78155 -2.30894 0
M  V30 10845 O 1005.88 2.41543 -3.65497 0
M  V30 10846 C 1007.38 3.72057 -2.41016 0
M  V30 10847 H 1004.6 0.464679 -0.48406 0
M  V30 10848 H 1007.15 0.883927 -1.8441 0
M  V30 10849 H 1005.3 3.36611 -1.91759 0
M  V30 10850 H 1005.71 3.23636 -4.12747 0
M  V30 10851 H 1007.19 4.58426 -3.07489 0
M  V30 10852 H 1007.67 4.15098 -1.43492 0
M  V30 10853 H 1008.27 3.19512 -2.80699 0
M  V30 10854 N 1006.59 1.25851 0.948643 0
M  V30 10855 C 1007.52 1.09248 2.06367 0
M  V30 10856 C 1008.5 -0.000205168 1.701 0
M  V30 10857 O 1009.68 0.170442 1.93451 0
M  V30 10858 C 1006.81 0.716777 3.39823 0
M  V30 10859 C 1005.77 1.76036 3.90122 0
M  V30 10860 C 1005.09 1.23918 5.20143 0
M  V30 10861 C 1006.39 3.16039 4.15833 0
M  V30 10862 H 1008.09 2.02518 2.20515 0
M  V30 10863 H 1005.63 0.975093 1.05962 0
M  V30 10864 H 1007.59 0.587531 4.17284 0
M  V30 10865 H 1006.31 -0.251626 3.25629 0
M  V30 10866 H 1004.97 1.87815 3.14835 0
M  V30 10867 H 1004.62 0.260836 5.02323 0
M  V30 10868 H 1004.32 1.93673 5.54765 0
M  V30 10869 H 1005.84 1.12245 6.00194 0
M  V30 10870 H 1007.25 3.0738 4.83933 0
M  V30 10871 H 1005.65 3.83317 4.61723 0
M  V30 10872 H 1006.72 3.62652 3.21887 0
M  V30 10873 N 1008.06 -1.15214 1.07534 0
M  V30 10874 C 1009.34 -1.82155 0.71267 0
M  V30 10875 C 1009.72 -1.95163 -0.804655 0
M  V30 10876 O 1009.07 -1.50451 -1.71979 0
M  V30 10877 C 1009.28 -3.18392 1.42925 0
M  V30 10878 C 1010.63 -3.94005 1.58256 0
M  V30 10879 O 1011.65 -3.27952 1.39018 0
M  V30 10880 O 1010.51 -5.12436 1.89925 0
M  V30 10881 H 1007.6 -0.78709 0.253808 0
M  V30 10882 H 1010.15 -1.22309 1.17638 0
M  V30 10883 H 1008.92 -3.04034 2.46331 0
M  V30 10884 H 1008.55 -3.85925 0.956439 0
M  V30 10885 N 1009.54 -0.859717 -1.32086 0
M  V30 10886 C 1010.77 -0.478865 -2.01796 0
M  V30 10887 C 1011.19 0.918274 -1.64163 0
M  V30 10888 O 1010.55 1.60409 -0.844896 0
M  V30 10889 C 1010.6 -0.631356 -3.5503 0
M  V30 10890 O 1009.7 0.333712 -4.11048 0
M  V30 10891 H 1009.04 -0.191775 -0.635703 0
M  V30 10892 H 1011.57 -1.16031 -1.68517 0
M  V30 10893 H 1011.58 -0.520783 -4.04663 0
M  V30 10894 H 1010.26 -1.65015 -3.81763 0
M  V30 10895 H 1008.84 0.178953 -3.7247 0
M  V30 10896 N 1011.02 1.44971 -0.618145 0
M  V30 10897 C 1012.27 2.0176 -0.11725 0
M  V30 10898 C 1012.59 1.48773 1.26062 0
M  V30 10899 O 1011.86 0.686152 1.83491 0
M  V30 10900 H 1010.44 0.745909 -0.0403545 0
M  V30 10901 H 1013.1 1.77638 -0.801923 0
M  V30 10902 H 1012.2 3.1201 -0.0750477 0
M  V30 10903 N 1012.5 0.357919 1.53482 0
M  V30 10904 C 1013.72 -0.237769 2.06033 0
M  V30 10905 C 1014.15 -1.42292 1.23023 0
M  V30 10906 O 1013.51 -1.79604 0.247427 0
M  V30 10907 C 1013.55 -0.616806 3.55286 0
M  V30 10908 O 1012.66 -1.71503 3.75047 0
M  V30 10909 H 1012 -0.0364322 0.663 0
M  V30 10910 H 1014.53 0.516301 1.97979 0
M  V30 10911 H 1014.54 -0.88996 3.98175 0
M  V30 10912 H 1013.21 0.249825 4.15149 0
M  V30 10913 H 1011.79 -1.43803 3.44057 0
M  V30 10914 N 1013.98 -1.5736 0.0868897 0
M  V30 10915 C 1015.2 -1.98388 -0.587349 0
M  V30 10916 C 1015.62 -0.965757 -1.6223 0
M  V30 10917 O 1014.98 0.0456981 -1.82443 0
M  V30 10918 C 1015.03 -3.39479 -1.24242 0
M  V30 10919 O 1014.75 -4.37393 -0.248878 0
M  V30 10920 C 1016.25 -3.95465 -2.00305 0
M  V30 10921 H 1013.47 -0.652111 -0.15809 0
M  V30 10922 H 1016.01 -2.03843 0.163754 0
M  V30 10923 H 1014.17 -3.35063 -1.94451 0
M  V30 10924 H 1014.58 -5.19525 -0.720678 0
M  V30 10925 H 1016.06 -4.96363 -2.41511 0
M  V30 10926 H 1016.53 -3.32832 -2.86565 0
M  V30 10927 H 1017.14 -4.03328 -1.34931 0
M  V30 10928 N 1015.45 0.186762 -1.56489 0
M  V30 10929 C 1016.4 1.23141 -1.95205 0
M  V30 10930 C 1017.37 1.44799 -0.81378 0
M  V30 10931 O 1018.56 1.57795 -1.07263 0
M  V30 10932 C 1015.7 2.56926 -2.30397 0
M  V30 10933 C 1014.81 2.42777 -3.57328 0
M  V30 10934 C 1013.94 3.69323 -3.81804 0
M  V30 10935 C 1012.98 3.50041 -5.02133 0
M  V30 10936 N 1012.12 4.68619 -5.2282 0
M  V30 10937 H 1016.96 0.894256 -2.84266 0
M  V30 10938 H 1014.5 0.430187 -1.40669 0
M  V30 10939 H 1016.46 3.3488 -2.4882 0
M  V30 10940 H 1015.09 2.88668 -1.44466 0
M  V30 10941 H 1014.14 1.56078 -3.46906 0
M  V30 10942 H 1015.45 2.24468 -4.45439 0
M  V30 10943 H 1014.6 4.55715 -4.00511 0
M  V30 10944 H 1013.34 3.90595 -2.92039 0
M  V30 10945 H 1012.35 2.62034 -4.8334 0
M  V30 10946 H 1013.57 3.30206 -5.93414 0
M  V30 10947 H 1011.52 4.90139 -4.36005 0
M  V30 10948 H 1011.44 4.53165 -6.05126 0
M  V30 10949 H 1012.7 5.56338 -5.45993 0
M  V30 10950 N 1016.93 1.50896 0.454776 0
M  V30 10951 C 1017.84 1.73762 1.5762 0
M  V30 10952 C 1018.86 0.621206 1.62533 0
M  V30 10953 O 1020.03 0.901449 1.801 0
M  V30 10954 C 1017.1 1.84183 2.9373 0
M  V30 10955 C 1016.16 3.07982 2.99075 0
M  V30 10956 C 1015.39 3.17896 4.28693 0
M  V30 10957 O 1015.62 2.34184 5.20109 0
M  V30 10958 O 1014.55 4.10749 4.39964 0
M  V30 10959 H 1018.38 2.68856 1.41245 0
M  V30 10960 H 1015.96 1.35187 0.635984 0
M  V30 10961 H 1017.84 1.93123 3.74542 0
M  V30 10962 H 1016.52 0.922742 3.10269 0
M  V30 10963 H 1015.43 3.04531 2.17282 0
M  V30 10964 H 1016.76 3.99523 2.87476 0
M  V30 10965 N 1018.41 -0.709066 1.40748 0
M  V30 10966 C 1019.66 -1.46901 1.39378 0
M  V30 10967 C 1019.99 -1.945 -0.0016993 0
M  V30 10968 O 1019.24 -1.68963 -0.987426 0
M  V30 10969 C 1019.54 -2.70543 2.33541 0
M  V30 10970 C 1019.21 -2.41674 3.80663 0
M  V30 10971 C 1017.87 -2.33511 4.20745 0
M  V30 10972 C 1020.22 -2.1759 4.73607 0
M  V30 10973 C 1017.55 -1.99342 5.51797 0
M  V30 10974 C 1019.9 -1.84933 6.04965 0
M  V30 10975 C 1018.56 -1.75256 6.44082 0
M  V30 10976 H 1017.83 -0.537549 0.510021 0
M  V30 10977 H 1020.48 -0.811635 1.7345 0
M  V30 10978 H 1018.79 -3.41149 1.92677 0
M  V30 10979 H 1020.48 -3.2865 2.29761 0
M  V30 10980 H 1017.07 -2.48917 3.4891 0
M  V30 10981 H 1021.26 -2.22849 4.43454 0
M  V30 10982 H 1016.51 -1.90392 5.81 0
M  V30 10983 H 1020.69 -1.65313 6.76494 0
M  V30 10984 H 1018.31 -1.48547 7.45545 0
M  V30 10985 N 1019.89 -1.26353 -0.941956 0
M  V30 10986 C 1021.14 -1.11851 -1.68806 0
M  V30 10987 C 1021.46 0.33829 -1.91535 0
M  V30 10988 O 1020.72 1.26495 -1.49324 0
M  V30 10989 C 1021.02 -1.83195 -3.06879 0
M  V30 10990 C 1020.68 -3.33093 -3.03908 0
M  V30 10991 C 1019.35 -3.73982 -3.02805 0
M  V30 10992 C 1021.7 -4.28803 -2.96273 0
M  V30 10993 C 1019.03 -5.08971 -2.91832 0
M  V30 10994 C 1021.38 -5.6383 -2.86842 0
M  V30 10995 C 1020.04 -6.04032 -2.84081 0
M  V30 10996 H 1019.31 -0.409293 -0.617706 0
M  V30 10997 H 1021.96 -1.56785 -1.09957 0
M  V30 10998 H 1020.26 -1.30728 -3.69347 0
M  V30 10999 H 1021.96 -1.69416 -3.63455 0
M  V30 11000 H 1018.55 -3.00566 -3.05546 0
M  V30 11001 H 1022.74 -3.98195 -2.96234 0
M  V30 11002 H 1017.99 -5.39282 -2.88072 0
M  V30 11003 H 1022.17 -6.37676 -2.79898 0
M  V30 11004 H 1019.79 -7.08586 -2.75335 0
M  V30 11005 N 1021.37 1.14642 -1.08144 0
M  V30 11006 C 1022.78 1.37604 -0.808537 0
M  V30 11007 C 1022.98 1.92868 0.583452 0
M  V30 11008 O 1022.04 2.13964 1.34073 0
M  V30 11009 C 1023.35 2.3396 -1.889 0
M  V30 11010 C 1024.9 2.47605 -1.9147 0
M  V30 11011 C 1025.38 3.47258 -2.98623 0
M  V30 11012 N 1026.87 3.548 -2.97777 0
M  V30 11013 C 1027.6 4.31751 -3.77331 0
M  V30 11014 N 1027.1 5.11966 -4.66757 0
M  V30 11015 N 1028.89 4.2692 -3.65645 0
M  V30 11016 H 1021.04 0.771154 -1.97906 0
M  V30 11017 H 1023.3 0.401694 -0.858688 0
M  V30 11018 H 1023.01 2.00484 -2.88962 0
M  V30 11019 H 1022.88 3.33833 -1.756 0
M  V30 11020 H 1025.27 2.80375 -0.920548 0
M  V30 11021 H 1025.35 1.47702 -2.08848 0
M  V30 11022 H 1025 3.15223 -3.98243 0
M  V30 11023 H 1024.93 4.46935 -2.7849 0
M  V30 11024 H 1027.42 2.97553 -2.3296 0
M  V30 11025 H 1027.73 5.67951 -5.24072 0
M  V30 11026 H 1026.08 5.11245 -4.70801 0
M  V30 11027 H 1029.27 3.63322 -2.95152 0
M  V30 11028 H 1029.44 4.8664 -4.27885 0
M  V30 11029 N 1022.85 0.866709 1.31628 0
M  V30 11030 C 1024.26 0.558188 1.49521 0
M  V30 11031 C 1024.46 -0.90844 1.7986 0
M  V30 11032 O 1023.52 -1.6908 1.87531 0
M  V30 11033 C 1024.83 1.45559 2.63122 0
M  V30 11034 C 1026.38 1.45728 2.77006 0
M  V30 11035 C 1026.85 2.34017 3.937 0
M  V30 11036 N 1028.34 2.31879 4.00982 0
M  V30 11037 C 1029.08 2.96915 4.90539 0
M  V30 11038 N 1028.58 3.71109 5.85021 0
M  V30 11039 N 1030.37 2.86241 4.83759 0
M  V30 11040 H 1022.52 1.81574 1.10203 0
M  V30 11041 H 1024.78 0.77621 0.544244 0
M  V30 11042 H 1024.49 2.49904 2.47469 0
M  V30 11043 H 1024.36 1.15174 3.59186 0
M  V30 11044 H 1026.75 0.421419 2.92075 0
M  V30 11045 H 1026.83 1.80134 1.81619 0
M  V30 11046 H 1026.47 3.37678 3.79389 0
M  V30 11047 H 1026.4 1.96937 4.88388 0
M  V30 11048 H 1028.9 1.77948 3.33381 0
M  V30 11049 H 1029.21 4.1787 6.5008 0
M  V30 11050 H 1027.55 3.75217 5.8501 0
M  V30 11051 H 1030.74 2.27819 4.08921 0
M  V30 11052 H 1030.92 3.37206 5.5335 0
M  V30 11053 N 1024.32 -1.44642 0.625825 0
M  V30 11054 C 1025.55 -2.06971 0.133373 0
M  V30 11055 C 1025.97 -1.46421 -1.18078 0
M  V30 11056 O 1025.33 -0.563676 -1.72315 0
M  V30 11057 C 1025.38 -3.6059 0.0265097 0
M  V30 11058 O 1024.48 -3.99615 -1.01889 0
M  V30 11059 H 1023.82 -0.658873 0.0823568 0
M  V30 11060 H 1026.35 -1.85601 0.861002 0
M  V30 11061 H 1026.36 -4.07663 -0.1658 0
M  V30 11062 H 1025.04 -4.04043 0.985986 0
M  V30 11063 H 1023.62 -3.64183 -0.801577 0
M  V30 11064 N 1025.8 -0.366053 -1.5329 0
M  V30 11065 C 1026.75 0.480205 -2.25749 0
M  V30 11066 C 1027.72 1.07713 -1.2644 0
M  V30 11067 O 1028.9 1.10953 -1.55222 0
M  V30 11068 C 1026.04 1.61374 -3.05045 0
M  V30 11069 C 1025.16 1.04194 -4.19246 0
M  V30 11070 C 1024.29 2.14462 -4.85983 0
M  V30 11071 C 1023.33 1.5475 -5.92215 0
M  V30 11072 N 1022.47 2.58852 -6.52641 0
M  V30 11073 H 1027.31 -0.144199 -2.97651 0
M  V30 11074 H 1024.84 -0.0829321 -1.46866 0
M  V30 11075 H 1026.8 2.28144 -3.49294 0
M  V30 11076 H 1025.43 2.2088 -2.35397 0
M  V30 11077 H 1024.48 0.264514 -3.79479 0
M  V30 11078 H 1025.8 0.565379 -4.95585 0
M  V30 11079 H 1024.95 2.89051 -5.33418 0
M  V30 11080 H 1023.69 2.6547 -4.09117 0
M  V30 11081 H 1022.69 0.786759 -5.44142 0
M  V30 11082 H 1023.92 1.04566 -6.71001 0
M  V30 11083 H 1021.87 3.09073 -5.78627 0
M  V30 11084 H 1021.78 2.15884 -7.24521 0
M  V30 11085 H 1023.05 3.33142 -7.04724 0
M  V30 11086 N 1027.28 1.57312 -0.0952337 0
M  V30 11087 C 1028.53 1.93533 0.568131 0
M  V30 11088 C 1028.84 0.979121 1.6933 0
M  V30 11089 O 1030.05 1.23506 2.41782 0
M  V30 11090 C 1028.5 3.43875 1.06198 0
M  V30 11091 C 1028.11 4.47988 -0.0334397 0
M  V30 11092 C 1029.86 3.89057 1.69807 0
M  V30 11093 C 1027.76 5.89483 0.475774 0
M  V30 11094 H 1026.69 0.7224 0.215995 0
M  V30 11095 H 1029.34 1.82699 -0.171257 0
M  V30 11096 H 1027.73 3.49862 1.85506 0
M  V30 11097 H 1028.9 4.53644 -0.808934 0
M  V30 11098 H 1027.21 4.12415 -0.574725 0
M  V30 11099 H 1029.81 4.92171 2.08978 0
M  V30 11100 H 1030.15 3.27713 2.5673 0
M  V30 11101 H 1030.69 3.85772 0.970815 0
M  V30 11102 H 1027.43 6.54528 -0.356837 0
M  V30 11103 H 1026.95 5.87297 1.21827 0
M  V30 11104 H 1028.63 6.40066 0.944697 0
M  V30 11105 N 1028.76 -0.17846 1.56586 0
M  V30 11106 C 1029.72 -1.20479 1.94981 0
M  V30 11107 C 1030.72 -1.37561 0.832677 0
M  V30 11108 O 1031.91 -1.35089 1.09984 0
M  V30 11109 C 1029.04 -2.57117 2.23839 0
M  V30 11110 H 1030.24 -0.876173 2.86816 0
M  V30 11111 H 1027.79 -0.420635 1.50534 0
M  V30 11112 H 1028.52 -2.95005 1.34695 0
M  V30 11113 H 1028.31 -2.46086 3.05261 0
M  V30 11114 H 1029.8 -3.31096 2.5449 0
M  V30 11115 N 1030.24 -1.51135 -0.446768 0
M  V30 11116 C 1031.48 -1.63578 -1.19875 0
M  V30 11117 C 1031.81 -0.346478 -1.91084 0
M  V30 11118 O 1031.09 0.653447 -1.83195 0
M  V30 11119 C 1031.37 -2.83275 -2.22323 0
M  V30 11120 C 1031.23 -4.22155 -1.55259 0
M  V30 11121 C 1032.54 -2.98496 -3.23401 0
M  V30 11122 H 1029.66 -0.595333 -0.434452 0
M  V30 11123 H 1032.31 -1.83593 -0.48923 0
M  V30 11124 H 1030.46 -2.6634 -2.82834 0
M  V30 11125 H 1032.13 -4.50736 -0.981571 0
M  V30 11126 H 1030.37 -4.25288 -0.855122 0
M  V30 11127 H 1031.04 -5.01882 -2.29823 0
M  V30 11128 H 1033.52 -3.14079 -2.72935 0
M  V30 11129 H 1032.39 -3.83828 -3.92386 0
M  V30 11130 H 1032.65 -2.10157 -3.88956 0
M  V30 11131 N 1031.71 0.701592 -1.41122 0
M  V30 11132 C 1032.94 1.48833 -1.43291 0
M  V30 11133 C 1033.35 1.89168 -0.0348668 0
M  V30 11134 O 1032.69 1.56937 0.9548 0
M  V30 11135 C 1032.76 2.78533 -2.27287 0
M  V30 11136 C 1032.42 2.60438 -3.75528 0
M  V30 11137 C 1033.42 2.26778 -4.67833 0
M  V30 11138 C 1031.1 2.76266 -4.19503 0
M  V30 11139 C 1033.1 2.09176 -6.021 0
M  V30 11140 C 1030.78 2.58281 -5.53836 0
M  V30 11141 C 1031.78 2.24786 -6.4495 0
M  V30 11142 O 1031.47 2.06952 -7.76805 0
M  V30 11143 H 1031.2 0.465401 -0.490284 0
M  V30 11144 H 1033.76 0.871843 -1.85979 0
M  V30 11145 H 1031.99 3.42566 -1.79403 0
M  V30 11146 H 1033.67 3.40312 -2.21229 0
M  V30 11147 H 1034.44 2.1417 -4.35151 0
M  V30 11148 H 1030.32 3.01322 -3.48893 0
M  V30 11149 H 1033.86 1.82955 -6.73181 0
M  V30 11150 H 1029.76 2.70478 -5.86099 0
M  V30 11151 H 1030.53 2.21762 -7.87886 0
M  V30 11152 N 1033.19 1.2685 0.935242 0
M  V30 11153 C 1034.1 1.10716 2.06831 0
M  V30 11154 C 1035.12 0.0391222 1.73956 0
M  V30 11155 O 1036.29 0.244071 1.99916 0
M  V30 11156 C 1033.36 0.748093 3.38533 0
M  V30 11157 C 1032.42 1.89619 3.85153 0
M  V30 11158 C 1031.65 1.55416 5.1057 0
M  V30 11159 O 1031.88 0.458596 5.68553 0
M  V30 11160 O 1030.81 2.39087 5.52378 0
M  V30 11161 H 1034.64 2.05785 2.23352 0
M  V30 11162 H 1032.22 1.05967 1.05315 0
M  V30 11163 H 1034.1 0.560841 4.17651 0
M  V30 11164 H 1032.78 -0.173142 3.23237 0
M  V30 11165 H 1031.68 2.13845 3.06954 0
M  V30 11166 H 1033.02 2.79737 4.04979 0
M  V30 11167 N 1034.67 -1.14067 1.0875 0
M  V30 11168 C 1035.62 -2.19261 0.720633 0
M  V30 11169 C 1036.59 -1.63462 -0.294847 0
M  V30 11170 O 1037.77 -1.89967 -0.178058 0
M  V30 11171 C 1034.91 -3.44816 0.139873 0
M  V30 11172 C 1034.03 -4.1475 1.20856 0
M  V30 11173 C 1033.16 -5.27899 0.591285 0
M  V30 11174 C 1032.2 -5.89672 1.64176 0
M  V30 11175 N 1031.34 -6.94264 1.04603 0
M  V30 11176 H 1036.18 -2.49991 1.62198 0
M  V30 11177 H 1033.71 -1.22757 0.810497 0
M  V30 11178 H 1035.67 -4.16648 -0.214587 0
M  V30 11179 H 1034.3 -3.14558 -0.724774 0
M  V30 11180 H 1033.35 -3.41272 1.6804 0
M  V30 11181 H 1034.67 -4.56753 2.00446 0
M  V30 11182 H 1033.82 -6.06417 0.185271 0
M  V30 11183 H 1032.56 -4.87128 -0.236236 0
M  V30 11184 H 1031.56 -5.09854 2.05739 0
M  V30 11185 H 1032.79 -6.32517 2.47182 0
M  V30 11186 H 1030.73 -6.55562 0.239664 0
M  V30 11187 H 1030.65 -7.34771 1.77898 0
M  V30 11188 H 1031.92 -7.7665 0.665989 0
M  V30 11189 N 1036.15 -0.873678 -1.31166 0
M  V30 11190 C 1037.08 -0.276805 -2.26515 0
M  V30 11191 C 1038.06 0.596166 -1.51277 0
M  V30 11192 O 1039.24 0.548769 -1.80335 0
M  V30 11193 C 1036.37 0.607711 -3.33203 0
M  V30 11194 C 1035.42 -0.194411 -4.26057 0
M  V30 11195 S 1036.25 -1.57534 -5.11804 0
M  V30 11196 C 1037.41 -0.697047 -6.22006 0
M  V30 11197 H 1037.64 -1.08505 -2.76792 0
M  V30 11198 H 1035.17 -0.672419 -1.38989 0
M  V30 11199 H 1037.13 1.11234 -3.95142 0
M  V30 11200 H 1035.79 1.38994 -2.81673 0
M  V30 11201 H 1034.98 0.480094 -5.01708 0
M  V30 11202 H 1034.59 -0.631262 -3.68634 0
M  V30 11203 H 1036.88 0.0907919 -6.77439 0
M  V30 11204 H 1037.82 -1.42481 -6.93617 0
M  V30 11205 H 1038.23 -0.262954 -5.63887 0
M  V30 11206 N 1037.63 1.44308 -0.633487 0
M  V30 11207 C 1038.87 2.02863 -0.14765 0
M  V30 11208 C 1039.23 1.48956 1.21778 0
M  V30 11209 O 1038.52 0.664997 1.7969 0
M  V30 11210 C 1038.71 3.57316 -0.0773886 0
M  V30 11211 C 1038.54 4.26208 -1.43446 0
M  V30 11212 C 1037.31 4.63087 -2.02184 0
M  V30 11213 C 1039.51 4.56501 -2.36879 0
M  V30 11214 N 1037.49 5.16957 -3.31102 0
M  V30 11215 C 1038.86 5.11479 -3.50413 0
M  V30 11216 C 1040.92 4.38454 -2.35929 0
M  V30 11217 C 1039.62 5.50311 -4.63196 0
M  V30 11218 C 1041.65 4.78336 -3.47777 0
M  V30 11219 C 1041.01 5.3343 -4.60035 0
M  V30 11220 H 1037.11 0.775835 -0.0980038 0
M  V30 11221 H 1039.69 1.75767 -0.837495 0
M  V30 11222 H 1037.86 3.84019 0.581743 0
M  V30 11223 H 1039.6 4.02541 0.417494 0
M  V30 11224 H 1036.35 4.47482 -1.55103 0
M  V30 11225 H 1036.78 5.48366 -3.97019 0
M  V30 11226 H 1041.42 3.9515 -1.50387 0
M  V30 11227 H 1039.14 5.92568 -5.49444 0
M  V30 11228 H 1042.72 4.66084 -3.4822 0
M  V30 11229 H 1041.6 5.63719 -5.45151 0
M  V30 11230 N 1039.1 0.374177 1.53094 0
M  V30 11231 C 1040.33 -0.215903 2.06273 0
M  V30 11232 C 1040.75 -1.40979 1.24526 0
M  V30 11233 O 1040.11 -1.79331 0.266462 0
M  V30 11234 C 1040.16 -0.579089 3.5592 0
M  V30 11235 O 1039.26 -1.67516 3.76845 0
M  V30 11236 H 1038.61 -0.0293981 0.663349 0
M  V30 11237 H 1041.14 0.537271 1.9742 0
M  V30 11238 H 1041.15 -0.847678 3.99097 0
M  V30 11239 H 1039.82 0.293843 4.14861 0
M  V30 11240 H 1038.4 -1.40146 3.45563 0
M  V30 11241 N 1040.58 -1.57259 0.103575 0
M  V30 11242 C 1041.81 -1.98711 -0.565454 0
M  V30 11243 C 1042.22 -0.981759 -1.61735 0
M  V30 11244 O 1041.56 0.0357019 -1.83665 0
M  V30 11245 C 1041.63 -3.36552 -1.26384 0
M  V30 11246 C 1041.29 -4.55566 -0.361714 0
M  V30 11247 C 1042.29 -5.18408 0.393539 0
M  V30 11248 C 1039.97 -5.01534 -0.277292 0
M  V30 11249 C 1041.97 -6.25594 1.2211 0
M  V30 11250 C 1039.65 -6.08584 0.553919 0
M  V30 11251 C 1040.65 -6.7048 1.30176 0
M  V30 11252 O 1040.34 -7.75464 2.1192 0
M  V30 11253 H 1040.07 -0.657853 -0.155582 0
M  V30 11254 H 1042.62 -2.04591 0.182089 0
M  V30 11255 H 1040.85 -3.2738 -2.05813 0
M  V30 11256 H 1042.54 -3.62395 -1.82824 0
M  V30 11257 H 1043.31 -4.8382 0.338098 0
M  V30 11258 H 1039.19 -4.53114 -0.849047 0
M  V30 11259 H 1042.73 -6.73836 1.80531 0
M  V30 11260 H 1038.63 -6.42604 0.610809 0
M  V30 11261 H 1039.4 -7.92491 2.04694 0
M  V30 11262 N 1042.06 0.170153 -1.56679 0
M  V30 11263 C 1042.99 1.23945 -1.91606 0
M  V30 11264 C 1043.97 1.42725 -0.779004 0
M  V30 11265 O 1045.16 1.57712 -1.03243 0
M  V30 11266 C 1042.28 2.60222 -2.168 0
M  V30 11267 C 1041.33 2.58172 -3.39484 0
M  V30 11268 S 1042.16 2.0714 -4.93815 0
M  V30 11269 C 1043.32 3.45192 -5.22105 0
M  V30 11270 H 1043.55 0.941345 -2.82004 0
M  V30 11271 H 1041.08 0.374771 -1.49783 0
M  V30 11272 H 1043.04 3.38656 -2.31996 0
M  V30 11273 H 1041.7 2.87232 -1.27107 0
M  V30 11274 H 1040.9 3.58435 -3.54317 0
M  V30 11275 H 1040.5 1.87834 -3.2341 0
M  V30 11276 H 1042.79 4.41194 -5.14154 0
M  V30 11277 H 1043.73 3.35233 -6.23718 0
M  V30 11278 H 1044.14 3.41257 -4.49671 0
M  V30 11279 N 1043.54 1.5137 0.438746 0
M  V30 11280 C 1044.49 1.72582 1.53245 0
M  V30 11281 C 1045.46 0.567488 1.56105 0
M  V30 11282 O 1046.64 0.80176 1.73137 0
M  V30 11283 C 1043.78 1.85551 2.90972 0
M  V30 11284 C 1042.89 3.13094 2.97652 0
M  V30 11285 C 1042.03 3.16666 4.26493 0
M  V30 11286 C 1041.07 4.38529 4.27035 0
M  V30 11287 N 1040.2 4.39659 5.47398 0
M  V30 11288 H 1045.04 2.65941 1.3446 0
M  V30 11289 H 1042.58 1.31801 0.653206 0
M  V30 11290 H 1044.54 1.91053 3.70884 0
M  V30 11291 H 1043.17 0.956025 3.08318 0
M  V30 11292 H 1042.22 3.16909 2.10412 0
M  V30 11293 H 1043.53 4.03009 2.93914 0
M  V30 11294 H 1042.69 3.21075 5.14777 0
M  V30 11295 H 1041.43 2.24637 4.32885 0
M  V30 11296 H 1040.43 4.34297 3.37144 0
M  V30 11297 H 1041.66 5.31821 4.22307 0
M  V30 11298 H 1039.6 3.50499 5.54514 0
M  V30 11299 H 1039.52 5.23382 5.45534 0
M  V30 11300 H 1040.79 4.48259 6.37718 0
M  V30 11301 N 1045.02 -0.694098 1.41492 0
M  V30 11302 C 1046.24 -1.48789 1.44488 0
M  V30 11303 C 1046.67 -1.88028 0.0521588 0
M  V30 11304 O 1046.02 -1.54727 -0.944952 0
M  V30 11305 C 1046.07 -2.72586 2.3607 0
M  V30 11306 O 1045.18 -3.70128 1.81876 0
M  V30 11307 H 1044.52 -0.447758 0.490315 0
M  V30 11308 H 1047.05 -0.853036 1.85969 0
M  V30 11309 H 1047.06 -3.20877 2.51995 0
M  V30 11310 H 1045.73 -2.43363 3.37264 0
M  V30 11311 H 1044.31 -3.29069 1.75408 0
M  V30 11312 N 1046.49 -1.27344 -0.928501 0
M  V30 11313 C 1047.46 -1.10043 -2.01055 0
M  V30 11314 C 1048.46 -0.0446793 -1.60738 0
M  V30 11315 O 1049.65 -0.289202 -1.71783 0
M  V30 11316 C 1046.78 -0.676559 -3.34119 0
M  V30 11317 H 1047.97 -2.06126 -2.17835 0
M  V30 11318 H 1045.53 -1.10121 -1.10919 0
M  V30 11319 H 1046.26 0.285697 -3.23039 0
M  V30 11320 H 1046.05 -1.43903 -3.64739 0
M  V30 11321 H 1047.54 -0.577725 -4.13584 0
M  V30 11322 N 1047.97 1.13488 -1.09353 0
M  V30 11323 C 1048.88 2.2248 -0.744307 0
M  V30 11324 C 1049.9 1.72145 0.253404 0
M  V30 11325 O 1051.07 2.01176 0.0949339 0
M  V30 11326 C 1048.14 3.46286 -0.16928 0
M  V30 11327 C 1047.2 4.11516 -1.22284 0
M  V30 11328 C 1046.43 5.29412 -0.675161 0
M  V30 11329 O 1046.66 5.68185 0.502182 0
M  V30 11330 O 1045.59 5.8467 -1.42983 0
M  V30 11331 H 1049.42 2.54723 -1.65378 0
M  V30 11332 H 1047 1.21607 -0.867879 0
M  V30 11333 H 1048.88 4.2114 0.14811 0
M  V30 11334 H 1047.56 3.15745 0.713214 0
M  V30 11335 H 1046.47 3.38492 -1.59292 0
M  V30 11336 H 1047.8 4.46186 -2.07796 0
M  V30 11337 N 1049.45 0.880621 1.30701 0
M  V30 11338 C 1050.86 0.547993 1.78477 0
M  V30 11339 C 1051.21 -0.935633 1.72454 0
M  V30 11340 O 1050.34 -1.73094 1.29874 0
M  V30 11341 C 1050.93 0.98795 3.24076 0
M  V30 11342 C 1049.49 0.706805 3.69704 0
M  V30 11343 C 1048.64 1.17335 2.51252 0
M  V30 11344 H 1051.59 1.06528 1.17633 0
M  V30 11345 H 1051.61 0.31508 3.79193 0
M  V30 11346 H 1051.12 2.06778 3.28427 0
M  V30 11347 H 1049.22 -0.36122 3.70845 0
M  V30 11348 H 1049.34 1.2913 4.6137 0
M  V30 11349 H 1047.7 0.592808 2.47705 0
M  V30 11350 H 1048.48 2.26083 2.58343 0
M  V30 11351 N 1050.93 -1.4397 0.641131 0
M  V30 11352 C 1052.15 -2.06818 0.155318 0
M  V30 11353 C 1052.58 -1.47665 -1.16519 0
M  V30 11354 O 1051.94 -0.58192 -1.71707 0
M  V30 11355 C 1051.99 -3.60542 0.0647537 0
M  V30 11356 O 1051.09 -4.00674 -0.976447 0
M  V30 11357 H 1050.43 -0.657962 0.0893404 0
M  V30 11358 H 1052.96 -1.84678 0.88064 0
M  V30 11359 H 1052.97 -4.07816 -0.122552 0
M  V30 11360 H 1051.65 -4.02975 1.02878 0
M  V30 11361 H 1050.22 -3.65013 -0.762905 0
M  V30 11362 N 1052.41 -0.382291 -1.52893 0
M  V30 11363 C 1053.65 0.202433 -2.01787 0
M  V30 11364 C 1053.99 1.47044 -1.26853 0
M  V30 11365 O 1053.26 1.91007 -0.366969 0
M  V30 11366 C 1053.54 0.477471 -3.5692 0
M  V30 11367 C 1053.4 -0.805339 -4.42532 0
M  V30 11368 C 1054.72 1.27106 -4.21346 0
M  V30 11369 H 1051.84 0.0720998 -0.733465 0
M  V30 11370 H 1054.48 -0.510478 -1.83014 0
M  V30 11371 H 1052.63 1.08478 -3.73048 0
M  V30 11372 H 1054.3 -1.4424 -4.3817 0
M  V30 11373 H 1052.54 -1.42216 -4.09826 0
M  V30 11374 H 1053.21 -0.567635 -5.49074 0
M  V30 11375 H 1055.69 0.757161 -4.09153 0
M  V30 11376 H 1054.57 1.43225 -5.29885 0
M  V30 11377 H 1054.83 2.28431 -3.78513 0
M  V30 11378 N 1053.89 1.57202 -0.111913 0
M  V30 11379 C 1055.13 1.9495 0.547795 0
M  V30 11380 C 1055.46 0.994763 1.67137 0
M  V30 11381 O 1054.72 0.0173528 1.95692 0
M  V30 11382 C 1055.01 3.39152 1.12741 0
M  V30 11383 C 1054.68 4.50724 0.125916 0
M  V30 11384 C 1053.34 4.80968 -0.149489 0
M  V30 11385 C 1055.69 5.18215 -0.556987 0
M  V30 11386 C 1053.02 5.76023 -1.1142 0
M  V30 11387 C 1055.37 6.14307 -1.51029 0
M  V30 11388 C 1054.04 6.42947 -1.79375 0
M  V30 11389 H 1053.31 0.713372 0.200453 0
M  V30 11390 H 1055.96 1.90542 -0.191316 0
M  V30 11391 H 1054.26 3.4022 1.94313 0
M  V30 11392 H 1055.96 3.65668 1.64584 0
M  V30 11393 H 1052.55 4.27162 0.350756 0
M  V30 11394 H 1056.73 4.95012 -0.357378 0
M  V30 11395 H 1051.99 5.9652 -1.34064 0
M  V30 11396 H 1056.16 6.65692 -2.04516 0
M  V30 11397 H 1053.79 7.1641 -2.54284 0
M  V30 11398 N 1055.36 -0.161842 1.56767 0
M  V30 11399 C 1056.59 -0.892247 1.86672 0
M  V30 11400 C 1057.01 -1.75407 0.69841 0
M  V30 11401 O 1056.36 -1.7945 -0.332251 0
M  V30 11402 C 1056.41 -1.7612 3.15696 0
M  V30 11403 O 1056.14 -0.934131 4.28025 0
M  V30 11404 C 1057.64 -2.60046 3.59014 0
M  V30 11405 H 1054.86 -0.258747 0.619105 0
M  V30 11406 H 1057.4 -0.159089 2.0388 0
M  V30 11407 H 1055.56 -2.44759 3.00286 0
M  V30 11408 H 1055.97 -1.52931 5.01709 0
M  V30 11409 H 1057.44 -3.16618 4.5217 0
M  V30 11410 H 1057.92 -3.35374 2.83586 0
M  V30 11411 H 1058.53 -1.96724 3.77067 0
M  V30 11412 N 1056.84 -1.516 -0.430713 0
M  V30 11413 C 1057.79 -1.73392 -1.52328 0
M  V30 11414 C 1058.76 -0.575758 -1.55802 0
M  V30 11415 O 1059.94 -0.810931 -1.72709 0
M  V30 11416 C 1057.08 -1.87092 -2.89984 0
M  V30 11417 C 1056.2 -3.14668 -2.95987 0
M  V30 11418 C 1055.33 -3.18923 -4.24807 0
M  V30 11419 C 1054.37 -4.40787 -4.24703 0
M  V30 11420 N 1053.51 -4.42556 -5.45059 0
M  V30 11421 H 1058.35 -2.6665 -1.33048 0
M  V30 11422 H 1055.88 -1.32146 -0.646207 0
M  V30 11423 H 1057.84 -1.93017 -3.69865 0
M  V30 11424 H 1056.47 -0.972363 -3.07807 0
M  V30 11425 H 1055.52 -3.1802 -2.08728 0
M  V30 11426 H 1056.84 -4.04562 -2.91772 0
M  V30 11427 H 1055.99 -3.23801 -5.13067 0
M  V30 11428 H 1054.73 -2.2693 -4.31688 0
M  V30 11429 H 1053.73 -4.36079 -3.34836 0
M  V30 11430 H 1054.96 -5.34053 -4.19481 0
M  V30 11431 H 1052.91 -3.53435 -5.52648 0
M  V30 11432 H 1052.82 -5.26267 -5.42751 0
M  V30 11433 H 1054.09 -4.51634 -6.35332 0
M  V30 11434 N 1058.32 0.686584 -1.41858 0
M  V30 11435 C 1059.55 1.47519 -1.45072 0
M  V30 11436 C 1059.96 1.88709 -0.0585868 0
M  V30 11437 O 1059.32 1.57373 0.924116 0
M  V30 11438 C 1059.37 2.73195 -2.36742 0
M  V30 11439 O 1059.09 2.33736 -3.70539 0
M  V30 11440 C 1060.59 3.66861 -2.48854 0
M  V30 11441 H 1057.81 0.454307 -0.493808 0
M  V30 11442 H 1060.36 0.844612 -1.86243 0
M  V30 11443 H 1058.51 3.32468 -1.98856 0
M  V30 11444 H 1058.93 3.14809 -4.19518 0
M  V30 11445 H 1060.4 4.51801 -3.17143 0
M  V30 11446 H 1060.88 4.11961 -1.52265 0
M  V30 11447 H 1061.48 3.13486 -2.87414 0
M  V30 11448 N 1059.8 1.27835 0.921735 0
M  V30 11449 C 1061.03 1.17352 1.704 0
M  V30 11450 C 1061.44 -0.268892 1.86875 0
M  V30 11451 O 1060.8 -1.18253 1.39005 0
M  V30 11452 C 1060.85 1.85889 3.10045 0
M  V30 11453 O 1060.57 3.24495 2.94338 0
M  V30 11454 C 1062.07 1.81607 4.04393 0
M  V30 11455 H 1059.29 0.40773 0.532914 0
M  V30 11456 H 1061.83 1.68815 1.15419 0
M  V30 11457 H 1059.99 1.38316 3.61867 0
M  V30 11458 H 1060.4 3.58705 3.82663 0
M  V30 11459 H 1061.88 2.34165 4.99871 0
M  V30 11460 H 1062.35 0.786697 4.32097 0
M  V30 11461 H 1062.96 2.28822 3.58498 0
M  V30 11462 N 1061.28 -1.12907 1.09954 0
M  V30 11463 C 1062.24 -2.16673 0.747364 0
M  V30 11464 C 1063.24 -1.59208 -0.225741 0
M  V30 11465 O 1064.43 -1.742 -0.00322482 0
M  V30 11466 C 1061.56 -3.40735 0.106169 0
M  V30 11467 H 1062.75 -2.49341 1.6664 0
M  V30 11468 H 1060.31 -1.27828 0.899421 0
M  V30 11469 H 1061.04 -3.13661 -0.82384 0
M  V30 11470 H 1060.83 -3.83717 0.806434 0
M  V30 11471 H 1062.32 -4.17414 -0.12464 0
M  V30 11472 N 1062.75 -0.88754 -1.30232 0
M  V30 11473 C 1064.03 -0.427249 -1.90877 0
M  V30 11474 C 1064.41 1.0922 -1.80649 0
M  V30 11475 O 1063.76 1.92866 -1.22536 0
M  V30 11476 C 1063.97 -0.928219 -3.3643 0
M  V30 11477 C 1065.32 -0.964706 -4.13496 0
M  V30 11478 O 1066.34 -0.875057 -3.45284 0
M  V30 11479 O 1065.2 -1.09754 -5.35366 0
M  V30 11480 H 1062.29 -0.131107 -0.816541 0
M  V30 11481 H 1064.84 -0.976609 -1.38782 0
M  V30 11482 H 1063.61 -1.97209 -3.37971 0
M  V30 11483 H 1063.23 -0.358169 -3.95983 0
M  V30 11484 N 1064.23 1.43628 -0.648757 0
M  V30 11485 C 1065.48 2.01465 -0.16002 0
M  V30 11486 C 1065.8 1.51413 1.22878 0
M  V30 11487 O 1065.07 0.724919 1.81994 0
M  V30 11488 H 1063.65 0.744885 -0.0561672 0
M  V30 11489 H 1066.31 1.75897 -0.839422 0
M  V30 11490 H 1065.41 3.1178 -0.141213 0
M  V30 11491 N 1065.71 0.390394 1.52688 0
M  V30 11492 C 1066.96 -0.191729 2.01892 0
M  V30 11493 C 1067.29 -1.4637 1.27631 0
M  V30 11494 O 1066.56 -1.90809 0.377094 0
M  V30 11495 C 1066.85 -0.458535 3.57169 0
M  V30 11496 C 1066.7 0.828796 4.42098 0
M  V30 11497 C 1068.02 -1.2487 4.22014 0
M  V30 11498 H 1065.14 -0.0682091 0.733837 0
M  V30 11499 H 1067.78 0.520176 1.82741 0
M  V30 11500 H 1065.93 -1.06498 3.73618 0
M  V30 11501 H 1067.6 1.46562 4.37398 0
M  V30 11502 H 1065.85 1.44388 4.09066 0
M  V30 11503 H 1066.52 0.596746 5.48765 0
M  V30 11504 H 1068.99 -0.735452 4.09549 0
M  V30 11505 H 1067.87 -1.40412 5.30637 0
M  V30 11506 H 1068.13 -2.2642 3.79719 0
M  V30 11507 N 1067.19 -1.57141 0.120249 0
M  V30 11508 C 1068.15 -2.14213 -0.815185 0
M  V30 11509 C 1069.15 -1.07731 -1.19376 0
M  V30 11510 O 1070.34 -1.33502 -1.11906 0
M  V30 11511 C 1067.47 -2.68339 -2.10255 0
M  V30 11512 H 1068.67 -2.98197 -0.319166 0
M  V30 11513 H 1066.22 -1.55767 -0.128997 0
M  V30 11514 H 1066.95 -1.87946 -2.64285 0
M  V30 11515 H 1066.74 -3.46216 -1.84057 0
M  V30 11516 H 1068.23 -3.124 -2.77121 0
M  V30 11517 N 1068.67 0.153526 -1.5685 0
M  V30 11518 C 1070.08 0.505939 -1.51368 0
M  V30 11519 C 1070.28 1.83721 -0.82757 0
M  V30 11520 O 1069.34 2.49385 -0.395364 0
M  V30 11521 C 1070.65 0.522269 -2.9613 0
M  V30 11522 C 1072.2 0.608238 -3.07033 0
M  V30 11523 C 1072.67 0.655292 -4.53288 0
M  V30 11524 N 1074.17 0.717695 -4.57606 0
M  V30 11525 C 1074.9 0.774977 -5.68139 0
M  V30 11526 N 1074.4 0.792003 -6.88258 0
M  V30 11527 N 1076.19 0.81536 -5.56155 0
M  V30 11528 H 1068.34 -0.71919 -1.99853 0
M  V30 11529 H 1070.6 -0.261466 -0.91123 0
M  V30 11530 H 1070.31 -0.387595 -3.49558 0
M  V30 11531 H 1070.18 1.3625 -3.51733 0
M  V30 11532 H 1072.57 1.50852 -2.53629 0
M  V30 11533 H 1072.65 -0.259014 -2.54485 0
M  V30 11534 H 1072.3 -0.240809 -5.07329 0
M  V30 11535 H 1072.23 1.53894 -5.03611 0
M  V30 11536 H 1074.72 0.7121 -3.7113 0
M  V30 11537 H 1075.03 0.837378 -7.6825 0
M  V30 11538 H 1073.37 0.759986 -6.90832 0
M  V30 11539 H 1076.57 0.799183 -4.61227 0
M  V30 11540 H 1076.74 0.856537 -6.42314 0
M  V30 11541 N 1070.14 1.51827 0.422667 0
M  V30 11542 C 1071.39 1.65464 1.17258 0
M  V30 11543 C 1071.72 0.376834 1.90509 0
M  V30 11544 O 1071 -0.624219 1.84211 0
M  V30 11545 C 1071.28 2.86776 2.17788 0
M  V30 11546 C 1071.13 4.24571 1.48523 0
M  V30 11547 C 1072.45 3.03603 3.18611 0
M  V30 11548 H 1069.57 0.602169 0.424925 0
M  V30 11549 H 1072.21 1.84349 0.45996 0
M  V30 11550 H 1070.36 2.70806 2.78561 0
M  V30 11551 H 1072.04 4.5224 0.909739 0
M  V30 11552 H 1070.28 4.26595 0.787354 0
M  V30 11553 H 1070.95 5.05475 2.2181 0
M  V30 11554 H 1073.43 3.18381 2.67904 0
M  V30 11555 H 1072.3 3.90022 3.8623 0
M  V30 11556 H 1072.56 2.16318 3.85563 0
M  V30 11557 N 1071.62 -0.679052 1.4222 0
M  V30 11558 C 1073.04 -0.991665 1.25053 0
M  V30 11559 C 1073.24 -2.00928 0.151665 0
M  V30 11560 O 1072.29 -2.47925 -0.478507 0
M  V30 11561 C 1073.61 -1.50053 2.60585 0
M  V30 11562 C 1075.16 -1.61852 2.67905 0
M  V30 11563 C 1075.63 -2.16135 4.03794 0
M  V30 11564 N 1077.12 -2.23474 4.05726 0
M  V30 11565 C 1077.86 -2.66541 5.07685 0
M  V30 11566 N 1077.35 -3.09092 6.20028 0
M  V30 11567 N 1079.15 -2.66252 4.95042 0
M  V30 11568 H 1071.3 -0.00521851 2.12399 0
M  V30 11569 H 1073.56 -0.0648465 0.94578 0
M  V30 11570 H 1073.27 -0.82731 3.41831 0
M  V30 11571 H 1073.14 -2.47998 2.84213 0
M  V30 11572 H 1075.53 -2.28281 1.87008 0
M  V30 11573 H 1075.61 -0.624074 2.4807 0
M  V30 11574 H 1075.25 -1.50316 4.85147 0
M  V30 11575 H 1075.18 -3.16363 4.20978 0
M  V30 11576 H 1077.67 -1.93467 3.24621 0
M  V30 11577 H 1077.99 -3.40627 6.93681 0
M  V30 11578 H 1076.33 -3.06959 6.23539 0
M  V30 11579 H 1079.52 -2.32369 4.06352 0
M  V30 11580 H 1079.69 -2.99496 5.74636 0
M  V30 11581 N 1073.1 -1.28322 -0.914942 0
M  V30 11582 C 1074.05 -1.12146 -2.01722 0
M  V30 11583 C 1075.02 -0.0189279 -1.66089 0
M  V30 11584 O 1076.2 -0.183638 -1.89914 0
M  V30 11585 C 1073.34 -0.78808 -3.35981 0
M  V30 11586 C 1072.46 -1.96954 -3.84491 0
M  V30 11587 C 1071.59 -1.57688 -5.07255 0
M  V30 11588 C 1070.63 -2.72506 -5.48094 0
M  V30 11589 N 1069.77 -2.33741 -6.62049 0
M  V30 11590 H 1074.61 -2.06461 -2.1489 0
M  V30 11591 H 1072.14 -1.0276 -1.05256 0
M  V30 11592 H 1074.1 -0.575546 -4.13211 0
M  V30 11593 H 1072.73 0.118132 -3.22584 0
M  V30 11594 H 1071.78 -2.29423 -3.03429 0
M  V30 11595 H 1073.1 -2.8304 -4.10719 0
M  V30 11596 H 1072.25 -1.32634 -5.92025 0
M  V30 11597 H 1070.99 -0.687291 -4.82833 0
M  V30 11598 H 1069.99 -2.9826 -4.61867 0
M  V30 11599 H 1071.22 -3.62106 -5.74505 0
M  V30 11600 H 1069.16 -1.4725 -6.3926 0
M  V30 11601 H 1069.08 -3.13364 -6.87997 0
M  V30 11602 H 1070.35 -2.11968 -7.50127 0
M  V30 11603 N 1074.58 1.12322 -1.10551 0
M  V30 11604 C 1075.8 1.8822 -0.871093 0
M  V30 11605 C 1076.23 1.7916 0.573005 0
M  V30 11606 O 1075.59 1.14738 1.40374 0
M  V30 11607 C 1075.63 3.35349 -1.32565 0
M  V30 11608 O 1074.74 4.09461 -0.49145 0
M  V30 11609 H 1074.08 0.584787 -0.314516 0
M  V30 11610 H 1076.61 1.42039 -1.47262 0
M  V30 11611 H 1076.62 3.86189 -1.31612 0
M  V30 11612 H 1075.29 3.4126 -2.37728 0
M  V30 11613 H 1073.87 3.68575 -0.566294 0
M  V30 11614 N 1076.06 0.894434 1.2976 0
M  V30 11615 C 1077 0.366586 2.2787 0
M  V30 11616 C 1077.97 -0.548425 1.56785 0
M  V30 11617 O 1079.16 -0.474804 1.84798 0
M  V30 11618 C 1076.3 -0.404531 3.42721 0
M  V30 11619 C 1075.41 0.540774 4.28602 0
M  V30 11620 C 1074.55 -0.246875 5.30626 0
M  V30 11621 C 1073.59 0.693294 6.08161 0
M  V30 11622 N 1072.72 -0.059619 7.02075 0
M  V30 11623 H 1077.56 1.20834 2.72402 0
M  V30 11624 H 1075.1 0.607205 1.33983 0
M  V30 11625 H 1077.06 -0.86762 4.08079 0
M  V30 11626 H 1075.69 -1.21078 2.99232 0
M  V30 11627 H 1074.74 1.12237 3.63465 0
M  V30 11628 H 1076.05 1.26065 4.82606 0
M  V30 11629 H 1075.21 -0.771398 6.01776 0
M  V30 11630 H 1073.94 -0.999918 4.77339 0
M  V30 11631 H 1072.95 1.22936 5.35879 0
M  V30 11632 H 1074.17 1.44558 6.63536 0
M  V30 11633 H 1072.12 -0.795026 6.51165 0
M  V30 11634 H 1072.04 0.60045 7.53612 0
M  V30 11635 H 1073.31 -0.564577 7.77453 0
M  V30 11636 N 1077.53 -1.43282 0.656365 0
M  V30 11637 C 1078.78 -2.01378 0.170702 0
M  V30 11638 C 1079.1 -1.52063 -1.22073 0
M  V30 11639 O 1078.37 -0.73456 -1.81607 0
M  V30 11640 H 1076.95 -0.744577 0.0601168 0
M  V30 11641 H 1079.62 -1.75449 0.848739 0
M  V30 11642 H 1078.71 -3.11701 0.157745 0
M  V30 11643 N 1079.01 -0.398486 -1.52479 0
M  V30 11644 C 1079.96 0.432212 -2.26717 0
M  V30 11645 C 1080.93 1.05007 -1.28696 0
M  V30 11646 O 1082.12 1.07636 -1.57541 0
M  V30 11647 C 1079.26 1.54868 -3.08399 0
M  V30 11648 C 1078.37 0.952779 -4.21362 0
M  V30 11649 C 1077.5 2.04106 -4.90423 0
M  V30 11650 C 1076.54 1.42153 -5.95364 0
M  V30 11651 N 1075.68 2.44951 -6.57984 0
M  V30 11652 H 1080.52 -0.207303 -2.97278 0
M  V30 11653 H 1078.06 -0.114066 -1.46657 0
M  V30 11654 H 1080.01 2.20684 -3.54054 0
M  V30 11655 H 1078.64 2.15837 -2.4003 0
M  V30 11656 H 1077.7 0.183962 -3.79955 0
M  V30 11657 H 1079.01 0.460131 -4.96673 0
M  V30 11658 H 1078.16 2.77672 -5.39429 0
M  V30 11659 H 1076.9 2.56733 -4.14656 0
M  V30 11660 H 1075.91 0.671161 -5.45688 0
M  V30 11661 H 1077.13 0.903093 -6.73068 0
M  V30 11662 H 1075.08 2.9673 -5.85053 0
M  V30 11663 H 1074.99 2.00468 -7.28937 0
M  V30 11664 H 1076.26 3.18119 -7.11632 0
M  V30 11665 N 1080.49 1.57075 -0.12858 0
M  V30 11666 C 1081.74 1.9552 0.527087 0
M  V30 11667 C 1082.07 1.01243 1.66072 0
M  V30 11668 O 1081.32 0.0381076 1.95663 0
M  V30 11669 C 1081.62 3.40329 1.09138 0
M  V30 11670 C 1081.29 4.50832 0.0781039 0
M  V30 11671 C 1079.95 4.80782 -0.200493 0
M  V30 11672 C 1082.3 5.17595 -0.61192 0
M  V30 11673 C 1079.63 5.74809 -1.17524 0
M  V30 11674 C 1081.98 6.12671 -1.57536 0
M  V30 11675 C 1080.64 6.41008 -1.86184 0
M  V30 11676 H 1079.91 0.715458 0.192875 0
M  V30 11677 H 1082.56 1.90328 -0.211515 0
M  V30 11678 H 1080.87 3.42262 1.90694 0
M  V30 11679 H 1082.56 3.67393 1.60696 0
M  V30 11680 H 1079.15 4.2751 0.30543 0
M  V30 11681 H 1083.34 4.94605 -0.40986 0
M  V30 11682 H 1078.59 5.95065 -1.40384 0
M  V30 11683 H 1082.77 6.63486 -2.11565 0
M  V30 11684 H 1080.39 7.13673 -2.61868 0
M  V30 11685 N 1081.97 -0.145205 1.5693 0
M  V30 11686 C 1082.93 -1.16316 1.97492 0
M  V30 11687 C 1083.93 -1.35764 0.861668 0
M  V30 11688 O 1085.12 -1.32726 1.12825 0
M  V30 11689 C 1082.25 -2.52311 2.29242 0
M  V30 11690 H 1083.45 -0.815138 2.8861 0
M  V30 11691 H 1081 -0.38861 1.51392 0
M  V30 11692 H 1081.74 -2.92081 1.40922 0
M  V30 11693 H 1081.52 -2.39555 3.10412 0
M  V30 11694 H 1083.01 -3.25624 2.61456 0
M  V30 11695 N 1083.45 -1.52049 -0.414609 0
M  V30 11696 C 1084.69 -1.65838 -1.16206 0
M  V30 11697 C 1085.02 -0.385623 -1.90639 0
M  V30 11698 O 1084.28 0.631214 -1.85241 0
M  V30 11699 C 1084.58 -2.82735 -2.18622 0
M  V30 11700 C 1084.24 -4.21163 -1.61037 0
M  V30 11701 C 1082.9 -4.58816 -1.45056 0
M  V30 11702 C 1085.26 -5.0745 -1.18928 0
M  V30 11703 C 1082.58 -5.8044 -0.854761 0
M  V30 11704 C 1084.94 -6.29674 -0.607686 0
M  V30 11705 C 1083.6 -6.66081 -0.434968 0
M  V30 11706 H 1082.87 -0.606845 -0.425229 0
M  V30 11707 H 1085.52 -1.86137 -0.450009 0
M  V30 11708 H 1083.82 -2.56749 -2.95952 0
M  V30 11709 H 1085.52 -2.90601 -2.76319 0
M  V30 11710 H 1082.11 -3.91488 -1.74457 0
M  V30 11711 H 1086.29 -4.78948 -1.30086 0
M  V30 11712 H 1081.55 -6.07276 -0.70891 0
M  V30 11713 H 1085.72 -6.95865 -0.272988 0
M  V30 11714 H 1083.35 -7.60195 0.0288116 0
M  V30 11715 N 1084.93 0.6715 -1.42579 0
M  V30 11716 C 1085.86 1.79693 -1.49107 0
M  V30 11717 C 1086.84 1.66516 -0.347338 0
M  V30 11718 O 1088.02 1.85887 -0.562094 0
M  V30 11719 C 1085.15 3.1801 -1.39596 0
M  V30 11720 C 1084.11 3.45926 -2.5203 0
M  V30 11721 C 1083.43 4.83852 -2.27577 0
M  V30 11722 C 1084.73 3.4249 -3.94333 0
M  V30 11723 H 1086.43 1.74486 -2.433 0
M  V30 11724 H 1083.97 0.838042 -1.17102 0
M  V30 11725 H 1085.92 3.96478 -1.42771 0
M  V30 11726 H 1084.65 3.23901 -0.418989 0
M  V30 11727 H 1083.31 2.6982 -2.48178 0
M  V30 11728 H 1082.96 4.86398 -1.28165 0
M  V30 11729 H 1082.66 5.03493 -3.02934 0
M  V30 11730 H 1084.18 5.646 -2.32506 0
M  V30 11731 H 1085.59 4.10922 -3.9977 0
M  V30 11732 H 1083.99 3.73666 -4.69568 0
M  V30 11733 H 1085.06 2.41002 -4.20768 0
M  V30 11734 N 1086.4 1.28806 0.908124 0
M  V30 11735 C 1087.33 1.15758 2.02787 0
M  V30 11736 C 1088.31 0.053911 1.70015 0
M  V30 11737 O 1089.5 0.231901 1.9281 0
M  V30 11738 C 1086.63 0.824526 3.37371 0
M  V30 11739 C 1085.58 1.88359 3.84324 0
M  V30 11740 C 1084.91 1.40404 5.15937 0
M  V30 11741 C 1086.21 3.29108 4.05568 0
M  V30 11742 H 1087.9 2.09431 2.13961 0
M  V30 11743 H 1085.45 1.00831 1.02806 0
M  V30 11744 H 1087.4 0.71999 4.15204 0
M  V30 11745 H 1086.13 -0.147902 3.26265 0
M  V30 11746 H 1084.79 1.97736 3.087 0
M  V30 11747 H 1084.43 0.420515 5.01239 0
M  V30 11748 H 1084.13 2.11224 5.48323 0
M  V30 11749 H 1085.66 1.31283 5.9632 0
M  V30 11750 H 1087.07 3.2262 4.73909 0
M  V30 11751 H 1085.47 3.97812 4.49294 0
M  V30 11752 H 1086.54 3.72709 3.10187 0
M  V30 11753 N 1087.88 -1.11734 1.11145 0
M  V30 11754 C 1088.79 -2.21267 0.779607 0
M  V30 11755 C 1089.81 -1.72526 -0.225986 0
M  V30 11756 O 1090.98 -2.01302 -0.0629166 0
M  V30 11757 C 1088.05 -3.45973 0.22435 0
M  V30 11758 C 1087.11 -4.09518 1.28816 0
M  V30 11759 C 1086.34 -5.28271 0.7593 0
M  V30 11760 O 1086.57 -5.68912 -0.411725 0
M  V30 11761 O 1085.5 -5.82322 1.52266 0
M  V30 11762 H 1089.33 -2.5206 1.6941 0
M  V30 11763 H 1086.91 -1.20211 0.887115 0
M  V30 11764 H 1088.79 -4.21322 -0.0810921 0
M  V30 11765 H 1087.47 -3.1684 -0.662891 0
M  V30 11766 H 1086.37 -3.35915 1.64657 0
M  V30 11767 H 1087.71 -4.42824 2.14868 0
M  V30 11768 N 1089.36 -0.901303 -1.29284 0
M  V30 11769 C 1090.58 -0.542823 -2.0017 0
M  V30 11770 C 1091.01 0.865583 -1.67001 0
M  V30 11771 O 1090.37 1.5764 -0.895502 0
M  V30 11772 C 1090.42 -0.743987 -3.52842 0
M  V30 11773 O 1089.52 0.202771 -4.11901 0
M  V30 11774 H 1088.86 -0.211903 -0.62928 0
M  V30 11775 H 1091.39 -1.21333 -1.64741 0
M  V30 11776 H 1091.4 -0.64926 -4.02801 0
M  V30 11777 H 1090.08 -1.77077 -3.7632 0
M  V30 11778 H 1088.65 0.0603637 -3.72851 0
M  V30 11779 N 1090.84 1.42931 -0.663954 0
M  V30 11780 C 1092.07 2.06028 -0.189808 0
M  V30 11781 C 1092.48 1.49827 1.14879 0
M  V30 11782 O 1091.84 0.633778 1.71142 0
M  V30 11783 C 1091.89 3.61349 -0.104343 0
M  V30 11784 O 1091.61 4.15463 -1.39004 0
M  V30 11785 C 1093.11 4.4154 0.394599 0
M  V30 11786 H 1090.33 0.664259 -0.0948744 0
M  V30 11787 H 1092.87 1.83255 -0.907632 0
M  V30 11788 H 1091.03 3.83271 0.564103 0
M  V30 11789 H 1091.44 5.09233 -1.25626 0
M  V30 11790 H 1092.92 5.50525 0.403329 0
M  V30 11791 H 1093.39 4.1534 1.4279 0
M  V30 11792 H 1094 4.24612 -0.241729 0
M  V30 11793 N 1092.32 0.406567 1.52266 0
M  V30 11794 C 1093.25 -0.464709 2.23418 0
M  V30 11795 C 1094.23 -1.05008 1.24146 0
M  V30 11796 O 1095.41 -1.09843 1.53188 0
M  V30 11797 C 1092.54 -1.64481 2.96081 0
M  V30 11798 C 1091.58 -1.18307 4.09763 0
M  V30 11799 S 1092.42 -0.150326 5.35289 0
M  V30 11800 C 1093.57 -1.3358 6.11479 0
M  V30 11801 H 1093.81 0.139455 2.96973 0
M  V30 11802 H 1091.34 0.19085 1.53216 0
M  V30 11803 H 1093.3 -2.3215 3.38551 0
M  V30 11804 H 1091.96 -2.22031 2.22174 0
M  V30 11805 H 1091.15 -2.06466 4.59769 0
M  V30 11806 H 1090.75 -0.58505 3.69396 0
M  V30 11807 H 1093.04 -2.25986 6.38699 0
M  V30 11808 H 1093.99 -0.876328 7.02656 0
M  V30 11809 H 1094.4 -1.56044 5.42504 0
M  V30 11810 N 1093.79 -1.57004 0.136909 0
M  V30 11811 C 1094.74 -2.17524 -0.823784 0
M  V30 11812 C 1095.74 -1.1294 -1.26258 0
M  V30 11813 O 1096.94 -1.3121 -1.23223 0
M  V30 11814 H 1093.32 -0.696381 -0.283827 0
M  V30 11815 H 1095.29 -2.96997 -0.289052 0
M  V30 11816 C 1094.04 -2.80331 -2.05693 0
M  V30 11817 H 1093.36 -3.60515 -1.72825 0
M  V30 11818 H 1094.8 -3.26192 -2.70878 0
M  V30 11819 C 1093.26 -1.78322 -2.85837 0
M  V30 11820 O 1093.79 -1.2475 -3.81838 0
M  V30 11821 N 1092 -1.47854 -2.50175 0
M  V30 11822 H 1091.54 -1.9161 -1.72173 0
M  V30 11823 H 1091.5 -0.798464 -3.04092 0
M  V30 11824 N 1095.27 0.136881 -1.57004 0
M  V30 11825 C 1096.18 1.18793 -2.023 0
M  V30 11826 C 1097.2 1.46412 -0.94018 0
M  V30 11827 O 1098.37 1.57883 -1.2504 0
M  V30 11828 C 1095.44 2.49903 -2.40311 0
M  V30 11829 C 1094.5 2.29841 -3.6259 0
M  V30 11830 C 1093.73 3.54699 -3.98779 0
M  V30 11831 O 1093.96 4.61291 -3.3551 0
M  V30 11832 O 1092.89 3.46761 -4.91976 0
M  V30 11833 H 1096.72 0.833345 -2.92043 0
M  V30 11834 H 1094.3 0.346361 -1.4533 0
M  V30 11835 H 1096.18 3.27183 -2.65574 0
M  V30 11836 H 1094.86 2.84872 -1.5372 0
M  V30 11837 H 1093.77 1.50478 -3.42501 0
M  V30 11838 H 1095.1 1.99784 -4.4983 0
M  V30 11839 N 1096.75 1.52266 0.40654 0
M  V30 11840 C 1097.98 1.70057 1.1732 0
M  V30 11841 C 1098.39 0.41084 1.84686 0
M  V30 11842 O 1097.73 -0.623187 1.72806 0
M  V30 11843 C 1097.79 2.78197 2.27698 0
M  V30 11844 C 1097.46 4.19866 1.80447 0
M  V30 11845 C 1098.45 5.03621 1.29082 0
M  V30 11846 C 1096.14 4.66112 1.87202 0
M  V30 11847 C 1098.13 6.31694 0.850973 0
M  V30 11848 C 1095.82 5.94174 1.42829 0
M  V30 11849 C 1096.82 6.76794 0.918621 0
M  V30 11850 O 1096.51 8.02458 0.481302 0
M  V30 11851 H 1096.24 0.573137 0.358455 0
M  V30 11852 H 1098.79 1.99615 0.484064 0
M  V30 11853 H 1097.02 2.44022 2.99983 0
M  V30 11854 H 1098.71 2.84562 2.89446 0
M  V30 11855 H 1099.48 4.69083 1.23234 0
M  V30 11856 H 1095.36 4.01905 2.25816 0
M  V30 11857 H 1098.9 6.96131 0.452471 0
M  V30 11858 H 1094.8 6.2822 1.48358 0
M  V30 11859 H 1095.57 8.16266 0.604376 0
M  V30 11860 N 1098.23 -0.663929 1.42933 0
M  V30 11861 C 1099.48 -1.41973 1.43271 0
M  V30 11862 C 1099.79 -1.95518 0.0566103 0
M  V30 11863 O 1101 -2.71428 -0.0625862 0
M  V30 11864 C 1099.45 -2.56882 2.52071 0
M  V30 11865 C 1099.06 -2.0999 3.95737 0
M  V30 11866 C 1100.8 -3.34322 2.61589 0
M  V30 11867 C 1098.71 -3.22046 4.96025 0
M  V30 11868 H 1097.64 -0.5334 0.532917 0
M  V30 11869 H 1100.29 -0.717709 1.68882 0
M  V30 11870 H 1098.67 -3.29504 2.19643 0
M  V30 11871 H 1099.85 -1.44449 4.37574 0
M  V30 11872 H 1098.16 -1.45459 3.90168 0
M  V30 11873 H 1100.76 -4.17796 3.33692 0
M  V30 11874 H 1101.1 -3.8164 1.66302 0
M  V30 11875 H 1101.64 -2.68775 2.93266 0
M  V30 11876 H 1098.38 -2.79708 5.92827 0
M  V30 11877 H 1097.9 -3.86333 4.5881 0
M  V30 11878 H 1099.57 -3.87345 5.1824 0
M  V30 11879 N 1099.71 -1.29285 -0.901281 0
M  V30 11880 C 1100.62 -1.16161 -2.03823 0
M  V30 11881 C 1101.63 -0.0852298 -1.73791 0
M  V30 11882 O 1102.81 -0.29699 -1.99198 0
M  V30 11883 C 1099.87 -0.837586 -3.3643 0
M  V30 11884 C 1098.93 -1.99764 -3.7999 0
M  V30 11885 C 1098.17 -1.68898 -5.0627 0
M  V30 11886 O 1098.39 -0.609177 -5.67138 0
M  V30 11887 O 1097.32 -2.53648 -5.45845 0
M  V30 11888 H 1101.15 -2.11635 -2.17817 0
M  V30 11889 H 1098.74 -1.08722 -1.02468 0
M  V30 11890 H 1100.62 -0.671376 -4.16017 0
M  V30 11891 H 1099.29 0.0873811 -3.23582 0
M  V30 11892 H 1098.2 -2.21908 -3.01177 0
M  V30 11893 H 1099.53 -2.90376 -3.9742 0
M  V30 11894 N 1101.18 1.11143 -1.11736 0
M  V30 11895 C 1102.12 2.1705 -0.736325 0
M  V30 11896 C 1103.13 1.61116 0.233528 0
M  V30 11897 O 1104.32 1.78493 0.0159602 0
M  V30 11898 C 1101.42 3.38832 -0.067974 0
M  V30 11899 C 1100.59 4.24226 -1.06543 0
M  V30 11900 C 1099.65 5.24472 -0.426063 0
M  V30 11901 O 1098.68 5.58843 -1.0809 0
M  V30 11902 N 1099.88 5.74825 0.809711 0
M  V30 11903 H 1102.64 2.50349 -1.64758 0
M  V30 11904 H 1100.2 1.26693 -1.00799 0
M  V30 11905 H 1102.2 4.02991 0.371563 0
M  V30 11906 H 1100.77 3.0357 0.745917 0
M  V30 11907 H 1099.99 3.56475 -1.68283 0
M  V30 11908 H 1101.27 4.78117 -1.74016 0
M  V30 11909 H 1100.67 5.49088 1.36084 0
M  V30 11910 H 1099.23 6.40804 1.19218 0
M  V30 11911 N 1102.66 0.908147 1.28804 0
M  V30 11912 C 1104.08 0.605474 1.47669 0
M  V30 11913 C 1104.28 -0.850759 1.82659 0
M  V30 11914 O 1103.33 -1.63029 1.92816 0
M  V30 11915 C 1104.65 1.53856 2.58358 0
M  V30 11916 C 1106.2 1.54467 2.7223 0
M  V30 11917 C 1106.67 2.46424 3.86056 0
M  V30 11918 N 1108.16 2.44519 3.93402 0
M  V30 11919 C 1108.9 3.12371 4.80845 0
M  V30 11920 N 1108.39 3.89533 5.72919 0
M  V30 11921 N 1110.19 3.01486 4.74407 0
M  V30 11922 H 1102.34 1.84988 1.04371 0
M  V30 11923 H 1104.6 0.793132 0.519274 0
M  V30 11924 H 1104.31 2.57651 2.39393 0
M  V30 11925 H 1104.18 1.26543 3.5534 0
M  V30 11926 H 1106.57 0.514127 2.90587 0
M  V30 11927 H 1106.65 1.85821 1.75796 0
M  V30 11928 H 1106.29 3.49577 3.68454 0
M  V30 11929 H 1106.22 2.12375 4.81876 0
M  V30 11930 H 1108.71 1.88464 3.27551 0
M  V30 11931 H 1109.03 4.3834 6.36457 0
M  V30 11932 H 1107.37 3.93639 5.72777 0
M  V30 11933 H 1110.56 2.40713 4.01466 0
M  V30 11934 H 1110.73 3.5464 5.42342 0
M  V30 11935 N 1104.14 -1.42577 0.671525 0
M  V30 11936 C 1105.09 -2.30798 -0.00883676 0
M  V30 11937 C 1106.06 -1.4578 -0.796076 0
M  V30 11938 O 1107.24 -1.74617 -0.768987 0
M  V30 11939 C 1104.38 -3.31581 -0.956452 0
M  V30 11940 C 1103.5 -4.31691 -0.163381 0
M  V30 11941 C 1102.63 -5.19549 -1.10645 0
M  V30 11942 C 1101.67 -6.1134 -0.304876 0
M  V30 11943 N 1100.81 -6.91761 -1.20048 0
M  V30 11944 H 1105.65 -2.88426 0.749301 0
M  V30 11945 H 1103.18 -1.42074 0.381251 0
M  V30 11946 H 1105.14 -3.88539 -1.51966 0
M  V30 11947 H 1103.77 -2.75561 -1.68126 0
M  V30 11948 H 1102.82 -3.76879 0.516396 0
M  V30 11949 H 1104.14 -4.96683 0.459099 0
M  V30 11950 H 1103.29 -5.81223 -1.73969 0
M  V30 11951 H 1102.03 -4.54726 -1.76282 0
M  V30 11952 H 1101.03 -5.48738 0.341597 0
M  V30 11953 H 1102.26 -6.78211 0.347352 0
M  V30 11954 H 1100.2 -6.2957 -1.84331 0
M  V30 11955 H 1100.12 -7.53345 -0.633003 0
M  V30 11956 H 1101.39 -7.57924 -1.82129 0
M  V30 11957 N 1105.62 -0.414636 -1.52048 0
M  V30 11958 C 1107.03 0.0537107 -1.86623 0
M  V30 11959 C 1107.38 1.43955 -1.3331 0
M  V30 11960 O 1106.51 2.05616 -0.674606 0
M  V30 11961 C 1107.1 0.104241 -3.3864 0
M  V30 11962 C 1105.66 0.516936 -3.72833 0
M  V30 11963 C 1104.81 -0.305042 -2.75617 0
M  V30 11964 H 1107.76 -0.631469 -1.45596 0
M  V30 11965 H 1107.78 0.918395 -3.6925 0
M  V30 11966 H 1107.29 -0.904523 -3.77412 0
M  V30 11967 H 1105.39 1.53214 -3.39641 0
M  V30 11968 H 1105.5 0.2575 -4.78408 0
M  V30 11969 H 1103.87 0.233416 -2.53628 0
M  V30 11970 H 1104.65 -1.31226 -3.1723 0
M  V30 11971 N 1107.1 1.56929 -0.145233 0
M  V30 11972 C 1108.34 1.97959 0.509092 0
M  V30 11973 C 1108.7 1.02813 1.62153 0
M  V30 11974 O 1109.9 1.3288 2.33659 0
M  V30 11975 C 1108.17 3.43012 1.00388 0
M  V30 11976 S 1109.73 4.06064 1.66305 0
M  V30 11977 H 1106.55 0.69167 0.164663 0
M  V30 11978 H 1109.15 1.94064 -0.236529 0
M  V30 11979 H 1107.86 4.0999 0.183454 0
M  V30 11980 H 1107.39 3.50615 1.78417 0
M  V30 11981 H 1109.4 3.98971 2.9502 0
M  V30 11982 N 1108.58 -0.128553 1.57075 0
M  V30 11983 C 1109.85 -0.867766 1.75297 0
M  V30 11984 C 1110.23 -1.98508 0.718176 0
M  V30 11985 O 1109.58 -2.2702 -0.259616 0
M  V30 11986 C 1109.79 -1.39326 3.19983 0
M  V30 11987 C 1111.14 -1.84939 3.82208 0
M  V30 11988 O 1112.16 -1.49027 3.23527 0
M  V30 11989 O 1111.02 -2.51227 4.85332 0
M  V30 11990 H 1108.12 -0.411393 0.717415 0
M  V30 11991 H 1110.66 -0.113038 1.69323 0
M  V30 11992 H 1109.43 -0.591172 3.86809 0
M  V30 11993 H 1109.06 -2.21097 3.30457 0
M  V30 11994 N 1110.05 -1.5248 -0.398459 0
M  V30 11995 C 1111.28 -1.70925 -1.16586 0
M  V30 11996 C 1111.7 -0.42342 -1.83991 0
M  V30 11997 O 1111.05 0.601395 -1.72306 0
M  V30 11998 C 1111.1 -2.85226 -2.22099 0
M  V30 11999 O 1110.83 -4.08831 -1.57444 0
M  V30 12000 C 1112.33 -3.15272 -3.11639 0
M  V30 12001 H 1109.55 -0.572533 -0.349924 0
M  V30 12002 H 1112.09 -1.99087 -0.467416 0
M  V30 12003 H 1110.25 -2.59553 -2.87595 0
M  V30 12004 H 1110.66 -4.72603 -2.2748 0
M  V30 12005 H 1112.13 -3.98737 -3.81724 0
M  V30 12006 H 1112.61 -2.29262 -3.74614 0
M  V30 12007 H 1113.22 -3.42749 -2.518 0
M  V30 12008 N 1111.53 0.65634 -1.43283 0
M  V30 12009 C 1112.46 1.78122 -1.42646 0
M  V30 12010 C 1113.44 1.60024 -0.288301 0
M  V30 12011 O 1114.63 1.82249 -0.481407 0
M  V30 12012 C 1111.75 3.1538 -1.23505 0
M  V30 12013 C 1110.8 3.52186 -2.40556 0
M  V30 12014 S 1111.63 3.52515 -4.03105 0
M  V30 12015 C 1112.79 4.92435 -3.8634 0
M  V30 12016 H 1113.02 1.78391 -2.37832 0
M  V30 12017 H 1110.55 0.828699 -1.30276 0
M  V30 12018 H 1112.51 3.94598 -1.13148 0
M  V30 12019 H 1111.17 3.12676 -0.298726 0
M  V30 12020 H 1110.37 4.52002 -2.22959 0
M  V30 12021 H 1109.97 2.80373 -2.47522 0
M  V30 12022 H 1112.26 5.81011 -3.48472 0
M  V30 12023 H 1113.2 5.15082 -4.85897 0
M  V30 12024 H 1113.61 4.65823 -3.18857 0
M  V30 12025 N 1113.01 1.29761 0.894412 0
M  V30 12026 C 1113.96 1.15341 1.99912 0
M  V30 12027 C 1114.93 0.0453488 1.66038 0
M  V30 12028 O 1116.11 0.213829 1.89598 0
M  V30 12029 C 1113.25 0.841432 3.34685 0
M  V30 12030 C 1112.36 2.03046 3.81309 0
M  V30 12031 C 1111.5 1.65739 5.04682 0
M  V30 12032 C 1110.54 2.81191 5.43689 0
M  V30 12033 N 1109.68 2.44244 6.58247 0
M  V30 12034 H 1114.52 2.09854 2.11578 0
M  V30 12035 H 1112.05 1.04421 1.03608 0
M  V30 12036 H 1114.01 0.641211 4.12243 0
M  V30 12037 H 1112.64 -0.066797 3.22731 0
M  V30 12038 H 1111.69 2.34222 2.9974 0
M  V30 12039 H 1113 2.89538 4.06164 0
M  V30 12040 H 1112.16 1.42036 5.8984 0
M  V30 12041 H 1110.9 0.764019 4.81678 0
M  V30 12042 H 1109.9 3.0557 4.57064 0
M  V30 12043 H 1111.13 3.712 5.68672 0
M  V30 12044 H 1109.07 1.57402 6.36837 0
M  V30 12045 H 1108.99 3.24269 6.82924 0
M  V30 12046 H 1110.26 2.23875 7.46659 0
M  V30 12047 N 1114.49 -1.10549 1.12324 0
M  V30 12048 C 1115.73 -1.82755 0.879117 0
M  V30 12049 C 1116.07 -1.84905 -0.593604 0
M  V30 12050 O 1115.34 -1.30884 -1.43873 0
M  V30 12051 C 1115.62 -3.29481 1.45308 0
M  V30 12052 C 1115.48 -3.3567 2.99408 0
M  V30 12053 C 1116.8 -4.25828 1.11167 0
M  V30 12054 H 1113.92 -0.663513 0.32081 0
M  V30 12055 H 1116.56 -1.29572 1.38965 0
M  V30 12056 H 1114.71 -3.74902 1.01887 0
M  V30 12057 H 1116.38 -2.98739 3.515 0
M  V30 12058 H 1114.62 -2.75606 3.34998 0
M  V30 12059 H 1115.29 -4.38983 3.34661 0
M  V30 12060 H 1117.77 -3.88635 1.48667 0
M  V30 12061 H 1116.65 -5.26857 1.53991 0
M  V30 12062 H 1116.91 -4.42094 0.0237046 0
M  V30 12063 N 1115.97 -0.914965 -1.28321 0
M  V30 12064 C 1117.21 -0.547665 -1.94538 0
M  V30 12065 C 1117.53 0.911834 -1.72368 0
M  V30 12066 O 1116.8 1.64481 -1.06408 0
M  V30 12067 H 1115.38 -0.199549 -0.719853 0
M  V30 12068 H 1118.05 -1.16459 -1.5628 0
M  V30 12069 H 1117.14 -0.743138 -3.03124 0
M  V30 12070 N 1117.44 1.42219 -0.679077 0
M  V30 12071 C 1118.69 2.01081 -0.202718 0
M  V30 12072 C 1119.01 1.53986 1.19639 0
M  V30 12073 O 1118.28 0.763359 1.80415 0
M  V30 12074 H 1116.86 0.743526 -0.0719547 0
M  V30 12075 H 1119.52 1.74077 -0.876544 0
M  V30 12076 H 1118.62 3.11411 -0.207314 0
M  V30 12077 N 1118.92 0.422693 1.51826 0
M  V30 12078 C 1119.87 -0.41063 2.28947 0
M  V30 12079 C 1120.86 -1.03389 1.34191 0
M  V30 12080 O 1122.07 -0.970533 1.51594 0
M  V30 12081 H 1118.44 -0.151219 0.736639 0
M  V30 12082 H 1120.42 0.260859 2.97258 0
M  V30 12083 C 1119.16 -1.50758 3.13317 0
M  V30 12084 H 1118.49 -1.03734 3.86108 0
M  V30 12085 H 1119.93 -2.0642 3.7036 0
M  V30 12086 C 1118.39 -2.48261 2.27746 0
M  V30 12087 O 1118.92 -3.52462 1.92701 0
M  V30 12088 N 1117.12 -2.18795 1.91251 0
M  V30 12089 H 1116.67 -1.34088 2.1995 0
M  V30 12090 H 1116.63 -2.84276 1.34293 0
M  V30 12091 N 1120.4 -1.5685 0.153553 0
M  V30 12092 C 1121.33 -2.20101 -0.779601 0
M  V30 12093 C 1122.31 -1.15121 -1.25225 0
M  V30 12094 O 1123.5 -1.43487 -1.30862 0
M  V30 12095 C 1120.63 -2.82778 -2.01628 0
M  V30 12096 C 1119.58 -3.93643 -1.68015 0
M  V30 12097 C 1118.91 -4.43286 -2.99001 0
M  V30 12098 C 1120.21 -5.14102 -0.921774 0
M  V30 12099 H 1121.9 -2.98334 -0.252432 0
M  V30 12100 H 1119.45 -1.43499 -0.119975 0
M  V30 12101 H 1121.4 -3.25696 -2.67395 0
M  V30 12102 H 1120.12 -2.01887 -2.56728 0
M  V30 12103 H 1118.78 -3.51354 -1.04624 0
M  V30 12104 H 1118.43 -3.59208 -3.52106 0
M  V30 12105 H 1118.13 -5.18068 -2.77272 0
M  V30 12106 H 1119.65 -4.88878 -3.65828 0
M  V30 12107 H 1121.07 -5.53823 -1.48167 0
M  V30 12108 H 1119.46 -5.94687 -0.804185 0
M  V30 12109 H 1120.53 -4.84825 0.0852757 0
M  V30 12110 N 1121.88 0.120221 -1.57141 0
M  V30 12111 C 1123.15 0.858458 -1.75755 0
M  V30 12112 C 1123.53 1.98124 -0.728693 0
M  V30 12113 O 1122.88 2.27155 0.247573 0
M  V30 12114 C 1123.09 1.37627 -3.20718 0
M  V30 12115 C 1124.44 1.82909 -3.83183 0
M  V30 12116 O 1125.46 1.47309 -3.24312 0
M  V30 12117 O 1124.32 2.4865 -4.86657 0
M  V30 12118 H 1121.42 0.407583 -0.719587 0
M  V30 12119 H 1123.96 0.104057 -1.69381 0
M  V30 12120 H 1122.74 0.570651 -3.87117 0
M  V30 12121 H 1122.36 2.19341 -3.31625 0
M  V30 12122 N 1123.36 1.52689 0.390367 0
M  V30 12123 C 1124.58 1.71839 1.16129 0
M  V30 12124 C 1125.01 0.435226 1.82996 0
M  V30 12125 O 1124.36 -0.60889 1.70769 0
M  V30 12126 C 1124.41 2.86784 2.18603 0
M  V30 12127 O 1123.52 2.53662 3.25161 0
M  V30 12128 H 1122.86 0.571455 0.338135 0
M  V30 12129 H 1125.39 1.99475 0.45508 0
M  V30 12130 H 1125.4 3.12239 2.62622 0
M  V30 12131 H 1124.07 3.79872 1.69322 0
M  V30 12132 H 1122.65 2.38942 2.86289 0
M  V30 12133 N 1124.83 -0.648732 1.43629 0
M  V30 12134 C 1125.78 -1.76145 1.49136 0
M  V30 12135 C 1126.75 -1.62569 0.340649 0
M  V30 12136 O 1127.94 -1.82748 0.548435 0
M  V30 12137 C 1125.08 -3.14321 1.42466 0
M  V30 12138 C 1124.19 -3.38999 2.67776 0
M  V30 12139 C 1123.32 -4.67047 2.53062 0
M  V30 12140 C 1122.36 -4.84845 3.7362 0
M  V30 12141 N 1121.5 -6.04155 3.57689 0
M  V30 12142 H 1126.34 -1.70774 2.44213 0
M  V30 12143 H 1123.88 -0.833311 1.2122 0
M  V30 12144 H 1125.84 -3.94206 1.36592 0
M  V30 12145 H 1124.47 -3.18751 0.509666 0
M  V30 12146 H 1123.52 -2.53179 2.83909 0
M  V30 12147 H 1124.83 -3.48035 3.57314 0
M  V30 12148 H 1123.98 -5.55066 2.44922 0
M  V30 12149 H 1122.72 -4.60339 1.61056 0
M  V30 12150 H 1121.73 -3.95261 3.82163 0
M  V30 12151 H 1122.95 -4.9338 4.6664 0
M  V30 12152 H 1120.9 -5.9857 2.6842 0
M  V30 12153 H 1120.82 -6.14169 4.40832 0
M  V30 12154 H 1122.08 -6.94782 3.53409 0
M  V30 12155 N 1126.31 -1.30234 -0.887518 0
M  V30 12156 C 1127.56 -1.18675 -1.63587 0
M  V30 12157 C 1127.88 0.259342 -1.93268 0
M  V30 12158 O 1127.15 1.17523 -1.56733 0
M  V30 12159 H 1125.73 -0.436224 -0.606397 0
M  V30 12160 H 1128.39 -1.63326 -1.06351 0
M  V30 12161 H 1127.49 -1.74575 -2.58708 0
M  V30 12162 N 1127.79 1.09952 -1.12909 0
M  V30 12163 C 1129.02 1.8552 -0.909163 0
M  V30 12164 C 1129.43 1.81173 0.545253 0
M  V30 12165 O 1128.77 1.20223 1.38896 0
M  V30 12166 C 1128.83 3.34693 -1.31228 0
M  V30 12167 C 1128.5 3.62794 -2.77902 0
M  V30 12168 C 1129.49 3.58973 -3.76078 0
M  V30 12169 C 1127.18 3.91311 -3.1493 0
M  V30 12170 C 1129.17 3.83271 -5.09296 0
M  V30 12171 C 1126.86 4.15265 -4.48328 0
M  V30 12172 C 1127.86 4.11236 -5.4532 0
M  V30 12173 O 1127.55 4.34576 -6.76313 0
M  V30 12174 H 1127.28 0.59303 -0.324486 0
M  V30 12175 H 1129.83 1.39878 -1.5041 0
M  V30 12176 H 1128.06 3.81016 -0.660573 0
M  V30 12177 H 1129.75 3.9166 -1.06569 0
M  V30 12178 H 1130.52 3.36974 -3.48817 0
M  V30 12179 H 1126.4 3.93575 -2.40041 0
M  V30 12180 H 1129.94 3.80041 -5.84991 0
M  V30 12181 H 1125.84 4.36743 -4.75316 0
M  V30 12182 H 1126.61 4.52065 -6.82334 0
M  V30 12183 N 1129.27 0.921757 1.27833 0
M  V30 12184 C 1130.52 0.557974 1.94245 0
M  V30 12185 C 1130.84 -0.90268 1.72849 0
M  V30 12186 O 1130.11 -1.63915 1.07279 0
M  V30 12187 H 1128.69 0.203364 0.718785 0
M  V30 12188 H 1131.35 1.17286 1.5566 0
M  V30 12189 H 1130.45 0.759202 3.02725 0
M  V30 12190 N 1130.75 -1.41857 0.686609 0
M  V30 12191 C 1131.99 -2.01666 0.214118 0
M  V30 12192 C 1132.33 -1.5422 -1.18025 0
M  V30 12193 O 1131.6 -0.749482 -1.7948 0
M  V30 12194 C 1131.88 -3.59147 0.261841 0
M  V30 12195 C 1131.74 -4.16742 1.69251 0
M  V30 12196 C 1133.06 -4.38427 -0.383378 0
M  V30 12197 H 1130.17 -0.732724 0.0792785 0
M  V30 12198 H 1132.82 -1.68724 0.873633 0
M  V30 12199 H 1130.97 -3.87342 -0.29971 0
M  V30 12200 H 1132.64 -3.99456 2.30722 0
M  V30 12201 H 1130.88 -3.72124 2.2295 0
M  V30 12202 H 1131.55 -5.25894 1.6775 0
M  V30 12203 H 1134.03 -4.15992 0.0947701 0
M  V30 12204 H 1132.9 -5.4797 -0.319401 0
M  V30 12205 H 1133.17 -4.172 -1.46276 0
M  V30 12206 N 1132.22 -0.430739 -1.51599 0
M  V30 12207 C 1133.19 0.372319 -2.26156 0
M  V30 12208 C 1134.19 0.955338 -1.29344 0
M  V30 12209 O 1135.38 0.830823 -1.53111 0
M  V30 12210 C 1132.51 1.52613 -3.04831 0
M  V30 12211 H 1133.7 -0.280996 -2.98581 0
M  V30 12212 H 1131.26 -0.183749 -1.55216 0
M  V30 12213 H 1131.99 2.21569 -2.36807 0
M  V30 12214 H 1131.78 1.11433 -3.75932 0
M  V30 12215 H 1133.27 2.09366 -3.61325 0
M  V30 12216 N 1133.7 1.56767 -0.161869 0
M  V30 12217 C 1134.93 2.00964 0.492027 0
M  V30 12218 C 1135.35 1.04206 1.57437 0
M  V30 12219 O 1134.7 0.0413998 1.82453 0
M  V30 12220 C 1134.75 3.4502 1.07904 0
M  V30 12221 O 1134.47 4.38082 0.0399085 0
M  V30 12222 C 1135.98 4.04572 1.81209 0
M  V30 12223 H 1133.2 0.658911 0.126797 0
M  V30 12224 H 1135.74 2.0283 -0.260824 0
M  V30 12225 H 1133.89 3.43959 1.78243 0
M  V30 12226 H 1134.31 5.22372 0.471985 0
M  V30 12227 H 1135.78 5.07321 2.17554 0
M  V30 12228 H 1136.26 3.46126 2.70359 0
M  V30 12229 H 1136.87 4.09307 1.15534 0
M  V30 12230 N 1135.18 -0.111886 1.57202 0
M  V30 12231 C 1136.59 -0.668261 1.74331 0
M  V30 12232 C 1136.94 -1.79959 0.781609 0
M  V30 12233 O 1136.07 -2.16356 -0.043833 0
M  V30 12234 C 1136.66 -1.219 3.1611 0
M  V30 12235 C 1135.22 -1.7216 3.34721 0
M  V30 12236 C 1134.37 -0.624223 2.70183 0
M  V30 12237 H 1137.32 0.114081 1.58289 0
M  V30 12238 H 1137.34 -2.08858 3.18054 0
M  V30 12239 H 1136.85 -0.395381 3.86081 0
M  V30 12240 H 1134.95 -2.56976 2.69803 0
M  V30 12241 H 1135.07 -1.82615 4.42932 0
M  V30 12242 H 1133.43 -1.05958 2.31614 0
M  V30 12243 H 1134.21 0.188537 3.42782 0
M  V30 12244 N 1136.66 -1.52894 -0.382264 0
M  V30 12245 C 1137.61 -1.78151 -1.46734 0
M  V30 12246 C 1138.58 -0.625034 -1.53891 0
M  V30 12247 O 1139.76 -0.865467 -1.70042 0
M  V30 12248 C 1136.9 -1.96223 -2.83885 0
M  V30 12249 C 1136.01 -3.23925 -2.85826 0
M  V30 12250 C 1135.15 -3.32277 -4.14446 0
M  V30 12251 C 1134.19 -4.54076 -4.10465 0
M  V30 12252 N 1133.32 -4.59672 -5.30703 0
M  V30 12253 H 1138.16 -2.70748 -1.24497 0
M  V30 12254 H 1135.7 -1.34135 -0.603838 0
M  V30 12255 H 1137.66 -2.04686 -3.63537 0
M  V30 12256 H 1136.29 -1.0698 -3.04557 0
M  V30 12257 H 1135.34 -3.245 -1.98505 0
M  V30 12258 H 1136.65 -4.1364 -2.78754 0
M  V30 12259 H 1135.81 -3.3996 -5.02506 0
M  V30 12260 H 1134.55 -2.40548 -4.2425 0
M  V30 12261 H 1133.55 -4.46511 -3.20793 0
M  V30 12262 H 1134.78 -5.47128 -4.02278 0
M  V30 12263 H 1132.72 -3.70838 -5.41124 0
M  V30 12264 H 1132.64 -5.43268 -5.25734 0
M  V30 12265 H 1133.91 -4.71618 -6.20642 0
M  V30 12266 N 1138.14 0.641106 -1.43971 0
M  V30 12267 C 1139.39 1.39807 -1.4594 0
M  V30 12268 C 1139.71 1.94795 -0.0893874 0
M  V30 12269 O 1138.98 1.75175 0.876962 0
M  V30 12270 H 1137.56 0.518908 -0.537349 0
M  V30 12271 H 1140.22 0.755278 -1.79671 0
M  V30 12272 H 1139.31 2.23439 -2.17903 0
M  V30 12273 N 1139.62 1.30703 0.880598 0
M  V30 12274 C 1140.84 1.22843 1.67106 0
M  V30 12275 C 1141.27 -0.204788 1.86982 0
M  V30 12276 O 1140.62 -1.14716 1.40392 0
M  V30 12277 C 1140.67 1.96685 3.02237 0
M  V30 12278 O 1139.78 1.29693 3.91476 0
M  V30 12279 H 1139.12 0.424661 0.51045 0
M  V30 12280 H 1141.65 1.72596 1.09871 0
M  V30 12281 H 1141.66 2.05874 3.52249 0
M  V30 12282 H 1140.33 3.00919 2.8709 0
M  V30 12283 H 1138.91 1.28886 3.49918 0
M  V30 12284 N 1141.09 -1.09351 1.1349 0
M  V30 12285 C 1142.06 -2.14185 0.815919 0
M  V30 12286 C 1143.06 -1.59845 -0.174976 0
M  V30 12287 O 1144.25 -1.74122 0.0521971 0
M  V30 12288 C 1141.38 -3.40224 0.214517 0
M  V30 12289 H 1142.57 -2.43913 1.74489 0
M  V30 12290 H 1140.12 -1.24902 0.939634 0
M  V30 12291 H 1140.86 -3.16123 -0.723634 0
M  V30 12292 H 1140.64 -3.80958 0.928102 0
M  V30 12293 H 1142.13 -4.17599 0.00821999 0
M  V30 12294 N 1142.57 -0.928524 -1.27343 0
M  V30 12295 C 1143.5 -0.445627 -2.29208 0
M  V30 12296 C 1144.48 0.494508 -1.62753 0
M  V30 12297 O 1145.67 0.399082 -1.90055 0
M  V30 12298 C 1142.8 0.301684 -3.45987 0
M  V30 12299 C 1141.75 -0.550695 -4.24442 0
M  V30 12300 C 1141.08 0.325833 -5.33706 0
M  V30 12301 C 1142.38 -1.81559 -4.89728 0
M  V30 12302 H 1144.07 -1.29696 -2.69851 0
M  V30 12303 H 1141.62 -0.625085 -1.29725 0
M  V30 12304 H 1143.57 0.650455 -4.1635 0
M  V30 12305 H 1142.29 1.18705 -3.04264 0
M  V30 12306 H 1140.95 -0.882185 -3.55827 0
M  V30 12307 H 1140.6 1.21018 -4.88225 0
M  V30 12308 H 1140.3 -0.240994 -5.87106 0
M  V30 12309 H 1141.83 0.670156 -6.06911 0
M  V30 12310 H 1143.24 -1.53483 -5.52373 0
M  V30 12311 H 1141.64 -2.32598 -5.53189 0
M  V30 12312 H 1142.71 -2.53461 -4.13383 0
M  V30 12313 N 1144.05 1.41491 -0.694123 0
M  V30 12314 C 1145.47 1.55358 -0.365532 0
M  V30 12315 C 1145.67 1.66994 1.12762 0
M  V30 12316 O 1144.72 1.64756 1.91342 0
M  V30 12317 C 1146.03 2.79352 -1.11279 0
M  V30 12318 C 1147.58 2.93147 -1.097 0
M  V30 12319 C 1148.06 4.20027 -1.82597 0
M  V30 12320 N 1149.55 4.26981 -1.7956 0
M  V30 12321 C 1150.28 5.24013 -2.32805 0
M  V30 12322 N 1149.78 6.27083 -2.94515 0
M  V30 12323 N 1151.57 5.15943 -2.23069 0
M  V30 12324 H 1143.72 1.32183 -1.66257 0
M  V30 12325 H 1145.99 0.637624 -0.701527 0
M  V30 12326 H 1145.69 2.76958 -2.16765 0
M  V30 12327 H 1145.57 3.70827 -0.690439 0
M  V30 12328 H 1147.95 2.95057 -0.0504037 0
M  V30 12329 H 1148.03 2.02849 -1.55839 0
M  V30 12330 H 1147.68 4.18878 -2.87235 0
M  V30 12331 H 1147.61 5.09294 -1.33893 0
M  V30 12332 H 1150.1 3.53129 -1.34567 0
M  V30 12333 H 1150.41 6.97511 -3.32714 0
M  V30 12334 H 1148.76 6.27589 -2.98592 0
M  V30 12335 H 1151.95 4.34346 -1.74532 0
M  V30 12336 H 1152.12 5.91396 -2.64868 0
M  V30 12337 N 1145.53 0.438773 1.51369 0
M  V30 12338 C 1146.48 -0.386324 2.29369 0
M  V30 12339 C 1147.47 -1.0196 1.3528 0
M  V30 12340 O 1148.68 -0.9544 1.52615 0
M  V30 12341 H 1145.05 -0.143397 0.738201 0
M  V30 12342 H 1147.02 0.292372 2.96964 0
M  V30 12343 C 1145.77 -1.47426 3.14898 0
M  V30 12344 H 1145.09 -0.996335 3.87186 0
M  V30 12345 H 1146.53 -2.02481 3.72529 0
M  V30 12346 C 1144.99 -2.45831 2.30366 0
M  V30 12347 O 1145.52 -3.50398 1.96428 0
M  V30 12348 N 1143.73 -2.16754 1.93561 0
M  V30 12349 H 1143.28 -1.31748 2.2136 0
M  V30 12350 H 1143.23 -2.82836 1.373 0
M  V30 12351 N 1147.01 -1.56678 0.170181 0
M  V30 12352 C 1147.97 -2.16698 -0.746622 0
M  V30 12353 C 1148.97 -1.11475 -1.15888 0
M  V30 12354 O 1150.16 -1.36994 -1.07602 0
M  V30 12355 C 1147.29 -2.74892 -2.01612 0
M  V30 12356 H 1148.48 -2.99061 -0.224135 0
M  V30 12357 H 1146.04 -1.56098 -0.0793761 0
M  V30 12358 H 1146.77 -1.96259 -2.58172 0
M  V30 12359 H 1146.56 -3.51896 -1.72949 0
M  V30 12360 H 1148.05 -3.21058 -2.67042 0
M  V30 12361 N 1148.48 0.103547 -1.57259 0
M  V30 12362 C 1149.73 0.809774 -1.85931 0
M  V30 12363 C 1150.06 1.78791 -0.758122 0
M  V30 12364 O 1149.34 1.93079 0.234682 0
M  V30 12365 C 1149.62 1.54601 -3.25224 0
M  V30 12366 C 1149.47 0.586439 -4.45961 0
M  V30 12367 C 1150.79 2.4986 -3.62296 0
M  V30 12368 H 1147.91 0.29293 -0.676285 0
M  V30 12369 H 1150.55 0.0736065 -1.89857 0
M  V30 12370 H 1148.7 2.17355 -3.22008 0
M  V30 12371 H 1150.38 -0.0334441 -4.61288 0
M  V30 12372 H 1148.62 -0.10085 -4.33683 0
M  V30 12373 H 1149.29 1.13855 -5.40131 0
M  V30 12374 H 1151.77 1.97203 -3.66402 0
M  V30 12375 H 1150.64 2.98396 -4.60707 0
M  V30 12376 H 1150.9 3.33233 -2.90531 0
M  V30 12377 N 1149.96 1.53094 0.37415 0
M  V30 12378 C 1150.91 1.79585 1.47824 0
M  V30 12379 C 1151.9 0.664513 1.55822 0
M  V30 12380 O 1153.11 0.84729 1.58811 0
M  V30 12381 H 1149.48 0.568474 0.492282 0
M  V30 12382 H 1151.46 2.72014 1.22681 0
M  V30 12383 C 1150.2 1.995 2.84772 0
M  V30 12384 H 1149.53 2.85991 2.79373 0
M  V30 12385 H 1150.97 2.22018 3.61226 0
M  V30 12386 C 1149.43 0.771673 3.27943 0
M  V30 12387 O 1149.96 -0.0437737 4.01676 0
M  V30 12388 N 1148.16 0.597547 2.8439 0
M  V30 12389 H 1147.71 1.26227 2.24554 0
M  V30 12390 H 1147.67 -0.219578 3.13632 0
M  V30 12391 N 1151.44 -0.633461 1.44309 0
M  V30 12392 C 1152.37 -1.75676 1.53819 0
M  V30 12393 C 1153.35 -1.65537 0.391365 0
M  V30 12394 O 1154.54 -1.84332 0.611181 0
M  V30 12395 C 1151.67 -3.14197 1.47979 0
M  V30 12396 C 1150.62 -3.39122 2.61113 0
M  V30 12397 C 1149.95 -4.77648 2.40325 0
M  V30 12398 C 1151.25 -3.31914 4.03274 0
M  V30 12399 H 1152.94 -1.67974 2.47841 0
M  V30 12400 H 1150.49 -0.8067 1.19283 0
M  V30 12401 H 1152.44 -3.92553 1.53233 0
M  V30 12402 H 1151.16 -3.22677 0.504718 0
M  V30 12403 H 1149.82 -2.63145 2.55245 0
M  V30 12404 H 1149.47 -4.82829 1.41016 0
M  V30 12405 H 1149.17 -4.95284 3.16177 0
M  V30 12406 H 1150.69 -5.58237 2.47394 0
M  V30 12407 H 1152.11 -4.00178 4.10524 0
M  V30 12408 H 1150.5 -3.61085 4.7931 0
M  V30 12409 H 1151.57 -2.29761 4.2701 0
M  V30 12410 N 1152.92 -1.31168 -0.873655 0
M  V30 12411 C 1153.88 -1.18471 -1.96207 0
M  V30 12412 C 1154.88 -0.112814 -1.60404 0
M  V30 12413 O 1156.07 -0.3618 -1.70401 0
M  V30 12414 C 1153.2 -0.817662 -3.30949 0
M  V30 12415 H 1154.4 -2.1518 -2.08896 0
M  V30 12416 H 1151.95 -1.14727 -1.06149 0
M  V30 12417 H 1152.68 0.148428 -3.2396 0
M  V30 12418 H 1152.47 -1.59244 -3.58307 0
M  V30 12419 H 1153.96 -0.75262 -4.10762 0
M  V30 12420 N 1154.4 1.08748 -1.14068 0
M  V30 12421 C 1155.64 1.81333 -0.908081 0
M  V30 12422 C 1155.98 1.85826 0.564112 0
M  V30 12423 O 1155.25 1.33157 1.41773 0
M  V30 12424 C 1155.53 3.27127 -1.50531 0
M  V30 12425 C 1155.39 3.30865 -3.04711 0
M  V30 12426 C 1156.71 4.24006 -1.17928 0
M  V30 12427 H 1153.82 0.658326 -0.331325 0
M  V30 12428 H 1156.47 1.27345 -1.41008 0
M  V30 12429 H 1154.62 3.73233 -1.07839 0
M  V30 12430 H 1156.29 2.93109 -3.56209 0
M  V30 12431 H 1154.53 2.70241 -3.39341 0
M  V30 12432 H 1155.2 4.33603 -3.41603 0
M  V30 12433 H 1157.68 3.86221 -1.54831 0
M  V30 12434 H 1156.55 5.2434 -1.62353 0
M  V30 12435 H 1156.82 4.42 -0.0940349 0
M  V30 12436 N 1155.87 0.935264 1.26849 0
M  V30 12437 C 1156.8 0.457776 2.28969 0
M  V30 12438 C 1157.79 -0.48587 1.63013 0
M  V30 12439 O 1158.97 -0.388998 1.90264 0
M  V30 12440 C 1156.1 -0.283332 3.46142 0
M  V30 12441 C 1155.05 0.573196 4.24144 0
M  V30 12442 C 1154.38 -0.297525 5.33872 0
M  V30 12443 C 1155.68 1.84153 4.88759 0
M  V30 12444 H 1157.37 1.31125 2.69159 0
M  V30 12445 H 1154.92 0.631956 1.29392 0
M  V30 12446 H 1156.87 -0.628366 4.16689 0
M  V30 12447 H 1155.6 -1.1709 3.04889 0
M  V30 12448 H 1154.26 0.901043 3.55354 0
M  V30 12449 H 1153.9 -1.18427 4.8886 0
M  V30 12450 H 1153.6 0.272126 5.8697 0
M  V30 12451 H 1155.13 -0.637961 6.07258 0
M  V30 12452 H 1156.54 1.5641 5.51551 0
M  V30 12453 H 1154.94 2.35528 5.51948 0
M  V30 12454 H 1156.01 2.5565 4.12033 0
M  V30 12455 N 1157.35 -1.41121 0.701616 0
M  V30 12456 C 1158.3 -2.30765 0.040121 0
M  V30 12457 C 1159.27 -1.47436 -0.764975 0
M  V30 12458 O 1160.45 -1.76209 -0.731775 0
M  V30 12459 C 1157.59 -3.33535 -0.885903 0
M  V30 12460 C 1156.71 -4.3194 -0.0717765 0
M  V30 12461 C 1155.84 -5.21779 -0.995996 0
M  V30 12462 C 1154.88 -6.11849 -0.175133 0
M  V30 12463 N 1154.02 -6.94151 -1.05348 0
M  V30 12464 H 1158.86 -2.86772 0.810312 0
M  V30 12465 H 1156.4 -1.41233 0.411301 0
M  V30 12466 H 1158.35 -3.91675 -1.4369 0
M  V30 12467 H 1156.98 -2.79065 -1.62243 0
M  V30 12468 H 1156.04 -3.75698 0.596221 0
M  V30 12469 H 1157.35 -4.95597 0.56435 0
M  V30 12470 H 1156.5 -5.84782 -1.61601 0
M  V30 12471 H 1155.24 -4.58363 -1.66597 0
M  V30 12472 H 1154.25 -5.4789 0.457916 0
M  V30 12473 H 1155.47 -6.77322 0.491133 0
M  V30 12474 H 1153.42 -6.33338 -1.70936 0
M  V30 12475 H 1153.33 -7.54518 -0.473065 0
M  V30 12476 H 1154.6 -7.61617 -1.66012 0
M  V30 12477 N 1158.83 -0.446794 -1.51134 0
M  V30 12478 C 1159.76 0.350229 -2.30858 0
M  V30 12479 C 1160.74 1.0125 -1.36684 0
M  V30 12480 O 1161.93 1.01433 -1.65605 0
M  V30 12481 C 1159.06 1.4464 -3.15748 0
M  V30 12482 C 1158.01 0.907102 -4.18277 0
M  V30 12483 C 1157.34 2.09974 -4.91747 0
M  V30 12484 C 1158.64 -0.0649758 -5.2226 0
M  V30 12485 H 1160.33 -0.315105 -2.97737 0
M  V30 12486 H 1157.88 -0.152985 -1.43185 0
M  V30 12487 H 1159.83 2.01127 -3.70305 0
M  V30 12488 H 1158.55 2.14016 -2.46708 0
M  V30 12489 H 1157.21 0.364382 -3.64785 0
M  V30 12490 H 1156.86 2.77991 -4.19202 0
M  V30 12491 H 1156.56 1.74523 -5.61084 0
M  V30 12492 H 1158.08 2.66996 -5.49131 0
M  V30 12493 H 1159.5 0.4099 -5.71833 0
M  V30 12494 H 1157.9 -0.332529 -5.99178 0
M  V30 12495 H 1158.97 -0.998681 -4.74504 0
M  V30 12496 N 1160.31 1.56586 -0.178487 0
M  V30 12497 C 1161.26 2.19631 0.765822 0
M  V30 12498 C 1162.25 1.16247 1.23219 0
M  V30 12499 O 1163.46 1.34431 1.19701 0
M  V30 12500 H 1159.83 0.703661 0.265264 0
M  V30 12501 H 1161.8 2.97659 0.210207 0
M  V30 12502 C 1160.55 2.85686 1.98188 0
M  V30 12503 H 1159.87 3.64971 1.63206 0
M  V30 12504 H 1161.31 3.33259 2.62134 0
M  V30 12505 C 1159.77 1.85837 2.81009 0
M  V30 12506 O 1160.3 1.3483 3.78396 0
M  V30 12507 N 1158.51 1.54435 2.46167 0
M  V30 12508 H 1158.06 1.96107 1.67032 0
M  V30 12509 H 1158.01 0.878808 3.01868 0
M  V30 12510 N 1161.79 -0.095206 1.57312 0
M  V30 12511 C 1162.7 -1.13388 2.05379 0
M  V30 12512 C 1163.71 -1.43868 0.978668 0
M  V30 12513 O 1164.89 -1.54512 1.29182 0
M  V30 12514 C 1161.95 -2.43444 2.46852 0
M  V30 12515 C 1161.01 -2.20146 3.68557 0
M  V30 12516 C 1160.25 -3.44001 4.08043 0
M  V30 12517 O 1160.47 -4.52233 3.47623 0
M  V30 12518 O 1159.4 -3.33596 5.00997 0
M  V30 12519 H 1163.23 -0.755622 2.9415 0
M  V30 12520 H 1160.82 -0.307707 1.46197 0
M  V30 12521 H 1162.7 -3.20027 2.74155 0
M  V30 12522 H 1161.37 -2.80696 1.61219 0
M  V30 12523 H 1160.28 -1.41345 3.46371 0
M  V30 12524 H 1161.61 -1.87787 4.54969 0
M  V30 12525 N 1163.26 -1.53291 -0.366026 0
M  V30 12526 C 1164.2 -1.75981 -1.46845 0
M  V30 12527 C 1165.21 -0.640574 -1.49668 0
M  V30 12528 O 1166.4 -0.916823 -1.53155 0
M  V30 12529 C 1163.5 -1.82426 -2.85611 0
M  V30 12530 C 1162.67 -3.12062 -3.0649 0
M  V30 12531 C 1161.73 -3.09755 -4.25368 0
M  V30 12532 O 1160.76 -3.83555 -4.20564 0
M  V30 12533 N 1161.96 -2.30544 -5.32757 0
M  V30 12534 H 1164.72 -2.71104 -1.2776 0
M  V30 12535 H 1162.28 -1.52063 -0.555745 0
M  V30 12536 H 1164.28 -1.78361 -3.63276 0
M  V30 12537 H 1162.85 -0.945888 -2.97946 0
M  V30 12538 H 1162.07 -3.29433 -2.16489 0
M  V30 12539 H 1163.35 -3.97735 -3.17308 0
M  V30 12540 H 1162.75 -1.70095 -5.39522 0
M  V30 12541 H 1161.31 -2.32298 -6.09 0
M  V30 12542 N 1164.74 0.6258 -1.44643 0
M  V30 12543 C 1165.99 1.38251 -1.47414 0
M  V30 12544 C 1166.31 1.94689 -0.110043 0
M  V30 12545 O 1165.58 1.76095 0.858333 0
M  V30 12546 H 1164.16 0.513179 -0.542823 0
M  V30 12547 H 1166.82 0.736179 -1.80462 0
M  V30 12548 H 1165.92 2.21115 -2.2026 0
M  V30 12549 N 1166.22 1.31629 0.866686 0
M  V30 12550 C 1167.15 1.22151 1.99001 0
M  V30 12551 C 1168.13 0.107972 1.69757 0
M  V30 12552 O 1169.32 0.293125 1.91975 0
M  V30 12553 C 1166.45 0.93144 3.34577 0
M  V30 12554 C 1165.4 2.0049 3.78137 0
M  V30 12555 C 1164.73 1.56747 5.11209 0
M  V30 12556 C 1166.03 3.41844 3.94892 0
M  V30 12557 H 1167.72 2.16132 2.0719 0
M  V30 12558 H 1165.27 1.04051 0.995463 0
M  V30 12559 H 1167.22 0.851719 4.12703 0
M  V30 12560 H 1165.94 -0.0440289 3.2657 0
M  V30 12561 H 1164.6 2.07457 3.02253 0
M  V30 12562 H 1164.25 0.579767 4.99648 0
M  V30 12563 H 1163.95 2.28562 5.41326 0
M  V30 12564 H 1165.47 1.50188 5.91841 0
M  V30 12565 H 1166.89 3.37534 4.63405 0
M  V30 12566 H 1165.29 4.11905 4.36411 0
M  V30 12567 H 1166.36 3.82389 2.98172 0
M  V30 12568 N 1167.7 -1.08142 1.14644 0
M  V30 12569 C 1168.63 -2.17139 0.858667 0
M  V30 12570 C 1169.61 -1.69064 -0.187452 0
M  V30 12571 O 1170.8 -1.94151 -0.0435458 0
M  V30 12572 C 1167.93 -3.45648 0.33834 0
M  V30 12573 C 1166.88 -4.07129 1.32021 0
M  V30 12574 C 1166.21 -5.30623 0.659075 0
M  V30 12575 C 1167.51 -4.48095 2.68343 0
M  V30 12576 H 1169.2 -2.41468 1.77012 0
M  V30 12577 H 1166.75 -1.16052 0.852523 0
M  V30 12578 H 1168.7 -4.21216 0.124611 0
M  V30 12579 H 1167.42 -3.2088 -0.608553 0
M  V30 12580 H 1166.08 -3.33596 1.52016 0
M  V30 12581 H 1165.73 -5.02142 -0.293711 0
M  V30 12582 H 1165.43 -5.72714 1.31427 0
M  V30 12583 H 1166.95 -6.08903 0.454933 0
M  V30 12584 H 1168.37 -5.14828 2.5224 0
M  V30 12585 H 1166.76 -5.01113 3.30161 0
M  V30 12586 H 1167.83 -3.59852 3.25015 0
M  V30 12587 N 1169.18 -0.941978 -1.26351 0
M  V30 12588 C 1170.45 -0.507822 -1.88893 0
M  V30 12589 C 1170.83 1.0146 -1.85119 0
M  V30 12590 O 1170.18 1.87495 -1.30606 0
M  V30 12591 C 1170.39 -1.07007 -3.3219 0
M  V30 12592 C 1171.74 -1.13922 -4.09032 0
M  V30 12593 O 1172.76 -1.02072 -3.41262 0
M  V30 12594 O 1171.62 -1.32362 -5.30229 0
M  V30 12595 H 1168.72 -0.165621 -0.810246 0
M  V30 12596 H 1171.26 -1.03459 -1.34515 0
M  V30 12597 H 1170.04 -2.11366 -3.29302 0
M  V30 12598 H 1169.66 -0.525797 -3.94108 0
M  V30 12599 N 1170.66 1.40747 -0.709091 0
M  V30 12600 C 1171.6 2.30741 -0.0523584 0
M  V30 12601 C 1172.57 1.4784 0.757145 0
M  V30 12602 O 1173.76 1.76595 0.72242 0
M  V30 12603 C 1170.9 3.34 0.868203 0
M  V30 12604 C 1170.01 4.31972 0.0488686 0
M  V30 12605 C 1169.15 5.223 0.968311 0
M  V30 12606 C 1168.18 6.11934 0.142682 0
M  V30 12607 N 1167.32 6.947 1.01665 0
M  V30 12608 H 1172.16 2.86338 -0.825509 0
M  V30 12609 H 1169.7 1.41013 -0.418785 0
M  V30 12610 H 1171.66 3.92431 1.41611 0
M  V30 12611 H 1170.29 2.79921 1.6076 0
M  V30 12612 H 1169.34 3.75377 -0.616137 0
M  V30 12613 H 1170.65 4.95291 -0.590625 0
M  V30 12614 H 1169.8 5.85631 1.58498 0
M  V30 12615 H 1168.54 4.5924 1.64164 0
M  V30 12616 H 1167.55 5.47639 -0.486965 0
M  V30 12617 H 1168.77 6.77052 -0.527046 0
M  V30 12618 H 1166.72 6.34236 1.67575 0
M  V30 12619 H 1166.64 7.54759 0.433045 0
M  V30 12620 H 1167.9 7.62487 1.6197 0
M  V30 12621 N 1172.13 0.454803 1.50895 0
M  V30 12622 C 1173.06 -0.337982 2.31041 0
M  V30 12623 C 1174.04 -1.00523 1.37219 0
M  V30 12624 O 1175.23 -1.00553 1.66141 0
M  V30 12625 C 1172.36 -1.42964 3.1651 0
M  V30 12626 C 1171.31 -0.884907 4.18752 0
M  V30 12627 C 1170.64 -2.07363 4.92854 0
M  V30 12628 C 1171.94 0.0926716 5.22218 0
M  V30 12629 H 1173.63 0.33089 2.97566 0
M  V30 12630 H 1171.18 0.160577 1.43102 0
M  V30 12631 H 1173.13 -1.9916 3.71367 0
M  V30 12632 H 1171.86 -2.12705 2.47839 0
M  V30 12633 H 1170.52 -0.345031 3.64973 0
M  V30 12634 H 1170.16 -2.75764 4.2067 0
M  V30 12635 H 1169.86 -1.71545 5.62002 0
M  V30 12636 H 1171.39 -2.6408 5.5054 0
M  V30 12637 H 1172.8 -0.379568 5.72042 0
M  V30 12638 H 1171.2 0.3643 5.98993 0
M  V30 12639 H 1172.27 1.02383 4.73968 0
M  V30 12640 N 1173.61 -1.56489 0.186789 0
M  V30 12641 C 1174.56 -2.18703 -0.737402 0
M  V30 12642 C 1175.53 -1.13171 -1.21579 0
M  V30 12643 O 1176.71 -1.41388 -1.28118 0
M  V30 12644 C 1173.85 -2.84394 -1.95484 0
M  V30 12645 C 1172.97 -4.04429 -1.51859 0
M  V30 12646 C 1172.1 -4.58001 -2.69089 0
M  V30 12647 C 1171.14 -5.70412 -2.22029 0
M  V30 12648 N 1170.28 -6.18425 -3.32407 0
M  V30 12649 H 1175.12 -2.97327 -0.200105 0
M  V30 12650 H 1172.65 -1.46842 -0.087032 0
M  V30 12651 H 1174.61 -3.20646 -2.66912 0
M  V30 12652 H 1173.24 -2.08347 -2.46559 0
M  V30 12653 H 1172.29 -3.73895 -0.70048 0
M  V30 12654 H 1173.61 -4.85756 -1.13327 0
M  V30 12655 H 1172.76 -4.96515 -3.48652 0
M  V30 12656 H 1171.5 -3.75764 -3.1089 0
M  V30 12657 H 1170.5 -5.31434 -1.40918 0
M  V30 12658 H 1171.73 -6.54461 -1.81268 0
M  V30 12659 H 1169.68 -5.39113 -3.73755 0
M  V30 12660 H 1169.59 -6.94782 -2.98017 0
M  V30 12661 H 1170.86 -6.61592 -4.12209 0
M  V30 12662 N 1175.09 0.086862 -1.5736 0
M  V30 12663 C 1176.04 1.12359 -2.03662 0
M  V30 12664 C 1177.03 1.40982 -0.939169 0
M  V30 12665 O 1178.24 1.40566 -1.12433 0
M  V30 12666 H 1174.61 0.379605 -0.649156 0
M  V30 12667 H 1176.58 0.706822 -2.89908 0
M  V30 12668 C 1175.33 2.43327 -2.48369 0
M  V30 12669 H 1174.66 2.22148 -3.324 0
M  V30 12670 H 1176.1 3.14351 -2.84534 0
M  V30 12671 C 1174.55 3.08214 -1.36036 0
M  V30 12672 O 1175.08 3.95659 -0.694063 0
M  V30 12673 N 1173.29 2.68596 -1.10927 0
M  V30 12674 H 1172.84 1.97578 -1.6529 0
M  V30 12675 H 1172.8 3.12336 -0.359679 0
M  V30 12676 N 1176.57 1.53483 0.357892 0
M  V30 12677 C 1177.51 1.80463 1.43881 0
M  V30 12678 C 1178.48 0.649438 1.52877 0
M  V30 12679 O 1179.67 0.892409 1.68644 0
M  V30 12680 C 1176.81 2.00714 2.80727 0
M  V30 12681 C 1175.92 3.28431 2.80637 0
M  V30 12682 C 1175.06 3.38828 4.09107 0
M  V30 12683 C 1174.1 4.60549 4.03189 0
M  V30 12684 N 1173.23 4.68057 5.23323 0
M  V30 12685 H 1178.07 2.72694 1.20174 0
M  V30 12686 H 1175.61 1.35079 0.582422 0
M  V30 12687 H 1177.57 2.10444 3.60235 0
M  V30 12688 H 1176.2 1.11811 3.02817 0
M  V30 12689 H 1175.25 3.27617 1.93317 0
M  V30 12690 H 1176.56 4.18022 2.72138 0
M  V30 12691 H 1175.72 3.47911 4.97034 0
M  V30 12692 H 1174.46 2.47267 4.20369 0
M  V30 12693 H 1173.46 4.51558 3.13649 0
M  V30 12694 H 1174.69 5.53459 3.93523 0
M  V30 12695 H 1172.63 3.794 5.35156 0
M  V30 12696 H 1172.55 5.51563 5.17024 0
M  V30 12697 H 1173.82 4.81433 6.1306 0
M  V30 12698 N 1178.05 -0.61812 1.44973 0
M  V30 12699 C 1179.29 -1.37754 1.4965 0
M  V30 12700 C 1179.65 -1.91945 0.132201 0
M  V30 12701 O 1178.94 -1.71493 -0.854439 0
M  V30 12702 C 1179.13 -2.55143 2.50274 0
M  V30 12703 C 1178.96 -2.12446 3.96354 0
M  V30 12704 C 1177.73 -1.99112 4.64416 0
M  V30 12705 C 1179.93 -1.70557 4.85196 0
M  V30 12706 N 1177.91 -1.50114 5.95264 0
M  V30 12707 C 1179.28 -1.329 6.05589 0
M  V30 12708 C 1181.34 -1.58054 4.72147 0
M  V30 12709 C 1180.04 -0.839882 7.1438 0
M  V30 12710 C 1182.07 -1.10547 5.80976 0
M  V30 12711 C 1181.43 -0.738477 7.00518 0
M  V30 12712 H 1177.53 -0.498393 0.602601 0
M  V30 12713 H 1180.11 -0.70775 1.81381 0
M  V30 12714 H 1178.28 -3.19732 2.20513 0
M  V30 12715 H 1180.02 -3.21988 2.45166 0
M  V30 12716 H 1176.77 -2.19971 4.19416 0
M  V30 12717 H 1177.19 -1.27878 6.64813 0
M  V30 12718 H 1181.84 -1.85056 3.8015 0
M  V30 12719 H 1179.55 -0.557395 8.06175 0
M  V30 12720 H 1183.14 -1.01314 5.72911 0
M  V30 12721 H 1182.02 -0.376513 7.83296 0
M  V30 12722 N 1179.52 -1.32087 -0.859693 0
M  V30 12723 C 1180.77 -1.23551 -1.61575 0
M  V30 12724 C 1181.12 0.20199 -1.91337 0
M  V30 12725 O 1180.42 1.13834 -1.54118 0
M  V30 12726 C 1180.61 -2.0234 -2.94607 0
M  V30 12727 C 1180.44 -3.53606 -2.77836 0
M  V30 12728 C 1179.21 -4.22948 -2.76483 0
M  V30 12729 C 1181.41 -4.48356 -2.51955 0
M  V30 12730 N 1179.39 -5.60301 -2.5087 0
M  V30 12731 C 1180.76 -5.7345 -2.35702 0
M  V30 12732 C 1182.82 -4.37669 -2.37383 0
M  V30 12733 C 1181.52 -6.89064 -2.06357 0
M  V30 12734 C 1183.55 -5.53077 -2.09427 0
M  V30 12735 C 1182.91 -6.77167 -1.93971 0
M  V30 12736 H 1179.01 -0.507252 -0.595164 0
M  V30 12737 H 1181.59 -1.66395 -1.01098 0
M  V30 12738 H 1179.76 -1.6185 -3.53071 0
M  V30 12739 H 1181.49 -1.8574 -3.59559 0
M  V30 12740 H 1178.25 -3.75017 -2.89239 0
M  V30 12741 H 1178.67 -6.32649 -2.41006 0
M  V30 12742 H 1183.31 -3.42386 -2.48056 0
M  V30 12743 H 1181.03 -7.84363 -1.94421 0
M  V30 12744 H 1184.62 -5.46731 -1.98937 0
M  V30 12745 H 1183.5 -7.64959 -1.72646 0
M  V30 12746 N 1181 1.07532 -1.15215 0
M  V30 12747 C 1182.23 1.8355 -0.94831 0
M  V30 12748 C 1182.64 1.82289 0.506701 0
M  V30 12749 O 1181.98 1.23142 1.36314 0
M  V30 12750 C 1182.04 3.31834 -1.38298 0
M  V30 12751 C 1181.71 3.56818 -2.85535 0
M  V30 12752 C 1182.71 3.50915 -3.83608 0
M  V30 12753 C 1180.39 3.84543 -3.23159 0
M  V30 12754 C 1182.38 3.72382 -5.17311 0
M  V30 12755 C 1180.07 4.05662 -4.57036 0
M  V30 12756 C 1181.07 3.99576 -5.53921 0
M  V30 12757 O 1180.76 4.20132 -6.85379 0
M  V30 12758 H 1180.49 0.586014 -0.336992 0
M  V30 12759 H 1183.04 1.36656 -1.53344 0
M  V30 12760 H 1181.27 3.79529 -0.741244 0
M  V30 12761 H 1182.96 3.89312 -1.14853 0
M  V30 12762 H 1183.73 3.295 -3.55886 0
M  V30 12763 H 1179.61 3.88395 -2.48335 0
M  V30 12764 H 1183.15 3.67547 -5.92921 0
M  V30 12765 H 1179.05 4.26563 -4.84473 0
M  V30 12766 H 1179.82 4.3749 -6.91769 0
M  V30 12767 N 1182.48 0.948665 1.2585 0
M  V30 12768 C 1183.76 0.517832 1.88621 0
M  V30 12769 C 1184.14 -1.00477 1.85654 0
M  V30 12770 O 1183.49 -1.868 1.31598 0
M  V30 12771 C 1183.7 1.08768 3.31618 0
M  V30 12772 C 1185.04 1.16089 4.08422 0
M  V30 12773 O 1186.07 1.0388 3.40716 0
M  V30 12774 O 1184.93 1.35172 5.29519 0
M  V30 12775 H 1182.02 0.169916 0.809356 0
M  V30 12776 H 1184.57 1.04171 1.33964 0
M  V30 12777 H 1183.34 2.13109 3.28177 0
M  V30 12778 H 1182.96 0.54669 3.93824 0
M  V30 12779 N 1183.96 -1.40369 0.716545 0
M  V30 12780 C 1184.91 -2.3071 0.0645944 0
M  V30 12781 C 1185.88 -1.48239 -0.749294 0
M  V30 12782 O 1187.06 -1.76975 -0.713045 0
M  V30 12783 C 1184.2 -3.34456 -0.850478 0
M  V30 12784 C 1183.31 -4.31992 -0.0259594 0
M  V30 12785 C 1182.45 -5.22806 -0.940599 0
M  V30 12786 C 1181.49 -6.12001 -0.110228 0
M  V30 12787 N 1180.62 -6.9523 -0.979796 0
M  V30 12788 H 1185.46 -2.85896 0.840682 0
M  V30 12789 H 1183 -1.40789 0.426258 0
M  V30 12790 H 1184.96 -3.93177 -1.39528 0
M  V30 12791 H 1183.59 -2.8077 -1.59274 0
M  V30 12792 H 1182.64 -3.75045 0.636036 0
M  V30 12793 H 1183.95 -4.94971 0.616883 0
M  V30 12794 H 1183.11 -5.86463 -1.5539 0
M  V30 12795 H 1181.85 -4.60104 -1.61726 0
M  V30 12796 H 1180.85 -5.47373 0.516001 0
M  V30 12797 H 1182.08 -6.76763 0.562944 0
M  V30 12798 H 1180.02 -6.35115 -1.64209 0
M  V30 12799 H 1179.94 -7.54978 -0.393012 0
M  V30 12800 H 1181.21 -7.63335 -1.57924 0
M  V30 12801 N 1185.44 -0.462799 -1.50652 0
M  V30 12802 C 1186.68 0.0948568 -2.01877 0
M  V30 12803 C 1187.01 1.4096 -1.34741 0
M  V30 12804 O 1186.28 1.89671 -0.49006 0
M  V30 12805 H 1184.86 0.0380453 -0.746031 0
M  V30 12806 H 1187.52 -0.611327 -1.85064 0
M  V30 12807 H 1186.61 0.252378 -3.11078 0
M  V30 12808 N 1186.91 1.56388 -0.195085 0
M  V30 12809 C 1187.82 2.22698 0.737743 0
M  V30 12810 C 1188.84 1.22605 1.23466 0
M  V30 12811 O 1190.02 1.55342 1.28183 0
M  V30 12812 C 1187.08 2.87333 1.94011 0
M  V30 12813 C 1186.14 4.02696 1.48776 0
M  V30 12814 C 1185.38 4.64239 2.63282 0
M  V30 12815 O 1185.6 4.24706 3.80763 0
M  V30 12816 O 1184.53 5.53705 2.35996 0
M  V30 12817 H 1188.36 3.03021 0.203013 0
M  V30 12818 H 1185.94 1.49361 0.0342044 0
M  V30 12819 H 1187.83 3.28226 2.64284 0
M  V30 12820 H 1186.5 2.0999 2.46345 0
M  V30 12821 H 1185.41 3.66426 0.753839 0
M  V30 12822 H 1186.74 4.81703 1.01109 0
M  V30 12823 N 1188.39 -0.0785156 1.57404 0
M  V30 12824 C 1189.63 -0.784359 1.88752 0
M  V30 12825 C 1190 -1.75081 0.788079 0
M  V30 12826 O 1191.2 -2.50125 0.984431 0
M  V30 12827 C 1189.47 -1.47962 3.25334 0
M  V30 12828 S 1191.03 -2.22146 3.78413 0
M  V30 12829 H 1187.85 -0.260976 0.661372 0
M  V30 12830 H 1190.45 -0.0407396 1.95458 0
M  V30 12831 H 1189.15 -0.762338 4.03257 0
M  V30 12832 H 1188.68 -2.26281 3.21808 0
M  V30 12833 H 1190.7 -3.48558 3.5316 0
M  V30 12834 N 1189.87 -1.5367 -0.349747 0
M  V30 12835 C 1191.12 -1.70281 -1.08853 0
M  V30 12836 C 1191.44 -0.465438 -1.89364 0
M  V30 12837 O 1190.71 0.520615 -1.88856 0
M  V30 12838 H 1189.29 -0.627775 -0.404854 0
M  V30 12839 H 1191.95 -1.90906 -0.392523 0
M  V30 12840 H 1191.05 -2.57096 -1.76941 0
M  V30 12841 N 1191.35 0.610423 -1.45298 0
M  V30 12842 C 1192.57 1.40112 -1.52917 0
M  V30 12843 C 1193 1.87404 -0.161696 0
M  V30 12844 O 1192.36 1.59973 0.853135 0
M  V30 12845 C 1192.4 2.58359 -2.51561 0
M  V30 12846 O 1191.51 3.58895 -2.03146 0
M  V30 12847 H 1190.85 0.41841 -0.515586 0
M  V30 12848 H 1193.38 0.743159 -1.90626 0
M  V30 12849 H 1193.39 3.0564 -2.70275 0
M  V30 12850 H 1192.06 2.23286 -3.50879 0
M  V30 12851 H 1190.64 3.18282 -1.94296 0
M  V30 12852 N 1192.83 1.32541 0.852676 0
M  V30 12853 C 1194.07 1.22971 1.60383 0
M  V30 12854 C 1194.4 -0.208009 1.93887 0
M  V30 12855 O 1193.67 -1.13326 1.59794 0
M  V30 12856 H 1192.25 0.452149 0.594618 0
M  V30 12857 H 1194.91 1.66089 1.01983 0
M  V30 12858 H 1194 1.81373 2.53989 0
M  V30 12859 N 1194.3 -1.0692 1.15784 0
M  V30 12860 C 1195.55 -1.79245 0.933581 0
M  V30 12861 C 1195.87 -1.87362 -0.540427 0
M  V30 12862 O 1195.14 -1.37769 -1.39271 0
M  V30 12863 H 1193.72 -0.663898 0.342416 0
M  V30 12864 H 1196.39 -1.29189 1.45932 0
M  V30 12865 H 1195.48 -2.81546 1.34679 0
M  V30 12866 N 1195.78 -0.955326 -1.25345 0
M  V30 12867 C 1197.03 -0.609278 -1.92697 0
M  V30 12868 C 1197.35 0.856535 -1.75181 0
M  V30 12869 O 1196.62 1.61013 -1.11587 0
M  V30 12870 H 1195.2 -0.22235 -0.713141 0
M  V30 12871 H 1197.86 -1.21372 -1.52496 0
M  V30 12872 H 1196.96 -0.839198 -3.00606 0
M  V30 12873 N 1197.26 1.39987 -0.723979 0
M  V30 12874 C 1198.54 1.94637 -0.1939 0
M  V30 12875 C 1198.92 1.66156 1.30212 0
M  V30 12876 O 1198.27 0.983783 2.06238 0
M  V30 12877 C 1198.48 3.4517 -0.515652 0
M  V30 12878 C 1199.82 4.22113 -0.458919 0
M  V30 12879 O 1200.85 3.53318 -0.452198 0
M  V30 12880 O 1199.71 5.44695 -0.443783 0
M  V30 12881 H 1196.8 0.826394 -0.0316615 0
M  V30 12882 H 1199.35 1.49548 -0.802085 0
M  V30 12883 H 1198.12 3.5929 -1.55004 0
M  V30 12884 H 1197.74 3.97413 0.122067 0
M  V30 12885 N 1198.74 0.470782 1.50404 0
M  V30 12886 C 1199.96 -0.084284 2.07229 0
M  V30 12887 C 1200.39 -1.32774 1.33239 0
M  V30 12888 O 1199.75 -1.77274 0.379971 0
M  V30 12889 C 1199.8 -0.351565 3.58882 0
M  V30 12890 O 1198.9 -1.43211 3.86736 0
M  V30 12891 H 1198.24 0.0128479 0.663876 0
M  V30 12892 H 1200.77 0.661735 1.93603 0
M  V30 12893 H 1200.78 -0.592151 4.0368 0
M  V30 12894 H 1199.46 0.557084 4.12152 0
M  V30 12895 H 1198.03 -1.17886 3.53776 0
M  V30 12896 N 1200.22 -1.56282 0.203376 0
M  V30 12897 C 1201.16 -2.19473 -0.714164 0
M  V30 12898 C 1202.13 -1.14454 -1.20372 0
M  V30 12899 O 1203.32 -1.42739 -1.26611 0
M  V30 12900 C 1200.46 -2.86451 -1.92457 0
M  V30 12901 C 1199.57 -4.06017 -1.47561 0
M  V30 12902 C 1198.71 -4.60829 -2.64216 0
M  V30 12903 C 1197.75 -5.72734 -2.15967 0
M  V30 12904 N 1196.88 -6.21916 -3.25829 0
M  V30 12905 H 1201.72 -2.97523 -0.168558 0
M  V30 12906 H 1199.26 -1.46926 -0.0714525 0
M  V30 12907 H 1201.22 -3.23459 -2.63496 0
M  V30 12908 H 1199.85 -2.10951 -2.44335 0
M  V30 12909 H 1198.9 -3.74617 -0.660784 0
M  V30 12910 H 1200.21 -4.8693 -1.08168 0
M  V30 12911 H 1199.37 -5.00185 -3.43366 0
M  V30 12912 H 1198.11 -3.7904 -3.06887 0
M  V30 12913 H 1197.11 -5.32899 -1.35273 0
M  V30 12914 H 1198.34 -6.56346 -1.74316 0
M  V30 12915 H 1196.28 -5.43047 -3.68016 0
M  V30 12916 H 1196.2 -6.97904 -2.90631 0
M  V30 12917 H 1197.47 -6.65927 -4.05168 0
M  V30 12918 N 1201.7 0.070167 -1.57444 0
M  V30 12919 C 1202.97 0.802108 -1.78397 0
M  V30 12920 C 1203.35 1.95706 -0.791356 0
M  V30 12921 O 1202.7 2.27827 0.17518 0
M  V30 12922 C 1202.91 1.27354 -3.24934 0
M  V30 12923 C 1204.26 1.70626 -3.88808 0
M  V30 12924 O 1205.28 1.36916 -3.28835 0
M  V30 12925 O 1204.14 2.33041 -4.94322 0
M  V30 12926 H 1201.24 0.384483 -0.73219 0
M  V30 12927 H 1203.78 0.0501168 -1.69626 0
M  V30 12928 H 1202.55 0.447204 -3.88736 0
M  V30 12929 H 1202.18 2.0868 -3.38435 0
M  V30 12930 N 1203.17 1.53854 0.341593 0
M  V30 12931 C 1204.12 1.81979 1.41959 0
M  V30 12932 C 1205.09 0.665616 1.5218 0
M  V30 12933 O 1206.28 0.910246 1.67688 0
M  V30 12934 C 1203.42 2.03681 2.78583 0
M  V30 12935 C 1202.53 3.31389 2.77137 0
M  V30 12936 C 1201.66 3.43148 4.05491 0
M  V30 12937 C 1200.7 4.64799 3.98282 0
M  V30 12938 N 1199.84 4.73581 5.18329 0
M  V30 12939 H 1204.68 2.73953 1.17275 0
M  V30 12940 H 1202.22 1.35689 0.568062 0
M  V30 12941 H 1204.17 2.14253 3.57983 0
M  V30 12942 H 1202.8 1.15017 3.01614 0
M  V30 12943 H 1201.86 3.29649 1.89832 0
M  V30 12944 H 1203.17 4.20885 2.67689 0
M  V30 12945 H 1202.32 3.53163 4.93316 0
M  V30 12946 H 1201.06 2.51712 4.17723 0
M  V30 12947 H 1200.07 4.54859 3.08842 0
M  V30 12948 H 1201.29 5.57601 3.87631 0
M  V30 12949 H 1199.24 3.85055 5.31102 0
M  V30 12950 H 1199.15 5.57016 5.11145 0
M  V30 12951 H 1200.42 4.87908 6.0792 0
M  V30 12952 N 1204.65 -0.602709 1.4562 0
M  V30 12953 C 1205.88 -1.3881 1.53426 0
M  V30 12954 C 1206.29 -1.88046 0.16851 0
M  V30 12955 O 1205.65 -1.62493 -0.830791 0
M  V30 12956 C 1205.7 -2.58927 2.52268 0
M  V30 12957 O 1205.42 -2.11735 3.83536 0
M  V30 12958 C 1206.92 -3.51728 2.69819 0
M  V30 12959 H 1204.14 -0.424744 0.519455 0
M  V30 12960 H 1206.69 -0.73459 1.90851 0
M  V30 12961 H 1204.84 -3.20309 2.17902 0
M  V30 12962 H 1205.26 -2.89814 4.37159 0
M  V30 12963 H 1206.73 -4.32542 3.42945 0
M  V30 12964 H 1207.21 -4.02383 1.76024 0
M  V30 12965 H 1207.81 -2.96196 3.05202 0
M  V30 12966 N 1206.13 -1.32992 -0.845635 0
M  V30 12967 C 1207.35 -1.27231 -1.6379 0
M  V30 12968 C 1207.78 0.155141 -1.87459 0
M  V30 12969 O 1207.14 1.10953 -1.43384 0
M  V30 12970 C 1207.19 -2.04629 -2.96916 0
M  V30 12971 O 1206.29 -1.40027 -3.879 0
M  V30 12972 H 1205.63 -0.438045 -0.499011 0
M  V30 12973 H 1208.16 -1.75448 -1.05257 0
M  V30 12974 H 1208.17 -2.15141 -3.46667 0
M  V30 12975 H 1206.85 -3.08425 -2.79011 0
M  V30 12976 H 1205.42 -1.38118 -3.46378 0
M  V30 12977 N 1207.61 1.06304 -1.1635 0
M  V30 12978 C 1208.57 2.11947 -0.872419 0
M  V30 12979 C 1209.57 1.60253 0.132534 0
M  V30 12980 O 1210.76 1.73922 -0.0983441 0
M  V30 12981 C 1207.89 3.39536 -0.304646 0
M  V30 12982 H 1209.09 2.39201 -1.80894 0
M  V30 12983 H 1206.64 1.22367 -0.972419 0
M  V30 12984 H 1207.37 3.17931 0.639565 0
M  V30 12985 H 1207.16 3.78363 -1.02878 0
M  V30 12986 H 1208.65 4.17431 -0.118936 0
M  V30 12987 N 1209.09 0.96196 1.24836 0
M  V30 12988 C 1210.02 0.506241 2.27946 0
M  V30 12989 C 1211 -0.451183 1.64007 0
M  V30 12990 O 1212.18 -0.348552 1.91046 0
M  V30 12991 C 1209.31 -0.209846 3.46665 0
M  V30 12992 C 1208.27 0.663035 4.22833 0
M  V30 12993 C 1207.59 -0.184216 5.34383 0
M  V30 12994 C 1208.89 1.94479 4.84742 0
M  V30 12995 H 1210.59 1.36805 2.66317 0
M  V30 12996 H 1208.13 0.65926 1.28023 0
M  V30 12997 H 1210.08 -0.539838 4.17928 0
M  V30 12998 H 1208.81 -1.10596 3.07305 0
M  V30 12999 H 1207.47 0.976216 3.53363 0
M  V30 13000 H 1207.12 -1.08031 4.91262 0
M  V30 13001 H 1206.82 0.39657 5.8626 0
M  V30 13002 H 1208.34 -0.509009 6.08475 0
M  V30 13003 H 1209.75 1.68074 5.48109 0
M  V30 13004 H 1208.15 2.47183 5.46828 0
M  V30 13005 H 1209.22 2.64332 4.06517 0
M  V30 13006 N 1210.56 -1.39601 0.731392 0
M  V30 13007 C 1211.79 -2.05411 0.286532 0
M  V30 13008 C 1212.21 -1.54777 -1.06892 0
M  V30 13009 O 1211.57 -0.689942 -1.67659 0
M  V30 13010 C 1211.62 -3.594 0.293914 0
M  V30 13011 O 1210.72 -4.06072 -0.719657 0
M  V30 13012 H 1210.06 -0.650949 0.131004 0
M  V30 13013 H 1212.59 -1.78703 0.996305 0
M  V30 13014 H 1212.6 -4.0777 0.137052 0
M  V30 13015 H 1211.28 -3.95617 1.28298 0
M  V30 13016 H 1209.86 -3.69125 -0.529226 0
M  V30 13017 N 1212.04 -0.478751 -1.50152 0
M  V30 13018 C 1212.97 0.301182 -2.31549 0
M  V30 13019 C 1213.95 0.983276 -1.38801 0
M  V30 13020 O 1215.14 0.978973 -1.67719 0
M  V30 13021 C 1212.27 1.3791 -3.18745 0
M  V30 13022 C 1211.22 0.818175 -4.20107 0
M  V30 13023 C 1210.55 1.99496 -4.9609 0
M  V30 13024 C 1211.85 -0.17574 -5.22004 0
M  V30 13025 H 1213.54 -0.378188 -2.97002 0
M  V30 13026 H 1211.09 -0.183323 -1.42828 0
M  V30 13027 H 1213.04 1.93227 -3.74488 0
M  V30 13028 H 1211.77 2.08735 -2.51192 0
M  V30 13029 H 1210.42 0.286924 -3.65475 0
M  V30 13030 H 1210.07 2.69036 -4.25004 0
M  V30 13031 H 1209.77 1.62582 -5.6466 0
M  V30 13032 H 1211.3 2.55288 -5.54671 0
M  V30 13033 H 1212.71 0.288513 -5.72574 0
M  V30 13034 H 1211.11 -0.459549 -5.98338 0
M  V30 13035 H 1212.18 -1.09911 -4.72279 0
M  V30 13036 N 1213.52 1.56172 -0.211661 0
M  V30 13037 C 1214.75 2.02874 0.430905 0
M  V30 13038 C 1215.17 1.09064 1.53254 0
M  V30 13039 O 1214.53 0.0770408 1.81136 0
M  V30 13040 C 1214.58 3.4789 0.948933 0
M  V30 13041 O 1213.68 3.57213 2.0609 0
M  V30 13042 H 1213.02 0.656614 0.0987607 0
M  V30 13043 H 1215.55 2.01964 -0.327399 0
M  V30 13044 H 1215.56 3.88015 1.2613 0
M  V30 13045 H 1214.24 4.15656 0.142584 0
M  V30 13046 H 1212.81 3.28971 1.75592 0
M  V30 13047 N 1215 -0.0618163 1.57479 0
M  V30 13048 C 1215.95 -1.09105 2.05424 0
M  V30 13049 C 1216.94 -1.3947 0.961479 0
M  V30 13050 O 1218.15 -1.3876 1.14655 0
M  V30 13051 H 1214.52 -0.36923 0.655113 0
M  V30 13052 H 1216.49 -0.66061 2.90996 0
M  V30 13053 C 1215.24 -2.39345 2.52209 0
M  V30 13054 H 1214.56 -2.16832 3.35893 0
M  V30 13055 H 1216 -3.09784 2.89499 0
M  V30 13056 C 1214.46 -3.06011 1.40922 0
M  V30 13057 O 1214.99 -3.94504 0.756921 0
M  V30 13058 N 1213.2 -2.66797 1.15186 0
M  V30 13059 H 1212.75 -1.94923 1.68412 0
M  V30 13060 H 1212.7 -3.11724 0.409324 0
M  V30 13061 N 1216.48 -1.54033 -0.333429 0
M  V30 13062 C 1217.72 -1.72019 -1.07411 0
M  V30 13063 C 1218.06 -0.487265 -1.87988 0
M  V30 13064 O 1217.33 0.515757 -1.87537 0
M  V30 13065 C 1217.61 -2.98986 -2.00698 0
M  V30 13066 C 1217.47 -4.32509 -1.23517 0
M  V30 13067 C 1218.79 -3.21663 -3.00368 0
M  V30 13068 H 1215.9 -0.625919 -0.389094 0
M  V30 13069 H 1218.55 -1.86717 -0.351697 0
M  V30 13070 H 1216.7 -2.86586 -2.62298 0
M  V30 13071 H 1218.37 -4.56775 -0.644522 0
M  V30 13072 H 1216.61 -4.3046 -0.537298 0
M  V30 13073 H 1217.28 -5.17547 -1.91962 0
M  V30 13074 H 1219.76 -3.33459 -2.48886 0
M  V30 13075 H 1218.63 -4.11877 -3.62834 0
M  V30 13076 H 1218.9 -2.3843 -3.72295 0
M  V30 13077 N 1217.95 0.594978 -1.45938 0
M  V30 13078 C 1218.92 1.68688 -1.55168 0
M  V30 13079 C 1219.92 1.54945 -0.429951 0
M  V30 13080 O 1221.11 1.59785 -0.693859 0
M  V30 13081 C 1218.24 3.0804 -1.46027 0
M  V30 13082 H 1219.43 1.61866 -2.52467 0
M  V30 13083 H 1216.99 0.811785 -1.33565 0
M  V30 13084 H 1217.72 3.20428 -0.499614 0
M  V30 13085 H 1217.51 3.19423 -2.27401 0
M  V30 13086 H 1219 3.8755 -1.55546 0
M  V30 13087 N 1219.43 1.33438 0.838571 0
M  V30 13088 C 1220.68 1.24665 1.59069 0
M  V30 13089 C 1221 -0.187433 1.94097 0
M  V30 13090 O 1220.27 -1.11625 1.60987 0
M  V30 13091 H 1218.85 0.45843 0.589789 0
M  V30 13092 H 1221.51 1.67161 1.00216 0
M  V30 13093 H 1220.61 1.84057 2.52051 0
M  V30 13094 N 1220.91 -1.05686 1.16912 0
M  V30 13095 C 1222.16 -1.78862 0.955839 0
M  V30 13096 C 1222.49 -1.87257 -0.514645 0
M  V30 13097 O 1221.76 -1.36869 -1.38193 0
M  V30 13098 C 1222.05 -3.23021 1.59152 0
M  V30 13099 C 1221.9 -3.22669 3.13376 0
M  V30 13100 C 1223.22 -4.2073 1.29128 0
M  V30 13101 H 1220.34 -0.64931 0.348663 0
M  V30 13102 H 1222.98 -1.23561 1.44335 0
M  V30 13103 H 1221.13 -3.70243 1.17697 0
M  V30 13104 H 1222.8 -2.83562 3.63855 0
M  V30 13105 H 1221.05 -2.61149 3.46386 0
M  V30 13106 H 1221.72 -4.24394 3.52979 0
M  V30 13107 H 1224.19 -3.8198 1.65017 0
M  V30 13108 H 1223.07 -5.19851 1.76198 0
M  V30 13109 H 1223.33 -4.41595 0.21119 0
M  V30 13110 N 1222.39 -0.968567 -1.24324 0
M  V30 13111 C 1223.64 -0.630928 -1.9242 0
M  V30 13112 C 1223.96 0.834001 -1.75712 0
M  V30 13113 O 1223.22 1.61558 -1.10442 0
M  V30 13114 C 1223.52 -0.952762 -3.44467 0
M  V30 13115 C 1223.18 -2.40597 -3.81345 0
M  V30 13116 C 1221.85 -2.80316 -3.91122 0
M  V30 13117 C 1224.2 -3.34906 -3.99359 0
M  V30 13118 C 1221.53 -4.13383 -4.16331 0
M  V30 13119 C 1223.88 -4.67602 -4.26065 0
M  V30 13120 C 1222.54 -5.07097 -4.34061 0
M  V30 13121 H 1221.81 -0.230873 -0.704116 0
M  V30 13122 H 1224.46 -1.22022 -1.47591 0
M  V30 13123 H 1222.76 -0.281244 -3.90789 0
M  V30 13124 H 1224.46 -0.6699 -3.95365 0
M  V30 13125 H 1221.05 -2.088 -3.743 0
M  V30 13126 H 1225.23 -3.05404 -3.91206 0
M  V30 13127 H 1220.49 -4.43606 -4.20742 0
M  V30 13128 H 1224.66 -5.40646 -4.38948 0
M  V30 13129 H 1222.29 -6.10229 -4.53349 0
M  V30 13130 N 1223.87 1.39211 -0.738786 0
M  V30 13131 C 1225.1 2.04435 -0.298318 0
M  V30 13132 C 1225.5 1.55822 1.07314 0
M  V30 13133 O 1224.85 0.719922 1.69005 0
M  V30 13134 C 1224.91 3.58789 -0.225979 0
M  V30 13135 C 1224.57 4.30395 -1.53653 0
M  V30 13136 C 1225.57 4.56777 -2.48295 0
M  V30 13137 C 1223.26 4.68869 -1.80187 0
M  V30 13138 C 1225.25 5.20648 -3.67702 0
M  V30 13139 C 1222.94 5.32467 -2.99871 0
M  V30 13140 C 1223.93 5.58289 -3.93449 0
M  V30 13141 O 1223.62 6.20567 -5.1103 0
M  V30 13142 H 1223.35 0.663848 -0.127603 0
M  V30 13143 H 1225.91 1.79171 -1.00433 0
M  V30 13144 H 1224.14 3.82965 0.536164 0
M  V30 13145 H 1225.83 4.05487 0.182996 0
M  V30 13146 H 1226.59 4.27497 -2.29066 0
M  V30 13147 H 1222.47 4.48124 -1.08193 0
M  V30 13148 H 1226.02 5.4072 -4.40759 0
M  V30 13149 H 1221.91 5.61169 -3.18998 0
M  V30 13150 H 1222.68 6.39059 -5.11415 0
M  V30 13151 N 1225.34 0.486708 1.49896 0
M  V30 13152 C 1226.59 -0.0646197 2.01596 0
M  V30 13153 C 1226.91 -1.39363 1.37249 0
M  V30 13154 O 1228.11 -2.03082 1.80194 0
M  V30 13155 C 1226.57 -0.16565 3.59519 0
M  V30 13156 C 1226.18 1.15586 4.32832 0
M  V30 13157 C 1227.92 -0.668103 4.1921 0
M  V30 13158 C 1225.83 1.01778 5.82576 0
M  V30 13159 H 1224.76 -0.0279241 0.753483 0
M  V30 13160 H 1227.41 0.623969 1.72566 0
M  V30 13161 H 1225.79 -0.918372 3.85204 0
M  V30 13162 H 1226.96 1.92076 4.1886 0
M  V30 13163 H 1225.28 1.59064 3.84822 0
M  V30 13164 H 1227.88 -0.788698 5.28851 0
M  V30 13165 H 1228.22 -1.66339 3.81624 0
M  V30 13166 H 1228.75 0.0276746 3.9779 0
M  V30 13167 H 1225.49 1.9869 6.24662 0
M  V30 13168 H 1225.01 0.293527 5.99081 0
M  V30 13169 H 1226.69 0.690693 6.43303 0
M  V30 13170 N 1226.82 -1.56058 0.219941 0
M  V30 13171 C 1227.75 -2.2321 -0.685547 0
M  V30 13172 C 1228.73 -1.20328 -1.20229 0
M  V30 13173 O 1229.92 -1.48909 -1.24659 0
M  V30 13174 C 1227.05 -2.91076 -1.89452 0
M  V30 13175 C 1226 -4.00415 -1.51169 0
M  V30 13176 C 1225.33 -4.55569 -2.79931 0
M  V30 13177 C 1226.63 -5.17549 -0.702896 0
M  V30 13178 H 1228.32 -2.99136 -0.125671 0
M  V30 13179 H 1225.87 -1.43879 -0.0590043 0
M  V30 13180 H 1227.82 -3.36744 -2.53341 0
M  V30 13181 H 1226.55 -2.12594 -2.47934 0
M  V30 13182 H 1225.21 -3.55475 -0.896275 0
M  V30 13183 H 1224.85 -3.73819 -3.36553 0
M  V30 13184 H 1224.55 -5.29361 -2.55049 0
M  V30 13185 H 1226.08 -5.03955 -3.44764 0
M  V30 13186 H 1227.49 -5.59608 -1.24544 0
M  V30 13187 H 1225.89 -5.97563 -0.551234 0
M  V30 13188 H 1226.96 -4.84027 0.29083 0
M  V30 13189 N 1228.3 0.053464 -1.57509 0
M  V30 13190 C 1229.55 0.750212 -1.88414 0
M  V30 13191 C 1229.88 1.76288 -0.814619 0
M  V30 13192 O 1229.16 1.93728 0.173136 0
M  V30 13193 C 1229.44 1.44176 -3.29978 0
M  V30 13194 C 1229.29 0.444263 -4.47601 0
M  V30 13195 C 1230.61 2.38207 -3.70061 0
M  V30 13196 H 1227.73 0.271266 -0.685262 0
M  V30 13197 H 1230.37 0.0131676 -1.89995 0
M  V30 13198 H 1228.52 2.07001 -3.2876 0
M  V30 13199 H 1230.19 -0.180182 -4.60948 0
M  V30 13200 H 1228.44 -0.238771 -4.33142 0
M  V30 13201 H 1229.11 0.966134 -5.43479 0
M  V30 13202 H 1231.58 1.85446 -3.7249 0
M  V30 13203 H 1230.46 2.83588 -4.69967 0
M  V30 13204 H 1230.72 3.23821 -3.00985 0
M  V30 13205 N 1229.78 1.54207 0.325255 0
M  V30 13206 C 1231.03 1.71991 1.0613 0
M  V30 13207 C 1231.35 0.495505 1.88599 0
M  V30 13208 O 1230.62 -0.490504 1.8966 0
M  V30 13209 H 1229.2 0.634137 0.394816 0
M  V30 13210 H 1231.86 1.91507 0.362101 0
M  V30 13211 H 1230.96 2.59878 1.72829 0
M  V30 13212 N 1231.26 -0.58723 1.46251 0
M  V30 13213 C 1232.51 -1.34294 1.51028 0
M  V30 13214 C 1232.83 -1.94329 0.161623 0
M  V30 13215 O 1232.1 -1.78309 -0.811342 0
M  V30 13216 H 1230.68 -0.498607 0.556238 0
M  V30 13217 H 1233.34 -0.688074 1.8235 0
M  V30 13218 H 1232.43 -2.15197 2.26045 0
M  V30 13219 N 1232.74 -1.33881 -0.831482 0
M  V30 13220 C 1233.67 -1.27384 -1.95693 0
M  V30 13221 C 1234.65 -0.152943 -1.69411 0
M  V30 13222 O 1235.83 -0.34392 -1.9113 0
M  V30 13223 C 1232.96 -1.01982 -3.31989 0
M  V30 13224 C 1231.92 -2.10445 -3.72689 0
M  V30 13225 C 1231.24 -1.70245 -5.06873 0
M  V30 13226 C 1232.54 -3.52194 -3.8569 0
M  V30 13227 H 1234.24 -2.21549 -2.01386 0
M  V30 13228 H 1231.78 -1.06653 -0.967526 0
M  V30 13229 H 1233.73 -0.960841 -4.103 0
M  V30 13230 H 1232.46 -0.0425709 -3.26572 0
M  V30 13231 H 1231.12 -2.15398 -2.96647 0
M  V30 13232 H 1230.77 -0.712036 -4.97935 0
M  V30 13233 H 1230.47 -2.42834 -5.35075 0
M  V30 13234 H 1231.99 -1.65827 -5.87651 0
M  V30 13235 H 1233.4 -3.49701 -4.54293 0
M  V30 13236 H 1231.8 -4.23331 -4.25336 0
M  V30 13237 H 1232.87 -3.9016 -2.87929 0
M  V30 13238 N 1234.21 1.05064 -1.1747 0
M  V30 13239 C 1235.46 1.77737 -0.961979 0
M  V30 13240 C 1235.78 1.88198 0.510551 0
M  V30 13241 O 1235.05 1.39968 1.37062 0
M  V30 13242 H 1233.63 0.658366 -0.352935 0
M  V30 13243 H 1236.29 1.26851 -1.47969 0
M  V30 13244 H 1235.39 2.79368 -1.39141 0
M  V30 13245 N 1235.69 0.975146 1.23809 0
M  V30 13246 C 1236.62 0.530389 2.27396 0
M  V30 13247 C 1237.6 -0.433763 1.64476 0
M  V30 13248 O 1238.79 -0.32827 1.91405 0
M  V30 13249 C 1235.92 -0.173066 3.46869 0
M  V30 13250 C 1234.87 0.707844 4.22106 0
M  V30 13251 C 1234.2 -0.127527 5.34548 0
M  V30 13252 C 1235.5 1.99609 4.82652 0
M  V30 13253 H 1237.19 1.39622 2.64851 0
M  V30 13254 H 1234.74 0.672802 1.27316 0
M  V30 13255 H 1236.69 -0.495481 4.18477 0
M  V30 13256 H 1235.41 -1.0733 3.0846 0
M  V30 13257 H 1234.07 1.01364 3.52308 0
M  V30 13258 H 1233.72 -1.02814 4.9238 0
M  V30 13259 H 1233.42 0.458728 5.85807 0
M  V30 13260 H 1234.95 -0.444443 6.0898 0
M  V30 13261 H 1236.36 1.73878 5.46296 0
M  V30 13262 H 1234.76 2.52969 5.44175 0
M  V30 13263 H 1235.83 2.68629 4.03691 0
M  V30 13264 N 1237.17 -1.38817 0.746158 0
M  V30 13265 C 1238.13 -2.28876 0.121886 0
M  V30 13266 C 1239.13 -1.46838 -0.655379 0
M  V30 13267 O 1240.32 -1.67377 -0.482744 0
M  V30 13268 C 1237.45 -3.30487 -0.836118 0
M  V30 13269 H 1238.65 -2.85586 0.915453 0
M  V30 13270 H 1236.2 -1.47652 0.512691 0
M  V30 13271 H 1236.94 -2.78853 -1.65563 0
M  V30 13272 H 1236.72 -3.9109 -0.281271 0
M  V30 13273 H 1238.21 -3.97848 -1.26914 0
M  V30 13274 N 1238.65 -0.49465 -1.49636 0
M  V30 13275 C 1239.58 0.33366 -2.25748 0
M  V30 13276 C 1240.56 0.97591 -1.30057 0
M  V30 13277 O 1241.74 1.00725 -1.59332 0
M  V30 13278 C 1238.87 1.46938 -3.05167 0
M  V30 13279 C 1237.92 0.942149 -4.15964 0
M  V30 13280 S 1238.75 -0.162019 -5.35255 0
M  V30 13281 C 1239.9 0.977022 -6.18227 0
M  V30 13282 H 1240.14 -0.312361 -2.95655 0
M  V30 13283 H 1237.67 -0.279854 -1.51843 0
M  V30 13284 H 1239.63 2.12017 -3.5151 0
M  V30 13285 H 1238.29 2.087 -2.34741 0
M  V30 13286 H 1237.48 1.79309 -4.71025 0
M  V30 13287 H 1237.08 0.368687 -3.72178 0
M  V30 13288 H 1239.38 1.88363 -6.50788 0
M  V30 13289 H 1240.32 0.465168 -7.0657 0
M  V30 13290 H 1240.73 1.24149 -5.50679 0
M  V30 13291 N 1240.13 1.55939 -0.228214 0
M  V30 13292 C 1241.06 2.16566 0.719321 0
M  V30 13293 C 1242.04 1.11204 1.18627 0
M  V30 13294 O 1243.22 1.39495 1.2678 0
M  V30 13295 C 1240.35 2.75132 1.97536 0
M  V30 13296 C 1239.39 3.93381 1.64783 0
M  V30 13297 S 1240.23 5.29982 0.76678 0
M  V30 13298 C 1241.38 5.91989 2.03223 0
M  V30 13299 H 1241.62 2.96599 0.204035 0
M  V30 13300 H 1239.15 1.54395 -0.0128406 0
M  V30 13301 H 1241.11 3.09512 2.69652 0
M  V30 13302 H 1239.77 1.95079 2.46176 0
M  V30 13303 H 1238.96 4.32884 2.58122 0
M  V30 13304 H 1238.56 3.60181 1.00724 0
M  V30 13305 H 1240.85 6.08368 2.98152 0
M  V30 13306 H 1241.8 6.87858 1.68099 0
M  V30 13307 H 1242.21 5.20883 2.1758 0
M  V30 13308 N 1241.6 -0.0451101 1.57535 0
M  V30 13309 C 1242.85 -0.740209 1.88809 0
M  V30 13310 C 1243.18 -1.75854 0.823956 0
M  V30 13311 O 1242.46 -1.93817 -0.16286 0
M  V30 13312 C 1242.74 -1.42424 3.30737 0
M  V30 13313 C 1242.59 -0.42052 4.4783 0
M  V30 13314 C 1243.91 -2.36241 3.7132 0
M  V30 13315 H 1241.03 -0.267628 0.686691 0
M  V30 13316 H 1243.67 -0.00309149 1.9 0
M  V30 13317 H 1241.82 -2.05254 3.29853 0
M  V30 13318 H 1243.5 0.204625 4.60846 0
M  V30 13319 H 1241.74 0.261739 4.3301 0
M  V30 13320 H 1242.41 -0.937298 5.43984 0
M  V30 13321 H 1244.89 -1.83468 3.73468 0
M  V30 13322 H 1243.76 -2.81091 4.71465 0
M  V30 13323 H 1244.02 -3.2222 3.02699 0
M  V30 13324 N 1243.08 -1.54377 -0.317073 0
M  V30 13325 C 1244.05 -1.83488 -1.37349 0
M  V30 13326 C 1245.05 -0.706981 -1.44424 0
M  V30 13327 O 1246.24 -0.975289 -1.44339 0
M  V30 13328 C 1243.37 -2.00074 -2.76013 0
M  V30 13329 H 1244.56 -2.77883 -1.12789 0
M  V30 13330 H 1242.11 -1.46194 -0.552902 0
M  V30 13331 H 1242.85 -1.07913 -3.05819 0
M  V30 13332 H 1242.63 -2.82155 -2.7227 0
M  V30 13333 H 1244.12 -2.24022 -3.52426 0
M  V30 13334 N 1244.56 0.579466 -1.4656 0
M  V30 13335 C 1245.49 1.69846 -1.60233 0
M  V30 13336 C 1246.47 1.6397 -0.452533 0
M  V30 13337 O 1247.66 1.81936 -0.679174 0
M  V30 13338 C 1244.79 3.08488 -1.59538 0
M  V30 13339 C 1243.74 3.29197 -2.7352 0
M  V30 13340 C 1243.07 4.684 -2.57887 0
M  V30 13341 C 1244.37 3.16718 -4.15315 0
M  V30 13342 H 1246.06 1.5866 -2.53904 0
M  V30 13343 H 1243.61 0.761873 -1.22194 0
M  V30 13344 H 1245.56 3.86595 -1.67696 0
M  V30 13345 H 1244.28 3.20581 -0.62413 0
M  V30 13346 H 1242.94 2.53491 -2.64836 0
M  V30 13347 H 1242.59 4.77262 -1.58839 0
M  V30 13348 H 1242.29 4.83208 -3.34341 0
M  V30 13349 H 1243.81 5.48671 -2.67942 0
M  V30 13350 H 1245.23 3.84666 -4.25094 0
M  V30 13351 H 1243.63 3.43047 -4.92381 0
M  V30 13352 H 1244.7 2.13755 -4.35244 0
M  V30 13353 N 1246.04 1.3432 0.824371 0
M  V30 13354 C 1247.29 1.25938 1.57552 0
M  V30 13355 C 1247.6 -0.169298 1.94866 0
M  V30 13356 O 1248.81 -0.375262 2.68894 0
M  V30 13357 C 1247.26 2.20757 2.84244 0
M  V30 13358 C 1246.87 3.68873 2.54237 0
M  V30 13359 C 1248.61 2.21279 3.62265 0
M  V30 13360 C 1246.52 4.55566 3.77113 0
M  V30 13361 H 1245.45 0.467832 0.591311 0
M  V30 13362 H 1248.1 1.59476 0.907724 0
M  V30 13363 H 1246.48 1.80168 3.52641 0
M  V30 13364 H 1247.66 4.17991 1.93959 0
M  V30 13365 H 1245.97 3.70784 1.89494 0
M  V30 13366 H 1248.57 2.83272 4.53499 0
M  V30 13367 H 1248.91 1.2117 3.98276 0
M  V30 13368 H 1249.45 2.60305 3.00809 0
M  V30 13369 H 1246.19 5.56605 3.46223 0
M  V30 13370 H 1245.71 4.11184 4.36678 0
M  V30 13371 H 1247.38 4.701 4.44539 0
M  V30 13372 N 1247.52 -1.0444 1.18026 0
M  V30 13373 C 1248.43 -2.15862 0.918747 0
M  V30 13374 C 1249.44 -1.73614 -0.115808 0
M  V30 13375 O 1250.62 -2.01294 0.0652312 0
M  V30 13376 C 1247.68 -3.43846 0.443922 0
M  V30 13377 C 1246.74 -4.00497 1.54599 0
M  V30 13378 C 1245.98 -5.22373 1.09372 0
M  V30 13379 O 1246.2 -5.70379 -0.049085 0
M  V30 13380 O 1245.13 -5.71459 1.88992 0
M  V30 13381 H 1248.96 -2.40776 1.85097 0
M  V30 13382 H 1246.55 -1.14326 0.961769 0
M  V30 13383 H 1248.43 -4.20985 0.187017 0
M  V30 13384 H 1247.1 -3.20414 -0.460051 0
M  V30 13385 H 1246.01 -3.24764 1.85686 0
M  V30 13386 H 1247.34 -4.28262 2.42595 0
M  V30 13387 N 1248.99 -0.981699 -1.2329 0
M  V30 13388 C 1250.24 -0.651302 -1.9174 0
M  V30 13389 C 1250.57 0.815318 -1.76587 0
M  V30 13390 O 1249.82 1.60377 -1.1215 0
M  V30 13391 C 1250.12 -0.989244 -3.43437 0
M  V30 13392 C 1249.79 -2.44629 -3.78771 0
M  V30 13393 C 1248.45 -2.84449 -3.88127 0
M  V30 13394 C 1250.8 -3.39123 -3.95784 0
M  V30 13395 C 1248.13 -4.17775 -4.11923 0
M  V30 13396 C 1250.48 -4.72095 -4.21081 0
M  V30 13397 C 1249.15 -5.11672 -4.28659 0
M  V30 13398 H 1248.42 -0.238328 -0.701627 0
M  V30 13399 H 1251.06 -1.2358 -1.46288 0
M  V30 13400 H 1249.37 -0.322677 -3.90469 0
M  V30 13401 H 1251.07 -0.711796 -3.94632 0
M  V30 13402 H 1247.66 -2.12759 -3.72064 0
M  V30 13403 H 1251.84 -3.09536 -3.87945 0
M  V30 13404 H 1247.1 -4.48043 -4.16013 0
M  V30 13405 H 1251.27 -5.45271 -4.33189 0
M  V30 13406 H 1248.9 -6.15003 -4.46851 0
M  V30 13407 N 1250.47 1.3842 -0.753509 0
M  V30 13408 C 1251.71 2.01965 -0.314558 0
M  V30 13409 C 1252.08 1.58519 1.08331 0
M  V30 13410 O 1253.28 2.14395 1.62137 0
M  V30 13411 C 1251.55 3.54765 -0.433199 0
M  V30 13412 S 1253.11 4.38733 -0.0768176 0
M  V30 13413 H 1249.93 0.700447 -0.122045 0
M  V30 13414 H 1252.53 1.68925 -0.98411 0
M  V30 13415 H 1251.23 3.83874 -1.45152 0
M  V30 13416 H 1250.76 3.92582 0.253539 0
M  V30 13417 H 1252.78 4.83077 1.13361 0
M  V30 13418 N 1251.95 0.502579 1.49372 0
M  V30 13419 C 1253.18 -0.0380876 2.06565 0
M  V30 13420 C 1253.59 -1.31224 1.36297 0
M  V30 13421 O 1252.93 -1.78463 0.435517 0
M  V30 13422 C 1252.99 -0.360462 3.57688 0
M  V30 13423 C 1252.66 0.816203 4.49652 0
M  V30 13424 C 1253.65 1.70713 4.91073 0
M  V30 13425 C 1251.34 1.01545 4.91929 0
M  V30 13426 C 1253.33 2.78144 5.73511 0
M  V30 13427 C 1251.02 2.09294 5.74142 0
M  V30 13428 C 1252.02 2.97428 6.14838 0
M  V30 13429 O 1251.71 4.03317 6.95407 0
M  V30 13430 H 1251.44 0.0179548 0.675762 0
M  V30 13431 H 1253.99 0.699609 1.93118 0
M  V30 13432 H 1252.22 -1.15177 3.69149 0
M  V30 13433 H 1253.91 -0.839931 3.97115 0
M  V30 13434 H 1254.68 1.56502 4.59056 0
M  V30 13435 H 1250.56 0.338822 4.59753 0
M  V30 13436 H 1254.1 3.46965 6.05195 0
M  V30 13437 H 1250 2.235 6.05572 0
M  V30 13438 H 1250.77 4.00689 7.13716 0
M  V30 13439 N 1253.43 -1.55816 0.23648 0
M  V30 13440 C 1254.38 -2.20938 -0.66745 0
M  V30 13441 C 1255.35 -1.16982 -1.17917 0
M  V30 13442 O 1256.53 -1.45392 -1.23555 0
M  V30 13443 C 1253.67 -2.90469 -1.86337 0
M  V30 13444 C 1252.78 -4.09056 -1.38915 0
M  V30 13445 C 1251.92 -4.6633 -2.54382 0
M  V30 13446 C 1250.96 -5.77187 -2.0377 0
M  V30 13447 N 1250.09 -6.28688 -3.12564 0
M  V30 13448 H 1254.93 -2.97814 -0.105411 0
M  V30 13449 H 1252.47 -1.47045 -0.0402712 0
M  V30 13450 H 1254.43 -3.28975 -2.56576 0
M  V30 13451 H 1253.06 -2.16086 -2.39806 0
M  V30 13452 H 1252.11 -3.75934 -0.581173 0
M  V30 13453 H 1253.42 -4.89115 -0.978152 0
M  V30 13454 H 1252.58 -5.07355 -3.32679 0
M  V30 13455 H 1251.32 -3.85464 -2.98778 0
M  V30 13456 H 1250.32 -5.35648 -1.23939 0
M  V30 13457 H 1251.55 -6.59896 -1.60355 0
M  V30 13458 H 1249.49 -5.50731 -3.56414 0
M  V30 13459 H 1249.41 -7.03911 -2.75762 0
M  V30 13460 H 1250.68 -6.74371 -3.90952 0
M  V30 13461 N 1254.91 0.036755 -1.57557 0
M  V30 13462 C 1256.13 0.744813 -1.93565 0
M  V30 13463 C 1256.56 1.68508 -0.835863 0
M  V30 13464 O 1255.91 1.80091 0.208986 0
M  V30 13465 C 1255.96 1.48461 -3.28621 0
M  V30 13466 O 1255.07 2.59739 -3.20327 0
M  V30 13467 H 1254.41 0.200866 -0.632889 0
M  V30 13468 H 1256.94 -0.00547543 -2.04599 0
M  V30 13469 H 1256.95 1.85622 -3.63329 0
M  V30 13470 H 1255.62 0.794953 -4.08232 0
M  V30 13471 H 1254.2 2.25176 -2.97237 0
M  V30 13472 N 1256.39 1.54543 0.308881 0
M  V30 13473 C 1257.8 1.45581 0.654088 0
M  V30 13474 C 1258 0.640597 1.91046 0
M  V30 13475 O 1257.06 0.14518 2.52082 0
M  V30 13476 C 1258.37 2.89461 0.814422 0
M  V30 13477 C 1259.92 2.99455 0.910817 0
M  V30 13478 C 1260.39 4.44515 1.10321 0
M  V30 13479 N 1261.88 4.4819 1.1696 0
M  V30 13480 C 1262.62 5.57604 1.33661 0
M  V30 13481 N 1262.12 6.76957 1.47311 0
M  V30 13482 N 1263.91 5.45278 1.36487 0
M  V30 13483 H 1256.06 2.06019 -0.516699 0
M  V30 13484 H 1258.32 0.932729 -0.169471 0
M  V30 13485 H 1258.03 3.5168 -0.0377455 0
M  V30 13486 H 1257.9 3.36425 1.70582 0
M  V30 13487 H 1260.29 2.37355 1.75348 0
M  V30 13488 H 1260.37 2.558 -0.00443172 0
M  V30 13489 H 1260.01 5.07206 0.265346 0
M  V30 13490 H 1259.94 4.85793 2.03256 0
M  V30 13491 H 1262.44 3.62199 1.07796 0
M  V30 13492 H 1262.75 7.561 1.59788 0
M  V30 13493 H 1261.09 6.79837 1.44382 0
M  V30 13494 H 1264.28 4.50983 1.25429 0
M  V30 13495 H 1264.46 6.30599 1.4916 0
M  V30 13496 N 1257.86 -0.571685 1.46866 0
M  V30 13497 C 1258.83 -1.66198 1.57832 0
M  V30 13498 C 1259.83 -1.54242 0.454547 0
M  V30 13499 O 1261.02 -1.58661 0.719191 0
M  V30 13500 C 1258.15 -3.05678 1.5091 0
M  V30 13501 H 1259.34 -1.57829 2.5501 0
M  V30 13502 H 1256.89 -0.790433 1.3484 0
M  V30 13503 H 1257.63 -3.19593 0.550529 0
M  V30 13504 H 1257.41 -3.15765 2.32454 0
M  V30 13505 H 1258.9 -3.85027 1.61692 0
M  V30 13506 N 1259.34 -1.34755 -0.817236 0
M  V30 13507 C 1260.25 -1.28888 -1.96023 0
M  V30 13508 C 1261.27 -0.195582 -1.72897 0
M  V30 13509 O 1262.44 -0.423071 -1.96906 0
M  V30 13510 C 1259.51 -1.04985 -3.30423 0
M  V30 13511 C 1258.57 -2.23526 -3.66517 0
M  V30 13512 C 1257.8 -2.00753 -4.94504 0
M  V30 13513 O 1258.03 -0.968622 -5.62116 0
M  V30 13514 O 1256.96 -2.87848 -5.28608 0
M  V30 13515 H 1260.79 -2.25059 -2.03917 0
M  V30 13516 H 1258.37 -1.15019 -0.953467 0
M  V30 13517 H 1260.25 -0.934589 -4.10906 0
M  V30 13518 H 1258.93 -0.118582 -3.23483 0
M  V30 13519 H 1257.83 -2.40613 -2.86455 0
M  V30 13520 H 1259.17 -3.15062 -3.78149 0
M  V30 13521 N 1260.82 1.03812 -1.18578 0
M  V30 13522 C 1262.04 1.8124 -1.00831 0
M  V30 13523 C 1262.47 1.82917 0.43853 0
M  V30 13524 O 1261.83 1.24835 1.31476 0
M  V30 13525 C 1261.88 3.24592 -1.57075 0
M  V30 13526 O 1260.98 4.04688 -0.793824 0
M  V30 13527 H 1260.32 0.559846 -0.357028 0
M  V30 13528 H 1262.85 1.30724 -1.57393 0
M  V30 13529 H 1262.86 3.75363 -1.59896 0
M  V30 13530 H 1261.54 3.22686 -2.62387 0
M  V30 13531 H 1260.11 3.63359 -0.838134 0
M  V30 13532 N 1262.3 0.988223 1.22768 0
M  V30 13533 C 1263.24 0.534605 2.24523 0
M  V30 13534 C 1264.21 -0.430615 1.60421 0
M  V30 13535 O 1265.4 -0.336417 1.87811 0
M  V30 13536 C 1262.54 -0.149195 3.44777 0
M  V30 13537 C 1261.65 0.85721 4.2341 0
M  V30 13538 C 1260.79 0.147411 5.30995 0
M  V30 13539 C 1259.83 1.1425 6.01343 0
M  V30 13540 N 1258.96 0.461327 7.00583 0
M  V30 13541 H 1263.8 1.40708 2.62689 0
M  V30 13542 H 1261.34 0.704918 1.2911 0
M  V30 13543 H 1263.3 -0.562527 4.1339 0
M  V30 13544 H 1261.93 -0.985485 3.07389 0
M  V30 13545 H 1260.98 1.38889 3.54138 0
M  V30 13546 H 1262.29 1.61517 4.71926 0
M  V30 13547 H 1261.45 -0.32289 6.0584 0
M  V30 13548 H 1260.19 -0.643085 4.83442 0
M  V30 13549 H 1259.19 1.62348 5.25284 0
M  V30 13550 H 1260.42 1.93379 6.50985 0
M  V30 13551 H 1258.36 -0.309818 6.55268 0
M  V30 13552 H 1258.28 1.15781 7.47082 0
M  V30 13553 H 1259.55 0.0136734 7.79499 0
M  V30 13554 N 1263.78 -1.38018 0.760839 0
M  V30 13555 C 1265.19 -1.53437 0.439239 0
M  V30 13556 C 1265.39 -1.72184 -1.04666 0
M  V30 13557 O 1264.45 -1.73698 -1.83263 0
M  V30 13558 C 1265.76 -2.73724 1.24481 0
M  V30 13559 C 1267.31 -2.87579 1.23561 0
M  V30 13560 C 1267.78 -4.10836 2.02429 0
M  V30 13561 N 1269.27 -4.17928 1.99727 0
M  V30 13562 C 1270.01 -5.12309 2.57541 0
M  V30 13563 N 1269.51 -6.12317 3.24098 0
M  V30 13564 N 1271.3 -5.04712 2.47431 0
M  V30 13565 H 1263.45 -1.241 1.72375 0
M  V30 13566 H 1265.71 -0.603427 0.73115 0
M  V30 13567 H 1265.42 -2.663 2.29732 0
M  V30 13568 H 1265.29 -3.67111 0.866579 0
M  V30 13569 H 1267.68 -2.9448 0.191122 0
M  V30 13570 H 1267.76 -1.95183 1.6534 0
M  V30 13571 H 1267.4 -4.04696 3.06893 0
M  V30 13572 H 1267.33 -5.02326 1.58039 0
M  V30 13573 H 1269.83 -3.46307 1.51262 0
M  V30 13574 H 1270.14 -6.80842 3.65615 0
M  V30 13575 H 1268.48 -6.12628 3.28195 0
M  V30 13576 H 1271.67 -4.25524 1.95057 0
M  V30 13577 H 1271.85 -5.78085 2.92783 0
M  V30 13578 N 1265.25 -0.510493 -1.49103 0
M  V30 13579 C 1266.19 0.309697 -2.26089 0
M  V30 13580 C 1267.16 0.962061 -1.31084 0
M  V30 13581 O 1268.35 0.990296 -1.60391 0
M  V30 13582 C 1265.48 1.43693 -3.06708 0
M  V30 13583 C 1264.52 0.897978 -4.1694 0
M  V30 13584 S 1265.35 -0.218781 -5.35053 0
M  V30 13585 C 1266.51 0.911396 -6.19229 0
M  V30 13586 H 1266.74 -0.343702 -2.95307 0
M  V30 13587 H 1264.28 -0.295944 -1.51537 0
M  V30 13588 H 1266.23 2.08277 -3.53739 0
M  V30 13589 H 1264.9 2.06198 -2.36941 0
M  V30 13590 H 1264.09 1.74303 -4.729 0
M  V30 13591 H 1263.69 0.329192 -3.72548 0
M  V30 13592 H 1265.98 1.8145 -6.5275 0
M  V30 13593 H 1266.93 0.390201 -7.07024 0
M  V30 13594 H 1267.33 1.18301 -5.51965 0
M  V30 13595 N 1266.73 1.55688 -0.24474 0
M  V30 13596 C 1267.68 2.21289 0.655723 0
M  V30 13597 C 1268.65 1.17606 1.17295 0
M  V30 13598 O 1269.83 1.46045 1.22782 0
M  V30 13599 C 1266.97 2.91453 1.84794 0
M  V30 13600 C 1266.09 4.09787 1.36744 0
M  V30 13601 C 1265.22 4.67672 2.51905 0
M  V30 13602 C 1264.26 5.78259 2.00706 0
M  V30 13603 N 1263.4 6.30336 3.09225 0
M  V30 13604 H 1268.24 2.97865 0.0896156 0
M  V30 13605 H 1265.77 1.47064 0.0324725 0
M  V30 13606 H 1267.73 3.30331 2.54828 0
M  V30 13607 H 1266.36 2.17355 2.38656 0
M  V30 13608 H 1265.41 3.76237 0.561228 0
M  V30 13609 H 1266.73 4.89627 0.952199 0
M  V30 13610 H 1265.88 5.09113 3.29984 0
M  V30 13611 H 1264.62 3.87044 2.9673 0
M  V30 13612 H 1263.62 5.36298 1.21097 0
M  V30 13613 H 1264.85 6.60737 1.56853 0
M  V30 13614 H 1262.8 5.52614 3.53489 0
M  V30 13615 H 1262.71 7.05364 2.72025 0
M  V30 13616 H 1263.98 6.76435 3.8737 0
M  V30 13617 N 1268.21 -0.0283989 1.57574 0
M  V30 13618 C 1269.14 -1.02828 2.09639 0
M  V30 13619 C 1270.12 -1.37668 0.999076 0
M  V30 13620 O 1271.31 -1.4654 1.27435 0
M  V30 13621 C 1268.44 -2.329 2.57633 0
M  V30 13622 C 1267.39 -2.12301 3.71635 0
M  V30 13623 C 1266.72 -3.48138 4.05837 0
M  V30 13624 C 1268.02 -1.50864 5.00037 0
M  V30 13625 H 1269.71 -0.594876 2.93431 0
M  V30 13626 H 1267.26 -0.284701 1.41158 0
M  V30 13627 H 1269.21 -3.03179 2.92678 0
M  V30 13628 H 1267.93 -2.78302 1.70926 0
M  V30 13629 H 1266.59 -1.44454 3.3694 0
M  V30 13630 H 1266.24 -3.9119 3.16195 0
M  V30 13631 H 1265.94 -3.3518 4.82626 0
M  V30 13632 H 1267.46 -4.19779 4.43417 0
M  V30 13633 H 1268.88 -2.11062 5.33035 0
M  V30 13634 H 1267.27 -1.48479 5.81441 0
M  V30 13635 H 1268.34 -0.474541 4.82572 0
M  V30 13636 N 1269.69 -1.54705 -0.300681 0
M  V30 13637 C 1270.92 -1.77993 -1.0548 0
M  V30 13638 C 1271.33 -0.539574 -1.80926 0
M  V30 13639 O 1270.69 0.490597 -1.75782 0
M  V30 13640 C 1270.74 -2.98774 -2.0351 0
M  V30 13641 O 1270.46 -4.18016 -1.31126 0
M  V30 13642 C 1271.96 -3.34452 -2.90958 0
M  V30 13643 H 1269.18 -0.593628 -0.312805 0
M  V30 13644 H 1271.72 -2.01656 -0.339858 0
M  V30 13645 H 1269.88 -2.77318 -2.70506 0
M  V30 13646 H 1270.29 -4.86113 -1.96963 0
M  V30 13647 H 1271.77 -4.22206 -3.55593 0
M  V30 13648 H 1272.24 -2.52622 -3.59275 0
M  V30 13649 H 1272.85 -3.58069 -2.29493 0
M  V30 13650 N 1271.17 0.563888 -1.47167 0
M  V30 13651 C 1272.11 1.67151 -1.59152 0
M  V30 13652 C 1273.08 1.60307 -0.434852 0
M  V30 13653 O 1274.27 1.7924 -0.654049 0
M  V30 13654 C 1271.41 3.0548 -1.60549 0
M  V30 13655 C 1270.52 3.2281 -2.87085 0
M  V30 13656 C 1269.66 4.51498 -2.79862 0
M  V30 13657 C 1268.7 4.62237 -4.01252 0
M  V30 13658 N 1267.83 5.82273 -3.92305 0
M  V30 13659 H 1272.67 1.56245 -2.53755 0
M  V30 13660 H 1270.21 0.761219 -1.25872 0
M  V30 13661 H 1272.17 3.85572 -1.59343 0
M  V30 13662 H 1270.8 3.15237 -0.69464 0
M  V30 13663 H 1269.85 2.36196 -2.98188 0
M  V30 13664 H 1271.16 3.2661 -3.76997 0
M  V30 13665 H 1270.32 5.39842 -2.76867 0
M  V30 13666 H 1269.05 4.50166 -1.87621 0
M  V30 13667 H 1268.06 3.72307 -4.04558 0
M  V30 13668 H 1269.28 4.65334 -4.94612 0
M  V30 13669 H 1267.23 5.81902 -3.02862 0
M  V30 13670 H 1267.15 5.87422 -4.7589 0
M  V30 13671 H 1268.42 6.72996 -3.93315 0
M  V30 13672 N 1272.64 1.35187 0.810078 0
M  V30 13673 C 1273.59 1.27848 1.94313 0
M  V30 13674 C 1274.59 0.174081 1.68503 0
M  V30 13675 O 1275.79 0.339848 1.76763 0
M  V30 13676 H 1272.17 0.397504 0.638353 0
M  V30 13677 H 1274.14 2.23579 1.97623 0
M  V30 13678 C 1272.89 1.06382 3.31026 0
M  V30 13679 H 1272.21 1.90601 3.51441 0
M  V30 13680 H 1273.65 1.05287 4.1072 0
M  V30 13681 C 1272.11 -0.232462 3.36097 0
M  V30 13682 O 1272.64 -1.22946 3.82423 0
M  V30 13683 N 1270.85 -0.270028 2.89343 0
M  V30 13684 H 1270.39 0.541891 2.51836 0
M  V30 13685 H 1270.35 -1.13708 2.93117 0
M  V30 13686 N 1274.12 -1.03182 1.19127 0
M  V30 13687 C 1275.35 -1.80165 1.01726 0
M  V30 13688 C 1275.77 -1.83742 -0.434095 0
M  V30 13689 O 1275.12 -1.27932 -1.30152 0
M  V30 13690 C 1275.17 -3.25354 1.57566 0
M  V30 13691 O 1274.89 -3.22042 2.9702 0
M  V30 13692 C 1276.4 -4.18948 1.44906 0
M  V30 13693 H 1273.62 -0.567078 0.358698 0
M  V30 13694 H 1276.16 -1.29982 1.57877 0
M  V30 13695 H 1274.31 -3.72738 1.0557 0
M  V30 13696 H 1274.73 -4.13061 3.23235 0
M  V30 13697 H 1276.2 -5.18723 1.88762 0
M  V30 13698 H 1276.68 -4.37383 0.399125 0
M  V30 13699 H 1277.29 -3.77435 1.96018 0
M  V30 13700 N 1275.6 -0.99472 -1.22242 0
M  V30 13701 C 1276.53 -0.504783 -2.23572 0
M  V30 13702 C 1277.55 0.401105 -1.57781 0
M  V30 13703 O 1278.73 0.202948 -1.77343 0
M  V30 13704 C 1275.83 0.287524 -3.37678 0
M  V30 13705 C 1275.01 -0.614941 -4.33056 0
M  V30 13706 C 1274.07 0.125974 -5.26049 0
M  V30 13707 O 1273.09 -0.489234 -5.67094 0
M  V30 13708 N 1274.29 1.40772 -5.63173 0
M  V30 13709 H 1277.06 -1.37612 -2.66238 0
M  V30 13710 H 1274.62 -0.86965 -1.3656 0
M  V30 13711 H 1276.61 0.791884 -3.96877 0
M  V30 13712 H 1275.18 1.05998 -2.9408 0
M  V30 13713 H 1274.4 -1.29994 -3.72149 0
M  V30 13714 H 1275.69 -1.22947 -4.93722 0
M  V30 13715 H 1275.09 1.92884 -5.31801 0
M  V30 13716 H 1273.65 1.85723 -6.2478 0
M  V30 13717 N 1277.08 1.37613 -0.768148 0
M  V30 13718 C 1278.03 2.3218 -0.13974 0
M  V30 13719 C 1279.02 1.54754 0.689023 0
M  V30 13720 O 1280.23 1.70177 0.586489 0
M  V30 13721 H 1276.6 0.751536 -0.0264001 0
M  V30 13722 H 1278.57 2.82768 -0.953139 0
M  V30 13723 C 1277.32 3.39997 0.727829 0
M  V30 13724 H 1276.64 3.99676 0.0994851 0
M  V30 13725 H 1278.08 4.08538 1.13456 0
M  V30 13726 C 1276.54 2.79778 1.87686 0
M  V30 13727 O 1277.07 2.70241 2.97208 0
M  V30 13728 N 1275.28 2.37373 1.67637 0
M  V30 13729 H 1274.83 2.4533 0.785552 0
M  V30 13730 H 1274.78 1.97426 2.44684 0
M  V30 13731 N 1278.56 0.518393 1.4883 0
M  V30 13732 C 1279.8 -0.0199053 2.0249 0
M  V30 13733 C 1280.13 -1.35375 1.39657 0
M  V30 13734 O 1279.39 -1.88454 0.527586 0
M  V30 13735 C 1279.69 -0.203001 3.56823 0
M  V30 13736 C 1279.35 1.05502 4.38384 0
M  V30 13737 C 1278.01 1.39982 4.60389 0
M  V30 13738 C 1280.37 1.89042 4.85708 0
M  V30 13739 C 1277.69 2.57922 5.26966 0
M  V30 13740 C 1280.05 3.06151 5.53583 0
M  V30 13741 C 1278.71 3.40991 5.73831 0
M  V30 13742 H 1277.98 -0.00728388 0.740964 0
M  V30 13743 H 1280.63 0.682073 1.78941 0
M  V30 13744 H 1278.93 -0.987653 3.79147 0
M  V30 13745 H 1280.63 -0.634234 3.95953 0
M  V30 13746 H 1277.22 0.77647 4.21508 0
M  V30 13747 H 1281.4 1.63716 4.6852 0
M  V30 13748 H 1276.66 2.85132 5.40842 0
M  V30 13749 H 1280.83 3.71198 5.89224 0
M  V30 13750 H 1278.46 4.32479 6.25193 0
M  V30 13751 N 1280.03 -1.55556 0.252993 0
M  V30 13752 C 1280.98 -2.21634 -0.643979 0
M  V30 13753 C 1281.95 -1.18226 -1.1667 0
M  V30 13754 O 1283.14 -1.46694 -1.22006 0
M  V30 13755 C 1280.28 -2.92429 -1.83246 0
M  V30 13756 C 1279.39 -4.10506 -1.34569 0
M  V30 13757 C 1278.52 -4.69001 -2.49421 0
M  V30 13758 C 1277.56 -5.79315 -1.97636 0
M  V30 13759 N 1276.7 -6.31967 -3.05878 0
M  V30 13760 H 1281.54 -2.97909 -0.0738178 0
M  V30 13761 H 1279.08 -1.47079 -0.0246728 0
M  V30 13762 H 1281.04 -3.31678 -2.53072 0
M  V30 13763 H 1279.67 -2.18617 -2.375 0
M  V30 13764 H 1278.72 -3.76529 -0.541268 0
M  V30 13765 H 1280.03 -4.90125 -0.92622 0
M  V30 13766 H 1279.18 -5.10855 -3.27279 0
M  V30 13767 H 1277.92 -3.88612 -2.94673 0
M  V30 13768 H 1276.93 -5.36933 -1.18251 0
M  V30 13769 H 1278.15 -6.6156 -1.53347 0
M  V30 13770 H 1276.1 -5.5448 -3.50553 0
M  V30 13771 H 1276.02 -7.06797 -2.68281 0
M  V30 13772 H 1277.28 -6.7848 -3.83777 0
M  V30 13773 N 1281.51 0.0200419 -1.57587 0
M  V30 13774 C 1282.92 0.565484 -1.7793 0
M  V30 13775 C 1283.27 1.75096 -0.885201 0
M  V30 13776 O 1282.4 2.16243 -0.0823831 0
M  V30 13777 C 1282.99 1.03263 -3.2268 0
M  V30 13778 C 1281.55 1.52352 -3.44189 0
M  V30 13779 C 1280.7 0.465637 -2.73363 0
M  V30 13780 H 1283.65 -0.206174 -1.57355 0
M  V30 13781 H 1283.67 1.89959 -3.2969 0
M  V30 13782 H 1283.18 0.169613 -3.87729 0
M  V30 13783 H 1281.29 2.40809 -2.84327 0
M  V30 13784 H 1281.4 1.5648 -4.52825 0
M  V30 13785 H 1279.76 0.922738 -2.37398 0
M  V30 13786 H 1280.55 -0.388068 -3.411 0
M  V30 13787 N 1282.99 1.54862 0.292472 0
M  V30 13788 C 1283.95 1.8565 1.34413 0
M  V30 13789 C 1284.95 0.729868 1.43281 0
M  V30 13790 O 1286.14 0.998128 1.42769 0
M  V30 13791 C 1283.28 2.0444 2.72795 0
M  V30 13792 H 1284.47 2.79642 1.08354 0
M  V30 13793 H 1282.02 1.47055 0.529574 0
M  V30 13794 H 1282.76 1.12765 3.04063 0
M  V30 13795 H 1282.54 2.86451 2.67747 0
M  V30 13796 H 1284.03 2.296 3.48817 0
M  V30 13797 N 1284.47 -0.556076 1.47464 0
M  V30 13798 C 1285.88 -1.1382 1.47993 0
M  V30 13799 C 1286.23 -1.94785 0.235249 0
M  V30 13800 O 1285.36 -2.06098 -0.659752 0
M  V30 13801 C 1285.95 -2.07082 2.68146 0
M  V30 13802 C 1284.51 -2.60564 2.71631 0
M  V30 13803 C 1283.66 -1.36967 2.41113 0
M  V30 13804 H 1286.61 -0.34262 1.54957 0
M  V30 13805 H 1286.63 -2.90975 2.45181 0
M  V30 13806 H 1286.14 -1.48127 3.5872 0
M  V30 13807 H 1284.24 -3.23314 1.852 0
M  V30 13808 H 1284.35 -3.0148 3.72353 0
M  V30 13809 H 1282.72 -1.67678 1.91719 0
M  V30 13810 H 1283.5 -0.79803 3.33896 0
M  V30 13811 N 1285.95 -1.35615 -0.802897 0
M  V30 13812 C 1286.91 -1.28705 -1.89651 0
M  V30 13813 C 1287.91 -0.197681 -1.5958 0
M  V30 13814 O 1289.1 -0.451618 -1.68244 0
M  V30 13815 C 1286.23 -0.991941 -3.26149 0
M  V30 13816 H 1287.43 -2.25951 -1.97196 0
M  V30 13817 H 1284.98 -1.20192 -0.999179 0
M  V30 13818 H 1285.71 -0.0235051 -3.24291 0
M  V30 13819 H 1285.5 -1.78013 -3.49362 0
M  V30 13820 H 1286.99 -0.969298 -4.06195 0
M  V30 13821 N 1287.43 1.02549 -1.19673 0
M  V30 13822 C 1288.65 1.79623 -1.0268 0
M  V30 13823 C 1289.07 1.83969 0.424345 0
M  V30 13824 O 1288.43 1.28621 1.29472 0
M  V30 13825 C 1288.48 3.24514 -1.59289 0
M  V30 13826 O 1288.2 3.20462 -2.98723 0
M  V30 13827 C 1289.7 4.18173 -1.47126 0
M  V30 13828 H 1286.92 0.565167 -0.3617 0
M  V30 13829 H 1289.46 1.29143 -1.58564 0
M  V30 13830 H 1287.62 3.72173 -1.07546 0
M  V30 13831 H 1288.03 4.11341 -3.25421 0
M  V30 13832 H 1289.51 5.17714 -1.9151 0
M  V30 13833 H 1289.98 4.37165 -0.422315 0
M  V30 13834 H 1290.59 3.7639 -1.98017 0
M  V30 13835 N 1288.9 1.00119 1.21713 0
M  V30 13836 C 1289.85 0.551452 2.25969 0
M  V30 13837 C 1290.85 -0.402075 1.64559 0
M  V30 13838 O 1292.05 -0.273685 1.77907 0
M  V30 13839 H 1288.43 0.159968 0.734789 0
M  V30 13840 H 1290.4 1.44201 2.61244 0
M  V30 13841 C 1289.15 -0.109992 3.47526 0
M  V30 13842 H 1288.47 0.614686 3.95046 0
M  V30 13843 H 1289.91 -0.388007 4.22221 0
M  V30 13844 C 1288.37 -1.34798 3.08757 0
M  V30 13845 O 1288.9 -2.44266 3.189 0
M  V30 13846 N 1287.1 -1.2263 2.63458 0
M  V30 13847 H 1286.65 -0.335571 2.55405 0
M  V30 13848 H 1286.61 -2.05565 2.37887 0
M  V30 13849 N 1290.38 -1.37203 0.775435 0
M  V30 13850 C 1291.61 -2.03868 0.352927 0
M  V30 13851 C 1292.02 -1.58482 -1.0261 0
M  V30 13852 O 1291.38 -0.767772 -1.65564 0
M  V30 13853 C 1291.43 -3.59378 0.39116 0
M  V30 13854 O 1291.15 -4.03103 1.71579 0
M  V30 13855 C 1292.65 -4.4328 -0.0424808 0
M  V30 13856 H 1289.87 -0.654619 0.14736 0
M  V30 13857 H 1292.42 -1.75463 1.05039 0
M  V30 13858 H 1290.57 -3.86542 -0.257752 0
M  V30 13859 H 1290.99 -4.9764 1.65695 0
M  V30 13860 H 1292.46 -5.51989 0.0354215 0
M  V30 13861 H 1292.94 -4.25374 -1.09333 0
M  V30 13862 H 1293.54 -4.21349 0.578384 0
M  V30 13863 N 1291.86 -0.526279 -1.48553 0
M  V30 13864 C 1292.79 0.275579 -2.27537 0
M  V30 13865 C 1293.8 0.90782 -1.35139 0
M  V30 13866 O 1294.99 0.786887 -1.6022 0
M  V30 13867 C 1292.09 1.40515 -3.08397 0
M  V30 13868 C 1291.27 0.875523 -4.28548 0
M  V30 13869 C 1290.33 1.88577 -4.91249 0
M  V30 13870 O 1289.35 1.44419 -5.50574 0
M  V30 13871 N 1290.55 3.21774 -4.83158 0
M  V30 13872 H 1293.32 -0.401803 -2.96994 0
M  V30 13873 H 1290.88 -0.360378 -1.57838 0
M  V30 13874 H 1292.87 2.07907 -3.47213 0
M  V30 13875 H 1291.44 1.98626 -2.41384 0
M  V30 13876 H 1290.66 0.025728 -3.94192 0
M  V30 13877 H 1291.95 0.500493 -5.06332 0
M  V30 13878 H 1291.35 3.60319 -4.36104 0
M  V30 13879 H 1289.9 3.84808 -5.26085 0
M  V30 13880 N 1293.34 1.5542 -0.261239 0
M  V30 13881 C 1294.29 2.23382 0.648324 0
M  V30 13882 C 1295.28 1.22615 1.16884 0
M  V30 13883 O 1296.49 1.40587 1.12407 0
M  V30 13884 H 1292.86 0.716733 0.227592 0
M  V30 13885 H 1294.83 2.98354 0.0521289 0
M  V30 13886 C 1293.58 2.9579 1.82766 0
M  V30 13887 H 1292.9 3.73109 1.4363 0
M  V30 13888 H 1294.34 3.46686 2.441 0
M  V30 13889 C 1292.8 2.00472 2.70763 0
M  V30 13890 O 1293.33 1.54698 3.70717 0
M  V30 13891 N 1291.54 1.67267 2.37635 0
M  V30 13892 H 1291.09 2.04685 1.56402 0
M  V30 13893 H 1291.04 1.03759 2.96785 0
M  V30 13894 N 1294.82 -0.0116844 1.57596 0
M  V30 13895 C 1296.05 -0.70923 1.94045 0
M  V30 13896 C 1296.45 -1.6848 0.860877 0
M  V30 13897 O 1295.8 -1.82913 -0.169896 0
M  V30 13898 C 1295.86 -1.50653 3.2641 0
M  V30 13899 C 1295.52 -0.693838 4.51702 0
M  V30 13900 C 1296.52 0.0134445 5.19898 0
M  V30 13901 C 1294.2 -0.643252 4.98164 0
M  V30 13902 C 1296.2 0.760426 6.32848 0
M  V30 13903 C 1293.89 0.107462 6.11006 0
M  V30 13904 C 1294.88 0.808045 6.78203 0
M  V30 13905 O 1294.57 1.54654 7.88884 0
M  V30 13906 H 1294.3 -0.203265 0.644716 0
M  V30 13907 H 1296.86 0.0320123 2.05375 0
M  V30 13908 H 1295.09 -2.29199 3.11456 0
M  V30 13909 H 1296.78 -2.08832 3.48058 0
M  V30 13910 H 1297.54 -0.016558 4.84997 0
M  V30 13911 H 1293.42 -1.17807 4.45693 0
M  V30 13912 H 1296.97 1.30779 6.85232 0
M  V30 13913 H 1292.86 0.139327 6.4535 0
M  V30 13914 H 1293.63 1.46202 8.05337 0
M  V30 13915 N 1296.29 -1.55015 -0.284256 0
M  V30 13916 C 1297.26 -1.8636 -1.33426 0
M  V30 13917 C 1298.26 -0.737457 -1.42892 0
M  V30 13918 O 1299.45 -1.00569 -1.42238 0
M  V30 13919 C 1296.58 -2.05884 -2.71707 0
M  V30 13920 H 1297.77 -2.80212 -1.06869 0
M  V30 13921 H 1295.32 -1.47334 -0.521767 0
M  V30 13922 H 1296.06 -1.14376 -3.03461 0
M  V30 13923 H 1295.84 -2.87867 -2.66224 0
M  V30 13924 H 1297.33 -2.31447 -3.47595 0
M  V30 13925 N 1297.77 0.548248 -1.47757 0
M  V30 13926 C 1299 1.3302 -1.58472 0
M  V30 13927 C 1299.41 1.87292 -0.238186 0
M  V30 13928 O 1298.77 1.65465 0.76991 0
M  V30 13929 C 1298.82 2.49386 -2.61704 0
M  V30 13930 O 1298.54 1.97355 -3.9113 0
M  V30 13931 C 1300.04 3.41471 -2.82688 0
M  V30 13932 H 1297.26 0.405172 -0.534861 0
M  V30 13933 H 1299.81 0.663251 -1.93446 0
M  V30 13934 H 1297.96 3.12001 -2.29639 0
M  V30 13935 H 1298.38 2.7339 -4.47614 0
M  V30 13936 H 1299.85 4.19516 -3.58762 0
M  V30 13937 H 1300.33 3.95573 -1.90837 0
M  V30 13938 H 1300.93 2.84664 -3.15985 0
M  V30 13939 N 1299.25 1.36039 0.795694 0
M  V30 13940 C 1300.48 1.32866 1.58209 0
M  V30 13941 C 1300.89 -0.0935189 1.88969 0
M  V30 13942 O 1300.23 -1.05905 1.501 0
M  V30 13943 C 1300.29 2.07872 2.93308 0
M  V30 13944 C 1299.96 3.56999 2.85309 0
M  V30 13945 C 1300.95 4.51374 2.57987 0
M  V30 13946 C 1298.64 3.99798 3.04083 0
M  V30 13947 C 1300.63 5.86526 2.49533 0
M  V30 13948 C 1298.32 5.35042 2.95251 0
M  V30 13949 C 1299.32 6.28218 2.68013 0
M  V30 13950 O 1299.01 7.60979 2.59163 0
M  V30 13951 H 1298.74 0.457589 0.497583 0
M  V30 13952 H 1301.29 1.79637 0.995978 0
M  V30 13953 H 1299.52 1.55755 3.53945 0
M  V30 13954 H 1301.21 1.97638 3.54534 0
M  V30 13955 H 1301.98 4.19623 2.43191 0
M  V30 13956 H 1297.86 3.27652 3.24292 0
M  V30 13957 H 1301.4 6.59222 2.28193 0
M  V30 13958 H 1297.3 5.66404 3.09608 0
M  V30 13959 H 1298.06 7.7103 2.74691 0
M  V30 13960 N 1300.73 -1.01913 1.20215 0
M  V30 13961 C 1302.14 -1.27766 0.956459 0
M  V30 13962 C 1302.34 -1.98158 -0.365486 0
M  V30 13963 O 1301.4 -2.27539 -1.09463 0
M  V30 13964 C 1302.71 -2.11516 2.13732 0
M  V30 13965 C 1304.26 -2.24792 2.17802 0
M  V30 13966 C 1304.74 -3.11919 3.35367 0
M  V30 13967 N 1306.23 -3.19507 3.35364 0
M  V30 13968 C 1306.96 -3.8714 4.22978 0
M  V30 13969 N 1306.46 -4.5692 5.20765 0
M  V30 13970 N 1308.25 -3.83638 4.10827 0
M  V30 13971 H 1300.4 -0.546426 2.05251 0
M  V30 13972 H 1302.67 -0.303772 0.898012 0
M  V30 13973 H 1302.37 -1.67127 3.09453 0
M  V30 13974 H 1302.25 -3.12249 2.11614 0
M  V30 13975 H 1304.63 -2.68407 1.22645 0
M  V30 13976 H 1304.71 -1.23576 2.2397 0
M  V30 13977 H 1304.36 -2.6901 4.30809 0
M  V30 13978 H 1304.29 -4.13215 3.26436 0
M  V30 13979 H 1306.78 -2.69819 2.64587 0
M  V30 13980 H 1307.09 -5.06188 5.83947 0
M  V30 13981 H 1305.44 -4.55753 5.24704 0
M  V30 13982 H 1308.63 -3.28268 3.33703 0
M  V30 13983 H 1308.8 -4.36071 4.79318 0
M  V30 13984 N 1302.21 -1.00763 -1.2118 0
M  V30 13985 C 1303.12 -0.579646 -2.27326 0
M  V30 13986 C 1304.13 0.378592 -1.69831 0
M  V30 13987 O 1305.31 0.241772 -1.99944 0
M  V30 13988 C 1302.37 0.0843648 -3.46597 0
M  V30 13989 C 1301.43 -0.918685 -4.19355 0
M  V30 13990 C 1300.67 -0.286267 -5.32932 0
M  V30 13991 O 1300.89 0.916274 -5.62993 0
M  V30 13992 O 1299.82 -0.998513 -5.9356 0
M  V30 13993 H 1303.65 -1.46311 -2.66133 0
M  V30 13994 H 1301.24 -0.776641 -1.27627 0
M  V30 13995 H 1303.12 0.455636 -4.18929 0
M  V30 13996 H 1301.79 0.942166 -3.09685 0
M  V30 13997 H 1300.7 -1.34116 -3.49233 0
M  V30 13998 H 1302.03 -1.74616 -4.60185 0
M  V30 13999 N 1303.68 1.3679 -0.7827 0
M  V30 14000 C 1304.93 1.99023 -0.351316 0
M  V30 14001 C 1305.25 1.62436 1.07887 0
M  V30 14002 O 1304.52 0.895084 1.74256 0
M  V30 14003 H 1303.1 0.736141 -0.126909 0
M  V30 14004 H 1305.77 1.67095 -1.00325 0
M  V30 14005 H 1304.86 3.09015 -0.43774 0
M  V30 14006 N 1305.16 0.53415 1.48272 0
M  V30 14007 C 1306.39 0.00573642 2.06599 0
M  V30 14008 C 1306.8 -1.28303 1.3905 0
M  V30 14009 O 1306.14 -1.77499 0.473274 0
M  V30 14010 C 1306.21 -0.28451 3.58372 0
M  V30 14011 C 1305.87 0.911397 4.4782 0
M  V30 14012 C 1306.87 1.81091 4.87342 0
M  V30 14013 C 1304.55 1.11957 4.89664 0
M  V30 14014 C 1306.55 2.90246 5.67482 0
M  V30 14015 C 1304.23 2.21426 5.69573 0
M  V30 14016 C 1305.23 3.10403 6.08391 0
M  V30 14017 O 1304.92 4.17977 6.86695 0
M  V30 14018 H 1304.65 0.0322847 0.675229 0
M  V30 14019 H 1307.2 0.740415 1.91591 0
M  V30 14020 H 1305.43 -1.07321 3.71509 0
M  V30 14021 H 1307.12 -0.755508 3.98807 0
M  V30 14022 H 1307.89 1.66204 4.55633 0
M  V30 14023 H 1303.77 0.436266 4.58931 0
M  V30 14024 H 1307.31 3.59724 5.97699 0
M  V30 14025 H 1303.21 2.36295 6.00695 0
M  V30 14026 H 1303.98 4.15738 7.05056 0
M  V30 14027 N 1306.64 -1.55279 0.269478 0
M  V30 14028 C 1307.59 -2.23723 -0.636468 0
M  V30 14029 C 1308.58 -1.23234 -1.16232 0
M  V30 14030 O 1309.79 -1.41181 -1.1166 0
M  V30 14031 H 1306.16 -0.71793 -0.223788 0
M  V30 14032 H 1308.13 -2.98378 -0.0363057 0
M  V30 14033 C 1306.88 -2.96755 -1.81195 0
M  V30 14034 H 1306.21 -3.73865 -1.4165 0
M  V30 14035 H 1307.65 -3.47975 -2.42258 0
M  V30 14036 C 1306.11 -2.01905 -2.69696 0
M  V30 14037 O 1306.64 -1.56662 -3.69892 0
M  V30 14038 N 1304.84 -1.68524 -2.36744 0
M  V30 14039 H 1304.39 -2.05512 -1.55314 0
M  V30 14040 H 1304.35 -1.05331 -2.96231 0
M  V30 14041 N 1308.12 0.00332656 -1.576 0
M  V30 14042 C 1309.36 0.68989 -1.90705 0
M  V30 14043 C 1309.7 1.73608 -0.870291 0
M  V30 14044 O 1308.97 1.94181 0.111416 0
M  V30 14045 C 1309.26 1.33605 -3.34397 0
M  V30 14046 C 1309.11 0.301638 -4.48787 0
M  V30 14047 C 1310.43 2.26313 -3.77453 0
M  V30 14048 H 1307.55 0.249328 -0.693545 0
M  V30 14049 H 1310.19 -0.0472847 -1.89941 0
M  V30 14050 H 1308.34 1.96437 -3.35179 0
M  V30 14051 H 1310.01 -0.326738 -4.60141 0
M  V30 14052 H 1308.25 -0.376451 -4.32163 0
M  V30 14053 H 1308.92 0.792741 -5.46278 0
M  V30 14054 H 1311.4 1.73502 -3.78201 0
M  V30 14055 H 1310.28 2.68492 -4.78752 0
M  V30 14056 H 1310.54 3.14082 -3.11135 0
M  V30 14057 N 1309.6 1.55164 0.276031 0
M  V30 14058 C 1310.83 1.79388 1.02486 0
M  V30 14059 C 1311.23 0.565884 1.80539 0
M  V30 14060 O 1310.58 -0.47449 1.77466 0
M  V30 14061 C 1310.64 2.96494 2.03302 0
M  V30 14062 C 1310.3 4.33649 1.44214 0
M  V30 14063 C 1311.3 5.12749 0.859355 0
M  V30 14064 C 1308.99 4.80301 1.47026 0
M  V30 14065 C 1310.98 6.36633 0.312548 0
M  V30 14066 C 1308.67 6.04141 0.919587 0
M  V30 14067 C 1309.66 6.82145 0.341729 0
M  V30 14068 O 1309.35 8.0365 -0.200517 0
M  V30 14069 H 1309.08 0.601454 0.308592 0
M  V30 14070 H 1311.64 2.02999 0.313148 0
M  V30 14071 H 1309.87 2.68568 2.78223 0
M  V30 14072 H 1311.56 3.08069 2.64288 0
M  V30 14073 H 1312.32 4.77839 0.830353 0
M  V30 14074 H 1308.2 4.19597 1.90942 0
M  V30 14075 H 1311.75 6.97461 -0.139131 0
M  V30 14076 H 1307.64 6.38533 0.945819 0
M  V30 14077 H 1308.41 8.18451 -0.0895877 0
M  V30 14078 N 1311.07 -0.540404 1.48045 0
M  V30 14079 C 1312.32 -1.29422 1.55224 0
M  V30 14080 C 1312.64 -1.93716 0.223365 0
M  V30 14081 O 1311.91 -1.808 -0.754204 0
M  V30 14082 H 1310.49 -0.480658 0.571819 0
M  V30 14083 H 1313.16 -0.629712 1.84447 0
M  V30 14084 H 1312.25 -2.07897 2.32777 0
M  V30 14085 N 1312.55 -1.36459 -0.788468 0
M  V30 14086 C 1313.78 -1.33898 -1.57731 0
M  V30 14087 C 1314.2 0.0795471 -1.88632 0
M  V30 14088 O 1313.55 1.03671 -1.50195 0
M  V30 14089 C 1313.6 -2.16134 -2.89773 0
M  V30 14090 O 1313.32 -3.52457 -2.60203 0
M  V30 14091 C 1314.83 -2.21364 -3.84074 0
M  V30 14092 H 1312.05 -0.459269 -0.489197 0
M  V30 14093 H 1314.59 -1.79569 -0.978526 0
M  V30 14094 H 1312.74 -1.74015 -3.46118 0
M  V30 14095 H 1313.16 -3.95378 -3.4464 0
M  V30 14096 H 1314.63 -2.83261 -4.7378 0
M  V30 14097 H 1315.11 -1.21736 -4.21992 0
M  V30 14098 H 1315.72 -2.63723 -3.33662 0
M  V30 14099 N 1314.03 1.01274 -1.20754 0
M  V30 14100 C 1314.94 2.1335 -0.975656 0
M  V30 14101 C 1315.96 1.7386 0.0697364 0
M  V30 14102 O 1317.13 2.01051 -0.118578 0
M  V30 14103 C 1314.2 3.42548 -0.534931 0
M  V30 14104 C 1313.26 3.96257 -1.65163 0
M  V30 14105 C 1312.49 5.19289 -1.23184 0
M  V30 14106 O 1312.71 5.70309 -0.102158 0
M  V30 14107 O 1311.65 5.66248 -2.04076 0
M  V30 14108 H 1315.47 2.35783 -1.91415 0
M  V30 14109 H 1313.06 1.11736 -0.991743 0
M  V30 14110 H 1314.94 4.20341 -0.298568 0
M  V30 14111 H 1313.62 3.21521 0.374937 0
M  V30 14112 H 1312.52 3.19726 -1.94232 0
M  V30 14113 H 1313.86 4.2168 -2.53864 0
M  V30 14114 N 1315.51 1.01404 1.20644 0
M  V30 14115 C 1316.73 0.720839 1.9447 0
M  V30 14116 C 1317.16 -0.711711 1.74116 0
M  V30 14117 O 1316.52 -1.48938 1.03379 0
M  V30 14118 C 1316.57 1.05864 3.4471 0
M  V30 14119 O 1315.67 0.168901 4.12054 0
M  V30 14120 H 1315.01 0.267698 0.607646 0
M  V30 14121 H 1317.54 1.35672 1.53147 0
M  V30 14122 H 1317.55 1.00928 3.9532 0
M  V30 14123 H 1316.23 2.1024 3.58848 0
M  V30 14124 H 1314.8 0.275572 3.7188 0
M  V30 14125 N 1316.99 -1.36373 0.789944 0
M  V30 14126 C 1318.23 -1.99523 0.363119 0
M  V30 14127 C 1318.57 -1.6255 -1.0626 0
M  V30 14128 O 1317.84 -0.880551 -1.73426 0
M  V30 14129 C 1318.12 -3.56215 0.527526 0
M  V30 14130 C 1317.98 -4.0304 1.99697 0
M  V30 14131 C 1319.3 -4.40063 -0.0571079 0
M  V30 14132 H 1316.42 -0.724824 0.133412 0
M  V30 14133 H 1319.06 -1.61778 0.996381 0
M  V30 14134 H 1317.21 -3.88498 -0.0115636 0
M  V30 14135 H 1318.88 -3.81241 2.59717 0
M  V30 14136 H 1317.12 -3.54561 2.49939 0
M  V30 14137 H 1317.79 -5.12001 2.06297 0
M  V30 14138 H 1320.27 -4.14143 0.403082 0
M  V30 14139 H 1319.15 -5.4883 0.0879494 0
M  V30 14140 H 1319.41 -4.26901 -1.14926 0
M  V30 14141 N 1318.47 -0.542005 -1.47987 0
M  V30 14142 C 1319.41 0.214151 -2.29804 0
M  V30 14143 C 1320.38 0.922625 -1.38119 0
M  V30 14144 O 1321.57 0.921301 -1.67083 0
M  V30 14145 C 1318.71 1.24768 -3.21756 0
M  V30 14146 C 1317.82 0.546824 -4.28525 0
M  V30 14147 C 1316.96 1.56432 -5.07644 0
M  V30 14148 C 1315.99 0.847598 -6.06203 0
M  V30 14149 N 1315.13 1.81121 -6.78336 0
M  V30 14150 H 1319.97 -0.489707 -2.93949 0
M  V30 14151 H 1317.51 -0.253331 -1.44902 0
M  V30 14152 H 1319.47 1.85933 -3.73477 0
M  V30 14153 H 1318.1 1.91976 -2.59509 0
M  V30 14154 H 1317.15 -0.179026 -3.79978 0
M  V30 14155 H 1318.46 -0.0153623 -4.98798 0
M  V30 14156 H 1317.61 2.24992 -5.63439 0
M  V30 14157 H 1316.35 2.16041 -4.37238 0
M  V30 14158 H 1315.36 0.147989 -5.49601 0
M  V30 14159 H 1316.58 0.257454 -6.78612 0
M  V30 14160 H 1314.53 2.39615 -6.10672 0
M  V30 14161 H 1314.45 1.30077 -7.44725 0
M  V30 14162 H 1315.71 2.48842 -7.38714 0
M  V30 14163 N 1319.94 1.55134 -0.277709 0
M  V30 14164 C 1321.19 1.98831 0.338982 0
M  V30 14165 C 1321.51 1.16958 1.56781 0
M  V30 14166 O 1322.71 1.50811 2.25762 0
M  V30 14167 C 1321.17 3.53899 0.654465 0
M  V30 14168 C 1320.78 4.44553 -0.554703 0
M  V30 14169 C 1322.52 4.06179 1.23364 0
M  V30 14170 C 1320.43 5.91014 -0.213663 0
M  V30 14171 H 1319.36 0.742632 0.130434 0
M  V30 14172 H 1322.01 1.79463 -0.382768 0
M  V30 14173 H 1320.39 3.69078 1.43519 0
M  V30 14174 H 1321.56 4.41143 -1.33151 0
M  V30 14175 H 1319.88 4.02921 -1.0509 0
M  V30 14176 H 1322.48 5.13152 1.50265 0
M  V30 14177 H 1322.82 3.5537 2.16836 0
M  V30 14178 H 1323.35 3.9445 0.515147 0
M  V30 14179 H 1320.09 6.45924 -1.11633 0
M  V30 14180 H 1319.61 5.97486 0.526329 0
M  V30 14181 H 1321.29 6.46712 0.19319 0
M  V30 14182 O 1321.46 0.143437 1.60862 0
M  V30 14183 H 1322.15 -0.451144 1.88373 0
M  V30 END ATOM
M  V30 BEGIN BOND
M  V30 END BOND
M  V30 END CTAB
M  END
$$$$
