drugbank_target|P26662 Genome polyprotein (DB01720; DB04005)
 OpenBabel12092119503D

  0  0  0     0  0            999 V3000
M  V30 BEGIN CTAB
M  V30 COUNTS 45908 46497 0 0 0
M  V30 BEGIN ATOM
M  V30 1 H -0.908 1.98254 -0.117106 0
M  V30 2 N 0 1.576 0 0
M  V30 3 C 0.933 2.03868 1.02534 0
M  V30 4 C 1.911 0.928543 1.3348 0
M  V30 5 O 3.095 1.19667 1.45644 0
M  V30 6 C 0.222 2.43627 2.35294 0
M  V30 7 C -0.732 3.65373 2.2001 0
M  V30 8 S 0.101 5.13292 1.52614 0
M  V30 9 C 1.257 5.56322 2.86805 0
M  V30 10 H 1.49 2.90518 0.631377 0
M  V30 11 H -0.977 1.52953 0.210867 0
M  V30 12 H 0.981 2.67203 3.11629 0
M  V30 13 H -0.358 1.57376 2.7183 0
M  V30 14 H -1.165 3.90944 3.18086 0
M  V30 15 H -1.563 3.418 1.51819 0
M  V30 16 H 0.729 5.58782 3.83104 0
M  V30 17 H 1.672 6.56266 2.65933 0
M  V30 18 H 2.08 4.83886 2.90714 0
M  V30 19 N 1.4781 -0.272755 1.55222 0
M  V30 20 C 2.7031 -1.02683 1.80197 0
M  V30 21 C 3.1281 -1.79142 0.573551 0
M  V30 22 O 2.4861 -1.74917 -0.476849 0
M  V30 23 C 2.5341 -1.9609 3.02624 0
M  V30 24 O 1.6381 -3.04863 2.77727 0
M  V30 25 H 0.9791 -0.293557 0.595584 0
M  V30 26 H 3.5091 -0.30159 2.02365 0
M  V30 27 H 3.5191 -2.38039 3.31363 0
M  V30 28 H 2.1941 -1.39851 3.91682 0
M  V30 29 H 0.7711 -2.67228 2.60084 0
M  V30 30 N 2.9562 -1.48159 -0.537278 0
M  V30 31 C 4.1842 -1.59454 -1.31841 0
M  V30 32 C 4.5992 -0.252065 -1.8711 0
M  V30 33 O 3.9562 0.757621 -1.66031 0
M  V30 34 C 4.0072 -2.63546 -2.47439 0
M  V30 35 O 3.7282 -3.92583 -1.94449 0
M  V30 36 C 5.2292 -2.85212 -3.39366 0
M  V30 37 H 2.4492 -0.53785 -0.401196 0
M  V30 38 H 4.9932 -1.93932 -0.648891 0
M  V30 39 H 3.1482 -2.31946 -3.1029 0
M  V30 40 H 3.5622 -4.49629 -2.70063 0
M  V30 41 H 5.0362 -3.61863 -4.16844 0
M  V30 42 H 5.5132 -1.93765 -3.94147 0
M  V30 43 H 6.1192 -3.18086 -2.82314 0
M  V30 44 N 4.4343 0.785586 -1.36625 0
M  V30 45 C 5.3823 1.91978 -1.31329 0
M  V30 46 C 6.3763 1.68162 -0.204416 0
M  V30 47 O 7.5823 1.76122 -0.371645 0
M  V30 48 H 3.9573 0.631087 -0.408942 0
M  V30 49 H 5.9283 1.93562 -2.27104 0
M  V30 50 C 4.6773 3.29055 -1.12329 0
M  V30 51 H 4.0003 3.4795 -1.96903 0
M  V30 52 H 5.4403 4.08756 -1.12671 0
M  V30 53 C 3.8993 3.36461 0.171861 0
M  V30 54 O 4.4293 3.84576 1.16035 0
M  V30 55 N 2.6353 2.89782 0.217846 0
M  V30 56 H 2.1823 2.50819 -0.587183 0
M  V30 57 H 2.1403 2.95119 1.08408 0
M  V30 58 N 5.9124 1.20967 1.01018 0
M  V30 59 C 7.3234 1.02319 1.56165 0
M  V30 60 C 7.6744 -0.418546 1.91684 0
M  V30 61 O 6.7994 -1.30096 1.72928 0
M  V30 62 C 7.3944 1.85109 2.8376 0
M  V30 63 C 5.9534 1.70809 3.35412 0
M  V30 64 C 5.1004 1.82643 2.08655 0
M  V30 65 H 8.0514 1.35065 0.833255 0
M  V30 66 H 8.0724 1.35827 3.55431 0
M  V30 67 H 7.5844 2.90035 2.57878 0
M  V30 68 H 5.6854 0.685464 3.66241 0
M  V30 69 H 5.7984 2.52467 4.07182 0
M  V30 70 H 4.1624 1.25896 2.21409 0
M  V30 71 H 4.9454 2.89066 1.85191 0
M  V30 72 N 7.3905 -1.2043 1.01659 0
M  V30 73 C 8.3375 -2.23215 0.586822 0
M  V30 74 C 9.3075 -1.61382 -0.393085 0
M  V30 75 O 10.4925 -1.88544 -0.292525 0
M  V30 76 C 7.6325 -3.45032 -0.0687464 0
M  V30 77 C 6.7455 -4.21296 0.955724 0
M  V30 78 C 5.8805 -5.30507 0.271208 0
M  V30 79 C 4.9195 -5.98515 1.28244 0
M  V30 80 N 4.0565 -6.99316 0.62459 0
M  V30 81 H 8.8965 -2.59336 1.46796 0
M  V30 82 H 6.4335 -1.27431 0.734836 0
M  V30 83 H 8.3915 -4.1459 -0.465965 0
M  V30 84 H 7.0215 -3.09604 -0.913529 0
M  V30 85 H 6.0735 -3.50803 1.4711 0
M  V30 86 H 7.3855 -4.6803 1.72479 0
M  V30 87 H 6.5395 -6.06428 -0.18151 0
M  V30 88 H 5.2785 -4.8481 -0.530163 0
M  V30 89 H 4.2835 -5.21355 1.74554 0
M  V30 90 H 5.5085 -6.46298 2.08509 0
M  V30 91 H 3.4545 -6.55812 -0.156914 0
M  V30 92 H 3.3715 -7.44178 1.33172 0
M  V30 93 H 4.6395 -7.79255 0.195462 0
M  V30 94 N 8.8686 -0.792821 -1.36206 0
M  V30 95 C 10.2796 -0.429513 -1.81692 0
M  V30 96 C 10.6306 1.04695 -1.65932 0
M  V30 97 O 9.7556 1.81256 -1.18218 0
M  V30 98 C 10.3506 -0.772831 -3.29868 0
M  V30 99 C 8.9096 -0.462307 -3.7355 0
M  V30 100 C 8.0566 -1.00569 -2.5842 0
M  V30 101 H 11.0076 -0.985672 -1.24379 0
M  V30 102 H 11.0286 -0.0651928 -3.80444 0
M  V30 103 H 10.5406 -1.84747 -3.41307 0
M  V30 104 H 8.6416 0.604158 -3.67669 0
M  V30 105 H 8.7546 -0.985299 -4.68859 0
M  V30 106 H 7.1186 -0.428734 -2.51066 0
M  V30 107 H 7.9016 -2.08616 -2.72643 0
M  V30 108 N 10.3467 1.47872 -0.545128 0
M  V30 109 C 11.2787 2.27869 0.246621 0
M  V30 110 C 12.2917 1.36282 0.890561 0
M  V30 111 O 13.4807 1.61207 0.766449 0
M  V30 112 C 10.5807 3.10159 1.36582 0
M  V30 113 C 9.7537 4.29627 0.820954 0
M  V30 114 C 8.8127 4.93607 1.82314 0
M  V30 115 O 7.8387 5.52366 1.37406 0
M  V30 116 N 9.0407 4.87211 3.15603 0
M  V30 117 H 11.8057 2.96459 -0.439539 0
M  V30 118 H 9.3667 1.57367 -0.380421 0
M  V30 119 H 11.3587 3.49829 2.03474 0
M  V30 120 H 9.9287 2.43891 1.9554 0
M  V30 121 H 9.1487 3.94192 -0.0244032 0
M  V30 122 H 10.4367 5.06928 0.436063 0
M  V30 123 H 9.8347 4.40651 3.54744 0
M  V30 124 H 8.3917 5.30937 3.78087 0
M  V30 125 N 11.8248 0.280983 1.55075 0
M  V30 126 C 13.2408 -0.0729964 1.59433 0
M  V30 127 C 13.4408 -1.5411 1.29817 0
M  V30 128 O 12.4968 -2.29086 1.06187 0
M  V30 129 C 13.8098 0.306921 2.9913 0
M  V30 130 C 15.3578 0.254023 3.11968 0
M  V30 131 C 15.8328 0.608467 4.5394 0
M  V30 132 N 17.3238 0.560241 4.59799 0
M  V30 133 C 18.0588 0.80722 5.6769 0
M  V30 134 N 17.5548 1.11912 6.83701 0
M  V30 135 N 19.3478 0.735623 5.57266 0
M  V30 136 H 11.4988 1.238 1.7259 0
M  V30 137 H 13.7618 0.500547 0.805082 0
M  V30 138 H 13.4678 1.32816 3.25657 0
M  V30 139 H 13.3418 -0.349363 3.75579 0
M  V30 140 H 15.7288 -0.75794 2.852 0
M  V30 141 H 15.8098 0.944649 2.37718 0
M  V30 142 H 15.4538 1.61814 4.81434 0
M  V30 143 H 15.3838 -0.104013 5.26497 0
M  V30 144 H 17.8748 0.329288 3.76463 0
M  V30 145 H 18.1878 1.29409 7.61888 0
M  V30 146 H 16.5328 1.15695 6.85303 0
M  V30 147 H 19.7238 0.491752 4.6551 0
M  V30 148 H 19.8968 0.931482 6.4127 0
M  V30 149 N 13.3029 -1.57598 0.00835791 0
M  V30 150 C 14.2499 -2.08945 -0.980346 0
M  V30 151 C 15.2199 -0.986738 -1.33614 0
M  V30 152 O 16.4049 -1.25968 -1.43306 0
M  V30 153 C 13.5449 -2.60425 -2.26435 0
M  V30 154 C 12.6579 -3.84628 -1.96685 0
M  V30 155 C 11.7929 -4.24579 -3.19228 0
M  V30 156 C 10.8319 -5.41596 -2.85202 0
M  V30 157 N 9.9689 -5.768 -4.00307 0
M  V30 158 H 14.8089 -2.93148 -0.535551 0
M  V30 159 H 12.3459 -1.44912 -0.252776 0
M  V30 160 H 14.3039 -2.88354 -3.01509 0
M  V30 161 H 12.9339 -1.79083 -2.68568 0
M  V30 162 H 11.9859 -3.63556 -1.11942 0
M  V30 163 H 13.2979 -4.69796 -1.67611 0
M  V30 164 H 12.4519 -4.53834 -4.02641 0
M  V30 165 H 11.1909 -3.38137 -3.51447 0
M  V30 166 H 10.1959 -5.12056 -2.00198 0
M  V30 167 H 11.4209 -6.29721 -2.54222 0
M  V30 168 H 9.3669 -4.93316 -4.32407 0
M  V30 169 H 9.2839 -6.5656 -3.74786 0
M  V30 170 H 10.5519 -6.10652 -4.84484 0
M  V30 171 N 14.781 0.264519 -1.55364 0
M  V30 172 C 16.009 1.013 -1.80405 0
M  V30 173 C 16.424 1.79618 -0.581622 0
M  V30 174 O 15.781 1.76879 0.449468 0
M  V30 175 C 15.832 1.96487 -3.03439 0
M  V30 176 O 15.553 1.21341 -4.20961 0
M  V30 177 C 17.054 2.83079 -3.41147 0
M  V30 178 H 14.274 0.298875 -0.600762 0
M  V30 179 H 16.818 0.292736 -2.02394 0
M  V30 180 H 14.973 2.63965 -2.83551 0
M  V30 181 H 15.387 1.85573 -4.90574 0
M  V30 182 H 16.861 3.4565 -4.30384 0
M  V30 183 H 17.338 3.53286 -2.60932 0
M  V30 184 H 17.944 2.2108 -3.63323 0
M  V30 185 N 16.2591 1.48442 0.529413 0
M  V30 186 C 17.2061 1.63007 1.63394 0
M  V30 187 C 18.1761 0.47212 1.59249 0
M  V30 188 O 19.3611 0.695673 1.77666 0
M  V30 189 C 16.5011 1.6763 3.01653 0
M  V30 190 C 15.6141 2.94535 3.16027 0
M  V30 191 C 14.7491 2.90316 4.44849 0
M  V30 192 C 13.7881 4.11923 4.52754 0
M  V30 193 N 12.9251 4.05777 5.72965 0
M  V30 194 H 17.7651 2.5733 1.50285 0
M  V30 195 H 15.3021 1.27613 0.731656 0
M  V30 196 H 17.2601 1.68292 3.81751 0
M  V30 197 H 15.8901 0.76797 3.13532 0
M  V30 198 H 14.9421 3.03615 2.29177 0
M  V30 199 H 16.2541 3.84512 3.17729 0
M  V30 200 H 15.4081 2.89382 5.33238 0
M  V30 201 H 14.1471 1.98068 4.45668 0
M  V30 202 H 13.1521 4.13131 3.62771 0
M  V30 203 H 14.3771 5.0533 4.53672 0
M  V30 204 H 12.3231 3.16351 5.74681 0
M  V30 205 H 12.2401 4.8946 5.76164 0
M  V30 206 H 13.5081 4.08904 6.6364 0
M  V30 207 N 17.7372 -0.778329 1.37039 0
M  V30 208 C 19.1532 -1.07796 1.17695 0
M  V30 209 C 19.3532 -2.01498 0.00860115 0
M  V30 210 O 18.4092 -2.43901 -0.653352 0
M  V30 211 C 19.7222 -1.68178 2.49272 0
M  V30 212 C 21.2702 -1.80467 2.55735 0
M  V30 213 C 21.7452 -2.44263 3.87427 0
M  V30 214 N 23.2362 -2.51721 3.88833 0
M  V30 215 C 23.9712 -3.01919 4.87476 0
M  V30 216 N 23.4672 -3.5234 5.96513 0
M  V30 217 N 25.2602 -3.00733 4.74885 0
M  V30 218 H 17.4112 -0.156032 2.11826 0
M  V30 219 H 19.6742 -0.131844 0.938787 0
M  V30 220 H 19.3802 -1.06796 3.35093 0
M  V30 221 H 19.2542 -2.67554 2.65885 0
M  V30 222 H 21.6412 -2.40984 1.70325 0
M  V30 223 H 21.7222 -0.798656 2.43013 0
M  V30 224 H 21.3662 -1.84388 4.73248 0
M  V30 225 H 21.2962 -3.45458 3.9745 0
M  V30 226 H 23.7872 -2.1603 3.10063 0
M  V30 227 H 24.1002 -3.89027 6.67741 0
M  V30 228 H 22.4452 -3.50462 6.00168 0
M  V30 229 H 25.6362 -2.60638 3.88826 0
M  V30 230 H 25.8092 -3.39545 5.51918 0
M  V30 231 N 19.2153 -1.21501 -1.00376 0
M  V30 232 C 20.1633 -0.972442 -2.11297 0
M  V30 233 C 21.1573 0.080731 -1.69208 0
M  V30 234 O 22.3633 -0.0707666 -1.79861 0
M  V30 235 H 18.7383 -0.297218 -0.690772 0
M  V30 236 H 20.7093 -1.91394 -2.28934 0
M  V30 237 C 19.4583 -0.555065 -3.43241 0
M  V30 238 H 18.7813 -1.35709 -3.76062 0
M  V30 239 H 20.2213 -0.424664 -4.21868 0
M  V30 240 C 18.6803 0.734147 -3.28804 0
M  V30 241 O 19.2103 1.78937 -3.59645 0
M  V30 242 N 17.4163 0.701133 -2.82015 0
M  V30 243 H 16.9633 -0.157874 -2.57116 0
M  V30 244 H 16.9213 1.56403 -2.72737 0
M  V30 245 N 20.6934 1.19889 -1.02296 0
M  V30 246 C 21.9214 1.9339 -0.735399 0
M  V30 247 C 22.3364 1.75148 0.704887 0
M  V30 248 O 21.6934 1.06954 1.47875 0
M  V30 249 C 21.7444 3.45313 -1.06962 0
M  V30 250 O 21.4654 3.62964 -2.45334 0
M  V30 251 C 22.9664 4.35948 -0.804021 0
M  V30 252 H 20.1864 0.61448 -0.269546 0
M  V30 253 H 22.7304 1.522 -1.36585 0
M  V30 254 H 20.8854 3.84359 -0.484455 0
M  V30 255 H 21.2994 4.56886 -2.57595 0
M  V30 256 H 22.7734 5.41174 -1.0879 0
M  V30 257 H 23.2504 4.3842 0.261691 0
M  V30 258 H 23.8564 4.02574 -1.37164 0
M  V30 259 N 22.1715 0.800033 1.35784 0
M  V30 260 C 23.1195 0.193851 2.31791 0
M  V30 261 C 24.1135 -0.652744 1.56319 0
M  V30 262 O 25.3195 -0.546641 1.71499 0
M  V30 263 H 21.6945 0.04392 0.750716 0
M  V30 264 H 23.6655 1.01883 2.80468 0
M  V30 265 C 22.4145 -0.648338 3.41602 0
M  V30 266 H 21.7375 -0.00624665 3.998 0
M  V30 267 H 23.1775 -1.03898 4.11073 0
M  V30 268 C 21.6365 -1.8111 2.84079 0
M  V30 269 O 22.1665 -2.90825 2.77099 0
M  V30 270 N 20.3725 -1.62056 2.41218 0
M  V30 271 H 19.9195 -0.728123 2.47095 0
M  V30 272 H 19.8775 -2.40013 2.03079 0
M  V30 273 N 23.6496 -1.47581 0.552962 0
M  V30 274 C 25.0656 -1.5818 0.212424 0
M  V30 275 C 25.2656 -1.55213 -1.28496 0
M  V30 276 O 24.3216 -1.45329 -2.06484 0
M  V30 277 C 25.6346 -2.88865 0.835318 0
M  V30 278 C 27.1826 -3.0244 0.806156 0
M  V30 279 C 27.6576 -4.35819 1.40804 0
M  V30 280 N 29.1486 -4.42444 1.37103 0
M  V30 281 C 29.8836 -5.44202 1.80641 0
M  V30 282 N 29.3796 -6.52795 2.32015 0
M  V30 283 N 31.1726 -5.35222 1.71738 0
M  V30 284 H 23.3236 -1.47753 1.52587 0
M  V30 285 H 25.5866 -0.702941 0.636064 0
M  V30 286 H 25.2926 -2.9676 1.88749 0
M  V30 287 H 25.1666 -3.7579 0.325848 0
M  V30 288 H 27.5536 -2.94144 -0.237317 0
M  V30 289 H 27.6346 -2.17068 1.35334 0
M  V30 290 H 27.2786 -4.44871 2.45056 0
M  V30 291 H 27.2086 -5.19916 0.836338 0
M  V30 292 H 29.6996 -3.6456 0.995202 0
M  V30 293 H 30.0126 -7.26609 2.63171 0
M  V30 294 H 28.3576 -6.53696 2.36023 0
M  V30 295 H 31.5486 -4.49284 1.31382 0
M  V30 296 H 31.7216 -6.14389 2.05987 0
M  V30 297 N 25.1277 -0.289203 -1.54924 0
M  V30 298 C 26.5437 0.0645403 -1.59469 0
M  V30 299 C 26.7437 1.53419 -1.30632 0
M  V30 300 O 25.7997 2.2852 -1.074 0
M  V30 301 C 27.1127 -0.32278 -2.98963 0
M  V30 302 C 28.6607 -0.270564 -3.11828 0
M  V30 303 C 29.1357 -0.632532 -4.53611 0
M  V30 304 N 30.6267 -0.584617 -4.59496 0
M  V30 305 C 31.3617 -0.837314 -5.67254 0
M  V30 306 N 30.8577 -1.15536 -6.83098 0
M  V30 307 N 32.6507 -0.765166 -5.56868 0
M  V30 308 H 24.8017 -1.24714 -1.71931 0
M  V30 309 H 27.0647 -0.504809 -0.802416 0
M  V30 310 H 26.7707 -1.34541 -3.24948 0
M  V30 311 H 26.6447 0.32944 -3.75759 0
M  V30 312 H 29.0317 0.742805 -2.85598 0
M  V30 313 H 29.1127 -0.957242 -2.37214 0
M  V30 314 H 28.7567 -1.64365 -4.80569 0
M  V30 315 H 28.6867 0.07609 -5.26545 0
M  V30 316 H 31.1777 -0.349248 -3.76283 0
M  V30 317 H 31.4907 -1.33447 -7.61191 0
M  V30 318 H 29.8357 -1.19328 -6.84679 0
M  V30 319 H 33.0267 -0.516432 -4.65243 0
M  V30 320 H 33.1997 -0.965477 -6.40767 0
M  V30 321 N 26.6058 1.57591 -0.0167156 0
M  V30 322 C 28.0168 1.79201 0.523834 0
M  V30 323 C 28.3678 0.925796 1.72984 0
M  V30 324 O 27.4928 0.132792 2.15992 0
M  V30 325 C 28.0878 3.25 0.957091 0
M  V30 326 C 26.6468 3.47648 1.44283 0
M  V30 327 C 25.7938 2.74374 0.401757 0
M  V30 328 H 28.7448 1.56831 -0.242816 0
M  V30 329 H 28.7658 3.34031 1.82219 0
M  V30 330 H 28.2778 3.88019 0.0791415 0
M  V30 331 H 26.3788 2.89866 2.34113 0
M  V30 332 H 26.4918 4.56352 1.45877 0
M  V30 333 H 24.8558 2.39485 0.867121 0
M  V30 334 H 25.6388 3.40102 -0.467513 0
M  V30 335 N 28.0839 -0.256276 1.55502 0
M  V30 336 C 29.0159 -1.33981 1.85962 0
M  V30 337 C 30.0289 -1.44743 0.745212 0
M  V30 338 O 31.2179 -1.4626 1.02324 0
M  V30 339 C 28.3179 -2.7194 2.02242 0
M  V30 340 C 27.4909 -2.83562 3.33033 0
M  V30 341 C 26.5499 -4.02304 3.39172 0
M  V30 342 O 25.5759 -3.92273 4.12444 0
M  V30 343 N 26.7779 -5.15045 2.67784 0
M  V30 344 H 29.5429 -1.08191 2.7949 0
M  V30 345 H 27.1039 -0.446388 1.55624 0
M  V30 346 H 29.0959 -3.49697 2.03701 0
M  V30 347 H 27.6659 -2.90479 1.15502 0
M  V30 348 H 26.8859 -1.92555 3.43971 0
M  V30 349 H 28.1739 -2.88271 4.19258 0
M  V30 350 H 27.5719 -5.26085 2.07968 0
M  V30 351 H 26.1289 -5.90972 2.74947 0
M  V30 352 N 29.562 -1.4872 -0.521534 0
M  V30 353 C 30.839 -1.4766 -1.2828 0
M  V30 354 C 31.219 -0.19292 -2.10217 0
M  V30 355 O 30.567 0.825193 -2.13079 0
M  V30 356 C 30.777 -2.74358 -2.15705 0
M  V30 357 C 32.125 -3.23028 -2.75569 0
M  V30 358 O 33.149 -2.75333 -2.25987 0
M  V30 359 O 32.008 -4.0604 -3.65778 0
M  V30 360 H 29.102 -0.590085 -0.579421 0
M  V30 361 H 31.648 -1.60963 -0.537492 0
M  V30 362 H 30.42 -3.59292 -1.54999 0
M  V30 363 H 30.043 -2.63816 -2.97467 0
M  V30 364 N 31.0401 0.771051 -1.3745 0
M  V30 365 C 32.2861 1.5319 -1.32894 0
M  V30 366 C 32.6191 1.94008 0.0862511 0
M  V30 367 O 31.8941 1.64124 1.04373 0
M  V30 368 C 32.1771 2.79648 -2.26868 0
M  V30 369 C 32.0301 2.45079 -3.77169 0
M  V30 370 C 33.3491 3.81583 -2.19277 0
M  V30 371 H 30.4681 0.555744 -0.484064 0
M  V30 372 H 33.1101 0.884492 -1.68157 0
M  V30 373 H 31.2601 3.34891 -1.96926 0
M  V30 374 H 32.9321 1.95745 -4.1771 0
M  V30 375 H 31.1751 1.77767 -3.95704 0
M  V30 376 H 31.8461 3.35478 -4.38359 0
M  V30 377 H 34.3221 3.35835 -2.45671 0
M  V30 378 H 33.1981 4.67787 -2.87171 0
M  V30 379 H 33.4591 4.25897 -1.18592 0
M  V30 380 N 32.5182 1.22032 0.997298 0
M  V30 381 C 33.4652 0.986467 2.08656 0
M  V30 382 C 34.4352 -0.0902671 1.65855 0
M  V30 383 O 35.6202 0.0584294 1.90711 0
M  V30 384 C 32.7602 0.565569 3.40434 0
M  V30 385 C 31.8732 1.71259 3.96604 0
M  V30 386 C 31.0082 1.24011 5.16522 0
M  V30 387 C 30.0472 2.35896 5.64818 0
M  V30 388 N 29.1842 1.89726 6.7598 0
M  V30 389 H 34.0242 1.91892 2.27994 0
M  V30 390 H 31.5612 0.956199 1.11782 0
M  V30 391 H 33.5192 0.302738 4.161 0
M  V30 392 H 32.1492 -0.329879 3.2111 0
M  V30 393 H 31.2012 2.08986 3.17851 0
M  V30 394 H 32.5132 2.55436 4.28432 0
M  V30 395 H 31.6672 0.934395 5.99461 0
M  V30 396 H 30.4062 0.368487 4.86306 0
M  V30 397 H 29.4112 2.67261 4.8047 0
M  V30 398 H 30.6362 3.23567 5.97061 0
M  V30 399 H 28.5822 1.0492 6.47555 0
M  V30 400 H 28.4992 2.67471 7.07103 0
M  V30 401 H 29.7672 1.62211 7.62435 0
M  V30 402 N 33.9963 -1.19345 1.0293 0
M  V30 403 C 35.2433 -1.89038 0.726008 0
M  V30 404 C 35.5713 -1.79649 -0.745427 0
M  V30 405 O 34.8263 -1.18354 -1.55855 0
M  V30 406 C 35.1253 -3.39292 1.12319 0
M  V30 407 C 34.7913 -3.68885 2.59297 0
M  V30 408 C 33.4533 -3.76671 2.99453 0
M  V30 409 C 35.8053 -3.82178 3.54386 0
M  V30 410 C 33.1333 -3.9522 4.33611 0
M  V30 411 C 35.4853 -4.0224 4.88248 0
M  V30 412 C 34.1493 -4.08259 5.28092 0
M  V30 413 H 33.4193 -0.691739 0.265665 0
M  V30 414 H 36.0663 -1.41328 1.29223 0
M  V30 415 H 34.3713 -3.88903 0.475584 0
M  V30 416 H 36.0683 -3.91536 0.866037 0
M  V30 417 H 32.6583 -3.63433 2.27189 0
M  V30 418 H 36.8423 -3.75505 3.24514 0
M  V30 419 H 32.0983 -3.98119 4.64016 0
M  V30 420 H 36.2723 -4.11468 5.61843 0
M  V30 421 H 33.8993 -4.22384 6.32057 0
M  V30 422 N 35.4744 -0.807222 -1.35358 0
M  V30 423 C 36.8854 -0.44876 -1.81226 0
M  V30 424 C 37.2364 1.02929 -1.67033 0
M  V30 425 O 36.3614 1.79991 -1.20133 0
M  V30 426 C 36.9564 -0.807774 -3.2903 0
M  V30 427 C 35.5154 -0.501901 -3.73039 0
M  V30 428 C 34.6624 -1.03304 -2.57339 0
M  V30 429 H 37.6134 -0.998808 -1.23327 0
M  V30 430 H 37.6344 -0.10554 -3.80354 0
M  V30 431 H 37.1464 -1.88357 -3.39328 0
M  V30 432 H 35.2474 0.565128 -3.68289 0
M  V30 433 H 35.3604 -1.03497 -4.67787 0
M  V30 434 H 33.7244 -0.455339 -2.50597 0
M  V30 435 H 34.5074 -2.11496 -2.70415 0
M  V30 436 N 36.9525 1.47285 -0.560781 0
M  V30 437 C 38.2005 2.02064 -0.0379868 0
M  V30 438 C 38.5215 1.43711 1.31803 0
M  V30 439 O 37.7915 0.61362 1.86042 0
M  V30 440 H 36.3715 0.746918 -0.0110531 0
M  V30 441 H 39.0335 1.80648 -0.731598 0
M  V30 442 H 38.1295 3.12064 0.0474463 0
M  V30 443 N 38.4306 0.297415 1.54768 0
M  V30 444 C 39.6786 -0.312295 1.99673 0
M  V30 445 C 39.9996 -1.54686 1.18732 0
M  V30 446 O 39.2696 -1.93854 0.282382 0
M  V30 447 H 37.8496 -0.118381 0.73756 0
M  V30 448 H 40.5116 0.407915 1.90583 0
M  V30 449 H 39.6076 -0.586813 3.06534 0
M  V30 450 N 39.9087 -1.5758 0.0250728 0
M  V30 451 C 41.1567 -1.91255 -0.653151 0
M  V30 452 C 41.4777 -0.901691 -1.729 0
M  V30 453 O 40.7477 0.0573785 -1.95816 0
M  V30 454 H 39.3277 -0.705942 -0.244243 0
M  V30 455 H 41.9897 -1.94767 0.0719209 0
M  V30 456 H 41.0857 -2.91752 -1.10847 0
M  V30 457 N 41.3868 0.248026 -1.55636 0
M  V30 458 C 42.3188 1.32993 -1.8667 0
M  V30 459 C 43.3318 1.44345 -0.752877 0
M  V30 460 O 44.5208 1.45715 -1.03098 0
M  V30 461 C 41.6208 2.70863 -2.03682 0
M  V30 462 C 40.7938 2.81792 -3.34532 0
M  V30 463 C 39.8528 4.005 -3.41301 0
M  V30 464 O 38.8788 3.9008 -4.14519 0
M  V30 465 N 40.0808 5.13618 -2.70512 0
M  V30 466 H 42.8458 1.06707 -2.8006 0
M  V30 467 H 40.4068 0.438129 -1.55859 0
M  V30 468 H 42.3988 3.48612 -2.05553 0
M  V30 469 H 40.9688 2.89862 -1.17041 0
M  V30 470 H 40.1888 1.90729 -3.44987 0
M  V30 471 H 41.4768 2.86043 -4.20781 0
M  V30 472 H 40.8748 5.24975 -2.10755 0
M  V30 473 H 39.4318 5.89505 -2.78077 0
M  V30 474 N 42.8649 1.48995 0.513639 0
M  V30 475 C 44.1139 1.57093 1.2651 0
M  V30 476 C 44.4269 0.257091 1.93903 0
M  V30 477 O 45.6329 0.216478 2.70636 0
M  V30 478 C 44.0889 2.77118 2.29638 0
M  V30 479 C 43.6969 4.15209 1.68241 0
M  V30 480 C 45.4409 2.94538 3.05692 0
M  V30 481 C 43.3479 5.26474 2.69406 0
M  V30 482 H 42.2779 0.584876 0.475854 0
M  V30 483 H 44.9289 1.7536 0.540487 0
M  V30 484 H 43.3109 2.52319 3.05207 0
M  V30 485 H 44.4849 4.50094 0.987505 0
M  V30 486 H 42.7999 4.03042 1.04623 0
M  V30 487 H 45.3969 3.74832 3.8132 0
M  V30 488 H 45.7399 2.04614 3.62545 0
M  V30 489 H 46.2729 3.19316 2.37238 0
M  V30 490 H 43.0119 6.18417 2.17351 0
M  V30 491 H 42.5319 4.96058 3.37175 0
M  V30 492 H 44.2109 5.55277 3.32078 0
M  V30 493 N 44.343 -0.763751 1.37857 0
M  V30 494 C 45.589 -1.52483 1.33704 0
M  V30 495 C 45.922 -1.94051 -0.0759612 0
M  V30 496 O 45.197 -1.64675 -1.03501 0
M  V30 497 C 45.48 -2.78441 2.28348 0
M  V30 498 C 45.333 -2.43075 3.78463 0
M  V30 499 C 46.652 -3.80415 2.21298 0
M  V30 500 H 43.771 -0.553169 0.487005 0
M  V30 501 H 46.413 -0.875562 1.68624 0
M  V30 502 H 44.563 -3.33842 1.987 0
M  V30 503 H 46.235 -1.93527 4.18742 0
M  V30 504 H 44.478 -1.75666 3.96641 0
M  V30 505 H 45.149 -3.33149 4.40132 0
M  V30 506 H 47.625 -3.34527 2.47449 0
M  V30 507 H 46.501 -4.66257 2.89647 0
M  V30 508 H 46.762 -4.25262 1.20849 0
M  V30 509 N 45.8211 -1.22559 -0.990812 0
M  V30 510 C 47.0691 -1.04933 -1.72724 0
M  V30 511 C 47.3901 0.416158 -1.90508 0
M  V30 512 O 46.6601 1.29918 -1.46622 0
M  V30 513 H 45.2401 -0.385296 -0.639965 0
M  V30 514 H 47.9021 -1.54105 -1.19322 0
M  V30 515 H 46.9981 -1.52886 -2.72089 0
M  V30 516 N 47.2992 1.18797 -1.03562 0
M  V30 517 C 48.5472 1.88278 -0.734569 0
M  V30 518 C 48.8682 1.8043 0.739586 0
M  V30 519 O 48.1382 1.21925 1.53333 0
M  V30 520 H 46.7182 0.696991 -0.268725 0
M  V30 521 H 49.3802 1.44192 -1.31129 0
M  V30 522 H 48.4762 2.94443 -1.03489 0
M  V30 523 N 48.7773 0.814389 1.34928 0
M  V30 524 C 50.0233 0.399013 1.98836 0
M  V30 525 C 50.3563 -1.03314 1.64438 0
M  V30 526 O 49.6313 -1.71811 0.911659 0
M  V30 527 C 49.9143 0.591629 3.55207 0
M  V30 528 C 49.7673 2.06928 3.99376 0
M  V30 529 C 51.0863 0.022199 4.40094 0
M  V30 530 H 48.2053 0.146451 0.722303 0
M  V30 531 H 50.8473 1.02537 1.59957 0
M  V30 532 H 48.9973 0.0584441 3.88456 0
M  V30 533 H 50.6693 2.66544 3.76499 0
M  V30 534 H 48.9123 2.56287 3.49999 0
M  V30 535 H 49.5833 2.1549 5.08201 0
M  V30 536 H 52.0593 0.477643 4.13349 0
M  V30 537 H 50.9353 0.186832 5.48582 0
M  V30 538 H 51.1963 -1.07215 4.28902 0
M  V30 539 N 50.2554 -1.46986 0.568584 0
M  V30 540 C 51.4854 -2.0653 0.0539173 0
M  V30 541 C 51.8934 -1.42004 -1.25026 0
M  V30 542 O 51.2364 -0.514541 -1.76347 0
M  V30 543 C 51.2984 -3.58938 -0.200854 0
M  V30 544 C 50.9624 -4.45572 1.01559 0
M  V30 545 C 51.9594 -4.82986 1.92407 0
M  V30 546 C 49.6444 -4.8692 1.23346 0
M  V30 547 C 51.6384 -5.60559 3.03402 0
M  V30 548 C 49.3254 -5.64255 2.34649 0
M  V30 549 C 50.3234 -6.00986 3.24507 0
M  V30 550 O 50.0114 -6.76761 4.33878 0
M  V30 551 H 49.7434 -0.674292 0.0480234 0
M  V30 552 H 52.2974 -1.89812 0.784896 0
M  V30 553 H 50.5274 -3.73911 -0.986279 0
M  V30 554 H 52.2164 -4.0046 -0.662294 0
M  V30 555 H 52.9824 -4.51633 1.76785 0
M  V30 556 H 48.8614 -4.57789 0.543178 0
M  V30 557 H 52.4054 -5.89147 3.73565 0
M  V30 558 H 48.3024 -5.95021 2.5024 0
M  V30 559 H 49.0704 -6.95168 4.32068 0
M  V30 560 N 51.7335 -0.305618 -1.54608 0
M  V30 561 C 52.6635 0.561482 -2.26649 0
M  V30 562 C 53.6445 1.13415 -1.26772 0
M  V30 563 O 54.8295 1.16262 -1.55553 0
M  V30 564 C 51.9595 1.73122 -3.01075 0
M  V30 565 C 50.9135 1.2887 -4.08138 0
M  V30 566 C 50.2395 2.54396 -4.70305 0
M  V30 567 C 51.5395 0.416578 -5.20636 0
M  V30 568 H 53.2335 -0.0393902 -2.99374 0
M  V30 569 H 50.7795 -0.020385 -1.43986 0
M  V30 570 H 52.7325 2.34396 -3.50195 0
M  V30 571 H 51.4565 2.3584 -2.25936 0
M  V30 572 H 50.1155 0.698991 -3.59875 0
M  V30 573 H 49.7635 3.15439 -3.918 0
M  V30 574 H 49.4635 2.25486 -5.42614 0
M  V30 575 H 50.9875 3.16464 -5.2219 0
M  V30 576 H 52.4015 0.935116 -5.65622 0
M  V30 577 H 50.7985 0.221046 -5.99693 0
M  V30 578 H 51.8685 -0.557162 -4.81688 0
M  V30 579 N 53.2116 1.57565 -0.0334293 0
M  V30 580 C 54.1416 2.13511 0.945265 0
M  V30 581 C 55.1226 1.05231 1.33643 0
M  V30 582 O 56.3076 1.33084 1.41429 0
M  V30 583 C 53.4376 2.6657 2.22616 0
M  V30 584 C 52.3916 3.79676 1.97561 0
M  V30 585 C 51.7176 4.1918 3.31952 0
M  V30 586 C 53.0176 5.0557 1.31135 0
M  V30 587 H 54.7116 2.95538 0.479325 0
M  V30 588 H 52.2576 1.42166 0.229115 0
M  V30 589 H 54.2106 3.04344 2.91466 0
M  V30 590 H 52.9346 1.8171 2.71384 0
M  V30 591 H 51.5936 3.42347 1.31127 0
M  V30 592 H 51.2416 3.31296 3.78487 0
M  V30 593 H 50.9416 4.95402 3.15992 0
M  V30 594 H 52.4656 4.59541 4.02063 0
M  V30 595 H 53.8796 5.40903 1.89992 0
M  V30 596 H 52.2766 5.86818 1.25559 0
M  V30 597 H 53.3466 4.84062 0.284894 0
M  V30 598 N 54.6897 -0.239769 1.55765 0
M  V30 599 C 56.1007 -0.808263 1.68297 0
M  V30 600 C 56.4517 -1.85736 0.632181 0
M  V30 601 O 55.5767 -2.15277 -0.220204 0
M  V30 602 C 56.1717 -1.47284 3.05111 0
M  V30 603 C 54.7307 -1.98895 3.19559 0
M  V30 604 C 53.8777 -0.842575 2.64189 0
M  V30 605 H 56.8287 -0.0154422 1.58692 0
M  V30 606 H 56.8497 -2.34111 2.99954 0
M  V30 607 H 56.3617 -0.709053 3.81568 0
M  V30 608 H 54.4627 -2.78132 2.47938 0
M  V30 609 H 54.5757 -2.18143 4.26556 0
M  V30 610 H 52.9397 -1.24501 2.22197 0
M  V30 611 H 53.7227 -0.0917552 3.43177 0
M  V30 612 N 56.1678 -1.49265 -0.50573 0
M  V30 613 C 57.5838 -1.35923 -0.836486 0
M  V30 614 C 57.7838 -0.388704 -1.97715 0
M  V30 615 O 56.8398 0.181336 -2.51848 0
M  V30 616 C 58.1528 -2.76531 -1.18115 0
M  V30 617 C 59.7008 -2.85197 -1.28964 0
M  V30 618 C 60.1758 -4.26561 -1.66761 0
M  V30 619 N 61.6668 -4.2935 -1.73819 0
M  V30 620 C 62.4018 -5.35693 -2.045 0
M  V30 621 N 61.8978 -6.52287 -2.33438 0
M  V30 622 N 63.6908 -5.23105 -2.05711 0
M  V30 623 H 55.8418 -2.10965 0.246519 0
M  V30 624 H 58.1048 -0.9468 0.0476887 0
M  V30 625 H 57.8108 -3.49226 -0.416398 0
M  V30 626 H 57.6848 -3.11599 -2.1257 0
M  V30 627 H 60.0718 -2.12742 -2.04511 0
M  V30 628 H 60.1528 -2.53718 -0.325704 0
M  V30 629 H 59.7968 -4.99541 -0.917656 0
M  V30 630 H 59.7268 -4.55502 -2.64246 0
M  V30 631 H 62.2178 -3.4526 -1.53635 0
M  V30 632 H 62.5308 -7.29158 -2.56024 0
M  V30 633 H 60.8758 -6.55521 -2.30905 0
M  V30 634 H 64.0668 -4.31026 -1.82577 0
M  V30 635 H 64.2398 -6.06078 -2.29289 0
M  V30 636 N 57.6459 0.756429 -1.3826 0
M  V30 637 C 59.0619 1.0591 -1.19395 0
M  V30 638 C 59.2619 2.01459 -0.0406567 0
M  V30 639 O 58.3179 2.44909 0.614467 0
M  V30 640 C 59.6309 1.64191 -2.51916 0
M  V30 641 C 61.1789 1.76376 -2.58574 0
M  V30 642 C 61.6539 2.38069 -3.91264 0
M  V30 643 N 63.1449 2.45503 -3.92788 0
M  V30 644 C 63.8799 2.94126 -4.92217 0
M  V30 645 N 63.3759 3.42805 -6.02043 0
M  V30 646 N 65.1689 2.9314 -4.7961 0
M  V30 647 H 57.3199 0.122313 -2.12048 0
M  V30 648 H 59.5829 0.116892 -0.940766 0
M  V30 649 H 59.2889 1.01451 -3.3675 0
M  V30 650 H 59.1629 2.6329 -2.70108 0
M  V30 651 H 61.5499 2.38244 -1.74137 0
M  V30 652 H 61.6309 0.759894 -2.44252 0
M  V30 653 H 61.2749 1.76835 -4.76121 0
M  V30 654 H 61.2049 3.39091 -4.02895 0
M  V30 655 H 63.6959 2.1107 -3.13461 0
M  V30 656 H 64.0089 3.78354 -6.73846 0
M  V30 657 H 62.3539 3.4087 -6.05667 0
M  V30 658 H 65.5449 2.54419 -3.92923 0
M  V30 659 H 65.7179 3.30721 -5.5725 0
M  V30 660 N 59.124 1.23083 0.984299 0
M  V30 661 C 60.372 1.05848 1.72165 0
M  V30 662 C 60.693 -0.406049 1.90726 0
M  V30 663 O 59.963 -1.29139 1.47309 0
M  V30 664 H 58.543 0.388685 0.637913 0
M  V30 665 H 61.205 1.54736 1.18503 0
M  V30 666 H 60.301 1.54327 2.71274 0
M  V30 667 N 60.6021 -1.18246 1.0419 0
M  V30 668 C 62.0131 -1.69914 0.773698 0
M  V30 669 C 62.3641 -1.83085 -0.705297 0
M  V30 670 O 61.4891 -1.51123 -1.5489 0
M  V30 671 C 62.0841 -3.08619 1.39784 0
M  V30 672 C 60.6431 -3.57494 1.17792 0
M  V30 673 C 59.7901 -2.34013 1.48773 0
M  V30 674 H 62.7411 -1.02904 1.20816 0
M  V30 675 H 62.7621 -3.71958 0.801714 0
M  V30 676 H 62.2741 -2.99001 2.47426 0
M  V30 677 H 60.3751 -3.72406 0.120295 0
M  V30 678 H 60.4881 -4.40852 1.87581 0
M  V30 679 H 58.8521 -2.37986 0.907463 0
M  V30 680 H 59.6351 -2.27013 2.57527 0
M  V30 681 N 62.0802 -0.821533 -1.34494 0
M  V30 682 C 63.4962 -0.507117 -1.51329 0
M  V30 683 C 63.6962 0.968964 -1.76673 0
M  V30 684 O 62.7522 1.75348 -1.81685 0
M  V30 685 C 64.0652 -1.36544 -2.67911 0
M  V30 686 C 65.6132 -1.36242 -2.81793 0
M  V30 687 C 66.0882 -2.2052 -4.01416 0
M  V30 688 N 67.5792 -2.18136 -4.08621 0
M  V30 689 C 68.3142 -2.80095 -5.00334 0
M  V30 690 N 67.8102 -3.51039 -5.9728 0
M  V30 691 N 69.6032 -2.69656 -4.93196 0
M  V30 692 H 61.7542 -1.77729 -1.16302 0
M  V30 693 H 64.0172 -0.757291 -0.570276 0
M  V30 694 H 63.7232 -2.41361 -2.55808 0
M  V30 695 H 63.5972 -1.02917 -3.62888 0
M  V30 696 H 65.9842 -0.322041 -2.93338 0
M  V30 697 H 66.0652 -1.73866 -1.87628 0
M  V30 698 H 65.7092 -3.24607 -3.90631 0
M  V30 699 H 65.6392 -1.80247 -4.94791 0
M  V30 700 H 68.1302 -1.6653 -3.39229 0
M  V30 701 H 68.4432 -3.95565 -6.63889 0
M  V30 702 H 66.7882 -3.55145 -5.97409 0
M  V30 703 H 69.9792 -2.13808 -4.16418 0
M  V30 704 H 70.1522 -3.1823 -5.64476 0
M  V30 705 N 63.5583 1.46682 -0.576371 0
M  V30 706 C 64.4883 2.33028 0.148397 0
M  V30 707 C 65.4693 1.44961 0.889956 0
M  V30 708 O 66.6543 1.73789 0.866662 0
M  V30 709 C 63.7843 3.27117 1.1667 0
M  V30 710 C 62.7383 4.24575 0.540386 0
M  V30 711 C 62.0643 5.08126 1.6647 0
M  V30 712 C 63.3643 5.19722 -0.518331 0
M  V30 713 H 65.0583 2.93875 -0.572509 0
M  V30 714 H 62.6043 1.41315 -0.276768 0
M  V30 715 H 64.5573 3.86374 1.68204 0
M  V30 716 H 63.2813 2.64364 1.9178 0
M  V30 717 H 61.9403 3.66571 0.0461769 0
M  V30 718 H 61.5883 4.41762 2.40531 0
M  V30 719 H 61.2883 5.74122 1.25131 0
M  V30 720 H 62.8123 5.70246 2.18293 0
M  V30 721 H 64.2263 5.73232 -0.0883058 0
M  V30 722 H 62.6233 5.94026 -0.851679 0
M  V30 723 H 63.6933 4.64037 -1.40703 0
M  V30 724 N 65.0364 0.313813 1.54444 0
M  V30 725 C 66.2844 -0.291099 1.99993 0
M  V30 726 C 66.6054 -1.53418 1.20366 0
M  V30 727 O 65.8754 -1.93544 0.302927 0
M  V30 728 H 64.4554 -0.110552 0.738774 0
M  V30 729 H 67.1174 0.428106 1.9014 0
M  V30 730 H 66.2134 -0.554268 3.07139 0
M  V30 731 N 66.5145 -1.57545 0.0417849 0
M  V30 732 C 67.7605 -1.92601 -0.635021 0
M  V30 733 C 68.0935 -0.919627 -1.71045 0
M  V30 734 O 67.3685 0.0557892 -1.9442 0
M  V30 735 C 67.6515 -3.38085 -1.23979 0
M  V30 736 C 67.5045 -4.49467 -0.173057 0
M  V30 737 C 68.8235 -3.83776 -2.15416 0
M  V30 738 H 65.9425 -0.700397 -0.229374 0
M  V30 739 H 68.5845 -1.89728 0.101633 0
M  V30 740 H 66.7345 -3.40664 -1.86762 0
M  V30 741 H 68.4065 -4.59018 0.458312 0
M  V30 742 H 66.6495 -4.30909 0.499996 0
M  V30 743 H 67.3205 -5.48323 -0.636054 0
M  V30 744 H 69.7965 -3.83013 -1.62605 0
M  V30 745 H 68.6725 -4.8624 -2.54679 0
M  V30 746 H 68.9335 -3.19998 -3.05047 0
M  V30 747 N 67.9926 0.231505 -1.5589 0
M  V30 748 C 69.4086 0.580748 -1.48659 0
M  V30 749 C 69.6086 1.87617 -0.73498 0
M  V30 750 O 68.6646 2.51046 -0.270586 0
M  V30 751 C 69.9776 0.669202 -2.93159 0
M  V30 752 C 71.5256 0.760499 -3.03621 0
M  V30 753 C 72.0006 0.880383 -4.49459 0
M  V30 754 N 73.4916 0.944861 -4.53461 0
M  V30 755 C 74.2266 1.05716 -5.63571 0
M  V30 756 N 73.7226 1.13403 -6.83456 0
M  V30 757 N 75.5156 1.09152 -5.514 0
M  V30 758 H 67.6666 -0.618695 -2.03189 0
M  V30 759 H 69.9296 -0.215728 -0.923128 0
M  V30 760 H 69.6356 -0.212904 -3.51055 0
M  V30 761 H 69.5096 1.5361 -3.44505 0
M  V30 762 H 71.8966 1.63305 -2.45796 0
M  V30 763 H 71.9776 -0.131864 -2.5546 0
M  V30 764 H 71.6216 0.0123284 -5.07899 0
M  V30 765 H 71.5516 1.78802 -4.95316 0
M  V30 766 H 74.0426 0.896176 -3.6712 0
M  V30 767 H 74.3556 1.21921 -7.63122 0
M  V30 768 H 72.7006 1.10333 -6.86186 0
M  V30 769 H 75.8916 1.02805 -4.56671 0
M  V30 770 H 76.0646 1.17558 -6.37247 0
M  V30 771 N 69.4707 1.49531 0.497807 0
M  V30 772 C 70.4337 1.65916 1.58128 0
M  V30 773 C 71.4337 0.530825 1.51786 0
M  V30 774 O 72.6237 0.797342 1.54881 0
M  V30 775 C 69.7557 1.65951 2.9778 0
M  V30 776 H 70.9487 2.62556 1.44929 0
M  V30 777 H 68.5017 1.38611 0.722275 0
M  V30 778 H 69.2367 0.709065 3.16453 0
M  V30 779 H 69.0217 2.47897 3.03792 0
M  V30 780 H 70.5117 1.80673 3.76493 0
M  V30 781 N 70.9488 -0.749086 1.3866 0
M  V30 782 C 72.1768 -1.53834 1.38358 0
M  V30 783 C 72.5918 -1.88783 -0.0255219 0
M  V30 784 O 71.9488 -1.53101 -0.993292 0
M  V30 785 C 71.9998 -2.83468 2.2434 0
M  V30 786 O 71.7208 -2.50008 3.5976 0
M  V30 787 C 73.2218 -3.7758 2.32267 0
M  V30 788 H 70.4418 -0.47585 0.473083 0
M  V30 789 H 72.9858 -0.926726 1.82297 0
M  V30 790 H 71.1408 -3.40995 1.83851 0
M  V30 791 H 71.5548 -3.33182 4.05081 0
M  V30 792 H 73.0288 -4.65478 2.96706 0
M  V30 793 H 73.5058 -4.18334 1.33765 0
M  V30 794 H 74.1118 -3.25976 2.73166 0
M  V30 795 N 72.4269 -1.23603 -0.977757 0
M  V30 796 C 73.8429 -0.999251 -1.24447 0
M  V30 797 C 74.0429 0.298053 -1.99283 0
M  V30 798 O 73.0989 1.01681 -2.31122 0
M  V30 799 C 74.4119 -2.20784 -2.04144 0
M  V30 800 C 75.9599 -2.25303 -2.17273 0
M  V30 801 C 76.4349 -3.45755 -3.00362 0
M  V30 802 N 77.9259 -3.4601 -3.07947 0
M  V30 803 C 78.6609 -4.35868 -3.72568 0
M  V30 804 N 78.1569 -5.35966 -4.38991 0
M  V30 805 N 79.9499 -4.23605 -3.6948 0
M  V30 806 H 72.1009 -2.06986 -0.476483 0
M  V30 807 H 74.3639 -0.907801 -0.273134 0
M  V30 808 H 74.0699 -3.14945 -1.56533 0
M  V30 809 H 73.9439 -2.22085 -3.04891 0
M  V30 810 H 76.3309 -1.3168 -2.64092 0
M  V30 811 H 76.4119 -2.28033 -1.15907 0
M  V30 812 H 76.0559 -4.39687 -2.5424 0
M  V30 813 H 75.9859 -3.40266 -4.01904 0
M  V30 814 H 78.4769 -2.73588 -2.60688 0
M  V30 815 H 78.7899 -6.00783 -4.86086 0
M  V30 816 H 77.1349 -5.39863 -4.37691 0
M  V30 817 H 80.3259 -3.44647 -3.16759 0
M  V30 818 H 80.4989 -4.93836 -4.1956 0
M  V30 819 N 73.905 1.17692 -1.04816 0
M  V30 820 C 74.852 2.21581 -0.645797 0
M  V30 821 C 75.822 1.62367 0.350159 0
M  V30 822 O 77.007 1.89254 0.242433 0
M  V30 823 C 74.147 3.45092 -0.0227568 0
M  V30 824 C 73.26 4.18613 -1.06709 0
M  V30 825 C 72.395 5.29602 -0.411767 0
M  V30 826 C 71.434 5.94904 -1.44067 0
M  V30 827 N 70.571 6.97414 -0.809781 0
M  V30 828 H 75.411 2.55353 -1.5362 0
M  V30 829 H 72.948 1.25438 -0.768364 0
M  V30 830 H 74.906 4.15679 0.35588 0
M  V30 831 H 73.536 3.11917 0.831122 0
M  V30 832 H 72.588 3.46779 -1.5636 0
M  V30 833 H 73.9 4.63293 -1.84827 0
M  V30 834 H 73.054 6.06696 0.0206623 0
M  V30 835 H 71.793 4.86045 0.401438 0
M  V30 836 H 70.798 5.16544 -1.88316 0
M  V30 837 H 72.023 6.40542 -2.25571 0
M  V30 838 H 69.969 6.55998 -0.0170186 0
M  V30 839 H 69.886 7.40386 -1.52856 0
M  V30 840 H 71.154 7.78463 -0.401999 0
M  V30 841 N 75.3831 0.828654 1.34056 0
M  V30 842 C 76.6111 0.43262 2.02326 0
M  V30 843 C 77.0261 -0.963147 1.62385 0
M  V30 844 O 76.3831 -1.62425 0.832121 0
M  V30 845 C 76.4341 0.53182 3.57567 0
M  V30 846 O 76.1551 1.87258 3.96063 0
M  V30 847 C 77.6561 0.131422 4.43105 0
M  V30 848 H 74.8761 0.172923 0.648335 0
M  V30 849 H 77.4201 1.1184 1.71208 0
M  V30 850 H 75.5751 -0.105938 3.87255 0
M  V30 851 H 75.9891 1.85087 4.90758 0
M  V30 852 H 77.4631 0.251904 5.51425 0
M  V30 853 H 77.9401 -0.925645 4.29335 0
M  V30 854 H 78.5461 0.743207 4.18756 0
M  V30 855 N 76.8612 -1.46375 0.584142 0
M  V30 856 C 78.0862 -2.07268 0.0740405 0
M  V30 857 C 78.5112 -1.42979 -1.22223 0
M  V30 858 O 77.8692 -0.514092 -1.73859 0
M  V30 859 C 77.9172 -3.60518 -0.0767769 0
M  V30 860 O 77.0212 -3.96533 -1.13292 0
M  V30 861 H 76.3622 -0.660961 0.0634524 0
M  V30 862 H 78.8922 -1.87991 0.807492 0
M  V30 863 H 78.9022 -4.07021 -0.282489 0
M  V30 864 H 77.5772 -4.06702 0.86986 0
M  V30 865 H 76.1542 -3.61738 -0.905553 0
M  V30 866 N 78.3393 -0.321999 -1.54275 0
M  V30 867 C 79.2493 0.553631 -2.27974 0
M  V30 868 C 80.2653 1.13054 -1.32268 0
M  V30 869 O 81.4413 1.15084 -1.6528 0
M  V30 870 C 78.5063 1.69927 -3.02201 0
M  V30 871 C 77.5673 1.15433 -4.1349 0
M  V30 872 C 76.8003 2.24537 -4.84168 0
M  V30 873 O 77.0233 3.44852 -4.5435 0
M  V30 874 O 75.9573 1.90044 -5.7111 0
M  V30 875 H 79.7833 -0.0448345 -3.03667 0
M  V30 876 H 77.3683 -0.0877418 -1.49142 0
M  V30 877 H 79.2503 2.3663 -3.48689 0
M  V30 878 H 77.9253 2.28395 -2.29385 0
M  V30 879 H 76.8323 0.452436 -3.71354 0
M  V30 880 H 78.1653 0.614805 -4.88345 0
M  V30 881 N 79.8174 1.5752 -0.0501392 0
M  V30 882 C 81.2334 1.56631 0.306402 0
M  V30 883 C 81.4334 1.0577 1.71508 0
M  V30 884 O 80.4894 0.713837 2.422 0
M  V30 885 C 81.8024 3.00393 0.135811 0
M  V30 886 C 83.3504 3.12315 0.206993 0
M  V30 887 C 83.8254 4.57954 0.064944 0
M  V30 888 N 85.3164 4.63041 0.121254 0
M  V30 889 C 86.0514 5.73389 0.0354381 0
M  V30 890 N 85.5474 6.92724 -0.102666 0
M  V30 891 N 87.3404 5.62026 0.090946 0
M  V30 892 H 79.4914 1.88903 -0.971046 0
M  V30 893 H 81.7544 0.869876 -0.376855 0
M  V30 894 H 81.4604 3.41635 -0.835384 0
M  V30 895 H 81.3344 3.66373 0.897275 0
M  V30 896 H 83.7214 2.70973 1.16866 0
M  V30 897 H 83.8024 2.49016 -0.585208 0
M  V30 898 H 83.4464 4.99981 -0.893394 0
M  V30 899 H 83.3764 5.19258 0.876277 0
M  V30 900 H 85.8674 3.77216 0.227284 0
M  V30 901 H 86.1804 7.72633 -0.160882 0
M  V30 902 H 84.5254 6.94864 -0.137737 0
M  V30 903 H 87.7164 4.67684 0.197388 0
M  V30 904 H 87.8894 6.47997 0.0206089 0
M  V30 905 N 81.2955 -0.223234 1.56011 0
M  V30 906 C 82.5205 -0.968978 1.83373 0
M  V30 907 C 82.9455 -1.77227 0.630254 0
M  V30 908 O 82.3035 -1.76345 -0.420959 0
M  V30 909 C 82.3515 -1.86363 3.08709 0
M  V30 910 O 81.4555 -2.95873 2.87285 0
M  V30 911 H 80.7965 -0.274461 0.604622 0
M  V30 912 H 83.3265 -0.237056 2.03222 0
M  V30 913 H 83.3365 -2.27376 3.38768 0
M  V30 914 H 82.0115 -1.27319 3.95933 0
M  V30 915 H 80.5885 -2.58818 2.68454 0
M  V30 916 N 82.7736 -1.49793 -0.48987 0
M  V30 917 C 83.7056 -1.63413 -1.60713 0
M  V30 918 C 84.7186 -0.516329 -1.54395 0
M  V30 919 O 85.9076 -0.788812 -1.60125 0
M  V30 920 C 83.0076 -1.58516 -2.99543 0
M  V30 921 C 82.1806 -2.86016 -3.30928 0
M  V30 922 C 81.2396 -2.74018 -4.49222 0
M  V30 923 O 80.2656 -3.47964 -4.50455 0
M  V30 924 N 81.4676 -1.86309 -5.4979 0
M  V30 925 H 84.2326 -2.59777 -1.49452 0
M  V30 926 H 81.7936 -1.47022 -0.677955 0
M  V30 927 H 83.7856 -1.48128 -3.76617 0
M  V30 928 H 82.3556 -0.69965 -3.0467 0
M  V30 929 H 81.5756 -3.10672 -2.42645 0
M  V30 930 H 82.8636 -3.70521 -3.487 0
M  V30 931 H 82.2616 -1.2551 -5.51601 0
M  V30 932 H 80.8186 -1.81837 -6.25922 0
M  V30 933 N 84.2517 0.741722 -1.39055 0
M  V30 934 C 85.6627 1.31966 -1.32068 0
M  V30 935 C 86.0137 1.96192 0.0180797 0
M  V30 936 O 85.1387 1.95861 0.920196 0
M  V30 937 C 85.7337 2.39954 -2.39181 0
M  V30 938 C 84.2927 2.93438 -2.35735 0
M  V30 939 C 83.4397 1.66936 -2.21422 0
M  V30 940 H 86.3907 0.539721 -1.4924 0
M  V30 941 H 86.4117 3.20182 -2.05581 0
M  V30 942 H 85.9237 1.9318 -3.36605 0
M  V30 943 H 84.0247 3.4451 -1.41929 0
M  V30 944 H 84.1377 3.4701 -3.30335 0
M  V30 945 H 82.5017 1.91016 -1.68478 0
M  V30 946 H 83.2847 1.22224 -3.20806 0
M  V30 947 N 85.7298 1.2412 0.971189 0
M  V30 948 C 87.1458 1.00584 1.23916 0
M  V30 949 C 87.3458 -0.287481 1.99439 0
M  V30 950 O 86.4018 -1.00454 2.31658 0
M  V30 951 C 87.7148 2.21864 2.0297 0
M  V30 952 C 89.2628 2.26452 2.16076 0
M  V30 953 C 89.7378 3.47343 2.98524 0
M  V30 954 N 91.2288 3.47639 3.06107 0
M  V30 955 C 91.9638 4.37837 3.70251 0
M  V30 956 N 91.4598 5.38286 4.36142 0
M  V30 957 N 93.2528 4.25558 3.67228 0
M  V30 958 H 85.4038 2.07236 0.465499 0
M  V30 959 H 87.6668 0.909236 0.268315 0
M  V30 960 H 87.3728 3.15771 1.54861 0
M  V30 961 H 87.2468 2.23698 3.03709 0
M  V30 962 H 89.6338 1.33078 2.6339 0
M  V30 963 H 89.7148 2.28645 1.14696 0
M  V30 964 H 89.3588 4.41029 2.51905 0
M  V30 965 H 89.2888 3.42393 4.00093 0
M  V30 966 H 91.7798 2.74966 2.59233 0
M  V30 967 H 92.0928 6.03352 4.82894 0
M  V30 968 H 90.4378 5.42176 4.34822 0
M  V30 969 H 93.6288 3.46322 3.14927 0
M  V30 970 H 93.8018 4.96054 4.16935 0
M  V30 971 N 87.2079 -1.17134 1.05439 0
M  V30 972 C 88.4559 -1.87085 0.764429 0
M  V30 973 C 88.7769 -1.81584 -0.710787 0
M  V30 974 O 88.0469 -1.24349 -1.51374 0
M  V30 975 H 86.6269 -0.692627 0.279779 0
M  V30 976 H 89.2889 -1.42087 1.33406 0
M  V30 977 H 88.3849 -2.92759 1.0816 0
M  V30 978 N 88.686 -0.835752 -1.33615 0
M  V30 979 C 90.102 -0.523139 -1.50783 0
M  V30 980 C 90.302 0.950171 -1.77691 0
M  V30 981 O 89.358 1.73411 -1.83534 0
M  V30 982 C 90.671 -1.39378 -2.66448 0
M  V30 983 C 92.219 -1.39223 -2.80332 0
M  V30 984 C 92.694 -2.24765 -3.99055 0
M  V30 985 N 94.185 -2.22458 -4.06284 0
M  V30 986 C 94.92 -2.85386 -4.97336 0
M  V30 987 N 94.416 -3.57354 -5.93523 0
M  V30 988 N 96.209 -2.74872 -4.90308 0
M  V30 989 H 88.36 -1.78952 -1.14411 0
M  V30 990 H 90.623 -0.763297 -0.562212 0
M  V30 991 H 90.329 -2.44061 -2.53234 0
M  V30 992 H 90.203 -1.0676 -3.61776 0
M  V30 993 H 92.59 -0.353136 -2.92979 0
M  V30 994 H 92.671 -1.75846 -1.85773 0
M  V30 995 H 92.315 -3.28732 -3.87167 0
M  V30 996 H 92.245 -1.85485 -4.92852 0
M  V30 997 H 94.736 -1.70119 -3.37443 0
M  V30 998 H 95.049 -4.02584 -6.59656 0
M  V30 999 H 93.394 -3.61461 -5.93608 0
M  V30 1000 H 96.585 -2.18213 -4.14126 0
M  V30 1001 H 96.758 -3.24199 -5.61069 0
M  V30 1002 N 90.1641 1.46063 -0.591896 0
M  V30 1003 C 91.5801 1.57561 -0.254288 0
M  V30 1004 C 91.7801 1.58565 1.24336 0
M  V30 1005 O 90.8361 1.50753 2.02558 0
M  V30 1006 C 92.1491 2.86549 -0.911611 0
M  V30 1007 C 93.6971 3.00197 -0.886059 0
M  V30 1008 C 94.1721 4.31933 -1.5231 0
M  V30 1009 N 95.6631 4.38654 -1.48786 0
M  V30 1010 C 96.3981 5.39222 -1.95006 0
M  V30 1011 N 95.8941 6.46414 -2.49241 0
M  V30 1012 N 97.6871 5.3048 -1.85868 0
M  V30 1013 H 89.8381 1.43655 -1.56451 0
M  V30 1014 H 92.1011 0.68583 -0.654478 0
M  V30 1015 H 91.8071 2.91651 -1.96551 0
M  V30 1016 H 91.6811 3.74794 -0.425368 0
M  V30 1017 H 94.0681 2.9467 0.159246 0
M  V30 1018 H 94.1491 2.13403 -1.41041 0
M  V30 1019 H 93.7931 4.38217 -2.56765 0
M  V30 1020 H 93.7231 5.17516 -0.973891 0
M  V30 1021 H 96.2141 3.61793 -1.09151 0
M  V30 1022 H 96.5271 7.19376 -2.82344 0
M  V30 1023 H 94.8721 6.47208 -2.53272 0
M  V30 1024 H 98.0631 4.45643 -1.43248 0
M  V30 1025 H 98.2361 6.08711 -2.22204 0
M  V30 1026 N 91.6422 0.330177 1.54103 0
M  V30 1027 C 92.5742 -0.566902 2.22079 0
M  V30 1028 C 93.5872 -1.07462 1.22294 0
M  V30 1029 O 94.7762 -0.987065 1.48726 0
M  V30 1030 C 91.8762 -1.79138 2.87685 0
M  V30 1031 C 91.0492 -1.42123 4.13666 0
M  V30 1032 C 90.1082 -2.50394 4.62806 0
M  V30 1033 O 89.1342 -2.14261 5.27334 0
M  V30 1034 N 90.3362 -3.81433 4.37595 0
M  V30 1035 H 93.1012 0.0151844 2.99696 0
M  V30 1036 H 90.6622 0.153681 1.61169 0
M  V30 1037 H 92.6542 -2.50975 3.1748 0
M  V30 1038 H 91.2242 -2.28115 2.13734 0
M  V30 1039 H 90.4442 -0.534201 3.90564 0
M  V30 1040 H 91.7322 -1.14971 4.9564 0
M  V30 1041 H 91.1302 -4.13584 3.8596 0
M  V30 1042 H 89.6872 -4.4948 4.72029 0
M  V30 1043 N 93.1203 -1.57491 0.0584922 0
M  V30 1044 C 94.5313 -1.80526 -0.476138 0
M  V30 1045 C 94.8823 -0.971334 -1.70469 0
M  V30 1046 O 94.0073 -0.190012 -2.15564 0
M  V30 1047 C 94.6023 -3.27424 -0.870587 0
M  V30 1048 C 93.1613 -3.51351 -1.35015 0
M  V30 1049 C 92.3083 -2.75343 -0.32887 0
M  V30 1050 H 95.2593 -1.56133 0.284312 0
M  V30 1051 H 95.2803 -3.38745 -1.73299 0
M  V30 1052 H 94.7923 -3.88093 0.0237627 0
M  V30 1053 H 92.8933 -2.95971 -2.26345 0
M  V30 1054 H 93.0063 -4.60059 -1.33726 0
M  V30 1055 H 91.3703 -2.417 -0.803321 0
M  V30 1056 H 92.1533 -3.38743 0.557521 0
M  V30 1057 N 94.5984 0.214957 -1.56127 0
M  V30 1058 C 95.8474 0.936451 -1.78643 0
M  V30 1059 C 96.1604 1.85237 -0.628229 0
M  V30 1060 O 97.3664 2.613 -0.737186 0
M  V30 1061 C 95.8224 1.7154 -3.16389 0
M  V30 1062 C 95.4304 0.845299 -4.39953 0
M  V30 1063 C 97.1744 2.42772 -3.48227 0
M  V30 1064 C 95.0814 1.62198 -5.68723 0
M  V30 1065 H 94.0114 0.353401 -0.666051 0
M  V30 1066 H 96.6624 0.190169 -1.82512 0
M  V30 1067 H 95.0444 2.50484 -3.06715 0
M  V30 1068 H 96.2184 0.0959353 -4.607 0
M  V30 1069 H 94.5334 0.244789 -4.1568 0
M  V30 1070 H 97.1304 3.01394 -4.41663 0
M  V30 1071 H 97.4734 3.15984 -2.71035 0
M  V30 1072 H 98.0064 1.70813 -3.5926 0
M  V30 1073 H 94.7454 0.933011 -6.48826 0
M  V30 1074 H 94.2654 2.34579 -5.52026 0
M  V30 1075 H 95.9444 2.18095 -6.09133 0
M  V30 1076 N 96.0765 1.50051 0.48192 0
M  V30 1077 C 97.4875 1.5348 1.06305 0
M  V30 1078 C 97.8385 0.331997 1.93371 0
M  V30 1079 O 96.9635 -0.556256 2.09129 0
M  V30 1080 C 97.5585 2.7813 1.93466 0
M  V30 1081 C 96.1175 2.84275 2.46707 0
M  V30 1082 C 95.2645 2.47637 1.24785 0
M  V30 1083 H 98.2155 1.56472 0.264995 0
M  V30 1084 H 98.2365 2.59372 2.78399 0
M  V30 1085 H 97.7485 3.65654 1.30072 0
M  V30 1086 H 95.8495 2.01077 3.13686 0
M  V30 1087 H 95.9625 3.8691 2.82555 0
M  V30 1088 H 94.3265 1.99835 1.57918 0
M  V30 1089 H 95.1095 3.37457 0.630694 0
M  V30 1090 N 97.5546 -0.734337 1.39446 0
M  V30 1091 C 98.5016 -1.84835 1.38219 0
M  V30 1092 C 99.4716 -1.64331 0.24179 0
M  V30 1093 O 100.657 -1.85728 0.437002 0
M  V30 1094 C 97.7966 -3.22355 1.23212 0
M  V30 1095 C 96.9096 -3.5456 2.46801 0
M  V30 1096 C 96.0446 -4.81485 2.24377 0
M  V30 1097 C 95.0836 -5.06536 3.43639 0
M  V30 1098 N 94.2206 -6.24665 3.20528 0
M  V30 1099 H 99.0606 -1.85219 2.33448 0
M  V30 1100 H 96.5976 -0.905039 1.15963 0
M  V30 1101 H 98.5556 -4.0174 1.12522 0
M  V30 1102 H 97.1856 -3.21248 0.316121 0
M  V30 1103 H 96.2376 -2.69872 2.68092 0
M  V30 1104 H 97.5496 -3.6899 3.3563 0
M  V30 1105 H 96.7036 -5.68852 2.10933 0
M  V30 1106 H 95.4426 -4.6923 1.32944 0
M  V30 1107 H 94.4476 -4.17632 3.5758 0
M  V30 1108 H 95.6726 -5.20676 4.35974 0
M  V30 1109 H 93.6186 -6.13696 2.3176 0
M  V30 1110 H 93.5356 -6.39685 4.02913 0
M  V30 1111 H 94.8036 -7.14868 3.10779 0
M  V30 1112 N 99.0327 -1.24633 -0.964593 0
M  V30 1113 C 99.9957 -1.0424 -2.04124 0
M  V30 1114 C 100.996 0.00137563 -1.608 0
M  V30 1115 O 102.186 -0.239883 -1.7254 0
M  V30 1116 C 99.3177 -0.580588 -3.3592 0
M  V30 1117 H 100.511 -1.99803 -2.23649 0
M  V30 1118 H 98.0637 -1.06899 -1.14027 0
M  V30 1119 H 98.7987 0.3781 -3.22088 0
M  V30 1120 H 98.5837 -1.33398 -3.6871 0
M  V30 1121 H 100.074 -0.459034 -4.15069 0
M  V30 1122 N 100.511 1.16574 -1.06058 0
M  V30 1123 C 101.927 1.3904 -0.783585 0
M  V30 1124 C 102.127 1.91784 0.618145 0
M  V30 1125 O 101.183 2.11511 1.37911 0
M  V30 1126 C 102.496 2.37329 -1.84649 0
M  V30 1127 C 104.044 2.51018 -1.86973 0
M  V30 1128 C 104.519 3.52588 -2.92311 0
M  V30 1129 N 106.01 3.60113 -2.91329 0
M  V30 1130 C 106.745 4.38486 -3.69482 0
M  V30 1131 N 106.241 5.20302 -4.57447 0
M  V30 1132 N 108.034 4.33446 -3.57885 0
M  V30 1133 H 100.185 0.806725 -1.96483 0
M  V30 1134 H 102.448 0.417117 -0.851303 0
M  V30 1135 H 102.154 2.05663 -2.85299 0
M  V30 1136 H 102.028 3.36946 -1.6955 0
M  V30 1137 H 104.415 2.81989 -0.869827 0
M  V30 1138 H 104.496 1.51445 -2.0615 0
M  V30 1139 H 104.14 3.22354 -3.92492 0
M  V30 1140 H 104.07 4.51886 -2.70383 0
M  V30 1141 H 106.561 3.01707 -2.27555 0
M  V30 1142 H 106.874 5.77311 -5.13743 0
M  V30 1143 H 105.219 5.19653 -4.61503 0
M  V30 1144 H 108.41 3.68586 -2.88551 0
M  V30 1145 H 108.583 4.94279 -4.19037 0
M  V30 1146 N 101.989 0.842826 1.3317 0
M  V30 1147 C 103.405 0.531128 1.50503 0
M  V30 1148 C 103.605 -0.940734 1.78192 0
M  V30 1149 O 102.661 -1.72436 1.84451 0
M  V30 1150 C 103.974 1.40789 2.65705 0
M  V30 1151 C 105.522 1.40708 2.79589 0
M  V30 1152 C 105.997 2.26878 3.97857 0
M  V30 1153 N 107.488 2.24609 4.05099 0
M  V30 1154 C 108.223 2.88019 4.95815 0
M  V30 1155 N 107.719 3.60496 5.9162 0
M  V30 1156 N 109.512 2.77469 4.88843 0
M  V30 1157 H 101.663 1.79557 1.1346 0
M  V30 1158 H 103.926 0.766267 0.558156 0
M  V30 1159 H 103.632 2.454 2.51936 0
M  V30 1160 H 103.506 1.08677 3.61205 0
M  V30 1161 H 105.893 0.368668 2.92788 0
M  V30 1162 H 105.974 1.76829 1.84838 0
M  V30 1163 H 105.618 3.3078 3.85418 0
M  V30 1164 H 105.548 1.88096 4.91861 0
M  V30 1165 H 108.039 1.71906 3.36536 0
M  V30 1166 H 108.352 4.06076 6.57512 0
M  V30 1167 H 106.697 3.64604 5.91683 0
M  V30 1168 H 109.888 2.20406 4.12963 0
M  V30 1169 H 110.061 3.2717 5.59342 0
M  V30 1170 N 103.467 -1.45747 0.599634 0
M  V30 1171 C 104.878 -1.85853 0.177681 0
M  V30 1172 C 105.229 -1.50102 -1.26348 0
M  V30 1173 O 104.354 -0.923905 -1.95686 0
M  V30 1174 C 104.949 -3.37326 0.315688 0
M  V30 1175 C 103.508 -3.76365 -0.0515144 0
M  V30 1176 C 102.655 -2.69722 0.643822 0
M  V30 1177 H 105.606 -1.36661 0.806814 0
M  V30 1178 H 105.627 -3.77778 -0.454321 0
M  V30 1179 H 105.139 -3.63315 1.36468 0
M  V30 1180 H 103.24 -3.55993 -1.09999 0
M  V30 1181 H 103.353 -4.77916 0.336594 0
M  V30 1182 H 101.717 -2.54567 0.0822881 0
M  V30 1183 H 102.5 -2.98549 1.6948 0
M  V30 1184 N 104.945 -0.338344 -1.53925 0
M  V30 1185 C 105.855 0.529421 -2.28548 0
M  V30 1186 C 106.871 1.11645 -1.3346 0
M  V30 1187 O 108.047 1.13325 -1.66492 0
M  V30 1188 C 105.112 1.66713 -3.03987 0
M  V30 1189 C 104.173 1.11041 -4.14691 0
M  V30 1190 C 103.406 2.19389 -4.86522 0
M  V30 1191 O 103.629 3.40013 -4.57982 0
M  V30 1192 O 102.563 1.83976 -5.73094 0
M  V30 1193 H 106.389 -0.0770399 -3.03602 0
M  V30 1194 H 103.974 -0.103555 -1.49041 0
M  V30 1195 H 105.856 2.32918 -3.5118 0
M  V30 1196 H 104.531 2.25949 -2.31794 0
M  V30 1197 H 103.438 0.413024 -3.71813 0
M  V30 1198 H 104.771 0.562975 -4.8897 0
M  V30 1199 N 106.423 1.57458 -0.0668435 0
M  V30 1200 C 107.671 1.92919 0.602214 0
M  V30 1201 C 107.992 0.947215 1.70449 0
M  V30 1202 O 107.262 -0.00544117 1.95899 0
M  V30 1203 H 105.842 0.71217 0.22544 0
M  V30 1204 H 108.504 1.94508 -0.123535 0
M  V30 1205 H 107.6 2.94589 1.03073 0
M  V30 1206 N 107.901 -0.206675 1.56239 0
M  V30 1207 C 109.317 -0.557025 1.49564 0
M  V30 1208 C 109.517 -1.86424 0.764735 0
M  V30 1209 O 108.573 -2.50584 0.310491 0
M  V30 1210 C 109.886 -0.622478 2.94186 0
M  V30 1211 C 111.434 -0.712099 3.04792 0
M  V30 1212 C 111.909 -0.808767 4.50803 0
M  V30 1213 N 113.4 -0.8726 4.54907 0
M  V30 1214 C 114.135 -0.967365 5.65181 0
M  V30 1215 N 113.631 -1.02515 6.85173 0
M  V30 1216 N 115.424 -1.00366 5.53067 0
M  V30 1217 H 107.575 0.650943 2.02179 0
M  V30 1218 H 109.838 0.230387 0.919579 0
M  V30 1219 H 109.544 0.268727 3.50672 0
M  V30 1220 H 109.418 -1.4811 3.46905 0
M  V30 1221 H 111.805 -1.59374 2.48363 0
M  V30 1222 H 111.886 0.172489 2.55218 0
M  V30 1223 H 111.53 0.0684754 5.07854 0
M  V30 1224 H 111.46 -1.70899 4.98098 0
M  V30 1225 H 113.951 -0.837657 3.68499 0
M  V30 1226 H 114.264 -1.09765 7.64965 0
M  V30 1227 H 112.609 -0.994026 6.87855 0
M  V30 1228 H 115.8 -0.95527 4.58249 0
M  V30 1229 H 115.973 -1.07405 6.39037 0
M  V30 1230 N 109.379 -1.50304 -0.473955 0
M  V30 1231 C 110.607 -1.64902 -1.24959 0
M  V30 1232 C 111.022 -0.331198 -1.85872 0
M  V30 1233 O 110.379 0.68652 -1.69095 0
M  V30 1234 C 110.43 -2.73803 -2.36038 0
M  V30 1235 O 110.151 -4.00477 -1.77624 0
M  V30 1236 C 111.652 -2.99349 -3.26964 0
M  V30 1237 H 108.872 -0.554383 -0.378022 0
M  V30 1238 H 111.416 -1.9651 -0.566054 0
M  V30 1239 H 109.571 -2.44898 -3.00173 0
M  V30 1240 H 109.985 -4.60678 -2.5075 0
M  V30 1241 H 111.459 -3.79217 -4.01121 0
M  V30 1242 H 111.936 -2.10307 -3.85574 0
M  V30 1243 H 112.542 -3.29774 -2.68569 0
M  V30 1244 N 110.857 0.726932 -1.39834 0
M  V30 1245 C 112.103 1.48771 -1.38704 0
M  V30 1246 C 112.458 1.92394 0.0146387 0
M  V30 1247 O 111.751 1.64474 0.982797 0
M  V30 1248 C 111.945 2.73495 -2.30077 0
M  V30 1249 C 111.774 2.42068 -3.78989 0
M  V30 1250 C 110.544 2.33966 -4.4787 0
M  V30 1251 C 112.742 2.0708 -4.70768 0
M  V30 1252 N 110.724 1.95095 -5.82075 0
M  V30 1253 C 112.095 1.78719 -5.93683 0
M  V30 1254 C 114.15 1.93618 -4.58712 0
M  V30 1255 C 112.853 1.3825 -7.05889 0
M  V30 1256 C 114.879 1.54553 -5.70848 0
M  V30 1257 C 114.241 1.27082 -6.92842 0
M  V30 1258 H 110.34 0.542919 -0.562817 0
M  V30 1259 H 112.924 0.84408 -1.75452 0
M  V30 1260 H 111.095 3.35625 -1.95474 0
M  V30 1261 H 112.827 3.39755 -2.19883 0
M  V30 1262 H 109.582 2.51331 -4.0141 0
M  V30 1263 H 110.006 1.7823 -6.53118 0
M  V30 1264 H 114.648 2.13522 -3.64922 0
M  V30 1265 H 112.366 1.17088 -7.99572 0
M  V30 1266 H 115.952 1.44731 -5.6351 0
M  V30 1267 H 114.832 0.973069 -7.78139 0
M  V30 1268 N 112.336 1.25143 0.95797 0
M  V30 1269 C 113.299 1.05321 2.03569 0
M  V30 1270 C 114.299 0.007152 1.60798 0
M  V30 1271 O 115.489 0.24903 1.72411 0
M  V30 1272 C 112.621 0.598394 3.35607 0
M  V30 1273 H 113.814 2.00986 2.22586 0
M  V30 1274 H 111.367 1.07502 1.13459 0
M  V30 1275 H 112.102 -0.361014 3.22284 0
M  V30 1276 H 111.887 1.35351 3.67998 0
M  V30 1277 H 113.377 0.48104 4.1482 0
M  V30 1278 N 113.814 -1.1601 1.06675 0
M  V30 1279 C 114.746 -2.20115 0.638921 0
M  V30 1280 C 115.759 -1.59916 -0.305057 0
M  V30 1281 O 116.948 -1.78245 -0.0954446 0
M  V30 1282 C 114.048 -3.38798 -0.0830083 0
M  V30 1283 C 113.221 -4.2855 0.875426 0
M  V30 1284 C 112.28 -5.25849 0.192042 0
M  V30 1285 O 111.306 -5.63102 0.830921 0
M  V30 1286 N 112.508 -5.70648 -1.06493 0
M  V30 1287 H 115.273 -2.57439 1.53444 0
M  V30 1288 H 112.834 -1.31057 0.950557 0
M  V30 1289 H 114.826 -4.00936 -0.550685 0
M  V30 1290 H 113.396 -2.99947 -0.880386 0
M  V30 1291 H 112.616 -3.63617 1.52238 0
M  V30 1292 H 113.904 -4.85393 1.52548 0
M  V30 1293 H 113.302 -5.42482 -1.60405 0
M  V30 1294 H 111.859 -6.34859 -1.47641 0
M  V30 1295 N 115.292 -0.849877 -1.32721 0
M  V30 1296 C 116.703 -0.506188 -1.79707 0
M  V30 1297 C 117.054 0.975627 -1.70223 0
M  V30 1298 O 116.179 1.76078 -1.25799 0
M  V30 1299 C 116.774 -0.912044 -3.26293 0
M  V30 1300 C 115.333 -0.620326 -3.71253 0
M  V30 1301 C 114.48 -1.11439 -2.53922 0
M  V30 1302 H 117.431 -1.03754 -1.20087 0
M  V30 1303 H 117.452 -0.226493 -3.79825 0
M  V30 1304 H 116.964 -1.99057 -3.33164 0
M  V30 1305 H 115.065 0.447674 -3.69901 0
M  V30 1306 H 115.178 -1.18327 -4.64258 0
M  V30 1307 H 113.542 -0.534834 -2.49021 0
M  V30 1308 H 114.325 -2.19992 -2.6355 0
M  V30 1309 N 116.77 1.45427 -0.607355 0
M  V30 1310 C 118.018 2.01841 -0.102253 0
M  V30 1311 C 118.339 1.47832 1.27164 0
M  V30 1312 O 117.609 0.672497 1.83995 0
M  V30 1313 H 116.189 0.746188 -0.0348101 0
M  V30 1314 H 118.851 1.78229 -0.7887 0
M  V30 1315 H 117.947 3.12057 -0.0518585 0
M  V30 1316 N 118.248 0.346503 1.53744 0
M  V30 1317 C 119.478 -0.250047 2.05081 0
M  V30 1318 C 119.886 -1.44529 1.22098 0
M  V30 1319 O 119.229 -1.81992 0.249917 0
M  V30 1320 C 119.291 -0.725934 3.52094 0
M  V30 1321 C 118.955 0.350053 4.55657 0
M  V30 1322 C 119.952 1.19372 5.0601 0
M  V30 1323 C 117.637 0.504827 4.99757 0
M  V30 1324 C 119.631 2.17768 5.99046 0
M  V30 1325 C 117.318 1.49218 5.92602 0
M  V30 1326 C 118.316 2.32706 6.42135 0
M  V30 1327 O 118.004 3.2976 7.33153 0
M  V30 1328 H 117.736 -0.0515469 0.674032 0
M  V30 1329 H 120.29 0.497559 1.99282 0
M  V30 1330 H 118.52 -1.52483 3.55367 0
M  V30 1331 H 120.209 -1.24336 3.86388 0
M  V30 1332 H 120.975 1.08525 4.72702 0
M  V30 1333 H 116.854 -0.135178 4.60802 0
M  V30 1334 H 120.398 2.82971 6.37631 0
M  V30 1335 H 116.295 1.6012 6.25325 0
M  V30 1336 H 117.063 3.25265 7.51096 0
M  V30 1337 N 119.726 -1.57421 0.075193 0
M  V30 1338 C 121.137 -1.81021 -0.456964 0
M  V30 1339 C 121.488 -0.98936 -1.69429 0
M  V30 1340 O 120.613 -0.212865 -2.15351 0
M  V30 1341 C 121.208 -3.28329 -0.83581 0
M  V30 1342 C 119.767 -3.52764 -1.31281 0
M  V30 1343 C 118.914 -2.75676 -0.299648 0
M  V30 1344 H 121.865 -1.55822 0.300856 0
M  V30 1345 H 121.886 -3.40564 -1.69696 0
M  V30 1346 H 121.398 -3.88046 0.0649238 0
M  V30 1347 H 119.499 -2.98355 -2.23193 0
M  V30 1348 H 119.612 -4.61451 -1.28839 0
M  V30 1349 H 117.976 -2.42538 -0.777641 0
M  V30 1350 H 118.759 -3.38132 0.593417 0
M  V30 1351 N 121.204 0.198386 -1.56346 0
M  V30 1352 C 122.45 0.916115 -1.81601 0
M  V30 1353 C 122.805 1.81025 -0.651744 0
M  V30 1354 O 122.098 1.88316 0.353229 0
M  V30 1355 C 122.292 1.77031 -3.10475 0
M  V30 1356 C 122.121 0.960365 -4.39326 0
M  V30 1357 C 120.891 0.646093 -5.01152 0
M  V30 1358 C 123.089 0.314628 -5.13337 0
M  V30 1359 N 121.071 -0.182828 -6.13628 0
M  V30 1360 C 122.442 -0.37664 -6.18855 0
M  V30 1361 C 124.497 0.230019 -4.97368 0
M  V30 1362 C 123.2 -1.14445 -7.10137 0
M  V30 1363 C 125.226 -0.524389 -5.89071 0
M  V30 1364 C 124.588 -1.20412 -6.94032 0
M  V30 1365 H 120.687 0.314732 -0.715868 0
M  V30 1366 H 123.271 0.185102 -1.93818 0
M  V30 1367 H 121.442 2.47295 -2.99499 0
M  V30 1368 H 123.174 2.42727 -3.2383 0
M  V30 1369 H 119.929 0.969724 -4.63566 0
M  V30 1370 H 120.353 -0.586802 -6.74452 0
M  V30 1371 H 124.995 0.741184 -4.16253 0
M  V30 1372 H 122.713 -1.66706 -7.90718 0
M  V30 1373 H 126.299 -0.591167 -5.78789 0
M  V30 1374 H 125.179 -1.77853 -7.63766 0
M  V30 1375 N 122.682 1.50554 0.465978 0
M  V30 1376 C 124.093 1.54599 1.04671 0
M  V30 1377 C 124.444 0.352488 1.93008 0
M  V30 1378 O 123.569 -0.534044 2.09707 0
M  V30 1379 C 124.164 2.80166 1.90505 0
M  V30 1380 C 122.723 2.86876 2.43678 0
M  V30 1381 C 121.87 2.48947 1.22151 0
M  V30 1382 H 124.821 1.56744 0.248384 0
M  V30 1383 H 124.842 2.62311 2.75633 0
M  V30 1384 H 124.354 3.67013 1.26186 0
M  V30 1385 H 122.455 2.04393 3.11536 0
M  V30 1386 H 122.568 3.89885 2.78436 0
M  V30 1387 H 120.932 2.01498 1.5579 0
M  V30 1388 H 121.715 3.38107 0.594866 0
M  V30 1389 N 124.16 -0.719506 1.40217 0
M  V30 1390 C 125.09 -1.8465 1.42922 0
M  V30 1391 C 126.071 -1.67599 0.29062 0
M  V30 1392 O 127.256 -1.87688 0.498677 0
M  V30 1393 C 124.386 -3.22565 1.28722 0
M  V30 1394 C 123.34 -3.54281 2.40144 0
M  V30 1395 C 122.666 -4.91298 2.11023 0
M  V30 1396 C 123.966 -3.55676 3.82481 0
M  V30 1397 H 125.66 -1.82644 2.37237 0
M  V30 1398 H 123.206 -0.877305 1.1419 0
M  V30 1399 H 125.159 -4.01095 1.29232 0
M  V30 1400 H 123.883 -3.25137 0.308811 0
M  V30 1401 H 122.542 -2.78088 2.38877 0
M  V30 1402 H 122.19 -4.90468 1.11582 0
M  V30 1403 H 121.89 -5.13485 2.8567 0
M  V30 1404 H 123.414 -5.72166 2.13209 0
M  V30 1405 H 124.828 -4.24254 3.85592 0
M  V30 1406 H 123.225 -3.89388 4.56614 0
M  V30 1407 H 124.295 -2.55144 4.12346 0
M  V30 1408 N 125.638 -1.25649 -0.95132 0
M  V30 1409 C 126.868 -1.13179 -1.72841 0
M  V30 1410 C 127.276 0.316827 -1.86528 0
M  V30 1411 O 126.619 1.22948 -1.3649 0
M  V30 1412 C 126.681 -1.71644 -3.15878 0
M  V30 1413 C 126.345 -3.20667 -3.25609 0
M  V30 1414 C 127.342 -4.17616 -3.09666 0
M  V30 1415 C 125.027 -3.6094 -3.49324 0
M  V30 1416 C 127.021 -5.52817 -3.17289 0
M  V30 1417 C 124.708 -4.96278 -3.56584 0
M  V30 1418 C 125.706 -5.92025 -3.40581 0
M  V30 1419 O 125.394 -7.24899 -3.47528 0
M  V30 1420 H 125.126 -0.395389 -0.54831 0
M  V30 1421 H 127.68 -1.66566 -1.20187 0
M  V30 1422 H 125.91 -1.12707 -3.69911 0
M  V30 1423 H 127.599 -1.54225 -3.75459 0
M  V30 1424 H 128.365 -3.87842 -2.91211 0
M  V30 1425 H 124.244 -2.86907 -3.6084 0
M  V30 1426 H 127.788 -6.2753 -3.04716 0
M  V30 1427 H 123.685 -5.25716 -3.74556 0
M  V30 1428 H 124.453 -7.33039 -3.64138 0
M  V30 1429 N 127.117 1.15442 -1.07289 0
M  V30 1430 C 128.365 1.85845 -0.794096 0
M  V30 1431 C 128.686 1.82692 0.681809 0
M  V30 1432 O 127.956 1.26741 1.49377 0
M  V30 1433 H 126.536 0.688089 -0.290763 0
M  V30 1434 H 129.198 1.39947 -1.3565 0
M  V30 1435 H 128.294 2.91001 -1.12804 0
M  V30 1436 N 128.595 0.856903 1.32268 0
M  V30 1437 C 129.543 0.291987 2.3076 0
M  V30 1438 C 130.537 -0.585857 1.58947 0
M  V30 1439 O 131.743 -0.47341 1.73663 0
M  V30 1440 H 128.118 0.075721 0.748178 0
M  V30 1441 H 130.089 1.13687 2.75895 0
M  V30 1442 C 128.838 -0.502869 3.44044 0
M  V30 1443 H 128.161 0.163328 3.99466 0
M  V30 1444 H 129.601 -0.863691 4.1511 0
M  V30 1445 C 128.06 -1.68898 2.91505 0
M  V30 1446 O 128.59 -2.78811 2.89184 0
M  V30 1447 N 126.796 -1.51679 2.47875 0
M  V30 1448 H 126.343 -0.622666 2.49961 0
M  V30 1449 H 126.301 -2.31184 2.13076 0
M  V30 1450 N 130.073 -1.45103 0.615059 0
M  V30 1451 C 130.983 -2.34382 -0.101034 0
M  V30 1452 C 131.999 -1.51681 -0.852585 0
M  V30 1453 O 133.175 -1.8446 -0.808484 0
M  V30 1454 C 130.24 -3.29417 -1.08099 0
M  V30 1455 C 129.301 -4.28025 -0.330577 0
M  V30 1456 C 128.534 -5.1852 -1.26385 0
M  V30 1457 O 128.757 -5.12598 -2.50198 0
M  V30 1458 O 127.691 -5.97122 -0.756866 0
M  V30 1459 H 131.517 -2.97033 0.632855 0
M  V30 1460 H 129.102 -1.4461 0.375293 0
M  V30 1461 H 130.984 -3.87958 -1.6452 0
M  V30 1462 H 129.659 -2.69321 -1.79577 0
M  V30 1463 H 128.566 -3.73078 0.276283 0
M  V30 1464 H 129.899 -4.90997 0.343866 0
M  V30 1465 N 131.551 -0.354651 -1.53558 0
M  V30 1466 C 132.799 0.237972 -2.00694 0
M  V30 1467 C 133.12 1.50173 -1.24391 0
M  V30 1468 O 132.39 1.92673 -0.354135 0
M  V30 1469 H 130.97 0.0909256 -0.741446 0
M  V30 1470 H 133.632 -0.478368 -1.88938 0
M  V30 1471 H 132.728 0.47264 -3.085 0
M  V30 1472 N 133.029 1.57378 -0.0835403 0
M  V30 1473 C 133.962 2.09016 0.915833 0
M  V30 1474 C 134.94 0.997993 1.2837 0
M  V30 1475 O 136.124 1.27219 1.39096 0
M  V30 1476 C 133.251 2.55757 2.22049 0
M  V30 1477 C 132.297 3.76522 2.00333 0
M  V30 1478 S 133.13 5.20661 1.25191 0
M  V30 1479 C 134.286 5.70743 2.56912 0
M  V30 1480 H 134.519 2.93457 0.476492 0
M  V30 1481 H 132.052 1.53856 0.129493 0
M  V30 1482 H 134.01 2.83346 2.97027 0
M  V30 1483 H 132.671 1.71564 2.63106 0
M  V30 1484 H 131.864 4.07256 2.96916 0
M  V30 1485 H 131.466 3.49367 1.33488 0
M  V30 1486 H 133.758 5.78304 3.52946 0
M  V30 1487 H 134.701 6.6944 2.30772 0
M  V30 1488 H 135.109 4.98616 2.64655 0
M  V30 1489 N 134.507 -0.190092 1.56449 0
M  V30 1490 C 135.755 -0.907908 1.80559 0
M  V30 1491 C 136.076 -1.83583 0.657438 0
M  V30 1492 O 135.346 -1.93203 -0.323924 0
M  V30 1493 H 133.926 -0.338247 0.666032 0
M  V30 1494 H 136.588 -0.194403 1.93928 0
M  V30 1495 H 135.684 -1.49604 2.73907 0
M  V30 1496 N 135.985 -1.50799 -0.457987 0
M  V30 1497 C 137.231 -1.63648 -1.20792 0
M  V30 1498 C 137.586 -0.338662 -1.89396 0
M  V30 1499 O 136.879 0.664291 -1.79716 0
M  V30 1500 C 137.073 -2.76358 -2.2663 0
M  V30 1501 C 136.902 -4.16974 -1.68411 0
M  V30 1502 C 135.672 -4.83199 -1.47807 0
M  V30 1503 C 137.87 -5.00774 -1.17176 0
M  V30 1504 N 135.852 -6.07991 -0.849692 0
M  V30 1505 C 137.223 -6.16397 -0.667403 0
M  V30 1506 C 139.278 -4.86452 -1.06155 0
M  V30 1507 C 137.981 -7.19272 -0.0636908 0
M  V30 1508 C 140.007 -5.89515 -0.471759 0
M  V30 1509 C 139.369 -7.04397 0.0221557 0
M  V30 1510 H 135.468 -0.652888 -0.43042 0
M  V30 1511 H 138.052 -1.87962 -0.507785 0
M  V30 1512 H 136.223 -2.53744 -2.94056 0
M  V30 1513 H 137.955 -2.78496 -2.93636 0
M  V30 1514 H 134.71 -4.40714 -1.73403 0
M  V30 1515 H 135.134 -6.74733 -0.553537 0
M  V30 1516 H 139.776 -3.97907 -1.42932 0
M  V30 1517 H 137.494 -8.07481 0.316253 0
M  V30 1518 H 141.08 -5.805 -0.388671 0
M  V30 1519 H 139.96 -7.82782 0.471375 0
M  V30 1520 N 137.463 0.71206 -1.40597 0
M  V30 1521 C 138.426 1.80785 -1.40888 0
M  V30 1522 C 139.426 1.57937 -0.302103 0
M  V30 1523 O 140.616 1.64913 -0.561182 0
M  V30 1524 C 137.748 3.18927 -1.20409 0
M  V30 1525 H 138.941 1.81924 -2.38419 0
M  V30 1526 H 136.494 0.91805 -1.26497 0
M  V30 1527 H 137.229 3.23436 -0.236522 0
M  V30 1528 H 137.014 3.36911 -2.00582 0
M  V30 1529 H 138.504 3.98949 -1.23408 0
M  V30 1530 N 138.941 1.26152 0.944643 0
M  V30 1531 C 140.189 1.11271 1.6871 0
M  V30 1532 C 140.51 -0.345166 1.91921 0
M  V30 1533 O 139.78 -1.24387 1.51343 0
M  V30 1534 H 138.36 0.408783 0.625224 0
M  V30 1535 H 141.022 1.58427 1.1352 0
M  V30 1536 H 140.118 1.62879 2.66227 0
M  V30 1537 N 140.419 -1.14872 1.07899 0
M  V30 1538 C 141.665 -1.86289 0.81657 0
M  V30 1539 C 142.02 -1.8107 -0.65049 0
M  V30 1540 O 141.313 -1.22684 -1.47171 0
M  V30 1541 C 141.507 -3.34223 1.26609 0
M  V30 1542 C 141.336 -3.53846 2.77531 0
M  V30 1543 C 140.106 -3.68995 3.45212 0
M  V30 1544 C 142.304 -3.51201 3.75716 0
M  V30 1545 N 140.286 -3.76725 4.84718 0
M  V30 1546 C 141.657 -3.65112 5.01092 0
M  V30 1547 C 143.712 -3.34507 3.68794 0
M  V30 1548 C 142.415 -3.64056 6.20368 0
M  V30 1549 C 144.441 -3.34752 4.8754 0
M  V30 1550 C 143.803 -3.49199 6.11751 0
M  V30 1551 H 139.902 -0.698579 0.351443 0
M  V30 1552 H 142.486 -1.37713 1.37634 0
M  V30 1553 H 140.657 -3.81402 0.73395 0
M  V30 1554 H 142.389 -3.93377 0.95062 0
M  V30 1555 H 139.144 -3.70006 2.95622 0
M  V30 1556 H 139.568 -3.8432 5.5734 0
M  V30 1557 H 144.21 -3.22253 2.73702 0
M  V30 1558 H 141.928 -3.75087 7.15776 0
M  V30 1559 H 145.514 -3.23055 4.83866 0
M  V30 1560 H 144.394 -3.49328 7.02097 0
M  V30 1561 N 141.898 -0.863906 -1.31812 0
M  V30 1562 C 142.828 -0.330843 -2.31144 0
M  V30 1563 C 143.809 0.575005 -1.60087 0
M  V30 1564 O 144.994 0.493304 -1.8783 0
M  V30 1565 C 142.124 0.47374 -3.44054 0
M  V30 1566 C 141.078 -0.338481 -4.26659 0
M  V30 1567 C 140.404 0.591412 -5.31419 0
M  V30 1568 C 141.704 -1.56926 -4.98168 0
M  V30 1569 H 143.398 -1.16086 -2.75979 0
M  V30 1570 H 140.944 -0.559657 -1.32679 0
M  V30 1571 H 142.897 0.857143 -4.12591 0
M  V30 1572 H 141.621 1.33721 -2.9797 0
M  V30 1573 H 140.28 -0.703754 -3.59782 0
M  V30 1574 H 139.928 1.45199 -4.81587 0
M  V30 1575 H 139.628 0.0519022 -5.87577 0
M  V30 1576 H 141.152 0.97179 -6.02817 0
M  V30 1577 H 142.566 -1.25764 -5.59336 0
M  V30 1578 H 140.963 -2.04739 -5.64094 0
M  V30 1579 H 142.033 -2.32544 -4.25501 0
M  V30 1580 N 143.376 1.44774 -0.622745 0
M  V30 1581 C 144.306 2.33382 0.0741861 0
M  V30 1582 C 145.287 1.47719 0.843387 0
M  V30 1583 O 146.472 1.76458 0.810934 0
M  V30 1584 C 143.602 3.30663 1.06204 0
M  V30 1585 C 142.556 4.26079 0.405037 0
M  V30 1586 C 141.882 5.13165 1.5022 0
M  V30 1587 C 143.182 5.1781 -0.683414 0
M  V30 1588 H 144.876 2.91905 -0.665713 0
M  V30 1589 H 142.422 1.40363 -0.321587 0
M  V30 1590 H 144.375 3.9153 1.55827 0
M  V30 1591 H 143.099 2.70331 1.83272 0
M  V30 1592 H 141.758 3.66532 -0.0704683 0
M  V30 1593 H 141.406 4.49191 2.26355 0
M  V30 1594 H 141.106 5.77812 1.06803 0
M  V30 1595 H 142.63 5.76902 2.00041 0
M  V30 1596 H 144.044 5.72661 -0.270631 0
M  V30 1597 H 142.441 5.91015 -1.04023 0
M  V30 1598 H 143.511 4.59326 -1.55395 0
M  V30 1599 N 144.854 0.36279 1.53368 0
M  V30 1600 C 146.079 -0.231226 2.06107 0
M  V30 1601 C 146.504 -1.419 1.23474 0
M  V30 1602 O 145.862 -1.79524 0.253128 0
M  V30 1603 C 145.91 -0.605523 3.5548 0
M  V30 1604 O 145.014 -1.70312 3.7559 0
M  V30 1605 H 144.355 -0.034327 0.663112 0
M  V30 1606 H 146.885 0.522584 1.97814 0
M  V30 1607 H 146.895 -0.877314 3.98456 0
M  V30 1608 H 145.57 0.263004 4.15068 0
M  V30 1609 H 144.147 -1.4271 3.44512 0
M  V30 1610 N 146.332 -1.57332 0.0918853 0
M  V30 1611 C 147.743 -1.81496 -0.437739 0
M  V30 1612 C 148.094 -1.00727 -1.6837 0
M  V30 1613 O 147.219 -0.235694 -2.15113 0
M  V30 1614 C 147.814 -3.29197 -0.800939 0
M  V30 1615 C 146.373 -3.54136 -1.27532 0
M  V30 1616 C 145.52 -2.75979 -0.270392 0
M  V30 1617 H 148.471 -1.55494 0.317366 0
M  V30 1618 H 148.492 -3.42344 -1.66074 0
M  V30 1619 H 148.004 -3.87955 0.106078 0
M  V30 1620 H 146.105 -3.00705 -2.20016 0
M  V30 1621 H 146.218 -4.62792 -1.23938 0
M  V30 1622 H 144.582 -2.43349 -0.751872 0
M  V30 1623 H 145.365 -3.37484 0.629248 0
M  V30 1624 N 147.81 0.181792 -1.56548 0
M  V30 1625 C 149.226 0.53316 -1.50431 0
M  V30 1626 C 149.426 1.85184 -0.794297 0
M  V30 1627 O 148.482 2.50058 -0.350318 0
M  V30 1628 C 149.795 0.575597 -2.9514 0
M  V30 1629 C 151.343 0.663519 -3.05886 0
M  V30 1630 C 151.818 0.736946 -4.52032 0
M  V30 1631 N 153.309 0.800118 -4.56237 0
M  V30 1632 C 154.044 0.877327 -5.66649 0
M  V30 1633 N 153.54 0.916016 -6.86718 0
M  V30 1634 N 155.333 0.915542 -5.54594 0
M  V30 1635 H 147.484 -0.683025 -2.01118 0
M  V30 1636 H 149.747 -0.244988 -0.915797 0
M  V30 1637 H 149.453 -0.324482 -3.502 0
M  V30 1638 H 149.327 1.42572 -3.49218 0
M  V30 1639 H 151.714 1.55403 -2.50867 0
M  V30 1640 H 151.795 -0.21307 -2.54911 0
M  V30 1641 H 151.439 -0.149262 -5.07681 0
M  V30 1642 H 151.369 1.62953 -5.00753 0
M  V30 1643 H 153.86 0.778926 -3.69785 0
M  V30 1644 H 154.173 0.975813 -7.66614 0
M  V30 1645 H 152.518 0.884469 -6.89349 0
M  V30 1646 H 155.709 0.882245 -4.59711 0
M  V30 1647 H 155.882 0.972253 -6.40665 0
M  V30 1648 N 149.288 1.51039 0.449983 0
M  V30 1649 C 150.536 1.62759 1.19808 0
M  V30 1650 C 150.857 0.339981 1.92013 0
M  V30 1651 O 150.127 -0.643606 1.85026 0
M  V30 1652 H 148.707 0.599811 0.445237 0
M  V30 1653 H 151.369 1.87914 0.517138 0
M  V30 1654 H 150.465 2.44911 1.93455 0
M  V30 1655 N 150.766 -0.704594 1.40972 0
M  V30 1656 C 151.991 -1.49858 1.43378 0
M  V30 1657 C 152.416 -1.88061 0.038184 0
M  V30 1658 O 151.774 -1.5402 -0.956425 0
M  V30 1659 C 151.822 -2.74333 2.34038 0
M  V30 1660 O 150.926 -3.7147 1.7912 0
M  V30 1661 H 150.267 -0.45139 0.486974 0
M  V30 1662 H 152.797 -0.866832 1.8533 0
M  V30 1663 H 152.807 -3.22741 2.49604 0
M  V30 1664 H 151.482 -2.45863 3.35446 0
M  V30 1665 H 150.059 -3.30363 1.72958 0
M  V30 1666 N 152.244 -1.26651 -0.937939 0
M  V30 1667 C 153.66 -1.03834 -1.21205 0
M  V30 1668 C 153.86 0.234502 -2.00131 0
M  V30 1669 O 152.916 0.942767 -2.3424 0
M  V30 1670 C 154.229 -2.27167 -1.97017 0
M  V30 1671 C 155.777 -2.32101 -2.09996 0
M  V30 1672 C 156.252 -3.55136 -2.8921 0
M  V30 1673 N 157.743 -3.55632 -2.96783 0
M  V30 1674 C 158.478 -4.475 -3.58512 0
M  V30 1675 N 157.974 -5.4966 -4.21717 0
M  V30 1676 N 159.767 -4.35145 -3.55816 0
M  V30 1677 H 151.918 -2.08398 -0.410391 0
M  V30 1678 H 154.181 -0.916031 -0.244114 0
M  V30 1679 H 153.887 -3.19765 -1.46434 0
M  V30 1680 H 153.761 -2.31672 -2.97671 0
M  V30 1681 H 156.148 -1.40015 -2.59769 0
M  V30 1682 H 156.229 -2.31605 -1.08594 0
M  V30 1683 H 155.873 -4.47553 -2.40123 0
M  V30 1684 H 155.803 -3.5288 -3.90875 0
M  V30 1685 H 158.294 -2.81743 -2.51852 0
M  V30 1686 H 158.607 -6.15943 -4.66727 0
M  V30 1687 H 156.952 -5.53514 -4.20294 0
M  V30 1688 H 160.143 -3.5455 -3.05634 0
M  V30 1689 H 160.316 -5.06934 -4.03636 0
M  V30 1690 N 153.722 1.14298 -1.08507 0
M  V30 1691 C 155.133 1.66926 -0.836227 0
M  V30 1692 C 155.484 1.85576 0.63686 0
M  V30 1693 O 154.609 1.56767 1.49175 0
M  V30 1694 C 155.204 3.03219 -1.51142 0
M  V30 1695 C 153.763 3.52876 -1.30979 0
M  V30 1696 C 152.91 2.2833 -1.57356 0
M  V30 1697 H 155.861 0.983491 -1.24552 0
M  V30 1698 H 155.882 3.68726 -0.939211 0
M  V30 1699 H 155.394 2.89612 -2.58353 0
M  V30 1700 H 153.495 3.71703 -0.258429 0
M  V30 1701 H 153.608 4.33586 -2.03814 0
M  V30 1702 H 151.972 2.34454 -0.995164 0
M  V30 1703 H 152.755 2.17298 -2.65775 0
M  V30 1704 N 155.201 0.870884 1.31352 0
M  V30 1705 C 156.426 0.495957 2.01383 0
M  V30 1706 C 156.851 -0.904324 1.64935 0
M  V30 1707 O 156.209 -1.59687 0.858466 0
M  V30 1708 C 156.257 0.661433 3.54482 0
M  V30 1709 O 155.361 -0.298851 4.11316 0
M  V30 1710 H 154.702 0.197158 0.634054 0
M  V30 1711 H 157.232 1.17455 1.67527 0
M  V30 1712 H 157.242 0.555072 4.04207 0
M  V30 1713 H 155.917 1.68246 3.8035 0
M  V30 1714 H 154.494 -0.147368 3.72609 0
M  V30 1715 N 156.679 -1.44442 0.630414 0
M  V30 1716 C 157.925 -2.02894 0.143332 0
M  V30 1717 C 158.28 -1.48697 -1.22094 0
M  V30 1718 O 157.573 -0.661171 -1.79831 0
M  V30 1719 C 157.767 -3.57332 0.0697835 0
M  V30 1720 C 157.596 -4.26512 1.42539 0
M  V30 1721 C 156.366 -4.63516 2.01198 0
M  V30 1722 C 158.564 -4.57004 2.35907 0
M  V30 1723 N 156.546 -5.17661 3.30001 0
M  V30 1724 C 157.917 -5.12223 3.49324 0
M  V30 1725 C 159.972 -4.38955 2.34995 0
M  V30 1726 C 158.675 -5.51295 4.62024 0
M  V30 1727 C 160.701 -4.79075 3.46758 0
M  V30 1728 C 160.063 -5.34407 4.58899 0
M  V30 1729 H 156.162 -0.776041 0.0963523 0
M  V30 1730 H 158.746 -1.75945 0.833752 0
M  V30 1731 H 156.917 -3.83894 -0.589915 0
M  V30 1732 H 158.649 -4.02451 -0.42606 0
M  V30 1733 H 155.404 -4.47811 1.54151 0
M  V30 1734 H 155.828 -5.4921 3.95851 0
M  V30 1735 H 160.47 -3.95469 1.49545 0
M  V30 1736 H 158.188 -5.93736 5.48182 0
M  V30 1737 H 161.774 -4.66824 3.47227 0
M  V30 1738 H 160.654 -5.64878 5.4395 0
M  V30 1739 N 158.157 -0.370918 -1.53173 0
M  V30 1740 C 159.405 0.216673 -2.00935 0
M  V30 1741 C 159.726 1.48845 -1.25977 0
M  V30 1742 O 158.996 1.92286 -0.374551 0
M  V30 1743 H 157.576 0.0830565 -0.742368 0
M  V30 1744 H 160.238 -0.49838 -1.8842 0
M  V30 1745 H 159.334 0.439893 -3.08984 0
M  V30 1746 N 159.635 1.57281 -0.100228 0
M  V30 1747 C 161.046 1.81725 0.428107 0
M  V30 1748 C 161.397 1.01619 1.67833 0
M  V30 1749 O 160.522 0.247098 2.14985 0
M  V30 1750 C 161.117 3.29617 0.78347 0
M  V30 1751 C 159.676 3.54808 1.25653 0
M  V30 1752 C 158.823 2.76118 0.255752 0
M  V30 1753 H 161.774 1.55324 -0.325608 0
M  V30 1754 H 161.795 3.4322 1.64256 0
M  V30 1755 H 161.307 3.87893 -0.12665 0
M  V30 1756 H 159.408 3.01868 2.18418 0
M  V30 1757 H 159.521 4.63443 1.21482 0
M  V30 1758 H 157.885 2.43745 0.738956 0
M  V30 1759 H 158.668 3.37145 -0.647136 0
M  V30 1760 N 161.113 -0.173488 1.56642 0
M  V30 1761 C 162.341 -0.906095 1.86004 0
M  V30 1762 C 162.756 -1.75921 0.685355 0
M  V30 1763 O 162.113 -1.79198 -0.345578 0
M  V30 1764 C 162.164 -1.78462 3.14378 0
M  V30 1765 O 161.885 -0.965914 4.27319 0
M  V30 1766 C 163.386 -2.62707 3.57071 0
M  V30 1767 H 160.606 -0.263341 0.617165 0
M  V30 1768 H 163.15 -0.174236 2.03756 0
M  V30 1769 H 161.305 -2.46984 2.98459 0
M  V30 1770 H 161.719 -1.56655 5.00559 0
M  V30 1771 H 163.193 -3.19969 4.49804 0
M  V30 1772 H 163.67 -3.37472 2.81086 0
M  V30 1773 H 164.276 -1.99521 3.75595 0
M  V30 1774 N 162.591 -1.51276 -0.441967 0
M  V30 1775 C 163.868 -1.54252 -1.20273 0
M  V30 1776 C 164.248 -0.30408 -2.08898 0
M  V30 1777 O 163.596 0.711084 -2.17154 0
M  V30 1778 C 163.806 -2.85406 -2.00859 0
M  V30 1779 C 165.154 -3.37181 -2.58059 0
M  V30 1780 O 166.178 -2.86925 -2.11074 0
M  V30 1781 O 165.037 -4.24858 -3.43741 0
M  V30 1782 H 162.131 -0.619969 -0.547328 0
M  V30 1783 H 164.677 -1.63586 -0.451413 0
M  V30 1784 H 163.449 -3.67003 -1.35736 0
M  V30 1785 H 163.072 -2.79213 -2.83065 0
M  V30 1786 N 164.069 0.697108 -1.41344 0
M  V30 1787 C 165.48 1.27697 -1.36199 0
M  V30 1788 C 165.831 1.9615 -0.0443463 0
M  V30 1789 O 164.956 1.98689 0.857419 0
M  V30 1790 C 165.551 2.32223 -2.46694 0
M  V30 1791 C 164.11 2.8579 -2.44952 0
M  V30 1792 C 163.257 1.59807 -2.26621 0
M  V30 1793 H 166.208 0.491968 -1.50882 0
M  V30 1794 H 166.229 3.1348 -2.15664 0
M  V30 1795 H 165.741 1.82373 -3.42581 0
M  V30 1796 H 163.842 3.3982 -1.52817 0
M  V30 1797 H 163.955 3.36325 -3.41207 0
M  V30 1798 H 162.319 1.8556 -1.7447 0
M  V30 1799 H 163.102 1.11956 -3.24532 0
M  V30 1800 N 165.547 1.27147 0.931209 0
M  V30 1801 C 166.963 1.04475 1.20653 0
M  V30 1802 C 167.163 -0.223885 2.00252 0
M  V30 1803 O 166.219 -0.930332 2.34736 0
M  V30 1804 C 167.532 2.28209 1.95809 0
M  V30 1805 C 169.08 2.33211 2.08762 0
M  V30 1806 C 169.555 3.56665 2.87323 0
M  V30 1807 N 171.046 3.57201 2.94892 0
M  V30 1808 C 171.781 4.49395 3.56134 0
M  V30 1809 N 171.277 5.51889 4.18796 0
M  V30 1810 N 173.07 4.37026 3.53504 0
M  V30 1811 H 165.221 2.08612 0.399333 0
M  V30 1812 H 167.484 0.917312 0.239253 0
M  V30 1813 H 167.19 3.20538 1.44736 0
M  V30 1814 H 167.064 2.33247 2.96438 0
M  V30 1815 H 169.451 1.41391 2.59023 0
M  V30 1816 H 169.532 2.32178 1.07364 0
M  V30 1817 H 169.176 4.4882 2.37746 0
M  V30 1818 H 169.106 3.54948 3.88998 0
M  V30 1819 H 171.597 2.83074 2.50354 0
M  V30 1820 H 171.91 6.18409 4.63454 0
M  V30 1821 H 170.255 5.55735 4.17353 0
M  V30 1822 H 173.446 3.56166 3.03749 0
M  V30 1823 H 173.619 5.09067 4.00942 0
M  V30 1824 N 167.025 -1.13721 1.09112 0
M  V30 1825 C 168.441 -1.36914 0.820174 0
M  V30 1826 C 168.641 -1.93356 -0.567079 0
M  V30 1827 O 167.697 -2.15093 -1.32255 0
M  V30 1828 C 169.01 -2.3235 1.90877 0
M  V30 1829 C 170.558 -2.45973 1.93562 0
M  V30 1830 C 171.033 -3.44714 3.01556 0
M  V30 1831 N 172.524 -3.52263 3.00775 0
M  V30 1832 C 173.259 -4.28536 3.80978 0
M  V30 1833 N 172.755 -5.07991 4.71081 0
M  V30 1834 N 174.548 -4.23804 3.69251 0
M  V30 1835 H 166.699 -0.754348 1.98553 0
M  V30 1836 H 168.962 -0.3944 0.862063 0
M  V30 1837 H 168.668 -1.98027 2.90651 0
M  V30 1838 H 168.542 -3.32332 1.78424 0
M  V30 1839 H 170.929 -2.79584 0.944286 0
M  V30 1840 H 171.01 -1.45926 2.10093 0
M  V30 1841 H 170.654 -3.11835 4.00901 0
M  V30 1842 H 170.584 -4.44558 2.82269 0
M  V30 1843 H 173.075 -2.95567 2.35475 0
M  V30 1844 H 173.388 -5.63487 5.28869 0
M  V30 1845 H 171.733 -5.07235 4.75119 0
M  V30 1846 H 174.924 -3.60806 2.98222 0
M  V30 1847 H 175.097 -4.82995 4.31995 0
M  V30 1848 N 168.503 -0.877838 -1.30888 0
M  V30 1849 C 169.919 -0.570844 -1.49042 0
M  V30 1850 C 170.119 0.893159 -1.80624 0
M  V30 1851 O 169.175 1.67485 -1.88958 0
M  V30 1852 C 170.488 -1.47784 -2.61878 0
M  V30 1853 C 172.036 -1.48071 -2.75761 0
M  V30 1854 C 172.511 -2.37347 -3.91702 0
M  V30 1855 N 174.002 -2.35271 -3.99001 0
M  V30 1856 C 174.737 -3.01063 -4.88004 0
M  V30 1857 N 174.233 -3.76055 -5.81854 0
M  V30 1858 N 176.026 -2.90332 -4.81315 0
M  V30 1859 H 168.177 -1.82502 -1.0866 0
M  V30 1860 H 170.44 -0.780797 -0.537644 0
M  V30 1861 H 170.146 -2.51993 -2.45341 0
M  V30 1862 H 170.02 -1.18215 -3.58197 0
M  V30 1863 H 172.407 -0.446166 -2.91708 0
M  V30 1864 H 172.488 -1.81668 -1.80085 0
M  V30 1865 H 172.132 -3.40883 -3.76512 0
M  V30 1866 H 172.062 -2.01071 -4.86701 0
M  V30 1867 H 174.553 -1.80768 -3.3186 0
M  V30 1868 H 174.866 -4.23366 -6.46514 0
M  V30 1869 H 173.211 -3.80163 -5.81808 0
M  V30 1870 H 176.402 -2.31278 -4.06974 0
M  V30 1871 H 176.575 -3.41885 -5.50471 0
M  V30 1872 N 169.982 1.44106 -0.638065 0
M  V30 1873 C 171.207 2.0685 -0.150916 0
M  V30 1874 C 171.632 1.47417 1.16833 0
M  V30 1875 O 170.99 0.578264 1.71831 0
M  V30 1876 C 171.038 3.60555 -0.05708 0
M  V30 1877 O 170.142 4.00465 0.984972 0
M  V30 1878 H 169.483 0.658151 -0.0879399 0
M  V30 1879 H 172.013 1.84865 -0.876707 0
M  V30 1880 H 172.023 4.07789 0.131232 0
M  V30 1881 H 170.698 4.03193 -1.02021 0
M  V30 1882 H 169.275 3.64849 0.770672 0
M  V30 1883 N 171.46 0.379036 1.52974 0
M  V30 1884 C 172.876 0.0285448 1.59574 0
M  V30 1885 C 173.076 -1.45542 1.39355 0
M  V30 1886 O 172.132 -2.2187 1.20541 0
M  V30 1887 C 173.445 0.496535 2.96572 0
M  V30 1888 C 174.993 0.451909 3.0972 0
M  V30 1889 C 175.468 0.895924 4.49152 0
M  V30 1890 N 176.959 0.851522 4.55306 0
M  V30 1891 C 177.694 1.16661 5.61407 0
M  V30 1892 N 177.19 1.55166 6.752 0
M  V30 1893 N 178.983 1.08853 5.51459 0
M  V30 1894 H 171.134 1.34525 1.64367 0
M  V30 1895 H 173.397 0.550733 0.771619 0
M  V30 1896 H 173.103 1.53258 3.16552 0
M  V30 1897 H 172.977 -0.109802 3.7704 0
M  V30 1898 H 175.364 -0.575029 2.89443 0
M  V30 1899 H 175.445 1.09392 2.3123 0
M  V30 1900 H 175.089 1.92104 4.70168 0
M  V30 1901 H 175.019 0.23103 5.26093 0
M  V30 1902 H 177.51 0.568038 3.73606 0
M  V30 1903 H 177.823 1.776 7.52116 0
M  V30 1904 H 176.168 1.59044 6.76557 0
M  V30 1905 H 179.359 0.786803 4.6144 0
M  V30 1906 H 179.532 1.33742 6.34048 0
M  V30 1907 N 172.938 -1.57226 0.108567 0
M  V30 1908 C 173.886 -2.16002 -0.862885 0
M  V30 1909 C 174.88 -1.10644 -1.28274 0
M  V30 1910 O 176.086 -1.28966 -1.2557 0
M  V30 1911 H 172.461 -0.691148 -0.296342 0
M  V30 1912 H 174.432 -2.96427 -0.342575 0
M  V30 1913 C 173.181 -2.76576 -2.10716 0
M  V30 1914 H 172.504 -3.5734 -1.793 0
M  V30 1915 H 173.944 -3.21253 -2.76717 0
M  V30 1916 C 172.403 -1.73137 -2.89007 0
M  V30 1917 O 172.933 -1.17842 -3.84026 0
M  V30 1918 N 171.139 -1.43317 -2.52801 0
M  V30 1919 H 170.686 -1.88473 -1.75601 0
M  V30 1920 H 170.644 -0.743485 -3.05483 0
M  V30 1921 N 174.416 0.165178 -1.56732 0
M  V30 1922 C 175.346 1.20651 -1.99914 0
M  V30 1923 C 176.327 1.45827 -0.875705 0
M  V30 1924 O 177.512 1.57057 -1.14223 0
M  V30 1925 C 174.642 2.54401 -2.36427 0
M  V30 1926 C 173.596 2.43782 -3.51787 0
M  V30 1927 C 172.922 3.82078 -3.7406 0
M  V30 1928 C 174.222 1.93732 -4.85041 0
M  V30 1929 H 175.916 0.847534 -2.87154 0
M  V30 1930 H 173.462 0.40625 -1.38151 0
M  V30 1931 H 175.415 3.27458 -2.65234 0
M  V30 1932 H 174.139 2.92098 -1.46103 0
M  V30 1933 H 172.798 1.73178 -3.23117 0
M  V30 1934 H 172.446 4.17179 -2.81017 0
M  V30 1935 H 172.146 3.7584 -4.51684 0
M  V30 1936 H 173.67 4.56712 -4.05274 0
M  V30 1937 H 175.084 2.56569 -5.12684 0
M  V30 1938 H 173.481 1.98428 -5.66345 0
M  V30 1939 H 174.551 0.891962 -4.76626 0
M  V30 1940 N 175.894 1.51508 0.433938 0
M  V30 1941 C 177.142 1.6402 1.18075 0
M  V30 1942 C 177.463 0.360328 1.91642 0
M  V30 1943 O 176.733 -0.623945 1.85698 0
M  V30 1944 H 175.313 0.6045 0.43885 0
M  V30 1945 H 177.975 1.88452 0.497178 0
M  V30 1946 H 177.071 2.46949 1.90847 0
M  V30 1947 N 177.372 -0.689602 1.41712 0
M  V30 1948 C 178.319 -1.80345 1.44029 0
M  V30 1949 C 179.289 -1.63478 0.293948 0
M  V30 1950 O 180.474 -1.84244 0.495869 0
M  V30 1951 C 177.614 -3.18272 1.33405 0
M  V30 1952 C 176.727 -3.46529 2.57956 0
M  V30 1953 C 175.862 -4.74103 2.39582 0
M  V30 1954 C 174.901 -4.95347 3.5958 0
M  V30 1955 N 174.038 -6.14151 3.40239 0
M  V30 1956 H 178.878 -1.77698 2.39222 0
M  V30 1957 H 176.415 -0.867688 1.18784 0
M  V30 1958 H 178.373 -3.97956 1.25246 0
M  V30 1959 H 177.003 -3.2008 0.418164 0
M  V30 1960 H 176.055 -2.61207 2.76542 0
M  V30 1961 H 177.367 -3.58126 3.47199 0
M  V30 1962 H 176.521 -5.61853 2.28924 0
M  V30 1963 H 175.26 -4.64763 1.47805 0
M  V30 1964 H 174.265 -4.06044 3.70686 0
M  V30 1965 H 175.49 -5.06542 4.52318 0
M  V30 1966 H 173.436 -6.06013 2.51167 0
M  V30 1967 H 173.353 -6.26543 4.23061 0
M  V30 1968 H 174.621 -7.04619 3.33365 0
M  V30 1969 N 178.85 -1.27639 -0.924453 0
M  V30 1970 C 180.096 -1.14336 -1.67497 0
M  V30 1971 C 180.429 0.309465 -1.91718 0
M  V30 1972 O 179.704 1.22608 -1.50989 0
M  V30 1973 C 179.987 -1.93096 -3.0395 0
M  V30 1974 C 179.84 -3.46381 -2.8695 0
M  V30 1975 C 181.159 -1.73798 -4.0433 0
M  V30 1976 H 178.278 -0.416728 -0.607871 0
M  V30 1977 H 180.92 -1.56832 -1.07256 0
M  V30 1978 H 179.07 -1.56982 -3.55372 0
M  V30 1979 H 180.742 -3.92343 -2.42621 0
M  V30 1980 H 178.985 -3.72557 -2.22225 0
M  V30 1981 H 179.656 -3.96735 -3.83804 0
M  V30 1982 H 182.132 -2.05293 -3.61931 0
M  V30 1983 H 181.008 -2.31294 -4.97789 0
M  V30 1984 H 181.269 -0.686725 -4.36734 0
M  V30 1985 N 180.328 1.1314 -1.09713 0
M  V30 1986 C 181.577 1.83838 -0.829851 0
M  V30 1987 C 181.89 1.84599 0.646728 0
M  V30 1988 O 183.096 2.51218 1.02965 0
M  V30 1989 C 181.552 3.30069 -1.43466 0
M  V30 1990 C 181.16 3.37688 -2.94399 0
M  V30 1991 C 182.904 4.05788 -1.24645 0
M  V30 1992 C 180.811 4.78209 -3.47952 0
M  V30 1993 H 179.741 0.68877 -0.306777 0
M  V30 1994 H 182.392 1.27448 -1.3202 0
M  V30 1995 H 180.774 3.8628 -0.871996 0
M  V30 1996 H 181.948 2.91456 -3.56918 0
M  V30 1997 H 180.263 2.75436 -3.12289 0
M  V30 1998 H 182.86 5.09535 -1.62107 0
M  V30 1999 H 183.203 4.15878 -0.187357 0
M  V30 2000 H 183.736 3.55915 -1.77678 0
M  V30 2001 H 180.475 4.73311 -4.53495 0
M  V30 2002 H 179.995 5.24924 -2.90198 0
M  V30 2003 H 181.674 5.47133 -3.45332 0
M  V30 2004 N 181.806 0.884767 1.30421 0
M  V30 2005 C 183.083 0.423185 1.90967 0
M  V30 2006 C 183.463 -1.09605 1.80416 0
M  V30 2007 O 182.811 -1.93126 1.22125 0
M  V30 2008 C 183.021 0.921056 3.36627 0
M  V30 2009 C 184.369 0.955903 4.137 0
M  V30 2010 O 185.393 0.867706 3.4547 0
M  V30 2011 O 184.252 1.08614 5.35598 0
M  V30 2012 H 181.346 0.129369 0.816819 0
M  V30 2013 H 183.892 0.973653 1.3899 0
M  V30 2014 H 182.664 1.96489 3.3839 0
M  V30 2015 H 182.287 0.349741 3.96059 0
M  V30 2016 N 183.284 -1.43765 0.645699 0
M  V30 2017 C 184.512 -2.06253 0.163556 0
M  V30 2018 C 184.927 -1.48352 -1.16778 0
M  V30 2019 O 184.284 -0.611932 -1.71935 0
M  V30 2020 C 184.335 -3.61453 0.0583186 0
M  V30 2021 O 184.056 -4.172 1.33702 0
M  V30 2022 C 185.557 -4.41002 -0.450795 0
M  V30 2023 H 182.777 -0.665413 0.0864077 0
M  V30 2024 H 185.321 -1.84396 0.884222 0
M  V30 2025 H 183.476 -3.82522 -0.612865 0
M  V30 2026 H 183.89 -5.10791 1.19131 0
M  V30 2027 H 185.364 -5.49966 -0.473403 0
M  V30 2028 H 185.841 -4.13488 -1.48068 0
M  V30 2029 H 186.447 -4.24886 0.187637 0
M  V30 2030 N 184.763 -0.387143 -1.52771 0
M  V30 2031 C 185.693 0.440551 -2.29306 0
M  V30 2032 C 186.674 1.06535 -1.32606 0
M  V30 2033 O 187.859 1.07853 -1.61497 0
M  V30 2034 C 184.989 1.56919 -3.09829 0
M  V30 2035 C 183.943 1.07054 -4.14395 0
M  V30 2036 C 183.269 2.29109 -4.83129 0
M  V30 2037 C 184.569 0.140015 -5.22112 0
M  V30 2038 H 186.263 -0.198026 -2.98744 0
M  V30 2039 H 183.809 -0.09668 -1.43675 0
M  V30 2040 H 185.762 2.15503 -3.62128 0
M  V30 2041 H 184.486 2.23532 -2.3812 0
M  V30 2042 H 183.145 0.507247 -3.63074 0
M  V30 2043 H 182.793 2.94227 -4.0797 0
M  V30 2044 H 182.493 1.96406 -5.53804 0
M  V30 2045 H 184.017 2.88339 -5.38231 0
M  V30 2046 H 185.431 0.633978 -5.69784 0
M  V30 2047 H 183.828 -0.0971485 -6.00021 0
M  V30 2048 H 184.898 -0.811711 -4.78058 0
M  V30 2049 N 186.241 1.57166 -0.116904 0
M  V30 2050 C 187.469 1.99473 0.549383 0
M  V30 2051 C 187.884 0.996541 1.60357 0
M  V30 2052 O 187.241 -0.0108731 1.82497 0
M  V30 2053 C 187.292 3.41788 1.17741 0
M  V30 2054 O 187.013 4.37788 0.165362 0
M  V30 2055 C 188.514 3.99216 1.92722 0
M  V30 2056 H 185.734 0.655009 0.145616 0
M  V30 2057 H 188.278 2.03494 -0.202625 0
M  V30 2058 H 186.433 3.38713 1.88021 0
M  V30 2059 H 186.847 5.20806 0.621403 0
M  V30 2060 H 188.321 5.00882 2.31995 0
M  V30 2061 H 188.798 3.3824 2.80161 0
M  V30 2062 H 189.404 4.0583 1.27209 0
M  V30 2063 N 187.719 -0.156864 1.56817 0
M  V30 2064 C 188.959 -0.877453 1.84608 0
M  V30 2065 C 189.323 -1.78791 0.699845 0
M  V30 2066 O 190.524 -2.5472 0.858553 0
M  V30 2067 C 188.795 -1.63992 3.17555 0
M  V30 2068 S 190.354 -2.40729 3.66872 0
M  V30 2069 H 187.172 -0.293612 0.647544 0
M  V30 2070 H 189.774 -0.138099 1.95012 0
M  V30 2071 H 188.478 -0.962363 3.98957 0
M  V30 2072 H 188.009 -2.42038 3.10131 0
M  V30 2073 H 190.024 -3.65725 3.3535 0
M  V30 2074 N 189.197 -1.51736 -0.425897 0
M  V30 2075 C 190.445 -1.64644 -1.17204 0
M  V30 2076 C 190.766 -0.370486 -1.91448 0
M  V30 2077 O 190.036 0.614088 -1.86026 0
M  V30 2078 H 188.616 -0.606819 -0.435638 0
M  V30 2079 H 191.278 -1.88713 -0.487177 0
M  V30 2080 H 190.374 -2.47958 -1.89534 0
M  V30 2081 N 190.675 0.682077 -1.42076 0
M  V30 2082 C 191.922 1.44215 -1.42156 0
M  V30 2083 C 192.25 1.94468 -0.0354186 0
M  V30 2084 O 191.505 1.70816 0.955002 0
M  V30 2085 C 191.804 2.66036 -2.38662 0
M  V30 2086 C 191.47 2.34366 -3.85206 0
M  V30 2087 C 190.132 2.25439 -4.25124 0
M  V30 2088 C 192.484 2.08513 -4.77673 0
M  V30 2089 C 189.812 1.88775 -5.55501 0
M  V30 2090 C 192.164 1.73354 -6.08384 0
M  V30 2091 C 190.828 1.62933 -6.47309 0
M  V30 2092 H 190.098 0.527718 -0.520187 0
M  V30 2093 H 192.745 0.778387 -1.74967 0
M  V30 2094 H 191.05 3.3741 -1.99152 0
M  V30 2095 H 192.747 3.24205 -2.35991 0
M  V30 2096 H 189.337 2.42213 -3.53597 0
M  V30 2097 H 193.521 2.14346 -4.47626 0
M  V30 2098 H 188.777 1.7927 -5.84527 0
M  V30 2099 H 192.951 1.52373 -6.79526 0
M  V30 2100 H 190.578 1.34292 -7.48244 0
M  V30 2101 N 192.153 1.28127 0.917671 0
M  V30 2102 C 193.116 1.11744 2.00115 0
M  V30 2103 C 194.116 0.0583052 1.60694 0
M  V30 2104 O 195.306 0.303755 1.71531 0
M  V30 2105 C 192.438 0.704862 3.33533 0
M  V30 2106 H 193.631 2.07966 2.16079 0
M  V30 2107 H 191.184 1.11058 1.09981 0
M  V30 2108 H 191.919 -0.258299 3.2327 0
M  V30 2109 H 191.704 1.4699 3.63505 0
M  V30 2110 H 193.194 0.612768 4.1308 0
M  V30 2111 N 193.631 -1.12557 1.10312 0
M  V30 2112 C 194.908 -1.80363 0.756878 0
M  V30 2113 C 195.288 -1.97067 -0.756824 0
M  V30 2114 O 194.636 -1.54601 -1.68259 0
M  V30 2115 C 194.846 -3.14812 1.50647 0
M  V30 2116 C 196.194 -3.90029 1.67817 0
M  V30 2117 O 197.218 -3.24464 1.46974 0
M  V30 2118 O 196.077 -5.07652 2.02365 0
M  V30 2119 H 193.171 -0.780667 0.272926 0
M  V30 2120 H 195.717 -1.19404 1.20586 0
M  V30 2121 H 194.489 -2.97936 2.53672 0
M  V30 2122 H 194.112 -3.83478 1.05026 0
M  V30 2123 N 195.109 -0.891671 -1.2995 0
M  V30 2124 C 196.039 -0.379797 -2.30391 0
M  V30 2125 C 197.02 0.540919 -1.6127 0
M  V30 2126 O 198.205 0.453352 -1.88834 0
M  V30 2127 C 195.335 0.400654 -3.44981 0
M  V30 2128 C 194.289 -0.428905 -4.25846 0
M  V30 2129 C 193.615 0.478557 -5.32554 0
M  V30 2130 C 194.915 -1.67458 -4.94727 0
M  V30 2131 H 196.609 -1.21914 -2.73454 0
M  V30 2132 H 194.155 -0.587675 -1.31462 0
M  V30 2133 H 196.108 0.769434 -4.14316 0
M  V30 2134 H 194.832 1.27371 -3.0074 0
M  V30 2135 H 193.491 -0.779911 -3.58208 0
M  V30 2136 H 193.139 1.34951 -4.84559 0
M  V30 2137 H 192.839 -0.0727433 -5.87555 0
M  V30 2138 H 194.363 0.843705 -6.04743 0
M  V30 2139 H 195.777 -1.376 -5.56542 0
M  V30 2140 H 194.174 -2.16659 -5.59624 0
M  V30 2141 H 195.244 -2.41518 -4.20473 0
M  V30 2142 N 196.587 1.43421 -0.653314 0
M  V30 2143 C 197.52 2.2803 0.0879804 0
M  V30 2144 C 198.498 1.39833 0.82979 0
M  V30 2145 O 199.682 1.69275 0.829341 0
M  V30 2146 C 196.809 3.19247 1.13132 0
M  V30 2147 C 195.855 4.23704 0.487546 0
M  V30 2148 S 196.688 5.30377 -0.738961 0
M  V30 2149 C 197.844 6.25162 0.30384 0
M  V30 2150 H 198.077 2.90554 -0.629739 0
M  V30 2151 H 195.61 1.47934 -0.442156 0
M  V30 2152 H 197.568 3.72346 1.72827 0
M  V30 2153 H 196.229 2.55901 1.82136 0
M  V30 2154 H 195.422 4.87631 1.27407 0
M  V30 2155 H 195.024 3.73983 -0.0352915 0
M  V30 2156 H 197.316 6.67321 1.17 0
M  V30 2157 H 198.259 7.07463 -0.300402 0
M  V30 2158 H 198.667 5.60864 0.63969 0
M  V30 2159 N 198.065 0.39524 1.52563 0
M  V30 2160 C 199.313 -0.184678 2.01254 0
M  V30 2161 C 199.634 -1.46822 1.28329 0
M  V30 2162 O 198.904 -1.91666 0.405094 0
M  V30 2163 H 197.484 -0.0712355 0.743596 0
M  V30 2164 H 200.146 0.528293 1.87603 0
M  V30 2165 H 199.242 -0.390681 3.09645 0
M  V30 2166 N 199.544 -1.57102 0.125237 0
M  V30 2167 C 200.774 -1.99472 -0.538015 0
M  V30 2168 C 201.182 -1.00395 -1.60366 0
M  V30 2169 O 200.525 0.0103875 -1.83697 0
M  V30 2170 C 200.587 -3.38262 -1.21734 0
M  V30 2171 C 200.251 -4.56021 -0.298897 0
M  V30 2172 C 201.248 -5.17817 0.464943 0
M  V30 2173 C 198.933 -5.01869 -0.208149 0
M  V30 2174 C 200.927 -6.23852 1.3072 0
M  V30 2175 C 198.614 -6.07763 0.637736 0
M  V30 2176 C 199.612 -6.68622 1.39403 0
M  V30 2177 O 199.3 -7.7247 2.22586 0
M  V30 2178 H 199.032 -0.659934 -0.146501 0
M  V30 2179 H 201.586 -2.04321 0.210267 0
M  V30 2180 H 199.816 -3.30185 -2.01282 0
M  V30 2181 H 201.505 -3.6488 -1.77813 0
M  V30 2182 H 202.271 -4.83308 0.404741 0
M  V30 2183 H 198.15 -4.54241 -0.786522 0
M  V30 2184 H 201.694 -6.71284 1.898 0
M  V30 2185 H 197.591 -6.41701 0.699309 0
M  V30 2186 H 198.359 -7.89595 2.15596 0
M  V30 2187 N 201.022 0.148545 -1.56898 0
M  V30 2188 C 202.271 0.85984 -1.82454 0
M  V30 2189 C 202.584 1.82406 -0.706229 0
M  V30 2190 O 203.79 2.57938 -0.847349 0
M  V30 2191 C 202.246 1.57967 -3.2338 0
M  V30 2192 C 201.854 0.65794 -4.43142 0
M  V30 2193 C 203.598 2.27784 -3.58211 0
M  V30 2194 C 201.505 1.3793 -5.75091 0
M  V30 2195 H 200.435 0.324834 -0.68044 0
M  V30 2196 H 203.086 0.112588 -1.83154 0
M  V30 2197 H 201.468 2.37249 -3.17063 0
M  V30 2198 H 202.642 -0.0995497 -4.60692 0
M  V30 2199 H 200.957 0.0682643 -4.16344 0
M  V30 2200 H 203.554 2.8239 -4.54048 0
M  V30 2201 H 203.897 3.04204 -2.84193 0
M  V30 2202 H 204.43 1.55421 -3.66182 0
M  V30 2203 H 201.169 0.656982 -6.52199 0
M  V30 2204 H 200.689 2.10954 -5.61479 0
M  V30 2205 H 202.368 1.92063 -6.17835 0
M  V30 2206 N 202.5 1.5196 0.417844 0
M  V30 2207 C 203.911 1.57851 0.997 0
M  V30 2208 C 204.262 0.413714 1.91789 0
M  V30 2209 O 203.387 -0.467057 2.113 0
M  V30 2210 C 203.982 2.86085 1.81496 0
M  V30 2211 C 202.541 2.94483 2.34428 0
M  V30 2212 C 201.688 2.52707 1.14169 0
M  V30 2213 H 204.639 1.57455 0.198392 0
M  V30 2214 H 204.66 2.70947 2.67148 0
M  V30 2215 H 204.172 3.70842 1.14446 0
M  V30 2216 H 202.273 2.142 3.04875 0
M  V30 2217 H 202.386 3.98546 2.65891 0
M  V30 2218 H 200.75 2.06353 1.49301 0
M  V30 2219 H 201.533 3.39828 0.486999 0
M  V30 2220 N 203.978 -0.674533 1.42435 0
M  V30 2221 C 204.908 -1.80009 1.48724 0
M  V30 2222 C 205.889 -1.6659 0.343793 0
M  V30 2223 O 207.074 -1.86007 0.558137 0
M  V30 2224 C 204.204 -3.18306 1.38919 0
M  V30 2225 C 203.158 -3.46461 2.51294 0
M  V30 2226 C 202.484 -4.84335 2.26547 0
M  V30 2227 C 203.784 -3.43328 3.93603 0
M  V30 2228 H 205.478 -1.75004 2.42928 0
M  V30 2229 H 203.024 -0.840533 1.16923 0
M  V30 2230 H 204.977 -3.9678 1.41927 0
M  V30 2231 H 203.701 -3.2399 0.412094 0
M  V30 2232 H 202.36 -2.70348 2.47604 0
M  V30 2233 H 202.008 -4.86669 1.2713 0
M  V30 2234 H 201.708 -5.04136 3.01861 0
M  V30 2235 H 203.232 -5.65094 2.31304 0
M  V30 2236 H 204.646 -4.11772 3.98894 0
M  V30 2237 H 203.043 -3.74664 4.68771 0
M  V30 2238 H 204.113 -2.41897 4.20255 0
M  V30 2239 N 205.456 -1.28612 -0.910864 0
M  V30 2240 C 206.702 -1.16106 -1.66274 0
M  V30 2241 C 207.035 0.289113 -1.92036 0
M  V30 2242 O 206.31 1.21 -1.52281 0
M  V30 2243 C 206.593 -1.96309 -3.01885 0
M  V30 2244 C 206.446 -3.49405 -2.8326 0
M  V30 2245 C 207.765 -1.78076 -4.02463 0
M  V30 2246 H 204.884 -0.423152 -0.603417 0
M  V30 2247 H 207.526 -1.57961 -1.05586 0
M  V30 2248 H 205.676 -1.60742 -3.53687 0
M  V30 2249 H 207.348 -3.94894 -2.38446 0
M  V30 2250 H 205.591 -3.74893 -2.18261 0
M  V30 2251 H 206.262 -4.00784 -3.79574 0
M  V30 2252 H 208.738 -2.0912 -3.59733 0
M  V30 2253 H 207.614 -2.36561 -4.95308 0
M  V30 2254 H 207.875 -0.733008 -4.35981 0
M  V30 2255 N 206.934 1.1197 -1.10907 0
M  V30 2256 C 208.182 1.83225 -0.852819 0
M  V30 2257 C 208.503 1.84769 0.623341 0
M  V30 2258 O 207.773 1.3143 1.45269 0
M  V30 2259 H 206.353 0.67849 -0.312507 0
M  V30 2260 H 209.015 1.3556 -1.40033 0
M  V30 2261 H 208.111 2.87265 -1.22005 0
M  V30 2262 N 208.412 0.89855 1.29475 0
M  V30 2263 C 209.375 0.380272 2.26023 0
M  V30 2264 C 210.375 -0.484891 1.53315 0
M  V30 2265 O 211.565 -0.290108 1.71767 0
M  V30 2266 C 208.697 -0.45651 3.3783 0
M  V30 2267 H 209.89 1.23295 2.73383 0
M  V30 2268 H 207.443 0.676589 1.40897 0
M  V30 2269 H 208.178 -1.32922 2.95808 0
M  V30 2270 H 207.963 0.163393 3.91759 0
M  V30 2271 H 209.453 -0.810466 4.0966 0
M  V30 2272 N 209.89 -1.43072 0.660911 0
M  V30 2273 C 211.301 -1.84932 0.256348 0
M  V30 2274 C 211.652 -1.55325 -1.19868 0
M  V30 2275 O 210.777 -1.00607 -1.91591 0
M  V30 2276 C 211.372 -3.35684 0.458475 0
M  V30 2277 C 209.931 -3.76245 0.108161 0
M  V30 2278 C 209.078 -2.66749 0.757641 0
M  V30 2279 H 212.029 -1.33116 0.864051 0
M  V30 2280 H 212.05 -3.79365 -0.293683 0
M  V30 2281 H 211.562 -3.572 1.51755 0
M  V30 2282 H 209.663 -3.60338 -0.948014 0
M  V30 2283 H 209.776 -4.76058 0.538992 0
M  V30 2284 H 208.14 -2.53989 0.190185 0
M  V30 2285 H 208.923 -2.91092 1.81989 0
M  V30 2286 N 211.368 -0.403325 -1.52352 0
M  V30 2287 C 212.298 0.416205 -2.29761 0
M  V30 2288 C 213.279 1.05123 -1.33728 0
M  V30 2289 O 214.464 1.06134 -1.62632 0
M  V30 2290 C 211.594 1.53624 -3.11475 0
M  V30 2291 C 210.548 1.02653 -4.15507 0
M  V30 2292 C 209.874 2.23971 -4.85532 0
M  V30 2293 C 211.174 0.08463 -5.22231 0
M  V30 2294 H 212.868 -0.229701 -2.98518 0
M  V30 2295 H 210.414 -0.111913 -1.43564 0
M  V30 2296 H 212.367 2.1165 -3.64393 0
M  V30 2297 H 211.091 2.20994 -2.40477 0
M  V30 2298 H 209.75 0.46871 -3.63591 0
M  V30 2299 H 209.398 2.89883 -4.11068 0
M  V30 2300 H 209.098 1.90521 -5.55856 0
M  V30 2301 H 210.622 2.82614 -5.41259 0
M  V30 2302 H 212.036 0.573509 -5.70424 0
M  V30 2303 H 210.433 -0.160783 -5.99885 0
M  V30 2304 H 211.503 -0.86237 -4.7717 0
M  V30 2305 N 212.846 1.57033 -0.133567 0
M  V30 2306 C 214.094 1.953 0.519848 0
M  V30 2307 C 214.415 1.01866 1.66278 0
M  V30 2308 O 213.685 0.0776513 1.95746 0
M  V30 2309 H 212.265 0.721091 0.195032 0
M  V30 2310 H 214.927 1.93809 -0.205921 0
M  V30 2311 H 214.023 2.98695 0.904854 0
M  V30 2312 N 214.325 -0.140222 1.56975 0
M  V30 2313 C 215.573 -0.850005 1.83356 0
M  V30 2314 C 215.894 -1.81399 0.71551 0
M  V30 2315 O 215.164 -1.94136 -0.262294 0
M  V30 2316 H 213.744 -0.316886 0.676456 0
M  V30 2317 H 216.406 -0.132608 1.94448 0
M  V30 2318 H 215.502 -1.40814 2.78528 0
M  V30 2319 N 215.803 -1.52179 -0.40978 0
M  V30 2320 C 216.766 -1.74853 -1.48186 0
M  V30 2321 C 217.766 -0.618417 -1.48433 0
M  V30 2322 O 218.956 -0.886286 -1.49969 0
M  V30 2323 C 216.088 -1.8303 -2.87598 0
M  V30 2324 H 217.281 -2.70559 -1.29374 0
M  V30 2325 H 214.834 -1.42586 -0.640233 0
M  V30 2326 H 215.569 -0.89236 -3.11781 0
M  V30 2327 H 215.354 -2.65187 -2.88822 0
M  V30 2328 H 216.844 -2.02316 -3.65319 0
M  V30 2329 N 217.281 0.66697 -1.42791 0
M  V30 2330 C 218.244 1.76211 -1.46568 0
M  V30 2331 C 219.244 1.56896 -0.352196 0
M  V30 2332 O 220.434 1.63044 -0.613364 0
M  V30 2333 C 217.566 3.14935 -1.30494 0
M  V30 2334 H 218.759 1.74247 -2.44086 0
M  V30 2335 H 216.312 0.877342 -1.29354 0
M  V30 2336 H 217.047 3.2252 -0.339301 0
M  V30 2337 H 216.832 3.30359 -2.11199 0
M  V30 2338 H 218.322 3.94821 -1.36038 0
M  V30 2339 N 218.759 1.29093 0.90403 0
M  V30 2340 C 220.175 1.07011 1.1841 0
M  V30 2341 C 220.375 -0.181358 2.00682 0
M  V30 2342 O 219.431 -0.880331 2.36657 0
M  V30 2343 C 220.744 2.32311 1.90924 0
M  V30 2344 C 222.292 2.37587 2.03768 0
M  V30 2345 C 222.767 3.62679 2.79693 0
M  V30 2346 N 224.258 3.63376 2.87249 0
M  V30 2347 C 224.993 4.56848 3.46522 0
M  V30 2348 N 224.489 5.60648 4.06996 0
M  V30 2349 N 226.282 4.44426 3.44154 0
M  V30 2350 H 218.433 2.09412 0.354993 0
M  V30 2351 H 220.696 0.922181 0.219742 0
M  V30 2352 H 220.402 3.23536 1.37905 0
M  V30 2353 H 220.276 2.39483 2.91424 0
M  V30 2354 H 222.663 1.46853 2.55965 0
M  V30 2355 H 222.744 2.34403 1.02415 0
M  V30 2356 H 222.388 4.53762 2.28173 0
M  V30 2357 H 222.318 3.63119 3.81381 0
M  V30 2358 H 224.809 2.88321 2.44293 0
M  V30 2359 H 225.122 6.28101 4.50232 0
M  V30 2360 H 223.467 5.64463 4.05471 0
M  V30 2361 H 226.658 3.62529 2.96126 0
M  V30 2362 H 226.831 5.17457 3.90054 0
M  V30 2363 N 220.237 -1.11381 1.11499 0
M  V30 2364 C 221.2 -2.15622 0.777153 0
M  V30 2365 C 222.2 -1.59504 -0.203779 0
M  V30 2366 O 223.39 -1.74188 0.020782 0
M  V30 2367 C 220.522 -3.40556 0.153116 0
M  V30 2368 H 221.715 -2.47021 1.70061 0
M  V30 2369 H 219.268 -1.26577 0.916952 0
M  V30 2370 H 220.003 -3.14767 -0.780536 0
M  V30 2371 H 219.788 -3.8257 0.859238 0
M  V30 2372 H 221.278 -4.17546 -0.0671044 0
M  V30 2373 N 221.715 -0.905404 -1.28997 0
M  V30 2374 C 222.645 -0.404212 -2.29975 0
M  V30 2375 C 223.626 0.523784 -1.61835 0
M  V30 2376 O 224.811 0.433298 -1.89304 0
M  V30 2377 C 221.941 0.364042 -3.45387 0
M  V30 2378 C 220.895 -0.474048 -4.25367 0
M  V30 2379 C 220.221 0.422045 -5.33032 0
M  V30 2380 C 221.521 -1.72696 -4.92923 0
M  V30 2381 H 223.215 -1.24807 -2.72146 0
M  V30 2382 H 220.761 -0.601585 -1.30832 0
M  V30 2383 H 222.714 0.725447 -4.15109 0
M  V30 2384 H 221.438 1.24174 -3.02074 0
M  V30 2385 H 220.097 -0.81786 -3.57361 0
M  V30 2386 H 219.745 1.29804 -4.85963 0
M  V30 2387 H 219.445 -0.135057 -5.87445 0
M  V30 2388 H 220.969 0.779517 -6.05604 0
M  V30 2389 H 222.383 -1.43495 -5.55051 0
M  V30 2390 H 220.78 -2.22582 -5.57295 0
M  V30 2391 H 221.85 -2.45964 -4.17887 0
M  V30 2392 N 223.193 1.4272 -0.668489 0
M  V30 2393 C 224.156 2.292 0.00448567 0
M  V30 2394 C 225.156 1.43001 0.735339 0
M  V30 2395 O 226.346 1.64461 0.57429 0
M  V30 2396 C 223.478 3.25375 1.01705 0
M  V30 2397 H 224.671 2.90199 -0.756608 0
M  V30 2398 H 222.224 1.50254 -0.430506 0
M  V30 2399 H 222.959 2.69301 1.80686 0
M  V30 2400 H 222.744 3.88944 0.496463 0
M  V30 2401 H 224.234 3.90245 1.48655 0
M  V30 2402 N 224.671 0.411399 1.52136 0
M  V30 2403 C 225.621 -0.430376 2.23901 0
M  V30 2404 C 226.605 -1.0116 1.25121 0
M  V30 2405 O 227.797 -0.934044 1.50348 0
M  V30 2406 C 224.926 -1.54527 3.06556 0
M  V30 2407 C 224.012 -0.9747 4.12747 0
M  V30 2408 N 224.403 -0.130991 5.0563 0
M  V30 2409 C 222.701 -1.24497 4.28271 0
M  V30 2410 C 223.402 0.186689 5.814 0
M  V30 2411 N 222.378 -0.42304 5.41951 0
M  V30 2412 H 226.18 0.220509 2.93072 0
M  V30 2413 H 223.694 0.221952 1.60876 0
M  V30 2414 H 225.691 -2.16093 3.56524 0
M  V30 2415 H 224.351 -2.19875 2.38925 0
M  V30 2416 H 225.362 0.23349 5.17373 0
M  V30 2417 H 222.039 -1.89787 3.7187 0
M  V30 2418 H 223.429 0.871673 6.66222 0
M  V30 2419 N 226.149 -1.5696 0.141893 0
M  V30 2420 C 227.397 -1.95573 -0.509484 0
M  V30 2421 C 227.718 -1.02746 -1.65736 0
M  V30 2422 O 226.988 -0.0880311 -1.95702 0
M  V30 2423 H 225.568 -0.722115 -0.191205 0
M  V30 2424 H 228.23 -1.93697 0.216196 0
M  V30 2425 H 227.326 -2.99171 -0.889 0
M  V30 2426 N 227.627 0.131896 -1.57047 0
M  V30 2427 C 228.873 0.843179 -1.84441 0
M  V30 2428 C 229.206 1.80129 -0.725749 0
M  V30 2429 O 228.481 1.92624 0.269469 0
M  V30 2430 C 228.764 1.60442 -3.22382 0
M  V30 2431 C 228.617 0.666782 -4.4483 0
M  V30 2432 C 229.936 2.56354 -3.5773 0
M  V30 2433 H 227.055 0.305081 -0.670891 0
M  V30 2434 H 229.697 0.107839 -1.89694 0
M  V30 2435 H 227.847 2.23128 -3.18035 0
M  V30 2436 H 229.519 0.0497646 -4.61273 0
M  V30 2437 H 227.762 -0.022609 -4.33794 0
M  V30 2438 H 228.433 1.23579 -5.37989 0
M  V30 2439 H 230.909 2.0378 -3.62785 0
M  V30 2440 H 229.785 3.06657 -4.5525 0
M  V30 2441 H 230.046 3.38419 -2.84473 0
M  V30 2442 N 229.106 1.52395 0.401703 0
M  V30 2443 C 230.522 1.41363 0.740864 0
M  V30 2444 C 230.722 0.523982 1.94568 0
M  V30 2445 O 229.778 -0.00741204 2.52499 0
M  V30 2446 C 231.091 2.84011 0.987847 0
M  V30 2447 C 232.639 2.93404 1.09011 0
M  V30 2448 C 233.114 4.37036 1.3698 0
M  V30 2449 N 234.605 4.40304 1.43829 0
M  V30 2450 C 235.34 5.48508 1.67112 0
M  V30 2451 N 234.836 6.66819 1.87949 0
M  V30 2452 N 236.629 5.36034 1.69187 0
M  V30 2453 H 228.78 2.08765 -0.391262 0
M  V30 2454 H 231.043 0.941265 -0.112798 0
M  V30 2455 H 230.749 3.51265 0.174835 0
M  V30 2456 H 230.623 3.25502 1.906 0
M  V30 2457 H 233.01 2.26325 1.8937 0
M  V30 2458 H 233.091 2.55359 0.15015 0
M  V30 2459 H 232.735 5.04676 0.571353 0
M  V30 2460 H 232.665 4.72623 2.3224 0
M  V30 2461 H 235.156 3.55024 1.29486 0
M  V30 2462 H 235.469 7.45063 2.05185 0
M  V30 2463 H 233.814 6.6987 1.85199 0
M  V30 2464 H 237.005 4.42579 1.52451 0
M  V30 2465 H 237.178 6.20434 1.86993 0
M  V30 2466 N 230.584 -0.659388 1.43143 0
M  V30 2467 C 231.83 -1.42145 1.44647 0
M  V30 2468 C 232.163 -1.9408 0.0681907 0
M  V30 2469 O 231.438 -1.71899 -0.910007 0
M  V30 2470 C 231.721 -2.60735 2.48373 0
M  V30 2471 C 231.574 -2.14332 3.95451 0
M  V30 2472 C 232.893 -3.62951 2.48906 0
M  V30 2473 H 230.012 -0.51552 0.526696 0
M  V30 2474 H 232.654 -0.748069 1.74654 0
M  V30 2475 H 230.804 -3.18184 2.22916 0
M  V30 2476 H 232.476 -1.61932 4.31944 0
M  V30 2477 H 230.719 -1.4576 4.08578 0
M  V30 2478 H 231.39 -2.99583 4.63631 0
M  V30 2479 H 233.866 -3.1525 2.71582 0
M  V30 2480 H 232.742 -4.43487 3.23435 0
M  V30 2481 H 233.003 -4.15126 1.52061 0
M  V30 2482 N 232.062 -1.29571 -0.897171 0
M  V30 2483 C 232.992 -1.17473 -2.01798 0
M  V30 2484 C 233.973 -0.068323 -1.69963 0
M  V30 2485 O 235.158 -0.248239 -1.92607 0
M  V30 2486 C 232.288 -0.853099 -3.36659 0
M  V30 2487 C 231.242 -1.9161 -3.82713 0
M  V30 2488 C 230.568 -1.44773 -5.14728 0
M  V30 2489 C 231.868 -3.32535 -4.02763 0
M  V30 2490 H 233.562 -2.11237 -2.12177 0
M  V30 2491 H 231.108 -1.01699 -1.01948 0
M  V30 2492 H 233.061 -0.755165 -4.14578 0
M  V30 2493 H 231.785 0.120236 -3.26379 0
M  V30 2494 H 230.444 -2.00346 -3.07013 0
M  V30 2495 H 230.092 -0.462995 -5.00865 0
M  V30 2496 H 229.792 -2.15865 -5.46513 0
M  V30 2497 H 231.316 -1.36334 -5.95185 0
M  V30 2498 H 232.73 -3.26626 -4.71156 0
M  V30 2499 H 231.127 -4.01607 -4.45905 0
M  V30 2500 H 232.197 -3.75326 -3.07016 0
M  V30 2501 N 233.54 1.10788 -1.12088 0
M  V30 2502 C 234.45 2.20599 -0.798338 0
M  V30 2503 C 235.466 1.72712 0.21135 0
M  V30 2504 O 236.642 2.01348 0.0458477 0
M  V30 2505 C 233.707 3.45771 -0.253674 0
M  V30 2506 C 232.768 4.08411 -1.32283 0
M  V30 2507 C 232.001 5.27608 -0.80406 0
M  V30 2508 O 232.224 5.69241 0.363478 0
M  V30 2509 O 231.158 5.8101 -1.57198 0
M  V30 2510 H 234.984 2.50614 -1.7154 0
M  V30 2511 H 232.569 1.19454 -0.897275 0
M  V30 2512 H 234.451 4.21376 0.0453691 0
M  V30 2513 H 233.126 3.1739 0.636005 0
M  V30 2514 H 232.033 3.34507 -1.67499 0
M  V30 2515 H 233.366 4.40986 -2.18614 0
M  V30 2516 N 235.018 0.912232 1.28515 0
M  V30 2517 C 236.295 0.463597 1.90027 0
M  V30 2518 C 236.675 -1.05753 1.82701 0
M  V30 2519 O 236.023 -1.90492 1.26194 0
M  V30 2520 C 236.233 0.992253 3.34597 0
M  V30 2521 C 237.581 1.04344 4.11579 0
M  V30 2522 O 238.605 0.94079 3.43551 0
M  V30 2523 O 237.464 1.1995 5.33174 0
M  V30 2524 H 234.558 0.146666 0.813891 0
M  V30 2525 H 237.104 1.00292 1.36893 0
M  V30 2526 H 235.876 2.03623 3.34146 0
M  V30 2527 H 235.499 0.433672 3.95228 0
M  V30 2528 N 236.496 -1.42363 0.676048 0
M  V30 2529 C 237.744 -2.01123 0.198437 0
M  V30 2530 C 238.065 -1.53731 -1.19966 0
M  V30 2531 O 237.335 -0.759518 -1.80577 0
M  V30 2532 H 235.915 -0.743678 0.0703721 0
M  V30 2533 H 238.577 -1.74263 0.872837 0
M  V30 2534 H 237.673 -3.11454 0.200686 0
M  V30 2535 N 237.974 -0.419461 -1.51915 0
M  V30 2536 C 239.22 0.153166 -2.02221 0
M  V30 2537 C 239.553 1.43907 -1.30401 0
M  V30 2538 O 238.828 1.90055 -0.413438 0
M  V30 2539 C 239.111 0.390291 -3.57979 0
M  V30 2540 C 238.964 -0.913014 -4.40436 0
M  V30 2541 C 240.283 1.16794 -4.2432 0
M  V30 2542 H 237.402 0.0541924 -0.735005 0
M  V30 2543 H 240.044 -0.554955 -1.81715 0
M  V30 2544 H 238.194 0.993491 -3.75582 0
M  V30 2545 H 239.866 -1.54882 -4.34522 0
M  V30 2546 H 238.109 -1.52168 -4.06236 0
M  V30 2547 H 238.78 -0.701361 -5.47526 0
M  V30 2548 H 241.256 0.657161 -4.10878 0
M  V30 2549 H 240.132 1.3026 -5.3322 0
M  V30 2550 H 240.393 2.19132 -3.83971 0
M  V30 2551 N 239.452 1.56882 -0.150215 0
M  V30 2552 C 240.4 2.18214 0.805313 0
M  V30 2553 C 241.394 1.14006 1.25296 0
M  V30 2554 O 242.6 1.3225 1.22107 0
M  V30 2555 H 238.975 0.698762 0.277913 0
M  V30 2556 H 240.946 2.97231 0.263862 0
M  V30 2557 C 239.695 2.82065 2.03309 0
M  V30 2558 H 239.018 3.61968 1.69763 0
M  V30 2559 H 240.458 3.28477 2.68103 0
M  V30 2560 C 238.917 1.80739 2.84315 0
M  V30 2561 O 239.447 1.27983 3.80767 0
M  V30 2562 N 237.653 1.4997 2.48913 0
M  V30 2563 H 237.2 1.93062 1.70542 0
M  V30 2564 H 237.158 0.824217 3.03404 0
M  V30 2565 N 240.93 -0.123565 1.57115 0
M  V30 2566 C 242.16 -0.845233 1.88519 0
M  V30 2567 C 242.568 -1.74168 0.739064 0
M  V30 2568 O 241.911 -1.81244 -0.299355 0
M  V30 2569 C 241.973 -1.73452 3.14888 0
M  V30 2570 C 241.637 -1.01285 4.45635 0
M  V30 2571 C 242.634 -0.355774 5.18681 0
M  V30 2572 C 240.319 -0.99538 4.92339 0
M  V30 2573 C 242.313 0.309114 6.3665 0
M  V30 2574 C 240 -0.32669 6.10226 0
M  V30 2575 C 240.998 0.324406 6.82229 0
M  V30 2576 O 240.686 0.982437 7.97874 0
M  V30 2577 H 240.418 -0.248534 0.628655 0
M  V30 2578 H 242.972 -0.113907 2.05084 0
M  V30 2579 H 241.202 -2.50737 2.94394 0
M  V30 2580 H 242.891 -2.33021 3.32349 0
M  V30 2581 H 243.657 -0.360918 4.83655 0
M  V30 2582 H 239.536 -1.49159 4.36202 0
M  V30 2583 H 243.08 0.8179 6.92789 0
M  V30 2584 H 238.977 -0.319294 6.4471 0
M  V30 2585 H 239.745 0.886454 8.13686 0
M  V30 2586 N 242.408 -1.52605 -0.393616 0
M  V30 2587 C 243.371 -1.76415 -1.46323 0
M  V30 2588 C 244.371 -0.634126 -1.47768 0
M  V30 2589 O 245.561 -0.902142 -1.4902 0
M  V30 2590 C 242.693 -1.8607 -2.85641 0
M  V30 2591 H 243.886 -2.71916 -1.26498 0
M  V30 2592 H 241.439 -1.43257 -0.625073 0
M  V30 2593 H 242.174 -0.925378 -3.10817 0
M  V30 2594 H 241.959 -2.68235 -2.85993 0
M  V30 2595 H 243.449 -2.06179 -3.63153 0
M  V30 2596 N 243.887 0.651787 -1.4349 0
M  V30 2597 C 245.115 1.43937 -1.48626 0
M  V30 2598 C 245.53 1.8851 -0.104587 0
M  V30 2599 O 244.887 1.5958 0.885464 0
M  V30 2600 C 244.938 2.6734 -2.43334 0
M  V30 2601 O 244.659 2.24631 -3.76128 0
M  V30 2602 C 246.16 3.60683 -2.57726 0
M  V30 2603 H 243.38 0.44213 -0.504739 0
M  V30 2604 H 245.924 0.798944 -1.88248 0
M  V30 2605 H 244.079 3.2752 -2.06904 0
M  V30 2606 H 244.493 3.04485 -4.2707 0
M  V30 2607 H 245.967 4.43933 -3.28067 0
M  V30 2608 H 246.444 4.08126 -1.62265 0
M  V30 2609 H 247.05 3.06384 -2.94973 0
M  V30 2610 N 245.365 1.30045 0.890287 0
M  V30 2611 C 246.613 1.18327 1.63839 0
M  V30 2612 C 246.934 -0.263455 1.93212 0
M  V30 2613 O 246.204 -1.17856 1.56482 0
M  V30 2614 H 244.784 0.434933 0.607324 0
M  V30 2615 H 247.446 1.631 1.06698 0
M  V30 2616 H 246.542 1.74024 2.59079 0
M  V30 2617 N 246.843 -1.10192 1.12674 0
M  V30 2618 C 247.791 -2.18694 0.792196 0
M  V30 2619 C 248.785 -1.67938 -0.222058 0
M  V30 2620 O 249.991 -1.79822 -0.0800074 0
M  V30 2621 H 246.366 -0.713223 0.238364 0
M  V30 2622 H 248.337 -2.44149 1.71564 0
M  V30 2623 C 247.086 -3.46682 0.265859 0
M  V30 2624 H 246.409 -3.86101 1.03761 0
M  V30 2625 H 247.849 -4.23942 0.0701128 0
M  V30 2626 C 246.308 -3.21506 -1.00675 0
M  V30 2627 O 246.838 -3.43408 -2.08408 0
M  V30 2628 N 245.044 -2.75158 -0.934692 0
M  V30 2629 H 244.591 -2.57535 -0.0578604 0
M  V30 2630 H 244.549 -2.58691 -1.7868 0
M  V30 2631 N 248.321 -0.919034 -1.28029 0
M  V30 2632 C 249.251 -0.428581 -2.29533 0
M  V30 2633 C 250.232 0.50659 -1.62381 0
M  V30 2634 O 251.417 0.413195 -1.89753 0
M  V30 2635 C 248.547 0.327388 -3.45753 0
M  V30 2636 C 247.501 -0.519137 -4.2484 0
M  V30 2637 C 246.827 0.365486 -5.33449 0
M  V30 2638 C 248.127 -1.77914 -4.91064 0
M  V30 2639 H 249.821 -1.27687 -2.70807 0
M  V30 2640 H 247.367 -0.615428 -1.30186 0
M  V30 2641 H 249.32 0.681378 -4.15855 0
M  V30 2642 H 248.044 1.20963 -3.03374 0
M  V30 2643 H 246.703 -0.855717 -3.56473 0
M  V30 2644 H 246.351 1.24642 -4.87312 0
M  V30 2645 H 246.051 -0.197356 -5.87268 0
M  V30 2646 H 247.575 0.715241 -6.06396 0
M  V30 2647 H 248.989 -1.49374 -5.53498 0
M  V30 2648 H 247.386 -2.2848 -5.54903 0
M  V30 2649 H 248.456 -2.50382 -4.15255 0
M  V30 2650 N 249.799 1.42003 -0.683588 0
M  V30 2651 C 251.21 1.84501 -0.285736 0
M  V30 2652 C 251.561 1.57213 1.17382 0
M  V30 2653 O 250.686 1.03642 1.89966 0
M  V30 2654 C 251.281 3.34912 -0.511821 0
M  V30 2655 C 249.84 3.76025 -0.168005 0
M  V30 2656 C 248.987 2.6551 -0.799983 0
M  V30 2657 H 251.938 1.31724 -0.885119 0
M  V30 2658 H 251.959 3.79784 0.233292 0
M  V30 2659 H 251.471 3.54741 -1.57418 0
M  V30 2660 H 249.572 3.61801 0.890567 0
M  V30 2661 H 249.685 4.75141 -0.614661 0
M  V30 2662 H 248.049 2.53654 -0.230568 0
M  V30 2663 H 248.832 2.8816 -1.86597 0
M  V30 2664 N 251.277 0.427512 1.51691 0
M  V30 2665 C 252.525 -0.141948 2.01601 0
M  V30 2666 C 252.846 -1.44067 1.31414 0
M  V30 2667 O 252.116 -1.90763 0.445658 0
M  V30 2668 H 250.696 -0.0554468 0.744939 0
M  V30 2669 H 253.358 0.567968 1.86441 0
M  V30 2670 H 252.454 -0.324913 3.10404 0
M  V30 2671 N 252.755 -1.56801 0.158532 0
M  V30 2672 C 253.995 -1.98383 -0.49229 0
M  V30 2673 C 254.359 -1.04184 -1.61275 0
M  V30 2674 O 255.56 -1.34856 -2.32524 0
M  V30 2675 C 253.831 -3.4385 -0.974766 0
M  V30 2676 S 255.39 -4.07459 -1.62857 0
M  V30 2677 H 252.208 -0.693041 -0.158794 0
M  V30 2678 H 254.81 -1.93856 0.252974 0
M  V30 2679 H 253.514 -4.10131 -0.148688 0
M  V30 2680 H 253.045 -3.52115 -1.75438 0
M  V30 2681 H 255.06 -4.01458 -2.91627 0
M  V30 2682 N 254.233 0.115231 -1.57178 0
M  V30 2683 C 255.458 0.840354 -1.89612 0
M  V30 2684 C 255.883 1.72464 -0.750845 0
M  V30 2685 O 255.241 1.78826 0.298478 0
M  V30 2686 C 255.289 1.64654 -3.20814 0
M  V30 2687 O 254.393 2.7538 -3.06985 0
M  V30 2688 H 253.734 0.232158 -0.622092 0
M  V30 2689 H 256.264 0.0964977 -2.04372 0
M  V30 2690 H 256.274 2.03499 -3.53627 0
M  V30 2691 H 254.949 0.997416 -4.03763 0
M  V30 2692 H 253.526 2.3971 -2.85646 0
M  V30 2693 N 255.711 1.52812 0.385517 0
M  V30 2694 C 256.958 1.68026 1.1302 0
M  V30 2695 C 257.286 0.421934 1.89868 0
M  V30 2696 O 256.541 -0.595749 1.86412 0
M  V30 2697 C 256.84 2.86856 2.13187 0
M  V30 2698 C 256.506 4.24159 1.5297 0
M  V30 2699 C 255.168 4.61501 1.36274 0
M  V30 2700 C 257.52 5.09627 1.09223 0
M  V30 2701 C 254.848 5.81966 0.743837 0
M  V30 2702 C 257.2 6.30719 0.487411 0
M  V30 2703 C 255.864 6.6679 0.307777 0
M  V30 2704 H 255.134 0.614849 0.413571 0
M  V30 2705 H 257.781 1.86962 0.414405 0
M  V30 2706 H 256.086 2.6235 2.90998 0
M  V30 2707 H 257.783 2.95821 2.70722 0
M  V30 2708 H 254.373 3.94746 1.66954 0
M  V30 2709 H 258.557 4.81343 1.20922 0
M  V30 2710 H 253.813 6.08519 0.592891 0
M  V30 2711 H 257.987 6.96259 0.140143 0
M  V30 2712 H 255.614 7.60001 -0.173879 0
M  V30 2713 N 257.189 -0.644168 1.43834 0
M  V30 2714 C 258.414 -1.43642 1.49605 0
M  V30 2715 C 258.839 -1.8773 0.117913 0
M  V30 2716 O 258.197 -1.57938 -0.890239 0
M  V30 2717 C 258.245 -2.6416 2.45463 0
M  V30 2718 O 257.349 -3.63538 1.94714 0
M  V30 2719 H 256.69 -0.430329 0.50568 0
M  V30 2720 H 259.22 -0.787448 1.8884 0
M  V30 2721 H 259.23 -3.11864 2.63068 0
M  V30 2722 H 257.905 -2.31414 3.45572 0
M  V30 2723 H 256.482 -3.2273 1.86814 0
M  V30 2724 N 258.668 -1.30515 -0.883378 0
M  V30 2725 C 259.917 -1.18795 -1.63005 0
M  V30 2726 C 260.23 0.255923 -1.93919 0
M  V30 2727 O 261.436 0.494654 -2.66956 0
M  V30 2728 C 259.892 -2.07878 -2.93794 0
M  V30 2729 C 259.5 -3.57184 -2.70414 0
M  V30 2730 C 261.244 -2.04924 -3.71761 0
M  V30 2731 C 259.151 -4.38317 -3.97029 0
M  V30 2732 H 258.081 -0.441031 -0.611562 0
M  V30 2733 H 260.732 -1.55275 -0.977854 0
M  V30 2734 H 259.114 -1.64283 -3.60315 0
M  V30 2735 H 260.288 -4.08937 -2.12384 0
M  V30 2736 H 258.603 -3.61976 -2.0582 0
M  V30 2737 H 261.2 -2.62792 -4.65665 0
M  V30 2738 H 261.543 -1.0331 -4.03277 0
M  V30 2739 H 262.076 -2.46649 -3.12104 0
M  V30 2740 H 258.815 -5.40632 -3.70671 0
M  V30 2741 H 258.335 -3.91326 -4.54559 0
M  V30 2742 H 260.014 -4.49834 -4.65036 0
M  V30 2743 N 260.146 1.09593 -1.13257 0
M  V30 2744 C 261.393 1.81734 -0.893257 0
M  V30 2745 C 261.721 1.8563 0.580656 0
M  V30 2746 O 260.976 1.31906 1.44566 0
M  V30 2747 C 261.275 3.27802 -1.42411 0
M  V30 2748 C 260.941 3.44041 -2.91456 0
M  V30 2749 C 259.603 3.48181 -3.3215 0
M  V30 2750 C 261.955 3.48719 -3.87356 0
M  V30 2751 C 259.283 3.54575 -4.67433 0
M  V30 2752 C 261.635 3.56648 -5.2248 0
M  V30 2753 C 260.299 3.59055 -5.62704 0
M  V30 2754 H 259.569 0.665011 -0.326866 0
M  V30 2755 H 262.216 1.2912 -1.41422 0
M  V30 2756 H 260.521 3.83042 -0.823795 0
M  V30 2757 H 262.218 3.82149 -1.21503 0
M  V30 2758 H 258.808 3.41502 -2.58987 0
M  V30 2759 H 262.992 3.44763 -3.57004 0
M  V30 2760 H 258.248 3.54725 -4.97976 0
M  V30 2761 H 262.422 3.59212 -5.96607 0
M  V30 2762 H 260.049 3.63763 -6.67518 0
M  V30 2763 N 261.624 0.925811 1.2754 0
M  V30 2764 C 262.554 0.440748 2.29303 0
M  V30 2765 C 263.535 -0.497971 1.62648 0
M  V30 2766 O 264.72 -0.403126 1.8997 0
M  V30 2767 C 261.85 -0.309048 3.45922 0
M  V30 2768 C 260.804 0.54166 4.24559 0
M  V30 2769 C 260.13 -0.337191 5.33636 0
M  V30 2770 C 261.43 1.80516 4.90114 0
M  V30 2771 H 263.124 1.29121 2.70126 0
M  V30 2772 H 260.67 0.622323 1.29858 0
M  V30 2773 H 262.623 -0.659315 4.1621 0
M  V30 2774 H 261.347 -1.19352 3.04011 0
M  V30 2775 H 260.006 0.874609 3.56014 0
M  V30 2776 H 259.654 -1.22056 4.87966 0
M  V30 2777 H 259.354 0.228497 5.87156 0
M  V30 2778 H 260.878 -0.683072 6.06767 0
M  V30 2779 H 262.292 1.52307 5.52698 0
M  V30 2780 H 260.689 2.3142 5.53683 0
M  V30 2781 H 261.759 2.52581 4.13921 0
M  V30 2782 N 263.102 -1.41638 0.69111 0
M  V30 2783 C 264.032 -2.3347 0.037248 0
M  V30 2784 C 265.013 -1.51575 -0.771947 0
M  V30 2785 O 266.198 -1.80126 -0.72582 0
M  V30 2786 C 263.328 -3.35354 -0.903064 0
M  V30 2787 C 262.282 -4.27526 -0.201288 0
M  V30 2788 C 261.608 -5.19747 -1.25565 0
M  V30 2789 C 262.908 -5.13959 0.929689 0
M  V30 2790 H 264.602 -2.88397 0.804227 0
M  V30 2791 H 262.148 -1.38669 0.388189 0
M  V30 2792 H 264.101 -3.98519 -1.36969 0
M  V30 2793 H 262.825 -2.78767 -1.70166 0
M  V30 2794 H 261.484 -3.65779 0.245265 0
M  V30 2795 H 261.132 -4.59479 -2.04666 0
M  V30 2796 H 260.832 -5.8225 -0.791128 0
M  V30 2797 H 262.356 -5.85789 -1.72288 0
M  V30 2798 H 263.77 -5.70718 0.543546 0
M  V30 2799 H 262.167 -5.85379 1.32103 0
M  V30 2800 H 263.237 -4.51389 1.77133 0
M  V30 2801 N 264.58 -0.43555 -1.51462 0
M  V30 2802 C 265.543 0.365137 -2.26273 0
M  V30 2803 C 266.543 0.951227 -1.29647 0
M  V30 2804 O 267.733 0.825958 -1.53374 0
M  V30 2805 C 264.865 1.51645 -3.05314 0
M  V30 2806 H 266.058 -0.290474 -2.9849 0
M  V30 2807 H 263.611 -0.188676 -1.55157 0
M  V30 2808 H 264.346 2.20816 -2.3751 0
M  V30 2809 H 264.131 1.10238 -3.76284 0
M  V30 2810 H 265.621 2.08218 -3.61987 0
M  V30 2811 N 266.058 1.56714 -0.166846 0
M  V30 2812 C 266.988 2.20754 0.760913 0
M  V30 2813 C 267.969 1.16178 1.24244 0
M  V30 2814 O 269.154 1.44592 1.29641 0
M  V30 2815 C 266.284 2.84478 1.99223 0
M  V30 2816 C 265.238 3.95053 1.64672 0
M  V30 2817 C 264.564 4.45805 2.95232 0
M  V30 2818 C 265.864 5.14865 0.878155 0
M  V30 2819 H 267.558 2.98537 0.22713 0
M  V30 2820 H 265.104 1.43596 0.107805 0
M  V30 2821 H 267.057 3.27951 2.64624 0
M  V30 2822 H 265.781 2.04056 2.55007 0
M  V30 2823 H 264.44 3.52228 1.01641 0
M  V30 2824 H 264.088 3.62181 3.49047 0
M  V30 2825 H 263.788 5.204 2.7287 0
M  V30 2826 H 265.312 4.91962 3.6167 0
M  V30 2827 H 266.726 5.55059 1.43466 0
M  V30 2828 H 265.123 5.95348 0.753738 0
M  V30 2829 H 266.193 4.84735 -0.126377 0
M  V30 2830 N 267.536 -0.106894 1.57237 0
M  V30 2831 C 268.466 -1.13148 2.04254 0
M  V30 2832 C 269.447 -1.42476 0.929224 0
M  V30 2833 O 270.632 -1.52709 1.19973 0
M  V30 2834 C 267.762 -2.4545 2.45706 0
M  V30 2835 C 266.716 -2.30558 3.60592 0
M  V30 2836 C 266.042 -3.67931 3.87983 0
M  V30 2837 C 267.342 -1.75597 4.91897 0
M  V30 2838 H 269.036 -0.740374 2.90101 0
M  V30 2839 H 266.582 -0.354696 1.39563 0
M  V30 2840 H 268.535 -3.17389 2.77205 0
M  V30 2841 H 267.259 -2.86475 1.56843 0
M  V30 2842 H 265.918 -1.61067 3.29322 0
M  V30 2843 H 265.566 -4.06462 2.96306 0
M  V30 2844 H 265.266 -3.58817 4.65322 0
M  V30 2845 H 266.79 -4.41356 4.21945 0
M  V30 2846 H 268.204 -2.37364 5.21854 0
M  V30 2847 H 266.601 -1.77272 5.73319 0
M  V30 2848 H 267.671 -0.714451 4.79608 0
M  V30 2849 N 269.014 -1.53014 -0.377408 0
M  V30 2850 C 270.239 -1.72818 -1.14668 0
M  V30 2851 C 270.664 -0.450725 -1.8262 0
M  V30 2852 O 270.022 0.59439 -1.7128 0
M  V30 2853 C 270.07 -2.88627 -2.16164 0
M  V30 2854 O 269.174 -2.56409 -3.22998 0
M  V30 2855 H 268.515 -0.574301 -0.333278 0
M  V30 2856 H 271.045 -1.99853 -0.438152 0
M  V30 2857 H 271.055 -3.14455 -2.59966 0
M  V30 2858 H 269.73 -3.81294 -1.66095 0
M  V30 2859 H 268.307 -2.4136 -2.84253 0
M  V30 2860 N 270.492 0.636531 -1.44174 0
M  V30 2861 C 271.732 1.40781 -1.48189 0
M  V30 2862 C 272.096 1.91688 -0.10944 0
M  V30 2863 O 273.297 2.68789 -0.0242741 0
M  V30 2864 C 271.568 2.54575 -2.50851 0
M  V30 2865 S 273.127 3.4284 -2.73873 0
M  V30 2866 H 269.945 0.480345 -0.524204 0
M  V30 2867 H 272.547 0.737416 -1.81059 0
M  V30 2868 H 271.251 2.15478 -3.49281 0
M  V30 2869 H 270.782 3.26447 -2.19536 0
M  V30 2870 H 272.797 4.51846 -2.05059 0
M  V30 2871 N 271.97 1.30982 0.876444 0
M  V30 2872 C 272.9 1.20668 1.99903 0
M  V30 2873 C 273.881 0.095354 1.69833 0
M  V30 2874 O 275.066 0.27885 1.92188 0
M  V30 2875 C 272.196 0.90655 3.3526 0
M  V30 2876 C 271.15 1.97675 3.79617 0
M  V30 2877 C 270.476 1.52943 5.1236 0
M  V30 2878 C 271.776 3.389 3.97422 0
M  V30 2879 H 273.47 2.14586 2.0879 0
M  V30 2880 H 271.016 1.03308 1.00317 0
M  V30 2881 H 272.969 0.821025 4.13324 0
M  V30 2882 H 271.693 -0.0682969 3.26529 0
M  V30 2883 H 270.352 2.05205 3.03787 0
M  V30 2884 H 270 0.54262 5.00065 0
M  V30 2885 H 269.7 2.24532 5.43009 0
M  V30 2886 H 271.224 1.45786 5.92941 0
M  V30 2887 H 272.638 3.34081 4.659 0
M  V30 2888 H 271.035 4.0865 4.3946 0
M  V30 2889 H 272.105 3.80163 3.01006 0
M  V30 2890 N 273.449 -1.08991 1.13837 0
M  V30 2891 C 274.677 -1.85011 0.926202 0
M  V30 2892 C 275.092 -1.8135 -0.525127 0
M  V30 2893 O 274.449 -1.21287 -1.36366 0
M  V30 2894 C 274.5 -3.32802 1.41155 0
M  V30 2895 O 274.221 -3.36444 2.80601 0
M  V30 2896 C 275.722 -4.25649 1.23847 0
M  V30 2897 H 272.942 -0.584249 0.32999 0
M  V30 2898 H 275.486 -1.37688 1.51202 0
M  V30 2899 H 273.641 -3.77536 0.868631 0
M  V30 2900 H 274.055 -4.28657 3.02248 0
M  V30 2901 H 275.529 -5.27485 1.62675 0
M  V30 2902 H 276.006 -4.38828 0.18065 0
M  V30 2903 H 276.612 -3.86735 1.76964 0
M  V30 2904 N 274.927 -0.932562 -1.27047 0
M  V30 2905 C 276.176 -0.571351 -1.93439 0
M  V30 2906 C 276.489 0.892467 -1.74053 0
M  V30 2907 O 277.695 1.36267 -2.34826 0
M  V30 2908 C 276.151 -0.97106 -3.46552 0
M  V30 2909 C 275.759 -2.4559 -3.74686 0
M  V30 2910 C 277.503 -0.681333 -4.18997 0
M  V30 2911 C 275.41 -2.79475 -5.21198 0
M  V30 2912 H 274.34 -0.209966 -0.724176 0
M  V30 2913 H 276.991 -1.13403 -1.44263 0
M  V30 2914 H 275.373 -0.336983 -3.94564 0
M  V30 2915 H 276.547 -3.13829 -3.37414 0
M  V30 2916 H 274.862 -2.71802 -3.15456 0
M  V30 2917 H 277.459 -0.910939 -5.26883 0
M  V30 2918 H 277.802 0.381628 -4.14547 0
M  V30 2919 H 278.335 -1.27473 -3.76823 0
M  V30 2920 H 275.074 -3.847 -5.30741 0
M  V30 2921 H 274.594 -2.1589 -5.596 0
M  V30 2922 H 276.273 -2.67478 -5.89122 0
M  V30 2923 N 276.405 1.4127 -0.698611 0
M  V30 2924 C 277.816 1.84187 -0.305289 0
M  V30 2925 C 278.167 1.58449 1.15708 0
M  V30 2926 O 277.292 1.05651 1.88856 0
M  V30 2927 C 277.887 3.3435 -0.547314 0
M  V30 2928 C 276.446 3.75826 -0.207878 0
M  V30 2929 C 275.593 2.64647 -0.828099 0
M  V30 2930 H 278.544 1.30778 -0.89904 0
M  V30 2931 H 278.565 3.8001 0.192998 0
M  V30 2932 H 278.077 3.53051 -1.61172 0
M  V30 2933 H 276.178 3.62725 0.852143 0
M  V30 2934 H 276.291 4.74462 -0.665021 0
M  V30 2935 H 274.655 2.53395 -0.257458 0
M  V30 2936 H 275.438 2.86165 -1.89643 0
M  V30 2937 N 277.883 0.443576 1.51229 0
M  V30 2938 C 278.846 -0.353132 2.26463 0
M  V30 2939 C 279.846 -0.944338 1.3015 0
M  V30 2940 O 281.036 -0.817813 1.5381 0
M  V30 2941 C 278.168 -1.50023 3.06114 0
M  V30 2942 H 279.361 0.3063 2.98332 0
M  V30 2943 H 276.914 0.196902 1.55055 0
M  V30 2944 H 277.649 -2.19553 2.38677 0
M  V30 2945 H 277.434 -1.08241 3.76864 0
M  V30 2946 H 278.924 -2.06296 3.63087 0
M  V30 2947 N 279.361 -1.56624 0.175154 0
M  V30 2948 C 280.586 -2.01813 -0.478137 0
M  V30 2949 C 281.011 -1.05457 -1.55757 0
M  V30 2950 O 280.369 -0.0347439 -1.81267 0
M  V30 2951 C 280.417 -3.45581 -1.02987 0
M  V30 2952 O 279.521 -3.52305 -2.14371 0
M  V30 2953 H 278.862 -0.65413 -0.114059 0
M  V30 2954 H 281.392 -2.02673 0.280173 0
M  V30 2955 H 281.402 -3.84965 -1.35151 0
M  V30 2956 H 280.077 -4.1521 -0.239556 0
M  V30 2957 H 278.654 -3.24783 -1.83222 0
M  V30 2958 N 280.839 0.0985539 -1.57292 0
M  V30 2959 C 281.802 1.10402 -2.00858 0
M  V30 2960 C 282.802 1.33146 -0.901593 0
M  V30 2961 O 283.992 1.29318 -1.16716 0
M  V30 2962 C 281.124 2.45394 -2.36632 0
M  V30 2963 H 282.317 0.729099 -2.90902 0
M  V30 2964 H 279.87 0.343495 -1.52479 0
M  V30 2965 H 280.605 2.87769 -1.49531 0
M  V30 2966 H 280.39 2.30235 -3.17387 0
M  V30 2967 H 281.88 3.17718 -2.71007 0
M  V30 2968 N 282.317 1.53212 0.369288 0
M  V30 2969 C 283.547 1.72868 1.13139 0
M  V30 2970 C 283.955 0.455754 1.83629 0
M  V30 2971 O 283.298 -0.580861 1.74275 0
M  V30 2972 C 283.36 2.83667 2.20847 0
M  V30 2973 C 283.024 4.24142 1.70155 0
M  V30 2974 C 284.021 5.06619 1.16763 0
M  V30 2975 C 281.706 4.70539 1.7578 0
M  V30 2976 C 283.7 6.33581 0.696678 0
M  V30 2977 C 281.387 5.97481 1.28297 0
M  V30 2978 C 282.385 6.78833 0.753307 0
M  V30 2979 O 282.073 8.03393 0.285475 0
M  V30 2980 H 281.805 0.581707 0.344373 0
M  V30 2981 H 284.359 2.00736 0.435243 0
M  V30 2982 H 282.589 2.51265 2.93944 0
M  V30 2983 H 284.278 2.91536 2.82421 0
M  V30 2984 H 285.044 4.71948 1.11758 0
M  V30 2985 H 280.923 4.07293 2.15949 0
M  V30 2986 H 284.467 6.97027 0.282581 0
M  V30 2987 H 280.364 6.31651 1.32994 0
M  V30 2988 H 281.132 8.17497 0.405145 0
M  V30 2989 N 283.795 -0.628877 1.44509 0
M  V30 2990 C 284.705 -1.7694 1.54044 0
M  V30 2991 C 285.721 -1.68705 0.425987 0
M  V30 2992 O 286.897 -1.89442 0.683656 0
M  V30 2993 C 283.962 -3.13332 1.48405 0
M  V30 2994 C 283.023 -3.33181 2.70719 0
M  V30 2995 C 282.256 -4.63067 2.6534 0
M  V30 2996 O 282.479 -5.44017 1.71469 0
M  V30 2997 O 281.413 -4.85167 3.56226 0
M  V30 2998 H 285.239 -1.71848 2.50403 0
M  V30 2999 H 282.824 -0.790378 1.26781 0
M  V30 3000 H 284.706 -3.94634 1.47791 0
M  V30 3001 H 283.381 -3.1896 0.551898 0
M  V30 3002 H 282.288 -2.51549 2.769 0
M  V30 3003 H 283.621 -3.32416 3.62988 0
M  V30 3004 N 285.273 -1.31445 -0.869486 0
M  V30 3005 C 286.519 -1.21337 -1.62496 0
M  V30 3006 C 286.852 0.227872 -1.92858 0
M  V30 3007 O 286.127 1.16094 -1.56053 0
M  V30 3008 C 286.41 -2.05814 -2.95487 0
M  V30 3009 C 286.263 -3.5824 -2.72 0
M  V30 3010 C 287.582 -1.9079 -3.96594 0
M  V30 3011 H 284.701 -0.442135 -0.589649 0
M  V30 3012 H 287.343 -1.6124 -1.00507 0
M  V30 3013 H 285.493 -1.71913 -3.48394 0
M  V30 3014 H 287.165 -4.0228 -2.25762 0
M  V30 3015 H 285.408 -3.81647 -2.06224 0
M  V30 3016 H 286.079 -4.12657 -3.66631 0
M  V30 3017 H 288.555 -2.20459 -3.52898 0
M  V30 3018 H 287.431 -2.52199 -4.87531 0
M  V30 3019 H 287.692 -0.871341 -4.33428 0
M  V30 3020 N 286.751 1.08385 -1.14413 0
M  V30 3021 C 288.167 1.32844 -0.884563 0
M  V30 3022 C 288.367 1.95841 0.474181 0
M  V30 3023 O 287.423 2.21158 1.21842 0
M  V30 3024 C 288.736 2.22978 -2.01745 0
M  V30 3025 C 290.284 2.36458 -2.05077 0
M  V30 3026 C 290.759 3.29934 -3.1766 0
M  V30 3027 N 292.25 3.37511 -3.17239 0
M  V30 3028 C 292.985 4.09871 -4.0099 0
M  V30 3029 N 292.481 4.84936 -4.94781 0
M  V30 3030 N 294.274 4.05704 -3.89051 0
M  V30 3031 H 286.425 0.658756 -2.01926 0
M  V30 3032 H 288.688 0.352821 -0.879899 0
M  V30 3033 H 288.394 1.83934 -2.99769 0
M  V30 3034 H 288.268 3.23441 -1.94077 0
M  V30 3035 H 290.655 2.7476 -1.0766 0
M  V30 3036 H 290.736 1.35736 -2.16816 0
M  V30 3037 H 290.38 2.92352 -4.15322 0
M  V30 3038 H 290.31 4.30584 -3.03158 0
M  V30 3039 H 292.801 2.83996 -2.49308 0
M  V30 3040 H 293.114 5.37612 -5.55151 0
M  V30 3041 H 291.459 4.83988 -4.98779 0
M  V30 3042 H 294.65 3.46167 -3.15097 0
M  V30 3043 H 294.823 4.61834 -4.54547 0
M  V30 3044 N 288.23 0.939286 1.26551 0
M  V30 3045 C 289.178 0.43815 2.28436 0
M  V30 3046 C 290.172 -0.483587 1.62351 0
M  V30 3047 O 291.378 -0.362009 1.76322 0
M  V30 3048 H 287.753 0.123149 0.741848 0
M  V30 3049 H 289.724 1.31002 2.68106 0
M  V30 3050 C 288.473 -0.283052 3.46546 0
M  V30 3051 H 287.796 0.417043 3.97619 0
M  V30 3052 H 289.236 -0.597948 4.19763 0
M  V30 3053 C 287.695 -1.50018 3.01656 0
M  V30 3054 O 288.225 -2.59855 3.0633 0
M  V30 3055 N 286.431 -1.35608 2.57019 0
M  V30 3056 H 285.978 -0.46244 2.53415 0
M  V30 3057 H 285.936 -2.17165 2.27347 0
M  V30 3058 N 289.708 -1.40897 0.706093 0
M  V30 3059 C 290.954 -2.01352 0.241889 0
M  V30 3060 C 291.287 -1.55832 -1.15888 0
M  V30 3061 O 290.562 -0.774145 -1.7843 0
M  V30 3062 C 290.845 -3.58752 0.311311 0
M  V30 3063 C 290.698 -4.1437 1.74978 0
M  V30 3064 C 292.017 -4.38914 -0.322922 0
M  V30 3065 H 289.136 -0.731562 0.0893687 0
M  V30 3066 H 291.778 -1.67504 0.896802 0
M  V30 3067 H 289.928 -3.87718 -0.246302 0
M  V30 3068 H 291.6 -3.96239 2.36205 0
M  V30 3069 H 289.843 -3.69016 2.28057 0
M  V30 3070 H 290.514 -5.23532 1.74981 0
M  V30 3071 H 292.99 -4.15822 0.152089 0
M  V30 3072 H 291.866 -5.48358 -0.243855 0
M  V30 3073 H 292.127 -4.19176 -1.40513 0
M  V30 3074 N 291.186 -0.45159 -1.50991 0
M  V30 3075 C 292.411 0.110667 -2.07105 0
M  V30 3076 C 292.836 1.3446 -1.31538 0
M  V30 3077 O 292.194 1.77743 -0.357365 0
M  V30 3078 C 292.242 0.397238 -3.58405 0
M  V30 3079 O 291.346 1.48124 -3.84881 0
M  V30 3080 H 290.687 -0.00439271 -0.663985 0
M  V30 3081 H 293.217 -0.637026 -1.9443 0
M  V30 3082 H 293.227 0.64351 -4.02893 0
M  V30 3083 H 291.902 -0.504553 -4.12828 0
M  V30 3084 H 290.479 1.22381 -3.52246 0
M  V30 3085 N 292.664 1.56529 -0.183458 0
M  V30 3086 C 293.912 1.96855 0.457452 0
M  V30 3087 C 294.233 1.07104 1.62953 0
M  V30 3088 O 293.503 0.139887 1.954 0
M  V30 3089 H 292.083 0.72693 0.171992 0
M  V30 3090 H 294.745 1.93056 -0.267476 0
M  V30 3091 H 293.841 3.01423 0.809368 0
M  V30 3092 N 294.142 -0.090211 1.57342 0
M  V30 3093 C 295.391 -0.791531 1.8552 0
M  V30 3094 C 295.704 -1.79659 0.773441 0
M  V30 3095 O 296.91 -2.54616 0.942497 0
M  V30 3096 C 295.366 -1.45856 3.2902 0
M  V30 3097 C 294.974 -0.493017 4.45279 0
M  V30 3098 C 296.718 -2.14332 3.66418 0
M  V30 3099 C 294.625 -1.16491 5.79814 0
M  V30 3100 H 293.555 -0.299356 0.692027 0
M  V30 3101 H 296.206 -0.0445343 1.83446 0
M  V30 3102 H 294.588 -2.25318 3.2565 0
M  V30 3103 H 295.762 0.270464 4.60006 0
M  V30 3104 H 294.077 0.0863061 4.16311 0
M  V30 3105 H 296.674 -2.65344 4.64216 0
M  V30 3106 H 297.017 -2.93447 2.95287 0
M  V30 3107 H 297.55 -1.41724 3.71698 0
M  V30 3108 H 294.289 -0.41447 6.54188 0
M  V30 3109 H 293.809 -1.8997 5.68921 0
M  V30 3110 H 295.488 -1.69001 6.24538 0
M  V30 3111 N 295.62 -1.53406 -0.361157 0
M  V30 3112 C 296.85 -1.73465 -1.1222 0
M  V30 3113 C 297.258 -0.465486 -1.83384 0
M  V30 3114 O 296.601 0.571611 -1.7458 0
M  V30 3115 C 296.663 -2.84834 -2.19339 0
M  V30 3116 C 296.327 -4.25038 -1.67903 0
M  V30 3117 C 297.324 -5.07231 -1.14074 0
M  V30 3118 C 295.009 -4.71464 -1.73282 0
M  V30 3119 C 297.003 -6.33942 -0.663068 0
M  V30 3120 C 294.69 -5.98153 -1.25127 0
M  V30 3121 C 295.688 -6.79223 -0.717296 0
M  V30 3122 O 295.376 -8.03533 -0.242865 0
M  V30 3123 H 295.108 -0.583526 -0.341283 0
M  V30 3124 H 297.662 -2.00964 -0.424591 0
M  V30 3125 H 295.892 -2.5282 -2.92607 0
M  V30 3126 H 297.581 -2.9303 -2.80871 0
M  V30 3127 H 298.347 -4.72534 -1.09254 0
M  V30 3128 H 294.226 -4.08432 -2.13786 0
M  V30 3129 H 297.77 -6.97167 -0.245612 0
M  V30 3130 H 293.667 -6.32347 -1.29642 0
M  V30 3131 H 294.435 -8.177 -0.361786 0
M  V30 3132 N 297.098 0.621204 -1.44841 0
M  V30 3133 C 298.048 1.72663 -1.48901 0
M  V30 3134 C 299.032 1.56964 -0.353702 0
M  V30 3135 O 300.224 1.66532 -0.599669 0
M  V30 3136 C 297.353 3.11381 -1.44557 0
M  V30 3137 C 296.439 3.32514 -2.6324 0
M  V30 3138 N 296.83 3.23969 -3.8843 0
M  V30 3139 C 295.128 3.63343 -2.58647 0
M  V30 3140 C 295.829 3.46062 -4.67564 0
M  V30 3141 N 294.805 3.69407 -3.98797 0
M  V30 3142 H 298.607 1.64529 -2.43531 0
M  V30 3143 H 296.121 0.82401 -1.39942 0
M  V30 3144 H 298.118 3.90667 -1.4555 0
M  V30 3145 H 296.778 3.20674 -0.509731 0
M  V30 3146 H 297.789 3.02669 -4.20252 0
M  V30 3147 H 294.466 3.79556 -1.73906 0
M  V30 3148 H 295.856 3.44963 -5.76585 0
M  V30 3149 N 298.576 1.31904 0.862503 0
M  V30 3150 C 299.822 1.22197 1.61851 0
M  V30 3151 C 300.155 -0.217641 1.92977 0
M  V30 3152 O 299.43 -1.15264 1.56666 0
M  V30 3153 C 299.713 2.07378 2.94391 0
M  V30 3154 C 299.566 3.59678 2.70096 0
M  V30 3155 C 300.885 1.92891 3.95577 0
M  V30 3156 H 298.004 0.445255 0.587296 0
M  V30 3157 H 300.646 1.6177 0.99651 0
M  V30 3158 H 298.796 1.73758 3.47477 0
M  V30 3159 H 300.468 4.03472 2.23625 0
M  V30 3160 H 298.711 3.82735 2.04197 0
M  V30 3161 H 299.382 4.14595 3.64438 0
M  V30 3162 H 301.858 2.22327 3.51724 0
M  V30 3163 H 300.734 2.54781 4.86187 0
M  V30 3164 H 300.995 0.894315 4.3296 0
M  V30 3165 N 300.054 -1.07777 1.14986 0
M  V30 3166 C 301.282 -1.84018 0.945773 0
M  V30 3167 C 301.697 -1.81897 -0.505863 0
M  V30 3168 O 301.054 -1.22726 -1.35072 0
M  V30 3169 C 301.105 -3.31287 1.44677 0
M  V30 3170 O 300.826 -3.33449 2.84154 0
M  V30 3171 C 302.327 -4.24311 1.28355 0
M  V30 3172 H 299.547 -0.580716 0.336169 0
M  V30 3173 H 302.091 -1.36077 1.52654 0
M  V30 3174 H 300.246 -3.76594 0.908625 0
M  V30 3175 H 300.66 -4.25427 3.06777 0
M  V30 3176 H 302.134 -5.2573 1.68261 0
M  V30 3177 H 302.611 -4.38612 0.227184 0
M  V30 3178 H 303.217 -3.84836 1.81056 0
M  V30 3179 N 301.532 -0.945985 -1.26051 0
M  V30 3180 C 302.48 -0.450259 -2.282 0
M  V30 3181 C 303.474 0.47497 -1.62605 0
M  V30 3182 O 304.68 0.352653 -1.76512 0
M  V30 3183 H 301.055 -0.127081 -0.741184 0
M  V30 3184 H 303.026 -1.32422 -2.67408 0
M  V30 3185 C 301.775 0.26467 -3.46691 0
M  V30 3186 H 301.098 -0.438123 -3.97392 0
M  V30 3187 H 302.538 0.575678 -4.20074 0
M  V30 3188 C 300.997 1.48416 -3.02447 0
M  V30 3189 O 301.527 2.58227 -3.07704 0
M  V30 3190 N 299.733 1.34243 -2.57735 0
M  V30 3191 H 299.28 0.448994 -2.53657 0
M  V30 3192 H 299.238 2.15957 -2.28495 0
M  V30 3193 N 303.011 1.40521 -0.713556 0
M  V30 3194 C 304.288 1.94775 -0.17943 0
M  V30 3195 C 304.668 1.65184 1.31444 0
M  V30 3196 O 304.016 0.968429 2.06963 0
M  V30 3197 C 304.226 3.45543 -0.489986 0
M  V30 3198 C 305.574 4.22442 -0.427536 0
M  V30 3199 O 306.598 3.53644 -0.425929 0
M  V30 3200 O 305.457 5.4501 -0.403292 0
M  V30 3201 H 302.551 0.826606 -0.0255192 0
M  V30 3202 H 305.097 1.5014 -0.790949 0
M  V30 3203 H 303.869 3.60432 -1.5233 0
M  V30 3204 H 303.492 3.97311 0.151598 0
M  V30 3205 N 304.489 0.459591 1.5075 0
M  V30 3206 C 305.729 -0.09824 2.04164 0
M  V30 3207 C 306.093 -1.3801 1.33481 0
M  V30 3208 O 307.294 -2.01959 1.77387 0
M  V30 3209 C 305.565 -0.289467 3.56226 0
M  V30 3210 S 307.124 -0.807507 4.31306 0
M  V30 3211 H 303.942 -0.0213845 0.710678 0
M  V30 3212 H 306.544 0.624098 1.85271 0
M  V30 3213 H 305.248 0.649461 4.05229 0
M  V30 3214 H 304.779 -1.03825 3.79452 0
M  V30 3215 H 306.794 -2.0824 4.50389 0
M  V30 3216 N 305.967 -1.56429 0.191757 0
M  V30 3217 C 307.192 -2.02309 -0.456706 0
M  V30 3218 C 307.617 -1.07103 -1.5463 0
M  V30 3219 O 306.975 -0.0539677 -1.8122 0
M  V30 3220 C 307.023 -3.46654 -0.993159 0
M  V30 3221 O 306.127 -3.54559 -2.10622 0
M  V30 3222 H 305.468 -0.655303 -0.107114 0
M  V30 3223 H 307.998 -2.02364 0.301653 0
M  V30 3224 H 308.008 -3.86377 -1.31061 0
M  V30 3225 H 306.683 -4.1544 -0.195504 0
M  V30 3226 H 305.26 -3.26708 -1.79767 0
M  V30 3227 N 307.445 0.0818655 -1.57387 0
M  V30 3228 C 308.393 1.11712 -2.04018 0
M  V30 3229 C 309.387 1.40683 -0.94364 0
M  V30 3230 O 310.593 1.40209 -1.12878 0
M  V30 3231 H 306.968 0.377542 -0.650358 0
M  V30 3232 H 308.939 0.697614 -2.90131 0
M  V30 3233 C 307.688 2.42537 -2.49141 0
M  V30 3234 H 307.011 2.21092 -3.33104 0
M  V30 3235 H 308.451 3.13446 -2.85531 0
M  V30 3236 C 306.91 3.0778 -1.37014 0
M  V30 3237 O 307.44 3.95436 -0.706621 0
M  V30 3238 N 305.646 2.68242 -1.11779 0
M  V30 3239 H 305.193 1.97052 -1.65917 0
M  V30 3240 H 305.151 3.1222 -0.369594 0
M  V30 3241 N 308.923 1.53595 0.353017 0
M  V30 3242 C 310.148 1.7462 1.11904 0
M  V30 3243 C 310.573 0.479721 1.8188 0
M  V30 3244 O 309.931 -0.567066 1.72204 0
M  V30 3245 C 309.979 2.92029 2.11545 0
M  V30 3246 O 309.083 2.61516 3.18878 0
M  V30 3247 H 308.424 0.579531 0.324099 0
M  V30 3248 H 310.954 2.00525 0.406301 0
M  V30 3249 H 310.964 3.18551 2.5493 0
M  V30 3250 H 309.639 3.83888 1.60008 0
M  V30 3251 H 308.216 2.45852 2.80377 0
M  V30 3252 N 310.401 -0.613514 1.45168 0
M  V30 3253 C 311.626 -1.40437 1.52618 0
M  V30 3254 C 312.051 -1.87438 0.157707 0
M  V30 3255 O 311.409 -1.59791 -0.856537 0
M  V30 3256 C 311.457 -2.58894 2.51011 0
M  V30 3257 O 310.561 -3.59326 2.02382 0
M  V30 3258 H 309.902 -0.419506 0.514695 0
M  V30 3259 H 312.432 -0.747215 1.90467 0
M  V30 3260 H 312.442 -3.06214 2.69624 0
M  V30 3261 H 311.117 -2.24032 3.50403 0
M  V30 3262 H 309.694 -3.18695 1.93618 0
M  V30 3263 N 311.879 -1.3236 -0.855495 0
M  V30 3264 C 313.128 -1.22226 -1.60448 0
M  V30 3265 C 313.441 0.214733 -1.94418 0
M  V30 3266 O 314.647 0.437917 -2.67945 0
M  V30 3267 C 313.103 -2.14063 -2.89318 0
M  V30 3268 C 312.711 -3.62839 -2.62777 0
M  V30 3269 C 314.455 -2.12764 -3.67331 0
M  V30 3270 C 312.362 -4.4664 -3.87643 0
M  V30 3271 H 311.292 -0.453904 -0.602069 0
M  V30 3272 H 313.943 -1.57314 -0.944698 0
M  V30 3273 H 312.325 -1.71889 -3.5675 0
M  V30 3274 H 313.499 -4.1335 -2.03662 0
M  V30 3275 H 311.814 -3.66261 -1.98096 0
M  V30 3276 H 314.411 -2.72611 -4.59987 0
M  V30 3277 H 314.754 -1.11841 -4.00995 0
M  V30 3278 H 315.287 -2.53214 -3.06802 0
M  V30 3279 H 312.026 -5.48373 -3.5912 0
M  V30 3280 H 311.546 -4.0088 -4.46156 0
M  V30 3281 H 313.225 -4.59597 -4.55389 0
M  V30 3282 N 313.357 1.07166 -1.15556 0
M  V30 3283 C 314.603 1.80065 -0.932984 0
M  V30 3284 C 314.936 1.86586 0.53845 0
M  V30 3285 O 314.211 1.35098 1.39924 0
M  V30 3286 C 314.494 3.25022 -1.55025 0
M  V30 3287 C 314.347 3.26634 -3.09242 0
M  V30 3288 C 315.666 4.22341 -1.2376 0
M  V30 3289 H 312.785 0.653697 -0.340366 0
M  V30 3290 H 315.427 1.25389 -1.4275 0
M  V30 3291 H 313.577 3.71712 -1.12972 0
M  V30 3292 H 315.249 2.88173 -3.60214 0
M  V30 3293 H 313.492 2.65539 -3.43033 0
M  V30 3294 H 314.163 4.28854 -3.47546 0
M  V30 3295 H 316.639 3.8405 -1.60139 0
M  V30 3296 H 315.515 5.22053 -1.69564 0
M  V30 3297 H 315.776 4.41828 -0.154938 0
M  V30 3298 N 314.835 0.952656 1.25548 0
M  V30 3299 C 316.065 0.622592 1.96996 0
M  V30 3300 C 316.473 -0.809112 1.71026 0
M  V30 3301 O 315.816 -1.55258 0.981861 0
M  V30 3302 C 315.878 0.798946 3.5051 0
M  V30 3303 C 315.542 2.20744 4.00151 0
M  V30 3304 C 316.539 3.18394 4.11001 0
M  V30 3305 C 314.224 2.5311 4.33867 0
M  V30 3306 C 316.218 4.46504 4.54877 0
M  V30 3307 C 313.905 3.8145 4.7743 0
M  V30 3308 C 314.903 4.77959 4.87897 0
M  V30 3309 O 314.591 6.04012 5.30494 0
M  V30 3310 H 314.323 0.232503 0.634758 0
M  V30 3311 H 316.877 1.2789 1.60728 0
M  V30 3312 H 315.107 0.0854903 3.86605 0
M  V30 3313 H 316.796 0.47023 4.03167 0
M  V30 3314 H 317.562 2.94715 3.85186 0
M  V30 3315 H 313.441 1.78719 4.24948 0
M  V30 3316 H 316.985 5.21835 4.62962 0
M  V30 3317 H 312.882 4.04936 5.0269 0
M  V30 3318 H 313.65 6.0736 5.48685 0
M  V30 3319 N 316.313 -1.40141 0.720998 0
M  V30 3320 C 317.223 -2.34486 0.0731031 0
M  V30 3321 C 318.239 -1.57587 -0.737723 0
M  V30 3322 O 319.415 -1.89949 -0.669429 0
M  V30 3323 C 316.48 -3.36528 -0.833656 0
M  V30 3324 C 315.541 -4.29298 -0.0121673 0
M  V30 3325 C 314.774 -5.26466 -0.875742 0
M  V30 3326 O 314.997 -5.29745 -2.11485 0
M  V30 3327 O 313.931 -6.01092 -0.31185 0
M  V30 3328 H 317.757 -2.9152 0.851444 0
M  V30 3329 H 315.342 -1.41427 0.481527 0
M  V30 3330 H 317.224 -3.99093 -1.35289 0
M  V30 3331 H 315.899 -2.81899 -1.59105 0
M  V30 3332 H 314.806 -3.70001 0.552262 0
M  V30 3333 H 316.139 -4.87094 0.707129 0
M  V30 3334 N 317.792 -0.46758 -1.50504 0
M  V30 3335 C 318.755 0.317059 -2.26996 0
M  V30 3336 C 319.755 0.923513 -1.31635 0
M  V30 3337 O 320.945 0.793239 -1.55091 0
M  V30 3338 C 318.077 1.45134 -3.08462 0
M  V30 3339 H 319.27 -0.353723 -2.97807 0
M  V30 3340 H 316.823 -0.221545 -1.54722 0
M  V30 3341 H 317.558 2.15728 -2.4214 0
M  V30 3342 H 317.343 1.02232 -3.78538 0
M  V30 3343 H 318.833 2.00493 -3.66323 0
M  V30 3344 N 319.27 1.56325 -0.20005 0
M  V30 3345 C 320.233 2.18084 0.705132 0
M  V30 3346 C 321.233 1.13666 1.1374 0
M  V30 3347 O 322.423 1.39023 1.04968 0
M  V30 3348 C 319.555 2.78689 1.96329 0
M  V30 3349 H 320.748 2.99435 0.167023 0
M  V30 3350 H 318.301 1.56221 0.0495725 0
M  V30 3351 H 319.036 2.0115 2.5438 0
M  V30 3352 H 318.821 3.55133 1.66202 0
M  V30 3353 H 320.311 3.26096 2.60866 0
M  V30 3354 N 320.748 -0.0735177 1.57428 0
M  V30 3355 C 322.025 -0.805903 1.78226 0
M  V30 3356 C 322.405 -1.95874 0.787189 0
M  V30 3357 O 321.753 -2.2779 -0.180029 0
M  V30 3358 C 321.963 -1.28045 3.24662 0
M  V30 3359 C 323.311 -1.71453 3.88444 0
M  V30 3360 O 324.335 -1.37616 3.28543 0
M  V30 3361 O 323.194 -2.34093 4.93825 0
M  V30 3362 H 320.288 -0.386041 0.73137 0
M  V30 3363 H 322.834 -0.0537269 1.69615 0
M  V30 3364 H 321.606 -0.455476 3.8864 0
M  V30 3365 H 321.229 -2.094 3.37991 0
M  V30 3366 N 322.226 -1.5378 -0.344866 0
M  V30 3367 C 323.159 -1.7649 -1.4466 0
M  V30 3368 C 324.137 -0.613954 -1.50563 0
M  V30 3369 O 325.321 -0.84896 -1.683 0
M  V30 3370 C 322.448 -1.86235 -2.82903 0
M  V30 3371 C 321.494 -3.08375 -2.94631 0
M  V30 3372 S 322.327 -4.67457 -2.61236 0
M  V30 3373 C 323.483 -4.80079 -4.0159 0
M  V30 3374 H 323.716 -2.69661 -1.2518 0
M  V30 3375 H 321.249 -1.44632 -0.540455 0
M  V30 3376 H 323.207 -1.92535 -3.62547 0
M  V30 3377 H 321.868 -0.940786 -2.9968 0
M  V30 3378 H 321.061 -3.11865 -3.95925 0
M  V30 3379 H 320.663 -3.00294 -2.22934 0
M  V30 3380 H 322.955 -4.61407 -4.96094 0
M  V30 3381 H 323.898 -5.82168 -4.03095 0
M  V30 3382 H 324.306 -4.08544 -3.89554 0
M  V30 3383 N 323.704 0.605807 -1.45491 0
M  V30 3384 C 324.953 1.36086 -1.48874 0
M  V30 3385 C 325.266 1.95131 -0.135333 0
M  V30 3386 O 326.472 2.7146 -0.0468144 0
M  V30 3387 C 324.928 2.46518 -2.62215 0
M  V30 3388 C 324.536 1.93877 -4.03876 0
M  V30 3389 C 326.28 3.23512 -2.74846 0
M  V30 3390 C 324.187 3.01801 -5.08596 0
M  V30 3391 H 323.117 0.511497 -0.553974 0
M  V30 3392 H 325.768 0.649089 -1.71636 0
M  V30 3393 H 324.15 3.20388 -2.32739 0
M  V30 3394 H 325.324 1.26704 -4.43038 0
M  V30 3395 H 323.639 1.29622 -3.95711 0
M  V30 3396 H 326.236 4.04013 -3.50253 0
M  V30 3397 H 326.579 3.74631 -1.81542 0
M  V30 3398 H 327.112 2.56742 -3.03856 0
M  V30 3399 H 323.851 2.55597 -6.03614 0
M  V30 3400 H 323.371 3.67535 -4.74002 0
M  V30 3401 H 325.05 3.66152 -5.33424 0
M  V30 3402 N 325.182 1.32811 0.848464 0
M  V30 3403 C 326.115 1.16601 1.96162 0
M  V30 3404 C 327.093 0.0638855 1.62474 0
M  V30 3405 O 328.277 0.224348 1.8716 0
M  V30 3406 C 325.404 0.786333 3.29446 0
M  V30 3407 C 324.45 1.89459 3.8211 0
M  V30 3408 S 325.283 3.50395 4.04949 0
M  V30 3409 C 326.439 3.14413 5.41198 0
M  V30 3410 H 326.672 2.10832 2.09612 0
M  V30 3411 H 324.205 1.17543 1.00115 0
M  V30 3412 H 326.163 0.574044 4.06466 0
M  V30 3413 H 324.824 -0.137218 3.138 0
M  V30 3414 H 324.017 1.58207 4.78526 0
M  V30 3415 H 323.619 2.06304 3.11953 0
M  V30 3416 H 325.911 2.64642 6.23675 0
M  V30 3417 H 326.854 4.09874 5.77416 0
M  V30 3418 H 327.262 2.51266 5.05495 0
M  V30 3419 N 326.66 -1.06551 1.16123 0
M  V30 3420 C 327.61 -2.12209 0.833736 0
M  V30 3421 C 328.594 -1.59825 -0.185656 0
M  V30 3422 O 329.786 -1.76994 0.0147906 0
M  V30 3423 C 326.915 -3.41674 0.333697 0
M  V30 3424 C 326.001 -4.00892 1.38372 0
M  V30 3425 N 326.392 -4.34256 2.59337 0
M  V30 3426 C 324.69 -4.28463 1.23836 0
M  V30 3427 C 325.391 -4.81291 3.26701 0
M  V30 3428 N 324.367 -4.80565 2.54083 0
M  V30 3429 H 328.169 -2.35849 1.75364 0
M  V30 3430 H 325.683 -1.24068 1.04789 0
M  V30 3431 H 327.68 -4.16822 0.0806918 0
M  V30 3432 H 326.34 -3.19475 -0.58017 0
M  V30 3433 H 327.351 -4.24687 2.96415 0
M  V30 3434 H 324.028 -4.15721 0.38504 0
M  V30 3435 H 325.418 -5.16332 4.29943 0
M  V30 3436 N 328.138 -0.959301 -1.25041 0
M  V30 3437 C 329.366 -0.633949 -1.96948 0
M  V30 3438 C 329.781 0.794916 -1.7125 0
M  V30 3439 O 329.138 1.53231 -0.991287 0
M  V30 3440 C 329.189 -0.888805 -3.50403 0
M  V30 3441 O 328.91 -2.26149 -3.75218 0
M  V30 3442 C 330.411 -0.576482 -4.39536 0
M  V30 3443 H 327.631 -0.237263 -0.627652 0
M  V30 3444 H 330.175 -1.28495 -1.59089 0
M  V30 3445 H 328.33 -0.284145 -3.86357 0
M  V30 3446 H 328.744 -2.33514 -4.6965 0
M  V30 3447 H 330.218 -0.805314 -5.46094 0
M  V30 3448 H 330.695 0.489075 -4.36468 0
M  V30 3449 H 331.301 -1.16067 -4.09156 0
M  V30 3450 N 329.616 1.39756 -0.72842 0
M  V30 3451 C 331.027 1.83498 -0.344289 0
M  V30 3452 C 331.378 1.60868 1.12321 0
M  V30 3453 O 330.503 1.09634 1.86573 0
M  V30 3454 C 331.098 3.33114 -0.618112 0
M  V30 3455 C 329.657 3.753 -0.287549 0
M  V30 3456 C 328.804 2.62831 -0.884048 0
M  V30 3457 H 331.755 1.28842 -0.926578 0
M  V30 3458 H 331.776 3.80334 0.112349 0
M  V30 3459 H 331.288 3.49553 -1.68625 0
M  V30 3460 H 329.389 3.64451 0.775012 0
M  V30 3461 H 329.502 4.72945 -0.765512 0
M  V30 3462 H 327.866 2.52792 -0.311149 0
M  V30 3463 H 328.649 2.82078 -1.95671 0
M  V30 3464 N 331.094 0.475555 1.50254 0
M  V30 3465 C 332.342 -0.077738 2.0195 0
M  V30 3466 C 332.663 -1.39813 1.35931 0
M  V30 3467 O 331.933 -1.89249 0.506123 0
M  V30 3468 H 330.513 -0.031719 0.746326 0
M  V30 3469 H 333.175 0.626995 1.84539 0
M  V30 3470 H 332.271 -0.225995 3.11281 0
M  V30 3471 N 332.573 -1.56217 0.208337 0
M  V30 3472 C 333.813 -1.99849 -0.428927 0
M  V30 3473 C 334.177 -1.09262 -1.57879 0
M  V30 3474 O 335.378 -1.42185 -2.28116 0
M  V30 3475 C 333.649 -3.46777 -0.864879 0
M  V30 3476 S 335.208 -4.12434 -1.49811 0
M  V30 3477 H 332.026 -0.697742 -0.136665 0
M  V30 3478 H 334.628 -1.92953 0.314519 0
M  V30 3479 H 333.332 -4.10396 -0.0181326 0
M  V30 3480 H 332.863 -3.57518 -1.64147 0
M  V30 3481 H 334.878 -4.10532 -2.78707 0
M  V30 3482 N 334.051 0.0651679 -1.57465 0
M  V30 3483 C 335.297 0.764193 -1.87851 0
M  V30 3484 C 335.63 1.76889 -0.801495 0
M  V30 3485 O 334.905 1.93594 0.187528 0
M  V30 3486 C 335.188 1.46625 -3.28897 0
M  V30 3487 C 335.041 0.477515 -4.47258 0
M  V30 3488 C 336.36 2.4095 -3.68281 0
M  V30 3489 H 333.479 0.276351 -0.683227 0
M  V30 3490 H 336.121 0.0272868 -1.8998 0
M  V30 3491 H 334.271 2.09438 -3.27212 0
M  V30 3492 H 335.943 -0.145922 -4.61069 0
M  V30 3493 H 334.186 -0.206576 -4.33308 0
M  V30 3494 H 334.857 1.0065 -5.42746 0
M  V30 3495 H 337.333 1.88209 -3.71102 0
M  V30 3496 H 336.209 2.87072 -4.67847 0
M  V30 3497 H 336.47 3.26049 -2.98571 0
M  V30 3498 N 335.529 1.53961 0.336706 0
M  V30 3499 C 336.94 1.62914 0.911925 0
M  V30 3500 C 337.291 0.514795 1.89326 0
M  V30 3501 O 336.416 -0.354395 2.13478 0
M  V30 3502 C 337.011 2.95304 1.66076 0
M  V30 3503 C 335.57 3.06496 2.18489 0
M  V30 3504 C 334.717 2.58403 1.00613 0
M  V30 3505 H 337.668 1.58285 0.114649 0
M  V30 3506 H 337.689 2.84727 2.5241 0
M  V30 3507 H 337.201 3.76387 0.946276 0
M  V30 3508 H 335.302 2.3006 2.93092 0
M  V30 3509 H 335.415 4.1208 2.44391 0
M  V30 3510 H 333.779 2.13977 1.38152 0
M  V30 3511 H 334.562 3.41932 0.306179 0
M  V30 3512 N 337.007 -0.598083 1.45811 0
M  V30 3513 C 338.247 -1.36802 1.5187 0
M  V30 3514 C 338.611 -1.9133 0.160224 0
M  V30 3515 O 339.812 -2.6863 0.0955302 0
M  V30 3516 C 338.083 -2.47835 2.57513 0
M  V30 3517 S 339.642 -3.35458 2.82866 0
M  V30 3518 H 336.46 -0.466278 0.536755 0
M  V30 3519 H 339.062 -0.689152 1.82951 0
M  V30 3520 H 337.766 -2.06141 3.54872 0
M  V30 3521 H 337.297 -3.20512 2.28114 0
M  V30 3522 H 339.312 -4.46251 2.16967 0
M  V30 3523 N 338.485 -1.33259 -0.841409 0
M  V30 3524 C 339.731 -1.24757 -1.59886 0
M  V30 3525 C 340.064 0.186913 -1.93298 0
M  V30 3526 O 339.339 1.12757 -1.5848 0
M  V30 3527 C 339.622 -2.12036 -2.91055 0
M  V30 3528 C 339.475 -3.63929 -2.6434 0
M  V30 3529 C 340.794 -1.9916 -3.92458 0
M  V30 3530 H 337.913 -0.454542 -0.580138 0
M  V30 3531 H 340.555 -1.63335 -0.970647 0
M  V30 3532 H 338.705 -1.79265 -3.44669 0
M  V30 3533 H 340.377 -4.06978 -2.17178 0
M  V30 3534 H 338.62 -3.85935 -1.98082 0
M  V30 3535 H 339.291 -4.20341 -3.57796 0
M  V30 3536 H 341.767 -2.27895 -3.48143 0
M  V30 3537 H 340.643 -2.62484 -4.82072 0
M  V30 3538 H 340.904 -0.963082 -4.31482 0
M  V30 3539 N 339.963 1.05934 -1.16686 0
M  V30 3540 C 341.379 1.30938 -0.912542 0
M  V30 3541 C 341.579 1.96803 0.432533 0
M  V30 3542 O 340.635 2.23693 1.17123 0
M  V30 3543 C 341.948 2.18649 -2.06429 0
M  V30 3544 C 343.496 2.32055 -2.10047 0
M  V30 3545 C 343.971 3.23122 -3.24586 0
M  V30 3546 N 345.462 3.30706 -3.24327 0
M  V30 3547 C 346.197 4.01273 -4.09594 0
M  V30 3548 N 345.693 4.74332 -5.04956 0
M  V30 3549 N 347.486 3.97361 -3.97569 0
M  V30 3550 H 339.637 0.615777 -2.03278 0
M  V30 3551 H 341.9 0.334077 -0.887185 0
M  V30 3552 H 341.606 1.77534 -3.03603 0
M  V30 3553 H 341.48 3.19252 -2.00894 0
M  V30 3554 H 343.867 2.72415 -1.13464 0
M  V30 3555 H 343.948 1.31107 -2.19647 0
M  V30 3556 H 343.592 2.83477 -4.2143 0
M  V30 3557 H 343.522 4.24057 -3.12223 0
M  V30 3558 H 346.013 2.78644 -2.55276 0
M  V30 3559 H 346.326 5.25716 -5.6643 0
M  V30 3560 H 344.671 4.733 -5.08933 0
M  V30 3561 H 347.862 3.39405 -3.22369 0
M  V30 3562 H 348.035 4.52089 -4.64241 0
M  V30 3563 N 341.441 0.965919 1.2453 0
M  V30 3564 C 342.351 0.502154 2.29163 0
M  V30 3565 C 343.367 -0.436017 1.68448 0
M  V30 3566 O 344.543 -0.309497 1.99008 0
M  V30 3567 C 341.608 -0.201956 3.46111 0
M  V30 3568 C 340.669 0.775821 4.22232 0
M  V30 3569 C 339.902 0.105217 5.33596 0
M  V30 3570 O 340.125 -1.10683 5.59558 0
M  V30 3571 O 339.059 0.796475 5.96607 0
M  V30 3572 H 342.885 1.37194 2.70946 0
M  V30 3573 H 340.47 0.732875 1.30189 0
M  V30 3574 H 342.352 -0.597564 4.17142 0
M  V30 3575 H 341.027 -1.04673 3.06309 0
M  V30 3576 H 339.934 1.22185 3.53584 0
M  V30 3577 H 341.267 1.58896 4.65846 0
M  V30 3578 N 342.919 -1.39368 0.735821 0
M  V30 3579 C 344.144 -2.05319 0.293052 0
M  V30 3580 C 344.569 -1.55115 -1.064 0
M  V30 3581 O 343.927 -0.695261 -1.67439 0
M  V30 3582 C 343.975 -3.59305 0.305323 0
M  V30 3583 O 343.079 -4.06299 -0.706761 0
M  V30 3584 H 342.42 -0.650529 0.13307 0
M  V30 3585 H 344.95 -1.78386 1.00197 0
M  V30 3586 H 344.96 -4.07724 0.149997 0
M  V30 3587 H 343.635 -3.95207 1.29553 0
M  V30 3588 H 342.212 -3.69292 -0.517504 0
M  V30 3589 N 344.397 -0.483516 -1.5 0
M  V30 3590 C 345.345 0.318061 -2.30415 0
M  V30 3591 C 346.339 0.978988 -1.38247 0
M  V30 3592 O 347.545 0.908673 -1.55381 0
M  V30 3593 H 343.92 0.121419 -0.742133 0
M  V30 3594 H 345.891 -0.380403 -2.95965 0
M  V30 3595 C 344.64 1.38013 -3.19136 0
M  V30 3596 H 343.963 0.880952 -3.89973 0
M  V30 3597 H 345.403 1.91332 -3.78375 0
M  V30 3598 C 343.862 2.38884 -2.37563 0
M  V30 3599 O 344.392 3.44412 -2.06744 0
M  V30 3600 N 342.598 2.10912 -1.99911 0
M  V30 3601 H 342.145 1.25118 -2.25174 0
M  V30 3602 H 342.103 2.78635 -1.45636 0
M  V30 3603 N 345.875 1.56104 -0.216619 0
M  V30 3604 C 347.122 1.98172 0.416416 0
M  V30 3605 C 347.45 1.10413 1.60122 0
M  V30 3606 O 346.705 0.147967 1.9514 0
M  V30 3607 C 347.004 3.45923 0.898464 0
M  V30 3608 C 346.67 4.50559 -0.175288 0
M  V30 3609 C 345.332 4.78897 -0.470271 0
M  V30 3610 C 347.684 5.1334 -0.901728 0
M  V30 3611 C 345.012 5.67299 -1.4963 0
M  V30 3612 C 347.364 6.02853 -1.91705 0
M  V30 3613 C 346.028 6.29537 -2.21901 0
M  V30 3614 H 345.298 0.725164 0.152377 0
M  V30 3615 H 347.945 1.88839 -0.318103 0
M  V30 3616 H 346.25 3.52434 1.71165 0
M  V30 3617 H 347.947 3.75841 1.39803 0
M  V30 3618 H 344.537 4.28551 0.0647806 0
M  V30 3619 H 348.721 4.91521 -0.687072 0
M  V30 3620 H 343.977 5.86239 -1.73592 0
M  V30 3621 H 348.151 6.50552 -2.48505 0
M  V30 3622 H 345.778 6.97835 -3.01548 0
M  V30 3623 N 347.353 -0.0568162 1.57498 0
M  V30 3624 C 348.578 -0.769402 1.92601 0
M  V30 3625 C 349.003 -1.69559 0.814336 0
M  V30 3626 O 348.361 -1.79811 -0.231903 0
M  V30 3627 C 348.409 -1.52634 3.26704 0
M  V30 3628 O 347.513 -2.63797 3.16994 0
M  V30 3629 H 346.854 -0.208909 0.63028 0
M  V30 3630 H 349.384 -0.0205798 2.0459 0
M  V30 3631 H 349.394 -1.90234 3.60936 0
M  V30 3632 H 348.069 -0.846875 4.07186 0
M  V30 3633 H 346.646 -2.28943 2.94346 0
M  V30 3634 N 348.832 -1.54138 -0.328536 0
M  V30 3635 C 350.248 -1.44736 -0.672574 0
M  V30 3636 C 350.448 -0.616217 -1.91846 0
M  V30 3637 O 349.504 -0.113067 -2.52247 0
M  V30 3638 C 350.817 -2.884 -0.851217 0
M  V30 3639 C 352.365 -2.98271 -0.948877 0
M  V30 3640 C 352.84 -4.43074 -1.15973 0
M  V30 3641 N 354.331 -4.46665 -1.22658 0
M  V30 3642 C 355.066 -5.55857 -1.40751 0
M  V30 3643 N 354.562 -6.75026 -1.5592 0
M  V30 3644 N 356.355 -5.43495 -1.4342 0
M  V30 3645 H 348.506 -2.06661 0.490421 0
M  V30 3646 H 350.769 -0.934812 0.157579 0
M  V30 3647 H 350.475 -3.51699 -0.00704236 0
M  V30 3648 H 350.349 -3.34225 -1.74853 0
M  V30 3649 H 352.736 -2.35102 -1.78356 0
M  V30 3650 H 352.817 -2.55785 -0.0281435 0
M  V30 3651 H 352.461 -5.06827 -0.329915 0
M  V30 3652 H 352.391 -4.83165 -2.09426 0
M  V30 3653 H 354.882 -3.60797 -1.124 0
M  V30 3654 H 355.195 -7.54004 -1.69404 0
M  V30 3655 H 353.54 -6.77944 -1.53027 0
M  V30 3656 H 356.731 -4.49349 -1.31162 0
M  V30 3657 H 356.904 -6.28649 -1.57178 0
M  V30 3658 N 350.31 0.590341 -1.46126 0
M  V30 3659 C 351.55 1.35995 -1.52593 0
M  V30 3660 C 351.914 1.91243 -0.170368 0
M  V30 3661 O 353.115 2.68576 -0.109775 0
M  V30 3662 C 351.386 2.46465 -2.58823 0
M  V30 3663 S 352.945 3.33953 -2.84641 0
M  V30 3664 H 349.763 0.463425 -0.53922 0
M  V30 3665 H 352.365 0.67944 -1.83314 0
M  V30 3666 H 351.069 2.04256 -3.5596 0
M  V30 3667 H 350.6 3.19297 -2.2981 0
M  V30 3668 H 352.615 4.45094 -2.19331 0
M  V30 3669 N 351.788 1.33704 0.83433 0
M  V30 3670 C 353.034 1.26612 1.59188 0
M  V30 3671 C 353.389 -0.165439 1.91687 0
M  V30 3672 O 352.682 -1.10873 1.56262 0
M  V30 3673 C 352.876 2.07926 2.90692 0
M  V30 3674 C 352.705 3.58844 2.71038 0
M  V30 3675 C 351.475 4.28148 2.68361 0
M  V30 3676 C 353.673 4.53082 2.43353 0
M  V30 3677 N 351.655 5.64987 2.40132 0
M  V30 3678 C 353.026 5.77843 2.24716 0
M  V30 3679 C 355.081 4.42119 2.28987 0
M  V30 3680 C 353.784 6.92877 1.9317 0
M  V30 3681 C 355.81 5.56973 1.98835 0
M  V30 3682 C 355.172 6.80745 1.81012 0
M  V30 3683 H 351.271 0.518517 0.585375 0
M  V30 3684 H 353.855 1.68294 0.979044 0
M  V30 3685 H 352.026 1.68558 3.49918 0
M  V30 3686 H 353.758 1.92568 3.55949 0
M  V30 3687 H 350.513 3.80469 2.82029 0
M  V30 3688 H 350.937 6.37133 2.28889 0
M  V30 3689 H 355.579 3.47058 2.41477 0
M  V30 3690 H 353.297 7.87931 1.79418 0
M  V30 3691 H 356.883 5.50428 1.88468 0
M  V30 3692 H 355.763 7.68115 1.58017 0
M  V30 3693 N 353.266 -1.05314 1.17247 0
M  V30 3694 C 354.512 -1.78557 0.961513 0
M  V30 3695 C 354.845 -1.87419 -0.508697 0
M  V30 3696 O 354.12 -1.37307 -1.37757 0
M  V30 3697 C 354.403 -3.22514 1.60176 0
M  V30 3698 C 354.256 -3.21673 3.14399 0
M  V30 3699 C 355.575 -4.20318 1.30463 0
M  V30 3700 H 352.694 -0.6482 0.350723 0
M  V30 3701 H 355.336 -1.23102 1.44727 0
M  V30 3702 H 353.486 -3.69867 1.18871 0
M  V30 3703 H 355.158 -2.82405 3.64753 0
M  V30 3704 H 353.401 -2.60048 3.47214 0
M  V30 3705 H 354.072 -4.23271 3.54324 0
M  V30 3706 H 356.548 -3.81454 1.66229 0
M  V30 3707 H 355.424 -5.19289 1.77848 0
M  V30 3708 H 355.685 -4.41526 0.22521 0
M  V30 3709 N 354.744 -0.972509 -1.24016 0
M  V30 3710 C 355.707 -0.511403 -2.23422 0
M  V30 3711 C 356.707 0.394679 -1.55881 0
M  V30 3712 O 357.897 0.189469 -1.73167 0
M  V30 3713 C 355.029 0.258769 -3.39916 0
M  V30 3714 H 356.222 -1.39024 -2.6573 0
M  V30 3715 H 353.775 -0.757585 -1.36713 0
M  V30 3716 H 354.51 1.1545 -3.03054 0
M  V30 3717 H 354.295 -0.391522 -3.9014 0
M  V30 3718 H 355.785 0.570244 -4.13688 0
M  V30 3719 N 356.222 1.38976 -0.743202 0
M  V30 3720 C 357.152 2.33171 -0.123873 0
M  V30 3721 C 358.133 1.54336 0.71516 0
M  V30 3722 O 359.318 1.82696 0.658467 0
M  V30 3723 C 356.448 3.38474 0.777978 0
M  V30 3724 C 355.402 4.27979 0.0424758 0
M  V30 3725 C 354.728 5.2405 1.06189 0
M  V30 3726 C 356.028 5.10155 -1.1198 0
M  V30 3727 H 357.722 2.85213 -0.910709 0
M  V30 3728 H 355.268 1.37133 -0.439388 0
M  V30 3729 H 357.221 4.03328 1.22084 0
M  V30 3730 H 355.945 2.84891 1.59702 0
M  V30 3731 H 354.604 3.64616 -0.380853 0
M  V30 3732 H 354.252 4.66758 1.87472 0
M  V30 3733 H 353.952 5.84785 0.574485 0
M  V30 3734 H 355.476 5.9178 1.50428 0
M  V30 3735 H 356.89 5.68307 -0.75499 0
M  V30 3736 H 355.287 5.80073 -1.53738 0
M  V30 3737 H 356.357 4.44504 -1.93764 0
M  V30 3738 N 357.7 0.491464 1.49741 0
M  V30 3739 C 358.928 -0.0535151 2.06831 0
M  V30 3740 C 359.343 -1.31683 1.35296 0
M  V30 3741 O 358.7 -1.77402 0.42836 0
M  V30 3742 C 358.751 -0.320835 3.60073 0
M  V30 3743 O 358.472 0.892394 4.28915 0
M  V30 3744 C 359.973 -0.910519 4.33848 0
M  V30 3745 H 357.193 0.0161909 0.670805 0
M  V30 3746 H 359.737 0.68609 1.92647 0
M  V30 3747 H 357.892 -1.0104 3.73991 0
M  V30 3748 H 358.306 0.649401 5.20464 0
M  V30 3749 H 359.78 -1.04721 5.41976 0
M  V30 3750 H 360.257 -1.90589 3.95692 0
M  V30 3751 H 360.863 -0.258712 4.24512 0
M  V30 3752 N 359.178 -1.55987 0.224894 0
M  V30 3753 C 360.589 -1.84553 -0.282345 0
M  V30 3754 C 360.94 -1.14634 -1.59227 0
M  V30 3755 O 360.065 -0.417155 -2.12341 0
M  V30 3756 C 360.66 -3.348 -0.519062 0
M  V30 3757 C 359.219 -3.63671 -0.970604 0
M  V30 3758 C 358.366 -2.77277 -0.0355261 0
M  V30 3759 H 361.317 -1.52245 0.448006 0
M  V30 3760 H 361.338 -3.55187 -1.36463 0
M  V30 3761 H 360.85 -3.8566 0.43449 0
M  V30 3762 H 358.951 -3.1827 -1.9374 0
M  V30 3763 H 359.064 -4.71631 -0.842698 0
M  V30 3764 H 357.428 -2.48846 -0.542927 0
M  V30 3765 H 358.211 -3.30937 0.913003 0
M  V30 3766 N 360.656 0.0484629 -1.57525 0
M  V30 3767 C 361.884 0.755421 -1.92616 0
M  V30 3768 C 362.299 1.69919 -0.822984 0
M  V30 3769 O 361.656 1.81378 0.202085 0
M  V30 3770 C 361.707 1.52915 -3.27566 0
M  V30 3771 O 361.428 0.62329 -4.33644 0
M  V30 3772 C 362.929 2.33502 -3.76818 0
M  V30 3773 H 360.149 0.213465 -0.63614 0
M  V30 3774 H 362.693 0.0117698 -2.04497 0
M  V30 3775 H 360.848 2.22486 -3.17142 0
M  V30 3776 H 361.262 1.16383 -5.11425 0
M  V30 3777 H 362.736 2.83214 -4.73808 0
M  V30 3778 H 363.213 3.14068 -3.07014 0
M  V30 3779 H 363.819 1.69043 -3.90262 0
M  V30 3780 N 362.134 1.5431 0.320358 0
M  V30 3781 C 363.064 1.86912 1.3995 0
M  V30 3782 C 364.045 0.726211 1.53819 0
M  V30 3783 O 365.23 0.980233 1.67646 0
M  V30 3784 C 362.36 2.09932 2.7667 0
M  V30 3785 C 361.314 3.25776 2.77586 0
M  V30 3786 C 360.64 3.34173 4.17412 0
M  V30 3787 C 361.94 4.6335 2.41048 0
M  V30 3788 H 363.634 2.77292 1.12914 0
M  V30 3789 H 361.18 1.33421 0.541738 0
M  V30 3790 H 363.133 2.31324 3.52232 0
M  V30 3791 H 361.857 1.16304 3.0519 0
M  V30 3792 H 360.516 3.04276 2.04479 0
M  V30 3793 H 360.164 2.38098 4.43078 0
M  V30 3794 H 359.864 4.12033 4.18931 0
M  V30 3795 H 361.388 3.57803 4.94782 0
M  V30 3796 H 362.802 4.84602 3.06324 0
M  V30 3797 H 361.199 5.43782 2.53813 0
M  V30 3798 H 362.269 4.65381 1.36193 0
M  V30 3799 N 363.613 -0.582584 1.46437 0
M  V30 3800 C 364.576 -1.67366 1.56592 0
M  V30 3801 C 365.576 -1.54575 0.443072 0
M  V30 3802 O 366.766 -1.59191 0.707381 0
M  V30 3803 C 363.898 -3.06791 1.48634 0
M  V30 3804 H 365.091 -1.5972 2.5383 0
M  V30 3805 H 362.644 -0.800432 1.34249 0
M  V30 3806 H 363.379 -3.19993 0.526763 0
M  V30 3807 H 363.164 -3.17484 2.30101 0
M  V30 3808 H 364.654 -3.86218 1.58826 0
M  V30 3809 N 365.091 -1.34144 -0.827227 0
M  V30 3810 C 366.054 -1.25264 -1.91942 0
M  V30 3811 C 367.054 -0.168866 -1.59911 0
M  V30 3812 O 368.244 -0.421198 -1.69031 0
M  V30 3813 C 365.376 -0.932952 -3.27885 0
M  V30 3814 H 366.569 -2.22357 -2.0124 0
M  V30 3815 H 364.122 -1.1837 -1.0207 0
M  V30 3816 H 364.857 0.0349917 -3.24281 0
M  V30 3817 H 364.642 -1.71682 -3.52516 0
M  V30 3818 H 366.132 -0.895874 -4.07877 0
M  V30 3819 N 366.569 1.04691 -1.17803 0
M  V30 3820 C 367.985 1.29963 -0.926379 0
M  V30 3821 C 368.185 1.97251 0.411635 0
M  V30 3822 O 367.241 2.24922 1.14744 0
M  V30 3823 C 368.554 2.16447 -2.08737 0
M  V30 3824 C 370.102 2.29814 -2.12496 0
M  V30 3825 C 370.577 3.19661 -3.27995 0
M  V30 3826 N 372.068 3.27247 -3.27816 0
M  V30 3827 C 372.803 3.96906 -4.13827 0
M  V30 3828 N 372.299 4.6895 -5.09959 0
M  V30 3829 N 374.092 3.93122 -4.01761 0
M  V30 3830 H 366.243 0.594182 -2.0392 0
M  V30 3831 H 368.506 0.324649 -0.890678 0
M  V30 3832 H 368.212 1.74304 -3.05469 0
M  V30 3833 H 368.086 3.17103 -2.04268 0
M  V30 3834 H 370.473 2.71196 -1.16347 0
M  V30 3835 H 370.554 1.2877 -2.21025 0
M  V30 3836 H 370.198 2.78991 -4.24413 0
M  V30 3837 H 370.128 4.20722 -3.16703 0
M  V30 3838 H 372.619 2.75921 -2.58217 0
M  V30 3839 H 372.932 5.19679 -5.71974 0
M  V30 3840 H 371.277 4.67875 -5.13924 0
M  V30 3841 H 374.468 3.35967 -3.2595 0
M  V30 3842 H 374.641 4.47139 -4.6901 0
M  V30 3843 N 368.047 0.979072 1.23499 0
M  V30 3844 C 368.995 0.510604 2.26926 0
M  V30 3845 C 369.989 -0.431691 1.63807 0
M  V30 3846 O 371.195 -0.30573 1.77385 0
M  V30 3847 H 367.57 0.146688 0.737554 0
M  V30 3848 H 369.541 1.39466 2.63803 0
M  V30 3849 C 368.29 -0.172658 3.47271 0
M  V30 3850 H 367.613 0.543331 3.96091 0
M  V30 3851 H 369.053 -0.464101 4.21452 0
M  V30 3852 C 367.512 -1.40345 3.06276 0
M  V30 3853 O 368.042 -2.49978 3.14442 0
M  V30 3854 N 366.248 -1.27362 2.61203 0
M  V30 3855 H 365.795 -0.381584 2.54758 0
M  V30 3856 H 365.753 -2.09822 2.34141 0
M  V30 3857 N 369.525 -1.3858 0.750561 0
M  V30 3858 C 370.75 -2.04997 0.314812 0
M  V30 3859 C 371.175 -1.56235 -1.04749 0
M  V30 3860 O 370.533 -0.712981 -1.66692 0
M  V30 3861 C 370.581 -3.58961 0.343415 0
M  V30 3862 O 369.685 -4.07025 -0.663628 0
M  V30 3863 H 369.026 -0.649081 0.139962 0
M  V30 3864 H 371.556 -1.77313 1.02084 0
M  V30 3865 H 371.566 -4.07542 0.193233 0
M  V30 3866 H 370.241 -3.93811 1.33738 0
M  V30 3867 H 368.818 -3.6982 -0.478307 0
M  V30 3868 N 371.003 -0.499398 -1.49478 0
M  V30 3869 C 372.228 0.044722 -2.07352 0
M  V30 3870 C 372.653 1.30207 -1.35749 0
M  V30 3871 O 372.011 1.76516 -0.413732 0
M  V30 3872 C 372.059 0.283013 -3.59488 0
M  V30 3873 O 371.163 1.35804 -3.89398 0
M  V30 3874 H 370.504 -0.0255147 -0.66351 0
M  V30 3875 H 373.034 -0.698561 -1.92305 0
M  V30 3876 H 373.044 0.515007 -4.04737 0
M  V30 3877 H 371.719 -0.635636 -4.11014 0
M  V30 3878 H 370.296 1.11113 -3.55961 0
M  V30 3879 N 372.481 1.55866 -0.233164 0
M  V30 3880 C 373.73 1.97779 0.39579 0
M  V30 3881 C 374.043 1.12419 1.60066 0
M  V30 3882 O 375.249 1.44283 2.29988 0
M  V30 3883 C 373.705 3.5188 0.755556 0
M  V30 3884 C 373.313 4.45959 -0.427152 0
M  V30 3885 C 375.057 4.02479 1.34946 0
M  V30 3886 C 372.964 5.91383 -0.0443043 0
M  V30 3887 H 371.894 0.738592 0.15165 0
M  V30 3888 H 374.545 1.80486 -0.331212 0
M  V30 3889 H 372.927 3.64816 1.5403 0
M  V30 3890 H 374.101 4.44776 -1.20462 0
M  V30 3891 H 372.416 4.05765 -0.935068 0
M  V30 3892 H 375.013 5.08637 1.649 0
M  V30 3893 H 375.356 3.49014 2.26925 0
M  V30 3894 H 375.889 3.92813 0.62791 0
M  V30 3895 H 372.628 6.48857 -0.930874 0
M  V30 3896 H 372.148 5.95734 0.697238 0
M  V30 3897 H 373.827 6.45893 0.378334 0
M  V30 3898 N 373.959 -0.0401083 1.57549 0
M  V30 3899 C 375.37 -0.588097 1.77196 0
M  V30 3900 C 375.721 -1.76209 0.862832 0
M  V30 3901 O 374.846 -2.16331 0.0548389 0
M  V30 3902 C 375.441 -1.07363 3.21339 0
M  V30 3903 C 374 -1.56723 3.42221 0
M  V30 3904 C 373.147 -0.50041 2.72747 0
M  V30 3905 H 376.098 0.186119 1.57605 0
M  V30 3906 H 376.119 -1.94143 3.27244 0
M  V30 3907 H 375.631 -0.218975 3.87482 0
M  V30 3908 H 373.732 -2.4441 2.81237 0
M  V30 3909 H 373.845 -1.62234 4.50796 0
M  V30 3910 H 372.209 -0.952894 2.36203 0
M  V30 3911 H 372.992 0.344599 3.41566 0
M  V30 3912 N 375.437 -1.54477 -0.31217 0
M  V30 3913 C 376.665 -1.77205 -1.068 0
M  V30 3914 C 377.08 -0.526114 -1.81321 0
M  V30 3915 O 376.437 0.503647 -1.75413 0
M  V30 3916 C 376.488 -2.97253 -2.05725 0
M  V30 3917 O 376.209 -4.1703 -1.34228 0
M  V30 3918 C 377.71 -3.32281 -2.93435 0
M  V30 3919 H 374.93 -0.591287 -0.317208 0
M  V30 3920 H 377.474 -2.01398 -0.354834 0
M  V30 3921 H 375.629 -2.753 -2.72559 0
M  V30 3922 H 376.043 -4.84636 -2.00571 0
M  V30 3923 H 377.517 -4.19551 -3.58721 0
M  V30 3924 H 377.994 -2.49945 -3.61143 0
M  V30 3925 H 378.6 -3.56353 -2.32147 0
M  V30 3926 N 376.915 0.57481 -1.46744 0
M  V30 3927 C 378.143 1.35856 -1.56047 0
M  V30 3928 C 378.558 1.87691 -0.204365 0
M  V30 3929 O 377.915 1.64049 0.79963 0
M  V30 3930 C 377.966 2.54066 -2.57163 0
M  V30 3931 O 377.687 2.04377 -3.87507 0
M  V30 3932 C 379.188 3.46514 -2.76483 0
M  V30 3933 H 376.408 0.414754 -0.527466 0
M  V30 3934 H 378.952 0.698035 -1.92218 0
M  V30 3935 H 377.107 3.16092 -2.23974 0
M  V30 3936 H 377.521 2.81419 -4.4261 0
M  V30 3937 H 378.995 4.25919 -3.51137 0
M  V30 3938 H 379.472 3.98951 -1.83671 0
M  V30 3939 H 380.078 2.90318 -3.10799 0
M  V30 3940 N 378.394 1.34581 0.820102 0
M  V30 3941 C 379.622 1.3018 1.60813 0
M  V30 3942 C 380.037 -0.123551 1.88395 0
M  V30 3943 O 379.394 -1.07148 1.47735 0
M  V30 3944 C 379.445 2.09312 2.94739 0
M  V30 3945 O 379.166 3.46288 2.68358 0
M  V30 3946 C 380.667 2.1234 3.89136 0
M  V30 3947 H 377.887 0.447726 0.499782 0
M  V30 3948 H 380.431 1.77237 1.02017 0
M  V30 3949 H 378.586 1.65889 3.50085 0
M  V30 3950 H 379 3.87227 3.53774 0
M  V30 3951 H 380.474 2.72126 4.80262 0
M  V30 3952 H 380.951 1.11854 4.24718 0
M  V30 3953 H 381.557 2.55864 3.39726 0
M  V30 3954 N 379.872 -1.04064 1.18357 0
M  V30 3955 C 381.121 -1.76662 0.973313 0
M  V30 3956 C 381.434 -1.89154 -0.497991 0
M  V30 3957 O 382.64 -2.58606 -0.826762 0
M  V30 3958 C 381.096 -3.17624 1.69242 0
M  V30 3959 C 380.704 -3.13225 3.20303 0
M  V30 3960 C 382.448 -3.946 1.56497 0
M  V30 3961 C 380.355 -4.49046 3.84853 0
M  V30 3962 H 379.285 -0.662214 0.36054 0
M  V30 3963 H 381.936 -1.16553 1.41731 0
M  V30 3964 H 380.318 -3.78129 1.1762 0
M  V30 3965 H 381.492 -2.62172 3.78949 0
M  V30 3966 H 379.807 -2.49749 3.33189 0
M  V30 3967 H 382.404 -4.95042 2.02084 0
M  V30 3968 H 382.747 -4.13074 0.517243 0
M  V30 3969 H 383.28 -3.4067 2.05399 0
M  V30 3970 H 380.019 -4.35777 4.89672 0
M  V30 3971 H 379.539 -5.00203 3.30994 0
M  V30 3972 H 381.218 -5.17961 3.87718 0
M  V30 3973 N 381.35 -0.985608 -1.22978 0
M  V30 3974 C 382.766 -0.695104 -1.43668 0
M  V30 3975 C 382.966 0.736866 -1.87543 0
M  V30 3976 O 382.022 1.50868 -2.02473 0
M  V30 3977 C 383.335 -1.69447 -2.48412 0
M  V30 3978 C 384.883 -1.70909 -2.62219 0
M  V30 3979 C 385.358 -2.6969 -3.70178 0
M  V30 3980 N 386.849 -2.6824 -3.77626 0
M  V30 3981 C 387.584 -3.41339 -4.60733 0
M  V30 3982 N 387.08 -4.24015 -5.4789 0
M  V30 3983 N 388.873 -3.30079 -4.54977 0
M  V30 3984 H 381.024 -1.91054 -0.928016 0
M  V30 3985 H 383.287 -0.823553 -0.469536 0
M  V30 3986 H 382.993 -2.7188 -2.23102 0
M  V30 3987 H 382.867 -1.48147 -3.46889 0
M  V30 3988 H 385.254 -0.691785 -2.86877 0
M  V30 3989 H 385.335 -1.96276 -1.6404 0
M  V30 3990 H 384.979 -3.71566 -3.46268 0
M  V30 3991 H 384.909 -2.41595 -4.67909 0
M  V30 3992 H 387.4 -2.08243 -3.15346 0
M  V30 3993 H 387.713 -4.76636 -6.08308 0
M  V30 3994 H 386.058 -4.28104 -5.47496 0
M  V30 3995 H 389.249 -2.64937 -3.85909 0
M  V30 3996 H 389.422 -3.87308 -5.19516 0
M  V30 3997 N 382.828 1.3818 -0.7579 0
M  V30 3998 C 384.244 1.5353 -0.435972 0
M  V30 3999 C 384.444 1.71961 1.05032 0
M  V30 4000 O 383.5 1.73307 1.83633 0
M  V30 4001 C 384.813 2.73989 -1.23898 0
M  V30 4002 C 386.361 2.87841 -1.22949 0
M  V30 4003 C 386.836 4.11266 -2.01554 0
M  V30 4004 N 388.327 4.18352 -1.98837 0
M  V30 4005 C 389.062 5.12856 -2.5645 0
M  V30 4006 N 388.558 6.13005 -3.22794 0
M  V30 4007 N 390.351 5.05238 -2.46356 0
M  V30 4008 H 382.502 1.24467 -1.7211 0
M  V30 4009 H 384.765 0.604982 -0.729864 0
M  V30 4010 H 384.471 2.66789 -2.29165 0
M  V30 4011 H 384.345 3.67294 -0.858764 0
M  V30 4012 H 386.732 2.9452 -0.184854 0
M  V30 4013 H 386.813 1.95534 -1.64924 0
M  V30 4014 H 386.457 4.05349 -3.06031 0
M  V30 4015 H 386.387 5.02661 -1.5697 0
M  V30 4016 H 388.878 3.46628 -1.50524 0
M  V30 4017 H 389.191 6.81619 -3.64165 0
M  V30 4018 H 387.536 6.13325 -3.2689 0
M  V30 4019 H 390.727 4.25938 -1.9415 0
M  V30 4020 H 390.9 5.78707 -2.91552 0
M  V30 4021 N 384.306 0.507319 1.49211 0
M  V30 4022 C 385.256 -0.287112 2.26185 0
M  V30 4023 C 386.24 -0.929983 1.31302 0
M  V30 4024 O 387.432 -0.836538 1.55984 0
M  V30 4025 C 384.561 -1.34718 3.15763 0
M  V30 4026 C 383.647 -0.710235 4.18111 0
M  V30 4027 N 384.038 0.190836 5.0544 0
M  V30 4028 C 382.336 -0.97009 4.35322 0
M  V30 4029 C 383.037 0.55606 5.79036 0
M  V30 4030 N 382.013 -0.0775232 5.43545 0
M  V30 4031 H 385.815 0.406445 2.91076 0
M  V30 4032 H 383.329 0.323814 1.59139 0
M  V30 4033 H 385.326 -1.92982 3.69545 0
M  V30 4034 H 383.986 -2.04235 2.52424 0
M  V30 4035 H 384.997 0.562047 5.14841 0
M  V30 4036 H 381.674 -1.65753 3.83187 0
M  V30 4037 H 383.064 1.2936 6.5933 0
M  V30 4038 N 385.784 -1.5574 0.241426 0
M  V30 4039 C 387.03 -1.99104 -0.385406 0
M  V30 4040 C 387.363 -1.1293 -1.57988 0
M  V30 4041 O 386.638 -0.191449 -1.93555 0
M  V30 4042 C 386.921 -3.51087 -0.800616 0
M  V30 4043 C 386.774 -4.48028 0.398874 0
M  V30 4044 C 388.093 -4.08015 -1.64959 0
M  V30 4045 H 385.212 -0.723848 -0.138614 0
M  V30 4046 H 387.854 -1.86903 0.341642 0
M  V30 4047 H 386.004 -3.61615 -1.4201 0
M  V30 4048 H 387.676 -4.49487 1.03726 0
M  V30 4049 H 385.919 -4.21077 1.04293 0
M  V30 4050 H 386.59 -5.51962 0.0651056 0
M  V30 4051 H 389.066 -4.00555 -1.12672 0
M  V30 4052 H 387.942 -5.14635 -1.90898 0
M  V30 4053 H 388.203 -3.56131 -2.61961 0
M  V30 4054 N 387.262 0.0317525 -1.57568 0
M  V30 4055 C 388.539 0.758366 -1.803 0
M  V30 4056 C 388.919 1.93718 -0.838845 0
M  V30 4057 O 388.267 2.28187 0.119571 0
M  V30 4058 C 388.477 1.19392 -3.27943 0
M  V30 4059 C 389.825 1.61094 -3.92854 0
M  V30 4060 O 390.849 1.28857 -3.32076 0
M  V30 4061 O 389.708 2.20918 -4.99858 0
M  V30 4062 H 386.802 0.366514 -0.741348 0
M  V30 4063 H 389.348 0.00873765 -1.69698 0
M  V30 4064 H 388.12 0.352275 -3.89711 0
M  V30 4065 H 387.743 2.00365 -3.43424 0
M  V30 4066 N 388.74 1.54641 0.303973 0
M  V30 4067 C 389.67 1.88386 1.3796 0
M  V30 4068 C 390.651 0.742485 1.5304 0
M  V30 4069 O 391.836 0.997959 1.66597 0
M  V30 4070 C 388.966 2.12854 2.74427 0
M  V30 4071 C 387.92 3.28702 2.74115 0
M  V30 4072 C 387.246 3.38582 4.13844 0
M  V30 4073 C 388.546 4.65881 2.3612 0
M  V30 4074 H 390.24 2.78474 1.09966 0
M  V30 4075 H 387.786 1.33988 0.527556 0
M  V30 4076 H 389.739 2.35047 3.49758 0
M  V30 4077 H 388.463 1.19535 3.03939 0
M  V30 4078 H 387.122 3.06428 2.0124 0
M  V30 4079 H 386.77 2.42784 4.40528 0
M  V30 4080 H 386.47 4.16453 4.14537 0
M  V30 4081 H 387.994 3.63031 4.90959 0
M  V30 4082 H 389.408 4.87823 3.01167 0
M  V30 4083 H 387.805 5.46444 2.48031 0
M  V30 4084 H 388.875 4.66799 1.3125 0
M  V30 4085 N 390.218 -0.567019 1.47046 0
M  V30 4086 C 391.148 -1.68482 1.61667 0
M  V30 4087 C 392.129 -1.6358 0.466418 0
M  V30 4088 O 393.314 -1.81354 0.694574 0
M  V30 4089 C 390.444 -3.07124 1.62148 0
M  V30 4090 C 389.398 -3.26867 2.76301 0
M  V30 4091 C 388.724 -4.66196 2.61849 0
M  V30 4092 C 390.024 -3.13186 4.17986 0
M  V30 4093 H 391.718 -1.56502 2.5524 0
M  V30 4094 H 389.264 -0.751486 1.22836 0
M  V30 4095 H 391.217 -3.8516 1.70968 0
M  V30 4096 H 389.941 -3.2004 0.651287 0
M  V30 4097 H 388.6 -2.51237 2.66975 0
M  V30 4098 H 388.248 -4.75898 1.62879 0
M  V30 4099 H 387.948 -4.80356 3.38425 0
M  V30 4100 H 389.472 -5.46379 2.72584 0
M  V30 4101 H 390.886 -3.81049 4.2834 0
M  V30 4102 H 389.283 -3.3886 4.95272 0
M  V30 4103 H 390.353 -2.10057 4.3704 0
M  V30 4104 N 391.696 -1.35014 -0.812953 0
M  V30 4105 C 392.942 -1.2812 -1.57204 0
M  V30 4106 C 393.275 0.145869 -1.93651 0
M  V30 4107 O 392.55 1.0937 -1.60836 0
M  V30 4108 C 392.833 -2.18162 -2.86492 0
M  V30 4109 C 392.686 -3.69454 -2.56561 0
M  V30 4110 C 394.005 -2.07439 -3.88145 0
M  V30 4111 H 391.124 -0.466746 -0.570366 0
M  V30 4112 H 393.766 -1.65357 -0.935783 0
M  V30 4113 H 391.916 -1.86535 -3.40789 0
M  V30 4114 H 393.588 -4.11493 -2.08497 0
M  V30 4115 H 391.831 -3.9005 -1.89851 0
M  V30 4116 H 392.502 -4.27835 -3.48799 0
M  V30 4117 H 394.978 -2.35228 -3.4323 0
M  V30 4118 H 393.854 -2.7265 -4.76396 0
M  V30 4119 H 394.115 -1.05439 -4.29343 0
M  V30 4120 N 393.175 1.03435 -1.18907 0
M  V30 4121 C 394.423 1.76394 -0.986382 0
M  V30 4122 C 394.744 1.88883 0.484567 0
M  V30 4123 O 394.014 1.41843 1.3512 0
M  V30 4124 H 392.594 0.65344 -0.361975 0
M  V30 4125 H 395.256 1.248 -1.49703 0
M  V30 4126 H 394.352 2.77424 -1.42978 0
M  V30 4127 N 394.653 0.992116 1.22453 0
M  V30 4128 C 395.616 0.546883 2.2258 0
M  V30 4129 C 396.616 -0.369829 1.56489 0
M  V30 4130 O 397.806 -0.161896 1.73446 0
M  V30 4131 C 394.938 -0.204659 3.40285 0
M  V30 4132 H 396.131 1.43234 2.63484 0
M  V30 4133 H 393.684 0.779239 1.3549 0
M  V30 4134 H 394.419 -1.10614 3.04853 0
M  V30 4135 H 394.204 0.45354 3.89468 0
M  V30 4136 H 395.694 -0.504358 4.14543 0
M  V30 4137 N 396.131 -1.37776 0.765217 0
M  V30 4138 C 397.094 -2.28686 0.153416 0
M  V30 4139 C 398.094 -1.47727 -0.635081 0
M  V30 4140 O 399.284 -1.68027 -0.459632 0
M  V30 4141 C 396.416 -3.31608 -0.790495 0
M  V30 4142 H 397.609 -2.84297 0.954723 0
M  V30 4143 H 395.162 -1.46932 0.53299 0
M  V30 4144 H 395.897 -2.81109 -1.61705 0
M  V30 4145 H 395.682 -3.9144 -0.227348 0
M  V30 4146 H 397.172 -3.99559 -1.21419 0
M  V30 4147 N 397.609 -0.515225 -1.4894 0
M  V30 4148 C 398.572 0.244681 -2.2789 0
M  V30 4149 C 399.572 0.881166 -1.34507 0
M  V30 4150 O 400.762 0.743497 -1.57537 0
M  V30 4151 C 397.894 1.35247 -3.12923 0
M  V30 4152 H 399.087 -0.448289 -2.96531 0
M  V30 4153 H 396.64 -0.270656 -1.53939 0
M  V30 4154 H 397.375 2.07916 -2.48881 0
M  V30 4155 H 397.16 0.901374 -3.81599 0
M  V30 4156 H 398.65 1.88737 -3.72516 0
M  V30 4157 N 399.087 1.5561 -0.249682 0
M  V30 4158 C 400.017 2.24477 0.642826 0
M  V30 4159 C 400.998 1.22601 1.17911 0
M  V30 4160 O 402.183 1.5126 1.21795 0
M  V30 4161 C 399.313 2.94638 1.83863 0
M  V30 4162 C 398.267 4.03227 1.435 0
M  V30 4163 C 397.593 4.60828 2.71186 0
M  V30 4164 C 398.893 5.18796 0.604002 0
M  V30 4165 H 400.587 2.99321 0.0685625 0
M  V30 4166 H 398.133 1.43965 0.0315363 0
M  V30 4167 H 400.086 3.41517 2.46868 0
M  V30 4168 H 398.81 2.17287 2.43832 0
M  V30 4169 H 397.469 3.57121 0.828275 0
M  V30 4170 H 397.117 3.80174 3.29358 0
M  V30 4171 H 396.817 5.34132 2.44901 0
M  V30 4172 H 398.341 5.10442 3.35084 0
M  V30 4173 H 399.755 5.61883 1.13842 0
M  V30 4174 H 398.152 5.98506 0.437097 0
M  V30 4175 H 399.222 4.83384 -0.383147 0
M  V30 4176 N 400.565 -0.0233959 1.57583 0
M  V30 4177 C 401.805 -0.71784 1.9138 0
M  V30 4178 C 402.169 -1.72216 0.848853 0
M  V30 4179 O 403.37 -2.46527 1.07134 0
M  V30 4180 C 401.641 -1.36489 3.30311 0
M  V30 4181 S 403.2 -2.0877 3.85954 0
M  V30 4182 H 400.018 -0.237676 0.670098 0
M  V30 4183 H 402.62 0.0276709 1.9548 0
M  V30 4184 H 401.324 -0.620782 4.05678 0
M  V30 4185 H 400.855 -2.14883 3.29528 0
M  V30 4186 H 402.87 -3.35988 3.65139 0
M  V30 4187 N 402.043 -1.548 -0.295768 0
M  V30 4188 C 403.268 -1.78653 -1.05346 0
M  V30 4189 C 403.693 -0.546894 -1.79974 0
M  V30 4190 O 403.051 0.502763 -1.7419 0
M  V30 4191 C 403.099 -2.99679 -2.00561 0
M  V30 4192 O 402.203 -2.7317 -3.08953 0
M  V30 4193 H 401.544 -0.59116 -0.302367 0
M  V30 4194 H 404.074 -2.01895 -0.331598 0
M  V30 4195 H 404.084 -3.27793 -2.42932 0
M  V30 4196 H 402.759 -3.89562 -1.4565 0
M  V30 4197 H 401.336 -2.56089 -2.71059 0
M  V30 4198 N 403.521 0.559213 -1.47345 0
M  V30 4199 C 404.484 1.64854 -1.59235 0
M  V30 4200 C 405.484 1.53851 -0.467607 0
M  V30 4201 O 406.674 1.58045 -0.732617 0
M  V30 4202 C 403.806 3.04388 -1.53496 0
M  V30 4203 H 404.999 1.55662 -2.56339 0
M  V30 4204 H 402.552 0.778973 -1.35505 0
M  V30 4205 H 403.287 3.19115 -0.577604 0
M  V30 4206 H 403.072 3.13783 -2.35123 0
M  V30 4207 H 404.562 3.83642 -1.6495 0
M  V30 4208 N 404.999 1.35443 0.805782 0
M  V30 4209 C 405.932 1.22783 1.92353 0
M  V30 4210 C 406.91 0.115543 1.62189 0
M  V30 4211 O 408.094 0.283778 1.86352 0
M  V30 4212 C 405.221 0.890746 3.26777 0
M  V30 4213 C 404.267 2.01519 3.75889 0
M  V30 4214 S 405.1 3.63101 3.93596 0
M  V30 4215 C 406.256 3.31472 5.30921 0
M  V30 4216 H 406.489 2.17394 2.02798 0
M  V30 4217 H 404.022 1.20669 0.963245 0
M  V30 4218 H 405.98 0.703068 4.04434 0
M  V30 4219 H 404.641 -0.0373152 3.14078 0
M  V30 4220 H 403.834 1.7335 4.7325 0
M  V30 4221 H 403.436 2.16124 3.05231 0
M  V30 4222 H 405.728 2.8435 6.1494 0
M  V30 4223 H 406.671 4.28036 5.64084 0
M  V30 4224 H 407.079 2.67221 4.97246 0
M  V30 4225 N 406.477 -1.02803 1.19454 0
M  V30 4226 C 407.707 -1.79581 1.02149 0
M  V30 4227 C 408.115 -1.84182 -0.432851 0
M  V30 4228 O 407.458 -1.28534 -1.31243 0
M  V30 4229 C 407.52 -3.25993 1.51554 0
M  V30 4230 C 407.184 -3.45025 2.99678 0
M  V30 4231 C 408.181 -3.35175 3.97434 0
M  V30 4232 C 405.866 -3.71212 3.38389 0
M  V30 4233 C 407.86 -3.51238 5.31893 0
M  V30 4234 C 405.547 -3.8692 4.73008 0
M  V30 4235 C 406.545 -3.76936 5.69569 0
M  V30 4236 O 406.233 -3.92179 7.01748 0
M  V30 4237 H 405.965 -0.571962 0.360327 0
M  V30 4238 H 408.519 -1.30367 1.58725 0
M  V30 4239 H 406.749 -3.76235 0.893543 0
M  V30 4240 H 408.438 -3.84368 1.30444 0
M  V30 4241 H 409.204 -3.14895 3.68872 0
M  V30 4242 H 405.083 -3.78075 2.6378 0
M  V30 4243 H 408.627 -3.43362 6.07247 0
M  V30 4244 H 404.524 -4.06699 5.01265 0
M  V30 4245 H 405.292 -4.09265 7.08833 0
M  V30 4246 N 407.956 -0.998596 -1.21925 0
M  V30 4247 C 409.202 -0.678667 -1.91107 0
M  V30 4248 C 409.535 0.78791 -1.77498 0
M  V30 4249 O 408.81 1.57043 -1.1475 0
M  V30 4250 C 409.093 -1.09245 -3.43129 0
M  V30 4251 C 408.946 -2.61801 -3.6576 0
M  V30 4252 C 410.265 -0.649984 -4.35274 0
M  V30 4253 H 407.384 -0.248025 -0.694012 0
M  V30 4254 H 410.026 -1.24314 -1.43688 0
M  V30 4255 H 408.176 -0.612171 -3.83647 0
M  V30 4256 H 409.848 -3.17543 -3.34611 0
M  V30 4257 H 408.091 -3.03609 -3.09845 0
M  V30 4258 H 408.762 -2.85804 -4.7225 0
M  V30 4259 H 411.238 -1.0626 -4.02303 0
M  V30 4260 H 410.114 -0.967743 -5.40302 0
M  V30 4261 H 410.375 0.449139 -4.39813 0
M  V30 4262 N 409.434 1.37368 -0.772513 0
M  V30 4263 C 410.682 1.99279 -0.336516 0
M  V30 4264 C 411.003 1.6163 1.09091 0
M  V30 4265 O 410.273 0.882109 1.74916 0
M  V30 4266 H 408.853 0.737063 -0.121435 0
M  V30 4267 H 411.515 1.67836 -0.990809 0
M  V30 4268 H 410.611 3.09332 -0.414763 0
M  V30 4269 N 410.912 0.523116 1.48665 0
M  V30 4270 C 412.189 -0.0775449 1.95446 0
M  V30 4271 C 412.569 -1.5197 1.4652 0
M  V30 4272 O 411.917 -2.17876 0.688657 0
M  V30 4273 C 412.127 0.0326135 3.48985 0
M  V30 4274 C 413.475 -0.130141 4.24401 0
M  V30 4275 O 414.499 -0.0415142 3.56176 0
M  V30 4276 O 413.358 -0.31491 5.45592 0
M  V30 4277 H 410.452 -0.0831012 0.822814 0
M  V30 4278 H 412.998 0.587227 1.59216 0
M  V30 4279 H 411.77 1.03748 3.77296 0
M  V30 4280 H 411.393 -0.671317 3.91892 0
M  V30 4281 N 412.39 -1.55475 0.257931 0
M  V30 4282 C 413.32 -2.24815 -0.630912 0
M  V30 4283 C 414.301 -1.23224 -1.17259 0
M  V30 4284 O 415.486 -1.51904 -1.20991 0
M  V30 4285 C 412.616 -2.95609 -1.82298 0
M  V30 4286 C 411.57 -4.03982 -1.41359 0
M  V30 4287 C 410.896 -4.6226 -2.68738 0
M  V30 4288 C 412.196 -5.19109 -0.57648 0
M  V30 4289 H 413.89 -2.99354 -0.0526878 0
M  V30 4290 H 411.436 -1.4398 -0.023901 0
M  V30 4291 H 413.389 -3.42822 -2.45054 0
M  V30 4292 H 412.113 -2.18577 -2.42676 0
M  V30 4293 H 410.772 -3.57555 -0.809324 0
M  V30 4294 H 410.42 -3.81915 -3.27338 0
M  V30 4295 H 410.12 -5.35424 -2.42065 0
M  V30 4296 H 411.644 -5.12212 -3.32372 0
M  V30 4297 H 413.058 -5.62479 -1.10861 0
M  V30 4298 H 411.455 -5.98729 -0.405351 0
M  V30 4299 H 412.525 -4.83174 0.408776 0
M  V30 4300 N 413.868 0.0150385 -1.57593 0
M  V30 4301 C 415.108 0.70768 -1.91758 0
M  V30 4302 C 415.472 1.71764 -0.857974 0
M  V30 4303 O 416.673 2.45956 -1.0844 0
M  V30 4304 C 414.944 1.34736 -3.3103 0
M  V30 4305 S 416.503 2.06721 -3.87056 0
M  V30 4306 H 413.321 0.234119 -0.671349 0
M  V30 4307 H 415.923 -0.0380373 -1.95463 0
M  V30 4308 H 414.627 0.59926 -4.06001 0
M  V30 4309 H 414.158 2.13133 -3.30663 0
M  V30 4310 H 416.173 3.34047 -3.66915 0
M  V30 4311 N 415.346 1.54954 0.287554 0
M  V30 4312 C 416.594 1.74528 1.01904 0
M  V30 4313 C 416.915 0.541349 1.87335 0
M  V30 4314 O 416.185 -0.444108 1.908 0
M  V30 4315 H 414.765 0.643576 0.379235 0
M  V30 4316 H 417.427 1.92333 0.315294 0
M  V30 4317 H 416.523 2.64015 1.6644 0
M  V30 4318 N 416.824 -0.551391 1.4764 0
M  V30 4319 C 418.049 -1.33837 1.58437 0
M  V30 4320 C 418.474 -1.866 0.237063 0
M  V30 4321 O 417.832 -1.6328 -0.787994 0
M  V30 4322 C 417.88 -2.48014 2.61766 0
M  V30 4323 O 416.984 -3.50419 2.1744 0
M  V30 4324 H 416.325 -0.397299 0.532024 0
M  V30 4325 H 418.855 -0.665759 1.93465 0
M  V30 4326 H 418.865 -2.94503 2.82369 0
M  V30 4327 H 417.54 -2.08969 3.5959 0
M  V30 4328 H 416.117 -3.10196 2.06961 0
M  V30 4329 N 418.302 -1.35869 -0.798587 0
M  V30 4330 C 419.548 -1.2978 -1.55836 0
M  V30 4331 C 419.881 0.125322 -1.93795 0
M  V30 4332 O 419.156 1.07658 -1.61987 0
M  V30 4333 C 419.439 -2.21188 -2.84162 0
M  V30 4334 C 419.292 -3.72155 -2.52628 0
M  V30 4335 C 420.611 -2.11545 -3.85923 0
M  V30 4336 H 417.73 -0.472769 -0.565383 0
M  V30 4337 H 420.372 -1.66341 -0.918192 0
M  V30 4338 H 418.522 -1.90139 -3.38791 0
M  V30 4339 H 420.194 -4.13682 -2.04121 0
M  V30 4340 H 418.437 -3.92042 -1.85704 0
M  V30 4341 H 419.108 -4.31511 -3.44242 0
M  V30 4342 H 421.584 -2.38855 -3.40716 0
M  V30 4343 H 420.46 -2.77688 -4.73477 0
M  V30 4344 H 420.721 -1.09987 -4.282 0
M  V30 4345 N 419.78 1.02168 -1.19998 0
M  V30 4346 C 421.027 1.75685 -1.00702 0
M  V30 4347 C 421.355 1.88947 0.461426 0
M  V30 4348 O 420.61 1.40832 1.35885 0
M  V30 4349 C 420.909 3.18081 -1.62969 0
M  V30 4350 C 420.575 3.24809 -3.12746 0
M  V30 4351 C 419.237 3.26352 -3.53621 0
M  V30 4352 C 421.589 3.23379 -4.08749 0
M  V30 4353 C 418.917 3.2413 -4.89036 0
M  V30 4354 C 421.269 3.22698 -5.44104 0
M  V30 4355 C 419.933 3.22542 -5.84399 0
M  V30 4356 H 419.203 0.642877 -0.368496 0
M  V30 4357 H 421.85 1.19865 -1.49348 0
M  V30 4358 H 420.155 3.77027 -1.06573 0
M  V30 4359 H 421.852 3.73648 -1.45561 0
M  V30 4360 H 418.442 3.2434 -2.80181 0
M  V30 4361 H 422.626 3.21361 -3.78207 0
M  V30 4362 H 417.882 3.22338 -5.19527 0
M  V30 4363 H 422.056 3.20543 -6.18244 0
M  V30 4364 H 419.683 3.20575 -6.89301 0
M  V30 4365 N 421.258 1.00505 1.21394 0
M  V30 4366 C 422.188 0.585684 2.26035 0
M  V30 4367 C 423.169 -0.393525 1.65485 0
M  V30 4368 O 424.354 -0.281497 1.92149 0
M  V30 4369 C 421.484 -0.0884283 3.47187 0
M  V30 4370 C 420.438 0.810567 4.20254 0
M  V30 4371 C 419.764 0.00286382 5.347 0
M  V30 4372 C 421.064 2.1132 4.77641 0
M  V30 4373 H 422.758 1.46039 2.61368 0
M  V30 4374 H 420.304 0.703648 1.25638 0
M  V30 4375 H 422.257 -0.393286 4.19561 0
M  V30 4376 H 420.981 -0.997766 3.10986 0
M  V30 4377 H 419.64 1.09925 3.49731 0
M  V30 4378 H 419.288 -0.907765 4.94741 0
M  V30 4379 H 418.988 0.601444 5.84514 0
M  V30 4380 H 420.512 -0.295808 6.09883 0
M  V30 4381 H 421.926 1.87148 5.41893 0
M  V30 4382 H 420.323 2.66164 5.37845 0
M  V30 4383 H 421.393 2.78393 3.9702 0
M  V30 4384 N 422.737 -1.36956 0.779787 0
M  V30 4385 C 423.983 -1.99787 0.348281 0
M  V30 4386 C 424.316 -1.61756 -1.07465 0
M  V30 4387 O 423.591 -0.867639 -1.74075 0
M  V30 4388 C 423.874 -3.56597 0.50104 0
M  V30 4389 C 423.727 -4.04513 1.96697 0
M  V30 4390 C 425.046 -4.40008 -0.0898097 0
M  V30 4391 H 422.165 -0.725796 0.128022 0
M  V30 4392 H 424.807 -1.62514 0.984331 0
M  V30 4393 H 422.957 -3.88479 -0.0404347 0
M  V30 4394 H 424.629 -3.83161 2.56876 0
M  V30 4395 H 422.872 -3.56408 2.47297 0
M  V30 4396 H 423.543 -5.1352 2.02486 0
M  V30 4397 H 426.019 -4.14431 0.372293 0
M  V30 4398 H 424.895 -5.4888 0.0471605 0
M  V30 4399 H 425.156 -4.26035 -1.18096 0
M  V30 4400 N 424.215 -0.530993 -1.48385 0
M  V30 4401 C 425.44 0.000729535 -2.074 0
M  V30 4402 C 425.865 1.27298 -1.3848 0
M  V30 4403 O 425.223 1.75599 -0.451081 0
M  V30 4404 C 425.271 0.206697 -3.60007 0
M  V30 4405 O 424.375 1.27514 -3.92191 0
M  V30 4406 H 423.716 -0.039583 -0.662819 0
M  V30 4407 H 426.246 -0.739194 -1.9078 0
M  V30 4408 H 426.256 0.42904 -4.05738 0
M  V30 4409 H 424.931 -0.722675 -4.09573 0
M  V30 4410 H 423.508 1.03537 -3.58238 0
M  V30 4411 N 425.693 1.55336 -0.266172 0
M  V30 4412 C 426.625 2.19544 0.658247 0
M  V30 4413 C 427.638 1.17746 1.12427 0
M  V30 4414 O 428.827 1.44517 1.04772 0
M  V30 4415 C 425.927 2.80032 1.9088 0
M  V30 4416 C 425.1 4.07436 1.59106 0
M  V30 4417 C 424.159 4.52056 2.69317 0
M  V30 4418 O 423.185 5.18023 2.35883 0
M  V30 4419 N 424.387 4.21448 3.99201 0
M  V30 4420 H 427.152 2.99503 0.108754 0
M  V30 4421 H 424.713 1.61667 -0.0869059 0
M  V30 4422 H 426.705 3.06831 2.63888 0
M  V30 4423 H 425.275 2.04119 2.36758 0
M  V30 4424 H 424.495 3.88021 0.695243 0
M  V30 4425 H 425.783 4.90462 1.35367 0
M  V30 4426 H 425.181 3.68528 4.29189 0
M  V30 4427 H 423.738 4.53039 4.68614 0
M  V30 4428 N 427.171 -0.0066808 1.57599 0
M  V30 4429 C 428.101 -0.999296 2.11036 0
M  V30 4430 C 429.082 -1.36278 1.01795 0
M  V30 4431 O 430.267 -1.4477 1.29442 0
M  V30 4432 C 427.397 -2.29328 2.60818 0
M  V30 4433 C 426.351 -2.07159 3.74525 0
M  V30 4434 C 425.677 -3.42512 4.10596 0
M  V30 4435 C 426.977 -1.43959 5.02069 0
M  V30 4436 H 428.671 -0.554382 2.94223 0
M  V30 4437 H 426.217 -0.265221 1.41536 0
M  V30 4438 H 428.17 -2.99117 2.96828 0
M  V30 4439 H 426.894 -2.7592 1.74745 0
M  V30 4440 H 425.553 -1.39797 3.38899 0
M  V30 4441 H 425.201 -3.86795 3.21556 0
M  V30 4442 H 424.901 -3.28498 4.87199 0
M  V30 4443 H 426.425 -4.13628 4.4916 0
M  V30 4444 H 427.839 -2.03696 5.35893 0
M  V30 4445 H 426.236 -1.40452 5.83432 0
M  V30 4446 H 427.306 -0.407992 4.83181 0
M  V30 4447 N 428.649 -1.55105 -0.279332 0
M  V30 4448 C 429.896 -1.75412 -1.01177 0
M  V30 4449 C 430.224 -0.551728 -1.86511 0
M  V30 4450 O 429.479 0.465919 -1.90073 0
M  V30 4451 C 429.778 -3.0086 -1.92919 0
M  V30 4452 C 429.444 -4.33689 -1.23387 0
M  V30 4453 C 428.106 -4.69792 -1.04159 0
M  V30 4454 C 430.458 -5.15941 -0.738562 0
M  V30 4455 C 427.786 -5.85707 -0.341166 0
M  V30 4456 C 430.138 -6.32579 -0.0517636 0
M  V30 4457 C 428.802 -6.67326 0.152292 0
M  V30 4458 H 428.072 -0.641879 -0.370233 0
M  V30 4459 H 430.719 -1.89373 -0.284627 0
M  V30 4460 H 429.024 -2.81773 -2.72234 0
M  V30 4461 H 430.721 -3.13768 -2.49701 0
M  V30 4462 H 427.311 -4.05309 -1.39364 0
M  V30 4463 H 431.495 -4.8853 -0.874764 0
M  V30 4464 H 426.751 -6.11157 -0.172287 0
M  V30 4465 H 430.925 -6.9557 0.339828 0
M  V30 4466 H 428.552 -7.56998 0.697014 0
M  V30 4467 N 430.127 0.543554 -1.4793 0
M  V30 4468 C 431.355 1.32516 -1.58894 0
M  V30 4469 C 431.77 1.87215 -0.244131 0
M  V30 4470 O 431.127 1.65709 0.764652 0
M  V30 4471 C 431.178 2.48554 -2.62494 0
M  V30 4472 O 430.899 1.96112 -3.91755 0
M  V30 4473 C 432.4 3.40572 -2.8377 0
M  V30 4474 H 429.62 0.403472 -0.536145 0
M  V30 4475 H 432.164 0.657106 -1.93655 0
M  V30 4476 H 430.319 3.1127 -2.30629 0
M  V30 4477 H 430.733 2.71967 -4.4848 0
M  V30 4478 H 432.207 4.18375 -3.60093 0
M  V30 4479 H 432.684 3.94965 -1.92092 0
M  V30 4480 H 433.29 2.8366 -3.16887 0
M  V30 4481 N 431.605 1.3629 0.791371 0
M  V30 4482 C 432.852 1.30412 1.54916 0
M  V30 4483 C 433.18 -0.117162 1.94147 0
M  V30 4484 O 432.435 -1.08599 1.62803 0
M  V30 4485 C 432.734 2.17068 2.8393 0
M  V30 4486 C 432.4 3.65645 2.63846 0
M  V30 4487 C 431.062 4.0614 2.58077 0
M  V30 4488 C 433.414 4.59855 2.45322 0
M  V30 4489 C 430.742 5.3899 2.31748 0
M  V30 4490 C 433.094 5.9292 2.2052 0
M  V30 4491 C 431.758 6.32542 2.13183 0
M  V30 4492 H 431.028 0.47721 0.566879 0
M  V30 4493 H 433.675 1.68325 0.913172 0
M  V30 4494 H 431.98 1.72085 3.51986 0
M  V30 4495 H 433.677 2.09846 3.4171 0
M  V30 4496 H 430.267 3.33518 2.69191 0
M  V30 4497 H 434.451 4.29443 2.48782 0
M  V30 4498 H 429.707 5.68672 2.24548 0
M  V30 4499 H 433.881 6.65487 2.05182 0
M  V30 4500 H 431.508 7.35412 1.92544 0
M  V30 4501 N 433.083 -1.0153 1.20538 0
M  V30 4502 C 434.308 -1.79283 1.04271 0
M  V30 4503 C 434.733 -1.8372 -0.403544 0
M  V30 4504 O 434.091 -1.27321 -1.2907 0
M  V30 4505 C 434.139 -3.21535 1.63241 0
M  V30 4506 O 433.243 -4.03099 0.870908 0
M  V30 4507 H 432.584 -0.55293 0.367647 0
M  V30 4508 H 435.114 -1.27696 1.59859 0
M  V30 4509 H 435.124 -3.72243 1.6703 0
M  V30 4510 H 433.799 -3.1762 2.68497 0
M  V30 4511 H 432.376 -3.61693 0.907323 0
M  V30 4512 N 434.561 -1.01147 -1.20859 0
M  V30 4513 C 435.972 -0.730205 -1.71828 0
M  V30 4514 C 436.323 0.751662 -1.8123 0
M  V30 4515 O 435.448 1.58686 -1.47132 0
M  V30 4516 C 436.043 -1.31885 -3.12077 0
M  V30 4517 C 434.602 -1.08656 -3.60376 0
M  V30 4518 C 433.749 -1.42769 -2.37723 0
M  V30 4519 H 436.7 -1.18158 -1.05945 0
M  V30 4520 H 436.721 -0.706793 -3.73878 0
M  V30 4521 H 436.233 -2.39737 -3.05201 0
M  V30 4522 H 434.334 -0.0254814 -3.72591 0
M  V30 4523 H 434.447 -1.76301 -4.45483 0
M  V30 4524 H 432.811 -0.846603 -2.40218 0
M  V30 4525 H 433.594 -2.51666 -2.33493 0
M  V30 4526 N 436.039 1.36541 -0.78704 0
M  V30 4527 C 437.455 1.52571 -0.46844 0
M  V30 4528 C 437.655 1.7415 1.01361 0
M  V30 4529 O 436.711 1.77163 1.79915 0
M  V30 4530 C 438.024 2.71299 -1.29682 0
M  V30 4531 C 439.572 2.85169 -1.29027 0
M  V30 4532 C 440.047 4.06898 -2.10233 0
M  V30 4533 N 441.538 4.1404 -2.07666 0
M  V30 4534 C 442.273 5.07301 -2.67271 0
M  V30 4535 N 441.769 6.06021 -3.35724 0
M  V30 4536 N 443.562 4.99898 -2.57018 0
M  V30 4537 H 435.713 1.20788 -1.74711 0
M  V30 4538 H 437.976 0.589364 -0.742532 0
M  V30 4539 H 437.682 2.61868 -2.34773 0
M  V30 4540 H 437.556 3.6539 -0.936479 0
M  V30 4541 H 439.943 2.94062 -0.247284 0
M  V30 4542 H 440.024 1.91992 -1.69035 0
M  V30 4543 H 439.668 3.98766 -3.1456 0
M  V30 4544 H 439.598 4.99218 -1.67597 0
M  V30 4545 H 442.089 3.43357 -1.57843 0
M  V30 4546 H 442.402 6.73741 -3.78541 0
M  V30 4547 H 440.747 6.06253 -3.39826 0
M  V30 4548 H 443.938 4.21724 -2.03142 0
M  V30 4549 H 444.111 5.72392 -3.03761 0
M  V30 4550 N 437.518 0.538854 1.48102 0
M  V30 4551 C 438.934 0.19732 1.58376 0
M  V30 4552 C 439.134 -1.29971 1.5398 0
M  V30 4553 O 438.19 -2.07861 1.43352 0
M  V30 4554 C 439.503 0.807716 2.89649 0
M  V30 4555 C 441.051 0.77726 3.03196 0
M  V30 4556 C 441.526 1.36639 4.37143 0
M  V30 4557 N 443.017 1.32875 4.43732 0
M  V30 4558 C 443.752 1.7544 5.45901 0
M  V30 4559 N 443.248 2.25776 6.54979 0
M  V30 4560 N 445.041 1.66623 5.36836 0
M  V30 4561 H 437.192 1.5117 1.49202 0
M  V30 4562 H 439.455 0.629327 0.708979 0
M  V30 4563 H 439.161 1.85909 2.98548 0
M  V30 4564 H 439.035 0.289975 3.76084 0
M  V30 4565 H 441.422 -0.265374 2.93904 0
M  V30 4566 H 441.503 1.33256 2.18349 0
M  V30 4567 H 441.147 2.408 4.47189 0
M  V30 4568 H 441.077 0.786689 5.20691 0
M  V30 4569 H 443.568 0.96037 3.65493 0
M  V30 4570 H 443.881 2.56226 7.29087 0
M  V30 4571 H 442.226 2.29775 6.55918 0
M  V30 4572 H 445.417 1.27089 4.50517 0
M  V30 4573 H 445.59 2.00115 6.16326 0
M  V30 4574 N 438.996 -1.55193 0.274407 0
M  V30 4575 C 440.226 -2.03692 -0.345442 0
M  V30 4576 C 440.634 -1.15224 -1.50067 0
M  V30 4577 O 439.977 -0.164749 -1.8296 0
M  V30 4578 C 440.039 -3.48325 -0.88939 0
M  V30 4579 C 439.703 -4.56794 0.137115 0
M  V30 4580 C 440.7 -5.11028 0.956378 0
M  V30 4581 C 438.385 -5.01568 0.27115 0
M  V30 4582 C 440.379 -6.08552 1.89587 0
M  V30 4583 C 438.066 -5.98918 1.21412 0
M  V30 4584 C 439.064 -6.52291 2.02498 0
M  V30 4585 O 438.752 -7.47738 2.952 0
M  V30 4586 H 438.484 -0.670893 -0.0829332 0
M  V30 4587 H 441.038 -2.01387 0.404056 0
M  V30 4588 H 439.268 -3.47867 -1.68895 0
M  V30 4589 H 440.957 -3.80167 -1.42225 0
M  V30 4590 H 441.723 -4.7725 0.863559 0
M  V30 4591 H 437.602 -4.5967 -0.349987 0
M  V30 4592 H 441.146 -6.50137 2.52918 0
M  V30 4593 H 437.043 -6.32114 1.30776 0
M  V30 4594 H 437.811 -7.65451 2.89874 0
M  V30 4595 N 440.474 -0.00167713 -1.576 0
M  V30 4596 C 441.384 1.00548 -2.1196 0
M  V30 4597 C 442.4 1.3758 -1.06526 0
M  V30 4598 O 443.576 1.46278 -1.38436 0
M  V30 4599 C 440.641 2.27809 -2.6135 0
M  V30 4600 C 439.702 1.97074 -3.81393 0
M  V30 4601 C 438.935 3.18267 -4.28417 0
M  V30 4602 O 439.158 4.30009 -3.74765 0
M  V30 4603 O 438.092 3.02167 -5.20556 0
M  V30 4604 H 441.918 0.573373 -2.98238 0
M  V30 4605 H 439.503 0.217255 -1.47812 0
M  V30 4606 H 441.385 3.02568 -2.93309 0
M  V30 4607 H 440.06 2.70254 -1.78169 0
M  V30 4608 H 438.967 1.19785 -3.54404 0
M  V30 4609 H 440.3 1.59464 -4.65652 0
M  V30 4610 N 441.952 1.55251 0.271103 0
M  V30 4611 C 443.18 1.79974 1.02064 0
M  V30 4612 C 443.595 0.574003 1.79863 0
M  V30 4613 O 442.952 -0.456962 1.76686 0
M  V30 4614 C 443.003 3.02603 1.97772 0
M  V30 4615 O 442.724 4.20443 1.23124 0
M  V30 4616 C 444.225 3.39944 2.84522 0
M  V30 4617 H 441.445 0.599489 0.301419 0
M  V30 4618 H 443.989 2.02268 0.301313 0
M  V30 4619 H 442.144 2.8243 2.65165 0
M  V30 4620 H 442.558 4.89783 1.87651 0
M  V30 4621 H 444.032 4.28915 3.47471 0
M  V30 4622 H 444.509 2.59432 3.54389 0
M  V30 4623 H 445.115 3.62383 2.22618 0
M  V30 4624 N 443.43 -0.535701 1.48216 0
M  V30 4625 C 444.676 -1.29375 1.56173 0
M  V30 4626 C 445.009 -1.92804 0.232429 0
M  V30 4627 O 444.284 -1.78992 -0.761048 0
M  V30 4628 C 444.567 -2.38747 2.69577 0
M  V30 4629 C 444.42 -1.80046 4.12193 0
M  V30 4630 C 445.739 -3.40551 2.78771 0
M  V30 4631 H 442.858 -0.469027 0.568491 0
M  V30 4632 H 445.5 -0.597358 1.80365 0
M  V30 4633 H 443.65 -2.98147 2.4908 0
M  V30 4634 H 445.322 -1.24742 4.44114 0
M  V30 4635 H 443.565 -1.10609 4.19462 0
M  V30 4636 H 444.236 -2.59212 4.87353 0
M  V30 4637 H 446.712 -2.91099 2.97322 0
M  V30 4638 H 445.588 -4.1448 3.59857 0
M  V30 4639 H 445.849 -4.00746 1.86696 0
M  V30 4640 N 444.908 -1.36708 -0.784132 0
M  V30 4641 C 445.84 -1.27333 -1.90575 0
M  V30 4642 C 446.853 -0.191706 -1.61667 0
M  V30 4643 O 448.042 -0.446854 -1.72816 0
M  V30 4644 C 445.142 -0.943177 -3.25511 0
M  V30 4645 C 444.315 -2.12776 -3.82158 0
M  V30 4646 C 443.374 -1.76983 -4.95544 0
M  V30 4647 O 442.4 -2.49134 -5.11782 0
M  V30 4648 N 443.602 -0.706624 -5.76183 0
M  V30 4649 H 446.367 -2.23974 -1.99138 0
M  V30 4650 H 443.928 -1.30171 -0.962656 0
M  V30 4651 H 445.92 -0.684799 -3.98864 0
M  V30 4652 H 444.49 -0.0657333 -3.12531 0
M  V30 4653 H 443.71 -2.54863 -3.0073 0
M  V30 4654 H 444.998 -2.91904 -4.16737 0
M  V30 4655 H 444.396 -0.107643 -5.65598 0
M  V30 4656 H 442.953 -0.50808 -6.49817 0
M  V30 4657 N 446.386 1.0089 -1.21074 0
M  V30 4658 C 447.663 1.71834 -0.934469 0
M  V30 4659 C 448.043 2.0368 0.554753 0
M  V30 4660 O 447.391 1.70742 1.51854 0
M  V30 4661 C 447.601 2.98061 -1.8155 0
M  V30 4662 C 448.949 3.7117 -2.06199 0
M  V30 4663 O 449.973 3.08034 -1.78867 0
M  V30 4664 O 448.832 4.84721 -2.52404 0
M  V30 4665 H 445.926 0.749253 -0.35007 0
M  V30 4666 H 448.472 1.06668 -1.31985 0
M  V30 4667 H 447.244 2.70908 -2.82355 0
M  V30 4668 H 446.867 3.70968 -1.43068 0
M  V30 4669 N 447.864 1.01787 1.20321 0
M  V30 4670 C 449.104 0.716493 1.91431 0
M  V30 4671 C 449.468 -0.740352 1.77152 0
M  V30 4672 O 450.669 -1.1543 2.42754 0
M  V30 4673 C 448.94 1.14169 3.38674 0
M  V30 4674 S 450.499 0.962482 4.28114 0
M  V30 4675 H 447.317 0.261175 0.661293 0
M  V30 4676 H 449.919 1.30539 1.45533 0
M  V30 4677 H 448.623 2.19784 3.46588 0
M  V30 4678 H 448.154 0.545621 3.89598 0
M  V30 4679 H 450.169 -0.133253 4.96021 0
M  V30 4680 N 449.342 -1.36122 0.79427 0
M  V30 4681 C 450.29 -2.31871 0.184023 0
M  V30 4682 C 451.284 -1.56041 -0.659365 0
M  V30 4683 O 452.49 -1.71266 -0.553906 0
M  V30 4684 H 448.865 -0.750896 0.0407373 0
M  V30 4685 H 450.836 -2.80898 1.00693 0
M  V30 4686 C 449.585 -3.41324 -0.662813 0
M  V30 4687 H 448.908 -3.99793 -0.0231944 0
M  V30 4688 H 450.348 -4.10629 -1.05639 0
M  V30 4689 C 448.807 -2.83308 -1.82313 0
M  V30 4690 O 449.337 -2.75863 -2.91997 0
M  V30 4691 N 447.543 -2.40529 -1.63077 0
M  V30 4692 H 447.09 -2.46785 -0.738591 0
M  V30 4693 H 447.048 -2.02059 -2.40872 0
M  V30 4694 N 450.82 -0.546701 -1.47814 0
M  V30 4695 C 452.06 -0.0209604 -2.04389 0
M  V30 4696 C 452.424 1.29993 -1.413 0
M  V30 4697 O 453.625 1.91273 -1.8886 0
M  V30 4698 C 451.896 0.0812844 -3.57308 0
M  V30 4699 S 453.455 0.55467 -4.3528 0
M  V30 4700 H 450.273 -0.0200865 -0.710716 0
M  V30 4701 H 452.875 -0.731055 -1.81317 0
M  V30 4702 H 451.579 -0.884616 -4.00753 0
M  V30 4703 H 451.11 0.815253 -3.8486 0
M  V30 4704 H 453.125 1.81627 -4.61764 0
M  V30 4705 N 452.299 1.55045 -0.282633 0
M  V30 4706 C 453.524 2.04628 0.337977 0
M  V30 4707 C 453.949 1.15937 1.48123 0
M  V30 4708 O 453.307 0.159532 1.80597 0
M  V30 4709 C 453.355 3.51854 0.78936 0
M  V30 4710 O 452.459 3.66236 1.89592 0
M  V30 4711 H 451.8 0.660434 0.0687261 0
M  V30 4712 H 454.33 2.00261 -0.419124 0
M  V30 4713 H 454.34 3.93361 1.08311 0
M  V30 4714 H 453.015 4.15873 -0.0470419 0
M  V30 4715 H 451.592 3.36633 1.60413 0
M  V30 4716 N 453.777 0.010035 1.57597 0
M  V30 4717 C 455.026 -0.671945 1.90178 0
M  V30 4718 C 455.339 -1.74376 0.886131 0
M  V30 4719 O 456.545 -2.48107 1.10252 0
M  V30 4720 C 455.001 -1.24636 3.3763 0
M  V30 4721 C 454.609 -0.208838 4.47513 0
M  V30 4722 C 456.353 -1.90595 3.79307 0
M  V30 4723 C 454.26 -0.793814 5.86048 0
M  V30 4724 H 453.19 -0.25474 0.709665 0
M  V30 4725 H 455.841 0.0722206 1.83358 0
M  V30 4726 H 454.223 -2.04152 3.3932 0
M  V30 4727 H 455.397 0.562463 4.57354 0
M  V30 4728 H 453.712 0.350889 4.14919 0
M  V30 4729 H 456.309 -2.35284 4.80151 0
M  V30 4730 H 456.652 -2.74074 3.13352 0
M  V30 4731 H 457.185 -1.17798 3.79958 0
M  V30 4732 H 453.924 0.00240855 6.555 0
M  V30 4733 H 453.444 -1.53404 5.79851 0
M  V30 4734 H 455.123 -1.2894 6.34022 0
M  V30 4735 N 455.255 -1.55392 -0.262866 0
M  V30 4736 C 456.485 -1.80251 -1.00961 0
M  V30 4737 C 456.893 -0.58117 -1.80053 0
M  V30 4738 O 456.236 0.459427 -1.77862 0
M  V30 4739 C 456.298 -2.98207 -2.00781 0
M  V30 4740 C 455.962 -4.34856 -1.40533 0
M  V30 4741 C 456.959 -5.13459 -0.815853 0
M  V30 4742 C 454.644 -4.8153 -1.42948 0
M  V30 4743 C 456.638 -6.36875 -0.258562 0
M  V30 4744 C 454.325 -6.04899 -0.868334 0
M  V30 4745 C 455.323 -6.8241 -0.283884 0
M  V30 4746 O 455.011 -8.03451 0.268644 0
M  V30 4747 H 454.743 -0.604049 -0.303482 0
M  V30 4748 H 457.297 -2.03257 -0.295926 0
M  V30 4749 H 455.527 -2.70917 -2.75936 0
M  V30 4750 H 457.216 -3.10299 -2.61667 0
M  V30 4751 H 457.982 -4.78526 -0.789812 0
M  V30 4752 H 453.861 -4.21201 -1.87378 0
M  V30 4753 H 457.405 -6.97318 0.198257 0
M  V30 4754 H 453.302 -6.39312 -0.891649 0
M  V30 4755 H 454.07 -8.18346 0.158974 0
M  V30 4756 N 456.733 0.527833 -1.48498 0
M  V30 4757 C 458.144 1.10975 -1.50138 0
M  V30 4758 C 458.495 1.943 -0.272378 0
M  V30 4759 O 457.62 2.07319 0.620301 0
M  V30 4760 C 458.215 2.01927 -2.72049 0
M  V30 4761 C 456.774 2.55332 -2.76554 0
M  V30 4762 C 455.921 1.32341 -2.43683 0
M  V30 4763 H 458.872 0.312986 -1.55583 0
M  V30 4764 H 458.893 2.86244 -2.50689 0
M  V30 4765 H 458.405 1.41254 -3.61481 0
M  V30 4766 H 456.506 3.19721 -1.91336 0
M  V30 4767 H 456.619 2.94319 -3.78038 0
M  V30 4768 H 454.983 1.63989 -1.94884 0
M  V30 4769 H 455.766 0.734165 -3.35358 0
M  V30 4770 N 458.211 1.37122 0.776871 0
M  V30 4771 C 459.459 1.31787 1.53221 0
M  V30 4772 C 459.78 -0.0987589 1.9475 0
M  V30 4773 O 459.05 -1.0417 1.65908 0
M  V30 4774 H 457.63 0.484839 0.568278 0
M  V30 4775 H 460.292 1.71556 0.924917 0
M  V30 4776 H 459.388 1.95355 2.43398 0
M  V30 4777 N 459.689 -1.00246 1.21608 0
M  V30 4778 C 460.639 -2.07492 0.945051 0
M  V30 4779 C 461.623 -1.60585 -0.100675 0
M  V30 4780 O 462.815 -1.76667 0.10859 0
M  V30 4781 C 459.944 -3.39425 0.514342 0
M  V30 4782 C 459.03 -3.92993 1.59428 0
M  V30 4783 N 459.421 -4.19898 2.81991 0
M  V30 4784 C 457.719 -4.21297 1.46374 0
M  V30 4785 C 458.42 -4.63297 3.51754 0
M  V30 4786 N 457.396 -4.66421 2.79199 0
M  V30 4787 H 461.198 -2.26222 1.87619 0
M  V30 4788 H 458.712 -1.18339 1.11219 0
M  V30 4789 H 460.709 -4.15808 0.301527 0
M  V30 4790 H 459.369 -3.22101 -0.410008 0
M  V30 4791 H 460.38 -4.08377 3.1851 0
M  V30 4792 H 457.057 -4.13095 0.604863 0
M  V30 4793 H 458.447 -4.92816 4.56708 0
M  V30 4794 N 461.167 -1.02423 -1.1978 0
M  V30 4795 C 462.413 -0.719051 -1.89625 0
M  V30 4796 C 462.746 0.750083 -1.7913 0
M  V30 4797 O 462.021 1.54574 -1.18056 0
M  V30 4798 C 462.304 -1.16499 -3.40735 0
M  V30 4799 C 462.157 -2.695 -3.60125 0
M  V30 4800 C 463.476 -0.742166 -4.33797 0
M  V30 4801 H 460.595 -0.26269 -0.688595 0
M  V30 4802 H 463.237 -1.27333 -1.41018 0
M  V30 4803 H 461.387 -0.69341 -3.82262 0
M  V30 4804 H 463.059 -3.24569 -3.278 0
M  V30 4805 H 461.302 -3.10113 -3.03336 0
M  V30 4806 H 461.973 -2.95757 -4.66081 0
M  V30 4807 H 464.449 -1.1477 -3.99959 0
M  V30 4808 H 463.325 -1.08213 -5.38127 0
M  V30 4809 H 463.586 0.355747 -4.40666 0
M  V30 4810 N 462.645 1.35699 -0.801477 0
M  V30 4811 C 463.87 2.03687 -0.390678 0
M  V30 4812 C 464.295 1.60015 0.988778 0
M  V30 4813 O 463.653 0.774357 1.63931 0
M  V30 4814 C 463.701 3.57439 -0.476404 0
M  V30 4815 O 462.805 4.09208 0.512106 0
M  V30 4816 H 462.146 0.64344 -0.163956 0
M  V30 4817 H 464.676 1.73403 -1.08594 0
M  V30 4818 H 464.686 4.06544 -0.344357 0
M  V30 4819 H 463.361 3.88576 -1.48262 0
M  V30 4820 H 461.938 3.7134 0.340721 0
M  V30 4821 N 464.123 0.554532 1.47522 0
M  V30 4822 C 465.371 0.0294208 2.02079 0
M  V30 4823 C 465.692 -1.32411 1.43151 0
M  V30 4824 O 464.962 -1.863 0.605728 0
M  V30 4825 H 463.542 0.00788672 0.746958 0
M  V30 4826 H 466.204 0.723934 1.80956 0
M  V30 4827 H 465.3 -0.0606745 3.12041 0
M  V30 4828 N 465.601 -1.54893 0.290851 0
M  V30 4829 C 466.551 -2.19838 -0.604599 0
M  V30 4830 C 467.535 -1.16805 -1.10659 0
M  V30 4831 O 468.727 -1.42562 -1.04905 0
M  V30 4832 C 465.856 -2.93497 -1.78086 0
M  V30 4833 C 464.942 -4.03835 -1.29531 0
M  V30 4834 N 465.333 -5.03047 -0.527024 0
M  V30 4835 C 463.631 -4.17192 -1.57693 0
M  V30 4836 C 464.332 -5.81074 -0.269728 0
M  V30 4837 N 463.308 -5.36966 -0.846651 0
M  V30 4838 H 467.11 -2.93898 -0.00995032 0
M  V30 4839 H 464.624 -1.62121 0.0951353 0
M  V30 4840 H 466.621 -3.38484 -2.43381 0
M  V30 4841 H 465.281 -2.2095 -2.37931 0
M  V30 4842 H 466.292 -5.17611 -0.172872 0
M  V30 4843 H 462.969 -3.55845 -2.18359 0
M  V30 4844 H 464.359 -6.71005 0.346643 0
M  V30 4845 N 467.08 -0.0183926 -1.57589 0
M  V30 4846 C 468.496 0.337897 -1.55982 0
M  V30 4847 C 468.696 1.73604 -1.02294 0
M  V30 4848 O 467.752 2.43589 -0.664895 0
M  V30 4849 C 469.065 0.196305 -3.00059 0
M  V30 4850 C 470.613 0.269875 -3.11834 0
M  V30 4851 C 471.088 0.157197 -4.5773 0
M  V30 4852 N 472.579 0.214521 -4.62703 0
M  V30 4853 C 473.314 0.150955 -5.73201 0
M  V30 4854 N 472.81 0.0369212 -6.9279 0
M  V30 4855 N 474.603 0.204162 -5.61729 0
M  V30 4856 H 466.754 -0.93279 -1.90821 0
M  V30 4857 H 469.017 -0.359253 -0.877292 0
M  V30 4858 H 468.723 -0.766383 -3.43248 0
M  V30 4859 H 468.597 0.970908 -3.6449 0
M  V30 4860 H 470.984 1.22302 -2.68563 0
M  V30 4861 H 471.065 -0.534918 -2.50144 0
M  V30 4862 H 470.709 -0.792479 -5.01679 0
M  V30 4863 H 470.639 0.980717 -5.17387 0
M  V30 4864 H 473.13 0.303238 -3.76681 0
M  V30 4865 H 473.443 -0.00518321 -7.728 0
M  V30 4866 H 471.788 0.0022886 -6.95 0
M  V30 4867 H 474.979 0.291575 -4.67191 0
M  V30 4868 H 475.152 0.15116 -6.47824 0
M  V30 4869 N 468.558 1.5553 0.254621 0
M  V30 4870 C 469.491 1.84624 1.34124 0
M  V30 4871 C 470.469 0.700693 1.46728 0
M  V30 4872 O 471.653 0.94564 1.63064 0
M  V30 4873 C 468.78 2.02412 2.71564 0
M  V30 4874 C 467.826 3.25028 2.7615 0
M  V30 4875 S 468.659 4.81893 2.33538 0
M  V30 4876 C 469.815 5.02677 3.72917 0
M  V30 4877 H 470.048 2.76501 1.09245 0
M  V30 4878 H 467.581 1.47537 0.455211 0
M  V30 4879 H 469.539 2.13345 3.50705 0
M  V30 4880 H 468.2 1.11391 2.93685 0
M  V30 4881 H 467.393 3.34418 3.77069 0
M  V30 4882 H 466.995 3.12781 2.05046 0
M  V30 4883 H 469.287 4.89546 4.68349 0
M  V30 4884 H 470.23 6.0468 3.68467 0
M  V30 4885 H 470.638 4.30561 3.65072 0
M  V30 4886 N 470.036 -0.519951 1.48776 0
M  V30 4887 C 470.999 -1.60574 1.6355 0
M  V30 4888 C 471.999 -1.52557 0.508234 0
M  V30 4889 O 473.189 -1.56047 0.774262 0
M  V30 4890 C 470.321 -3.00211 1.61512 0
M  V30 4891 H 471.514 -1.4881 2.60376 0
M  V30 4892 H 469.067 -0.742772 1.37523 0
M  V30 4893 H 469.802 -3.17471 0.662009 0
M  V30 4894 H 469.587 -3.07439 2.43359 0
M  V30 4895 H 471.077 -3.79134 1.75064 0
M  V30 4896 N 471.514 -1.37532 -0.769588 0
M  V30 4897 C 472.76 -1.34063 -1.52966 0
M  V30 4898 C 473.115 0.0737942 -1.92258 0
M  V30 4899 O 472.408 1.03291 -1.61374 0
M  V30 4900 C 472.602 -2.21558 -2.8044 0
M  V30 4901 C 472.431 -3.71367 -2.53608 0
M  V30 4902 C 471.201 -4.40464 -2.47628 0
M  V30 4903 C 473.399 -4.64177 -2.21459 0
M  V30 4904 N 471.381 -5.758 -2.12902 0
M  V30 4905 C 472.752 -5.87907 -1.9689 0
M  V30 4906 C 474.807 -4.52541 -2.07633 0
M  V30 4907 C 473.51 -7.01304 -1.59892 0
M  V30 4908 C 475.536 -5.65825 -1.72034 0
M  V30 4909 C 474.898 -6.88606 -1.48327 0
M  V30 4910 H 470.997 -0.545856 -0.559969 0
M  V30 4911 H 473.581 -1.72773 -0.897634 0
M  V30 4912 H 471.752 -1.85061 -3.41478 0
M  V30 4913 H 473.484 -2.09332 -3.46356 0
M  V30 4914 H 470.239 -3.93491 -2.63556 0
M  V30 4915 H 470.663 -6.47328 -1.9823 0
M  V30 4916 H 475.305 -3.58183 -2.24643 0
M  V30 4917 H 473.023 -7.95594 -1.4162 0
M  V30 4918 H 476.609 -5.58793 -1.61991 0
M  V30 4919 H 475.489 -7.74779 -1.21189 0
M  V30 4920 N 472.992 0.995999 -1.22138 0
M  V30 4921 C 474.269 1.70834 -0.952642 0
M  V30 4922 C 474.649 2.04257 0.533119 0
M  V30 4923 O 473.997 1.72343 1.50034 0
M  V30 4924 C 474.207 2.96119 -1.84701 0
M  V30 4925 C 475.555 3.68962 -2.10124 0
M  V30 4926 O 476.579 3.0612 -1.82124 0
M  V30 4927 O 475.438 4.82017 -2.57531 0
M  V30 4928 H 472.532 0.745498 -0.357997 0
M  V30 4929 H 475.078 1.05262 -1.33109 0
M  V30 4930 H 473.85 2.67898 -2.85213 0
M  V30 4931 H 473.473 3.6943 -1.46995 0
M  V30 4932 N 474.47 1.03057 1.19235 0
M  V30 4933 C 475.403 0.557384 2.21288 0
M  V30 4934 C 476.381 -0.402675 1.57535 0
M  V30 4935 O 477.565 -0.319376 1.85775 0
M  V30 4936 C 474.692 -0.187041 3.38183 0
M  V30 4937 C 473.738 0.72471 4.20298 0
M  V30 4938 S 474.571 2.20187 4.88137 0
M  V30 4939 C 475.727 1.46801 6.08441 0
M  V30 4940 H 475.96 1.42207 2.61083 0
M  V30 4941 H 473.493 0.840651 1.29508 0
M  V30 4942 H 475.451 -0.610405 4.05936 0
M  V30 4943 H 474.112 -1.02748 2.96819 0
M  V30 4944 H 473.305 0.149911 5.03777 0
M  V30 4945 H 472.907 1.08647 3.57871 0
M  V30 4946 H 475.199 0.755522 6.73274 0
M  V30 4947 H 476.142 2.27946 6.70407 0
M  V30 4948 H 476.55 0.964762 5.56195 0
M  V30 4949 N 475.948 -1.35272 0.808662 0
M  V30 4950 C 476.881 -2.27595 0.165994 0
M  V30 4951 C 477.859 -1.48189 -0.669241 0
M  V30 4952 O 479.043 -1.77444 -0.636073 0
M  V30 4953 C 476.17 -3.29843 -0.769505 0
M  V30 4954 C 475.216 -4.26498 -0.0136267 0
M  V30 4955 S 476.049 -5.18878 1.32384 0
M  V30 4956 C 477.205 -6.24666 0.392838 0
M  V30 4957 H 477.438 -2.81755 0.948756 0
M  V30 4958 H 474.971 -1.42103 0.603828 0
M  V30 4959 H 476.929 -3.89247 -1.30374 0
M  V30 4960 H 475.59 -2.74558 -1.52567 0
M  V30 4961 H 474.783 -4.98769 -0.724227 0
M  V30 4962 H 474.385 -3.71274 0.450713 0
M  V30 4963 H 476.677 -6.7619 -0.4211 0
M  V30 4964 H 477.62 -6.99741 1.0848 0
M  V30 4965 H 478.028 -5.64499 -0.0123908 0
M  V30 4966 N 477.426 -0.562348 -1.47226 0
M  V30 4967 C 478.359 0.230405 -2.27034 0
M  V30 4968 C 479.337 0.915609 -1.3437 0
M  V30 4969 O 480.521 0.933573 -1.63758 0
M  V30 4970 C 477.648 1.32874 -3.11548 0
M  V30 4971 C 476.694 0.751552 -4.19826 0
M  V30 4972 S 477.527 -0.405848 -5.3396 0
M  V30 4973 C 478.683 0.694186 -6.22038 0
M  V30 4974 H 478.916 -0.446811 -2.93923 0
M  V30 4975 H 476.449 -0.348781 -1.50409 0
M  V30 4976 H 478.407 1.95773 -3.60809 0
M  V30 4977 H 477.068 1.97782 -2.44011 0
M  V30 4978 H 476.261 1.57651 -4.78709 0
M  V30 4979 H 475.863 0.198645 -3.73472 0
M  V30 4980 H 478.155 1.58501 -6.58698 0
M  V30 4981 H 479.098 0.142592 -7.07956 0
M  V30 4982 H 479.506 0.989169 -5.55766 0
M  V30 4983 N 478.904 1.54736 -0.299062 0
M  V30 4984 C 479.852 2.24897 0.593658 0
M  V30 4985 C 480.846 1.25429 1.13859 0
M  V30 4986 O 482.052 1.43286 1.08945 0
M  V30 4987 H 478.427 0.72207 0.210046 0
M  V30 4988 H 480.398 2.98393 -0.0206421 0
M  V30 4989 C 479.147 3.00159 1.75499 0
M  V30 4990 H 478.47 3.76501 1.34489 0
M  V30 4991 H 479.91 3.52535 2.35574 0
M  V30 4992 C 478.369 2.07015 2.65794 0
M  V30 4993 O 478.899 1.63692 3.66835 0
M  V30 4994 N 477.105 1.73012 2.33485 0
M  V30 4995 H 476.652 2.08439 1.51364 0
M  V30 4996 H 476.61 1.10965 2.94167 0
M  V30 4997 N 480.382 0.0267497 1.57577 0
M  V30 4998 C 481.628 -0.647596 1.92815 0
M  V30 4999 C 481.983 -1.69872 0.903396 0
M  V30 5000 O 481.276 -1.91429 -0.0808881 0
M  V30 5001 C 481.47 -1.30914 3.3256 0
M  V30 5002 C 481.299 -0.323621 4.48534 0
M  V30 5003 C 480.069 0.0756607 5.05243 0
M  V30 5004 C 482.267 0.42112 5.12573 0
M  V30 5005 N 480.249 1.0566 6.04739 0
M  V30 5006 C 481.62 1.25589 6.07147 0
M  V30 5007 C 483.675 0.482077 4.95561 0
M  V30 5008 C 482.378 2.1461 6.86538 0
M  V30 5009 C 484.404 1.35962 5.75559 0
M  V30 5010 C 483.766 2.18217 6.69747 0
M  V30 5011 H 479.865 -0.209357 0.753454 0
M  V30 5012 H 482.449 0.0933695 1.94476 0
M  V30 5013 H 480.62 -2.02026 3.31723 0
M  V30 5014 H 482.352 -1.94033 3.55153 0
M  V30 5015 H 479.107 -0.298294 4.7266 0
M  V30 5016 H 479.531 1.54324 6.59176 0
M  V30 5017 H 484.173 -0.139609 4.22569 0
M  V30 5018 H 481.891 2.77835 7.58837 0
M  V30 5019 H 485.477 1.41105 5.6443 0
M  V30 5020 H 484.357 2.85022 7.3057 0
M  V30 5021 N 481.861 -1.55662 -0.24637 0
M  V30 5022 C 483.086 -1.81914 -0.996093 0
M  V30 5023 C 483.511 -0.603875 -1.78143 0
M  V30 5024 O 482.869 0.447091 -1.75701 0
M  V30 5025 C 482.917 -3.05908 -1.90925 0
M  V30 5026 O 482.021 -2.82861 -3.00105 0
M  V30 5027 H 481.362 -0.600481 -0.283406 0
M  V30 5028 H 483.892 -2.02848 -0.267199 0
M  V30 5029 H 483.902 -3.35356 -2.3238 0
M  V30 5030 H 482.577 -3.93999 -1.33183 0
M  V30 5031 H 481.154 -2.64583 -2.62775 0
M  V30 5032 N 483.339 0.512053 -1.4905 0
M  V30 5033 C 484.75 1.09376 -1.51307 0
M  V30 5034 C 485.101 1.94 -0.292971 0
M  V30 5035 O 484.226 2.07965 0.598277 0
M  V30 5036 C 484.821 1.99031 -2.74176 0
M  V30 5037 C 483.38 2.52385 -2.79247 0
M  V30 5038 C 482.527 1.29749 -2.45073 0
M  V30 5039 H 485.478 0.296467 -1.55906 0
M  V30 5040 H 485.499 2.83569 -2.53711 0
M  V30 5041 H 485.011 1.37412 -3.62959 0
M  V30 5042 H 483.112 3.17673 -1.94716 0
M  V30 5043 H 483.225 2.90293 -3.81139 0
M  V30 5044 H 481.589 1.61912 -1.96612 0
M  V30 5045 H 482.372 0.698555 -3.36118 0
M  V30 5046 N 484.817 1.37938 0.762283 0
M  V30 5047 C 486.045 1.36883 1.55147 0
M  V30 5048 C 486.46 -0.0435348 1.8875 0
M  V30 5049 O 485.817 -1.00786 1.52146 0
M  V30 5050 C 485.868 2.21624 2.85596 0
M  V30 5051 O 485.589 3.57358 2.5343 0
M  V30 5052 C 487.09 2.28653 3.7978 0
M  V30 5053 H 484.31 0.468521 0.480343 0
M  V30 5054 H 486.854 1.81404 0.944079 0
M  V30 5055 H 485.009 1.80588 3.42734 0
M  V30 5056 H 485.423 4.01883 3.37032 0
M  V30 5057 H 486.897 2.9225 4.68288 0
M  V30 5058 H 487.374 1.29767 4.19592 0
M  V30 5059 H 487.98 2.70043 3.28568 0
M  V30 5060 N 486.295 -0.989507 1.22664 0
M  V30 5061 C 487.523 -1.76496 1.07967 0
M  V30 5062 C 487.938 -1.85148 -0.369543 0
M  V30 5063 O 487.295 -1.32408 -1.25596 0
M  V30 5064 C 487.346 -3.19642 1.68853 0
M  V30 5065 O 487.067 -3.11453 3.08105 0
M  V30 5066 C 488.568 -4.13621 1.59475 0
M  V30 5067 H 485.788 -0.55418 0.378319 0
M  V30 5068 H 488.332 -1.24378 1.62328 0
M  V30 5069 H 486.487 -3.68816 1.18547 0
M  V30 5070 H 486.901 -4.01499 3.37489 0
M  V30 5071 H 488.375 -5.11801 2.06795 0
M  V30 5072 H 488.852 -4.35718 0.55191 0
M  V30 5073 H 489.458 -3.70346 2.09103 0
M  V30 5074 N 487.773 -1.03688 -1.18687 0
M  V30 5075 C 488.736 -0.629115 -2.20397 0
M  V30 5076 C 489.736 0.311495 -1.57754 0
M  V30 5077 O 490.926 0.0974107 -1.73927 0
M  V30 5078 C 488.058 0.0782231 -3.4081 0
M  V30 5079 H 489.251 -1.52915 -2.57987 0
M  V30 5080 H 486.804 -0.828988 -1.32505 0
M  V30 5081 H 487.539 0.992233 -3.08748 0
M  V30 5082 H 487.324 -0.597776 -3.87517 0
M  V30 5083 H 488.814 0.350156 -4.16129 0
M  V30 5084 N 489.251 1.34841 -0.815825 0
M  V30 5085 C 490.181 2.32187 -0.247298 0
M  V30 5086 C 491.162 1.5791 0.632344 0
M  V30 5087 O 492.347 1.8593 0.560698 0
M  V30 5088 C 489.477 3.42122 0.597466 0
M  V30 5089 C 488.431 4.27602 -0.184446 0
M  V30 5090 C 487.757 5.28942 0.782609 0
M  V30 5091 C 489.057 5.03502 -1.38865 0
M  V30 5092 H 490.751 2.79985 -1.06061 0
M  V30 5093 H 488.297 1.34611 -0.511461 0
M  V30 5094 H 490.25 4.09232 1.00533 0
M  V30 5095 H 488.974 2.92956 1.44376 0
M  V30 5096 H 487.633 3.62085 -0.573592 0
M  V30 5097 H 487.281 4.7604 1.62466 0
M  V30 5098 H 486.981 5.87008 0.263695 0
M  V30 5099 H 488.505 5.98922 1.18848 0
M  V30 5100 H 489.919 5.63506 -1.05518 0
M  V30 5101 H 488.316 5.71108 -1.8427 0
M  V30 5102 H 489.386 4.33608 -2.17054 0
M  V30 5103 N 490.729 0.570148 1.46925 0
M  V30 5104 C 491.975 0.0510284 2.02736 0
M  V30 5105 C 492.308 -1.3006 1.44215 0
M  V30 5106 O 491.583 -1.84932 0.602521 0
M  V30 5107 C 491.866 -0.028215 3.60089 0
M  V30 5108 C 491.719 1.35142 4.29018 0
M  V30 5109 C 493.038 -0.735181 4.33916 0
M  V30 5110 H 490.157 0.0200178 0.736728 0
M  V30 5111 H 492.799 0.73493 1.75211 0
M  V30 5112 H 490.949 -0.610648 3.83671 0
M  V30 5113 H 492.621 1.97806 4.16738 0
M  V30 5114 H 490.864 1.9226 3.88868 0
M  V30 5115 H 491.535 1.24857 5.37694 0
M  V30 5116 H 494.011 -0.240519 4.15404 0
M  V30 5117 H 492.887 -0.759622 5.43618 0
M  V30 5118 H 493.148 -1.79397 4.04066 0
M  V30 5119 N 492.207 -1.54576 0.307264 0
M  V30 5120 C 493.453 -2.0056 -0.300612 0
M  V30 5121 C 493.786 -1.1953 -1.53057 0
M  V30 5122 O 493.061 -0.27337 -1.92569 0
M  V30 5123 C 493.344 -3.54167 -0.650987 0
M  V30 5124 C 493.197 -4.45933 0.588539 0
M  V30 5125 C 494.516 -4.14645 -1.47506 0
M  V30 5126 H 491.635 -0.729075 -0.107788 0
M  V30 5127 H 494.277 -1.85286 0.420606 0
M  V30 5128 H 492.427 -3.67313 -1.26544 0
M  V30 5129 H 494.099 -4.44683 1.22697 0
M  V30 5130 H 492.342 -4.16274 1.22058 0
M  V30 5131 H 493.013 -5.51189 0.299153 0
M  V30 5132 H 495.489 -4.04973 -0.955821 0
M  V30 5133 H 494.365 -5.22269 -1.68899 0
M  V30 5134 H 494.626 -3.66921 -2.4662 0
M  V30 5135 N 493.685 -0.035106 -1.57561 0
M  V30 5136 C 494.91 0.655802 -1.96759 0
M  V30 5137 C 495.335 1.64523 -0.911809 0
M  V30 5138 O 494.693 1.80857 0.126673 0
M  V30 5139 C 494.741 1.33326 -3.35047 0
M  V30 5140 O 493.845 2.44866 -3.31835 0
M  V30 5141 H 493.186 0.171807 -0.641388 0
M  V30 5142 H 495.716 -0.0987369 -2.04362 0
M  V30 5143 H 495.726 1.68867 -3.71413 0
M  V30 5144 H 494.401 0.608033 -4.11431 0
M  V30 5145 H 492.978 2.11392 -3.07193 0
M  V30 5146 N 495.163 1.55791 0.238111 0
M  V30 5147 C 496.095 1.87513 1.31802 0
M  V30 5148 C 497.108 0.762053 1.43863 0
M  V30 5149 O 498.297 1.04024 1.45056 0
M  V30 5150 C 495.397 2.05402 2.69561 0
M  V30 5151 C 494.57 3.3632 2.79656 0
M  V30 5152 C 493.629 3.43844 3.98319 0
M  V30 5153 O 492.655 4.16994 3.87433 0
M  V30 5154 N 493.857 2.73777 5.11885 0
M  V30 5155 H 496.622 2.80734 1.04922 0
M  V30 5156 H 494.183 1.56135 0.428196 0
M  V30 5157 H 496.175 2.07769 3.47296 0
M  V30 5158 H 494.745 1.18884 2.89111 0
M  V30 5159 H 493.965 3.46195 1.88528 0
M  V30 5160 H 495.253 4.22594 2.83358 0
M  V30 5161 H 494.651 2.14094 5.23622 0
M  V30 5162 H 493.208 2.81825 5.87723 0
M  V30 5163 N 496.642 -0.504142 1.49319 0
M  V30 5164 C 497.572 -1.61473 1.68667 0
M  V30 5165 C 498.553 -1.61455 0.535378 0
M  V30 5166 O 499.738 -1.78245 0.770868 0
M  V30 5167 C 496.868 -2.99971 1.75028 0
M  V30 5168 C 495.822 -3.14854 2.89916 0
M  V30 5169 C 495.148 -4.54671 2.81387 0
M  V30 5170 C 496.448 -2.95176 4.30893 0
M  V30 5171 H 498.142 -1.45535 2.61648 0
M  V30 5172 H 495.688 -0.698711 1.25913 0
M  V30 5173 H 497.641 -3.77562 1.8715 0
M  V30 5174 H 496.365 -3.1699 0.786441 0
M  V30 5175 H 495.024 -2.39687 2.77391 0
M  V30 5176 H 494.672 -4.68562 1.82917 0
M  V30 5177 H 494.372 -4.6557 3.58494 0
M  V30 5178 H 495.896 -5.34327 2.95512 0
M  V30 5179 H 497.31 -3.62538 4.44116 0
M  V30 5180 H 495.707 -3.17549 5.09198 0
M  V30 5181 H 496.777 -1.91332 4.45556 0
M  V30 5182 N 498.12 -1.38341 -0.754957 0
M  V30 5183 C 499.05 -1.38176 -1.88227 0
M  V30 5184 C 500.031 -0.247873 -1.68284 0
M  V30 5185 O 501.216 -0.45075 -1.88896 0
M  V30 5186 C 498.346 -1.20471 -3.25736 0
M  V30 5187 C 497.3 -2.3105 -3.60278 0
M  V30 5188 C 496.626 -1.98452 -4.96509 0
M  V30 5189 C 497.926 -3.73305 -3.65295 0
M  V30 5190 H 499.62 -2.32512 -1.88622 0
M  V30 5191 H 497.166 -1.1192 -0.906082 0
M  V30 5192 H 499.119 -1.18982 -4.04254 0
M  V30 5193 H 497.843 -0.225965 -3.25817 0
M  V30 5194 H 496.502 -2.31723 -2.84078 0
M  V30 5195 H 496.15 -0.990641 -4.93148 0
M  V30 5196 H 495.85 -2.7251 -5.20588 0
M  V30 5197 H 497.374 -1.98578 -5.77407 0
M  V30 5198 H 498.788 -3.7467 -4.3393 0
M  V30 5199 H 497.185 -4.46557 -4.00883 0
M  V30 5200 H 498.255 -4.05719 -2.65556 0
M  V30 5201 N 499.598 0.982988 -1.23187 0
M  V30 5202 C 501.014 1.2487 -0.993967 0
M  V30 5203 C 501.214 1.99155 0.306498 0
M  V30 5204 O 500.27 2.30688 1.0266 0
M  V30 5205 C 501.583 2.05078 -2.19917 0
M  V30 5206 C 503.131 2.18227 -2.2438 0
M  V30 5207 C 503.606 3.01825 -3.44479 0
M  V30 5208 N 505.097 3.09411 -3.44702 0
M  V30 5209 C 505.832 3.74412 -4.34285 0
M  V30 5210 N 505.328 4.41259 -5.341 0
M  V30 5211 N 507.121 3.71273 -4.22035 0
M  V30 5212 H 499.272 0.485253 -2.06783 0
M  V30 5213 H 501.535 0.276979 -0.906635 0
M  V30 5214 H 501.241 1.57867 -3.14279 0
M  V30 5215 H 501.115 3.05829 -2.2079 0
M  V30 5216 H 503.502 2.64648 -1.30559 0
M  V30 5217 H 503.583 1.16873 -2.2754 0
M  V30 5218 H 503.227 2.56102 -4.38605 0
M  V30 5219 H 503.157 4.03342 -3.38559 0
M  V30 5220 H 505.648 2.61845 -2.7248 0
M  V30 5221 H 505.961 4.88629 -5.98717 0
M  V30 5222 H 504.306 4.39975 -5.38002 0
M  V30 5223 H 507.497 3.18217 -3.43301 0
M  V30 5224 H 507.67 4.21649 -4.92053 0
M  V30 5225 N 501.076 1.04316 1.18135 0
M  V30 5226 C 502.325 0.74319 1.87509 0
M  V30 5227 C 502.638 -0.732136 1.81381 0
M  V30 5228 O 503.844 -1.14572 2.46141 0
M  V30 5229 C 502.3 1.27913 3.36402 0
M  V30 5230 C 501.908 2.78326 3.51053 0
M  V30 5231 C 503.652 1.0558 4.11161 0
M  V30 5232 C 501.559 3.25266 4.93919 0
M  V30 5233 H 500.489 0.274313 0.702331 0
M  V30 5234 H 503.14 1.25931 1.33467 0
M  V30 5235 H 501.522 0.690853 3.89927 0
M  V30 5236 H 502.696 3.42933 3.07788 0
M  V30 5237 H 501.011 2.991 2.89704 0
M  V30 5238 H 503.608 1.38161 5.16542 0
M  V30 5239 H 503.951 -0.00684729 4.16299 0
M  V30 5240 H 504.484 1.60882 3.63816 0
M  V30 5241 H 501.223 4.30922 4.9395 0
M  V30 5242 H 500.743 2.65396 5.3789 0
M  V30 5243 H 502.422 3.19433 5.62647 0
M  V30 5244 N 502.554 -1.34406 0.822964 0
M  V30 5245 C 503.965 -1.8069 0.469879 0
M  V30 5246 C 504.316 -1.68223 -1.00972 0
M  V30 5247 O 503.441 -1.22226 -1.78577 0
M  V30 5248 C 504.036 -3.28064 0.846118 0
M  V30 5249 C 502.595 -3.72428 0.545402 0
M  V30 5250 C 501.742 -2.56116 1.06301 0
M  V30 5251 H 504.693 -1.22153 1.01313 0
M  V30 5252 H 504.714 -3.80205 0.149922 0
M  V30 5253 H 504.226 -3.37107 1.92304 0
M  V30 5254 H 502.327 -3.68924 -0.522109 0
M  V30 5255 H 502.44 -4.66548 1.0895 0
M  V30 5256 H 500.804 -2.50048 0.484554 0
M  V30 5257 H 501.587 -2.67928 2.14638 0
M  V30 5258 N 504.032 -0.577932 -1.46621 0
M  V30 5259 C 504.964 0.195801 -2.28362 0
M  V30 5260 C 505.977 0.859983 -1.38232 0
M  V30 5261 O 507.166 0.730349 -1.62875 0
M  V30 5262 C 504.266 1.29639 -3.13124 0
M  V30 5263 C 503.439 0.725049 -4.31349 0
M  V30 5264 C 502.498 1.71274 -4.97546 0
M  V30 5265 O 501.524 1.25067 -5.5529 0
M  V30 5266 N 502.726 3.04672 -4.94121 0
M  V30 5267 H 505.491 -0.505468 -2.95407 0
M  V30 5268 H 503.052 -0.415381 -1.56481 0
M  V30 5269 H 505.044 1.95631 -3.54275 0
M  V30 5270 H 503.614 1.90059 -2.48186 0
M  V30 5271 H 502.834 -0.112205 -3.9404 0
M  V30 5272 H 504.122 0.323034 -5.07774 0
M  V30 5273 H 503.52 3.4484 -4.48444 0
M  V30 5274 H 502.077 3.66166 -5.39227 0
M  V30 5275 N 505.51 1.54411 -0.315457 0
M  V30 5276 C 506.473 2.22713 0.54142 0
M  V30 5277 C 507.473 1.2179 1.04995 0
M  V30 5278 O 508.663 1.46426 0.943667 0
M  V30 5279 C 505.795 2.92485 1.75116 0
M  V30 5280 H 506.988 2.99849 -0.0555508 0
M  V30 5281 H 504.541 1.56159 -0.0664453 0
M  V30 5282 H 505.276 2.19466 2.38758 0
M  V30 5283 H 505.061 3.66483 1.39401 0
M  V30 5284 H 506.551 3.44548 2.35959 0
M  V30 5285 N 506.988 0.0434614 1.5754 0
M  V30 5286 C 508.234 -0.632971 1.92669 0
M  V30 5287 C 508.567 -1.70947 0.921446 0
M  V30 5288 O 507.842 -1.94426 -0.0537202 0
M  V30 5289 C 508.125 -1.23619 3.38216 0
M  V30 5290 C 507.978 -0.168274 4.49485 0
M  V30 5291 C 509.297 -2.15008 3.84005 0
M  V30 5292 H 506.416 -0.228629 0.700641 0
M  V30 5293 H 509.058 0.103651 1.89717 0
M  V30 5294 H 507.208 -1.864 3.40863 0
M  V30 5295 H 508.88 0.463196 4.58969 0
M  V30 5296 H 507.123 0.504581 4.30855 0
M  V30 5297 H 507.794 -0.630218 5.48391 0
M  V30 5298 H 510.27 -1.62198 3.83185 0
M  V30 5299 H 509.146 -2.54161 4.86511 0
M  V30 5300 H 509.407 -3.04707 3.20322 0
M  V30 5301 N 508.466 -1.55915 -0.229846 0
M  V30 5302 C 509.712 -1.78807 -0.956868 0
M  V30 5303 C 510.045 -0.611687 -1.84315 0
M  V30 5304 O 509.32 0.389398 -1.90562 0
M  V30 5305 C 509.603 -3.11718 -1.80288 0
M  V30 5306 C 509.456 -4.3979 -0.943649 0
M  V30 5307 C 510.775 -3.40999 -2.78222 0
M  V30 5308 H 507.894 -0.6505 -0.346437 0
M  V30 5309 H 510.536 -1.88648 -0.226252 0
M  V30 5310 H 508.686 -3.03459 -2.42579 0
M  V30 5311 H 510.358 -4.60059 -0.338121 0
M  V30 5312 H 508.601 -4.33086 -0.248705 0
M  V30 5313 H 509.272 -5.29208 -1.5698 0
M  V30 5314 H 511.748 -3.49332 -2.26067 0
M  V30 5315 H 510.624 -4.35183 -3.34526 0
M  V30 5316 H 510.885 -2.62754 -3.55546 0
M  V30 5317 N 509.944 0.496216 -1.49584 0
M  V30 5318 C 511.221 1.25755 -1.49816 0
M  V30 5319 C 511.601 2.09859 -0.228572 0
M  V30 5320 O 510.949 2.14449 0.788908 0
M  V30 5321 C 511.159 2.11017 -2.7798 0
M  V30 5322 C 512.507 2.70047 -3.27658 0
M  V30 5323 O 513.531 2.21281 -2.79129 0
M  V30 5324 O 512.39 3.58834 -4.1219 0
M  V30 5325 H 509.484 0.569322 -0.599834 0
M  V30 5326 H 512.03 0.510094 -1.61852 0
M  V30 5327 H 510.802 1.48879 -3.61871 0
M  V30 5328 H 510.425 2.92947 -2.68827 0
M  V30 5329 N 511.423 1.38739 0.74761 0
M  V30 5330 C 512.356 1.3083 1.86972 0
M  V30 5331 C 513.334 0.184229 1.61553 0
M  V30 5332 O 514.518 0.36256 1.8498 0
M  V30 5333 C 511.645 1.02854 3.22705 0
M  V30 5334 C 510.691 2.17281 3.67003 0
M  V30 5335 S 511.524 3.79468 3.77842 0
M  V30 5336 C 512.68 3.53692 5.16385 0
M  V30 5337 H 512.913 2.258 1.93395 0
M  V30 5338 H 510.446 1.24646 0.911199 0
M  V30 5339 H 512.404 0.87397 4.01089 0
M  V30 5340 H 511.065 0.0959295 3.13953 0
M  V30 5341 H 510.258 1.93267 4.65472 0
M  V30 5342 H 509.86 2.28876 2.9579 0
M  V30 5343 H 512.152 3.10176 6.02327 0
M  V30 5344 H 513.095 4.51576 5.45422 0
M  V30 5345 H 513.503 2.8807 4.85464 0
M  V30 5346 N 512.901 -0.976442 1.23707 0
M  V30 5347 C 514.147 -1.72081 1.07312 0
M  V30 5348 C 514.48 -1.90275 -0.388476 0
M  V30 5349 O 513.755 -1.4579 -1.28746 0
M  V30 5350 C 514.038 -3.11675 1.80363 0
M  V30 5351 C 513.891 -3.01027 3.3422 0
M  V30 5352 C 515.21 -4.1117 1.5693 0
M  V30 5353 H 512.329 -0.624583 0.391236 0
M  V30 5354 H 514.971 -1.13649 1.52263 0
M  V30 5355 H 513.121 -3.61559 1.42153 0
M  V30 5356 H 514.793 -2.58637 3.81975 0
M  V30 5357 H 513.036 -2.3744 3.63049 0
M  V30 5358 H 513.707 -3.9988 3.80525 0
M  V30 5359 H 516.183 -3.7011 1.90151 0
M  V30 5360 H 515.059 -5.06928 2.10513 0
M  V30 5361 H 515.32 -4.392 0.505548 0
M  V30 5362 N 514.379 -1.04941 -1.1758 0
M  V30 5363 C 515.342 -0.652456 -2.19717 0
M  V30 5364 C 516.342 0.294745 -1.58076 0
M  V30 5365 O 517.532 0.0789579 -1.74021 0
M  V30 5366 C 514.664 0.0420712 -3.40874 0
M  V30 5367 H 515.857 -1.55642 -2.5635 0
M  V30 5368 H 513.41 -0.842995 -1.31618 0
M  V30 5369 H 514.145 0.95943 -3.09783 0
M  V30 5370 H 513.93 -0.638844 -3.86861 0
M  V30 5371 H 515.42 0.306 -4.16477 0
M  V30 5372 N 515.857 1.33968 -0.830081 0
M  V30 5373 C 517.105 1.97672 -0.420734 0
M  V30 5374 C 517.426 1.66111 1.02138 0
M  V30 5375 O 516.696 0.955503 1.71017 0
M  V30 5376 H 515.276 0.73125 -0.152587 0
M  V30 5377 H 517.938 1.63483 -1.0611 0
M  V30 5378 H 517.034 3.07294 -0.545588 0
M  V30 5379 N 517.335 0.585699 1.46312 0
M  V30 5380 C 518.298 -0.135673 2.28798 0
M  V30 5381 C 519.298 -0.815988 1.38558 0
M  V30 5382 O 520.488 -0.667487 1.60904 0
M  V30 5383 C 517.62 -1.20163 3.1902 0
M  V30 5384 H 518.813 0.589257 2.94054 0
M  V30 5385 H 516.366 0.343794 1.52472 0
M  V30 5386 H 517.101 -1.95804 2.58517 0
M  V30 5387 H 516.886 -0.718282 3.85465 0
M  V30 5388 H 518.376 -1.70749 3.81096 0
M  V30 5389 N 518.813 -1.54241 0.323641 0
M  V30 5390 C 519.763 -2.21071 -0.557833 0
M  V30 5391 C 520.747 -1.19126 -1.08157 0
M  V30 5392 O 521.939 -1.44755 -1.01857 0
M  V30 5393 C 519.068 -2.97208 -1.71821 0
M  V30 5394 C 518.154 -4.06491 -1.20936 0
M  V30 5395 N 518.545 -5.04052 -0.420202 0
M  V30 5396 C 516.843 -4.20443 -1.48808 0
M  V30 5397 C 517.544 -5.81516 -0.146413 0
M  V30 5398 N 516.52 -5.38641 -0.732562 0
M  V30 5399 H 520.322 -2.93853 0.0523921 0
M  V30 5400 H 517.836 -1.61883 0.129502 0
M  V30 5401 H 519.833 -3.4357 -2.36146 0
M  V30 5402 H 518.493 -2.25947 -2.33191 0
M  V30 5403 H 519.504 -5.17862 -0.0630401 0
M  V30 5404 H 516.181 -3.60396 -2.10762 0
M  V30 5405 H 517.571 -6.70119 0.488895 0
M  V30 5406 N 520.291 -0.0518155 -1.57515 0
M  V30 5407 C 521.537 0.616839 -1.93821 0
M  V30 5408 C 521.892 1.68413 -0.930307 0
M  V30 5409 O 521.185 1.91534 0.0504231 0
M  V30 5410 C 521.379 1.25607 -3.34601 0
M  V30 5411 C 521.208 0.252222 -4.48992 0
M  V30 5412 C 519.978 -0.156031 -5.05059 0
M  V30 5413 C 522.176 -0.502613 -5.11838 0
M  V30 5414 N 520.158 -1.15267 -6.02981 0
M  V30 5415 C 521.529 -1.35232 -6.05072 0
M  V30 5416 C 523.584 -0.560855 -4.94731 0
M  V30 5417 C 522.287 -2.25505 -6.83037 0
M  V30 5418 C 524.313 -1.45102 -5.73323 0
M  V30 5419 C 523.675 -2.28845 -6.6619 0
M  V30 5420 H 519.774 0.197344 -0.75669 0
M  V30 5421 H 522.358 -0.124297 -1.94303 0
M  V30 5422 H 520.529 1.96723 -3.34895 0
M  V30 5423 H 522.261 1.88358 -3.58195 0
M  V30 5424 H 519.016 0.22306 -4.73074 0
M  V30 5425 H 519.44 -1.64791 -6.56638 0
M  V30 5426 H 524.082 0.0723639 -4.22738 0
M  V30 5427 H 521.8 -2.89872 -7.54321 0
M  V30 5428 H 525.386 -1.50066 -5.62113 0
M  V30 5429 H 524.266 -2.96608 -7.25943 0
M  V30 5430 N 521.769 1.56035 0.221574 0
M  V30 5431 C 523.017 1.78693 0.944102 0
M  V30 5432 C 523.338 0.620317 1.8487 0
M  V30 5433 O 522.608 -0.362784 1.92512 0
M  V30 5434 H 521.188 0.659082 0.351597 0
M  V30 5435 H 523.85 1.93497 0.233435 0
M  V30 5436 H 522.946 2.70837 1.55093 0
M  V30 5437 N 523.247 -0.488276 1.49845 0
M  V30 5438 C 524.493 -1.24341 1.6021 0
M  V30 5439 C 524.826 -1.91967 0.293651 0
M  V30 5440 O 524.101 -1.81323 -0.703718 0
M  V30 5441 C 524.384 -2.3005 2.77036 0
M  V30 5442 C 524.237 -1.66842 4.17713 0
M  V30 5443 C 525.556 -3.31509 2.89464 0
M  V30 5444 H 522.675 -0.450704 0.583125 0
M  V30 5445 H 525.317 -0.539673 1.82174 0
M  V30 5446 H 523.467 -2.90071 2.58439 0
M  V30 5447 H 525.139 -1.1055 4.47858 0
M  V30 5448 H 523.382 -0.972079 4.22768 0
M  V30 5449 H 524.053 -2.43576 4.95353 0
M  V30 5450 H 526.529 -2.81493 3.06433 0
M  V30 5451 H 525.405 -4.02822 3.72861 0
M  V30 5452 H 525.666 -3.94603 1.99351 0
M  V30 5453 N 524.725 -1.39134 -0.740242 0
M  V30 5454 C 525.655 -1.40165 -1.86751 0
M  V30 5455 C 526.636 -0.265708 -1.68012 0
M  V30 5456 O 527.821 -0.47076 -1.88408 0
M  V30 5457 C 524.951 -1.2392 -3.2444 0
M  V30 5458 C 523.905 -2.34858 -3.57807 0
M  V30 5459 C 523.231 -2.03707 -4.94376 0
M  V30 5460 C 524.531 -3.77159 -3.61315 0
M  V30 5461 H 526.225 -2.345 -1.86145 0
M  V30 5462 H 523.771 -1.12875 -0.89416 0
M  V30 5463 H 525.724 -1.23263 -4.02969 0
M  V30 5464 H 524.448 -0.26051 -3.25559 0
M  V30 5465 H 523.107 -2.34723 -2.81604 0
M  V30 5466 H 522.755 -1.04289 -4.9207 0
M  V30 5467 H 522.455 -2.78016 -5.17669 0
M  V30 5468 H 523.979 -2.04691 -5.75268 0
M  V30 5469 H 525.393 -3.79252 -4.29931 0
M  V30 5470 H 523.79 -4.50784 -3.96124 0
M  V30 5471 H 524.86 -4.08513 -2.61238 0
M  V30 5472 N 526.204 0.969867 -1.24223 0
M  V30 5473 C 527.167 2.04564 -1.03373 0
M  V30 5474 C 528.167 1.60798 0.00819206 0
M  V30 5475 O 529.357 1.72641 -0.232567 0
M  V30 5476 C 526.489 3.36163 -0.566343 0
M  V30 5477 H 527.682 2.24494 -1.98853 0
M  V30 5478 H 525.235 1.1448 -1.06415 0
M  V30 5479 H 525.97 3.21925 0.391751 0
M  V30 5480 H 525.755 3.69273 -1.31834 0
M  V30 5481 H 527.245 4.1526 -0.441435 0
M  V30 5482 N 527.682 1.05563 1.17022 0
M  V30 5483 C 528.93 0.76642 1.87004 0
M  V30 5484 C 529.251 -0.708854 1.8166 0
M  V30 5485 O 528.521 -1.51242 1.2451 0
M  V30 5486 H 527.101 0.280516 0.692329 0
M  V30 5487 H 529.763 1.33557 1.41945 0
M  V30 5488 H 528.859 1.08472 2.92644 0
M  V30 5489 N 529.16 -1.33526 0.837174 0
M  V30 5490 C 530.09 -2.31764 0.284206 0
M  V30 5491 C 531.071 -1.58896 -0.607142 0
M  V30 5492 O 532.256 -1.86798 -0.531047 0
M  V30 5493 C 529.386 -3.43029 -0.542962 0
M  V30 5494 C 528.34 -4.27255 0.252451 0
M  V30 5495 C 527.666 -5.3012 -0.69836 0
M  V30 5496 C 528.966 -5.01229 1.46858 0
M  V30 5497 H 530.66 -2.78262 1.10502 0
M  V30 5498 H 528.206 -1.3378 0.532812 0
M  V30 5499 H 530.159 -4.1078 -0.940096 0
M  V30 5500 H 528.883 -2.95216 -1.39697 0
M  V30 5501 H 527.542 -3.61127 0.631124 0
M  V30 5502 H 527.19 -4.78564 -1.54872 0
M  V30 5503 H 526.89 -5.87353 -0.170274 0
M  V30 5504 H 528.414 -6.00737 -1.09305 0
M  V30 5505 H 529.828 -5.61756 1.14469 0
M  V30 5506 H 528.225 -5.68104 1.93333 0
M  V30 5507 H 529.295 -4.301 2.23924 0
M  V30 5508 N 530.638 -0.59345 -1.46 0
M  V30 5509 C 531.601 0.123538 -2.28867 0
M  V30 5510 C 532.601 0.808628 -1.38989 0
M  V30 5511 O 533.791 0.658945 -1.61256 0
M  V30 5512 C 530.923 1.1847 -3.19653 0
M  V30 5513 H 532.116 -0.604843 -2.93737 0
M  V30 5514 H 529.669 -0.351875 -1.52288 0
M  V30 5515 H 530.404 1.94431 -2.59552 0
M  V30 5516 H 530.189 0.69783 -3.8584 0
M  V30 5517 H 531.679 1.68726 -3.81997 0
M  V30 5518 N 532.116 1.54067 -0.331816 0
M  V30 5519 C 533.346 2.04833 0.269605 0
M  V30 5520 C 533.754 1.20714 1.45687 0
M  V30 5521 O 533.097 0.232539 1.82222 0
M  V30 5522 C 533.159 3.51386 0.759499 0
M  V30 5523 C 532.823 4.55971 -0.306557 0
M  V30 5524 C 533.82 5.07126 -1.14538 0
M  V30 5525 C 531.505 5.00216 -0.457116 0
M  V30 5526 C 533.499 6.01096 -2.12042 0
M  V30 5527 C 531.186 5.93999 -1.43556 0
M  V30 5528 C 532.184 6.44326 -2.26568 0
M  V30 5529 O 531.872 7.36267 -3.22749 0
M  V30 5530 H 531.604 0.673509 0.0579763 0
M  V30 5531 H 534.158 1.99748 -0.478521 0
M  V30 5532 H 532.388 3.53896 1.55867 0
M  V30 5533 H 534.077 3.85184 1.28017 0
M  V30 5534 H 534.843 4.73716 -1.04009 0
M  V30 5535 H 530.722 4.60652 0.179142 0
M  V30 5536 H 534.266 6.40302 -2.76873 0
M  V30 5537 H 530.163 6.26825 -1.54146 0
M  V30 5538 H 530.931 7.54165 -3.18083 0
M  V30 5539 N 533.594 0.0601682 1.57485 0
M  V30 5540 C 534.824 -0.620037 1.97076 0
M  V30 5541 C 535.232 -1.64381 0.936784 0
M  V30 5542 O 534.575 -1.83497 -0.0863377 0
M  V30 5543 C 534.637 -1.35617 3.32939 0
M  V30 5544 C 534.301 -0.487208 4.54396 0
M  V30 5545 C 535.298 0.250428 5.19297 0
M  V30 5546 C 532.983 -0.415494 5.00579 0
M  V30 5547 C 534.977 1.04812 6.28723 0
M  V30 5548 C 532.664 0.385879 6.0988 0
M  V30 5549 C 533.662 1.11637 6.73815 0
M  V30 5550 O 533.35 1.90454 7.81014 0
M  V30 5551 H 533.082 -0.173664 0.653312 0
M  V30 5552 H 535.636 0.1256 2.05016 0
M  V30 5553 H 533.866 -2.14763 3.2158 0
M  V30 5554 H 535.555 -1.92749 3.57215 0
M  V30 5555 H 536.321 0.204546 4.84568 0
M  V30 5556 H 532.2 -0.973679 4.506 0
M  V30 5557 H 535.744 1.6188 6.78558 0
M  V30 5558 H 531.641 0.433366 6.44044 0
M  V30 5559 H 532.409 1.82762 7.97835 0
M  V30 5560 N 535.072 -1.5615 -0.213296 0
M  V30 5561 C 536.297 -1.83986 -0.957282 0
M  V30 5562 C 536.722 -0.641526 -1.76822 0
M  V30 5563 O 536.08 0.409722 -1.7661 0
M  V30 5564 C 536.128 -3.09889 -1.84393 0
M  V30 5565 O 535.232 -2.89163 -2.94038 0
M  V30 5566 H 534.573 -0.606357 -0.270605 0
M  V30 5567 H 537.103 -2.03369 -0.224111 0
M  V30 5568 H 537.113 -3.40209 -2.25215 0
M  V30 5569 H 535.788 -3.96735 -1.24795 0
M  V30 5570 H 534.365 -2.70097 -2.57103 0
M  V30 5571 N 536.55 0.480323 -1.50102 0
M  V30 5572 C 537.483 1.59789 -1.62919 0
M  V30 5573 C 538.461 1.55429 -0.477557 0
M  V30 5574 O 539.645 1.75186 -0.695851 0
M  V30 5575 C 536.772 2.98351 -1.60325 0
M  V30 5576 C 535.818 3.20899 -2.80938 0
M  V30 5577 S 536.651 3.01791 -4.4236 0
M  V30 5578 C 537.807 4.42712 -4.42444 0
M  V30 5579 H 538.04 1.48676 -2.57454 0
M  V30 5580 H 535.573 0.666996 -1.3925 0
M  V30 5581 H 537.531 3.7824 -1.59514 0
M  V30 5582 H 536.192 3.06862 -0.670419 0
M  V30 5583 H 535.385 4.22102 -2.75401 0
M  V30 5584 H 534.987 2.48768 -2.79268 0
M  V30 5585 H 537.279 5.3518 -4.15438 0
M  V30 5586 H 538.222 4.53294 -5.43995 0
M  V30 5587 H 538.63 4.24359 -3.72263 0
M  V30 5588 N 538.028 1.39524 0.732853 0
M  V30 5589 C 539.274 1.37068 1.49467 0
M  V30 5590 C 539.607 -0.0327166 1.94172 0
M  V30 5591 O 538.882 -0.998071 1.66939 0
M  V30 5592 C 539.165 2.34494 2.73285 0
M  V30 5593 C 539.018 3.83784 2.34585 0
M  V30 5594 C 540.337 2.29717 3.75391 0
M  V30 5595 H 537.456 0.499206 0.542183 0
M  V30 5596 H 540.098 1.70532 0.837783 0
M  V30 5597 H 538.248 2.06087 3.29333 0
M  V30 5598 H 539.92 4.22949 1.84151 0
M  V30 5599 H 538.163 4.00455 1.66787 0
M  V30 5600 H 538.834 4.47444 3.23262 0
M  V30 5601 H 541.31 2.54839 3.28932 0
M  V30 5602 H 540.186 2.99962 4.59689 0
M  V30 5603 H 540.447 1.30291 4.22465 0
M  V30 5604 N 539.506 -0.963266 1.24736 0
M  V30 5605 C 540.754 -1.70343 1.08755 0
M  V30 5606 C 541.075 -1.91387 -0.373619 0
M  V30 5607 O 540.345 -1.4948 -1.2662 0
M  V30 5608 H 538.925 -0.631224 0.399456 0
M  V30 5609 H 541.587 -1.15859 1.56725 0
M  V30 5610 H 540.683 -2.68616 1.58909 0
M  V30 5611 N 540.985 -1.06182 -1.16461 0
M  V30 5612 C 541.933 -0.665716 -2.2287 0
M  V30 5613 C 542.927 0.317822 -1.66392 0
M  V30 5614 O 544.133 0.182807 -1.79069 0
M  V30 5615 H 540.508 -0.197148 -0.725697 0
M  V30 5616 H 542.479 -1.57307 -2.53569 0
M  V30 5617 C 541.228 -0.0669803 -3.47635 0
M  V30 5618 H 540.551 -0.814899 -3.91407 0
M  V30 5619 H 541.991 0.172669 -4.23648 0
M  V30 5620 C 540.45 1.18913 -3.15216 0
M  V30 5621 O 540.98 2.27723 -3.30916 0
M  V30 5622 N 539.186 1.09066 -2.69357 0
M  V30 5623 H 538.733 0.20518 -2.56782 0
M  V30 5624 H 538.691 1.93195 -2.48039 0
M  V30 5625 N 542.463 1.3308 -0.844243 0
M  V30 5626 C 543.709 1.98304 -0.452453 0
M  V30 5627 C 544.064 1.65645 0.978746 0
M  V30 5628 O 543.357 0.928849 1.6758 0
M  V30 5629 C 543.551 3.52045 -0.616354 0
M  V30 5630 C 543.38 3.99643 -2.06193 0
M  V30 5631 C 542.15 4.27224 -2.69829 0
M  V30 5632 C 544.348 4.15471 -3.03131 0
M  V30 5633 N 542.33 4.60998 -4.05406 0
M  V30 5634 C 543.701 4.52665 -4.23668 0
M  V30 5635 C 545.756 3.97776 -2.99465 0
M  V30 5636 C 544.459 4.74011 -5.41023 0
M  V30 5637 C 546.485 4.20301 -4.16055 0
M  V30 5638 C 545.847 4.57801 -5.35348 0
M  V30 5639 H 541.946 0.752122 -0.214096 0
M  V30 5640 H 544.53 1.61096 -1.09344 0
M  V30 5641 H 542.701 3.884 -0.00513205 0
M  V30 5642 H 544.433 4.04228 -0.19548 0
M  V30 5643 H 541.188 4.18911 -2.20931 0
M  V30 5644 H 541.612 4.82087 -4.75312 0
M  V30 5645 H 546.254 3.67893 -2.08362 0
M  V30 5646 H 543.972 5.02753 -6.32665 0
M  V30 5647 H 547.558 4.08122 -4.14641 0
M  V30 5648 H 546.438 4.74884 -6.24063 0
M  V30 5649 N 543.941 0.601185 1.45683 0
M  V30 5650 C 544.904 -0.111398 2.28929 0
M  V30 5651 C 545.904 -0.801246 1.39416 0
M  V30 5652 O 547.094 -0.650383 1.61603 0
M  V30 5653 C 544.226 -1.16773 3.20276 0
M  V30 5654 H 545.419 0.620412 2.93413 0
M  V30 5655 H 542.972 0.359946 1.52099 0
M  V30 5656 H 543.707 -1.93051 2.60579 0
M  V30 5657 H 543.492 -0.677358 3.86205 0
M  V30 5658 H 544.982 -1.66698 3.82886 0
M  V30 5659 N 545.419 -1.53889 0.339982 0
M  V30 5660 C 546.366 -2.24902 -0.518452 0
M  V30 5661 C 547.336 -1.24593 -1.09844 0
M  V30 5662 O 548.521 -1.53317 -1.13572 0
M  V30 5663 C 545.661 -3.02262 -1.66529 0
M  V30 5664 C 544.774 -4.17418 -1.11295 0
M  V30 5665 C 543.909 -4.82273 -2.2268 0
M  V30 5666 C 542.948 -5.89503 -1.6478 0
M  V30 5667 N 542.085 -6.48153 -2.69893 0
M  V30 5668 H 546.925 -2.97853 0.0936579 0
M  V30 5669 H 544.462 -1.46986 0.0579924 0
M  V30 5670 H 546.42 -3.45371 -2.3404 0
M  V30 5671 H 545.05 -2.31614 -2.24844 0
M  V30 5672 H 544.102 -3.78976 -0.328886 0
M  V30 5673 H 545.414 -4.94554 -0.649414 0
M  V30 5674 H 544.568 -5.28435 -2.98063 0
M  V30 5675 H 543.307 -4.04552 -2.72376 0
M  V30 5676 H 542.312 -5.42728 -0.879004 0
M  V30 5677 H 543.537 -6.6913 -1.1594 0
M  V30 5678 H 541.483 -5.73298 -3.1885 0
M  V30 5679 H 541.4 -7.20752 -2.28151 0
M  V30 5680 H 542.668 -6.98968 -3.45056 0
M  V30 5681 N 546.897 -0.0685191 -1.57451 0
M  V30 5682 C 548.143 0.602239 -1.93652 0
M  V30 5683 C 548.476 1.6946 -0.948526 0
M  V30 5684 O 547.751 1.94487 0.022782 0
M  V30 5685 C 548.034 1.18223 -3.4014 0
M  V30 5686 C 547.887 0.0967431 -4.49696 0
M  V30 5687 C 549.206 2.08872 -3.87377 0
M  V30 5688 H 546.325 0.217453 -0.70419 0
M  V30 5689 H 548.967 -0.133821 -1.89528 0
M  V30 5690 H 547.117 1.80953 -3.43785 0
M  V30 5691 H 548.789 -0.536155 -4.58174 0
M  V30 5692 H 547.032 -0.573063 -4.29998 0
M  V30 5693 H 547.703 0.542894 -5.49324 0
M  V30 5694 H 550.179 1.56081 -3.85717 0
M  V30 5695 H 549.055 2.46389 -4.90493 0
M  V30 5696 H 549.316 2.99572 -3.25129 0
M  V30 5697 N 548.375 1.56261 0.205012 0
M  V30 5698 C 549.305 1.96779 1.257 0
M  V30 5699 C 550.286 0.838309 1.48008 0
M  V30 5700 O 551.471 1.10189 1.59913 0
M  V30 5701 C 548.601 2.29876 2.60335 0
M  V30 5702 C 547.555 3.45469 2.52656 0
M  V30 5703 C 546.881 3.64215 3.91473 0
M  V30 5704 C 548.181 4.79954 2.06014 0
M  V30 5705 H 549.875 2.84904 0.920338 0
M  V30 5706 H 547.421 1.37072 0.441277 0
M  V30 5707 H 549.374 2.56814 3.34102 0
M  V30 5708 H 548.098 1.38622 2.95722 0
M  V30 5709 H 546.757 3.18605 1.81345 0
M  V30 5710 H 546.405 2.70309 4.24196 0
M  V30 5711 H 546.105 4.41973 3.87213 0
M  V30 5712 H 547.629 3.93519 4.66878 0
M  V30 5713 H 549.043 5.05989 2.69533 0
M  V30 5714 H 547.44 5.61111 2.12777 0
M  V30 5715 H 548.51 4.74201 1.01297 0
M  V30 5716 N 549.853 -0.472356 1.50355 0
M  V30 5717 C 551.102 -1.2213 1.60522 0
M  V30 5718 C 551.415 -1.9312 0.310466 0
M  V30 5719 O 552.621 -2.69936 0.291029 0
M  V30 5720 C 551.077 -2.21909 2.83345 0
M  V30 5721 C 550.685 -1.56727 4.19691 0
M  V30 5722 C 552.429 -2.97453 3.02856 0
M  V30 5723 C 550.336 -2.54785 5.33703 0
M  V30 5724 H 549.266 -0.459543 0.597776 0
M  V30 5725 H 551.917 -0.491922 1.76783 0
M  V30 5726 H 550.299 -2.98133 2.60639 0
M  V30 5727 H 551.473 -0.863007 4.52646 0
M  V30 5728 H 549.788 -0.934685 4.05774 0
M  V30 5729 H 552.385 -3.70838 3.85205 0
M  V30 5730 H 552.728 -3.56764 2.14534 0
M  V30 5731 H 553.261 -2.28342 3.25737 0
M  V30 5732 H 550 -2.00214 6.24175 0
M  V30 5733 H 549.52 -3.23367 5.05167 0
M  V30 5734 H 551.199 -3.16639 5.64224 0
M  V30 5735 N 551.331 -1.39911 -0.725443 0
M  V30 5736 C 552.577 -1.37858 -1.48738 0
M  V30 5737 C 552.91 0.0224187 -1.94187 0
M  V30 5738 O 552.185 0.989204 -1.67466 0
M  V30 5739 C 552.468 -2.3594 -2.72038 0
M  V30 5740 C 552.321 -3.85023 -2.32546 0
M  V30 5741 C 553.64 -2.31704 -3.74167 0
M  V30 5742 H 550.759 -0.502074 -0.539528 0
M  V30 5743 H 553.401 -1.70974 -0.828728 0
M  V30 5744 H 551.551 -2.0783 -3.28236 0
M  V30 5745 H 553.223 -4.2392 -1.81905 0
M  V30 5746 H 551.466 -4.01334 -1.64661 0
M  V30 5747 H 552.137 -4.49152 -3.20884 0
M  V30 5748 H 554.613 -2.5658 -3.27576 0
M  V30 5749 H 553.489 -3.02395 -4.58092 0
M  V30 5750 H 553.75 -1.3253 -4.21768 0
M  V30 5751 N 552.809 0.956637 -1.25245 0
M  V30 5752 C 553.742 2.05232 -0.99775 0
M  V30 5753 C 554.72 1.62439 0.0723137 0
M  V30 5754 O 555.904 1.88381 -0.066926 0
M  V30 5755 C 553.031 3.34871 -0.507861 0
M  V30 5756 C 552.077 3.96625 -1.56815 0
M  V30 5757 S 552.91 4.32853 -3.15276 0
M  V30 5758 C 554.066 5.65613 -2.68017 0
M  V30 5759 H 554.299 2.26521 -1.9255 0
M  V30 5760 H 551.832 1.09601 -1.08752 0
M  V30 5761 H 553.79 4.09845 -0.231858 0
M  V30 5762 H 552.451 3.11551 0.399356 0
M  V30 5763 H 551.644 4.90087 -1.17604 0
M  V30 5764 H 551.246 3.28124 -1.79473 0
M  V30 5765 H 553.538 6.43635 -2.11518 0
M  V30 5766 H 554.481 6.09693 -3.60112 0
M  V30 5767 H 554.889 5.24751 -2.0808 0
M  V30 5768 N 554.287 1.06798 1.15896 0
M  V30 5769 C 555.217 0.704677 2.22613 0
M  V30 5770 C 556.198 -0.305252 1.67339 0
M  V30 5771 O 557.383 -0.179247 1.93371 0
M  V30 5772 C 554.513 0.0957325 3.47168 0
M  V30 5773 C 553.467 1.0322 4.15367 0
M  V30 5774 C 552.793 0.286293 5.33933 0
M  V30 5775 C 554.093 2.36341 4.65768 0
M  V30 5776 H 555.787 1.59688 2.53259 0
M  V30 5777 H 553.333 0.769257 1.21731 0
M  V30 5778 H 555.286 -0.170333 4.21056 0
M  V30 5779 H 554.01 -0.831516 3.15838 0
M  V30 5780 H 552.669 1.28309 3.43413 0
M  V30 5781 H 552.317 -0.644237 4.98857 0
M  V30 5782 H 552.017 0.910436 5.80504 0
M  V30 5783 H 553.541 0.0278938 6.10594 0
M  V30 5784 H 554.955 2.1561 5.31211 0
M  V30 5785 H 553.352 2.94299 5.2298 0
M  V30 5786 H 554.422 2.99047 3.81705 0
M  V30 5787 N 555.766 -1.3263 0.851289 0
M  V30 5788 C 556.696 -2.31449 0.308771 0
M  V30 5789 C 557.677 -1.59531 -0.590255 0
M  V30 5790 O 558.862 -1.87351 -0.511205 0
M  V30 5791 C 555.992 -3.43586 -0.506548 0
M  V30 5792 C 554.946 -4.26963 0.297753 0
M  V30 5793 C 554.272 -5.30831 -0.642094 0
M  V30 5794 C 555.572 -4.99643 1.52166 0
M  V30 5795 H 557.266 -2.77074 1.13447 0
M  V30 5796 H 554.812 -1.33207 0.546971 0
M  V30 5797 H 556.765 -4.11754 -0.896474 0
M  V30 5798 H 555.489 -2.96681 -1.36558 0
M  V30 5799 H 554.148 -3.60437 0.669391 0
M  V30 5800 H 553.796 -4.8018 -1.49788 0
M  V30 5801 H 553.496 -5.87501 -0.107968 0
M  V30 5802 H 555.02 -6.01862 -1.02927 0
M  V30 5803 H 556.434 -5.6051 1.20421 0
M  V30 5804 H 554.831 -5.66022 1.99347 0
M  V30 5805 H 555.901 -4.27701 2.28474 0
M  V30 5806 N 557.244 -0.608902 -1.45362 0
M  V30 5807 C 558.491 -0.104607 -2.0223 0
M  V30 5808 C 558.819 1.26534 -1.47714 0
M  V30 5809 O 558.074 1.84855 -0.642435 0
M  V30 5810 C 558.373 -0.0167296 -3.57396 0
M  V30 5811 C 558.039 -1.32251 -4.31069 0
M  V30 5812 C 556.701 -1.68019 -4.50914 0
M  V30 5813 C 559.053 -2.18542 -4.73169 0
M  V30 5814 C 556.381 -2.89828 -5.10114 0
M  V30 5815 C 558.733 -3.39602 -5.33717 0
M  V30 5816 C 557.397 -3.7562 -5.51784 0
M  V30 5817 H 556.667 -0.0382785 -0.740011 0
M  V30 5818 H 559.314 -0.790782 -1.7441 0
M  V30 5819 H 557.619 0.752715 -3.84502 0
M  V30 5820 H 559.316 0.389634 -3.99103 0
M  V30 5821 H 555.906 -1.03411 -4.15938 0
M  V30 5822 H 560.09 -1.92208 -4.5757 0
M  V30 5823 H 555.346 -3.17839 -5.22291 0
M  V30 5824 H 559.52 -4.06716 -5.65292 0
M  V30 5825 H 557.147 -4.70093 -5.97425 0
M  V30 5826 N 558.722 1.53707 -0.348139 0
M  V30 5827 C 559.685 2.23812 0.494058 0
M  V30 5828 C 560.685 1.23989 1.02388 0
M  V30 5829 O 561.875 1.48395 0.912396 0
M  V30 5830 C 559.007 2.96133 1.68872 0
M  V30 5831 H 560.2 2.99663 -0.119141 0
M  V30 5832 H 557.753 1.55983 -0.0995539 0
M  V30 5833 H 558.488 2.24481 2.34049 0
M  V30 5834 H 558.273 3.69357 1.31596 0
M  V30 5835 H 559.763 3.49475 2.28597 0
M  V30 5836 N 560.2 0.0768682 1.57412 0
M  V30 5837 C 561.448 -0.589918 1.93299 0
M  V30 5838 C 561.769 -1.69842 0.958049 0
M  V30 5839 O 561.039 -1.95899 0.00703261 0
M  V30 5840 H 559.619 -0.220901 0.713591 0
M  V30 5841 H 562.281 0.135917 1.94425 0
M  V30 5842 H 561.377 -1.01195 2.95239 0
M  V30 5843 N 561.678 -1.56367 -0.196722 0
M  V30 5844 C 562.924 -1.80796 -0.918725 0
M  V30 5845 C 563.257 -0.650645 -1.82976 0
M  V30 5846 O 562.532 0.348889 -1.91345 0
M  V30 5847 C 562.815 -3.15472 -1.73636 0
M  V30 5848 C 562.668 -4.41693 -0.85015 0
M  V30 5849 C 563.987 -3.46824 -2.70927 0
M  V30 5850 H 561.106 -0.657702 -0.332561 0
M  V30 5851 H 563.748 -1.89086 -0.186186 0
M  V30 5852 H 561.898 -3.08536 -2.36088 0
M  V30 5853 H 563.57 -4.60673 -0.240459 0
M  V30 5854 H 561.813 -4.33517 -0.156785 0
M  V30 5855 H 562.484 -5.32419 -1.45719 0
M  V30 5856 H 564.96 -3.54049 -2.18607 0
M  V30 5857 H 563.836 -4.4218 -3.25219 0
M  V30 5858 H 564.097 -2.70236 -3.49893 0
M  V30 5859 N 563.156 0.464375 -1.50603 0
M  V30 5860 C 564.433 1.22549 -1.5245 0
M  V30 5861 C 564.813 2.09327 -0.273035 0
M  V30 5862 O 564.161 2.16074 0.743242 0
M  V30 5863 C 564.371 2.05074 -2.82393 0
M  V30 5864 C 565.719 2.63036 -3.33313 0
M  V30 5865 O 566.743 2.1531 -2.8376 0
M  V30 5866 O 565.602 3.5001 -4.19709 0
M  V30 5867 H 562.696 0.556471 -0.611775 0
M  V30 5868 H 565.242 0.475648 -1.62898 0
M  V30 5869 H 564.014 1.41169 -3.64948 0
M  V30 5870 H 563.637 2.87179 -2.7498 0
M  V30 5871 N 564.634 1.40294 0.718013 0
M  V30 5872 C 565.882 1.38167 1.47494 0
M  V30 5873 C 566.203 -0.01607 1.94993 0
M  V30 5874 O 565.473 -0.970396 1.70177 0
M  V30 5875 H 564.053 0.508505 0.547203 0
M  V30 5876 H 566.715 1.75324 0.851322 0
M  V30 5877 H 565.811 2.05503 2.34894 0
M  V30 5878 N 566.112 -0.949982 1.2575 0
M  V30 5879 C 567.062 -2.03297 1.03221 0
M  V30 5880 C 568.046 -1.60867 -0.0324751 0
M  V30 5881 O 569.238 -1.76047 0.183423 0
M  V30 5882 C 566.367 -3.36938 0.657841 0
M  V30 5883 C 565.453 -3.85878 1.75952 0
M  V30 5884 N 565.844 -4.0756 2.99547 0
M  V30 5885 C 564.142 -4.14709 1.64111 0
M  V30 5886 C 564.843 -4.47961 3.71087 0
M  V30 5887 N 563.819 -4.5416 2.98731 0
M  V30 5888 H 567.621 -2.1806 1.97045 0
M  V30 5889 H 565.135 -1.13516 1.16138 0
M  V30 5890 H 567.132 -4.14155 0.477614 0
M  V30 5891 H 565.792 -3.2355 -0.273025 0
M  V30 5892 H 566.803 -3.94501 3.35544 0
M  V30 5893 H 563.48 -4.10158 0.779527 0
M  V30 5894 H 564.87 -4.73002 4.77199 0
M  V30 5895 N 567.59 -1.07411 -1.15328 0
M  V30 5896 C 568.818 -0.818782 -1.90009 0
M  V30 5897 C 569.233 0.628072 -1.78047 0
M  V30 5898 O 568.59 1.43085 -1.13282 0
M  V30 5899 C 568.641 -1.21874 -3.40337 0
M  V30 5900 O 568.362 -2.60883 -3.51954 0
M  V30 5901 C 569.863 -0.992796 -4.3204 0
M  V30 5902 H 567.083 -0.296007 -0.60218 0
M  V30 5903 H 569.627 -1.43073 -1.46117 0
M  V30 5904 H 567.782 -0.651103 -3.81889 0
M  V30 5905 H 568.196 -2.77216 -4.45255 0
M  V30 5906 H 569.67 -1.32215 -5.35932 0
M  V30 5907 H 570.147 0.0708331 -4.39143 0
M  V30 5908 H 570.753 -1.54537 -3.9623 0
M  V30 5909 N 569.068 1.32177 -0.85831 0
M  V30 5910 C 570.018 2.26307 -0.277307 0
M  V30 5911 C 571.002 1.50123 0.578946 0
M  V30 5912 O 572.194 1.71754 0.427731 0
M  V30 5913 C 569.323 3.39181 0.530232 0
M  V30 5914 C 568.409 4.22746 -0.338613 0
M  V30 5915 N 568.8 4.85265 -1.4266 0
M  V30 5916 C 567.098 4.45813 -0.129 0
M  V30 5917 C 567.799 5.47634 -1.96142 0
M  V30 5918 N 566.775 5.28794 -1.26007 0
M  V30 5919 H 570.577 2.72173 -1.10902 0
M  V30 5920 H 568.091 1.46308 -0.704816 0
M  V30 5921 H 570.088 4.05628 0.962904 0
M  V30 5922 H 568.748 2.9486 1.35969 0
M  V30 5923 H 569.759 4.85259 -1.80953 0
M  V30 5924 H 566.436 4.12163 0.665451 0
M  V30 5925 H 567.826 6.0735 -2.8736 0
M  V30 5926 N 570.547 0.616602 1.45037 0
M  V30 5927 C 571.793 0.115501 2.02471 0
M  V30 5928 C 572.126 -1.25406 1.4828 0
M  V30 5929 O 571.401 -1.82922 0.661051 0
M  V30 5930 C 571.684 0.0863588 3.59996 0
M  V30 5931 C 571.537 1.48723 4.24501 0
M  V30 5932 C 572.856 -0.596762 4.36035 0
M  V30 5933 H 569.975 0.0434461 0.735718 0
M  V30 5934 H 572.617 0.7903 1.72784 0
M  V30 5935 H 570.767 -0.488277 3.85419 0
M  V30 5936 H 572.439 2.10964 4.10234 0
M  V30 5937 H 570.682 2.04534 3.82555 0
M  V30 5938 H 571.353 1.419 5.3345 0
M  V30 5939 H 573.829 -0.10824 4.15959 0
M  V30 5940 H 572.705 -0.586289 5.4576 0
M  V30 5941 H 572.966 -1.66451 4.09569 0
M  V30 5942 N 572.025 -1.5352 0.356285 0
M  V30 5943 C 573.253 -2.05534 -0.237328 0
M  V30 5944 C 573.668 -1.23043 -1.43199 0
M  V30 5945 O 573.025 -0.268821 -1.80509 0
M  V30 5946 C 573.076 -3.55791 -0.639933 0
M  V30 5947 O 572.797 -4.35154 0.507233 0
M  V30 5948 C 574.298 -4.24027 -1.29292 0
M  V30 5949 H 571.518 -0.669585 -0.0435572 0
M  V30 5950 H 574.062 -1.97988 0.511963 0
M  V30 5951 H 572.217 -3.63518 -1.33915 0
M  V30 5952 H 572.631 -5.24178 0.18375 0
M  V30 5953 H 574.105 -5.30509 -1.52527 0
M  V30 5954 H 574.582 -3.77166 -2.25039 0
M  V30 5955 H 575.188 -4.20527 -0.63539 0
M  V30 5956 N 573.503 -0.0852151 -1.57369 0
M  V30 5957 C 574.751 0.579658 -1.93609 0
M  V30 5958 C 575.072 1.69332 -0.967043 0
M  V30 5959 O 574.342 1.95892 -0.0174215 0
M  V30 5960 H 572.922 0.217113 -0.714752 0
M  V30 5961 H 575.584 -0.146226 -1.94351 0
M  V30 5962 H 574.68 0.996276 -2.95771 0
M  V30 5963 N 574.981 1.5647 0.188427 0
M  V30 5964 C 576.229 1.80655 0.905986 0
M  V30 5965 C 576.55 0.659391 1.83513 0
M  V30 5966 O 575.82 -0.321868 1.93238 0
M  V30 5967 H 574.4 0.666391 0.337538 0
M  V30 5968 H 577.062 1.93949 0.192339 0
M  V30 5969 H 576.158 2.74066 1.49313 0
M  V30 5970 N 576.459 -0.456382 1.50847 0
M  V30 5971 C 577.875 -0.791345 1.386 0
M  V30 5972 C 578.075 -1.9633 0.453498 0
M  V30 5973 O 577.131 -2.52308 -0.0984353 0
M  V30 5974 C 578.444 -1.08959 2.80265 0
M  V30 5975 C 579.992 -1.19517 2.89283 0
M  V30 5976 C 580.467 -1.52647 4.31814 0
M  V30 5977 N 581.958 -1.59609 4.34832 0
M  V30 5978 C 582.693 -1.86777 5.42127 0
M  V30 5979 N 582.189 -2.11866 6.59609 0
M  V30 5980 N 583.982 -1.88402 5.29586 0
M  V30 5981 H 576.133 0.315746 2.1004 0
M  V30 5982 H 578.396 0.0787916 0.94472 0
M  V30 5983 H 578.102 -0.301355 3.50407 0
M  V30 5984 H 577.976 -2.02211 3.18419 0
M  V30 5985 H 580.363 -1.97406 2.19351 0
M  V30 5986 H 580.444 -0.242111 2.54652 0
M  V30 5987 H 580.088 -0.752922 5.02288 0
M  V30 5988 H 580.018 -2.49127 4.63943 0
M  V30 5989 H 582.509 -1.42201 3.50125 0
M  V30 5990 H 582.822 -2.31912 7.37182 0
M  V30 5991 H 581.167 -2.09228 6.62758 0
M  V30 5992 H 584.358 -1.68307 4.36795 0
M  V30 5993 H 584.531 -2.09238 6.13289 0
M  V30 5994 N 577.937 -1.40673 -0.710563 0
M  V30 5995 C 579.183 -1.39428 -1.47267 0
M  V30 5996 C 579.516 0.00182129 -1.942 0
M  V30 5997 O 578.791 0.971387 -1.68506 0
M  V30 5998 C 579.074 -2.38812 -2.6952 0
M  V30 5999 C 578.927 -3.87467 -2.28449 0
M  V30 6000 C 580.246 -2.3566 -3.71689 0
M  V30 6001 H 577.365 -0.507768 -0.534173 0
M  V30 6002 H 580.007 -1.71843 -0.810547 0
M  V30 6003 H 578.157 -2.113 -3.26013 0
M  V30 6004 H 579.829 -4.25825 -1.77399 0
M  V30 6005 H 578.072 -4.03058 -1.60395 0
M  V30 6006 H 578.743 -4.5253 -3.16103 0
M  V30 6007 H 581.219 -2.6004 -3.24836 0
M  V30 6008 H 580.095 -3.07237 -4.54859 0
M  V30 6009 H 580.356 -1.36996 -4.20339 0
M  V30 6010 N 579.415 0.9433 -1.26252 0
M  V30 6011 C 580.378 2.02326 -1.07689 0
M  V30 6012 C 581.378 1.60779 -0.0259174 0
M  V30 6013 O 582.568 1.72108 -0.269134 0
M  V30 6014 C 579.7 3.34886 -0.63752 0
M  V30 6015 H 580.893 2.20225 -2.0357 0
M  V30 6016 H 578.446 1.12197 -1.08819 0
M  V30 6017 H 579.181 3.22684 0.323377 0
M  V30 6018 H 578.966 3.66393 -1.39637 0
M  V30 6019 H 580.456 4.14231 -0.529418 0
M  V30 6020 N 580.893 1.08022 1.14757 0
M  V30 6021 C 582.118 0.82895 1.90114 0
M  V30 6022 C 582.543 -0.612772 1.77839 0
M  V30 6023 O 581.901 -1.42895 1.11583 0
M  V30 6024 C 581.949 1.25062 3.38219 0
M  V30 6025 O 581.053 0.400119 4.10454 0
M  V30 6026 H 580.394 0.301412 0.591648 0
M  V30 6027 H 582.924 1.44062 1.45284 0
M  V30 6028 H 582.934 1.22977 3.89025 0
M  V30 6029 H 581.609 2.30067 3.46471 0
M  V30 6030 H 580.186 0.484052 3.69745 0
M  V30 6031 N 582.371 -1.3172 0.865308 0
M  V30 6032 C 583.596 -2.01591 0.487415 0
M  V30 6033 C 584.021 -1.6455 -0.911307 0
M  V30 6034 O 583.379 -0.851689 -1.6005 0
M  V30 6035 C 583.427 -3.54759 0.646401 0
M  V30 6036 O 582.531 -4.11185 -0.316284 0
M  V30 6037 H 581.872 -0.634884 0.194468 0
M  V30 6038 H 584.402 -1.68024 1.16744 0
M  V30 6039 H 584.412 -4.04438 0.537932 0
M  V30 6040 H 583.087 -3.8106 1.66632 0
M  V30 6041 H 581.664 -3.72543 -0.163162 0
M  V30 6042 N 583.85 -0.624285 -1.44708 0
M  V30 6043 C 585.077 -0.132919 -2.06473 0
M  V30 6044 C 585.493 1.18967 -1.46602 0
M  V30 6045 O 584.85 1.72824 -0.586341 0
M  V30 6046 C 584.901 -0.00465418 -3.615 0
M  V30 6047 O 584.622 -1.27494 -4.19138 0
M  V30 6048 C 586.123 0.516213 -4.40284 0
M  V30 6049 H 583.343 -0.0765201 -0.666623 0
M  V30 6050 H 585.887 -0.856751 -1.85688 0
M  V30 6051 H 584.042 0.669583 -3.8157 0
M  V30 6052 H 584.456 -1.11536 -5.12504 0
M  V30 6053 H 585.93 0.554994 -5.49203 0
M  V30 6054 H 586.407 1.5419 -4.11245 0
M  V30 6055 H 587.013 -0.124542 -4.25118 0
M  V30 6056 N 585.328 1.53329 -0.364422 0
M  V30 6057 C 586.26 2.23286 0.517293 0
M  V30 6058 C 587.273 1.24657 1.04711 0
M  V30 6059 O 588.462 1.50887 0.95369 0
M  V30 6060 C 585.562 2.91604 1.72685 0
M  V30 6061 C 584.735 4.1673 1.32873 0
M  V30 6062 C 583.794 4.68269 2.40022 0
M  V30 6063 O 582.82 5.31976 2.02461 0
M  V30 6064 N 584.022 4.45983 3.7159 0
M  V30 6065 H 586.787 2.99588 -0.0819391 0
M  V30 6066 H 584.348 1.60787 -0.189544 0
M  V30 6067 H 586.34 3.22992 2.4384 0
M  V30 6068 H 584.91 2.18763 2.23297 0
M  V30 6069 H 584.13 3.91657 0.447069 0
M  V30 6070 H 585.418 4.98078 1.03902 0
M  V30 6071 H 584.816 3.95077 4.04883 0
M  V30 6072 H 583.373 4.81924 4.38854 0
M  V30 6073 N 586.806 0.0935595 1.57322 0
M  V30 6074 C 588.031 -0.582324 1.99057 0
M  V30 6075 C 588.456 -1.61025 0.972242 0
M  V30 6076 O 587.814 -1.81202 -0.0594622 0
M  V30 6077 C 587.862 -1.20799 3.39765 0
M  V30 6078 O 586.966 -2.32382 3.40694 0
M  V30 6079 H 586.307 -0.147884 0.647323 0
M  V30 6080 H 588.837 0.174516 2.03854 0
M  V30 6081 H 588.847 -1.54966 3.77425 0
M  V30 6082 H 587.522 -0.454914 4.13405 0
M  V30 6083 H 586.099 -1.99845 3.14827 0
M  V30 6084 N 588.284 -1.56567 -0.180126 0
M  V30 6085 C 589.214 -1.98753 -1.22553 0
M  V30 6086 C 590.195 -0.86175 -1.46656 0
M  V30 6087 O 591.38 -1.12719 -1.58139 0
M  V30 6088 C 588.51 -2.33988 -2.56645 0
M  V30 6089 C 587.464 -3.49445 -2.47128 0
M  V30 6090 C 586.79 -3.70397 -3.8563 0
M  V30 6091 C 588.09 -4.83171 -1.98352 0
M  V30 6092 H 589.784 -2.86332 -0.874896 0
M  V30 6093 H 587.33 -1.37757 -0.419414 0
M  V30 6094 H 589.283 -2.62097 -3.29974 0
M  V30 6095 H 588.007 -1.43309 -2.93479 0
M  V30 6096 H 586.666 -3.2145 -1.76254 0
M  V30 6097 H 586.314 -2.77023 -4.19842 0
M  V30 6098 H 586.014 -4.48077 -3.80132 0
M  V30 6099 H 587.538 -4.00897 -4.60558 0
M  V30 6100 H 588.952 -5.10213 -2.61449 0
M  V30 6101 H 587.349 -5.64425 -2.03823 0
M  V30 6102 H 588.419 -4.75753 -0.937402 0
M  V30 6103 N 589.762 0.448376 -1.51087 0
M  V30 6104 C 591.008 1.20049 -1.6345 0
M  V30 6105 C 591.341 1.91121 -0.344444 0
M  V30 6106 O 590.616 1.83125 0.655396 0
M  V30 6107 C 590.899 2.22624 -2.83038 0
M  V30 6108 C 590.752 1.55708 -4.21989 0
M  V30 6109 C 592.071 3.23718 -2.98152 0
M  V30 6110 H 589.19 0.435085 -0.59487 0
M  V30 6111 H 591.832 0.491183 -1.83541 0
M  V30 6112 H 589.982 2.83117 -2.66039 0
M  V30 6113 H 591.654 0.986367 -4.50631 0
M  V30 6114 H 589.897 0.859647 -4.25197 0
M  V30 6115 H 590.568 2.30357 -5.01637 0
M  V30 6116 H 593.044 2.73269 -3.13788 0
M  V30 6117 H 591.92 3.92795 -3.83411 0
M  V30 6118 H 592.181 3.89179 -2.09743 0
M  V30 6119 N 591.24 1.41047 0.703093 0
M  V30 6120 C 592.465 1.43537 1.49706 0
M  V30 6121 C 592.89 0.0401853 1.88057 0
M  V30 6122 O 592.248 -0.954785 1.54122 0
M  V30 6123 C 592.296 2.3433 2.74084 0
M  V30 6124 O 591.4 1.79515 3.71279 0
M  V30 6125 H 590.741 0.487454 0.450871 0
M  V30 6126 H 593.271 1.85422 0.86486 0
M  V30 6127 H 593.281 2.49947 3.22476 0
M  V30 6128 H 591.956 3.35708 2.45506 0
M  V30 6129 H 590.533 1.7331 3.30179 0
M  V30 6130 N 592.718 -0.936591 1.26751 0
M  V30 6131 C 593.964 -1.68625 1.13741 0
M  V30 6132 C 594.319 -1.898 -0.315221 0
M  V30 6133 O 593.612 -1.47088 -1.22783 0
M  V30 6134 C 593.806 -3.06099 1.84494 0
M  V30 6135 C 593.635 -2.98338 3.36488 0
M  V30 6136 C 592.405 -3.01104 4.05789 0
M  V30 6137 C 594.603 -2.78128 4.32608 0
M  V30 6138 N 592.585 -2.8369 5.4442 0
M  V30 6139 C 593.956 -2.69329 5.58446 0
M  V30 6140 C 596.011 -2.62946 4.22804 0
M  V30 6141 C 594.714 -2.46899 6.75598 0
M  V30 6142 C 596.74 -2.41892 5.39669 0
M  V30 6143 C 596.102 -2.33829 6.64457 0
M  V30 6144 H 592.201 -0.624227 0.471025 0
M  V30 6145 H 594.785 -1.10798 1.601 0
M  V30 6146 H 592.956 -3.62057 1.40604 0
M  V30 6147 H 594.688 -3.69951 1.64067 0
M  V30 6148 H 591.443 -3.10992 3.57185 0
M  V30 6149 H 591.867 -2.78138 6.17226 0
M  V30 6150 H 596.509 -2.67944 3.27056 0
M  V30 6151 H 594.227 -2.40642 7.71438 0
M  V30 6152 H 597.813 -2.31043 5.33957 0
M  V30 6153 H 596.693 -2.17754 7.53361 0
M  V30 6154 N 594.196 -1.08629 -1.14182 0
M  V30 6155 C 595.126 -0.740003 -2.21464 0
M  V30 6156 C 596.107 0.278591 -1.67803 0
M  V30 6157 O 597.292 0.148461 -1.93632 0
M  V30 6158 C 594.422 -0.150952 -3.46972 0
M  V30 6159 C 593.376 -1.09815 -4.13672 0
M  V30 6160 C 592.702 -0.3712 -5.3341 0
M  V30 6161 C 594.002 -2.43722 -4.61949 0
M  V30 6162 H 595.696 -1.63697 -2.50686 0
M  V30 6163 H 593.242 -0.788526 -1.20492 0
M  V30 6164 H 595.195 0.103325 -4.21273 0
M  V30 6165 H 593.919 0.781164 -3.1712 0
M  V30 6166 H 592.578 -1.33756 -3.41328 0
M  V30 6167 H 592.226 0.564792 -4.99819 0
M  V30 6168 H 591.926 -1.00267 -5.78982 0
M  V30 6169 H 593.45 -0.12503 -6.10472 0
M  V30 6170 H 594.864 -2.24034 -5.27714 0
M  V30 6171 H 593.261 -3.02582 -5.18232 0
M  V30 6172 H 594.331 -3.05082 -3.76899 0
M  V30 6173 N 595.674 1.31259 -0.872281 0
M  V30 6174 C 596.899 2.0133 -0.498099 0
M  V30 6175 C 597.324 1.65031 0.902568 0
M  V30 6176 O 596.682 0.860164 1.59596 0
M  V30 6177 C 596.73 3.54411 -0.665205 0
M  V30 6178 O 595.834 4.11347 0.294473 0
M  V30 6179 H 595.175 0.633844 -0.197832 0
M  V30 6180 H 597.705 1.67402 -1.17633 0
M  V30 6181 H 597.715 4.04147 -0.559373 0
M  V30 6182 H 596.39 3.80171 -1.68651 0
M  V30 6183 H 594.967 3.72624 0.143403 0
M  V30 6184 N 597.152 0.631951 1.44375 0
M  V30 6185 C 598.084 -0.110911 2.28931 0
M  V30 6186 C 599.097 -0.808086 1.41329 0
M  V30 6187 O 600.286 -0.669396 1.65473 0
M  V30 6188 C 597.386 -1.17928 3.1772 0
M  V30 6189 C 596.559 -0.564458 4.33743 0
M  V30 6190 C 595.618 -1.5269 5.0356 0
M  V30 6191 O 594.644 -1.04372 5.59549 0
M  V30 6192 N 595.846 -2.86123 5.05088 0
M  V30 6193 H 598.611 0.614758 2.93327 0
M  V30 6194 H 596.172 0.473171 1.54831 0
M  V30 6195 H 598.164 -1.82348 3.61291 0
M  V30 6196 H 596.734 -1.80717 2.55069 0
M  V30 6197 H 595.954 0.258373 3.93352 0
M  V30 6198 H 597.242 -0.134355 5.08623 0
M  V30 6199 H 596.64 -3.27959 4.60933 0
M  V30 6200 H 595.197 -3.45901 5.52445 0
M  V30 6201 N 598.631 -1.53133 0.372548 0
M  V30 6202 C 599.879 -2.00958 -0.214534 0
M  V30 6203 C 600.2 -1.26135 -1.48711 0
M  V30 6204 O 599.47 -0.376597 -1.92246 0
M  V30 6205 H 598.05 -0.742456 -0.0822664 0
M  V30 6206 H 600.712 -1.88367 0.500385 0
M  V30 6207 H 599.808 -3.09031 -0.436605 0
M  V30 6208 N 600.109 -0.101901 -1.5727 0
M  V30 6209 C 601.52 0.426173 -1.81771 0
M  V30 6210 C 601.871 1.67725 -1.01797 0
M  V30 6211 O 600.996 2.14958 -0.249386 0
M  V30 6212 C 601.591 0.779962 -3.297 0
M  V30 6213 C 600.15 1.25275 -3.54941 0
M  V30 6214 C 599.297 0.252814 -2.76145 0
M  V30 6215 H 602.248 -0.32726 -1.55289 0
M  V30 6216 H 602.269 1.63891 -3.43395 0
M  V30 6217 H 601.781 -0.130778 -3.8788 0
M  V30 6218 H 599.882 2.18097 -3.021 0
M  V30 6219 H 599.995 1.20988 -4.63572 0
M  V30 6220 H 598.359 0.736362 -2.43823 0
M  V30 6221 H 599.142 -0.650724 -3.37076 0
M  V30 6222 N 601.587 1.56661 0.17182 0
M  V30 6223 C 602.812 1.86459 0.908165 0
M  V30 6224 C 603.237 0.688181 1.75059 0
M  V30 6225 O 602.595 -0.362753 1.77634 0
M  V30 6226 C 602.643 3.14669 1.76112 0
M  V30 6227 O 601.747 2.96858 2.86268 0
M  V30 6228 H 601.088 0.613318 0.254434 0
M  V30 6229 H 603.618 2.03892 0.170113 0
M  V30 6230 H 603.628 3.46061 2.16115 0
M  V30 6231 H 602.303 3.99905 1.14233 0
M  V30 6232 H 600.88 2.76819 2.49852 0
M  V30 6233 N 603.065 -0.440357 1.51323 0
M  V30 6234 C 603.997 -1.55254 1.68609 0
M  V30 6235 C 605.01 -1.52614 0.566812 0
M  V30 6236 O 606.199 -1.57445 0.841032 0
M  V30 6237 C 603.299 -2.94169 1.68279 0
M  V30 6238 C 602.472 -3.21346 2.96742 0
M  V30 6239 C 601.531 -4.3997 2.8864 0
M  V30 6240 O 600.557 -4.38771 3.62586 0
M  V30 6241 N 601.759 -5.43367 2.04285 0
M  V30 6242 H 604.524 -1.40831 2.6455 0
M  V30 6243 H 602.085 -0.629251 1.49171 0
M  V30 6244 H 604.077 -3.71543 1.60431 0
M  V30 6245 H 602.647 -3.02205 0.799441 0
M  V30 6246 H 601.867 -2.32299 3.18482 0
M  V30 6247 H 603.155 -3.3633 3.81785 0
M  V30 6248 H 602.553 -5.47176 1.43578 0
M  V30 6249 H 601.11 -6.19605 2.02318 0
M  V30 6250 N 604.543 -1.41418 -0.695603 0
M  V30 6251 C 605.49 -1.43264 -1.80954 0
M  V30 6252 C 606.46 -0.287016 -1.63601 0
M  V30 6253 O 607.645 -0.488054 -1.84452 0
M  V30 6254 C 604.785 -1.32054 -3.18835 0
M  V30 6255 C 603.898 -2.56485 -3.4762 0
M  V30 6256 C 603.033 -2.3757 -4.75115 0
M  V30 6257 C 602.072 -3.57477 -4.96867 0
M  V30 6258 N 601.209 -3.37632 -6.15588 0
M  V30 6259 H 606.049 -2.38467 -1.78711 0
M  V30 6260 H 603.586 -1.18415 -0.872715 0
M  V30 6261 H 605.544 -1.23558 -3.98484 0
M  V30 6262 H 604.174 -0.404592 -3.20254 0
M  V30 6263 H 603.226 -2.75432 -2.62376 0
M  V30 6264 H 604.538 -3.45678 -3.59594 0
M  V30 6265 H 603.692 -2.2654 -5.62818 0
M  V30 6266 H 602.431 -1.45834 -4.65386 0
M  V30 6267 H 601.436 -3.68961 -4.07612 0
M  V30 6268 H 602.661 -4.50167 -5.08455 0
M  V30 6269 H 600.607 -2.48596 -6.07072 0
M  V30 6270 H 600.524 -4.20401 -6.2833 0
M  V30 6271 H 601.792 -3.30375 -7.06026 0
M  V30 6272 N 606.021 0.929856 -1.27246 0
M  V30 6273 C 607.27 1.67182 -1.12842 0
M  V30 6274 C 607.583 1.9287 0.325666 0
M  V30 6275 O 608.789 2.64999 0.590572 0
M  V30 6276 C 607.245 3.01097 -1.97151 0
M  V30 6277 C 606.853 2.83115 -3.47203 0
M  V30 6278 C 608.597 3.78907 -1.91389 0
M  V30 6279 C 606.504 4.12573 -4.23719 0
M  V30 6280 H 605.434 0.627064 -0.418697 0
M  V30 6281 H 608.085 1.0332 -1.51649 0
M  V30 6282 H 606.467 3.66004 -1.51186 0
M  V30 6283 H 607.641 2.26989 -4.01015 0
M  V30 6284 H 605.956 2.18736 -3.54321 0
M  V30 6285 H 608.553 4.74837 -2.45834 0
M  V30 6286 H 608.896 4.0674 -0.887047 0
M  V30 6287 H 609.429 3.20794 -2.35237 0
M  V30 6288 H 606.168 3.8992 -5.26918 0
M  V30 6289 H 605.688 4.68371 -3.74685 0
M  V30 6290 H 607.367 4.8095 -4.32777 0
M  V30 6291 N 607.499 1.09233 1.13605 0
M  V30 6292 C 608.431 0.687794 2.18637 0
M  V30 6293 C 609.444 -0.26936 1.60556 0
M  V30 6294 O 610.633 -0.0557162 1.78413 0
M  V30 6295 C 607.733 -0.00751901 3.38899 0
M  V30 6296 C 606.906 0.97067 4.26494 0
M  V30 6297 C 605.965 0.309129 5.25291 0
M  V30 6298 O 604.991 0.956149 5.61112 0
M  V30 6299 N 606.193 -0.937555 5.72879 0
M  V30 6300 H 608.958 1.59141 2.53957 0
M  V30 6301 H 606.519 0.979515 1.28907 0
M  V30 6302 H 608.511 -0.461238 4.02063 0
M  V30 6303 H 607.081 -0.813353 3.01833 0
M  V30 6304 H 606.301 1.603 3.60135 0
M  V30 6305 H 607.589 1.63323 4.81875 0
M  V30 6306 H 606.987 -1.48281 5.4592 0
M  V30 6307 H 605.544 -1.33463 6.3799 0
M  V30 6308 N 608.977 -1.30795 0.87923 0
M  V30 6309 C 609.907 -2.30742 0.357796 0
M  V30 6310 C 610.888 -1.60747 -0.556283 0
M  V30 6311 O 612.073 -1.88393 -0.47135 0
M  V30 6312 C 609.203 -3.44583 -0.433555 0
M  V30 6313 C 608.157 -4.26235 0.388251 0
M  V30 6314 C 607.483 -5.32073 -0.529352 0
M  V30 6315 C 608.783 -4.96303 1.62729 0
M  V30 6316 H 610.477 -2.74605 1.19299 0
M  V30 6317 H 608.023 -1.32017 0.575104 0
M  V30 6318 H 609.976 -4.13563 -0.808934 0
M  V30 6319 H 608.7 -2.99511 -1.30234 0
M  V30 6320 H 607.359 -3.58936 0.745695 0
M  V30 6321 H 607.007 -4.83249 -1.39569 0
M  V30 6322 H 606.707 -5.87598 0.0166741 0
M  V30 6323 H 608.231 -6.0391 -0.901373 0
M  V30 6324 H 609.645 -5.5783 1.32283 0
M  V30 6325 H 608.042 -5.61666 2.11309 0
M  V30 6326 H 609.112 -4.22758 2.37494 0
M  V30 6327 N 610.455 -0.639598 -1.44038 0
M  V30 6328 C 611.701 -0.147698 -2.02261 0
M  V30 6329 C 612.034 1.23031 -1.50256 0
M  V30 6330 O 611.309 1.81847 -0.690068 0
M  V30 6331 C 611.592 -0.14362 -3.59813 0
M  V30 6332 C 611.445 -1.55458 -4.22082 0
M  V30 6333 C 612.764 0.527317 -4.36929 0
M  V30 6334 H 609.883 -0.0551453 -0.734934 0
M  V30 6335 H 612.525 -0.817688 -1.71505 0
M  V30 6336 H 610.675 0.426898 -3.86147 0
M  V30 6337 H 612.347 -2.17464 -4.06826 0
M  V30 6338 H 610.59 -2.10594 -3.79253 0
M  V30 6339 H 611.261 -1.50369 -5.31124 0
M  V30 6340 H 613.737 0.0420504 -4.16079 0
M  V30 6341 H 612.613 0.499389 -5.46624 0
M  V30 6342 H 612.874 1.59914 -4.12165 0
M  V30 6343 N 611.933 1.52934 -0.380664 0
M  V30 6344 C 612.881 2.27727 0.47361 0
M  V30 6345 C 613.875 1.31288 1.0705 0
M  V30 6346 O 615.081 1.4886 1.01197 0
M  V30 6347 H 611.456 0.732189 0.171475 0
M  V30 6348 H 613.427 2.97864 -0.178785 0
M  V30 6349 C 612.176 3.0904 1.59341 0
M  V30 6350 H 611.499 3.831 1.14343 0
M  V30 6351 H 612.939 3.64527 2.16555 0
M  V30 6352 C 611.398 2.20813 2.54447 0
M  V30 6353 O 611.928 1.82907 3.57642 0
M  V30 6354 N 610.134 1.85145 2.23986 0
M  V30 6355 H 609.681 2.16169 1.40103 0
M  V30 6356 H 609.639 1.26402 2.87871 0
M  V30 6357 N 613.412 0.11024 1.57214 0
M  V30 6358 C 614.64 -0.557834 1.99238 0
M  V30 6359 C 615.055 -1.60778 0.989734 0
M  V30 6360 O 614.412 -1.82491 -0.0186092 0
M  V30 6361 C 614.463 -1.19189 3.41286 0
M  V30 6362 O 614.184 -0.183919 4.37714 0
M  V30 6363 C 615.685 -1.94413 3.98395 0
M  V30 6364 H 612.905 -0.148392 0.654386 0
M  V30 6365 H 615.449 0.193996 2.03578 0
M  V30 6366 H 613.604 -1.89456 3.37913 0
M  V30 6367 H 614.018 -0.643475 5.20538 0
M  V30 6368 H 615.492 -2.34116 4.99894 0
M  V30 6369 H 615.969 -2.81592 3.3705 0
M  V30 6370 H 616.575 -1.28928 4.05287 0
M  V30 6371 N 614.89 -1.56749 -0.16351 0
M  V30 6372 C 615.838 -1.97939 -1.22159 0
M  V30 6373 C 616.832 -0.869288 -1.45395 0
M  V30 6374 O 618.038 -1.05443 -1.45883 0
M  V30 6375 H 614.413 -0.629869 -0.410815 0
M  V30 6376 H 616.384 -2.86115 -0.847381 0
M  V30 6377 C 615.133 -2.36206 -2.55151 0
M  V30 6378 H 614.456 -3.2117 -2.38097 0
M  V30 6379 H 615.896 -2.68863 -3.27854 0
M  V30 6380 C 614.355 -1.20841 -3.14482 0
M  V30 6381 O 614.885 -0.500258 -3.98573 0
M  V30 6382 N 613.091 -0.976943 -2.73686 0
M  V30 6383 H 612.638 -1.55457 -2.05404 0
M  V30 6384 H 612.596 -0.206912 -3.13718 0
M  V30 6385 N 616.368 0.432326 -1.51554 0
M  V30 6386 C 617.616 1.17901 -1.64146 0
M  V30 6387 C 617.937 1.91604 -0.362367 0
M  V30 6388 O 617.207 1.85764 0.621968 0
M  V30 6389 H 615.787 0.438206 -0.604966 0
M  V30 6390 H 618.449 0.495172 -1.88505 0
M  V30 6391 H 617.545 1.90584 -2.47152 0
M  V30 6392 N 617.846 1.41785 0.688094 0
M  V30 6393 C 619.071 1.45117 1.48175 0
M  V30 6394 C 619.496 0.060129 1.88004 0
M  V30 6395 O 618.854 -0.938385 1.55126 0
M  V30 6396 C 618.902 2.37224 2.71583 0
M  V30 6397 O 618.006 1.83443 3.69354 0
M  V30 6398 H 617.347 0.492208 0.445676 0
M  V30 6399 H 619.877 1.86329 0.845145 0
M  V30 6400 H 619.887 2.53353 3.19806 0
M  V30 6401 H 618.562 3.38293 2.41931 0
M  V30 6402 H 617.139 1.76802 3.28322 0
M  V30 6403 N 619.324 -0.923095 1.27737 0
M  V30 6404 C 620.57 -1.67409 1.15524 0
M  V30 6405 C 620.925 -1.90124 -0.295072 0
M  V30 6406 O 620.218 -1.48382 -1.21216 0
M  V30 6407 C 620.412 -3.04125 1.8773 0
M  V30 6408 C 620.241 -2.94752 3.39634 0
M  V30 6409 C 619.011 -2.96783 4.0896 0
M  V30 6410 C 621.209 -2.73524 4.35533 0
M  V30 6411 N 619.191 -2.779 5.47398 0
M  V30 6412 C 620.562 -2.63391 5.61271 0
M  V30 6413 C 622.617 -2.58447 4.2557 0
M  V30 6414 C 621.32 -2.3972 6.78179 0
M  V30 6415 C 623.346 -2.36154 5.42204 0
M  V30 6416 C 622.708 -2.26768 6.669 0
M  V30 6417 H 618.807 -0.619196 0.477619 0
M  V30 6418 H 621.391 -1.09094 1.61266 0
M  V30 6419 H 619.562 -3.60545 1.44436 0
M  V30 6420 H 621.294 -3.6819 1.67982 0
M  V30 6421 H 618.049 -3.07186 3.60463 0
M  V30 6422 H 618.473 -2.71576 6.20141 0
M  V30 6423 H 623.115 -2.6446 3.2988 0
M  V30 6424 H 620.833 -2.32447 7.73947 0
M  V30 6425 H 624.419 -2.25367 5.36378 0
M  V30 6426 H 623.299 -2.09751 7.55628 0
M  V30 6427 N 620.802 -1.09834 -1.13024 0
M  V30 6428 C 621.752 -0.710899 -2.16634 0
M  V30 6429 C 622.736 0.276836 -1.58501 0
M  V30 6430 O 623.928 0.0865457 -1.76788 0
M  V30 6431 C 621.057 -0.137574 -3.43024 0
M  V30 6432 C 620.143 -1.15198 -4.08155 0
M  V30 6433 N 620.534 -2.34054 -4.48388 0
M  V30 6434 C 618.832 -0.991074 -4.34849 0
M  V30 6435 C 619.533 -2.98616 -4.99203 0
M  V30 6436 N 618.509 -2.26159 -4.94321 0
M  V30 6437 H 622.311 -1.61576 -2.455 0
M  V30 6438 H 619.825 -0.975158 -1.29863 0
M  V30 6439 H 621.822 0.158031 -4.166 0
M  V30 6440 H 620.482 0.762088 -3.1563 0
M  V30 6441 H 621.493 -2.7162 -4.40957 0
M  V30 6442 H 618.17 -0.146448 -4.17243 0
M  V30 6443 H 619.56 -3.99683 -5.40096 0
M  V30 6444 N 622.28 1.30327 -0.886154 0
M  V30 6445 C 623.529 1.95373 -0.501243 0
M  V30 6446 C 623.842 1.70722 0.954634 0
M  V30 6447 O 625.048 2.29761 1.44644 0
M  V30 6448 C 623.504 3.49828 -0.845493 0
M  V30 6449 C 623.112 3.83296 -2.31922 0
M  V30 6450 C 624.856 4.2118 -0.529838 0
M  V30 6451 C 622.763 5.30935 -2.60504 0
M  V30 6452 H 621.693 0.731274 -0.183722 0
M  V30 6453 H 624.344 1.48258 -1.08129 0
M  V30 6454 H 622.726 3.95522 -0.19452 0
M  V30 6455 H 623.9 3.48508 -3.01461 0
M  V30 6456 H 622.215 3.2505 -2.60253 0
M  V30 6457 H 624.812 5.29825 -0.720401 0
M  V30 6458 H 625.155 4.12902 0.530828 0
M  V30 6459 H 625.688 3.81173 -1.13806 0
M  V30 6460 H 622.427 5.44265 -3.65316 0
M  V30 6461 H 621.947 5.67019 -1.95575 0
M  V30 6462 H 623.626 5.98381 -2.46066 0
M  V30 6463 N 623.758 0.647228 1.43697 0
M  V30 6464 C 624.706 -0.0600105 2.32523 0
M  V30 6465 C 625.7 -0.819277 1.48271 0
M  V30 6466 O 626.906 -0.730356 1.64517 0
M  V30 6467 H 623.281 -0.0381872 0.75103 0
M  V30 6468 H 625.252 0.706978 2.89904 0
M  V30 6469 C 624.001 -1.0169 3.32497 0
M  V30 6470 H 623.324 -0.442083 3.97348 0
M  V30 6471 H 624.764 -1.48095 3.97296 0
M  V30 6472 C 623.223 -2.11002 2.6264 0
M  V30 6473 O 623.753 -3.19302 2.4374 0
M  V30 6474 N 621.959 -1.87388 2.22113 0
M  V30 6475 H 621.506 -0.993174 2.37684 0
M  V30 6476 H 621.464 -2.60723 1.75701 0
M  V30 6477 N 625.236 -1.5273 0.388769 0
M  V30 6478 C 626.652 -1.59553 0.0387049 0
M  V30 6479 C 626.852 -1.40278 -1.44652 0
M  V30 6480 O 625.908 -1.21951 -2.21098 0
M  V30 6481 C 627.221 -2.9625 0.515409 0
M  V30 6482 C 628.769 -3.09426 0.471621 0
M  V30 6483 C 629.244 -4.48572 0.924505 0
M  V30 6484 N 630.735 -4.54754 0.880496 0
M  V30 6485 C 631.47 -5.60653 1.20234 0
M  V30 6486 N 630.966 -6.74198 1.59463 0
M  V30 6487 N 632.759 -5.50755 1.12363 0
M  V30 6488 H 624.91 -1.63508 1.35569 0
M  V30 6489 H 627.173 -0.768097 0.555636 0
M  V30 6490 H 626.879 -3.15569 1.5527 0
M  V30 6491 H 626.753 -3.77102 -0.085792 0
M  V30 6492 H 629.14 -2.89804 -0.556588 0
M  V30 6493 H 629.221 -2.30528 1.10862 0
M  V30 6494 H 628.865 -4.68936 1.95094 0
M  V30 6495 H 628.795 -5.25935 0.264524 0
M  V30 6496 H 631.286 -3.73237 0.591815 0
M  V30 6497 H 631.599 -7.5097 1.82385 0
M  V30 6498 H 629.944 -6.75531 1.63349 0
M  V30 6499 H 633.135 -4.6093 0.816169 0
M  V30 6500 H 633.308 -6.33184 1.37777 0
M  V30 6501 N 626.714 -0.118576 -1.57153 0
M  V30 6502 C 627.942 0.54726 -1.99531 0
M  V30 6503 C 628.357 1.60251 -0.998246 0
M  V30 6504 O 627.714 1.82498 0.00893106 0
M  V30 6505 C 627.765 1.17378 -3.41913 0
M  V30 6506 O 627.486 0.160703 -4.37805 0
M  V30 6507 C 628.987 1.92297 -3.9942 0
M  V30 6508 H 626.207 0.144919 -0.655164 0
M  V30 6509 H 628.751 -0.20479 -2.03472 0
M  V30 6510 H 626.906 1.87661 -3.38913 0
M  V30 6511 H 627.32 0.61586 -5.20872 0
M  V30 6512 H 628.794 2.31462 -5.01128 0
M  V30 6513 H 629.271 2.79801 -3.38538 0
M  V30 6514 H 629.877 1.26777 -4.05965 0
M  V30 6515 N 628.193 1.56834 0.155195 0
M  V30 6516 C 629.156 1.96748 1.17571 0
M  V30 6517 C 630.156 0.853006 1.3631 0
M  V30 6518 O 631.346 1.11978 1.33441 0
M  V30 6519 C 628.478 2.27631 2.53765 0
M  V30 6520 H 629.671 2.88085 0.833498 0
M  V30 6521 H 627.224 1.51141 0.398242 0
M  V30 6522 H 627.959 1.39059 2.92973 0
M  V30 6523 H 627.744 3.0888 2.41527 0
M  V30 6524 H 629.234 2.59377 3.27282 0
M  V30 6525 N 629.671 -0.424282 1.51781 0
M  V30 6526 C 630.601 -1.52305 1.7699 0
M  V30 6527 C 631.582 -1.5839 0.620209 0
M  V30 6528 O 632.767 -1.73908 0.864268 0
M  V30 6529 C 629.897 -2.90271 1.90683 0
M  V30 6530 C 628.851 -2.99043 3.06198 0
M  V30 6531 C 628.177 -4.39116 3.05092 0
M  V30 6532 C 629.477 -2.7192 4.45934 0
M  V30 6533 H 631.171 -1.31461 2.68995 0
M  V30 6534 H 628.717 -0.630985 1.29439 0
M  V30 6535 H 630.67 -3.6711 2.06901 0
M  V30 6536 H 629.394 -3.12376 0.953365 0
M  V30 6537 H 628.053 -2.24646 2.89706 0
M  V30 6538 H 627.701 -4.58207 2.07498 0
M  V30 6539 H 627.401 -4.45912 3.82669 0
M  V30 6540 H 628.925 -5.17911 3.2342 0
M  V30 6541 H 630.339 -3.38487 4.62709 0
M  V30 6542 H 628.736 -2.90111 5.25315 0
M  V30 6543 H 629.806 -1.67445 4.55072 0
M  V30 6544 N 631.149 -1.42148 -0.680565 0
M  V30 6545 C 632.097 -1.45401 -1.81552 0
M  V30 6546 C 633.091 -0.33036 -1.66147 0
M  V30 6547 O 634.297 -0.503103 -1.72826 0
M  V30 6548 H 630.672 -0.455265 -0.59853 0
M  V30 6549 H 632.643 -2.41024 -1.75926 0
M  V30 6550 C 631.392 -1.36769 -3.19671 0
M  V30 6551 H 630.715 -2.22525 -3.32149 0
M  V30 6552 H 632.155 -1.43106 -3.9912 0
M  V30 6553 C 630.614 -0.0817752 -3.36801 0
M  V30 6554 O 631.144 0.867707 -3.92216 0
M  V30 6555 N 629.35 -0.000799811 -2.906 0
M  V30 6556 H 628.897 -0.774231 -2.4569 0
M  V30 6557 H 628.855 0.858961 -3.02439 0
M  V30 6558 N 632.627 0.916307 -1.28225 0
M  V30 6559 C 633.867 1.67964 -1.16479 0
M  V30 6560 C 634.231 1.8991 0.282494 0
M  V30 6561 O 635.432 2.63671 0.522607 0
M  V30 6562 C 633.703 3.00251 -1.93866 0
M  V30 6563 S 635.262 3.91353 -1.98465 0
M  V30 6564 H 632.08 0.576873 -0.415619 0
M  V30 6565 H 634.682 1.09006 -1.62289 0
M  V30 6566 H 633.386 2.81978 -2.98189 0
M  V30 6567 H 632.917 3.64257 -1.48595 0
M  V30 6568 H 634.932 4.84096 -1.0893 0
M  V30 6569 N 634.105 1.10431 1.1244 0
M  V30 6570 C 635.053 0.747974 2.20246 0
M  V30 6571 C 636.047 -0.255848 1.67457 0
M  V30 6572 O 637.253 -0.116221 1.79624 0
M  V30 6573 H 633.628 0.223946 0.71788 0
M  V30 6574 H 635.599 1.6661 2.47556 0
M  V30 6575 C 634.348 0.195957 3.47147 0
M  V30 6576 H 633.671 0.959606 3.88113 0
M  V30 6577 H 635.111 -0.0153154 4.23997 0
M  V30 6578 C 633.57 -1.07132 3.19413 0
M  V30 6579 O 634.1 -2.15284 3.3914 0
M  V30 6580 N 632.306 -0.98994 2.73219 0
M  V30 6581 H 631.853 -0.109736 2.57366 0
M  V30 6582 H 631.811 -1.83856 2.55038 0
M  V30 6583 N 635.583 -1.29855 0.893053 0
M  V30 6584 C 636.86 -1.90694 0.435336 0
M  V30 6585 C 637.24 -1.8111 -1.08454 0
M  V30 6586 O 636.588 -1.23352 -1.92345 0
M  V30 6587 C 636.798 -3.36033 0.942472 0
M  V30 6588 C 638.146 -4.13083 0.982226 0
M  V30 6589 O 639.17 -3.4491 0.889686 0
M  V30 6590 O 638.029 -5.34896 1.12022 0
M  V30 6591 H 635.123 -0.815978 0.134567 0
M  V30 6592 H 637.669 -1.38367 0.982484 0
M  V30 6593 H 636.441 -3.37132 1.9864 0
M  V30 6594 H 636.064 -3.95828 0.374952 0
M  V30 6595 N 637.061 -0.65484 -1.43351 0
M  V30 6596 C 638.286 -0.175046 -2.0666 0
M  V30 6597 C 638.711 1.15104 -1.4877 0
M  V30 6598 O 638.069 1.71144 -0.598279 0
M  V30 6599 C 638.117 -0.0991544 -3.60464 0
M  V30 6600 O 637.221 0.938169 -4.01587 0
M  V30 6601 H 636.562 -0.0956148 -0.65708 0
M  V30 6602 H 639.092 -0.898222 -1.83829 0
M  V30 6603 H 639.102 0.083632 -4.07914 0
M  V30 6604 H 637.777 -1.06719 -4.01975 0
M  V30 6605 H 636.354 0.72804 -3.65724 0
M  V30 6606 N 638.539 1.52521 -0.396863 0
M  V30 6607 C 639.469 2.29582 0.425941 0
M  V30 6608 C 640.45 1.33281 1.05689 0
M  V30 6609 O 641.635 1.62181 1.06823 0
M  V30 6610 C 638.765 3.10821 1.54943 0
M  V30 6611 C 637.719 4.15069 1.04413 0
M  V30 6612 C 637.045 4.84578 2.26028 0
M  V30 6613 C 638.345 5.22191 0.106767 0
M  V30 6614 H 640.039 2.98612 -0.217045 0
M  V30 6615 H 637.585 1.43611 -0.105826 0
M  V30 6616 H 639.538 3.63492 2.13193 0
M  V30 6617 H 638.262 2.39538 2.22011 0
M  V30 6618 H 636.921 3.63389 0.484118 0
M  V30 6619 H 636.569 4.09835 2.91623 0
M  V30 6620 H 636.269 5.55043 1.92876 0
M  V30 6621 H 637.793 5.40056 2.84906 0
M  V30 6622 H 639.207 5.70176 0.597685 0
M  V30 6623 H 637.604 5.99947 -0.135352 0
M  V30 6624 H 638.674 4.77531 -0.842134 0
M  V30 6625 N 640.017 0.126909 1.57088 0
M  V30 6626 C 640.949 -0.850973 2.12817 0
M  V30 6627 C 641.962 -1.22457 1.07276 0
M  V30 6628 O 643.151 -1.17215 1.34622 0
M  V30 6629 C 640.251 -2.15039 2.61938 0
M  V30 6630 C 639.424 -1.94726 3.91664 0
M  V30 6631 C 638.483 -3.0847 4.26301 0
M  V30 6632 O 637.509 -2.81038 4.94981 0
M  V30 6633 N 638.711 -4.35116 3.84259 0
M  V30 6634 H 641.476 -0.3748 2.97347 0
M  V30 6635 H 639.037 -0.0572793 1.61799 0
M  V30 6636 H 641.029 -2.90141 2.82135 0
M  V30 6637 H 639.599 -2.5398 1.82244 0
M  V30 6638 H 638.819 -1.03772 3.80296 0
M  V30 6639 H 640.107 -1.78469 4.76473 0
M  V30 6640 H 639.505 -4.60276 3.2888 0
M  V30 6641 H 638.062 -5.07064 4.09548 0
M  V30 6642 N 641.495 -1.56914 -0.146875 0
M  V30 6643 C 642.723 -1.87515 -0.874394 0
M  V30 6644 C 643.138 -0.715116 -1.74733 0
M  V30 6645 O 642.495 0.315113 -1.79759 0
M  V30 6646 C 642.546 -3.17362 -1.731 0
M  V30 6647 O 642.267 -4.28897 -0.893245 0
M  V30 6648 C 643.768 -3.61479 -2.56609 0
M  V30 6649 H 640.988 -0.621546 -0.252827 0
M  V30 6650 H 643.532 -2.04023 -0.139627 0
M  V30 6651 H 641.687 -3.02608 -2.41883 0
M  V30 6652 H 642.101 -5.03146 -1.48137 0
M  V30 6653 H 643.575 -4.5517 -3.12289 0
M  V30 6654 H 644.052 -2.86773 -3.32653 0
M  V30 6655 H 644.658 -3.78927 -1.93117 0
M  V30 6656 N 642.974 0.416227 -1.52004 0
M  V30 6657 C 644.222 1.16153 -1.65387 0
M  V30 6658 C 644.543 1.91208 -0.382669 0
M  V30 6659 O 643.813 1.86413 0.602231 0
M  V30 6660 H 642.393 0.431765 -0.60958 0
M  V30 6661 H 645.055 0.475151 -1.89019 0
M  V30 6662 H 644.151 1.87952 -2.4916 0
M  V30 6663 N 644.452 1.42507 0.673017 0
M  V30 6664 C 645.699 1.43072 1.43306 0
M  V30 6665 C 646.027 0.0478004 1.94441 0
M  V30 6666 O 645.282 -0.944106 1.71421 0
M  V30 6667 C 645.581 2.40351 2.64511 0
M  V30 6668 C 645.247 3.8669 2.31908 0
M  V30 6669 C 643.909 4.26551 2.22728 0
M  V30 6670 C 646.261 4.78991 2.05467 0
M  V30 6671 C 643.589 5.56691 1.85234 0
M  V30 6672 C 645.941 6.09476 1.69477 0
M  V30 6673 C 644.605 6.48334 1.58808 0
M  V30 6674 H 643.875 0.523536 0.524395 0
M  V30 6675 H 646.522 1.75459 0.76723 0
M  V30 6676 H 644.827 2.01297 3.36135 0
M  V30 6677 H 646.524 2.38051 3.22696 0
M  V30 6678 H 643.114 3.55132 2.39956 0
M  V30 6679 H 647.298 4.48982 2.11492 0
M  V30 6680 H 642.554 5.85657 1.75545 0
M  V30 6681 H 646.728 6.80482 1.48043 0
M  V30 6682 H 644.355 7.49084 1.29525 0
M  V30 6683 N 645.93 -0.909495 1.28709 0
M  V30 6684 C 647.179 -1.65365 1.15487 0
M  V30 6685 C 647.492 -1.93364 -0.294941 0
M  V30 6686 O 648.698 -2.65905 -0.548338 0
M  V30 6687 C 647.154 -2.97923 2.01916 0
M  V30 6688 C 646.762 -2.77556 3.51663 0
M  V30 6689 C 648.506 -3.75814 1.97393 0
M  V30 6690 C 646.413 -4.0578 4.30229 0
M  V30 6691 H 645.343 -0.620323 0.42862 0
M  V30 6692 H 647.994 -1.00894 1.53273 0
M  V30 6693 H 646.376 -3.63552 1.5699 0
M  V30 6694 H 647.55 -2.2058 4.04575 0
M  V30 6695 H 645.865 -2.13072 3.57756 0
M  V30 6696 H 648.462 -4.70866 2.53357 0
M  V30 6697 H 648.805 -4.05277 0.951643 0
M  V30 6698 H 649.338 -3.1701 2.40311 0
M  V30 6699 H 646.077 -3.81488 5.33055 0
M  V30 6700 H 645.597 -4.62351 3.82089 0
M  V30 6701 H 647.276 -4.74004 4.40374 0
M  V30 6702 N 647.408 -1.11026 -1.11852 0
M  V30 6703 C 648.371 -0.768006 -2.1595 0
M  V30 6704 C 649.371 0.210538 -1.59416 0
M  V30 6705 O 650.561 -0.0133978 -1.74195 0
M  V30 6706 C 647.693 -0.138678 -3.40618 0
M  V30 6707 H 648.886 -1.69012 -2.4774 0
M  V30 6708 H 646.439 -0.911578 -1.26964 0
M  V30 6709 H 647.174 0.793872 -3.14433 0
M  V30 6710 H 646.959 -0.843012 -3.8293 0
M  V30 6711 H 648.449 0.0848039 -4.17514 0
M  V30 6712 N 648.886 1.2938 -0.899927 0
M  V30 6713 C 649.849 2.25983 -0.382677 0
M  V30 6714 C 650.849 1.53366 0.483259 0
M  V30 6715 O 652.039 1.71798 0.28828 0
M  V30 6716 C 649.171 3.37878 0.452915 0
M  V30 6717 H 650.364 2.73252 -1.23586 0
M  V30 6718 H 647.917 1.40825 -0.678088 0
M  V30 6719 H 648.652 2.95949 1.32608 0
M  V30 6720 H 648.437 3.91742 -0.167562 0
M  V30 6721 H 649.927 4.09746 0.806107 0
M  V30 6722 N 650.364 0.662433 1.43002 0
M  V30 6723 C 651.294 -0.00979809 2.33498 0
M  V30 6724 C 652.275 -0.802329 1.49989 0
M  V30 6725 O 653.46 -0.761964 1.78627 0
M  V30 6726 C 650.59 -0.970446 3.33466 0
M  V30 6727 C 649.544 -0.287383 4.27034 0
M  V30 6728 C 648.87 -1.36012 5.17112 0
M  V30 6729 C 650.17 0.82595 5.15728 0
M  V30 6730 H 651.864 0.745959 2.89958 0
M  V30 6731 H 649.41 0.360172 1.39423 0
M  V30 6732 H 651.363 -1.44971 3.95679 0
M  V30 6733 H 650.087 -1.75748 2.75282 0
M  V30 6734 H 648.746 0.17152 3.66199 0
M  V30 6735 H 648.394 -2.13882 4.55262 0
M  V30 6736 H 648.094 -0.908276 5.80538 0
M  V30 6737 H 649.618 -1.84056 5.82199 0
M  V30 6738 H 651.032 0.42845 5.71697 0
M  V30 6739 H 649.429 1.20282 5.87922 0
M  V30 6740 H 650.499 1.68003 4.54866 0
M  V30 6741 N 651.842 -1.52309 0.404946 0
M  V30 6742 C 653.089 -2.01767 -0.1722 0
M  V30 6743 C 653.417 -1.29075 -1.45498 0
M  V30 6744 O 652.672 -0.3843 -1.9189 0
M  V30 6745 C 652.971 -3.54284 -0.470895 0
M  V30 6746 C 652.637 -4.45079 0.722194 0
M  V30 6747 C 651.299 -4.69617 1.04946 0
M  V30 6748 C 653.651 -4.98555 1.51962 0
M  V30 6749 C 650.979 -5.44878 2.17543 0
M  V30 6750 C 653.331 -5.75049 2.63632 0
M  V30 6751 C 651.995 -5.9786 2.9685 0
M  V30 6752 H 651.265 -0.738316 -0.0630125 0
M  V30 6753 H 653.912 -1.83566 0.545506 0
M  V30 6754 H 652.217 -3.70642 -1.27012 0
M  V30 6755 H 653.914 -3.90058 -0.930346 0
M  V30 6756 H 650.504 -4.26155 0.457131 0
M  V30 6757 H 654.688 -4.79509 1.28002 0
M  V30 6758 H 649.944 -5.60762 2.43631 0
M  V30 6759 H 654.118 -6.15483 3.25813 0
M  V30 6760 H 651.745 -6.5596 3.84215 0
M  V30 6761 N 653.32 -0.135238 -1.57019 0
M  V30 6762 C 654.55 0.525303 -1.9981 0
M  V30 6763 C 654.958 1.59724 -1.01415 0
M  V30 6764 O 654.301 1.837 -0.00130938 0
M  V30 6765 C 654.363 1.19578 -3.3903 0
M  V30 6766 C 654.027 0.269855 -4.56203 0
M  V30 6767 C 655.024 -0.497905 -5.1751 0
M  V30 6768 C 652.709 0.176188 -5.01991 0
M  V30 6769 C 654.703 -1.3469 -6.23007 0
M  V30 6770 C 652.39 -0.676422 -6.07345 0
M  V30 6771 C 653.388 -1.43658 -6.67721 0
M  V30 6772 O 653.076 -2.27501 -7.71037 0
M  V30 6773 H 652.808 0.142296 -0.660854 0
M  V30 6774 H 655.362 -0.223272 -2.04183 0
M  V30 6775 H 653.592 1.99176 -3.3146 0
M  V30 6776 H 655.281 1.75486 -3.66005 0
M  V30 6777 H 656.047 -0.435507 -4.83041 0
M  V30 6778 H 651.926 0.757583 -4.54733 0
M  V30 6779 H 655.47 -1.9407 -6.70062 0
M  V30 6780 H 651.367 -0.740154 -6.41243 0
M  V30 6781 H 652.135 -2.20619 -7.88206 0
M  V30 6782 N 654.798 1.5699 0.138552 0
M  V30 6783 C 655.761 1.97984 1.15478 0
M  V30 6784 C 656.761 0.867416 1.35398 0
M  V30 6785 O 657.951 1.13387 1.32246 0
M  V30 6786 C 655.083 2.3031 2.51337 0
M  V30 6787 H 656.276 2.88953 0.802896 0
M  V30 6788 H 653.829 1.51555 0.382189 0
M  V30 6789 H 654.564 1.42159 2.91481 0
M  V30 6790 H 654.349 3.11425 2.38237 0
M  V30 6791 H 655.839 2.62834 3.24512 0
M  V30 6792 N 656.276 -0.40816 1.52223 0
M  V30 6793 C 657.226 -1.49648 1.72016 0
M  V30 6794 C 658.21 -1.50311 0.574069 0
M  V30 6795 O 659.402 -1.56271 0.831173 0
M  V30 6796 C 656.531 -2.87566 1.87512 0
M  V30 6797 C 655.617 -2.91547 3.07995 0
M  V30 6798 N 656.008 -2.65225 4.30685 0
M  V30 6799 C 654.306 -3.22715 3.07849 0
M  V30 6800 C 655.007 -2.75799 5.12162 0
M  V30 6801 N 653.983 -3.08719 4.4743 0
M  V30 6802 H 657.785 -1.28093 2.64517 0
M  V30 6803 H 655.299 -0.61588 1.50269 0
M  V30 6804 H 657.296 -3.65899 1.99809 0
M  V30 6805 H 655.956 -3.10118 0.962114 0
M  V30 6806 H 656.967 -2.39601 4.59142 0
M  V30 6807 H 653.644 -3.50856 2.26289 0
M  V30 6808 H 655.034 -2.59155 6.1991 0
M  V30 6809 N 657.755 -1.42862 -0.66545 0
M  V30 6810 C 659.171 -1.25993 -0.979687 0
M  V30 6811 C 659.371 -0.170831 -2.00775 0
M  V30 6812 O 658.427 0.454827 -2.4837 0
M  V30 6813 C 659.74 -2.62005 -1.47559 0
M  V30 6814 C 661.288 -2.69437 -1.59288 0
M  V30 6815 C 661.763 -4.05838 -2.12272 0
M  V30 6816 N 663.254 -4.0784 -2.19592 0
M  V30 6817 C 663.989 -5.10205 -2.61684 0
M  V30 6818 N 663.485 -6.22949 -3.03161 0
M  V30 6819 N 665.278 -4.9756 -2.61516 0
M  V30 6820 H 657.429 -2.12395 0.0150493 0
M  V30 6821 H 659.692 -0.946355 -0.0558187 0
M  V30 6822 H 659.398 -3.42605 -0.794654 0
M  V30 6823 H 659.272 -2.86566 -2.45275 0
M  V30 6824 H 661.659 -1.89178 -2.26486 0
M  V30 6825 H 661.74 -2.48655 -0.600374 0
M  V30 6826 H 661.384 -4.86559 -1.4568 0
M  V30 6827 H 661.314 -4.23977 -3.12331 0
M  V30 6828 H 663.805 -3.26452 -1.90361 0
M  V30 6829 H 664.118 -6.96899 -3.33993 0
M  V30 6830 H 662.463 -6.2644 -3.00995 0
M  V30 6831 H 665.654 -4.08551 -2.28481 0
M  V30 6832 H 665.827 -5.77468 -2.93999 0
M  V30 6833 N 659.233 0.902656 -1.29189 0
M  V30 6834 C 660.48 1.65287 -1.16989 0
M  V30 6835 C 660.808 1.92485 0.279232 0
M  V30 6836 O 660.063 1.53143 1.21843 0
M  V30 6837 C 660.362 3.011 -1.92545 0
M  V30 6838 C 660.028 2.93521 -3.42281 0
M  V30 6839 C 658.69 2.91161 -3.83117 0
M  V30 6840 C 661.042 2.82947 -4.3771 0
M  V30 6841 C 658.37 2.76043 -5.17704 0
M  V30 6842 C 660.722 2.69368 -5.72384 0
M  V30 6843 C 659.386 2.65373 -6.12482 0
M  V30 6844 H 658.656 0.604828 -0.428094 0
M  V30 6845 H 661.303 1.05084 -1.60092 0
M  V30 6846 H 659.608 3.65153 -1.42024 0
M  V30 6847 H 661.305 3.58073 -1.80512 0
M  V30 6848 H 657.895 2.96158 -3.09819 0
M  V30 6849 H 662.079 2.83849 -4.07116 0
M  V30 6850 H 657.335 2.71352 -5.47885 0
M  V30 6851 H 661.509 2.60156 -6.45981 0
M  V30 6852 H 659.136 2.53415 -7.16718 0
M  V30 6853 N 660.711 1.11618 1.11262 0
M  V30 6854 C 661.659 0.771291 2.1944 0
M  V30 6855 C 662.653 -0.238073 1.67719 0
M  V30 6856 O 663.859 -0.0971628 1.79738 0
M  V30 6857 H 660.234 0.231548 0.715465 0
M  V30 6858 H 662.205 1.69226 2.45775 0
M  V30 6859 C 660.954 0.232765 3.4692 0
M  V30 6860 H 660.277 1.00072 3.87073 0
M  V30 6861 H 661.717 0.0296561 4.2399 0
M  V30 6862 C 660.176 -1.03738 3.20531 0
M  V30 6863 O 660.706 -2.11675 3.41404 0
M  V30 6864 N 658.912 -0.960906 2.74253 0
M  V30 6865 H 658.459 -0.0824323 2.57468 0
M  V30 6866 H 658.417 -1.8114 2.56974 0
M  V30 6867 N 662.189 -1.289 0.906776 0
M  V30 6868 C 663.152 -2.25777 0.394656 0
M  V30 6869 C 664.152 -1.53621 -0.475119 0
M  V30 6870 O 665.342 -1.71949 -0.279165 0
M  V30 6871 C 662.474 -3.38113 -0.43499 0
M  V30 6872 H 663.667 -2.72592 1.25033 0
M  V30 6873 H 661.22 -1.40463 0.685547 0
M  V30 6874 H 661.955 -2.96648 -1.31036 0
M  V30 6875 H 661.74 -3.91647 0.188334 0
M  V30 6876 H 663.23 -4.10168 -0.784365 0
M  V30 6877 N 663.667 -0.670007 -1.42649 0
M  V30 6878 C 664.892 -0.196955 -2.06463 0
M  V30 6879 C 665.317 1.1352 -1.49983 0
M  V30 6880 O 664.675 1.705 -0.616397 0
M  V30 6881 C 664.723 -0.137381 -3.60338 0
M  V30 6882 O 663.827 0.895523 -4.02559 0
M  V30 6883 H 663.168 -0.102579 -0.656029 0
M  V30 6884 H 665.698 -0.917669 -1.82866 0
M  V30 6885 H 665.708 0.0403625 -4.0798 0
M  V30 6886 H 664.383 -1.10977 -4.0082 0
M  V30 6887 H 662.96 0.689209 -3.66476 0
M  V30 6888 N 665.145 1.52092 -0.413018 0
M  V30 6889 C 666.393 2.01456 0.161178 0
M  V30 6890 C 666.714 1.30034 1.45314 0
M  V30 6891 O 665.984 0.427435 1.9118 0
M  V30 6892 H 664.564 0.744376 0.0625526 0
M  V30 6893 H 667.226 1.86974 -0.550151 0
M  V30 6894 H 666.322 3.1008 0.354517 0
M  V30 6895 N 666.623 0.143563 1.56945 0
M  V30 6896 C 667.863 -0.511198 1.97904 0
M  V30 6897 C 668.227 -1.62262 1.0264 0
M  V30 6898 O 669.428 -2.338 1.32631 0
M  V30 6899 C 667.699 -1.00753 3.42905 0
M  V30 6900 S 669.258 -1.66737 4.05887 0
M  V30 6901 H 666.076 -0.165399 0.691494 0
M  V30 6902 H 668.678 0.234464 1.94089 0
M  V30 6903 H 667.382 -0.187817 4.0997 0
M  V30 6904 H 666.913 -1.7879 3.50425 0
M  V30 6905 H 668.928 -2.95444 3.98657 0
M  V30 6906 N 668.101 -1.57061 -0.130224 0
M  V30 6907 C 669.512 -1.73539 -0.68856 0
M  V30 6908 C 669.863 -0.760554 -1.80859 0
M  V30 6909 O 668.988 0.0690796 -2.1629 0
M  V30 6910 C 669.583 -3.14666 -1.25581 0
M  V30 6911 C 668.142 -3.32689 -1.76055 0
M  V30 6912 C 667.289 -2.69436 -0.655712 0
M  V30 6913 H 670.24 -1.58412 0.0956002 0
M  V30 6914 H 670.261 -3.15595 -2.12556 0
M  V30 6915 H 669.773 -3.85593 -0.440412 0
M  V30 6916 H 667.874 -2.66786 -2.60108 0
M  V30 6917 H 667.987 -4.4077 -1.87772 0
M  V30 6918 H 666.351 -2.30362 -1.08654 0
M  V30 6919 H 667.134 -3.42979 0.14852 0
M  V30 6920 N 669.579 0.400081 -1.52437 0
M  V30 6921 C 670.489 1.51253 -1.79331 0
M  V30 6922 C 671.505 1.60188 -0.679396 0
M  V30 6923 O 672.681 1.76733 -0.965791 0
M  V30 6924 C 669.746 2.869 -1.94652 0
M  V30 6925 C 668.807 2.87777 -3.18564 0
M  V30 6926 C 668.04 4.16954 -3.33145 0
M  V30 6927 O 668.263 5.11329 -2.52783 0
M  V30 6928 O 667.197 4.2487 -4.26343 0
M  V30 6929 H 671.023 1.31461 -2.73773 0
M  V30 6930 H 668.608 0.586834 -1.37392 0
M  V30 6931 H 670.49 3.67336 -2.065 0
M  V30 6932 H 669.165 3.06741 -1.034 0
M  V30 6933 H 668.072 2.06162 -3.12167 0
M  V30 6934 H 669.405 2.72886 -4.09627 0
M  V30 6935 N 671.057 1.43213 0.657864 0
M  V30 6936 C 672.473 1.26511 0.972992 0
M  V30 6937 C 672.673 0.181477 2.00681 0
M  V30 6938 O 671.729 -0.441649 2.48608 0
M  V30 6939 C 673.042 2.62784 1.46168 0
M  V30 6940 C 674.59 2.70278 1.57857 0
M  V30 6941 C 675.065 4.06958 2.10117 0
M  V30 6942 N 676.556 4.08999 2.17426 0
M  V30 6943 C 677.291 5.11585 2.58975 0
M  V30 6944 N 676.787 6.24548 2.99853 0
M  V30 6945 N 678.58 4.9894 2.58873 0
M  V30 6946 H 670.731 2.12384 -0.0263129 0
M  V30 6947 H 672.994 0.946638 0.0507992 0
M  V30 6948 H 672.7 3.43022 0.776474 0
M  V30 6949 H 672.574 2.87863 2.43751 0
M  V30 6950 H 674.961 1.90376 2.25479 0
M  V30 6951 H 675.042 2.4897 0.587179 0
M  V30 6952 H 674.686 4.87325 1.43098 0
M  V30 6953 H 674.616 4.25628 3.10078 0
M  V30 6954 H 677.107 3.27457 1.88627 0
M  V30 6955 H 677.42 6.98661 3.30292 0
M  V30 6956 H 675.765 6.28027 2.97669 0
M  V30 6957 H 678.956 4.09757 2.26311 0
M  V30 6958 H 679.129 5.79019 2.90932 0
M  V30 6959 N 672.536 -0.895792 1.29666 0
M  V30 6960 C 673.469 -2.00238 1.09453 0
M  V30 6961 C 674.447 -1.62599 0.00527044 0
M  V30 6962 O 675.631 -1.87847 0.156729 0
M  V30 6963 C 672.758 -3.32066 0.667054 0
M  V30 6964 C 671.804 -3.88691 1.7556 0
M  V30 6965 S 672.637 -4.17317 3.35569 0
M  V30 6966 C 673.793 -5.52181 2.94698 0
M  V30 6967 H 674.026 -2.17076 2.03138 0
M  V30 6968 H 671.559 -1.04287 1.13858 0
M  V30 6969 H 673.517 -4.08272 0.427136 0
M  V30 6970 H 672.178 -3.13101 -0.250256 0
M  V30 6971 H 671.371 -4.83918 1.40853 0
M  V30 6972 H 670.973 -3.19187 1.94924 0
M  V30 6973 H 673.265 -6.3281 2.41986 0
M  V30 6974 H 674.208 -5.91817 3.88791 0
M  V30 6975 H 674.616 -5.14225 2.32879 0
M  V30 6976 N 674.014 -1.12206 -1.10668 0
M  V30 6977 C 674.977 -0.790867 -2.15123 0
M  V30 6978 C 675.977 0.193618 -1.5963 0
M  V30 6979 O 677.167 -0.0318728 -1.74171 0
M  V30 6980 C 674.299 -0.174797 -3.40452 0
M  V30 6981 H 675.492 -1.7163 -2.45933 0
M  V30 6982 H 673.045 -0.924993 -1.2599 0
M  V30 6983 H 673.78 0.760478 -3.15257 0
M  V30 6984 H 673.565 -0.88358 -3.82015 0
M  V30 6985 H 675.055 0.0405162 -4.1758 0
M  V30 6986 N 675.492 1.28418 -0.913599 0
M  V30 6987 C 676.717 1.99643 -0.561899 0
M  V30 6988 C 677.142 1.67819 0.849608 0
M  V30 6989 O 676.5 0.910503 1.56779 0
M  V30 6990 C 676.548 3.52116 -0.777622 0
M  V30 6991 O 675.652 4.12076 0.163457 0
M  V30 6992 H 674.993 0.627229 -0.217898 0
M  V30 6993 H 677.523 1.63575 -1.229 0
M  V30 6994 H 677.533 4.02163 -0.687666 0
M  V30 6995 H 676.208 3.74613 -1.8066 0
M  V30 6996 H 674.785 3.72892 0.0247827 0
M  V30 6997 N 676.97 0.677563 1.42291 0
M  V30 6998 C 678.21 0.204894 2.0337 0
M  V30 6999 C 678.574 -1.16744 1.5243 0
M  V30 7000 O 679.775 -1.73492 2.05314 0
M  V30 7001 C 678.046 0.240742 3.56588 0
M  V30 7002 S 679.605 -0.16052 4.38506 0
M  V30 7003 H 676.423 0.0839932 0.706021 0
M  V30 7004 H 679.025 0.891332 1.73999 0
M  V30 7005 H 677.729 1.24184 3.91161 0
M  V30 7006 H 677.26 -0.465439 3.90637 0
M  V30 7007 H 679.275 -1.39315 4.76241 0
M  V30 7008 N 678.448 -1.51871 0.421078 0
M  V30 7009 C 679.864 -1.59435 0.0725398 0
M  V30 7010 C 680.064 -1.43315 -1.41644 0
M  V30 7011 O 679.12 -1.26614 -2.18461 0
M  V30 7012 C 680.433 -2.9509 0.578132 0
M  V30 7013 C 681.981 -3.08356 0.537149 0
M  V30 7014 C 682.456 -4.4651 1.01945 0
M  V30 7015 N 683.947 -4.52784 0.976758 0
M  V30 7016 C 684.682 -5.57976 1.32099 0
M  V30 7017 N 684.178 -6.70664 1.73727 0
M  V30 7018 N 685.971 -5.48248 1.2402 0
M  V30 7019 H 678.122 -1.60595 1.39007 0
M  V30 7020 H 680.385 -0.756138 0.571803 0
M  V30 7021 H 680.091 -3.12205 1.61929 0
M  V30 7022 H 679.965 -3.772 -0.00578374 0
M  V30 7023 H 682.352 -2.90919 -0.494991 0
M  V30 7024 H 682.433 -2.28125 1.15727 0
M  V30 7025 H 682.077 -4.64692 2.04997 0
M  V30 7026 H 682.007 -5.25256 0.376023 0
M  V30 7027 H 684.498 -3.71898 0.670851 0
M  V30 7028 H 684.811 -7.46932 1.98274 0
M  V30 7029 H 683.156 -6.71914 1.77641 0
M  V30 7030 H 686.347 -4.59095 0.913756 0
M  V30 7031 H 686.52 -6.30119 1.51176 0
M  V30 7032 N 679.926 -0.151884 -1.56866 0
M  V30 7033 C 681.337 0.368128 -1.83035 0
M  V30 7034 C 681.688 1.64402 -1.07082 0
M  V30 7035 O 680.813 2.14056 -0.317647 0
M  V30 7036 C 681.408 0.674676 -3.32014 0
M  V30 7037 C 679.967 1.13919 -3.58747 0
M  V30 7038 C 679.114 0.164833 -2.7681 0
M  V30 7039 H 682.065 -0.376499 -1.54169 0
M  V30 7040 H 682.086 1.52883 -3.48435 0
M  V30 7041 H 681.598 -0.254113 -3.87267 0
M  V30 7042 H 679.699 2.08375 -3.08886 0
M  V30 7043 H 679.812 1.06179 -4.67186 0
M  V30 7044 H 678.176 0.658419 -2.46043 0
M  V30 7045 H 678.959 -0.757633 -3.34836 0
M  V30 7046 N 681.404 1.57128 0.121893 0
M  V30 7047 C 682.653 1.83888 0.828748 0
M  V30 7048 C 682.966 0.737087 1.81181 0
M  V30 7049 O 684.172 0.891007 2.56463 0
M  V30 7050 C 682.628 3.26014 1.52455 0
M  V30 7051 C 682.236 4.44195 0.58263 0
M  V30 7052 C 683.98 3.62025 2.21671 0
M  V30 7053 C 681.887 5.77349 1.28149 0
M  V30 7054 H 680.817 0.685856 0.313238 0
M  V30 7055 H 683.468 1.83319 0.0814851 0
M  V30 7056 H 681.85 3.21044 2.31834 0
M  V30 7057 H 683.024 4.60457 -0.177729 0
M  V30 7058 H 681.339 4.164 -0.00241228 0
M  V30 7059 H 683.936 4.58776 2.74643 0
M  V30 7060 H 684.279 2.89315 2.99337 0
M  V30 7061 H 684.812 3.68767 1.49184 0
M  V30 7062 H 681.551 6.53221 0.546189 0
M  V30 7063 H 681.071 5.64978 2.01394 0
M  V30 7064 H 682.75 6.21006 1.81549 0
M  V30 7065 N 682.882 -0.391992 1.52647 0
M  V30 7066 C 684.159 -1.15136 1.58123 0
M  V30 7067 C 684.539 -2.07786 0.372597 0
M  V30 7068 O 683.887 -2.19374 -0.639304 0
M  V30 7069 C 684.097 -1.91367 2.91856 0
M  V30 7070 C 685.445 -2.46833 3.45483 0
M  V30 7071 O 686.469 -2.01527 2.9371 0
M  V30 7072 O 685.328 -3.29587 4.3593 0
M  V30 7073 H 682.422 -0.526649 0.637629 0
M  V30 7074 H 684.968 -0.397386 1.64982 0
M  V30 7075 H 683.74 -1.23597 3.71268 0
M  V30 7076 H 683.363 -2.73732 2.88369 0
M  V30 7077 N 684.36 -1.4356 -0.65026 0
M  V30 7078 C 685.27 -1.514 -1.79207 0
M  V30 7079 C 686.286 -0.400895 -1.69319 0
M  V30 7080 O 687.462 -0.655458 -1.90436 0
M  V30 7081 C 684.527 -1.43737 -3.155 0
M  V30 7082 C 683.588 -2.65743 -3.37163 0
M  V30 7083 C 682.821 -2.58436 -4.66954 0
M  V30 7084 O 683.044 -1.63374 -5.46503 0
M  V30 7085 O 681.978 -3.48984 -4.90402 0
M  V30 7086 H 685.804 -2.47825 -1.75547 0
M  V30 7087 H 683.389 -1.25594 -0.809111 0
M  V30 7088 H 685.271 -1.41916 -3.96784 0
M  V30 7089 H 683.946 -0.504488 -3.19745 0
M  V30 7090 H 682.853 -2.73136 -2.55632 0
M  V30 7091 H 684.186 -3.58014 -3.37768 0
M  V30 7092 N 685.838 0.888903 -1.30139 0
M  V30 7093 C 687.085 1.64037 -1.18736 0
M  V30 7094 C 687.413 1.92771 0.258801 0
M  V30 7095 O 686.668 1.54427 1.20212 0
M  V30 7096 C 686.967 2.99041 -1.95728 0
M  V30 7097 C 686.633 2.89874 -3.45375 0
M  V30 7098 C 685.295 2.87082 -3.86183 0
M  V30 7099 C 687.647 2.78289 -4.40687 0
M  V30 7100 C 684.975 2.70536 -5.20603 0
M  V30 7101 C 687.327 2.63282 -5.75209 0
M  V30 7102 C 685.991 2.58861 -6.15262 0
M  V30 7103 H 685.261 0.600253 -0.434485 0
M  V30 7104 H 687.908 1.0338 -1.61198 0
M  V30 7105 H 686.213 3.63626 -1.45888 0
M  V30 7106 H 687.91 3.56139 -1.843 0
M  V30 7107 H 684.5 2.92856 -3.12943 0
M  V30 7108 H 688.684 2.79516 -4.10103 0
M  V30 7109 H 683.94 2.65526 -5.50732 0
M  V30 7110 H 688.114 2.5329 -6.48704 0
M  V30 7111 H 685.741 2.45799 -7.19366 0
M  V30 7112 N 687.317 1.12792 1.10072 0
M  V30 7113 C 688.28 0.802264 2.14701 0
M  V30 7114 C 689.28 -0.18515 1.59731 0
M  V30 7115 O 690.47 0.041109 1.74151 0
M  V30 7116 C 687.602 0.19285 3.40354 0
M  V30 7117 H 688.795 1.72932 2.45019 0
M  V30 7118 H 686.348 0.931662 1.25498 0
M  V30 7119 H 687.083 -0.743748 3.15656 0
M  V30 7120 H 686.868 0.903827 3.81541 0
M  V30 7121 H 688.358 -0.0183704 4.17596 0
M  V30 7122 N 688.795 -1.27931 0.920396 0
M  V30 7123 C 689.727 -2.26175 0.371169 0
M  V30 7124 C 690.74 -1.55122 -0.494065 0
M  V30 7125 O 691.929 -1.75825 -0.30787 0
M  V30 7126 C 689.029 -3.35376 -0.487481 0
M  V30 7127 C 688.202 -4.35943 0.356772 0
M  V30 7128 C 687.261 -5.24374 -0.438042 0
M  V30 7129 O 686.287 -5.68998 0.151715 0
M  V30 7130 N 687.489 -5.53823 -1.73956 0
M  V30 7131 H 690.254 -2.73938 1.21564 0
M  V30 7132 H 687.815 -1.41482 0.787047 0
M  V30 7133 H 689.807 -3.91476 -1.02609 0
M  V30 7134 H 688.377 -2.87269 -1.23269 0
M  V30 7135 H 687.597 -3.7921 1.07672 0
M  V30 7136 H 688.885 -5.0015 0.934206 0
M  V30 7137 H 688.283 -5.19413 -2.24114 0
M  V30 7138 H 686.84 -6.12653 -2.22486 0
M  V30 7139 N 690.273 -0.685099 -1.4193 0
M  V30 7140 C 691.521 -0.21124 -2.00993 0
M  V30 7141 C 691.842 1.18985 -1.54491 0
M  V30 7142 O 691.112 1.8009 -0.771 0
M  V30 7143 H 689.692 -0.0751059 -0.743215 0
M  V30 7144 H 692.354 -0.883915 -1.73704 0
M  V30 7145 H 691.45 -0.220513 -3.1132 0
M  V30 7146 N 691.751 1.51645 -0.429126 0
M  V30 7147 C 692.997 2.02967 0.132584 0
M  V30 7148 C 693.352 1.30804 1.41096 0
M  V30 7149 O 692.645 0.411705 1.87124 0
M  V30 7150 C 692.839 3.54989 0.414472 0
M  V30 7151 C 692.668 4.41879 -0.83503 0
M  V30 7152 C 691.438 4.86482 -1.36614 0
M  V30 7153 C 693.636 4.84727 -1.71886 0
M  V30 7154 N 691.618 5.5756 -2.56904 0
M  V30 7155 C 692.989 5.54788 -2.76786 0
M  V30 7156 C 695.044 4.66721 -1.73425 0
M  V30 7157 C 693.747 6.08753 -3.8316 0
M  V30 7158 C 695.773 5.21597 -2.7873 0
M  V30 7159 C 695.135 5.91598 -3.8235 0
M  V30 7160 H 691.234 0.781942 0.00956367 0
M  V30 7161 H 693.818 1.8561 -0.587957 0
M  V30 7162 H 691.989 3.72378 1.10405 0
M  V30 7163 H 693.721 3.92982 0.966817 0
M  V30 7164 H 690.476 4.64553 -0.921255 0
M  V30 7165 H 690.9 5.97731 -3.17879 0
M  V30 7166 H 695.542 4.1207 -0.946467 0
M  V30 7167 H 693.26 6.62464 -4.62782 0
M  V30 7168 H 696.846 5.09522 -2.80853 0
M  V30 7169 H 695.726 6.33299 -4.62495 0
M  V30 7170 N 693.229 0.160201 1.56784 0
M  V30 7171 C 694.477 -0.486625 1.96154 0
M  V30 7172 C 694.798 -1.64525 1.04673 0
M  V30 7173 O 694.068 -1.95586 0.110864 0
M  V30 7174 H 692.648 -0.182764 0.724297 0
M  V30 7175 H 695.31 0.238787 1.93432 0
M  V30 7176 H 694.406 -0.854025 3.00188 0
M  V30 7177 N 694.707 -1.5719 -0.113559 0
M  V30 7178 C 696.118 -1.74259 -0.670116 0
M  V30 7179 C 696.469 -0.779694 -1.80042 0
M  V30 7180 O 695.594 0.0461353 -2.16351 0
M  V30 7181 C 696.189 -3.15981 -1.22236 0
M  V30 7182 C 694.748 -3.34537 -1.72516 0
M  V30 7183 C 693.895 -2.70116 -0.627098 0
M  V30 7184 H 696.846 -1.58301 0.112396 0
M  V30 7185 H 696.867 -3.17832 -2.09197 0
M  V30 7186 H 696.379 -3.86038 -0.39949 0
M  V30 7187 H 694.48 -2.6953 -2.57263 0
M  V30 7188 H 694.593 -4.42737 -1.83086 0
M  V30 7189 H 692.957 -2.31501 -1.06204 0
M  V30 7190 H 693.74 -3.42802 0.184889 0
M  V30 7191 N 696.185 0.383891 -1.52853 0
M  V30 7192 C 697.434 1.12563 -1.67369 0
M  V30 7193 C 697.747 1.90982 -0.422533 0
M  V30 7194 O 698.953 2.6778 -0.447914 0
M  V30 7195 C 697.409 2.05011 -2.95801 0
M  V30 7196 C 697.017 1.31991 -4.28115 0
M  V30 7197 C 698.761 2.79289 -3.19684 0
M  V30 7198 C 696.668 2.23235 -5.4765 0
M  V30 7199 H 695.598 0.42391 -0.623552 0
M  V30 7200 H 698.249 0.388016 -1.79351 0
M  V30 7201 H 696.631 2.82429 -2.77578 0
M  V30 7202 H 697.805 0.597633 -4.56908 0
M  V30 7203 H 696.12 0.696517 -4.10533 0
M  V30 7204 H 698.717 3.47749 -4.06171 0
M  V30 7205 H 699.06 3.43649 -2.3497 0
M  V30 7206 H 699.593 2.08962 -3.38496 0
M  V30 7207 H 696.332 1.63482 -6.34786 0
M  V30 7208 H 695.852 2.93364 -5.23161 0
M  V30 7209 H 697.531 2.83205 -5.81725 0
M  V30 7210 N 697.663 1.43903 0.642637 0
M  V30 7211 C 698.891 1.4954 1.42988 0
M  V30 7212 C 699.306 0.116588 1.8844 0
M  V30 7213 O 698.663 -0.875285 1.60141 0
M  V30 7214 C 698.714 2.45031 2.65785 0
M  V30 7215 O 698.435 3.77551 2.22232 0
M  V30 7216 C 699.936 2.60017 3.59035 0
M  V30 7217 H 697.156 0.507544 0.438907 0
M  V30 7218 H 699.7 1.88752 0.786942 0
M  V30 7219 H 697.855 2.08985 3.26196 0
M  V30 7220 H 698.269 4.29001 3.01759 0
M  V30 7221 H 699.743 3.30887 4.41835 0
M  V30 7222 H 700.22 1.64861 4.07084 0
M  V30 7223 H 700.826 2.96918 3.045 0
M  V30 7224 N 699.141 -0.881989 1.30609 0
M  V30 7225 C 700.091 -1.97539 1.13852 0
M  V30 7226 C 701.075 -1.60813 0.0528428 0
M  V30 7227 O 702.267 -1.74827 0.276484 0
M  V30 7228 C 699.396 -3.32977 0.835519 0
M  V30 7229 C 698.482 -3.76008 1.96159 0
M  V30 7230 N 698.873 -3.91109 3.20729 0
M  V30 7231 C 697.171 -4.05427 1.85863 0
M  V30 7232 C 697.872 -4.27661 3.94311 0
M  V30 7233 N 696.848 -4.37686 3.22385 0
M  V30 7234 H 700.65 -2.07309 2.08327 0
M  V30 7235 H 698.164 -1.072 1.21992 0
M  V30 7236 H 700.161 -4.11041 0.696477 0
M  V30 7237 H 698.821 -3.24542 -0.101135 0
M  V30 7238 H 699.832 -3.7616 3.55984 0
M  V30 7239 H 696.509 -4.05449 0.995847 0
M  V30 7240 H 697.899 -4.47042 5.01601 0
M  V30 7241 N 700.619 -1.13374 -1.09472 0
M  V30 7242 C 701.896 -0.806329 -1.78207 0
M  V30 7243 C 702.276 0.702191 -1.99079 0
M  V30 7244 O 701.624 1.63931 -1.59182 0
M  V30 7245 C 701.834 -1.59271 -3.10538 0
M  V30 7246 C 703.182 -1.78509 -3.85253 0
M  V30 7247 O 704.206 -1.55866 -3.20288 0
M  V30 7248 O 703.065 -2.16287 -5.01879 0
M  V30 7249 H 700.159 -0.29435 -0.772843 0
M  V30 7250 H 702.705 -1.23833 -1.16033 0
M  V30 7251 H 701.477 -2.61792 -2.90828 0
M  V30 7252 H 701.1 -1.15562 -3.80436 0
M  V30 7253 N 702.098 1.27442 -0.927168 0
M  V30 7254 C 703.031 2.25177 -0.370232 0
M  V30 7255 C 704.009 1.53612 0.533103 0
M  V30 7256 O 705.193 1.8245 0.47373 0
M  V30 7257 C 702.32 3.35431 0.469411 0
M  V30 7258 C 701.366 4.24888 -0.370419 0
M  V30 7259 S 702.199 5.04852 -1.78562 0
M  V30 7260 C 703.355 6.18592 -0.953651 0
M  V30 7261 H 703.588 2.72069 -1.19858 0
M  V30 7262 H 701.121 1.36089 -0.729316 0
M  V30 7263 H 703.079 3.99404 0.947992 0
M  V30 7264 H 701.74 2.87179 1.27228 0
M  V30 7265 H 700.933 5.03264 0.272226 0
M  V30 7266 H 700.535 3.65709 -0.783153 0
M  V30 7267 H 702.827 6.77235 -0.189408 0
M  V30 7268 H 703.77 6.87132 -1.7104 0
M  V30 7269 H 704.178 5.62318 -0.495897 0
M  V30 7270 N 703.576 0.692616 1.41565 0
M  V30 7271 C 704.987 0.297478 1.84315 0
M  V30 7272 C 705.338 -1.16379 1.57957 0
M  V30 7273 O 704.463 -1.89303 1.0485 0
M  V30 7274 C 705.058 0.533136 3.34579 0
M  V30 7275 C 703.617 0.191944 3.7591 0
M  V30 7276 C 702.764 0.816873 2.64995 0
M  V30 7277 H 705.715 0.893488 1.31158 0
M  V30 7278 H 705.736 -0.209105 3.79925 0
M  V30 7279 H 705.248 1.59674 3.53731 0
M  V30 7280 H 703.349 -0.867512 3.6236 0
M  V30 7281 H 703.462 0.644902 4.7474 0
M  V30 7282 H 701.826 0.246715 2.53502 0
M  V30 7283 H 702.609 1.88429 2.86966 0
M  V30 7284 N 705.054 -1.51416 0.437162 0
M  V30 7285 C 705.964 -2.31493 -0.380537 0
M  V30 7286 C 706.98 -1.40399 -1.02782 0
M  V30 7287 O 708.156 -1.73471 -1.02323 0
M  V30 7288 C 705.221 -3.1413 -1.46709 0
M  V30 7289 C 704.282 -4.21003 -0.839953 0
M  V30 7290 C 703.515 -4.9969 -1.87473 0
M  V30 7291 O 703.738 -4.79008 -3.09689 0
M  V30 7292 O 702.672 -5.8379 -1.46536 0
M  V30 7293 H 706.498 -3.02469 0.273183 0
M  V30 7294 H 704.083 -1.48059 0.199706 0
M  V30 7295 H 705.965 -3.65505 -2.09724 0
M  V30 7296 H 704.64 -2.45919 -2.10489 0
M  V30 7297 H 703.547 -3.73706 -0.171752 0
M  V30 7298 H 704.88 -4.91587 -0.245638 0
M  V30 7299 N 706.532 -0.168513 -1.56696 0
M  V30 7300 C 707.757 0.486688 -2.01609 0
M  V30 7301 C 708.182 1.56203 -1.04796 0
M  V30 7302 O 707.54 1.8128 -0.0270596 0
M  V30 7303 C 707.588 1.04451 -3.45141 0
M  V30 7304 O 706.692 2.15862 -3.51393 0
M  V30 7305 H 706.033 0.116831 -0.653641 0
M  V30 7306 H 708.563 -0.271579 -2.0279 0
M  V30 7307 H 708.573 1.36782 -3.84389 0
M  V30 7308 H 707.248 0.257155 -4.15104 0
M  V30 7309 H 705.825 1.84597 -3.24004 0
M  V30 7310 N 708.01 1.57248 0.105221 0
M  V30 7311 C 709.235 1.90143 0.828264 0
M  V30 7312 C 709.66 0.761811 1.71983 0
M  V30 7313 O 709.018 -0.287086 1.79013 0
M  V30 7314 C 709.066 3.21856 1.62608 0
M  V30 7315 O 708.17 3.08732 2.7342 0
M  V30 7316 H 707.511 0.623558 0.228192 0
M  V30 7317 H 710.041 2.0443 0.0834826 0
M  V30 7318 H 710.051 3.54916 2.01243 0
M  V30 7319 H 708.726 4.0439 0.971687 0
M  V30 7320 H 707.303 2.87167 2.37886 0
M  V30 7321 N 709.488 -0.375779 1.53054 0
M  V30 7322 C 710.765 -1.13453 1.59336 0
M  V30 7323 C 711.145 -2.07379 0.394614 0
M  V30 7324 O 710.493 -2.2004 -0.616 0
M  V30 7325 C 710.703 -1.8826 2.93869 0
M  V30 7326 C 712.051 -2.43155 3.48081 0
M  V30 7327 O 713.075 -1.984 2.95831 0
M  V30 7328 O 711.934 -3.24944 4.39401 0
M  V30 7329 H 709.028 -0.519856 0.643179 0
M  V30 7330 H 711.574 -0.379865 1.65394 0
M  V30 7331 H 710.346 -1.19652 3.72558 0
M  V30 7332 H 709.969 -2.70658 2.91256 0
M  V30 7333 N 710.966 -1.44241 -0.634997 0
M  V30 7334 C 711.898 -1.46793 -1.76024 0
M  V30 7335 C 712.911 -0.361781 -1.58729 0
M  V30 7336 O 714.1 -0.627297 -1.67114 0
M  V30 7337 C 711.2 -1.28248 -3.13697 0
M  V30 7338 C 710.373 -2.52038 -3.57485 0
M  V30 7339 C 709.432 -2.2845 -4.74022 0
M  V30 7340 O 708.458 -3.01915 -4.82531 0
M  V30 7341 N 709.66 -1.31264 -5.65464 0
M  V30 7342 H 712.425 -2.43797 -1.74307 0
M  V30 7343 H 709.986 -1.39631 -0.819438 0
M  V30 7344 H 711.978 -1.10321 -3.89373 0
M  V30 7345 H 710.548 -0.39623 -3.10079 0
M  V30 7346 H 709.768 -2.85268 -2.72059 0
M  V30 7347 H 711.056 -3.34382 -3.83492 0
M  V30 7348 H 710.454 -0.705817 -5.6128 0
M  V30 7349 H 709.011 -1.19316 -6.40786 0
M  V30 7350 N 712.444 0.87505 -1.31075 0
M  V30 7351 C 713.86 1.15997 -1.09622 0
M  V30 7352 C 714.06 2.01036 0.136611 0
M  V30 7353 O 713.116 2.38559 0.827397 0
M  V30 7354 C 714.429 1.85702 -2.36506 0
M  V30 7355 C 715.977 1.98425 -2.42067 0
M  V30 7356 C 716.452 2.71544 -3.68819 0
M  V30 7357 N 717.943 2.79084 -3.69684 0
M  V30 7358 C 718.678 3.36259 -4.64454 0
M  V30 7359 N 718.174 3.94406 -5.69575 0
M  V30 7360 N 719.967 3.34169 -4.51982 0
M  V30 7361 H 712.118 0.308258 -2.10151 0
M  V30 7362 H 714.381 0.199145 -0.926847 0
M  V30 7363 H 714.087 1.30663 -3.26527 0
M  V30 7364 H 713.961 2.86017 -2.45915 0
M  V30 7365 H 716.348 2.5263 -1.52518 0
M  V30 7366 H 716.429 0.971682 -2.36626 0
M  V30 7367 H 716.073 2.18008 -4.58732 0
M  V30 7368 H 716.003 3.73198 -3.71525 0
M  V30 7369 H 718.494 2.3781 -2.93691 0
M  V30 7370 H 718.807 4.36129 -6.37974 0
M  V30 7371 H 717.152 3.92797 -5.73355 0
M  V30 7372 H 720.343 2.87977 -3.69035 0
M  V30 7373 H 720.516 3.78431 -5.26017 0
M  V30 7374 N 713.922 1.13953 1.08869 0
M  V30 7375 C 715.333 0.916649 1.62648 0
M  V30 7376 C 715.684 -0.545589 1.88462 0
M  V30 7377 O 714.809 -1.41351 1.63856 0
M  V30 7378 C 715.404 1.65751 2.95486 0
M  V30 7379 C 713.963 1.48034 3.46068 0
M  V30 7380 C 713.11 1.68305 2.20383 0
M  V30 7381 H 716.061 1.292 0.921572 0
M  V30 7382 H 716.082 1.11794 3.63707 0
M  V30 7383 H 715.594 2.72171 2.76667 0
M  V30 7384 H 713.695 0.439416 3.7 0
M  V30 7385 H 713.808 2.24719 4.23129 0
M  V30 7386 H 712.172 1.10833 2.29321 0
M  V30 7387 H 712.955 2.76057 2.04077 0
M  V30 7388 N 715.4 -1.26948 0.933913 0
M  V30 7389 C 716.63 -1.97898 0.593279 0
M  V30 7390 C 717.038 -1.69806 -0.834412 0
M  V30 7391 O 716.381 -0.958704 -1.56699 0
M  V30 7392 C 716.443 -3.51657 0.746825 0
M  V30 7393 C 716.107 -4.03384 2.14779 0
M  V30 7394 C 717.104 -4.15682 3.12257 0
M  V30 7395 C 714.789 -4.37577 2.46641 0
M  V30 7396 C 716.783 -4.61455 4.39702 0
M  V30 7397 C 714.47 -4.8304 3.7432 0
M  V30 7398 C 715.468 -4.94939 4.70664 0
M  V30 7399 O 715.156 -5.39403 5.96071 0
M  V30 7400 H 714.888 -0.63814 0.223055 0
M  V30 7401 H 717.442 -1.62608 1.2549 0
M  V30 7402 H 715.672 -3.8669 0.0280889 0
M  V30 7403 H 717.361 -4.03821 0.410328 0
M  V30 7404 H 718.127 -3.89519 2.88964 0
M  V30 7405 H 714.006 -4.27554 1.72391 0
M  V30 7406 H 717.55 -4.70658 5.14905 0
M  V30 7407 H 713.447 -5.08646 3.97429 0
M  V30 7408 H 714.215 -5.57641 5.99148 0
M  V30 7409 N 716.879 -0.700114 -1.41195 0
M  V30 7410 C 718.119 -0.237223 -2.03019 0
M  V30 7411 C 718.483 1.14304 -1.54268 0
M  V30 7412 O 719.684 1.70204 -2.08048 0
M  V30 7413 C 717.955 -0.297442 -3.5616 0
M  V30 7414 S 719.514 0.0907367 -4.38706 0
M  V30 7415 H 716.332 -0.0952147 -0.704596 0
M  V30 7416 H 718.934 -0.918901 -1.72559 0
M  V30 7417 H 717.638 -1.30391 -3.89135 0
M  V30 7418 H 717.169 0.403233 -3.91328 0
M  V30 7419 H 719.184 1.31721 -4.78397 0
M  V30 7420 N 718.357 1.51182 -0.445186 0
M  V30 7421 C 719.603 2.03097 0.111049 0
M  V30 7422 C 719.958 1.32293 1.397 0
M  V30 7423 O 719.251 0.431529 1.86677 0
M  V30 7424 C 719.445 3.55408 0.376797 0
M  V30 7425 C 719.274 4.40969 -0.88185 0
M  V30 7426 C 718.044 4.85006 -1.41766 0
M  V30 7427 C 720.242 4.82876 -1.77017 0
M  V30 7428 N 718.224 5.54804 -2.62803 0
M  V30 7429 C 719.595 5.51821 -2.82654 0
M  V30 7430 C 721.65 4.64855 -1.78365 0
M  V30 7431 C 720.353 6.04655 -3.89595 0
M  V30 7432 C 722.379 5.18612 -2.84246 0
M  V30 7433 C 721.741 5.87509 -3.88603 0
M  V30 7434 H 717.84 0.781999 0.0012696 0
M  V30 7435 H 720.424 1.84976 -0.60761 0
M  V30 7436 H 718.595 3.73528 1.06449 0
M  V30 7437 H 720.327 3.93985 0.925082 0
M  V30 7438 H 717.082 4.6355 -0.970476 0
M  V30 7439 H 717.506 5.94326 -3.24201 0
M  V30 7440 H 722.148 4.11043 -0.990119 0
M  V30 7441 H 719.866 6.57518 -4.69782 0
M  V30 7442 H 723.452 5.06515 -2.86241 0
M  V30 7443 H 722.332 6.28358 -4.69186 0
M  V30 7444 N 719.835 0.176821 1.56605 0
M  V30 7445 C 720.785 -0.763718 2.14829 0
M  V30 7446 C 721.769 -1.18903 1.08401 0
M  V30 7447 O 722.961 -1.15048 1.3451 0
M  V30 7448 C 720.09 -1.99069 2.7969 0
M  V30 7449 C 719.176 -1.58711 3.93283 0
M  V30 7450 N 719.567 -0.893423 4.97847 0
M  V30 7451 C 717.865 -1.87774 4.04545 0
M  V30 7452 C 718.566 -0.693866 5.77547 0
M  V30 7453 N 717.542 -1.23699 5.29339 0
M  V30 7454 H 721.344 -0.224811 2.93039 0
M  V30 7455 H 718.858 -0.0236563 1.62383 0
M  V30 7456 H 720.855 -2.67478 3.19783 0
M  V30 7457 H 719.515 -2.53449 2.02962 0
M  V30 7458 H 720.526 -0.550868 5.14962 0
M  V30 7459 H 717.203 -2.43793 3.38927 0
M  V30 7460 H 718.593 -0.144899 6.71744 0
M  V30 7461 N 721.313 -1.57302 -0.09688 0
M  V30 7462 C 722.543 -1.89926 -0.813114 0
M  V30 7463 C 722.951 -0.76852 -1.72888 0
M  V30 7464 O 722.294 0.268549 -1.81726 0
M  V30 7465 C 722.356 -3.17787 -1.68082 0
M  V30 7466 C 722.02 -4.4729 -0.937061 0
M  V30 7467 C 723.017 -5.1921 -0.267687 0
M  V30 7468 C 720.702 -4.93957 -0.911671 0
M  V30 7469 C 722.696 -6.36034 0.417129 0
M  V30 7470 C 720.383 -6.10693 -0.223068 0
M  V30 7471 C 721.381 -6.8158 0.440155 0
M  V30 7472 O 721.069 -7.96092 1.11772 0
M  V30 7473 H 720.801 -0.632783 -0.237828 0
M  V30 7474 H 723.355 -2.05248 -0.0790818 0
M  V30 7475 H 721.585 -2.98607 -2.45705 0
M  V30 7476 H 723.274 -3.36257 -2.27346 0
M  V30 7477 H 724.04 -4.84198 -0.278774 0
M  V30 7478 H 719.919 -4.38671 -1.41734 0
M  V30 7479 H 723.463 -6.91301 0.93537 0
M  V30 7480 H 719.36 -6.45159 -0.209821 0
M  V30 7481 H 720.128 -8.12064 1.02443 0
M  V30 7482 N 722.791 0.367657 -1.53252 0
M  V30 7483 C 723.754 1.43308 -1.78873 0
M  V30 7484 C 724.754 1.46671 -0.659115 0
M  V30 7485 O 725.944 1.47468 -0.927306 0
M  V30 7486 C 723.076 2.82442 -1.90892 0
M  V30 7487 H 724.269 1.21864 -2.74024 0
M  V30 7488 H 721.822 0.600668 -1.44297 0
M  V30 7489 H 722.557 3.09202 -0.978 0
M  V30 7490 H 722.342 2.81399 -2.73051 0
M  V30 7491 H 723.832 3.59601 -2.12314 0
M  V30 7492 N 724.269 1.44576 0.627338 0
M  V30 7493 C 725.68 1.42266 1.20902 0
M  V30 7494 C 726.031 0.139964 1.957 0
M  V30 7495 O 725.156 -0.759489 2.02634 0
M  V30 7496 C 725.751 2.57727 2.19914 0
M  V30 7497 C 724.31 2.58599 2.73502 0
M  V30 7498 C 723.457 2.34145 1.48564 0
M  V30 7499 H 726.408 1.53102 0.417791 0
M  V30 7500 H 726.429 2.30697 3.02588 0
M  V30 7501 H 725.941 3.51068 1.65447 0
M  V30 7502 H 724.042 1.6921 3.31962 0
M  V30 7503 H 724.155 3.57205 3.19282 0
M  V30 7504 H 722.519 1.83313 1.76829 0
M  V30 7505 H 723.302 3.29606 0.959935 0
M  V30 7506 N 725.747 -0.868086 1.31537 0
M  V30 7507 C 727.163 -1.15414 1.10235 0
M  V30 7508 C 727.363 -2.01106 -0.125947 0
M  V30 7509 O 726.419 -2.38994 -0.814734 0
M  V30 7510 C 727.732 -1.84445 2.37488 0
M  V30 7511 C 729.28 -1.97139 2.43116 0
M  V30 7512 C 729.755 -2.69585 3.70254 0
M  V30 7513 N 731.246 -2.77119 3.71159 0
M  V30 7514 C 731.981 -3.33791 4.6623 0
M  V30 7515 N 731.477 -3.9138 5.71659 0
M  V30 7516 N 733.27 -3.31767 4.53747 0
M  V30 7517 H 725.421 -0.297109 2.10312 0
M  V30 7518 H 727.684 -0.194227 0.92789 0
M  V30 7519 H 727.39 -1.2893 3.27215 0
M  V30 7520 H 727.264 -2.84709 2.47428 0
M  V30 7521 H 729.651 -2.51818 1.53856 0
M  V30 7522 H 729.732 -0.95912 2.37138 0
M  V30 7523 H 729.376 -2.15572 4.59881 0
M  V30 7524 H 729.306 -3.71223 3.73499 0
M  V30 7525 H 731.797 -2.3625 2.94948 0
M  V30 7526 H 732.11 -4.3274 6.40278 0
M  V30 7527 H 730.455 -3.8975 5.7543 0
M  V30 7528 H 733.646 -2.86016 3.70557 0
M  V30 7529 H 733.819 -3.75636 5.28017 0
M  V30 7530 N 727.225 -1.14528 -1.08264 0
M  V30 7531 C 728.636 -0.925261 -1.6216 0
M  V30 7532 C 728.987 0.535587 -1.88748 0
M  V30 7533 O 728.112 1.4048 -1.64604 0
M  V30 7534 C 728.707 -1.67316 -2.94603 0
M  V30 7535 C 727.266 -1.49868 -3.45278 0
M  V30 7536 C 726.413 -1.69471 -2.19487 0
M  V30 7537 H 729.364 -1.29687 -0.914707 0
M  V30 7538 H 729.385 -1.13721 -3.63109 0
M  V30 7539 H 728.897 -2.73635 -2.75219 0
M  V30 7540 H 726.998 -0.459032 -3.69762 0
M  V30 7541 H 727.111 -2.2696 -4.21931 0
M  V30 7542 H 725.475 -1.12048 -2.2873 0
M  V30 7543 H 726.258 -2.77136 -2.0261 0
M  V30 7544 N 728.703 1.26451 -0.940633 0
M  V30 7545 C 729.943 1.95537 -0.595381 0
M  V30 7546 C 730.307 1.72175 0.849683 0
M  V30 7547 O 731.508 2.3506 1.30384 0
M  V30 7548 C 729.779 3.45151 -0.927669 0
M  V30 7549 S 731.338 4.33295 -0.69288 0
M  V30 7550 H 728.156 0.676331 -0.219311 0
M  V30 7551 H 730.758 1.53411 -1.21183 0
M  V30 7552 H 729.462 3.59654 -1.9768 0
M  V30 7553 H 728.993 3.92247 -0.300921 0
M  V30 7554 H 731.008 4.94217 0.443175 0
M  V30 7555 N 730.181 0.707592 1.40822 0
M  V30 7556 C 731.429 0.243189 2.00632 0
M  V30 7557 C 731.75 -1.16512 1.56365 0
M  V30 7558 O 731.02 -1.78841 0.799553 0
M  V30 7559 H 729.6 0.0869203 0.741926 0
M  V30 7560 H 732.262 0.911438 1.72275 0
M  V30 7561 H 731.358 0.270014 3.1093 0
M  V30 7562 N 731.66 -1.50943 0.453197 0
M  V30 7563 C 732.909 -2.01402 -0.10951 0
M  V30 7564 C 733.222 -1.3411 -1.42386 0
M  V30 7565 O 734.428 -1.75626 -2.07045 0
M  V30 7566 C 732.884 -3.5906 -0.245693 0
M  V30 7567 C 732.492 -4.353 1.05916 0
M  V30 7568 C 734.236 -4.17617 -0.761318 0
M  V30 7569 C 732.143 -5.84699 0.887752 0
M  V30 7570 H 731.073 -0.752674 -0.0447013 0
M  V30 7571 H 733.724 -1.73913 0.585375 0
M  V30 7572 H 732.106 -3.83062 -1.00395 0
M  V30 7573 H 733.28 -4.23034 1.82698 0
M  V30 7574 H 731.595 -3.88269 1.50452 0
M  V30 7575 H 734.192 -5.26963 -0.906306 0
M  V30 7576 H 734.535 -3.77824 -1.74799 0
M  V30 7577 H 735.068 -3.97753 -0.0609416 0
M  V30 7578 H 731.807 -6.28933 1.84726 0
M  V30 7579 H 731.327 -5.99587 0.160006 0
M  V30 7580 H 733.006 -6.44682 0.547223 0
M  V30 7581 N 733.138 -0.185124 -1.56509 0
M  V30 7582 C 734.384 0.456934 -1.97585 0
M  V30 7583 C 734.717 1.61957 -1.07161 0
M  V30 7584 O 733.992 1.9412 -0.121546 0
M  V30 7585 C 734.275 0.926666 -3.47973 0
M  V30 7586 C 734.128 -0.237097 -4.49175 0
M  V30 7587 C 735.447 1.79561 -4.01803 0
M  V30 7588 H 732.566 0.164619 -0.71838 0
M  V30 7589 H 735.208 -0.274039 -1.88013 0
M  V30 7590 H 733.358 1.54954 -3.56261 0
M  V30 7591 H 735.03 -0.87454 -4.52934 0
M  V30 7592 H 733.273 -0.890446 -4.24563 0
M  V30 7593 H 733.944 0.133924 -5.51838 0
M  V30 7594 H 736.42 1.27039 -3.96232 0
M  V30 7595 H 735.296 2.09327 -5.07418 0
M  V30 7596 H 735.557 2.74629 -3.46455 0
M  V30 7597 N 734.616 1.57351 0.0885366 0
M  V30 7598 C 736.027 1.75303 0.642308 0
M  V30 7599 C 736.378 0.808238 1.78779 0
M  V30 7600 O 735.503 -0.01171 2.16397 0
M  V30 7601 C 736.098 3.17885 1.17194 0
M  V30 7602 C 734.657 3.37239 1.67172 0
M  V30 7603 C 733.804 2.7108 0.584045 0
M  V30 7604 H 736.755 1.58103 -0.137567 0
M  V30 7605 H 736.776 3.2112 2.04114 0
M  V30 7606 H 736.288 3.86625 0.338024 0
M  V30 7607 H 734.389 2.73588 2.52943 0
M  V30 7608 H 734.502 4.45594 1.76019 0
M  V30 7609 H 732.866 2.33161 1.02508 0
M  V30 7610 H 733.649 3.42464 -0.239403 0
M  V30 7611 N 736.094 -0.359525 1.53444 0
M  V30 7612 C 737.057 -1.42357 1.7963 0
M  V30 7613 C 738.057 -1.46319 0.666884 0
M  V30 7614 O 739.247 -1.46974 0.935113 0
M  V30 7615 C 736.379 -2.81425 1.92387 0
M  V30 7616 H 737.572 -1.20409 2.74666 0
M  V30 7617 H 735.125 -0.593007 1.44614 0
M  V30 7618 H 735.86 -3.08679 0.994384 0
M  V30 7619 H 735.645 -2.79947 2.74539 0
M  V30 7620 H 737.135 -3.5847 2.14218 0
M  V30 7621 N 737.572 -1.44907 -0.619662 0
M  V30 7622 C 738.797 -1.52021 -1.41083 0
M  V30 7623 C 739.222 -0.14976 -1.87503 0
M  V30 7624 O 738.58 0.863303 -1.59426 0
M  V30 7625 C 738.628 -2.49911 -2.59955 0
M  V30 7626 O 737.732 -2.00857 -3.60181 0
M  V30 7627 H 737.073 -0.512912 -0.421684 0
M  V30 7628 H 739.603 -1.90149 -0.755282 0
M  V30 7629 H 739.613 -2.68323 -3.07354 0
M  V30 7630 H 738.288 -3.4945 -2.25516 0
M  V30 7631 H 736.865 -1.92265 -3.19513 0
M  V30 7632 N 739.05 0.861098 -1.31996 0
M  V30 7633 C 739.982 1.97551 -1.16216 0
M  V30 7634 C 740.995 1.625 -0.0988527 0
M  V30 7635 O 742.184 1.75091 -0.3472 0
M  V30 7636 C 739.284 3.30376 -0.755307 0
M  V30 7637 C 738.457 3.93711 -1.90552 0
M  V30 7638 C 737.516 5.04862 -1.48328 0
M  V30 7639 O 736.542 5.25204 -2.19431 0
M  V30 7640 N 737.744 5.79283 -0.375656 0
M  V30 7641 H 740.509 2.11632 -2.12208 0
M  V30 7642 H 738.07 1.03559 -1.24448 0
M  V30 7643 H 740.062 4.0213 -0.455364 0
M  V30 7644 H 738.632 3.12395 0.113269 0
M  V30 7645 H 737.852 3.14825 -2.37231 0
M  V30 7646 H 739.14 4.32762 -2.67571 0
M  V30 7647 H 738.538 5.65286 0.216284 0
M  V30 7648 H 737.095 6.5166 -0.135289 0
M  V30 7649 N 740.528 1.15101 1.07655 0
M  V30 7650 C 741.774 0.925343 1.80458 0
M  V30 7651 C 742.107 -0.546354 1.86356 0
M  V30 7652 O 741.382 -1.40496 1.34503 0
M  V30 7653 C 741.665 1.53646 3.25676 0
M  V30 7654 C 741.518 3.07854 3.27942 0
M  V30 7655 C 742.837 1.21968 4.22861 0
M  V30 7656 H 739.956 0.337592 0.655134 0
M  V30 7657 H 742.598 1.42217 1.25993 0
M  V30 7658 H 740.748 1.11395 3.72187 0
M  V30 7659 H 742.42 3.58989 2.89697 0
M  V30 7660 H 740.663 3.41904 2.66991 0
M  V30 7661 H 741.334 3.45725 4.30324 0
M  V30 7662 H 743.81 1.5851 3.84726 0
M  V30 7663 H 742.686 1.67349 5.22767 0
M  V30 7664 H 742.947 0.136207 4.4189 0
M  V30 7665 N 742.006 -1.2595 0.947325 0
M  V30 7666 C 743.246 -1.95218 0.605743 0
M  V30 7667 C 743.61 -1.72624 -0.84054 0
M  V30 7668 O 744.811 -2.35748 -1.29136 0
M  V30 7669 C 743.082 -3.44654 0.94596 0
M  V30 7670 S 744.641 -4.32922 0.715849 0
M  V30 7671 H 741.459 -0.675159 0.222894 0
M  V30 7672 H 744.061 -1.52766 1.21995 0
M  V30 7673 H 742.765 -3.586 1.99585 0
M  V30 7674 H 742.296 -3.92082 0.321718 0
M  V30 7675 H 744.311 -4.94445 -0.416959 0
M  V30 7676 N 743.484 -0.715051 -1.40445 0
M  V30 7677 C 744.732 -0.253826 -2.005 0
M  V30 7678 C 745.053 1.15681 -1.5698 0
M  V30 7679 O 744.323 1.78414 -0.809027 0
M  V30 7680 H 742.903 -0.0908537 -0.741454 0
M  V30 7681 H 745.565 -0.920561 -1.7179 0
M  V30 7682 H 744.661 -0.286499 -3.10782 0
M  V30 7683 N 744.962 1.50701 -0.461195 0
M  V30 7684 C 746.373 1.867 -0.00370227 0
M  V30 7685 C 746.724 1.37673 1.39787 0
M  V30 7686 O 745.849 0.737515 2.03445 0
M  V30 7687 C 746.444 3.388 5.75786e-05 0
M  V30 7688 C 745.003 3.74247 0.402044 0
M  V30 7689 C 744.15 2.74549 -0.389652 0
M  V30 7690 H 747.101 1.43585 -0.675942 0
M  V30 7691 H 747.122 3.719 0.804414 0
M  V30 7692 H 746.634 3.74452 -1.02015 0
M  V30 7693 H 744.735 3.44192 1.42697 0
M  V30 7694 H 744.848 4.78973 0.110265 0
M  V30 7695 H 743.212 2.54226 0.155314 0
M  V30 7696 H 743.995 3.13044 -1.40919 0
M  V30 7697 N 746.441 0.193421 1.56409 0
M  V30 7698 C 747.687 -0.446449 1.97825 0
M  V30 7699 C 748.02 -1.61386 1.08019 0
M  V30 7700 O 747.295 -1.94053 0.131839 0
M  V30 7701 C 747.578 -0.908199 3.48459 0
M  V30 7702 C 747.431 0.260914 4.49043 0
M  V30 7703 C 748.75 -1.77428 4.0275 0
M  V30 7704 H 745.869 -0.160807 0.719243 0
M  V30 7705 H 748.511 0.284006 1.87865 0
M  V30 7706 H 746.661 -1.53062 3.57077 0
M  V30 7707 H 748.333 0.898548 4.52464 0
M  V30 7708 H 746.576 0.912949 4.24085 0
M  V30 7709 H 747.247 -0.104657 5.51901 0
M  V30 7710 H 749.723 -1.24936 3.96901 0
M  V30 7711 H 748.599 -2.06633 5.08521 0
M  V30 7712 H 748.86 -2.72788 3.47907 0
M  V30 7713 N 747.919 -1.57396 -0.0801906 0
M  V30 7714 C 749.149 -1.90778 -0.792924 0
M  V30 7715 C 749.557 -0.786814 -1.72064 0
M  V30 7716 O 748.9 0.249259 -1.82001 0
M  V30 7717 C 748.962 -3.19552 -1.64702 0
M  V30 7718 C 748.626 -4.48259 -0.889567 0
M  V30 7719 C 749.623 -5.19465 -0.212602 0
M  V30 7720 C 747.308 -4.94896 -0.859229 0
M  V30 7721 C 749.302 -6.35555 0.484566 0
M  V30 7722 C 746.989 -6.10895 -0.158284 0
M  V30 7723 C 747.987 -6.81075 0.512421 0
M  V30 7724 O 747.675 -7.94862 1.20209 0
M  V30 7725 H 747.407 -0.63527 -0.231103 0
M  V30 7726 H 749.961 -2.0532 -0.0573081 0
M  V30 7727 H 748.191 -3.01196 -2.42524 0
M  V30 7728 H 749.88 -3.38649 -2.23767 0
M  V30 7729 H 750.646 -4.84467 -0.227403 0
M  V30 7730 H 746.525 -4.4015 -1.37073 0
M  V30 7731 H 750.069 -6.9027 1.00864 0
M  V30 7732 H 745.966 -6.45345 -0.141381 0
M  V30 7733 H 746.734 -8.10932 1.11051 0
M  V30 7734 N 749.397 0.351382 -1.53633 0
M  V30 7735 C 750.637 1.10102 -1.72212 0
M  V30 7736 C 751.001 1.86128 -0.471198 0
M  V30 7737 O 752.202 2.63445 -0.533887 0
M  V30 7738 C 750.473 2.02348 -2.94602 0
M  V30 7739 S 752.032 2.84641 -3.33954 0
M  V30 7740 H 748.85 0.372145 -0.60583 0
M  V30 7741 H 751.452 0.38044 -1.91763 0
M  V30 7742 H 750.156 1.45283 -3.83824 0
M  V30 7743 H 749.687 2.78856 -2.77493 0
M  V30 7744 H 751.702 4.04724 -2.87076 0
M  V30 7745 N 750.875 1.45233 0.611969 0
M  V30 7746 C 752.122 1.49021 1.37109 0
M  V30 7747 C 752.45 0.130227 1.94064 0
M  V30 7748 O 751.705 -0.870551 1.75271 0
M  V30 7749 C 752.004 2.51353 2.54079 0
M  V30 7750 C 751.67 3.96178 2.15299 0
M  V30 7751 C 750.332 4.35614 2.04436 0
M  V30 7752 C 752.684 4.87275 1.84966 0
M  V30 7753 C 750.012 5.64047 1.61456 0
M  V30 7754 C 752.364 6.16115 1.43474 0
M  V30 7755 C 751.028 6.54486 1.31167 0
M  V30 7756 H 750.298 0.545307 0.501719 0
M  V30 7757 H 752.945 1.78555 0.692122 0
M  V30 7758 H 751.25 2.15372 3.27295 0
M  V30 7759 H 752.947 2.51523 3.12309 0
M  V30 7760 H 749.537 3.6499 2.24678 0
M  V30 7761 H 753.721 4.57548 1.92258 0
M  V30 7762 H 748.977 5.92575 1.50547 0
M  V30 7763 H 753.151 6.86149 1.19048 0
M  V30 7764 H 750.778 7.53904 0.97637 0
M  V30 7765 N 752.353 -0.854086 1.3245 0
M  V30 7766 C 753.581 -1.64074 1.26045 0
M  V30 7767 C 753.996 -1.8802 -0.171456 0
M  V30 7768 O 753.353 -1.4496 -1.10873 0
M  V30 7769 C 753.404 -2.9997 2.01743 0
M  V30 7770 O 753.125 -2.77084 3.39346 0
M  V30 7771 C 754.626 -3.94414 2.02368 0
M  V30 7772 H 751.846 -0.511015 0.434862 0
M  V30 7773 H 754.39 -1.06494 1.74583 0
M  V30 7774 H 752.545 -3.54193 1.56926 0
M  V30 7775 H 752.959 -3.63514 3.78098 0
M  V30 7776 H 754.433 -4.87032 2.59815 0
M  V30 7777 H 754.91 -4.27427 1.01009 0
M  V30 7778 H 755.516 -3.46127 2.47135 0
M  V30 7779 N 753.831 -1.1567 -1.07043 0
M  V30 7780 C 755.242 -0.942408 -1.61169 0
M  V30 7781 C 755.593 0.515537 -1.89306 0
M  V30 7782 O 754.718 1.38726 -1.66084 0
M  V30 7783 C 755.313 -1.70431 -2.92812 0
M  V30 7784 C 753.872 -1.53521 -3.43669 0
M  V30 7785 C 753.019 -1.7179 -2.17678 0
M  V30 7786 H 755.97 -1.3065 -0.9009 0
M  V30 7787 H 755.991 -1.17566 -3.61882 0
M  V30 7788 H 755.503 -2.76538 -2.72302 0
M  V30 7789 H 753.604 -0.498224 -3.69254 0
M  V30 7790 H 753.717 -2.31422 -4.19501 0
M  V30 7791 H 752.081 -1.14468 -2.27529 0
M  V30 7792 H 752.864 -2.79269 -1.99659 0
M  V30 7793 N 755.309 1.25446 -0.953992 0
M  V30 7794 C 756.534 1.97755 -0.625129 0
M  V30 7795 C 756.959 1.70437 0.795787 0
M  V30 7796 O 756.317 0.95992 1.53803 0
M  V30 7797 C 756.365 3.49463 -0.889251 0
M  V30 7798 O 755.469 4.12387 0.0322757 0
M  V30 7799 H 754.81 0.61998 -0.237742 0
M  V30 7800 H 757.34 1.59582 -1.28041 0
M  V30 7801 H 757.35 3.99772 -0.815263 0
M  V30 7802 H 756.025 3.68676 -1.92487 0
M  V30 7803 H 754.602 3.72782 -0.0938625 0
M  V30 7804 N 756.787 0.722489 1.40064 0
M  V30 7805 C 758.198 0.336507 1.83642 0
M  V30 7806 C 758.549 -1.13002 1.6039 0
M  V30 7807 O 757.674 -1.87036 1.08842 0
M  V30 7808 C 758.269 0.603985 3.33373 0
M  V30 7809 C 756.828 0.271637 3.75419 0
M  V30 7810 C 755.975 0.872898 2.63203 0
M  V30 7811 H 758.926 0.921108 1.29233 0
M  V30 7812 H 758.947 -0.128471 3.80283 0
M  V30 7813 H 758.459 1.67141 3.50265 0
M  V30 7814 H 756.56 -0.790455 3.64119 0
M  V30 7815 H 756.673 0.745457 4.73265 0
M  V30 7816 H 755.037 0.300431 2.52922 0
M  V30 7817 H 755.82 1.94473 2.82905 0
M  V30 7818 N 758.265 -1.50454 0.469181 0
M  V30 7819 C 759.511 -2.02615 -0.0865971 0
M  V30 7820 C 759.844 -1.35062 -1.39542 0
M  V30 7821 O 759.119 -0.475701 -1.88593 0
M  V30 7822 C 759.402 -3.59068 -0.272385 0
M  V30 7823 C 759.255 -4.37196 1.05733 0
M  V30 7824 C 760.574 -4.2793 -1.0278 0
M  V30 7825 H 757.693 -0.736389 -0.0299977 0
M  V30 7826 H 760.335 -1.79792 0.614399 0
M  V30 7827 H 758.485 -3.78646 -0.869471 0
M  V30 7828 H 760.157 -4.29195 1.69084 0
M  V30 7829 H 758.4 -4.01013 1.65442 0
M  V30 7830 H 759.071 -5.44924 0.880997 0
M  V30 7831 H 761.547 -4.12816 -0.521718 0
M  V30 7832 H 760.423 -5.37214 -1.12659 0
M  V30 7833 H 760.684 -3.90968 -2.0639 0
M  V30 7834 N 759.743 -0.201713 -1.56304 0
M  V30 7835 C 760.989 0.435952 -1.98059 0
M  V30 7836 C 761.322 1.60811 -1.08873 0
M  V30 7837 O 760.597 1.9398 -0.142128 0
M  V30 7838 C 760.88 0.889706 -3.48936 0
M  V30 7839 C 760.733 -0.284725 -4.48898 0
M  V30 7840 C 762.052 1.7529 -4.03685 0
M  V30 7841 H 759.171 0.15699 -0.720085 0
M  V30 7842 H 761.813 -0.293965 -1.87712 0
M  V30 7843 H 759.963 1.51166 -3.57884 0
M  V30 7844 H 761.635 -0.922531 -4.51981 0
M  V30 7845 H 759.878 -0.935427 -4.23594 0
M  V30 7846 H 760.549 0.0753865 -5.51949 0
M  V30 7847 H 763.025 1.2283 -3.97558 0
M  V30 7848 H 761.901 2.03933 -5.0961 0
M  V30 7849 H 762.162 2.70939 -3.49348 0
M  V30 7850 N 761.222 1.57436 0.0718424 0
M  V30 7851 C 762.468 1.87525 0.772149 0
M  V30 7852 C 762.801 0.79399 1.77227 0
M  V30 7853 O 762.076 -0.195733 1.93513 0
M  V30 7854 C 762.359 3.28272 1.48018 0
M  V30 7855 C 762.212 4.47052 0.49647 0
M  V30 7856 C 763.531 3.67256 2.42509 0
M  V30 7857 H 760.65 0.682049 0.279245 0
M  V30 7858 H 763.292 1.89967 0.03534 0
M  V30 7859 H 761.442 3.26321 2.10824 0
M  V30 7860 H 763.114 4.61127 -0.126375 0
M  V30 7861 H 761.357 4.33392 -0.188205 0
M  V30 7862 H 762.028 5.42315 1.02949 0
M  V30 7863 H 764.504 3.70301 1.89781 0
M  V30 7864 H 763.38 4.66626 2.89053 0
M  V30 7865 H 763.641 2.97186 3.27312 0
M  V30 7866 N 762.7 -0.34323 1.53817 0
M  V30 7867 C 763.948 -1.0813 1.70741 0
M  V30 7868 C 764.269 -1.89165 0.473461 0
M  V30 7869 O 763.539 -1.89075 -0.512605 0
M  V30 7870 H 762.119 -0.40219 0.629486 0
M  V30 7871 H 764.781 -0.384426 1.91071 0
M  V30 7872 H 763.877 -1.7585 2.57843 0
M  V30 7873 N 764.178 -1.45556 -0.604258 0
M  V30 7874 C 765.406 -1.53278 -1.38973 0
M  V30 7875 C 765.821 -0.166509 -1.88064 0
M  V30 7876 O 765.178 0.832519 -1.62405 0
M  V30 7877 C 765.229 -2.51992 -2.59195 0
M  V30 7878 O 764.95 -3.8331 -2.12143 0
M  V30 7879 C 766.451 -2.69445 -3.52015 0
M  V30 7880 H 763.671 -0.519003 -0.425297 0
M  V30 7881 H 766.215 -1.90773 -0.736621 0
M  V30 7882 H 764.37 -2.17561 -3.2054 0
M  V30 7883 H 764.784 -4.3685 -2.90279 0
M  V30 7884 H 766.258 -3.42485 -4.32907 0
M  V30 7885 H 766.735 -1.75596 -4.0257 0
M  V30 7886 H 767.341 -3.04886 -2.9652 0
M  V30 7887 N 765.656 0.84705 -1.32902 0
M  V30 7888 C 766.884 1.63403 -1.26913 0
M  V30 7889 C 767.299 1.88108 0.161483 0
M  V30 7890 O 766.656 1.45546 1.10103 0
M  V30 7891 C 766.707 2.98896 -2.03331 0
M  V30 7892 O 766.428 2.75281 -3.40811 0
M  V30 7893 C 767.929 3.93335 -2.04457 0
M  V30 7894 H 765.149 0.508701 -0.437566 0
M  V30 7895 H 767.693 1.05567 -1.75145 0
M  V30 7896 H 765.848 3.53356 -1.58802 0
M  V30 7897 H 766.262 3.61504 -3.8002 0
M  V30 7898 H 767.736 4.85647 -2.62394 0
M  V30 7899 H 768.213 4.26885 -1.03274 0
M  V30 7900 H 768.819 3.44812 -2.48967 0
M  V30 7901 N 767.134 1.16236 1.06428 0
M  V30 7902 C 768.411 0.853294 1.76006 0
M  V30 7903 C 768.791 -0.649162 2.00871 0
M  V30 7904 O 768.139 -1.59653 1.63472 0
M  V30 7905 C 768.349 1.67448 3.06206 0
M  V30 7906 C 769.697 1.8866 3.80385 0
M  V30 7907 O 770.721 1.64303 3.16043 0
M  V30 7908 O 769.58 2.29518 4.95968 0
M  V30 7909 H 766.674 0.314737 0.764767 0
M  V30 7910 H 769.22 1.26865 1.12709 0
M  V30 7911 H 767.992 2.69411 2.83784 0
M  V30 7912 H 767.615 1.25608 3.77238 0
M  V30 7913 N 768.612 -1.24939 0.960631 0
M  V30 7914 C 770.028 -1.45039 0.666018 0
M  V30 7915 C 770.228 -1.86021 -0.774501 0
M  V30 7916 O 769.284 -1.99392 -1.54916 0
M  V30 7917 C 770.597 -2.51775 1.64408 0
M  V30 7918 C 772.145 -2.6561 1.65592 0
M  V30 7919 C 772.62 -3.75536 2.62177 0
M  V30 7920 N 774.111 -3.82954 2.60577 0
M  V30 7921 C 774.846 -4.67517 3.31987 0
M  V30 7922 N 774.342 -5.56321 4.1289 0
M  V30 7923 N 776.135 -4.61535 3.20845 0
M  V30 7924 H 768.286 -0.96632 1.89145 0
M  V30 7925 H 770.549 -0.486034 0.813926 0
M  V30 7926 H 770.255 -2.28534 2.67329 0
M  V30 7927 H 770.129 -3.49804 1.41128 0
M  V30 7928 H 772.516 -2.88212 0.633846 0
M  V30 7929 H 772.597 -1.67962 1.92931 0
M  V30 7930 H 772.241 -3.53684 3.64514 0
M  V30 7931 H 772.171 -4.72682 2.32119 0
M  V30 7932 H 774.662 -3.19478 2.01847 0
M  V30 7933 H 774.975 -6.17787 4.64283 0
M  V30 7934 H 773.32 -5.5601 4.16987 0
M  V30 7935 H 776.511 -3.91169 2.57108 0
M  V30 7936 H 776.684 -5.27214 3.76762 0
M  V30 7937 N 770.09 -0.729906 -1.39679 0
M  V30 7938 C 771.337 -0.275622 -2.00615 0
M  V30 7939 C 771.665 1.13559 -1.57907 0
M  V30 7940 O 770.92 1.78745 -0.796789 0
M  V30 7941 C 771.219 -0.319564 -3.55968 0
M  V30 7942 C 770.885 -1.68308 -4.1831 0
M  V30 7943 C 769.547 -2.05629 -4.35052 0
M  V30 7944 C 771.899 -2.57857 -4.52945 0
M  V30 7945 C 769.227 -3.32018 -4.83716 0
M  V30 7946 C 771.579 -3.83613 -5.03015 0
M  V30 7947 C 770.243 -4.21033 -5.17965 0
M  V30 7948 H 769.513 -0.100857 -0.734104 0
M  V30 7949 H 772.16 -0.93575 -1.67081 0
M  V30 7950 H 770.465 0.42414 -3.89497 0
M  V30 7951 H 772.162 0.0499905 -4.00969 0
M  V30 7952 H 768.752 -1.3829 -4.05677 0
M  V30 7953 H 772.936 -2.30295 -4.39634 0
M  V30 7954 H 768.192 -3.6096 -4.93475 0
M  V30 7955 H 772.366 -4.53162 -5.28788 0
M  V30 7956 H 769.993 -5.19034 -5.55435 0
M  V30 7957 N 771.568 1.50203 -0.477153 0
M  V30 7958 C 772.816 2.01959 0.0755889 0
M  V30 7959 C 773.137 1.3608 1.39668 0
M  V30 7960 O 772.407 0.508136 1.89195 0
M  V30 7961 H 770.987 0.74636 0.0309248 0
M  V30 7962 H 773.649 1.84473 -0.628959 0
M  V30 7963 H 772.745 3.11305 0.222683 0
M  V30 7964 N 773.046 0.209999 1.56195 0
M  V30 7965 C 774.009 -0.691232 2.18528 0
M  V30 7966 C 775.009 -1.13013 1.14388 0
M  V30 7967 O 776.199 -1.04081 1.39688 0
M  V30 7968 C 773.331 -1.94551 2.79934 0
M  V30 7969 H 774.524 -0.147953 2.99535 0
M  V30 7970 H 772.077 -0.0396243 1.5625 0
M  V30 7971 H 772.812 -2.53094 2.02766 0
M  V30 7972 H 772.597 -1.63938 3.56184 0
M  V30 7973 H 774.087 -2.58785 3.2775 0
M  V30 7974 N 774.524 -1.57472 -0.0634922 0
M  V30 7975 C 775.935 -1.76303 -0.614337 0
M  V30 7976 C 776.286 -0.836578 -1.77471 0
M  V30 7977 O 775.411 -0.0227184 -2.16388 0
M  V30 7978 C 776.006 -3.19709 -1.12122 0
M  V30 7979 C 774.565 -3.39856 -1.61786 0
M  V30 7980 C 773.712 -2.71975 -0.540845 0
M  V30 7981 H 776.663 -1.57864 0.162702 0
M  V30 7982 H 776.684 -3.24326 -1.98979 0
M  V30 7983 H 776.196 -3.87114 -0.276472 0
M  V30 7984 H 774.297 -2.77578 -2.48558 0
M  V30 7985 H 774.41 -4.48338 -1.68908 0
M  V30 7986 H 772.774 -2.34763 -0.987854 0
M  V30 7987 H 773.557 -3.4204 0.293856 0
M  V30 7988 N 776.003 0.335068 -1.53997 0
M  V30 7989 C 777.231 1.09418 -1.756 0
M  V30 7990 C 777.646 1.82083 -0.499138 0
M  V30 7991 O 777.003 1.74646 0.529631 0
M  V30 7992 C 777.054 2.10115 -2.94166 0
M  V30 7993 O 776.775 1.40404 -4.14992 0
M  V30 7994 C 778.276 2.98336 -3.27888 0
M  V30 7995 H 775.496 0.32595 -0.586513 0
M  V30 7996 H 778.04 0.384693 -2.00849 0
M  V30 7997 H 776.195 2.76616 -2.71224 0
M  V30 7998 H 776.609 2.07743 -4.81605 0
M  V30 7999 H 778.083 3.6491 -4.1418 0
M  V30 8000 H 778.56 3.64814 -2.44556 0
M  V30 8001 H 779.166 2.37412 -3.52868 0
M  V30 8002 N 777.481 1.45874 0.596531 0
M  V30 8003 C 778.711 1.5379 1.37958 0
M  V30 8004 C 779.119 0.173086 1.88407 0
M  V30 8005 O 778.462 -0.837498 1.63498 0
M  V30 8006 C 778.524 2.47044 2.61169 0
M  V30 8007 C 778.188 3.93565 2.32283 0
M  V30 8008 C 779.185 4.83162 1.91965 0
M  V30 8009 C 776.87 4.38579 2.44854 0
M  V30 8010 C 778.864 6.15782 1.64593 0
M  V30 8011 C 776.551 5.71238 2.17095 0
M  V30 8012 C 777.549 6.59659 1.77028 0
M  V30 8013 O 777.237 7.89857 1.49601 0
M  V30 8014 H 776.969 0.523 0.428307 0
M  V30 8015 H 779.523 1.91855 0.733529 0
M  V30 8016 H 777.753 2.0397 3.28532 0
M  V30 8017 H 779.442 2.4552 3.23226 0
M  V30 8018 H 780.208 4.49646 1.8178 0
M  V30 8019 H 776.087 3.6999 2.75006 0
M  V30 8020 H 779.631 6.84757 1.33245 0
M  V30 8021 H 775.528 6.04306 2.26901 0
M  V30 8022 H 776.296 8.01991 1.63561 0
M  V30 8023 N 778.959 -0.83999 1.33349 0
M  V30 8024 C 780.184 -1.63249 1.27924 0
M  V30 8025 C 780.609 -1.87523 -0.147193 0
M  V30 8026 O 779.967 -1.43853 -1.10345 0
M  V30 8027 C 780.015 -2.96046 2.05886 0
M  V30 8028 O 779.119 -3.87303 1.4167 0
M  V30 8029 H 778.46 -0.49715 0.440157 0
M  V30 8030 H 780.99 -1.04512 1.75893 0
M  V30 8031 H 781 -3.45752 2.16609 0
M  V30 8032 H 779.675 -2.77701 3.09605 0
M  V30 8033 H 778.252 -3.45789 1.39585 0
M  V30 8034 N 780.437 -1.16799 -1.0581 0
M  V30 8035 C 781.683 -0.963929 -1.79109 0
M  V30 8036 C 782.038 0.502569 -1.8572 0
M  V30 8037 O 781.331 1.36813 -1.34137 0
M  V30 8038 C 781.525 -1.53111 -3.22942 0
M  V30 8039 C 781.354 -3.05123 -3.30348 0
M  V30 8040 C 780.124 -3.73804 -3.39998 0
M  V30 8041 C 782.322 -4.02777 -3.19805 0
M  V30 8042 N 780.304 -5.1348 -3.36469 0
M  V30 8043 C 781.675 -5.28866 -3.23576 0
M  V30 8044 C 783.73 -3.94533 -3.03724 0
M  V30 8045 C 782.433 -6.47669 -3.12918 0
M  V30 8046 C 784.459 -5.12913 -2.94405 0
M  V30 8047 C 783.821 -6.37884 -2.98803 0
M  V30 8048 H 779.92 -0.406555 -0.66801 0
M  V30 8049 H 782.504 -1.48277 -1.26183 0
M  V30 8050 H 780.675 -1.03869 -3.74254 0
M  V30 8051 H 782.407 -1.2643 -3.84444 0
M  V30 8052 H 779.162 -3.24457 -3.44999 0
M  V30 8053 H 779.586 -5.86477 -3.38191 0
M  V30 8054 H 784.228 -2.98763 -2.99166 0
M  V30 8055 H 781.946 -7.43656 -3.16231 0
M  V30 8056 H 785.532 -5.08309 -2.83042 0
M  V30 8057 H 784.412 -7.27946 -2.91657 0
M  V30 8058 N 781.915 1.24427 -0.967243 0
M  V30 8059 C 783.163 1.92107 -0.627638 0
M  V30 8060 C 783.484 1.75991 0.83978 0
M  V30 8061 O 782.754 1.13118 1.59941 0
M  V30 8062 H 781.334 0.710986 -0.229145 0
M  V30 8063 H 783.996 1.51331 -1.22821 0
M  V30 8064 H 783.092 2.99791 -0.867844 0
M  V30 8065 N 783.393 0.737304 1.3929 0
M  V30 8066 C 784.303 0.100464 2.34385 0
M  V30 8067 C 785.319 -0.719282 1.58437 0
M  V30 8068 O 786.495 -0.647216 1.90717 0
M  V30 8069 C 783.56 -0.794325 3.37478 0
M  V30 8070 C 782.621 0.0379345 4.29283 0
M  V30 8071 C 781.854 -0.814241 5.27452 0
M  V30 8072 O 782.077 -2.05288 5.32177 0
M  V30 8073 O 781.011 -0.241679 6.01415 0
M  V30 8074 H 784.837 0.885407 2.90507 0
M  V30 8075 H 782.422 0.497999 1.40856 0
M  V30 8076 H 784.304 -1.30622 4.00644 0
M  V30 8077 H 782.979 -1.55804 2.83737 0
M  V30 8078 H 781.886 0.595405 3.69331 0
M  V30 8079 H 783.219 0.763926 4.86236 0
M  V30 8080 N 784.871 -1.49948 0.485112 0
M  V30 8081 C 785.819 -2.30449 -0.315609 0
M  V30 8082 C 786.813 -1.38351 -0.977516 0
M  V30 8083 O 788.019 -1.55477 -0.907019 0
M  V30 8084 H 784.394 -0.742262 -0.120629 0
M  V30 8085 H 786.365 -2.95925 0.383552 0
M  V30 8086 C 785.114 -3.19283 -1.37673 0
M  V30 8087 H 784.437 -3.90067 -0.876801 0
M  V30 8088 H 785.877 -3.78579 -1.90929 0
M  V30 8089 C 784.336 -2.37817 -2.38631 0
M  V30 8090 O 784.866 -2.0711 -3.44192 0
M  V30 8091 N 783.072 -2.00135 -2.107 0
M  V30 8092 H 782.619 -2.25307 -1.24878 0
M  V30 8093 H 782.577 -1.45933 -2.7848 0
M  V30 8094 N 786.349 -0.21828 -1.56081 0
M  V30 8095 C 787.259 0.704602 -2.23769 0
M  V30 8096 C 788.275 1.21633 -1.24425 0
M  V30 8097 O 789.451 1.25862 -1.57228 0
M  V30 8098 C 786.516 1.89725 -2.90182 0
M  V30 8099 C 785.577 1.42782 -4.0486 0
M  V30 8100 C 784.81 2.56361 -4.68097 0
M  V30 8101 O 785.033 3.74417 -4.30312 0
M  V30 8102 O 783.967 2.2775 -5.57148 0
M  V30 8103 H 787.793 0.158007 -3.03289 0
M  V30 8104 H 785.378 0.0120279 -1.49395 0
M  V30 8105 H 787.26 2.59382 -3.32113 0
M  V30 8106 H 785.935 2.432 -2.13624 0
M  V30 8107 H 784.842 0.699359 -3.67505 0
M  V30 8108 H 786.175 0.939474 -4.83151 0
M  V30 8109 N 787.827 1.57504 0.0551401 0
M  V30 8110 C 789.055 1.92294 0.76358 0
M  V30 8111 C 789.47 0.815774 1.70266 0
M  V30 8112 O 788.827 -0.209772 1.8129 0
M  V30 8113 C 788.878 3.26914 1.54302 0
M  V30 8114 O 788.599 4.33375 0.641666 0
M  V30 8115 C 790.1 3.75825 2.35097 0
M  V30 8116 H 787.32 0.635229 0.216159 0
M  V30 8117 H 789.864 2.0449 0.0204385 0
M  V30 8118 H 788.019 3.16196 2.23828 0
M  V30 8119 H 788.433 5.10927 1.1855 0
M  V30 8120 H 789.907 4.72603 2.8522 0
M  V30 8121 H 790.384 3.0568 3.15367 0
M  V30 8122 H 790.99 3.89542 1.70696 0
M  V30 8123 N 789.305 -0.326896 1.54172 0
M  V30 8124 C 790.582 -1.08326 1.62864 0
M  V30 8125 C 790.962 -2.06018 0.46039 0
M  V30 8126 O 790.31 -2.21889 -0.545685 0
M  V30 8127 C 790.52 -1.78816 2.9971 0
M  V30 8128 C 791.868 -2.31958 3.55641 0
M  V30 8129 O 792.892 -1.88888 3.01993 0
M  V30 8130 O 791.751 -3.10801 4.49517 0
M  V30 8131 H 788.845 -0.499131 0.659392 0
M  V30 8132 H 791.391 -0.327054 1.66519 0
M  V30 8133 H 790.163 -1.07739 3.76176 0
M  V30 8134 H 789.786 -2.61255 2.99719 0
M  V30 8135 N 790.784 -1.46188 -0.588786 0
M  V30 8136 C 792.03 -1.51407 -1.34921 0
M  V30 8137 C 792.363 -0.162771 -1.93517 0
M  V30 8138 O 791.638 0.825082 -1.76132 0
M  V30 8139 C 791.921 -2.60795 -2.48311 0
M  V30 8140 C 791.774 -4.05435 -1.94789 0
M  V30 8141 C 793.093 -2.66313 -3.50379 0
M  V30 8142 H 790.212 -0.551213 -0.489217 0
M  V30 8143 H 792.854 -1.78095 -0.661993 0
M  V30 8144 H 791.004 -2.3817 -3.06932 0
M  V30 8145 H 792.676 -4.39328 -1.40672 0
M  V30 8146 H 790.919 -4.15202 -1.25659 0
M  V30 8147 H 791.59 -4.77691 -2.76613 0
M  V30 8148 H 794.066 -2.86634 -3.01629 0
M  V30 8149 H 792.942 -3.44681 -4.27184 0
M  V30 8150 H 793.203 -1.72127 -4.07216 0
M  V30 8151 N 792.262 0.832906 -1.33792 0
M  V30 8152 C 793.192 1.95828 -1.27176 0
M  V30 8153 C 794.173 1.69427 -0.15114 0
M  V30 8154 O 795.358 1.91167 -0.341886 0
M  V30 8155 C 792.488 3.32098 -1.01629 0
M  V30 8156 C 791.442 3.72912 -2.10049 0
M  V30 8157 C 790.768 5.07054 -1.69706 0
M  V30 8158 C 792.068 3.86064 -3.51783 0
M  V30 8159 H 793.762 2.01622 -2.21334 0
M  V30 8160 H 791.308 0.96866 -1.0655 0
M  V30 8161 H 793.261 4.10402 -0.956474 0
M  V30 8162 H 791.985 3.26577 -0.0390956 0
M  V30 8163 H 790.644 2.96876 -2.15082 0
M  V30 8164 H 790.292 4.9801 -0.706737 0
M  V30 8165 H 789.992 5.35333 -2.42264 0
M  V30 8166 H 791.516 5.87827 -1.65202 0
M  V30 8167 H 792.93 4.54665 -3.49218 0
M  V30 8168 H 791.327 4.25787 -4.22878 0
M  V30 8169 H 792.397 2.88344 -3.89854 0
M  V30 8170 N 793.74 1.17359 1.05189 0
M  V30 8171 C 794.67 0.91365 2.14883 0
M  V30 8172 C 795.651 -0.144365 1.69486 0
M  V30 8173 O 796.836 0.00587861 1.94199 0
M  V30 8174 C 793.966 0.426196 3.44675 0
M  V30 8175 C 792.92 1.4234 4.03638 0
M  V30 8176 C 792.246 0.793902 5.28773 0
M  V30 8177 C 793.546 2.7966 4.41121 0
M  V30 8178 H 795.24 1.831 2.36885 0
M  V30 8179 H 792.786 0.881781 1.13845 0
M  V30 8180 H 794.739 0.231767 4.20762 0
M  V30 8181 H 793.463 -0.526693 3.22325 0
M  V30 8182 H 792.122 1.60457 3.2962 0
M  V30 8183 H 791.77 -0.165824 5.02727 0
M  V30 8184 H 791.47 1.45959 5.69183 0
M  V30 8185 H 792.994 0.609747 6.07548 0
M  V30 8186 H 794.408 2.6526 5.08242 0
M  V30 8187 H 792.805 3.42807 4.92548 0
M  V30 8188 H 793.875 3.34068 3.51464 0
M  V30 8189 N 795.218 -1.23913 0.973828 0
M  V30 8190 C 796.148 -2.27453 0.527969 0
M  V30 8191 C 797.129 -1.6443 -0.435513 0
M  V30 8192 O 798.314 -1.9137 -0.330306 0
M  V30 8193 C 795.444 -3.4685 -0.176757 0
M  V30 8194 C 794.398 -4.22181 0.703352 0
M  V30 8195 C 793.724 -5.34534 -0.133215 0
M  V30 8196 C 795.024 -4.82865 1.99096 0
M  V30 8197 H 796.718 -2.65 1.3934 0
M  V30 8198 H 794.264 -1.27388 0.671446 0
M  V30 8199 H 796.217 -4.18424 -0.499934 0
M  V30 8200 H 794.941 -3.08346 -1.07659 0
M  V30 8201 H 793.6 -3.52416 1.00989 0
M  V30 8202 H 793.248 -4.92271 -1.03338 0
M  V30 8203 H 792.948 -5.85855 0.452494 0
M  V30 8204 H 794.472 -6.08933 -0.450924 0
M  V30 8205 H 795.886 -5.46481 1.73297 0
M  V30 8206 H 794.283 -5.44444 2.52389 0
M  V30 8207 H 795.353 -4.03977 2.68199 0
M  V30 8208 N 796.696 -0.74468 -1.38897 0
M  V30 8209 C 797.921 -0.306119 -2.05128 0
M  V30 8210 C 798.346 1.0541 -1.55789 0
M  V30 8211 O 797.704 1.66993 -0.705909 0
M  V30 8212 C 797.752 -0.328195 -3.59103 0
M  V30 8213 O 796.856 0.680876 -4.06741 0
M  V30 8214 H 796.197 -0.137209 -0.649669 0
M  V30 8215 H 798.727 -1.01331 -1.77745 0
M  V30 8216 H 798.737 -0.175956 -4.0762 0
M  V30 8217 H 797.412 -1.32067 -3.94374 0
M  V30 8218 H 795.989 0.49398 -3.69614 0
M  V30 8219 N 798.174 1.49689 -0.493057 0
M  V30 8220 C 799.122 2.30613 0.303383 0
M  V30 8221 C 800.116 1.38867 0.970165 0
M  V30 8222 O 801.322 1.55956 0.898761 0
M  V30 8223 H 797.697 0.742891 0.116691 0
M  V30 8224 H 799.668 2.95717 -0.39924 0
M  V30 8225 C 798.417 3.20008 1.35978 0
M  V30 8226 H 797.74 3.90526 0.856103 0
M  V30 8227 H 799.18 3.79586 1.88919 0
M  V30 8228 C 797.639 2.39079 2.37367 0
M  V30 8229 O 798.169 2.08933 3.43089 0
M  V30 8230 N 796.375 2.0125 2.09635 0
M  V30 8231 H 795.922 2.25966 1.23682 0
M  V30 8232 H 795.88 1.47408 2.77702 0
M  V30 8233 N 799.652 0.226554 1.55963 0
M  V30 8234 C 800.88 -0.408507 2.02827 0
M  V30 8235 C 801.295 -1.52994 1.10627 0
M  V30 8236 O 800.652 -1.82126 0.116809 0
M  V30 8237 C 800.703 -0.93545 3.49187 0
M  V30 8238 O 800.424 0.141273 4.37872 0
M  V30 8239 C 801.925 -1.64325 4.11719 0
M  V30 8240 H 799.145 -0.099442 0.66359 0
M  V30 8241 H 801.689 0.344471 2.01578 0
M  V30 8242 H 799.844 -1.63868 3.51036 0
M  V30 8243 H 800.258 -0.25558 5.23877 0
M  V30 8244 H 801.732 -1.9639 5.15883 0
M  V30 8245 H 802.209 -2.55815 3.57009 0
M  V30 8246 H 802.815 -0.9851 4.13734 0
M  V30 8247 N 801.13 -1.57531 -0.0467866 0
M  V30 8248 C 802.546 -1.54451 -0.402107 0
M  V30 8249 C 802.746 -0.950275 -1.77685 0
M  V30 8250 O 801.802 -0.563602 -2.4613 0
M  V30 8251 C 803.115 -2.9899 -0.320212 0
M  V30 8252 C 804.663 -3.10452 -0.398588 0
M  V30 8253 C 805.138 -4.56689 -0.346335 0
M  V30 8254 N 806.629 -4.6142 -0.405666 0
M  V30 8255 C 807.364 -5.72087 -0.387845 0
M  V30 8256 N 806.86 -6.92045 -0.32336 0
M  V30 8257 N 808.653 -5.60404 -0.436263 0
M  V30 8258 H 800.804 -1.94515 0.853087 0
M  V30 8259 H 803.067 -0.891397 0.322669 0
M  V30 8260 H 802.773 -3.46124 0.623794 0
M  V30 8261 H 802.647 -3.60164 -1.1208 0
M  V30 8262 H 805.034 -2.63276 -1.33302 0
M  V30 8263 H 805.115 -2.52142 0.431026 0
M  V30 8264 H 804.759 -5.04527 0.584356 0
M  V30 8265 H 804.689 -5.12889 -1.19382 0
M  V30 8266 H 807.18 -3.75105 -0.458737 0
M  V30 8267 H 807.493 -7.7216 -0.314375 0
M  V30 8268 H 805.838 -6.94396 -0.28967 0
M  V30 8269 H 809.029 -4.65586 -0.48451 0
M  V30 8270 H 809.202 -6.46645 -0.418907 0
M  V30 8271 N 802.608 0.318715 -1.54344 0
M  V30 8272 C 804.019 0.89285 -1.63967 0
M  V30 8273 C 804.37 1.88712 -0.536855 0
M  V30 8274 O 803.495 2.13877 0.329457 0
M  V30 8275 C 804.09 1.62618 -2.97222 0
M  V30 8276 C 802.649 2.14897 -3.09025 0
M  V30 8277 C 801.796 0.975909 -2.5956 0
M  V30 8278 H 804.747 0.0961687 -1.58408 0
M  V30 8279 H 804.768 2.4907 -2.87653 0
M  V30 8280 H 804.28 0.902286 -3.77466 0
M  V30 8281 H 802.381 2.90387 -2.33465 0
M  V30 8282 H 802.494 2.39565 -4.14904 0
M  V30 8283 H 800.858 1.35646 -2.15574 0
M  V30 8284 H 801.641 0.266253 -3.42266 0
M  V30 8285 N 804.086 1.46499 0.581025 0
M  V30 8286 C 805.497 1.4604 1.16315 0
M  V30 8287 C 805.848 0.202154 1.95156 0
M  V30 8288 O 804.973 -0.694638 2.04948 0
M  V30 8289 C 805.568 2.64593 2.11604 0
M  V30 8290 C 804.127 2.6717 2.65136 0
M  V30 8291 C 803.274 2.38753 1.4104 0
M  V30 8292 H 806.225 1.54354 0.368871 0
M  V30 8293 H 806.246 2.40207 2.95095 0
M  V30 8294 H 805.758 3.56154 1.54194 0
M  V30 8295 H 803.859 1.79685 3.26411 0
M  V30 8296 H 803.972 3.67182 3.07757 0
M  V30 8297 H 802.336 1.88845 1.70908 0
M  V30 8298 H 803.119 3.32493 0.854588 0
M  V30 8299 N 805.565 -0.825799 1.34232 0
M  V30 8300 C 806.497 -1.94401 1.21413 0
M  V30 8301 C 807.51 -1.6218 0.141902 0
M  V30 8302 O 808.699 -1.74109 0.3935 0
M  V30 8303 C 805.799 -3.28257 0.842635 0
M  V30 8304 C 804.972 -3.88521 2.00924 0
M  V30 8305 C 804.031 -5.00752 1.61661 0
M  V30 8306 O 803.057 -5.19201 2.33279 0
M  V30 8307 N 804.259 -5.78084 0.52911 0
M  V30 8308 H 807.024 -2.05931 2.17744 0
M  V30 8309 H 804.585 -1.00223 1.27149 0
M  V30 8310 H 806.577 -4.00781 0.561822 0
M  V30 8311 H 805.147 -3.12585 -0.0304029 0
M  V30 8312 H 804.367 -3.08425 2.45495 0
M  V30 8313 H 805.655 -4.25516 2.78951 0
M  V30 8314 H 805.053 -5.65661 -0.0663322 0
M  V30 8315 H 803.61 -6.51072 0.308017 0
M  V30 8316 N 807.043 -1.17915 -1.04565 0
M  V30 8317 C 808.291 -0.969505 -1.77327 0
M  V30 8318 C 808.612 0.502569 -1.88412 0
M  V30 8319 O 807.882 1.36467 -1.40547 0
M  V30 8320 H 806.462 -0.355723 -0.656864 0
M  V30 8321 H 809.124 -1.48506 -1.26223 0
M  V30 8322 H 808.22 -1.40324 -2.78775 0
M  V30 8323 N 808.521 1.23394 -0.980386 0
M  V30 8324 C 809.469 2.26872 -0.513018 0
M  V30 8325 C 810.463 1.63853 0.429948 0
M  V30 8326 O 811.669 1.77417 0.303842 0
M  V30 8327 H 808.044 0.737398 -0.147473 0
M  V30 8328 H 810.015 2.63654 -1.39746 0
M  V30 8329 C 808.764 3.47289 0.168962 0
M  V30 8330 H 808.087 3.96033 -0.547546 0
M  V30 8331 H 809.527 4.21502 0.459616 0
M  V30 8332 C 807.986 3.06425 1.40019 0
M  V30 8333 O 808.516 3.14708 2.49643 0
M  V30 8334 N 806.722 2.61339 1.27084 0
M  V30 8335 H 806.269 2.54799 0.378872 0
M  V30 8336 H 806.227 2.34364 2.09573 0
M  V30 8337 N 809.999 0.752036 1.385 0
M  V30 8338 C 811.245 0.316909 2.00916 0
M  V30 8339 C 811.6 -1.08884 1.58625 0
M  V30 8340 O 810.893 -1.73494 0.813047 0
M  V30 8341 C 811.087 0.376155 3.55415 0
M  V30 8342 C 810.916 1.78612 4.12708 0
M  V30 8343 C 809.686 2.4023 4.44542 0
M  V30 8344 C 811.884 2.74253 4.35075 0
M  V30 8345 N 809.866 3.73204 4.87434 0
M  V30 8346 C 811.237 3.9199 4.80358 0
M  V30 8347 C 813.292 2.71795 4.17171 0
M  V30 8348 C 811.995 5.07627 5.09615 0
M  V30 8349 C 814.021 3.86589 4.47552 0
M  V30 8350 C 813.383 5.03064 4.93058 0
M  V30 8351 H 809.482 0.16259 0.764911 0
M  V30 8352 H 812.066 0.981657 1.68142 0
M  V30 8353 H 810.237 -0.258317 3.8754 0
M  V30 8354 H 811.969 -0.0791421 4.04623 0
M  V30 8355 H 808.724 1.92009 4.32931 0
M  V30 8356 H 809.148 4.41519 5.13215 0
M  V30 8357 H 813.79 1.82929 3.81178 0
M  V30 8358 H 811.508 5.97109 5.44506 0
M  V30 8359 H 815.094 3.86005 4.35306 0
M  V30 8360 H 813.974 5.90417 5.16118 0
M  V30 8361 N 811.477 -1.49425 0.500989 0
M  V30 8362 C 812.724 -2.02453 -0.0435355 0
M  V30 8363 C 813.052 -1.38067 -1.36995 0
M  V30 8364 O 812.307 -0.505557 -1.89057 0
M  V30 8365 C 812.606 -3.56562 -0.24463 0
M  V30 8366 C 812.272 -4.39585 1.00379 0
M  V30 8367 C 810.934 -4.61992 1.346 0
M  V30 8368 C 813.286 -4.87881 1.83361 0
M  V30 8369 C 810.614 -5.2994 2.51755 0
M  V30 8370 C 812.966 -5.57119 2.99669 0
M  V30 8371 C 811.63 -5.77771 3.3427 0
M  V30 8372 H 810.9 -0.740829 -0.0159308 0
M  V30 8373 H 813.547 -1.79725 0.661143 0
M  V30 8374 H 811.852 -3.77969 -1.03183 0
M  V30 8375 H 813.549 -3.95185 -0.6804 0
M  V30 8376 H 810.139 -4.22385 0.727225 0
M  V30 8377 H 814.323 -4.70398 1.58237 0
M  V30 8378 H 809.579 -5.44133 2.788 0
M  V30 8379 H 813.753 -5.93516 3.64296 0
M  V30 8380 H 811.38 -6.30197 4.25154 0
M  V30 8381 N 812.955 -0.234822 -1.55841 0
M  V30 8382 C 814.203 0.392483 -1.98252 0
M  V30 8383 C 814.524 1.59344 -1.12404 0
M  V30 8384 O 813.794 1.94834 -0.204055 0
M  V30 8385 H 812.374 0.147999 -0.732192 0
M  V30 8386 H 815.036 -0.330804 -1.92072 0
M  V30 8387 H 814.132 0.709829 -3.03921 0
M  V30 8388 N 814.433 1.57553 0.0384317 0
M  V30 8389 C 815.673 1.90687 0.736069 0
M  V30 8390 C 816.037 0.832381 1.73019 0
M  V30 8391 O 817.238 1.04777 2.47538 0
M  V30 8392 C 815.509 3.28994 1.39635 0
M  V30 8393 S 817.068 3.83944 2.12444 0
M  V30 8394 H 813.886 0.667799 0.244059 0
M  V30 8395 H 816.488 1.95498 -0.00901643 0
M  V30 8396 H 815.192 4.05067 0.659465 0
M  V30 8397 H 814.723 3.27463 2.18018 0
M  V30 8398 H 816.738 3.61916 3.39457 0
M  V30 8399 N 815.911 -0.310526 1.54511 0
M  V30 8400 C 817.139 -1.06611 1.77318 0
M  V30 8401 C 817.554 -1.81265 0.528043 0
M  V30 8402 O 816.911 -1.75466 -0.50178 0
M  V30 8403 C 816.962 -2.05409 2.97472 0
M  V30 8404 O 816.683 -1.33785 4.17173 0
M  V30 8405 C 818.184 -2.93082 3.32593 0
M  V30 8406 H 815.404 -0.316578 0.591624 0
M  V30 8407 H 817.948 -0.352691 2.01436 0
M  V30 8408 H 816.103 -2.72266 2.7559 0
M  V30 8409 H 816.517 -2.00055 4.84849 0
M  V30 8410 H 817.991 -3.58274 4.19933 0
M  V30 8411 H 818.468 -3.60877 2.50329 0
M  V30 8412 H 819.074 -2.31768 3.566 0
M  V30 8413 N 817.389 -1.46805 -0.573248 0
M  V30 8414 C 818.635 -1.53816 -1.33088 0
M  V30 8415 C 818.99 -0.191162 -1.91448 0
M  V30 8416 O 818.283 0.801299 -1.7404 0
M  V30 8417 C 818.477 -2.58001 -2.47326 0
M  V30 8418 C 818.306 -4.027 -2.00157 0
M  V30 8419 C 817.076 -4.70319 -1.84737 0
M  V30 8420 C 819.274 -4.90211 -1.55557 0
M  V30 8421 N 817.256 -5.99598 -1.31739 0
M  V30 8422 C 818.627 -6.09389 -1.14215 0
M  V30 8423 C 820.682 -4.76784 -1.43461 0
M  V30 8424 C 819.385 -7.16625 -0.619809 0
M  V30 8425 C 821.411 -5.84101 -0.926297 0
M  V30 8426 C 820.773 -7.02458 -0.522715 0
M  V30 8427 H 816.872 -0.617642 -0.479627 0
M  V30 8428 H 819.456 -1.83471 -0.65164 0
M  V30 8429 H 817.627 -2.3024 -3.128 0
M  V30 8430 H 819.359 -2.54951 -3.14296 0
M  V30 8431 H 816.114 -4.25982 -2.06969 0
M  V30 8432 H 816.538 -6.68431 -1.07374 0
M  V30 8433 H 821.18 -3.85661 -1.73279 0
M  V30 8434 H 818.898 -8.07508 -0.309228 0
M  V30 8435 H 822.484 -5.75755 -0.836485 0
M  V30 8436 H 821.364 -7.84083 -0.135467 0
M  V30 8437 N 818.867 0.818669 -1.34668 0
M  V30 8438 C 819.8 1.93516 -1.20941 0
M  V30 8439 C 820.778 1.62292 -0.100061 0
M  V30 8440 O 821.962 1.86614 -0.265983 0
M  V30 8441 C 819.089 3.27612 -0.859524 0
M  V30 8442 C 818.135 3.77794 -1.97923 0
M  V30 8443 S 818.968 3.97043 -3.59329 0
M  V30 8444 C 820.124 5.3406 -3.2639 0
M  V30 8445 H 820.357 2.04864 -2.15449 0
M  V30 8446 H 817.89 0.974716 -1.19744 0
M  V30 8447 H 819.848 4.05087 -0.664444 0
M  V30 8448 H 818.509 3.14028 0.0672835 0
M  V30 8449 H 817.702 4.74883 -1.68827 0
M  V30 8450 H 817.304 3.0728 -2.13202 0
M  V30 8451 H 819.596 6.17626 -2.78469 0
M  V30 8452 H 820.539 5.68143 -4.22634 0
M  V30 8453 H 820.947 4.99773 -2.62464 0
M  V30 8454 N 820.346 1.18468 1.03938 0
M  V30 8455 C 821.294 0.909286 2.14091 0
M  V30 8456 C 822.288 -0.130928 1.68893 0
M  V30 8457 O 823.494 0.0173403 1.79992 0
M  V30 8458 H 819.869 0.27658 0.699291 0
M  V30 8459 H 821.84 1.84514 2.34515 0
M  V30 8460 C 820.589 0.452922 3.44737 0
M  V30 8461 H 819.912 1.24485 3.79926 0
M  V30 8462 H 821.352 0.299238 4.22943 0
M  V30 8463 C 819.811 -0.831435 3.26479 0
M  V30 8464 O 820.341 -1.89535 3.54174 0
M  V30 8465 N 818.547 -0.784545 2.79809 0
M  V30 8466 H 818.094 0.0814746 2.57471 0
M  V30 8467 H 818.052 -1.64431 2.67973 0
M  V30 8468 N 821.824 -1.22873 0.986916 0
M  V30 8469 C 823.049 -1.96028 0.677341 0
M  V30 8470 C 823.474 -1.72487 -0.750319 0
M  V30 8471 O 822.832 -1.00036 -1.51203 0
M  V30 8472 C 822.88 -3.46983 0.981593 0
M  V30 8473 O 821.984 -4.12328 0.0770729 0
M  V30 8474 H 821.325 -0.613458 0.254096 0
M  V30 8475 H 823.855 -1.56132 1.32227 0
M  V30 8476 H 823.865 -3.9747 0.920969 0
M  V30 8477 H 822.54 -3.63442 2.02194 0
M  V30 8478 H 821.117 -3.72402 0.192666 0
M  V30 8479 N 823.302 -0.75937 -1.38099 0
M  V30 8480 C 824.53 -0.329111 -2.04266 0
M  V30 8481 C 824.945 1.04453 -1.57274 0
M  V30 8482 O 824.302 1.66449 -0.748397 0
M  V30 8483 C 824.353 -0.349192 -3.5981 0
M  V30 8484 O 824.074 -1.66863 -4.05078 0
M  V30 8485 C 825.575 0.0942106 -4.432 0
M  V30 8486 H 822.795 -0.13971 -0.656294 0
M  V30 8487 H 825.339 -1.02984 -1.76677 0
M  V30 8488 H 823.494 0.302846 -3.86214 0
M  V30 8489 H 823.908 -1.59877 -4.9954 0
M  V30 8490 H 825.382 0.0290004 -5.51992 0
M  V30 8491 H 825.859 1.1429 -4.24069 0
M  V30 8492 H 826.465 -0.529171 -4.21995 0
M  V30 8493 N 824.78 1.49157 -0.508906 0
M  V30 8494 C 826.028 2.02073 0.0327335 0
M  V30 8495 C 826.349 1.39012 1.3675 0
M  V30 8496 O 825.619 0.548153 1.88075 0
M  V30 8497 H 824.199 0.746848 0.0150864 0
M  V30 8498 H 826.861 1.83097 -0.667946 0
M  V30 8499 H 825.957 3.11707 0.1566 0
M  V30 8500 N 826.258 0.243083 1.55714 0
M  V30 8501 C 827.505 -0.38272 1.9885 0
M  V30 8502 C 827.833 -1.58225 1.13115 0
M  V30 8503 O 827.088 -1.94861 0.181067 0
M  V30 8504 C 827.387 -0.839621 3.47398 0
M  V30 8505 C 827.053 0.251737 4.50197 0
M  V30 8506 C 825.715 0.551487 4.78029 0
M  V30 8507 C 828.067 0.988728 5.11736 0
M  V30 8508 C 825.395 1.59237 5.64677 0
M  V30 8509 C 827.747 2.0191 5.99512 0
M  V30 8510 C 826.411 2.32554 6.2568 0
M  V30 8511 H 825.681 -0.140047 0.727645 0
M  V30 8512 H 828.328 0.35011 1.88272 0
M  V30 8513 H 826.633 -1.65159 3.55288 0
M  V30 8514 H 828.33 -1.33404 3.78159 0
M  V30 8515 H 824.92 0.00796741 4.28599 0
M  V30 8516 H 829.104 0.7704 4.90284 0
M  V30 8517 H 824.36 1.83517 5.83208 0
M  V30 8518 H 828.534 2.59511 6.46241 0
M  V30 8519 H 826.161 3.13349 6.92616 0
M  V30 8520 N 827.736 -1.57571 -0.0300757 0
M  V30 8521 C 828.964 -1.93485 -0.732891 0
M  V30 8522 C 829.379 -0.842758 -1.68947 0
M  V30 8523 O 828.736 0.180904 -1.81601 0
M  V30 8524 C 828.787 -3.29328 -1.49082 0
M  V30 8525 O 828.508 -4.34341 -0.572639 0
M  V30 8526 C 830.009 -3.79517 -2.29088 0
M  V30 8527 H 827.229 -0.638588 -0.206026 0
M  V30 8528 H 829.773 -2.04496 0.0120966 0
M  V30 8529 H 827.928 -3.19716 -2.1877 0
M  V30 8530 H 828.342 -5.12748 -1.10406 0
M  V30 8531 H 829.816 -4.77081 -2.77665 0
M  V30 8532 H 830.293 -3.10659 -3.10464 0
M  V30 8533 H 830.899 -3.92208 -1.64477 0
M  V30 8534 N 829.214 0.302327 -1.54673 0
M  V30 8535 C 830.161 1.37282 -1.85532 0
M  V30 8536 C 831.131 1.50437 -0.704129 0
M  V30 8537 O 832.316 1.65317 -0.952627 0
M  V30 8538 C 829.456 2.73309 -2.10704 0
M  V30 8539 C 828.569 2.68614 -3.38335 0
M  V30 8540 C 827.704 3.96626 -3.53357 0
M  V30 8541 C 826.743 3.86324 -4.74784 0
M  V30 8542 N 825.88 5.06109 -4.86619 0
M  V30 8543 H 830.72 1.10265 -2.76849 0
M  V30 8544 H 828.257 0.533346 -1.37091 0
M  V30 8545 H 830.215 3.52414 -2.23294 0
M  V30 8546 H 828.845 2.98589 -1.22656 0
M  V30 8547 H 827.897 1.81381 -3.34373 0
M  V30 8548 H 829.209 2.56891 -4.27561 0
M  V30 8549 H 828.363 4.84168 -3.65604 0
M  V30 8550 H 827.102 4.11182 -2.62261 0
M  V30 8551 H 826.107 2.97166 -4.62572 0
M  V30 8552 H 827.332 3.73315 -5.67286 0
M  V30 8553 H 825.278 5.2113 -3.98446 0
M  V30 8554 H 825.195 4.96804 -5.69844 0
M  V30 8555 H 826.463 5.95306 -5.03221 0
M  V30 8556 N 830.692 1.47107 0.565454 0
M  V30 8557 C 831.92 1.56909 1.3486 0
M  V30 8558 C 832.335 0.216312 1.87557 0
M  V30 8559 O 831.692 -0.789168 1.64555 0
M  V30 8560 C 831.743 2.58776 2.52423 0
M  V30 8561 O 831.464 3.888 2.01906 0
M  V30 8562 C 832.965 2.78683 3.44747 0
M  V30 8563 H 830.185 0.530096 0.411387 0
M  V30 8564 H 832.729 1.92658 0.685782 0
M  V30 8565 H 830.884 2.25983 3.1466 0
M  V30 8566 H 831.298 4.44393 2.78595 0
M  V30 8567 H 832.772 3.53842 4.23674 0
M  V30 8568 H 833.249 1.86208 3.97773 0
M  V30 8569 H 833.855 3.12641 2.88333 0
M  V30 8570 N 832.17 -0.811516 1.35101 0
M  V30 8571 C 833.41 -1.58177 1.29458 0
M  V30 8572 C 833.774 -1.91555 -0.130688 0
M  V30 8573 O 834.975 -2.6699 -0.311428 0
M  V30 8574 C 833.246 -2.83896 2.17112 0
M  V30 8575 S 834.805 -3.74344 2.28936 0
M  V30 8576 H 831.623 -0.542021 0.460146 0
M  V30 8577 H 834.225 -0.957653 1.70438 0
M  V30 8578 H 832.929 -2.57391 3.19653 0
M  V30 8579 H 832.46 -3.51297 1.7707 0
M  V30 8580 H 834.475 -4.73909 1.47054 0
M  V30 8581 N 833.648 -1.19017 -1.03309 0
M  V30 8582 C 834.896 -0.988258 -1.76289 0
M  V30 8583 C 835.217 0.482557 -1.88935 0
M  V30 8584 O 834.487 1.34969 -1.41987 0
M  V30 8585 H 833.067 -0.36267 -0.653054 0
M  V30 8586 H 835.729 -1.49836 -1.2464 0
M  V30 8587 H 834.825 -1.43273 -2.77271 0
M  V30 8588 N 835.127 1.22348 -0.993418 0
M  V30 8589 C 836.375 1.90733 -0.668246 0
M  V30 8590 C 836.696 1.77732 0.802261 0
M  V30 8591 O 835.966 1.16486 1.57505 0
M  V30 8592 H 834.546 0.705966 -0.244174 0
M  V30 8593 H 837.208 1.48691 -1.26004 0
M  V30 8594 H 836.304 2.97883 -0.931239 0
M  V30 8595 N 836.605 0.766683 1.37694 0
M  V30 8596 C 838.016 0.394761 1.82479 0
M  V30 8597 C 838.367 -1.07842 1.63904 0
M  V30 8598 O 837.492 -1.83479 1.14737 0
M  V30 8599 C 838.087 0.70974 3.31283 0
M  V30 8600 C 836.646 0.390936 3.74364 0
M  V30 8601 C 835.793 0.956192 2.60293 0
M  V30 8602 H 838.744 0.961756 1.26238 0
M  V30 8603 H 838.765 -0.00742144 3.80499 0
M  V30 8604 H 838.277 1.782 3.4477 0
M  V30 8605 H 836.378 -0.674213 3.66449 0
M  V30 8606 H 836.491 0.895645 4.70654 0
M  V30 8607 H 834.855 0.380744 2.51838 0
M  V30 8608 H 835.638 2.03375 2.76575 0
M  V30 8609 N 838.083 -1.48885 0.516809 0
M  V30 8610 C 839.494 -1.86557 0.0729921 0
M  V30 8611 C 839.845 -1.42767 -1.34581 0
M  V30 8612 O 838.97 -0.812514 -2.00567 0
M  V30 8613 C 839.565 -3.38567 0.125686 0
M  V30 8614 C 838.124 -3.75481 -0.262867 0
M  V30 8615 C 837.271 -2.72913 0.491281 0
M  V30 8616 H 840.222 -1.40978 0.728767 0
M  V30 8617 H 840.243 -3.74629 -0.665831 0
M  V30 8618 H 839.755 -3.70408 1.15842 0
M  V30 8619 H 837.856 -3.49251 -1.29824 0
M  V30 8620 H 837.969 -4.79052 0.067579 0
M  V30 8621 H 836.333 -2.54627 -0.0608525 0
M  V30 8622 H 837.116 -3.07599 1.5244 0
M  V30 8623 N 839.561 -0.251338 -1.55583 0
M  V30 8624 C 840.801 0.373651 -2.00956 0
M  V30 8625 C 841.165 1.54806 -1.13574 0
M  V30 8626 O 842.366 2.24108 -1.48422 0
M  V30 8627 C 840.637 0.768919 -3.49031 0
M  V30 8628 S 842.196 1.38381 -4.16409 0
M  V30 8629 H 839.014 0.117371 -0.701245 0
M  V30 8630 H 841.616 -0.367611 -1.92013 0
M  V30 8631 H 840.32 -0.0950492 -4.1029 0
M  V30 8632 H 839.851 1.54225 -3.61909 0
M  V30 8633 H 841.866 2.6728 -4.18062 0
M  V30 8634 N 841.039 1.57585 0.0217189 0
M  V30 8635 C 841.987 2.08134 1.03842 0
M  V30 8636 C 842.981 0.996662 1.36978 0
M  V30 8637 O 844.187 1.18149 1.35797 0
M  V30 8638 H 840.562 0.664298 0.352438 0
M  V30 8639 H 842.533 2.92583 0.58634 0
M  V30 8640 C 841.282 2.58218 2.32849 0
M  V30 8641 H 840.605 3.41302 2.08214 0
M  V30 8642 H 842.045 2.97289 3.02316 0
M  V30 8643 C 840.504 1.48664 3.02325 0
M  V30 8644 O 841.034 0.857075 3.9245 0
M  V30 8645 N 839.24 1.21938 2.63779 0
M  V30 8646 H 838.787 1.73319 1.90574 0
M  V30 8647 H 838.745 0.488523 3.10581 0
M  V30 8648 N 842.517 -0.29412 1.54831 0
M  V30 8649 C 843.766 -1.02614 1.73647 0
M  V30 8650 C 844.079 -1.88193 0.533162 0
M  V30 8651 O 845.285 -2.64713 0.603275 0
M  V30 8652 C 843.741 -1.87417 3.07251 0
M  V30 8653 C 843.349 -1.06806 4.35082 0
M  V30 8654 C 845.093 -2.60176 3.35423 0
M  V30 8655 C 843 -1.90926 5.59733 0
M  V30 8656 H 841.93 -0.386834 0.647206 0
M  V30 8657 H 844.581 -0.282789 1.81308 0
M  V30 8658 H 842.963 -2.65765 2.93572 0
M  V30 8659 H 844.137 -0.330226 4.59615 0
M  V30 8660 H 842.452 -0.455979 4.13896 0
M  V30 8661 H 845.049 -3.23476 4.25755 0
M  V30 8662 H 845.392 -3.29365 2.54606 0
M  V30 8663 H 845.925 -1.88871 3.50103 0
M  V30 8664 H 842.664 -1.26194 6.43238 0
M  V30 8665 H 842.184 -2.62363 5.39375 0
M  V30 8666 H 843.863 -2.48807 5.97247 0
M  V30 8667 N 843.995 -1.47404 -0.557645 0
M  V30 8668 C 845.243 -1.53703 -1.31224 0
M  V30 8669 C 845.564 -0.200742 -1.93964 0
M  V30 8670 O 844.834 0.775253 -1.79907 0
M  V30 8671 H 843.414 -0.566171 -0.487299 0
M  V30 8672 H 846.076 -1.83699 -0.651195 0
M  V30 8673 H 845.172 -2.30335 -2.10599 0
M  V30 8674 N 845.473 0.80434 -1.35529 0
M  V30 8675 C 846.721 1.55845 -1.28673 0
M  V30 8676 C 847.042 1.94511 0.137976 0
M  V30 8677 O 846.312 1.63775 1.07492 0
M  V30 8678 H 844.892 0.577931 -0.473291 0
M  V30 8679 H 847.554 0.959293 -1.69657 0
M  V30 8680 H 846.65 2.47285 -1.90411 0
M  V30 8681 N 846.951 1.19563 1.02676 0
M  V30 8682 C 848.197 1.00105 1.76371 0
M  V30 8683 C 848.53 -0.466823 1.88506 0
M  V30 8684 O 847.805 -1.34665 1.40341 0
M  V30 8685 C 848.088 1.67321 3.18866 0
M  V30 8686 C 847.941 3.21486 3.1459 0
M  V30 8687 C 849.26 1.39794 4.17308 0
M  V30 8688 H 846.379 0.365075 0.640226 0
M  V30 8689 H 849.021 1.47433 1.19848 0
M  V30 8690 H 847.171 1.27081 3.67128 0
M  V30 8691 H 848.843 3.70953 2.7421 0
M  V30 8692 H 847.086 3.5292 2.52249 0
M  V30 8693 H 847.757 3.63665 4.15273 0
M  V30 8694 H 850.233 1.74685 3.77657 0
M  V30 8695 H 849.109 1.89371 5.15199 0
M  V30 8696 H 849.37 0.323505 4.40915 0
M  V30 8697 N 848.429 -1.21819 0.999893 0
M  V30 8698 C 849.677 -1.90375 0.678351 0
M  V30 8699 C 849.998 -1.78155 -0.792824 0
M  V30 8700 O 849.268 -1.17319 -1.56885 0
M  V30 8701 H 847.848 -0.704661 0.247915 0
M  V30 8702 H 850.51 -1.48021 1.2679 0
M  V30 8703 H 849.606 -2.97385 0.947023 0
M  V30 8704 N 849.908 -0.773975 -1.37286 0
M  V30 8705 C 850.856 -0.149581 -2.32119 0
M  V30 8706 C 851.85 0.682457 -1.55045 0
M  V30 8707 O 853.056 0.579269 -1.70424 0
M  V30 8708 H 849.431 -0.0295857 -0.751418 0
M  V30 8709 H 851.402 -0.965117 -2.82362 0
M  V30 8710 C 850.151 0.713409 -3.40302 0
M  V30 8711 H 849.474 0.0825416 -3.99715 0
M  V30 8712 H 850.914 1.11723 -4.09016 0
M  V30 8713 C 849.373 1.86498 -2.80571 0
M  V30 8714 O 849.903 2.9606 -2.71498 0
M  V30 8715 N 848.109 1.66629 -2.38082 0
M  V30 8716 H 847.656 0.775145 -2.45661 0
M  V30 8717 H 847.614 2.43845 -1.98461 0
M  V30 8718 N 851.386 1.48609 -0.524698 0
M  V30 8719 C 852.334 2.31205 0.254398 0
M  V30 8720 C 853.328 1.40894 0.940491 0
M  V30 8721 O 854.534 1.57827 0.865478 0
M  V30 8722 H 850.909 0.745199 0.100907 0
M  V30 8723 H 852.88 2.94804 -0.461876 0
M  V30 8724 C 851.629 3.2282 1.2916 0
M  V30 8725 H 850.952 3.92255 0.773074 0
M  V30 8726 H 852.392 3.83508 1.80825 0
M  V30 8727 C 850.851 2.4406 2.32242 0
M  V30 8728 O 851.381 2.16163 3.3858 0
M  V30 8729 N 849.587 2.05651 2.05319 0
M  V30 8730 H 849.134 2.28539 1.18861 0
M  V30 8731 H 849.092 1.53265 2.74513 0
M  V30 8732 N 852.864 0.259585 1.55447 0
M  V30 8733 C 854.092 -0.365392 2.03648 0
M  V30 8734 C 854.507 -1.50613 1.13847 0
M  V30 8735 O 853.864 -1.81837 0.155414 0
M  V30 8736 C 853.915 -0.861172 3.51093 0
M  V30 8737 O 853.636 0.234121 4.37474 0
M  V30 8738 C 855.137 -1.55555 4.15111 0
M  V30 8739 H 852.357 -0.0853439 0.66555 0
M  V30 8740 H 854.901 0.387151 2.00802 0
M  V30 8741 H 853.056 -1.56385 3.54433 0
M  V30 8742 H 853.47 -0.1444 5.24301 0
M  V30 8743 H 854.944 -1.85403 5.19932 0
M  V30 8744 H 855.421 -2.48185 3.62355 0
M  V30 8745 H 856.027 -0.89712 4.15731 0
M  V30 8746 N 854.342 -1.57594 -0.0133615 0
M  V30 8747 C 855.272 -2.10611 -1.00823 0
M  V30 8748 C 856.253 -1.01217 -1.36708 0
M  V30 8749 O 857.438 -1.28827 -1.45318 0
M  V30 8750 C 854.568 -2.59844 -2.30431 0
M  V30 8751 C 853.522 -3.73644 -2.08745 0
M  V30 8752 C 852.848 -4.09141 -3.4425 0
M  V30 8753 C 854.148 -5.01454 -1.46086 0
M  V30 8754 H 855.842 -2.93985 -0.566849 0
M  V30 8755 H 853.388 -1.41423 -0.271219 0
M  V30 8756 H 855.341 -2.95557 -3.00373 0
M  V30 8757 H 854.065 -1.73573 -2.76658 0
M  V30 8758 H 852.724 -3.38303 -1.41232 0
M  V30 8759 H 852.372 -3.19914 -3.88155 0
M  V30 8760 H 852.072 -4.85802 -3.3056 0
M  V30 8761 H 853.596 -4.47402 -4.15528 0
M  V30 8762 H 855.01 -5.35024 -2.05966 0
M  V30 8763 H 853.407 -5.82832 -1.42924 0
M  V30 8764 H 854.477 -4.83003 -0.428471 0
M  V30 8765 N 855.82 0.285905 -1.54985 0
M  V30 8766 C 857.066 1.02071 -1.75241 0
M  V30 8767 C 857.399 1.864 -0.544842 0
M  V30 8768 O 856.674 1.89034 0.457844 0
M  V30 8769 C 856.957 1.91409 -3.05016 0
M  V30 8770 C 856.81 1.10158 -4.36102 0
M  V30 8771 C 858.129 2.90335 -3.30747 0
M  V30 8772 H 855.248 0.369663 -0.637588 0
M  V30 8773 H 857.89 0.294114 -1.8771 0
M  V30 8774 H 856.04 2.53362 -2.94517 0
M  V30 8775 H 857.712 0.503756 -4.58541 0
M  V30 8776 H 855.955 0.404675 -4.31908 0
M  V30 8777 H 856.626 1.75956 -5.23205 0
M  V30 8778 H 859.102 2.38514 -3.40955 0
M  V30 8779 H 857.978 3.49997 -4.2284 0
M  V30 8780 H 858.239 3.64787 -2.49765 0
M  V30 8781 N 857.298 1.47698 0.54982 0
M  V30 8782 C 858.538 1.56286 1.31735 0
M  V30 8783 C 858.902 0.223042 1.907 0
M  V30 8784 O 860.103 0.183798 2.68171 0
M  V30 8785 C 858.374 2.65522 2.39234 0
M  V30 8786 S 859.933 2.93742 3.25977 0
M  V30 8787 H 856.751 0.551795 0.448378 0
M  V30 8788 H 859.353 1.85118 0.628629 0
M  V30 8789 H 858.057 3.61457 1.94362 0
M  V30 8790 H 857.588 2.38528 3.12838 0
M  V30 8791 H 859.603 2.31522 4.38876 0
M  V30 8792 N 858.776 -0.797141 1.35954 0
M  V30 8793 C 860.187 -1.37179 1.26644 0
M  V30 8794 C 860.538 -1.9596 -0.0971046 0
M  V30 8795 O 859.663 -1.91994 -0.998355 0
M  V30 8796 C 860.258 -2.49395 2.2932 0
M  V30 8797 C 858.817 -3.02697 2.23722 0
M  V30 8798 C 857.964 -1.75721 2.14517 0
M  V30 8799 H 860.915 -0.599407 1.46945 0
M  V30 8800 H 860.936 -3.28204 1.92515 0
M  V30 8801 H 860.448 -2.06584 3.2855 0
M  V30 8802 H 858.549 -3.49948 1.27934 0
M  V30 8803 H 858.662 -3.60036 3.16087 0
M  V30 8804 H 857.026 -1.97649 1.60646 0
M  V30 8805 H 857.809 -1.35049 3.15621 0
M  V30 8806 N 860.254 -1.20106 -1.0204 0
M  V30 8807 C 861.482 -1.0344 -1.79186 0
M  V30 8808 C 861.897 0.416542 -1.84148 0
M  V30 8809 O 861.254 1.28925 -1.29168 0
M  V30 8810 C 861.305 -1.60663 -3.23836 0
M  V30 8811 O 861.026 -3.00079 -3.19193 0
M  V30 8812 C 862.527 -1.48897 -4.17546 0
M  V30 8813 H 859.747 -0.364093 -0.563629 0
M  V30 8814 H 862.291 -1.5911 -1.28469 0
M  V30 8815 H 860.446 -1.09122 -3.71714 0
M  V30 8816 H 860.86 -3.27162 -4.09958 0
M  V30 8817 H 862.334 -1.93703 -5.16898 0
M  V30 8818 H 862.811 -0.440843 -4.36982 0
M  V30 8819 H 863.417 -1.9961 -3.75547 0
M  V30 8820 N 861.732 1.21287 -1.00634 0
M  V30 8821 C 863.009 1.86 -0.605257 0
M  V30 8822 C 863.389 1.90139 0.917072 0
M  V30 8823 O 862.737 1.40169 1.80458 0
M  V30 8824 C 862.947 3.26183 -1.24119 0
M  V30 8825 C 864.295 4.02562 -1.35015 0
M  V30 8826 O 865.319 3.35499 -1.19661 0
M  V30 8827 O 864.178 5.22638 -1.59726 0
M  V30 8828 H 861.272 0.800549 -0.207486 0
M  V30 8829 H 863.818 1.28959 -1.10307 0
M  V30 8830 H 862.59 3.17878 -2.28186 0
M  V30 8831 H 862.213 3.90845 -0.729807 0
M  V30 8832 N 863.21 0.781244 1.36873 0
M  V30 8833 C 864.45 0.355185 2.0129 0
M  V30 8834 C 864.814 -1.05115 1.6067 0
M  V30 8835 O 866.015 -1.57785 2.17618 0
M  V30 8836 C 864.286 0.504587 3.5382 0
M  V30 8837 S 865.845 0.165196 4.38489 0
M  V30 8838 H 862.663 0.136133 0.697846 0
M  V30 8839 H 865.265 1.01794 1.66908 0
M  V30 8840 H 863.969 1.52857 3.80871 0
M  V30 8841 H 863.5 -0.174392 3.93013 0
M  V30 8842 H 865.515 -1.03605 4.85263 0
M  V30 8843 N 864.689 -1.48329 0.532571 0
M  V30 8844 C 865.936 -2.025 -0.000582356 0
M  V30 8845 C 866.264 -1.40942 -1.34036 0
M  V30 8846 O 865.519 -0.545545 -1.87942 0
M  V30 8847 C 865.818 -3.57 -0.168943 0
M  V30 8848 C 865.484 -4.37357 1.0968 0
M  V30 8849 C 864.146 -4.59033 1.44369 0
M  V30 8850 C 866.498 -4.83882 1.93669 0
M  V30 8851 C 863.826 -5.24481 2.62939 0
M  V30 8852 C 866.178 -5.50637 3.11419 0
M  V30 8853 C 864.842 -5.70551 3.46451 0
M  V30 8854 H 864.112 -0.741 -0.000213099 0
M  V30 8855 H 866.759 -1.78282 0.699117 0
M  V30 8856 H 865.064 -3.80072 -0.951429 0
M  V30 8857 H 866.761 -3.9654 -0.596422 0
M  V30 8858 H 863.351 -4.20748 0.816655 0
M  V30 8859 H 867.535 -4.66936 1.6818 0
M  V30 8860 H 862.791 -5.38096 2.9028 0
M  V30 8861 H 866.965 -5.85655 3.76803 0
M  V30 8862 H 864.592 -6.21037 4.38425 0
M  V30 8863 N 866.167 -0.267825 -1.55308 0
M  V30 8864 C 867.583 0.0865107 -1.59365 0
M  V30 8865 C 867.783 1.55205 -1.28505 0
M  V30 8866 O 866.839 2.29978 -1.04241 0
M  V30 8867 C 868.152 -0.28155 -2.99379 0
M  V30 8868 C 869.7 -0.227565 -3.12172 0
M  V30 8869 C 870.175 -0.569959 -4.5444 0
M  V30 8870 N 871.666 -0.521238 -4.60258 0
M  V30 8871 C 872.401 -0.759061 -5.68354 0
M  V30 8872 N 871.897 -1.06112 -6.84626 0
M  V30 8873 N 873.69 -0.688351 -5.57869 0
M  V30 8874 H 865.841 -1.22332 -1.73633 0
M  V30 8875 H 868.104 -0.493703 -0.809297 0
M  V30 8876 H 867.81 -1.3005 -3.26772 0
M  V30 8877 H 867.684 0.381192 -3.75269 0
M  V30 8878 H 870.071 0.782093 -2.84548 0
M  V30 8879 H 870.152 -0.924461 -2.38511 0
M  V30 8880 H 869.796 -1.57727 -4.82788 0
M  V30 8881 H 869.726 0.148646 -5.2639 0
M  V30 8882 H 872.217 -0.297359 -3.76728 0
M  V30 8883 H 872.53 -1.22945 -7.62958 0
M  V30 8884 H 870.875 -1.09881 -6.86259 0
M  V30 8885 H 874.066 -0.452268 -4.6591 0
M  V30 8886 H 874.239 -0.877081 -6.42037 0
M  V30 8887 N 867.645 1.57599 0.00500368 0
M  V30 8888 C 868.592 2.08106 0.998025 0
M  V30 8889 C 869.562 0.975374 1.34446 0
M  V30 8890 O 870.747 1.24749 1.44369 0
M  V30 8891 C 867.887 2.58496 2.28635 0
M  V30 8892 C 867 3.82947 1.99939 0
M  V30 8893 C 866.135 4.21857 3.22816 0
M  V30 8894 C 865.174 5.39159 2.89783 0
M  V30 8895 N 864.311 5.73386 4.05183 0
M  V30 8896 H 869.151 2.92684 0.560385 0
M  V30 8897 H 866.688 1.44692 0.265053 0
M  V30 8898 H 868.646 2.85787 3.03943 0
M  V30 8899 H 867.276 1.768 2.70077 0
M  V30 8900 H 866.328 3.62594 1.1502 0
M  V30 8901 H 867.64 4.68358 1.71588 0
M  V30 8902 H 866.794 4.50404 4.06474 0
M  V30 8903 H 865.533 3.35145 3.54301 0
M  V30 8904 H 864.538 5.1034 2.04532 0
M  V30 8905 H 865.763 6.27543 2.59551 0
M  V30 8906 H 863.709 4.89632 4.36574 0
M  V30 8907 H 863.626 6.53359 3.80339 0
M  V30 8908 H 864.894 6.06522 4.89644 0
M  V30 8909 N 869.123 -0.277682 1.55134 0
M  V30 8910 C 870.073 -1.34531 1.8408 0
M  V30 8911 C 871.057 -1.44904 0.699393 0
M  V30 8912 O 872.249 -1.48664 0.960623 0
M  V30 8913 C 869.378 -2.7064 2.11208 0
M  V30 8914 C 868.464 -2.64396 3.31596 0
M  V30 8915 N 868.855 -2.2777 4.51613 0
M  V30 8916 C 867.153 -2.95464 3.34091 0
M  V30 8917 C 867.854 -2.31401 5.33693 0
M  V30 8918 N 866.83 -2.69688 4.71984 0
M  V30 8919 H 870.632 -1.05214 2.74421 0
M  V30 8920 H 868.146 -0.486311 1.54948 0
M  V30 8921 H 870.143 -3.47649 2.301 0
M  V30 8922 H 868.803 -3.00849 1.22148 0
M  V30 8923 H 869.814 -1.99827 4.77797 0
M  V30 8924 H 866.491 -3.30415 2.5521 0
M  V30 8925 H 867.881 -2.05685 6.39643 0
M  V30 8926 N 870.601 -1.47988 -0.541979 0
M  V30 8927 C 872.012 -1.49073 -1.12402 0
M  V30 8928 C 872.363 -0.253825 -1.94551 0
M  V30 8929 O 871.488 0.640056 -2.06718 0
M  V30 8930 C 872.083 -2.7011 -2.04514 0
M  V30 8931 C 870.642 -2.74105 -2.5796 0
M  V30 8932 C 869.789 -2.42409 -1.3466 0
M  V30 8933 H 872.74 -1.55277 -0.327818 0
M  V30 8934 H 872.761 -2.47946 -2.88623 0
M  V30 8935 H 872.273 -3.60117 -1.44697 0
M  V30 8936 H 870.374 -1.88276 -3.21532 0
M  V30 8937 H 870.487 -3.75213 -2.97913 0
M  V30 8938 H 868.851 -1.9331 -1.65841 0
M  V30 8939 H 869.634 -3.34642 -0.766133 0
M  V30 8940 N 872.079 0.78992 -1.36375 0
M  V30 8941 C 872.989 1.93386 -1.32812 0
M  V30 8942 C 874.005 1.72468 -0.230377 0
M  V30 8943 O 875.181 1.96014 -0.462657 0
M  V30 8944 C 872.246 3.2824 -1.11621 0
M  V30 8945 C 871.307 3.61939 -2.30865 0
M  V30 8946 C 870.54 4.90359 -2.10675 0
M  V30 8947 O 870.763 5.6005 -1.08168 0
M  V30 8948 O 869.697 5.22702 -2.9844 0
M  V30 8949 H 873.523 1.99342 -2.29121 0
M  V30 8950 H 871.108 0.9301 -1.16917 0
M  V30 8951 H 872.99 4.08939 -1.01719 0
M  V30 8952 H 871.665 3.23178 -0.183732 0
M  V30 8953 H 870.572 2.81549 -2.46335 0
M  V30 8954 H 871.905 3.71725 -3.22617 0
M  V30 8955 N 873.557 1.20646 1.01402 0
M  V30 8956 C 874.52 0.959314 2.08158 0
M  V30 8957 C 875.52 -0.0661558 1.60664 0
M  V30 8958 O 876.71 0.170177 1.73367 0
M  V30 8959 C 873.842 0.444785 3.37986 0
M  V30 8960 H 875.035 1.90631 2.31517 0
M  V30 8961 H 872.588 1.02219 1.18241 0
M  V30 8962 H 873.323 -0.507553 3.20304 0
M  V30 8963 H 873.108 1.18435 3.73785 0
M  V30 8964 H 874.598 0.291443 4.16582 0
M  V30 8965 N 875.035 -1.20752 1.01276 0
M  V30 8966 C 876.263 -1.94006 0.718976 0
M  V30 8967 C 876.678 -1.74544 -0.719711 0
M  V30 8968 O 876.035 -1.05697 -1.48776 0
M  V30 8969 C 876.086 -3.46208 1.04031 0
M  V30 8970 O 875.807 -3.65031 2.42248 0
M  V30 8971 C 877.308 -4.36614 0.767032 0
M  V30 8972 H 874.528 -0.616743 0.264327 0
M  V30 8973 H 877.072 -1.53352 1.3529 0
M  V30 8974 H 875.227 -3.84756 0.451852 0
M  V30 8975 H 875.641 -4.59054 2.53712 0
M  V30 8976 H 877.115 -5.42076 1.04198 0
M  V30 8977 H 877.592 -4.38182 -0.298851 0
M  V30 8978 H 878.198 -4.03723 1.33746 0
M  V30 8979 N 876.513 -0.788492 -1.36457 0
M  V30 8980 C 877.743 -0.371825 -2.03227 0
M  V30 8981 C 878.151 1.01627 -1.59589 0
M  V30 8982 O 877.494 1.663 -0.780382 0
M  V30 8983 C 877.556 -0.355179 -3.57741 0
M  V30 8984 C 877.22 -1.69069 -4.24576 0
M  V30 8985 C 878.217 -2.64601 -4.47529 0
M  V30 8986 C 875.902 -1.96973 -4.62068 0
M  V30 8987 C 877.896 -3.86232 -5.07054 0
M  V30 8988 C 875.583 -3.18872 -5.2131 0
M  V30 8989 C 876.581 -4.1332 -5.43742 0
M  V30 8990 O 876.269 -5.3307 -6.0174 0
M  V30 8991 H 876.001 -0.151452 -0.658816 0
M  V30 8992 H 878.555 -1.06827 -1.75434 0
M  V30 8993 H 876.785 0.397753 -3.84649 0
M  V30 8994 H 878.474 0.0366955 -4.05883 0
M  V30 8995 H 879.24 -2.44329 -4.18961 0
M  V30 8996 H 875.119 -1.24277 -4.43933 0
M  V30 8997 H 878.663 -4.59965 -5.24478 0
M  V30 8998 H 874.56 -3.39022 -5.49304 0
M  V30 8999 H 875.328 -5.34121 -6.20207 0
M  V30 9000 N 877.991 1.48044 -0.54043 0
M  V30 9001 C 879.219 2.06895 -0.0145153 0
M  V30 9002 C 879.634 1.39552 1.27164 0
M  V30 9003 O 878.991 0.486454 1.75897 0
M  V30 9004 C 879.042 3.60934 0.202278 0
M  V30 9005 O 878.763 4.25749 -1.03293 0
M  V30 9006 C 880.264 4.36607 0.767387 0
M  V30 9007 H 877.484 0.66991 -0.0382368 0
M  V30 9008 H 880.028 1.90288 -0.749057 0
M  V30 9009 H 878.183 3.77111 0.886897 0
M  V30 9010 H 878.597 5.18048 -0.820167 0
M  V30 9011 H 880.071 5.45126 0.86845 0
M  V30 9012 H 880.548 4.01745 1.77477 0
M  V30 9013 H 881.154 4.25133 0.119002 0
M  V30 9014 N 879.47 0.276058 1.55163 0
M  V30 9015 C 880.417 -0.611006 2.22565 0
M  V30 9016 C 881.387 -1.14902 1.19945 0
M  V30 9017 O 882.572 -1.19815 1.48489 0
M  V30 9018 C 879.712 -1.78885 2.95117 0
M  V30 9019 C 878.825 -1.2846 4.12458 0
M  V30 9020 C 877.96 -2.42432 4.72652 0
M  V30 9021 C 876.999 -1.89015 5.82185 0
M  V30 9022 N 876.136 -2.96463 6.36439 0
M  V30 9023 H 880.976 -0.0295849 2.97985 0
M  V30 9024 H 878.513 -0.00283607 1.471 0
M  V30 9025 H 880.471 -2.48121 3.35398 0
M  V30 9026 H 879.101 -2.34229 2.22119 0
M  V30 9027 H 878.153 -0.485312 3.77292 0
M  V30 9028 H 879.465 -0.853358 4.91446 0
M  V30 9029 H 878.619 -3.19659 5.15658 0
M  V30 9030 H 877.358 -2.88872 3.92943 0
M  V30 9031 H 876.363 -1.10267 5.38629 0
M  V30 9032 H 877.588 -1.43509 6.63763 0
M  V30 9033 H 875.534 -3.42283 5.59623 0
M  V30 9034 H 875.451 -2.57759 7.10701 0
M  V30 9035 H 876.719 -3.73663 6.84103 0
M  V30 9036 N 880.948 -1.576 0.00335426 0
M  V30 9037 C 882.188 -1.92571 -0.685253 0
M  V30 9038 C 882.552 -0.877961 -1.70751 0
M  V30 9039 O 883.753 -1.11303 -2.44673 0
M  V30 9040 C 882.024 -3.3258 -1.30863 0
M  V30 9041 S 883.583 -3.89442 -2.02189 0
M  V30 9042 H 880.401 -0.674035 -0.226268 0
M  V30 9043 H 883.003 -1.95405 0.0608461 0
M  V30 9044 H 881.707 -4.06673 -0.551837 0
M  V30 9045 H 881.238 -3.33128 -2.09259 0
M  V30 9046 H 883.253 -3.70789 -3.29742 0
M  V30 9047 N 882.426 0.269451 -1.5528 0
M  V30 9048 C 883.674 0.998604 -1.75705 0
M  V30 9049 C 883.995 1.86691 -0.563175 0
M  V30 9050 O 883.265 1.91305 0.421811 0
M  V30 9051 H 881.845 0.371698 -0.647958 0
M  V30 9052 H 884.507 0.292826 -1.92688 0
M  V30 9053 H 883.603 1.63348 -2.6594 0
M  V30 9054 N 883.904 1.48273 0.534124 0
M  V30 9055 C 885.129 1.59988 1.31979 0
M  V30 9056 C 885.554 0.258824 1.86311 0
M  V30 9057 O 884.912 -0.768885 1.64188 0
M  V30 9058 C 884.96 2.64642 2.44943 0
M  V30 9059 O 884.064 2.21515 3.47858 0
M  V30 9060 H 883.405 0.536625 0.391063 0
M  V30 9061 H 885.935 1.94229 0.643135 0
M  V30 9062 H 885.945 2.85786 2.91187 0
M  V30 9063 H 884.62 3.62004 2.04758 0
M  V30 9064 H 883.197 2.10567 3.0776 0
M  V30 9065 N 885.382 -0.782676 1.36792 0
M  V30 9066 C 886.63 -1.53778 1.31136 0
M  V30 9067 C 886.951 -1.94706 -0.107014 0
M  V30 9068 O 886.221 -1.65465 -1.04872 0
M  V30 9069 H 884.801 -0.570328 0.482426 0
M  V30 9070 H 887.463 -0.932181 1.71162 0
M  V30 9071 H 886.559 -2.44224 1.94321 0
M  V30 9072 N 886.86 -1.21182 -1.00761 0
M  V30 9073 C 888.271 -1.02652 -1.55947 0
M  V30 9074 C 888.622 0.414466 -1.91772 0
M  V30 9075 O 887.747 1.29727 -1.73204 0
M  V30 9076 C 888.342 -1.85713 -2.83366 0
M  V30 9077 C 886.901 -1.71523 -3.35048 0
M  V30 9078 C 886.048 -1.83087 -2.08265 0
M  V30 9079 H 888.999 -1.35242 -0.830379 0
M  V30 9080 H 889.02 -1.36583 -3.55141 0
M  V30 9081 H 888.532 -2.90584 -2.5726 0
M  V30 9082 H 886.633 -0.693257 -3.66094 0
M  V30 9083 H 886.746 -2.53333 -4.06644 0
M  V30 9084 H 885.11 -1.26367 -2.21141 0
M  V30 9085 H 885.893 -2.8946 -1.84575 0
M  V30 9086 N 888.338 1.20213 -1.01915 0
M  V30 9087 C 889.584 1.90203 -0.720724 0
M  V30 9088 C 889.939 1.77526 0.74178 0
M  V30 9089 O 889.232 1.15037 1.53222 0
M  V30 9090 C 889.426 3.40232 -1.09438 0
M  V30 9091 C 889.255 3.67509 -2.59167 0
M  V30 9092 C 888.025 3.86082 -3.25989 0
M  V30 9093 C 890.223 3.69863 -3.5736 0
M  V30 9094 N 888.205 4.009 -4.64922 0
M  V30 9095 C 889.576 3.90136 -4.81865 0
M  V30 9096 C 891.631 3.52839 -3.51296 0
M  V30 9097 C 890.334 3.9515 -6.0104 0
M  V30 9098 C 892.36 3.59125 -4.69875 0
M  V30 9099 C 891.722 3.79874 -5.93191 0
M  V30 9100 H 887.821 0.715556 -0.315442 0
M  V30 9101 H 890.405 1.44538 -1.30449 0
M  V30 9102 H 888.576 3.84643 -0.538933 0
M  V30 9103 H 890.308 3.97704 -0.74923 0
M  V30 9104 H 887.063 3.84569 -2.76413 0
M  V30 9105 H 887.487 4.12181 -5.37062 0
M  V30 9106 H 892.129 3.35762 -2.56951 0
M  V30 9107 H 889.847 4.11022 -6.95763 0
M  V30 9108 H 893.433 3.47257 -4.66802 0
M  V30 9109 H 892.313 3.846 -6.83412 0
M  V30 9110 N 889.816 0.795718 1.36037 0
M  V30 9111 C 890.746 0.212803 2.32528 0
M  V30 9112 C 891.727 -0.655716 1.56953 0
M  V30 9113 O 892.912 -0.588238 1.85077 0
M  V30 9114 C 890.042 -0.648189 3.41198 0
M  V30 9115 C 888.996 0.120948 4.27829 0
M  V30 9116 C 888.322 -0.861044 5.27722 0
M  V30 9117 C 889.622 1.31375 5.05508 0
M  V30 9118 H 891.316 1.01893 2.81528 0
M  V30 9119 H 888.862 0.491422 1.35355 0
M  V30 9120 H 890.815 -1.06597 4.07695 0
M  V30 9121 H 889.539 -1.48709 2.9078 0
M  V30 9122 H 888.198 0.519777 3.62897 0
M  V30 9123 H 887.846 -1.69515 4.73575 0
M  V30 9124 H 887.546 -0.350808 5.86552 0
M  V30 9125 H 889.07 -1.27726 5.97092 0
M  V30 9126 H 890.484 0.971406 5.6501 0
M  V30 9127 H 888.881 1.75772 5.73781 0
M  V30 9128 H 889.951 2.10593 4.36782 0
M  V30 9129 N 891.294 -1.47756 0.548274 0
M  V30 9130 C 892.522 -2.06884 0.0254873 0
M  V30 9131 C 892.937 -1.40225 -1.26422 0
M  V30 9132 O 892.294 -0.495776 -1.75637 0
M  V30 9133 C 892.345 -3.61036 -0.183134 0
M  V30 9134 O 892.066 -4.25195 1.05549 0
M  V30 9135 C 893.567 -4.37008 -0.744222 0
M  V30 9136 H 890.787 -0.669697 0.041789 0
M  V30 9137 H 893.331 -1.89888 0.759138 0
M  V30 9138 H 891.486 -3.77576 -0.866886 0
M  V30 9139 H 891.9 -5.17606 0.847629 0
M  V30 9140 H 893.374 -5.45579 -0.839529 0
M  V30 9141 H 893.851 -4.0268 -1.75344 0
M  V30 9142 H 894.457 -4.25191 -0.0964542 0
M  V30 9143 N 892.772 -0.284283 -1.55015 0
M  V30 9144 C 894.183 0.211681 -1.85496 0
M  V30 9145 C 894.534 1.54735 -1.2063 0
M  V30 9146 O 893.659 2.10594 -0.497918 0
M  V30 9147 C 894.254 0.390864 -3.36538 0
M  V30 9148 C 892.813 0.831055 -3.67111 0
M  V30 9149 C 891.96 -0.0703581 -2.77211 0
M  V30 9150 H 894.911 -0.505803 -1.50424 0
M  V30 9151 H 894.932 1.22803 -3.60138 0
M  V30 9152 H 894.444 -0.581409 -3.8372 0
M  V30 9153 H 892.545 1.81447 -3.25434 0
M  V30 9154 H 892.658 0.662026 -4.74504 0
M  V30 9155 H 891.022 0.447528 -2.50737 0
M  V30 9156 H 891.805 -1.03868 -3.2721 0
M  V30 9157 N 894.251 1.57596 -0.0117121 0
M  V30 9158 C 895.667 1.55837 0.344506 0
M  V30 9159 C 895.867 1.01557 1.74036 0
M  V30 9160 O 894.923 0.654563 2.43868 0
M  V30 9161 C 896.236 2.99973 0.209023 0
M  V30 9162 C 897.784 3.11717 0.283092 0
M  V30 9163 C 898.259 4.57659 0.176599 0
M  V30 9164 N 899.75 4.62608 0.234133 0
M  V30 9165 C 900.485 5.73132 0.175252 0
M  V30 9166 N 899.981 6.92768 0.0662888 0
M  V30 9167 N 901.774 5.61638 0.227972 0
M  V30 9168 H 893.925 1.91215 -0.924692 0
M  V30 9169 H 896.188 0.878807 -0.355531 0
M  V30 9170 H 895.894 3.4357 -0.751826 0
M  V30 9171 H 895.768 3.64075 0.98635 0
M  V30 9172 H 898.155 2.68043 1.23439 0
M  V30 9173 H 898.236 2.50369 -0.52431 0
M  V30 9174 H 897.88 5.02011 -0.771205 0
M  V30 9175 H 897.81 5.16967 1.00264 0
M  V30 9176 H 900.301 3.76549 0.319203 0
M  V30 9177 H 900.614 7.72795 0.0275765 0
M  V30 9178 H 898.959 6.94993 0.0317502 0
M  V30 9179 H 902.15 4.67063 0.311377 0
M  V30 9180 H 902.323 6.47754 0.178621 0
M  V30 9181 N 895.729 -0.261212 1.5542 0
M  V30 9182 C 896.969 -0.998748 1.78338 0
M  V30 9183 C 897.333 -1.83064 0.578914 0
M  V30 9184 O 898.534 -2.59884 0.686575 0
M  V30 9185 C 896.805 -1.84828 3.05898 0
M  V30 9186 S 898.364 -2.64686 3.49981 0
M  V30 9187 H 895.182 -0.33619 0.626496 0
M  V30 9188 H 897.784 -0.26799 1.93655 0
M  V30 9189 H 896.488 -1.22658 3.91642 0
M  V30 9190 H 896.019 -2.62203 2.9328 0
M  V30 9191 H 898.034 -3.87299 3.10184 0
M  V30 9192 N 897.207 -1.48554 -0.526253 0
M  V30 9193 C 898.14 -1.57928 -1.64724 0
M  V30 9194 C 899.118 -0.429536 -1.56824 0
M  V30 9195 O 900.302 -0.641651 -1.77243 0
M  V30 9196 C 897.429 -1.51075 -3.0314 0
M  V30 9197 C 896.475 -2.70937 -3.29386 0
M  V30 9198 S 897.308 -4.3287 -3.15251 0
M  V30 9199 C 898.464 -4.28622 -4.56108 0
M  V30 9200 H 898.697 -2.52761 -1.56523 0
M  V30 9201 H 896.23 -1.37133 -0.7095 0
M  V30 9202 H 898.188 -1.47808 -3.82966 0
M  V30 9203 H 896.849 -0.57574 -3.08778 0
M  V30 9204 H 896.042 -2.62291 -4.30371 0
M  V30 9205 H 895.644 -2.71486 -2.57238 0
M  V30 9206 H 897.936 -3.98784 -5.47702 0
M  V30 9207 H 898.879 -5.29798 -4.69808 0
M  V30 9208 H 899.287 -3.59038 -4.35605 0
M  V30 9209 N 898.685 0.775411 -1.37205 0
M  V30 9210 C 899.931 1.53611 -1.32407 0
M  V30 9211 C 900.264 1.9398 0.0924103 0
M  V30 9212 O 899.539 1.63791 1.04893 0
M  V30 9213 C 899.822 2.80367 -2.25979 0
M  V30 9214 C 899.675 2.46275 -3.76389 0
M  V30 9215 C 900.994 3.82277 -2.18064 0
M  V30 9216 H 898.113 0.557278 -0.482297 0
M  V30 9217 H 900.755 0.889826 -1.67875 0
M  V30 9218 H 898.905 3.35515 -1.95862 0
M  V30 9219 H 900.577 1.9707 -4.17087 0
M  V30 9220 H 898.82 1.79023 -3.95137 0
M  V30 9221 H 899.491 3.36868 -4.37291 0
M  V30 9222 H 901.967 3.36613 -2.44604 0
M  V30 9223 H 900.843 4.68696 -2.85684 0
M  V30 9224 H 901.104 4.26272 -1.17239 0
M  V30 9225 N 900.163 1.21714 1.00117 0
M  V30 9226 C 901.44 0.945391 1.71236 0
M  V30 9227 C 901.82 -0.541772 2.0403 0
M  V30 9228 O 901.168 -1.50763 1.71705 0
M  V30 9229 C 901.378 1.83444 2.96899 0
M  V30 9230 C 902.726 2.08558 3.69849 0
M  V30 9231 O 903.75 1.80824 3.06889 0
M  V30 9232 O 902.609 2.55485 4.83104 0
M  V30 9233 H 899.703 0.354834 0.747009 0
M  V30 9234 H 902.249 1.32661 1.05825 0
M  V30 9235 H 901.021 2.84075 2.69105 0
M  V30 9236 H 900.644 1.45428 3.70049 0
M  V30 9237 N 901.641 -1.19671 1.02551 0
M  V30 9238 C 902.871 -1.92952 0.738441 0
M  V30 9239 C 903.279 -1.75528 -0.706155 0
M  V30 9240 O 902.622 -1.0723 -1.49156 0
M  V30 9241 C 902.684 -3.45149 1.00562 0
M  V30 9242 C 902.348 -3.86341 2.44109 0
M  V30 9243 C 903.345 -3.91374 3.42231 0
M  V30 9244 C 901.03 -4.18076 2.7842 0
M  V30 9245 C 903.024 -4.27568 4.7272 0
M  V30 9246 C 900.711 -4.53943 4.0912 0
M  V30 9247 C 901.709 -4.58663 5.06081 0
M  V30 9248 O 901.397 -4.93701 6.3444 0
M  V30 9249 H 901.129 -0.619836 0.269776 0
M  V30 9250 H 903.683 -1.52852 1.37206 0
M  V30 9251 H 901.913 -3.85416 0.314849 0
M  V30 9252 H 903.602 -3.99664 0.708742 0
M  V30 9253 H 904.368 -3.67011 3.17061 0
M  V30 9254 H 900.247 -4.13589 2.03631 0
M  V30 9255 H 903.791 -4.31166 5.48399 0
M  V30 9256 H 899.688 -4.77764 4.34064 0
M  V30 9257 H 900.456 -5.11662 6.38862 0
M  V30 9258 N 903.119 -0.802921 -1.35613 0
M  V30 9259 C 904.53 -0.443004 -1.81368 0
M  V30 9260 C 904.881 1.03459 -1.66706 0
M  V30 9261 O 904.006 1.80372 -1.19561 0
M  V30 9262 C 904.601 -0.797324 -3.29284 0
M  V30 9263 C 903.16 -0.490055 -3.73196 0
M  V30 9264 C 902.307 -1.02487 -2.57666 0
M  V30 9265 H 905.258 -0.994888 -1.23643 0
M  V30 9266 H 905.279 -0.0934638 -3.80385 0
M  V30 9267 H 904.791 -1.87278 -3.39924 0
M  V30 9268 H 902.892 0.576818 -3.68108 0
M  V30 9269 H 903.005 -1.02012 -4.68114 0
M  V30 9270 H 901.369 -0.44738 -2.5074 0
M  V30 9271 H 902.152 -2.10636 -2.71085 0
M  V30 9272 N 904.597 1.47463 -0.556102 0
M  V30 9273 C 905.827 2.06568 -0.0364056 0
M  V30 9274 C 906.235 1.40939 1.26225 0
M  V30 9275 O 905.578 0.499572 1.76777 0
M  V30 9276 C 905.64 3.58755 0.231278 0
M  V30 9277 C 905.304 4.46417 -0.977776 0
M  V30 9278 C 906.301 4.846 -1.88305 0
M  V30 9279 C 903.986 4.87948 -1.19214 0
M  V30 9280 C 905.98 5.63111 -2.98639 0
M  V30 9281 C 903.667 5.66224 -2.29857 0
M  V30 9282 C 904.665 6.03716 -3.194 0
M  V30 9283 O 904.353 6.80415 -4.28125 0
M  V30 9284 H 904.085 0.674675 -0.042305 0
M  V30 9285 H 906.639 1.9047 -0.768775 0
M  V30 9286 H 904.869 3.73061 1.01794 0
M  V30 9287 H 906.558 3.99884 0.696221 0
M  V30 9288 H 907.324 4.53115 -1.72949 0
M  V30 9289 H 903.203 4.58233 -0.504347 0
M  V30 9290 H 906.747 5.92293 -3.68557 0
M  V30 9291 H 902.644 5.97121 -2.45186 0
M  V30 9292 H 903.412 6.98807 -4.26159 0
M  V30 9293 N 906.075 0.2925 1.54862 0
M  V30 9294 C 907.491 -0.0611461 1.59483 0
M  V30 9295 C 907.691 -1.53141 1.30958 0
M  V30 9296 O 906.747 -2.28291 1.07887 0
M  V30 9297 C 908.06 0.329143 2.98893 0
M  V30 9298 C 909.608 0.2772 3.1177 0
M  V30 9299 C 910.083 0.642185 4.53475 0
M  V30 9300 N 911.574 0.594396 4.5937 0
M  V30 9301 C 912.309 0.849385 5.67074 0
M  V30 9302 N 911.805 1.1699 6.82851 0
M  V30 9303 N 913.598 0.777016 5.56704 0
M  V30 9304 H 905.749 1.25079 1.71665 0
M  V30 9305 H 908.012 0.506516 0.80134 0
M  V30 9306 H 907.718 1.35233 3.24661 0
M  V30 9307 H 907.592 -0.321442 3.75828 0
M  V30 9308 H 909.979 -0.736725 2.85756 0
M  V30 9309 H 910.06 0.962289 2.3701 0
M  V30 9310 H 909.704 1.65388 4.80218 0
M  V30 9311 H 909.634 -0.0648831 5.2656 0
M  V30 9312 H 912.125 0.357256 3.76208 0
M  V30 9313 H 912.438 1.35067 7.60905 0
M  V30 9314 H 910.783 1.20785 6.84424 0
M  V30 9315 H 913.974 0.526333 4.65132 0
M  V30 9316 H 914.147 0.979113 6.4056 0
M  V30 9317 N 907.553 -1.57587 0.0200696 0
M  V30 9318 C 908.483 -2.12702 -0.963333 0
M  V30 9319 C 909.464 -1.04094 -1.34531 0
M  V30 9320 O 910.649 -1.31881 -1.42552 0
M  V30 9321 C 907.779 -2.64673 -2.24868 0
M  V30 9322 C 906.733 -3.77987 -2.00772 0
M  V30 9323 C 906.059 -4.16351 -3.35494 0
M  V30 9324 C 907.359 -5.0444 -1.35416 0
M  V30 9325 H 909.053 -2.95121 -0.504363 0
M  V30 9326 H 906.599 -1.41966 -0.24116 0
M  V30 9327 H 908.552 -3.01862 -2.94036 0
M  V30 9328 H 907.276 -1.79403 -2.72914 0
M  V30 9329 H 905.935 -3.41223 -1.34025 0
M  V30 9330 H 905.583 -3.28075 -3.81282 0
M  V30 9331 H 905.283 -4.92705 -3.20181 0
M  V30 9332 H 906.807 -4.56115 -4.05945 0
M  V30 9333 H 908.221 -5.39273 -1.94571 0
M  V30 9334 H 906.618 -5.85732 -1.30529 0
M  V30 9335 H 907.688 -4.83803 -0.325923 0
M  V30 9336 N 909.032 0.252966 -1.55557 0
M  V30 9337 C 910.278 0.979092 -1.78284 0
M  V30 9338 C 910.633 1.83194 -0.588009 0
M  V30 9339 O 909.926 1.86965 0.418899 0
M  V30 9340 C 910.12 1.87785 -3.04091 0
M  V30 9341 C 909.949 1.11349 -4.35697 0
M  V30 9342 C 908.719 0.821038 -4.98585 0
M  V30 9343 C 910.917 0.494039 -5.11922 0
M  V30 9344 N 908.899 0.0319767 -6.13892 0
M  V30 9345 C 910.27 -0.159888 -6.19794 0
M  V30 9346 C 912.325 0.403894 -4.96259 0
M  V30 9347 C 911.028 -0.895295 -7.13706 0
M  V30 9348 C 913.054 -0.317968 -5.90545 0
M  V30 9349 C 912.416 -0.960555 -6.9782 0
M  V30 9350 H 908.515 0.339586 -0.704419 0
M  V30 9351 H 911.099 0.252801 -1.93052 0
M  V30 9352 H 909.27 2.57623 -2.90663 0
M  V30 9353 H 911.002 2.53908 -3.15139 0
M  V30 9354 H 907.757 1.13132 -4.59889 0
M  V30 9355 H 908.181 -0.35047 -6.76092 0
M  V30 9356 H 912.823 0.886366 -4.13405 0
M  V30 9357 H 910.541 -1.38939 -7.96066 0
M  V30 9358 H 914.127 -0.388302 -5.80503 0
M  V30 9359 H 913.007 -1.51022 -7.69521 0
M  V30 9360 N 910.51 1.48831 0.518367 0
M  V30 9361 C 911.46 1.60614 1.61824 0
M  V30 9362 C 912.444 0.462631 1.54106 0
M  V30 9363 O 913.636 0.714689 1.6193 0
M  V30 9364 C 910.765 1.65984 3.00507 0
M  V30 9365 C 909.851 2.85854 3.13286 0
M  V30 9366 N 910.242 4.1014 2.96005 0
M  V30 9367 C 908.54 2.83429 3.4436 0
M  V30 9368 C 909.241 4.90626 3.12508 0
M  V30 9369 N 908.217 4.2366 3.40607 0
M  V30 9370 H 912.019 2.54443 1.47091 0
M  V30 9371 H 909.533 1.45363 0.724102 0
M  V30 9372 H 911.53 1.72521 3.79529 0
M  V30 9373 H 910.19 0.732792 3.16323 0
M  V30 9374 H 911.201 4.40395 2.72531 0
M  V30 9375 H 907.878 2.0003 3.66462 0
M  V30 9376 H 909.268 5.99302 3.03786 0
M  V30 9377 N 911.988 -0.768124 1.37614 0
M  V30 9378 C 913.218 -1.555 1.36027 0
M  V30 9379 C 913.626 -1.89119 -0.0554273 0
M  V30 9380 O 912.969 -1.52203 -1.02859 0
M  V30 9381 C 913.031 -2.8906 2.13739 0
M  V30 9382 C 912.695 -2.78058 3.62674 0
M  V30 9383 C 913.692 -2.48841 4.5648 0
M  V30 9384 C 911.377 -2.95966 4.05844 0
M  V30 9385 C 913.371 -2.37665 5.91434 0
M  V30 9386 C 911.058 -2.84411 5.40882 0
M  V30 9387 C 912.056 -2.55301 6.33491 0
M  V30 9388 O 911.744 -2.43779 7.66046 0
M  V30 9389 H 911.476 -0.488263 0.467521 0
M  V30 9390 H 914.03 -0.959583 1.81607 0
M  V30 9391 H 912.26 -3.50735 1.62854 0
M  V30 9392 H 913.949 -3.5048 2.04741 0
M  V30 9393 H 914.715 -2.34687 4.24437 0
M  V30 9394 H 910.594 -3.17625 3.34119 0
M  V30 9395 H 914.138 -2.14865 6.63686 0
M  V30 9396 H 910.035 -2.98134 5.72527 0
M  V30 9397 H 910.803 -2.59101 7.76408 0
M  V30 9398 N 913.466 -1.22244 -0.994698 0
M  V30 9399 C 914.877 -1.043 -1.5485 0
M  V30 9400 C 915.228 0.394102 -1.92201 0
M  V30 9401 O 914.353 1.27883 -1.74571 0
M  V30 9402 C 914.948 -1.88708 -2.8138 0
M  V30 9403 C 913.507 -1.75067 -3.3321 0
M  V30 9404 C 912.654 -1.85286 -2.06312 0
M  V30 9405 H 915.605 -1.36115 -0.815988 0
M  V30 9406 H 915.626 -1.40342 -3.53673 0
M  V30 9407 H 915.138 -2.93296 -2.54164 0
M  V30 9408 H 913.239 -0.732047 -3.65338 0
M  V30 9409 H 913.352 -2.57632 -4.03934 0
M  V30 9410 H 911.716 -1.28706 -2.19788 0
M  V30 9411 H 912.499 -2.91401 -1.81494 0
M  V30 9412 N 914.944 1.19125 -1.03184 0
M  V30 9413 C 916.184 1.90582 -0.738785 0
M  V30 9414 C 916.548 1.78004 0.719627 0
M  V30 9415 O 917.749 2.44084 1.12589 0
M  V30 9416 C 916.02 3.37319 -1.18114 0
M  V30 9417 S 917.579 4.26962 -1.01238 0
M  V30 9418 H 914.397 0.6582 -0.268875 0
M  V30 9419 H 916.999 1.43999 -1.32229 0
M  V30 9420 H 915.703 3.43999 -2.23814 0
M  V30 9421 H 915.234 3.88935 -0.591051 0
M  V30 9422 H 917.249 4.96143 0.0753558 0
M  V30 9423 N 916.422 0.810101 1.35185 0
M  V30 9424 C 917.65 0.404696 2.02903 0
M  V30 9425 C 918.065 -0.985434 1.61042 0
M  V30 9426 O 917.422 -1.63557 0.809658 0
M  V30 9427 C 917.473 0.482493 3.58266 0
M  V30 9428 O 917.194 1.81782 3.98606 0
M  V30 9429 C 918.695 0.070345 4.43244 0
M  V30 9430 H 915.915 0.163972 0.650657 0
M  V30 9431 H 918.459 1.0947 1.72733 0
M  V30 9432 H 916.614 -0.159296 3.87072 0
M  V30 9433 H 917.028 1.78306 4.93262 0
M  V30 9434 H 918.502 0.175888 5.5172 0
M  V30 9435 H 918.979 -0.984724 4.28018 0
M  V30 9436 H 919.585 0.685427 4.1974 0
M  V30 9437 N 917.9 -1.47166 0.563914 0
M  V30 9438 C 919.146 -2.02756 0.0424338 0
M  V30 9439 C 919.479 -1.43662 -1.3067 0
M  V30 9440 O 918.754 -0.594676 -1.85186 0
M  V30 9441 C 919.037 -3.60074 -0.0434793 0
M  V30 9442 C 918.89 -4.29587 1.33323 0
M  V30 9443 C 920.209 -4.336 -0.753568 0
M  V30 9444 H 917.328 -0.736806 0.0168946 0
M  V30 9445 H 919.97 -1.75521 0.727496 0
M  V30 9446 H 918.12 -3.83409 -0.626906 0
M  V30 9447 H 919.792 -4.17573 1.96037 0
M  V30 9448 H 918.035 -3.8968 1.9061 0
M  V30 9449 H 918.706 -5.38218 1.22576 0
M  V30 9450 H 921.182 -4.15299 -0.258126 0
M  V30 9451 H 920.058 -5.43291 -0.782659 0
M  V30 9452 H 920.319 -4.03302 -1.81108 0
M  V30 9453 N 919.378 -0.300708 -1.54705 0
M  V30 9454 C 920.326 0.591264 -2.2496 0
M  V30 9455 C 921.32 1.13725 -1.2555 0
M  V30 9456 O 922.526 1.08793 -1.43402 0
M  V30 9457 H 918.901 0.209278 -0.722293 0
M  V30 9458 H 920.872 -0.0238175 -2.9839 0
M  V30 9459 C 919.621 1.75179 -3.00346 0
M  V30 9460 H 918.944 1.34089 -3.76643 0
M  V30 9461 H 920.384 2.35198 -3.52786 0
M  V30 9462 C 918.843 2.65574 -2.07298 0
M  V30 9463 O 919.373 3.6666 -1.64083 0
M  V30 9464 N 917.579 2.33301 -1.7326 0
M  V30 9465 H 917.126 1.51142 -2.08599 0
M  V30 9466 H 917.084 2.94049 -1.11278 0
M  V30 9467 N 920.856 1.57574 -0.0284266 0
M  V30 9468 C 922.103 1.91772 0.650364 0
M  V30 9469 C 922.431 0.904769 1.72175 0
M  V30 9470 O 921.686 -0.0864038 1.95509 0
M  V30 9471 C 921.985 3.32699 1.3056 0
M  V30 9472 C 921.651 4.49423 0.364658 0
M  V30 9473 C 920.313 4.81084 0.105672 0
M  V30 9474 C 922.665 5.20439 -0.28151 0
M  V30 9475 C 919.993 5.81119 -0.8073 0
M  V30 9476 C 922.345 6.21449 -1.18253 0
M  V30 9477 C 921.009 6.51551 -1.45042 0
M  V30 9478 H 920.279 0.701744 0.237985 0
M  V30 9479 H 922.926 1.91288 -0.0900448 0
M  V30 9480 H 921.231 3.29441 2.12075 0
M  V30 9481 H 922.928 3.5643 1.83736 0
M  V30 9482 H 919.518 4.24703 0.576692 0
M  V30 9483 H 923.702 4.9621 -0.0944806 0
M  V30 9484 H 918.958 6.02788 -1.02256 0
M  V30 9485 H 923.132 6.75597 -1.68942 0
M  V30 9486 H 920.759 7.28882 -2.15951 0
M  V30 9487 N 922.334 -0.244713 1.55689 0
M  V30 9488 C 923.562 -0.989944 1.8168 0
M  V30 9489 C 923.977 -1.78863 0.604449 0
M  V30 9490 O 923.334 -1.77437 -0.426907 0
M  V30 9491 C 923.385 -1.92607 3.05916 0
M  V30 9492 O 923.106 -1.1597 4.22472 0
M  V30 9493 C 924.607 -2.78711 3.44724 0
M  V30 9494 H 921.827 -0.2912 0.604519 0
M  V30 9495 H 924.371 -0.266938 2.0275 0
M  V30 9496 H 922.526 -2.60333 2.8689 0
M  V30 9497 H 922.94 -1.79311 4.92898 0
M  V30 9498 H 924.414 -3.40141 4.34751 0
M  V30 9499 H 924.891 -3.49935 2.6541 0
M  V30 9500 H 925.497 -2.16435 3.66109 0
M  V30 9501 N 923.813 -1.49104 -0.510467 0
M  V30 9502 C 925.059 -1.58346 -1.26705 0
M  V30 9503 C 925.392 -0.265121 -1.92382 0
M  V30 9504 O 924.667 0.730558 -1.80258 0
M  V30 9505 C 924.95 -2.7359 -2.34137 0
M  V30 9506 C 924.803 -4.1519 -1.73024 0
M  V30 9507 C 926.122 -2.84511 -3.3577 0
M  V30 9508 H 923.241 -0.57637 -0.459311 0
M  V30 9509 H 925.883 -1.81353 -0.566658 0
M  V30 9510 H 924.033 -2.54105 -2.93876 0
M  V30 9511 H 925.705 -4.46167 -1.17186 0
M  V30 9512 H 923.948 -4.21279 -1.03473 0
M  V30 9513 H 924.619 -4.91683 -2.50903 0
M  V30 9514 H 927.095 -3.0222 -2.86011 0
M  V30 9515 H 925.971 -3.6684 -4.08313 0
M  V30 9516 H 926.232 -1.93471 -3.97519 0
M  V30 9517 N 925.291 0.760815 -1.38019 0
M  V30 9518 C 926.538 1.51973 -1.3383 0
M  V30 9519 C 926.866 1.9436 0.0738855 0
M  V30 9520 O 926.121 1.65181 1.04946 0
M  V30 9521 C 926.42 2.79024 -2.23339 0
M  V30 9522 C 926.086 2.55636 -3.71431 0
M  V30 9523 C 924.748 2.48966 -4.11788 0
M  V30 9524 C 927.1 2.35018 -4.65205 0
M  V30 9525 C 924.428 2.19684 -5.44018 0
M  V30 9526 C 926.78 2.07258 -5.97685 0
M  V30 9527 C 925.444 1.9904 -6.37134 0
M  V30 9528 H 924.714 0.556108 -0.489719 0
M  V30 9529 H 927.361 0.87545 -1.70318 0
M  V30 9530 H 925.666 3.48065 -1.79883 0
M  V30 9531 H 927.363 3.36951 -2.17405 0
M  V30 9532 H 923.953 2.61695 -3.39432 0
M  V30 9533 H 928.137 2.39154 -4.34878 0
M  V30 9534 H 923.393 2.11825 -5.73533 0
M  V30 9535 H 927.567 1.90307 -6.69893 0
M  V30 9536 H 925.194 1.76115 -7.39519 0
M  V30 9537 N 926.769 1.22769 0.988202 0
M  V30 9538 C 927.716 1.00195 2.07917 0
M  V30 9539 C 928.686 -0.0779391 1.65917 0
M  V30 9540 O 929.871 0.0726005 1.90662 0
M  V30 9541 C 927.011 0.590853 3.40004 0
M  V30 9542 C 926.124 1.74202 3.9532 0
M  V30 9543 C 925.259 1.27846 5.15586 0
M  V30 9544 C 924.298 2.40087 5.63049 0
M  V30 9545 N 923.435 1.94744 6.74551 0
M  V30 9546 H 928.275 1.93581 2.26562 0
M  V30 9547 H 925.812 0.96448 1.11068 0
M  V30 9548 H 927.77 0.333653 4.15864 0
M  V30 9549 H 926.4 -0.306007 3.21346 0
M  V30 9550 H 925.452 2.11342 3.16289 0
M  V30 9551 H 926.764 2.58612 4.26522 0
M  V30 9552 H 925.918 0.978919 5.9875 0
M  V30 9553 H 924.657 0.404617 4.86019 0
M  V30 9554 H 923.662 2.70824 4.78471 0
M  V30 9555 H 924.887 3.27995 5.9464 0
M  V30 9556 H 922.833 1.09729 6.46758 0
M  V30 9557 H 922.75 2.72718 7.05096 0
M  V30 9558 H 924.018 1.67873 7.61209 0
M  V30 9559 N 928.247 -1.18576 1.03814 0
M  V30 9560 C 929.493 -1.88773 0.741132 0
M  V30 9561 C 929.826 -1.79993 -0.729127 0
M  V30 9562 O 929.101 -1.19851 -1.53186 0
M  V30 9563 C 929.384 -3.39352 1.20468 0
M  V30 9564 C 929.237 -3.56955 2.73684 0
M  V30 9565 C 930.556 -4.32901 0.792741 0
M  V30 9566 H 927.675 -0.685482 0.270708 0
M  V30 9567 H 930.317 -1.39523 1.2897 0
M  V30 9568 H 928.467 -3.81427 0.737974 0
M  V30 9569 H 930.139 -3.2399 3.28372 0
M  V30 9570 H 928.382 -2.99696 3.13632 0
M  V30 9571 H 929.053 -4.62598 3.01176 0
M  V30 9572 H 931.529 -3.98592 1.1943 0
M  V30 9573 H 930.405 -5.36828 1.14486 0
M  V30 9574 H 930.666 -4.41052 -0.304295 0
M  V30 9575 N 929.725 -0.817259 -1.34754 0
M  V30 9576 C 931.141 -0.502309 -1.51489 0
M  V30 9577 C 931.341 0.974568 -1.76364 0
M  V30 9578 O 930.397 1.75924 -1.81127 0
M  V30 9579 C 931.71 -1.35693 -2.68343 0
M  V30 9580 C 933.258 -1.35347 -2.82224 0
M  V30 9581 C 933.733 -2.19244 -4.02114 0
M  V30 9582 N 935.224 -2.16837 -4.09311 0
M  V30 9583 C 935.959 -2.78505 -5.01221 0
M  V30 9584 N 935.455 -3.4914 -5.98392 0
M  V30 9585 N 937.248 -2.68089 -4.94049 0
M  V30 9586 H 929.399 -1.77359 -1.16866 0
M  V30 9587 H 931.662 -0.755476 -0.572678 0
M  V30 9588 H 931.368 -2.40548 -2.56573 0
M  V30 9589 H 931.242 -1.01764 -3.63213 0
M  V30 9590 H 933.629 -0.312727 -2.93438 0
M  V30 9591 H 933.71 -1.7327 -1.88179 0
M  V30 9592 H 933.354 -3.23365 -3.9166 0
M  V30 9593 H 933.284 -1.78675 -4.95361 0
M  V30 9594 H 935.775 -1.65452 -3.39756 0
M  V30 9595 H 936.088 -3.93455 -6.65141 0
M  V30 9596 H 934.433 -3.53246 -5.98533 0
M  V30 9597 H 937.624 -2.12485 -4.17094 0
M  V30 9598 H 937.797 -3.16436 -5.65484 0
M  V30 9599 N 931.203 1.46865 -0.571711 0
M  V30 9600 C 932.136 2.27176 0.215944 0
M  V30 9601 C 933.114 1.34951 0.907035 0
M  V30 9602 O 934.298 1.64349 0.923127 0
M  V30 9603 C 931.425 3.12388 1.30888 0
M  V30 9604 C 930.471 4.20296 0.724804 0
M  V30 9605 S 931.304 5.33691 -0.439839 0
M  V30 9606 C 932.46 6.22468 0.654564 0
M  V30 9607 H 932.693 2.93633 -0.465518 0
M  V30 9608 H 930.226 1.50184 -0.358351 0
M  V30 9609 H 932.184 3.62049 1.93471 0
M  V30 9610 H 930.845 2.45265 1.96224 0
M  V30 9611 H 930.038 4.79703 1.54599 0
M  V30 9612 H 929.64 3.73591 0.174861 0
M  V30 9613 H 931.932 6.59694 1.54304 0
M  V30 9614 H 932.875 7.08033 0.0975111 0
M  V30 9615 H 933.283 5.56384 0.953762 0
M  V30 9616 N 932.681 0.308908 1.54543 0
M  V30 9617 C 933.911 -0.299983 2.04411 0
M  V30 9618 C 934.319 -1.47463 1.18538 0
M  V30 9619 O 933.662 -1.82547 0.205463 0
M  V30 9620 C 933.724 -0.811579 3.50219 0
M  V30 9621 C 933.388 0.238834 4.56375 0
M  V30 9622 C 934.385 1.06997 5.08771 0
M  V30 9623 C 932.07 0.382808 5.00839 0
M  V30 9624 C 934.064 2.03096 6.04178 0
M  V30 9625 C 931.751 1.34723 5.96065 0
M  V30 9626 C 932.749 2.16978 6.47618 0
M  V30 9627 O 932.437 3.11783 7.40977 0
M  V30 9628 H 932.169 -0.0679682 0.672574 0
M  V30 9629 H 934.723 0.448815 2.00437 0
M  V30 9630 H 932.953 -1.61104 3.51543 0
M  V30 9631 H 934.642 -1.33721 3.83241 0
M  V30 9632 H 935.408 0.969654 4.75208 0
M  V30 9633 H 931.287 -0.247507 4.60335 0
M  V30 9634 H 934.831 2.67338 6.44342 0
M  V30 9635 H 930.728 1.44824 6.29044 0
M  V30 9636 H 931.496 3.06853 7.58804 0
M  V30 9637 N 934.159 -1.57557 0.0367827 0
M  V30 9638 C 935.405 -1.92399 -0.641133 0
M  V30 9639 C 935.738 -0.914191 -1.71336 0
M  V30 9640 O 935.013 0.0619616 -1.94401 0
M  V30 9641 C 935.296 -3.37689 -1.25052 0
M  V30 9642 C 935.149 -4.4941 -0.187326 0
M  V30 9643 C 936.468 -3.8309 -2.16634 0
M  V30 9644 H 933.587 -0.699666 -0.231597 0
M  V30 9645 H 936.229 -1.89759 0.0956083 0
M  V30 9646 H 934.379 -3.40069 -1.87843 0
M  V30 9647 H 936.051 -4.59161 0.443736 0
M  V30 9648 H 934.294 -4.31065 0.486313 0
M  V30 9649 H 934.965 -5.48119 -0.653459 0
M  V30 9650 H 937.441 -3.82494 -1.63821 0
M  V30 9651 H 936.317 -4.85429 -2.56222 0
M  V30 9652 H 936.578 -3.19028 -3.06062 0
M  V30 9653 N 935.637 0.236453 -1.55816 0
M  V30 9654 C 936.885 0.96111 -1.77784 0
M  V30 9655 C 937.206 1.85454 -0.602648 0
M  V30 9656 O 936.476 1.92157 0.381137 0
M  V30 9657 H 935.056 0.35787 -0.655697 0
M  V30 9658 H 937.718 0.251888 -1.93265 0
M  V30 9659 H 936.814 1.5767 -2.69345 0
M  V30 9660 N 937.115 1.49373 0.502552 0
M  V30 9661 C 938.363 1.58467 1.25429 0
M  V30 9662 C 938.684 0.272593 1.93085 0
M  V30 9663 O 937.954 -0.707947 1.82661 0
M  V30 9664 H 936.534 0.583866 0.46595 0
M  V30 9665 H 939.196 1.8599 0.582568 0
M  V30 9666 H 938.292 2.37993 2.01906 0
M  V30 9667 N 938.594 -0.753485 1.38421 0
M  V30 9668 C 939.84 -1.51485 1.34834 0
M  V30 9669 C 940.173 -1.94102 -0.0615381 0
M  V30 9670 O 939.448 -1.65439 -1.02274 0
M  V30 9671 C 939.731 -2.76736 2.30411 0
M  V30 9672 C 939.584 -2.40256 3.80259 0
M  V30 9673 C 940.903 -3.7876 2.24119 0
M  V30 9674 H 938.022 -0.549534 0.491102 0
M  V30 9675 H 940.664 -0.863006 1.6927 0
M  V30 9676 H 938.814 -3.32357 2.01175 0
M  V30 9677 H 940.486 -1.90409 4.20169 0
M  V30 9678 H 938.729 -1.72714 3.97935 0
M  V30 9679 H 939.4 -3.29869 4.42595 0
M  V30 9680 H 941.876 -3.32679 2.49928 0
M  V30 9681 H 940.752 -4.64092 2.93104 0
M  V30 9682 H 941.013 -4.24352 1.24006 0
M  V30 9683 N 940.072 -1.23292 -0.981677 0
M  V30 9684 C 940.982 -1.02964 -2.10798 0
M  V30 9685 C 941.998 0.0254674 -1.73981 0
M  V30 9686 O 943.174 -0.169706 -2.00684 0
M  V30 9687 C 940.239 -0.621934 -3.41076 0
M  V30 9688 C 939.3 -1.75194 -3.91926 0
M  V30 9689 C 938.533 -1.36359 -5.15986 0
M  V30 9690 O 938.756 -0.247265 -5.69864 0
M  V30 9691 O 937.69 -2.18421 -5.60871 0
M  V30 9692 H 941.516 -1.97354 -2.30836 0
M  V30 9693 H 939.101 -1.01986 -1.09175 0
M  V30 9694 H 940.983 -0.405446 -4.19445 0
M  V30 9695 H 939.658 0.29299 -3.22371 0
M  V30 9696 H 938.565 -2.02305 -3.1468 0
M  V30 9697 H 939.898 -2.64513 -4.15083 0
M  V30 9698 N 941.55 1.18024 -1.04442 0
M  V30 9699 C 942.5 2.19714 -0.609069 0
M  V30 9700 C 943.484 1.57037 0.350473 0
M  V30 9701 O 944.676 1.76192 0.16892 0
M  V30 9702 C 941.805 3.43293 0.0225911 0
M  V30 9703 C 940.891 4.13084 -0.960325 0
M  V30 9704 N 941.282 4.58819 -2.12883 0
M  V30 9705 C 939.58 4.38999 -0.787146 0
M  V30 9706 C 940.281 5.12589 -2.75004 0
M  V30 9707 N 939.257 5.04333 -2.02853 0
M  V30 9708 H 943.059 2.5277 -1.49948 0
M  V30 9709 H 940.573 1.34271 -0.913517 0
M  V30 9710 H 942.57 4.1541 0.352196 0
M  V30 9711 H 941.23 3.11731 0.908495 0
M  V30 9712 H 942.241 4.53148 -2.50754 0
M  V30 9713 H 938.918 4.17472 0.048348 0
M  V30 9714 H 940.308 5.58152 -3.74053 0
M  V30 9715 N 943.028 0.824394 1.34319 0
M  V30 9716 C 944.444 0.510336 1.51221 0
M  V30 9717 C 944.644 -0.965201 1.76879 0
M  V30 9718 O 943.7 -1.74961 1.82057 0
M  V30 9719 C 945.013 1.37114 2.6762 0
M  V30 9720 C 946.561 1.36842 2.81502 0
M  V30 9721 C 947.036 2.21374 4.00946 0
M  V30 9722 N 948.527 2.19005 4.08156 0
M  V30 9723 C 949.262 2.81159 4.99737 0
M  V30 9724 N 948.758 3.52309 5.96532 0
M  V30 9725 N 950.551 2.70706 4.9262 0
M  V30 9726 H 942.702 1.77976 1.15924 0
M  V30 9727 H 944.965 0.758503 0.568663 0
M  V30 9728 H 944.671 2.41905 2.55294 0
M  V30 9729 H 944.545 1.03689 3.62669 0
M  V30 9730 H 946.932 0.328284 2.93268 0
M  V30 9731 H 947.013 1.74265 1.87257 0
M  V30 9732 H 946.657 3.25437 3.8994 0
M  V30 9733 H 946.587 1.813 4.94407 0
M  V30 9734 H 949.078 1.67252 3.38874 0
M  V30 9735 H 949.391 3.96977 6.63045 0
M  V30 9736 H 947.736 3.56415 5.96652 0
M  V30 9737 H 950.927 2.14694 4.15962 0
M  V30 9738 H 951.1 3.19431 5.63798 0
M  V30 9739 N 944.506 -1.46559 0.579492 0
M  V30 9740 C 945.436 -2.33059 -0.143437 0
M  V30 9741 C 946.417 -1.4515 -0.886868 0
M  V30 9742 O 947.602 -1.73973 -0.862961 0
M  V30 9743 C 944.732 -3.27364 -1.15973 0
M  V30 9744 C 943.686 -4.24689 -0.531348 0
M  V30 9745 C 943.012 -5.08479 -1.65388 0
M  V30 9746 C 944.312 -5.1961 0.529391 0
M  V30 9747 H 946.006 -2.93753 0.578762 0
M  V30 9748 H 943.552 -1.41256 0.279775 0
M  V30 9749 H 945.505 -3.86732 -1.67382 0
M  V30 9750 H 944.229 -2.64771 -1.91217 0
M  V30 9751 H 942.888 -3.6658 -0.0383749 0
M  V30 9752 H 942.536 -4.42273 -2.3959 0
M  V30 9753 H 942.236 -5.74387 -1.23909 0
M  V30 9754 H 943.76 -5.70709 -2.17079 0
M  V30 9755 H 945.174 -5.73212 0.100506 0
M  V30 9756 H 943.571 -5.93843 0.86432 0
M  V30 9757 H 944.641 -4.63737 1.4169 0
M  V30 9758 N 945.984 -0.3171 -1.54377 0
M  V30 9759 C 946.932 0.567371 -2.25574 0
M  V30 9760 C 947.926 1.12387 -1.2675 0
M  V30 9761 O 949.132 1.07266 -1.44548 0
M  V30 9762 H 945.507 0.201605 -0.724472 0
M  V30 9763 H 947.478 -0.0554644 -2.98348 0
M  V30 9764 C 946.227 1.71984 -3.02187 0
M  V30 9765 H 945.55 1.30086 -3.78044 0
M  V30 9766 H 946.99 2.31443 -3.5526 0
M  V30 9767 C 945.449 2.6336 -2.10103 0
M  V30 9768 O 945.979 3.64899 -1.67962 0
M  V30 9769 N 944.185 2.3145 -1.75725 0
M  V30 9770 H 943.732 1.48921 -2.10191 0
M  V30 9771 H 943.69 2.92852 -1.14391 0
M  V30 9772 N 947.462 1.57535 -0.0451378 0
M  V30 9773 C 948.425 2.1008 0.916461 0
M  V30 9774 C 949.425 1.01913 1.2438 0
M  V30 9775 O 950.615 1.2801 1.18148 0
M  V30 9776 C 947.747 2.58001 2.22818 0
M  V30 9777 H 948.94 2.96334 0.461076 0
M  V30 9778 H 946.493 1.54974 0.203169 0
M  V30 9779 H 947.228 1.75123 2.72951 0
M  V30 9780 H 947.013 3.3704 2.00366 0
M  V30 9781 H 948.503 2.98822 2.9171 0
M  V30 9782 N 948.94 -0.228186 1.55939 0
M  V30 9783 C 949.903 -1.26621 1.91049 0
M  V30 9784 C 950.903 -1.40141 0.788491 0
M  V30 9785 O 952.093 -1.3852 1.05631 0
M  V30 9786 C 949.225 -2.64108 2.15545 0
M  V30 9787 H 950.418 -0.966978 2.83883 0
M  V30 9788 H 947.971 -0.468313 1.49119 0
M  V30 9789 H 948.706 -2.99141 1.25241 0
M  V30 9790 H 948.491 -2.55673 2.97277 0
M  V30 9791 H 949.981 -3.39025 2.43827 0
M  V30 9792 N 950.418 -1.49637 -0.494624 0
M  V30 9793 C 951.658 -1.61067 -1.25844 0
M  V30 9794 C 952.022 -0.293666 -1.89741 0
M  V30 9795 O 953.223 -0.283202 -2.67304 0
M  V30 9796 C 951.494 -2.74218 -2.29215 0
M  V30 9797 S 953.053 -3.05639 -3.1485 0
M  V30 9798 H 949.871 -0.568056 -0.42759 0
M  V30 9799 H 952.473 -1.87323 -0.559491 0
M  V30 9800 H 951.177 -3.68422 -1.80813 0
M  V30 9801 H 950.708 -2.49975 -3.0377 0
M  V30 9802 H 952.723 -2.47651 -4.29981 0
M  V30 9803 N 951.896 0.746133 -1.38819 0
M  V30 9804 C 952.844 1.88137 -1.36774 0
M  V30 9805 C 953.838 1.67508 -0.252495 0
M  V30 9806 O 955.044 1.74985 -0.421935 0
M  V30 9807 H 951.419 0.619116 -0.426849 0
M  V30 9808 H 953.39 1.86978 -2.32555 0
M  V30 9809 C 952.139 3.25703 -1.21708 0
M  V30 9810 H 951.462 3.42168 -2.06788 0
M  V30 9811 H 952.902 4.05361 -1.24332 0
M  V30 9812 C 951.361 3.36816 0.0754257 0
M  V30 9813 O 951.891 3.87742 1.04972 0
M  V30 9814 N 950.097 2.90287 0.134761 0
M  V30 9815 H 949.644 2.49034 -0.658779 0
M  V30 9816 H 949.602 2.98103 0.999109 0
M  V30 9817 N 953.375 1.23811 0.975125 0
M  V30 9818 C 954.621 1.08502 1.72043 0
M  V30 9819 C 954.976 -0.373437 1.88741 0
M  V30 9820 O 954.269 -1.27248 1.43243 0
M  V30 9821 C 954.463 1.74994 3.11628 0
M  V30 9822 C 954.292 3.27155 3.08544 0
M  V30 9823 C 953.062 3.96338 3.1344 0
M  V30 9824 C 955.26 4.23851 2.91299 0
M  V30 9825 N 953.242 5.35439 3.00297 0
M  V30 9826 C 954.613 5.499 2.86375 0
M  V30 9827 C 956.668 4.14519 2.75824 0
M  V30 9828 C 955.371 6.67687 2.67558 0
M  V30 9829 C 957.397 5.31975 2.58372 0
M  V30 9830 C 956.759 6.56953 2.5415 0
M  V30 9831 H 952.858 0.451607 0.638416 0
M  V30 9832 H 955.442 1.56617 1.15669 0
M  V30 9833 H 953.613 1.29404 3.66209 0
M  V30 9834 H 955.345 1.52614 3.74822 0
M  V30 9835 H 952.1 3.47453 3.21828 0
M  V30 9836 H 952.524 6.08381 2.96987 0
M  V30 9837 H 957.166 3.18662 2.77874 0
M  V30 9838 H 954.884 7.63673 2.64251 0
M  V30 9839 H 958.47 5.266 2.47354 0
M  V30 9840 H 957.35 7.46309 2.40817 0
M  V30 9841 N 954.853 -1.17469 1.05066 0
M  V30 9842 C 956.081 -1.9162 0.780334 0
M  V30 9843 C 956.496 -1.76745 -0.663817 0
M  V30 9844 O 955.853 -1.10377 -1.45338 0
M  V30 9845 C 955.904 -3.42723 1.14992 0
M  V30 9846 O 955.625 -3.57139 2.53739 0
M  V30 9847 C 957.126 -4.33952 0.905549 0
M  V30 9848 H 954.346 -0.608022 0.283814 0
M  V30 9849 H 956.89 -1.4897 1.401 0
M  V30 9850 H 955.045 -3.83124 0.57403 0
M  V30 9851 H 955.459 -4.5075 2.68189 0
M  V30 9852 H 956.933 -5.38487 1.21391 0
M  V30 9853 H 957.41 -4.38911 -0.159295 0
M  V30 9854 H 958.016 -3.99263 1.46522 0
M  V30 9855 N 956.331 -0.831506 -1.3388 0
M  V30 9856 C 957.747 -0.518349 -1.50948 0
M  V30 9857 C 957.947 0.955807 -1.77388 0
M  V30 9858 O 957.003 1.73993 -1.82983 0
M  V30 9859 C 958.316 -1.38531 -2.66889 0
M  V30 9860 C 959.864 -1.38332 -2.80772 0
M  V30 9861 C 960.339 -2.23497 -3.99766 0
M  V30 9862 N 961.83 -2.21167 -4.06988 0
M  V30 9863 C 962.565 -2.83805 -4.98239 0
M  V30 9864 N 962.061 -3.55468 -5.94655 0
M  V30 9865 N 963.854 -2.73314 -4.91178 0
M  V30 9866 H 956.005 -1.78588 -1.14978 0
M  V30 9867 H 958.268 -0.761508 -0.564633 0
M  V30 9868 H 957.974 -2.43255 -2.54007 0
M  V30 9869 H 957.848 -1.05611 -3.62114 0
M  V30 9870 H 960.235 -0.343832 -2.9309 0
M  V30 9871 H 960.316 -1.75256 -1.86331 0
M  V30 9872 H 959.96 -3.27501 -3.88208 0
M  V30 9873 H 959.89 -1.83919 -4.93438 0
M  V30 9874 H 962.381 -1.69046 -3.37982 0
M  V30 9875 H 962.694 -4.00487 -6.60931 0
M  V30 9876 H 961.039 -3.59575 -5.94753 0
M  V30 9877 H 964.23 -2.16897 -4.14817 0
M  V30 9878 H 964.403 -3.22416 -5.62096 0
M  V30 9879 N 957.809 1.4625 -0.587256 0
M  V30 9880 C 959.057 2.01963 -0.0744273 0
M  V30 9881 C 959.378 1.46065 1.29189 0
M  V30 9882 O 958.648 0.647077 1.84905 0
M  V30 9883 H 957.228 0.746597 -0.0245236 0
M  V30 9884 H 959.89 1.79299 -0.764063 0
M  V30 9885 H 958.986 3.12099 -0.00884894 0
M  V30 9886 N 959.287 0.325282 1.54207 0
M  V30 9887 C 960.197 -0.548778 2.28091 0
M  V30 9888 C 961.213 -1.12772 1.32508 0
M  V30 9889 O 962.389 -1.14732 1.65525 0
M  V30 9890 C 959.454 -1.69284 3.02562 0
M  V30 9891 C 958.515 -1.14553 4.13734 0
M  V30 9892 C 957.748 -2.23506 4.84645 0
M  V30 9893 O 957.971 -3.43884 4.55082 0
M  V30 9894 O 956.905 -1.88828 5.71513 0
M  V30 9895 H 960.731 0.0512974 3.03657 0
M  V30 9896 H 958.316 0.0909159 1.49123 0
M  V30 9897 H 960.198 -2.35887 3.49192 0
M  V30 9898 H 958.873 -2.27906 2.2987 0
M  V30 9899 H 957.78 -0.444532 3.71449 0
M  V30 9900 H 959.113 -0.60441 4.88475 0
M  V30 9901 N 960.765 -1.57509 0.0534917 0
M  V30 9902 C 962.181 -1.56696 -0.303067 0
M  V30 9903 C 962.381 -1.06135 -1.71282 0
M  V30 9904 O 961.437 -0.71899 -2.42047 0
M  V30 9905 C 962.75 -3.00421 -0.129418 0
M  V30 9906 C 964.298 -3.12358 -0.200346 0
M  V30 9907 C 964.773 -4.57967 -0.0551971 0
M  V30 9908 N 966.264 -4.63066 -0.111398 0
M  V30 9909 C 966.999 -5.73395 -0.0232344 0
M  V30 9910 N 966.495 -6.92701 0.11741 0
M  V30 9911 N 968.288 -5.62045 -0.078984 0
M  V30 9912 H 960.439 -1.88696 0.975064 0
M  V30 9913 H 962.702 -0.869072 0.378706 0
M  V30 9914 H 962.408 -3.41456 0.842653 0
M  V30 9915 H 962.282 -3.66563 -0.889476 0
M  V30 9916 H 964.669 -2.71221 -1.16289 0
M  V30 9917 H 964.75 -2.48891 0.590506 0
M  V30 9918 H 964.394 -4.9979 0.904034 0
M  V30 9919 H 964.324 -5.19443 -0.865223 0
M  V30 9920 H 966.815 -3.77263 -0.219256 0
M  V30 9921 H 967.128 -7.72597 0.177326 0
M  V30 9922 H 965.473 -6.94833 0.152526 0
M  V30 9923 H 968.664 -4.67725 -0.187434 0
M  V30 9924 H 968.837 -6.48 -0.00681731 0
M  V30 9925 N 962.243 0.219913 -1.56058 0
M  V30 9926 C 963.483 0.951113 -1.80923 0
M  V30 9927 C 963.847 1.81465 -0.627247 0
M  V30 9928 O 965.048 2.57972 -0.755237 0
M  V30 9929 C 963.319 1.76652 -3.10691 0
M  V30 9930 S 964.878 2.55314 -3.56876 0
M  V30 9931 H 961.696 0.319461 -0.635189 0
M  V30 9932 H 964.298 0.216551 -1.94297 0
M  V30 9933 H 963.002 1.12231 -3.94756 0
M  V30 9934 H 962.533 2.54335 -3.00128 0
M  V30 9935 H 964.548 3.78938 -3.20344 0
M  V30 9936 N 963.721 1.49897 0.486681 0
M  V30 9937 C 964.998 1.50614 1.24799 0
M  V30 9938 C 965.378 0.24193 2.09709 0
M  V30 9939 O 964.726 -0.775237 2.14947 0
M  V30 9940 C 964.936 2.79318 2.09243 0
M  V30 9941 C 966.284 3.29371 2.67955 0
M  V30 9942 O 967.308 2.80533 2.19499 0
M  V30 9943 O 966.167 4.14466 3.56202 0
M  V30 9944 H 963.261 0.603447 0.565491 0
M  V30 9945 H 965.807 1.62174 0.499778 0
M  V30 9946 H 964.579 3.62812 1.46572 0
M  V30 9947 H 964.202 2.70687 2.91229 0
M  V30 9948 N 965.199 -0.738761 1.39212 0
M  V30 9949 C 966.129 -1.86602 1.40364 0
M  V30 9950 C 967.11 -1.67984 0.267495 0
M  V30 9951 O 968.295 -1.88358 0.472765 0
M  V30 9952 C 965.425 -3.24308 1.24265 0
M  V30 9953 C 964.379 -3.57557 2.35239 0
M  V30 9954 C 963.705 -4.94159 2.04233 0
M  V30 9955 C 965.005 -3.60914 3.77543 0
M  V30 9956 H 966.699 -1.85896 2.34698 0
M  V30 9957 H 964.245 -0.892959 1.1297 0
M  V30 9958 H 966.198 -4.02838 1.23692 0
M  V30 9959 H 964.922 -3.25531 0.263974 0
M  V30 9960 H 963.581 -2.81354 2.35022 0
M  V30 9961 H 963.229 -4.91959 1.04813 0
M  V30 9962 H 962.929 -5.17373 2.78567 0
M  V30 9963 H 964.453 -5.7505 2.05303 0
M  V30 9964 H 965.867 -4.29528 3.79709 0
M  V30 9965 H 964.264 -3.95644 4.51205 0
M  V30 9966 H 965.334 -2.60803 4.08791 0
M  V30 9967 N 966.677 -1.24326 -0.968545 0
M  V30 9968 C 967.587 -1.05194 -2.09694 0
M  V30 9969 C 968.603 0.00701291 -1.73999 0
M  V30 9970 O 969.779 -0.190981 -2.00492 0
M  V30 9971 C 966.844 -0.658075 -3.40397 0
M  V30 9972 C 965.905 -1.79341 -3.90045 0
M  V30 9973 C 965.138 -1.41824 -5.14511 0
M  V30 9974 O 965.361 -0.307693 -5.69569 0
M  V30 9975 O 964.295 -2.24358 -5.58522 0
M  V30 9976 H 968.121 -1.99791 -2.2873 0
M  V30 9977 H 965.706 -1.03138 -1.08088 0
M  V30 9978 H 967.588 -0.449911 -4.18991 0
M  V30 9979 H 966.263 0.258782 -3.22664 0
M  V30 9980 H 965.17 -2.05632 -3.12516 0
M  V30 9981 H 966.503 -2.68901 -4.12254 0
M  V30 9982 N 968.156 1.1691 -1.05688 0
M  V30 9983 C 969.433 1.83266 -0.683601 0
M  V30 9984 C 969.813 1.93858 0.835602 0
M  V30 9985 O 969.161 1.47696 1.7435 0
M  V30 9986 C 969.371 3.20625 -1.37842 0
M  V30 9987 C 970.719 3.96473 -1.51967 0
M  V30 9988 O 971.743 3.30122 -1.33783 0
M  V30 9989 O 970.602 5.15393 -1.81749 0
M  V30 9990 H 967.696 0.791028 -0.241254 0
M  V30 9991 H 970.242 1.24165 -1.15677 0
M  V30 9992 H 969.014 3.07914 -2.41463 0
M  V30 9993 H 968.637 3.87398 -0.894921 0
M  V30 9994 N 969.634 0.838594 1.33437 0
M  V30 9995 C 971.05 0.526347 1.50671 0
M  V30 9996 C 971.25 -0.946387 1.77893 0
M  V30 9997 O 970.306 -1.7302 1.83903 0
M  V30 9998 C 971.619 1.39945 2.6615 0
M  V30 9999 C 973.167 1.3982 2.80035 0
M  V30 10000 C 973.642 2.25614 3.98576 0
M  V30 10001 N 975.133 2.23322 4.0581 0
M  V30 10002 C 975.868 2.86443 4.96727 0
M  V30 10003 N 975.364 3.58616 5.92762 0
M  V30 10004 N 977.157 2.75915 4.89722 0
M  V30 10005 H 969.308 1.79195 1.1403 0
M  V30 10006 H 971.571 0.764491 0.560586 0
M  V30 10007 H 971.277 2.44599 2.52714 0
M  V30 10008 H 971.151 1.07529 3.61548 0
M  V30 10009 H 973.538 0.35937 2.92904 0
M  V30 10010 H 973.619 1.76241 1.85399 0
M  V30 10011 H 973.263 3.29555 3.86466 0
M  V30 10012 H 973.193 1.86533 4.92456 0
M  V30 10013 H 975.684 1.70836 3.37081 0
M  V30 10014 H 975.997 4.03987 6.58798 0
M  V30 10015 H 974.342 3.62724 5.92838 0
M  V30 10016 H 977.533 2.19094 4.13661 0
M  V30 10017 H 977.706 3.25393 5.60378 0
M  V30 10018 N 971.112 -1.45937 0.595003 0
M  V30 10019 C 972.389 -1.95592 0.0178748 0
M  V30 10020 C 972.769 -1.53758 -1.44643 0
M  V30 10021 O 972.117 -0.794104 -2.14257 0
M  V30 10022 C 972.327 -3.4841 0.202789 0
M  V30 10023 C 973.675 -4.2453 0.0770121 0
M  V30 10024 O 974.699 -3.55954 0.132257 0
M  V30 10025 O 973.558 -5.46479 -0.0484271 0
M  V30 10026 H 970.652 -0.825888 -0.0428702 0
M  V30 10027 H 973.198 -1.56162 0.664184 0
M  V30 10028 H 971.97 -3.71787 1.22027 0
M  V30 10029 H 971.593 -3.947 -0.479376 0
M  V30 10030 N 972.59 -0.333456 -1.54032 0
M  V30 10031 C 974.006 0.0188405 -1.59589 0
M  V30 10032 C 974.206 1.49615 -1.34972 0
M  V30 10033 O 973.262 2.2535 -1.13901 0
M  V30 10034 C 974.575 -0.408273 -2.97915 0
M  V30 10035 C 976.123 -0.359763 -3.10926 0
M  V30 10036 C 976.598 -0.76219 -4.51613 0
M  V30 10037 N 978.089 -0.715981 -4.57633 0
M  V30 10038 C 978.824 -0.999436 -5.64623 0
M  V30 10039 N 978.32 -1.35053 -6.79509 0
M  V30 10040 N 980.113 -0.924343 -5.54448 0
M  V30 10041 H 972.264 -1.29587 -1.68289 0
M  V30 10042 H 974.527 -0.527584 -0.787629 0
M  V30 10043 H 974.233 -1.43793 -3.20962 0
M  V30 10044 H 974.107 0.221685 -3.76548 0
M  V30 10045 H 976.494 0.660703 -2.87609 0
M  V30 10046 H 976.575 -1.02479 -2.34375 0
M  V30 10047 H 976.219 -1.78062 -4.75664 0
M  V30 10048 H 976.149 -0.0747478 -5.26547 0
M  V30 10049 H 978.64 -0.456875 -3.75128 0
M  V30 10050 H 978.953 -1.55194 -7.57057 0
M  V30 10051 H 977.298 -1.38889 -6.80981 0
M  V30 10052 H 980.489 -0.649469 -4.63573 0
M  V30 10053 H 980.662 -1.1486 -6.37739 0
M  V30 10054 N 974.068 1.57479 -0.061844 0
M  V30 10055 C 975.293 1.97843 0.622311 0
M  V30 10056 C 975.718 0.939602 1.62951 0
M  V30 10057 O 975.076 -0.095958 1.81046 0
M  V30 10058 C 975.124 3.37262 1.2762 0
M  V30 10059 O 974.228 3.35943 2.39199 0
M  V30 10060 H 973.569 0.644212 0.160896 0
M  V30 10061 H 976.099 2.04165 -0.133409 0
M  V30 10062 H 976.109 3.74226 1.62539 0
M  V30 10063 H 974.784 4.12404 0.538112 0
M  V30 10064 H 973.361 3.10737 2.06148 0
M  V30 10065 N 975.546 -0.211634 1.56173 0
M  V30 10066 C 976.456 -1.2831 1.96402 0
M  V30 10067 C 977.472 -1.50731 0.869254 0
M  V30 10068 O 978.648 -1.63669 1.17365 0
M  V30 10069 C 975.713 -2.61084 2.28114 0
M  V30 10070 C 974.774 -2.46879 3.51211 0
M  V30 10071 C 974.007 -3.73321 3.81401 0
M  V30 10072 O 974.23 -4.76773 3.13119 0
M  V30 10073 O 973.164 -3.69839 4.74871 0
M  V30 10074 H 976.99 -0.971733 2.87734 0
M  V30 10075 H 974.575 -0.415305 1.43512 0
M  V30 10076 H 976.457 -3.39481 2.49661 0
M  V30 10077 H 975.132 -2.91881 1.39954 0
M  V30 10078 H 974.039 -1.66648 3.34932 0
M  V30 10079 H 975.372 -2.21018 4.39786 0
M  V30 10080 N 977.024 -1.50153 -0.478725 0
M  V30 10081 C 977.954 -1.71384 -1.58587 0
M  V30 10082 C 978.935 -0.562705 -1.60523 0
M  V30 10083 O 980.12 -0.80101 -1.76911 0
M  V30 10084 C 977.25 -1.80094 -2.96957 0
M  V30 10085 C 976.204 -2.95218 -3.09888 0
M  V30 10086 C 975.53 -2.89063 -4.49829 0
M  V30 10087 C 976.83 -4.35841 -2.8782 0
M  V30 10088 H 978.524 -2.64081 -1.41073 0
M  V30 10089 H 976.07 -1.27081 -0.677239 0
M  V30 10090 H 978.023 -1.93531 -3.74331 0
M  V30 10091 H 976.747 -0.840131 -3.1561 0
M  V30 10092 H 975.406 -2.81419 -2.34944 0
M  V30 10093 H 975.054 -1.90844 -4.6539 0
M  V30 10094 H 974.754 -3.66345 -4.59418 0
M  V30 10095 H 976.278 -3.04539 -5.29234 0
M  V30 10096 H 977.692 -4.50205 -3.54948 0
M  V30 10097 H 976.089 -5.14515 -3.0886 0
M  V30 10098 H 977.159 -4.48739 -1.83742 0
M  V30 10099 N 978.502 0.731368 -1.39602 0
M  V30 10100 C 979.727 1.52567 -1.40492 0
M  V30 10101 C 980.152 1.881 -0.00228828 0
M  V30 10102 O 979.51 1.52167 0.985643 0
M  V30 10103 C 979.558 2.78749 -2.2876 0
M  V30 10104 O 978.662 3.7482 -1.71999 0
M  V30 10105 H 978.003 0.460601 -0.478271 0
M  V30 10106 H 980.533 0.902042 -1.83642 0
M  V30 10107 H 980.543 3.27446 -2.43399 0
M  V30 10108 H 979.218 2.5222 -3.30693 0
M  V30 10109 H 977.795 3.33604 -1.66622 0
M  V30 10110 N 979.98 1.24838 0.961938 0
M  V30 10111 C 981.391 1.08369 1.5203 0
M  V30 10112 C 981.742 -0.343005 1.93178 0
M  V30 10113 O 980.867 -1.2321 1.779 0
M  V30 10114 C 981.462 1.96102 2.76278 0
M  V30 10115 C 980.021 1.8384 3.28451 0
M  V30 10116 C 979.168 1.9069 2.01327 0
M  V30 10117 H 982.119 1.38231 0.779613 0
M  V30 10118 H 982.14 1.4967 3.49827 0
M  V30 10119 H 981.652 2.99931 2.46298 0
M  V30 10120 H 979.753 0.828653 3.63269 0
M  V30 10121 H 979.866 2.68251 3.96961 0
M  V30 10122 H 978.23 1.34488 2.16299 0
M  V30 10123 H 979.013 2.96111 1.73705 0
M  V30 10124 N 981.458 -1.16348 1.06306 0
M  V30 10125 C 982.388 -2.2291 0.695234 0
M  V30 10126 C 983.369 -1.67208 -0.312343 0
M  V30 10127 O 984.554 -1.93293 -0.187442 0
M  V30 10128 C 981.684 -3.47205 0.0810149 0
M  V30 10129 C 980.638 -4.15801 1.01458 0
M  V30 10130 C 979.964 -5.3405 0.263656 0
M  V30 10131 C 981.264 -4.66766 2.34365 0
M  V30 10132 H 982.958 -2.53934 1.58613 0
M  V30 10133 H 980.504 -1.22056 0.76409 0
M  V30 10134 H 982.457 -4.2098 -0.18818 0
M  V30 10135 H 981.181 -3.15482 -0.844897 0
M  V30 10136 H 979.84 -3.43954 1.26852 0
M  V30 10137 H 979.488 -4.9858 -0.665378 0
M  V30 10138 H 979.188 -5.80885 0.88582 0
M  V30 10139 H 980.712 -6.106 0.00200994 0
M  V30 10140 H 982.126 -5.3212 2.13356 0
M  V30 10141 H 980.523 -5.24223 2.9208 0
M  V30 10142 H 981.593 -3.82969 2.97426 0
M  V30 10143 N 982.937 -0.845659 -1.3299 0
M  V30 10144 C 983.867 -0.298957 -2.31578 0
M  V30 10145 C 984.848 0.597012 -1.59279 0
M  V30 10146 O 986.033 0.519142 -1.87132 0
M  V30 10147 C 983.163 0.521109 -3.43368 0
M  V30 10148 C 982.117 -0.279651 -4.27085 0
M  V30 10149 C 981.443 0.664591 -5.30554 0
M  V30 10150 C 982.743 -1.50046 -5.00283 0
M  V30 10151 H 984.437 -1.12272 -2.77552 0
M  V30 10152 H 981.983 -0.54132 -1.33438 0
M  V30 10153 H 983.936 0.913921 -4.1137 0
M  V30 10154 H 982.66 1.37815 -2.96099 0
M  V30 10155 H 981.319 -0.654106 -3.60717 0
M  V30 10156 H 980.967 1.51822 -4.79541 0
M  V30 10157 H 980.667 0.132871 -5.8745 0
M  V30 10158 H 982.191 1.05477 -6.01421 0
M  V30 10159 H 983.605 -1.18044 -5.61016 0
M  V30 10160 H 982.002 -1.96946 -5.66862 0
M  V30 10161 H 983.072 -2.26659 -4.28665 0
M  V30 10162 N 984.415 1.45619 -0.602734 0
M  V30 10163 C 985.345 2.33258 0.106342 0
M  V30 10164 C 986.326 1.46543 0.863664 0
M  V30 10165 O 987.511 1.75324 0.835175 0
M  V30 10166 C 984.641 3.29168 1.10751 0
M  V30 10167 C 983.595 4.25481 0.463717 0
M  V30 10168 C 982.921 5.11046 1.57278 0
M  V30 10169 C 984.221 5.18702 -0.61199 0
M  V30 10170 H 985.915 2.92795 -0.625423 0
M  V30 10171 H 983.461 1.40793 -0.302213 0
M  V30 10172 H 985.414 3.89346 1.61208 0
M  V30 10173 H 984.138 2.6778 1.8698 0
M  V30 10174 H 982.797 3.66595 -0.0199496 0
M  V30 10175 H 982.445 4.46029 2.32524 0
M  V30 10176 H 982.145 5.76286 1.14755 0
M  V30 10177 H 983.669 5.74091 2.07972 0
M  V30 10178 H 985.083 5.72979 -0.191686 0
M  V30 10179 H 983.48 5.92393 -0.958686 0
M  V30 10180 H 984.55 4.61424 -1.4905 0
M  V30 10181 N 985.893 0.34162 1.53853 0
M  V30 10182 C 987.118 -0.259608 2.05769 0
M  V30 10183 C 987.543 -1.43588 1.21507 0
M  V30 10184 O 986.901 -1.79856 0.228364 0
M  V30 10185 C 986.949 -0.654455 3.54611 0
M  V30 10186 O 986.053 -1.75472 3.73207 0
M  V30 10187 H 985.394 -0.0434621 0.662576 0
M  V30 10188 H 987.924 0.495274 1.98515 0
M  V30 10189 H 987.934 -0.932142 3.97209 0
M  V30 10190 H 986.609 0.205779 4.15391 0
M  V30 10191 H 985.186 -1.47444 3.42512 0
M  V30 10192 N 987.371 -1.57444 0.0701946 0
M  V30 10193 C 988.599 -1.97754 -0.608358 0
M  V30 10194 C 989.014 -0.948496 -1.63245 0
M  V30 10195 O 988.371 0.065046 -1.82384 0
M  V30 10196 C 988.422 -3.38142 -1.27836 0
M  V30 10197 O 988.143 -4.37104 -0.295255 0
M  V30 10198 C 989.644 -3.93318 -2.04489 0
M  V30 10199 H 986.864 -0.650398 -0.164997 0
M  V30 10200 H 989.408 -2.04006 0.142124 0
M  V30 10201 H 987.563 -3.32982 -1.97994 0
M  V30 10202 H 987.977 -5.18732 -0.77574 0
M  V30 10203 H 989.451 -4.93774 -2.46762 0
M  V30 10204 H 989.928 -3.29774 -2.90079 0
M  V30 10205 H 990.534 -4.01875 -1.39201 0
M  V30 10206 N 988.849 0.203349 -1.56283 0
M  V30 10207 C 990.077 0.941426 -1.84241 0
M  V30 10208 C 990.492 1.77197 -0.651658 0
M  V30 10209 O 989.849 1.78506 0.379713 0
M  V30 10210 C 989.9 1.84429 -3.10915 0
M  V30 10211 O 989.621 1.04729 -4.25398 0
M  V30 10212 C 991.122 2.69474 -3.51993 0
M  V30 10213 H 988.342 0.27507 -0.612027 0
M  V30 10214 H 990.886 0.213088 -2.03387 0
M  V30 10215 H 989.041 2.52635 -2.93691 0
M  V30 10216 H 989.455 1.66179 -4.97478 0
M  V30 10217 H 990.929 3.28495 -4.43616 0
M  V30 10218 H 991.406 3.42775 -2.74594 0
M  V30 10219 H 992.012 2.06652 -3.71719 0
M  V30 10220 N 990.327 1.50405 0.470755 0
M  V30 10221 C 991.237 1.7208 1.59454 0
M  V30 10222 C 992.253 0.603932 1.63183 0
M  V30 10223 O 993.429 0.882296 1.81046 0
M  V30 10224 C 990.494 1.81057 2.95667 0
M  V30 10225 C 989.555 3.04792 3.02324 0
M  V30 10226 C 988.788 3.13332 4.3204 0
M  V30 10227 O 989.011 2.28655 5.22564 0
M  V30 10228 O 987.945 4.0606 4.44296 0
M  V30 10229 H 991.771 2.67343 1.44089 0
M  V30 10230 H 989.356 1.34505 0.650286 0
M  V30 10231 H 991.238 1.8914 3.76569 0
M  V30 10232 H 989.913 0.889782 3.11231 0
M  V30 10233 H 988.82 3.0221 2.205 0
M  V30 10234 H 990.153 3.96451 2.91698 0
M  V30 10235 N 991.805 -0.723954 1.39988 0
M  V30 10236 C 993.051 -1.48476 1.3902 0
M  V30 10237 C 993.406 -1.92397 -0.0105439 0
M  V30 10238 O 992.699 -1.64683 -0.979294 0
M  V30 10239 C 992.893 -2.73004 2.30659 0
M  V30 10240 C 992.722 -2.41261 3.79504 0
M  V30 10241 C 991.492 -2.33013 4.48367 0
M  V30 10242 C 993.69 -2.06078 4.71207 0
M  V30 10243 N 991.672 -1.93856 5.82489 0
M  V30 10244 C 993.043 -1.77455 5.94062 0
M  V30 10245 C 995.098 -1.92642 4.59123 0
M  V30 10246 C 993.801 -1.36748 7.06182 0
M  V30 10247 C 995.827 -1.53338 5.71175 0
M  V30 10248 C 995.189 -1.25607 6.93111 0
M  V30 10249 H 991.288 -0.54172 0.563971 0
M  V30 10250 H 993.872 -0.840344 1.75631 0
M  V30 10251 H 992.043 -3.35209 1.96188 0
M  V30 10252 H 993.775 -3.39286 2.20606 0
M  V30 10253 H 990.53 -2.50476 4.01944 0
M  V30 10254 H 990.954 -1.7684 6.53496 0
M  V30 10255 H 995.596 -2.12745 3.65376 0
M  V30 10256 H 993.314 -1.15386 7.9982 0
M  V30 10257 H 996.9 -1.43532 5.63817 0
M  V30 10258 H 995.78 -0.956505 7.78345 0
M  V30 10259 N 993.283 -1.25346 -0.955304 0
M  V30 10260 C 994.215 -1.0146 -2.0552 0
M  V30 10261 C 995.228 0.0202256 -1.62787 0
M  V30 10262 O 996.417 -0.218251 -1.77161 0
M  V30 10263 C 993.517 -0.511727 -3.35014 0
M  V30 10264 C 992.69 -1.61256 -4.0659 0
M  V30 10265 C 991.749 -1.11017 -5.14356 0
M  V30 10266 O 990.775 -1.80443 -5.39842 0
M  V30 10267 N 991.977 0.0489001 -5.80479 0
M  V30 10268 H 994.742 -1.96166 -2.26581 0
M  V30 10269 H 992.303 -1.16543 -1.12381 0
M  V30 10270 H 994.295 -0.160123 -4.04383 0
M  V30 10271 H 992.865 0.341377 -3.1073 0
M  V30 10272 H 992.085 -2.13577 -3.31328 0
M  V30 10273 H 993.373 -2.35213 -4.51168 0
M  V30 10274 H 992.771 0.629021 -5.62192 0
M  V30 10275 H 991.328 0.341542 -6.50905 0
M  V30 10276 N 994.761 1.15782 -1.06922 0
M  V30 10277 C 996.01 1.85807 -0.784774 0
M  V30 10278 C 996.323 1.82967 0.691551 0
M  V30 10279 O 997.529 2.48632 1.0906 0
M  V30 10280 C 995.985 3.33469 -1.35375 0
M  V30 10281 C 995.593 3.44766 -2.86077 0
M  V30 10282 C 997.337 4.08707 -1.14713 0
M  V30 10283 C 995.244 4.86551 -3.36187 0
M  V30 10284 H 994.174 0.696046 -0.28989 0
M  V30 10285 H 996.825 1.30629 -1.28873 0
M  V30 10286 H 995.207 3.88292 -0.77754 0
M  V30 10287 H 996.381 3.00073 -3.49704 0
M  V30 10288 H 994.696 2.82969 -3.05479 0
M  V30 10289 H 997.293 5.13336 -1.49633 0
M  V30 10290 H 997.636 4.16211 -0.0858868 0
M  V30 10291 H 998.169 3.60142 -1.68946 0
M  V30 10292 H 994.908 4.84229 -4.41818 0
M  V30 10293 H 994.428 5.31844 -2.77312 0
M  V30 10294 H 996.107 5.55392 -3.31887 0
M  V30 10295 N 996.239 0.8527 1.3254 0
M  V30 10296 C 997.169 0.311234 2.31416 0
M  V30 10297 C 998.15 -0.588557 1.59593 0
M  V30 10298 O 999.335 -0.509211 1.87405 0
M  V30 10299 C 996.465 -0.502892 3.4364 0
M  V30 10300 C 995.419 0.302296 4.26931 0
M  V30 10301 C 994.745 -0.636445 5.30899 0
M  V30 10302 C 996.045 1.52697 4.99481 0
M  V30 10303 H 997.739 1.13742 2.76953 0
M  V30 10304 H 995.285 0.548389 1.33149 0
M  V30 10305 H 997.238 -0.892092 4.11849 0
M  V30 10306 H 995.962 -1.36242 2.96826 0
M  V30 10307 H 994.621 0.673226 3.60365 0
M  V30 10308 H 994.269 -1.49277 4.80339 0
M  V30 10309 H 993.969 -0.101716 5.87512 0
M  V30 10310 H 995.493 -1.02286 6.01972 0
M  V30 10311 H 996.907 1.21017 5.60382 0
M  V30 10312 H 995.304 1.9995 5.65809 0
M  V30 10313 H 996.374 2.28929 4.27457 0
M  V30 10314 N 997.718 -1.45297 0.610449 0
M  V30 10315 C 999.129 -1.85715 0.191488 0
M  V30 10316 C 999.48 -1.51036 -1.25229 0
M  V30 10317 O 998.605 -0.938422 -1.94994 0
M  V30 10318 C 999.2 -3.37082 0.340747 0
M  V30 10319 C 997.759 -3.76393 -0.0235433 0
M  V30 10320 C 996.906 -2.69237 0.663849 0
M  V30 10321 H 999.857 -1.36058 0.816948 0
M  V30 10322 H 999.878 -3.78105 -0.426233 0
M  V30 10323 H 999.39 -3.62291 1.39164 0
M  V30 10324 H 997.491 -3.56801 -1.07351 0
M  V30 10325 H 997.604 -4.77653 0.372102 0
M  V30 10326 H 995.968 -2.54499 0.101204 0
M  V30 10327 H 996.751 -2.97281 1.71694 0
M  V30 10328 N 999.196 -0.349774 -1.5367 0
M  V30 10329 C 1000.44 0.245095 -2.02925 0
M  V30 10330 C 1000.8 1.4727 -1.23189 0
M  V30 10331 O 1002 2.14215 -1.62374 0
M  V30 10332 C 1000.27 0.545392 -3.53214 0
M  V30 10333 S 1001.83 1.11619 -4.24366 0
M  V30 10334 H 998.649 0.0725368 -0.70729 0
M  V30 10335 H 1001.25 -0.488979 -1.89286 0
M  V30 10336 H 999.955 -0.355786 -4.08855 0
M  V30 10337 H 999.486 1.30897 -3.70985 0
M  V30 10338 H 1001.5 2.40151 -4.34214 0
M  V30 10339 N 1000.67 1.57404 -0.0785433 0
M  V30 10340 C 1001.9 1.98492 0.601292 0
M  V30 10341 C 1002.32 0.956832 1.61945 0
M  V30 10342 O 1001.68 -0.0767502 1.81137 0
M  V30 10343 C 1001.73 3.38596 1.24036 0
M  V30 10344 O 1000.83 3.38461 2.35622 0
M  V30 10345 H 1000.17 0.645882 0.154054 0
M  V30 10346 H 1002.7 2.04012 -0.155056 0
M  V30 10347 H 1002.71 3.75929 1.5856 0
M  V30 10348 H 1001.39 4.12952 0.494341 0
M  V30 10349 H 999.967 3.12906 2.02841 0
M  V30 10350 N 1002.15 -0.195058 1.56388 0
M  V30 10351 C 1003.4 -0.915444 1.80626 0
M  V30 10352 C 1003.73 -1.83255 0.651768 0
M  V30 10353 O 1002.98 -1.92314 -0.362464 0
M  V30 10354 C 1003.28 -1.7637 3.10851 0
M  V30 10355 C 1002.95 -0.997572 4.39726 0
M  V30 10356 C 1001.61 -0.786043 4.74737 0
M  V30 10357 C 1003.96 -0.45851 5.19179 0
M  V30 10358 C 1001.29 -0.023972 5.86695 0
M  V30 10359 C 1003.64 0.29035 6.31933 0
M  V30 10360 C 1002.3 0.512895 6.65527 0
M  V30 10361 H 1001.57 -0.334985 0.660959 0
M  V30 10362 H 1004.22 -0.181815 1.90635 0
M  V30 10363 H 1002.53 -2.566 2.9608 0
M  V30 10364 H 1004.22 -2.3237 3.26811 0
M  V30 10365 H 1000.81 -1.17245 4.12252 0
M  V30 10366 H 1005 -0.609334 4.92545 0
M  V30 10367 H 1000.25 0.158421 6.11195 0
M  V30 10368 H 1004.43 0.715429 6.92715 0
M  V30 10369 H 1002.05 1.10531 7.52122 0
M  V30 10370 N 1003.63 -1.50653 -0.462772 0
M  V30 10371 C 1004.86 -1.65826 -1.23731 0
M  V30 10372 C 1005.27 -0.345002 -1.85621 0
M  V30 10373 O 1004.63 0.673935 -1.69601 0
M  V30 10374 C 1004.68 -2.7555 -2.33997 0
M  V30 10375 O 1004.4 -4.01785 -1.74643 0
M  V30 10376 C 1005.9 -3.0177 -3.2473 0
M  V30 10377 H 1003.12 -0.557177 -0.373892 0
M  V30 10378 H 1005.67 -1.96925 -0.551434 0
M  V30 10379 H 1003.82 -2.47122 -2.98345 0
M  V30 10380 H 1004.24 -4.62529 -2.4732 0
M  V30 10381 H 1005.71 -3.82188 -3.98292 0
M  V30 10382 H 1006.19 -2.13167 -3.84001 0
M  V30 10383 H 1006.79 -3.31761 -2.66111 0
M  V30 10384 N 1005.11 0.71652 -1.4037 0
M  V30 10385 C 1006.34 1.50563 -1.4191 0
M  V30 10386 C 1006.75 1.88791 -0.0185456 0
M  V30 10387 O 1006.11 1.55378 0.957289 0
M  V30 10388 C 1006.16 2.78155 -2.30894 0
M  V30 10389 O 1005.88 2.41543 -3.65497 0
M  V30 10390 C 1007.38 3.72057 -2.41016 0
M  V30 10391 H 1004.6 0.464679 -0.48406 0
M  V30 10392 H 1007.15 0.883927 -1.8441 0
M  V30 10393 H 1005.3 3.36611 -1.91759 0
M  V30 10394 H 1005.71 3.23636 -4.12747 0
M  V30 10395 H 1007.19 4.58426 -3.07489 0
M  V30 10396 H 1007.67 4.15098 -1.43492 0
M  V30 10397 H 1008.27 3.19512 -2.80699 0
M  V30 10398 N 1006.59 1.25851 0.948643 0
M  V30 10399 C 1007.52 1.09248 2.06367 0
M  V30 10400 C 1008.5 -0.000205168 1.701 0
M  V30 10401 O 1009.68 0.170442 1.93451 0
M  V30 10402 C 1006.81 0.716777 3.39823 0
M  V30 10403 C 1005.77 1.76036 3.90122 0
M  V30 10404 C 1005.09 1.23918 5.20143 0
M  V30 10405 C 1006.39 3.16039 4.15833 0
M  V30 10406 H 1008.09 2.02518 2.20515 0
M  V30 10407 H 1005.63 0.975093 1.05962 0
M  V30 10408 H 1007.59 0.587531 4.17284 0
M  V30 10409 H 1006.31 -0.251626 3.25629 0
M  V30 10410 H 1004.97 1.87815 3.14835 0
M  V30 10411 H 1004.62 0.260836 5.02323 0
M  V30 10412 H 1004.32 1.93673 5.54765 0
M  V30 10413 H 1005.84 1.12245 6.00194 0
M  V30 10414 H 1007.25 3.0738 4.83933 0
M  V30 10415 H 1005.65 3.83317 4.61723 0
M  V30 10416 H 1006.72 3.62652 3.21887 0
M  V30 10417 N 1008.06 -1.15214 1.07534 0
M  V30 10418 C 1009.48 -1.67628 0.822045 0
M  V30 10419 C 1009.83 -1.8503 -0.652571 0
M  V30 10420 O 1008.95 -1.55497 -1.50498 0
M  V30 10421 C 1009.55 -3.04489 1.48566 0
M  V30 10422 C 1008.11 -3.53974 1.27983 0
M  V30 10423 C 1007.25 -2.29656 1.55414 0
M  V30 10424 H 1010.2 -0.994016 1.23713 0
M  V30 10425 H 1010.22 -3.69509 0.907916 0
M  V30 10426 H 1009.74 -2.91792 2.55888 0
M  V30 10427 H 1007.84 -3.71908 0.226906 0
M  V30 10428 H 1007.95 -4.35298 2.0013 0
M  V30 10429 H 1006.31 -2.35289 0.975251 0
M  V30 10430 H 1007.1 -2.19544 2.63923 0
M  V30 10431 N 1009.54 -0.859717 -1.32086 0
M  V30 10432 C 1010.51 -0.313005 -2.27053 0
M  V30 10433 C 1011.51 0.530191 -1.51808 0
M  V30 10434 O 1012.7 0.340972 -1.7083 0
M  V30 10435 C 1009.83 0.5566 -3.36325 0
M  V30 10436 H 1011.02 -1.15125 -2.76923 0
M  V30 10437 H 1008.57 -0.634463 -1.42843 0
M  V30 10438 H 1009.31 1.41645 -2.91731 0
M  V30 10439 H 1009.09 -0.0470197 -3.92072 0
M  V30 10440 H 1010.58 0.931725 -4.07073 0
M  V30 10441 N 1011.02 1.44971 -0.618145 0
M  V30 10442 C 1011.95 2.33357 0.0815955 0
M  V30 10443 C 1012.93 1.47451 0.848072 0
M  V30 10444 O 1014.12 1.762 0.816532 0
M  V30 10445 C 1011.25 3.30324 1.07253 0
M  V30 10446 C 1010.2 4.25948 0.418563 0
M  V30 10447 C 1009.53 5.12685 1.51849 0
M  V30 10448 C 1010.83 5.18024 -0.66697 0
M  V30 10449 H 1012.52 2.92115 -0.656442 0
M  V30 10450 H 1010.07 1.40465 -0.317129 0
M  V30 10451 H 1012.02 3.91033 1.57069 0
M  V30 10452 H 1010.74 2.69748 1.8413 0
M  V30 10453 H 1009.4 3.66553 -0.0588308 0
M  V30 10454 H 1009.05 4.4847 2.2778 0
M  V30 10455 H 1008.75 5.7747 1.08637 0
M  V30 10456 H 1010.27 5.76264 2.01871 0
M  V30 10457 H 1011.69 5.72744 -0.252448 0
M  V30 10458 H 1010.09 5.91343 -1.02146 0
M  V30 10459 H 1011.16 4.59817 -1.53936 0
M  V30 10460 N 1012.5 0.357919 1.53482 0
M  V30 10461 C 1013.72 -0.237769 2.06033 0
M  V30 10462 C 1014.15 -1.42292 1.23023 0
M  V30 10463 O 1013.51 -1.79604 0.247427 0
M  V30 10464 C 1013.55 -0.616806 3.55286 0
M  V30 10465 O 1012.66 -1.71503 3.75047 0
M  V30 10466 H 1012 -0.0364322 0.663 0
M  V30 10467 H 1014.53 0.516301 1.97979 0
M  V30 10468 H 1014.54 -0.88996 3.98175 0
M  V30 10469 H 1013.21 0.249825 4.15149 0
M  V30 10470 H 1011.79 -1.43803 3.44057 0
M  V30 10471 N 1013.98 -1.5736 0.0868897 0
M  V30 10472 C 1015.2 -1.98388 -0.587349 0
M  V30 10473 C 1015.62 -0.965757 -1.6223 0
M  V30 10474 O 1014.98 0.0456981 -1.82443 0
M  V30 10475 C 1015.03 -3.39479 -1.24242 0
M  V30 10476 O 1014.75 -4.37393 -0.248878 0
M  V30 10477 C 1016.25 -3.95465 -2.00305 0
M  V30 10478 H 1013.47 -0.652111 -0.15809 0
M  V30 10479 H 1016.01 -2.03843 0.163754 0
M  V30 10480 H 1014.17 -3.35063 -1.94451 0
M  V30 10481 H 1014.58 -5.19525 -0.720678 0
M  V30 10482 H 1016.06 -4.96363 -2.41511 0
M  V30 10483 H 1016.53 -3.32832 -2.86565 0
M  V30 10484 H 1017.14 -4.03328 -1.34931 0
M  V30 10485 N 1015.45 0.186762 -1.56489 0
M  V30 10486 C 1016.7 0.904063 -1.80752 0
M  V30 10487 C 1017.02 1.83443 -0.661343 0
M  V30 10488 O 1016.29 1.93272 0.319811 0
M  V30 10489 H 1014.87 0.336828 -0.66675 0
M  V30 10490 H 1017.54 0.190275 -1.93969 0
M  V30 10491 H 1016.63 1.49021 -2.74225 0
M  V30 10492 N 1016.93 1.50896 0.454776 0
M  V30 10493 C 1017.86 1.73885 1.5584 0
M  V30 10494 C 1018.84 0.588172 1.59607 0
M  V30 10495 O 1020.03 0.829054 1.75614 0
M  V30 10496 C 1017.16 1.84796 2.94054 0
M  V30 10497 C 1016.11 3.00111 3.05152 0
M  V30 10498 C 1015.44 2.96183 4.45174 0
M  V30 10499 C 1016.74 4.40365 2.80849 0
M  V30 10500 H 1018.43 2.66292 1.36854 0
M  V30 10501 H 1015.98 1.28142 0.656936 0
M  V30 10502 H 1017.93 1.99462 3.71204 0
M  V30 10503 H 1016.66 0.890235 3.14233 0
M  V30 10504 H 1015.31 2.85121 2.30438 0
M  V30 10505 H 1014.96 1.98224 4.62295 0
M  V30 10506 H 1014.66 3.73608 4.53532 0
M  V30 10507 H 1016.19 3.1292 5.24322 0
M  V30 10508 H 1017.6 4.55795 3.47741 0
M  V30 10509 H 1016 5.19363 3.00636 0
M  V30 10510 H 1017.07 4.51606 1.76579 0
M  V30 10511 N 1018.41 -0.709066 1.40748 0
M  V30 10512 C 1019.66 -1.4646 1.38681 0
M  V30 10513 C 1019.97 -1.95599 -0.0056209 0
M  V30 10514 O 1021.18 -2.71091 -0.148907 0
M  V30 10515 C 1019.63 -2.64771 2.43771 0
M  V30 10516 C 1019.24 -2.22474 3.88856 0
M  V30 10517 C 1020.99 -3.42475 2.50821 0
M  V30 10518 C 1018.89 -3.37663 4.85528 0
M  V30 10519 H 1017.82 -0.550084 0.515678 0
M  V30 10520 H 1020.47 -0.771074 1.66513 0
M  V30 10521 H 1018.86 -3.36325 2.09048 0
M  V30 10522 H 1020.03 -1.58297 4.32757 0
M  V30 10523 H 1018.35 -1.57798 3.85342 0
M  V30 10524 H 1020.94 -4.28201 3.20232 0
M  V30 10525 H 1021.29 -3.86738 1.54076 0
M  V30 10526 H 1021.82 -2.77969 2.84567 0
M  V30 10527 H 1018.56 -2.98426 5.83628 0
M  V30 10528 H 1018.08 -4.00734 4.46287 0
M  V30 10529 H 1019.76 -4.03636 5.05655 0
M  V30 10530 N 1019.89 -1.26353 -0.941956 0
M  V30 10531 C 1020.84 -1.04513 -2.02635 0
M  V30 10532 C 1021.82 0.0222314 -1.60885 0
M  V30 10533 O 1023.02 -0.194629 -1.75927 0
M  V30 10534 C 1020.14 -0.679282 -3.36512 0
M  V30 10535 C 1019.23 -1.78406 -3.8475 0
M  V30 10536 N 1019.62 -3.02136 -4.05645 0
M  V30 10537 C 1017.92 -1.66748 -4.13656 0
M  V30 10538 C 1018.62 -3.73932 -4.45589 0
M  V30 10539 N 1017.6 -3.01616 -4.52248 0
M  V30 10540 H 1021.4 -1.9843 -2.16801 0
M  V30 10541 H 1018.91 -1.16858 -1.12774 0
M  V30 10542 H 1020.91 -0.503975 -4.13843 0
M  V30 10543 H 1019.57 0.252418 -3.23717 0
M  V30 10544 H 1020.58 -3.38049 -3.92356 0
M  V30 10545 H 1017.26 -0.805627 -4.09653 0
M  V30 10546 H 1018.65 -4.80201 -4.69954 0
M  V30 10547 N 1021.37 1.14642 -1.08144 0
M  V30 10548 C 1022.3 2.21775 -0.730609 0
M  V30 10549 C 1023.28 1.67683 0.285702 0
M  V30 10550 O 1024.46 1.93567 0.156667 0
M  V30 10551 C 1021.59 3.47033 -0.136242 0
M  V30 10552 C 1020.55 4.14134 -1.0806 0
M  V30 10553 C 1019.87 5.33563 -0.348585 0
M  V30 10554 C 1021.17 4.62978 -2.41761 0
M  V30 10555 H 1022.87 2.51378 -1.62633 0
M  V30 10556 H 1020.41 1.20825 -0.783411 0
M  V30 10557 H 1022.37 4.21226 0.121182 0
M  V30 10558 H 1021.09 3.16786 0.7946 0
M  V30 10559 H 1019.75 3.41892 -1.32308 0
M  V30 10560 H 1019.4 4.99575 0.585974 0
M  V30 10561 H 1019.1 5.79402 -0.978122 0
M  V30 10562 H 1020.62 6.10519 -0.0991508 0
M  V30 10563 H 1022.04 5.28659 -2.21795 0
M  V30 10564 H 1020.43 5.1951 -3.00383 0
M  V30 10565 H 1021.5 3.78189 -3.03482 0
M  V30 10566 N 1022.85 0.866709 1.31628 0
M  V30 10567 C 1023.8 0.291712 2.26126 0
M  V30 10568 C 1024.78 -0.569375 1.50489 0
M  V30 10569 O 1025.97 -0.416786 1.72023 0
M  V30 10570 C 1023.1 -0.508624 3.39511 0
M  V30 10571 C 1022.19 0.365524 4.22522 0
M  V30 10572 N 1022.58 1.45747 4.84346 0
M  V30 10573 C 1020.88 0.157384 4.45722 0
M  V30 10574 C 1021.58 1.99625 5.46374 0
M  V30 10575 N 1020.55 1.29371 5.27981 0
M  V30 10576 H 1024.35 1.12633 2.71461 0
M  V30 10577 H 1021.87 0.714118 1.45857 0
M  V30 10578 H 1023.87 -0.937057 4.06233 0
M  V30 10579 H 1022.53 -1.34089 2.9572 0
M  V30 10580 H 1023.54 1.84039 4.84097 0
M  V30 10581 H 1020.21 -0.639193 4.12578 0
M  V30 10582 H 1021.6 2.91222 6.05508 0
M  V30 10583 N 1024.32 -1.44642 0.625825 0
M  V30 10584 C 1025.74 -1.56925 0.290992 0
M  V30 10585 C 1025.94 -1.61424 -1.20601 0
M  V30 10586 O 1025 -1.55439 -1.98985 0
M  V30 10587 C 1026.31 -2.84343 0.978242 0
M  V30 10588 C 1027.86 -2.98047 0.955882 0
M  V30 10589 C 1028.33 -4.2826 1.62349 0
M  V30 10590 N 1029.82 -4.35062 1.58983 0
M  V30 10591 C 1030.56 -5.34524 2.07538 0
M  V30 10592 N 1030.05 -6.4042 2.6426 0
M  V30 10593 N 1031.85 -5.25998 1.98198 0
M  V30 10594 H 1024 -1.39965 1.59761 0
M  V30 10595 H 1026.26 -0.670368 0.670306 0
M  V30 10596 H 1025.97 -2.86985 2.03304 0
M  V30 10597 H 1025.84 -3.73699 0.512726 0
M  V30 10598 H 1028.23 -2.94961 -0.0904292 0
M  V30 10599 H 1028.31 -2.10053 1.45984 0
M  V30 10600 H 1027.95 -4.32105 2.66923 0
M  V30 10601 H 1027.88 -5.15102 1.09441 0
M  V30 10602 H 1030.37 -3.59147 1.17565 0
M  V30 10603 H 1030.69 -7.1259 2.99056 0
M  V30 10604 H 1029.03 -6.41121 2.68308 0
M  V30 10605 H 1032.22 -4.42178 1.5361 0
M  V30 10606 H 1032.4 -6.03359 2.3635 0
M  V30 10607 N 1025.8 -0.366053 -1.5329 0
M  V30 10608 C 1026.75 0.495319 -2.27265 0
M  V30 10609 C 1027.74 1.08298 -1.30261 0
M  V30 10610 O 1028.95 1.02613 -1.47887 0
M  V30 10611 H 1025.32 0.178454 -0.730519 0
M  V30 10612 H 1027.3 -0.150354 -2.98021 0
M  V30 10613 C 1026.04 1.62283 -3.07505 0
M  V30 10614 H 1025.37 1.17993 -3.81992 0
M  V30 10615 H 1026.81 2.20024 -3.62444 0
M  V30 10616 C 1025.27 2.56542 -2.18375 0
M  V30 10617 O 1025.8 3.59371 -1.79486 0
M  V30 10618 N 1024 2.25742 -1.82999 0
M  V30 10619 H 1023.55 1.42159 -2.14822 0
M  V30 10620 H 1023.51 2.89064 -1.2365 0
M  V30 10621 N 1027.28 1.57312 -0.0952337 0
M  V30 10622 C 1028.53 1.93533 0.568131 0
M  V30 10623 C 1028.84 0.979121 1.6933 0
M  V30 10624 O 1030.05 1.23506 2.41782 0
M  V30 10625 C 1028.5 3.43875 1.06198 0
M  V30 10626 C 1028.11 4.47988 -0.0334397 0
M  V30 10627 C 1029.86 3.89057 1.69807 0
M  V30 10628 C 1027.76 5.89483 0.475774 0
M  V30 10629 H 1026.69 0.7224 0.215995 0
M  V30 10630 H 1029.34 1.82699 -0.171257 0
M  V30 10631 H 1027.73 3.49862 1.85506 0
M  V30 10632 H 1028.9 4.53644 -0.808934 0
M  V30 10633 H 1027.21 4.12415 -0.574725 0
M  V30 10634 H 1029.81 4.92171 2.08978 0
M  V30 10635 H 1030.15 3.27713 2.5673 0
M  V30 10636 H 1030.69 3.85772 0.970815 0
M  V30 10637 H 1027.43 6.54528 -0.356837 0
M  V30 10638 H 1026.95 5.87297 1.21827 0
M  V30 10639 H 1028.63 6.40066 0.944697 0
M  V30 10640 N 1028.76 -0.17846 1.56586 0
M  V30 10641 C 1030 -0.897562 1.81856 0
M  V30 10642 C 1030.34 -1.82204 0.671955 0
M  V30 10643 O 1029.61 -1.91739 -0.326535 0
M  V30 10644 C 1029.89 -1.69942 3.17477 0
M  V30 10645 C 1029.75 -0.798545 4.42655 0
M  V30 10646 C 1031.07 -2.66861 3.49962 0
M  V30 10647 H 1028.19 -0.324863 0.661539 0
M  V30 10648 H 1030.83 -0.164106 1.8929 0
M  V30 10649 H 1028.98 -2.32471 3.11271 0
M  V30 10650 H 1030.65 -0.18668 4.60922 0
M  V30 10651 H 1028.89 -0.106181 4.3367 0
M  V30 10652 H 1029.56 -1.39496 5.34083 0
M  V30 10653 H 1032.04 -2.1446 3.56576 0
M  V30 10654 H 1030.92 -3.20037 4.45946 0
M  V30 10655 H 1031.18 -3.46715 2.74301 0
M  V30 10656 N 1030.24 -1.51135 -0.446768 0
M  V30 10657 C 1031.51 -1.5387 -1.20762 0
M  V30 10658 C 1031.89 -0.297446 -2.08994 0
M  V30 10659 O 1031.24 0.717975 -2.16927 0
M  V30 10660 C 1031.45 -2.84767 -2.01764 0
M  V30 10661 C 1032.8 -3.3636 -2.59128 0
M  V30 10662 O 1033.82 -2.86254 -2.11984 0
M  V30 10663 O 1032.68 -4.23765 -3.45088 0
M  V30 10664 H 1029.78 -0.618228 -0.549293 0
M  V30 10665 H 1032.32 -1.63442 -0.456605 0
M  V30 10666 H 1031.09 -3.6657 -1.36901 0
M  V30 10667 H 1030.72 -2.78313 -2.8395 0
M  V30 10668 N 1031.71 0.701592 -1.41122 0
M  V30 10669 C 1032.96 1.46376 -1.40363 0
M  V30 10670 C 1033.29 1.94197 -0.0105442 0
M  V30 10671 O 1032.57 1.69121 0.960637 0
M  V30 10672 C 1032.85 2.67994 -2.40523 0
M  V30 10673 C 1032.7 2.25977 -3.88914 0
M  V30 10674 C 1034.02 3.70181 -2.38022 0
M  V30 10675 H 1031.14 0.530929 -0.511159 0
M  V30 10676 H 1033.78 0.799588 -1.72356 0
M  V30 10677 H 1031.93 3.24661 -2.13372 0
M  V30 10678 H 1033.61 1.74684 -4.26946 0
M  V30 10679 H 1031.85 1.57826 -4.04071 0
M  V30 10680 H 1032.52 3.13215 -4.54533 0
M  V30 10681 H 1035 3.23174 -2.62103 0
M  V30 10682 H 1033.87 4.52894 -3.10127 0
M  V30 10683 H 1034.13 4.19458 -1.3967 0
M  V30 10684 N 1033.19 1.2685 0.935242 0
M  V30 10685 C 1034.12 1.04717 2.0388 0
M  V30 10686 C 1035.14 0.00567507 1.62799 0
M  V30 10687 O 1036.33 0.246408 1.76791 0
M  V30 10688 C 1033.43 0.56496 3.34158 0
M  V30 10689 C 1032.6 1.67704 4.03973 0
M  V30 10690 C 1031.66 1.19186 5.12524 0
M  V30 10691 O 1030.68 1.89008 5.36903 0
M  V30 10692 N 1031.89 0.0434554 5.80484 0
M  V30 10693 H 1034.65 1.99746 2.23431 0
M  V30 10694 H 1032.21 1.18316 1.10512 0
M  V30 10695 H 1034.2 0.224436 4.04077 0
M  V30 10696 H 1032.77 -0.291899 3.11234 0
M  V30 10697 H 1031.99 2.18821 3.27889 0
M  V30 10698 H 1033.28 2.42361 4.47368 0
M  V30 10699 H 1032.68 -0.539502 5.63122 0
M  V30 10700 H 1031.24 -0.237946 6.51366 0
M  V30 10701 N 1034.67 -1.14067 1.0875 0
M  V30 10702 C 1035.9 -1.88767 0.839682 0
M  V30 10703 C 1036.31 -1.79024 -0.612119 0
M  V30 10704 O 1035.65 -1.14986 -1.43262 0
M  V30 10705 C 1035.71 -3.39333 1.18716 0
M  V30 10706 C 1035.38 -3.72858 2.64245 0
M  V30 10707 C 1036.37 -3.72683 3.62496 0
M  V30 10708 C 1034.06 -4.0273 3.0019 0
M  V30 10709 C 1036.05 -4.01909 4.9472 0
M  V30 10710 C 1033.74 -4.31618 4.32607 0
M  V30 10711 C 1034.74 -4.31192 5.29682 0
M  V30 10712 O 1034.43 -4.59377 6.59718 0
M  V30 10713 H 1034.16 -0.604665 0.302253 0
M  V30 10714 H 1036.71 -1.45364 1.45115 0
M  V30 10715 H 1034.94 -3.83205 0.518707 0
M  V30 10716 H 1036.63 -3.95346 0.919599 0
M  V30 10717 H 1037.4 -3.49688 3.3607 0
M  V30 10718 H 1033.28 -4.02213 2.25268 0
M  V30 10719 H 1036.82 -4.01491 5.70483 0
M  V30 10720 H 1032.72 -4.54083 4.58779 0
M  V30 10721 H 1033.49 -4.77078 6.65086 0
M  V30 10722 N 1036.15 -0.873678 -1.31166 0
M  V30 10723 C 1037.08 -0.348011 -2.30892 0
M  V30 10724 C 1038.06 0.563092 -1.60509 0
M  V30 10725 O 1039.24 0.479332 -1.88192 0
M  V30 10726 C 1036.37 0.448158 -3.44396 0
M  V30 10727 C 1035.33 -0.370179 -4.26396 0
M  V30 10728 C 1034.65 0.551903 -5.31844 0
M  V30 10729 C 1035.95 -1.60624 -4.96988 0
M  V30 10730 H 1037.65 -1.18134 -2.75109 0
M  V30 10731 H 1035.19 -0.569502 -1.3226 0
M  V30 10732 H 1037.15 0.826458 -4.13216 0
M  V30 10733 H 1035.87 1.31503 -2.98956 0
M  V30 10734 H 1034.53 -0.730472 -3.59249 0
M  V30 10735 H 1034.18 1.41616 -4.82653 0
M  V30 10736 H 1033.88 0.00823478 -5.87599 0
M  V30 10737 H 1035.4 0.926965 -6.03523 0
M  V30 10738 H 1036.82 -1.29917 -5.58386 0
M  V30 10739 H 1035.21 -2.08926 -5.62557 0
M  V30 10740 H 1036.28 -2.357 -4.23761 0
M  V30 10741 N 1037.63 1.44308 -0.633487 0
M  V30 10742 C 1038.86 2.06085 -0.145852 0
M  V30 10743 C 1039.26 1.47432 1.18577 0
M  V30 10744 O 1038.61 0.592575 1.7388 0
M  V30 10745 C 1038.67 3.59477 0.0407848 0
M  V30 10746 C 1038.33 4.40607 -1.21304 0
M  V30 10747 C 1039.33 4.73937 -2.13728 0
M  V30 10748 C 1037.02 4.80943 -1.44911 0
M  V30 10749 C 1039.01 5.46489 -3.28068 0
M  V30 10750 C 1036.7 5.53243 -2.59548 0
M  V30 10751 C 1037.69 5.85936 -3.50953 0
M  V30 10752 O 1037.38 6.56764 -4.6359 0
M  V30 10753 H 1037.11 0.671484 -0.0780085 0
M  V30 10754 H 1039.67 1.86128 -0.868658 0
M  V30 10755 H 1037.9 3.77933 0.818761 0
M  V30 10756 H 1039.59 4.03013 0.483273 0
M  V30 10757 H 1040.35 4.43311 -1.96725 0
M  V30 10758 H 1036.23 4.54915 -0.746537 0
M  V30 10759 H 1039.78 5.71924 -3.99435 0
M  V30 10760 H 1035.67 5.83285 -2.76493 0
M  V30 10761 H 1036.44 6.75234 -4.62602 0
M  V30 10762 N 1039.1 0.374177 1.53094 0
M  V30 10763 C 1040.35 -0.212396 2.00981 0
M  V30 10764 C 1040.67 -1.48576 1.26293 0
M  V30 10765 O 1039.94 -1.92206 0.378642 0
M  V30 10766 H 1038.52 -0.0814763 0.742543 0
M  V30 10767 H 1041.19 0.502389 1.88314 0
M  V30 10768 H 1040.28 -0.433316 3.09077 0
M  V30 10769 N 1040.58 -1.57259 0.103575 0
M  V30 10770 C 1041.83 -1.93832 -0.55786 0
M  V30 10771 C 1042.14 -0.988087 -1.68808 0
M  V30 10772 O 1043.35 -1.24786 -2.41124 0
M  V30 10773 C 1041.81 -3.44433 -1.04373 0
M  V30 10774 C 1041.41 -4.47963 0.0571971 0
M  V30 10775 C 1043.16 -3.89953 -1.67742 0
M  V30 10776 C 1041.07 -5.89727 -0.444505 0
M  V30 10777 H 1040 -0.723536 -0.212161 0
M  V30 10778 H 1042.65 -1.82606 0.180944 0
M  V30 10779 H 1041.03 -3.50841 -1.83648 0
M  V30 10780 H 1042.2 -4.53209 0.83298 0
M  V30 10781 H 1040.52 -4.12104 0.596588 0
M  V30 10782 H 1043.11 -4.93272 -2.06365 0
M  V30 10783 H 1043.46 -3.2907 -2.54988 0
M  V30 10784 H 1043.99 -3.86281 -0.950342 0
M  V30 10785 H 1040.73 -6.5433 0.391543 0
M  V30 10786 H 1040.25 -5.87935 -1.18711 0
M  V30 10787 H 1041.93 -6.40558 -0.910739 0
M  V30 10788 N 1042.06 0.170153 -1.56679 0
M  V30 10789 C 1043.31 0.884841 -1.817 0
M  V30 10790 C 1043.63 1.82731 -0.680763 0
M  V30 10791 O 1042.9 1.936 0.299294 0
M  V30 10792 H 1041.48 0.329738 -0.670285 0
M  V30 10793 H 1044.14 0.169691 -1.9416 0
M  V30 10794 H 1043.24 1.46104 -2.7579 0
M  V30 10795 N 1043.54 1.5137 0.438746 0
M  V30 10796 C 1044.76 1.68058 1.21537 0
M  V30 10797 C 1045.19 0.376787 1.84288 0
M  V30 10798 O 1044.55 -0.662911 1.68746 0
M  V30 10799 C 1044.59 2.79684 2.27616 0
M  V30 10800 O 1043.7 2.43189 3.33066 0
M  V30 10801 H 1043.04 0.560408 0.356144 0
M  V30 10802 H 1045.57 1.97926 0.518311 0
M  V30 10803 H 1045.58 3.03726 2.72423 0
M  V30 10804 H 1044.25 3.74293 1.81321 0
M  V30 10805 H 1042.83 2.29713 2.93746 0
M  V30 10806 N 1045.02 -0.694098 1.41492 0
M  V30 10807 C 1045.98 -1.78976 1.43179 0
M  V30 10808 C 1046.98 -1.57539 0.322191 0
M  V30 10809 O 1048.17 -1.64185 0.582138 0
M  V30 10810 C 1045.3 -3.17368 1.2446 0
M  V30 10811 H 1046.49 -1.78874 2.40716 0
M  V30 10812 H 1044.05 -0.901867 1.27656 0
M  V30 10813 H 1044.78 -3.23109 0.277691 0
M  V30 10814 H 1044.57 -3.3433 2.04856 0
M  V30 10815 H 1046.06 -3.97345 1.28479 0
M  V30 10816 N 1046.49 -1.27344 -0.928501 0
M  V30 10817 C 1047.74 -1.13804 -1.67859 0
M  V30 10818 C 1048.07 0.31555 -1.91619 0
M  V30 10819 O 1047.35 1.23087 -1.50599 0
M  V30 10820 C 1047.63 -1.9213 -3.04562 0
M  V30 10821 C 1047.48 -3.45468 -2.88048 0
M  V30 10822 C 1048.8 -1.72513 -4.04879 0
M  V30 10823 H 1045.92 -0.414796 -0.609191 0
M  V30 10824 H 1048.56 -1.5649 -1.07753 0
M  V30 10825 H 1046.71 -1.55853 -3.55868 0
M  V30 10826 H 1048.39 -3.9157 -2.43865 0
M  V30 10827 H 1046.63 -3.71849 -2.23407 0
M  V30 10828 H 1047.3 -3.95515 -3.85061 0
M  V30 10829 H 1049.78 -2.04143 -3.62581 0
M  V30 10830 H 1048.65 -2.29713 -4.98521 0
M  V30 10831 H 1048.91 -0.672856 -4.3695 0
M  V30 10832 N 1047.97 1.13488 -1.09353 0
M  V30 10833 C 1049.22 1.85022 -0.830354 0
M  V30 10834 C 1049.55 1.83266 0.64242 0
M  V30 10835 O 1048.83 1.27024 1.47293 0
M  V30 10836 C 1049.11 3.33218 -1.36521 0
M  V30 10837 C 1048.96 3.43491 -2.90404 0
M  V30 10838 C 1050.28 4.28626 -0.998381 0
M  V30 10839 H 1047.4 0.671786 -0.303105 0
M  V30 10840 H 1050.04 1.33211 -1.3548 0
M  V30 10841 H 1048.19 3.77471 -0.919117 0
M  V30 10842 H 1049.86 3.07954 -3.43456 0
M  V30 10843 H 1048.11 2.84391 -3.27573 0
M  V30 10844 H 1048.78 4.47702 -3.22905 0
M  V30 10845 H 1051.25 3.9244 -1.38311 0
M  V30 10846 H 1050.13 5.30754 -1.39968 0
M  V30 10847 H 1050.39 4.42001 0.093517 0
M  V30 10848 N 1049.45 0.880621 1.30701 0
M  V30 10849 C 1050.68 0.510909 2.01009 0
M  V30 10850 C 1051.1 -0.892041 1.65603 0
M  V30 10851 O 1050.46 -1.59045 0.870309 0
M  V30 10852 C 1050.51 0.687759 3.53981 0
M  V30 10853 O 1049.61 -0.268275 4.11526 0
M  V30 10854 H 1048.95 0.201864 0.632572 0
M  V30 10855 H 1051.48 1.18697 1.6665 0
M  V30 10856 H 1051.49 0.585095 4.03783 0
M  V30 10857 H 1050.17 1.71068 3.79089 0
M  V30 10858 H 1048.74 -0.119673 3.72708 0
M  V30 10859 N 1050.93 -1.4397 0.641131 0
M  V30 10860 C 1052.18 -2.01946 0.149629 0
M  V30 10861 C 1052.5 -1.50496 -1.23212 0
M  V30 10862 O 1051.76 -0.683453 -1.83378 0
M  V30 10863 C 1052.06 -3.5727 0.0963368 0
M  V30 10864 C 1051.72 -4.28016 1.4182 0
M  V30 10865 C 1050.39 -4.47059 1.78021 0
M  V30 10866 C 1052.74 -4.68183 2.29028 0
M  V30 10867 C 1050.07 -5.03532 3.01119 0
M  V30 10868 C 1052.42 -5.26019 3.51406 0
M  V30 10869 C 1051.08 -5.4328 3.87818 0
M  V30 10870 H 1050.35 -0.738974 0.0547531 0
M  V30 10871 H 1053 -1.72605 0.829436 0
M  V30 10872 H 1051.3 -3.86083 -0.666879 0
M  V30 10873 H 1053 -3.99871 -0.300635 0
M  V30 10874 H 1049.59 -4.13531 1.12651 0
M  V30 10875 H 1053.78 -4.53175 2.02353 0
M  V30 10876 H 1049.03 -5.15082 3.29395 0
M  V30 10877 H 1053.21 -5.56092 4.19208 0
M  V30 10878 H 1050.83 -5.86805 4.83284 0
M  V30 10879 N 1052.41 -0.382291 -1.52893 0
M  V30 10880 C 1053.37 0.44408 -2.24857 0
M  V30 10881 C 1054.37 0.996004 -1.26239 0
M  V30 10882 O 1055.56 0.879114 -1.5039 0
M  V30 10883 C 1052.69 1.62234 -2.99822 0
M  V30 10884 H 1053.89 -0.185862 -2.99324 0
M  V30 10885 H 1051.44 -0.134275 -1.55722 0
M  V30 10886 H 1052.17 2.28991 -2.29638 0
M  V30 10887 H 1051.96 1.23336 -3.72197 0
M  V30 10888 H 1053.45 2.20756 -3.54481 0
M  V30 10889 N 1053.89 1.57202 -0.111913 0
M  V30 10890 C 1055.13 1.94125 0.547573 0
M  V30 10891 C 1055.45 0.997026 1.68282 0
M  V30 10892 O 1056.65 1.26063 2.40459 0
M  V30 10893 C 1055.11 3.44982 1.02545 0
M  V30 10894 C 1054.72 4.47927 -0.0809529 0
M  V30 10895 C 1056.46 3.90837 1.65671 0
M  V30 10896 C 1054.37 5.89955 0.413224 0
M  V30 10897 H 1053.3 0.724651 0.208321 0
M  V30 10898 H 1055.95 1.82507 -0.190625 0
M  V30 10899 H 1054.33 3.5181 1.81785 0
M  V30 10900 H 1055.51 4.52761 -0.857003 0
M  V30 10901 H 1053.82 4.11782 -0.618434 0
M  V30 10902 H 1056.42 4.9436 2.03746 0
M  V30 10903 H 1056.76 3.30417 2.53239 0
M  V30 10904 H 1057.29 3.8678 0.929844 0
M  V30 10905 H 1054.03 6.54113 -0.426238 0
M  V30 10906 H 1053.55 5.88557 1.15591 0
M  V30 10907 H 1055.23 6.41032 0.876756 0
M  V30 10908 N 1055.36 -0.161842 1.56767 0
M  V30 10909 C 1056.31 -1.2002 1.97139 0
M  V30 10910 C 1057.28 -1.43486 0.836713 0
M  V30 10911 O 1058.47 -1.56069 1.0976 0
M  V30 10912 C 1055.61 -2.53228 2.34456 0
M  V30 10913 C 1054.72 -2.37062 3.61145 0
M  V30 10914 C 1053.85 -3.63202 3.87631 0
M  V30 10915 C 1052.89 -3.42008 5.07638 0
M  V30 10916 N 1052.03 -4.60242 5.30209 0
M  V30 10917 H 1056.87 -0.848918 2.85653 0
M  V30 10918 H 1054.41 -0.407753 1.41336 0
M  V30 10919 H 1056.36 -3.30879 2.54116 0
M  V30 10920 H 1054.99 -2.86333 1.4904 0
M  V30 10921 H 1054.05 -1.50539 3.49345 0
M  V30 10922 H 1055.36 -2.17353 4.48953 0
M  V30 10923 H 1054.51 -4.49285 4.0771 0
M  V30 10924 H 1053.25 -3.85899 2.98216 0
M  V30 10925 H 1052.26 -2.54312 4.87448 0
M  V30 10926 H 1053.48 -3.20724 5.98593 0
M  V30 10927 H 1051.43 -4.8314 4.43747 0
M  V30 10928 H 1051.34 -4.43481 6.12259 0
M  V30 10929 H 1052.61 -5.47581 5.54775 0
M  V30 10930 N 1056.84 -1.516 -0.430713 0
M  V30 10931 C 1058.09 -1.65801 -1.17821 0
M  V30 10932 C 1058.44 -0.372769 -1.88754 0
M  V30 10933 O 1057.74 0.631767 -1.80885 0
M  V30 10934 C 1057.93 -2.804 -2.21609 0
M  V30 10935 C 1057.76 -4.19944 -1.60863 0
M  V30 10936 C 1056.53 -4.85786 -1.39068 0
M  V30 10937 C 1058.73 -5.02806 -1.08124 0
M  V30 10938 N 1056.71 -6.09425 -0.73989 0
M  V30 10939 C 1058.08 -6.17501 -0.556114 0
M  V30 10940 C 1060.13 -4.88288 -0.973635 0
M  V30 10941 C 1058.84 -7.1927 0.0660558 0
M  V30 10942 C 1060.86 -5.9027 -0.36535 0
M  V30 10943 C 1060.23 -7.04242 0.149205 0
M  V30 10944 H 1056.32 -0.660545 -0.418574 0
M  V30 10945 H 1058.91 -1.88847 -0.473799 0
M  V30 10946 H 1057.08 -2.59006 -2.89431 0
M  V30 10947 H 1058.81 -2.83747 -2.88565 0
M  V30 10948 H 1055.57 -4.4377 -1.65425 0
M  V30 10949 H 1055.99 -6.75622 -0.431745 0
M  V30 10950 H 1060.63 -4.00421 -1.35731 0
M  V30 10951 H 1058.35 -8.06779 0.461848 0
M  V30 10952 H 1061.94 -5.81107 -0.283902 0
M  V30 10953 H 1060.82 -7.81804 0.61249 0
M  V30 10954 N 1058.32 0.686584 -1.41858 0
M  V30 10955 C 1059.23 1.83002 -1.46791 0
M  V30 10956 C 1060.25 1.70284 -0.357675 0
M  V30 10957 O 1061.42 1.92042 -0.606781 0
M  V30 10958 C 1058.49 3.19056 -1.35661 0
M  V30 10959 C 1057.55 3.43817 -2.57077 0
M  V30 10960 C 1056.78 4.7338 -2.46469 0
M  V30 10961 O 1057 5.50483 -1.49413 0
M  V30 10962 O 1055.94 4.99124 -3.36391 0
M  V30 10963 H 1059.76 1.81797 -2.43277 0
M  V30 10964 H 1057.35 0.840812 -1.23494 0
M  V30 10965 H 1059.23 4.00267 -1.31773 0
M  V30 10966 H 1057.91 3.20925 -0.422951 0
M  V30 10967 H 1056.81 2.625 -2.66541 0
M  V30 10968 H 1058.15 3.4677 -3.49302 0
M  V30 10969 N 1059.8 1.27835 0.921735 0
M  V30 10970 C 1061.03 1.17182 1.70153 0
M  V30 10971 C 1061.44 -0.273207 1.87217 0
M  V30 10972 O 1060.78 -1.19729 1.39322 0
M  V30 10973 C 1060.84 1.78969 3.11786 0
M  V30 10974 C 1060.5 3.28179 3.18037 0
M  V30 10975 C 1061.5 4.24729 2.99835 0
M  V30 10976 C 1059.19 3.68995 3.40805 0
M  V30 10977 C 1061.18 5.60071 3.04301 0
M  V30 10978 C 1058.87 5.04465 3.44904 0
M  V30 10979 C 1059.87 5.99813 3.2667 0
M  V30 10980 O 1059.55 7.32813 3.30515 0
M  V30 10981 H 1059.29 0.408079 0.538932 0
M  V30 10982 H 1061.84 1.69326 1.16266 0
M  V30 10983 H 1060.07 1.2131 3.6718 0
M  V30 10984 H 1061.76 1.62946 3.71757 0
M  V30 10985 H 1062.52 3.94533 2.8208 0
M  V30 10986 H 1058.4 2.9525 3.54045 0
M  V30 10987 H 1061.95 6.34471 2.89987 0
M  V30 10988 H 1057.84 5.34315 3.62185 0
M  V30 10989 H 1058.61 7.41338 3.4693 0
M  V30 10990 N 1061.28 -1.12907 1.09954 0
M  V30 10991 C 1062.52 -1.83661 0.833761 0
M  V30 10992 C 1062.84 -1.84736 -0.642798 0
M  V30 10993 O 1064.04 -2.51437 -1.0243 0
M  V30 10994 C 1062.5 -3.29763 1.44168 0
M  V30 10995 C 1062.11 -3.3706 2.95118 0
M  V30 10996 C 1063.85 -4.05522 1.25509 0
M  V30 10997 C 1061.76 -4.77467 3.48969 0
M  V30 10998 H 1060.69 -0.688115 0.308242 0
M  V30 10999 H 1063.34 -1.27166 1.32291 0
M  V30 11000 H 1061.72 -3.86094 0.880215 0
M  V30 11001 H 1062.9 -2.90695 3.57537 0
M  V30 11002 H 1061.21 -2.7477 3.12874 0
M  V30 11003 H 1063.81 -5.09188 1.63191 0
M  V30 11004 H 1064.15 -4.15837 0.196208 0
M  V30 11005 H 1064.68 -3.55536 1.78435 0
M  V30 11006 H 1061.42 -4.72344 4.54501 0
M  V30 11007 H 1060.94 -5.24305 2.91315 0
M  V30 11008 H 1062.62 -5.46397 3.46495 0
M  V30 11009 N 1062.75 -0.88754 -1.30232 0
M  V30 11010 C 1063.68 -0.372481 -2.3051 0
M  V30 11011 C 1064.66 0.546037 -1.61098 0
M  V30 11012 O 1065.85 0.459345 -1.88689 0
M  V30 11013 C 1062.98 0.411605 -3.44852 0
M  V30 11014 C 1061.93 -0.415383 -4.2598 0
M  V30 11015 C 1061.26 0.495463 -5.324 0
M  V30 11016 C 1062.56 -1.65886 -4.95257 0
M  V30 11017 H 1064.25 -1.21045 -2.7384 0
M  V30 11018 H 1061.8 -0.583498 -1.31648 0
M  V30 11019 H 1063.75 0.782584 -4.1407 0
M  V30 11020 H 1062.48 1.28325 -3.00334 0
M  V30 11021 H 1061.14 -0.768534 -3.58454 0
M  V30 11022 H 1060.78 1.36489 -4.84128 0
M  V30 11023 H 1060.48 -0.0540885 -5.87575 0
M  V30 11024 H 1062.01 0.862901 -6.04472 0
M  V30 11025 H 1063.42 -1.35832 -5.56976 0
M  V30 11026 H 1061.82 -2.14881 -5.60309 0
M  V30 11027 H 1062.89 -2.40181 -4.21237 0
M  V30 11028 N 1064.23 1.43628 -0.648757 0
M  V30 11029 C 1065.16 2.33478 0.0320785 0
M  V30 11030 C 1066.14 1.49217 0.816605 0
M  V30 11031 O 1067.33 1.77892 0.778974 0
M  V30 11032 C 1064.46 3.32525 1.00222 0
M  V30 11033 C 1063.41 4.2674 0.328119 0
M  V30 11034 C 1062.74 5.15791 1.4094 0
M  V30 11035 C 1064.04 5.16493 -0.776701 0
M  V30 11036 H 1065.73 2.90657 -0.718257 0
M  V30 11037 H 1063.28 1.3976 -0.346852 0
M  V30 11038 H 1065.23 3.94277 1.4874 0
M  V30 11039 H 1063.96 2.73593 1.78366 0
M  V30 11040 H 1062.61 3.66346 -0.136569 0
M  V30 11041 H 1062.26 4.53201 2.18216 0
M  V30 11042 H 1061.96 5.79645 0.963631 0
M  V30 11043 H 1063.49 5.80416 1.89603 0
M  V30 11044 H 1064.9 5.7208 -0.373878 0
M  V30 11045 H 1063.3 5.89043 -1.14667 0
M  V30 11046 H 1064.37 4.56448 -1.63654 0
M  V30 11047 N 1065.71 0.390394 1.52688 0
M  V30 11048 C 1066.64 -0.43567 2.294 0
M  V30 11049 C 1067.62 -1.06253 1.32832 0
M  V30 11050 O 1068.81 -1.07509 1.61726 0
M  V30 11051 C 1065.94 -1.56259 3.10162 0
M  V30 11052 C 1064.89 -1.06172 4.14622 0
M  V30 11053 C 1064.22 -2.2808 4.83615 0
M  V30 11054 C 1065.52 -0.128902 5.22141 0
M  V30 11055 H 1067.21 0.204384 2.98702 0
M  V30 11056 H 1064.76 0.0997377 1.43654 0
M  V30 11057 H 1066.71 -2.14732 3.62585 0
M  V30 11058 H 1065.43 -2.23025 2.38595 0
M  V30 11059 H 1064.09 -0.499518 3.63181 0
M  V30 11060 H 1063.74 -2.93358 4.08595 0
M  V30 11061 H 1063.44 -1.95227 5.5422 0
M  V30 11062 H 1064.96 -2.87193 5.38844 0
M  V30 11063 H 1066.38 -0.621849 5.69917 0
M  V30 11064 H 1064.78 0.109919 5.99999 0
M  V30 11065 H 1065.85 0.821884 4.77884 0
M  V30 11066 N 1067.19 -1.57141 0.120249 0
M  V30 11067 C 1068.44 -1.95238 -0.537449 0
M  V30 11068 C 1068.76 -1.00361 -1.66607 0
M  V30 11069 O 1068.02 -0.0277306 -1.9568 0
M  V30 11070 C 1068.32 -3.39745 -1.10941 0
M  V30 11071 C 1067.98 -4.50785 -0.102012 0
M  V30 11072 C 1066.65 -4.80882 0.174994 0
M  V30 11073 C 1069 -5.17913 0.584462 0
M  V30 11074 C 1066.33 -5.75424 1.14474 0
M  V30 11075 C 1068.68 -6.13497 1.54284 0
M  V30 11076 C 1067.34 -6.41987 1.82782 0
M  V30 11077 H 1066.61 -0.714425 -0.196666 0
M  V30 11078 H 1069.26 -1.90438 0.201418 0
M  V30 11079 H 1067.56 -3.41246 -1.92506 0
M  V30 11080 H 1069.26 -3.66536 -1.62642 0
M  V30 11081 H 1065.85 -4.27342 -0.328097 0
M  V30 11082 H 1070.03 -4.94815 0.383625 0
M  V30 11083 H 1065.29 -5.95801 1.37226 0
M  V30 11084 H 1069.46 -6.64598 2.08044 0
M  V30 11085 H 1067.09 -7.15052 2.5808 0
M  V30 11086 N 1068.67 0.153526 -1.5685 0
M  V30 11087 C 1069.6 1.19162 -2.00805 0
M  V30 11088 C 1070.58 1.45172 -0.886518 0
M  V30 11089 O 1071.76 1.56203 -1.15387 0
M  V30 11090 C 1068.89 2.52637 -2.38311 0
M  V30 11091 C 1067.85 2.41161 -3.53589 0
M  V30 11092 C 1067.17 3.79287 -3.76889 0
M  V30 11093 C 1068.47 1.90122 -4.86468 0
M  V30 11094 H 1070.17 0.82617 -2.87776 0
M  V30 11095 H 1067.71 0.395972 -1.38449 0
M  V30 11096 H 1069.67 3.25478 -2.6766 0
M  V30 11097 H 1068.39 2.91005 -1.4827 0
M  V30 11098 H 1067.05 1.70772 -3.24395 0
M  V30 11099 H 1066.7 4.15079 -2.84109 0
M  V30 11100 H 1066.4 3.72472 -4.54465 0
M  V30 11101 H 1067.92 4.53687 -4.08657 0
M  V30 11102 H 1069.33 2.52752 -5.14577 0
M  V30 11103 H 1067.73 1.94214 -5.67804 0
M  V30 11104 H 1068.8 0.856517 -4.77275 0
M  V30 11105 N 1070.14 1.51827 0.422667 0
M  V30 11106 C 1071.07 1.77152 1.52117 0
M  V30 11107 C 1072.06 0.621895 1.58324 0
M  V30 11108 O 1073.24 0.866118 1.73816 0
M  V30 11109 C 1070.37 1.90991 2.90068 0
M  V30 11110 C 1069.32 3.06516 2.98717 0
M  V30 11111 C 1068.65 3.05559 4.38791 0
M  V30 11112 C 1069.95 4.46223 2.71445 0
M  V30 11113 H 1071.64 2.69135 1.31175 0
M  V30 11114 H 1069.19 1.29507 0.629607 0
M  V30 11115 H 1071.14 2.07291 3.6689 0
M  V30 11116 H 1069.87 0.956688 3.12274 0
M  V30 11117 H 1068.53 2.89945 2.24338 0
M  V30 11118 H 1068.17 2.07985 4.57986 0
M  V30 11119 H 1067.87 3.83144 4.45505 0
M  V30 11120 H 1069.4 3.23971 5.17566 0
M  V30 11121 H 1070.81 4.63069 3.37994 0
M  V30 11122 H 1069.21 5.25623 2.89552 0
M  V30 11123 H 1070.28 4.5525 1.6696 0
M  V30 11124 N 1071.62 -0.679052 1.4222 0
M  V30 11125 C 1072.55 -1.80481 1.48152 0
M  V30 11126 C 1073.53 -1.66698 0.338502 0
M  V30 11127 O 1074.72 -1.86183 0.552228 0
M  V30 11128 C 1071.85 -3.18746 1.37908 0
M  V30 11129 C 1070.8 -3.47258 2.50192 0
M  V30 11130 C 1070.13 -4.85052 2.25008 0
M  V30 11131 C 1071.43 -3.44576 3.92511 0
M  V30 11132 H 1073.12 -1.75774 2.42371 0
M  V30 11133 H 1070.67 -0.844241 1.16656 0
M  V30 11134 H 1072.62 -3.97229 1.40666 0
M  V30 11135 H 1071.35 -3.24119 0.401806 0
M  V30 11136 H 1070 -2.71133 2.46744 0
M  V30 11137 H 1069.65 -4.8707 1.25584 0
M  V30 11138 H 1069.35 -5.05092 3.00259 0
M  V30 11139 H 1070.88 -5.65825 2.29508 0
M  V30 11140 H 1072.29 -4.13036 3.97585 0
M  V30 11141 H 1070.69 -3.76151 4.67579 0
M  V30 11142 H 1071.76 -2.4323 4.19484 0
M  V30 11143 N 1073.1 -1.28322 -0.914942 0
M  V30 11144 C 1074.06 -1.12169 -1.99877 0
M  V30 11145 C 1075.06 -0.0617252 -1.60681 0
M  V30 11146 O 1076.25 -0.307405 -1.71466 0
M  V30 11147 C 1073.39 -0.711959 -3.33383 0
M  V30 11148 H 1074.58 -2.08425 -2.15636 0
M  V30 11149 H 1072.13 -1.11291 -1.09745 0
M  V30 11150 H 1072.87 0.251418 -3.23324 0
M  V30 11151 H 1072.65 -1.47764 -3.63192 0
M  V30 11152 H 1074.14 -0.621558 -4.12948 0
M  V30 11153 N 1074.58 1.12322 -1.10551 0
M  V30 11154 C 1075.86 1.80201 -0.760715 0
M  V30 11155 C 1076.24 1.97228 0.752628 0
M  V30 11156 O 1075.58 1.54958 1.67929 0
M  V30 11157 C 1075.79 3.14491 -1.51316 0
M  V30 11158 C 1077.14 3.89671 -1.68647 0
M  V30 11159 O 1078.17 3.24151 -1.47664 0
M  V30 11160 O 1077.02 5.0722 -2.03445 0
M  V30 11161 H 1074.12 0.780084 -0.274587 0
M  V30 11162 H 1076.66 1.19147 -1.20839 0
M  V30 11163 H 1075.44 2.97396 -2.54306 0
M  V30 11164 H 1075.06 3.83253 -1.05842 0
M  V30 11165 N 1076.06 0.894434 1.2976 0
M  V30 11166 C 1077.02 0.373094 2.26143 0
M  V30 11167 C 1078.02 -0.489756 1.5316 0
M  V30 11168 O 1079.21 -0.29556 1.71674 0
M  V30 11169 C 1076.34 -0.467234 3.37683 0
M  V30 11170 H 1077.53 1.22427 2.73773 0
M  V30 11171 H 1075.09 0.672112 1.41111 0
M  V30 11172 H 1075.82 -1.33861 2.95384 0
M  V30 11173 H 1075.61 0.150954 3.91809 0
M  V30 11174 H 1077.1 -0.823469 4.094 0
M  V30 11175 N 1077.53 -1.43282 0.656365 0
M  V30 11176 C 1078.95 -1.56272 0.324213 0
M  V30 11177 C 1079.15 -1.63946 -1.1715 0
M  V30 11178 O 1078.21 -1.59625 -1.95643 0
M  V30 11179 C 1079.52 -2.82204 1.03833 0
M  V30 11180 C 1081.07 -2.95952 1.01889 0
M  V30 11181 C 1081.54 -4.2472 1.71397 0
M  V30 11182 N 1083.03 -4.31591 1.68176 0
M  V30 11183 C 1083.77 -5.30001 2.1883 0
M  V30 11184 N 1083.26 -6.34671 2.77785 0
M  V30 11185 N 1085.06 -5.21676 2.09311 0
M  V30 11186 H 1077.21 -1.36544 1.62694 0
M  V30 11187 H 1079.47 -0.655999 0.684375 0
M  V30 11188 H 1079.18 -2.82608 2.09346 0
M  V30 11189 H 1079.05 -3.72527 0.591878 0
M  V30 11190 H 1081.44 -2.95087 -0.0278431 0
M  V30 11191 H 1081.52 -2.0691 1.50406 0
M  V30 11192 H 1081.16 -4.26346 2.76028 0
M  V30 11193 H 1081.09 -5.12665 1.20342 0
M  V30 11194 H 1083.58 -3.56573 1.25157 0
M  V30 11195 H 1083.9 -7.06087 3.14104 0
M  V30 11196 H 1082.24 -6.35285 2.81847 0
M  V30 11197 H 1085.43 -4.3882 1.62955 0
M  V30 11198 H 1085.61 -5.9821 2.49095 0
M  V30 11199 N 1079.01 -0.398486 -1.52479 0
M  V30 11200 C 1080.26 0.181019 -2.0199 0
M  V30 11201 C 1080.59 1.45691 -1.28405 0
M  V30 11202 O 1079.87 1.90607 -0.387207 0
M  V30 11203 C 1080.15 0.439587 -3.57407 0
M  V30 11204 C 1080 -0.85223 -4.41653 0
M  V30 11205 C 1081.32 1.2263 -4.2267 0
M  V30 11206 H 1078.44 0.0643164 -0.734188 0
M  V30 11207 H 1081.08 -0.52986 -1.82462 0
M  V30 11208 H 1079.23 1.04516 -3.74177 0
M  V30 11209 H 1080.91 -1.48879 -4.36615 0
M  V30 11210 H 1079.15 -1.46555 -4.08294 0
M  V30 11211 H 1079.82 -0.625839 -5.48441 0
M  V30 11212 H 1082.3 0.713722 -4.09933 0
M  V30 11213 H 1081.17 1.37596 -5.31374 0
M  V30 11214 H 1081.43 2.24403 -3.80914 0
M  V30 11215 N 1080.49 1.57075 -0.12858 0
M  V30 11216 C 1081.73 1.97408 0.530059 0
M  V30 11217 C 1082.1 1.01087 1.63234 0
M  V30 11218 O 1083.3 1.30394 2.35055 0
M  V30 11219 C 1081.57 3.41928 1.04021 0
M  V30 11220 S 1083.13 4.04277 1.70603 0
M  V30 11221 H 1079.94 0.689884 0.17199 0
M  V30 11222 H 1082.55 1.94304 -0.215933 0
M  V30 11223 H 1081.25 4.09772 0.226928 0
M  V30 11224 H 1080.78 3.48703 1.82125 0
M  V30 11225 H 1082.8 3.95819 2.99235 0
M  V30 11226 N 1081.97 -0.145205 1.5693 0
M  V30 11227 C 1082.93 -1.16316 1.97492 0
M  V30 11228 C 1083.93 -1.35764 0.861668 0
M  V30 11229 O 1085.12 -1.32726 1.12825 0
M  V30 11230 C 1082.25 -2.52311 2.29242 0
M  V30 11231 H 1083.45 -0.815138 2.8861 0
M  V30 11232 H 1081 -0.38861 1.51392 0
M  V30 11233 H 1081.74 -2.92081 1.40922 0
M  V30 11234 H 1081.52 -2.39555 3.10412 0
M  V30 11235 H 1083.01 -3.25624 2.61456 0
M  V30 11236 N 1083.45 -1.52049 -0.414609 0
M  V30 11237 C 1084.69 -1.67511 -1.17129 0
M  V30 11238 C 1085.05 -0.39383 -1.87917 0
M  V30 11239 O 1086.25 -0.424496 -2.65427 0
M  V30 11240 C 1084.52 -2.85982 -2.14357 0
M  V30 11241 S 1086.08 -3.21898 -2.98206 0
M  V30 11242 H 1082.9 -0.589923 -0.396877 0
M  V30 11243 H 1085.5 -1.90025 -0.459409 0
M  V30 11244 H 1084.21 -3.77488 -1.6103 0
M  V30 11245 H 1083.74 -2.65725 -2.90092 0
M  V30 11246 H 1085.75 -2.70095 -4.16249 0
M  V30 11247 N 1084.93 0.6715 -1.42579 0
M  V30 11248 C 1085.86 1.79693 -1.49107 0
M  V30 11249 C 1086.84 1.66516 -0.347338 0
M  V30 11250 O 1088.02 1.85887 -0.562094 0
M  V30 11251 C 1085.15 3.1801 -1.39596 0
M  V30 11252 C 1084.11 3.45926 -2.5203 0
M  V30 11253 C 1083.43 4.83852 -2.27577 0
M  V30 11254 C 1084.73 3.4249 -3.94333 0
M  V30 11255 H 1086.43 1.74486 -2.433 0
M  V30 11256 H 1083.97 0.838042 -1.17102 0
M  V30 11257 H 1085.92 3.96478 -1.42771 0
M  V30 11258 H 1084.65 3.23901 -0.418989 0
M  V30 11259 H 1083.31 2.6982 -2.48178 0
M  V30 11260 H 1082.96 4.86398 -1.28165 0
M  V30 11261 H 1082.66 5.03493 -3.02934 0
M  V30 11262 H 1084.18 5.646 -2.32506 0
M  V30 11263 H 1085.59 4.10922 -3.9977 0
M  V30 11264 H 1083.99 3.73666 -4.69568 0
M  V30 11265 H 1085.06 2.41002 -4.20768 0
M  V30 11266 N 1086.4 1.28806 0.908124 0
M  V30 11267 C 1087.65 1.17469 1.6605 0
M  V30 11268 C 1088 -0.272864 1.90455 0
M  V30 11269 O 1087.3 -1.19476 1.49787 0
M  V30 11270 C 1087.49 1.91267 3.01914 0
M  V30 11271 C 1087.32 3.43051 2.90769 0
M  V30 11272 C 1086.09 4.12395 2.9199 0
M  V30 11273 C 1088.29 4.38696 2.68422 0
M  V30 11274 N 1086.27 5.50604 2.71493 0
M  V30 11275 C 1087.64 5.64307 2.56823 0
M  V30 11276 C 1089.7 4.28557 2.53463 0
M  V30 11277 C 1088.4 6.80931 2.31789 0
M  V30 11278 C 1090.43 5.44923 2.2981 0
M  V30 11279 C 1089.79 6.69501 2.1897 0
M  V30 11280 H 1085.89 0.484813 0.61358 0
M  V30 11281 H 1088.47 1.62528 1.07204 0
M  V30 11282 H 1086.64 1.48634 3.58835 0
M  V30 11283 H 1088.37 1.72267 3.66205 0
M  V30 11284 H 1085.13 3.64024 3.02958 0
M  V30 11285 H 1085.55 6.23269 2.6432 0
M  V30 11286 H 1090.19 3.32944 2.60592 0
M  V30 11287 H 1087.91 7.76607 2.23399 0
M  V30 11288 H 1091.5 5.38971 2.19092 0
M  V30 11289 H 1090.38 7.58025 2.00918 0
M  V30 11290 N 1087.88 -1.11734 1.11145 0
M  V30 11291 C 1088.81 -2.16847 0.710809 0
M  V30 11292 C 1089.79 -1.59966 -0.291494 0
M  V30 11293 O 1090.98 -1.87554 -0.188645 0
M  V30 11294 C 1088.1 -3.38663 0.0499744 0
M  V30 11295 C 1087.15 -4.14199 1.01693 0
M  V30 11296 S 1087.98 -4.7154 2.53793 0
M  V30 11297 C 1089.14 -5.96682 1.89001 0
M  V30 11298 H 1089.37 -2.50497 1.60121 0
M  V30 11299 H 1086.9 -1.23311 0.929182 0
M  V30 11300 H 1088.86 -4.09212 -0.324959 0
M  V30 11301 H 1087.52 -3.03279 -0.817335 0
M  V30 11302 H 1086.72 -5.01494 0.501933 0
M  V30 11303 H 1086.32 -3.49395 1.33414 0
M  V30 11304 H 1088.61 -6.6634 1.22462 0
M  V30 11305 H 1089.55 -6.52821 2.74282 0
M  V30 11306 H 1089.96 -5.48084 1.35145 0
M  V30 11307 N 1089.36 -0.901303 -1.29284 0
M  V30 11308 C 1090.29 -0.32479 -2.25877 0
M  V30 11309 C 1091.27 0.563944 -1.52507 0
M  V30 11310 O 1092.45 0.510393 -1.81459 0
M  V30 11311 C 1089.58 0.536897 -3.34418 0
M  V30 11312 C 1088.63 -0.28474 -4.25548 0
M  V30 11313 S 1089.46 -1.68355 -5.08347 0
M  V30 11314 C 1090.62 -0.828826 -6.20388 0
M  V30 11315 H 1090.85 -1.14352 -2.74428 0
M  V30 11316 H 1088.38 -0.701749 -1.37531 0
M  V30 11317 H 1090.34 1.02827 -3.97413 0
M  V30 11318 H 1089 1.32988 -2.84558 0
M  V30 11319 H 1088.19 0.373566 -5.02614 0
M  V30 11320 H 1087.8 -0.709313 -3.67212 0
M  V30 11321 H 1090.09 -0.0529234 -6.77479 0
M  V30 11322 H 1091.03 -1.57161 -6.90439 0
M  V30 11323 H 1091.44 -0.382503 -5.63203 0
M  V30 11324 N 1090.84 1.42931 -0.663954 0
M  V30 11325 C 1091.77 2.33499 0.00731327 0
M  V30 11326 C 1092.75 1.50074 0.800733 0
M  V30 11327 O 1093.93 1.78708 0.760062 0
M  V30 11328 C 1091.06 3.33569 0.966897 0
M  V30 11329 C 1090.02 4.27064 0.282839 0
M  V30 11330 C 1089.34 5.17257 1.35461 0
M  V30 11331 C 1090.64 5.1564 -0.831438 0
M  V30 11332 H 1092.34 2.89879 -0.749044 0
M  V30 11333 H 1089.88 1.39385 -0.361656 0
M  V30 11334 H 1091.84 3.95833 1.44549 0
M  V30 11335 H 1090.56 2.75469 1.75455 0
M  V30 11336 H 1089.22 3.6618 -0.175417 0
M  V30 11337 H 1088.87 4.5549 2.13397 0
M  V30 11338 H 1088.57 5.80634 0.902098 0
M  V30 11339 H 1090.09 5.82395 1.83436 0
M  V30 11340 H 1091.51 5.71651 -0.434534 0
M  V30 11341 H 1089.9 5.87794 -1.20908 0
M  V30 11342 H 1090.97 4.54687 -1.68487 0
M  V30 11343 N 1092.32 0.406567 1.52266 0
M  V30 11344 C 1093.25 -0.411314 2.29849 0
M  V30 11345 C 1094.23 -1.04838 1.33952 0
M  V30 11346 O 1095.41 -1.05788 1.62857 0
M  V30 11347 C 1092.54 -1.52961 3.11802 0
M  V30 11348 C 1091.5 -1.01768 4.15725 0
M  V30 11349 C 1090.82 -2.22938 4.86007 0
M  V30 11350 C 1092.12 -0.073515 5.22248 0
M  V30 11351 H 1093.82 0.236054 2.98468 0
M  V30 11352 H 1091.36 0.114968 1.4354 0
M  V30 11353 H 1093.31 -2.10874 3.64843 0
M  V30 11354 H 1092.04 -2.20482 2.40947 0
M  V30 11355 H 1090.7 -0.46097 3.6369 0
M  V30 11356 H 1090.35 -2.89007 4.11684 0
M  V30 11357 H 1090.05 -1.89338 5.5626 0
M  V30 11358 H 1091.57 -2.81462 5.41859 0
M  V30 11359 H 1092.98 -0.561367 5.70545 0
M  V30 11360 H 1091.38 0.173551 5.99849 0
M  V30 11361 H 1092.45 0.872524 4.76985 0
M  V30 11362 N 1093.79 -1.57004 0.136909 0
M  V30 11363 C 1095.04 -1.94972 -0.51662 0
M  V30 11364 C 1095.36 -1.02367 -1.66674 0
M  V30 11365 O 1096.56 -1.29873 -2.38423 0
M  V30 11366 C 1095.02 -3.4657 -0.970435 0
M  V30 11367 C 1094.63 -4.47741 0.152204 0
M  V30 11368 C 1096.37 -3.93423 -1.59432 0
M  V30 11369 C 1094.28 -5.90537 -0.319315 0
M  V30 11370 H 1093.21 -0.727873 -0.196766 0
M  V30 11371 H 1095.86 -1.82181 0.219637 0
M  V30 11372 H 1094.24 -3.54657 -1.76165 0
M  V30 11373 H 1095.41 -4.5134 0.928925 0
M  V30 11374 H 1093.73 -4.10746 0.683867 0
M  V30 11375 H 1096.33 -4.97539 -1.95856 0
M  V30 11376 H 1096.67 -3.34404 -2.47951 0
M  V30 11377 H 1097.2 -3.8821 -0.868193 0
M  V30 11378 H 1093.94 -6.53352 0.530248 0
M  V30 11379 H 1093.46 -5.90321 -1.06213 0
M  V30 11380 H 1095.14 -6.42346 -0.774662 0
M  V30 11381 N 1095.27 0.136881 -1.57004 0
M  V30 11382 C 1096.24 1.15267 -1.98106 0
M  V30 11383 C 1097.24 1.35305 -0.868856 0
M  V30 11384 O 1098.43 1.32126 -1.13527 0
M  V30 11385 C 1095.56 2.51092 -2.30577 0
M  V30 11386 H 1096.75 0.799821 -2.89038 0
M  V30 11387 H 1094.3 0.380576 -1.51596 0
M  V30 11388 H 1095.04 2.9133 -1.42469 0
M  V30 11389 H 1094.82 2.37906 -3.11678 0
M  V30 11390 H 1096.31 3.24232 -2.63179 0
M  V30 11391 N 1096.75 1.52266 0.40654 0
M  V30 11392 C 1097.68 1.72025 1.51459 0
M  V30 11393 C 1098.7 0.600667 1.51314 0
M  V30 11394 O 1099.88 0.875894 1.55532 0
M  V30 11395 C 1096.98 1.7479 2.90348 0
M  V30 11396 C 1096.16 3.03826 3.14656 0
M  V30 11397 C 1095.22 2.98369 4.33431 0
M  V30 11398 O 1094.24 3.7227 4.30586 0
M  V30 11399 N 1095.44 2.16338 5.38682 0
M  V30 11400 H 1098.21 2.67622 1.34903 0
M  V30 11401 H 1095.77 1.50536 0.595867 0
M  V30 11402 H 1097.76 1.68667 3.67877 0
M  V30 11403 H 1096.33 0.86656 3.00349 0
M  V30 11404 H 1095.55 3.23577 2.25148 0
M  V30 11405 H 1096.84 3.89182 3.27742 0
M  V30 11406 H 1096.24 1.55731 5.43842 0
M  V30 11407 H 1094.8 2.1607 6.14945 0
M  V30 11408 N 1098.23 -0.663929 1.42933 0
M  V30 11409 C 1099.19 -1.75899 1.46943 0
M  V30 11410 C 1100.19 -1.5682 0.355535 0
M  V30 11411 O 1101.38 -1.62914 0.616833 0
M  V30 11412 C 1098.51 -3.14657 1.31164 0
M  V30 11413 H 1099.71 -1.73727 2.44456 0
M  V30 11414 H 1097.26 -0.874587 1.2954 0
M  V30 11415 H 1097.99 -3.22447 0.346165 0
M  V30 11416 H 1097.78 -3.29909 2.11902 0
M  V30 11417 H 1099.27 -3.9453 1.36878 0
M  V30 11418 N 1099.71 -1.29285 -0.901281 0
M  V30 11419 C 1100.62 -1.16161 -2.03823 0
M  V30 11420 C 1101.63 -0.0852298 -1.73791 0
M  V30 11421 O 1102.81 -0.29699 -1.99198 0
M  V30 11422 C 1099.87 -0.837586 -3.3643 0
M  V30 11423 C 1098.93 -1.99764 -3.7999 0
M  V30 11424 C 1098.17 -1.68898 -5.0627 0
M  V30 11425 O 1098.39 -0.609177 -5.67138 0
M  V30 11426 O 1097.32 -2.53648 -5.45845 0
M  V30 11427 H 1101.15 -2.11635 -2.17817 0
M  V30 11428 H 1098.74 -1.08722 -1.02468 0
M  V30 11429 H 1100.62 -0.671376 -4.16017 0
M  V30 11430 H 1099.29 0.0873811 -3.23582 0
M  V30 11431 H 1098.2 -2.21908 -3.01177 0
M  V30 11432 H 1099.53 -2.90376 -3.9742 0
M  V30 11433 N 1101.18 1.11143 -1.11736 0
M  V30 11434 C 1102.15 2.15456 -0.78174 0
M  V30 11435 C 1103.15 1.59547 0.200383 0
M  V30 11436 O 1104.34 1.74183 -0.0244893 0
M  V30 11437 C 1101.47 3.40523 -0.160364 0
M  V30 11438 H 1102.66 2.46658 -1.70586 0
M  V30 11439 H 1100.22 1.26381 -0.919644 0
M  V30 11440 H 1100.95 3.14932 0.773835 0
M  V30 11441 H 1100.74 3.82386 -0.867378 0
M  V30 11442 H 1102.23 4.17559 0.0582175 0
M  V30 11443 N 1102.66 0.908147 1.28804 0
M  V30 11444 C 1103.89 0.55409 1.99343 0
M  V30 11445 C 1104.31 -0.863262 1.67908 0
M  V30 11446 O 1103.66 -1.571 0.92875 0
M  V30 11447 C 1103.71 0.746916 3.537 0
M  V30 11448 O 1103.43 2.10849 3.84024 0
M  V30 11449 C 1104.94 0.398939 4.41501 0
M  V30 11450 H 1102.16 0.211784 0.636701 0
M  V30 11451 H 1104.7 1.21981 1.64137 0
M  V30 11452 H 1102.85 0.128264 3.87188 0
M  V30 11453 H 1103.27 2.14404 4.78676 0
M  V30 11454 H 1104.74 0.584656 5.48895 0
M  V30 11455 H 1105.22 -0.664517 4.34144 0
M  V30 11456 H 1105.83 0.994892 4.135 0
M  V30 11457 N 1104.14 -1.42577 0.671525 0
M  V30 11458 C 1105.07 -2.33499 0.00506984 0
M  V30 11459 C 1106.05 -1.50497 -0.792763 0
M  V30 11460 O 1107.24 -1.79109 -0.750574 0
M  V30 11461 C 1104.37 -3.34077 -0.949194 0
M  V30 11462 C 1103.32 -4.27208 -0.260187 0
M  V30 11463 C 1102.65 -5.17968 -1.32716 0
M  V30 11464 C 1103.95 -5.15192 0.858772 0
M  V30 11465 H 1105.64 -2.89477 0.764407 0
M  V30 11466 H 1103.19 -1.39191 0.369043 0
M  V30 11467 H 1105.14 -3.96594 -1.42448 0
M  V30 11468 H 1103.86 -2.76396 -1.73991 0
M  V30 11469 H 1102.52 -3.66082 0.194834 0
M  V30 11470 H 1102.17 -4.56615 -2.10979 0
M  V30 11471 H 1101.87 -5.81104 -0.871293 0
M  V30 11472 H 1103.39 -5.83359 -1.80345 0
M  V30 11473 H 1104.81 -5.71412 0.464844 0
M  V30 11474 H 1103.21 -5.87144 1.24023 0
M  V30 11475 H 1104.28 -4.53787 1.70895 0
M  V30 11476 N 1105.62 -0.414636 -1.52048 0
M  V30 11477 C 1106.53 0.414861 -2.30903 0
M  V30 11478 C 1107.54 1.04855 -1.38858 0
M  V30 11479 O 1108.72 1.04886 -1.71933 0
M  V30 11480 C 1105.79 1.51356 -3.11917 0
M  V30 11481 C 1104.85 0.902359 -4.19709 0
M  V30 11482 C 1104.08 1.9487 -4.96852 0
M  V30 11483 O 1104.3 3.16766 -4.74358 0
M  V30 11484 O 1103.24 1.55186 -5.8155 0
M  V30 11485 H 1107.06 -0.228251 -3.02841 0
M  V30 11486 H 1104.65 -0.177704 -1.48339 0
M  V30 11487 H 1106.53 2.15127 -3.62351 0
M  V30 11488 H 1105.2 2.14117 -2.42767 0
M  V30 11489 H 1104.11 0.22721 -3.73409 0
M  V30 11490 H 1105.44 0.318587 -4.91168 0
M  V30 11491 N 1107.1 1.56929 -0.145233 0
M  V30 11492 C 1108.04 2.17958 0.812237 0
M  V30 11493 C 1109.04 1.13608 1.25657 0
M  V30 11494 O 1110.24 1.31861 1.22526 0
M  V30 11495 H 1106.62 0.697876 0.28013 0
M  V30 11496 H 1108.59 2.97146 0.273297 0
M  V30 11497 C 1107.34 2.81418 2.04203 0
M  V30 11498 H 1106.66 3.61427 1.70911 0
M  V30 11499 H 1108.1 3.27624 2.69144 0
M  V30 11500 C 1106.56 1.79835 2.84888 0
M  V30 11501 O 1107.09 1.26773 3.81171 0
M  V30 11502 N 1105.3 1.49179 2.49387 0
M  V30 11503 H 1104.84 1.9252 1.71154 0
M  V30 11504 H 1104.8 0.81458 3.03664 0
M  V30 11505 N 1108.58 -0.128553 1.57075 0
M  V30 11506 C 1109.51 -1.15953 2.02675 0
M  V30 11507 C 1110.49 -1.43743 0.909501 0
M  V30 11508 O 1111.67 -1.54348 1.17857 0
M  V30 11509 C 1108.8 -2.48813 2.423 0
M  V30 11510 C 1107.76 -2.35506 3.57381 0
M  V30 11511 C 1107.08 -3.73243 3.82875 0
M  V30 11512 C 1108.38 -1.82359 4.89431 0
M  V30 11513 H 1110.08 -0.780283 2.89054 0
M  V30 11514 H 1107.62 -0.373896 1.39061 0
M  V30 11515 H 1109.57 -3.21179 2.72804 0
M  V30 11516 H 1108.3 -2.88609 1.52881 0
M  V30 11517 H 1106.96 -1.6559 3.27071 0
M  V30 11518 H 1106.61 -4.10507 2.90677 0
M  V30 11519 H 1106.31 -3.65195 4.60333 0
M  V30 11520 H 1107.83 -4.47128 4.15823 0
M  V30 11521 H 1109.24 -2.44533 5.18533 0
M  V30 11522 H 1107.64 -1.85156 5.70822 0
M  V30 11523 H 1108.71 -0.780478 4.78578 0
M  V30 11524 N 1110.05 -1.5248 -0.398459 0
M  V30 11525 C 1111.3 -1.67309 -1.1461 0
M  V30 11526 C 1111.63 -0.407095 -1.89885 0
M  V30 11527 O 1110.91 0.594834 -1.85181 0
M  V30 11528 C 1111.19 -2.90204 -2.13198 0
M  V30 11529 C 1111.04 -4.26881 -1.4175 0
M  V30 11530 C 1112.36 -3.08634 -3.13741 0
M  V30 11531 H 1109.48 -0.608853 -0.415292 0
M  V30 11532 H 1112.12 -1.85057 -0.430573 0
M  V30 11533 H 1110.27 -2.75204 -2.74218 0
M  V30 11534 H 1111.95 -4.53631 -0.837676 0
M  V30 11535 H 1110.19 -4.27793 -0.719387 0
M  V30 11536 H 1110.86 -5.08939 -2.1374 0
M  V30 11537 H 1113.34 -3.22603 -2.62805 0
M  V30 11538 H 1112.21 -3.96117 -3.79977 0
M  V30 11539 H 1112.47 -2.22425 -3.82073 0
M  V30 11540 N 1111.53 0.65634 -1.43283 0
M  V30 11541 C 1112.78 1.41837 -1.44949 0
M  V30 11542 C 1113.11 1.94065 -0.0723212 0
M  V30 11543 O 1112.39 1.72092 0.906346 0
M  V30 11544 C 1112.67 2.60206 -2.48927 0
M  V30 11545 C 1112.52 2.1349 -3.95907 0
M  V30 11546 C 1113.84 3.62421 -2.49678 0
M  V30 11547 H 1110.96 0.514398 -0.527792 0
M  V30 11548 H 1113.6 0.74435 -1.74813 0
M  V30 11549 H 1111.75 3.17708 -2.23592 0
M  V30 11550 H 1113.42 1.61012 -4.32288 0
M  V30 11551 H 1111.67 1.4489 -4.08888 0
M  V30 11552 H 1112.34 2.98596 -4.64268 0
M  V30 11553 H 1114.81 3.14671 -2.72252 0
M  V30 11554 H 1113.69 4.42798 -3.24378 0
M  V30 11555 H 1113.95 4.14802 -1.52944 0
M  V30 11556 N 1113.01 1.29761 0.894412 0
M  V30 11557 C 1113.94 1.17902 2.01547 0
M  V30 11558 C 1114.92 0.0719402 1.69948 0
M  V30 11559 O 1116.11 0.252338 1.92554 0
M  V30 11560 C 1113.24 0.860262 3.36477 0
M  V30 11561 C 1112.19 1.92424 3.82305 0
M  V30 11562 C 1111.52 1.45868 5.14419 0
M  V30 11563 C 1112.82 3.33391 4.02054 0
M  V30 11564 H 1114.51 2.11688 2.11727 0
M  V30 11565 H 1112.06 1.01916 1.01731 0
M  V30 11566 H 1114.01 0.763987 4.14417 0
M  V30 11567 H 1112.73 -0.113289 3.26403 0
M  V30 11568 H 1111.39 2.00999 3.06586 0
M  V30 11569 H 1111.04 0.473654 5.00765 0
M  V30 11570 H 1110.74 2.17028 5.46052 0
M  V30 11571 H 1112.26 1.37601 5.94894 0
M  V30 11572 H 1113.68 3.27628 4.7046 0
M  V30 11573 H 1112.07 4.02555 4.4505 0
M  V30 11574 H 1113.14 3.75978 3.06216 0
M  V30 11575 N 1114.49 -1.10549 1.12324 0
M  V30 11576 C 1115.44 -2.18944 0.785248 0
M  V30 11577 C 1116.43 -1.67867 -0.227389 0
M  V30 11578 O 1117.64 -1.79796 -0.0857162 0
M  V30 11579 H 1114.01 -0.713976 0.236098 0
M  V30 11580 H 1115.98 -2.44692 1.70788 0
M  V30 11581 C 1114.73 -3.46765 0.25485 0
M  V30 11582 H 1114.05 -3.86428 1.02534 0
M  V30 11583 H 1115.49 -4.23962 0.0566526 0
M  V30 11584 C 1113.95 -3.21185 -1.01695 0
M  V30 11585 O 1114.48 -3.42745 -2.09497 0
M  V30 11586 N 1112.69 -2.7486 -0.943423 0
M  V30 11587 H 1112.24 -2.57515 -0.0660366 0
M  V30 11588 H 1112.19 -2.58122 -1.795 0
M  V30 11589 N 1115.97 -0.914965 -1.28321 0
M  V30 11590 C 1116.93 -0.409024 -2.25521 0
M  V30 11591 C 1117.93 0.465327 -1.5392 0
M  V30 11592 O 1119.12 0.26821 -1.72123 0
M  V30 11593 C 1116.25 0.413452 -3.38383 0
M  V30 11594 H 1117.44 -1.26767 -2.71791 0
M  V30 11595 H 1115 -0.694477 -1.40024 0
M  V30 11596 H 1115.73 1.29145 -2.97476 0
M  V30 11597 H 1115.52 -0.213268 -3.9152 0
M  V30 11598 H 1117.01 0.758232 -4.10659 0
M  V30 11599 N 1117.44 1.42219 -0.679077 0
M  V30 11600 C 1118.41 2.29197 -0.0125475 0
M  V30 11601 C 1119.41 1.43544 0.724691 0
M  V30 11602 O 1120.6 1.64884 0.562052 0
M  V30 11603 C 1117.73 3.26122 0.992846 0
M  V30 11604 H 1118.92 2.89629 -0.778154 0
M  V30 11605 H 1116.47 1.4993 -0.44166 0
M  V30 11606 H 1117.21 2.70637 1.78679 0
M  V30 11607 H 1116.99 3.89302 0.467544 0
M  V30 11608 H 1118.48 3.91339 1.45751 0
M  V30 11609 N 1118.92 0.422693 1.51826 0
M  V30 11610 C 1120.15 -0.15017 2.06856 0
M  V30 11611 C 1120.57 -1.36946 1.28948 0
M  V30 11612 O 1119.93 -1.78393 0.32338 0
M  V30 11613 C 1119.98 -0.465563 3.57582 0
M  V30 11614 O 1119.08 -1.55442 3.81984 0
M  V30 11615 H 1118.42 -0.00827931 0.663948 0
M  V30 11616 H 1120.95 0.599806 1.95611 0
M  V30 11617 H 1120.96 -0.720279 4.01592 0
M  V30 11618 H 1119.64 0.425679 4.13716 0
M  V30 11619 H 1118.21 -1.29081 3.49846 0
M  V30 11620 N 1120.4 -1.5685 0.153553 0
M  V30 11621 C 1121.65 -1.96625 -0.49665 0
M  V30 11622 C 1121.98 -1.03877 -1.64083 0
M  V30 11623 O 1121.25 -0.0824112 -1.94325 0
M  V30 11624 C 1121.54 -3.46035 -0.996585 0
M  V30 11625 C 1121.39 -4.49561 0.146551 0
M  V30 11626 C 1122.71 -3.98104 -1.8762 0
M  V30 11627 H 1119.83 -0.714917 -0.179059 0
M  V30 11628 H 1122.47 -1.88527 0.236104 0
M  V30 11629 H 1120.62 -3.53066 -1.621 0
M  V30 11630 H 1122.29 -4.54604 0.783108 0
M  V30 11631 H 1120.53 -4.26271 0.804727 0
M  V30 11632 H 1121.21 -5.51456 -0.245078 0
M  V30 11633 H 1123.68 -3.93593 -1.34997 0
M  V30 11634 H 1122.56 -5.03098 -2.19508 0
M  V30 11635 H 1122.82 -3.40852 -2.81554 0
M  V30 11636 N 1121.88 0.120221 -1.57141 0
M  V30 11637 C 1122.84 1.13159 -1.99318 0
M  V30 11638 C 1123.84 1.34376 -0.883158 0
M  V30 11639 O 1125.03 1.30914 -1.14922 0
M  V30 11640 C 1122.16 2.48632 -2.33227 0
M  V30 11641 H 1123.36 0.769119 -2.8987 0
M  V30 11642 H 1120.91 0.364475 -1.51991 0
M  V30 11643 H 1121.64 2.89802 -1.45551 0
M  V30 11644 H 1121.43 2.34587 -3.14184 0
M  V30 11645 H 1122.92 3.21423 -2.66603 0
M  V30 11646 N 1123.36 1.52689 0.390367 0
M  V30 11647 C 1124.6 1.67335 1.13329 0
M  V30 11648 C 1124.93 0.415068 1.90531 0
M  V30 11649 O 1124.2 -0.570504 1.87409 0
M  V30 11650 H 1122.78 0.616821 0.421356 0
M  V30 11651 H 1125.44 1.89799 0.443 0
M  V30 11652 H 1124.53 2.52314 1.83696 0
M  V30 11653 N 1124.83 -0.648732 1.43629 0
M  V30 11654 C 1125.8 -1.74331 1.488 0
M  V30 11655 C 1126.8 -1.56434 0.372147 0
M  V30 11656 O 1127.99 -1.6225 0.634078 0
M  V30 11657 C 1125.12 -3.13248 1.34494 0
M  V30 11658 H 1126.31 -1.71125 2.46285 0
M  V30 11659 H 1123.87 -0.860798 1.30461 0
M  V30 11660 H 1124.6 -3.22062 0.380345 0
M  V30 11661 H 1124.39 -3.27643 2.15389 0
M  V30 11662 H 1125.88 -3.93056 1.41055 0
M  V30 11663 N 1126.31 -1.30234 -0.887518 0
M  V30 11664 C 1127.26 -1.13013 -1.9802 0
M  V30 11665 C 1128.25 -0.0460253 -1.60834 0
M  V30 11666 O 1129.44 -0.26907 -1.74943 0
M  V30 11667 C 1126.57 -0.821397 -3.33329 0
M  V30 11668 C 1125.65 -1.94564 -3.76837 0
M  V30 11669 N 1126.04 -3.19068 -3.92465 0
M  V30 11670 C 1124.34 -1.84142 -4.06211 0
M  V30 11671 C 1125.04 -3.92495 -4.29328 0
M  V30 11672 N 1124.02 -3.20526 -4.39049 0
M  V30 11673 H 1127.82 -2.07446 -2.0819 0
M  V30 11674 H 1125.34 -1.21536 -1.07716 0
M  V30 11675 H 1127.33 -0.679046 -4.11333 0
M  V30 11676 H 1125.99 0.114891 -3.24497 0
M  V30 11677 H 1127 -3.54386 -3.77665 0
M  V30 11678 H 1123.68 -0.97865 -4.05868 0
M  V30 11679 H 1125.07 -4.99701 -4.49164 0
M  V30 11680 N 1127.79 1.09952 -1.12909 0
M  V30 11681 C 1129.04 1.81657 -0.885729 0
M  V30 11682 C 1129.36 1.85863 0.589913 0
M  V30 11683 O 1128.63 1.34028 1.42875 0
M  V30 11684 H 1127.21 0.672743 -0.324694 0
M  V30 11685 H 1129.87 1.33013 -1.42456 0
M  V30 11686 H 1128.97 2.85018 -1.27167 0
M  V30 11687 N 1129.27 0.921757 1.27833 0
M  V30 11688 C 1130.2 0.433466 2.29441 0
M  V30 11689 C 1131.18 -0.503133 1.62489 0
M  V30 11690 O 1132.36 -0.409156 1.89841 0
M  V30 11691 C 1129.49 -0.320029 3.45822 0
M  V30 11692 C 1128.45 0.528178 4.24728 0
M  V30 11693 C 1127.77 -0.354132 5.33526 0
M  V30 11694 C 1129.07 1.78959 4.90684 0
M  V30 11695 H 1130.77 1.28263 2.70535 0
M  V30 11696 H 1128.31 0.618197 1.30055 0
M  V30 11697 H 1130.27 -0.672526 4.15999 0
M  V30 11698 H 1128.99 -1.20317 3.0363 0
M  V30 11699 H 1127.65 0.863302 3.5629 0
M  V30 11700 H 1127.3 -1.23605 4.87576 0
M  V30 11701 H 1127 0.209855 5.87225 0
M  V30 11702 H 1128.52 -0.702333 6.06547 0
M  V30 11703 H 1129.94 1.50552 5.53179 0
M  V30 11704 H 1128.33 2.29661 5.54415 0
M  V30 11705 H 1129.4 2.51265 4.14721 0
M  V30 11706 N 1130.75 -1.41857 0.686609 0
M  V30 11707 C 1131.68 -2.33481 0.0298353 0
M  V30 11708 C 1132.66 -1.51329 -0.776756 0
M  V30 11709 O 1133.84 -1.79895 -0.731535 0
M  V30 11710 C 1130.97 -3.35065 -0.913707 0
M  V30 11711 C 1129.93 -4.2746 -0.214861 0
M  V30 11712 C 1129.25 -5.19346 -1.27215 0
M  V30 11713 C 1130.55 -5.14252 0.913367 0
M  V30 11714 H 1132.25 -2.8865 0.795067 0
M  V30 11715 H 1129.79 -1.38792 0.383785 0
M  V30 11716 H 1131.75 -3.98082 -1.38234 0
M  V30 11717 H 1130.47 -2.78226 -1.7105 0
M  V30 11718 H 1129.13 -3.65855 0.233651 0
M  V30 11719 H 1128.78 -4.58827 -2.06124 0
M  V30 11720 H 1128.48 -5.81996 -0.80961 0
M  V30 11721 H 1130 -5.85239 -1.74147 0
M  V30 11722 H 1131.41 -5.70887 0.525424 0
M  V30 11723 H 1129.81 -5.85796 1.30244 0
M  V30 11724 H 1130.88 -4.51949 1.75699 0
M  V30 11725 N 1132.22 -0.430739 -1.51599 0
M  V30 11726 C 1133.45 0.139197 -2.06932 0
M  V30 11727 C 1133.87 1.3626 -1.29672 0
M  V30 11728 O 1133.23 1.78219 -0.332836 0
M  V30 11729 C 1133.28 0.446593 -3.57824 0
M  V30 11730 O 1132.38 1.53414 -3.82803 0
M  V30 11731 H 1131.73 0.00475812 -0.663983 0
M  V30 11732 H 1134.26 -0.610171 -1.9529 0
M  V30 11733 H 1134.27 0.698972 -4.01968 0
M  V30 11734 H 1132.94 -0.447613 -4.13484 0
M  V30 11735 H 1131.52 1.27224 -3.50526 0
M  V30 11736 N 1133.7 1.56767 -0.161869 0
M  V30 11737 C 1134.95 1.96594 0.485496 0
M  V30 11738 C 1135.28 1.04743 1.63887 0
M  V30 11739 O 1134.53 0.079602 1.95538 0
M  V30 11740 C 1134.83 3.42567 1.01894 0
M  V30 11741 C 1134.5 4.50897 -0.0175419 0
M  V30 11742 C 1133.16 4.80249 -0.302429 0
M  V30 11743 C 1135.51 5.16181 -0.721572 0
M  V30 11744 C 1132.84 5.72187 -1.2969 0
M  V30 11745 C 1135.19 6.09191 -1.70496 0
M  V30 11746 C 1133.86 6.36915 -1.99739 0
M  V30 11747 H 1133.13 0.719388 0.177656 0
M  V30 11748 H 1135.77 1.89837 -0.251839 0
M  V30 11749 H 1134.08 3.4623 1.83391 0
M  V30 11750 H 1135.77 3.70719 1.52867 0
M  V30 11751 H 1132.36 4.28062 0.21468 0
M  V30 11752 H 1136.55 4.93624 -0.514681 0
M  V30 11753 H 1131.8 5.91953 -1.52974 0
M  V30 11754 H 1135.98 6.58849 -2.25591 0
M  V30 11755 H 1133.61 7.07958 -2.76948 0
M  V30 11756 N 1135.18 -0.111886 1.57202 0
M  V30 11757 C 1136.11 -1.13796 2.03894 0
M  V30 11758 C 1137.09 -1.4277 0.924696 0
M  V30 11759 O 1138.28 -1.53089 1.19488 0
M  V30 11760 C 1135.41 -2.46229 2.44925 0
M  V30 11761 C 1134.36 -2.31702 3.59859 0
M  V30 11762 C 1133.69 -3.69161 3.86813 0
M  V30 11763 C 1134.99 -1.77158 4.91337 0
M  V30 11764 H 1136.68 -0.749581 2.89865 0
M  V30 11765 H 1134.23 -0.359126 1.3945 0
M  V30 11766 H 1136.18 -3.18267 2.76195 0
M  V30 11767 H 1134.9 -2.86971 1.55933 0
M  V30 11768 H 1133.56 -1.62112 3.28809 0
M  V30 11769 H 1133.21 -4.07401 2.95015 0
M  V30 11770 H 1132.91 -3.60292 4.6418 0
M  V30 11771 H 1134.43 -4.42693 4.20542 0
M  V30 11772 H 1135.85 -2.3902 5.21097 0
M  V30 11773 H 1134.25 -1.79091 5.72753 0
M  V30 11774 H 1135.32 -0.729675 4.79379 0
M  V30 11775 N 1136.66 -1.52894 -0.382264 0
M  V30 11776 C 1137.9 -1.68515 -1.12829 0
M  V30 11777 C 1138.24 -0.427211 -1.89443 0
M  V30 11778 O 1137.51 0.57516 -1.85801 0
M  V30 11779 C 1137.8 -2.92449 -2.10108 0
M  V30 11780 C 1137.65 -4.2836 -1.37214 0
M  V30 11781 C 1138.97 -3.11944 -3.1045 0
M  V30 11782 H 1136.09 -0.613223 -0.408811 0
M  V30 11783 H 1138.73 -1.85503 -0.410921 0
M  V30 11784 H 1136.88 -2.78097 -2.71283 0
M  V30 11785 H 1138.55 -4.54493 -0.789516 0
M  V30 11786 H 1136.79 -4.28532 -0.673973 0
M  V30 11787 H 1137.46 -5.11178 -2.0833 0
M  V30 11788 H 1139.94 -3.25372 -2.59369 0
M  V30 11789 H 1138.82 -4.00125 -3.75754 0
M  V30 11790 H 1139.08 -2.26465 -3.79692 0
M  V30 11791 N 1138.14 0.641106 -1.43971 0
M  V30 11792 C 1139.38 1.40084 -1.46228 0
M  V30 11793 C 1139.71 1.94287 -0.0911011 0
M  V30 11794 O 1138.97 1.73481 0.905688 0
M  V30 11795 C 1139.27 2.59092 -2.46183 0
M  V30 11796 C 1138.93 2.23237 -3.9176 0
M  V30 11797 C 1137.59 2.13171 -4.31407 0
M  V30 11798 C 1139.95 1.94746 -4.83449 0
M  V30 11799 C 1137.27 1.72788 -5.60679 0
M  V30 11800 C 1139.63 1.55858 -6.13099 0
M  V30 11801 C 1138.29 1.44326 -6.5171 0
M  V30 11802 H 1137.56 0.512603 -0.535088 0
M  V30 11803 H 1140.21 0.727956 -1.77124 0
M  V30 11804 H 1138.51 3.31568 -2.08734 0
M  V30 11805 H 1140.21 3.17313 -2.4518 0
M  V30 11806 H 1136.8 2.31986 -3.60389 0
M  V30 11807 H 1140.98 2.01438 -4.53582 0
M  V30 11808 H 1136.24 1.62455 -5.89422 0
M  V30 11809 H 1140.41 1.32848 -6.83611 0
M  V30 11810 H 1138.04 1.12806 -7.51784 0
M  V30 11811 N 1139.62 1.30703 0.880598 0
M  V30 11812 C 1140.86 1.19778 1.63277 0
M  V30 11813 C 1141.19 -0.246521 1.92931 0
M  V30 11814 O 1140.45 -1.19226 1.55189 0
M  V30 11815 C 1140.74 1.97628 2.97789 0
M  V30 11816 C 1140.41 3.47213 2.87669 0
M  V30 11817 C 1139.07 3.88004 2.84617 0
M  V30 11818 C 1141.42 4.4245 2.75477 0
M  V30 11819 C 1138.75 5.22315 2.67216 0
M  V30 11820 C 1141.1 5.76874 2.59614 0
M  V30 11821 C 1139.77 6.16898 2.54939 0
M  V30 11822 H 1139.04 0.438298 0.597475 0
M  V30 11823 H 1141.69 1.61853 1.02352 0
M  V30 11824 H 1139.99 1.48201 3.6269 0
M  V30 11825 H 1141.69 1.86563 3.54958 0
M  V30 11826 H 1138.28 3.14802 2.90857 0
M  V30 11827 H 1142.46 4.11875 2.76899 0
M  V30 11828 H 1137.72 5.52412 2.62014 0
M  V30 11829 H 1141.89 6.50304 2.49155 0
M  V30 11830 H 1139.52 7.20916 2.41214 0
M  V30 11831 N 1141.09 -1.09351 1.1349 0
M  V30 11832 C 1142.33 -1.83156 0.907372 0
M  V30 11833 C 1142.7 -1.8376 -0.556441 0
M  V30 11834 O 1143.9 -2.5323 -0.90156 0
M  V30 11835 C 1142.17 -3.25315 1.48004 0
M  V30 11836 S 1143.73 -4.16113 1.39268 0
M  V30 11837 H 1140.55 -0.631319 0.327043 0
M  V30 11838 H 1143.15 -1.31509 1.44657 0
M  V30 11839 H 1141.85 -3.22452 2.53876 0
M  V30 11840 H 1141.38 -3.82034 0.938822 0
M  V30 11841 H 1143.4 -4.94806 0.371645 0
M  V30 11842 N 1142.57 -0.928524 -1.27343 0
M  V30 11843 C 1143.53 -0.43292 -2.25074 0
M  V30 11844 C 1144.53 0.448976 -1.54405 0
M  V30 11845 O 1145.72 0.249939 -1.72398 0
M  V30 11846 C 1142.86 0.377539 -3.38803 0
M  V30 11847 H 1144.05 -1.29642 -2.70431 0
M  V30 11848 H 1141.6 -0.709289 -1.3928 0
M  V30 11849 H 1142.34 1.25982 -2.98829 0
M  V30 11850 H 1142.12 -0.254782 -3.91271 0
M  V30 11851 H 1143.61 0.714634 -4.1144 0
M  V30 11852 N 1144.05 1.41491 -0.694123 0
M  V30 11853 C 1145.01 2.2917 -0.0368562 0
M  V30 11854 C 1146.01 1.44305 0.709426 0
M  V30 11855 O 1147.2 1.6547 0.544533 0
M  V30 11856 C 1144.33 3.27156 0.958201 0
M  V30 11857 H 1145.53 2.88787 -0.808829 0
M  V30 11858 H 1143.08 1.49453 -0.457538 0
M  V30 11859 H 1143.82 2.72516 1.75799 0
M  V30 11860 H 1143.6 3.89776 0.426227 0
M  V30 11861 H 1145.09 3.92863 1.41592 0
M  V30 11862 N 1145.53 0.438773 1.51369 0
M  V30 11863 C 1146.77 -0.119657 2.03048 0
M  V30 11864 C 1147.13 -1.4026 1.317 0
M  V30 11865 O 1146.42 -1.86858 0.423612 0
M  V30 11866 C 1146.62 -0.39186 3.55245 0
M  V30 11867 C 1146.44 0.863149 4.41339 0
M  V30 11868 C 1145.21 1.39709 4.85602 0
M  V30 11869 C 1147.41 1.74969 4.83622 0
M  V30 11870 N 1145.39 2.60449 5.55913 0
M  V30 11871 C 1146.77 2.80313 5.53014 0
M  V30 11872 C 1148.82 1.76393 4.65607 0
M  V30 11873 C 1147.52 3.87029 6.06301 0
M  V30 11874 C 1149.55 2.82045 5.19812 0
M  V30 11875 C 1148.91 3.86109 5.89151 0
M  V30 11876 H 1145.01 -0.00458455 0.781987 0
M  V30 11877 H 1147.59 0.599764 1.85232 0
M  V30 11878 H 1145.77 -1.08032 3.73073 0
M  V30 11879 H 1147.5 -0.941775 3.93589 0
M  V30 11880 H 1144.25 0.950817 4.63957 0
M  V30 11881 H 1144.68 3.21678 5.95695 0
M  V30 11882 H 1149.32 0.972686 4.11459 0
M  V30 11883 H 1147.04 4.66991 6.59504 0
M  V30 11884 H 1150.62 2.84091 5.07724 0
M  V30 11885 H 1149.5 4.66518 6.30342 0
M  V30 11886 N 1147.01 -1.56678 0.170181 0
M  V30 11887 C 1148.24 -2.00931 -0.480664 0
M  V30 11888 C 1148.64 -1.04947 -1.57425 0
M  V30 11889 O 1147.99 -0.042229 -1.83651 0
M  V30 11890 C 1148.05 -3.4161 -1.11996 0
M  V30 11891 C 1147.71 -4.5669 -0.168167 0
M  V30 11892 C 1148.71 -5.16273 0.613059 0
M  V30 11893 C 1146.39 -5.02259 -0.0643243 0
M  V30 11894 C 1148.39 -6.19852 1.48534 0
M  V30 11895 C 1146.08 -6.05687 0.811542 0
M  V30 11896 C 1147.07 -6.64355 1.58496 0
M  V30 11897 O 1146.76 -7.65778 2.44619 0
M  V30 11898 H 1146.49 -0.66386 -0.12754 0
M  V30 11899 H 1149.05 -2.03635 0.2687 0
M  V30 11900 H 1147.28 -3.35815 -1.91743 0
M  V30 11901 H 1148.97 -3.69823 -1.67289 0
M  V30 11902 H 1149.73 -4.81951 0.542999 0
M  V30 11903 H 1145.61 -4.56307 -0.656102 0
M  V30 11904 H 1149.16 -6.65572 2.08948 0
M  V30 11905 H 1145.05 -6.39435 0.88281 0
M  V30 11906 H 1145.82 -7.83096 2.38122 0
M  V30 11907 N 1148.48 0.103547 -1.57259 0
M  V30 11908 C 1149.73 0.807231 -1.84842 0
M  V30 11909 C 1150.05 1.80308 -0.758181 0
M  V30 11910 O 1151.25 2.55406 -0.920877 0
M  V30 11911 C 1149.71 1.4864 -3.27771 0
M  V30 11912 C 1149.32 0.53075 -4.44845 0
M  V30 11913 C 1151.06 2.17431 -3.64587 0
M  V30 11914 C 1148.97 1.21403 -5.78805 0
M  V30 11915 H 1147.9 0.305212 -0.689465 0
M  V30 11916 H 1150.55 0.0600855 -1.83402 0
M  V30 11917 H 1148.93 2.28071 -3.23728 0
M  V30 11918 H 1150.1 -0.231455 -4.60218 0
M  V30 11919 H 1148.42 -0.0510078 -4.16369 0
M  V30 11920 H 1151.02 2.6927 -4.6195 0
M  V30 11921 H 1151.36 2.9594 -2.92789 0
M  V30 11922 H 1151.89 1.4487 -3.70483 0
M  V30 11923 H 1148.63 0.469918 -6.53813 0
M  V30 11924 H 1148.15 1.94787 -5.6729 0
M  V30 11925 H 1149.83 1.74289 -6.23083 0
M  V30 11926 N 1149.96 1.53094 0.37415 0
M  V30 11927 C 1150.91 1.78927 1.45787 0
M  V30 11928 C 1151.88 0.633187 1.53558 0
M  V30 11929 O 1153.06 0.874472 1.69581 0
M  V30 11930 C 1150.2 1.97726 2.8284 0
M  V30 11931 C 1149.32 3.25436 2.84104 0
M  V30 11932 C 1148.45 3.3447 4.12678 0
M  V30 11933 C 1147.49 4.56246 4.08051 0
M  V30 11934 N 1146.63 4.6248 5.28258 0
M  V30 11935 H 1151.47 2.71404 1.2306 0
M  V30 11936 H 1149 1.34453 0.596716 0
M  V30 11937 H 1150.96 2.06611 3.62447 0
M  V30 11938 H 1149.59 1.08593 3.03986 0
M  V30 11939 H 1148.64 3.25548 1.96781 0
M  V30 11940 H 1149.96 4.15112 2.76556 0
M  V30 11941 H 1149.11 3.4262 5.00696 0
M  V30 11942 H 1147.85 2.42795 4.22968 0
M  V30 11943 H 1146.85 4.48206 3.1842 0
M  V30 11944 H 1148.08 5.49254 3.99371 0
M  V30 11945 H 1146.03 3.73703 5.3915 0
M  V30 11946 H 1145.94 5.46049 5.22845 0
M  V30 11947 H 1147.21 4.74903 6.18132 0
M  V30 11948 N 1151.44 -0.633461 1.44309 0
M  V30 11949 C 1152.69 -1.39031 1.46679 0
M  V30 11950 C 1153.01 -1.94745 0.0997165 0
M  V30 11951 O 1152.28 -1.75637 -0.867659 0
M  V30 11952 H 1150.86 -0.516051 0.540093 0
M  V30 11953 H 1153.52 -0.745739 1.80069 0
M  V30 11954 H 1152.62 -2.2228 2.19085 0
M  V30 11955 N 1152.92 -1.31168 -0.873655 0
M  V30 11956 C 1154.33 -1.09745 -1.1588 0
M  V30 11957 C 1154.53 0.134471 -2.01051 0
M  V30 11958 O 1153.59 0.824857 -2.38647 0
M  V30 11959 C 1154.9 -2.36704 -1.85451 0
M  V30 11960 C 1156.45 -2.42278 -1.98167 0
M  V30 11961 C 1156.93 -3.69108 -2.71152 0
M  V30 11962 N 1158.42 -3.69981 -2.7869 0
M  V30 11963 C 1159.15 -4.64811 -3.35765 0
M  V30 11964 N 1158.65 -5.69995 -3.938 0
M  V30 11965 N 1160.44 -4.52337 -3.33688 0
M  V30 11966 H 1152.59 -2.10184 -0.306021 0
M  V30 11967 H 1154.86 -0.927058 -0.198159 0
M  V30 11968 H 1154.56 -3.26666 -1.30316 0
M  V30 11969 H 1154.44 -2.46219 -2.85755 0
M  V30 11970 H 1156.82 -1.52787 -2.52468 0
M  V30 11971 H 1156.9 -2.3673 -0.969164 0
M  V30 11972 H 1156.55 -4.58963 -2.1752 0
M  V30 11973 H 1156.48 -3.71922 -3.72803 0
M  V30 11974 H 1158.97 -2.93944 -2.37498 0
M  V30 11975 H 1159.28 -6.38438 -4.3545 0
M  V30 11976 H 1157.63 -5.73773 -3.92186 0
M  V30 11977 H 1160.82 -3.69341 -2.87584 0
M  V30 11978 H 1160.99 -5.2642 -3.77871 0
M  V30 11979 N 1154.4 1.08748 -1.14068 0
M  V30 11980 C 1155.33 2.17591 -0.84714 0
M  V30 11981 C 1156.31 1.68962 0.196415 0
M  V30 11982 O 1157.49 1.94125 0.0538415 0
M  V30 11983 C 1154.62 3.45823 -0.320005 0
M  V30 11984 C 1153.58 4.07824 -1.2986 0
M  V30 11985 C 1152.9 5.30965 -0.630925 0
M  V30 11986 C 1154.2 4.49512 -2.65963 0
M  V30 11987 H 1155.9 2.42404 -1.75729 0
M  V30 11988 H 1153.44 1.16502 -0.846356 0
M  V30 11989 H 1155.4 4.21276 -0.102271 0
M  V30 11990 H 1154.12 3.20553 0.625561 0
M  V30 11991 H 1152.78 3.34398 -1.50245 0
M  V30 11992 H 1152.43 5.01979 0.320337 0
M  V30 11993 H 1152.13 5.73402 -1.28388 0
M  V30 11994 H 1153.65 6.09136 -0.422635 0
M  V30 11995 H 1155.06 5.16159 -2.49506 0
M  V30 11996 H 1153.46 5.02857 -3.27498 0
M  V30 11997 H 1154.53 3.6157 -3.23102 0
M  V30 11998 N 1155.87 0.935264 1.26849 0
M  V30 11999 C 1157.12 0.580548 1.94313 0
M  V30 12000 C 1157.45 -0.877205 1.73259 0
M  V30 12001 O 1156.73 -1.62679 1.06611 0
M  V30 12002 C 1157.01 0.916445 3.48243 0
M  V30 12003 C 1156.86 2.42851 3.78607 0
M  V30 12004 C 1158.18 0.427665 4.38017 0
M  V30 12005 H 1155.3 0.21239 0.705733 0
M  V30 12006 H 1157.94 1.16841 1.49827 0
M  V30 12007 H 1156.09 0.416169 3.86265 0
M  V30 12008 H 1157.77 3.00106 3.50335 0
M  V30 12009 H 1156.01 2.8745 3.24892 0
M  V30 12010 H 1156.68 2.61405 4.8618 0
M  V30 12011 H 1159.16 0.856525 4.07189 0
M  V30 12012 H 1158.03 0.691571 5.44526 0
M  V30 12013 H 1158.29 -0.672344 4.36958 0
M  V30 12014 N 1157.35 -1.41121 0.701616 0
M  V30 12015 C 1158.76 -1.84122 0.309208 0
M  V30 12016 C 1159.11 -1.58695 -1.15371 0
M  V30 12017 O 1158.24 -1.06053 -1.88631 0
M  V30 12018 C 1158.83 -3.34233 0.554429 0
M  V30 12019 C 1157.39 -3.7578 0.215876 0
M  V30 12020 C 1156.54 -2.6447 0.833729 0
M  V30 12021 H 1159.49 -1.30587 0.901822 0
M  V30 12022 H 1159.51 -3.8005 -0.18491 0
M  V30 12023 H 1159.02 -3.52707 1.61923 0
M  V30 12024 H 1157.13 -3.62905 -0.844421 0
M  V30 12025 H 1157.24 -4.74319 0.675118 0
M  V30 12026 H 1155.6 -2.5334 0.262851 0
M  V30 12027 H 1156.39 -2.85761 1.90252 0
M  V30 12028 N 1158.83 -0.446794 -1.51134 0
M  V30 12029 C 1160.08 0.116263 -2.01765 0
M  V30 12030 C 1160.4 1.42382 -1.33238 0
M  V30 12031 O 1159.67 1.9018 -0.469915 0
M  V30 12032 H 1158.25 0.0459558 -0.745585 0
M  V30 12033 H 1160.91 -0.591664 -1.85702 0
M  V30 12034 H 1160.01 0.285358 -3.10793 0
M  V30 12035 N 1160.31 1.56586 -0.178487 0
M  V30 12036 C 1161.27 2.17091 0.73512 0
M  V30 12037 C 1162.27 1.12088 1.15295 0
M  V30 12038 O 1163.46 1.37563 1.06874 0
M  V30 12039 C 1160.59 2.75957 2.00151 0
M  V30 12040 H 1161.79 2.99176 0.208272 0
M  V30 12041 H 1159.34 1.56138 0.0710967 0
M  V30 12042 H 1160.07 1.97626 2.57127 0
M  V30 12043 H 1159.86 3.52809 1.7108 0
M  V30 12044 H 1161.35 3.2247 2.65335 0
M  V30 12045 N 1161.79 -0.095206 1.57312 0
M  V30 12046 C 1162.75 -1.09974 2.01093 0
M  V30 12047 C 1163.75 -1.32954 0.904424 0
M  V30 12048 O 1164.94 -1.29069 1.16991 0
M  V30 12049 C 1162.07 -2.4489 2.37153 0
M  V30 12050 H 1163.26 -0.722906 2.91057 0
M  V30 12051 H 1160.82 -0.340249 1.52552 0
M  V30 12052 H 1161.55 -2.8745 1.50143 0
M  V30 12053 H 1161.34 -2.29559 3.17876 0
M  V30 12054 H 1162.83 -3.17141 2.71683 0
M  V30 12055 N 1163.26 -1.53291 -0.366026 0
M  V30 12056 C 1164.49 -1.73108 -1.1277 0
M  V30 12057 C 1164.9 -0.459662 -1.83531 0
M  V30 12058 O 1164.25 0.577151 -1.74398 0
M  V30 12059 C 1164.31 -2.84137 -2.20242 0
M  V30 12060 C 1163.97 -4.24503 -1.69252 0
M  V30 12061 C 1164.97 -5.06866 -1.15684 0
M  V30 12062 C 1162.65 -4.70912 -1.74778 0
M  V30 12063 C 1164.65 -6.33728 -0.683191 0
M  V30 12064 C 1162.33 -5.97752 -1.27025 0
M  V30 12065 C 1163.33 -6.78992 -0.738858 0
M  V30 12066 O 1163.02 -8.03452 -0.268375 0
M  V30 12067 H 1162.75 -0.582439 -0.343134 0
M  V30 12068 H 1165.31 -2.00828 -0.430969 0
M  V30 12069 H 1163.54 -2.5189 -2.93408 0
M  V30 12070 H 1165.23 -2.92136 -2.818 0
M  V30 12071 H 1165.99 -4.72185 -1.10753 0
M  V30 12072 H 1161.87 -4.07751 -2.15081 0
M  V30 12073 H 1165.41 -6.97086 -0.267746 0
M  V30 12074 H 1161.31 -6.31933 -1.31649 0
M  V30 12075 H 1162.08 -8.17581 -0.387745 0
M  V30 12076 N 1164.74 0.6258 -1.44643 0
M  V30 12077 C 1165.71 1.71941 -1.51555 0
M  V30 12078 C 1166.71 1.55822 -0.396988 0
M  V30 12079 O 1167.9 1.61221 -0.65981 0
M  V30 12080 C 1165.03 3.11068 -1.39461 0
M  V30 12081 H 1166.22 1.67185 -2.48976 0
M  V30 12082 H 1163.77 0.839934 -1.31814 0
M  V30 12083 H 1164.51 3.21416 -0.431534 0
M  V30 12084 H 1164.29 3.24175 -2.20574 0
M  V30 12085 H 1165.78 3.90762 -1.4729 0
M  V30 12086 N 1166.22 1.31629 0.866686 0
M  V30 12087 C 1167.15 1.22151 1.99001 0
M  V30 12088 C 1168.13 0.107972 1.69757 0
M  V30 12089 O 1169.32 0.293125 1.91975 0
M  V30 12090 C 1166.45 0.93144 3.34577 0
M  V30 12091 C 1165.4 2.0049 3.78137 0
M  V30 12092 C 1164.73 1.56747 5.11209 0
M  V30 12093 C 1166.03 3.41844 3.94892 0
M  V30 12094 H 1167.72 2.16132 2.0719 0
M  V30 12095 H 1165.27 1.04051 0.995463 0
M  V30 12096 H 1167.22 0.851719 4.12703 0
M  V30 12097 H 1165.94 -0.0440289 3.2657 0
M  V30 12098 H 1164.6 2.07457 3.02253 0
M  V30 12099 H 1164.25 0.579767 4.99648 0
M  V30 12100 H 1163.95 2.28562 5.41326 0
M  V30 12101 H 1165.47 1.50188 5.91841 0
M  V30 12102 H 1166.89 3.37534 4.63405 0
M  V30 12103 H 1165.29 4.11905 4.36411 0
M  V30 12104 H 1166.36 3.82389 2.98172 0
M  V30 12105 N 1167.7 -1.08142 1.14644 0
M  V30 12106 C 1168.93 -1.8405 0.938563 0
M  V30 12107 C 1169.34 -1.82017 -0.516361 0
M  V30 12108 O 1168.68 -1.22418 -1.36966 0
M  V30 12109 C 1168.74 -3.32563 1.36536 0
M  V30 12110 C 1168.41 -3.58327 2.83638 0
M  V30 12111 C 1169.4 -3.52944 3.81741 0
M  V30 12112 C 1167.09 -3.86251 3.21115 0
M  V30 12113 C 1169.08 -3.7512 5.15329 0
M  V30 12114 C 1166.77 -4.0808 4.54878 0
M  V30 12115 C 1167.77 -4.02508 5.51794 0
M  V30 12116 O 1167.46 -4.23761 6.83141 0
M  V30 12117 H 1167.19 -0.587793 0.33388 0
M  V30 12118 H 1169.74 -1.37467 1.52617 0
M  V30 12119 H 1167.97 -3.79917 0.721106 0
M  V30 12120 H 1169.66 -3.89915 1.12787 0
M  V30 12121 H 1170.43 -3.31382 3.54134 0
M  V30 12122 H 1166.31 -3.89707 2.46272 0
M  V30 12123 H 1169.85 -3.70686 5.90963 0
M  V30 12124 H 1165.75 -4.29126 4.82204 0
M  V30 12125 H 1166.51 -4.41152 6.8944 0
M  V30 12126 N 1169.18 -0.941978 -1.26351 0
M  V30 12127 C 1170.43 -0.588806 -1.93333 0
M  V30 12128 C 1170.75 0.875067 -1.74263 0
M  V30 12129 O 1170.02 1.62187 -1.09873 0
M  V30 12130 H 1168.6 -0.214774 -0.715459 0
M  V30 12131 H 1171.26 -1.19747 -1.53774 0
M  V30 12132 H 1170.35 -0.807267 -3.01479 0
M  V30 12133 N 1170.66 1.40747 -0.709091 0
M  V30 12134 C 1171.9 2.013 -0.246174 0
M  V30 12135 C 1172.23 1.56078 1.15556 0
M  V30 12136 O 1171.51 0.777941 1.78265 0
M  V30 12137 C 1171.79 3.58685 -0.318945 0
M  V30 12138 C 1171.65 4.13997 -1.75859 0
M  V30 12139 C 1172.96 4.38981 0.31358 0
M  V30 12140 H 1170.08 0.73137 -0.0909255 0
M  V30 12141 H 1172.73 1.67312 -0.900365 0
M  V30 12142 H 1170.88 3.8777 0.23805 0
M  V30 12143 H 1172.55 3.95735 -2.37047 0
M  V30 12144 H 1170.79 3.6853 -2.28841 0
M  V30 12145 H 1171.46 5.23158 -1.76095 0
M  V30 12146 H 1173.94 4.15789 -0.160939 0
M  V30 12147 H 1172.81 5.48409 0.232184 0
M  V30 12148 H 1173.07 4.19474 1.39621 0
M  V30 12149 N 1172.13 0.454803 1.50895 0
M  V30 12150 C 1173.38 -0.0981148 2.03163 0
M  V30 12151 C 1173.73 -1.38855 1.3318 0
M  V30 12152 O 1173.03 -1.86399 0.443407 0
M  V30 12153 C 1173.22 -0.354159 3.55641 0
M  V30 12154 C 1173.05 0.90991 4.40398 0
M  V30 12155 C 1171.82 1.44852 4.84093 0
M  V30 12156 C 1174.02 1.80088 4.81739 0
M  V30 12157 N 1172 2.66331 5.53119 0
M  V30 12158 C 1173.37 2.86162 5.5001 0
M  V30 12159 C 1175.43 1.81321 4.6371 0
M  V30 12160 C 1174.13 3.93438 6.02162 0
M  V30 12161 C 1176.16 2.87543 5.16791 0
M  V30 12162 C 1175.52 3.92336 5.85023 0
M  V30 12163 H 1171.62 0.00370972 0.781991 0
M  V30 12164 H 1174.2 0.619376 1.84586 0
M  V30 12165 H 1172.37 -1.04069 3.74198 0
M  V30 12166 H 1174.1 -0.899976 3.94566 0
M  V30 12167 H 1170.86 0.999972 4.62923 0
M  V30 12168 H 1171.28 3.27978 5.92249 0
M  V30 12169 H 1175.92 1.01627 4.10404 0
M  V30 12170 H 1173.64 4.73959 6.54514 0
M  V30 12171 H 1177.23 2.8946 5.04682 0
M  V30 12172 H 1176.11 4.73178 6.25358 0
M  V30 12173 N 1173.61 -1.56489 0.186789 0
M  V30 12174 C 1175.02 -1.83809 -0.327265 0
M  V30 12175 C 1175.37 -1.10718 -1.61976 0
M  V30 12176 O 1174.5 -0.36525 -2.13295 0
M  V30 12177 C 1175.09 -3.33435 -0.600551 0
M  V30 12178 C 1173.65 -3.61195 -1.059 0
M  V30 12179 C 1172.8 -2.77108 -0.103131 0
M  V30 12180 H 1175.75 -1.53292 0.410747 0
M  V30 12181 H 1175.77 -3.51754 -1.45084 0
M  V30 12182 H 1175.28 -3.86605 0.340315 0
M  V30 12183 H 1173.38 -3.13451 -2.01443 0
M  V30 12184 H 1173.5 -4.69435 -0.957458 0
M  V30 12185 H 1171.86 -2.47448 -0.603449 0
M  V30 12186 H 1172.64 -3.33065 0.832031 0
M  V30 12187 N 1175.09 0.086862 -1.5736 0
M  V30 12188 C 1176.02 1.10538 -2.05678 0
M  V30 12189 C 1177 1.41281 -0.947293 0
M  V30 12190 O 1178.19 1.51169 -1.21908 0
M  V30 12191 C 1175.32 2.42302 -2.48812 0
M  V30 12192 C 1174.27 2.25948 -3.63499 0
M  V30 12193 C 1173.6 3.62961 -3.92637 0
M  V30 12194 C 1174.9 1.69319 -4.94094 0
M  V30 12195 H 1176.59 0.703371 -2.91021 0
M  V30 12196 H 1174.14 0.336895 -1.40004 0
M  V30 12197 H 1176.09 3.13833 -2.81224 0
M  V30 12198 H 1174.81 2.84454 -1.60479 0
M  V30 12199 H 1173.47 1.5686 -3.31347 0
M  V30 12200 H 1173.12 4.02656 -3.01459 0
M  V30 12201 H 1172.82 3.52862 -4.69853 0
M  V30 12202 H 1174.34 4.35946 -4.27531 0
M  V30 12203 H 1175.76 2.30699 -5.24834 0
M  V30 12204 H 1174.15 1.69957 -5.7553 0
M  V30 12205 H 1175.22 0.653318 -4.80479 0
M  V30 12206 N 1176.57 1.53483 0.357892 0
M  V30 12207 C 1177.5 1.83444 1.44466 0
M  V30 12208 C 1178.48 0.688486 1.55544 0
M  V30 12209 O 1179.66 0.93906 1.69986 0
M  V30 12210 C 1176.79 2.03122 2.81707 0
M  V30 12211 C 1175.75 3.1891 2.85448 0
M  V30 12212 C 1175.07 3.23895 4.25436 0
M  V30 12213 C 1176.37 4.57334 2.52275 0
M  V30 12214 H 1178.07 2.74456 1.19642 0
M  V30 12215 H 1175.61 1.3206 0.574112 0
M  V30 12216 H 1177.57 2.22666 3.57768 0
M  V30 12217 H 1176.29 1.08827 3.07935 0
M  V30 12218 H 1174.95 2.99199 2.11838 0
M  V30 12219 H 1174.6 2.27223 4.48753 0
M  V30 12220 H 1174.3 4.01694 4.28854 0
M  V30 12221 H 1175.82 3.45632 5.0336 0
M  V30 12222 H 1177.24 4.76988 3.1805 0
M  V30 12223 H 1175.63 5.37431 2.66998 0
M  V30 12224 H 1176.7 4.61921 1.47501 0
M  V30 12225 N 1178.05 -0.61812 1.44973 0
M  V30 12226 C 1178.98 -1.74035 1.55673 0
M  V30 12227 C 1179.96 -1.65112 0.4089 0
M  V30 12228 O 1181.14 -1.83673 0.630698 0
M  V30 12229 C 1178.27 -3.1261 1.51303 0
M  V30 12230 C 1177.23 -3.36334 2.64696 0
M  V30 12231 C 1176.55 -4.75072 2.45378 0
M  V30 12232 C 1177.85 -3.27618 4.06772 0
M  V30 12233 H 1179.55 -1.65336 2.49608 0
M  V30 12234 H 1177.09 -0.794003 1.20132 0
M  V30 12235 H 1179.04 -3.90906 1.57388 0
M  V30 12236 H 1177.77 -3.22123 0.538914 0
M  V30 12237 H 1176.43 -2.60423 2.58022 0
M  V30 12238 H 1176.08 -4.81306 1.46129 0
M  V30 12239 H 1175.78 -4.91903 3.21412 0
M  V30 12240 H 1177.3 -5.55582 2.53301 0
M  V30 12241 H 1178.71 -3.95802 4.14746 0
M  V30 12242 H 1177.11 -3.55981 4.83113 0
M  V30 12243 H 1178.18 -2.25219 4.29423 0
M  V30 12244 N 1179.52 -1.32087 -0.859693 0
M  V30 12245 C 1180.45 -1.23204 -1.98351 0
M  V30 12246 C 1181.43 -0.116974 -1.69697 0
M  V30 12247 O 1182.62 -0.303301 -1.91817 0
M  V30 12248 C 1179.75 -0.949171 -3.34078 0
M  V30 12249 C 1178.7 -2.02493 -3.77069 0
M  V30 12250 C 1178.03 -1.59455 -5.1037 0
M  V30 12251 C 1179.33 -3.43934 -3.93074 0
M  V30 12252 H 1181.02 -2.17227 -2.0604 0
M  V30 12253 H 1178.57 -1.04577 -0.989931 0
M  V30 12254 H 1180.52 -0.873594 -4.12245 0
M  V30 12255 H 1179.25 0.0267095 -3.26589 0
M  V30 12256 H 1177.91 -2.09057 -3.01149 0
M  V30 12257 H 1177.55 -0.606256 -4.99333 0
M  V30 12258 H 1177.25 -2.31429 -5.40106 0
M  V30 12259 H 1178.78 -1.53325 -5.91036 0
M  V30 12260 H 1180.19 -3.39986 -4.61608 0
M  V30 12261 H 1178.59 -4.14214 -4.3422 0
M  V30 12262 H 1179.66 -3.83965 -2.9614 0
M  V30 12263 N 1181 1.07532 -1.15215 0
M  V30 12264 C 1181.93 2.1668 -0.870171 0
M  V30 12265 C 1182.91 1.69161 0.178483 0
M  V30 12266 O 1184.1 1.94172 0.0332489 0
M  V30 12267 C 1181.23 3.45464 -0.356666 0
M  V30 12268 C 1180.18 4.06424 -1.34179 0
M  V30 12269 C 1179.51 5.30266 -0.687206 0
M  V30 12270 C 1180.81 4.46666 -2.70715 0
M  V30 12271 H 1182.5 2.40526 -1.7829 0
M  V30 12272 H 1180.05 1.15598 -0.858665 0
M  V30 12273 H 1182 4.21144 -0.146947 0
M  V30 12274 H 1180.72 3.21199 0.591527 0
M  V30 12275 H 1179.38 3.32786 -1.53783 0
M  V30 12276 H 1179.03 5.0229 0.267077 0
M  V30 12277 H 1178.73 5.72009 -1.34462 0
M  V30 12278 H 1180.26 6.08653 -0.487218 0
M  V30 12279 H 1181.67 5.13483 -2.54966 0
M  V30 12280 H 1180.07 4.99355 -3.32813 0
M  V30 12281 H 1181.14 3.58123 -3.26919 0
M  V30 12282 N 1182.48 0.948665 1.2585 0
M  V30 12283 C 1183.41 0.482036 2.2847 0
M  V30 12284 C 1184.39 -0.468553 1.63519 0
M  V30 12285 O 1185.58 -0.368796 1.90666 0
M  V30 12286 C 1182.71 -0.246603 3.46423 0
M  V30 12287 C 1181.66 0.61815 4.23513 0
M  V30 12288 C 1180.99 -0.240884 5.34157 0
M  V30 12289 C 1182.29 1.89327 4.86778 0
M  V30 12290 H 1183.98 1.33973 2.67753 0
M  V30 12291 H 1181.53 0.645645 1.28715 0
M  V30 12292 H 1183.48 -0.584135 4.17332 0
M  V30 12293 H 1182.2 -1.13849 3.06114 0
M  V30 12294 H 1180.86 0.938682 3.54379 0
M  V30 12295 H 1180.51 -1.13235 4.90089 0
M  V30 12296 H 1180.21 0.334367 5.86648 0
M  V30 12297 H 1181.73 -0.573517 6.07901 0
M  V30 12298 H 1183.15 1.62252 5.49861 0
M  V30 12299 H 1181.55 2.41369 5.49419 0
M  V30 12300 H 1182.62 2.60006 4.09298 0
M  V30 12301 N 1183.96 -1.40369 0.716545 0
M  V30 12302 C 1184.92 -2.29083 0.0733105 0
M  V30 12303 C 1185.92 -1.45415 -0.686378 0
M  V30 12304 O 1187.11 -1.66316 -0.518139 0
M  V30 12305 C 1184.24 -3.28639 -0.906032 0
M  V30 12306 H 1185.44 -2.87464 0.85467 0
M  V30 12307 H 1182.99 -1.48706 0.481256 0
M  V30 12308 H 1183.72 -2.75279 -1.71441 0
M  V30 12309 H 1183.51 -3.90405 -0.364163 0
M  V30 12310 H 1185 -3.95066 -1.35324 0
M  V30 12311 N 1185.44 -0.462799 -1.50652 0
M  V30 12312 C 1186.37 0.325724 -2.31217 0
M  V30 12313 C 1187.35 0.997942 -1.3775 0
M  V30 12314 O 1188.53 0.996707 -1.66671 0
M  V30 12315 C 1185.66 1.41283 -3.17264 0
M  V30 12316 C 1184.62 0.862687 -4.19216 0
M  V30 12317 C 1183.94 2.04746 -4.93946 0
M  V30 12318 C 1185.24 -0.120365 -5.22161 0
M  V30 12319 H 1186.94 -0.346666 -2.97386 0
M  V30 12320 H 1184.48 -0.168163 -1.43015 0
M  V30 12321 H 1186.44 1.97188 -3.72418 0
M  V30 12322 H 1185.16 2.11387 -2.48964 0
M  V30 12323 H 1183.82 0.325671 -3.65151 0
M  V30 12324 H 1183.47 2.73529 -4.22127 0
M  V30 12325 H 1183.17 1.68562 -5.62904 0
M  V30 12326 H 1184.69 2.61157 -5.51932 0
M  V30 12327 H 1186.1 0.349226 -5.72235 0
M  V30 12328 H 1184.5 -0.396061 -5.98792 0
M  V30 12329 H 1185.57 -1.04895 -4.73418 0
M  V30 12330 N 1186.91 1.56388 -0.195085 0
M  V30 12331 C 1188.33 1.8398 0.317513 0
M  V30 12332 C 1188.68 1.11575 1.61386 0
M  V30 12333 O 1187.8 0.376557 2.13099 0
M  V30 12334 C 1188.4 3.33749 0.582859 0
M  V30 12335 C 1186.96 3.61752 1.03983 0
M  V30 12336 C 1186.1 2.77159 0.088434 0
M  V30 12337 H 1189.05 1.53072 -0.418871 0
M  V30 12338 H 1189.07 3.52519 1.43216 0
M  V30 12339 H 1188.59 3.86419 -0.360813 0
M  V30 12340 H 1186.69 3.14515 1.99778 0
M  V30 12341 H 1186.8 4.69937 0.932549 0
M  V30 12342 H 1185.16 2.47765 0.590317 0
M  V30 12343 H 1185.95 3.32619 -0.849682 0
M  V30 12344 N 1188.39 -0.0785156 1.57404 0
M  V30 12345 C 1189.8 -0.631132 1.75709 0
M  V30 12346 C 1190.15 -1.78261 0.819605 0
M  V30 12347 O 1189.28 -2.164 0.00206912 0
M  V30 12348 C 1189.87 -1.15168 3.18625 0
M  V30 12349 C 1188.43 -1.65021 3.38297 0
M  V30 12350 C 1187.58 -0.566773 2.71446 0
M  V30 12351 H 1190.53 0.147631 1.58012 0
M  V30 12352 H 1190.55 -2.02065 3.22413 0
M  V30 12353 H 1190.06 -0.313399 3.86833 0
M  V30 12354 H 1188.17 -2.51196 2.75194 0
M  V30 12355 H 1188.28 -1.73179 4.46706 0
M  V30 12356 H 1186.64 -1.01021 2.33809 0
M  V30 12357 H 1187.43 0.261204 3.42305 0
M  V30 12358 N 1189.87 -1.5367 -0.349747 0
M  V30 12359 C 1191.29 -1.43796 -0.692457 0
M  V30 12360 C 1191.49 -0.58972 -1.92677 0
M  V30 12361 O 1190.54 -0.078294 -2.52379 0
M  V30 12362 C 1191.86 -2.872 -0.890881 0
M  V30 12363 C 1193.4 -2.96935 -0.989892 0
M  V30 12364 C 1193.88 -4.41433 -1.22068 0
M  V30 12365 N 1195.37 -4.44932 -1.28802 0
M  V30 12366 C 1196.1 -5.53864 -1.48398 0
M  V30 12367 N 1195.6 -6.72814 -1.65208 0
M  V30 12368 N 1197.39 -5.41467 -1.50896 0
M  V30 12369 H 1189.54 -2.07317 0.461895 0
M  V30 12370 H 1191.81 -0.936895 0.144681 0
M  V30 12371 H 1191.51 -3.51656 -0.0555095 0
M  V30 12372 H 1191.39 -3.31784 -1.79442 0
M  V30 12373 H 1193.77 -2.32622 -1.81579 0
M  V30 12374 H 1193.86 -2.55721 -0.0633906 0
M  V30 12375 H 1193.5 -5.06325 -0.399729 0
M  V30 12376 H 1193.43 -4.80233 -2.16064 0
M  V30 12377 H 1195.92 -3.59214 -1.17361 0
M  V30 12378 H 1196.23 -7.51598 -1.79779 0
M  V30 12379 H 1194.58 -6.7577 -1.62356 0
M  V30 12380 H 1197.77 -4.47498 -1.37342 0
M  V30 12381 H 1197.94 -6.26423 -1.65826 0
M  V30 12382 N 1191.35 0.610423 -1.45298 0
M  V30 12383 C 1192.31 1.70324 -1.5337 0
M  V30 12384 C 1193.31 1.55393 -0.413492 0
M  V30 12385 O 1194.5 1.60512 -0.676872 0
M  V30 12386 C 1191.63 3.09572 -1.42752 0
M  V30 12387 H 1192.83 1.64535 -2.50736 0
M  V30 12388 H 1190.38 0.825906 -1.32697 0
M  V30 12389 H 1191.11 3.2094 -0.465601 0
M  V30 12390 H 1190.9 3.21817 -2.24 0
M  V30 12391 H 1192.39 3.89178 -1.51427 0
M  V30 12392 N 1192.83 1.32541 0.852676 0
M  V30 12393 C 1194.06 1.26037 1.63702 0
M  V30 12394 C 1194.46 -0.173583 1.88402 0
M  V30 12395 O 1193.81 -1.12175 1.45473 0
M  V30 12396 C 1193.87 1.95245 3.01861 0
M  V30 12397 C 1193.53 3.44576 3.00193 0
M  V30 12398 C 1194.53 4.40026 2.76899 0
M  V30 12399 C 1192.22 3.86541 3.20766 0
M  V30 12400 C 1194.21 5.75414 2.74185 0
M  V30 12401 C 1191.9 5.22038 3.17678 0
M  V30 12402 C 1192.89 6.16286 2.94416 0
M  V30 12403 O 1192.58 7.49303 2.91206 0
M  V30 12404 H 1192.31 0.436073 0.516543 0
M  V30 12405 H 1194.87 1.75251 1.07127 0
M  V30 12406 H 1193.1 1.40603 3.60233 0
M  V30 12407 H 1194.79 1.82423 3.62597 0
M  V30 12408 H 1195.55 4.0893 2.6077 0
M  V30 12409 H 1191.43 3.13603 3.37897 0
M  V30 12410 H 1194.98 6.4895 2.55947 0
M  V30 12411 H 1190.87 5.52762 3.33353 0
M  V30 12412 H 1191.64 7.58686 3.07146 0
M  V30 12413 N 1194.3 -1.0692 1.15784 0
M  V30 12414 C 1195.27 -2.12407 0.861167 0
M  V30 12415 C 1196.27 -1.6018 -0.141031 0
M  V30 12416 O 1197.46 -1.73972 0.0891192 0
M  V30 12417 C 1194.59 -3.39693 0.286636 0
M  V30 12418 H 1195.78 -2.40157 1.79623 0
M  V30 12419 H 1193.34 -1.22881 0.965916 0
M  V30 12420 H 1194.07 -3.17587 -0.656417 0
M  V30 12421 H 1193.86 -3.78903 1.0087 0
M  V30 12422 H 1195.35 -4.17488 0.0967971 0
M  V30 12423 N 1195.78 -0.955326 -1.25345 0
M  V30 12424 C 1196.72 -0.420299 -2.24296 0
M  V30 12425 C 1197.69 0.498753 -1.54762 0
M  V30 12426 O 1198.88 0.432971 -1.8346 0
M  V30 12427 C 1196 0.394576 -3.36394 0
M  V30 12428 C 1195.05 -0.464973 -4.23958 0
M  V30 12429 S 1195.88 -1.89764 -5.00749 0
M  V30 12430 C 1197.04 -1.09121 -6.16314 0
M  V30 12431 H 1197.27 -1.25888 -2.69331 0
M  V30 12432 H 1194.81 -0.759449 -1.34431 0
M  V30 12433 H 1196.76 0.858788 -4.01416 0
M  V30 12434 H 1195.42 1.20799 -2.89942 0
M  V30 12435 H 1194.62 0.160055 -5.03746 0
M  V30 12436 H 1194.22 -0.864422 -3.63873 0
M  V30 12437 H 1196.51 -0.340218 -6.76645 0
M  V30 12438 H 1197.45 -1.86304 -6.83152 0
M  V30 12439 H 1197.86 -0.621033 -5.61073 0
M  V30 12440 N 1197.26 1.39987 -0.723979 0
M  V30 12441 C 1198.54 1.94637 -0.1939 0
M  V30 12442 C 1198.92 1.66156 1.30212 0
M  V30 12443 O 1198.27 0.983783 2.06238 0
M  V30 12444 C 1198.48 3.4517 -0.515652 0
M  V30 12445 C 1199.82 4.22113 -0.458919 0
M  V30 12446 O 1200.85 3.53318 -0.452198 0
M  V30 12447 O 1199.71 5.44695 -0.443783 0
M  V30 12448 H 1196.8 0.826394 -0.0316615 0
M  V30 12449 H 1199.35 1.49548 -0.802085 0
M  V30 12450 H 1198.12 3.5929 -1.55004 0
M  V30 12451 H 1197.74 3.97413 0.122067 0
M  V30 12452 N 1198.74 0.470782 1.50404 0
M  V30 12453 C 1200.16 0.124919 1.5911 0
M  V30 12454 C 1200.36 -1.36855 1.47895 0
M  V30 12455 O 1199.41 -2.1418 1.33728 0
M  V30 12456 C 1200.72 0.674839 2.9303 0
M  V30 12457 C 1202.27 0.638239 3.06424 0
M  V30 12458 C 1202.75 1.1657 4.42917 0
M  V30 12459 N 1204.24 1.1251 4.49328 0
M  V30 12460 C 1204.97 1.50373 5.53331 0
M  V30 12461 N 1204.47 1.95684 6.6459 0
M  V30 12462 N 1206.26 1.41978 5.43874 0
M  V30 12463 H 1198.41 1.44212 1.55938 0
M  V30 12464 H 1200.68 0.596354 0.73693 0
M  V30 12465 H 1200.38 1.72106 3.06712 0
M  V30 12466 H 1200.26 0.118234 3.77015 0
M  V30 12467 H 1202.64 -0.399075 2.92389 0
M  V30 12468 H 1202.72 1.23164 2.24197 0
M  V30 12469 H 1202.37 2.20164 4.57701 0
M  V30 12470 H 1202.3 0.548513 5.23736 0
M  V30 12471 H 1204.79 0.79276 3.69491 0
M  V30 12472 H 1205.1 2.22724 7.40009 0
M  V30 12473 H 1203.45 1.99636 6.65711 0
M  V30 12474 H 1206.64 1.0642 4.55842 0
M  V30 12475 H 1206.81 1.71812 6.24808 0
M  V30 12476 N 1200.22 -1.56282 0.203376 0
M  V30 12477 C 1201.13 -2.23086 -0.725922 0
M  V30 12478 C 1202.14 -1.23258 -1.22814 0
M  V30 12479 O 1203.32 -1.5602 -1.27357 0
M  V30 12480 C 1200.38 -2.88358 -1.92485 0
M  V30 12481 C 1199.45 -4.03479 -1.46639 0
M  V30 12482 C 1198.68 -4.65629 -2.60816 0
M  V30 12483 O 1198.9 -4.2672 -3.78506 0
M  V30 12484 O 1197.84 -5.54949 -2.33056 0
M  V30 12485 H 1201.66 -3.03124 -0.18694 0
M  V30 12486 H 1199.25 -1.49377 -0.0262829 0
M  V30 12487 H 1201.13 -3.29623 -2.62539 0
M  V30 12488 H 1199.8 -2.11294 -2.45228 0
M  V30 12489 H 1198.71 -3.66821 -0.734396 0
M  V30 12490 H 1200.04 -4.82232 -0.985535 0
M  V30 12491 N 1201.7 0.070167 -1.57444 0
M  V30 12492 C 1202.63 1.11509 -1.991 0
M  V30 12493 C 1203.61 1.37481 -0.868194 0
M  V30 12494 O 1204.79 1.50827 -1.13064 0
M  V30 12495 C 1201.92 2.45908 -2.3291 0
M  V30 12496 C 1200.96 2.36059 -3.55216 0
M  V30 12497 S 1201.8 1.75316 -5.05989 0
M  V30 12498 C 1202.95 3.11289 -5.43001 0
M  V30 12499 H 1203.19 0.760096 -2.87419 0
M  V30 12500 H 1200.72 0.278756 -1.51863 0
M  V30 12501 H 1202.68 3.23217 -2.53063 0
M  V30 12502 H 1201.34 2.78567 -1.45117 0
M  V30 12503 H 1200.53 3.35176 -3.76395 0
M  V30 12504 H 1200.13 1.66886 -3.34701 0
M  V30 12505 H 1202.42 4.07603 -5.41171 0
M  V30 12506 H 1203.37 2.94888 -6.43775 0
M  V30 12507 H 1203.78 3.11969 -4.70463 0
M  V30 12508 N 1203.17 1.53854 0.341593 0
M  V30 12509 C 1204.14 1.8128 1.40251 0
M  V30 12510 C 1205.14 0.683915 1.45531 0
M  V30 12511 O 1206.33 0.952202 1.45872 0
M  V30 12512 C 1203.46 1.95658 2.79161 0
M  V30 12513 H 1204.65 2.76053 1.17195 0
M  V30 12514 H 1202.2 1.45296 0.57609 0
M  V30 12515 H 1202.94 1.03034 3.07497 0
M  V30 12516 H 1202.72 2.77788 2.76724 0
M  V30 12517 H 1204.21 2.18387 3.55945 0
M  V30 12518 N 1204.65 -0.602709 1.4562 0
M  V30 12519 C 1205.61 -1.69508 1.54271 0
M  V30 12520 C 1206.61 -1.55171 0.421727 0
M  V30 12521 O 1207.8 -1.60151 0.685375 0
M  V30 12522 C 1204.94 -3.0881 1.44392 0
M  V30 12523 H 1206.13 -1.63203 2.51605 0
M  V30 12524 H 1203.68 -0.818857 1.33133 0
M  V30 12525 H 1204.42 -3.20689 0.482614 0
M  V30 12526 H 1204.2 -3.20625 2.25704 0
M  V30 12527 H 1205.69 -3.8837 1.53488 0
M  V30 12528 N 1206.13 -1.32992 -0.845635 0
M  V30 12529 C 1207.35 -1.27231 -1.6379 0
M  V30 12530 C 1207.78 0.155141 -1.87459 0
M  V30 12531 O 1207.14 1.10953 -1.43384 0
M  V30 12532 C 1207.19 -2.04629 -2.96916 0
M  V30 12533 O 1206.29 -1.40027 -3.879 0
M  V30 12534 H 1205.63 -0.438045 -0.499011 0
M  V30 12535 H 1208.16 -1.75448 -1.05257 0
M  V30 12536 H 1208.17 -2.15141 -3.46667 0
M  V30 12537 H 1206.85 -3.08425 -2.79011 0
M  V30 12538 H 1205.42 -1.38118 -3.46378 0
M  V30 12539 N 1207.61 1.06304 -1.1635 0
M  V30 12540 C 1208.85 1.80686 -0.955614 0
M  V30 12541 C 1209.21 1.85171 0.507525 0
M  V30 12542 O 1210.41 2.55531 0.834103 0
M  V30 12543 C 1208.68 3.21276 -1.56577 0
M  V30 12544 S 1210.24 4.12274 -1.50251 0
M  V30 12545 H 1207.06 0.622426 -0.343666 0
M  V30 12546 H 1209.66 1.27628 -1.48092 0
M  V30 12547 H 1208.37 3.15607 -2.62336 0
M  V30 12548 H 1207.9 3.7941 -1.03978 0
M  V30 12549 H 1209.91 4.93647 -0.502703 0
M  V30 12550 N 1209.09 0.96196 1.24836 0
M  V30 12551 C 1210.33 0.619489 1.92371 0
M  V30 12552 C 1210.65 -0.847233 1.75633 0
M  V30 12553 O 1209.92 -1.60419 1.12439 0
M  V30 12554 H 1208.5 0.226129 0.711951 0
M  V30 12555 H 1211.17 1.22179 1.5185 0
M  V30 12556 H 1210.26 0.855128 3.00157 0
M  V30 12557 N 1210.56 -1.39601 0.731392 0
M  V30 12558 C 1211.81 -2.0019 0.277208 0
M  V30 12559 C 1212.13 -1.5832 -1.13841 0
M  V30 12560 O 1211.4 -0.829793 -1.77458 0
M  V30 12561 H 1209.98 -0.740344 0.0995006 0
M  V30 12562 H 1212.64 -1.70704 0.940547 0
M  V30 12563 H 1211.74 -3.10427 0.322749 0
M  V30 12564 N 1212.04 -0.478751 -1.50152 0
M  V30 12565 C 1213.01 0.300181 -2.27226 0
M  V30 12566 C 1214.01 0.913705 -1.32318 0
M  V30 12567 O 1215.2 0.781692 -1.55677 0
M  V30 12568 C 1212.33 1.42838 -3.09532 0
M  V30 12569 H 1213.52 -0.375845 -2.97536 0
M  V30 12570 H 1211.07 -0.233037 -1.54553 0
M  V30 12571 H 1211.81 2.13923 -2.43737 0
M  V30 12572 H 1211.59 0.994161 -3.79287 0
M  V30 12573 H 1213.08 1.97765 -3.67802 0
M  V30 12574 N 1213.52 1.56172 -0.211661 0
M  V30 12575 C 1214.77 1.98332 0.423332 0
M  V30 12576 C 1215.1 1.09895 1.60115 0
M  V30 12577 O 1214.37 0.154477 1.93886 0
M  V30 12578 C 1214.66 3.49495 0.86747 0
M  V30 12579 C 1214.51 4.48708 -0.313302 0
M  V30 12580 C 1215.83 4.04793 1.72716 0
M  V30 12581 H 1212.95 0.72107 0.152402 0
M  V30 12582 H 1215.59 1.87521 -0.305912 0
M  V30 12583 H 1213.74 3.58839 1.48885 0
M  V30 12584 H 1215.41 4.51385 -0.951291 0
M  V30 12585 H 1213.66 4.2299 -0.96238 0
M  V30 12586 H 1214.33 5.51985 0.0402402 0
M  V30 12587 H 1216.8 3.98332 1.20296 0
M  V30 12588 H 1215.68 5.10898 2.00684 0
M  V30 12589 H 1215.94 3.51067 2.68709 0
M  V30 12590 N 1215 -0.0618163 1.57479 0
M  V30 12591 C 1216.25 -0.759069 1.87735 0
M  V30 12592 C 1216.57 -1.77071 0.804732 0
M  V30 12593 O 1215.83 -1.94694 -0.198173 0
M  V30 12594 C 1216.13 -1.4939 3.2468 0
M  V30 12595 C 1215.79 -0.621312 4.46599 0
M  V30 12596 C 1214.46 -0.380873 4.7969 0
M  V30 12597 C 1216.81 -0.0168537 5.21197 0
M  V30 12598 C 1214.14 0.473341 5.84787 0
M  V30 12599 C 1216.49 0.824872 6.27199 0
M  V30 12600 C 1215.15 1.07509 6.58785 0
M  V30 12601 H 1214.42 -0.277763 0.686971 0
M  V30 12602 H 1217.07 -0.0195971 1.9149 0
M  V30 12603 H 1215.37 -2.30584 3.16762 0
M  V30 12604 H 1217.07 -2.03837 3.45328 0
M  V30 12605 H 1213.66 -0.818848 4.20705 0
M  V30 12606 H 1217.84 -0.189707 4.95937 0
M  V30 12607 H 1213.1 0.675842 6.07653 0
M  V30 12608 H 1217.27 1.29993 6.8416 0
M  V30 12609 H 1214.9 1.73876 7.40048 0
M  V30 12610 N 1216.48 -1.54033 -0.333429 0
M  V30 12611 C 1217.72 -1.72019 -1.07411 0
M  V30 12612 C 1218.06 -0.487265 -1.87988 0
M  V30 12613 O 1217.33 0.515757 -1.87537 0
M  V30 12614 C 1217.61 -2.98986 -2.00698 0
M  V30 12615 C 1217.47 -4.32509 -1.23517 0
M  V30 12616 C 1218.79 -3.21663 -3.00368 0
M  V30 12617 H 1215.9 -0.625919 -0.389094 0
M  V30 12618 H 1218.55 -1.86717 -0.351697 0
M  V30 12619 H 1216.7 -2.86586 -2.62298 0
M  V30 12620 H 1218.37 -4.56775 -0.644522 0
M  V30 12621 H 1216.61 -4.3046 -0.537298 0
M  V30 12622 H 1217.28 -5.17547 -1.91962 0
M  V30 12623 H 1219.76 -3.33459 -2.48886 0
M  V30 12624 H 1218.63 -4.11877 -3.62834 0
M  V30 12625 H 1218.9 -2.3843 -3.72295 0
M  V30 12626 N 1217.95 0.594978 -1.45938 0
M  V30 12627 C 1219.2 1.35093 -1.50314 0
M  V30 12628 C 1219.52 1.94412 -0.151315 0
M  V30 12629 O 1218.79 1.77876 0.820787 0
M  V30 12630 H 1217.37 0.501549 -0.553586 0
M  V30 12631 H 1220.04 0.697735 -1.81983 0
M  V30 12632 H 1219.13 2.16393 -2.24901 0
M  V30 12633 N 1219.43 1.33438 0.838571 0
M  V30 12634 C 1220.36 1.26344 1.96365 0
M  V30 12635 C 1221.34 0.143956 1.6949 0
M  V30 12636 O 1222.53 0.333779 1.9131 0
M  V30 12637 C 1219.66 1.0022 3.32526 0
M  V30 12638 C 1218.61 2.08466 3.73799 0
M  V30 12639 C 1217.94 1.67555 5.07769 0
M  V30 12640 C 1219.24 3.50144 3.87552 0
M  V30 12641 H 1220.93 2.20478 2.02558 0
M  V30 12642 H 1218.48 1.06139 0.973168 0
M  V30 12643 H 1220.43 0.939068 4.10803 0
M  V30 12644 H 1219.16 0.0252514 3.2659 0
M  V30 12645 H 1217.81 2.13822 2.97785 0
M  V30 12646 H 1217.46 0.685619 4.98305 0
M  V30 12647 H 1217.16 2.39993 5.36356 0
M  V30 12648 H 1218.69 1.62708 5.88522 0
M  V30 12649 H 1220.1 3.47287 4.56141 0
M  V30 12650 H 1218.5 4.21069 4.27575 0
M  V30 12651 H 1219.57 3.88628 2.89994 0
M  V30 12652 N 1220.91 -1.05686 1.16912 0
M  V30 12653 C 1222.16 -1.78862 0.955839 0
M  V30 12654 C 1222.49 -1.87257 -0.514645 0
M  V30 12655 O 1221.76 -1.36869 -1.38193 0
M  V30 12656 C 1222.05 -3.23021 1.59152 0
M  V30 12657 C 1221.9 -3.22669 3.13376 0
M  V30 12658 C 1223.22 -4.2073 1.29128 0
M  V30 12659 H 1220.34 -0.64931 0.348663 0
M  V30 12660 H 1222.98 -1.23561 1.44335 0
M  V30 12661 H 1221.13 -3.70243 1.17697 0
M  V30 12662 H 1222.8 -2.83562 3.63855 0
M  V30 12663 H 1221.05 -2.61149 3.46386 0
M  V30 12664 H 1221.72 -4.24394 3.52979 0
M  V30 12665 H 1224.19 -3.8198 1.65017 0
M  V30 12666 H 1223.07 -5.19851 1.76198 0
M  V30 12667 H 1223.33 -4.41595 0.21119 0
M  V30 12668 N 1222.39 -0.968567 -1.24324 0
M  V30 12669 C 1223.32 -0.518323 -2.27674 0
M  V30 12670 C 1224.3 0.442479 -1.64244 0
M  V30 12671 O 1225.48 0.338416 -1.91229 0
M  V30 12672 C 1222.61 0.191459 -3.46772 0
M  V30 12673 C 1221.57 -0.685449 -4.22476 0
M  V30 12674 C 1220.89 0.155873 -5.34473 0
M  V30 12675 C 1222.19 -1.97047 -4.83704 0
M  V30 12676 H 1223.89 -1.38215 -2.65588 0
M  V30 12677 H 1221.43 -0.66604 -1.27671 0
M  V30 12678 H 1223.39 0.517667 -4.18208 0
M  V30 12679 H 1222.11 1.08965 -3.07887 0
M  V30 12680 H 1220.77 -0.994942 -3.52841 0
M  V30 12681 H 1220.42 1.05424 -4.91828 0
M  V30 12682 H 1220.12 -0.427655 -5.86042 0
M  V30 12683 H 1221.64 0.476733 -6.08736 0
M  V30 12684 H 1223.06 -1.70979 -5.4721 0
M  V30 12685 H 1221.45 -2.50079 -5.45509 0
M  V30 12686 H 1222.52 -2.66484 -4.0511 0
M  V30 12687 N 1223.87 1.39211 -0.738786 0
M  V30 12688 C 1224.8 2.33209 -0.11647 0
M  V30 12689 C 1225.78 1.54108 0.720056 0
M  V30 12690 O 1226.96 1.82486 0.664264 0
M  V30 12691 C 1224.09 3.38226 0.78872 0
M  V30 12692 C 1223.05 4.27963 0.0560636 0
M  V30 12693 C 1222.37 5.2371 1.07852 0
M  V30 12694 C 1223.67 5.10508 -1.1036 0
M  V30 12695 H 1225.37 2.85501 -0.901649 0
M  V30 12696 H 1222.91 1.37272 -0.435032 0
M  V30 12697 H 1224.87 4.02938 1.23364 0
M  V30 12698 H 1223.59 2.84382 1.60606 0
M  V30 12699 H 1222.25 3.64735 -0.369274 0
M  V30 12700 H 1221.9 4.66161 1.88953 0
M  V30 12701 H 1221.6 5.846 0.593048 0
M  V30 12702 H 1223.12 5.91299 1.52307 0
M  V30 12703 H 1224.53 5.68544 -0.736943 0
M  V30 12704 H 1222.93 5.80558 -1.51895 0
M  V30 12705 H 1224 4.45117 -1.92352 0
M  V30 12706 N 1225.34 0.486708 1.49896 0
M  V30 12707 C 1226.57 -0.0600816 2.06813 0
M  V30 12708 C 1226.99 -1.32112 1.34877 0
M  V30 12709 O 1226.34 -1.77537 0.422725 0
M  V30 12710 C 1226.4 -0.332266 3.5997 0
M  V30 12711 O 1226.12 0.878771 4.29196 0
M  V30 12712 C 1227.62 -0.924289 4.33557 0
M  V30 12713 H 1224.84 0.0140611 0.670853 0
M  V30 12714 H 1227.38 0.67997 1.92864 0
M  V30 12715 H 1225.54 -1.02227 3.73669 0
M  V30 12716 H 1225.95 0.632873 5.20668 0
M  V30 12717 H 1227.42 -1.06441 5.4164 0
M  V30 12718 H 1227.9 -1.91844 3.95085 0
M  V30 12719 H 1228.51 -0.272189 4.24428 0
M  V30 12720 N 1226.82 -1.56058 0.219941 0
M  V30 12721 C 1227.75 -2.2321 -0.685547 0
M  V30 12722 C 1228.73 -1.20328 -1.20229 0
M  V30 12723 O 1229.92 -1.48909 -1.24659 0
M  V30 12724 C 1227.05 -2.91076 -1.89452 0
M  V30 12725 C 1226 -4.00415 -1.51169 0
M  V30 12726 C 1225.33 -4.55569 -2.79931 0
M  V30 12727 C 1226.63 -5.17549 -0.702896 0
M  V30 12728 H 1228.32 -2.99136 -0.125671 0
M  V30 12729 H 1225.87 -1.43879 -0.0590043 0
M  V30 12730 H 1227.82 -3.36744 -2.53341 0
M  V30 12731 H 1226.55 -2.12594 -2.47934 0
M  V30 12732 H 1225.21 -3.55475 -0.896275 0
M  V30 12733 H 1224.85 -3.73819 -3.36553 0
M  V30 12734 H 1224.55 -5.29361 -2.55049 0
M  V30 12735 H 1226.08 -5.03955 -3.44764 0
M  V30 12736 H 1227.49 -5.59608 -1.24544 0
M  V30 12737 H 1225.89 -5.97563 -0.551234 0
M  V30 12738 H 1226.96 -4.84027 0.29083 0
M  V30 12739 N 1228.3 0.053464 -1.57509 0
M  V30 12740 C 1229.53 0.765301 -1.92764 0
M  V30 12741 C 1229.95 1.69385 -0.817943 0
M  V30 12742 O 1229.31 1.7986 0.228075 0
M  V30 12743 C 1229.36 1.51938 -3.27028 0
M  V30 12744 O 1228.46 2.63121 -3.17555 0
M  V30 12745 H 1227.8 0.207567 -0.630723 0
M  V30 12746 H 1230.33 0.0162254 -2.04594 0
M  V30 12747 H 1230.34 1.89466 -3.6134 0
M  V30 12748 H 1229.02 0.838207 -4.07366 0
M  V30 12749 H 1227.59 2.28316 -2.94832 0
M  V30 12750 N 1229.78 1.54207 0.325255 0
M  V30 12751 C 1231.19 1.63587 0.899793 0
M  V30 12752 C 1231.54 0.528851 1.88938 0
M  V30 12753 O 1230.67 -0.33852 2.13736 0
M  V30 12754 C 1231.26 2.9653 1.63877 0
M  V30 12755 C 1229.82 3.08111 2.16205 0
M  V30 12756 C 1228.97 2.59144 0.986903 0
M  V30 12757 H 1231.92 1.58366 0.102883 0
M  V30 12758 H 1231.94 2.86595 2.50287 0
M  V30 12759 H 1231.45 3.7708 0.918279 0
M  V30 12760 H 1229.55 2.32232 2.91375 0
M  V30 12761 H 1229.67 4.13885 2.41322 0
M  V30 12762 H 1228.03 2.14997 1.36558 0
M  V30 12763 H 1228.81 3.4215 0.28076 0
M  V30 12764 N 1231.26 -0.58723 1.46251 0
M  V30 12765 C 1232.49 -1.36976 1.54665 0
M  V30 12766 C 1232.9 -1.88293 0.185079 0
M  V30 12767 O 1232.24 -1.64028 -0.82707 0
M  V30 12768 C 1232.3 -2.59591 2.48702 0
M  V30 12769 C 1231.96 -2.29773 3.95036 0
M  V30 12770 C 1232.96 -1.88885 4.84374 0
M  V30 12771 C 1230.65 -2.42057 4.40129 0
M  V30 12772 C 1232.64 -1.60669 6.16818 0
M  V30 12773 C 1230.33 -2.13454 5.72609 0
M  V30 12774 C 1231.33 -1.72824 6.60773 0
M  V30 12775 O 1231.01 -1.44569 7.90794 0
M  V30 12776 H 1230.75 -0.424968 0.525717 0
M  V30 12777 H 1233.3 -0.721298 1.92319 0
M  V30 12778 H 1231.53 -3.27226 2.06058 0
M  V30 12779 H 1233.22 -3.21656 2.47573 0
M  V30 12780 H 1233.98 -1.78913 4.50794 0
M  V30 12781 H 1229.86 -2.72644 3.71734 0
M  V30 12782 H 1233.41 -1.28882 6.85591 0
M  V30 12783 H 1229.3 -2.23048 6.05739 0
M  V30 12784 H 1230.07 -1.58452 8.03016 0
M  V30 12785 N 1232.74 -1.33881 -0.831482 0
M  V30 12786 C 1233.97 -1.28625 -1.61676 0
M  V30 12787 C 1234.37 0.143588 -1.88654 0
M  V30 12788 O 1233.72 1.09847 -1.47239 0
M  V30 12789 C 1233.78 -2.00022 -2.98716 0
M  V30 12790 C 1233.44 -3.49309 -2.94674 0
M  V30 12791 C 1234.44 -4.44375 -2.69864 0
M  V30 12792 C 1232.12 -3.91596 -3.14576 0
M  V30 12793 C 1234.12 -5.79703 -2.64996 0
M  V30 12794 C 1231.81 -5.27026 -3.09333 0
M  V30 12795 C 1232.8 -6.20892 -2.84575 0
M  V30 12796 O 1232.49 -7.53841 -2.79248 0
M  V30 12797 H 1232.22 -0.444235 -0.50954 0
M  V30 12798 H 1234.78 -1.76933 -1.04326 0
M  V30 12799 H 1233.01 -1.46316 -3.57951 0
M  V30 12800 H 1234.7 -1.88168 -3.59649 0
M  V30 12801 H 1235.46 -4.13027 -2.54231 0
M  V30 12802 H 1231.34 -3.18938 -3.32865 0
M  V30 12803 H 1234.89 -6.5294 -2.45591 0
M  V30 12804 H 1230.78 -5.57996 -3.24516 0
M  V30 12805 H 1231.55 -7.63476 -2.95037 0
M  V30 12806 N 1234.21 1.05064 -1.1747 0
M  V30 12807 C 1235.16 2.12841 -0.89259 0
M  V30 12808 C 1236.13 1.65288 0.16402 0
M  V30 12809 O 1237.32 1.90782 0.026537 0
M  V30 12810 C 1234.46 3.42614 -0.41344 0
M  V30 12811 C 1233.57 4.03835 -1.53432 0
M  V30 12812 C 1232.7 5.21531 -1.00891 0
M  V30 12813 C 1231.74 5.74761 -2.10515 0
M  V30 12814 N 1230.88 6.83756 -1.59442 0
M  V30 12815 H 1235.72 2.36312 -1.81551 0
M  V30 12816 H 1233.26 1.15929 -0.905483 0
M  V30 12817 H 1235.21 4.17035 -0.117181 0
M  V30 12818 H 1233.84 3.19323 0.472517 0
M  V30 12819 H 1232.9 3.2684 -1.94627 0
M  V30 12820 H 1234.21 4.3938 -2.36108 0
M  V30 12821 H 1233.36 6.03027 -0.666575 0
M  V30 12822 H 1232.1 4.87464 -0.151608 0
M  V30 12823 H 1231.11 4.91893 -2.45604 0
M  V30 12824 H 1232.33 6.10875 -2.96663 0
M  V30 12825 H 1230.28 6.51584 -0.759849 0
M  V30 12826 H 1230.19 7.18311 -2.35724 0
M  V30 12827 H 1231.46 7.68901 -1.28105 0
M  V30 12828 N 1235.69 0.975146 1.23809 0
M  V30 12829 C 1236.94 0.642074 1.92367 0
M  V30 12830 C 1237.27 -0.82164 1.75962 0
M  V30 12831 O 1236.55 -1.59205 1.11732 0
M  V30 12832 C 1236.83 1.02677 3.45151 0
M  V30 12833 C 1236.68 2.54773 3.7069 0
M  V30 12834 C 1238 0.5668 4.36435 0
M  V30 12835 H 1235.12 0.234735 0.698619 0
M  V30 12836 H 1237.76 1.21549 1.46034 0
M  V30 12837 H 1235.91 0.538846 3.84745 0
M  V30 12838 H 1237.58 3.11099 3.4061 0
M  V30 12839 H 1235.83 2.97641 3.15583 0
M  V30 12840 H 1236.5 2.7674 4.77618 0
M  V30 12841 H 1238.97 0.985635 4.04258 0
M  V30 12842 H 1237.85 0.864458 5.4205 0
M  V30 12843 H 1238.11 -0.532989 4.38875 0
M  V30 12844 N 1237.17 -1.38817 0.746158 0
M  V30 12845 C 1238.42 -2.0028 0.299016 0
M  V30 12846 C 1238.74 -1.59221 -1.11709 0
M  V30 12847 O 1238 -0.817595 -1.77803 0
M  V30 12848 C 1238.3 -3.55571 0.361086 0
M  V30 12849 C 1237.96 -4.16317 1.73179 0
M  V30 12850 C 1236.63 -4.32622 2.10693 0
M  V30 12851 C 1238.98 -4.49905 2.63126 0
M  V30 12852 C 1236.31 -4.79808 3.3764 0
M  V30 12853 C 1238.66 -4.98504 3.89457 0
M  V30 12854 C 1237.32 -5.13016 4.27049 0
M  V30 12855 H 1236.59 -0.732877 0.109418 0
M  V30 12856 H 1239.24 -1.65977 0.955186 0
M  V30 12857 H 1237.54 -3.89966 -0.378655 0
M  V30 12858 H 1239.24 -4.01 -0.00319228 0
M  V30 12859 H 1235.83 -4.04035 1.43015 0
M  V30 12860 H 1240.02 -4.36916 2.3541 0
M  V30 12861 H 1235.27 -4.89229 3.66695 0
M  V30 12862 H 1239.45 -5.23464 4.59302 0
M  V30 12863 H 1237.07 -5.4934 5.25481 0
M  V30 12864 N 1238.65 -0.49465 -1.49636 0
M  V30 12865 C 1239.58 0.276606 -2.31856 0
M  V30 12866 C 1240.56 0.968499 -1.39836 0
M  V30 12867 O 1241.74 0.96113 -1.68748 0
M  V30 12868 C 1238.87 1.34522 -3.20189 0
M  V30 12869 C 1237.83 0.773571 -4.20951 0
M  V30 12870 C 1237.15 1.94223 -4.98178 0
M  V30 12871 C 1238.45 -0.231096 -5.21788 0
M  V30 12872 H 1240.15 -0.409668 -2.96584 0
M  V30 12873 H 1237.69 -0.198461 -1.42626 0
M  V30 12874 H 1239.65 1.89244 -3.76517 0
M  V30 12875 H 1238.37 2.06059 -2.53392 0
M  V30 12876 H 1237.03 0.248144 -3.65759 0
M  V30 12877 H 1236.68 2.64514 -4.27834 0
M  V30 12878 H 1236.38 1.56584 -5.66353 0
M  V30 12879 H 1237.9 2.49391 -5.57348 0
M  V30 12880 H 1239.32 0.227768 -5.72847 0
M  V30 12881 H 1237.71 -0.522984 -5.97817 0
M  V30 12882 H 1238.78 -1.14914 -4.71087 0
M  V30 12883 N 1240.13 1.55939 -0.228214 0
M  V30 12884 C 1241.09 2.1932 0.665681 0
M  V30 12885 C 1242.09 1.15699 1.11671 0
M  V30 12886 O 1243.28 1.40893 1.02444 0
M  V30 12887 C 1240.41 2.82185 1.9127 0
M  V30 12888 H 1241.6 2.99687 0.112986 0
M  V30 12889 H 1239.16 1.56285 0.0213865 0
M  V30 12890 H 1239.89 2.05706 2.5071 0
M  V30 12891 H 1239.68 3.58073 1.5977 0
M  V30 12892 H 1241.17 3.30748 2.54942 0
M  V30 12893 N 1241.6 -0.0451101 1.57535 0
M  V30 12894 C 1243.02 -0.400463 1.54494 0
M  V30 12895 C 1243.22 -1.77584 0.952166 0
M  V30 12896 O 1242.28 -2.46069 0.566221 0
M  V30 12897 C 1243.59 -0.31703 2.99024 0
M  V30 12898 C 1245.14 -0.395284 3.10494 0
M  V30 12899 C 1245.61 -0.341475 4.56725 0
M  V30 12900 N 1247.1 -0.400755 4.61463 0
M  V30 12901 C 1247.84 -0.381757 5.72128 0
M  V30 12902 N 1247.33 -0.315995 6.92079 0
M  V30 12903 N 1249.13 -0.4303 5.60451 0
M  V30 12904 H 1241.28 0.855156 1.94424 0
M  V30 12905 H 1243.54 0.323618 0.891053 0
M  V30 12906 H 1243.25 0.627477 3.46057 0
M  V30 12907 H 1243.12 -1.11696 3.60283 0
M  V30 12908 H 1245.51 -1.33022 2.63418 0
M  V30 12909 H 1245.59 0.433709 2.52096 0
M  V30 12910 H 1245.23 0.589725 5.04465 0
M  V30 12911 H 1245.16 -1.18836 5.13016 0
M  V30 12912 H 1247.65 -0.454745 3.75154 0
M  V30 12913 H 1247.97 -0.306158 7.72193 0
M  V30 12914 H 1246.31 -0.282281 6.94427 0
M  V30 12915 H 1249.5 -0.479555 4.65637 0
M  V30 12916 H 1249.68 -0.412025 6.46689 0
M  V30 12917 N 1243.08 -1.54377 -0.317073 0
M  V30 12918 C 1244.01 -1.8721 -1.39552 0
M  V30 12919 C 1244.99 -0.729483 -1.53664 0
M  V30 12920 O 1246.18 -0.983799 -1.67437 0
M  V30 12921 C 1243.31 -2.1052 -2.76222 0
M  V30 12922 C 1242.26 -3.26366 -2.76892 0
M  V30 12923 C 1241.59 -3.35061 -4.16699 0
M  V30 12924 C 1242.89 -4.63862 -2.40061 0
M  V30 12925 H 1244.58 -2.77532 -1.12323 0
M  V30 12926 H 1242.13 -1.33536 -0.538897 0
M  V30 12927 H 1244.08 -2.32073 -3.51739 0
M  V30 12928 H 1242.81 -1.16953 -3.04942 0
M  V30 12929 H 1241.46 -3.0471 -2.03831 0
M  V30 12930 H 1241.11 -2.39041 -4.4257 0
M  V30 12931 H 1240.81 -4.12923 -4.18053 0
M  V30 12932 H 1242.34 -3.58856 -4.94019 0
M  V30 12933 H 1243.75 -4.85252 -3.05292 0
M  V30 12934 H 1242.15 -5.44321 -2.52655 0
M  V30 12935 H 1243.22 -4.6567 -1.35202 0
M  V30 12936 N 1244.56 0.579466 -1.4656 0
M  V30 12937 C 1245.81 1.33379 -1.51304 0
M  V30 12938 C 1246.12 1.94855 -0.170507 0
M  V30 12939 O 1247.33 2.71331 -0.0957704 0
M  V30 12940 C 1245.78 2.41748 -2.66619 0
M  V30 12941 C 1245.39 1.8656 -4.07307 0
M  V30 12942 C 1247.14 3.18502 -2.80636 0
M  V30 12943 C 1245.04 2.92578 -5.13957 0
M  V30 12944 H 1243.97 0.501422 -0.56311 0
M  V30 12945 H 1246.62 0.618025 -1.72779 0
M  V30 12946 H 1245.01 3.16138 -2.3848 0
M  V30 12947 H 1246.18 1.18692 -4.45252 0
M  V30 12948 H 1244.5 1.22464 -3.97984 0
M  V30 12949 H 1247.09 3.9763 -3.57483 0
M  V30 12950 H 1247.44 3.71295 -1.8827 0
M  V30 12951 H 1247.97 2.51219 -3.08437 0
M  V30 12952 H 1244.71 2.44668 -6.08126 0
M  V30 12953 H 1244.23 3.58926 -4.80554 0
M  V30 12954 H 1245.91 3.56471 -5.39942 0
M  V30 12955 N 1246.04 1.3432 0.824371 0
M  V30 12956 C 1247.28 1.27792 1.58243 0
M  V30 12957 C 1247.64 -0.151189 1.91805 0
M  V30 12958 O 1246.93 -1.09708 1.57082 0
M  V30 12959 C 1247.13 2.1008 2.89139 0
M  V30 12960 C 1246.96 3.60848 2.68363 0
M  V30 12961 C 1245.73 4.3013 2.65172 0
M  V30 12962 C 1247.92 4.54878 2.39979 0
M  V30 12963 N 1245.91 5.66756 2.35927 0
M  V30 12964 C 1247.28 5.79497 2.20415 0
M  V30 12965 C 1249.33 4.43809 2.25695 0
M  V30 12966 C 1248.03 6.94293 1.88015 0
M  V30 12967 C 1250.06 5.58435 1.9469 0
M  V30 12968 C 1249.42 6.82071 1.75948 0
M  V30 12969 H 1245.52 0.522853 0.581505 0
M  V30 12970 H 1248.11 1.69017 0.96651 0
M  V30 12971 H 1246.28 1.71154 3.48656 0
M  V30 12972 H 1248.01 1.95208 3.54508 0
M  V30 12973 H 1244.76 3.82554 2.79194 0
M  V30 12974 H 1245.19 6.38817 2.24148 0
M  V30 12975 H 1249.83 3.48842 2.38891 0
M  V30 12976 H 1247.55 7.89242 1.73557 0
M  V30 12977 H 1251.13 5.51814 1.84372 0
M  V30 12978 H 1250.01 7.69268 1.52304 0
M  V30 12979 N 1247.52 -1.0444 1.18026 0
M  V30 12980 C 1248.76 -1.77972 0.984767 0
M  V30 12981 C 1249.12 -1.86294 -0.480861 0
M  V30 12982 O 1248.41 -1.35724 -1.35239 0
M  V30 12983 C 1248.6 -3.21134 1.56869 0
M  V30 12984 C 1248.43 -3.26765 3.08958 0
M  V30 12985 C 1247.2 -3.35612 3.77747 0
M  V30 12986 C 1249.4 -3.15083 4.06482 0
M  V30 12987 N 1247.38 -3.30454 5.17372 0
M  V30 12988 C 1248.75 -3.17382 5.32606 0
M  V30 12989 C 1250.81 -2.99099 3.98051 0
M  V30 12990 C 1249.51 -3.05338 6.51277 0
M  V30 12991 C 1251.54 -2.88399 5.16314 0
M  V30 12992 C 1250.9 -2.91338 6.41328 0
M  V30 12993 H 1247 -0.66322 0.414323 0
M  V30 12994 H 1249.58 -1.24444 1.49739 0
M  V30 12995 H 1247.75 -3.73016 1.0823 0
M  V30 12996 H 1249.49 -3.82943 1.30908 0
M  V30 12997 H 1246.24 -3.41189 3.28462 0
M  V30 12998 H 1246.67 -3.31324 5.90384 0
M  V30 12999 H 1251.31 -2.95659 3.02234 0
M  V30 13000 H 1249.03 -3.07531 7.47296 0
M  V30 13001 H 1252.61 -2.77091 5.11578 0
M  V30 13002 H 1251.49 -2.83141 7.31301 0
M  V30 13003 N 1248.99 -0.981699 -1.2329 0
M  V30 13004 C 1249.92 -0.542441 -2.27112 0
M  V30 13005 C 1250.91 0.425034 -1.64704 0
M  V30 13006 O 1252.09 0.318114 -1.91577 0
M  V30 13007 C 1249.22 0.154668 -3.46955 0
M  V30 13008 C 1248.17 -0.73022 -4.21725 0
M  V30 13009 C 1247.5 0.0991766 -5.34608 0
M  V30 13010 C 1248.8 -2.02166 -4.81587 0
M  V30 13011 H 1250.49 -1.41024 -2.64107 0
M  V30 13012 H 1248.04 -0.679544 -1.26957 0
M  V30 13013 H 1249.99 0.473281 -4.18734 0
M  V30 13014 H 1248.72 1.05693 -3.09025 0
M  V30 13015 H 1247.38 -1.03231 -3.51765 0
M  V30 13016 H 1247.02 1.00201 -4.92919 0
M  V30 13017 H 1246.72 -0.489788 -5.85555 0
M  V30 13018 H 1248.25 0.412141 -6.09207 0
M  V30 13019 H 1249.66 -1.76773 -5.45366 0
M  V30 13020 H 1248.06 -2.55851 -5.42826 0
M  V30 13021 H 1249.13 -2.70766 -4.02261 0
M  V30 13022 N 1250.47 1.3842 -0.753509 0
M  V30 13023 C 1251.4 2.29039 -0.0859463 0
M  V30 13024 C 1252.42 1.47742 0.68383 0
M  V30 13025 O 1253.61 1.70607 0.524933 0
M  V30 13026 C 1250.71 3.26668 0.902296 0
M  V30 13027 C 1249.88 4.36986 0.190178 0
M  V30 13028 C 1248.94 5.14805 1.08916 0
M  V30 13029 O 1247.96 5.66441 0.559715 0
M  V30 13030 N 1249.17 5.27777 2.41726 0
M  V30 13031 H 1251.93 2.8697 -0.864196 0
M  V30 13032 H 1249.49 1.502 -0.604288 0
M  V30 13033 H 1251.48 3.75606 1.50672 0
M  V30 13034 H 1250.05 2.69636 1.58163 0
M  V30 13035 H 1249.27 3.89684 -0.594959 0
M  V30 13036 H 1250.56 5.07899 -0.302594 0
M  V30 13037 H 1249.96 4.87376 2.87196 0
M  V30 13038 H 1248.52 5.8009 2.97219 0
M  V30 13039 N 1251.95 0.502579 1.49372 0
M  V30 13040 C 1253.18 -0.0380876 2.06565 0
M  V30 13041 C 1253.59 -1.31224 1.36297 0
M  V30 13042 O 1252.93 -1.78463 0.435517 0
M  V30 13043 C 1252.99 -0.360462 3.57688 0
M  V30 13044 C 1252.66 0.816203 4.49652 0
M  V30 13045 C 1253.65 1.70713 4.91073 0
M  V30 13046 C 1251.34 1.01545 4.91929 0
M  V30 13047 C 1253.33 2.78144 5.73511 0
M  V30 13048 C 1251.02 2.09294 5.74142 0
M  V30 13049 C 1252.02 2.97428 6.14838 0
M  V30 13050 O 1251.71 4.03317 6.95407 0
M  V30 13051 H 1251.44 0.0179548 0.675762 0
M  V30 13052 H 1253.99 0.699609 1.93118 0
M  V30 13053 H 1252.22 -1.15177 3.69149 0
M  V30 13054 H 1253.91 -0.839931 3.97115 0
M  V30 13055 H 1254.68 1.56502 4.59056 0
M  V30 13056 H 1250.56 0.338822 4.59753 0
M  V30 13057 H 1254.1 3.46965 6.05195 0
M  V30 13058 H 1250 2.235 6.05572 0
M  V30 13059 H 1250.77 4.00689 7.13716 0
M  V30 13060 N 1253.43 -1.55816 0.23648 0
M  V30 13061 C 1254.68 -1.98686 -0.391146 0
M  V30 13062 C 1255 -1.12443 -1.58703 0
M  V30 13063 O 1254.26 -0.172805 -1.94936 0
M  V30 13064 C 1254.56 -3.47039 -0.85434 0
M  V30 13065 C 1254.22 -4.50299 0.232651 0
M  V30 13066 C 1252.89 -4.78259 0.531218 0
M  V30 13067 C 1255.24 -5.1215 0.967027 0
M  V30 13068 C 1252.57 -5.65347 1.56842 0
M  V30 13069 C 1254.92 -6.00363 1.99367 0
M  V30 13070 C 1253.58 -6.2666 2.299 0
M  V30 13071 H 1252.85 -0.727045 -0.14313 0
M  V30 13072 H 1255.5 -1.88419 0.342125 0
M  V30 13073 H 1253.8 -3.54585 -1.66663 0
M  V30 13074 H 1255.5 -3.7759 -1.35005 0
M  V30 13075 H 1252.09 -4.28599 -0.0102014 0
M  V30 13076 H 1256.27 -4.90606 0.749609 0
M  V30 13077 H 1251.53 -5.83981 1.81043 0
M  V30 13078 H 1255.7 -6.47335 2.56769 0
M  V30 13079 H 1253.33 -6.93938 3.1041 0
M  V30 13080 N 1254.91 0.036755 -1.57557 0
M  V30 13081 C 1256.16 0.728107 -1.881 0
M  V30 13082 C 1256.47 1.7693 -0.833974 0
M  V30 13083 O 1257.67 2.5127 -1.02837 0
M  V30 13084 C 1256.13 1.34604 -3.33781 0
M  V30 13085 C 1255.74 0.341599 -4.46696 0
M  V30 13086 C 1257.48 2.01772 -3.73481 0
M  V30 13087 C 1255.39 0.967444 -5.83433 0
M  V30 13088 H 1254.32 0.275695 -0.701789 0
M  V30 13089 H 1256.97 -0.0177555 -1.83491 0
M  V30 13090 H 1255.35 2.14135 -3.3311 0
M  V30 13091 H 1256.53 -0.426441 -4.58823 0
M  V30 13092 H 1254.84 -0.227558 -4.15778 0
M  V30 13093 H 1257.44 2.49435 -4.72955 0
M  V30 13094 H 1257.78 2.83255 -3.05077 0
M  V30 13095 H 1258.31 1.29026 -3.76294 0
M  V30 13096 H 1255.05 0.19219 -6.55218 0
M  V30 13097 H 1254.57 1.70551 -5.75041 0
M  V30 13098 H 1256.25 1.47705 -6.29914 0
M  V30 13099 N 1256.39 1.54543 0.308881 0
M  V30 13100 C 1257.61 1.77431 1.06422 0
M  V30 13101 C 1258.03 0.529972 1.81209 0
M  V30 13102 O 1257.39 -0.499912 1.7552 0
M  V30 13103 C 1257.44 2.9769 2.05092 0
M  V30 13104 O 1257.16 4.17315 1.33341 0
M  V30 13105 C 1258.66 3.32905 2.92727 0
M  V30 13106 H 1255.88 0.591961 0.315948 0
M  V30 13107 H 1258.42 2.01473 0.350547 0
M  V30 13108 H 1256.58 2.7588 2.71973 0
M  V30 13109 H 1256.99 4.85061 1.99539 0
M  V30 13110 H 1258.47 4.20314 3.57827 0
M  V30 13111 H 1258.94 2.50713 3.6061 0
M  V30 13112 H 1259.55 3.56847 2.31388 0
M  V30 13113 N 1257.86 -0.571685 1.46866 0
M  V30 13114 C 1259.28 -0.896172 1.32064 0
M  V30 13115 C 1259.48 -1.9925 0.300291 0
M  V30 13116 O 1258.54 -2.50791 -0.293284 0
M  V30 13117 C 1259.85 -1.3031 2.70998 0
M  V30 13118 C 1261.4 -1.41533 2.79173 0
M  V30 13119 C 1261.87 -1.85587 4.18714 0
M  V30 13120 N 1263.36 -1.92762 4.21185 0
M  V30 13121 C 1264.1 -2.28148 5.26057 0
M  V30 13122 N 1263.59 -2.62248 6.41247 0
M  V30 13123 N 1265.39 -2.28797 5.13428 0
M  V30 13124 H 1257.54 0.152349 2.11853 0
M  V30 13125 H 1259.8 0.00548777 0.947984 0
M  V30 13126 H 1259.51 -0.571469 3.47026 0
M  V30 13127 H 1259.38 -2.26233 3.01826 0
M  V30 13128 H 1261.77 -2.1378 2.03426 0
M  V30 13129 H 1261.85 -0.438342 2.52016 0
M  V30 13130 H 1261.49 -1.13915 4.9496 0
M  V30 13131 H 1261.42 -2.84264 4.43285 0
M  V30 13132 H 1263.91 -1.68854 3.38078 0
M  V30 13133 H 1264.23 -2.88234 7.17036 0
M  V30 13134 H 1262.57 -2.59861 6.44591 0
M  V30 13135 H 1265.76 -2.01587 4.22469 0
M  V30 13136 H 1265.94 -2.56045 5.95269 0
M  V30 13137 N 1259.34 -1.34755 -0.817236 0
M  V30 13138 C 1260.3 -1.26687 -1.91006 0
M  V30 13139 C 1261.3 -0.180745 -1.59781 0
M  V30 13140 O 1262.49 -0.433748 -1.68714 0
M  V30 13141 C 1259.63 -0.957293 -3.27183 0
M  V30 13142 H 1260.82 -2.23846 -1.99582 0
M  V30 13143 H 1258.37 -1.19125 -1.01187 0
M  V30 13144 H 1259.11 0.0108917 -3.24298 0
M  V30 13145 H 1258.89 -1.74297 -3.5123 0
M  V30 13146 H 1260.38 -0.926161 -4.072 0
M  V30 13147 N 1260.82 1.03812 -1.18578 0
M  V30 13148 C 1261.73 2.15371 -0.930182 0
M  V30 13149 C 1262.75 1.73673 0.106599 0
M  V30 13150 O 1263.92 2.01257 -0.0759054 0
M  V30 13151 C 1260.99 3.43606 -0.462151 0
M  V30 13152 C 1260.05 3.99671 -1.5672 0
M  V30 13153 C 1259.28 5.21785 -1.12141 0
M  V30 13154 O 1259.5 5.70397 0.0188357 0
M  V30 13155 O 1258.44 5.70449 -1.9202 0
M  V30 13156 H 1262.26 2.39791 -1.86371 0
M  V30 13157 H 1259.85 1.13814 -0.967819 0
M  V30 13158 H 1261.73 4.2088 -0.20934 0
M  V30 13159 H 1260.41 3.20654 0.443052 0
M  V30 13160 H 1259.31 3.23774 -1.87406 0
M  V30 13161 H 1260.65 4.2697 -2.44862 0
M  V30 13162 N 1262.3 0.988223 1.22768 0
M  V30 13163 C 1263.26 0.539813 2.22752 0
M  V30 13164 C 1264.26 -0.374796 1.56371 0
M  V30 13165 O 1265.45 -0.167402 1.73394 0
M  V30 13166 C 1262.58 -0.215461 3.40218 0
M  V30 13167 H 1263.78 1.42397 2.63938 0
M  V30 13168 H 1261.33 0.774933 1.35737 0
M  V30 13169 H 1262.06 -1.11581 3.045 0
M  V30 13170 H 1261.85 0.441173 3.8961 0
M  V30 13171 H 1263.34 -0.517517 4.14381 0
M  V30 13172 N 1263.78 -1.38018 0.760839 0
M  V30 13173 C 1264.73 -2.27717 0.113521 0
M  V30 13174 C 1265.71 -1.45562 -0.685613 0
M  V30 13175 O 1266.9 -1.68226 -0.550377 0
M  V30 13176 C 1264.03 -3.34478 -0.77325 0
M  V30 13177 C 1263.12 -4.24087 0.0331238 0
M  V30 13178 N 1263.51 -4.94283 1.07323 0
M  V30 13179 C 1261.81 -4.45584 -0.192565 0
M  V30 13180 C 1262.51 -5.60344 1.56172 0
M  V30 13181 N 1261.48 -5.36499 0.875768 0
M  V30 13182 H 1265.28 -2.79456 0.910021 0
M  V30 13183 H 1262.8 -1.51006 0.597561 0
M  V30 13184 H 1264.8 -3.97635 -1.25268 0
M  V30 13185 H 1263.46 -2.84296 -1.56862 0
M  V30 13186 H 1264.47 -4.97036 1.45517 0
M  V30 13187 H 1261.14 -4.06296 -0.960704 0
M  V30 13188 H 1262.53 -6.26477 2.42851 0
M  V30 13189 N 1265.25 -0.510493 -1.49103 0
M  V30 13190 C 1266.18 0.251999 -2.32136 0
M  V30 13191 C 1267.16 0.953613 -1.40855 0
M  V30 13192 O 1268.35 0.943178 -1.69758 0
M  V30 13193 C 1265.48 1.31118 -3.21598 0
M  V30 13194 C 1264.43 0.72888 -4.21748 0
M  V30 13195 C 1263.76 1.88928 -5.0021 0
M  V30 13196 C 1265.06 -0.286425 -5.21514 0
M  V30 13197 H 1266.75 -0.441102 -2.96133 0
M  V30 13198 H 1264.3 -0.213577 -1.42407 0
M  V30 13199 H 1266.25 1.8524 -3.78503 0
M  V30 13200 H 1264.98 2.0336 -2.55563 0
M  V30 13201 H 1263.64 0.209336 -3.66002 0
M  V30 13202 H 1263.28 2.59961 -4.30615 0
M  V30 13203 H 1262.98 1.50568 -5.67981 0
M  V30 13204 H 1264.51 2.43465 -5.59962 0
M  V30 13205 H 1265.92 0.166997 -5.73057 0
M  V30 13206 H 1264.32 -0.586361 -5.97228 0
M  V30 13207 H 1265.39 -1.19904 -4.69842 0
M  V30 13208 N 1266.73 1.55688 -0.24474 0
M  V30 13209 C 1267.66 2.18616 0.68844 0
M  V30 13210 C 1268.68 1.16185 1.14039 0
M  V30 13211 O 1269.87 1.43059 1.06754 0
M  V30 13212 C 1266.97 2.77375 1.94721 0
M  V30 13213 C 1266.14 4.05204 1.64706 0
M  V30 13214 C 1265.2 4.48302 2.75521 0
M  V30 13215 O 1264.22 5.14723 2.42999 0
M  V30 13216 N 1265.43 4.15907 4.04971 0
M  V30 13217 H 1268.19 2.99324 0.150018 0
M  V30 13218 H 1265.75 1.61771 -0.0646183 0
M  V30 13219 H 1267.74 3.03165 2.68091 0
M  V30 13220 H 1266.31 2.00837 2.39548 0
M  V30 13221 H 1265.53 3.87026 0.74865 0
M  V30 13222 H 1266.82 4.8855 1.42114 0
M  V30 13223 H 1266.22 3.62579 4.34227 0
M  V30 13224 H 1264.78 4.46538 4.74813 0
M  V30 13225 N 1268.21 -0.0283989 1.57574 0
M  V30 13226 C 1269.46 -0.720142 1.89583 0
M  V30 13227 C 1269.79 -1.7497 0.842562 0
M  V30 13228 O 1269.06 -1.93979 -0.142294 0
M  V30 13229 C 1269.35 -1.38909 3.32229 0
M  V30 13230 C 1269.2 -0.372998 4.48251 0
M  V30 13231 C 1270.52 -2.32289 3.73804 0
M  V30 13232 H 1267.64 -0.26033 0.689491 0
M  V30 13233 H 1270.28 0.0170607 1.89992 0
M  V30 13234 H 1268.43 -2.01744 3.32011 0
M  V30 13235 H 1270.1 0.253492 4.60603 0
M  V30 13236 H 1268.34 0.30765 4.32708 0
M  V30 13237 H 1269.02 -0.879549 5.44948 0
M  V30 13238 H 1271.49 -1.79497 3.75393 0
M  V30 13239 H 1270.37 -2.76075 4.74419 0
M  V30 13240 H 1270.63 -3.18992 3.06099 0
M  V30 13241 N 1269.69 -1.54705 -0.300681 0
M  V30 13242 C 1270.93 -1.75189 -1.03345 0
M  V30 13243 C 1271.29 -0.531398 -1.84916 0
M  V30 13244 O 1270.58 0.476194 -1.85588 0
M  V30 13245 C 1270.78 -2.98173 -1.97047 0
M  V30 13246 C 1270.6 -4.32067 -1.24694 0
M  V30 13247 C 1269.37 -4.95825 -0.973967 0
M  V30 13248 C 1271.57 -5.1016 -0.651224 0
M  V30 13249 N 1269.55 -6.13503 -0.220737 0
M  V30 13250 C 1270.93 -6.19992 -0.0307781 0
M  V30 13251 C 1272.98 -4.94782 -0.556306 0
M  V30 13252 C 1271.68 -7.16122 0.675403 0
M  V30 13253 C 1273.71 -5.91243 0.136221 0
M  V30 13254 C 1273.07 -7.00444 0.745517 0
M  V30 13255 H 1269.17 -0.693643 -0.361087 0
M  V30 13256 H 1271.75 -1.92183 -0.312046 0
M  V30 13257 H 1269.93 -2.82604 -2.66439 0
M  V30 13258 H 1271.66 -3.07182 -2.63479 0
M  V30 13259 H 1268.41 -4.56193 -1.2722 0
M  V30 13260 H 1268.84 -6.7685 0.142402 0
M  V30 13261 H 1273.48 -4.10483 -1.01307 0
M  V30 13262 H 1271.2 -7.99962 1.14394 0
M  V30 13263 H 1274.78 -5.81422 0.209611 0
M  V30 13264 H 1273.66 -7.73801 1.27287 0
M  V30 13265 N 1271.17 0.563888 -1.47167 0
M  V30 13266 C 1272.41 1.32331 -1.53676 0
M  V30 13267 C 1272.75 1.93213 -0.195593 0
M  V30 13268 O 1272.02 1.77508 0.795068 0
M  V30 13269 C 1272.3 2.43848 -2.64972 0
M  V30 13270 C 1272.16 1.8788 -4.08682 0
M  V30 13271 C 1273.48 3.45809 -2.72221 0
M  V30 13272 H 1270.59 0.479791 -0.559437 0
M  V30 13273 H 1273.24 0.631669 -1.79192 0
M  V30 13274 H 1271.39 3.02846 -2.43345 0
M  V30 13275 H 1273.06 1.33195 -4.41652 0
M  V30 13276 H 1271.3 1.18593 -4.17275 0
M  V30 13277 H 1271.97 2.68465 -4.82318 0
M  V30 13278 H 1274.45 2.9672 -2.91713 0
M  V30 13279 H 1273.32 4.21272 -3.51882 0
M  V30 13280 H 1273.59 4.04236 -1.79014 0
M  V30 13281 N 1272.64 1.35187 0.810078 0
M  V30 13282 C 1274.06 1.25329 1.38381 0
M  V30 13283 C 1274.41 -0.115799 1.95858 0
M  V30 13284 O 1273.53 -1.01663 1.91033 0
M  V30 13285 C 1274.13 2.2693 2.51572 0
M  V30 13286 C 1272.69 2.20824 3.04818 0
M  V30 13287 C 1271.83 2.1283 1.7776 0
M  V30 13288 H 1274.78 1.46366 0.613402 0
M  V30 13289 H 1274.8 1.89375 3.30026 0
M  V30 13290 H 1274.32 3.26563 2.09709 0
M  V30 13291 H 1272.42 1.24589 3.51153 0
M  V30 13292 H 1272.53 3.12637 3.63036 0
M  V30 13293 H 1270.89 1.58752 1.99173 0
M  V30 13294 H 1271.68 3.14318 1.38054 0
M  V30 13295 N 1274.12 -1.03182 1.19127 0
M  V30 13296 C 1275.53 -1.57984 0.994888 0
M  V30 13297 C 1275.88 -1.90898 -0.453019 0
M  V30 13298 O 1275.01 -1.70556 -1.33191 0
M  V30 13299 C 1275.6 -2.8705 1.79966 0
M  V30 13300 C 1274.16 -3.38435 1.64737 0
M  V30 13301 C 1273.31 -2.11912 1.78854 0
M  V30 13302 H 1276.26 -0.857458 1.33542 0
M  V30 13303 H 1276.28 -3.57821 1.294 0
M  V30 13304 H 1275.79 -2.63062 2.85341 0
M  V30 13305 H 1273.9 -3.67416 0.619358 0
M  V30 13306 H 1274.01 -4.11665 2.45089 0
M  V30 13307 H 1272.37 -2.23642 1.21886 0
M  V30 13308 H 1273.16 -1.90369 2.85682 0
M  V30 13309 N 1275.6 -0.99472 -1.22242 0
M  V30 13310 C 1276.53 -0.566499 -2.26524 0
M  V30 13311 C 1277.51 0.407541 -1.65146 0
M  V30 13312 O 1278.7 0.297777 -1.91903 0
M  V30 13313 C 1275.83 0.11786 -3.471 0
M  V30 13314 C 1274.78 -0.774908 -4.20927 0
M  V30 13315 C 1274.11 0.0424687 -5.34683 0
M  V30 13316 C 1275.41 -2.07263 -4.79416 0
M  V30 13317 H 1277.1 -1.43818 -2.62596 0
M  V30 13318 H 1274.65 -0.692971 -1.2623 0
M  V30 13319 H 1276.6 0.428842 -4.19212 0
M  V30 13320 H 1275.32 1.0241 -3.10129 0
M  V30 13321 H 1273.98 -1.06956 -3.50651 0
M  V30 13322 H 1273.63 0.949677 -4.93954 0
M  V30 13323 H 1273.33 -0.551867 -5.85003 0
M  V30 13324 H 1274.85 0.347504 -6.0961 0
M  V30 13325 H 1276.27 -1.82548 -5.4346 0
M  V30 13326 H 1274.67 -2.61594 -5.40082 0
M  V30 13327 H 1275.74 -2.75017 -3.99366 0
M  V30 13328 N 1277.08 1.37613 -0.768148 0
M  V30 13329 C 1278.03 2.3218 -0.13974 0
M  V30 13330 C 1279.02 1.54754 0.689023 0
M  V30 13331 O 1280.23 1.70177 0.586489 0
M  V30 13332 H 1276.6 0.751536 -0.0264001 0
M  V30 13333 H 1278.57 2.82768 -0.953139 0
M  V30 13334 C 1277.32 3.39997 0.727829 0
M  V30 13335 H 1276.64 3.99676 0.0994851 0
M  V30 13336 H 1278.08 4.08538 1.13456 0
M  V30 13337 C 1276.54 2.79778 1.87686 0
M  V30 13338 O 1277.07 2.70241 2.97208 0
M  V30 13339 N 1275.28 2.37373 1.67637 0
M  V30 13340 H 1274.83 2.4533 0.785552 0
M  V30 13341 H 1274.78 1.97426 2.44684 0
M  V30 13342 N 1278.56 0.518393 1.4883 0
M  V30 13343 C 1279.8 -0.0199348 2.0279 0
M  V30 13344 C 1280.14 -1.35026 1.39576 0
M  V30 13345 O 1279.41 -1.86927 0.537449 0
M  V30 13346 C 1279.69 -0.154184 3.5977 0
M  V30 13347 C 1279.55 1.2005 4.33484 0
M  V30 13348 C 1280.87 -0.886547 4.31078 0
M  V30 13349 H 1277.98 -0.00577061 0.736977 0
M  V30 13350 H 1280.63 0.673178 1.77675 0
M  V30 13351 H 1278.78 -0.74451 3.81299 0
M  V30 13352 H 1280.45 1.83104 4.23404 0
M  V30 13353 H 1278.69 1.78537 3.95357 0
M  V30 13354 H 1279.36 1.05968 5.41733 0
M  V30 13355 H 1281.84 -0.385711 4.14308 0
M  V30 13356 H 1280.71 -0.949355 5.40628 0
M  V30 13357 H 1280.98 -1.93424 3.97542 0
M  V30 13358 N 1280.03 -1.55556 0.252993 0
M  V30 13359 C 1281.45 -1.59276 -0.101714 0
M  V30 13360 C 1281.65 -1.27018 -1.56424 0
M  V30 13361 O 1280.71 -1.02042 -2.30963 0
M  V30 13362 C 1282.02 -2.99634 0.252969 0
M  V30 13363 C 1283.57 -3.12375 0.197767 0
M  V30 13364 C 1284.04 -4.54963 0.52657 0
M  V30 13365 N 1285.53 -4.60734 0.477296 0
M  V30 13366 C 1286.27 -5.69052 0.704793 0
M  V30 13367 N 1285.76 -6.85607 0.99574 0
M  V30 13368 N 1287.56 -5.58501 0.635086 0
M  V30 13369 H 1279.71 -1.74793 1.2067 0
M  V30 13370 H 1281.97 -0.813971 0.485958 0
M  V30 13371 H 1281.68 -3.27998 1.26926 0
M  V30 13372 H 1281.55 -3.74888 -0.416984 0
M  V30 13373 H 1283.94 -2.83788 -0.809209 0
M  V30 13374 H 1284.02 -2.39382 0.901659 0
M  V30 13375 H 1283.66 -4.84271 1.53113 0
M  V30 13376 H 1283.59 -5.26224 -0.198869 0
M  V30 13377 H 1286.08 -3.76995 0.261398 0
M  V30 13378 H 1286.4 -7.64096 1.15659 0
M  V30 13379 H 1284.74 -6.87276 1.03328 0
M  V30 13380 H 1287.93 -4.6632 0.407789 0
M  V30 13381 H 1288.11 -6.42845 0.815777 0
M  V30 13382 N 1281.51 0.0200419 -1.57587 0
M  V30 13383 C 1282.76 0.707627 -1.89307 0
M  V30 13384 C 1283.08 1.7541 -0.851831 0
M  V30 13385 O 1282.35 1.95571 0.113404 0
M  V30 13386 H 1280.93 0.264349 -0.698662 0
M  V30 13387 H 1283.59 -0.0161428 -1.94893 0
M  V30 13388 H 1282.69 1.19152 -2.8846 0
M  V30 13389 N 1282.99 1.54862 0.292472 0
M  V30 13390 C 1284.24 1.74203 1.02458 0
M  V30 13391 C 1284.56 0.535398 1.87506 0
M  V30 13392 O 1283.83 -0.450164 1.90658 0
M  V30 13393 H 1282.41 0.642369 0.381276 0
M  V30 13394 H 1285.07 1.92232 0.321398 0
M  V30 13395 H 1284.17 2.63486 1.67277 0
M  V30 13396 N 1284.47 -0.556076 1.47464 0
M  V30 13397 C 1285.88 -0.882115 1.33007 0
M  V30 13398 C 1286.08 -1.9892 0.321407 0
M  V30 13399 O 1285.14 -2.51088 -0.266668 0
M  V30 13400 C 1286.45 -1.27428 2.72365 0
M  V30 13401 C 1288 -1.38564 2.80658 0
M  V30 13402 C 1288.48 -1.81136 4.20659 0
M  V30 13403 N 1289.97 -1.88284 4.23206 0
M  V30 13404 C 1290.7 -2.22555 5.28447 0
M  V30 13405 N 1290.2 -2.55432 6.43993 0
M  V30 13406 N 1291.99 -2.23339 5.15826 0
M  V30 13407 H 1284.14 0.17481 2.11679 0
M  V30 13408 H 1286.41 0.0155421 0.947873 0
M  V30 13409 H 1286.11 -0.53463 3.47613 0
M  V30 13410 H 1285.99 -2.23019 3.04208 0
M  V30 13411 H 1288.37 -2.1161 2.05682 0
M  V30 13412 H 1288.45 -0.411588 2.52467 0
M  V30 13413 H 1288.1 -1.08659 4.96141 0
M  V30 13414 H 1288.03 -2.79546 4.46275 0
M  V30 13415 H 1290.52 -1.65259 3.3985 0
M  V30 13416 H 1290.83 -2.80612 7.20053 0
M  V30 13417 H 1289.18 -2.5301 6.47311 0
M  V30 13418 H 1292.37 -1.97094 4.24584 0
M  V30 13419 H 1292.54 -2.49717 5.97951 0
M  V30 13420 N 1285.95 -1.35615 -0.802897 0
M  V30 13421 C 1287.22 -1.19655 -1.54732 0
M  V30 13422 C 1287.6 0.222827 -2.09921 0
M  V30 13423 O 1286.95 1.2268 -1.92774 0
M  V30 13424 C 1287.16 -2.26761 -2.65293 0
M  V30 13425 C 1288.51 -2.62754 -3.33535 0
M  V30 13426 O 1289.53 -2.25702 -2.75567 0
M  V30 13427 O 1288.39 -3.26476 -4.38264 0
M  V30 13428 H 1285.49 -0.465079 -0.683835 0
M  V30 13429 H 1288.03 -1.47307 -0.84254 0
M  V30 13430 H 1286.81 -3.21946 -2.22411 0
M  V30 13431 H 1286.43 -2.00399 -3.43404 0
M  V30 13432 N 1287.43 1.02549 -1.19673 0
M  V30 13433 C 1288.39 2.09064 -0.939407 0
M  V30 13434 C 1289.39 1.60593 0.0814837 0
M  V30 13435 O 1290.58 1.73521 -0.153626 0
M  V30 13436 C 1287.71 3.38395 -0.412513 0
M  V30 13437 H 1288.9 2.33325 -1.88413 0
M  V30 13438 H 1286.46 1.19211 -1.01086 0
M  V30 13439 H 1287.19 3.19805 0.538094 0
M  V30 13440 H 1286.98 3.74898 -1.14863 0
M  V30 13441 H 1288.47 4.16841 -0.251678 0
M  V30 13442 N 1288.9 1.00119 1.21713 0
M  V30 13443 C 1290.15 0.67713 1.89994 0
M  V30 13444 C 1290.47 -0.795149 1.78709 0
M  V30 13445 O 1291.67 -1.23113 2.41982 0
M  V30 13446 C 1290.13 1.16065 3.40671 0
M  V30 13447 C 1289.74 2.65874 3.60576 0
M  V30 13448 C 1291.48 0.911302 4.14603 0
M  V30 13449 C 1289.39 3.07785 5.04997 0
M  V30 13450 H 1288.32 0.249572 0.711498 0
M  V30 13451 H 1290.97 1.21185 1.37792 0
M  V30 13452 H 1289.35 0.554005 3.92106 0
M  V30 13453 H 1290.52 3.31954 3.19598 0
M  V30 13454 H 1288.84 2.88781 2.99991 0
M  V30 13455 H 1291.44 1.20004 5.2106 0
M  V30 13456 H 1291.78 -0.152495 4.16021 0
M  V30 13457 H 1292.31 1.48055 3.69222 0
M  V30 13458 H 1289.05 4.13376 5.08724 0
M  V30 13459 H 1288.57 2.46414 5.46846 0
M  V30 13460 H 1290.25 2.99552 5.73479 0
M  V30 13461 N 1290.38 -1.37203 0.775435 0
M  V30 13462 C 1291.63 -1.98846 0.338093 0
M  V30 13463 C 1291.94 -1.6225 -1.09244 0
M  V30 13464 O 1293.15 -2.17024 -1.63135 0
M  V30 13465 C 1291.61 -3.55618 0.553541 0
M  V30 13466 C 1291.21 -4.01149 1.99457 0
M  V30 13467 C 1292.96 -4.24118 0.180006 0
M  V30 13468 C 1290.86 -5.50644 2.15742 0
M  V30 13469 H 1289.79 -0.743955 0.122669 0
M  V30 13470 H 1292.45 -1.56685 0.955087 0
M  V30 13471 H 1290.83 -3.95777 -0.132964 0
M  V30 13472 H 1292 -3.72226 2.71633 0
M  V30 13473 H 1290.32 -3.45443 2.32504 0
M  V30 13474 H 1292.91 -5.33966 0.280145 0
M  V30 13475 H 1293.26 -4.07104 -0.870192 0
M  V30 13476 H 1293.79 -3.89274 0.819201 0
M  V30 13477 H 1290.53 -5.7259 3.19094 0
M  V30 13478 H 1290.05 -5.8124 1.48054 0
M  V30 13479 H 1291.73 -6.16668 1.95781 0
M  V30 13480 N 1291.86 -0.526279 -1.48553 0
M  V30 13481 C 1292.79 0.227364 -2.3239 0
M  V30 13482 C 1293.77 0.93862 -1.41859 0
M  V30 13483 O 1294.96 0.925119 -1.70749 0
M  V30 13484 C 1292.09 1.277 -3.22971 0
M  V30 13485 C 1291.04 0.684107 -4.22497 0
M  V30 13486 C 1290.37 1.83612 -5.02186 0
M  V30 13487 C 1291.67 -0.341723 -5.21181 0
M  V30 13488 H 1293.36 -0.472486 -2.95648 0
M  V30 13489 H 1290.91 -0.228669 -1.42173 0
M  V30 13490 H 1292.86 1.81215 -3.80446 0
M  V30 13491 H 1291.58 2.00638 -2.57705 0
M  V30 13492 H 1290.24 0.170505 -3.66203 0
M  V30 13493 H 1289.89 2.55379 -4.33348 0
M  V30 13494 H 1289.59 1.44536 -5.69547 0
M  V30 13495 H 1291.11 2.37513 -5.62512 0
M  V30 13496 H 1292.53 0.106207 -5.73202 0
M  V30 13497 H 1290.92 -0.649673 -5.96573 0
M  V30 13498 H 1291.99 -1.2488 -4.68543 0
M  V30 13499 N 1293.34 1.5542 -0.261239 0
M  V30 13500 C 1294.27 2.24949 0.626126 0
M  V30 13501 C 1295.25 1.23474 1.16997 0
M  V30 13502 O 1296.43 1.52161 1.20667 0
M  V30 13503 C 1293.56 2.95996 1.81669 0
M  V30 13504 C 1292.52 4.04282 1.40499 0
M  V30 13505 C 1291.84 4.62831 2.67753 0
M  V30 13506 C 1293.14 5.1923 0.56543 0
M  V30 13507 H 1294.84 2.99364 0.0463164 0
M  V30 13508 H 1292.38 1.43985 0.0208366 0
M  V30 13509 H 1294.34 3.43343 2.44323 0
M  V30 13510 H 1293.06 2.19093 2.42211 0
M  V30 13511 H 1291.72 3.57726 0.801712 0
M  V30 13512 H 1291.37 3.82611 3.26524 0
M  V30 13513 H 1291.07 5.35938 2.40925 0
M  V30 13514 H 1292.59 5.12918 3.31281 0
M  V30 13515 H 1294.01 5.62714 1.09663 0
M  V30 13516 H 1292.4 5.98814 0.392607 0
M  V30 13517 H 1293.47 4.83086 -0.419059 0
M  V30 13518 N 1294.82 -0.0116844 1.57596 0
M  V30 13519 C 1296.04 -0.71026 1.94327 0
M  V30 13520 C 1296.46 -1.67952 0.862418 0
M  V30 13521 O 1295.82 -1.818 -0.159698 0
M  V30 13522 C 1295.87 -1.45228 3.31045 0
M  V30 13523 O 1295.59 -0.52191 4.3498 0
M  V30 13524 C 1297.09 -2.24644 3.82165 0
M  V30 13525 H 1294.31 -0.198559 0.640949 0
M  V30 13526 H 1296.85 0.0359615 2.04468 0
M  V30 13527 H 1295.01 -2.15023 3.22248 0
M  V30 13528 H 1295.42 -1.04415 5.14002 0
M  V30 13529 H 1296.9 -2.72078 4.80289 0
M  V30 13530 H 1297.37 -3.06817 3.14261 0
M  V30 13531 H 1297.98 -1.59888 3.94101 0
M  V30 13532 N 1296.29 -1.55015 -0.284256 0
M  V30 13533 C 1297.53 -1.76836 -1.02511 0
M  V30 13534 C 1297.9 -0.551675 -1.83904 0
M  V30 13535 O 1299.1 -0.647919 -2.60874 0
M  V30 13536 C 1297.37 -3.0312 -1.89348 0
M  V30 13537 S 1298.93 -3.46013 -2.69852 0
M  V30 13538 H 1295.75 -0.621436 -0.345453 0
M  V30 13539 H 1298.35 -1.93235 -0.296708 0
M  V30 13540 H 1297.05 -3.89778 -1.28458 0
M  V30 13541 H 1296.58 -2.89355 -2.66528 0
M  V30 13542 H 1298.6 -3.044 -3.91861 0
M  V30 13543 N 1297.77 0.548248 -1.47757 0
M  V30 13544 C 1298.73 1.63666 -1.60456 0
M  V30 13545 C 1299.73 1.53499 -0.479028 0
M  V30 13546 O 1300.92 1.57497 -0.744342 0
M  V30 13547 C 1298.06 3.03239 -1.55754 0
M  V30 13548 H 1299.25 1.53752 -2.57488 0
M  V30 13549 H 1296.8 0.768881 -1.36081 0
M  V30 13550 H 1297.54 3.18677 -0.601303 0
M  V30 13551 H 1297.32 3.12027 -2.37448 0
M  V30 13552 H 1298.81 3.82406 -1.67797 0
M  V30 13553 N 1299.25 1.36039 0.795694 0
M  V30 13554 C 1300.5 1.30112 1.5556 0
M  V30 13555 C 1300.83 -0.121197 1.93821 0
M  V30 13556 O 1300.1 -1.07313 1.62216 0
M  V30 13557 C 1300.39 2.21792 2.8369 0
M  V30 13558 C 1300.24 3.72691 2.51836 0
M  V30 13559 C 1301.56 2.12365 3.85472 0
M  V30 13560 H 1298.68 0.473971 0.564376 0
M  V30 13561 H 1301.32 1.66536 0.91465 0
M  V30 13562 H 1299.47 1.9086 3.38386 0
M  V30 13563 H 1301.14 4.14115 2.0324 0
M  V30 13564 H 1299.38 3.92436 1.84869 0
M  V30 13565 H 1300.06 4.32242 3.43323 0
M  V30 13566 H 1302.53 2.3958 3.40207 0
M  V30 13567 H 1301.41 2.78695 4.72885 0
M  V30 13568 H 1301.67 1.10898 4.27965 0
M  V30 13569 N 1300.73 -1.01913 1.20215 0
M  V30 13570 C 1301.68 -2.08774 0.916367 0
M  V30 13571 C 1302.66 -1.60431 -0.122796 0
M  V30 13572 O 1303.85 -1.76799 0.0842336 0
M  V30 13573 C 1300.98 -3.40102 0.467517 0
M  V30 13574 C 1300.07 -3.95153 1.53997 0
M  V30 13575 N 1300.46 -4.23745 2.76178 0
M  V30 13576 C 1298.76 -4.23274 1.40554 0
M  V30 13577 C 1299.46 -4.681 3.45336 0
M  V30 13578 N 1298.44 -4.70224 2.72745 0
M  V30 13579 H 1302.24 -2.28786 1.84484 0
M  V30 13580 H 1299.75 -1.19861 1.09577 0
M  V30 13581 H 1301.75 -4.16184 0.244195 0
M  V30 13582 H 1300.41 -3.21505 -0.454358 0
M  V30 13583 H 1301.42 -4.12728 3.12852 0
M  V30 13584 H 1298.1 -4.1389 0.547877 0
M  V30 13585 H 1299.49 -4.99063 4.49873 0
M  V30 13586 N 1302.21 -1.00763 -1.2118 0
M  V30 13587 C 1303.62 -0.724746 -1.72059 0
M  V30 13588 C 1303.97 0.757413 -1.80991 0
M  V30 13589 O 1303.09 1.59152 -1.46627 0
M  V30 13590 C 1303.69 -1.30893 -3.12494 0
M  V30 13591 C 1302.25 -1.07511 -3.60719 0
M  V30 13592 C 1301.39 -1.42014 -2.38175 0
M  V30 13593 H 1304.35 -1.17821 -1.0632 0
M  V30 13594 H 1304.37 -0.694919 -3.741 0
M  V30 13595 H 1303.88 -2.38767 -3.05961 0
M  V30 13596 H 1301.98 -0.0136518 -3.72597 0
M  V30 13597 H 1302.09 -1.74885 -4.4604 0
M  V30 13598 H 1300.46 -0.838972 -2.40486 0
M  V30 13599 H 1301.24 -2.50924 -2.34291 0
M  V30 13600 N 1303.68 1.3679 -0.7827 0
M  V30 13601 C 1304.59 2.33928 -0.17747 0
M  V30 13602 C 1305.61 1.60716 0.666802 0
M  V30 13603 O 1306.79 1.92742 0.584162 0
M  V30 13604 C 1303.85 3.39907 0.68294 0
M  V30 13605 C 1302.91 4.28926 -0.179053 0
M  V30 13606 C 1302.15 5.29844 0.640386 0
M  V30 13607 O 1302.37 5.38639 1.87681 0
M  V30 13608 O 1301.3 6.01884 0.0438164 0
M  V30 13609 H 1305.13 2.87439 -0.980441 0
M  V30 13610 H 1302.71 1.39142 -0.54404 0
M  V30 13611 H 1304.6 4.04722 1.17379 0
M  V30 13612 H 1303.27 2.88706 1.46391 0
M  V30 13613 H 1302.18 3.67174 -0.716512 0
M  V30 13614 H 1303.51 4.83461 -0.923377 0
M  V30 13615 N 1305.16 0.53415 1.48272 0
M  V30 13616 C 1306.09 -0.215037 2.32508 0
M  V30 13617 C 1307.07 -0.931083 1.42355 0
M  V30 13618 O 1308.26 -0.916051 1.71237 0
M  V30 13619 C 1305.39 -1.25985 3.23643 0
M  V30 13620 C 1304.34 -0.661692 4.22854 0
M  V30 13621 C 1303.67 -1.80946 5.03153 0
M  V30 13622 C 1304.97 0.369358 5.20992 0
M  V30 13623 H 1306.66 0.488158 2.95394 0
M  V30 13624 H 1304.21 0.236206 1.4205 0
M  V30 13625 H 1306.16 -1.79195 3.81402 0
M  V30 13626 H 1304.89 -1.99268 2.58766 0
M  V30 13627 H 1303.54 -0.151082 3.66289 0
M  V30 13628 H 1303.19 -2.53077 4.34696 0
M  V30 13629 H 1302.89 -1.41513 5.70305 0
M  V30 13630 H 1304.42 -2.34526 5.63764 0
M  V30 13631 H 1305.83 -0.0758076 5.7325 0
M  V30 13632 H 1304.23 0.681301 5.9622 0
M  V30 13633 H 1305.3 1.27363 4.67875 0
M  V30 13634 N 1306.64 -1.55279 0.269478 0
M  V30 13635 C 1307.89 -1.98649 -0.349522 0
M  V30 13636 C 1308.2 -1.16125 -1.57399 0
M  V30 13637 O 1309.41 -1.49612 -2.26558 0
M  V30 13638 C 1307.86 -3.53547 -0.673224 0
M  V30 13639 C 1307.47 -4.44841 0.531119 0
M  V30 13640 C 1309.22 -4.05519 -1.25516 0
M  V30 13641 C 1307.12 -5.91119 0.182317 0
M  V30 13642 H 1306.05 -0.74193 -0.13437 0
M  V30 13643 H 1308.7 -1.79664 0.373246 0
M  V30 13644 H 1307.09 -3.68311 -1.45474 0
M  V30 13645 H 1308.26 -4.41843 1.3081 0
M  V30 13646 H 1306.58 -4.03472 1.02952 0
M  V30 13647 H 1309.17 -5.12347 -1.52984 0
M  V30 13648 H 1309.52 -3.54215 -2.18718 0
M  V30 13649 H 1310.05 -3.94172 -0.536059 0
M  V30 13650 H 1306.79 -6.46507 1.08206 0
M  V30 13651 H 1306.31 -5.97199 -0.558008 0
M  V30 13652 H 1307.99 -6.466 -0.227484 0
M  V30 13653 N 1308.12 0.00332656 -1.576 0
M  V30 13654 C 1309.37 0.688869 -1.90423 0
M  V30 13655 C 1309.69 1.73963 -0.869896 0
M  V30 13656 O 1308.95 1.95295 0.125777 0
M  V30 13657 C 1309.25 1.37237 -3.30001 0
M  V30 13658 C 1308.91 0.455132 -4.48597 0
M  V30 13659 C 1307.58 0.202577 -4.80773 0
M  V30 13660 C 1309.93 -0.176597 -5.20901 0
M  V30 13661 C 1307.26 -0.690055 -5.82628 0
M  V30 13662 C 1309.61 -1.05708 -6.23705 0
M  V30 13663 C 1308.27 -1.31885 -6.54341 0
M  V30 13664 H 1307.54 0.252075 -0.696806 0
M  V30 13665 H 1310.19 -0.0514867 -1.91431 0
M  V30 13666 H 1308.49 2.18669 -3.25102 0
M  V30 13667 H 1310.19 1.9088 -3.52656 0
M  V30 13668 H 1306.78 0.662142 -4.23454 0
M  V30 13669 H 1310.96 0.0055127 -4.963 0
M  V30 13670 H 1306.22 -0.900902 -6.04726 0
M  V30 13671 H 1310.39 -1.55296 -6.78864 0
M  V30 13672 H 1308.02 -2.01222 -7.33085 0
M  V30 13673 N 1309.6 1.55164 0.276031 0
M  V30 13674 C 1310.87 1.66338 1.02913 0
M  V30 13675 C 1311.25 0.527876 2.04393 0
M  V30 13676 O 1310.6 -0.472437 2.23563 0
M  V30 13677 C 1310.81 3.05427 1.68865 0
M  V30 13678 C 1312.16 3.63075 2.2014 0
M  V30 13679 O 1313.18 3.0804 1.78857 0
M  V30 13680 O 1312.04 4.59492 2.95854 0
M  V30 13681 H 1309.14 0.675446 0.477181 0
M  V30 13682 H 1311.68 1.67504 0.272129 0
M  V30 13683 H 1310.45 3.79514 0.953125 0
M  V30 13684 H 1310.08 3.08147 2.5126 0
M  V30 13685 N 1311.07 -0.540404 1.48045 0
M  V30 13686 C 1312.32 -1.2932 1.54787 0
M  V30 13687 C 1312.64 -1.94335 0.222109 0
M  V30 13688 O 1313.84 -2.70982 0.167675 0
M  V30 13689 C 1312.3 -2.34594 2.72935 0
M  V30 13690 C 1311.91 -1.75696 4.1211 0
M  V30 13691 C 1313.65 -3.10949 2.88982 0
M  V30 13692 C 1311.56 -2.78849 5.21534 0
M  V30 13693 H 1310.49 -0.486315 0.576206 0
M  V30 13694 H 1313.14 -0.571998 1.74357 0
M  V30 13695 H 1311.52 -3.09704 2.46778 0
M  V30 13696 H 1312.69 -1.06845 4.48242 0
M  V30 13697 H 1311.01 -1.11869 4.01091 0
M  V30 13698 H 1313.61 -3.88012 3.679 0
M  V30 13699 H 1313.95 -3.66173 1.98048 0
M  V30 13700 H 1314.48 -2.42953 3.1499 0
M  V30 13701 H 1311.22 -2.28459 6.144 0
M  V30 13702 H 1310.74 -3.46059 4.89901 0
M  V30 13703 H 1312.42 -3.4203 5.49203 0
M  V30 13704 N 1312.55 -1.36459 -0.788468 0
M  V30 13705 C 1313.78 -1.33898 -1.57731 0
M  V30 13706 C 1314.2 0.0795471 -1.88632 0
M  V30 13707 O 1313.55 1.03671 -1.50195 0
M  V30 13708 C 1313.6 -2.16134 -2.89773 0
M  V30 13709 O 1313.32 -3.52457 -2.60203 0
M  V30 13710 C 1314.83 -2.21364 -3.84074 0
M  V30 13711 H 1312.05 -0.459269 -0.489197 0
M  V30 13712 H 1314.59 -1.79569 -0.978526 0
M  V30 13713 H 1312.74 -1.74015 -3.46118 0
M  V30 13714 H 1313.16 -3.95378 -3.4464 0
M  V30 13715 H 1314.63 -2.83261 -4.7378 0
M  V30 13716 H 1315.11 -1.21736 -4.21992 0
M  V30 13717 H 1315.72 -2.63723 -3.33662 0
M  V30 13718 N 1314.03 1.01274 -1.20754 0
M  V30 13719 C 1314.98 2.09894 -0.959852 0
M  V30 13720 C 1315.95 1.65726 0.111351 0
M  V30 13721 O 1317.13 1.90769 -0.0341721 0
M  V30 13722 C 1314.27 3.41126 -0.52223 0
M  V30 13723 C 1313.39 3.98749 -1.66202 0
M  V30 13724 C 1312.52 5.18057 -1.17432 0
M  V30 13725 C 1311.56 5.67772 -2.28694 0
M  V30 13726 N 1310.7 6.78338 -1.81114 0
M  V30 13727 H 1315.54 2.30416 -1.88977 0
M  V30 13728 H 1313.07 1.12989 -0.941906 0
M  V30 13729 H 1315.03 4.16451 -0.249799 0
M  V30 13730 H 1313.66 3.20665 0.370688 0
M  V30 13731 H 1312.71 3.20483 -2.04927 0
M  V30 13732 H 1314.03 4.31646 -2.49967 0
M  V30 13733 H 1313.18 6.00601 -0.858086 0
M  V30 13734 H 1311.92 4.86735 -0.306614 0
M  V30 13735 H 1310.92 4.8383 -2.61129 0
M  V30 13736 H 1312.15 6.01127 -3.15948 0
M  V30 13737 H 1310.09 6.48837 -0.966761 0
M  V30 13738 H 1310.01 7.10448 -2.58457 0
M  V30 13739 H 1311.28 7.64437 -1.52502 0
M  V30 13740 N 1315.51 1.01404 1.20644 0
M  V30 13741 C 1316.44 0.602465 2.25594 0
M  V30 13742 C 1317.42 -0.381216 1.65773 0
M  V30 13743 O 1318.61 -0.267209 1.92353 0
M  V30 13744 C 1315.74 -0.0626245 3.47244 0
M  V30 13745 C 1314.69 0.841776 4.1964 0
M  V30 13746 C 1314.02 0.0426002 5.34683 0
M  V30 13747 C 1315.32 2.14864 4.76058 0
M  V30 13748 H 1317.01 1.47977 2.60275 0
M  V30 13749 H 1314.56 0.712966 1.25111 0
M  V30 13750 H 1316.51 -0.362095 4.19841 0
M  V30 13751 H 1315.23 -0.974627 3.11719 0
M  V30 13752 H 1313.89 1.12521 3.48905 0
M  V30 13753 H 1313.54 -0.870973 4.95402 0
M  V30 13754 H 1313.24 0.644866 5.84051 0
M  V30 13755 H 1314.76 -0.250476 6.10086 0
M  V30 13756 H 1316.18 1.9117 5.40488 0
M  V30 13757 H 1314.57 2.70153 5.35852 0
M  V30 13758 H 1315.64 2.81336 3.9494 0
M  V30 13759 N 1316.99 -1.36373 0.789944 0
M  V30 13760 C 1317.92 -2.32616 0.202944 0
M  V30 13761 C 1318.9 -1.56674 -0.662364 0
M  V30 13762 O 1320.08 -1.84826 -0.596078 0
M  V30 13763 C 1317.21 -3.4092 -0.662646 0
M  V30 13764 C 1316.17 -4.27877 0.102811 0
M  V30 13765 C 1315.49 -5.27352 -0.883407 0
M  V30 13766 C 1316.79 -5.0606 1.29231 0
M  V30 13767 H 1318.49 -2.81958 1.00699 0
M  V30 13768 H 1316.03 -1.35562 0.48568 0
M  V30 13769 H 1317.99 -4.07239 -1.08324 0
M  V30 13770 H 1316.71 -2.90147 -1.4994 0
M  V30 13771 H 1315.37 -3.63114 0.504389 0
M  V30 13772 H 1315.02 -4.72853 -1.71521 0
M  V30 13773 H 1314.72 -5.86398 -0.375669 0
M  V30 13774 H 1316.24 -5.96545 -1.30256 0
M  V30 13775 H 1317.66 -5.65417 0.947446 0
M  V30 13776 H 1316.05 -5.74521 1.73338 0
M  V30 13777 H 1317.12 -4.37671 2.08739 0
M  V30 13778 N 1318.47 -0.542005 -1.47987 0
M  V30 13779 C 1319.4 0.202703 -2.32618 0
M  V30 13780 C 1320.38 0.923521 -1.42846 0
M  V30 13781 O 1321.56 0.906957 -1.7172 0
M  V30 13782 C 1318.69 1.24267 -3.24307 0
M  V30 13783 C 1317.65 0.639257 -4.23199 0
M  V30 13784 C 1316.97 1.78275 -5.04105 0
M  V30 13785 C 1318.27 -0.396982 -5.20789 0
M  V30 13786 H 1319.97 -0.503817 -2.95131 0
M  V30 13787 H 1317.51 -0.243736 -1.41922 0
M  V30 13788 H 1319.46 1.7717 -3.82347 0
M  V30 13789 H 1318.19 1.97893 -2.59819 0
M  V30 13790 H 1316.85 0.131655 -3.66364 0
M  V30 13791 H 1316.5 2.50768 -4.36032 0
M  V30 13792 H 1316.2 1.38487 -5.71047 0
M  V30 13793 H 1317.72 2.31533 -5.65 0
M  V30 13794 H 1319.13 0.0454057 -5.73282 0
M  V30 13795 H 1317.53 -0.712911 -5.9585 0
M  V30 13796 H 1318.6 -1.29843 -4.67193 0
M  V30 13797 N 1319.94 1.55134 -0.277709 0
M  V30 13798 C 1320.91 2.21327 0.595569 0
M  V30 13799 C 1321.91 1.19193 1.07933 0
M  V30 13800 O 1323.1 1.44081 0.979093 0
M  V30 13801 C 1320.23 2.88127 1.82196 0
M  V30 13802 H 1321.42 2.99895 0.0175855 0
M  V30 13803 H 1318.97 1.56274 -0.0283453 0
M  V30 13804 H 1319.71 2.13578 2.44039 0
M  V30 13805 H 1319.49 3.62974 1.48297 0
M  V30 13806 H 1320.98 3.38691 2.44291 0
M  V30 13807 N 1321.42 0.00503138 1.57599 0
M  V30 13808 C 1322.67 -0.677979 1.89964 0
M  V30 13809 C 1322.98 -1.74657 0.88059 0
M  V30 13810 O 1324.19 -2.48455 1.09463 0
M  V30 13811 C 1322.65 -1.25708 3.37232 0
M  V30 13812 C 1322.25 -0.223045 4.47444 0
M  V30 13813 C 1324 -1.91799 3.787 0
M  V30 13814 C 1321.9 -0.812416 5.85793 0
M  V30 13815 H 1320.83 -0.256991 0.708852 0
M  V30 13816 H 1323.49 0.0663988 1.8338 0
M  V30 13817 H 1321.87 -2.05228 3.3867 0
M  V30 13818 H 1323.04 0.54794 4.57531 0
M  V30 13819 H 1321.36 0.337714 4.15028 0
M  V30 13820 H 1323.95 -2.36808 4.79402 0
M  V30 13821 H 1324.3 -2.75067 3.1248 0
M  V30 13822 H 1324.83 -1.19004 3.79583 0
M  V30 13823 H 1321.57 -0.0184031 6.55497 0
M  V30 13824 H 1321.09 -1.55244 5.79361 0
M  V30 13825 H 1322.77 -1.30952 6.33609 0
M  V30 13826 N 1322.9 -1.55308 -0.267798 0
M  V30 13827 C 1323.83 -1.91555 -1.33525 0
M  V30 13828 C 1324.81 -0.778001 -1.51265 0
M  V30 13829 O 1326 -1.03657 -1.64222 0
M  V30 13830 C 1323.13 -2.19201 -2.69385 0
M  V30 13831 C 1322.08 -3.3501 -2.66369 0
M  V30 13832 C 1321.41 -3.48148 -4.05829 0
M  V30 13833 C 1322.71 -4.71265 -2.25182 0
M  V30 13834 H 1324.4 -2.80965 -1.03437 0
M  V30 13835 H 1321.95 -1.35183 -0.496141 0
M  V30 13836 H 1323.9 -2.43146 -3.44177 0
M  V30 13837 H 1322.62 -1.26596 -3.01067 0
M  V30 13838 H 1321.28 -3.11041 -1.94034 0
M  V30 13839 H 1320.93 -2.53 -4.34741 0
M  V30 13840 H 1320.63 -4.26014 -4.04704 0
M  V30 13841 H 1322.15 -3.74391 -4.82352 0
M  V30 13842 H 1323.57 -4.94719 -2.89699 0
M  V30 13843 H 1321.96 -5.52084 -2.3521 0
M  V30 13844 H 1323.03 -4.69735 -1.20319 0
M  V30 13845 N 1324.38 0.532545 -1.4833 0
M  V30 13846 C 1325.63 1.28597 -1.55908 0
M  V30 13847 C 1325.95 1.93595 -0.233635 0
M  V30 13848 O 1325.22 1.81197 0.744605 0
M  V30 13849 H 1323.8 0.477619 -0.57436 0
M  V30 13850 H 1326.46 0.619922 -1.84778 0
M  V30 13851 H 1325.55 2.0666 -2.33877 0
M  V30 13852 N 1325.86 1.36875 0.78122 0
M  V30 13853 C 1327.27 1.28236 1.35692 0
M  V30 13854 C 1327.62 -0.0742286 1.9606 0
M  V30 13855 O 1326.74 -0.97588 1.93146 0
M  V30 13856 C 1327.34 2.32215 2.46702 0
M  V30 13857 C 1325.9 2.2724 3.00065 0
M  V30 13858 C 1325.04 2.16553 1.73206 0
M  V30 13859 H 1327.99 1.47634 0.582217 0
M  V30 13860 H 1328.02 1.96333 3.25935 0
M  V30 13861 H 1327.53 3.30938 2.02735 0
M  V30 13862 H 1325.63 1.3201 3.48431 0
M  V30 13863 H 1325.74 3.20267 3.56323 0
M  V30 13864 H 1324.11 1.62941 1.95761 0
M  V30 13865 H 1324.89 3.17176 1.31356 0
M  V30 13866 N 1327.33 -1.00632 1.21289 0
M  V30 13867 C 1328.26 -2.11238 0.995021 0
M  V30 13868 C 1329.24 -1.69914 -0.0795537 0
M  V30 13869 O 1330.43 -1.94035 0.0800152 0
M  V30 13870 C 1327.56 -3.42797 0.557475 0
M  V30 13871 C 1326.51 -3.97909 1.57646 0
M  V30 13872 C 1325.84 -5.25357 0.995197 0
M  V30 13873 C 1327.14 -4.30123 2.96297 0
M  V30 13874 H 1328.83 -2.29722 1.9201 0
M  V30 13875 H 1326.38 -1.10395 0.924602 0
M  V30 13876 H 1328.33 -4.19571 0.392236 0
M  V30 13877 H 1327.06 -3.24101 -0.403253 0
M  V30 13878 H 1325.72 -3.23254 1.72924 0
M  V30 13879 H 1325.36 -5.02993 0.026227 0
M  V30 13880 H 1325.06 -5.63196 1.67583 0
M  V30 13881 H 1326.59 -6.04777 0.841251 0
M  V30 13882 H 1328 -4.97744 2.8447 0
M  V30 13883 H 1326.4 -4.79101 3.61361 0
M  V30 13884 H 1327.47 -3.38454 3.47242 0
M  V30 13885 N 1328.81 -1.02043 -1.20104 0
M  V30 13886 C 1329.74 -0.538603 -2.21753 0
M  V30 13887 C 1330.72 0.416016 -1.57188 0
M  V30 13888 O 1331.91 0.335114 -1.85497 0
M  V30 13889 C 1329.03 0.215706 -3.38012 0
M  V30 13890 C 1328.08 -0.68905 -4.20897 0
M  V30 13891 S 1328.91 -2.16041 -4.89986 0
M  V30 13892 C 1330.07 -1.41637 -6.09664 0
M  V30 13893 H 1330.3 -1.39988 -2.6228 0
M  V30 13894 H 1327.83 -0.829641 -1.30216 0
M  V30 13895 H 1329.79 0.644798 -4.05404 0
M  V30 13896 H 1328.45 1.0526 -2.95938 0
M  V30 13897 H 1327.65 -0.107195 -5.03886 0
M  V30 13898 H 1327.25 -1.05609 -3.5878 0
M  V30 13899 H 1329.54 -0.698414 -6.73891 0
M  V30 13900 H 1330.48 -2.22254 -6.72316 0
M  V30 13901 H 1330.89 -0.917572 -5.56993 0
M  V30 13902 N 1330.29 1.35952 -0.797165 0
M  V30 13903 C 1331.54 1.99327 -0.373695 0
M  V30 13904 C 1331.87 1.63111 1.05396 0
M  V30 13905 O 1331.14 0.889736 1.72956 0
M  V30 13906 C 1331.43 3.5593 -0.54641 0
M  V30 13907 C 1331.28 4.01975 -2.01832 0
M  V30 13908 C 1332.6 4.40087 0.0337694 0
M  V30 13909 H 1329.72 0.724107 -0.137254 0
M  V30 13910 H 1332.36 1.61248 -1.00495 0
M  V30 13911 H 1330.51 3.88499 -0.00903959 0
M  V30 13912 H 1332.18 3.79859 -2.61735 0
M  V30 13913 H 1330.43 3.5323 -2.51815 0
M  V30 13914 H 1331.1 5.109 -2.09009 0
M  V30 13915 H 1333.57 4.13923 -0.425039 0
M  V30 13916 H 1332.45 5.48775 -0.117054 0
M  V30 13917 H 1332.71 4.27504 1.12661 0
M  V30 13918 N 1331.77 0.549846 1.47697 0
M  V30 13919 C 1332.7 -0.190364 2.32723 0
M  V30 13920 C 1333.68 -0.915933 1.43334 0
M  V30 13921 O 1334.86 -0.897838 1.72199 0
M  V30 13922 C 1331.99 -1.22545 3.24961 0
M  V30 13923 C 1330.95 -0.616805 4.23532 0
M  V30 13924 C 1330.27 -1.75599 5.05044 0
M  V30 13925 C 1331.57 0.424595 5.20571 0
M  V30 13926 H 1333.27 0.519461 2.94859 0
M  V30 13927 H 1330.81 0.251259 1.41791 0
M  V30 13928 H 1332.77 -1.75139 3.83281 0
M  V30 13929 H 1331.49 -1.96512 2.60865 0
M  V30 13930 H 1330.15 -0.112224 3.66428 0
M  V30 13931 H 1329.8 -2.48453 4.37356 0
M  V30 13932 H 1329.5 -1.35456 5.71774 0
M  V30 13933 H 1331.02 -2.28533 5.6622 0
M  V30 13934 H 1332.44 -0.0150025 5.73298 0
M  V30 13935 H 1330.83 0.7445 5.95464 0
M  V30 13936 H 1331.9 1.32318 4.66497 0
M  V30 13937 N 1333.25 -1.54984 0.285932 0
M  V30 13938 C 1334.18 -2.20365 -0.630236 0
M  V30 13939 C 1335.19 -1.19168 -1.10918 0
M  V30 13940 O 1336.38 -1.45839 -1.02923 0
M  V30 13941 C 1333.48 -2.8244 -1.87299 0
M  V30 13942 C 1332.65 -4.09429 -1.53905 0
M  V30 13943 C 1331.71 -4.55449 -2.63538 0
M  V30 13944 O 1330.74 -5.20985 -2.29267 0
M  V30 13945 N 1331.94 -4.26498 -3.93802 0
M  V30 13946 H 1334.71 -2.99617 -0.0706044 0
M  V30 13947 H 1332.27 -1.61543 0.107486 0
M  V30 13948 H 1334.26 -3.10167 -2.59959 0
M  V30 13949 H 1332.83 -2.07117 -2.34139 0
M  V30 13950 H 1332.05 -3.88875 -0.645774 0
M  V30 13951 H 1333.34 -4.92146 -1.29111 0
M  V30 13952 H 1332.73 -3.73964 -4.24461 0
M  V30 13953 H 1331.29 -4.5897 -4.62807 0
M  V30 13954 N 1334.72 -0.0133892 -1.57594 0
M  V30 13955 C 1335.69 0.958601 -2.08191 0
M  V30 13956 C 1336.69 1.26408 -0.993865 0
M  V30 13957 O 1337.88 1.20703 -1.25604 0
M  V30 13958 C 1335.01 2.27971 -2.5346 0
M  V30 13959 H 1336.2 0.520686 -2.95345 0
M  V30 13960 H 1333.76 0.234351 -1.54533 0
M  V30 13961 H 1334.49 2.76424 -1.69588 0
M  V30 13962 H 1334.28 2.07116 -3.32935 0
M  V30 13963 H 1335.77 2.97672 -2.92884 0
M  V30 13964 N 1336.2 1.55448 0.259558 0
M  V30 13965 C 1337.45 1.76337 0.987396 0
M  V30 13966 C 1337.77 0.57505 1.86328 0
M  V30 13967 O 1337.04 -0.409621 1.9157 0
M  V30 13968 H 1335.62 0.650312 0.367565 0
M  V30 13969 H 1338.28 1.9287 0.280551 0
M  V30 13970 H 1337.38 2.66975 1.61651 0
M  V30 13971 N 1337.68 -0.524672 1.4861 0
M  V30 13972 C 1338.93 -1.27671 1.5615 0
M  V30 13973 C 1339.24 -1.94088 0.242709 0
M  V30 13974 O 1340.45 -2.70789 0.196407 0
M  V30 13975 C 1338.9 -2.31686 2.75408 0
M  V30 13976 C 1338.51 -1.71315 4.13951 0
M  V30 13977 C 1340.26 -3.07867 2.92264 0
M  V30 13978 C 1338.16 -2.73302 5.24462 0
M  V30 13979 H 1337.09 -0.480177 0.581332 0
M  V30 13980 H 1339.74 -0.553473 1.74954 0
M  V30 13981 H 1338.13 -3.07069 2.50049 0
M  V30 13982 H 1339.3 -1.02085 4.4935 0
M  V30 13983 H 1337.62 -1.07608 4.02255 0
M  V30 13984 H 1340.21 -3.84088 3.71995 0
M  V30 13985 H 1340.56 -3.64052 2.01921 0
M  V30 13986 H 1341.09 -2.39599 3.17549 0
M  V30 13987 H 1337.83 -2.21929 6.16788 0
M  V30 13988 H 1337.35 -3.40843 4.93544 0
M  V30 13989 H 1339.03 -3.36186 5.528 0
M  V30 13990 N 1339.16 -1.37287 -0.77395 0
M  V30 13991 C 1340.39 -1.35563 -1.56302 0
M  V30 13992 C 1340.8 0.0595356 -1.88706 0
M  V30 13993 O 1340.16 1.02072 -1.51286 0
M  V30 13994 C 1340.21 -2.19195 -2.87464 0
M  V30 13995 O 1339.93 -3.55197 -2.5645 0
M  V30 13996 C 1341.43 -2.25425 -3.81704 0
M  V30 13997 H 1338.65 -0.464431 -0.484298 0
M  V30 13998 H 1341.2 -1.80597 -0.959425 0
M  V30 13999 H 1339.35 -1.77676 -3.44253 0
M  V30 14000 H 1339.76 -3.99011 -3.40427 0
M  V30 14001 H 1341.24 -2.8827 -4.70749 0
M  V30 14002 H 1341.72 -1.26205 -4.20677 0
M  V30 14003 H 1342.32 -2.67247 -3.30846 0
M  V30 14004 N 1340.64 0.999871 -1.21821 0
M  V30 14005 C 1342.05 1.26228 -0.976664 0
M  V30 14006 C 1342.25 1.98714 0.333915 0
M  V30 14007 O 1341.31 2.29252 1.05829 0
M  V30 14008 C 1342.62 2.08089 -2.1707 0
M  V30 14009 C 1344.17 2.21298 -2.21351 0
M  V30 14010 C 1344.64 3.06544 -3.40287 0
M  V30 14011 N 1346.14 3.14131 -3.40405 0
M  V30 14012 C 1346.87 3.80362 -4.29083 0
M  V30 14013 N 1346.37 4.48577 -5.27968 0
M  V30 14014 N 1348.16 3.77053 -4.16878 0
M  V30 14015 H 1340.31 0.513704 -2.06094 0
M  V30 14016 H 1342.57 0.289447 -0.902732 0
M  V30 14017 H 1342.28 1.62183 -3.12073 0
M  V30 14018 H 1342.15 3.08843 -2.16554 0
M  V30 14019 H 1344.54 2.66422 -1.269 0
M  V30 14020 H 1344.62 1.19997 -2.25908 0
M  V30 14021 H 1344.27 2.62122 -4.35034 0
M  V30 14022 H 1344.2 4.0797 -3.32969 0
M  V30 14023 H 1346.69 2.65576 -2.68846 0
M  V30 14024 H 1347 4.96833 -5.91926 0
M  V30 14025 H 1345.34 4.47348 -5.31888 0
M  V30 14026 H 1348.54 3.22918 -3.38883 0
M  V30 14027 H 1348.71 4.2839 -4.86195 0
M  V30 14028 N 1342.11 1.02678 1.19562 0
M  V30 14029 C 1343.36 0.723086 1.89471 0
M  V30 14030 C 1343.69 -0.746269 1.79289 0
M  V30 14031 O 1342.97 -1.54322 1.18384 0
M  V30 14032 C 1343.25 1.17224 3.40486 0
M  V30 14033 C 1343.1 2.70266 3.5955 0
M  V30 14034 C 1344.42 0.751397 4.33638 0
M  V30 14035 H 1341.54 0.264155 0.688034 0
M  V30 14036 H 1344.18 1.27633 1.40747 0
M  V30 14037 H 1342.33 0.701544 3.82113 0
M  V30 14038 H 1344.01 3.25266 3.27108 0
M  V30 14039 H 1342.25 3.10758 3.02675 0
M  V30 14040 H 1342.92 2.96748 4.65451 0
M  V30 14041 H 1345.4 1.15621 3.99714 0
M  V30 14042 H 1344.27 1.09358 5.37896 0
M  V30 14043 H 1344.53 -0.346367 4.40741 0
M  V30 14044 N 1343.59 -1.35528 0.804364 0
M  V30 14045 C 1345 -1.81321 0.444933 0
M  V30 14046 C 1345.35 -1.66816 -1.03281 0
M  V30 14047 O 1344.48 -1.19753 -1.80245 0
M  V30 14048 C 1345.07 -3.29199 0.800827 0
M  V30 14049 C 1343.63 -3.73144 0.494026 0
M  V30 14050 C 1342.78 -2.57557 1.02761 0
M  V30 14051 H 1345.73 -1.23537 0.996203 0
M  V30 14052 H 1345.75 -3.80375 0.0975117 0
M  V30 14053 H 1345.26 -3.39725 1.8764 0
M  V30 14054 H 1343.37 -3.68169 -0.572901 0
M  V30 14055 H 1343.48 -4.68005 1.0251 0
M  V30 14056 H 1341.84 -2.50692 0.450048 0
M  V30 14057 H 1342.63 -2.70861 2.10925 0
M  V30 14058 N 1345.07 -0.557671 -1.47404 0
M  V30 14059 C 1346.3 -0.0386038 -2.06564 0
M  V30 14060 C 1346.71 1.26075 -1.41074 0
M  V30 14061 O 1346.05 1.76723 -0.501453 0
M  V30 14062 C 1346.11 0.22746 -3.5878 0
M  V30 14063 C 1345.78 -0.982526 -4.46313 0
M  V30 14064 C 1346.78 -1.88821 -4.84399 0
M  V30 14065 C 1344.46 -1.19733 -4.87821 0
M  V30 14066 C 1346.45 -2.99238 -5.62793 0
M  V30 14067 C 1344.14 -2.30459 -5.65979 0
M  V30 14068 C 1345.14 -3.20042 -6.03375 0
M  V30 14069 O 1344.83 -4.28849 -6.79959 0
M  V30 14070 H 1344.56 -0.0430229 -0.67463 0
M  V30 14071 H 1347.11 -0.770801 -1.90389 0
M  V30 14072 H 1345.34 1.01397 -3.73169 0
M  V30 14073 H 1347.03 0.691966 -3.99958 0
M  V30 14074 H 1347.8 -1.73431 -4.52931 0
M  V30 14075 H 1343.68 -0.509223 -4.58179 0
M  V30 14076 H 1347.22 -3.69187 -5.91901 0
M  V30 14077 H 1343.12 -2.45821 -5.9686 0
M  V30 14078 H 1343.89 -4.26903 -6.98353 0
M  V30 14079 N 1346.55 1.54831 -0.294147 0
M  V30 14080 C 1347.8 2.00001 0.317135 0
M  V30 14081 C 1348.12 1.18256 1.54421 0
M  V30 14082 O 1347.38 0.245035 1.9416 0
M  V30 14083 C 1347.68 3.4997 0.72495 0
M  V30 14084 C 1347.34 4.49126 -0.399616 0
M  V30 14085 C 1346.01 4.75958 -0.708354 0
M  V30 14086 C 1348.36 5.08208 -1.15644 0
M  V30 14087 C 1345.69 5.59137 -1.77716 0
M  V30 14088 C 1348.04 5.9255 -2.21512 0
M  V30 14089 C 1346.7 6.17695 -2.52999 0
M  V30 14090 H 1345.97 0.731856 0.116048 0
M  V30 14091 H 1348.62 1.87019 -0.41182 0
M  V30 14092 H 1346.92 3.60526 1.53388 0
M  V30 14093 H 1348.62 3.82341 1.20898 0
M  V30 14094 H 1345.21 4.28341 -0.148877 0
M  V30 14095 H 1349.4 4.87486 -0.931178 0
M  V30 14096 H 1344.65 5.76859 -2.02592 0
M  V30 14097 H 1348.83 6.37359 -2.80617 0
M  V30 14098 H 1346.45 6.81939 -3.35951 0
M  V30 14099 N 1348.03 0.0217466 1.57585 0
M  V30 14100 C 1349.27 -0.659463 1.91778 0
M  V30 14101 C 1349.61 -1.72201 0.897801 0
M  V30 14102 O 1348.88 -1.94333 -0.080509 0
M  V30 14103 C 1349.16 -1.28269 3.36481 0
M  V30 14104 C 1349.02 -0.230201 4.49211 0
M  V30 14105 C 1350.34 -2.20279 3.81005 0
M  V30 14106 H 1347.46 -0.238263 0.697424 0
M  V30 14107 H 1350.1 0.0774967 1.89842 0
M  V30 14108 H 1348.25 -1.9108 3.38262 0
M  V30 14109 H 1349.92 0.399901 4.59563 0
M  V30 14110 H 1348.16 0.445157 4.3151 0
M  V30 14111 H 1348.83 -0.705732 5.4747 0
M  V30 14112 H 1351.31 -1.67463 3.80914 0
M  V30 14113 H 1350.19 -2.60842 4.82962 0
M  V30 14114 H 1350.45 -3.09092 3.16093 0
M  V30 14115 N 1349.51 -1.55583 -0.251311 0
M  V30 14116 C 1350.92 -1.47908 -0.599606 0
M  V30 14117 C 1351.12 -0.711061 -1.88537 0
M  V30 14118 O 1350.18 -0.238639 -2.5137 0
M  V30 14119 C 1351.49 -2.92284 -0.706429 0
M  V30 14120 C 1353.04 -3.02629 -0.799049 0
M  V30 14121 C 1353.51 -4.48303 -0.93747 0
M  V30 14122 N 1355 -4.52222 -1.00245 0
M  V30 14123 C 1355.74 -5.62181 -1.12874 0
M  V30 14124 N 1355.24 -6.81958 -1.22085 0
M  V30 14125 N 1357.03 -5.49968 -1.16155 0
M  V30 14126 H 1349.18 -2.0396 0.592806 0
M  V30 14127 H 1351.44 -0.925797 0.203971 0
M  V30 14128 H 1351.15 -3.51297 0.168243 0
M  V30 14129 H 1351.02 -3.42524 -1.57979 0
M  V30 14130 H 1353.41 -2.43699 -1.66418 0
M  V30 14131 H 1353.49 -2.55607 0.099367 0
M  V30 14132 H 1353.13 -5.07842 -0.0769166 0
M  V30 14133 H 1353.06 -4.93002 -1.85086 0
M  V30 14134 H 1355.56 -3.65951 -0.94279 0
M  V30 14135 H 1355.87 -7.6151 -1.31616 0
M  V30 14136 H 1354.21 -6.84728 -1.1905 0
M  V30 14137 H 1357.4 -4.55327 -1.08604 0
M  V30 14138 H 1357.58 -6.35701 -1.25653 0
M  V30 14139 N 1350.98 0.516783 -1.48886 0
M  V30 14140 C 1351.95 1.60226 -1.63891 0
M  V30 14141 C 1352.95 1.52448 -0.511479 0
M  V30 14142 O 1354.14 1.55882 -0.777582 0
M  V30 14143 C 1351.27 2.99867 -1.62151 0
M  V30 14144 H 1352.46 1.48256 -2.60692 0
M  V30 14145 H 1350.01 0.739844 -1.37681 0
M  V30 14146 H 1350.75 3.1733 -0.668764 0
M  V30 14147 H 1350.53 3.0692 -2.44013 0
M  V30 14148 H 1352.02 3.7876 -1.7587 0
M  V30 14149 N 1352.46 1.37696 0.766659 0
M  V30 14150 C 1353.39 1.2975 1.88938 0
M  V30 14151 C 1354.41 0.212278 1.6141 0
M  V30 14152 O 1355.6 0.468825 1.72233 0
M  V30 14153 C 1352.7 0.984553 3.24283 0
M  V30 14154 C 1351.87 2.17625 3.79418 0
M  V30 14155 C 1350.93 1.83279 4.9325 0
M  V30 14156 O 1349.95 2.55631 5.08568 0
M  V30 14157 N 1351.16 0.779941 5.75237 0
M  V30 14158 H 1353.92 2.26492 1.96269 0
M  V30 14159 H 1351.48 1.31387 0.946001 0
M  V30 14160 H 1353.47 0.735536 3.9796 0
M  V30 14161 H 1352.04 0.105527 3.12422 0
M  V30 14162 H 1351.26 2.58672 2.9746 0
M  V30 14163 H 1352.55 2.97187 4.12986 0
M  V30 14164 H 1351.95 0.179661 5.65415 0
M  V30 14165 H 1350.51 0.59079 6.49117 0
M  V30 14166 N 1353.94 -0.993397 1.22349 0
M  V30 14167 C 1355.19 -1.72945 1.04568 0
M  V30 14168 C 1355.51 -1.90419 -0.420178 0
M  V30 14169 O 1354.78 -1.46348 -1.30227 0
M  V30 14170 H 1353.36 -0.640777 0.383945 0
M  V30 14171 H 1356.02 -1.19647 1.53853 0
M  V30 14172 H 1355.12 -2.72411 1.52311 0
M  V30 14173 N 1355.42 -1.03311 -1.19015 0
M  V30 14174 C 1356.35 -0.638279 -2.24607 0
M  V30 14175 C 1357.33 0.354795 -1.66359 0
M  V30 14176 O 1358.51 0.236574 -1.92754 0
M  V30 14177 C 1355.64 0.00737316 -3.47299 0
M  V30 14178 C 1354.6 -0.908431 -4.18248 0
M  V30 14179 C 1353.92 -0.127658 -5.34548 0
M  V30 14180 C 1355.22 -2.2241 -4.72579 0
M  V30 14181 H 1356.92 -1.52099 -2.57888 0
M  V30 14182 H 1354.46 -0.732779 -1.23961 0
M  V30 14183 H 1356.42 0.295256 -4.20364 0
M  V30 14184 H 1355.14 0.924912 -3.1323 0
M  V30 14185 H 1353.8 -1.18058 -3.47071 0
M  V30 14186 H 1353.45 0.792048 -4.96725 0
M  V30 14187 H 1353.15 -0.737702 -5.82951 0
M  V30 14188 H 1354.67 0.153385 -6.10407 0
M  V30 14189 H 1356.09 -1.99745 -5.37378 0
M  V30 14190 H 1354.48 -2.78644 -5.31486 0
M  V30 14191 H 1355.55 -2.87584 -3.90415 0
M  V30 14192 N 1356.9 1.35099 -0.81154 0
M  V30 14193 C 1358.14 1.9788 -0.390695 0
M  V30 14194 C 1358.46 1.6509 1.04903 0
M  V30 14195 O 1359.66 2.21273 1.57324 0
M  V30 14196 C 1358.12 3.54025 -0.647632 0
M  V30 14197 C 1357.73 3.9572 -2.10023 0
M  V30 14198 C 1359.47 4.23492 -0.29239 0
M  V30 14199 C 1357.38 5.44731 -2.30266 0
M  V30 14200 H 1356.31 0.740441 -0.14235 0
M  V30 14201 H 1358.96 1.54098 -0.996294 0
M  V30 14202 H 1357.34 3.9599 0.0279838 0
M  V30 14203 H 1358.52 3.64893 -2.81407 0
M  V30 14204 H 1356.83 3.39157 -2.41581 0
M  V30 14205 H 1359.43 5.33035 -0.421618 0
M  V30 14206 H 1359.77 4.09268 0.76195 0
M  V30 14207 H 1360.3 3.86965 -0.922122 0
M  V30 14208 H 1357.04 5.63928 -3.34163 0
M  V30 14209 H 1356.56 5.7711 -1.63413 0
M  V30 14210 H 1358.24 6.1126 -2.12062 0
M  V30 14211 N 1358.37 0.56548 1.47106 0
M  V30 14212 C 1359.79 0.225855 1.57994 0
M  V30 14213 C 1359.99 -1.27173 1.56299 0
M  V30 14214 O 1359.05 -2.05242 1.47078 0
M  V30 14215 C 1360.36 0.859829 2.88145 0
M  V30 14216 C 1361.91 0.831821 3.01744 0
M  V30 14217 C 1362.38 1.44502 4.34607 0
M  V30 14218 N 1363.87 1.40857 4.41263 0
M  V30 14219 C 1364.61 1.85258 5.42648 0
M  V30 14220 N 1364.1 2.37553 6.508 0
M  V30 14221 N 1365.9 1.76279 5.33744 0
M  V30 14222 H 1358.05 1.53837 1.46451 0
M  V30 14223 H 1360.31 0.642013 0.697512 0
M  V30 14224 H 1360.02 1.91264 2.95146 0
M  V30 14225 H 1359.89 0.357762 3.755 0
M  V30 14226 H 1362.28 -0.212319 2.94335 0
M  V30 14227 H 1362.36 1.37173 2.1591 0
M  V30 14228 H 1362 2.48827 4.42773 0
M  V30 14229 H 1361.93 0.880479 5.19187 0
M  V30 14230 H 1364.42 1.02614 3.63702 0
M  V30 14231 H 1364.74 2.69335 7.24347 0
M  V30 14232 H 1363.08 2.41569 6.51667 0
M  V30 14233 H 1366.27 1.35195 4.48152 0
M  V30 14234 H 1366.45 2.11199 6.12616 0
M  V30 14235 N 1359.85 -1.54672 0.302354 0
M  V30 14236 C 1360.82 -2.22246 -0.560283 0
M  V30 14237 C 1361.82 -1.20895 -1.06023 0
M  V30 14238 O 1363.01 -1.45621 -0.956047 0
M  V30 14239 C 1360.14 -2.9099 -1.77589 0
M  V30 14240 H 1361.33 -2.99885 0.0301274 0
M  V30 14241 H 1358.88 -1.56209 0.0532036 0
M  V30 14242 H 1359.62 -2.17433 -2.4061 0
M  V30 14243 H 1359.4 -3.65288 -1.42503 0
M  V30 14244 H 1360.89 -3.42535 -2.38871 0
M  V30 14245 N 1361.33 -0.0301034 -1.57571 0
M  V30 14246 C 1362.57 0.652469 -1.93706 0
M  V30 14247 C 1362.93 1.69236 -0.906817 0
M  V30 14248 O 1364.14 2.42749 -1.1544 0
M  V30 14249 C 1362.41 1.25199 -3.34753 0
M  V30 14250 S 1363.97 1.9555 -3.92817 0
M  V30 14251 H 1360.78 0.214795 -0.677779 0
M  V30 14252 H 1363.39 -0.0940038 -1.95274 0
M  V30 14253 H 1362.09 0.482732 -4.07551 0
M  V30 14254 H 1361.62 2.03575 -3.36632 0
M  V30 14255 H 1363.64 3.23401 -3.76332 0
M  V30 14256 N 1362.81 1.55714 0.243056 0
M  V30 14257 C 1363.74 1.85615 1.32748 0
M  V30 14258 C 1364.72 0.711577 1.46203 0
M  V30 14259 O 1365.9 0.957732 1.62357 0
M  V30 14260 C 1363.03 2.04425 2.70052 0
M  V30 14261 C 1362.08 3.27071 2.73727 0
M  V30 14262 S 1362.91 4.83615 2.2995 0
M  V30 14263 C 1364.07 5.05434 3.69171 0
M  V30 14264 H 1364.3 2.77305 1.07187 0
M  V30 14265 H 1361.83 1.47871 0.444234 0
M  V30 14266 H 1363.79 2.15946 3.4911 0
M  V30 14267 H 1362.45 1.1357 2.92849 0
M  V30 14268 H 1361.64 3.37211 3.74573 0
M  V30 14269 H 1361.25 3.14296 2.02716 0
M  V30 14270 H 1363.54 4.93013 4.64698 0
M  V30 14271 H 1364.48 6.07401 3.63963 0
M  V30 14272 H 1364.89 4.33262 3.61862 0
M  V30 14273 N 1364.29 -0.50888 1.49158 0
M  V30 14274 C 1365.22 -1.62008 1.68154 0
M  V30 14275 C 1366.2 -1.61624 0.53025 0
M  V30 14276 O 1367.38 -1.78489 0.765205 0
M  V30 14277 C 1364.51 -3.00525 1.74075 0
M  V30 14278 C 1363.47 -3.15773 2.88915 0
M  V30 14279 C 1362.79 -4.55562 2.79942 0
M  V30 14280 C 1364.09 -2.96542 4.29953 0
M  V30 14281 H 1365.79 -1.46365 2.61185 0
M  V30 14282 H 1363.33 -0.702705 1.2569 0
M  V30 14283 H 1365.29 -3.78154 1.8595 0
M  V30 14284 H 1364.01 -3.17238 0.776373 0
M  V30 14285 H 1362.67 -2.40567 2.76628 0
M  V30 14286 H 1362.32 -4.6914 1.81429 0
M  V30 14287 H 1362.02 -4.66706 3.57015 0
M  V30 14288 H 1363.54 -5.35262 2.93814 0
M  V30 14289 H 1364.95 -3.63947 4.42963 0
M  V30 14290 H 1363.35 -3.19164 5.08187 0
M  V30 14291 H 1364.42 -1.92745 4.44946 0
M  V30 14292 N 1365.76 -1.381 -0.759346 0
M  V30 14293 C 1367.01 -1.3419 -1.52055 0
M  V30 14294 C 1367.34 0.0697657 -1.94075 0
M  V30 14295 O 1366.62 1.02975 -1.65004 0
M  V30 14296 C 1366.9 -2.29236 -2.7771 0
M  V30 14297 C 1366.75 -3.79237 -2.41866 0
M  V30 14298 C 1368.07 -2.22511 -3.79706 0
M  V30 14299 H 1365.19 -0.488768 -0.551611 0
M  V30 14300 H 1367.83 -1.68902 -0.870174 0
M  V30 14301 H 1365.98 -1.99764 -3.33206 0
M  V30 14302 H 1367.66 -4.19358 -1.92189 0
M  V30 14303 H 1365.9 -3.97199 -1.74399 0
M  V30 14304 H 1366.57 -4.41193 -3.31742 0
M  V30 14305 H 1369.05 -2.48516 -3.33735 0
M  V30 14306 H 1367.92 -2.91134 -4.6533 0
M  V30 14307 H 1368.18 -1.22206 -4.24874 0
M  V30 14308 N 1367.24 0.986894 -1.22875 0
M  V30 14309 C 1368.66 1.25185 -0.989997 0
M  V30 14310 C 1368.86 1.99057 0.31282 0
M  V30 14311 O 1367.91 2.30361 1.03392 0
M  V30 14312 C 1369.23 2.05775 -2.19265 0
M  V30 14313 C 1370.78 2.18938 -2.23686 0
M  V30 14314 C 1371.25 3.02917 -3.43519 0
M  V30 14315 N 1372.74 3.10503 -3.43718 0
M  V30 14316 C 1373.48 3.75789 -4.33094 0
M  V30 14317 N 1372.97 4.42952 -5.32696 0
M  V30 14318 N 1374.77 3.72611 -4.20854 0
M  V30 14319 H 1366.92 0.491816 -2.06628 0
M  V30 14320 H 1369.18 0.279856 -0.905751 0
M  V30 14321 H 1368.89 1.58864 -3.13776 0
M  V30 14322 H 1368.76 3.06529 -2.19818 0
M  V30 14323 H 1371.15 2.65061 -1.29718 0
M  V30 14324 H 1371.23 1.17595 -2.27168 0
M  V30 14325 H 1370.87 2.57493 -4.3779 0
M  V30 14326 H 1370.8 4.04415 -3.37277 0
M  V30 14327 H 1373.29 2.62709 -2.71647 0
M  V30 14328 H 1373.61 4.90527 -5.97162 0
M  V30 14329 H 1371.95 4.41681 -5.36603 0
M  V30 14330 H 1375.14 3.19305 -3.42289 0
M  V30 14331 H 1375.31 4.2321 -4.90711 0
M  V30 14332 N 1368.72 1.0394 1.18466 0
M  V30 14333 C 1369.67 0.629352 2.22054 0
M  V30 14334 C 1370.64 -0.362187 1.62103 0
M  V30 14335 O 1371.82 -0.256457 1.89069 0
M  V30 14336 C 1368.96 -0.00282888 3.451 0
M  V30 14337 C 1368.08 1.03602 4.19393 0
M  V30 14338 C 1367.21 0.372492 5.29892 0
M  V30 14339 C 1366.25 1.39652 5.95956 0
M  V30 14340 N 1365.39 0.758053 6.97996 0
M  V30 14341 H 1370.23 1.51722 2.56485 0
M  V30 14342 H 1367.76 0.759043 1.26004 0
M  V30 14343 H 1369.72 -0.386688 4.15404 0
M  V30 14344 H 1368.35 -0.854224 3.11292 0
M  V30 14345 H 1367.4 1.53784 3.47929 0
M  V30 14346 H 1368.72 1.81387 4.64651 0
M  V30 14347 H 1367.87 -0.065642 6.06664 0
M  V30 14348 H 1366.61 -0.437462 4.85734 0
M  V30 14349 H 1365.61 1.84481 5.17926 0
M  V30 14350 H 1366.84 2.20816 6.42197 0
M  V30 14351 H 1364.78 -0.0316173 6.55992 0
M  V30 14352 H 1364.7 1.47363 7.41499 0
M  V30 14353 H 1365.97 0.344273 7.78739 0
M  V30 14354 N 1370.2 -1.34667 0.818693 0
M  V30 14355 C 1371.44 -1.98708 0.405359 0
M  V30 14356 C 1371.78 -1.64767 -1.02788 0
M  V30 14357 O 1371.05 -0.91714 -1.71519 0
M  V30 14358 C 1371.34 -3.55016 0.602966 0
M  V30 14359 C 1371.19 -3.98713 2.08201 0
M  V30 14360 C 1372.51 -4.40085 0.0362489 0
M  V30 14361 H 1369.63 -0.721831 0.148756 0
M  V30 14362 H 1372.27 -1.59628 1.03047 0
M  V30 14363 H 1370.42 -3.88435 0.0708453 0
M  V30 14364 H 1372.09 -3.75647 2.67745 0
M  V30 14365 H 1370.33 -3.49179 2.57403 0
M  V30 14366 H 1371 -5.0751 2.17111 0
M  V30 14367 H 1373.48 -4.13195 0.490837 0
M  V30 14368 H 1372.36 -5.4852 0.204344 0
M  V30 14369 H 1372.62 -4.29243 -1.05845 0
M  V30 14370 N 1371.68 -0.573274 -1.46804 0
M  V30 14371 C 1372.64 0.155066 -2.28675 0
M  V30 14372 C 1373.64 0.827706 -1.37861 0
M  V30 14373 O 1374.83 0.681105 -1.60333 0
M  V30 14374 C 1371.96 1.22864 -3.1799 0
M  V30 14375 H 1373.15 -0.564305 -2.94543 0
M  V30 14376 H 1370.71 -0.330855 -1.52758 0
M  V30 14377 H 1371.44 1.97989 -2.56848 0
M  V30 14378 H 1371.23 0.750936 -3.84842 0
M  V30 14379 H 1372.72 1.73974 -3.79635 0
M  V30 14380 N 1373.15 1.5451 -0.310553 0
M  V30 14381 C 1374.4 1.99931 0.29532 0
M  V30 14382 C 1374.72 1.20042 1.53672 0
M  V30 14383 O 1373.99 0.298841 1.93607 0
M  V30 14384 H 1372.57 0.738539 0.112111 0
M  V30 14385 H 1375.24 1.9023 -0.424092 0
M  V30 14386 H 1374.33 3.07021 0.560749 0
M  V30 14387 N 1374.63 0.0384594 1.57553 0
M  V30 14388 C 1375.88 -0.636879 1.91803 0
M  V30 14389 C 1376.2 -1.72128 0.916347 0
M  V30 14390 O 1375.47 -1.95858 -0.0407405 0
M  V30 14391 H 1374.05 -0.238237 0.707992 0
M  V30 14392 H 1376.71 0.0884651 1.94699 0
M  V30 14393 H 1375.81 -1.08364 2.92683 0
M  V30 14394 N 1376.11 -1.55841 -0.234795 0
M  V30 14395 C 1377.06 -1.8772 -1.29403 0
M  V30 14396 C 1378.05 -0.739087 -1.42921 0
M  V30 14397 O 1379.24 -1.00125 -1.45959 0
M  V30 14398 C 1376.37 -2.18592 -2.64712 0
M  V30 14399 C 1375.45 -3.38761 -2.55151 0
M  V30 14400 N 1375.84 -4.57723 -2.15229 0
M  V30 14401 C 1374.14 -3.42112 -2.86138 0
M  V30 14402 C 1374.84 -5.39872 -2.16595 0
M  V30 14403 N 1373.82 -4.79242 -2.5657 0
M  V30 14404 H 1377.62 -2.77219 -0.976067 0
M  V30 14405 H 1375.13 -1.5623 -0.443396 0
M  V30 14406 H 1377.13 -2.39599 -3.41171 0
M  V30 14407 H 1375.79 -1.30398 -2.97366 0
M  V30 14408 H 1376.8 -4.83126 -1.86575 0
M  V30 14409 H 1373.48 -2.64224 -3.23252 0
M  V30 14410 H 1374.87 -6.45072 -1.87967 0
M  V30 14411 N 1377.59 0.500963 -1.49426 0
M  V30 14412 C 1378.82 1.27725 -1.62388 0
M  V30 14413 C 1379.23 1.86893 -0.294544 0
M  V30 14414 O 1378.57 1.68571 0.73003 0
M  V30 14415 C 1378.63 2.44649 -2.63414 0
M  V30 14416 C 1378.3 2.0635 -4.0776 0
M  V30 14417 C 1379.29 1.60323 -4.94563 0
M  V30 14418 C 1376.98 2.15984 -4.53493 0
M  V30 14419 C 1378.97 1.24433 -6.25136 0
M  V30 14420 C 1376.66 1.79706 -5.8408 0
M  V30 14421 C 1377.66 1.34005 -6.69725 0
M  V30 14422 O 1377.35 0.982171 -7.97878 0
M  V30 14423 H 1377.08 0.393595 -0.549599 0
M  V30 14424 H 1379.63 0.607944 -1.96197 0
M  V30 14425 H 1377.86 3.14656 -2.24785 0
M  V30 14426 H 1379.55 3.06675 -2.65905 0
M  V30 14427 H 1380.32 1.52326 -4.60458 0
M  V30 14428 H 1376.2 2.50507 -3.86998 0
M  V30 14429 H 1379.74 0.886906 -6.91939 0
M  V30 14430 H 1375.64 1.87352 -6.17713 0
M  V30 14431 H 1376.4 1.11364 -8.10889 0
M  V30 14432 N 1379.07 1.38501 0.752011 0
M  V30 14433 C 1380.31 1.34995 1.51341 0
M  V30 14434 C 1380.65 -0.0594724 1.94109 0
M  V30 14435 O 1379.92 -1.02098 1.65548 0
M  V30 14436 C 1380.2 2.30705 2.76491 0
M  V30 14437 C 1380.06 3.80515 2.39851 0
M  V30 14438 C 1381.38 2.24521 3.78521 0
M  V30 14439 H 1378.5 0.491687 0.549011 0
M  V30 14440 H 1381.14 1.69361 0.861205 0
M  V30 14441 H 1379.29 2.01529 3.32142 0
M  V30 14442 H 1380.96 4.20371 1.89962 0
M  V30 14443 H 1379.2 3.98119 1.7229 0
M  V30 14444 H 1379.87 4.42946 3.29397 0
M  V30 14445 H 1382.35 2.50282 3.32413 0
M  V30 14446 H 1381.23 2.93598 4.63779 0
M  V30 14447 H 1381.49 1.24457 4.2422 0
M  V30 14448 N 1380.55 -0.980364 1.23396 0
M  V30 14449 C 1381.48 -2.07522 0.972991 0
M  V30 14450 C 1382.49 -1.62714 -0.0530191 0
M  V30 14451 O 1383.68 -1.77564 0.182513 0
M  V30 14452 C 1380.78 -3.35977 0.444126 0
M  V30 14453 C 1379.95 -4.09756 1.53031 0
M  V30 14454 C 1379.01 -5.16488 1.00631 0
M  V30 14455 O 1378.04 -5.43368 1.69529 0
M  V30 14456 N 1379.24 -5.80263 -0.165842 0
M  V30 14457 H 1382 -2.30487 1.91561 0
M  V30 14458 H 1379.57 -1.14706 1.14255 0
M  V30 14459 H 1381.56 -4.04624 0.078617 0
M  V30 14460 H 1380.13 -3.0998 -0.403912 0
M  V30 14461 H 1379.35 -3.35564 2.06858 0
M  V30 14462 H 1380.64 -4.55815 2.26076 0
M  V30 14463 H 1380.03 -5.60811 -0.742162 0
M  V30 14464 H 1378.59 -6.50084 -0.472614 0
M  V30 14465 N 1382.02 -1.04567 -1.17913 0
M  V30 14466 C 1382.96 -0.585519 -2.2056 0
M  V30 14467 C 1383.93 0.382581 -1.58035 0
M  V30 14468 O 1385.12 0.295692 -1.86166 0
M  V30 14469 C 1382.25 0.14396 -3.38394 0
M  V30 14470 C 1381.29 -0.778174 -4.19341 0
M  V30 14471 S 1382.12 -2.26385 -4.85294 0
M  V30 14472 C 1383.28 -1.54537 -6.06522 0
M  V30 14473 H 1383.51 -1.4552 -2.59251 0
M  V30 14474 H 1381.05 -0.857075 -1.28427 0
M  V30 14475 H 1383 0.558661 -4.06681 0
M  V30 14476 H 1381.67 0.989593 -2.98104 0
M  V30 14477 H 1380.86 -0.214053 -5.03545 0
M  V30 14478 H 1380.46 -1.13195 -3.56459 0
M  V30 14479 H 1382.75 -0.841199 -6.72257 0
M  V30 14480 H 1383.7 -2.36465 -6.6745 0
M  V30 14481 H 1384.1 -1.03551 -5.54921 0
M  V30 14482 N 1383.5 1.34231 -0.825823 0
M  V30 14483 C 1384.46 2.27776 -0.25512 0
M  V30 14484 C 1385.46 1.50409 0.568654 0
M  V30 14485 O 1386.65 1.69907 0.384337 0
M  V30 14486 C 1383.79 3.348 0.642013 0
M  V30 14487 H 1384.98 2.79763 -1.0804 0
M  V30 14488 H 1382.53 1.44412 -0.597904 0
M  V30 14489 H 1383.27 2.88032 1.49024 0
M  V30 14490 H 1383.05 3.92064 0.0527756 0
M  V30 14491 H 1384.54 4.0457 1.03502 0
M  V30 14492 N 1384.98 0.581051 1.46498 0
M  V30 14493 C 1386.23 0.0659956 2.02392 0
M  V30 14494 C 1386.55 -1.29329 1.45273 0
M  V30 14495 O 1385.81 -1.86047 0.607041 0
M  V30 14496 C 1386.11 -0.0514774 3.57363 0
M  V30 14497 C 1385.77 1.24 4.33514 0
M  V30 14498 C 1384.44 1.59383 4.54038 0
M  V30 14499 C 1386.79 2.09473 4.77253 0
M  V30 14500 C 1384.12 2.8004 5.15552 0
M  V30 14501 C 1386.47 3.29355 5.401 0
M  V30 14502 C 1385.13 3.65022 5.58852 0
M  V30 14503 H 1384.4 0.0241495 0.740606 0
M  V30 14504 H 1387.05 0.757354 1.75887 0
M  V30 14505 H 1385.35 -0.825955 3.82995 0
M  V30 14506 H 1387.05 -0.465726 3.98286 0
M  V30 14507 H 1383.64 0.954547 4.17835 0
M  V30 14508 H 1387.83 1.83441 4.61154 0
M  V30 14509 H 1383.08 3.07814 5.28262 0
M  V30 14510 H 1387.26 3.95855 5.7295 0
M  V30 14511 H 1384.88 4.58607 6.06287 0
M  V30 14512 N 1386.46 -1.54343 0.318742 0
M  V30 14513 C 1387.39 -2.20392 -0.591833 0
M  V30 14514 C 1388.37 -1.17931 -1.11942 0
M  V30 14515 O 1389.55 -1.4665 -1.18432 0
M  V30 14516 C 1386.68 -2.8618 -1.81159 0
M  V30 14517 C 1385.73 -4.02319 -1.41568 0
M  V30 14518 S 1386.56 -5.33551 -0.456481 0
M  V30 14519 C 1387.71 -6.02831 -1.68363 0
M  V30 14520 H 1387.95 -2.97284 -0.0307625 0
M  V30 14521 H 1385.48 -1.54057 0.102835 0
M  V30 14522 H 1387.44 -3.24707 -2.51148 0
M  V30 14523 H 1386.1 -2.091 -2.34384 0
M  V30 14524 H 1385.29 -4.47197 -2.32445 0
M  V30 14525 H 1384.89 -3.65441 -0.795535 0
M  V30 14526 H 1387.19 -6.24716 -2.62175 0
M  V30 14527 H 1388.13 -6.96488 -1.27709 0
M  V30 14528 H 1388.54 -5.32682 -1.86841 0
M  V30 14529 N 1387.94 -0.0468143 -1.5753 0
M  V30 14530 C 1388.88 0.929065 -2.11275 0
M  V30 14531 C 1389.85 1.31166 -1.01905 0
M  V30 14532 O 1391.04 1.40189 -1.29428 0
M  V30 14533 C 1388.18 2.20012 -2.65873 0
M  V30 14534 C 1387.29 1.8724 -3.89314 0
M  V30 14535 C 1386.43 3.08772 -4.32242 0
M  V30 14536 C 1385.46 2.719 -5.48395 0
M  V30 14537 N 1384.6 3.86112 -5.86397 0
M  V30 14538 H 1389.44 0.463854 -2.94368 0
M  V30 14539 H 1386.98 0.217338 -1.45486 0
M  V30 14540 H 1388.94 2.94383 -2.95626 0
M  V30 14541 H 1387.57 2.64118 -1.85584 0
M  V30 14542 H 1386.62 1.03037 -3.6618 0
M  V30 14543 H 1387.93 1.56096 -4.73746 0
M  V30 14544 H 1387.08 3.91446 -4.63525 0
M  V30 14545 H 1385.82 3.4309 -3.46613 0
M  V30 14546 H 1384.83 1.87642 -5.16789 0
M  V30 14547 H 1386.05 2.38779 -6.35737 0
M  V30 14548 H 1384 4.2024 -5.03721 0
M  V30 14549 H 1383.92 3.58652 -6.65511 0
M  V30 14550 H 1385.18 4.69438 -6.22293 0
M  V30 14551 N 1389.41 1.55964 0.226527 0
M  V30 14552 C 1390.34 1.95028 1.284 0
M  V30 14553 C 1391.33 0.817833 1.49149 0
M  V30 14554 O 1392.51 1.07975 1.61416 0
M  V30 14555 C 1389.64 2.26266 2.63478 0
M  V30 14556 C 1388.59 3.41954 2.57393 0
M  V30 14557 C 1387.92 3.58786 3.96456 0
M  V30 14558 C 1389.22 4.77069 2.12608 0
M  V30 14559 H 1390.91 2.83608 0.959513 0
M  V30 14560 H 1388.46 1.36451 0.460125 0
M  V30 14561 H 1390.41 2.52186 3.3761 0
M  V30 14562 H 1389.14 1.34533 2.97604 0
M  V30 14563 H 1387.8 3.16076 1.85719 0
M  V30 14564 H 1387.44 2.64437 4.27881 0
M  V30 14565 H 1387.14 4.36595 3.93267 0
M  V30 14566 H 1388.67 3.87048 4.72256 0
M  V30 14567 H 1390.08 5.02226 2.76481 0
M  V30 14568 H 1388.48 5.58126 2.2049 0
M  V30 14569 H 1389.55 4.7276 1.07823 0
M  V30 14570 N 1390.89 -0.493031 1.4969 0
M  V30 14571 C 1391.86 -1.57598 1.6642 0
M  V30 14572 C 1392.86 -1.51615 0.535668 0
M  V30 14573 O 1394.05 -1.54626 0.802283 0
M  V30 14574 C 1391.18 -2.97249 1.66901 0
M  V30 14575 H 1392.37 -1.4409 2.63017 0
M  V30 14576 H 1389.92 -0.717846 1.3884 0
M  V30 14577 H 1390.66 -3.16225 0.719164 0
M  V30 14578 H 1390.44 -3.02999 2.48865 0
M  V30 14579 H 1391.93 -3.75914 1.81874 0
M  V30 14580 N 1392.37 -1.38898 -0.744656 0
M  V30 14581 C 1393.33 -1.36633 -1.84022 0
M  V30 14582 C 1394.33 -0.265187 -1.58598 0
M  V30 14583 O 1395.52 -0.522569 -1.66177 0
M  V30 14584 C 1392.66 -1.12938 -3.21649 0
M  V30 14585 H 1393.85 -2.34111 -1.87435 0
M  V30 14586 H 1391.4 -1.24322 -0.947302 0
M  V30 14587 H 1392.14 -0.161027 -3.239 0
M  V30 14588 H 1391.92 -1.9267 -3.41498 0
M  V30 14589 H 1393.41 -1.14071 -4.01718 0
M  V30 14590 N 1393.85 0.973806 -1.23914 0
M  V30 14591 C 1394.78 2.08526 -1.05068 0
M  V30 14592 C 1395.76 1.70065 0.0344761 0
M  V30 14593 O 1396.94 1.93755 -0.131432 0
M  V30 14594 C 1394.07 3.41198 -0.648165 0
M  V30 14595 C 1393.03 3.9359 -1.6814 0
M  V30 14596 C 1392.35 5.22534 -1.13414 0
M  V30 14597 C 1393.65 4.22116 -3.07597 0
M  V30 14598 H 1395.35 2.24551 -1.98034 0
M  V30 14599 H 1392.89 1.07905 -0.953546 0
M  V30 14600 H 1394.85 4.18383 -0.50334 0
M  V30 14601 H 1393.57 3.25056 0.317182 0
M  V30 14602 H 1392.23 3.18555 -1.81434 0
M  V30 14603 H 1391.88 5.02747 -0.159578 0
M  V30 14604 H 1391.58 5.58555 -1.82456 0
M  V30 14605 H 1393.1 6.02334 -1.0013 0
M  V30 14606 H 1394.52 4.90027 -2.97567 0
M  V30 14607 H 1392.91 4.69352 -3.73937 0
M  V30 14608 H 1393.98 3.29128 -3.56094 0
M  V30 14609 N 1395.33 1.05191 1.17357 0
M  V30 14610 C 1396.55 0.782373 1.91537 0
M  V30 14611 C 1396.97 -0.661935 1.76816 0
M  V30 14612 O 1396.33 -1.45221 1.10531 0
M  V30 14613 C 1396.38 1.15357 3.426 0
M  V30 14614 O 1396.1 2.54119 3.56869 0
M  V30 14615 C 1397.6 0.910167 4.33856 0
M  V30 14616 H 1394.82 0.284461 0.607719 0
M  V30 14617 H 1397.36 1.40259 1.48821 0
M  V30 14618 H 1395.52 0.578107 3.83062 0
M  V30 14619 H 1395.93 2.68668 4.50464 0
M  V30 14620 H 1397.41 1.21964 5.38358 0
M  V30 14621 H 1397.88 -0.154624 4.38928 0
M  V30 14622 H 1398.49 1.46947 3.99107 0
M  V30 14623 N 1396.8 -1.33791 0.83293 0
M  V30 14624 C 1398.05 -1.97582 0.42494 0
M  V30 14625 C 1398.37 -1.66328 -1.01784 0
M  V30 14626 O 1397.64 -0.959141 -1.70814 0
M  V30 14627 H 1396.22 -0.730923 0.154143 0
M  V30 14628 H 1398.89 -1.63257 1.06458 0
M  V30 14629 H 1397.98 -3.07177 0.552127 0
M  V30 14630 N 1398.28 -0.588812 -1.46187 0
M  V30 14631 C 1399.51 -0.0825301 -2.06735 0
M  V30 14632 C 1399.93 1.22507 -1.43658 0
M  V30 14633 O 1399.28 1.74203 -0.544022 0
M  V30 14634 C 1399.33 0.083501 -3.61404 0
M  V30 14635 O 1399.05 -1.17235 -4.22123 0
M  V30 14636 C 1400.56 0.623425 -4.38894 0
M  V30 14637 H 1397.78 -0.0602413 -0.66829 0
M  V30 14638 H 1400.32 -0.811215 -1.87722 0
M  V30 14639 H 1398.47 0.762432 -3.79823 0
M  V30 14640 H 1398.89 -0.990047 -5.15071 0
M  V30 14641 H 1400.36 0.688755 -5.47686 0
M  V30 14642 H 1400.84 1.64172 -4.07362 0
M  V30 14643 H 1401.45 -0.0208373 -4.25295 0
M  V30 14644 N 1399.76 1.54172 -0.326923 0
M  V30 14645 C 1400.99 2.04747 0.276107 0
M  V30 14646 C 1401.4 1.20251 1.4607 0
M  V30 14647 O 1400.74 0.226753 1.82295 0
M  V30 14648 C 1400.8 3.51143 0.770651 0
M  V30 14649 C 1400.47 4.56066 -0.292079 0
M  V30 14650 C 1401.46 5.07487 -1.12928 0
M  V30 14651 C 1399.15 5.00358 -0.441232 0
M  V30 14652 C 1401.14 6.01767 -2.10133 0
M  V30 14653 C 1398.83 5.94452 -1.4167 0
M  V30 14654 C 1399.83 6.45042 -2.24521 0
M  V30 14655 O 1399.52 7.37288 -3.20409 0
M  V30 14656 H 1399.25 0.673322 0.0601144 0
M  V30 14657 H 1401.8 1.99899 -0.472176 0
M  V30 14658 H 1400.03 3.53399 1.5699 0
M  V30 14659 H 1401.72 3.84775 1.2924 0
M  V30 14660 H 1402.49 4.74044 -1.02505 0
M  V30 14661 H 1398.37 4.60593 0.193767 0
M  V30 14662 H 1401.91 6.41178 -2.74839 0
M  V30 14663 H 1397.81 6.27311 -1.52155 0
M  V30 14664 H 1398.58 7.55171 -3.15687 0
M  V30 14665 N 1401.24 0.0551678 1.57503 0
M  V30 14666 C 1402.48 -0.618636 1.93134 0
M  V30 14667 C 1402.82 -1.70258 0.934125 0
M  V30 14668 O 1402.09 -1.9446 -0.0392699 0
M  V30 14669 C 1402.38 -1.21103 3.39126 0
M  V30 14670 C 1402.23 -0.134865 4.49598 0
M  V30 14671 C 1403.55 -2.12148 3.85592 0
M  V30 14672 H 1400.67 -0.223416 0.702321 0
M  V30 14673 H 1403.31 0.117748 1.89635 0
M  V30 14674 H 1401.46 -1.83862 3.42238 0
M  V30 14675 H 1403.13 0.497292 4.58612 0
M  V30 14676 H 1401.37 0.536587 4.30469 0
M  V30 14677 H 1402.04 -0.589447 5.48844 0
M  V30 14678 H 1404.52 -1.59346 3.8438 0
M  V30 14679 H 1403.4 -2.50539 4.88387 0
M  V30 14680 H 1403.66 -3.02318 3.22578 0
M  V30 14681 N 1402.72 -1.56081 -0.218252 0
M  V30 14682 C 1403.95 -1.83069 -0.957574 0
M  V30 14683 C 1404.35 -0.6325 -1.78315 0
M  V30 14684 O 1403.7 0.408298 -1.79105 0
M  V30 14685 C 1403.76 -3.03835 -1.92157 0
M  V30 14686 C 1403.42 -4.38702 -1.2802 0
M  V30 14687 C 1404.42 -5.15585 -0.66846 0
M  V30 14688 C 1402.11 -4.85427 -1.29098 0
M  V30 14689 C 1404.1 -6.37355 -0.0760499 0
M  V30 14690 C 1401.79 -6.07138 -0.69473 0
M  V30 14691 C 1402.78 -6.82943 -0.0883201 0
M  V30 14692 O 1402.47 -8.02352 0.498648 0
M  V30 14693 H 1402.2 -0.612493 -0.286057 0
M  V30 14694 H 1404.76 -2.04021 -0.23759 0
M  V30 14695 H 1402.99 -2.78709 -2.68064 0
M  V30 14696 H 1404.68 -3.17666 -2.52672 0
M  V30 14697 H 1405.44 -4.80592 -0.652434 0
M  V30 14698 H 1401.32 -4.26395 -1.75238 0
M  V30 14699 H 1404.87 -6.96464 0.397893 0
M  V30 14700 H 1400.76 -6.41604 -0.70818 0
M  V30 14701 H 1401.53 -8.17555 0.393289 0
M  V30 14702 N 1404.2 0.485086 -1.49949 0
M  V30 14703 C 1405.47 1.24639 -1.50747 0
M  V30 14704 C 1405.85 2.09683 -0.244162 0
M  V30 14705 O 1405.2 2.1503 0.772949 0
M  V30 14706 C 1405.41 2.08946 -2.7954 0
M  V30 14707 C 1406.76 2.67604 -3.29656 0
M  V30 14708 O 1407.78 2.192 -2.80766 0
M  V30 14709 O 1406.64 3.55761 -4.14845 0
M  V30 14710 H 1403.74 0.564849 -0.604049 0
M  V30 14711 H 1406.28 0.498052 -1.62227 0
M  V30 14712 H 1405.05 1.46185 -3.62968 0
M  V30 14713 H 1404.68 2.90941 -2.70997 0
M  V30 14714 N 1405.67 1.39291 0.737279 0
M  V30 14715 C 1406.62 1.34321 1.84233 0
M  V30 14716 C 1407.61 0.224489 1.59326 0
M  V30 14717 O 1408.8 0.461832 1.70869 0
M  V30 14718 C 1405.93 1.18676 3.22135 0
M  V30 14719 C 1405.01 2.35239 3.52878 0
M  V30 14720 N 1405.41 3.6071 3.54573 0
M  V30 14721 C 1403.7 2.28147 3.83229 0
M  V30 14722 C 1404.4 4.37778 3.83047 0
M  V30 14723 N 1403.38 3.67336 4.00706 0
M  V30 14724 H 1407.18 2.29299 1.83845 0
M  V30 14725 H 1404.7 1.32755 0.935413 0
M  V30 14726 H 1406.69 1.13199 4.01238 0
M  V30 14727 H 1405.35 0.246461 3.23763 0
M  V30 14728 H 1406.36 3.94164 3.3594 0
M  V30 14729 H 1403.04 1.42366 3.92477 0
M  V30 14730 H 1404.43 5.46525 3.90845 0
M  V30 14731 N 1407.15 -0.967221 1.24429 0
M  V30 14732 C 1408.08 -2.07966 1.06172 0
M  V30 14733 C 1409.06 -1.70081 -0.0254566 0
M  V30 14734 O 1410.25 -1.93682 0.141705 0
M  V30 14735 C 1407.38 -3.4085 0.666251 0
M  V30 14736 C 1406.33 -3.92692 1.70225 0
M  V30 14737 C 1405.66 -5.21925 1.16183 0
M  V30 14738 C 1406.96 -4.20478 3.09831 0
M  V30 14739 H 1408.65 -2.23497 1.99222 0
M  V30 14740 H 1406.2 -1.07398 0.959255 0
M  V30 14741 H 1408.15 -4.1811 0.52552 0
M  V30 14742 H 1406.87 -3.2522 -0.299939 0
M  V30 14743 H 1405.53 -3.17588 1.83121 0
M  V30 14744 H 1405.18 -5.02655 0.186237 0
M  V30 14745 H 1404.88 -5.57579 1.85416 0
M  V30 14746 H 1406.41 -6.01795 1.03323 0
M  V30 14747 H 1407.82 -4.88442 3.00162 0
M  V30 14748 H 1406.22 -4.67362 3.7642 0
M  V30 14749 H 1407.29 -3.27235 3.57834 0
M  V30 14750 N 1408.63 -1.05812 -1.16797 0
M  V30 14751 C 1409.86 -0.792519 -1.9112 0
M  V30 14752 C 1410.27 0.652549 -1.77164 0
M  V30 14753 O 1409.63 1.44633 -1.113 0
M  V30 14754 C 1409.68 -1.17172 -3.41984 0
M  V30 14755 O 1409.4 -2.56008 -3.55516 0
M  V30 14756 C 1410.9 -0.933162 -4.33367 0
M  V30 14757 H 1408.12 -0.28768 -0.606202 0
M  V30 14758 H 1410.67 -1.41046 -1.48075 0
M  V30 14759 H 1408.82 -0.598413 -3.8275 0
M  V30 14760 H 1409.24 -2.71053 -4.49033 0
M  V30 14761 H 1410.71 -1.24817 -5.37703 0
M  V30 14762 H 1411.19 0.131345 -4.39004 0
M  V30 14763 H 1411.79 -1.49062 -3.98322 0
M  V30 14764 N 1410.11 1.33347 -0.840014 0
M  V30 14765 C 1411.52 1.80077 -0.492851 0
M  V30 14766 C 1411.87 1.69495 0.988221 0
M  V30 14767 O 1410.99 1.2449 1.77006 0
M  V30 14768 C 1411.59 3.2696 -0.887827 0
M  V30 14769 C 1410.15 3.71703 -0.592785 0
M  V30 14770 C 1409.3 2.54742 -1.09554 0
M  V30 14771 H 1412.25 1.20853 -1.02861 0
M  V30 14772 H 1412.27 3.79983 -0.198327 0
M  V30 14773 H 1411.78 3.3463 -1.96581 0
M  V30 14774 H 1409.88 3.69559 0.475086 0
M  V30 14775 H 1409.99 4.65123 -1.14882 0
M  V30 14776 H 1408.36 2.49411 -0.516357 0
M  V30 14777 H 1409.14 2.65173 -2.18032 0
M  V30 14778 N 1411.59 0.596556 1.45873 0
M  V30 14779 C 1412.52 -0.116229 2.33211 0
M  V30 14780 C 1413.5 -0.869868 1.46176 0
M  V30 14781 O 1414.68 -0.842599 1.74968 0
M  V30 14782 C 1411.81 -1.12145 3.28696 0
M  V30 14783 C 1410.77 -0.481749 4.2528 0
M  V30 14784 C 1410.09 -1.59443 5.10374 0
M  V30 14785 C 1411.39 0.589996 5.18957 0
M  V30 14786 H 1413.09 0.613005 2.93057 0
M  V30 14787 H 1410.63 0.296242 1.4092 0
M  V30 14788 H 1412.58 -1.62857 3.88659 0
M  V30 14789 H 1411.31 -1.88114 2.66985 0
M  V30 14790 H 1409.97 0.0044092 3.666 0
M  V30 14791 H 1409.62 -2.34413 4.45039 0
M  V30 14792 H 1409.32 -1.17197 5.75794 0
M  V30 14793 H 1410.84 -2.10404 5.73204 0
M  V30 14794 H 1412.25 0.167395 5.73056 0
M  V30 14795 H 1410.65 0.933565 5.92794 0
M  V30 14796 H 1411.72 1.47093 4.62052 0
M  V30 14797 N 1413.06 -1.53996 0.335095 0
M  V30 14798 C 1414.48 -1.59591 -0.0171422 0
M  V30 14799 C 1414.68 -1.35132 -1.49471 0
M  V30 14800 O 1413.74 -1.14141 -2.25229 0
M  V30 14801 C 1415.05 -2.97872 0.411443 0
M  V30 14802 C 1416.6 -3.10887 0.363072 0
M  V30 14803 C 1417.07 -4.51532 0.766995 0
M  V30 14804 N 1418.56 -4.57557 0.72085 0
M  V30 14805 C 1419.3 -5.64516 1.00544 0
M  V30 14806 N 1418.79 -6.79365 1.35777 0
M  V30 14807 N 1420.59 -5.54349 0.930243 0
M  V30 14808 H 1412.74 -1.68151 1.29766 0
M  V30 14809 H 1415 -0.787067 0.528422 0
M  V30 14810 H 1414.71 -3.20809 1.44134 0
M  V30 14811 H 1414.58 -3.76571 -0.217678 0
M  V30 14812 H 1416.97 -2.87679 -0.657642 0
M  V30 14813 H 1417.05 -2.34266 1.02728 0
M  V30 14814 H 1416.69 -4.75474 1.78568 0
M  V30 14815 H 1416.62 -5.26539 0.0803511 0
M  V30 14816 H 1419.11 -3.75079 0.460867 0
M  V30 14817 H 1419.43 -7.56891 1.55999 0
M  V30 14818 H 1417.77 -6.80833 1.39614 0
M  V30 14819 H 1420.96 -4.63503 0.654402 0
M  V30 14820 H 1421.14 -6.37616 1.15539 0
M  V30 14821 N 1414.54 -0.0635198 -1.57472 0
M  V30 14822 C 1415.82 0.648029 -1.84553 0
M  V30 14823 C 1416.2 1.88295 -0.954371 0
M  V30 14824 O 1415.55 2.28492 -0.0185351 0
M  V30 14825 C 1415.76 0.993573 -3.34558 0
M  V30 14826 C 1417.1 1.3706 -4.0187 0
M  V30 14827 O 1418.13 1.08555 -3.39255 0
M  V30 14828 O 1416.99 1.90309 -5.12294 0
M  V30 14829 H 1414.08 0.321047 -0.76214 0
M  V30 14830 H 1416.63 -0.0938223 -1.6944 0
M  V30 14831 H 1415.4 0.116139 -3.91128 0
M  V30 14832 H 1415.02 1.79246 -3.54904 0
M  V30 14833 N 1416.02 1.56195 0.209972 0
M  V30 14834 C 1417.27 1.80917 0.929554 0
M  V30 14835 C 1417.62 0.638305 1.81503 0
M  V30 14836 O 1416.91 -0.367181 1.88049 0
M  V30 14837 C 1417.11 3.09154 1.79328 0
M  V30 14838 C 1416.94 4.38602 0.99291 0
M  V30 14839 C 1415.71 5.0066 0.683231 0
M  V30 14840 C 1417.9 5.13089 0.352678 0
M  V30 14841 N 1415.89 6.13746 -0.137328 0
M  V30 14842 C 1417.26 6.19117 -0.330748 0
M  V30 14843 C 1419.31 4.97184 0.266887 0
M  V30 14844 C 1418.02 7.10966 -1.09177 0
M  V30 14845 C 1420.04 5.89443 -0.480701 0
M  V30 14846 C 1419.4 6.94906 -1.15263 0
M  V30 14847 H 1415.5 0.713515 0.320031 0
M  V30 14848 H 1418.09 1.93676 0.199467 0
M  V30 14849 H 1416.26 2.97657 2.49509 0
M  V30 14850 H 1417.99 3.22021 2.45121 0
M  V30 14851 H 1414.74 4.62834 1.00407 0
M  V30 14852 H 1415.17 6.74869 -0.536782 0
M  V30 14853 H 1419.81 4.15692 0.772025 0
M  V30 14854 H 1417.53 7.91932 -1.60839 0
M  V30 14855 H 1421.11 5.79211 -0.54824 0
M  V30 14856 H 1419.99 7.65063 -1.72185 0
M  V30 14857 N 1417.5 -0.477127 1.50204 0
M  V30 14858 C 1418.46 -1.55824 1.68082 0
M  V30 14859 C 1419.46 -1.51039 0.551719 0
M  V30 14860 O 1420.65 -1.53766 0.818638 0
M  V30 14861 C 1417.78 -2.95462 1.70044 0
M  V30 14862 H 1418.98 -1.41292 2.64531 0
M  V30 14863 H 1416.53 -0.70308 1.39594 0
M  V30 14864 H 1417.26 -3.15445 0.752663 0
M  V30 14865 H 1417.05 -3.00343 2.52065 0
M  V30 14866 H 1418.54 -3.73964 1.85851 0
M  V30 14867 N 1418.98 -1.3968 -0.729882 0
M  V30 14868 C 1419.93 -1.35296 -1.83518 0
M  V30 14869 C 1420.91 -0.232935 -1.59205 0
M  V30 14870 O 1422.1 -0.470887 -1.70621 0
M  V30 14871 C 1419.23 -1.20383 -3.21501 0
M  V30 14872 C 1418.32 -2.37108 -3.51626 0
M  V30 14873 N 1418.71 -3.62585 -3.52655 0
M  V30 14874 C 1417.01 -2.30177 -3.82014 0
M  V30 14875 C 1417.71 -4.39803 -3.8072 0
M  V30 14876 N 1416.68 -3.69456 -3.98752 0
M  V30 14877 H 1420.49 -2.30271 -1.82627 0
M  V30 14878 H 1418 -1.33249 -0.92836 0
M  V30 14879 H 1420 -1.15325 -4.00632 0
M  V30 14880 H 1418.66 -0.263628 -3.23628 0
M  V30 14881 H 1419.67 -3.9594 -3.33845 0
M  V30 14882 H 1416.34 -1.44446 -3.91716 0
M  V30 14883 H 1417.73 -5.4859 -3.87941 0
M  V30 14884 N 1420.45 0.960609 -1.2494 0
M  V30 14885 C 1421.42 2.03791 -1.04891 0
M  V30 14886 C 1422.42 1.608 -0.00375792 0
M  V30 14887 O 1423.61 1.72463 -0.24539 0
M  V30 14888 C 1420.74 3.35733 -0.591309 0
M  V30 14889 H 1421.93 2.2301 -2.00516 0
M  V30 14890 H 1419.49 1.13686 -1.07263 0
M  V30 14891 H 1420.22 3.22207 0.367816 0
M  V30 14892 H 1420.01 3.68283 -1.34574 0
M  V30 14893 H 1421.5 4.14921 -0.472283 0
M  V30 14894 N 1421.93 1.0643 1.16234 0
M  V30 14895 C 1423.18 0.780296 1.86429 0
M  V30 14896 C 1423.5 -0.695335 1.82181 0
M  V30 14897 O 1422.77 -1.50312 1.2563 0
M  V30 14898 H 1421.35 0.285654 0.690225 0
M  V30 14899 H 1424.01 1.34609 1.40949 0
M  V30 14900 H 1423.11 1.10644 2.91829 0
M  V30 14901 N 1423.41 -1.329 0.847073 0
M  V30 14902 C 1424.34 -2.31546 0.301422 0
M  V30 14903 C 1425.32 -1.59342 -0.595317 0
M  V30 14904 O 1426.51 -1.87188 -0.517151 0
M  V30 14905 C 1423.64 -3.43423 -0.517454 0
M  V30 14906 C 1422.59 -4.27055 0.284195 0
M  V30 14907 C 1421.92 -5.30624 -0.658944 0
M  V30 14908 C 1423.22 -5.00123 1.50578 0
M  V30 14909 H 1424.91 -2.77433 1.12567 0
M  V30 14910 H 1422.46 -1.3338 0.542739 0
M  V30 14911 H 1424.41 -4.11467 -0.909543 0
M  V30 14912 H 1423.13 -2.96246 -1.37499 0
M  V30 14913 H 1421.79 -3.60648 0.657944 0
M  V30 14914 H 1421.44 -4.79702 -1.51311 0
M  V30 14915 H 1421.14 -5.87464 -0.12662 0
M  V30 14916 H 1422.66 -6.01533 -1.04837 0
M  V30 14917 H 1424.08 -5.6089 1.18641 0
M  V30 14918 H 1422.48 -5.66652 1.97549 0
M  V30 14919 H 1423.55 -4.28424 2.27115 0
M  V30 14920 N 1424.89 -0.604284 -1.45555 0
M  V30 14921 C 1426.3 -0.267665 -1.57339 0
M  V30 14922 C 1426.5 1.22984 -1.59616 0
M  V30 14923 O 1425.56 2.0127 -1.52468 0
M  V30 14924 C 1426.87 -0.935923 -2.85764 0
M  V30 14925 C 1428.42 -0.911531 -2.99433 0
M  V30 14926 C 1428.9 -1.55974 -4.30623 0
M  V30 14927 N 1430.39 -1.52507 -4.37374 0
M  V30 14928 C 1431.12 -1.9958 -5.37546 0
M  V30 14929 N 1430.62 -2.54724 -6.44273 0
M  V30 14930 N 1432.41 -1.90368 -5.28882 0
M  V30 14931 H 1424.56 -1.57666 -1.42321 0
M  V30 14932 H 1426.83 -0.66028 -0.680245 0
M  V30 14933 H 1426.53 -1.99022 -2.89971 0
M  V30 14934 H 1426.41 -0.457194 -3.74419 0
M  V30 14935 H 1428.79 0.134206 -2.94795 0
M  V30 14936 H 1428.87 -1.42849 -2.12197 0
M  V30 14937 H 1428.52 -2.60479 -4.3602 0
M  V30 14938 H 1428.45 -1.01782 -5.1667 0
M  V30 14939 H 1430.94 -1.12221 -3.60853 0
M  V30 14940 H 1431.25 -2.88445 -7.16951 0
M  V30 14941 H 1429.6 -2.58761 -6.45033 0
M  V30 14942 H 1432.79 -1.47029 -4.4441 0
M  V30 14943 H 1432.96 -2.27367 -6.06802 0
M  V30 14944 N 1426.37 1.53816 -0.343257 0
M  V30 14945 C 1427.64 1.9315 0.308609 0
M  V30 14946 C 1428.02 1.27479 1.68263 0
M  V30 14947 O 1427.37 0.425614 2.24501 0
M  V30 14948 C 1427.58 3.46912 0.381176 0
M  V30 14949 C 1428.93 4.19868 0.632153 0
M  V30 14950 O 1429.95 3.53174 0.463303 0
M  V30 14951 O 1428.81 5.38016 0.959237 0
M  V30 14952 H 1425.91 0.807169 0.180022 0
M  V30 14953 H 1428.45 1.65053 -0.394412 0
M  V30 14954 H 1427.22 3.86932 -0.583058 0
M  V30 14955 H 1426.85 3.81175 1.13099 0
M  V30 14956 N 1427.84 0.0718701 1.57436 0
M  V30 14957 C 1428.77 -0.89288 2.15754 0
M  V30 14958 C 1429.76 -1.31036 1.0846 0
M  V30 14959 O 1430.94 -1.38139 1.36496 0
M  V30 14960 C 1428.07 -2.16044 2.71923 0
M  V30 14961 C 1427.02 -1.88236 3.84384 0
M  V30 14962 C 1426.35 -3.21624 4.27156 0
M  V30 14963 C 1427.65 -1.18758 5.0862 0
M  V30 14964 H 1429.34 -0.407061 2.9662 0
M  V30 14965 H 1426.89 -0.194354 1.42682 0
M  V30 14966 H 1428.84 -2.83952 3.11366 0
M  V30 14967 H 1427.57 -2.66868 1.88279 0
M  V30 14968 H 1426.23 -1.22734 3.45445 0
M  V30 14969 H 1425.87 -3.70289 3.40433 0
M  V30 14970 H 1425.57 -3.03809 5.02965 0
M  V30 14971 H 1427.1 -3.90729 4.69215 0
M  V30 14972 H 1428.51 -1.76735 5.45378 0
M  V30 14973 H 1426.91 -1.11201 5.89707 0
M  V30 14974 H 1427.98 -0.166682 4.84613 0
M  V30 14975 N 1429.32 -1.56304 -0.201686 0
M  V30 14976 C 1430.29 -1.93171 -1.2336 0
M  V30 14977 C 1431.29 -0.812164 -1.38782 0
M  V30 14978 O 1432.48 -1.07967 -1.36707 0
M  V30 14979 C 1429.61 -2.19997 -2.60411 0
M  V30 14980 H 1430.8 -2.85483 -0.918654 0
M  V30 14981 H 1428.35 -1.49893 -0.442935 0
M  V30 14982 H 1429.09 -1.30301 -2.96972 0
M  V30 14983 H 1428.87 -3.01574 -2.5059 0
M  V30 14984 H 1430.36 -2.49547 -3.34838 0
M  V30 14985 N 1430.8 0.469154 -1.50455 0
M  V30 14986 C 1432.05 1.2229 -1.6178 0
M  V30 14987 C 1432.38 1.91577 -0.318073 0
M  V30 14988 O 1431.65 1.82205 0.68057 0
M  V30 14989 C 1431.94 2.26504 -2.79943 0
M  V30 14990 C 1431.79 1.61509 -4.19804 0
M  V30 14991 C 1433.11 3.27796 -2.93662 0
M  V30 14992 H 1430.23 0.443241 -0.588817 0
M  V30 14993 H 1432.87 0.516431 -1.82847 0
M  V30 14994 H 1431.02 2.86757 -2.62112 0
M  V30 14995 H 1432.69 1.04838 -4.49229 0
M  V30 14996 H 1430.94 0.918162 -4.23972 0
M  V30 14997 H 1431.61 2.37248 -4.98415 0
M  V30 14998 H 1434.08 2.77568 -3.09992 0
M  V30 14999 H 1432.96 3.98041 -3.77961 0
M  V30 15000 H 1433.22 3.92033 -2.04359 0
M  V30 15001 N 1432.28 1.40065 0.722464 0
M  V30 15002 C 1433.24 1.39544 1.81825 0
M  V30 15003 C 1434.24 0.290385 1.58156 0
M  V30 15004 O 1435.43 0.54894 1.65325 0
M  V30 15005 C 1432.56 1.18041 3.19811 0
M  V30 15006 H 1433.76 2.37063 1.83687 0
M  V30 15007 H 1431.31 1.25813 0.927404 0
M  V30 15008 H 1432.04 0.212536 3.23603 0
M  V30 15009 H 1431.83 1.98079 3.38389 0
M  V30 15010 H 1433.32 1.20447 3.99853 0
M  V30 15011 N 1433.76 -0.95397 1.25448 0
M  V30 15012 C 1435 -1.70118 1.10399 0
M  V30 15013 C 1435.34 -1.90945 -0.354093 0
M  V30 15014 O 1434.61 -1.48088 -1.26096 0
M  V30 15015 C 1434.89 -3.08371 1.85955 0
M  V30 15016 C 1434.75 -2.9495 3.39595 0
M  V30 15017 C 1436.07 -4.08273 1.64321 0
M  V30 15018 H 1433.19 -0.617424 0.402438 0
M  V30 15019 H 1435.83 -1.10884 1.54288 0
M  V30 15020 H 1433.98 -3.58936 1.48651 0
M  V30 15021 H 1435.65 -2.51705 3.86578 0
M  V30 15022 H 1433.89 -2.30853 3.67273 0
M  V30 15023 H 1434.56 -3.92952 3.87676 0
M  V30 15024 H 1437.04 -3.6662 1.96796 0
M  V30 15025 H 1435.92 -5.03048 2.19622 0
M  V30 15026 H 1436.18 -4.38217 0.584685 0
M  V30 15027 N 1435.24 -1.07045 -1.15668 0
M  V30 15028 C 1436.15 -0.699332 -2.23934 0
M  V30 15029 C 1437.16 0.288036 -1.71599 0
M  V30 15030 O 1438.34 0.135447 -2.00944 0
M  V30 15031 C 1435.4 -0.0994775 -3.46557 0
M  V30 15032 C 1434.46 -1.13968 -4.13896 0
M  V30 15033 C 1433.7 -0.56836 -5.30665 0
M  V30 15034 O 1433.92 0.616556 -5.67058 0
M  V30 15035 O 1432.85 -1.31174 -5.87432 0
M  V30 15036 H 1436.68 -1.60212 -2.58003 0
M  V30 15037 H 1434.26 -0.843202 -1.23331 0
M  V30 15038 H 1436.15 0.23293 -4.20756 0
M  V30 15039 H 1434.82 0.776684 -3.14244 0
M  V30 15040 H 1433.73 -1.5244 -3.41633 0
M  V30 15041 H 1435.06 -1.98764 -4.50282 0
M  V30 15042 N 1436.71 1.32449 -0.85411 0
M  V30 15043 C 1438.12 1.79545 -0.511923 0
M  V30 15044 C 1438.48 1.70534 0.970188 0
M  V30 15045 O 1437.6 1.2636 1.75676 0
M  V30 15046 C 1438.2 3.26 -0.922456 0
M  V30 15047 C 1436.75 3.71053 -0.632176 0
M  V30 15048 C 1435.9 2.53565 -1.12249 0
M  V30 15049 H 1438.85 1.19755 -1.04137 0
M  V30 15050 H 1438.87 3.79751 -0.238618 0
M  V30 15051 H 1438.39 3.32526 -2.00119 0
M  V30 15052 H 1436.49 3.70042 0.435862 0
M  V30 15053 H 1436.6 4.63878 -1.19809 0
M  V30 15054 H 1434.96 2.48849 -0.542781 0
M  V30 15055 H 1435.75 2.62846 -2.20832 0
M  V30 15056 N 1438.19 0.611994 1.45232 0
M  V30 15057 C 1439.44 0.109073 2.02506 0
M  V30 15058 C 1439.77 -1.25876 1.47881 0
M  V30 15059 O 1439.05 -1.83131 0.65524 0
M  V30 15060 C 1439.33 0.0749288 3.60022 0
M  V30 15061 C 1439.18 1.47374 4.24972 0
M  V30 15062 C 1440.5 -0.610602 4.35844 0
M  V30 15063 H 1437.62 0.0411101 0.735853 0
M  V30 15064 H 1440.26 0.78481 1.73034 0
M  V30 15065 H 1438.41 -0.500511 3.85262 0
M  V30 15066 H 1440.08 2.0966 4.10902 0
M  V30 15067 H 1438.33 2.03319 3.83202 0
M  V30 15068 H 1439 1.40206 5.33897 0
M  V30 15069 H 1441.47 -0.121445 4.15923 0
M  V30 15070 H 1440.35 -0.603614 5.45571 0
M  V30 15071 H 1440.61 -1.6775 4.09038 0
M  V30 15072 N 1439.67 -1.53632 0.351409 0
M  V30 15073 C 1440.92 -2.01338 -0.243047 0
M  V30 15074 C 1441.25 -1.23864 -1.4957 0
M  V30 15075 O 1440.52 -0.328412 -1.91707 0
M  V30 15076 C 1440.81 -3.55886 -0.549284 0
M  V30 15077 C 1440.66 -4.44064 0.716016 0
M  V30 15078 C 1441.98 -4.18699 -1.35569 0
M  V30 15079 H 1439.1 -0.731863 -0.0868627 0
M  V30 15080 H 1441.74 -1.84005 0.473501 0
M  V30 15081 H 1439.89 -3.70787 -1.15972 0
M  V30 15082 H 1441.56 -4.40987 1.35383 0
M  V30 15083 H 1439.8 -4.12608 1.3393 0
M  V30 15084 H 1440.48 -5.50106 0.456895 0
M  V30 15085 H 1442.95 -4.07545 -0.839441 0
M  V30 15086 H 1441.83 -5.26892 -1.53871 0
M  V30 15087 H 1442.09 -3.73834 -2.3601 0
M  V30 15088 N 1441.15 -0.0802183 -1.57396 0
M  V30 15089 C 1442.39 0.586962 -1.93807 0
M  V30 15090 C 1442.72 1.69107 -0.960887 0
M  V30 15091 O 1441.98 1.95688 0.0220779 0
M  V30 15092 C 1442.28 1.19551 -3.36812 0
M  V30 15093 C 1441.94 0.216701 -4.50379 0
M  V30 15094 C 1440.6 -0.0525552 -4.81171 0
M  V30 15095 C 1442.96 -0.452467 -5.19232 0
M  V30 15096 C 1440.28 -0.997923 -5.78151 0
M  V30 15097 C 1442.64 -1.38621 -6.17225 0
M  V30 15098 C 1441.3 -1.66385 -6.4643 0
M  V30 15099 H 1440.57 0.214785 -0.709189 0
M  V30 15100 H 1443.22 -0.152888 -1.90889 0
M  V30 15101 H 1441.52 2.01129 -3.36236 0
M  V30 15102 H 1443.22 1.71918 -3.62278 0
M  V30 15103 H 1439.81 0.436747 -4.26369 0
M  V30 15104 H 1443.99 -0.257573 -4.95631 0
M  V30 15105 H 1439.25 -1.22019 -5.991 0
M  V30 15106 H 1443.42 -1.91063 -6.69677 0
M  V30 15107 H 1441.05 -2.39799 -7.21388 0
M  V30 15108 N 1442.63 1.56409 0.193394 0
M  V30 15109 C 1443.85 1.8519 0.933775 0
M  V30 15110 C 1444.28 0.663991 1.75991 0
M  V30 15111 O 1443.63 -0.387198 1.77117 0
M  V30 15112 C 1443.68 3.12212 1.80432 0
M  V30 15113 O 1442.79 2.92884 2.90332 0
M  V30 15114 H 1442.13 0.609754 0.262862 0
M  V30 15115 H 1444.66 2.03638 0.198195 0
M  V30 15116 H 1444.67 3.4305 2.20864 0
M  V30 15117 H 1443.34 3.98292 1.19733 0
M  V30 15118 H 1441.92 2.73349 2.53643 0
M  V30 15119 N 1444.1 -0.461169 1.50702 0
M  V30 15120 C 1445.38 -1.22225 1.52711 0
M  V30 15121 C 1445.76 -2.09268 0.27749 0
M  V30 15122 O 1445.11 -2.16232 -0.738642 0
M  V30 15123 C 1445.32 -2.04472 2.82829 0
M  V30 15124 C 1446.67 -2.62326 3.33872 0
M  V30 15125 O 1447.69 -2.14706 2.84218 0
M  V30 15126 O 1446.55 -3.49116 4.20453 0
M  V30 15127 H 1443.64 -0.555168 0.612958 0
M  V30 15128 H 1446.19 -0.47218 1.62999 0
M  V30 15129 H 1444.96 -1.40392 3.65247 0
M  V30 15130 H 1444.58 -2.86593 2.75591 0
M  V30 15131 N 1445.58 -1.40446 -0.715026 0
M  V30 15132 C 1446.51 -1.35159 -1.83868 0
M  V30 15133 C 1447.49 -0.221884 -1.61079 0
M  V30 15134 O 1448.68 -0.405635 -1.84084 0
M  V30 15135 C 1445.8 -1.10358 -3.20217 0
M  V30 15136 C 1444.85 -2.25787 -3.61832 0
M  V30 15137 S 1445.68 -3.88183 -3.68882 0
M  V30 15138 C 1446.84 -3.65647 -5.07989 0
M  V30 15139 H 1447.07 -2.30252 -1.88073 0
M  V30 15140 H 1444.6 -1.26738 -0.881859 0
M  V30 15141 H 1446.56 -0.967343 -3.9894 0
M  V30 15142 H 1445.22 -0.169178 -3.13644 0
M  V30 15143 H 1444.42 -2.04078 -4.60834 0
M  V30 15144 H 1444.02 -2.35717 -2.90368 0
M  V30 15145 H 1446.31 -3.24149 -5.94923 0
M  V30 15146 H 1447.25 -4.64182 -5.34734 0
M  V30 15147 H 1447.66 -2.99322 -4.78609 0
M  V30 15148 N 1447.06 0.947303 -1.25952 0
M  V30 15149 C 1447.97 2.07878 -1.08738 0
M  V30 15150 C 1448.99 1.73985 -0.0225212 0
M  V30 15151 O 1450.16 2.00139 -0.224984 0
M  V30 15152 C 1447.23 3.39231 -0.715756 0
M  V30 15153 C 1446.29 3.86945 -1.85935 0
M  V30 15154 C 1445.52 5.1203 -1.50537 0
M  V30 15155 O 1445.74 5.68965 -0.404323 0
M  V30 15156 O 1444.68 5.54634 -2.33805 0
M  V30 15157 H 1448.5 2.25305 -2.03645 0
M  V30 15158 H 1446.09 1.06321 -1.04958 0
M  V30 15159 H 1447.97 4.18167 -0.520962 0
M  V30 15160 H 1446.65 3.23057 0.203978 0
M  V30 15161 H 1445.55 3.08981 -2.10906 0
M  V30 15162 H 1446.89 4.0763 -2.75859 0
M  V30 15163 N 1448.54 1.07657 1.15099 0
M  V30 15164 C 1449.77 0.822825 1.89835 0
M  V30 15165 C 1450.18 -0.624281 1.7818 0
M  V30 15166 O 1449.54 -1.42844 1.13587 0
M  V30 15167 C 1449.59 1.22598 3.40076 0
M  V30 15168 O 1449.31 2.61631 3.51398 0
M  V30 15169 C 1450.81 1.00199 4.31828 0
M  V30 15170 H 1448.03 0.297288 0.601549 0
M  V30 15171 H 1450.58 1.43384 1.45813 0
M  V30 15172 H 1448.73 0.65923 3.8175 0
M  V30 15173 H 1449.14 2.78163 4.44664 0
M  V30 15174 H 1450.62 1.33355 5.35649 0
M  V30 15175 H 1451.1 -0.0614865 4.39157 0
M  V30 15176 H 1451.7 1.5538 3.959 0
M  V30 15177 N 1450.02 -1.31994 0.861122 0
M  V30 15178 C 1450.96 -2.28729 0.308476 0
M  V30 15179 C 1451.93 -1.55338 -0.588148 0
M  V30 15180 O 1453.12 -1.8353 -0.52168 0
M  V30 15181 C 1450.26 -3.4158 -0.491621 0
M  V30 15182 C 1449.37 -4.29839 0.431522 0
M  V30 15183 C 1448.51 -5.29826 -0.381836 0
M  V30 15184 C 1447.55 -6.09728 0.538296 0
M  V30 15185 N 1446.68 -7.01696 -0.238274 0
M  V30 15186 H 1451.52 -2.75389 1.13863 0
M  V30 15187 H 1449.06 -1.35485 0.572911 0
M  V30 15188 H 1451.02 -4.05738 -0.971193 0
M  V30 15189 H 1449.65 -2.96054 -1.28654 0
M  V30 15190 H 1448.7 -3.66204 1.02951 0
M  V30 15191 H 1450.01 -4.85658 1.13742 0
M  V30 15192 H 1449.17 -5.99618 -0.924297 0
M  V30 15193 H 1447.9 -4.7464 -1.12107 0
M  V30 15194 H 1446.91 -5.38834 1.09259 0
M  V30 15195 H 1448.13 -6.67 1.27625 0
M  V30 15196 H 1446.08 -6.4893 -0.960486 0
M  V30 15197 H 1446 -7.54896 0.408466 0
M  V30 15198 H 1447.27 -7.75764 -0.762252 0
M  V30 15199 N 1451.49 -0.619688 -1.44906 0
M  V30 15200 C 1452.42 0.0791121 -2.33366 0
M  V30 15201 C 1453.41 0.846503 -1.47541 0
M  V30 15202 O 1454.59 0.814657 -1.76287 0
M  V30 15203 C 1451.72 1.06901 -3.30438 0
M  V30 15204 C 1450.67 0.41403 -4.25993 0
M  V30 15205 C 1450 1.51303 -5.12846 0
M  V30 15206 C 1451.3 -0.672483 -5.17953 0
M  V30 15207 H 1452.99 -0.659551 -2.92045 0
M  V30 15208 H 1450.54 -0.318623 -1.40431 0
M  V30 15209 H 1452.49 1.56653 -3.912 0
M  V30 15210 H 1451.22 1.83842 -2.69944 0
M  V30 15211 H 1449.88 -0.0627315 -3.66546 0
M  V30 15212 H 1449.52 2.27303 -4.48712 0
M  V30 15213 H 1449.22 1.08022 -5.77586 0
M  V30 15214 H 1450.75 2.01258 -5.76479 0
M  V30 15215 H 1452.16 -0.258542 -5.72717 0
M  V30 15216 H 1450.56 -1.02776 -5.91234 0
M  V30 15217 H 1451.63 -1.54425 -4.59653 0
M  V30 15218 N 1452.97 1.53444 -0.359552 0
M  V30 15219 C 1454.22 2.00348 0.233109 0
M  V30 15220 C 1454.53 1.25104 1.50361 0
M  V30 15221 O 1455.74 1.62566 2.1745 0
M  V30 15222 C 1454.2 3.56871 0.465951 0
M  V30 15223 C 1453.8 4.40987 -0.789571 0
M  V30 15224 C 1455.55 4.12148 1.0166 0
M  V30 15225 C 1453.46 5.8905 -0.526646 0
M  V30 15226 H 1452.39 0.748502 0.0908851 0
M  V30 15227 H 1455.04 1.77182 -0.47736 0
M  V30 15228 H 1453.42 3.76167 1.23753 0
M  V30 15229 H 1454.59 4.33465 -1.56348 0
M  V30 15230 H 1452.91 3.96784 -1.263 0
M  V30 15231 H 1455.5 5.20395 1.22853 0
M  V30 15232 H 1455.85 3.66364 1.97694 0
M  V30 15233 H 1456.38 3.96626 0.305334 0
M  V30 15234 H 1453.12 6.39099 -1.45715 0
M  V30 15235 H 1452.64 5.99436 0.208875 0
M  V30 15236 H 1454.32 6.46826 -0.149889 0
M  V30 15237 N 1454.45 0.0885642 1.57351 0
M  V30 15238 C 1455.68 -0.585238 1.9845 0
M  V30 15239 C 1456.09 -1.62127 0.967483 0
M  V30 15240 O 1455.45 -1.82448 -0.0437565 0
M  V30 15241 C 1455.5 -1.23881 3.39611 0
M  V30 15242 O 1455.22 -0.244223 4.37419 0
M  V30 15243 C 1456.72 -1.99885 3.95678 0
M  V30 15244 H 1453.94 -0.157396 0.652279 0
M  V30 15245 H 1456.49 0.165923 2.03826 0
M  V30 15246 H 1454.64 -1.94094 3.3527 0
M  V30 15247 H 1455.06 -0.715149 5.19602 0
M  V30 15248 H 1456.53 -2.40983 4.9662 0
M  V30 15249 H 1457.01 -2.8621 3.33137 0
M  V30 15250 H 1457.61 -1.34501 4.03472 0
M  V30 15251 N 1455.93 -1.56509 -0.185096 0
M  V30 15252 C 1457.17 -1.82373 -0.900654 0
M  V30 15253 C 1457.53 -0.6671 -1.80465 0
M  V30 15254 O 1456.82 0.337217 -1.88609 0
M  V30 15255 C 1457.02 -3.11968 -1.74387 0
M  V30 15256 C 1456.85 -4.40126 -0.923006 0
M  V30 15257 C 1455.62 -5.01683 -0.603494 0
M  V30 15258 C 1457.81 -5.13585 -0.271006 0
M  V30 15259 N 1455.8 -6.1345 0.234953 0
M  V30 15260 C 1457.17 -6.18513 0.429202 0
M  V30 15261 C 1459.22 -4.97546 -0.187756 0
M  V30 15262 C 1457.92 -7.09139 1.20474 0
M  V30 15263 C 1459.95 -5.88604 0.574416 0
M  V30 15264 C 1459.31 -6.92984 1.26304 0
M  V30 15265 H 1455.41 -0.718517 -0.308639 0
M  V30 15266 H 1458 -1.93968 -0.168629 0
M  V30 15267 H 1456.17 -3.01589 -2.44742 0
M  V30 15268 H 1457.9 -3.2588 -2.39967 0
M  V30 15269 H 1454.65 -4.64373 -0.930306 0
M  V30 15270 H 1455.08 -6.73929 0.64408 0
M  V30 15271 H 1459.72 -4.16867 -0.705794 0
M  V30 15272 H 1457.44 -7.89273 1.73418 0
M  V30 15273 H 1461.02 -5.78266 0.640318 0
M  V30 15274 H 1459.9 -7.62227 1.84335 0
M  V30 15275 N 1457.41 0.45317 -1.50944 0
M  V30 15276 C 1458.65 1.20151 -1.62506 0
M  V30 15277 C 1458.98 1.92085 -0.335927 0
M  V30 15278 O 1458.25 1.84889 0.64751 0
M  V30 15279 H 1456.83 0.446502 -0.59887 0
M  V30 15280 H 1459.49 0.521103 -1.87804 0
M  V30 15281 H 1458.58 1.93972 -2.44502 0
M  V30 15282 N 1458.88 1.40823 0.707568 0
M  V30 15283 C 1459.85 1.41464 1.80334 0
M  V30 15284 C 1460.85 0.307143 1.57839 0
M  V30 15285 O 1462.04 0.566444 1.64733 0
M  V30 15286 C 1459.17 1.21426 3.18541 0
M  V30 15287 H 1460.36 2.38998 1.81162 0
M  V30 15288 H 1457.92 1.2679 0.914007 0
M  V30 15289 H 1458.65 0.246847 3.23359 0
M  V30 15290 H 1458.44 2.01657 3.36269 0
M  V30 15291 H 1459.93 1.24681 3.98553 0
M  V30 15292 N 1460.36 -0.94061 1.26453 0
M  V30 15293 C 1461.64 -1.66421 1.02779 0
M  V30 15294 C 1462.02 -2.06429 -0.441614 0
M  V30 15295 O 1461.37 -1.78854 -1.42209 0
M  V30 15296 C 1461.58 -2.87599 1.97707 0
M  V30 15297 C 1462.93 -3.59237 2.26349 0
M  V30 15298 O 1463.95 -2.97704 1.95577 0
M  V30 15299 O 1462.81 -4.70068 2.78744 0
M  V30 15300 H 1459.9 -0.728813 0.390846 0
M  V30 15301 H 1462.45 -0.99229 1.37665 0
M  V30 15302 H 1461.22 -2.54929 2.96862 0
M  V30 15303 H 1460.84 -3.62516 1.63303 0
M  V30 15304 N 1461.84 -1.08266 -1.14527 0
M  V30 15305 C 1463.07 -0.83288 -1.89396 0
M  V30 15306 C 1463.48 0.614823 -1.78509 0
M  V30 15307 O 1462.84 1.42239 -1.14343 0
M  V30 15308 C 1462.89 -1.244 -3.39421 0
M  V30 15309 O 1462.61 -2.63491 -3.50006 0
M  V30 15310 C 1464.11 -1.02488 -4.3129 0
M  V30 15311 H 1461.33 -0.300474 -0.599964 0
M  V30 15312 H 1463.88 -1.44155 -1.4505 0
M  V30 15313 H 1462.03 -0.679466 -3.81395 0
M  V30 15314 H 1462.45 -2.80517 -4.43182 0
M  V30 15315 H 1463.92 -1.36194 -5.34935 0
M  V30 15316 H 1464.4 0.0381961 -4.39183 0
M  V30 15317 H 1465 -1.57477 -3.95071 0
M  V30 15318 N 1463.32 1.31536 -0.86811 0
M  V30 15319 C 1464.28 2.26849 -0.327456 0
M  V30 15320 C 1465.28 1.52142 0.520514 0
M  V30 15321 O 1466.47 1.71044 0.330088 0
M  V30 15322 C 1463.6 3.36673 0.535174 0
M  V30 15323 H 1464.8 2.76184 -1.16886 0
M  V30 15324 H 1462.35 1.42437 -0.643545 0
M  V30 15325 H 1463.09 2.92627 1.39785 0
M  V30 15326 H 1462.87 3.92034 -0.0719835 0
M  V30 15327 H 1464.36 4.07658 0.905786 0
M  V30 15328 N 1464.8 0.627364 1.44575 0
M  V30 15329 C 1465.76 -0.0700881 2.29093 0
M  V30 15330 C 1466.76 -0.775969 1.40838 0
M  V30 15331 O 1467.95 -0.621129 1.6275 0
M  V30 15332 C 1465.08 -1.10977 3.2233 0
M  V30 15333 H 1466.28 0.673234 2.92246 0
M  V30 15334 H 1463.83 0.387322 1.51425 0
M  V30 15335 H 1464.56 -1.8832 2.64019 0
M  V30 15336 H 1464.35 -0.607587 3.87364 0
M  V30 15337 H 1465.84 -1.59764 3.8583 0
M  V30 15338 N 1466.28 -1.53251 0.367684 0
M  V30 15339 C 1467.52 -2.03197 -0.221396 0
M  V30 15340 C 1467.88 -1.249 -1.45822 0
M  V30 15341 O 1469.08 -1.64863 -2.12306 0
M  V30 15342 C 1467.35 -3.53827 -0.504134 0
M  V30 15343 S 1468.91 -4.2564 -1.06658 0
M  V30 15344 H 1465.73 -0.708089 -0.0642774 0
M  V30 15345 H 1468.33 -1.88703 0.511037 0
M  V30 15346 H 1467.03 -4.08412 0.403477 0
M  V30 15347 H 1466.57 -3.72487 -1.26558 0
M  V30 15348 H 1468.58 -4.36987 -2.35068 0
M  V30 15349 N 1467.75 -0.0969077 -1.57302 0
M  V30 15350 C 1469 0.565254 -1.94034 0
M  V30 15351 C 1469.32 1.68609 -0.9796 0
M  V30 15352 O 1468.59 1.95874 -0.0319788 0
M  V30 15353 H 1467.17 0.211796 -0.716346 0
M  V30 15354 H 1469.83 -0.160665 -1.94237 0
M  V30 15355 H 1468.93 0.974268 -2.96504 0
M  V30 15356 N 1469.23 1.56605 0.176793 0
M  V30 15357 C 1470.51 1.72546 0.921261 0
M  V30 15358 C 1470.89 0.656794 2.00623 0
M  V30 15359 O 1470.24 -0.329303 2.26115 0
M  V30 15360 C 1470.45 3.15548 1.491 0
M  V30 15361 C 1471.79 3.7634 1.96604 0
M  V30 15362 O 1472.82 3.18791 1.58905 0
M  V30 15363 O 1471.68 4.77377 2.66033 0
M  V30 15364 H 1468.77 0.704425 0.43326 0
M  V30 15365 H 1471.32 1.68895 0.165052 0
M  V30 15366 H 1470.09 3.84808 0.709839 0
M  V30 15367 H 1469.71 3.23502 2.31154 0
M  V30 15368 N 1470.71 -0.445159 1.51182 0
M  V30 15369 C 1471.96 -1.19215 1.62698 0
M  V30 15370 C 1472.27 -1.92529 0.345249 0
M  V30 15371 O 1473.48 -2.69367 0.33967 0
M  V30 15372 C 1471.93 -2.16762 2.87302 0
M  V30 15373 C 1471.54 -1.49131 4.2245 0
M  V30 15374 C 1473.29 -2.91942 3.08172 0
M  V30 15375 C 1471.19 -2.45117 5.38212 0
M  V30 15376 H 1470.12 -0.448687 0.605967 0
M  V30 15377 H 1472.77 -0.459956 1.77642 0
M  V30 15378 H 1471.16 -2.93383 2.65975 0
M  V30 15379 H 1472.33 -0.781222 4.54129 0
M  V30 15380 H 1470.64 -0.861342 4.07394 0
M  V30 15381 H 1473.24 -3.6383 3.91832 0
M  V30 15382 H 1473.58 -3.52837 2.20934 0
M  V30 15383 H 1474.12 -2.22429 3.29803 0
M  V30 15384 H 1470.86 -1.88923 6.27685 0
M  V30 15385 H 1470.38 -3.14202 5.10918 0
M  V30 15386 H 1472.06 -3.06411 5.69843 0
M  V30 15387 N 1472.19 -1.41197 -0.700089 0
M  V30 15388 C 1473.44 -1.39611 -1.45574 0
M  V30 15389 C 1473.75 -0.00683378 -1.95599 0
M  V30 15390 O 1474.96 0.131643 -2.71181 0
M  V30 15391 C 1473.41 -2.45452 -2.63214 0
M  V30 15392 C 1473.02 -3.90265 -2.19993 0
M  V30 15393 C 1474.76 -2.52996 -3.40871 0
M  V30 15394 C 1472.67 -4.87668 -3.34565 0
M  V30 15395 H 1471.6 -0.51917 -0.546789 0
M  V30 15396 H 1474.25 -1.67001 -0.760456 0
M  V30 15397 H 1472.63 -2.11186 -3.34987 0
M  V30 15398 H 1473.81 -4.33756 -1.55539 0
M  V30 15399 H 1472.12 -3.86339 -1.55341 0
M  V30 15400 H 1474.72 -3.22952 -4.26153 0
M  V30 15401 H 1475.06 -1.56536 -3.85749 0
M  V30 15402 H 1475.6 -2.86331 -2.76151 0
M  V30 15403 H 1472.33 -5.85517 -2.94704 0
M  V30 15404 H 1471.85 -4.4883 -3.97884 0
M  V30 15405 H 1473.53 -5.08215 -4.00409 0
M  V30 15406 N 1473.67 0.933891 -1.2695 0
M  V30 15407 C 1474.89 1.72042 -1.15828 0
M  V30 15408 C 1475.32 1.85975 0.28193 0
M  V30 15409 O 1474.67 1.35528 1.20423 0
M  V30 15410 C 1474.72 3.10112 -1.84019 0
M  V30 15411 O 1473.83 3.96504 -1.13394 0
M  V30 15412 H 1473.17 0.527573 -0.40319 0
M  V30 15413 H 1475.7 1.16914 -1.67905 0
M  V30 15414 H 1475.71 3.60461 -1.91133 0
M  V30 15415 H 1474.38 2.99287 -2.8879 0
M  V30 15416 H 1472.96 3.54948 -1.14307 0
M  V30 15417 N 1475.14 1.08871 1.13951 0
M  V30 15418 C 1476.39 0.819665 1.84732 0
M  V30 15419 C 1476.71 -0.656535 1.83615 0
M  V30 15420 O 1475.98 -1.47614 1.28791 0
M  V30 15421 H 1474.56 0.30023 0.684011 0
M  V30 15422 H 1477.22 1.37568 1.38062 0
M  V30 15423 H 1476.32 1.16809 2.89417 0
M  V30 15424 N 1476.62 -1.31073 0.875073 0
M  V30 15425 C 1477.55 -2.30855 0.350468 0
M  V30 15426 C 1478.53 -1.60569 -0.561384 0
M  V30 15427 O 1479.72 -1.88242 -0.477329 0
M  V30 15428 C 1476.85 -3.44444 -0.444493 0
M  V30 15429 C 1475.8 -4.26357 0.374716 0
M  V30 15430 C 1475.13 -5.31903 -0.546243 0
M  V30 15431 C 1476.43 -4.96817 1.61153 0
M  V30 15432 H 1478.12 -2.74983 1.18427 0
M  V30 15433 H 1475.67 -1.32199 0.570909 0
M  V30 15434 H 1477.62 -4.13304 -0.82206 0
M  V30 15435 H 1476.34 -2.99096 -1.31185 0
M  V30 15436 H 1475 -3.59171 0.734295 0
M  V30 15437 H 1474.65 -4.82803 -1.41102 0
M  V30 15438 H 1474.35 -5.876 -0.00198173 0
M  V30 15439 H 1475.88 -6.03621 -0.920542 0
M  V30 15440 H 1477.29 -5.58247 1.30511 0
M  V30 15441 H 1475.69 -5.62334 2.09524 0
M  V30 15442 H 1476.76 -4.2351 2.36151 0
M  V30 15443 N 1478.1 -0.635022 -1.4424 0
M  V30 15444 C 1479.51 -0.222982 -1.85364 0
M  V30 15445 C 1479.86 1.22648 -1.5314 0
M  V30 15446 O 1478.99 1.93373 -0.971384 0
M  V30 15447 C 1479.58 -0.397912 -3.36455 0
M  V30 15448 C 1478.14 -0.0403458 -3.76378 0
M  V30 15449 C 1477.29 -0.709451 -2.68071 0
M  V30 15450 H 1480.24 -0.839923 -1.34651 0
M  V30 15451 H 1480.26 0.361996 -3.78774 0
M  V30 15452 H 1479.77 -1.45294 -3.59877 0
M  V30 15453 H 1477.87 1.01279 -3.58571 0
M  V30 15454 H 1477.99 -0.453121 -4.76952 0
M  V30 15455 H 1476.35 -0.144386 -2.5429 0
M  V30 15456 H 1477.13 -1.76715 -2.94324 0
M  V30 15457 N 1479.58 1.53054 -0.375806 0
M  V30 15458 C 1480.82 2.017 0.210985 0
M  V30 15459 C 1481.16 1.26228 1.47581 0
M  V30 15460 O 1480.43 0.358869 1.91161 0
M  V30 15461 C 1480.72 3.56715 0.492596 0
M  V30 15462 C 1480.57 4.42869 -0.786573 0
M  V30 15463 C 1481.89 4.20803 1.28891 0
M  V30 15464 H 1479.01 0.733153 0.0752084 0
M  V30 15465 H 1481.65 1.83229 -0.502715 0
M  V30 15466 H 1479.8 3.72585 1.10059 0
M  V30 15467 H 1481.47 4.38777 -1.42381 0
M  V30 15468 H 1479.71 4.10425 -1.40478 0
M  V30 15469 H 1480.38 5.49309 -0.544354 0
M  V30 15470 H 1482.86 4.08828 0.774498 0
M  V30 15471 H 1481.74 5.29273 1.45469 0
M  V30 15472 H 1482 3.77541 2.30033 0
M  V30 15473 N 1481.06 0.105248 1.57248 0
M  V30 15474 C 1482.28 -0.567515 1.99484 0
M  V30 15475 C 1482.71 -1.60298 0.984182 0
M  V30 15476 O 1482.06 -1.81242 -0.0459944 0
M  V30 15477 C 1482.11 -1.18271 3.40653 0
M  V30 15478 O 1481.22 -2.29843 3.42412 0
M  V30 15479 H 1480.56 -0.143069 0.648404 0
M  V30 15480 H 1483.09 0.189661 2.03719 0
M  V30 15481 H 1483.1 -1.52157 3.78566 0
M  V30 15482 H 1481.77 -0.424179 4.13731 0
M  V30 15483 H 1480.35 -1.975 3.16304 0
M  V30 15484 N 1482.53 -1.56697 -0.168486 0
M  V30 15485 C 1483.5 -1.95744 -1.19235 0
M  V30 15486 C 1484.5 -0.841419 -1.37028 0
M  V30 15487 O 1485.69 -1.10842 -1.34386 0
M  V30 15488 C 1482.82 -2.25471 -2.55686 0
M  V30 15489 H 1484.01 -2.87368 -0.857892 0
M  V30 15490 H 1481.57 -1.50798 -0.411041 0
M  V30 15491 H 1482.3 -1.36571 -2.94141 0
M  V30 15492 H 1482.09 -3.06822 -2.44137 0
M  V30 15493 H 1483.58 -2.56593 -3.29469 0
M  V30 15494 N 1484.01 0.437135 -1.51416 0
M  V30 15495 C 1485.43 0.773631 -1.39596 0
M  V30 15496 C 1485.63 1.95737 -0.478463 0
M  V30 15497 O 1484.68 2.52413 0.0662971 0
M  V30 15498 C 1486 1.05381 -2.8163 0
M  V30 15499 C 1487.55 1.15824 -2.90782 0
M  V30 15500 C 1488.02 1.47135 -4.33722 0
M  V30 15501 N 1489.51 1.54059 -4.3683 0
M  V30 15502 C 1490.25 1.79858 -5.44462 0
M  V30 15503 N 1489.74 2.03449 -6.62254 0
M  V30 15504 N 1491.54 1.81642 -5.31942 0
M  V30 15505 H 1483.69 -0.342468 -2.09621 0
M  V30 15506 H 1485.95 -0.0908158 -0.94364 0
M  V30 15507 H 1485.66 0.256708 -3.50762 0
M  V30 15508 H 1485.53 1.98139 -3.20968 0
M  V30 15509 H 1487.92 1.94597 -2.21847 0
M  V30 15510 H 1488 0.209663 -2.54939 0
M  V30 15511 H 1487.64 0.688897 -5.03206 0
M  V30 15512 H 1487.57 2.43199 -4.67078 0
M  V30 15513 H 1490.06 1.3773 -3.51907 0
M  V30 15514 H 1490.38 2.22506 -7.40075 0
M  V30 15515 H 1488.72 2.00771 -6.65369 0
M  V30 15516 H 1491.91 1.62731 -4.38903 0
M  V30 15517 H 1492.08 2.01411 -6.15904 0
M  V30 15518 N 1485.49 1.41566 0.692592 0
M  V30 15519 C 1486.91 1.24101 1.00355 0
M  V30 15520 C 1487.11 0.132485 2.01064 0
M  V30 15521 O 1486.16 -0.502142 2.47457 0
M  V30 15522 C 1487.48 2.59142 1.52532 0
M  V30 15523 C 1489.02 2.66348 1.64401 0
M  V30 15524 C 1489.5 4.01713 2.19978 0
M  V30 15525 N 1490.99 4.03575 2.27335 0
M  V30 15526 C 1491.72 5.05118 2.71373 0
M  V30 15527 N 1491.22 6.1705 3.14994 0
M  V30 15528 N 1493.01 4.92479 2.70963 0
M  V30 15529 H 1485.16 2.12385 0.0254859 0
M  V30 15530 H 1487.43 0.945118 0.0738684 0
M  V30 15531 H 1487.13 3.41026 0.85989 0
M  V30 15532 H 1487.01 2.81833 2.50699 0
M  V30 15533 H 1489.39 1.84821 2.30055 0
M  V30 15534 H 1489.48 2.47464 0.647717 0
M  V30 15535 H 1489.12 4.8369 1.54939 0
M  V30 15536 H 1489.05 4.1794 3.20365 0
M  V30 15537 H 1491.54 3.2276 1.96556 0
M  V30 15538 H 1491.85 6.90399 3.47231 0
M  V30 15539 H 1490.2 6.20582 3.12895 0
M  V30 15540 H 1493.39 4.04117 2.36236 0
M  V30 15541 H 1493.56 5.71752 3.04965 0
M  V30 15542 N 1486.97 -0.927146 1.27443 0
M  V30 15543 C 1488.22 -1.67159 1.13589 0
M  V30 15544 C 1488.54 -1.92379 -0.31865 0
M  V30 15545 O 1487.81 -1.53045 -1.22287 0
M  V30 15546 H 1486.39 -0.619524 0.417371 0
M  V30 15547 H 1489.05 -1.11323 1.59979 0
M  V30 15548 H 1488.15 -2.63954 1.66537 0
M  V30 15549 N 1488.45 -1.09474 -1.13372 0
M  V30 15550 C 1489.39 -0.73458 -2.18798 0
M  V30 15551 C 1490.36 0.284433 -1.63647 0
M  V30 15552 O 1491.55 0.165958 -1.90077 0
M  V30 15553 C 1488.69 -0.161826 -3.4472 0
M  V30 15554 C 1487.8 -1.23494 -4.13973 0
M  V30 15555 C 1486.94 -0.624886 -5.27512 0
M  V30 15556 C 1485.98 -1.67927 -5.88614 0
M  V30 15557 N 1485.11 -1.09021 -6.93584 0
M  V30 15558 H 1489.95 -1.63787 -2.48954 0
M  V30 15559 H 1487.49 -0.818297 -1.22239 0
M  V30 15560 H 1489.45 0.188053 -4.16776 0
M  V30 15561 H 1488.08 0.70473 -3.15013 0
M  V30 15562 H 1487.13 -1.70209 -3.40196 0
M  V30 15563 H 1488.44 -2.0335 -4.55467 0
M  V30 15564 H 1487.6 -0.22388 -6.06287 0
M  V30 15565 H 1486.33 0.205214 -4.87268 0
M  V30 15566 H 1485.34 -2.08982 -5.08534 0
M  V30 15567 H 1486.56 -2.51204 -6.3093 0
M  V30 15568 H 1484.51 -0.281401 -6.55396 0
M  V30 15569 H 1484.43 -1.82573 -7.33623 0
M  V30 15570 H 1485.7 -0.715428 -7.7621 0
M  V30 15571 N 1489.92 1.30607 -0.882012 0
M  V30 15572 C 1490.83 2.31967 -0.350503 0
M  V30 15573 C 1491.85 1.6522 0.54575 0
M  V30 15574 O 1493.03 1.96544 0.439581 0
M  V30 15575 C 1490.09 3.44037 0.428924 0
M  V30 15576 C 1489.15 4.26417 -0.496727 0
M  V30 15577 C 1488.39 5.33135 0.245597 0
M  V30 15578 O 1488.61 5.51077 1.47209 0
M  V30 15579 O 1487.54 6.00551 -0.402767 0
M  V30 15580 H 1491.37 2.79374 -1.19095 0
M  V30 15581 H 1488.95 1.34723 -0.645754 0
M  V30 15582 H 1490.84 4.12314 0.870346 0
M  V30 15583 H 1489.51 2.9877 1.24573 0
M  V30 15584 H 1488.42 3.60848 -0.986899 0
M  V30 15585 H 1489.75 4.7528 -1.27945 0
M  V30 15586 N 1491.4 0.642663 1.43901 0
M  V30 15587 C 1492.65 0.149167 2.01148 0
M  V30 15588 C 1492.96 -1.2405 1.51231 0
M  V30 15589 O 1494.17 -1.82864 2.00681 0
M  V30 15590 C 1492.63 0.215891 3.59252 0
M  V30 15591 C 1492.23 1.60759 4.18163 0
M  V30 15592 C 1493.98 -0.220546 4.23927 0
M  V30 15593 C 1491.89 1.62881 5.68528 0
M  V30 15594 H 1490.82 0.0520015 0.752205 0
M  V30 15595 H 1493.47 0.803152 1.6499 0
M  V30 15596 H 1491.85 -0.505409 3.92762 0
M  V30 15597 H 1493.02 2.3534 3.96171 0
M  V30 15598 H 1491.34 1.9891 3.65819 0
M  V30 15599 H 1493.93 -0.224389 5.34229 0
M  V30 15600 H 1494.28 -1.25003 3.97089 0
M  V30 15601 H 1494.81 0.448646 3.95262 0
M  V30 15602 H 1491.55 2.63704 6.00117 0
M  V30 15603 H 1491.07 0.926104 5.92607 0
M  V30 15604 H 1492.75 1.36785 6.32375 0
M  V30 15605 N 1492.88 -1.52852 0.383918 0
M  V30 15606 C 1493.81 -2.29213 -0.44539 0
M  V30 15607 C 1494.79 -1.3238 -1.06815 0
M  V30 15608 O 1495.98 -1.61269 -1.08194 0
M  V30 15609 C 1493.11 -3.09497 -1.57573 0
M  V30 15610 C 1492.06 -4.14168 -1.07928 0
M  V30 15611 C 1491.39 -4.82644 -2.30128 0
M  V30 15612 C 1492.69 -5.22082 -0.151035 0
M  V30 15613 H 1494.38 -2.98786 0.19172 0
M  V30 15614 H 1491.93 -1.43695 0.0936471 0
M  V30 15615 H 1493.88 -3.61672 -2.16267 0
M  V30 15616 H 1492.6 -2.37647 -2.24034 0
M  V30 15617 H 1491.26 -3.62966 -0.514909 0
M  V30 15618 H 1490.91 -4.07348 -2.95087 0
M  V30 15619 H 1490.61 -5.53388 -1.97574 0
M  V30 15620 H 1492.14 -5.37621 -2.89475 0
M  V30 15621 H 1493.55 -5.69649 -0.646003 0
M  V30 15622 H 1491.95 -6.00041 0.0844833 0
M  V30 15623 H 1493.02 -4.78228 0.801618 0
M  V30 15624 N 1494.36 -0.113586 -1.5719 0
M  V30 15625 C 1495.29 0.835363 -2.18046 0
M  V30 15626 C 1496.27 1.28114 -1.11897 0
M  V30 15627 O 1497.46 1.34472 -1.40111 0
M  V30 15628 C 1494.59 2.08759 -2.77556 0
M  V30 15629 C 1493.54 1.77979 -3.8924 0
M  V30 15630 C 1492.87 3.10185 -4.35533 0
M  V30 15631 C 1494.17 1.05231 -5.11589 0
M  V30 15632 H 1495.86 0.328275 -2.97595 0
M  V30 15633 H 1493.41 0.156456 -1.43148 0
M  V30 15634 H 1495.36 2.75597 -3.18785 0
M  V30 15635 H 1494.08 2.61783 -1.95288 0
M  V30 15636 H 1492.74 1.13532 -3.48577 0
M  V30 15637 H 1492.39 3.61133 -3.50131 0
M  V30 15638 H 1492.09 2.90367 -5.10843 0
M  V30 15639 H 1493.61 3.78151 -4.7941 0
M  V30 15640 H 1495.03 1.62213 -5.49872 0
M  V30 15641 H 1493.42 0.955269 -5.92448 0
M  V30 15642 H 1494.49 0.038137 -4.84885 0
M  V30 15643 N 1495.84 1.56784 0.160173 0
M  V30 15644 C 1497.09 1.8226 0.873253 0
M  V30 15645 C 1497.41 0.692384 1.82294 0
M  V30 15646 O 1496.68 -0.286961 1.93787 0
M  V30 15647 H 1495.26 0.672371 0.325463 0
M  V30 15648 H 1497.92 1.94264 0.157325 0
M  V30 15649 H 1497.01 2.76714 1.44345 0
M  V30 15650 N 1497.32 -0.429099 1.51646 0
M  V30 15651 C 1498.73 -1.00868 1.57107 0
M  V30 15652 C 1499.08 -1.9209 0.399483 0
M  V30 15653 O 1498.2 -2.10948 -0.482709 0
M  V30 15654 C 1498.8 -1.83612 2.84732 0
M  V30 15655 C 1497.36 -2.36605 2.92737 0
M  V30 15656 C 1496.5 -1.1604 2.51853 0
M  V30 15657 H 1499.45 -0.21006 1.57304 0
M  V30 15658 H 1499.48 -2.69149 2.68959 0
M  V30 15659 H 1498.99 -1.17192 3.69983 0
M  V30 15660 H 1497.09 -3.06455 2.11934 0
M  V30 15661 H 1497.2 -2.68838 3.96564 0
M  V30 15662 H 1495.57 -1.50826 2.0524 0
M  V30 15663 H 1496.35 -0.51218 3.39458 0
M  V30 15664 N 1498.79 -1.41931 -0.685074 0
M  V30 15665 C 1499.76 -1.44315 -1.78061 0
M  V30 15666 C 1500.76 -0.332215 -1.57331 0
M  V30 15667 O 1501.95 -0.59258 -1.63811 0
M  V30 15668 C 1499.08 -1.26479 -3.16569 0
M  V30 15669 H 1500.27 -2.4185 -1.77337 0
M  V30 15670 H 1497.82 -1.28228 -0.893721 0
M  V30 15671 H 1498.56 -0.298259 -3.22926 0
M  V30 15672 H 1498.34 -2.06981 -3.33018 0
M  V30 15673 H 1499.83 -1.31006 -3.96519 0
M  V30 15674 N 1500.27 0.920374 -1.27933 0
M  V30 15675 C 1501.55 1.64765 -1.05413 0
M  V30 15676 C 1501.93 2.07106 0.408717 0
M  V30 15677 O 1501.28 1.81094 1.39346 0
M  V30 15678 C 1501.49 2.84417 -2.02257 0
M  V30 15679 C 1502.83 3.5559 -2.32036 0
M  V30 15680 O 1503.86 2.94555 -2.00289 0
M  V30 15681 O 1502.72 4.65574 -2.86187 0
M  V30 15682 H 1499.81 0.722503 -0.402391 0
M  V30 15683 H 1502.36 0.970263 -1.39226 0
M  V30 15684 H 1501.13 2.50174 -3.0088 0
M  V30 15685 H 1500.75 3.59872 -1.6905 0
M  V30 15686 N 1501.75 1.10074 1.1279 0
M  V30 15687 C 1502.97 0.863106 1.88587 0
M  V30 15688 C 1503.4 -0.580595 1.78915 0
M  V30 15689 O 1502.76 -1.40859 1.14142 0
M  V30 15690 C 1502.81 1.31142 3.35908 0
M  V30 15691 O 1501.91 0.474088 4.09666 0
M  V30 15692 H 1501.25 0.312034 0.586115 0
M  V30 15693 H 1503.78 1.46659 1.42662 0
M  V30 15694 H 1503.79 1.29974 3.86744 0
M  V30 15695 H 1502.47 2.36279 3.42265 0
M  V30 15696 H 1501.04 0.550665 3.68812 0
M  V30 15697 N 1503.23 -1.30138 0.888926 0
M  V30 15698 C 1504.47 -1.95989 0.509365 0
M  V30 15699 C 1504.8 -1.70153 -0.942249 0
M  V30 15700 O 1504.06 -1.00123 -1.68148 0
M  V30 15701 C 1504.36 -3.4975 0.735488 0
M  V30 15702 C 1504.02 -3.95644 2.1628 0
M  V30 15703 C 1502.68 -4.07886 2.55309 0
M  V30 15704 C 1505.04 -4.1952 3.09277 0
M  V30 15705 C 1502.36 -4.41367 3.86539 0
M  V30 15706 C 1504.72 -4.54472 4.40043 0
M  V30 15707 C 1503.38 -4.64923 4.7896 0
M  V30 15708 H 1502.65 -0.717175 0.18639 0
M  V30 15709 H 1505.3 -1.54932 1.12553 0
M  V30 15710 H 1503.6 -3.91783 0.0363165 0
M  V30 15711 H 1505.3 -3.9878 0.421351 0
M  V30 15712 H 1501.89 -3.86624 1.84985 0
M  V30 15713 H 1506.07 -4.09539 2.80342 0
M  V30 15714 H 1501.33 -4.47659 4.16427 0
M  V30 15715 H 1505.5 -4.71897 5.12138 0
M  V30 15716 H 1503.13 -4.90622 5.80685 0
M  V30 15717 N 1504.71 -0.650285 -1.43559 0
M  V30 15718 C 1505.95 -0.162164 -2.01448 0
M  V30 15719 C 1506.27 1.22717 -1.51544 0
M  V30 15720 O 1505.54 1.81917 -0.726855 0
M  V30 15721 H 1504.12 -0.0569599 -0.744825 0
M  V30 15722 H 1506.79 -0.841294 -1.75807 0
M  V30 15723 H 1505.88 -0.144531 -3.11765 0
M  V30 15724 N 1506.18 1.52647 -0.392018 0
M  V30 15725 C 1507.09 2.30261 0.449093 0
M  V30 15726 C 1508.11 1.37286 1.06905 0
M  V30 15727 O 1509.29 1.70357 1.07427 0
M  V30 15728 C 1506.35 3.09636 1.55969 0
M  V30 15729 C 1505.41 4.18324 0.964566 0
M  V30 15730 C 1504.64 4.93904 2.02224 0
M  V30 15731 O 1504.87 4.69603 3.23773 0
M  V30 15732 O 1503.8 5.79183 1.63802 0
M  V30 15733 H 1507.63 3.03147 -0.183269 0
M  V30 15734 H 1505.21 1.48587 -0.155664 0
M  V30 15735 H 1507.09 3.59118 2.20482 0
M  V30 15736 H 1505.77 2.39561 2.17697 0
M  V30 15737 H 1504.68 3.73031 0.282618 0
M  V30 15738 H 1506.01 4.90641 0.391466 0
M  V30 15739 N 1507.66 0.121921 1.57128 0
M  V30 15740 C 1508.59 -0.857725 2.12546 0
M  V30 15741 C 1509.61 -1.22797 1.06886 0
M  V30 15742 O 1510.8 -1.17641 1.34249 0
M  V30 15743 C 1507.9 -2.15869 2.61254 0
M  V30 15744 C 1507.07 -1.95969 3.91043 0
M  V30 15745 C 1506.13 -3.09822 4.2532 0
M  V30 15746 O 1505.15 -2.82608 4.94087 0
M  V30 15747 N 1506.36 -4.36333 3.82875 0
M  V30 15748 H 1509.12 -0.384239 2.97227 0
M  V30 15749 H 1506.68 -0.062416 1.6178 0
M  V30 15750 H 1508.67 -2.91035 2.81213 0
M  V30 15751 H 1507.24 -2.54557 1.81437 0
M  V30 15752 H 1506.46 -1.04979 3.79965 0
M  V30 15753 H 1507.75 -1.79981 4.75904 0
M  V30 15754 H 1507.15 -4.61318 3.27417 0
M  V30 15755 H 1505.71 -5.08362 4.07936 0
M  V30 15756 N 1509.14 -1.56867 -0.151857 0
M  V30 15757 C 1510.39 -1.82721 -0.863575 0
M  V30 15758 C 1510.71 -0.702042 -1.81924 0
M  V30 15759 O 1509.98 0.27668 -1.93936 0
M  V30 15760 H 1508.56 -0.674088 -0.321893 0
M  V30 15761 H 1511.22 -1.94345 -0.14702 0
M  V30 15762 H 1510.32 -2.77476 -1.42876 0
M  V30 15763 N 1510.62 0.421051 -1.51871 0
M  V30 15764 C 1511.86 1.16763 -1.66547 0
M  V30 15765 C 1512.22 1.88513 -0.38478 0
M  V30 15766 O 1511.51 1.81283 0.620237 0
M  V30 15767 C 1511.71 2.19819 -2.81806 0
M  V30 15768 C 1511.54 1.58186 -4.2096 0
M  V30 15769 C 1510.31 1.35972 -4.86662 0
M  V30 15770 C 1512.5 1.04921 -5.03484 0
M  V30 15771 N 1510.49 0.70107 -6.09884 0
M  V30 15772 C 1511.86 0.516784 -6.17842 0
M  V30 15773 C 1513.91 0.942524 -4.88898 0
M  V30 15774 C 1512.61 -0.111853 -7.19213 0
M  V30 15775 C 1514.64 0.327758 -5.90491 0
M  V30 15776 C 1514 -0.194044 -7.04133 0
M  V30 15777 H 1510.1 0.41436 -0.663197 0
M  V30 15778 H 1512.69 0.461765 -1.89145 0
M  V30 15779 H 1510.86 2.87776 -2.60844 0
M  V30 15780 H 1512.59 2.86752 -2.85579 0
M  V30 15781 H 1509.34 1.62596 -4.44814 0
M  V30 15782 H 1509.77 0.388716 -6.75883 0
M  V30 15783 H 1514.41 1.33179 -4.01277 0
M  V30 15784 H 1512.13 -0.513209 -8.06469 0
M  V30 15785 H 1515.71 0.246895 -5.81276 0
M  V30 15786 H 1514.59 -0.662259 -7.81399 0
M  V30 15787 N 1512.1 1.42293 0.677538 0
M  V30 15788 C 1513.51 1.25158 0.990334 0
M  V30 15789 C 1513.71 0.153803 2.00912 0
M  V30 15790 O 1512.77 -0.475868 2.47975 0
M  V30 15791 C 1514.08 2.60745 1.49775 0
M  V30 15792 C 1515.63 2.68077 1.61566 0
M  V30 15793 C 1516.1 4.04024 2.15705 0
M  V30 15794 N 1517.6 4.05964 2.23042 0
M  V30 15795 C 1518.33 5.07968 2.66 0
M  V30 15796 N 1517.83 6.20356 3.08432 0
M  V30 15797 N 1519.62 4.95325 2.65725 0
M  V30 15798 H 1511.77 2.124 0.00295822 0
M  V30 15799 H 1514.03 0.945848 0.06384 0
M  V30 15800 H 1513.74 3.41919 0.823672 0
M  V30 15801 H 1513.61 2.84476 2.47695 0
M  V30 15802 H 1516 1.87251 2.28082 0
M  V30 15803 H 1516.08 2.48137 0.621434 0
M  V30 15804 H 1515.73 4.85306 1.498 0
M  V30 15805 H 1515.66 4.21314 3.15914 0
M  V30 15806 H 1518.15 3.24827 1.93122 0
M  V30 15807 H 1518.46 6.94043 3.39889 0
M  V30 15808 H 1516.8 6.23865 3.06296 0
M  V30 15809 H 1520 4.06599 2.31936 0
M  V30 15810 H 1520.17 5.74954 2.98884 0
M  V30 15811 N 1513.57 -0.913576 1.28419 0
M  V30 15812 C 1514.5 -2.03275 1.14897 0
M  V30 15813 C 1515.49 -1.70036 0.0467034 0
M  V30 15814 O 1516.67 -1.92907 0.223725 0
M  V30 15815 C 1513.8 -3.37717 0.810217 0
M  V30 15816 C 1512.75 -3.85119 1.86728 0
M  V30 15817 C 1512.08 -5.16527 1.38215 0
M  V30 15818 C 1513.38 -4.06959 3.27386 0
M  V30 15819 H 1515.07 -2.14847 2.08522 0
M  V30 15820 H 1512.62 -1.03233 1.00394 0
M  V30 15821 H 1514.57 -4.15505 0.702382 0
M  V30 15822 H 1513.3 -3.26199 -0.161732 0
M  V30 15823 H 1511.96 -3.09536 1.96426 0
M  V30 15824 H 1511.6 -5.01413 0.399263 0
M  V30 15825 H 1511.3 -5.49213 2.08898 0
M  V30 15826 H 1512.83 -5.96871 1.28754 0
M  V30 15827 H 1514.24 -4.75272 3.20608 0
M  V30 15828 H 1512.64 -4.50977 3.95904 0
M  V30 15829 H 1513.71 -3.11764 3.71391 0
M  V30 15830 N 1515.05 -1.1067 -1.12204 0
M  V30 15831 C 1515.98 -0.779829 -2.20093 0
M  V30 15832 C 1516.96 0.248279 -1.68278 0
M  V30 15833 O 1518.15 0.113511 -1.93868 0
M  V30 15834 C 1515.28 -0.213511 -3.46643 0
M  V30 15835 C 1514.23 -1.17258 -4.11624 0
M  V30 15836 C 1513.56 -0.467352 -5.32654 0
M  V30 15837 C 1514.86 -2.52014 -4.57478 0
M  V30 15838 H 1516.55 -1.68192 -2.47693 0
M  V30 15839 H 1514.1 -0.810131 -1.1905 0
M  V30 15840 H 1516.05 0.0273225 -4.21391 0
M  V30 15841 H 1514.78 0.723837 -3.18478 0
M  V30 15842 H 1513.43 -1.39891 -3.3886 0
M  V30 15843 H 1513.08 0.474547 -5.00756 0
M  V30 15844 H 1512.78 -1.10694 -5.77079 0
M  V30 15845 H 1514.31 -0.235122 -6.10147 0
M  V30 15846 H 1515.72 -2.33516 -5.23587 0
M  V30 15847 H 1514.12 -3.1188 -5.1269 0
M  V30 15848 H 1515.19 -3.11831 -3.71335 0
M  V30 15849 N 1516.53 1.29665 -0.895815 0
M  V30 15850 C 1517.49 2.26103 -0.3755 0
M  V30 15851 C 1518.49 1.53212 0.488126 0
M  V30 15852 O 1519.68 1.71706 0.293733 0
M  V30 15853 C 1516.82 3.37732 0.46364 0
M  V30 15854 H 1518.01 2.73643 -1.22718 0
M  V30 15855 H 1515.56 1.4104 -0.673613 0
M  V30 15856 H 1516.3 2.95526 1.33546 0
M  V30 15857 H 1516.08 3.91793 -0.155123 0
M  V30 15858 H 1517.57 4.09488 0.819112 0
M  V30 15859 N 1518.01 0.657889 1.43212 0
M  V30 15860 C 1519.42 0.252443 1.84985 0
M  V30 15861 C 1519.77 -1.20196 1.55072 0
M  V30 15862 O 1518.9 -1.91803 1.00202 0
M  V30 15863 C 1519.49 0.451388 3.3578 0
M  V30 15864 C 1518.05 0.100219 3.76267 0
M  V30 15865 C 1517.2 0.752009 2.66908 0
M  V30 15866 H 1520.15 0.861239 1.33298 0
M  V30 15867 H 1520.17 -0.30169 3.79302 0
M  V30 15868 H 1519.68 1.51001 3.5752 0
M  V30 15869 H 1517.78 -0.955618 3.60137 0
M  V30 15870 H 1517.89 0.528942 4.76171 0
M  V30 15871 H 1516.26 0.184823 2.54029 0
M  V30 15872 H 1517.04 1.81375 2.91476 0
M  V30 15873 N 1519.49 -1.52437 0.400108 0
M  V30 15874 C 1520.74 -2.00896 -0.179909 0
M  V30 15875 C 1521.05 -1.29046 -1.46991 0
M  V30 15876 O 1522.25 -1.68274 -2.13063 0
M  V30 15877 C 1520.71 -3.57981 -0.371169 0
M  V30 15878 C 1520.32 -4.38739 0.906213 0
M  V30 15879 C 1522.06 -4.14698 -0.906965 0
M  V30 15880 C 1519.97 -5.87447 0.682637 0
M  V30 15881 H 1518.9 -0.750649 -0.071008 0
M  V30 15882 H 1521.55 -1.75854 0.524169 0
M  V30 15883 H 1519.93 -3.79315 -1.13736 0
M  V30 15884 H 1521.11 -4.29167 1.67785 0
M  V30 15885 H 1519.42 -3.93296 1.36776 0
M  V30 15886 H 1522.02 -5.2347 -1.09012 0
M  V30 15887 H 1522.36 -3.71477 -1.87911 0
M  V30 15888 H 1522.89 -3.97297 -0.200068 0
M  V30 15889 H 1519.63 -6.35011 1.62608 0
M  V30 15890 H 1519.15 -5.99779 -0.0498716 0
M  V30 15891 H 1520.83 -6.46202 0.321331 0
M  V30 15892 N 1520.96 -0.130252 -1.57061 0
M  V30 15893 C 1522.19 0.532416 -1.99932 0
M  V30 15894 C 1522.61 1.59505 -1.01013 0
M  V30 15895 O 1521.96 1.82499 -0.00463158 0
M  V30 15896 C 1522.02 1.14833 -3.42776 0
M  V30 15897 O 1521.74 0.128163 -4.37912 0
M  V30 15898 C 1523.24 1.89324 -4.00838 0
M  V30 15899 H 1520.46 0.140046 -0.656223 0
M  V30 15900 H 1523 -0.219905 -2.03314 0
M  V30 15901 H 1521.16 1.85137 -3.40298 0
M  V30 15902 H 1521.57 0.577135 -5.21315 0
M  V30 15903 H 1523.04 2.27731 -5.02835 0
M  V30 15904 H 1523.52 2.77277 -3.40608 0
M  V30 15905 H 1524.13 1.23757 -4.06896 0
M  V30 15906 N 1522.44 1.56945 0.143535 0
M  V30 15907 C 1523.41 1.97616 1.16106 0
M  V30 15908 C 1524.41 0.863113 1.35672 0
M  V30 15909 O 1525.6 1.12966 1.32606 0
M  V30 15910 C 1522.73 2.29511 2.52067 0
M  V30 15911 H 1523.92 2.88696 0.812066 0
M  V30 15912 H 1521.47 1.51433 0.386999 0
M  V30 15913 H 1522.21 1.41233 2.91931 0
M  V30 15914 H 1521.99 3.10667 2.39225 0
M  V30 15915 H 1523.48 2.61802 3.25345 0
M  V30 15916 N 1523.92 -0.412991 1.52093 0
M  V30 15917 C 1525.15 -1.1804 1.69558 0
M  V30 15918 C 1525.56 -1.84858 0.403007 0
M  V30 15919 O 1524.9 -1.72541 -0.630506 0
M  V30 15920 C 1524.96 -2.28876 2.7723 0
M  V30 15921 C 1524.63 -1.82226 4.19098 0
M  V30 15922 C 1525.63 -1.31216 5.03069 0
M  V30 15923 C 1523.31 -1.89177 4.65314 0
M  V30 15924 C 1525.3 -0.877743 6.31328 0
M  V30 15925 C 1522.99 -1.45347 5.93563 0
M  V30 15926 C 1523.99 -0.947302 6.76399 0
M  V30 15927 O 1523.68 -0.515315 8.02247 0
M  V30 15928 H 1523.41 -0.360882 0.571612 0
M  V30 15929 H 1525.96 -0.492521 1.99408 0
M  V30 15930 H 1524.19 -3.01015 2.42748 0
M  V30 15931 H 1525.88 -2.9065 2.83333 0
M  V30 15932 H 1526.65 -1.25221 4.68556 0
M  V30 15933 H 1522.53 -2.27518 4.00945 0
M  V30 15934 H 1526.07 -0.481977 6.95933 0
M  V30 15935 H 1521.97 -1.51019 6.27585 0
M  V30 15936 H 1522.74 -0.638973 8.16002 0
M  V30 15937 N 1525.4 -1.4265 -0.669982 0
M  V30 15938 C 1526.62 -1.46992 -1.46315 0
M  V30 15939 C 1527.05 -0.0840655 -1.87912 0
M  V30 15940 O 1526.41 0.918554 -1.56308 0
M  V30 15941 C 1526.46 -2.40663 -2.6854 0
M  V30 15942 O 1525.56 -1.88132 -3.66988 0
M  V30 15943 H 1524.9 -0.497844 -0.439372 0
M  V30 15944 H 1527.43 -1.8739 -0.821348 0
M  V30 15945 H 1527.44 -2.57405 -3.16554 0
M  V30 15946 H 1526.12 -3.41346 -2.37604 0
M  V30 15947 H 1524.69 -1.80969 -3.26044 0
M  V30 15948 N 1526.88 0.906753 -1.28902 0
M  V30 15949 C 1527.81 2.01497 -1.09233 0
M  V30 15950 C 1528.82 1.62746 -0.0419378 0
M  V30 15951 O 1530.01 1.76198 -0.285728 0
M  V30 15952 C 1527.11 3.32816 -0.639255 0
M  V30 15953 C 1526.28 4.00137 -1.76661 0
M  V30 15954 C 1525.34 5.09742 -1.30573 0
M  V30 15955 O 1524.37 5.32559 -2.00921 0
M  V30 15956 N 1525.57 5.80243 -0.17275 0
M  V30 15957 H 1528.34 2.18927 -2.04673 0
M  V30 15958 H 1525.9 1.0785 -1.20748 0
M  V30 15959 H 1527.89 4.03477 -0.31439 0
M  V30 15960 H 1526.46 3.11807 0.222498 0
M  V30 15961 H 1525.68 3.22933 -2.26071 0
M  V30 15962 H 1526.97 4.41859 -2.52266 0
M  V30 15963 H 1526.37 5.64184 0.413931 0
M  V30 15964 H 1524.92 6.51734 0.0927926 0
M  V30 15965 N 1528.36 1.11264 1.11616 0
M  V30 15966 C 1529.29 0.727118 2.17361 0
M  V30 15967 C 1530.3 -0.240356 1.61016 0
M  V30 15968 O 1531.49 -0.0235265 1.78484 0
M  V30 15969 C 1528.59 0.05361 3.38858 0
M  V30 15970 C 1527.76 1.04744 4.24673 0
M  V30 15971 C 1526.82 0.403827 5.24648 0
M  V30 15972 O 1525.85 1.0572 5.59296 0
M  V30 15973 N 1527.05 -0.834071 5.74477 0
M  V30 15974 H 1529.81 1.63696 2.51045 0
M  V30 15975 H 1527.38 1.00261 1.2712 0
M  V30 15976 H 1529.37 -0.388643 4.0283 0
M  V30 15977 H 1527.94 -0.758778 3.03251 0
M  V30 15978 H 1527.16 1.6677 3.57185 0
M  V30 15979 H 1528.45 1.71988 4.7885 0
M  V30 15980 H 1527.84 -1.3841 5.48506 0
M  V30 15981 H 1526.4 -1.21933 6.40293 0
M  V30 15982 N 1529.83 -1.29188 0.902679 0
M  V30 15983 C 1531.06 -1.99576 0.545635 0
M  V30 15984 C 1531.48 -1.67541 -0.870372 0
M  V30 15985 O 1530.83 -0.922082 -1.57493 0
M  V30 15986 C 1530.88 -3.54013 0.731916 0
M  V30 15987 O 1530.61 -3.84914 2.09219 0
M  V30 15988 C 1532.11 -4.41666 0.38022 0
M  V30 15989 H 1529.33 -0.637593 0.209083 0
M  V30 15990 H 1531.87 -1.64652 1.21284 0
M  V30 15991 H 1530.03 -3.87239 0.111849 0
M  V30 15992 H 1530.44 -4.79581 2.12373 0
M  V30 15993 H 1531.91 -5.49138 0.561382 0
M  V30 15994 H 1532.39 -4.33858 -0.682915 0
M  V30 15995 H 1533 -4.13918 0.977354 0
M  V30 15996 N 1531.31 -0.665475 -1.42861 0
M  V30 15997 C 1532.73 -0.334157 -1.56063 0
M  V30 15998 C 1532.93 1.16104 -1.64688 0
M  V30 15999 O 1531.98 1.94622 -1.60867 0
M  V30 16000 C 1533.3 -1.05628 -2.81537 0
M  V30 16001 C 1534.84 -1.03771 -2.95297 0
M  V30 16002 C 1535.32 -1.74098 -4.2362 0
M  V30 16003 N 1536.81 -1.7092 -4.30512 0
M  V30 16004 C 1537.55 -2.222 -5.28597 0
M  V30 16005 N 1537.04 -2.81821 -6.32889 0
M  V30 16006 N 1538.83 -2.12628 -5.20332 0
M  V30 16007 H 1530.99 -1.6356 -1.35506 0
M  V30 16008 H 1533.25 -0.688538 -0.651628 0
M  V30 16009 H 1532.95 -2.11141 -2.81269 0
M  V30 16010 H 1532.83 -0.615586 -3.72143 0
M  V30 16011 H 1535.22 0.00905324 -2.95099 0
M  V30 16012 H 1535.3 -1.51721 -2.05948 0
M  V30 16013 H 1534.94 -2.78737 -4.2458 0
M  V30 16014 H 1534.87 -1.23604 -5.11888 0
M  V30 16015 H 1537.36 -1.27425 -3.55769 0
M  V30 16016 H 1537.67 -3.18594 -7.04072 0
M  V30 16017 H 1536.02 -2.85887 -6.33478 0
M  V30 16018 H 1539.21 -1.65746 -4.37774 0
M  V30 16019 H 1539.38 -2.52899 -5.96612 0
M  V30 16020 N 1532.79 1.52222 -0.408187 0
M  V30 16021 C 1534.04 2.01404 0.167574 0
M  V30 16022 C 1534.36 1.29572 1.45726 0
M  V30 16023 O 1533.63 0.421363 1.91315 0
M  V30 16024 H 1532.21 0.744174 0.0649156 0
M  V30 16025 H 1534.87 1.87148 -0.544212 0
M  V30 16026 H 1533.97 3.09966 0.36436 0
M  V30 16027 N 1534.27 0.138579 1.5699 0
M  V30 16028 C 1535.2 -0.800568 2.19347 0
M  V30 16029 C 1536.18 -1.26318 1.13921 0
M  V30 16030 O 1537.36 -1.32226 1.42232 0
M  V30 16031 C 1534.49 -2.04317 2.80842 0
M  V30 16032 C 1533.45 -1.71764 3.92022 0
M  V30 16033 C 1532.77 -3.03217 4.40413 0
M  V30 16034 C 1534.07 -0.970789 5.13199 0
M  V30 16035 H 1535.77 -0.280888 2.98079 0
M  V30 16036 H 1533.31 -0.133663 1.43378 0
M  V30 16037 H 1535.27 -2.70491 3.2313 0
M  V30 16038 H 1533.99 -2.58643 1.99428 0
M  V30 16039 H 1532.65 -1.07972 3.50339 0
M  V30 16040 H 1532.3 -3.55517 3.55832 0
M  V30 16041 H 1532 -2.82203 5.15398 0
M  V30 16042 H 1533.52 -3.70477 4.85365 0
M  V30 16043 H 1534.94 -1.53445 5.52384 0
M  V30 16044 H 1533.33 -0.860895 5.93893 0
M  V30 16045 H 1534.4 0.0390088 4.84884 0
M  V30 16046 N 1535.75 -1.57019 -0.13521 0
M  V30 16047 C 1536.68 -2.02182 -1.16811 0
M  V30 16048 C 1537.66 -0.9034 -1.44127 0
M  V30 16049 O 1538.84 -1.17202 -1.54846 0
M  V30 16050 C 1535.97 -2.41243 -2.49838 0
M  V30 16051 C 1534.93 -3.56379 -2.37018 0
M  V30 16052 C 1534.25 -3.8129 -3.74863 0
M  V30 16053 C 1535.55 -4.88653 -1.84432 0
M  V30 16054 H 1537.25 -2.8872 -0.792529 0
M  V30 16055 H 1534.79 -1.38901 -0.379788 0
M  V30 16056 H 1536.74 -2.7144 -3.22332 0
M  V30 16057 H 1535.47 -1.51656 -2.89254 0
M  V30 16058 H 1534.13 -3.26366 -1.66975 0
M  V30 16059 H 1533.78 -2.88934 -4.11735 0
M  V30 16060 H 1533.48 -4.58781 -3.67143 0
M  V30 16061 H 1535 -4.13924 -4.48887 0
M  V30 16062 H 1536.41 -5.17492 -2.46729 0
M  V30 16063 H 1534.81 -5.70032 -1.87574 0
M  V30 16064 H 1535.88 -4.78242 -0.800759 0
M  V30 16065 N 1537.22 0.404919 -1.52309 0
M  V30 16066 C 1538.47 1.14921 -1.66246 0
M  V30 16067 C 1538.79 1.90919 -0.396868 0
M  V30 16068 O 1538.06 1.86856 0.588361 0
M  V30 16069 H 1536.64 0.427223 -0.612772 0
M  V30 16070 H 1539.31 0.461091 -1.89367 0
M  V30 16071 H 1538.4 1.86095 -2.5055 0
M  V30 16072 N 1538.7 1.43003 0.662408 0
M  V30 16073 C 1539.94 1.45629 1.43428 0
M  V30 16074 C 1540.31 0.0748804 1.91854 0
M  V30 16075 O 1541.51 -0.0241645 2.68789 0
M  V30 16076 C 1539.78 2.46223 2.59054 0
M  V30 16077 S 1541.34 2.6765 3.47719 0
M  V30 16078 H 1538.16 0.515463 0.489713 0
M  V30 16079 H 1540.76 1.79701 0.769923 0
M  V30 16080 H 1539.46 3.45342 2.21737 0
M  V30 16081 H 1538.99 2.13618 3.3035 0
M  V30 16082 H 1541.01 1.96884 4.55468 0
M  V30 16083 N 1540.18 -0.899904 1.29381 0
M  V30 16084 C 1541.43 -1.64502 1.16713 0
M  V30 16085 C 1541.74 -1.93577 -0.280563 0
M  V30 16086 O 1542.95 -2.66305 -0.528563 0
M  V30 16087 C 1541.4 -2.96414 2.04125 0
M  V30 16088 C 1541.01 -2.74935 3.53716 0
M  V30 16089 C 1542.76 -3.74337 2.0018 0
M  V30 16090 C 1540.66 -4.02571 4.33232 0
M  V30 16091 H 1539.59 -0.617121 0.433218 0
M  V30 16092 H 1542.24 -0.997521 1.54019 0
M  V30 16093 H 1540.63 -3.62375 1.59687 0
M  V30 16094 H 1541.8 -2.17567 4.06203 0
M  V30 16095 H 1540.12 -2.10407 3.5933 0
M  V30 16096 H 1542.71 -4.6897 2.56849 0
M  V30 16097 H 1543.06 -4.04559 0.981735 0
M  V30 16098 H 1543.59 -3.15216 2.4266 0
M  V30 16099 H 1540.33 -3.77516 5.35875 0
M  V30 16100 H 1539.85 -4.59499 3.85514 0
M  V30 16101 H 1541.53 -4.70719 4.43884 0
M  V30 16102 N 1541.66 -1.11854 -1.11024 0
M  V30 16103 C 1542.91 -0.864814 -1.82219 0
M  V30 16104 C 1543.22 0.611349 -1.85801 0
M  V30 16105 O 1544.43 0.981475 -2.53139 0
M  V30 16106 C 1542.88 -1.49745 -3.27268 0
M  V30 16107 C 1542.49 -3.00796 -3.32003 0
M  V30 16108 C 1544.23 -1.32374 -4.03333 0
M  V30 16109 C 1542.14 -3.57023 -4.71475 0
M  V30 16110 H 1541.07 -0.319877 -0.682784 0
M  V30 16111 H 1543.72 -1.34431 -1.24903 0
M  V30 16112 H 1542.1 -0.94562 -3.84544 0
M  V30 16113 H 1543.28 -3.6242 -2.84585 0
M  V30 16114 H 1541.59 -3.17493 -2.6942 0
M  V30 16115 H 1544.19 -1.7181 -5.06345 0
M  V30 16116 H 1544.53 -0.26676 -4.15444 0
M  V30 16117 H 1545.07 -1.84444 -3.52456 0
M  V30 16118 H 1541.81 -4.62453 -4.64562 0
M  V30 16119 H 1541.33 -3.00172 -5.19285 0
M  V30 16120 H 1543 -3.5572 -5.40437 0
M  V30 16121 N 1543.14 1.28707 -0.909517 0
M  V30 16122 C 1544.36 1.99283 -0.556211 0
M  V30 16123 C 1544.78 1.68 0.861475 0
M  V30 16124 O 1544.14 0.930421 1.57001 0
M  V30 16125 C 1544.19 3.5362 -0.75068 0
M  V30 16126 O 1543.91 3.83799 -2.11258 0
M  V30 16127 C 1545.41 4.41459 -0.403637 0
M  V30 16128 H 1542.63 0.636476 -0.212462 0
M  V30 16129 H 1545.17 1.64007 -1.22156 0
M  V30 16130 H 1543.33 3.87174 -0.132384 0
M  V30 16131 H 1543.74 4.78448 -2.14913 0
M  V30 16132 H 1545.22 5.48833 -0.590496 0
M  V30 16133 H 1545.69 4.34214 0.659897 0
M  V30 16134 H 1546.3 4.13394 -0.999292 0
M  V30 16135 N 1544.61 0.673042 1.42506 0
M  V30 16136 C 1545.84 0.201349 2.0642 0
M  V30 16137 C 1546.26 -1.132 1.50224 0
M  V30 16138 O 1545.62 -1.70368 0.620024 0
M  V30 16139 C 1545.67 0.14505 3.60308 0
M  V30 16140 O 1544.77 -0.886953 4.02749 0
M  V30 16141 H 1544.12 0.103975 0.655809 0
M  V30 16142 H 1546.65 0.921559 1.8267 0
M  V30 16143 H 1546.66 -0.0316792 4.07988 0
M  V30 16144 H 1545.33 1.11829 4.00583 0
M  V30 16145 H 1543.91 -0.681408 3.66621 0
M  V30 16146 N 1546.09 -1.52004 0.416254 0
M  V30 16147 C 1547.02 -2.30106 -0.396671 0
M  V30 16148 C 1548 -1.34616 -1.03983 0
M  V30 16149 O 1549.19 -1.63528 -1.04749 0
M  V30 16150 C 1546.32 -3.12769 -1.50972 0
M  V30 16151 C 1545.27 -4.16365 -0.99119 0
M  V30 16152 C 1544.6 -4.87417 -2.19838 0
M  V30 16153 C 1545.9 -5.22284 -0.0402599 0
M  V30 16154 H 1547.59 -2.98312 0.255054 0
M  V30 16155 H 1545.14 -1.43464 0.124106 0
M  V30 16156 H 1547.09 -3.66178 -2.08547 0
M  V30 16157 H 1545.82 -2.42346 -2.18943 0
M  V30 16158 H 1544.47 -3.63976 -0.437803 0
M  V30 16159 H 1544.12 -4.13516 -2.8638 0
M  V30 16160 H 1543.82 -5.57454 -1.85792 0
M  V30 16161 H 1545.35 -5.43641 -2.78006 0
M  V30 16162 H 1546.76 -5.70891 -0.525027 0
M  V30 16163 H 1545.16 -5.99726 0.211742 0
M  V30 16164 H 1546.23 -4.7642 0.902877 0
M  V30 16165 N 1547.57 -0.146903 -1.56914 0
M  V30 16166 C 1548.8 0.511181 -2.00486 0
M  V30 16167 C 1549.21 1.58425 -1.02699 0
M  V30 16168 O 1548.57 1.82484 -0.0239878 0
M  V30 16169 C 1548.62 1.11191 -3.43975 0
M  V30 16170 O 1548.34 0.0817094 -4.38024 0
M  V30 16171 C 1549.84 1.85061 -4.02824 0
M  V30 16172 H 1547.06 0.133078 -0.657671 0
M  V30 16173 H 1549.61 -0.241457 -2.0307 0
M  V30 16174 H 1547.76 1.81517 -3.42243 0
M  V30 16175 H 1548.18 0.52181 -5.21898 0
M  V30 16176 H 1549.65 2.22385 -5.05222 0
M  V30 16177 H 1550.13 2.73649 -3.4353 0
M  V30 16178 H 1550.73 1.19434 -4.08186 0
M  V30 16179 N 1549.05 1.57088 0.126881 0
M  V30 16180 C 1550.3 1.84071 0.834397 0
M  V30 16181 C 1550.62 0.730896 1.80784 0
M  V30 16182 O 1549.89 -0.245791 1.94352 0
M  V30 16183 H 1548.47 0.679123 0.311128 0
M  V30 16184 H 1551.13 1.94554 0.116083 0
M  V30 16185 H 1550.23 2.79714 1.38443 0
M  V30 16186 N 1550.53 -0.396836 1.52522 0
M  V30 16187 C 1551.94 -0.736347 1.41598 0
M  V30 16188 C 1552.14 -1.944 0.530191 0
M  V30 16189 O 1551.2 -2.525 0.000649033 0
M  V30 16190 C 1552.51 -0.978775 2.84325 0
M  V30 16191 C 1554.06 -1.08073 2.9375 0
M  V30 16192 C 1554.53 -1.35584 4.37471 0
M  V30 16193 N 1556.03 -1.42423 4.40761 0
M  V30 16194 C 1556.76 -1.6536 5.49039 0
M  V30 16195 N 1556.26 -1.85819 6.67415 0
M  V30 16196 N 1558.05 -1.67475 5.36571 0
M  V30 16197 H 1550.2 0.397925 2.08639 0
M  V30 16198 H 1552.46 0.115803 0.9409 0
M  V30 16199 H 1552.17 -0.16362 3.51319 0
M  V30 16200 H 1552.04 -1.8956 3.26109 0
M  V30 16201 H 1554.43 -1.88646 2.26928 0
M  V30 16202 H 1554.51 -0.141996 2.55406 0
M  V30 16203 H 1554.16 -0.555238 5.04856 0
M  V30 16204 H 1554.09 -2.3073 4.73362 0
M  V30 16205 H 1556.58 -1.28352 3.55435 0
M  V30 16206 H 1556.89 -2.02806 7.45714 0
M  V30 16207 H 1555.23 -1.83059 6.70458 0
M  V30 16208 H 1558.43 -1.51038 4.43064 0
M  V30 16209 H 1558.6 -1.85011 6.21027 0
M  V30 16210 N 1552.01 -1.43353 -0.654814 0
M  V30 16211 C 1553.28 -1.35363 -1.41195 0
M  V30 16212 C 1553.66 -0.000661523 -2.111 0
M  V30 16213 O 1553.01 1.01583 -2.04678 0
M  V30 16214 C 1553.22 -2.53572 -2.39796 0
M  V30 16215 C 1554.57 -2.96587 -3.03844 0
M  V30 16216 O 1555.59 -2.53607 -2.50124 0
M  V30 16217 O 1554.45 -3.71039 -4.01239 0
M  V30 16218 H 1551.55 -0.534861 -0.630756 0
M  V30 16219 H 1554.09 -1.55399 -0.681857 0
M  V30 16220 H 1552.86 -3.43682 -1.87078 0
M  V30 16221 H 1552.49 -2.35628 -3.20258 0
M  V30 16222 N 1553.48 0.89303 -1.29857 0
M  V30 16223 C 1554.43 1.9979 -1.15554 0
M  V30 16224 C 1555.4 1.66033 -0.0471157 0
M  V30 16225 O 1556.59 1.89575 -0.215846 0
M  V30 16226 C 1553.73 3.34595 -0.844993 0
M  V30 16227 C 1552.84 3.81093 -2.03451 0
M  V30 16228 C 1551.97 5.04506 -1.66275 0
M  V30 16229 C 1551.01 5.4339 -2.8177 0
M  V30 16230 N 1550.15 6.57987 -2.44945 0
M  V30 16231 H 1554.99 2.11355 -2.10079 0
M  V30 16232 H 1552.53 1.03497 -1.04531 0
M  V30 16233 H 1554.48 4.12175 -0.645598 0
M  V30 16234 H 1553.11 3.22738 0.0633626 0
M  V30 16235 H 1552.17 2.99491 -2.34541 0
M  V30 16236 H 1553.48 4.05855 -2.8997 0
M  V30 16237 H 1552.63 5.89688 -1.42664 0
M  V30 16238 H 1551.37 4.81597 -0.769144 0
M  V30 16239 H 1550.38 4.56738 -3.06056 0
M  V30 16240 H 1551.6 5.68276 -3.71805 0
M  V30 16241 H 1549.55 6.36669 -1.58079 0
M  V30 16242 H 1549.46 6.82579 -3.24996 0
M  V30 16243 H 1550.73 7.46421 -2.24669 0
M  V30 16244 N 1554.96 1.12442 1.10429 0
M  V30 16245 C 1555.91 0.787578 2.18861 0
M  V30 16246 C 1556.9 -0.225602 1.67891 0
M  V30 16247 O 1558.11 -0.0838029 1.79805 0
M  V30 16248 H 1554.48 0.236858 0.713724 0
M  V30 16249 H 1556.46 1.71048 2.4451 0
M  V30 16250 C 1555.2 0.25854 3.46737 0
M  V30 16251 H 1554.53 1.02945 3.86319 0
M  V30 16252 H 1555.97 0.0611642 4.23956 0
M  V30 16253 C 1554.43 -1.01353 3.21293 0
M  V30 16254 O 1554.96 -2.09132 3.42967 0
M  V30 16255 N 1553.16 -0.940498 2.7496 0
M  V30 16256 H 1552.71 -0.0632962 2.57522 0
M  V30 16257 H 1552.67 -1.79226 2.58313 0
M  V30 16258 N 1556.44 -1.28223 0.91633 0
M  V30 16259 C 1557.37 -2.26291 0.363986 0
M  V30 16260 C 1558.38 -1.54964 -0.498988 0
M  V30 16261 O 1559.57 -1.75726 -0.31345 0
M  V30 16262 C 1556.67 -3.35219 -0.498126 0
M  V30 16263 C 1555.85 -4.36054 0.34293 0
M  V30 16264 C 1554.91 -5.24232 -0.454688 0
M  V30 16265 O 1553.93 -5.69043 0.133649 0
M  V30 16266 N 1555.13 -5.53268 -1.75714 0
M  V30 16267 H 1557.9 -2.74323 1.20694 0
M  V30 16268 H 1555.46 -1.41731 0.782551 0
M  V30 16269 H 1557.45 -3.91148 -1.03852 0
M  V30 16270 H 1556.02 -2.86876 -1.2418 0
M  V30 16271 H 1555.24 -3.7955 1.06468 0
M  V30 16272 H 1556.53 -5.00444 0.918322 0
M  V30 16273 H 1555.93 -5.18698 -2.25762 0
M  V30 16274 H 1554.48 -6.11943 -2.2443 0
M  V30 16275 N 1557.92 -0.68059 -1.42147 0
M  V30 16276 C 1559.16 -0.205567 -2.01755 0
M  V30 16277 C 1559.5 1.18677 -1.53718 0
M  V30 16278 O 1558.77 1.79796 -0.741867 0
M  V30 16279 C 1559.05 -0.246615 -3.59255 0
M  V30 16280 C 1558.91 -1.67483 -4.17456 0
M  V30 16281 C 1560.23 0.40196 -4.38261 0
M  V30 16282 H 1557.35 -0.0761717 -0.733053 0
M  V30 16283 H 1559.99 -0.866473 -1.69092 0
M  V30 16284 H 1558.14 0.316127 -3.87212 0
M  V30 16285 H 1559.81 -2.29026 -4.00431 0
M  V30 16286 H 1558.05 -2.2137 -3.73065 0
M  V30 16287 H 1558.72 -1.65519 -5.266 0
M  V30 16288 H 1561.2 -0.077135 -4.16028 0
M  V30 16289 H 1560.08 0.342627 -5.4783 0
M  V30 16290 H 1560.34 1.48044 -4.16576 0
M  V30 16291 N 1559.4 1.51781 -0.424309 0
M  V30 16292 C 1560.67 1.94514 0.205791 0
M  V30 16293 C 1561.05 1.36219 1.61269 0
M  V30 16294 O 1560.4 0.544019 2.21929 0
M  V30 16295 C 1560.61 3.48445 0.196749 0
M  V30 16296 C 1561.96 4.22628 0.408702 0
M  V30 16297 O 1562.98 3.55133 0.275441 0
M  V30 16298 O 1561.84 5.42344 0.672698 0
M  V30 16299 H 1558.94 0.815576 0.136983 0
M  V30 16300 H 1561.48 1.6273 -0.481349 0
M  V30 16301 H 1560.25 3.83297 -0.787342 0
M  V30 16302 H 1559.88 3.86634 0.92735 0
M  V30 16303 N 1560.87 0.155222 1.56834 0
M  V30 16304 C 1562.12 -0.49285 1.95998 0
M  V30 16305 C 1562.44 -1.64857 1.0415 0
M  V30 16306 O 1561.71 -1.9562 0.104654 0
M  V30 16307 H 1560.29 -0.185063 0.723713 0
M  V30 16308 H 1562.95 0.232644 1.93507 0
M  V30 16309 H 1562.05 -0.863552 2.99915 0
M  V30 16310 N 1562.35 -1.57153 -0.118549 0
M  V30 16311 C 1563.26 -2.03673 -1.16424 0
M  V30 16312 C 1564.28 -0.957203 -1.45305 0
M  V30 16313 O 1565.45 -1.26874 -1.56413 0
M  V30 16314 C 1562.52 -2.43211 -2.47082 0
M  V30 16315 C 1561.58 -3.65248 -2.25593 0
M  V30 16316 C 1560.81 -4.02891 -3.50021 0
M  V30 16317 O 1561.04 -3.40871 -4.57344 0
M  V30 16318 O 1559.97 -4.95989 -3.40996 0
M  V30 16319 H 1563.8 -2.92996 -0.799206 0
M  V30 16320 H 1561.38 -1.45724 -0.329376 0
M  V30 16321 H 1563.26 -2.69374 -3.24061 0
M  V30 16322 H 1561.94 -1.57034 -2.83058 0
M  V30 16323 H 1560.84 -3.44234 -1.46471 0
M  V30 16324 H 1562.18 -4.52131 -1.94521 0
M  V30 16325 N 1563.83 0.388742 -1.5273 0
M  V30 16326 C 1565.08 1.13543 -1.68035 0
M  V30 16327 C 1565.41 1.89622 -0.419177 0
M  V30 16328 O 1564.68 1.85556 0.583031 0
M  V30 16329 C 1564.97 2.11346 -2.91556 0
M  V30 16330 C 1564.82 1.39029 -4.27775 0
M  V30 16331 C 1566.14 3.11769 -3.10625 0
M  V30 16332 H 1563.26 0.411406 -0.611485 0
M  V30 16333 H 1565.9 0.418781 -1.85327 0
M  V30 16334 H 1564.05 2.7246 -2.76944 0
M  V30 16335 H 1565.72 0.808775 -4.54155 0
M  V30 16336 H 1563.96 0.692133 -4.28243 0
M  V30 16337 H 1564.64 2.10495 -5.1029 0
M  V30 16338 H 1567.11 2.60745 -3.2427 0
M  V30 16339 H 1565.99 3.77447 -3.98529 0
M  V30 16340 H 1566.25 3.80649 -2.24853 0
M  V30 16341 N 1565.31 1.43698 0.647203 0
M  V30 16342 C 1566.24 1.45295 1.77262 0
M  V30 16343 C 1567.25 0.34831 1.5903 0
M  V30 16344 O 1568.44 0.613106 1.6764 0
M  V30 16345 C 1565.54 1.25584 3.14773 0
M  V30 16346 C 1564.71 2.48998 3.59609 0
M  V30 16347 C 1563.77 2.24423 4.75942 0
M  V30 16348 O 1562.8 2.97813 4.85073 0
M  V30 16349 N 1564 1.26465 5.66557 0
M  V30 16350 H 1566.77 2.42311 1.76368 0
M  V30 16351 H 1564.33 1.38931 0.831247 0
M  V30 16352 H 1566.32 1.07016 3.90294 0
M  V30 16353 H 1564.89 0.369927 3.10403 0
M  V30 16354 H 1564.11 2.82951 2.74467 0
M  V30 16355 H 1565.4 3.31119 3.86313 0
M  V30 16356 H 1564.8 0.658206 5.61858 0
M  V30 16357 H 1563.35 1.13879 6.41775 0
M  V30 16358 N 1566.79 -0.886131 1.30328 0
M  V30 16359 C 1568.03 -1.64026 1.19261 0
M  V30 16360 C 1568.37 -1.92553 -0.252379 0
M  V30 16361 O 1567.64 -1.54564 -1.18069 0
M  V30 16362 C 1567.92 -2.9808 2.0204 0
M  V30 16363 C 1567.78 -2.76534 3.54752 0
M  V30 16364 C 1569.1 -3.98989 1.85731 0
M  V30 16365 H 1566.21 -0.595224 0.4346 0
M  V30 16366 H 1568.86 -1.0255 1.59949 0
M  V30 16367 H 1567.01 -3.50552 1.67469 0
M  V30 16368 H 1568.68 -2.3086 3.99376 0
M  V30 16369 H 1566.92 -2.1106 3.78993 0
M  V30 16370 H 1567.59 -3.71849 4.07961 0
M  V30 16371 H 1570.07 -3.55673 2.15953 0
M  V30 16372 H 1568.94 -4.90699 2.45979 0
M  V30 16373 H 1569.21 -4.34501 0.816152 0
M  V30 16374 N 1568.26 -1.13026 -1.09832 0
M  V30 16375 C 1569.19 -0.826338 -2.18389 0
M  V30 16376 C 1570.18 0.212529 -1.68767 0
M  V30 16377 O 1571.36 0.072363 -1.94065 0
M  V30 16378 C 1568.49 -0.286991 -3.46112 0
M  V30 16379 C 1567.44 -1.25963 -4.09044 0
M  V30 16380 C 1566.77 -0.580231 -5.31542 0
M  V30 16381 C 1568.07 -2.61661 -4.5203 0
M  V30 16382 H 1569.76 -1.73408 -2.4407 0
M  V30 16383 H 1567.31 -0.835201 -1.17305 0
M  V30 16384 H 1569.26 -0.062067 -4.21354 0
M  V30 16385 H 1567.99 0.656121 -3.19942 0
M  V30 16386 H 1566.65 -1.47047 -3.35816 0
M  V30 16387 H 1566.29 0.368222 -5.0165 0
M  V30 16388 H 1565.99 -1.2291 -5.74601 0
M  V30 16389 H 1567.52 -0.36449 -6.09511 0
M  V30 16390 H 1568.93 -2.44569 -5.18516 0
M  V30 16391 H 1567.33 -3.22685 -5.05959 0
M  V30 16392 H 1568.4 -3.19637 -3.64637 0
M  V30 16393 N 1569.74 1.27735 -0.923117 0
M  V30 16394 C 1570.97 1.9922 -0.57672 0
M  V30 16395 C 1571.39 1.68446 0.837113 0
M  V30 16396 O 1570.75 0.922129 1.56098 0
M  V30 16397 C 1570.8 3.51528 -0.803768 0
M  V30 16398 O 1569.9 4.12186 0.132829 0
M  V30 16399 H 1569.24 0.625593 -0.222553 0
M  V30 16400 H 1571.77 1.62657 -1.24112 0
M  V30 16401 H 1571.78 4.01641 -0.717534 0
M  V30 16402 H 1570.46 3.7326 -1.83439 0
M  V30 16403 H 1569.04 3.729 -0.00292957 0
M  V30 16404 N 1571.22 0.688118 1.41784 0
M  V30 16405 C 1572.45 0.22475 2.05676 0
M  V30 16406 C 1572.86 -1.1232 1.51755 0
M  V30 16407 O 1572.22 -1.70041 0.662735 0
M  V30 16408 C 1572.27 0.165661 3.6112 0
M  V30 16409 O 1571.99 1.46035 4.13044 0
M  V30 16410 C 1573.49 -0.319599 4.42146 0
M  V30 16411 H 1570.71 0.106135 0.662553 0
M  V30 16412 H 1573.26 0.938605 1.81688 0
M  V30 16413 H 1571.41 -0.498968 3.84173 0
M  V30 16414 H 1571.83 1.34252 5.07027 0
M  V30 16415 H 1573.3 -0.30983 5.5113 0
M  V30 16416 H 1573.78 -1.3572 4.17704 0
M  V30 16417 H 1574.38 0.313764 4.24141 0
M  V30 16418 N 1572.7 -1.51554 0.432352 0
M  V30 16419 C 1573.66 -2.26195 -0.369912 0
M  V30 16420 C 1574.66 -1.29446 -0.953961 0
M  V30 16421 O 1575.85 -1.53199 -0.829193 0
M  V30 16422 C 1572.98 -3.04993 -1.52289 0
M  V30 16423 H 1574.18 -2.98551 0.284173 0
M  V30 16424 H 1571.73 -1.55197 0.1854 0
M  V30 16425 H 1572.46 -2.37043 -2.21317 0
M  V30 16426 H 1572.25 -3.76051 -1.11032 0
M  V30 16427 H 1573.74 -3.61547 -2.08982 0
M  V30 16428 N 1574.18 -0.163538 -1.56749 0
M  V30 16429 C 1575.4 0.489888 -2.01017 0
M  V30 16430 C 1575.82 1.57327 -1.04373 0
M  V30 16431 O 1575.18 1.82449 -0.0433414 0
M  V30 16432 C 1575.23 1.07537 -3.45135 0
M  V30 16433 O 1574.95 0.0352465 -4.38086 0
M  V30 16434 C 1576.45 1.80779 -4.04764 0
M  V30 16435 H 1573.67 0.126095 -0.659046 0
M  V30 16436 H 1576.21 -0.262982 -2.02802 0
M  V30 16437 H 1574.37 1.77877 -3.44149 0
M  V30 16438 H 1574.78 0.466426 -5.22422 0
M  V30 16439 H 1576.26 2.17014 -5.07552 0
M  V30 16440 H 1576.73 2.6999 -3.46413 0
M  V30 16441 H 1577.34 1.15098 -4.09429 0
M  V30 16442 N 1575.65 1.57214 0.110213 0
M  V30 16443 C 1576.59 1.97641 1.16064 0
M  V30 16444 C 1577.6 0.876886 1.37166 0
M  V30 16445 O 1578.79 1.15512 1.36086 0
M  V30 16446 C 1575.89 2.2671 2.51904 0
M  V30 16447 C 1575.06 3.58015 2.51285 0
M  V30 16448 C 1574.12 3.75195 3.68938 0
M  V30 16449 O 1573.15 4.47214 3.5212 0
M  V30 16450 N 1574.35 3.14627 4.87842 0
M  V30 16451 H 1577.11 2.88358 0.816679 0
M  V30 16452 H 1574.67 1.59108 0.299383 0
M  V30 16453 H 1576.67 2.35411 3.29187 0
M  V30 16454 H 1575.24 1.42076 2.78448 0
M  V30 16455 H 1574.46 3.60422 1.59655 0
M  V30 16456 H 1575.74 4.44303 2.47936 0
M  V30 16457 H 1575.14 2.56101 5.0441 0
M  V30 16458 H 1573.7 3.28836 5.6277 0
M  V30 16459 N 1577.13 -0.380637 1.52934 0
M  V30 16460 C 1578.36 -1.15033 1.72575 0
M  V30 16461 C 1578.78 -1.82715 0.446869 0
M  V30 16462 O 1578.14 -1.71154 -0.598004 0
M  V30 16463 C 1578.19 -2.16773 2.8817 0
M  V30 16464 O 1577.29 -3.23539 2.55727 0
M  V30 16465 H 1576.63 -0.334489 0.573597 0
M  V30 16466 H 1579.16 -0.442369 1.9976 0
M  V30 16467 H 1579.17 -2.60629 3.13905 0
M  V30 16468 H 1577.85 -1.669 3.80943 0
M  V30 16469 H 1576.43 -2.84761 2.4076 0
M  V30 16470 N 1578.61 -1.44039 -0.639573 0
M  V30 16471 C 1579.86 -1.46377 -1.39928 0
M  V30 16472 C 1580.19 -0.0931685 -1.94277 0
M  V30 16473 O 1579.44 0.903841 -1.73578 0
M  V30 16474 C 1579.74 -2.46459 -2.5883 0
M  V30 16475 C 1579.41 -3.91998 -2.2282 0
M  V30 16476 C 1578.07 -4.31633 -2.12712 0
M  V30 16477 C 1580.42 -4.83656 -1.94232 0
M  V30 16478 C 1577.75 -5.60863 -1.72191 0
M  V30 16479 C 1580.1 -6.13265 -1.55206 0
M  V30 16480 C 1578.76 -6.51863 -1.43633 0
M  V30 16481 H 1578.03 -0.535633 -0.512034 0
M  V30 16482 H 1580.68 -1.77202 -0.72607 0
M  V30 16483 H 1578.99 -2.09087 -3.31345 0
M  V30 16484 H 1580.68 -2.45518 -3.17052 0
M  V30 16485 H 1577.27 -3.60636 -2.31602 0
M  V30 16486 H 1581.46 -4.53796 -2.00955 0
M  V30 16487 H 1576.71 -5.89595 -1.61828 0
M  V30 16488 H 1580.89 -6.83752 -1.32121 0
M  V30 16489 H 1578.51 -7.51903 -1.12006 0
M  V30 16490 N 1580.09 0.879207 -1.30796 0
M  V30 16491 C 1581.02 2.00158 -1.20246 0
M  V30 16492 C 1582 1.69852 -0.091769 0
M  V30 16493 O 1583.18 1.92246 -0.274792 0
M  V30 16494 C 1580.31 3.3545 -0.899472 0
M  V30 16495 C 1579.27 3.80033 -1.96873 0
M  V30 16496 C 1578.59 5.12681 -1.51861 0
M  V30 16497 C 1579.89 3.98136 -3.38061 0
M  V30 16498 H 1581.59 2.09242 -2.14145 0
M  V30 16499 H 1579.13 1.00535 -1.03096 0
M  V30 16500 H 1581.09 4.13497 -0.812299 0
M  V30 16501 H 1579.81 3.26513 0.075189 0
M  V30 16502 H 1578.47 3.04219 -2.04564 0
M  V30 16503 H 1578.12 5.00178 -0.532063 0
M  V30 16504 H 1577.82 5.43482 -2.23386 0
M  V30 16505 H 1579.34 5.93247 -1.44534 0
M  V30 16506 H 1580.76 4.66604 -3.33096 0
M  V30 16507 H 1579.15 4.40321 -4.07722 0
M  V30 16508 H 1580.22 3.01807 -3.79526 0
M  V30 16509 N 1581.57 1.13606 1.09231 0
M  V30 16510 C 1582.53 0.818197 2.14099 0
M  V30 16511 C 1583.53 -0.173275 1.59864 0
M  V30 16512 O 1584.72 0.05405 1.74116 0
M  V30 16513 C 1581.85 0.218138 3.40201 0
M  V30 16514 H 1583.05 1.74748 2.43727 0
M  V30 16515 H 1580.6 0.940962 1.24802 0
M  V30 16516 H 1581.33 -0.720269 3.162 0
M  V30 16517 H 1581.12 0.932156 3.80859 0
M  V30 16518 H 1582.61 0.0126639 4.17598 0
M  V30 16519 N 1583.05 -1.27244 0.929878 0
M  V30 16520 C 1584.27 -1.98373 0.587845 0
M  V30 16521 C 1584.69 -1.69349 -0.834638 0
M  V30 16522 O 1584.05 -0.955281 -1.55501 0
M  V30 16523 C 1584.1 -3.52381 0.806843 0
M  V30 16524 O 1583.82 -3.8039 2.17337 0
M  V30 16525 C 1585.32 -4.40761 0.473818 0
M  V30 16526 H 1582.54 -0.633015 0.22256 0
M  V30 16527 H 1585.08 -1.62043 1.2475 0
M  V30 16528 H 1583.24 -3.86914 0.193963 0
M  V30 16529 H 1583.65 -4.74968 2.22498 0
M  V30 16530 H 1585.13 -5.47824 0.677736 0
M  V30 16531 H 1585.6 -4.35209 -0.590734 0
M  V30 16532 H 1586.21 -4.11751 1.06493 0
M  V30 16533 N 1584.52 -0.695628 -1.41417 0
M  V30 16534 C 1585.76 -0.230776 -2.03093 0
M  V30 16535 C 1586.13 1.14793 -1.53904 0
M  V30 16536 O 1587.33 1.70864 -2.07507 0
M  V30 16537 C 1585.6 -0.286132 -3.56253 0
M  V30 16538 S 1587.16 0.104665 -4.38675 0
M  V30 16539 H 1583.98 -0.0929772 -0.704894 0
M  V30 16540 H 1586.58 -0.913417 -1.72849 0
M  V30 16541 H 1585.28 -1.29155 -3.89547 0
M  V30 16542 H 1584.81 0.415655 -3.91198 0
M  V30 16543 H 1586.83 1.33239 -4.77977 0
M  V30 16544 N 1586 1.51322 -0.440383 0
M  V30 16545 C 1587.25 2.02413 0.125248 0
M  V30 16546 C 1587.58 1.32374 1.42094 0
M  V30 16547 O 1586.86 0.439624 1.89467 0
M  V30 16548 C 1587.14 3.58483 0.340858 0
M  V30 16549 C 1586.99 4.39134 -0.973701 0
M  V30 16550 C 1588.31 4.25891 1.10927 0
M  V30 16551 H 1585.43 0.735683 0.0440452 0
M  V30 16552 H 1588.07 1.80932 -0.579976 0
M  V30 16553 H 1586.22 3.76917 0.941572 0
M  V30 16554 H 1587.89 4.32343 -1.60863 0
M  V30 16555 H 1586.14 4.04097 -1.57759 0
M  V30 16556 H 1586.81 5.46506 -0.776845 0
M  V30 16557 H 1589.28 4.11746 0.600403 0
M  V30 16558 H 1588.16 5.34967 1.2289 0
M  V30 16559 H 1588.42 3.86958 2.13813 0
M  V30 16560 N 1587.48 0.171848 1.5666 0
M  V30 16561 C 1588.43 -0.775125 2.19305 0
M  V30 16562 C 1589.42 -1.23711 1.15724 0
M  V30 16563 O 1590.63 -1.2027 1.33922 0
M  V30 16564 H 1587 -0.268245 0.70253 0
M  V30 16565 H 1588.97 -0.222823 2.97567 0
M  V30 16566 C 1587.72 -1.99397 2.84844 0
M  V30 16567 H 1587.05 -1.64752 3.64276 0
M  V30 16568 H 1588.49 -2.63545 3.32145 0
M  V30 16569 C 1586.94 -2.81794 1.84645 0
M  V30 16570 O 1587.47 -3.78964 1.33225 0
M  V30 16571 N 1585.68 -2.4682 1.5339 0
M  V30 16572 H 1585.23 -1.67862 1.95397 0
M  V30 16573 H 1585.19 -3.02238 0.866004 0
M  V30 16574 N 1588.96 -1.5727 -0.101874 0
M  V30 16575 C 1590.21 -1.85375 -0.805007 0
M  V30 16576 C 1590.53 -0.759564 -1.79599 0
M  V30 16577 O 1589.8 0.21484 -1.94718 0
M  V30 16578 H 1588.38 -0.683987 -0.300284 0
M  V30 16579 H 1591.04 -1.94714 -0.0851166 0
M  V30 16580 H 1590.13 -2.81881 -1.33976 0
M  V30 16581 N 1590.44 0.372521 -1.53134 0
M  V30 16582 C 1591.68 1.11754 -1.6923 0
M  V30 16583 C 1592.01 1.89167 -0.439265 0
M  V30 16584 O 1591.29 1.86164 0.563317 0
M  V30 16585 C 1591.57 2.08242 -2.93781 0
M  V30 16586 C 1591.43 1.34484 -4.29225 0
M  V30 16587 C 1592.74 3.08457 -3.13914 0
M  V30 16588 H 1589.86 0.404898 -0.615814 0
M  V30 16589 H 1592.51 0.399101 -1.85761 0
M  V30 16590 H 1590.66 2.69507 -2.79818 0
M  V30 16591 H 1592.33 0.76056 -4.54987 0
M  V30 16592 H 1590.57 0.646673 -4.28953 0
M  V30 16593 H 1591.24 2.05071 -5.12494 0
M  V30 16594 H 1593.72 2.57292 -3.27017 0
M  V30 16595 H 1592.59 3.73198 -4.0251 0
M  V30 16596 H 1592.85 3.78243 -2.28878 0
M  V30 16597 N 1591.91 1.44376 0.631925 0
M  V30 16598 C 1593.15 1.48638 1.40307 0
M  V30 16599 C 1593.52 0.115559 1.91652 0
M  V30 16600 O 1594.72 0.0328551 2.6878 0
M  V30 16601 C 1592.99 2.51663 2.53773 0
M  V30 16602 S 1594.55 2.74966 3.41964 0
M  V30 16603 H 1591.37 0.525735 0.478669 0
M  V30 16604 H 1593.97 1.81294 0.731632 0
M  V30 16605 H 1592.67 3.49968 2.14361 0
M  V30 16606 H 1592.2 2.20577 3.25744 0
M  V30 16607 H 1594.22 2.06501 4.51189 0
M  V30 16608 N 1593.39 -0.872258 1.31261 0
M  V30 16609 C 1594.64 -1.62747 1.22004 0
M  V30 16610 C 1594.99 -1.91135 -0.220238 0
M  V30 16611 O 1594.29 -1.53024 -1.153 0
M  V30 16612 C 1594.48 -2.96524 1.9952 0
M  V30 16613 C 1594.31 -2.81198 3.50939 0
M  V30 16614 C 1593.08 -2.80506 4.20291 0
M  V30 16615 C 1595.28 -2.56222 4.45931 0
M  V30 16616 N 1593.26 -2.56205 5.57882 0
M  V30 16617 C 1594.63 -2.41163 5.71174 0
M  V30 16618 C 1596.68 -2.41548 4.35383 0
M  V30 16619 C 1595.39 -2.12923 6.87064 0
M  V30 16620 C 1597.41 -2.14695 5.51053 0
M  V30 16621 C 1596.78 -2.00423 6.75285 0
M  V30 16622 H 1592.87 -0.599977 0.501549 0
M  V30 16623 H 1595.46 -1.02681 1.65423 0
M  V30 16624 H 1593.63 -3.54599 1.58473 0
M  V30 16625 H 1595.36 -3.61315 1.82301 0
M  V30 16626 H 1592.12 -2.92804 3.7224 0
M  V30 16627 H 1592.54 -2.47032 6.30321 0
M  V30 16628 H 1597.18 -2.51311 3.40004 0
M  V30 16629 H 1594.9 -2.01897 7.82472 0
M  V30 16630 H 1598.49 -2.04145 5.44808 0
M  V30 16631 H 1597.37 -1.79938 7.63277 0
M  V30 16632 N 1594.87 -1.14184 -1.08627 0
M  V30 16633 C 1596.1 -0.932104 -1.84714 0
M  V30 16634 C 1596.51 0.519335 -1.81517 0
M  V30 16635 O 1595.87 1.35978 -1.21722 0
M  V30 16636 C 1595.92 -1.42217 -3.3235 0
M  V30 16637 O 1595.64 -2.81674 -3.35547 0
M  V30 16638 C 1597.14 -1.25205 -4.25251 0
M  V30 16639 H 1594.36 -0.331854 -0.583193 0
M  V30 16640 H 1596.91 -1.51641 -1.37205 0
M  V30 16641 H 1595.06 -0.880679 -3.77257 0
M  V30 16642 H 1595.48 -3.03615 -4.2769 0
M  V30 16643 H 1596.95 -1.64358 -5.26963 0
M  V30 16644 H 1597.43 -0.194659 -4.38768 0
M  V30 16645 H 1598.03 -1.78198 -3.86168 0
M  V30 16646 N 1596.35 1.26749 -0.936613 0
M  V30 16647 C 1597.59 1.94251 -0.582616 0
M  V30 16648 C 1597.93 1.73352 0.875361 0
M  V30 16649 O 1597.2 1.06784 1.62565 0
M  V30 16650 C 1597.49 3.48145 -0.920151 0
M  V30 16651 C 1597.34 3.78349 -2.43253 0
M  V30 16652 C 1598.66 4.37971 -0.432326 0
M  V30 16653 H 1595.78 0.705507 -0.213141 0
M  V30 16654 H 1598.42 1.49703 -1.17001 0
M  V30 16655 H 1596.57 3.8622 -0.420279 0
M  V30 16656 H 1598.24 3.50015 -3.00478 0
M  V30 16657 H 1596.48 3.24586 -2.87795 0
M  V30 16658 H 1597.15 4.85902 -2.61922 0
M  V30 16659 H 1599.63 4.07098 -0.860857 0
M  V30 16660 H 1598.51 5.44452 -0.697366 0
M  V30 16661 H 1598.77 4.37029 0.667694 0
M  V30 16662 N 1597.83 0.703118 1.41046 0
M  V30 16663 C 1599.06 0.246194 2.05128 0
M  V30 16664 C 1599.46 -1.11245 1.5304 0
M  V30 16665 O 1598.81 -1.70783 0.676678 0
M  V30 16666 C 1598.87 0.134596 3.59248 0
M  V30 16667 C 1598.53 1.4265 4.34166 0
M  V30 16668 C 1599.53 2.3659 4.62948 0
M  V30 16669 C 1597.22 1.68196 4.73303 0
M  V30 16670 C 1599.21 3.54332 5.29837 0
M  V30 16671 C 1596.9 2.86223 5.39926 0
M  V30 16672 C 1597.89 3.79114 5.68121 0
M  V30 16673 O 1597.58 4.95072 6.33371 0
M  V30 16674 H 1597.31 0.110667 0.66688 0
M  V30 16675 H 1599.87 0.958407 1.81669 0
M  V30 16676 H 1598.1 -0.633453 3.81476 0
M  V30 16677 H 1599.79 -0.286131 4.0489 0
M  V30 16678 H 1600.55 2.18113 4.33188 0
M  V30 16679 H 1596.43 0.96753 4.50733 0
M  V30 16680 H 1599.98 4.26855 5.51762 0
M  V30 16681 H 1595.87 3.04614 5.69105 0
M  V30 16682 H 1596.64 4.94986 6.51868 0
M  V30 16683 N 1599.3 -1.51086 0.448402 0
M  V30 16684 C 1600.25 -2.24885 -0.375609 0
M  V30 16685 C 1601.24 -1.27553 -0.980769 0
M  V30 16686 O 1602.43 -1.52583 -0.897076 0
M  V30 16687 C 1599.56 -3.10235 -1.47 0
M  V30 16688 C 1598.65 -4.15003 -0.873686 0
M  V30 16689 N 1599.04 -5.05799 -0.00756268 0
M  V30 16690 C 1597.33 -4.31182 -1.14009 0
M  V30 16691 C 1598.04 -5.80772 0.328514 0
M  V30 16692 N 1597.01 -5.42822 -0.290661 0
M  V30 16693 H 1600.81 -2.92446 0.291962 0
M  V30 16694 H 1598.33 -1.60287 0.261145 0
M  V30 16695 H 1600.32 -3.61691 -2.07328 0
M  V30 16696 H 1598.98 -2.44219 -2.13979 0
M  V30 16697 H 1600 -5.1665 0.359676 0
M  V30 16698 H 1596.67 -3.7639 -1.80656 0
M  V30 16699 H 1598.06 -6.63896 1.03399 0
M  V30 16700 N 1600.78 -0.180154 -1.56567 0
M  V30 16701 C 1602.03 0.461606 -1.96758 0
M  V30 16702 C 1602.35 1.63179 -1.0676 0
M  V30 16703 O 1601.62 1.95429 -0.135762 0
M  V30 16704 H 1600.2 0.173526 -0.726566 0
M  V30 16705 H 1602.86 -0.2634 -1.93112 0
M  V30 16706 H 1601.96 0.815729 -3.01251 0
M  V30 16707 N 1602.26 1.57322 0.0935319 0
M  V30 16708 C 1603.22 2.0121 1.0976 0
M  V30 16709 C 1604.22 0.905839 1.32858 0
M  V30 16710 O 1605.41 1.17128 1.28945 0
M  V30 16711 C 1602.55 2.37414 2.44638 0
M  V30 16712 H 1603.74 2.91134 0.719809 0
M  V30 16713 H 1601.29 1.52588 0.338625 0
M  V30 16714 H 1602.03 1.50449 2.8729 0
M  V30 16715 H 1601.81 3.1812 2.2922 0
M  V30 16716 H 1603.3 2.7202 3.16851 0
M  V30 16717 N 1603.74 -0.364395 1.53329 0
M  V30 16718 C 1604.99 -1.10473 1.69234 0
M  V30 16719 C 1605.31 -1.89799 0.447347 0
M  V30 16720 O 1604.58 -1.8835 -0.538612 0
M  V30 16721 H 1603.16 -0.410826 0.623884 0
M  V30 16722 H 1605.82 -0.410721 1.90523 0
M  V30 16723 H 1604.92 -1.79387 2.55396 0
M  V30 16724 N 1605.22 -1.44709 -0.62426 0
M  V30 16725 C 1606.44 -1.51573 -1.41564 0
M  V30 16726 C 1606.87 -0.143806 -1.87549 0
M  V30 16727 O 1606.22 0.868361 -1.59151 0
M  V30 16728 C 1606.27 -2.49085 -2.60747 0
M  V30 16729 O 1605.38 -1.99712 -3.60817 0
M  V30 16730 H 1604.72 -0.51157 -0.423311 0
M  V30 16731 H 1607.25 -1.89908 -0.761316 0
M  V30 16732 H 1607.26 -2.67346 -3.08205 0
M  V30 16733 H 1605.93 -3.48733 -2.26624 0
M  V30 16734 H 1604.51 -1.9125 -3.20122 0
M  V30 16735 N 1606.69 0.865285 -1.31722 0
M  V30 16736 C 1607.64 1.97294 -1.19766 0
M  V30 16737 C 1608.61 1.65896 -0.0823232 0
M  V30 16738 O 1609.8 1.89075 -0.256009 0
M  V30 16739 C 1606.94 3.32727 -0.915776 0
M  V30 16740 C 1606.05 3.76691 -2.11489 0
M  V30 16741 C 1605.18 5.00865 -1.76939 0
M  V30 16742 C 1604.22 5.37291 -2.93232 0
M  V30 16743 N 1603.36 6.52643 -2.58846 0
M  V30 16744 H 1608.2 2.06851 -2.14515 0
M  V30 16745 H 1605.74 1.01256 -1.06703 0
M  V30 16746 H 1607.7 4.10712 -0.732881 0
M  V30 16747 H 1606.33 3.228 -0.00510917 0
M  V30 16748 H 1605.38 2.94449 -2.4084 0
M  V30 16749 H 1606.69 3.99613 -2.98514 0
M  V30 16750 H 1605.84 5.86529 -1.5514 0
M  V30 16751 H 1604.58 4.79857 -0.871125 0
M  V30 16752 H 1603.59 4.50143 -3.15675 0
M  V30 16753 H 1604.81 5.60262 -3.83775 0
M  V30 16754 H 1602.76 6.33172 -1.71548 0
M  V30 16755 H 1602.68 6.75531 -3.39401 0
M  V30 16756 H 1603.94 7.41487 -2.40451 0
M  V30 16757 N 1608.17 1.14759 1.0802 0
M  V30 16758 C 1609.4 0.941887 1.84218 0
M  V30 16759 C 1609.82 -0.509702 1.8179 0
M  V30 16760 O 1609.17 -1.35331 1.22441 0
M  V30 16761 C 1609.22 1.43978 3.31591 0
M  V30 16762 O 1608.94 2.83449 3.34048 0
M  V30 16763 C 1610.45 1.27459 4.24581 0
M  V30 16764 H 1607.67 0.334942 0.581425 0
M  V30 16765 H 1610.21 1.52367 1.36399 0
M  V30 16766 H 1608.36 0.900674 3.76785 0
M  V30 16767 H 1608.78 3.05878 4.26073 0
M  V30 16768 H 1610.25 1.67151 5.26084 0
M  V30 16769 H 1610.73 0.217925 4.38659 0
M  V30 16770 H 1611.34 1.80243 3.85217 0
M  V30 16771 N 1609.65 -1.26251 0.943322 0
M  V30 16772 C 1610.58 -2.28673 0.472347 0
M  V30 16773 C 1611.56 -1.63319 -0.475481 0
M  V30 16774 O 1612.75 -1.90508 -0.376875 0
M  V30 16775 C 1609.88 -3.46316 -0.261286 0
M  V30 16776 C 1608.83 -4.23771 0.600192 0
M  V30 16777 C 1608.16 -5.3405 -0.263525 0
M  V30 16778 C 1609.46 -4.87576 1.87262 0
M  V30 16779 H 1611.15 -2.68319 1.32836 0
M  V30 16780 H 1608.7 -1.28987 0.640182 0
M  V30 16781 H 1610.65 -4.1708 -0.601821 0
M  V30 16782 H 1609.37 -3.05629 -1.15146 0
M  V30 16783 H 1608.03 -3.54774 0.923651 0
M  V30 16784 H 1607.68 -4.89604 -1.15312 0
M  V30 16785 H 1607.38 -5.86784 0.309495 0
M  V30 16786 H 1608.9 -6.07652 -0.599281 0
M  V30 16787 H 1610.32 -5.50544 1.59919 0
M  V30 16788 H 1608.72 -5.50437 2.39038 0
M  V30 16789 H 1609.79 -4.10397 2.58268 0
M  V30 16790 N 1611.13 -0.710588 -1.40671 0
M  V30 16791 C 1612.09 -0.0635988 -2.29112 0
M  V30 16792 C 1613.09 0.692537 -1.45123 0
M  V30 16793 O 1614.28 0.525184 -1.66095 0
M  V30 16794 C 1611.41 0.919955 -3.28252 0
M  V30 16795 H 1612.61 -0.842477 -2.87823 0
M  V30 16796 H 1610.16 -0.474948 -1.48909 0
M  V30 16797 H 1610.9 1.72607 -2.7455 0
M  V30 16798 H 1610.68 0.38071 -3.90247 0
M  V30 16799 H 1612.17 1.36997 -3.94489 0
M  V30 16800 N 1612.61 1.50847 -0.456408 0
M  V30 16801 C 1613.86 2.01835 0.103414 0
M  V30 16802 C 1614.18 1.34142 1.4153 0
M  V30 16803 O 1613.45 0.482015 1.89877 0
M  V30 16804 H 1612.03 0.745863 0.0412074 0
M  V30 16805 H 1614.69 1.85322 -0.603477 0
M  V30 16806 H 1613.78 3.10968 0.265562 0
M  V30 16807 N 1614.09 0.188454 1.56469 0
M  V30 16808 C 1615.5 -0.325309 1.83844 0
M  V30 16809 C 1615.85 -1.61858 1.1089 0
M  V30 16810 O 1614.97 -2.13256 0.36752 0
M  V30 16811 C 1615.57 -0.597002 3.33499 0
M  V30 16812 C 1614.13 -1.05515 3.61308 0
M  V30 16813 C 1613.27 -0.100182 2.77119 0
M  V30 16814 H 1616.22 0.412378 1.53249 0
M  V30 16815 H 1616.25 -1.44709 3.51908 0
M  V30 16816 H 1615.76 0.344429 3.86569 0
M  V30 16817 H 1613.86 -2.01109 3.13665 0
M  V30 16818 H 1613.97 -0.952461 4.69537 0
M  V30 16819 H 1612.34 -0.600815 2.47512 0
M  V30 16820 H 1613.12 0.835574 3.32976 0
M  V30 16821 N 1615.56 -1.5737 -0.0851874 0
M  V30 16822 C 1616.51 -2.02758 -1.10262 0
M  V30 16823 C 1617.48 -0.905702 -1.39235 0
M  V30 16824 O 1618.67 -1.17241 -1.50529 0
M  V30 16825 C 1615.81 -2.46528 -2.41492 0
M  V30 16826 C 1614.92 -3.72278 -2.19165 0
M  V30 16827 C 1614.05 -4.04885 -3.43863 0
M  V30 16828 C 1613.09 -5.23715 -3.16842 0
M  V30 16829 N 1612.23 -5.52026 -4.33833 0
M  V30 16830 H 1617.07 -2.89453 -0.708583 0
M  V30 16831 H 1614.61 -1.43156 -0.338332 0
M  V30 16832 H 1616.56 -2.69952 -3.18091 0
M  V30 16833 H 1615.19 -1.62829 -2.78723 0
M  V30 16834 H 1614.25 -3.56272 -1.33321 0
M  V30 16835 H 1615.56 -4.5902 -1.95197 0
M  V30 16836 H 1614.71 -4.29138 -4.28865 0
M  V30 16837 H 1613.45 -3.16683 -3.70895 0
M  V30 16838 H 1612.46 -4.99272 -2.30234 0
M  V30 16839 H 1613.68 -6.13523 -2.91146 0
M  V30 16840 H 1611.63 -4.66784 -4.60922 0
M  V30 16841 H 1611.54 -6.3316 -4.13091 0
M  V30 16842 H 1612.81 -5.80822 -5.19871 0
M  V30 16843 N 1617.04 0.356258 -1.53521 0
M  V30 16844 C 1618.29 1.09573 -1.69818 0
M  V30 16845 C 1618.61 1.89559 -0.457406 0
M  V30 16846 O 1617.88 1.88633 0.528616 0
M  V30 16847 H 1616.46 0.407512 -0.626054 0
M  V30 16848 H 1619.12 0.400612 -1.90738 0
M  V30 16849 H 1618.22 1.7803 -2.56343 0
M  V30 16850 N 1618.52 1.45038 0.616577 0
M  V30 16851 C 1619.93 1.4316 1.19842 0
M  V30 16852 C 1620.28 0.154504 1.95591 0
M  V30 16853 O 1619.41 -0.744409 2.03193 0
M  V30 16854 C 1620 2.59354 2.17993 0
M  V30 16855 C 1618.56 2.60625 2.71573 0
M  V30 16856 C 1617.71 2.35243 1.4682 0
M  V30 16857 H 1620.66 1.53408 0.406402 0
M  V30 16858 H 1620.68 2.32939 3.00865 0
M  V30 16859 H 1620.19 3.52288 1.62833 0
M  V30 16860 H 1618.29 1.71672 3.30695 0
M  V30 16861 H 1618.41 3.59568 3.16619 0
M  V30 16862 H 1616.77 1.84622 1.75462 0
M  V30 16863 H 1617.55 3.3031 0.935414 0
M  V30 16864 N 1620 -0.858287 1.32179 0
M  V30 16865 C 1621.25 -1.60706 1.21887 0
M  V30 16866 C 1621.56 -1.94372 -0.218836 0
M  V30 16867 O 1622.77 -2.67852 -0.443572 0
M  V30 16868 C 1621.22 -2.8977 2.13452 0
M  V30 16869 C 1620.83 -2.63542 3.62284 0
M  V30 16870 C 1622.57 -3.67779 2.11988 0
M  V30 16871 C 1620.48 -3.88584 4.45821 0
M  V30 16872 H 1619.41 -0.603026 0.452632 0
M  V30 16873 H 1622.06 -0.948016 1.57114 0
M  V30 16874 H 1620.44 -3.57112 1.71135 0
M  V30 16875 H 1621.62 -2.04534 4.12919 0
M  V30 16876 H 1619.93 -1.98869 3.65842 0
M  V30 16877 H 1622.53 -4.60561 2.71639 0
M  V30 16878 H 1622.87 -4.0123 1.10995 0
M  V30 16879 H 1623.41 -3.07336 2.52565 0
M  V30 16880 H 1620.14 -3.60276 5.47614 0
M  V30 16881 H 1619.66 -4.47001 3.99937 0
M  V30 16882 H 1621.34 -4.56358 4.58635 0
M  V30 16883 N 1621.48 -1.1533 -1.07409 0
M  V30 16884 C 1622.7 -0.951643 -1.83715 0
M  V30 16885 C 1623.12 0.500054 -1.82057 0
M  V30 16886 O 1622.48 1.3468 -1.23157 0
M  V30 16887 C 1622.53 -1.45734 -3.30823 0
M  V30 16888 O 1622.25 -2.85217 -3.3254 0
M  V30 16889 C 1623.75 -1.29709 -4.23899 0
M  V30 16890 H 1620.97 -0.338021 -0.57964 0
M  V30 16891 H 1623.51 -1.53088 -1.35589 0
M  V30 16892 H 1621.67 -0.920643 -3.76302 0
M  V30 16893 H 1622.08 -3.08134 -4.24445 0
M  V30 16894 H 1623.56 -1.69938 -5.2519 0
M  V30 16895 H 1624.03 -0.241185 -4.38537 0
M  V30 16896 H 1624.64 -1.82283 -3.84256 0
M  V30 16897 N 1622.95 1.25748 -0.950004 0
M  V30 16898 C 1623.89 2.25247 -0.423855 0
M  V30 16899 C 1624.9 1.56233 0.457726 0
M  V30 16900 O 1626.09 1.76496 0.266749 0
M  V30 16901 C 1623.19 3.36422 0.409074 0
M  V30 16902 C 1622.36 4.34991 -0.458421 0
M  V30 16903 C 1621.42 5.25253 0.315537 0
M  V30 16904 O 1620.45 5.68489 -0.284474 0
M  V30 16905 N 1621.65 5.57732 1.60983 0
M  V30 16906 H 1624.41 2.71026 -1.27925 0
M  V30 16907 H 1621.97 1.39607 -0.819853 0
M  V30 16908 H 1623.97 3.93764 0.934447 0
M  V30 16909 H 1622.54 2.90068 1.1653 0
M  V30 16910 H 1621.76 3.76594 -1.16494 0
M  V30 16911 H 1623.04 4.97833 -1.05068 0
M  V30 16912 H 1622.44 5.24502 2.1193 0
M  V30 16913 H 1621 6.17678 2.08126 0
M  V30 16914 N 1624.43 0.718038 1.40292 0
M  V30 16915 C 1625.36 0.0160994 2.28194 0
M  V30 16916 C 1626.34 -0.765159 1.43472 0
M  V30 16917 O 1627.53 -0.751283 1.72881 0
M  V30 16918 C 1624.65 -0.984558 3.24074 0
M  V30 16919 C 1623.7 -0.293817 4.25487 0
M  V30 16920 S 1624.53 0.980059 5.26455 0
M  V30 16921 C 1625.69 -0.0184326 6.25897 0
M  V30 16922 H 1625.92 0.761585 2.8738 0
M  V30 16923 H 1623.45 0.509158 1.45763 0
M  V30 16924 H 1625.41 -1.55667 3.7984 0
M  V30 16925 H 1624.07 -1.70276 2.63941 0
M  V30 16926 H 1623.27 -1.05037 4.92933 0
M  V30 16927 H 1622.87 0.205802 3.73433 0
M  V30 16928 H 1625.16 -0.864464 6.71962 0
M  V30 16929 H 1626.1 0.622712 7.05357 0
M  V30 16930 H 1626.51 -0.383254 5.63197 0
M  V30 16931 N 1625.91 -1.50602 0.464402 0
M  V30 16932 C 1627.14 -2.06401 -0.0906449 0
M  V30 16933 C 1627.55 -1.32913 -1.3465 0
M  V30 16934 O 1626.89 -0.389959 -1.79513 0
M  V30 16935 C 1626.95 -3.56655 -0.451375 0
M  V30 16936 C 1626.62 -4.51584 0.701504 0
M  V30 16937 C 1627.61 -4.95259 1.5816 0
M  V30 16938 C 1625.3 -4.94354 0.88993 0
M  V30 16939 C 1627.29 -5.80404 2.63458 0
M  V30 16940 C 1624.98 -5.79283 1.94615 0
M  V30 16941 C 1625.98 -6.22208 2.81684 0
M  V30 16942 O 1625.67 -7.05446 3.85489 0
M  V30 16943 H 1625.4 -0.676 0.000751268 0
M  V30 16944 H 1627.95 -1.94836 0.650235 0
M  V30 16945 H 1626.18 -3.66098 -1.24535 0
M  V30 16946 H 1627.87 -3.94848 -0.940722 0
M  V30 16947 H 1628.64 -4.6289 1.44768 0
M  V30 16948 H 1624.52 -4.60467 0.221708 0
M  V30 16949 H 1628.06 -6.13829 3.3145 0
M  V30 16950 H 1623.96 -6.11064 2.08016 0
M  V30 16951 H 1624.73 -7.23682 3.82396 0
M  V30 16952 N 1627.39 -0.19675 -1.56367 0
M  V30 16953 C 1628.62 0.447139 -2.02011 0
M  V30 16954 C 1629.03 1.55077 -1.07687 0
M  V30 16955 O 1628.39 1.82316 -0.0820316 0
M  V30 16956 C 1628.44 1.00192 -3.47338 0
M  V30 16957 O 1628.16 -0.0576859 -4.38062 0
M  V30 16958 C 1629.66 1.72152 -4.08508 0
M  V30 16959 H 1626.88 0.112088 -0.661572 0
M  V30 16960 H 1629.43 -0.30594 -2.02199 0
M  V30 16961 H 1627.58 1.70537 -3.47844 0
M  V30 16962 H 1627.99 0.355508 -5.23294 0
M  V30 16963 H 1629.47 2.06199 -5.12041 0
M  V30 16964 H 1629.95 2.62581 -3.52062 0
M  V30 16965 H 1630.55 1.06388 -4.11779 0
M  V30 16966 N 1628.87 1.57413 0.0768405 0
M  V30 16967 C 1629.81 2.04373 1.1106 0
M  V30 16968 C 1630.81 0.948127 1.40381 0
M  V30 16969 O 1632.01 1.13325 1.39848 0
M  V30 16970 H 1628.39 0.65156 0.375464 0
M  V30 16971 H 1630.36 2.90352 0.688348 0
M  V30 16972 C 1629.11 2.49914 2.41741 0
M  V30 16973 H 1628.43 3.33808 2.20027 0
M  V30 16974 H 1629.87 2.8653 3.12532 0
M  V30 16975 C 1628.33 1.37996 3.07341 0
M  V30 16976 O 1628.86 0.719242 3.95209 0
M  V30 16977 N 1627.07 1.12635 2.67884 0
M  V30 16978 H 1626.61 1.66545 1.96521 0
M  V30 16979 H 1626.57 0.37956 3.121 0
M  V30 16980 N 1630.34 -0.348112 1.53707 0
M  V30 16981 C 1631.59 -1.09048 1.70987 0
M  V30 16982 C 1631.92 -1.88444 0.469305 0
M  V30 16983 O 1631.2 -1.87037 -0.533629 0
M  V30 16984 C 1631.48 -2.03542 2.97057 0
M  V30 16985 C 1631.33 -1.27638 4.3131 0
M  V30 16986 C 1632.65 -3.03424 3.18782 0
M  V30 16987 H 1629.77 -0.395049 0.622178 0
M  V30 16988 H 1632.41 -0.369498 1.86373 0
M  V30 16989 H 1630.56 -2.65021 2.8407 0
M  V30 16990 H 1632.24 -0.688079 4.56139 0
M  V30 16991 H 1630.48 -0.578349 4.29927 0
M  V30 16992 H 1631.15 -1.96891 5.15692 0
M  V30 16993 H 1633.63 -2.52056 3.31069 0
M  V30 16994 H 1632.5 -3.66748 4.08396 0
M  V30 16995 H 1632.76 -3.74553 2.34866 0
M  V30 16996 N 1631.82 -1.45363 -0.608876 0
M  V30 16997 C 1633.1 -1.39787 -1.36817 0
M  V30 16998 C 1633.48 -0.067821 -2.10991 0
M  V30 16999 O 1632.83 0.950196 -2.07806 0
M  V30 17000 C 1633.04 -2.61073 -2.31608 0
M  V30 17001 C 1634.39 -3.06104 -2.94254 0
M  V30 17002 O 1635.41 -2.61436 -2.41929 0
M  V30 17003 O 1634.27 -3.83616 -3.89231 0
M  V30 17004 H 1631.36 -0.554657 -0.61342 0
M  V30 17005 H 1633.91 -1.57489 -0.632073 0
M  V30 17006 H 1632.68 -3.4946 -1.76049 0
M  V30 17007 H 1632.3 -2.45697 -3.126 0
M  V30 17008 N 1633.3 0.851265 -1.32632 0
M  V30 17009 C 1634.23 1.96682 -1.17681 0
M  V30 17010 C 1635.25 1.62422 -0.110926 0
M  V30 17011 O 1636.43 1.74828 -0.360202 0
M  V30 17012 C 1633.53 3.29806 -0.779838 0
M  V30 17013 C 1632.71 3.92284 -1.93473 0
M  V30 17014 C 1631.77 5.03745 -1.52075 0
M  V30 17015 O 1630.79 5.23558 -2.23328 0
M  V30 17016 N 1631.99 5.78988 -0.418695 0
M  V30 17017 H 1634.76 2.10049 -2.13775 0
M  V30 17018 H 1632.32 1.02631 -1.25214 0
M  V30 17019 H 1634.31 4.0178 -0.485236 0
M  V30 17020 H 1632.88 3.1247 0.0900498 0
M  V30 17021 H 1632.1 3.13054 -2.39564 0
M  V30 17022 H 1633.39 4.30762 -2.7078 0
M  V30 17023 H 1632.79 5.65432 0.174269 0
M  V30 17024 H 1631.35 6.51541 -0.183714 0
M  V30 17025 N 1634.78 1.15898 1.06796 0
M  V30 17026 C 1636.06 0.847701 1.76276 0
M  V30 17027 C 1636.44 -0.655537 2.00664 0
M  V30 17028 O 1635.78 -1.60171 1.62964 0
M  V30 17029 C 1635.99 1.66475 3.06736 0
M  V30 17030 C 1637.34 1.87452 3.80982 0
M  V30 17031 O 1638.37 1.63298 3.16563 0
M  V30 17032 O 1637.22 2.27942 4.96694 0
M  V30 17033 H 1634.32 0.312308 0.765763 0
M  V30 17034 H 1636.86 1.26507 1.13111 0
M  V30 17035 H 1635.64 2.68508 2.84638 0
M  V30 17036 H 1635.26 1.24409 3.77635 0
M  V30 17037 N 1636.26 -1.25243 0.956659 0
M  V30 17038 C 1637.19 -2.28159 0.496574 0
M  V30 17039 C 1638.17 -1.63814 -0.458132 0
M  V30 17040 O 1639.35 -1.90897 -0.356648 0
M  V30 17041 C 1636.48 -3.46573 -0.22454 0
M  V30 17042 C 1635.44 -4.2311 0.645104 0
M  V30 17043 C 1634.76 -5.343 -0.206867 0
M  V30 17044 C 1636.06 -4.85562 1.92422 0
M  V30 17045 H 1637.76 -2.66895 1.35675 0
M  V30 17046 H 1635.3 -1.28301 0.653827 0
M  V30 17047 H 1637.26 -4.17695 -0.55755 0
M  V30 17048 H 1635.98 -3.06833 -1.11898 0
M  V30 17049 H 1634.64 -3.53774 0.961228 0
M  V30 17050 H 1634.29 -4.908 -1.10112 0
M  V30 17051 H 1633.99 -5.86423 0.371714 0
M  V30 17052 H 1635.51 -6.08253 -0.534798 0
M  V30 17053 H 1636.92 -5.48817 1.65749 0
M  V30 17054 H 1635.32 -5.47871 2.44862 0
M  V30 17055 H 1636.39 -4.07634 2.62607 0
M  V30 17056 N 1637.73 -0.725468 -1.3991 0
M  V30 17057 C 1638.98 -0.26965 -2.00999 0
M  V30 17058 C 1639.31 1.13727 -1.57416 0
M  V30 17059 O 1638.59 1.77345 -0.798693 0
M  V30 17060 C 1638.87 -0.360784 -3.58288 0
M  V30 17061 C 1638.72 -1.80679 -4.11916 0
M  V30 17062 C 1640.04 0.262328 -4.39317 0
M  V30 17063 H 1637.16 -0.0994547 -0.730259 0
M  V30 17064 H 1639.8 -0.91983 -1.6625 0
M  V30 17065 H 1637.95 0.192779 -3.88021 0
M  V30 17066 H 1639.63 -2.4165 -3.92942 0
M  V30 17067 H 1637.87 -2.33127 -3.65834 0
M  V30 17068 H 1638.54 -1.82189 -5.21068 0
M  V30 17069 H 1641.02 -0.209452 -4.15573 0
M  V30 17070 H 1639.89 0.168166 -5.48642 0
M  V30 17071 H 1640.15 1.34716 -4.21075 0
M  V30 17072 N 1639.21 1.50354 -0.472382 0
M  V30 17073 C 1640.46 2.01934 0.0820006 0
M  V30 17074 C 1640.78 1.35636 1.401 0
M  V30 17075 O 1640.05 0.502127 1.89355 0
M  V30 17076 H 1638.63 0.746258 0.0332943 0
M  V30 17077 H 1641.29 1.84671 -0.623099 0
M  V30 17078 H 1640.39 3.11232 0.232565 0
M  V30 17079 N 1640.69 0.205039 1.56261 0
M  V30 17080 C 1641.94 -0.42506 1.98909 0
M  V30 17081 C 1642.29 -1.58548 1.08997 0
M  V30 17082 O 1641.59 -1.91114 0.136433 0
M  V30 17083 C 1641.78 -0.924086 3.45247 0
M  V30 17084 C 1641.61 0.186441 4.49313 0
M  V30 17085 C 1640.38 0.647379 5.01136 0
M  V30 17086 C 1642.58 0.998917 5.04506 0
M  V30 17087 N 1640.56 1.73469 5.88882 0
M  V30 17088 C 1641.93 1.93542 5.89017 0
M  V30 17089 C 1643.98 1.04022 4.86913 0
M  V30 17090 C 1642.69 2.90982 6.57816 0
M  V30 17091 C 1644.71 2.00272 5.56458 0
M  V30 17092 C 1644.08 2.92664 6.40724 0
M  V30 17093 H 1640.17 -0.122679 0.772317 0
M  V30 17094 H 1642.76 0.31302 1.92167 0
M  V30 17095 H 1640.93 -1.63158 3.52469 0
M  V30 17096 H 1642.66 -1.52562 3.74842 0
M  V30 17097 H 1639.42 0.238929 4.72997 0
M  V30 17098 H 1639.84 2.27985 6.37457 0
M  V30 17099 H 1644.48 0.339864 4.21432 0
M  V30 17100 H 1642.2 3.61988 7.22489 0
M  V30 17101 H 1645.79 2.0412 5.44818 0
M  V30 17102 H 1644.67 3.65927 6.9359 0
M  V30 17103 N 1642.17 -1.57451 -0.0684915 0
M  V30 17104 C 1643.58 -1.76107 -0.619932 0
M  V30 17105 C 1643.93 -0.830939 -1.77735 0
M  V30 17106 O 1643.06 -0.0158481 -2.16394 0
M  V30 17107 C 1643.65 -3.19352 -1.13136 0
M  V30 17108 C 1642.21 -3.39341 -1.62864 0
M  V30 17109 C 1641.36 -2.71801 -0.549477 0
M  V30 17110 H 1644.31 -1.57915 0.157689 0
M  V30 17111 H 1644.33 -3.23693 -2.00008 0
M  V30 17112 H 1643.84 -3.87024 -0.288762 0
M  V30 17113 H 1641.94 -2.76787 -2.49438 0
M  V30 17114 H 1642.06 -4.47799 -1.70331 0
M  V30 17115 H 1640.42 -2.34448 -0.995302 0
M  V30 17116 H 1641.2 -3.42132 0.282995 0
M  V30 17117 N 1643.65 0.339955 -1.5389 0
M  V30 17118 C 1644.61 1.40058 -1.81429 0
M  V30 17119 C 1645.61 1.45458 -0.685463 0
M  V30 17120 O 1646.8 1.45771 -0.953754 0
M  V30 17121 C 1643.93 2.78952 -1.95955 0
M  V30 17122 H 1645.13 1.16902 -2.76178 0
M  V30 17123 H 1642.68 0.574543 -1.45357 0
M  V30 17124 H 1643.41 3.07387 -1.03361 0
M  V30 17125 H 1643.2 2.76429 -2.78082 0
M  V30 17126 H 1644.69 3.55713 -2.18765 0
M  V30 17127 N 1645.13 1.45684 0.601159 0
M  V30 17128 C 1646.54 1.44423 1.18317 0
M  V30 17129 C 1646.89 0.17524 1.95416 0
M  V30 17130 O 1646.01 -0.722816 2.03971 0
M  V30 17131 C 1646.61 2.61651 2.1523 0
M  V30 17132 C 1645.17 2.6349 2.68793 0
M  V30 17133 C 1644.31 2.36787 1.44317 0
M  V30 17134 H 1647.26 1.53831 0.390108 0
M  V30 17135 H 1647.29 2.36117 2.98377 0
M  V30 17136 H 1646.8 3.53995 1.59088 0
M  V30 17137 H 1644.9 1.7517 3.28856 0
M  V30 17138 H 1645.01 3.62906 3.12787 0
M  V30 17139 H 1643.38 1.86472 1.73494 0
M  V30 17140 H 1644.16 3.31284 0.900327 0
M  V30 17141 N 1646.6 -0.84422 1.33082 0
M  V30 17142 C 1648.01 -1.41526 1.21767 0
M  V30 17143 C 1648.37 -1.955 -0.165606 0
M  V30 17144 O 1647.49 -1.88384 -1.06492 0
M  V30 17145 C 1648.09 -2.57266 2.20454 0
M  V30 17146 C 1646.64 -3.10339 2.12995 0
M  V30 17147 C 1645.79 -1.83119 2.08237 0
M  V30 17148 H 1648.74 -0.650452 1.44758 0
M  V30 17149 H 1648.76 -3.34739 1.80914 0
M  V30 17150 H 1648.28 -2.17952 3.21121 0
M  V30 17151 H 1646.38 -3.5421 1.15612 0
M  V30 17152 H 1646.49 -3.70875 3.03296 0
M  V30 17153 H 1644.85 -2.03148 1.53632 0
M  V30 17154 H 1645.64 -1.46009 3.10703 0
M  V30 17155 N 1648.08 -1.16463 -1.0618 0
M  V30 17156 C 1649.33 -0.944975 -1.78647 0
M  V30 17157 C 1649.65 0.528486 -1.87702 0
M  V30 17158 O 1648.92 1.38391 -1.38653 0
M  V30 17159 H 1647.5 -0.346637 -0.661704 0
M  V30 17160 H 1650.16 -1.46752 -1.28257 0
M  V30 17161 H 1649.26 -1.36469 -2.80683 0
M  V30 17162 N 1649.56 1.24734 -0.963288 0
M  V30 17163 C 1650.52 2.23795 -0.494824 0
M  V30 17164 C 1651.52 1.55584 0.406225 0
M  V30 17165 O 1652.71 1.73021 0.202302 0
M  V30 17166 C 1649.84 3.39715 0.283963 0
M  V30 17167 H 1651.04 2.66753 -1.37051 0
M  V30 17168 H 1648.59 1.37271 -0.747428 0
M  V30 17169 H 1649.33 3.0219 1.17693 0
M  V30 17170 H 1649.11 3.9042 -0.362586 0
M  V30 17171 H 1650.6 4.13254 0.600899 0
M  V30 17172 N 1651.04 0.732878 1.39523 0
M  V30 17173 C 1652.45 0.408236 1.54291 0
M  V30 17174 C 1652.65 -1.08114 1.7004 0
M  V30 17175 O 1651.71 -1.86726 1.6997 0
M  V30 17176 C 1653.02 1.1894 2.76177 0
M  V30 17177 C 1654.57 1.17742 2.9001 0
M  V30 17178 C 1655.05 1.94111 4.14831 0
M  V30 17179 N 1656.54 1.91266 4.21867 0
M  V30 17180 C 1657.27 2.47167 5.17394 0
M  V30 17181 N 1656.77 3.11696 6.18723 0
M  V30 17182 N 1658.56 2.37212 5.09595 0
M  V30 17183 H 1650.71 1.69839 1.27548 0
M  V30 17184 H 1652.97 0.718844 0.618035 0
M  V30 17185 H 1652.68 2.24321 2.70875 0
M  V30 17186 H 1652.55 0.792439 3.68782 0
M  V30 17187 H 1654.94 0.131752 2.94806 0
M  V30 17188 H 1655.02 1.61374 1.98474 0
M  V30 17189 H 1654.67 2.98677 4.10797 0
M  V30 17190 H 1654.6 1.47886 5.05408 0
M  V30 17191 H 1657.09 1.44254 3.49284 0
M  V30 17192 H 1657.4 3.51823 6.8807 0
M  V30 17193 H 1655.75 3.15785 6.19116 0
M  V30 17194 H 1658.94 1.86444 4.29367 0
M  V30 17195 H 1659.11 2.81076 5.83866 0
M  V30 17196 N 1652.52 -1.50101 0.480349 0
M  V30 17197 C 1653.74 -2.07278 -0.0710872 0
M  V30 17198 C 1654.17 -1.34082 -1.31923 0
M  V30 17199 O 1653.52 -0.391251 -1.77028 0
M  V30 17200 C 1653.57 -3.59099 -0.328706 0
M  V30 17201 O 1652.68 -3.8764 -1.40745 0
M  V30 17202 H 1652.02 -0.66378 0.0170748 0
M  V30 17203 H 1654.55 -1.93178 0.674049 0
M  V30 17204 H 1654.56 -4.04049 -0.566435 0
M  V30 17205 H 1653.23 -4.11789 0.583316 0
M  V30 17206 H 1651.81 -3.54519 -1.15631 0
M  V30 17207 N 1653.99 -0.213323 -1.5615 0
M  V30 17208 C 1654.93 0.739954 -2.1587 0
M  V30 17209 C 1655.9 1.19683 -1.10067 0
M  V30 17210 O 1657.09 1.28106 -1.38279 0
M  V30 17211 C 1654.22 2.00152 -2.73234 0
M  V30 17212 C 1653.26 1.68529 -3.91791 0
M  V30 17213 S 1654.09 0.817317 -5.29226 0
M  V30 17214 C 1655.25 2.08863 -5.90023 0
M  V30 17215 H 1655.48 0.232328 -2.96391 0
M  V30 17216 H 1653.02 0.00189263 -1.544 0
M  V30 17217 H 1654.97 2.72594 -3.06925 0
M  V30 17218 H 1653.64 2.48027 -1.92722 0
M  V30 17219 H 1652.83 2.62241 -4.30402 0
M  V30 17220 H 1652.43 1.04157 -3.59204 0
M  V30 17221 H 1654.72 3.03943 -6.05495 0
M  V30 17222 H 1655.67 1.74656 -6.86222 0
M  V30 17223 H 1656.07 2.22541 -5.18783 0
M  V30 17224 N 1655.47 1.57485 0.0601405 0
M  V30 17225 C 1656.7 1.92051 0.769681 0
M  V30 17226 C 1657.12 0.810364 1.70524 0
M  V30 17227 O 1656.47 -0.215527 1.81223 0
M  V30 17228 C 1656.52 3.26423 1.55339 0
M  V30 17229 O 1656.24 4.3317 0.655423 0
M  V30 17230 C 1657.75 3.75076 2.36289 0
M  V30 17231 H 1654.97 0.63454 0.218175 0
M  V30 17232 H 1657.51 2.04482 0.0269308 0
M  V30 17233 H 1655.66 3.15483 2.24831 0
M  V30 17234 H 1656.08 5.10548 1.20171 0
M  V30 17235 H 1657.55 4.71695 2.86719 0
M  V30 17236 H 1658.03 3.04677 3.16336 0
M  V30 17237 H 1658.64 3.88998 1.71932 0
M  V30 17238 N 1656.95 -0.331789 1.54068 0
M  V30 17239 C 1658.36 -0.906719 1.63204 0
M  V30 17240 C 1658.71 -1.89161 0.520837 0
M  V30 17241 O 1657.84 -2.1359 -0.347577 0
M  V30 17242 C 1658.43 -1.65132 2.95832 0
M  V30 17243 C 1656.99 -2.17509 3.07192 0
M  V30 17244 C 1656.14 -0.99788 2.58723 0
M  V30 17245 H 1659.09 -0.109595 1.58321 0
M  V30 17246 H 1659.11 -2.515 2.85531 0
M  V30 17247 H 1658.62 -0.934255 3.76687 0
M  V30 17248 H 1656.72 -2.92356 2.30995 0
M  V30 17249 H 1656.84 -2.43074 4.12858 0
M  V30 17250 H 1655.2 -1.37469 2.14417 0
M  V30 17251 H 1655.98 -0.295261 3.42028 0
M  V30 17252 N 1658.43 -1.46001 -0.593424 0
M  V30 17253 C 1659.67 -1.52306 -1.36317 0
M  V30 17254 C 1660.03 -0.166331 -1.91278 0
M  V30 17255 O 1661.23 -0.104106 -2.68598 0
M  V30 17256 C 1659.5 -2.58303 -2.47011 0
M  V30 17257 S 1661.06 -2.83936 -3.34553 0
M  V30 17258 H 1657.88 -0.538241 -0.464562 0
M  V30 17259 H 1660.48 -1.8317 -0.683308 0
M  V30 17260 H 1659.19 -3.55528 -2.05007 0
M  V30 17261 H 1658.72 -2.29136 -3.19782 0
M  V30 17262 H 1660.73 -2.18391 -4.45556 0
M  V30 17263 N 1659.91 0.83715 -1.33527 0
M  V30 17264 C 1661.13 1.62456 -1.28124 0
M  V30 17265 C 1661.55 1.88223 0.147499 0
M  V30 17266 O 1660.91 1.4636 1.09018 0
M  V30 17267 C 1660.96 2.97376 -2.05547 0
M  V30 17268 O 1660.68 2.7274 -3.42847 0
M  V30 17269 C 1662.18 3.91805 -2.07374 0
M  V30 17270 H 1659.4 0.505436 -0.441334 0
M  V30 17271 H 1661.94 1.04263 -1.75925 0
M  V30 17272 H 1660.1 3.52166 -1.61424 0
M  V30 17273 H 1660.51 3.58669 -3.82696 0
M  V30 17274 H 1661.99 4.83684 -2.65996 0
M  V30 17275 H 1662.46 4.26106 -1.06444 0
M  V30 17276 H 1663.07 3.42952 -2.51523 0
M  V30 17277 N 1661.38 1.17024 1.05561 0
M  V30 17278 C 1662.62 0.967099 1.80074 0
M  V30 17279 C 1662.99 -0.495724 1.8549 0
M  V30 17280 O 1664.19 -0.817816 2.56057 0
M  V30 17281 C 1662.46 1.5862 3.20273 0
M  V30 17282 S 1664.02 1.52873 4.11309 0
M  V30 17283 H 1660.84 0.347623 0.620225 0
M  V30 17284 H 1663.44 1.48902 1.26682 0
M  V30 17285 H 1662.14 2.64341 3.1393 0
M  V30 17286 H 1661.67 1.06392 3.7874 0
M  V30 17287 H 1663.69 0.534126 4.93317 0
M  V30 17288 N 1662.86 -1.24221 0.969889 0
M  V30 17289 C 1664.11 -1.91973 0.631725 0
M  V30 17290 C 1664.43 -1.76169 -0.836032 0
M  V30 17291 O 1663.7 -1.13459 -1.597 0
M  V30 17292 H 1662.28 -0.710497 0.230658 0
M  V30 17293 H 1664.94 -1.51069 1.23143 0
M  V30 17294 H 1664.04 -2.99606 0.874223 0
M  V30 17295 N 1664.34 -0.740267 -1.39132 0
M  V30 17296 C 1665.57 -0.299605 -2.05225 0
M  V30 17297 C 1665.99 1.05904 -1.55454 0
M  V30 17298 O 1665.35 1.67216 -0.700603 0
M  V30 17299 C 1665.4 -0.316792 -3.59206 0
M  V30 17300 O 1664.5 0.693786 -4.06522 0
M  V30 17301 H 1663.84 -0.135146 -0.650101 0
M  V30 17302 H 1666.37 -1.00766 -1.78065 0
M  V30 17303 H 1666.38 -0.163013 -4.07674 0
M  V30 17304 H 1665.06 -1.30814 -3.94792 0
M  V30 17305 H 1663.63 0.505712 -3.69455 0
M  V30 17306 N 1665.82 1.49844 -0.488302 0
M  V30 17307 C 1667.04 2.07313 0.0600937 0
M  V30 17308 C 1667.47 1.3478 1.3121 0
M  V30 17309 O 1666.83 0.400634 1.76818 0
M  V30 17310 C 1666.87 3.59268 0.309658 0
M  V30 17311 O 1665.98 3.88381 1.38688 0
M  V30 17312 H 1665.32 0.663681 -0.0205947 0
M  V30 17313 H 1667.85 1.92818 -0.684284 0
M  V30 17314 H 1667.86 4.04344 0.545 0
M  V30 17315 H 1666.53 4.11474 -0.605146 0
M  V30 17316 H 1665.11 3.55128 1.13749 0
M  V30 17317 N 1667.3 0.221601 1.56034 0
M  V30 17318 C 1668.57 -0.459097 1.90136 0
M  V30 17319 C 1668.95 -1.7774 1.13894 0
M  V30 17320 O 1668.3 -2.27147 0.248285 0
M  V30 17321 C 1668.51 -0.651996 3.42856 0
M  V30 17322 C 1669.86 -0.959402 4.13619 0
M  V30 17323 O 1670.88 -0.73878 3.48454 0
M  V30 17324 O 1669.74 -1.37811 5.28839 0
M  V30 17325 H 1666.84 -0.242753 0.790569 0
M  V30 17326 H 1669.38 0.263789 1.67637 0
M  V30 17327 H 1668.15 0.277892 3.90312 0
M  V30 17328 H 1667.78 -1.42637 3.71134 0
M  V30 17329 N 1668.77 -1.57515 -0.0517878 0
M  V30 17330 C 1669.7 -2.0809 -1.05929 0
M  V30 17331 C 1670.69 -0.978529 -1.39136 0
M  V30 17332 O 1671.87 -1.25245 -1.48416 0
M  V30 17333 C 1669 -2.54147 -2.36699 0
M  V30 17334 C 1667.95 -3.68442 -2.17794 0
M  V30 17335 C 1667.28 -4.00624 -3.54125 0
M  V30 17336 C 1668.58 -4.97743 -1.5827 0
M  V30 17337 H 1670.27 -2.92515 -0.638371 0
M  V30 17338 H 1667.82 -1.40719 -0.305625 0
M  V30 17339 H 1669.77 -2.88145 -3.07491 0
M  V30 17340 H 1668.5 -1.66775 -2.80809 0
M  V30 17341 H 1667.16 -3.34758 -1.4944 0
M  V30 17342 H 1666.8 -3.10353 -3.95841 0
M  V30 17343 H 1666.5 -4.77597 -3.42308 0
M  V30 17344 H 1668.03 -4.37136 -4.26315 0
M  V30 17345 H 1669.44 -5.29843 -2.18951 0
M  V30 17346 H 1667.84 -5.79173 -1.57094 0
M  V30 17347 H 1668.91 -4.81815 -0.546127 0
M  V30 17348 N 1670.25 0.323614 -1.54242 0
M  V30 17349 C 1671.48 1.07954 -1.76152 0
M  V30 17350 C 1671.89 1.82194 -0.510099 0
M  V30 17351 O 1671.23 1.75923 0.528838 0
M  V30 17352 C 1671.3 2.12323 -2.90102 0
M  V30 17353 C 1670.96 1.57481 -4.29009 0
M  V30 17354 C 1671.96 1.01662 -5.09864 0
M  V30 17355 C 1669.64 1.61726 -4.75552 0
M  V30 17356 C 1671.64 0.508168 -6.35371 0
M  V30 17357 C 1669.32 1.10493 -6.01028 0
M  V30 17358 C 1670.32 0.551331 -6.80771 0
M  V30 17359 O 1670.01 0.0467053 -8.03886 0
M  V30 17360 H 1669.74 0.326941 -0.59168 0
M  V30 17361 H 1672.3 0.375423 -2.0194 0
M  V30 17362 H 1670.53 2.8635 -2.59885 0
M  V30 17363 H 1672.21 2.73636 -2.99796 0
M  V30 17364 H 1672.98 0.976899 -4.7506 0
M  V30 17365 H 1668.86 2.03755 -4.13527 0
M  V30 17366 H 1672.4 0.0754082 -6.97559 0
M  V30 17367 H 1668.3 1.14172 -6.35323 0
M  V30 17368 H 1669.07 0.162133 -8.18339 0
M  V30 17369 N 1671.73 1.46313 0.585673 0
M  V30 17370 C 1672.66 1.59511 1.70524 0
M  V30 17371 C 1673.64 0.445578 1.6416 0
M  V30 17372 O 1674.83 0.671455 1.82223 0
M  V30 17373 C 1671.96 1.58229 3.09162 0
M  V30 17374 C 1670.91 2.72122 3.30354 0
M  V30 17375 C 1670.24 2.559 4.69489 0
M  V30 17376 C 1671.54 4.13969 3.18476 0
M  V30 17377 H 1673.23 2.53229 1.59735 0
M  V30 17378 H 1670.78 1.2187 0.767046 0
M  V30 17379 H 1672.73 1.66056 3.87303 0
M  V30 17380 H 1671.45 0.610535 3.20843 0
M  V30 17381 H 1670.11 2.63759 2.54611 0
M  V30 17382 H 1669.76 1.56814 4.77931 0
M  V30 17383 H 1669.46 3.32289 4.84621 0
M  V30 17384 H 1670.99 2.65613 5.49802 0
M  V30 17385 H 1672.4 4.23459 3.86465 0
M  V30 17386 H 1670.8 4.90922 3.45131 0
M  V30 17387 H 1671.87 4.34334 2.15598 0
M  V30 17388 N 1673.21 -0.830057 1.33969 0
M  V30 17389 C 1674.46 -1.58821 1.26111 0
M  V30 17390 C 1674.79 -1.9345 -0.170484 0
M  V30 17391 O 1674.06 -1.59433 -1.11407 0
M  V30 17392 C 1674.35 -2.89243 2.14501 0
M  V30 17393 C 1674.2 -2.61239 3.66162 0
M  V30 17394 C 1675.52 -3.90752 2.02487 0
M  V30 17395 H 1672.64 -0.576255 0.459455 0
M  V30 17396 H 1675.28 -0.956736 1.64154 0
M  V30 17397 H 1673.43 -3.43133 1.82186 0
M  V30 17398 H 1675.1 -2.13713 4.08809 0
M  V30 17399 H 1673.34 -1.94796 3.87604 0
M  V30 17400 H 1674.02 -3.54212 4.23365 0
M  V30 17401 H 1676.49 -3.46194 2.30844 0
M  V30 17402 H 1675.37 -4.79825 2.6657 0
M  V30 17403 H 1675.63 -4.30649 0.999704 0
M  V30 17404 N 1674.69 -1.17582 -1.04939 0
M  V30 17405 C 1675.92 -0.990398 -1.81656 0
M  V30 17406 C 1676.33 0.461324 -1.83077 0
M  V30 17407 O 1675.69 1.32037 -1.25986 0
M  V30 17408 C 1675.74 -1.52719 -3.27657 0
M  V30 17409 O 1675.46 -2.92206 -3.26415 0
M  V30 17410 C 1676.96 -1.38671 -4.21053 0
M  V30 17411 H 1674.18 -0.35024 -0.57234 0
M  V30 17412 H 1676.72 -1.5593 -1.32311 0
M  V30 17413 H 1674.88 -1.00026 -3.74264 0
M  V30 17414 H 1675.29 -3.17068 -4.17814 0
M  V30 17415 H 1676.77 -1.8104 -5.21468 0
M  V30 17416 H 1677.24 -0.334151 -4.37927 0
M  V30 17417 H 1677.85 -1.90393 -3.80303 0
M  V30 17418 N 1676.17 1.23705 -0.976463 0
M  V30 17419 C 1677.58 1.44179 -0.684434 0
M  V30 17420 C 1677.78 1.86992 0.75075 0
M  V30 17421 O 1676.84 2.01349 1.52365 0
M  V30 17422 C 1678.15 2.49661 -1.676 0
M  V30 17423 C 1679.7 2.63479 -1.68961 0
M  V30 17424 C 1680.17 3.72167 -2.66938 0
M  V30 17425 N 1681.66 3.79605 -2.65433 0
M  V30 17426 C 1682.4 4.63251 -3.37914 0
M  V30 17427 N 1681.9 5.51018 -4.19941 0
M  V30 17428 N 1683.69 4.57412 -3.26697 0
M  V30 17429 H 1675.84 0.942155 -1.90361 0
M  V30 17430 H 1678.1 0.475629 -0.820049 0
M  V30 17431 H 1677.81 2.25111 -2.70218 0
M  V30 17432 H 1677.68 3.47978 -1.45571 0
M  V30 17433 H 1680.07 2.87382 -0.670497 0
M  V30 17434 H 1680.15 1.65491 -1.95055 0
M  V30 17435 H 1679.79 3.49013 -3.68988 0
M  V30 17436 H 1679.72 4.69688 -2.3812 0
M  V30 17437 H 1682.22 3.16882 -2.05899 0
M  V30 17438 H 1682.53 6.11825 -4.72113 0
M  V30 17439 H 1680.87 5.50655 -4.24033 0
M  V30 17440 H 1684.06 3.87863 -2.62069 0
M  V30 17441 H 1684.24 5.22373 -3.83446 0
M  V30 17442 N 1677.64 0.747635 1.38738 0
M  V30 17443 C 1678.59 0.0917864 2.27815 0
M  V30 17444 C 1679.58 -0.699471 1.44901 0
M  V30 17445 O 1680.77 -0.566404 1.67693 0
M  V30 17446 C 1677.9 -0.805131 3.33725 0
M  V30 17447 C 1676.98 -0.00734503 4.24099 0
M  V30 17448 N 1677.38 1.02602 4.95284 0
M  V30 17449 C 1675.67 -0.235075 4.4538 0
M  V30 17450 C 1676.37 1.50818 5.61808 0
M  V30 17451 N 1675.35 0.824534 5.3731 0
M  V30 17452 H 1679.15 0.883313 2.80312 0
M  V30 17453 H 1676.67 0.583125 1.5157 0
M  V30 17454 H 1678.66 -1.29056 3.96422 0
M  V30 17455 H 1677.32 -1.59568 2.82787 0
M  V30 17456 H 1678.33 1.40768 4.98402 0
M  V30 17457 H 1675.01 -0.99943 4.05361 0
M  V30 17458 H 1676.4 2.36862 6.28766 0
M  V30 17459 N 1679.12 -1.49583 0.496242 0
M  V30 17460 C 1680.08 -2.27561 -0.273642 0
M  V30 17461 C 1681.08 -1.33375 -0.8982 0
M  V30 17462 O 1682.27 -1.56578 -0.76347 0
M  V30 17463 C 1679.41 -3.11178 -1.39216 0
M  V30 17464 H 1680.6 -2.97077 0.410543 0
M  V30 17465 H 1678.15 -1.54271 0.251058 0
M  V30 17466 H 1678.89 -2.46217 -2.11064 0
M  V30 17467 H 1678.67 -3.80422 -0.949829 0
M  V30 17468 H 1680.16 -3.70085 -1.93459 0
M  V30 17469 N 1680.6 -0.229873 -1.55915 0
M  V30 17470 C 1681.88 0.449007 -1.90377 0
M  V30 17471 C 1682.26 1.77133 -1.14835 0
M  V30 17472 O 1681.6 2.27012 -0.260328 0
M  V30 17473 C 1681.81 0.633805 -3.43197 0
M  V30 17474 C 1683.16 0.937453 -4.14122 0
M  V30 17475 O 1684.19 0.72029 -3.48841 0
M  V30 17476 O 1683.05 1.35005 -5.29562 0
M  V30 17477 H 1680.14 0.238557 -0.791846 0
M  V30 17478 H 1682.69 -0.272676 -1.67495 0
M  V30 17479 H 1681.46 -0.298587 -3.90159 0
M  V30 17480 H 1681.08 1.40667 -3.71885 0
M  V30 17481 N 1682.08 1.5754 0.0434337 0
M  V30 17482 C 1683.32 1.88887 0.7382 0
M  V30 17483 C 1683.66 0.825827 1.75766 0
M  V30 17484 O 1682.93 -0.160797 1.93834 0
M  V30 17485 C 1683.21 3.30889 1.42072 0
M  V30 17486 C 1683.07 4.47874 0.415754 0
M  V30 17487 C 1684.39 3.71571 2.35846 0
M  V30 17488 H 1681.51 0.686975 0.266897 0
M  V30 17489 H 1684.15 1.9 0.00106957 0
M  V30 17490 H 1682.3 3.30071 2.04903 0
M  V30 17491 H 1683.97 4.60824 -0.209529 0
M  V30 17492 H 1682.21 4.32982 -0.266346 0
M  V30 17493 H 1682.88 5.44084 0.931509 0
M  V30 17494 H 1685.36 3.73663 1.83071 0
M  V30 17495 H 1684.24 4.71763 2.80589 0
M  V30 17496 H 1684.5 3.03041 3.21898 0
M  V30 17497 N 1683.56 -0.31543 1.54411 0
M  V30 17498 C 1684.8 -1.05396 1.73261 0
M  V30 17499 C 1685.13 -1.87406 0.509171 0
M  V30 17500 O 1684.41 -1.88126 -0.493836 0
M  V30 17501 C 1684.69 -1.97195 3.01308 0
M  V30 17502 C 1684.55 -1.18461 4.33921 0
M  V30 17503 C 1685.86 -2.96594 3.25146 0
M  V30 17504 H 1682.98 -0.381763 0.630417 0
M  V30 17505 H 1685.63 -0.329882 1.87114 0
M  V30 17506 H 1683.78 -2.58936 2.89628 0
M  V30 17507 H 1685.45 -0.591171 4.57496 0
M  V30 17508 H 1683.69 -0.487025 4.31057 0
M  V30 17509 H 1684.36 -1.85909 5.19752 0
M  V30 17510 H 1686.84 -2.44977 3.36341 0
M  V30 17511 H 1685.71 -3.58002 4.16084 0
M  V30 17512 H 1685.97 -3.69487 2.42758 0
M  V30 17513 N 1685.03 -1.46622 -0.577906 0
M  V30 17514 C 1686.45 -1.46287 -1.16004 0
M  V30 17515 C 1686.8 -0.206307 -1.95112 0
M  V30 17516 O 1685.92 0.690275 -2.05096 0
M  V30 17517 C 1686.52 -2.65042 -2.1104 0
M  V30 17518 C 1685.08 -2.67733 -2.64567 0
M  V30 17519 C 1684.22 -2.39053 -1.40531 0
M  V30 17520 H 1687.17 -1.54432 -0.365585 0
M  V30 17521 H 1687.19 -2.40834 -2.94583 0
M  V30 17522 H 1686.71 -3.56481 -1.53436 0
M  V30 17523 H 1684.81 -1.80379 -3.26028 0
M  V30 17524 H 1684.92 -3.67836 -3.06974 0
M  V30 17525 H 1683.28 -1.89209 -1.70506 0
M  V30 17526 H 1684.07 -3.32674 -0.847509 0
M  V30 17527 N 1686.51 0.822941 -1.34408 0
M  V30 17528 C 1687.76 1.58149 -1.26951 0
M  V30 17529 C 1688.09 1.93538 0.160222 0
M  V30 17530 O 1687.37 1.60021 1.1056 0
M  V30 17531 C 1687.65 2.88101 -2.16032 0
M  V30 17532 C 1687.5 2.59293 -3.67542 0
M  V30 17533 C 1688.82 3.89673 -2.04556 0
M  V30 17534 H 1685.94 0.573811 -0.462504 0
M  V30 17535 H 1688.58 0.948017 -1.64659 0
M  V30 17536 H 1686.73 3.42162 -1.84003 0
M  V30 17537 H 1688.4 2.11542 -4.09936 0
M  V30 17538 H 1686.65 1.92738 -3.88632 0
M  V30 17539 H 1687.32 3.51962 -4.25238 0
M  V30 17540 H 1689.79 3.44965 -2.32677 0
M  V30 17541 H 1688.67 4.78404 -2.69111 0
M  V30 17542 H 1688.93 4.30113 -1.02253 0
M  V30 17543 N 1687.99 1.18137 1.04314 0
M  V30 17544 C 1689.41 0.930523 1.29667 0
M  V30 17545 C 1689.61 -0.405336 1.97381 0
M  V30 17546 O 1688.66 -1.14025 2.25288 0
M  V30 17547 C 1689.98 2.09427 2.1578 0
M  V30 17548 C 1691.52 2.13229 2.29134 0
M  V30 17549 C 1692 3.29014 3.18612 0
M  V30 17550 N 1693.49 3.28859 3.26199 0
M  V30 17551 C 1694.22 4.15092 3.95583 0
M  V30 17552 N 1693.72 5.11453 4.67319 0
M  V30 17553 N 1695.51 4.03014 3.91837 0
M  V30 17554 H 1687.66 2.04108 0.587669 0
M  V30 17555 H 1689.93 0.89171 0.321804 0
M  V30 17556 H 1689.63 3.06023 1.73328 0
M  V30 17557 H 1689.51 2.0528 3.16449 0
M  V30 17558 H 1691.89 1.17212 2.70823 0
M  V30 17559 H 1691.98 2.21435 1.28064 0
M  V30 17560 H 1691.62 4.25302 2.77635 0
M  V30 17561 H 1691.55 3.18045 4.19708 0
M  V30 17562 H 1694.04 2.59097 2.75095 0
M  V30 17563 H 1694.35 5.7363 5.1785 0
M  V30 17564 H 1692.7 5.15415 4.66232 0
M  V30 17565 H 1695.89 3.27021 3.34925 0
M  V30 17566 H 1696.06 4.70435 4.4564 0
M  V30 17567 N 1689.47 -1.23186 0.98301 0
M  V30 17568 C 1690.88 -1.43814 0.69207 0
M  V30 17569 C 1691.08 -1.87387 -0.740823 0
M  V30 17570 O 1690.14 -2.02154 -1.51295 0
M  V30 17571 C 1691.45 -2.48769 1.68922 0
M  V30 17572 C 1693 -2.62579 1.70356 0
M  V30 17573 C 1693.48 -3.70746 2.68908 0
M  V30 17574 N 1694.97 -3.78192 2.67442 0
M  V30 17575 C 1695.7 -4.61453 3.40366 0
M  V30 17576 N 1695.2 -5.48784 4.22857 0
M  V30 17577 N 1696.99 -4.55673 3.29118 0
M  V30 17578 H 1689.14 -0.932046 1.90858 0
M  V30 17579 H 1691.41 -0.471274 0.82256 0
M  V30 17580 H 1691.11 -2.23675 2.71408 0
M  V30 17581 H 1690.99 -3.47201 1.47415 0
M  V30 17582 H 1693.37 -2.87022 0.685728 0
M  V30 17583 H 1693.45 -1.64454 1.9593 0
M  V30 17584 H 1693.1 -3.47051 3.70834 0
M  V30 17585 H 1693.03 -4.68418 2.40607 0
M  V30 17586 H 1695.52 -3.15785 2.07577 0
M  V30 17587 H 1695.83 -6.09312 4.75351 0
M  V30 17588 H 1694.18 -5.48398 4.26948 0
M  V30 17589 H 1697.37 -3.86468 2.64122 0
M  V30 17590 H 1697.54 -5.20332 3.8621 0
M  V30 17591 N 1690.95 -0.754982 -1.38339 0
M  V30 17592 C 1692.36 -0.43273 -1.53622 0
M  V30 17593 C 1692.56 1.05395 -1.71739 0
M  V30 17594 O 1691.62 1.83998 -1.72919 0
M  V30 17595 C 1692.93 -1.23319 -2.7425 0
M  V30 17596 C 1694.48 -1.22341 -2.881 0
M  V30 17597 C 1694.95 -2.00686 -4.11691 0
M  V30 17598 N 1696.45 -1.97953 -4.1877 0
M  V30 17599 C 1697.18 -2.55367 -5.13396 0
M  V30 17600 N 1696.68 -3.215 -6.13685 0
M  V30 17601 N 1698.47 -2.45289 -5.05757 0
M  V30 17602 H 1690.62 -1.71847 -1.2483 0
M  V30 17603 H 1692.88 -0.728585 -0.606521 0
M  V30 17604 H 1692.59 -2.28602 -2.67272 0
M  V30 17605 H 1692.46 -0.851009 -3.67475 0
M  V30 17606 H 1694.85 -0.178637 -2.94559 0
M  V30 17607 H 1694.93 -1.64511 -1.95882 0
M  V30 17608 H 1694.58 -3.05175 -4.05994 0
M  V30 17609 H 1694.51 -1.55908 -5.02991 0
M  V30 17610 H 1697 -1.49792 -3.46945 0
M  V30 17611 H 1697.31 -3.62725 -6.82386 0
M  V30 17612 H 1695.65 -3.25595 -6.14014 0
M  V30 17613 H 1698.85 -1.93251 -4.26347 0
M  V30 17614 H 1699.02 -2.9033 -5.79321 0
M  V30 17615 N 1692.42 1.49318 -0.504168 0
M  V30 17616 C 1693.67 2.02062 0.039149 0
M  V30 17617 C 1693.99 1.38577 1.37191 0
M  V30 17618 O 1693.26 0.542179 1.88248 0
M  V30 17619 H 1691.84 0.746796 0.0174575 0
M  V30 17620 H 1694.51 1.83308 -0.66213 0
M  V30 17621 H 1693.6 3.11656 0.166496 0
M  V30 17622 N 1693.9 0.238138 1.5579 0
M  V30 17623 C 1695.18 -0.438905 1.90612 0
M  V30 17624 C 1695.56 -1.76522 1.15773 0
M  V30 17625 O 1694.91 -2.26871 0.272363 0
M  V30 17626 C 1695.12 -0.615595 3.43528 0
M  V30 17627 C 1696.47 -0.915478 4.14613 0
M  V30 17628 O 1697.49 -0.70178 3.49218 0
M  V30 17629 O 1696.35 -1.32194 5.30271 0
M  V30 17630 H 1693.44 -0.234355 0.7931 0
M  V30 17631 H 1695.99 0.281555 1.67348 0
M  V30 17632 H 1694.76 0.319274 3.89995 0
M  V30 17633 H 1694.38 -1.38692 3.72626 0
M  V30 17634 N 1695.38 -1.57561 -0.0350783 0
M  V30 17635 C 1696.61 -1.93644 -0.742753 0
M  V30 17636 C 1697.03 -0.837655 -1.68419 0
M  V30 17637 O 1696.39 0.207069 -1.80114 0
M  V30 17638 C 1696.44 -3.28779 -1.48111 0
M  V30 17639 O 1695.54 -3.20604 -2.59398 0
M  V30 17640 H 1694.88 -0.633103 -0.200192 0
M  V30 17641 H 1697.41 -2.04599 0.00765271 0
M  V30 17642 H 1697.42 -3.63527 -1.85236 0
M  V30 17643 H 1696.1 -4.08316 -0.790608 0
M  V30 17644 H 1694.67 -2.97477 -2.2486 0
M  V30 17645 N 1696.86 0.307236 -1.54576 0
M  V30 17646 C 1698.27 0.652539 -1.45651 0
M  V30 17647 C 1698.47 1.90978 -0.64263 0
M  V30 17648 O 1697.53 2.52067 -0.147863 0
M  V30 17649 C 1698.84 0.811341 -2.89547 0
M  V30 17650 C 1700.39 0.90763 -2.99551 0
M  V30 17651 C 1700.87 1.09848 -4.44632 0
M  V30 17652 N 1702.36 1.16483 -4.48315 0
M  V30 17653 C 1703.09 1.33068 -5.57746 0
M  V30 17654 N 1702.59 1.46591 -6.77114 0
M  V30 17655 N 1704.38 1.35906 -5.45423 0
M  V30 17656 H 1696.53 -0.518891 -2.05964 0
M  V30 17657 H 1698.8 -0.170463 -0.932548 0
M  V30 17658 H 1698.5 -0.0414879 -3.51676 0
M  V30 17659 H 1698.38 1.70224 -3.36606 0
M  V30 17660 H 1700.76 1.75095 -2.37541 0
M  V30 17661 H 1700.84 -0.00715386 -2.55799 0
M  V30 17662 H 1700.49 0.259948 -5.07234 0
M  V30 17663 H 1700.42 2.02739 -4.86009 0
M  V30 17664 H 1702.91 1.07411 -3.62314 0
M  V30 17665 H 1703.22 1.58983 -7.5627 0
M  V30 17666 H 1701.57 1.43658 -6.79991 0
M  V30 17667 H 1704.76 1.24949 -4.51116 0
M  V30 17668 H 1704.93 1.48489 -6.30758 0
M  V30 17669 N 1698.34 1.46926 0.570122 0
M  V30 17670 C 1699.58 1.52585 1.32523 0
M  V30 17671 C 1699.91 0.184291 1.94127 0
M  V30 17672 O 1699.18 -0.790478 1.79244 0
M  V30 17673 H 1697.76 0.562019 0.492081 0
M  V30 17674 H 1700.42 1.83141 0.666746 0
M  V30 17675 H 1699.51 2.28541 2.12545 0
M  V30 17676 N 1699.82 -0.815801 1.34842 0
M  V30 17677 C 1701.04 -1.60915 1.30848 0
M  V30 17678 C 1701.47 -1.87758 -0.113345 0
M  V30 17679 O 1700.82 -1.4582 -1.07732 0
M  V30 17680 C 1700.87 -2.92284 2.11192 0
M  V30 17681 O 1699.98 -3.84685 1.48632 0
M  V30 17682 H 1699.32 -0.48913 0.449052 0
M  V30 17683 H 1701.85 -1.01322 1.7775 0
M  V30 17684 H 1701.86 -3.41789 2.2281 0
M  V30 17685 H 1700.53 -2.72071 3.14563 0
M  V30 17686 H 1699.11 -3.43215 1.458 0
M  V30 17687 N 1701.29 -1.18689 -1.03686 0
M  V30 17688 C 1702.22 -0.94094 -2.13702 0
M  V30 17689 C 1703.2 0.12277 -1.69656 0
M  V30 17690 O 1704.39 -0.0306085 -1.94176 0
M  V30 17691 C 1701.52 -0.470054 -3.44104 0
M  V30 17692 C 1700.47 -1.47468 -4.01792 0
M  V30 17693 C 1699.8 -0.861174 -5.2772 0
M  V30 17694 C 1701.1 -2.85254 -4.37524 0
M  V30 17695 H 1702.79 -1.86102 -2.34534 0
M  V30 17696 H 1700.34 -0.896207 -1.12713 0
M  V30 17697 H 1702.29 -0.28533 -4.20433 0
M  V30 17698 H 1701.02 0.485604 -3.2297 0
M  V30 17699 H 1699.68 -1.64641 -3.2755 0
M  V30 17700 H 1699.32 0.10179 -5.02897 0
M  V30 17701 H 1699.02 -1.53196 -5.67278 0
M  V30 17702 H 1700.55 -0.687066 -6.06722 0
M  V30 17703 H 1701.96 -2.71711 -5.04823 0
M  V30 17704 H 1700.36 -3.49051 -4.88143 0
M  V30 17705 H 1701.43 -3.38516 -3.47181 0
M  V30 17706 N 1702.77 1.22662 -0.989529 0
M  V30 17707 C 1703.7 2.26762 -0.556891 0
M  V30 17708 C 1704.68 1.64971 0.414538 0
M  V30 17709 O 1705.87 1.91775 0.305909 0
M  V30 17710 C 1703 3.47047 0.132573 0
M  V30 17711 C 1701.95 4.21251 -0.757058 0
M  V30 17712 C 1701.28 5.3466 0.065134 0
M  V30 17713 C 1702.58 4.8029 -2.05229 0
M  V30 17714 H 1704.27 2.63204 -1.42703 0
M  V30 17715 H 1701.82 1.26522 -0.687614 0
M  V30 17716 H 1703.77 4.19027 0.446609 0
M  V30 17717 H 1702.49 3.09692 1.03723 0
M  V30 17718 H 1701.15 3.51101 -1.05469 0
M  V30 17719 H 1700.8 4.93547 0.970607 0
M  V30 17720 H 1700.5 5.85231 -0.527063 0
M  V30 17721 H 1702.03 6.09458 0.373342 0
M  V30 17722 H 1703.44 5.44229 -1.80242 0
M  V30 17723 H 1701.84 5.41186 -2.59302 0
M  V30 17724 H 1702.91 4.00529 -2.73322 0
M  V30 17725 N 1704.25 0.762308 1.37937 0
M  V30 17726 C 1705.47 0.332217 2.04722 0
M  V30 17727 C 1705.9 -1.03417 1.57119 0
M  V30 17728 O 1705.26 -1.6608 0.727117 0
M  V30 17729 C 1705.31 0.373899 3.58656 0
M  V30 17730 O 1704.41 -0.629024 4.07575 0
M  V30 17731 H 1703.75 0.145471 0.647869 0
M  V30 17732 H 1706.28 1.03586 1.7644 0
M  V30 17733 H 1706.29 0.22785 4.07363 0
M  V30 17734 H 1704.97 1.37079 3.92661 0
M  V30 17735 H 1703.54 -0.446871 3.70213 0
M  V30 17736 N 1705.73 -1.49049 0.51208 0
M  V30 17737 C 1707.14 -1.86579 0.0670687 0
M  V30 17738 C 1707.49 -1.42339 -1.35034 0
M  V30 17739 O 1706.61 -0.806142 -2.00824 0
M  V30 17740 C 1707.21 -3.38605 0.114936 0
M  V30 17741 C 1705.77 -3.75396 -0.274787 0
M  V30 17742 C 1704.92 -2.73068 0.482613 0
M  V30 17743 H 1707.87 -1.41208 0.724287 0
M  V30 17744 H 1707.89 -3.74416 -0.677722 0
M  V30 17745 H 1707.4 -3.70774 1.14666 0
M  V30 17746 H 1705.5 -3.48837 -1.30933 0
M  V30 17747 H 1705.61 -4.79071 0.0523691 0
M  V30 17748 H 1703.98 -2.54607 -0.0689364 0
M  V30 17749 H 1704.76 -3.08081 1.51463 0
M  V30 17750 N 1707.21 -0.246397 -1.55662 0
M  V30 17751 C 1708.62 0.108465 -1.59231 0
M  V30 17752 C 1708.82 1.56961 -1.26354 0
M  V30 17753 O 1707.88 2.31393 -1.01062 0
M  V30 17754 C 1709.19 -0.240265 -2.99739 0
M  V30 17755 C 1710.74 -0.184523 -3.12456 0
M  V30 17756 C 1711.21 -0.507279 -4.55182 0
M  V30 17757 N 1712.7 -0.457761 -4.60933 0
M  V30 17758 C 1713.44 -0.680664 -5.69346 0
M  V30 17759 N 1712.94 -0.966667 -6.86023 0
M  V30 17760 N 1714.73 -0.611405 -5.58765 0
M  V30 17761 H 1706.88 -1.19928 -1.75303 0
M  V30 17762 H 1709.14 -0.482503 -0.816024 0
M  V30 17763 H 1708.85 -1.25535 -3.28533 0
M  V30 17764 H 1708.72 0.432872 -3.74708 0
M  V30 17765 H 1711.11 0.821232 -2.83443 0
M  V30 17766 H 1711.19 -0.891504 -2.39762 0
M  V30 17767 H 1710.83 -1.51059 -4.84916 0
M  V30 17768 H 1710.76 0.221174 -5.26135 0
M  V30 17769 H 1713.26 -0.245414 -3.77102 0
M  V30 17770 H 1713.57 -1.12419 -7.6458 0
M  V30 17771 H 1711.91 -1.00413 -6.87708 0
M  V30 17772 H 1715.1 -0.388018 -4.66489 0
M  V30 17773 H 1715.28 -0.788519 -6.43185 0
M  V30 17774 N 1708.68 1.57577 0.026722 0
M  V30 17775 C 1710.09 1.77689 0.573022 0
M  V30 17776 C 1710.45 0.877771 1.7547 0
M  V30 17777 O 1709.57 0.0732156 2.16276 0
M  V30 17778 C 1710.17 3.22239 1.0463 0
M  V30 17779 C 1708.72 3.4354 1.5381 0
M  V30 17780 C 1707.87 2.73163 0.47722 0
M  V30 17781 H 1710.82 1.57441 -0.199502 0
M  V30 17782 H 1710.84 3.28882 1.91355 0
M  V30 17783 H 1710.36 3.87654 0.186047 0
M  V30 17784 H 1708.46 2.83304 2.42012 0
M  V30 17785 H 1708.57 4.52158 1.58398 0
M  V30 17786 H 1706.93 2.37004 0.932793 0
M  V30 17787 H 1707.72 3.41261 -0.373605 0
M  V30 17788 N 1710.16 -0.299034 1.54737 0
M  V30 17789 C 1711.41 -1.03164 1.7332 0
M  V30 17790 C 1711.72 -1.88362 0.527184 0
M  V30 17791 O 1712.93 -2.64903 0.594868 0
M  V30 17792 C 1711.39 -1.88391 3.06654 0
M  V30 17793 C 1710.99 -1.08187 4.34741 0
M  V30 17794 C 1712.74 -2.6124 3.34595 0
M  V30 17795 C 1710.64 -1.92702 5.59124 0
M  V30 17796 H 1709.57 -0.388887 0.645975 0
M  V30 17797 H 1712.23 -0.288544 1.81217 0
M  V30 17798 H 1710.61 -2.66696 2.92727 0
M  V30 17799 H 1711.78 -0.344817 4.59508 0
M  V30 17800 H 1710.1 -0.469118 4.13749 0
M  V30 17801 H 1712.69 -3.24826 4.24726 0
M  V30 17802 H 1713.04 -3.30172 2.53559 0
M  V30 17803 H 1713.57 -1.89982 3.49502 0
M  V30 17804 H 1710.31 -1.28236 6.42834 0
M  V30 17805 H 1709.83 -2.64074 5.38539 0
M  V30 17806 H 1711.51 -2.50702 5.96454 0
M  V30 17807 N 1711.64 -1.47227 -0.562322 0
M  V30 17808 C 1712.86 -1.5744 -1.35008 0
M  V30 17809 C 1713.29 -0.223223 -1.86771 0
M  V30 17810 O 1712.65 0.800078 -1.62691 0
M  V30 17811 C 1712.7 -2.5992 -2.49948 0
M  V30 17812 O 1711.8 -2.14836 -3.52022 0
M  V30 17813 H 1711.14 -0.529064 -0.401232 0
M  V30 17814 H 1713.67 -1.92966 -0.680084 0
M  V30 17815 H 1713.68 -2.80177 -2.96588 0
M  V30 17816 H 1712.36 -3.58031 -2.11629 0
M  V30 17817 H 1710.93 -2.04655 -3.11722 0
M  V30 17818 N 1713.12 0.808639 -1.35273 0
M  V30 17819 C 1714.35 1.5947 -1.31351 0
M  V30 17820 C 1714.76 1.88871 0.111546 0
M  V30 17821 O 1714.1 1.49082 1.07332 0
M  V30 17822 C 1714.16 2.95278 -2.05064 0
M  V30 17823 C 1713.82 2.88702 -3.5426 0
M  V30 17824 C 1714.82 2.62283 -4.48892 0
M  V30 17825 C 1712.51 3.07884 -3.96879 0
M  V30 17826 C 1714.5 2.55118 -5.84118 0
M  V30 17827 C 1712.19 3.00343 -5.322 0
M  V30 17828 C 1713.19 2.73995 -6.25632 0
M  V30 17829 O 1712.87 2.66413 -7.58472 0
M  V30 17830 H 1712.61 0.501927 -0.45282 0
M  V30 17831 H 1715.16 1.01307 -1.78678 0
M  V30 17832 H 1713.39 3.55416 -1.5237 0
M  V30 17833 H 1715.08 3.56403 -1.94246 0
M  V30 17834 H 1715.84 2.47184 -4.17283 0
M  V30 17835 H 1711.72 3.27404 -3.24542 0
M  V30 17836 H 1715.27 2.34473 -6.57015 0
M  V30 17837 H 1711.16 3.14999 -5.63424 0
M  V30 17838 H 1711.93 2.82036 -7.68374 0
M  V30 17839 N 1714.6 1.19237 1.03055 0
M  V30 17840 C 1715.53 0.95226 2.132 0
M  V30 17841 C 1716.51 -0.113771 1.69719 0
M  V30 17842 O 1717.69 0.0409057 1.94157 0
M  V30 17843 C 1714.82 0.488296 3.4385 0
M  V30 17844 C 1713.78 1.49597 4.01005 0
M  V30 17845 C 1713.1 0.889148 5.27255 0
M  V30 17846 C 1714.4 2.87571 4.36005 0
M  V30 17847 H 1716.1 1.87343 2.33544 0
M  V30 17848 H 1713.64 0.902172 1.12236 0
M  V30 17849 H 1715.6 0.307623 4.20276 0
M  V30 17850 H 1714.32 -0.468469 3.23223 0
M  V30 17851 H 1712.98 1.66376 3.26672 0
M  V30 17852 H 1712.63 -0.0751191 5.02944 0
M  V30 17853 H 1712.33 1.56202 5.66458 0
M  V30 17854 H 1713.85 0.719233 6.06349 0
M  V30 17855 H 1715.26 2.74384 5.03375 0
M  V30 17856 H 1713.66 3.51635 4.86285 0
M  V30 17857 H 1714.73 3.40353 3.45381 0
M  V30 17858 N 1716.07 -1.22136 0.99602 0
M  V30 17859 C 1717.02 -2.24178 0.54889 0
M  V30 17860 C 1717.99 -1.60692 -0.420391 0
M  V30 17861 O 1719.18 -1.88021 -0.324452 0
M  V30 17862 C 1716.32 -3.44865 -0.127239 0
M  V30 17863 C 1715.43 -4.22855 0.884153 0
M  V30 17864 C 1714.56 -5.30891 0.181219 0
M  V30 17865 C 1713.6 -6.00603 1.18077 0
M  V30 17866 N 1712.74 -7.00275 0.505927 0
M  V30 17867 H 1717.58 -2.61788 1.42377 0
M  V30 17868 H 1715.12 -1.28658 0.713124 0
M  V30 17869 H 1717.08 -4.1374 -0.536194 0
M  V30 17870 H 1715.71 -3.0801 -0.965892 0
M  V30 17871 H 1714.76 -3.53247 1.41141 0
M  V30 17872 H 1716.07 -4.70888 1.64518 0
M  V30 17873 H 1715.22 -6.06033 -0.284307 0
M  V30 17874 H 1713.96 -4.83841 -0.612289 0
M  V30 17875 H 1712.97 -5.2424 1.65689 0
M  V30 17876 H 1714.19 -6.4974 1.9752 0
M  V30 17877 H 1712.14 -6.55452 -0.268088 0
M  V30 17878 H 1712.06 -7.46329 1.20535 0
M  V30 17879 H 1713.32 -7.79474 0.0633069 0
M  V30 17880 N 1717.55 -0.769612 -1.37531 0
M  V30 17881 C 1718.8 -0.332309 -1.99349 0
M  V30 17882 C 1719.12 1.09432 -1.61399 0
M  V30 17883 O 1718.39 1.75102 -0.878415 0
M  V30 17884 H 1716.97 -0.119879 -0.737318 0
M  V30 17885 H 1719.63 -0.987265 -1.68045 0
M  V30 17886 H 1718.73 -0.408233 -3.09419 0
M  V30 17887 N 1719.03 1.48775 -0.519977 0
M  V30 17888 C 1720.26 2.07394 0.0161061 0
M  V30 17889 C 1720.68 1.37532 1.28322 0
M  V30 17890 O 1720.04 0.438049 1.75928 0
M  V30 17891 C 1720.09 3.59844 0.233382 0
M  V30 17892 O 1719.19 3.91235 1.30418 0
M  V30 17893 H 1718.53 0.663094 -0.0346678 0
M  V30 17894 H 1721.06 1.91323 -0.725029 0
M  V30 17895 H 1721.07 4.05409 0.45911 0
M  V30 17896 H 1719.75 4.10098 -0.69229 0
M  V30 17897 H 1718.32 3.5746 1.0619 0
M  V30 17898 N 1720.51 0.254649 1.55529 0
M  V30 17899 C 1721.73 -0.374795 2.03985 0
M  V30 17900 C 1722.16 -1.50188 1.13249 0
M  V30 17901 O 1721.52 -1.80855 0.126963 0
M  V30 17902 C 1721.56 -0.852635 3.50375 0
M  V30 17903 O 1720.67 -1.9616 3.6276 0
M  V30 17904 H 1720.01 -0.0806157 0.659088 0
M  V30 17905 H 1722.54 0.38297 2.00984 0
M  V30 17906 H 1722.55 -1.15381 3.91345 0
M  V30 17907 H 1721.22 -0.0279044 4.15891 0
M  V30 17908 H 1719.8 -1.66453 3.33688 0
M  V30 17909 N 1721.99 -1.57589 -0.0183649 0
M  V30 17910 C 1723.23 -1.89382 -0.705612 0
M  V30 17911 C 1723.56 -0.853698 -1.7532 0
M  V30 17912 O 1722.83 0.111322 -1.95583 0
M  V30 17913 H 1721.41 -0.698943 -0.263605 0
M  V30 17914 H 1724.07 -1.94891 0.0182168 0
M  V30 17915 H 1723.16 -2.88587 -1.18845 0
M  V30 17916 N 1723.46 0.290824 -1.54893 0
M  V30 17917 C 1724.71 1.02272 -1.74312 0
M  V30 17918 C 1725.03 1.87449 -0.537393 0
M  V30 17919 O 1724.3 1.90705 0.448135 0
M  V30 17920 H 1722.88 0.380592 -0.642774 0
M  V30 17921 H 1725.55 0.319353 -1.92266 0
M  V30 17922 H 1724.64 1.66997 -2.63663 0
M  V30 17923 N 1724.94 1.47523 0.554506 0
M  V30 17924 C 1726.35 1.48114 1.13662 0
M  V30 17925 C 1726.7 0.237321 1.94759 0
M  V30 17926 O 1725.83 -0.657558 2.06168 0
M  V30 17927 C 1726.42 2.68366 2.06797 0
M  V30 17928 C 1724.98 2.71908 2.60274 0
M  V30 17929 C 1724.13 2.41258 1.3671 0
M  V30 17930 H 1727.08 1.54994 0.34097 0
M  V30 17931 H 1727.1 2.4549 2.90714 0
M  V30 17932 H 1726.61 3.58877 1.47745 0
M  V30 17933 H 1724.72 1.85543 3.23117 0
M  V30 17934 H 1724.83 3.72673 3.01084 0
M  V30 17935 H 1723.19 1.91897 1.67474 0
M  V30 17936 H 1723.98 3.3398 0.794476 0
M  V30 17937 N 1726.42 -0.801453 1.357 0
M  V30 17938 C 1727.35 -1.92807 1.31711 0
M  V30 17939 C 1728.33 -1.69028 0.190642 0
M  V30 17940 O 1729.52 -1.90317 0.38641 0
M  V30 17941 C 1726.65 -3.29635 1.09352 0
M  V30 17942 C 1725.6 -3.67908 2.18695 0
M  V30 17943 C 1724.93 -5.02955 1.81494 0
M  V30 17944 C 1726.23 -3.77749 3.60698 0
M  V30 17945 H 1727.92 -1.96401 2.2598 0
M  V30 17946 H 1725.47 -0.943528 1.08782 0
M  V30 17947 H 1727.42 -4.08058 1.052 0
M  V30 17948 H 1726.14 -3.26396 0.115306 0
M  V30 17949 H 1724.8 -2.91775 2.21952 0
M  V30 17950 H 1724.45 -4.96225 0.822776 0
M  V30 17951 H 1724.15 -5.29533 2.54692 0
M  V30 17952 H 1725.67 -5.83811 1.78876 0
M  V30 17953 H 1727.09 -4.4639 3.59734 0
M  V30 17954 H 1725.49 -4.15801 4.327 0
M  V30 17955 H 1726.56 -2.79167 3.96477 0
M  V30 17956 N 1727.9 -1.19782 -1.02421 0
M  V30 17957 C 1728.83 -0.963553 -2.12692 0
M  V30 17958 C 1729.81 0.104769 -1.69777 0
M  V30 17959 O 1730.99 -0.0512017 -1.94132 0
M  V30 17960 C 1728.12 -0.506525 -3.43586 0
M  V30 17961 C 1727.08 -1.51722 -4.00206 0
M  V30 17962 C 1726.4 -0.917097 -5.26776 0
M  V30 17963 C 1727.7 -2.89879 -4.34474 0
M  V30 17964 H 1729.4 -1.88579 -2.32547 0
M  V30 17965 H 1726.94 -0.908111 -1.11756 0
M  V30 17966 H 1728.9 -0.329907 -4.20107 0
M  V30 17967 H 1727.62 0.451322 -3.23467 0
M  V30 17968 H 1726.28 -1.68106 -3.25785 0
M  V30 17969 H 1725.93 0.0484457 -5.02977 0
M  V30 17970 H 1725.63 -1.59204 -5.65622 0
M  V30 17971 H 1727.15 -0.751379 -6.05959 0
M  V30 17972 H 1728.57 -2.7705 -5.01913 0
M  V30 17973 H 1726.96 -3.54209 -4.84413 0
M  V30 17974 H 1728.03 -3.42179 -3.43571 0
M  V30 17975 N 1729.38 1.21606 -1.00248 0
M  V30 17976 C 1730.62 1.92326 -0.692091 0
M  V30 17977 C 1730.98 1.76196 0.76282 0
M  V30 17978 O 1732.18 2.41266 1.18508 0
M  V30 17979 C 1730.45 3.40099 -1.09853 0
M  V30 17980 S 1732.01 4.29304 -0.907961 0
M  V30 17981 H 1728.83 0.664561 -0.252744 0
M  V30 17982 H 1731.43 1.47181 -1.28678 0
M  V30 17983 H 1730.14 3.49355 -2.15359 0
M  V30 17984 H 1729.67 3.9026 -0.496031 0
M  V30 17985 H 1731.68 4.95811 0.196321 0
M  V30 17986 N 1730.86 0.776895 1.37121 0
M  V30 17987 C 1732.27 0.408311 1.8218 0
M  V30 17988 C 1732.62 -1.06621 1.64701 0
M  V30 17989 O 1731.74 -1.82621 1.16097 0
M  V30 17990 C 1732.34 0.734339 3.30746 0
M  V30 17991 C 1730.9 0.418746 3.74063 0
M  V30 17992 C 1730.04 0.97551 2.59575 0
M  V30 17993 H 1732.99 0.971111 1.25519 0
M  V30 17994 H 1733.02 0.0208557 3.80494 0
M  V30 17995 H 1732.53 1.80757 3.43436 0
M  V30 17996 H 1730.63 -0.646961 3.6694 0
M  V30 17997 H 1730.74 0.930597 4.69975 0
M  V30 17998 H 1729.11 0.399449 2.51548 0
M  V30 17999 H 1729.89 2.05425 2.75056 0
M  V30 18000 N 1732.33 -1.48497 0.527859 0
M  V30 18001 C 1733.56 -2.07399 -0.00510725 0
M  V30 18002 C 1733.98 -1.38211 -1.2759 0
M  V30 18003 O 1733.34 -0.447373 -1.75694 0
M  V30 18004 C 1733.39 -3.59963 -0.214295 0
M  V30 18005 O 1732.49 -3.91921 -1.28342 0
M  V30 18006 H 1731.83 -0.662901 0.0381838 0
M  V30 18007 H 1734.36 -1.90936 0.735166 0
M  V30 18008 H 1734.37 -4.05646 -0.437604 0
M  V30 18009 H 1733.05 -4.09725 0.714028 0
M  V30 18010 H 1731.63 -3.58019 -1.04293 0
M  V30 18011 N 1733.81 -0.262893 -1.55392 0
M  V30 18012 C 1735.06 0.35666 -1.98928 0
M  V30 18013 C 1735.38 1.5729 -1.1526 0
M  V30 18014 O 1734.65 1.94435 -0.239164 0
M  V30 18015 H 1733.23 0.134768 -0.734742 0
M  V30 18016 H 1735.89 -0.365394 -1.91444 0
M  V30 18017 H 1734.99 0.654895 -3.05152 0
M  V30 18018 N 1735.29 1.57597 0.0100073 0
M  V30 18019 C 1736.24 2.04265 1.01292 0
M  V30 18020 C 1737.22 0.93547 1.30911 0
M  V30 18021 O 1738.42 1.19929 1.30177 0
M  V30 18022 C 1735.54 2.54129 2.3081 0
M  V30 18023 C 1734.63 3.71704 2.04198 0
M  V30 18024 N 1735.02 4.83752 1.47709 0
M  V30 18025 C 1733.32 3.79443 2.34391 0
M  V30 18026 C 1734.02 5.65255 1.37339 0
M  V30 18027 N 1733 5.1095 1.85556 0
M  V30 18028 H 1736.8 2.8831 0.570489 0
M  V30 18029 H 1734.31 1.60958 0.215919 0
M  V30 18030 H 1736.31 2.85832 3.03489 0
M  V30 18031 H 1734.97 1.71497 2.75715 0
M  V30 18032 H 1735.98 5.04805 1.15723 0
M  V30 18033 H 1732.66 3.07648 2.82239 0
M  V30 18034 H 1734.05 6.65293 0.939918 0
M  V30 18035 N 1736.77 -0.282606 1.55045 0
M  V30 18036 C 1738.01 -1.01698 1.75458 0
M  V30 18037 C 1738.35 -1.86284 0.548808 0
M  V30 18038 O 1737.62 -1.89131 -0.45382 0
M  V30 18039 C 1737.9 -1.90759 3.05423 0
M  V30 18040 C 1737.76 -1.0923 4.36336 0
M  V30 18041 C 1739.08 -2.8963 3.31364 0
M  V30 18042 H 1736.2 -0.368305 0.638373 0
M  V30 18043 H 1738.84 -0.290118 1.87772 0
M  V30 18044 H 1736.99 -2.52734 2.95055 0
M  V30 18045 H 1738.66 -0.493996 4.58647 0
M  V30 18046 H 1736.9 -0.395481 4.31994 0
M  V30 18047 H 1737.57 -1.74842 5.23578 0
M  V30 18048 H 1740.05 -2.37788 3.41462 0
M  V30 18049 H 1738.93 -3.49096 4.23584 0
M  V30 18050 H 1739.19 -3.64255 2.50541 0
M  V30 18051 N 1738.25 -1.47815 -0.546675 0
M  V30 18052 C 1739.49 -1.5521 -1.30529 0
M  V30 18053 C 1739.82 -0.218129 -1.92971 0
M  V30 18054 O 1739.1 0.774298 -1.78423 0
M  V30 18055 C 1739.38 -2.67799 -2.40739 0
M  V30 18056 C 1739.24 -4.10847 -1.83097 0
M  V30 18057 C 1740.55 -2.76238 -3.42608 0
M  V30 18058 H 1737.67 -0.564998 -0.473229 0
M  V30 18059 H 1740.32 -1.79917 -0.610713 0
M  V30 18060 H 1738.47 -2.46863 -2.99985 0
M  V30 18061 H 1740.14 -4.43177 -1.28031 0
M  V30 18062 H 1738.38 -4.1863 -1.13716 0
M  V30 18063 H 1739.05 -4.85418 -2.62818 0
M  V30 18064 H 1741.53 -2.95156 -2.93296 0
M  V30 18065 H 1740.4 -3.56774 -4.17137 0
M  V30 18066 H 1740.66 -1.83719 -4.02119 0
M  V30 18067 N 1739.72 0.794246 -1.36123 0
M  V30 18068 C 1740.97 1.54885 -1.29827 0
M  V30 18069 C 1741.29 1.94608 0.123517 0
M  V30 18070 O 1740.56 1.6457 1.06272 0
M  V30 18071 H 1739.14 0.574398 -0.477573 0
M  V30 18072 H 1741.8 0.946658 -1.70365 0
M  V30 18073 H 1740.9 2.45863 -1.92244 0
M  V30 18074 N 1741.2 1.20323 1.01785 0
M  V30 18075 C 1742.45 1.00688 1.74771 0
M  V30 18076 C 1742.76 -0.461769 1.90071 0
M  V30 18077 O 1743.97 -0.777214 2.60138 0
M  V30 18078 C 1742.43 1.75278 3.14334 0
M  V30 18079 C 1742.03 3.26227 3.0705 0
M  V30 18080 C 1743.78 1.64006 3.91538 0
M  V30 18081 C 1741.68 3.9336 4.41613 0
M  V30 18082 H 1740.61 0.373123 0.655206 0
M  V30 18083 H 1743.27 1.43931 1.13825 0
M  V30 18084 H 1741.65 1.24821 3.75813 0
M  V30 18085 H 1742.82 3.83888 2.54885 0
M  V30 18086 H 1741.14 3.37898 2.43339 0
M  V30 18087 H 1743.73 2.11503 4.91091 0
M  V30 18088 H 1744.08 0.59605 4.12011 0
M  V30 18089 H 1744.61 2.11869 3.36684 0
M  V30 18090 H 1741.35 4.97907 4.26344 0
M  V30 18091 H 1740.87 3.40488 4.93789 0
M  V30 18092 H 1742.55 3.97541 5.10461 0
M  V30 18093 N 1742.68 -1.21073 1.00892 0
M  V30 18094 C 1743.93 -1.90242 0.693851 0
M  V30 18095 C 1744.25 -1.78359 -0.77578 0
M  V30 18096 O 1743.51 -1.15694 -1.57839 0
M  V30 18097 C 1743.81 -3.41148 1.0655 0
M  V30 18098 C 1743.47 -3.73228 2.53005 0
M  V30 18099 C 1742.14 -3.81694 2.93024 0
M  V30 18100 C 1744.49 -3.88132 3.47855 0
M  V30 18101 C 1741.82 -4.02515 4.26847 0
M  V30 18102 C 1744.17 -4.10461 4.81357 0
M  V30 18103 C 1742.83 -4.17155 5.21093 0
M  V30 18104 H 1742.1 -0.696144 0.253898 0
M  V30 18105 H 1744.75 -1.43499 1.26808 0
M  V30 18106 H 1743.05 -3.89653 0.409575 0
M  V30 18107 H 1744.75 -3.92949 0.799525 0
M  V30 18108 H 1741.34 -3.67233 2.20994 0
M  V30 18109 H 1745.53 -3.80954 3.18101 0
M  V30 18110 H 1740.78 -4.0593 4.57199 0
M  V30 18111 H 1744.96 -4.20935 5.54785 0
M  V30 18112 H 1742.58 -4.33041 6.24804 0
M  V30 18113 N 1744.16 -0.784156 -1.36707 0
M  V30 18114 C 1745.57 -0.465219 -1.52669 0
M  V30 18115 C 1745.77 1.01729 -1.73935 0
M  V30 18116 O 1744.83 1.80289 -1.76783 0
M  V30 18117 C 1746.14 -1.29109 -2.71572 0
M  V30 18118 C 1747.69 -1.28424 -2.8544 0
M  V30 18119 C 1748.17 -2.09373 -4.07341 0
M  V30 18120 N 1749.66 -2.06792 -4.14477 0
M  V30 18121 C 1750.39 -2.66199 -5.07864 0
M  V30 18122 N 1749.89 -3.34445 -6.06728 0
M  V30 18123 N 1751.68 -2.55962 -5.0044 0
M  V30 18124 H 1743.83 -1.74456 -1.21156 0
M  V30 18125 H 1746.1 -0.741286 -0.59093 0
M  V30 18126 H 1745.8 -2.34219 -2.62363 0
M  V30 18127 H 1745.68 -0.928764 -3.65587 0
M  V30 18128 H 1748.06 -0.241077 -2.94114 0
M  V30 18129 H 1748.14 -1.68629 -1.92348 0
M  V30 18130 H 1747.79 -3.13718 -3.99429 0
M  V30 18131 H 1747.72 -1.66542 -4.99571 0
M  V30 18132 H 1750.21 -1.57118 -3.43689 0
M  V30 18133 H 1750.52 -3.77118 -6.74538 0
M  V30 18134 H 1748.87 -3.38546 -6.06969 0
M  V30 18135 H 1752.06 -2.02251 -4.22152 0
M  V30 18136 H 1752.23 -3.02553 -5.73032 0
M  V30 18137 N 1745.64 1.48215 -0.535727 0
M  V30 18138 C 1746.6 2.28206 0.213212 0
M  V30 18139 C 1747.6 1.3571 0.862522 0
M  V30 18140 O 1748.79 1.58547 0.721688 0
M  V30 18141 C 1745.92 3.1476 1.30917 0
M  V30 18142 H 1747.11 2.95884 -0.489163 0
M  V30 18143 H 1744.67 1.53551 -0.291872 0
M  V30 18144 H 1745.4 2.51726 2.04462 0
M  V30 18145 H 1745.19 3.82806 0.848633 0
M  V30 18146 H 1746.68 3.75085 1.83579 0
M  V30 18147 N 1747.11 0.27113 1.5525 0
M  V30 18148 C 1748.08 -0.604946 2.21072 0
M  V30 18149 C 1749.08 -1.08438 1.18735 0
M  V30 18150 O 1750.27 -0.985192 1.43665 0
M  V30 18151 C 1747.4 -1.83416 2.87353 0
M  V30 18152 H 1748.59 -0.0302981 2.99885 0
M  V30 18153 H 1746.15 0.0217204 1.56285 0
M  V30 18154 H 1746.88 -2.44942 2.12542 0
M  V30 18155 H 1746.67 -1.49834 3.62343 0
M  V30 18156 H 1748.16 -2.45724 3.37653 0
M  V30 18157 N 1748.59 -1.576 -0.00164943 0
M  V30 18158 C 1749.84 -1.90778 -0.68786 0
M  V30 18159 C 1750.17 -0.872138 -1.73515 0
M  V30 18160 O 1749.45 0.109349 -1.94192 0
M  V30 18161 C 1749.73 -3.34539 -1.3325 0
M  V30 18162 C 1749.58 -4.48819 -0.296862 0
M  V30 18163 C 1750.9 -3.77693 -2.25911 0
M  V30 18164 H 1748.02 -0.69381 -0.24859 0
M  V30 18165 H 1750.66 -1.89936 0.0493059 0
M  V30 18166 H 1748.81 -3.35388 -1.9608 0
M  V30 18167 H 1750.48 -4.60106 0.331635 0
M  V30 18168 H 1748.73 -4.32123 0.38105 0
M  V30 18169 H 1749.4 -5.46362 -0.786927 0
M  V30 18170 H 1751.87 -3.78386 -1.73099 0
M  V30 18171 H 1750.75 -4.79037 -2.67983 0
M  V30 18172 H 1751.01 -3.11469 -3.1375 0
M  V30 18173 N 1750.07 0.274379 -1.55193 0
M  V30 18174 C 1751.31 1.01383 -1.77485 0
M  V30 18175 C 1751.67 1.83549 -0.563373 0
M  V30 18176 O 1752.88 2.60457 -0.664517 0
M  V30 18177 C 1751.15 1.87414 -3.0432 0
M  V30 18178 S 1752.71 2.67644 -3.47725 0
M  V30 18179 H 1749.52 0.341489 -0.623623 0
M  V30 18180 H 1752.13 0.284398 -1.9342 0
M  V30 18181 H 1750.83 1.25974 -3.90588 0
M  V30 18182 H 1750.36 2.6468 -2.91046 0
M  V30 18183 H 1752.38 3.89914 -3.06889 0
M  V30 18184 N 1751.55 1.48103 0.538828 0
M  V30 18185 C 1752.78 1.59316 1.32008 0
M  V30 18186 C 1753.19 0.250107 1.87136 0
M  V30 18187 O 1752.55 -0.759358 1.65952 0
M  V30 18188 C 1752.6 2.63287 2.47714 0
M  V30 18189 O 1752.32 3.92379 1.9486 0
M  V30 18190 C 1753.82 2.84856 3.39664 0
M  V30 18191 H 1751.04 0.53743 0.401758 0
M  V30 18192 H 1753.59 1.93864 0.65092 0
M  V30 18193 H 1751.74 2.31621 3.10532 0
M  V30 18194 H 1752.15 4.49346 2.70534 0
M  V30 18195 H 1753.63 3.61426 4.17223 0
M  V30 18196 H 1754.11 1.93352 3.9435 0
M  V30 18197 H 1754.71 3.17791 2.82647 0
M  V30 18198 N 1753.03 -0.787016 1.36542 0
M  V30 18199 C 1754.44 -1.08541 1.17008 0
M  V30 18200 C 1754.64 -2.015 -0.00419378 0
M  V30 18201 O 1753.7 -2.43481 -0.668826 0
M  V30 18202 C 1755.01 -1.69758 2.48199 0
M  V30 18203 C 1756.56 -1.82088 2.54584 0
M  V30 18204 C 1757.03 -2.46719 3.85868 0
M  V30 18205 N 1758.53 -2.54185 3.87227 0
M  V30 18206 C 1759.26 -3.05008 4.85549 0
M  V30 18207 N 1758.76 -3.56121 5.94264 0
M  V30 18208 N 1760.55 -3.03742 4.72966 0
M  V30 18209 H 1752.7 -0.16948 2.11723 0
M  V30 18210 H 1754.96 -0.137802 0.937931 0
M  V30 18211 H 1754.67 -1.08922 3.34408 0
M  V30 18212 H 1754.54 -2.69237 2.6418 0
M  V30 18213 H 1756.93 -2.42061 1.68792 0
M  V30 18214 H 1757.01 -0.814071 2.42501 0
M  V30 18215 H 1756.66 -1.87389 4.72068 0
M  V30 18216 H 1756.59 -3.47975 3.95248 0
M  V30 18217 H 1759.08 -2.17995 3.08685 0
M  V30 18218 H 1759.39 -3.93259 6.65257 0
M  V30 18219 H 1757.73 -3.54266 5.9793 0
M  V30 18220 H 1760.93 -2.63102 3.87163 0
M  V30 18221 H 1761.1 -3.43043 5.49751 0
M  V30 18222 N 1754.5 -1.20861 -1.01145 0
M  V30 18223 C 1755.75 -1.0199 -1.74478 0
M  V30 18224 C 1756.07 0.4484 -1.89775 0
M  V30 18225 O 1755.34 1.32386 -1.44398 0
M  V30 18226 H 1753.92 -0.37439 -0.646406 0
M  V30 18227 H 1756.59 -1.5206 -1.21917 0
M  V30 18228 H 1755.68 -1.48251 -2.74642 0
M  V30 18229 N 1755.98 1.20536 -1.01532 0
M  V30 18230 C 1757.23 1.90152 -0.704973 0
M  V30 18231 C 1757.56 1.78569 0.763343 0
M  V30 18232 O 1756.84 1.16906 1.55445 0
M  V30 18233 C 1757.12 3.41589 -1.1397 0
M  V30 18234 C 1756.97 3.62113 -2.66823 0
M  V30 18235 C 1758.29 4.34335 -0.709984 0
M  V30 18236 H 1755.41 0.690524 -0.257577 0
M  V30 18237 H 1758.05 1.41959 -1.26284 0
M  V30 18238 H 1756.2 3.82765 -0.66505 0
M  V30 18239 H 1757.87 3.30197 -3.2213 0
M  V30 18240 H 1756.12 3.05626 -3.07855 0
M  V30 18241 H 1756.79 4.68261 -2.92294 0
M  V30 18242 H 1759.26 4.00799 -1.11801 0
M  V30 18243 H 1758.14 5.38915 -1.04221 0
M  V30 18244 H 1758.4 4.40391 0.388408 0
M  V30 18245 N 1757.46 0.791395 1.36289 0
M  V30 18246 C 1758.42 0.197069 2.28351 0
M  V30 18247 C 1759.42 -0.606748 1.48913 0
M  V30 18248 O 1760.61 -0.427453 1.68874 0
M  V30 18249 C 1757.75 -0.727009 3.33058 0
M  V30 18250 H 1758.94 1.00885 2.82422 0
M  V30 18251 H 1756.49 0.560959 1.45887 0
M  V30 18252 H 1757.23 -1.56306 2.84146 0
M  V30 18253 H 1757.01 -0.152537 3.91803 0
M  V30 18254 H 1758.5 -1.13765 4.01805 0
M  V30 18255 N 1758.94 -1.47929 0.54358 0
M  V30 18256 C 1759.89 -2.29827 -0.211706 0
M  V30 18257 C 1760.86 -1.38217 -0.921154 0
M  V30 18258 O 1762.04 -1.67181 -0.919522 0
M  V30 18259 C 1759.18 -3.21889 -1.24425 0
M  V30 18260 C 1758.29 -4.28583 -0.542264 0
M  V30 18261 C 1757.43 -5.0781 -1.55892 0
M  V30 18262 C 1756.47 -6.06293 -0.841146 0
M  V30 18263 N 1755.61 -6.78528 -1.80399 0
M  V30 18264 H 1760.45 -2.93896 0.492835 0
M  V30 18265 H 1757.98 -1.44875 0.254873 0
M  V30 18266 H 1759.94 -3.73674 -1.85535 0
M  V30 18267 H 1758.57 -2.59713 -1.917 0
M  V30 18268 H 1757.62 -3.79959 0.183069 0
M  V30 18269 H 1758.93 -4.98796 0.0206703 0
M  V30 18270 H 1758.09 -5.63678 -2.24393 0
M  V30 18271 H 1756.83 -4.37468 -2.15576 0
M  V30 18272 H 1755.83 -5.49616 -0.14214 0
M  V30 18273 H 1757.06 -6.78639 -0.250232 0
M  V30 18274 H 1755 -6.10927 -2.38965 0
M  V30 18275 H 1754.92 -7.44863 -1.29285 0
M  V30 18276 H 1756.19 -7.38978 -2.48056 0
M  V30 18277 N 1760.42 -0.27936 -1.55104 0
M  V30 18278 C 1761.38 0.593214 -2.2139 0
M  V30 18279 C 1762.38 1.07807 -1.19308 0
M  V30 18280 O 1763.57 0.97756 -1.44185 0
M  V30 18281 C 1760.7 1.81889 -2.88321 0
M  V30 18282 H 1761.9 0.0143941 -2.99897 0
M  V30 18283 H 1759.45 -0.0300083 -1.56271 0
M  V30 18284 H 1760.18 2.43811 -2.13838 0
M  V30 18285 H 1759.97 1.4791 -3.63132 0
M  V30 18286 H 1761.46 2.4393 -3.38951 0
M  V30 18287 N 1761.9 1.57599 -0.0067085 0
M  V30 18288 C 1763.14 1.9114 0.677733 0
M  V30 18289 C 1763.47 0.881328 1.7305 0
M  V30 18290 O 1762.75 -0.099049 1.94248 0
M  V30 18291 C 1763.03 3.35241 1.31474 0
M  V30 18292 C 1762.89 4.4897 0.273055 0
M  V30 18293 C 1764.2 3.78886 2.23905 0
M  V30 18294 H 1761.32 0.695119 0.244907 0
M  V30 18295 H 1763.97 1.89907 -0.059378 0
M  V30 18296 H 1762.12 3.36423 1.94299 0
M  V30 18297 H 1763.79 4.59924 -0.356031 0
M  V30 18298 H 1762.03 4.31915 -0.403961 0
M  V30 18299 H 1762.7 5.46772 0.757941 0
M  V30 18300 H 1765.18 3.79299 1.7109 0
M  V30 18301 H 1764.05 4.80451 2.65439 0
M  V30 18302 H 1764.31 3.13129 3.12094 0
M  V30 18303 N 1763.37 -0.266145 1.55336 0
M  V30 18304 C 1764.65 -1.01852 1.6699 0
M  V30 18305 C 1765.03 -2.04053 0.54088 0
M  V30 18306 O 1764.38 -2.23859 -0.458193 0
M  V30 18307 C 1764.59 -1.66917 3.06496 0
M  V30 18308 C 1765.94 -2.17824 3.64469 0
M  V30 18309 O 1766.96 -1.76892 3.09173 0
M  V30 18310 O 1765.82 -2.92922 4.61367 0
M  V30 18311 H 1762.91 -0.472871 0.67847 0
M  V30 18312 H 1765.46 -0.261458 1.67674 0
M  V30 18313 H 1764.23 -0.928941 3.80114 0
M  V30 18314 H 1763.85 -2.49292 3.0974 0
M  V30 18315 N 1764.85 -1.48386 -0.530967 0
M  V30 18316 C 1766.1 -1.56354 -1.28685 0
M  V30 18317 C 1766.43 -0.237022 -1.9305 0
M  V30 18318 O 1765.68 0.772595 -1.79804 0
M  V30 18319 C 1765.98 -2.64979 -2.39835 0
M  V30 18320 C 1765.65 -4.07446 -1.93129 0
M  V30 18321 C 1764.31 -4.46222 -1.80108 0
M  V30 18322 C 1766.66 -4.96732 -1.5782 0
M  V30 18323 C 1763.99 -5.7209 -1.30113 0
M  V30 18324 C 1766.34 -6.23088 -1.09288 0
M  V30 18325 C 1765 -6.60722 -0.948835 0
M  V30 18326 H 1764.27 -0.572139 -0.470891 0
M  V30 18327 H 1766.92 -1.82099 -0.592626 0
M  V30 18328 H 1765.23 -2.3309 -3.14923 0
M  V30 18329 H 1766.92 -2.68359 -2.97967 0
M  V30 18330 H 1763.51 -3.76822 -2.04213 0
M  V30 18331 H 1767.7 -4.67452 -1.6674 0
M  V30 18332 H 1762.95 -5.99974 -1.17647 0
M  V30 18333 H 1767.13 -6.91669 -0.810376 0
M  V30 18334 H 1764.75 -7.5814 -0.559235 0
M  V30 18335 N 1766.33 0.779763 -1.36958 0
M  V30 18336 C 1767.58 1.53326 -1.31049 0
M  V30 18337 C 1767.89 1.95317 0.105139 0
M  V30 18338 O 1769.1 2.69983 0.286652 0
M  V30 18339 C 1767.55 2.76832 -2.29983 0
M  V30 18340 C 1767.16 2.41972 -3.77033 0
M  V30 18341 C 1768.91 3.54794 -2.3307 0
M  V30 18342 C 1766.81 3.61931 -4.67718 0
M  V30 18343 H 1765.74 0.57561 -0.48702 0
M  V30 18344 H 1768.39 0.854801 -1.62374 0
M  V30 18345 H 1766.78 3.46527 -1.91665 0
M  V30 18346 H 1767.95 1.80112 -4.24142 0
M  V30 18347 H 1766.26 1.77201 -3.76814 0
M  V30 18348 H 1768.86 4.4394 -2.98029 0
M  V30 18349 H 1769.2 3.94077 -1.34199 0
M  V30 18350 H 1769.74 2.92088 -2.70054 0
M  V30 18351 H 1766.48 3.27736 -5.67688 0
M  V30 18352 H 1766 4.22923 -4.25319 0
M  V30 18353 H 1767.68 4.28842 -4.84462 0
M  V30 18354 N 1767.81 1.21396 1.00503 0
M  V30 18355 C 1769.22 1.02983 1.55728 0
M  V30 18356 C 1769.57 -0.410383 1.9186 0
M  V30 18357 O 1768.69 -1.29358 1.7348 0
M  V30 18358 C 1769.29 1.86316 2.8297 0
M  V30 18359 C 1767.85 1.72235 3.34682 0
M  V30 18360 C 1767 1.8353 2.07875 0
M  V30 18361 H 1769.95 1.35418 0.827499 0
M  V30 18362 H 1769.97 1.37339 3.5485 0
M  V30 18363 H 1769.48 2.91131 2.56641 0
M  V30 18364 H 1767.58 0.701047 3.65945 0
M  V30 18365 H 1767.69 2.54198 4.06103 0
M  V30 18366 H 1766.06 1.26838 2.20872 0
M  V30 18367 H 1766.84 2.89852 1.83958 0
M  V30 18368 N 1769.29 -1.19996 1.0217 0
M  V30 18369 C 1770.53 -1.89776 0.715047 0
M  V30 18370 C 1770.86 -1.78971 -0.753862 0
M  V30 18371 O 1770.14 -1.17729 -1.54823 0
M  V30 18372 C 1770.42 -3.4098 1.15779 0
M  V30 18373 C 1770.28 -3.60693 2.68739 0
M  V30 18374 C 1771.59 -4.33953 0.733008 0
M  V30 18375 H 1768.71 -0.689148 0.261236 0
M  V30 18376 H 1771.36 -1.41287 1.27035 0
M  V30 18377 H 1769.51 -3.82407 0.68534 0
M  V30 18378 H 1771.18 -3.28484 3.23876 0
M  V30 18379 H 1769.42 -3.0399 3.09472 0
M  V30 18380 H 1770.09 -4.66704 2.94773 0
M  V30 18381 H 1772.57 -4.002 1.13925 0
M  V30 18382 H 1771.44 -5.38355 1.07077 0
M  V30 18383 H 1771.7 -4.4059 -0.365047 0
M  V30 18384 N 1770.76 -0.798611 -1.35867 0
M  V30 18385 C 1771.67 -0.204758 -2.33705 0
M  V30 18386 C 1772.69 0.648001 -1.61484 0
M  V30 18387 O 1773.87 0.561628 -1.93411 0
M  V30 18388 C 1770.93 0.643225 -3.40681 0
M  V30 18389 C 1769.99 -0.229099 -4.28688 0
M  V30 18390 C 1769.22 0.578508 -5.30555 0
M  V30 18391 O 1769.45 1.81382 -5.40793 0
M  V30 18392 O 1768.38 -0.0264291 -6.01894 0
M  V30 18393 H 1772.21 -1.01392 -2.86275 0
M  V30 18394 H 1769.79 -0.560242 -1.38498 0
M  V30 18395 H 1771.67 1.12648 -4.06065 0
M  V30 18396 H 1770.35 1.43012 -2.90395 0
M  V30 18397 H 1769.26 -0.759314 -3.66313 0
M  V30 18398 H 1770.59 -0.979736 -4.82351 0
M  V30 18399 N 1772.24 1.47639 -0.551417 0
M  V30 18400 C 1773.47 2.07381 -0.0278888 0
M  V30 18401 C 1773.89 1.40223 1.25375 0
M  V30 18402 O 1773.25 0.475268 1.7496 0
M  V30 18403 C 1773.3 3.60258 0.157001 0
M  V30 18404 O 1772.4 3.93913 1.2209 0
M  V30 18405 H 1771.74 0.66221 -0.0487252 0
M  V30 18406 H 1774.27 1.89742 -0.765449 0
M  V30 18407 H 1774.28 4.06291 0.373013 0
M  V30 18408 H 1772.96 4.08537 -0.779122 0
M  V30 18409 H 1771.53 3.59633 0.985843 0
M  V30 18410 N 1773.72 0.287581 1.54954 0
M  V30 18411 C 1774.65 -0.636117 2.19155 0
M  V30 18412 C 1775.63 -1.14295 1.15652 0
M  V30 18413 O 1776.82 -1.21362 1.44234 0
M  V30 18414 C 1773.94 -1.86888 2.82472 0
M  V30 18415 C 1772.99 -1.49645 3.99385 0
M  V30 18416 S 1773.82 -0.563886 5.32523 0
M  V30 18417 C 1774.98 -1.80474 5.99316 0
M  V30 18418 H 1775.21 -0.0906517 2.97162 0
M  V30 18419 H 1772.74 0.0717757 1.54233 0
M  V30 18420 H 1774.7 -2.57639 3.19581 0
M  V30 18421 H 1773.36 -2.38549 2.04336 0
M  V30 18422 H 1772.56 -2.41408 4.42423 0
M  V30 18423 H 1772.16 -0.869001 3.63764 0
M  V30 18424 H 1774.45 -2.74708 6.19307 0
M  V30 18425 H 1775.39 -1.41716 6.93774 0
M  V30 18426 H 1775.8 -1.97535 5.2881 0
M  V30 18427 N 1775.2 -1.57593 0.0150662 0
M  V30 18428 C 1776.11 -2.12807 -0.987437 0
M  V30 18429 C 1777.12 -1.07691 -1.3667 0
M  V30 18430 O 1778.3 -1.39674 -1.45097 0
M  V30 18431 C 1775.37 -2.63276 -2.2558 0
M  V30 18432 C 1774.43 -3.83053 -1.93827 0
M  V30 18433 C 1773.66 -4.31106 -3.14616 0
M  V30 18434 O 1773.88 -3.78405 -4.26809 0
M  V30 18435 O 1772.82 -5.23104 -2.97734 0
M  V30 18436 H 1776.64 -2.98715 -0.548015 0
M  V30 18437 H 1774.23 -1.47991 -0.20469 0
M  V30 18438 H 1776.11 -2.95869 -3.00066 0
M  V30 18439 H 1774.78 -1.80459 -2.68731 0
M  V30 18440 H 1773.69 -3.55409 -1.1677 0
M  V30 18441 H 1775.02 -4.6699 -1.55502 0
M  V30 18442 N 1776.68 0.257904 -1.55475 0
M  V30 18443 C 1777.9 1.00531 -1.80834 0
M  V30 18444 C 1778.32 1.79369 -0.589263 0
M  V30 18445 O 1777.68 1.77068 0.441935 0
M  V30 18446 C 1777.73 1.95194 -3.04272 0
M  V30 18447 O 1777.45 1.19548 -4.21473 0
M  V30 18448 C 1778.95 2.81624 -3.42349 0
M  V30 18449 H 1776.17 0.296315 -0.602029 0
M  V30 18450 H 1778.71 0.284118 -2.02517 0
M  V30 18451 H 1776.87 2.62756 -2.84672 0
M  V30 18452 H 1777.28 1.83483 -4.9136 0
M  V30 18453 H 1778.76 3.43815 -4.31851 0
M  V30 18454 H 1779.23 3.52172 -2.62434 0
M  V30 18455 H 1779.84 2.19531 -3.64261 0
M  V30 18456 N 1778.15 1.48666 0.52309 0
M  V30 18457 C 1779.38 1.60707 1.30311 0
M  V30 18458 C 1779.8 0.269941 1.8686 0
M  V30 18459 O 1779.15 -0.741714 1.66748 0
M  V30 18460 C 1779.21 2.65899 2.44908 0
M  V30 18461 O 1778.93 3.94423 1.90688 0
M  V30 18462 C 1780.43 2.88443 3.36624 0
M  V30 18463 H 1777.65 0.541661 0.396035 0
M  V30 18464 H 1780.19 1.94544 0.630322 0
M  V30 18465 H 1778.35 2.34902 3.08058 0
M  V30 18466 H 1778.76 4.5219 2.65753 0
M  V30 18467 H 1780.23 3.65831 4.13366 0
M  V30 18468 H 1780.71 1.97524 3.92277 0
M  V30 18469 H 1781.32 3.20771 2.7926 0
M  V30 18470 N 1779.63 -0.772489 1.37369 0
M  V30 18471 C 1780.57 -1.89299 1.2744 0
M  V30 18472 C 1781.54 -1.61859 0.155088 0
M  V30 18473 O 1782.73 -1.85604 0.329169 0
M  V30 18474 C 1779.85 -3.24506 0.970225 0
M  V30 18475 C 1778.9 -3.70859 2.10632 0
M  V30 18476 S 1779.73 -3.84618 3.72598 0
M  V30 18477 C 1780.89 -5.22674 3.44329 0
M  V30 18478 H 1781.12 -1.97433 2.22278 0
M  V30 18479 H 1778.66 -0.933512 1.22983 0
M  V30 18480 H 1780.61 -4.02598 0.801553 0
M  V30 18481 H 1779.27 -3.14075 0.0393408 0
M  V30 18482 H 1778.47 -4.68879 1.84848 0
M  V30 18483 H 1778.07 -2.99866 2.23509 0
M  V30 18484 H 1780.36 -6.07818 2.99272 0
M  V30 18485 H 1781.3 -5.53471 4.41674 0
M  V30 18486 H 1781.71 -4.90577 2.79276 0
M  V30 18487 N 1781.11 -1.21927 -0.998575 0
M  V30 18488 C 1782.53 -0.978007 -1.26124 0
M  V30 18489 C 1782.73 0.3318 -1.98749 0
M  V30 18490 O 1781.78 1.05585 -2.29364 0
M  V30 18491 C 1783.1 -2.17291 -2.07858 0
M  V30 18492 C 1784.64 -2.21586 -2.21062 0
M  V30 18493 C 1785.12 -3.40613 -3.06181 0
M  V30 18494 N 1786.61 -3.40739 -3.13769 0
M  V30 18495 C 1787.34 -4.29488 -3.79905 0
M  V30 18496 N 1786.84 -5.28445 -4.48015 0
M  V30 18497 N 1788.63 -4.17279 -3.76609 0
M  V30 18498 H 1780.78 -2.06149 -0.51151 0
M  V30 18499 H 1783.05 -0.903039 -0.288487 0
M  V30 18500 H 1782.75 -3.12246 -1.61851 0
M  V30 18501 H 1782.63 -2.16883 -3.08612 0
M  V30 18502 H 1785.01 -1.27183 -2.66286 0
M  V30 18503 H 1785.1 -2.26035 -1.19757 0
M  V30 18504 H 1784.74 -4.35313 -2.61659 0
M  V30 18505 H 1784.67 -3.33403 -4.07615 0
M  V30 18506 H 1787.16 -2.69128 -2.65289 0
M  V30 18507 H 1787.47 -5.92454 -4.96203 0
M  V30 18508 H 1785.82 -5.32364 -4.46782 0
M  V30 18509 H 1789.01 -3.39226 -3.22557 0
M  V30 18510 H 1789.18 -4.86651 -4.27873 0
M  V30 18511 N 1782.59 1.19452 -1.02805 0
M  V30 18512 C 1783.81 1.93616 -0.743485 0
M  V30 18513 C 1784.24 1.74934 0.691342 0
M  V30 18514 O 1783.6 1.05111 1.47721 0
M  V30 18515 C 1783.64 3.43451 -1.0988 0
M  V30 18516 O 1782.75 4.11829 -0.216978 0
M  V30 18517 H 1782.09 0.60448 -0.274771 0
M  V30 18518 H 1784.62 1.51554 -1.37451 0
M  V30 18519 H 1784.63 3.94115 -1.05535 0
M  V30 18520 H 1783.3 3.5637 -2.14413 0
M  V30 18521 H 1781.88 3.71533 -0.318954 0
M  V30 18522 N 1784.07 0.805805 1.35442 0
M  V30 18523 C 1785.48 0.446863 1.81273 0
M  V30 18524 C 1785.83 -1.03104 1.66925 0
M  V30 18525 O 1784.95 -1.80117 1.19945 0
M  V30 18526 C 1785.55 0.80433 3.29114 0
M  V30 18527 C 1784.11 0.497997 3.73091 0
M  V30 18528 C 1783.25 1.03035 2.57447 0
M  V30 18529 H 1786.21 0.997517 1.23431 0
M  V30 18530 H 1786.23 0.101559 3.80364 0
M  V30 18531 H 1785.74 1.88001 3.39525 0
M  V30 18532 H 1783.84 -0.568982 3.6823 0
M  V30 18533 H 1783.95 1.03008 4.67896 0
M  V30 18534 H 1782.32 0.452716 2.50644 0
M  V30 18535 H 1783.1 2.11213 2.70636 0
M  V30 18536 N 1785.54 -1.47344 0.559239 0
M  V30 18537 C 1786.79 -2.02768 0.0359962 0
M  V30 18538 C 1787.12 -1.43247 -1.31126 0
M  V30 18539 O 1786.4 -0.588793 -1.85374 0
M  V30 18540 C 1786.68 -3.60058 -0.0549111 0
M  V30 18541 C 1786.53 -4.30008 1.31958 0
M  V30 18542 C 1787.85 -4.33359 -0.767331 0
M  V30 18543 H 1784.97 -0.736856 0.0145552 0
M  V30 18544 H 1787.61 -1.75751 0.72192 0
M  V30 18545 H 1785.76 -3.83208 -0.639076 0
M  V30 18546 H 1787.44 -4.18193 1.94711 0
M  V30 18547 H 1785.68 -3.90283 1.89372 0
M  V30 18548 H 1786.35 -5.38605 1.20867 0
M  V30 18549 H 1788.83 -4.15215 -0.27131 0
M  V30 18550 H 1787.7 -5.4304 -0.799905 0
M  V30 18551 H 1787.96 -4.02725 -1.82387 0
M  V30 18552 N 1787.02 -0.295795 -1.54799 0
M  V30 18553 C 1788.27 0.315007 -2.00035 0
M  V30 18554 C 1788.6 1.54295 -1.1842 0
M  V30 18555 O 1787.85 1.94134 -0.247101 0
M  V30 18556 C 1788.15 0.721225 -3.50047 0
M  V30 18557 C 1787.82 -0.404395 -4.49083 0
M  V30 18558 C 1786.48 -0.713419 -4.75882 0
M  V30 18559 C 1788.83 -1.16185 -5.08085 0
M  V30 18560 C 1786.16 -1.78311 -5.58947 0
M  V30 18561 C 1788.51 -2.22142 -5.92314 0
M  V30 18562 C 1787.18 -2.53657 -6.17426 0
M  V30 18563 H 1786.45 0.115269 -0.73198 0
M  V30 18564 H 1789.09 -0.41381 -1.86976 0
M  V30 18565 H 1787.4 1.53005 -3.60689 0
M  V30 18566 H 1789.09 1.20491 -3.82469 0
M  V30 18567 H 1785.68 -0.153436 -4.28325 0
M  V30 18568 H 1789.87 -0.936365 -4.87387 0
M  V30 18569 H 1785.12 -2.03206 -5.76643 0
M  V30 18570 H 1789.3 -2.81296 -6.3706 0
M  V30 18571 H 1786.93 -3.36676 -6.81581 0
M  V30 18572 N 1788.5 1.57583 -0.0234236 0
M  V30 18573 C 1789.73 1.95861 0.666797 0
M  V30 18574 C 1790.14 0.899616 1.65989 0
M  V30 18575 O 1789.5 -0.119162 1.82111 0
M  V30 18576 C 1789.55 3.34198 1.37818 0
M  V30 18577 O 1789.27 4.36035 0.424887 0
M  V30 18578 C 1790.77 3.87074 2.16075 0
M  V30 18579 H 1787.99 0.645213 0.184233 0
M  V30 18580 H 1790.54 2.04338 -0.0814987 0
M  V30 18581 H 1788.69 3.26958 2.07792 0
M  V30 18582 H 1789.11 5.162 0.929394 0
M  V30 18583 H 1790.58 4.8623 2.61312 0
M  V30 18584 H 1791.06 3.21017 2.99741 0
M  V30 18585 H 1791.66 3.97565 1.5107 0
M  V30 18586 N 1789.98 -0.249655 1.5561 0
M  V30 18587 C 1791.26 -1.00075 1.68061 0
M  V30 18588 C 1791.64 -2.03468 0.562492 0
M  V30 18589 O 1790.98 -2.24332 -0.434424 0
M  V30 18590 C 1791.19 -1.63657 3.08249 0
M  V30 18591 C 1792.54 -2.13946 3.66759 0
M  V30 18592 O 1793.57 -1.73603 3.11031 0
M  V30 18593 O 1792.43 -2.88012 4.64447 0
M  V30 18594 H 1789.52 -0.465648 0.683448 0
M  V30 18595 H 1792.07 -0.243659 1.67942 0
M  V30 18596 H 1790.84 -0.888572 3.81078 0
M  V30 18597 H 1790.46 -2.45993 3.12367 0
M  V30 18598 N 1791.46 -1.48941 -0.515198 0
M  V30 18599 C 1792.41 -1.65027 -1.63917 0
M  V30 18600 C 1793.4 -0.516402 -1.61337 0
M  V30 18601 O 1794.61 -0.695598 -1.66016 0
M  V30 18602 H 1790.98 -0.520121 -0.543119 0
M  V30 18603 H 1792.95 -2.59397 -1.47498 0
M  V30 18604 C 1791.7 -1.72093 -3.02125 0
M  V30 18605 H 1791.02 -2.5871 -3.0481 0
M  V30 18606 H 1792.46 -1.87387 -3.80345 0
M  V30 18607 C 1790.92 -0.462688 -3.33708 0
M  V30 18608 O 1791.45 0.417925 -3.9952 0
M  V30 18609 N 1789.66 -0.329909 -2.88721 0
M  V30 18610 H 1789.21 -1.0475 -2.35341 0
M  V30 18611 H 1789.16 0.510912 -3.10221 0
M  V30 18612 N 1792.94 0.765193 -1.37777 0
M  V30 18613 C 1794.16 1.55948 -1.3673 0
M  V30 18614 C 1794.59 1.8805 0.0435817 0
M  V30 18615 O 1793.94 1.49718 1.02246 0
M  V30 18616 C 1793.99 2.84245 -2.21895 0
M  V30 18617 O 1793.1 3.78903 -1.62807 0
M  V30 18618 H 1792.44 0.472127 -0.466897 0
M  V30 18619 H 1794.97 0.946556 -1.81388 0
M  V30 18620 H 1794.98 3.33284 -2.35342 0
M  V30 18621 H 1793.65 2.60209 -3.24444 0
M  V30 18622 H 1792.23 3.37568 -1.58437 0
M  V30 18623 N 1794.41 1.22455 0.992094 0
M  V30 18624 C 1795.64 1.07677 1.77258 0
M  V30 18625 C 1796.06 -0.368377 1.84458 0
M  V30 18626 O 1795.42 -1.26614 1.29763 0
M  V30 18627 C 1795.47 1.69353 3.18358 0
M  V30 18628 O 1794.57 0.947746 4.01362 0
M  V30 18629 H 1793.91 0.378141 0.545807 0
M  V30 18630 H 1796.44 1.62269 1.2462 0
M  V30 18631 H 1796.45 1.7411 3.68985 0
M  V30 18632 H 1795.13 2.74515 3.12433 0
M  V30 18633 H 1793.71 0.976245 3.59894 0
M  V30 18634 N 1795.89 -1.18905 1.03437 0
M  V30 18635 C 1797.3 -1.70402 0.762893 0
M  V30 18636 C 1797.65 -1.82633 -0.716908 0
M  V30 18637 O 1796.78 -1.50136 -1.55847 0
M  V30 18638 C 1797.37 -3.09501 1.37822 0
M  V30 18639 C 1795.93 -3.58235 1.1552 0
M  V30 18640 C 1795.08 -2.34953 1.47284 0
M  V30 18641 H 1798.03 -1.03669 1.2016 0
M  V30 18642 H 1798.05 -3.7246 0.778079 0
M  V30 18643 H 1797.56 -3.00566 2.45523 0
M  V30 18644 H 1795.66 -3.72475 0.096646 0
M  V30 18645 H 1795.78 -4.42034 1.84778 0
M  V30 18646 H 1794.14 -2.38557 0.892333 0
M  V30 18647 H 1794.92 -2.28643 2.5608 0
M  V30 18648 N 1797.37 -0.812977 -1.35013 0
M  V30 18649 C 1798.78 -0.45647 -1.81034 0
M  V30 18650 C 1799.13 1.02217 -1.6747 0
M  V30 18651 O 1798.26 1.79478 -1.20898 0
M  V30 18652 C 1798.85 -0.821773 -3.28683 0
M  V30 18653 C 1797.41 -0.517776 -3.72822 0
M  V30 18654 C 1796.56 -1.04399 -2.56897 0
M  V30 18655 H 1799.51 -1.00405 -1.22901 0
M  V30 18656 H 1799.53 -0.12173 -3.80305 0
M  V30 18657 H 1799.04 -1.89799 -3.38523 0
M  V30 18658 H 1797.14 0.549446 -3.68527 0
M  V30 18659 H 1797.26 -1.05488 -4.67343 0
M  V30 18660 H 1795.62 -0.466002 -2.50401 0
M  V30 18661 H 1796.4 -2.12645 -2.69512 0
M  V30 18662 N 1798.85 1.47045 -0.567045 0
M  V30 18663 C 1799.81 2.28607 0.164758 0
M  V30 18664 C 1800.81 1.37509 0.833542 0
M  V30 18665 O 1802 1.60043 0.687895 0
M  V30 18666 C 1799.13 3.17466 1.24211 0
M  V30 18667 H 1800.33 2.9478 -0.551814 0
M  V30 18668 H 1797.88 1.52897 -0.324376 0
M  V30 18669 H 1798.61 2.56006 1.99076 0
M  V30 18670 H 1798.4 3.8452 0.767243 0
M  V30 18671 H 1799.89 3.78894 1.75582 0
M  V30 18672 N 1800.33 0.304 1.5464 0
M  V30 18673 C 1801.57 -0.304845 2.00496 0
M  V30 18674 C 1801.9 -1.53308 1.19206 0
M  V30 18675 O 1801.18 -1.92627 0.269305 0
M  V30 18676 C 1801.46 -0.658462 3.54029 0
M  V30 18677 C 1801.32 0.579125 4.46056 0
M  V30 18678 C 1802.63 -1.4838 4.14332 0
M  V30 18679 H 1799.75 -0.109327 0.728846 0
M  V30 18680 H 1802.4 0.416694 1.85374 0
M  V30 18681 H 1800.55 -1.27319 3.67045 0
M  V30 18682 H 1802.22 1.21758 4.44941 0
M  V30 18683 H 1800.46 1.21179 4.16531 0
M  V30 18684 H 1801.13 0.287518 5.51251 0
M  V30 18685 H 1803.61 -0.964367 4.04771 0
M  V30 18686 H 1802.48 -1.70001 5.21911 0
M  V30 18687 H 1802.74 -2.47394 3.66399 0
M  V30 18688 N 1801.8 -1.57568 0.0317802 0
M  V30 18689 C 1803.21 -1.79693 -0.506679 0
M  V30 18690 C 1803.57 -0.94229 -1.72091 0
M  V30 18691 O 1802.69 -0.153435 -2.15855 0
M  V30 18692 C 1803.29 -3.259 -0.925978 0
M  V30 18693 C 1801.84 -3.49012 -1.40953 0
M  V30 18694 C 1800.99 -2.74746 -0.375509 0
M  V30 18695 H 1803.94 -1.56592 0.257798 0
M  V30 18696 H 1803.96 -3.35757 -1.79017 0
M  V30 18697 H 1803.48 -3.88077 -0.0420441 0
M  V30 18698 H 1801.58 -2.9209 -2.31331 0
M  V30 18699 H 1801.69 -4.57725 -1.41508 0
M  V30 18700 H 1800.05 -2.40303 -0.844187 0
M  V30 18701 H 1800.84 -3.39639 0.500005 0
M  V30 18702 N 1803.28 0.241399 -1.5574 0
M  V30 18703 C 1804.21 1.32197 -1.87234 0
M  V30 18704 C 1805.23 1.44024 -0.759015 0
M  V30 18705 O 1806.42 1.45275 -1.03718 0
M  V30 18706 C 1803.52 2.69994 -2.04833 0
M  V30 18707 C 1802.69 2.80366 -3.35729 0
M  V30 18708 C 1801.75 3.99043 -3.43003 0
M  V30 18709 O 1800.77 3.88312 -4.16176 0
M  V30 18710 N 1801.98 5.12462 -2.72696 0
M  V30 18711 H 1804.74 1.05514 -2.80512 0
M  V30 18712 H 1802.3 0.431491 -1.56044 0
M  V30 18713 H 1804.29 3.47733 -2.07035 0
M  V30 18714 H 1802.86 2.89361 -1.18274 0
M  V30 18715 H 1802.08 1.89258 -3.45796 0
M  V30 18716 H 1803.37 2.8425 -4.21995 0
M  V30 18717 H 1802.77 5.24073 -2.12988 0
M  V30 18718 H 1801.33 5.88316 -2.80584 0
M  V30 18719 N 1804.76 1.49212 0.507292 0
M  V30 18720 C 1805.99 1.6208 1.28599 0
M  V30 18721 C 1806.4 0.289745 1.86563 0
M  V30 18722 O 1805.76 -0.723987 1.67525 0
M  V30 18723 C 1805.81 2.68482 2.42074 0
M  V30 18724 O 1805.53 3.96424 1.86493 0
M  V30 18725 C 1807.03 2.91997 3.33546 0
M  V30 18726 H 1804.25 0.545831 0.390268 0
M  V30 18727 H 1806.8 1.95201 0.609652 0
M  V30 18728 H 1804.95 2.38156 3.05549 0
M  V30 18729 H 1805.37 4.54983 2.60942 0
M  V30 18730 H 1806.84 3.70195 4.09463 0
M  V30 18731 H 1807.32 2.01673 3.9016 0
M  V30 18732 H 1807.92 3.23715 2.75842 0
M  V30 18733 N 1806.24 -0.757876 1.38181 0
M  V30 18734 C 1807.49 -1.51688 1.34153 0
M  V30 18735 C 1807.81 -1.94375 -0.0697487 0
M  V30 18736 O 1807.07 -1.65404 -1.04594 0
M  V30 18737 C 1807.37 -2.78548 2.23933 0
M  V30 18738 C 1807.03 -2.54845 3.71975 0
M  V30 18739 C 1805.7 -2.48089 4.12317 0
M  V30 18740 C 1808.05 -2.34027 4.65704 0
M  V30 18741 C 1805.38 -2.18526 5.44485 0
M  V30 18742 C 1807.73 -2.05986 5.98124 0
M  V30 18743 C 1806.39 -1.97683 6.37556 0
M  V30 18744 H 1805.66 -0.555064 0.490902 0
M  V30 18745 H 1808.31 -0.871823 1.70504 0
M  V30 18746 H 1806.61 -3.47682 1.80623 0
M  V30 18747 H 1808.31 -3.36487 2.18122 0
M  V30 18748 H 1804.9 -2.60972 3.39988 0
M  V30 18749 H 1809.08 -2.38228 4.35386 0
M  V30 18750 H 1804.34 -2.10603 5.73983 0
M  V30 18751 H 1808.51 -1.8888 6.70296 0
M  V30 18752 H 1806.14 -1.7454 7.39892 0
M  V30 18753 N 1807.72 -1.22979 -0.985586 0
M  V30 18754 C 1808.65 -0.964185 -2.07933 0
M  V30 18755 C 1809.66 0.0599162 -1.6269 0
M  V30 18756 O 1810.85 -0.174984 -1.7764 0
M  V30 18757 C 1807.95 -0.429879 -3.36163 0
M  V30 18758 C 1807.12 -1.51293 -4.10401 0
M  V30 18759 C 1806.18 -0.984411 -5.1691 0
M  V30 18760 O 1805.21 -1.67225 -5.44081 0
M  V30 18761 N 1806.41 0.190439 -5.80188 0
M  V30 18762 H 1809.18 -1.90582 -2.31297 0
M  V30 18763 H 1806.74 -1.13767 -1.15189 0
M  V30 18764 H 1808.73 -0.0614639 -4.04653 0
M  V30 18765 H 1807.3 0.417049 -3.09806 0
M  V30 18766 H 1806.52 -2.05434 -3.36438 0
M  V30 18767 H 1807.81 -2.24141 -4.56769 0
M  V30 18768 H 1807.2 0.765928 -5.60491 0
M  V30 18769 H 1805.76 0.500168 -6.49878 0
M  V30 18770 N 1809.19 1.18355 -1.04066 0
M  V30 18771 C 1810.44 1.88614 -0.745148 0
M  V30 18772 C 1810.77 1.80147 0.725294 0
M  V30 18773 O 1810.05 1.20177 1.5293 0
M  V30 18774 C 1810.33 3.39095 -1.2119 0
M  V30 18775 C 1810.18 3.56372 -2.74444 0
M  V30 18776 C 1811.5 4.32732 -0.801953 0
M  V30 18777 H 1808.62 0.684905 -0.272166 0
M  V30 18778 H 1811.26 1.39248 -1.29267 0
M  V30 18779 H 1809.41 3.81269 -0.746091 0
M  V30 18780 H 1811.09 3.2329 -3.29061 0
M  V30 18781 H 1809.33 2.99028 -3.14269 0
M  V30 18782 H 1810 4.61956 -3.0216 0
M  V30 18783 H 1812.48 3.98337 -1.20278 0
M  V30 18784 H 1811.35 5.36583 -1.15628 0
M  V30 18785 H 1811.61 4.41115 0.294907 0
M  V30 18786 N 1810.67 0.820125 1.3458 0
M  V30 18787 C 1811.64 0.245462 2.27882 0
M  V30 18788 C 1812.64 -0.575025 1.50167 0
M  V30 18789 O 1813.83 -0.391536 1.69743 0
M  V30 18790 C 1810.96 -0.656199 3.34525 0
M  V30 18791 H 1812.15 1.06853 2.80218 0
M  V30 18792 H 1809.7 0.591777 1.44664 0
M  V30 18793 H 1810.44 -1.50244 2.87398 0
M  V30 18794 H 1810.22 -0.0693951 3.92039 0
M  V30 18795 H 1811.71 -1.05216 4.04128 0
M  V30 18796 N 1812.15 -1.46743 0.574835 0
M  V30 18797 C 1813.1 -2.27259 -0.183667 0
M  V30 18798 C 1814.08 -1.35406 -0.869139 0
M  V30 18799 O 1815.28 -1.59637 -0.764534 0
M  V30 18800 C 1812.41 -3.21578 -1.20178 0
M  V30 18801 C 1811.49 -4.20914 -0.518826 0
M  V30 18802 N 1811.88 -5.04044 0.421132 0
M  V30 18803 C 1810.18 -4.39293 -0.770561 0
M  V30 18804 C 1810.88 -5.75898 0.819539 0
M  V30 18805 N 1809.86 -5.43333 0.170429 0
M  V30 18806 H 1813.66 -2.8892 0.538761 0
M  V30 18807 H 1811.17 -1.57497 0.396049 0
M  V30 18808 H 1813.17 -3.77961 -1.75929 0
M  V30 18809 H 1811.83 -2.61476 -1.92511 0
M  V30 18810 H 1812.84 -5.11742 0.796245 0
M  V30 18811 H 1809.52 -3.90347 -1.48107 0
M  V30 18812 H 1810.91 -6.52745 1.59293 0
M  V30 18813 N 1813.63 -0.312197 -1.54477 0
M  V30 18814 C 1814.56 0.551829 -2.26886 0
M  V30 18815 C 1815.54 1.12874 -1.27254 0
M  V30 18816 O 1816.72 1.15599 -1.56046 0
M  V30 18817 C 1813.85 1.71839 -3.01809 0
M  V30 18818 C 1812.81 1.27131 -4.08683 0
M  V30 18819 C 1812.13 2.52392 -4.71384 0
M  V30 18820 C 1813.43 0.394413 -5.20809 0
M  V30 18821 H 1815.13 -0.0521331 -2.99355 0
M  V30 18822 H 1812.67 -0.0265138 -1.43976 0
M  V30 18823 H 1814.63 2.32903 -3.5119 0
M  V30 18824 H 1813.35 2.34876 -2.26938 0
M  V30 18825 H 1812.01 0.683666 -3.60169 0
M  V30 18826 H 1811.66 3.13768 -3.93139 0
M  V30 18827 H 1811.36 2.23174 -5.43569 0
M  V30 18828 H 1812.88 3.14239 -5.23533 0
M  V30 18829 H 1814.3 0.911031 -5.66015 0
M  V30 18830 H 1812.69 0.195517 -5.99781 0
M  V30 18831 H 1813.76 -0.577661 -4.81447 0
M  V30 18832 N 1815.11 1.57549 -0.040136 0
M  V30 18833 C 1816.06 2.07384 0.947418 0
M  V30 18834 C 1817.04 0.976645 1.27869 0
M  V30 18835 O 1818.23 1.2401 1.26296 0
M  V30 18836 C 1815.36 2.61343 2.22609 0
M  V30 18837 C 1814.45 3.78012 1.9227 0
M  V30 18838 N 1814.84 4.88206 1.32244 0
M  V30 18839 C 1813.14 3.86708 2.22201 0
M  V30 18840 C 1813.84 5.69338 1.19286 0
M  V30 18841 N 1812.81 5.16595 1.69207 0
M  V30 18842 H 1816.62 2.89979 0.478476 0
M  V30 18843 H 1814.13 1.61564 0.164602 0
M  V30 18844 H 1816.13 2.95343 2.94242 0
M  V30 18845 H 1814.79 1.80182 2.70119 0
M  V30 18846 H 1815.8 5.08232 0.996048 0
M  V30 18847 H 1812.47 3.16472 2.72308 0
M  V30 18848 H 1813.86 6.67947 0.727784 0
M  V30 18849 N 1816.58 -0.233136 1.55866 0
M  V30 18850 C 1817.55 -1.27227 1.90646 0
M  V30 18851 C 1818.55 -1.4039 0.784038 0
M  V30 18852 O 1819.74 -1.38854 1.05191 0
M  V30 18853 C 1816.87 -2.64791 2.14706 0
M  V30 18854 H 1818.06 -0.975986 2.83575 0
M  V30 18855 H 1815.62 -0.473045 1.4897 0
M  V30 18856 H 1816.35 -2.99537 1.24291 0
M  V30 18857 H 1816.14 -2.56615 2.96464 0
M  V30 18858 H 1817.63 -3.39797 2.4275 0
M  V30 18859 N 1818.06 -1.49479 -0.499372 0
M  V30 18860 C 1819.47 -1.52231 -1.08087 0
M  V30 18861 C 1819.83 -0.309442 -1.93744 0
M  V30 18862 O 1818.95 0.580587 -2.08466 0
M  V30 18863 C 1819.55 -2.75857 -1.96694 0
M  V30 18864 C 1818.1 -2.81381 -2.50003 0
M  V30 18865 C 1817.25 -2.46166 -1.27662 0
M  V30 18866 H 1820.2 -1.56153 -0.283211 0
M  V30 18867 H 1820.22 -2.56111 -2.81403 0
M  V30 18868 H 1819.74 -3.64114 -1.34324 0
M  V30 18869 H 1817.84 -1.97408 -3.16008 0
M  V30 18870 H 1817.95 -3.83591 -2.87045 0
M  V30 18871 H 1816.31 -1.97981 -1.60236 0
M  V30 18872 H 1817.1 -3.36699 -0.669974 0
M  V30 18873 N 1819.54 0.750537 -1.38581 0
M  V30 18874 C 1820.77 1.53978 -1.38196 0
M  V30 18875 C 1821.18 1.8878 0.0274976 0
M  V30 18876 O 1820.54 1.52997 0.994894 0
M  V30 18877 C 1820.59 2.83702 -2.24043 0
M  V30 18878 O 1820.31 2.50384 -3.59499 0
M  V30 18879 C 1821.81 3.77823 -2.31872 0
M  V30 18880 H 1819.03 0.476345 -0.472585 0
M  V30 18881 H 1821.58 0.928634 -1.82199 0
M  V30 18882 H 1819.73 3.41187 -1.83494 0
M  V30 18883 H 1820.15 3.33605 -4.04732 0
M  V30 18884 H 1821.62 4.65788 -2.96218 0
M  V30 18885 H 1822.1 4.18474 -1.33327 0
M  V30 18886 H 1822.7 3.26262 -2.72824 0
M  V30 18887 N 1821.02 1.235 0.979051 0
M  V30 18888 C 1822.27 1.0658 1.71713 0
M  V30 18889 C 1822.59 -0.397927 1.90897 0
M  V30 18890 O 1821.86 -1.28511 1.47857 0
M  V30 18891 H 1820.44 0.391397 0.636253 0
M  V30 18892 H 1823.1 1.55239 1.17843 0
M  V30 18893 H 1822.2 1.5548 2.70615 0
M  V30 18894 N 1822.5 -1.17802 1.04693 0
M  V30 18895 C 1823.72 -1.92408 0.774194 0
M  V30 18896 C 1824.15 -1.76012 -0.663424 0
M  V30 18897 O 1823.51 -1.07447 -1.4603 0
M  V30 18898 C 1823.55 -3.4166 1.1533 0
M  V30 18899 O 1822.66 -4.11431 0.282469 0
M  V30 18900 H 1822 -0.600033 0.284353 0
M  V30 18901 H 1824.53 -1.49348 1.39844 0
M  V30 18902 H 1824.54 -3.92386 1.11791 0
M  V30 18903 H 1823.21 -3.52914 2.20056 0
M  V30 18904 H 1821.79 -3.70979 0.378021 0
M  V30 18905 N 1823.98 -0.827251 -1.34143 0
M  V30 18906 C 1825.22 -0.41656 -1.9776 0
M  V30 18907 C 1825.54 1.02488 -1.65895 0
M  V30 18908 O 1824.81 1.71219 -0.951891 0
M  V30 18909 H 1823.39 -0.151044 -0.73157 0
M  V30 18910 H 1826.06 -1.05765 -1.63706 0
M  V30 18911 H 1825.15 -0.539101 -3.07409 0
M  V30 18912 N 1825.45 1.46436 -0.582609 0
M  V30 18913 C 1826.4 2.30308 0.150697 0
M  V30 18914 C 1827.37 1.40611 0.884185 0
M  V30 18915 O 1828.56 1.6956 0.874874 0
M  V30 18916 C 1825.7 3.25074 1.15847 0
M  V30 18917 C 1824.81 4.2987 0.428442 0
M  V30 18918 C 1823.94 5.11765 1.42373 0
M  V30 18919 C 1822.98 6.0831 0.680103 0
M  V30 18920 N 1822.12 6.83073 1.62345 0
M  V30 18921 H 1826.96 2.92487 -0.570583 0
M  V30 18922 H 1824.5 1.44148 -0.293195 0
M  V30 18923 H 1826.45 3.78462 1.75563 0
M  V30 18924 H 1825.08 2.64704 1.84747 0
M  V30 18925 H 1824.14 3.7934 -0.283744 0
M  V30 18926 H 1825.45 4.98566 -0.15291 0
M  V30 18927 H 1824.6 5.69429 2.09369 0
M  V30 18928 H 1823.34 4.4303 2.03902 0
M  V30 18929 H 1822.35 5.498 -0.00363067 0
M  V30 18930 H 1823.57 6.79064 0.0702152 0
M  V30 18931 H 1821.52 6.17048 2.22684 0
M  V30 18932 H 1821.43 7.48029 1.0949 0
M  V30 18933 H 1822.7 7.45295 2.28376 0
M  V30 18934 N 1826.93 0.320385 1.54309 0
M  V30 18935 C 1828.16 -0.28794 2.05391 0
M  V30 18936 C 1828.58 -1.45249 1.19517 0
M  V30 18937 O 1827.94 -1.80154 0.203556 0
M  V30 18938 C 1827.99 -0.703261 3.53676 0
M  V30 18939 O 1827.09 -1.80598 3.70753 0
M  V30 18940 H 1826.43 -0.052589 0.661914 0
M  V30 18941 H 1828.96 0.46787 1.99179 0
M  V30 18942 H 1828.97 -0.986793 3.95887 0
M  V30 18943 H 1827.65 0.148514 4.15635 0
M  V30 18944 H 1826.22 -1.5215 3.40448 0
M  V30 18945 N 1828.41 -1.57525 0.0484906 0
M  V30 18946 C 1829.64 -1.96897 -0.635553 0
M  V30 18947 C 1830.05 -0.925909 -1.64537 0
M  V30 18948 O 1829.41 0.0901742 -1.82277 0
M  V30 18949 C 1829.46 -3.36348 -1.32484 0
M  V30 18950 O 1829.18 -4.36656 -0.355464 0
M  V30 18951 C 1830.68 -3.90463 -2.0989 0
M  V30 18952 H 1827.9 -0.648062 -0.173945 0
M  V30 18953 H 1830.45 -2.04182 0.113997 0
M  V30 18954 H 1828.6 -3.30222 -2.02564 0
M  V30 18955 H 1829.02 -5.17613 -0.847153 0
M  V30 18956 H 1830.49 -4.90326 -2.53543 0
M  V30 18957 H 1830.97 -3.25745 -2.94596 0
M  V30 18958 H 1831.57 -3.99918 -1.44726 0
M  V30 18959 N 1829.89 0.224867 -1.55988 0
M  V30 18960 C 1830.83 1.27865 -1.92144 0
M  V30 18961 C 1831.8 1.46741 -0.778228 0
M  V30 18962 O 1832.99 1.60364 -1.03383 0
M  V30 18963 C 1830.13 2.62468 -2.24063 0
M  V30 18964 C 1829.24 2.51419 -3.51301 0
M  V30 18965 C 1828.38 3.78523 -3.72684 0
M  V30 18966 C 1827.42 3.62182 -4.93448 0
M  V30 18967 N 1826.55 4.81228 -5.11237 0
M  V30 18968 H 1831.39 0.96331 -2.82001 0
M  V30 18969 H 1828.93 0.464362 -1.39578 0
M  V30 18970 H 1830.89 3.40848 -2.4058 0
M  V30 18971 H 1829.52 2.92105 -1.37384 0
M  V30 18972 H 1828.57 1.64491 -3.42997 0
M  V30 18973 H 1829.88 2.35263 -4.39833 0
M  V30 18974 H 1829.04 4.65346 -3.89279 0
M  V30 18975 H 1827.78 3.976 -2.82428 0
M  V30 18976 H 1826.78 2.73743 -4.76807 0
M  V30 18977 H 1828.01 3.44579 -5.85186 0
M  V30 18978 H 1825.95 5.00625 -4.23923 0
M  V30 18979 H 1825.87 4.67787 -5.93895 0
M  V30 18980 H 1827.14 5.69487 -5.32264 0
M  V30 18981 N 1831.37 1.49742 0.491438 0
M  V30 18982 C 1832.61 1.59947 1.24679 0
M  V30 18983 C 1832.94 0.289598 1.92029 0
M  V30 18984 O 1832.22 -0.707544 1.81174 0
M  V30 18985 C 1832.5 2.7655 2.30634 0
M  V30 18986 C 1832.36 4.1736 1.67723 0
M  V30 18987 C 1833.67 2.88764 3.3212 0
M  V30 18988 H 1830.79 0.582173 0.451934 0
M  V30 18989 H 1833.44 1.8206 0.543517 0
M  V30 18990 H 1831.59 2.57826 2.90616 0
M  V30 18991 H 1833.26 4.47623 1.11495 0
M  V30 18992 H 1831.5 4.22562 0.981 0
M  V30 18993 H 1832.17 4.94838 2.44621 0
M  V30 18994 H 1834.65 3.05838 2.82139 0
M  V30 18995 H 1833.52 3.7201 4.03608 0
M  V30 18996 H 1833.78 1.98517 3.95023 0
M  V30 18997 N 1832.84 -0.743177 1.38977 0
M  V30 18998 C 1834.26 -1.32104 1.3193 0
M  V30 18999 C 1834.61 -1.9619 -0.0201331 0
M  V30 19000 O 1833.73 -1.95764 -0.922245 0
M  V30 19001 C 1834.33 -2.40204 2.3893 0
M  V30 19002 C 1832.89 -2.93684 2.35428 0
M  V30 19003 C 1832.03 -1.67168 2.21247 0
M  V30 19004 H 1834.98 -0.541283 1.49184 0
M  V30 19005 H 1835 -3.20397 2.05246 0
M  V30 19006 H 1834.52 -1.93532 3.36403 0
M  V30 19007 H 1832.62 -3.44658 1.41568 0
M  V30 19008 H 1832.73 -3.47355 3.29971 0
M  V30 19009 H 1831.09 -1.91193 1.68278 0
M  V30 19010 H 1831.88 -1.22559 3.20678 0
M  V30 19011 N 1834.32 -1.24018 -0.972487 0
M  V30 19012 C 1835.29 -1.02941 -2.04782 0
M  V30 19013 C 1836.29 0.0115861 -1.60796 0
M  V30 19014 O 1837.48 -0.228922 -1.72689 0
M  V30 19015 C 1834.61 -0.559246 -3.36282 0
M  V30 19016 H 1835.8 -1.98379 -2.24913 0
M  V30 19017 H 1833.35 -1.06173 -1.14704 0
M  V30 19018 H 1834.09 0.398545 -3.21842 0
M  V30 19019 H 1833.87 -1.31054 -3.6955 0
M  V30 19020 H 1835.36 -0.432669 -4.15353 0
M  V30 19021 N 1835.8 1.17245 -1.05316 0
M  V30 19022 C 1836.76 2.19508 -0.659467 0
M  V30 19023 C 1837.76 1.58169 0.289697 0
M  V30 19024 O 1838.95 1.74045 0.0734019 0
M  V30 19025 C 1836.09 3.40886 0.0311886 0
M  V30 19026 H 1837.28 2.55852 -1.5646 0
M  V30 19027 H 1834.83 1.31348 -0.847193 0
M  V30 19028 H 1835.57 3.10088 0.949535 0
M  V30 19029 H 1835.35 3.86655 -0.651191 0
M  V30 19030 H 1836.84 4.16573 0.292702 0
M  V30 19031 N 1837.28 0.834353 1.33702 0
M  V30 19032 C 1838.51 0.440589 2.01847 0
M  V30 19033 C 1838.92 -0.961513 1.62947 0
M  V30 19034 O 1838.26 -1.63556 0.836377 0
M  V30 19035 C 1838.32 0.476396 3.5633 0
M  V30 19036 C 1837.99 1.83382 4.18593 0
M  V30 19037 C 1838.98 2.79638 4.3829 0
M  V30 19038 C 1836.67 2.12543 4.55116 0
M  V30 19039 C 1838.66 4.0322 4.93652 0
M  V30 19040 C 1836.35 3.36382 5.10187 0
M  V30 19041 C 1837.35 4.31537 5.294 0
M  V30 19042 O 1837.03 5.53187 5.833 0
M  V30 19043 H 1836.77 0.173726 0.653296 0
M  V30 19044 H 1839.32 1.1272 1.71707 0
M  V30 19045 H 1837.55 -0.266969 3.85777 0
M  V30 19046 H 1839.24 0.101088 4.05774 0
M  V30 19047 H 1840.01 2.58409 4.10427 0
M  V30 19048 H 1835.88 1.39274 4.39459 0
M  V30 19049 H 1839.43 4.77502 5.08564 0
M  V30 19050 H 1835.33 3.5747 5.3748 0
M  V30 19051 H 1836.09 5.54864 6.01721 0
M  V30 19052 N 1838.76 -1.46125 0.590367 0
M  V30 19053 C 1839.72 -2.2884 -0.128368 0
M  V30 19054 C 1840.72 -1.38818 -0.81156 0
M  V30 19055 O 1841.91 -1.61117 -0.662347 0
M  V30 19056 C 1839.04 -3.19402 -1.19144 0
M  V30 19057 H 1840.23 -2.93864 0.598641 0
M  V30 19058 H 1837.79 -1.52362 0.34866 0
M  V30 19059 H 1838.52 -2.59141 -1.94978 0
M  V30 19060 H 1838.31 -3.85692 -0.705973 0
M  V30 19061 H 1839.8 -3.8164 -1.69532 0
M  V30 19062 N 1840.23 -0.328564 -1.54137 0
M  V30 19063 C 1841.2 0.52248 -2.23165 0
M  V30 19064 C 1842.2 1.03956 -1.22677 0
M  V30 19065 O 1843.39 0.931193 -1.47222 0
M  V30 19066 C 1840.52 1.72624 -2.93962 0
M  V30 19067 H 1841.71 -0.081023 -2.99791 0
M  V30 19068 H 1839.27 -0.0797096 -1.56097 0
M  V30 19069 H 1840 2.36885 -2.21486 0
M  V30 19070 H 1839.79 1.36283 -3.67654 0
M  V30 19071 H 1841.28 2.33023 -3.4654 0
M  V30 19072 N 1841.71 1.57497 -0.0568439 0
M  V30 19073 C 1842.64 2.08817 0.94488 0
M  V30 19074 C 1843.66 1.01717 1.27112 0
M  V30 19075 O 1844.85 1.2927 1.23092 0
M  V30 19076 C 1841.95 2.52104 2.26488 0
M  V30 19077 C 1841.12 3.82606 2.11971 0
M  V30 19078 C 1840.18 4.12145 3.27144 0
M  V30 19079 O 1839.2 4.81978 3.02797 0
M  V30 19080 N 1840.41 3.64505 4.51792 0
M  V30 19081 H 1843.17 2.95384 0.506814 0
M  V30 19082 H 1840.73 1.61383 0.129259 0
M  V30 19083 H 1842.72 2.68938 3.02415 0
M  V30 19084 H 1841.29 1.70756 2.61842 0
M  V30 19085 H 1840.51 3.75299 1.20601 0
M  V30 19086 H 1841.8 4.68055 1.99505 0
M  V30 19087 H 1841.2 3.08061 4.74462 0
M  V30 19088 H 1839.76 3.86566 5.24795 0
M  V30 19089 N 1843.19 -0.216591 1.56105 0
M  V30 19090 C 1844.44 -0.938392 1.78993 0
M  V30 19091 C 1844.76 -1.84671 0.626215 0
M  V30 19092 O 1844.03 -1.92626 -0.356636 0
M  V30 19093 H 1842.61 -0.349491 0.660201 0
M  V30 19094 H 1845.27 -0.227256 1.93571 0
M  V30 19095 H 1844.37 -1.54227 2.71331 0
M  V30 19096 N 1844.67 -1.5 -0.48349 0
M  V30 19097 C 1845.9 -1.63867 -1.25821 0
M  V30 19098 C 1846.31 -0.316335 -1.86537 0
M  V30 19099 O 1845.65 0.710307 -1.69412 0
M  V30 19100 C 1845.71 -2.66251 -2.41559 0
M  V30 19101 C 1845.38 -4.10141 -2.01577 0
M  V30 19102 C 1846.37 -4.964 -1.5454 0
M  V30 19103 C 1844.06 -4.55983 -2.10677 0
M  V30 19104 C 1846.05 -6.26546 -1.17129 0
M  V30 19105 C 1843.74 -5.86137 -1.72877 0
M  V30 19106 C 1844.74 -6.71243 -1.2618 0
M  V30 19107 O 1844.42 -7.98969 -0.888988 0
M  V30 19108 H 1844.16 -0.554155 -0.387154 0
M  V30 19109 H 1846.71 -1.96893 -0.585005 0
M  V30 19110 H 1844.94 -2.28442 -3.12011 0
M  V30 19111 H 1846.63 -2.69466 -3.03551 0
M  V30 19112 H 1847.4 -4.62205 -1.46942 0
M  V30 19113 H 1843.27 -3.89895 -2.45974 0
M  V30 19114 H 1846.82 -6.92927 -0.806093 0
M  V30 19115 H 1842.72 -6.19857 -1.80131 0
M  V30 19116 H 1843.48 -8.12133 -1.01893 0
M  V30 19117 N 1846.15 0.735796 -1.39369 0
M  V30 19118 C 1847.09 1.8498 -1.38025 0
M  V30 19119 C 1848.06 1.64356 -0.24007 0
M  V30 19120 O 1849.25 1.85774 -0.435058 0
M  V30 19121 C 1846.39 3.22484 -1.22874 0
M  V30 19122 C 1845.5 3.54819 -2.4643 0
M  V30 19123 C 1844.64 4.8172 -2.23873 0
M  V30 19124 C 1843.68 5.06895 -3.43108 0
M  V30 19125 N 1842.81 6.25 -3.19874 0
M  V30 19126 H 1847.65 1.85463 -2.33254 0
M  V30 19127 H 1845.19 0.906252 -1.15868 0
M  V30 19128 H 1847.15 4.01857 -1.12101 0
M  V30 19129 H 1845.78 3.21281 -0.312759 0
M  V30 19130 H 1844.83 2.70153 -2.67809 0
M  V30 19131 H 1846.14 3.69342 -3.35244 0
M  V30 19132 H 1845.3 5.69072 -2.10338 0
M  V30 19133 H 1844.03 4.69369 -1.32453 0
M  V30 19134 H 1843.04 4.18006 -3.57143 0
M  V30 19135 H 1844.26 5.21132 -4.35429 0
M  V30 19136 H 1842.21 6.13939 -2.31117 0
M  V30 19137 H 1842.13 6.40106 -4.02244 0
M  V30 19138 H 1843.4 7.15193 -3.10031 0
M  V30 19139 N 1847.63 1.24532 0.965897 0
M  V30 19140 C 1848.87 1.0877 1.71163 0
M  V30 19141 C 1849.2 -0.372297 1.90598 0
M  V30 19142 O 1848.48 -1.27503 1.46878 0
M  V30 19143 C 1848.76 1.83004 3.10131 0
M  V30 19144 C 1848.62 3.36765 2.98177 0
M  V30 19145 C 1849.93 1.60417 4.09822 0
M  V30 19146 H 1847.05 0.396528 0.621236 0
M  V30 19147 H 1849.7 1.53223 1.12351 0
M  V30 19148 H 1847.85 1.4522 3.60338 0
M  V30 19149 H 1849.52 3.84158 2.55382 0
M  V30 19150 H 1847.76 3.65053 2.34347 0
M  V30 19151 H 1848.43 3.83909 3.96633 0
M  V30 19152 H 1850.91 1.93289 3.68482 0
M  V30 19153 H 1849.78 2.14812 5.05121 0
M  V30 19154 H 1850.04 0.542843 4.38755 0
M  V30 19155 N 1849.1 -1.16685 1.05936 0
M  V30 19156 C 1850.03 -2.23129 0.688153 0
M  V30 19157 C 1851.01 -1.67108 -0.31765 0
M  V30 19158 O 1852.2 -1.93233 -0.193578 0
M  V30 19159 C 1849.33 -3.47229 0.069991 0
M  V30 19160 C 1848.28 -4.16121 1.00137 0
M  V30 19161 C 1847.61 -5.34131 0.246699 0
M  V30 19162 C 1848.91 -4.67508 2.32882 0
M  V30 19163 H 1850.6 -2.54436 1.57806 0
M  V30 19164 H 1848.15 -1.22298 0.76021 0
M  V30 19165 H 1850.1 -4.20918 -0.201545 0
M  V30 19166 H 1848.83 -3.15212 -0.854909 0
M  V30 19167 H 1847.49 -3.44355 1.25759 0
M  V30 19168 H 1847.13 -4.98366 -0.681204 0
M  V30 19169 H 1846.83 -5.81163 0.867373 0
M  V30 19170 H 1848.36 -6.10598 -0.0173762 0
M  V30 19171 H 1849.77 -5.32795 2.11666 0
M  V30 19172 H 1848.17 -5.25147 2.90414 0
M  V30 19173 H 1849.24 -3.83912 2.96209 0
M  V30 19174 N 1850.58 -0.841432 -1.33258 0
M  V30 19175 C 1851.83 -0.439027 -1.97991 0
M  V30 19176 C 1852.16 0.999767 -1.66488 0
M  V30 19177 O 1851.44 1.69938 -0.94612 0
M  V30 19178 C 1851.72 -0.663137 -3.53941 0
M  V30 19179 C 1851.57 -2.14939 -3.95122 0
M  V30 19180 C 1852.89 -0.11094 -4.3996 0
M  V30 19181 H 1850.01 -0.160987 -0.719203 0
M  V30 19182 H 1852.65 -1.05742 -1.57856 0
M  V30 19183 H 1850.8 -0.136765 -3.88259 0
M  V30 19184 H 1852.47 -2.74082 -3.71048 0
M  V30 19185 H 1850.72 -2.63293 -3.4476 0
M  V30 19186 H 1851.39 -2.25694 -5.03752 0
M  V30 19187 H 1853.86 -0.560898 -4.12302 0
M  V30 19188 H 1852.74 -0.297416 -5.48094 0
M  V30 19189 H 1853 0.985446 -4.30977 0
M  V30 19190 N 1852.06 1.4581 -0.598108 0
M  V30 19191 C 1852.99 2.33223 0.113747 0
M  V30 19192 C 1853.97 1.46268 0.868312 0
M  V30 19193 O 1855.16 1.75058 0.840737 0
M  V30 19194 C 1852.29 3.28815 1.11795 0
M  V30 19195 C 1851.24 4.25331 0.477223 0
M  V30 19196 C 1850.57 5.10544 1.589 0
M  V30 19197 C 1851.87 5.18894 -0.595518 0
M  V30 19198 H 1853.56 2.92992 -0.616123 0
M  V30 19199 H 1851.11 1.40888 -0.297741 0
M  V30 19200 H 1853.06 3.88832 1.62443 0
M  V30 19201 H 1851.78 2.67185 1.87829 0
M  V30 19202 H 1850.44 3.66599 -0.00831044 0
M  V30 19203 H 1850.09 4.45288 2.33939 0
M  V30 19204 H 1849.79 5.75918 1.16584 0
M  V30 19205 H 1851.31 5.73427 2.09794 0
M  V30 19206 H 1852.73 5.73037 -0.173494 0
M  V30 19207 H 1851.12 5.92694 -0.939873 0
M  V30 19208 H 1852.19 4.61895 -1.47584 0
M  V30 19209 N 1853.54 0.336733 1.53961 0
M  V30 19210 C 1854.49 -0.538599 2.26278 0
M  V30 19211 C 1855.48 -1.10764 1.2817 0
M  V30 19212 O 1856.69 -1.05416 1.45902 0
M  V30 19213 H 1853.06 -0.192363 0.72698 0
M  V30 19214 H 1855.03 0.0934532 2.98254 0
M  V30 19215 C 1853.78 -1.68121 3.04353 0
M  V30 19216 H 1853.1 -1.25261 3.7967 0
M  V30 19217 H 1854.54 -2.26901 3.58179 0
M  V30 19218 C 1853 -2.60663 2.13439 0
M  V30 19219 O 1853.53 -3.62731 1.72596 0
M  V30 19220 N 1851.74 -2.29194 1.78658 0
M  V30 19221 H 1851.29 -1.46233 2.1207 0
M  V30 19222 H 1851.24 -2.91371 1.18111 0
M  V30 19223 N 1855.02 -1.57465 0.0651956 0
M  V30 19224 C 1856.43 -1.80728 -0.468449 0
M  V30 19225 C 1856.78 -0.978581 -1.70054 0
M  V30 19226 O 1855.9 -0.199186 -2.15481 0
M  V30 19227 C 1856.5 -3.27791 -0.856641 0
M  V30 19228 C 1855.06 -3.51923 -1.33519 0
M  V30 19229 C 1854.2 -2.7548 -0.317147 0
M  V30 19230 H 1857.15 -1.5601 0.290955 0
M  V30 19231 H 1857.18 -3.39479 -1.71855 0
M  V30 19232 H 1856.69 -3.88079 0.0402823 0
M  V30 19233 H 1854.79 -2.96932 -2.25083 0
M  V30 19234 H 1854.9 -4.60624 -1.31767 0
M  V30 19235 H 1853.27 -2.4204 -0.793026 0
M  V30 19236 H 1854.05 -3.38502 0.571935 0
M  V30 19237 N 1856.49 0.20831 -1.56217 0
M  V30 19238 C 1857.72 0.951404 -1.84291 0
M  V30 19239 C 1858.14 1.76616 -0.647168 0
M  V30 19240 O 1857.5 1.7674 0.404081 0
M  V30 19241 C 1857.55 1.83403 -3.10477 0
M  V30 19242 O 1856.65 2.93113 -2.90101 0
M  V30 19243 H 1855.99 0.268668 -0.607218 0
M  V30 19244 H 1858.52 0.217618 -2.03439 0
M  V30 19245 H 1858.53 2.24127 -3.40927 0
M  V30 19246 H 1857.21 1.23528 -3.97132 0
M  V30 19247 H 1855.79 2.5624 -2.70916 0
M  V30 19248 N 1857.97 1.50255 0.475528 0
M  V30 19249 C 1859.22 1.61261 1.22975 0
M  V30 19250 C 1859.55 0.309949 1.91711 0
M  V30 19251 O 1858.83 -0.688288 1.81914 0
M  V30 19252 C 1859.11 2.7898 2.27688 0
M  V30 19253 C 1858.96 4.19115 1.63287 0
M  V30 19254 C 1860.28 2.9227 3.29038 0
M  V30 19255 H 1857.4 0.586933 0.445734 0
M  V30 19256 H 1860.04 1.82626 0.524177 0
M  V30 19257 H 1858.19 2.60894 2.87865 0
M  V30 19258 H 1859.86 4.48781 1.06741 0
M  V30 19259 H 1858.11 4.23579 0.936127 0
M  V30 19260 H 1858.78 4.97405 2.39359 0
M  V30 19261 H 1861.25 3.08813 2.78879 0
M  V30 19262 H 1860.13 3.7627 3.9964 0
M  V30 19263 H 1860.39 2.02696 3.92895 0
M  V30 19264 N 1859.45 -0.728395 1.39758 0
M  V30 19265 C 1860.41 -1.82415 1.38772 0
M  V30 19266 C 1861.41 -1.58278 0.283678 0
M  V30 19267 O 1862.6 -1.65556 0.541927 0
M  V30 19268 C 1859.73 -3.20309 1.16684 0
M  V30 19269 H 1860.93 -1.8469 2.36283 0
M  V30 19270 H 1858.48 -0.932729 1.25419 0
M  V30 19271 H 1859.22 -3.2369 0.198817 0
M  V30 19272 H 1859 -3.39226 1.96643 0
M  V30 19273 H 1860.49 -4.0036 1.18751 0
M  V30 19274 N 1860.93 -1.25042 -0.959279 0
M  V30 19275 C 1861.89 -1.05107 -2.03679 0
M  V30 19276 C 1862.89 -0.0054691 -1.60799 0
M  V30 19277 O 1864.08 -0.247225 -1.72437 0
M  V30 19278 C 1861.21 -0.594881 -3.35669 0
M  V30 19279 H 1862.41 -2.00753 -2.22796 0
M  V30 19280 H 1859.96 -1.07384 -1.13571 0
M  V30 19281 H 1860.69 0.364387 -3.22246 0
M  V30 19282 H 1860.48 -1.34966 -3.68139 0
M  V30 19283 H 1861.97 -0.476698 -4.1487 0
M  V30 19284 N 1862.41 1.16121 -1.06553 0
M  V30 19285 C 1863.63 1.90611 -0.804673 0
M  V30 19286 C 1864.05 1.77576 0.641255 0
M  V30 19287 O 1863.41 1.12218 1.43921 0
M  V30 19288 C 1863.46 3.41231 -1.19348 0
M  V30 19289 O 1863.18 3.53879 -2.58266 0
M  V30 19290 C 1864.68 4.32764 -0.960738 0
M  V30 19291 H 1861.9 0.604358 -0.291534 0
M  V30 19292 H 1864.44 1.47174 -1.41986 0
M  V30 19293 H 1862.6 3.82361 -0.622772 0
M  V30 19294 H 1863.01 4.47298 -2.73907 0
M  V30 19295 H 1864.49 5.36898 -1.28238 0
M  V30 19296 H 1864.96 4.39078 0.103389 0
M  V30 19297 H 1865.57 3.97365 -1.51595 0
M  V30 19298 N 1863.88 0.848487 1.3281 0
M  V30 19299 C 1864.81 0.303885 2.31514 0
M  V30 19300 C 1865.8 -0.593621 1.59406 0
M  V30 19301 O 1866.98 -0.515158 1.87243 0
M  V30 19302 C 1864.11 -0.5138 3.43478 0
M  V30 19303 C 1863.06 0.28874 4.27025 0
M  V30 19304 C 1862.39 -0.653297 5.30694 0
M  V30 19305 C 1863.69 1.51111 4.99963 0
M  V30 19306 H 1865.38 1.12862 2.77313 0
M  V30 19307 H 1862.93 0.544158 1.33323 0
M  V30 19308 H 1864.88 -0.905164 4.11564 0
M  V30 19309 H 1863.61 -1.37184 2.96392 0
M  V30 19310 H 1862.27 0.661782 3.60577 0
M  V30 19311 H 1861.91 -1.50801 4.79863 0
M  V30 19312 H 1861.61 -0.120368 5.87477 0
M  V30 19313 H 1863.14 -1.04197 6.01644 0
M  V30 19314 H 1864.55 1.19237 5.60763 0
M  V30 19315 H 1862.95 1.98152 5.66441 0
M  V30 19316 H 1864.02 2.2757 4.28182 0
M  V30 19317 N 1865.36 -1.4549 0.605832 0
M  V30 19318 C 1866.61 -2.01852 0.10014 0
M  V30 19319 C 1866.93 -1.47699 -1.27319 0
M  V30 19320 O 1866.2 -0.670571 -1.84066 0
M  V30 19321 H 1864.78 -0.746225 0.0340291 0
M  V30 19322 H 1867.44 -1.78311 0.786834 0
M  V30 19323 H 1866.54 -3.12062 0.0485925 0
M  V30 19324 N 1866.84 -0.344893 -1.5378 0
M  V30 19325 C 1868.09 0.251208 -2.00936 0
M  V30 19326 C 1868.42 1.50449 -1.23269 0
M  V30 19327 O 1867.67 1.93249 -0.308738 0
M  V30 19328 C 1867.97 0.609495 -3.52165 0
M  V30 19329 C 1867.64 -0.547063 -4.47569 0
M  V30 19330 C 1866.3 -0.864456 -4.73372 0
M  V30 19331 C 1868.65 -1.3229 -5.04132 0
M  V30 19332 C 1865.98 -1.96003 -5.52991 0
M  V30 19333 C 1868.33 -2.40874 -5.84947 0
M  V30 19334 C 1866.99 -2.73171 -6.09043 0
M  V30 19335 H 1866.26 0.0919233 -0.735276 0
M  V30 19336 H 1868.91 -0.473086 -1.85564 0
M  V30 19337 H 1867.22 1.41452 -3.65375 0
M  V30 19338 H 1868.91 1.08262 -3.86109 0
M  V30 19339 H 1865.5 -0.289626 -4.2762 0
M  V30 19340 H 1869.69 -1.09095 -4.84161 0
M  V30 19341 H 1864.94 -2.21449 -5.69886 0
M  V30 19342 H 1869.12 -3.01421 -6.27789 0
M  V30 19343 H 1866.74 -3.5819 -6.70525 0
M  V30 19344 N 1868.32 1.57428 -0.0735454 0
M  V30 19345 C 1869.57 1.93174 0.593996 0
M  V30 19346 C 1869.89 0.954462 1.70044 0
M  V30 19347 O 1869.16 0.00289765 1.959 0
M  V30 19348 H 1867.74 0.713123 0.222407 0
M  V30 19349 H 1870.4 1.94454 -0.131813 0
M  V30 19350 H 1869.5 2.95025 1.01818 0
M  V30 19351 N 1869.8 -0.200022 1.56326 0
M  V30 19352 C 1870.76 -1.23155 1.93302 0
M  V30 19353 C 1871.76 -1.38696 0.81364 0
M  V30 19354 O 1872.95 -1.36592 1.08112 0
M  V30 19355 C 1870.08 -2.60177 2.20274 0
M  V30 19356 H 1871.27 -0.915616 2.85581 0
M  V30 19357 H 1868.83 -0.44134 1.4994 0
M  V30 19358 H 1869.56 -2.96833 1.30617 0
M  V30 19359 H 1869.35 -2.50269 3.01841 0
M  V30 19360 H 1870.84 -3.34572 2.49903 0
M  V30 19361 N 1871.27 -1.50505 -0.467553 0
M  V30 19362 C 1872.5 -1.65193 -1.24076 0
M  V30 19363 C 1872.91 -0.336102 -1.86191 0
M  V30 19364 O 1872.26 0.692299 -1.70156 0
M  V30 19365 C 1872.32 -2.68798 -2.38721 0
M  V30 19366 C 1871.98 -4.12256 -1.97216 0
M  V30 19367 C 1872.98 -4.98012 -1.49267 0
M  V30 19368 C 1870.66 -4.58192 -2.05829 0
M  V30 19369 C 1872.66 -6.27753 -1.10477 0
M  V30 19370 C 1870.34 -5.87938 -1.66651 0
M  V30 19371 C 1871.34 -6.72544 -1.19053 0
M  V30 19372 O 1871.03 -7.99867 -0.804197 0
M  V30 19373 H 1870.76 -0.55823 -0.381254 0
M  V30 19374 H 1873.32 -1.97502 -0.564089 0
M  V30 19375 H 1871.55 -2.31739 -3.09571 0
M  V30 19376 H 1873.24 -2.7267 -3.00675 0
M  V30 19377 H 1874 -4.63737 -1.42031 0
M  V30 19378 H 1869.88 -3.92482 -2.41825 0
M  V30 19379 H 1873.42 -6.93743 -0.732554 0
M  V30 19380 H 1869.32 -6.21733 -1.73546 0
M  V30 19381 H 1870.09 -8.13168 -0.932733 0
M  V30 19382 N 1872.75 0.720973 -1.40142 0
M  V30 19383 C 1873.69 1.84439 -1.34378 0
M  V30 19384 C 1874.66 1.61172 -0.215054 0
M  V30 19385 O 1875.85 1.84254 -0.397828 0
M  V30 19386 C 1872.97 3.20682 -1.08999 0
M  V30 19387 C 1872.02 3.62786 -2.24251 0
M  V30 19388 S 1872.85 3.70524 -3.86616 0
M  V30 19389 C 1874.01 5.09534 -3.63491 0
M  V30 19390 H 1874.24 1.89047 -2.29453 0
M  V30 19391 H 1871.78 0.887224 -1.26363 0
M  V30 19392 H 1873.73 3.99346 -0.950423 0
M  V30 19393 H 1872.39 3.13713 -0.155881 0
M  V30 19394 H 1871.59 4.61695 -2.02122 0
M  V30 19395 H 1871.19 2.91364 -2.34484 0
M  V30 19396 H 1873.48 5.96292 -3.21624 0
M  V30 19397 H 1874.42 5.36697 -4.61911 0
M  V30 19398 H 1874.83 4.79873 -2.97291 0
M  V30 19399 N 1874.23 1.25549 0.952634 0
M  V30 19400 C 1875.46 1.13262 1.73743 0
M  V30 19401 C 1875.88 -0.309507 1.85536 0
M  V30 19402 O 1875.24 -1.22422 1.33726 0
M  V30 19403 C 1875.29 1.79395 3.12809 0
M  V30 19404 O 1874.39 1.07496 3.98144 0
M  V30 19405 H 1873.73 0.395314 0.5335 0
M  V30 19406 H 1876.26 1.66151 1.19394 0
M  V30 19407 H 1876.27 1.85761 3.63259 0
M  V30 19408 H 1874.95 2.84316 3.03542 0
M  V30 19409 H 1873.52 1.09025 3.56606 0
M  V30 19410 N 1875.71 -1.15554 1.07168 0
M  V30 19411 C 1876.66 -2.20234 0.690348 0
M  V30 19412 C 1877.63 -1.6304 -0.317346 0
M  V30 19413 O 1878.81 -1.89704 -0.20422 0
M  V30 19414 C 1875.95 -3.44976 0.0923404 0
M  V30 19415 C 1875.06 -4.16377 1.15128 0
M  V30 19416 C 1874.2 -5.28664 0.518478 0
M  V30 19417 C 1873.24 -5.91878 1.56034 0
M  V30 19418 N 1872.37 -6.9564 0.950251 0
M  V30 19419 H 1877.21 -2.52203 1.58738 0
M  V30 19420 H 1874.75 -1.23863 0.793502 0
M  V30 19421 H 1876.71 -4.16312 -0.271985 0
M  V30 19422 H 1875.34 -3.1353 -0.768054 0
M  V30 19423 H 1874.39 -3.43556 1.63321 0
M  V30 19424 H 1875.7 -4.59472 1.94132 0
M  V30 19425 H 1874.86 -6.06615 0.101683 0
M  V30 19426 H 1873.6 -4.86756 -0.303345 0
M  V30 19427 H 1872.6 -5.12641 1.98694 0
M  V30 19428 H 1873.83 -6.35864 2.38442 0
M  V30 19429 H 1871.77 -6.5583 0.149298 0
M  V30 19430 H 1871.69 -7.37153 1.67755 0
M  V30 19431 H 1872.96 -7.77494 0.558895 0
M  V30 19432 N 1877.19 -0.855519 -1.32358 0
M  V30 19433 C 1878.15 -0.305794 -2.27151 0
M  V30 19434 C 1879.15 0.535008 -1.51639 0
M  V30 19435 O 1880.34 0.346394 -1.70721 0
M  V30 19436 C 1877.47 0.567275 -3.36147 0
M  V30 19437 H 1878.67 -1.14245 -2.77287 0
M  V30 19438 H 1876.22 -0.629924 -1.43044 0
M  V30 19439 H 1876.95 1.42571 -2.9128 0
M  V30 19440 H 1876.74 -0.0345714 -3.92085 0
M  V30 19441 H 1878.23 0.944644 -4.06775 0
M  V30 19442 N 1878.67 1.45167 -0.61354 0
M  V30 19443 C 1879.62 2.27666 0.123348 0
M  V30 19444 C 1880.6 1.37663 0.832933 0
M  V30 19445 O 1881.79 1.61608 0.721941 0
M  V30 19446 C 1878.92 3.24651 1.1161 0
M  V30 19447 C 1878.01 4.22142 0.407045 0
M  V30 19448 N 1878.4 5.0275 -0.554622 0
M  V30 19449 C 1876.7 4.41182 0.65382 0
M  V30 19450 C 1877.4 5.73523 -0.97194 0
M  V30 19451 N 1876.37 5.4269 -0.314424 0
M  V30 19452 H 1880.17 2.8739 -0.615174 0
M  V30 19453 H 1877.69 1.56391 -0.437667 0
M  V30 19454 H 1879.69 3.82493 1.65846 0
M  V30 19455 H 1878.35 2.66488 1.85511 0
M  V30 19456 H 1879.36 5.09451 -0.931644 0
M  V30 19457 H 1876.03 3.94136 1.37705 0
M  V30 19458 H 1877.42 6.48292 -1.76543 0
M  V30 19459 N 1880.14 0.353044 1.53595 0
M  V30 19460 C 1881.39 -0.240073 2.00669 0
M  V30 19461 C 1881.71 -1.50303 1.24234 0
M  V30 19462 O 1880.98 -1.92709 0.352118 0
M  V30 19463 H 1879.56 -0.0917016 0.74135 0
M  V30 19464 H 1882.22 0.47639 1.88988 0
M  V30 19465 H 1881.32 -0.475869 3.08451 0
M  V30 19466 N 1881.62 -1.57387 0.0818932 0
M  V30 19467 C 1882.87 -1.93045 -0.584519 0
M  V30 19468 C 1883.18 -0.96473 -1.70154 0
M  V30 19469 O 1884.39 -1.21451 -2.42821 0
M  V30 19470 C 1882.85 -3.42962 -1.0911 0
M  V30 19471 C 1882.45 -4.48 -0.00454233 0
M  V30 19472 C 1884.2 -3.87604 -1.731 0
M  V30 19473 C 1882.1 -5.89059 -0.525733 0
M  V30 19474 H 1881.03 -0.720543 -0.222112 0
M  V30 19475 H 1883.69 -1.82838 0.155762 0
M  V30 19476 H 1882.07 -3.48277 -1.88466 0
M  V30 19477 H 1883.24 -4.54314 0.770444 0
M  V30 19478 H 1881.56 -4.12887 0.539739 0
M  V30 19479 H 1884.15 -4.90382 -2.13143 0
M  V30 19480 H 1884.5 -3.25524 -2.59499 0
M  V30 19481 H 1885.03 -3.84935 -1.00349 0
M  V30 19482 H 1881.77 -6.54807 0.301333 0
M  V30 19483 H 1881.29 -5.86243 -1.26802 0
M  V30 19484 H 1882.97 -6.39242 -0.998928 0
M  V30 19485 N 1883.1 0.191729 -1.56429 0
M  V30 19486 C 1884.01 1.25798 -1.9802 0
M  V30 19487 C 1885.03 1.49612 -0.888379 0
M  V30 19488 O 1886.2 1.62161 -1.1944 0
M  V30 19489 C 1883.27 2.58158 -2.3142 0
M  V30 19490 C 1882.33 2.42386 -3.54327 0
M  V30 19491 C 1881.56 3.68434 -3.86124 0
M  V30 19492 O 1881.78 4.72747 -3.19165 0
M  V30 19493 O 1880.72 3.63762 -4.79542 0
M  V30 19494 H 1884.54 0.935013 -2.88948 0
M  V30 19495 H 1882.13 0.396996 -1.44029 0
M  V30 19496 H 1884.01 3.36274 -2.53964 0
M  V30 19497 H 1882.69 2.90075 -1.43659 0
M  V30 19498 H 1881.59 1.62369 -3.37027 0
M  V30 19499 H 1882.93 2.154 -4.42565 0
M  V30 19500 N 1884.58 1.50751 0.459565 0
M  V30 19501 C 1885.99 1.55043 1.04012 0
M  V30 19502 C 1886.34 0.360701 1.92856 0
M  V30 19503 O 1885.46 -0.525112 2.09932 0
M  V30 19504 C 1886.06 2.80975 1.89311 0
M  V30 19505 C 1884.62 2.87911 2.42455 0
M  V30 19506 C 1883.77 2.49464 1.2109 0
M  V30 19507 H 1886.72 1.56849 0.24171 0
M  V30 19508 H 1886.74 2.63482 2.74514 0
M  V30 19509 H 1886.25 3.67547 1.24623 0
M  V30 19510 H 1884.35 2.05717 3.10663 0
M  V30 19511 H 1884.46 3.91067 2.76773 0
M  V30 19512 H 1882.83 2.0216 1.54931 0
M  V30 19513 H 1883.61 3.38357 0.580469 0
M  V30 19514 N 1886.06 -0.713531 1.40522 0
M  V30 19515 C 1887 -1.84894 1.41127 0
M  V30 19516 C 1888 -1.66873 0.291521 0
M  V30 19517 O 1889.2 -1.73952 0.46266 0
M  V30 19518 H 1885.58 -0.608985 0.441182 0
M  V30 19519 H 1887.55 -1.815 2.36855 0
M  V30 19520 C 1886.3 -3.22774 1.29276 0
M  V30 19521 H 1885.62 -3.37248 2.14718 0
M  V30 19522 H 1887.06 -4.02349 1.33759 0
M  V30 19523 C 1885.52 -3.369 0.00320525 0
M  V30 19524 O 1886.05 -3.90086 -0.958942 0
M  V30 19525 N 1884.26 -2.90523 -0.0669733 0
M  V30 19526 H 1883.8 -2.47428 0.716722 0
M  V30 19527 H 1883.76 -3.00353 -0.929262 0
M  V30 19528 N 1887.53 -1.26053 -0.945962 0
M  V30 19529 C 1888.78 -1.10706 -1.68603 0
M  V30 19530 C 1889.1 0.350167 -1.9244 0
M  V30 19531 O 1890.3 0.624224 -2.64227 0
M  V30 19532 C 1888.76 -1.93306 -3.0358 0
M  V30 19533 C 1888.37 -3.43574 -2.87508 0
M  V30 19534 C 1890.11 -1.86555 -3.8131 0
M  V30 19535 C 1888.02 -4.18438 -4.17928 0
M  V30 19536 H 1886.95 -0.410689 -0.632337 0
M  V30 19537 H 1889.6 -1.50322 -1.0524 0
M  V30 19538 H 1887.98 -1.4652 -3.67897 0
M  V30 19539 H 1889.15 -3.98096 -2.3207 0
M  V30 19540 H 1887.47 -3.51511 -2.23224 0
M  V30 19541 H 1890.07 -2.39775 -4.77925 0
M  V30 19542 H 1890.41 -0.83525 -4.07835 0
M  V30 19543 H 1890.94 -2.31138 -3.23759 0
M  V30 19544 H 1887.68 -5.21917 -3.96589 0
M  V30 19545 H 1887.2 -3.68698 -4.73098 0
M  V30 19546 H 1888.88 -4.26626 -4.86415 0
M  V30 19547 N 1889.01 1.14984 -1.07779 0
M  V30 19548 C 1890.43 1.3786 -0.804164 0
M  V30 19549 C 1890.63 1.92682 0.589572 0
M  V30 19550 O 1889.68 2.13537 1.34752 0
M  V30 19551 C 1891 2.34559 -1.88156 0
M  V30 19552 C 1892.54 2.48212 -1.90683 0
M  V30 19553 C 1893.02 3.48205 -2.97519 0
M  V30 19554 N 1894.51 3.55743 -2.96649 0
M  V30 19555 C 1895.25 4.32946 -3.75959 0
M  V30 19556 N 1894.74 5.13446 -4.65129 0
M  V30 19557 N 1896.53 4.28079 -3.64287 0
M  V30 19558 H 1888.69 0.777434 -1.97661 0
M  V30 19559 H 1890.95 0.404419 -0.857409 0
M  V30 19560 H 1890.65 2.014 -2.88324 0
M  V30 19561 H 1890.53 3.34389 -1.74539 0
M  V30 19562 H 1892.92 2.80665 -0.911642 0
M  V30 19563 H 1893 1.48365 -2.08378 0
M  V30 19564 H 1892.64 3.16485 -3.9724 0
M  V30 19565 H 1892.57 4.47817 -2.77069 0
M  V30 19566 H 1895.06 2.98291 -2.32014 0
M  V30 19567 H 1895.37 5.69612 -5.22267 0
M  V30 19568 H 1893.72 5.12737 -4.69176 0
M  V30 19569 H 1896.91 3.64257 -2.93997 0
M  V30 19570 H 1897.08 4.87996 -4.26337 0
M  V30 19571 N 1890.49 0.862526 1.31902 0
M  V30 19572 C 1891.72 0.484006 2.01159 0
M  V30 19573 C 1892.13 -0.92148 1.64785 0
M  V30 19574 O 1891.49 -1.60254 0.873216 0
M  V30 19575 C 1891.54 0.622709 3.56096 0
M  V30 19576 O 1891.26 1.97284 3.91166 0
M  V30 19577 C 1892.76 0.244225 4.42627 0
M  V30 19578 H 1889.98 0.189378 0.643721 0
M  V30 19579 H 1892.53 1.16164 1.68304 0
M  V30 19580 H 1890.68 -0.00728166 3.87399 0
M  V30 19581 H 1891.1 1.97525 4.85885 0
M  V30 19582 H 1892.57 0.392254 5.50605 0
M  V30 19583 H 1893.05 -0.816006 4.31553 0
M  V30 19584 H 1893.65 0.84961 4.16727 0
M  V30 19585 N 1891.97 -1.4484 0.62123 0
M  V30 19586 C 1893.22 -2.01734 0.121544 0
M  V30 19587 C 1893.54 -1.49041 -1.25745 0
M  V30 19588 O 1892.81 -0.690056 -1.83344 0
M  V30 19589 H 1891.39 -0.745822 0.0419419 0
M  V30 19590 H 1894.05 -1.77467 0.805702 0
M  V30 19591 H 1893.15 -3.11993 0.0816882 0
M  V30 19592 N 1893.45 -0.361184 -1.53405 0
M  V30 19593 C 1894.69 0.230222 -2.01489 0
M  V30 19594 C 1895.03 1.48779 -1.24814 0
M  V30 19595 O 1894.3 1.91494 -0.340612 0
M  V30 19596 C 1894.58 0.526613 -3.56229 0
M  V30 19597 C 1894.44 -0.744277 -4.436 0
M  V30 19598 C 1895.76 1.32901 -4.19554 0
M  V30 19599 H 1892.87 0.0822009 -0.732402 0
M  V30 19600 H 1895.52 -0.485208 -1.837 0
M  V30 19601 H 1893.67 1.13609 -3.71517 0
M  V30 19602 H 1895.34 -1.38188 -4.40116 0
M  V30 19603 H 1893.58 -1.36555 -4.11747 0
M  V30 19604 H 1894.25 -0.491913 -5.49804 0
M  V30 19605 H 1896.73 0.813474 -4.08071 0
M  V30 19606 H 1895.6 1.50513 -5.27861 0
M  V30 19607 H 1895.87 2.33625 -3.75329 0
M  V30 19608 N 1894.92 1.57341 -0.0902386 0
M  V30 19609 C 1896.34 1.57361 0.266413 0
M  V30 19610 C 1896.54 1.10104 1.68758 0
M  V30 19611 O 1895.6 0.775287 2.40303 0
M  V30 19612 C 1896.91 3.00642 0.0592661 0
M  V30 19613 C 1898.46 3.12741 0.127389 0
M  V30 19614 C 1898.93 4.57971 -0.0517042 0
M  V30 19615 N 1900.42 4.632 0.0032917 0
M  V30 19616 C 1901.16 5.73293 -0.110598 0
M  V30 19617 N 1900.65 6.92238 -0.279049 0
M  V30 19618 N 1902.45 5.62076 -0.0522147 0
M  V30 19619 H 1894.6 1.86369 -1.01884 0
M  V30 19620 H 1896.86 0.859996 -0.398886 0
M  V30 19621 H 1896.57 3.39396 -0.922117 0
M  V30 19622 H 1896.44 3.68539 0.80368 0
M  V30 19623 H 1898.83 2.73861 1.09927 0
M  V30 19624 H 1898.91 2.47445 -0.648435 0
M  V30 19625 H 1898.55 4.97544 -1.02043 0
M  V30 19626 H 1898.48 5.21321 0.743753 0
M  V30 19627 H 1900.97 3.77672 0.131145 0
M  V30 19628 H 1901.29 7.71972 -0.357596 0
M  V30 19629 H 1899.63 6.94287 -0.314653 0
M  V30 19630 H 1902.82 4.68035 0.0782189 0
M  V30 19631 H 1903 6.47839 -0.144423 0
M  V30 19632 N 1896.4 -0.183431 1.56529 0
M  V30 19633 C 1897.63 -0.917888 1.85425 0
M  V30 19634 C 1898.05 -1.76353 0.674171 0
M  V30 19635 O 1897.4 -1.78975 -0.35695 0
M  V30 19636 C 1897.45 -1.80454 3.13239 0
M  V30 19637 O 1897.17 -0.993028 4.26697 0
M  V30 19638 C 1898.68 -2.64969 3.55396 0
M  V30 19639 H 1895.9 -0.267254 0.61548 0
M  V30 19640 H 1898.44 -0.187171 2.03642 0
M  V30 19641 H 1896.59 -2.48874 2.96884 0
M  V30 19642 H 1897.01 -1.59831 4.99554 0
M  V30 19643 H 1898.48 -3.22819 4.47763 0
M  V30 19644 H 1898.96 -3.3925 2.78937 0
M  V30 19645 H 1899.57 -2.01902 3.74321 0
M  V30 19646 N 1897.88 -1.50992 -0.451564 0
M  V30 19647 C 1899.13 -1.62192 -1.19903 0
M  V30 19648 C 1899.44 -0.337085 -1.92674 0
M  V30 19649 O 1900.65 -0.328248 -2.69508 0
M  V30 19650 C 1899.1 -2.8638 -2.17978 0
M  V30 19651 C 1898.71 -4.21814 -1.50921 0
M  V30 19652 C 1900.46 -3.06932 -2.93246 0
M  V30 19653 C 1898.36 -5.37168 -2.47396 0
M  V30 19654 H 1897.29 -0.60406 -0.451251 0
M  V30 19655 H 1899.94 -1.77445 -0.467482 0
M  V30 19656 H 1898.33 -2.64728 -2.94508 0
M  V30 19657 H 1899.5 -4.53794 -0.800466 0
M  V30 19658 H 1897.82 -4.07025 -0.878604 0
M  V30 19659 H 1900.41 -3.90286 -3.65487 0
M  V30 19660 H 1900.76 -2.19437 -3.5377 0
M  V30 19661 H 1901.29 -3.28857 -2.23826 0
M  V30 19662 H 1898.03 -6.26878 -1.91582 0
M  V30 19663 H 1897.55 -5.09581 -3.16365 0
M  V30 19664 H 1899.23 -5.68539 -3.08824 0
M  V30 19665 N 1899.36 0.706069 -1.40899 0
M  V30 19666 C 1900.59 1.49504 -1.43025 0
M  V30 19667 C 1901 1.88772 -0.0325752 0
M  V30 19668 O 1900.36 1.56085 0.945716 0
M  V30 19669 C 1900.41 2.76431 -2.32955 0
M  V30 19670 O 1900.13 2.38821 -3.67282 0
M  V30 19671 C 1901.63 3.70255 -2.43774 0
M  V30 19672 H 1898.85 0.461069 -0.4875 0
M  V30 19673 H 1901.4 0.870198 -1.85062 0
M  V30 19674 H 1899.55 3.35177 -1.94255 0
M  V30 19675 H 1899.96 3.2056 -4.1514 0
M  V30 19676 H 1901.44 4.56129 -3.10887 0
M  V30 19677 H 1901.92 4.14021 -1.46573 0
M  V30 19678 H 1902.52 3.17417 -2.83066 0
M  V30 19679 N 1900.84 1.26553 0.939264 0
M  V30 19680 C 1902.06 1.14993 1.72001 0
M  V30 19681 C 1902.48 -0.29462 1.86487 0
M  V30 19682 O 1901.84 -1.20158 1.37362 0
M  V30 19683 C 1901.89 1.81598 3.12577 0
M  V30 19684 O 1901.61 3.20408 2.98781 0
M  V30 19685 C 1903.11 1.76017 4.06858 0
M  V30 19686 H 1900.33 0.400347 0.538482 0
M  V30 19687 H 1902.87 1.67209 1.17735 0
M  V30 19688 H 1901.03 1.33316 3.63739 0
M  V30 19689 H 1901.44 3.53397 3.8757 0
M  V30 19690 H 1902.92 2.27255 5.0305 0
M  V30 19691 H 1903.39 0.727075 4.3314 0
M  V30 19692 H 1904 2.2386 3.61617 0
M  V30 19693 N 1902.31 -1.14411 1.08387 0
M  V30 19694 C 1903.56 -1.85078 0.811826 0
M  V30 19695 C 1903.88 -1.83335 -0.664312 0
M  V30 19696 O 1903.15 -1.28164 -1.48158 0
M  V30 19697 H 1901.73 -0.685278 0.297328 0
M  V30 19698 H 1904.4 -1.38644 1.36981 0
M  V30 19699 H 1903.49 -2.89909 1.15581 0
M  V30 19700 N 1903.79 -0.869509 -1.31443 0
M  V30 19701 C 1905.04 -0.479265 -1.96335 0
M  V30 19702 C 1905.36 0.971583 -1.69072 0
M  V30 19703 O 1904.63 1.68104 -1.00588 0
M  V30 19704 H 1903.21 -0.174241 -0.726394 0
M  V30 19705 H 1905.87 -1.1092 -1.60259 0
M  V30 19706 H 1904.97 -0.636628 -3.05538 0
M  V30 19707 N 1905.27 1.44508 -0.628902 0
M  V30 19708 C 1906.68 1.85457 -0.215122 0
M  V30 19709 C 1907.03 1.52619 1.23296 0
M  V30 19710 O 1906.16 0.963178 1.93783 0
M  V30 19711 C 1906.75 3.36621 -0.383645 0
M  V30 19712 C 1905.31 3.76392 -0.0243904 0
M  V30 19713 C 1904.46 2.68369 -0.698081 0
M  V30 19714 H 1907.41 1.35006 -0.834208 0
M  V30 19715 H 1907.43 3.78617 0.378049 0
M  V30 19716 H 1906.94 3.6049 -1.43767 0
M  V30 19717 H 1905.04 3.58139 1.02798 0
M  V30 19718 H 1905.16 4.7714 -0.432898 0
M  V30 19719 H 1903.52 2.54349 -0.133605 0
M  V30 19720 H 1904.3 2.95071 -1.75465 0
M  V30 19721 N 1906.75 0.369315 1.53212 0
M  V30 19722 C 1908 -0.220348 2.00493 0
M  V30 19723 C 1908.31 -1.49561 1.26059 0
M  V30 19724 O 1909.52 -2.1641 1.63947 0
M  V30 19725 C 1907.97 -0.443218 3.5716 0
M  V30 19726 C 1907.58 0.817634 4.40476 0
M  V30 19727 C 1909.33 -0.990333 4.12786 0
M  V30 19728 C 1907.23 0.564143 5.88703 0
M  V30 19729 H 1906.16 -0.0861173 0.749066 0
M  V30 19730 H 1908.81 0.488632 1.76875 0
M  V30 19731 H 1907.2 -1.21355 3.76947 0
M  V30 19732 H 1908.37 1.59105 4.32461 0
M  V30 19733 H 1906.68 1.28824 3.95971 0
M  V30 19734 H 1909.28 -1.19537 5.21167 0
M  V30 19735 H 1909.62 -1.95357 3.67616 0
M  V30 19736 H 1910.16 -0.280073 3.96813 0
M  V30 19737 H 1906.9 1.49782 6.38158 0
M  V30 19738 H 1906.42 -0.170702 5.99557 0
M  V30 19739 H 1908.1 0.191072 6.46718 0
M  V30 19740 N 1908.23 -1.57291 0.0985816 0
M  V30 19741 C 1909.46 -1.98819 -0.57259 0
M  V30 19742 C 1909.87 -0.977787 -1.61508 0
M  V30 19743 O 1909.23 0.0321385 -1.82472 0
M  V30 19744 C 1909.28 -3.40393 -1.21716 0
M  V30 19745 O 1909 -4.37565 -0.216366 0
M  V30 19746 C 1910.5 -3.96943 -1.97361 0
M  V30 19747 H 1907.72 -0.653268 -0.153239 0
M  V30 19748 H 1910.26 -2.03716 0.178898 0
M  V30 19749 H 1908.42 -3.36499 -1.91956 0
M  V30 19750 H 1908.83 -5.20046 -0.68205 0
M  V30 19751 H 1910.31 -4.98144 -2.37816 0
M  V30 19752 H 1910.78 -3.34953 -2.84083 0
M  V30 19753 H 1911.39 -4.0432 -1.3193 0
M  V30 19754 N 1909.71 0.175127 -1.56624 0
M  V30 19755 C 1910.94 0.906725 -1.8564 0
M  V30 19756 C 1911.34 1.76502 -0.681433 0
M  V30 19757 O 1910.69 1.80163 0.358751 0
M  V30 19758 C 1910.75 1.83706 -3.09019 0
M  V30 19759 C 1910.41 1.15874 -4.42066 0
M  V30 19760 C 1911.41 0.526022 -5.17232 0
M  V30 19761 C 1909.09 1.15663 -4.88802 0
M  V30 19762 C 1911.09 -0.0997423 -6.37322 0
M  V30 19763 C 1908.78 0.527036 -6.08823 0
M  V30 19764 C 1909.77 -0.100049 -6.82927 0
M  V30 19765 O 1909.46 -0.719723 -8.00672 0
M  V30 19766 H 1909.19 0.269058 -0.620148 0
M  V30 19767 H 1911.75 0.181237 -2.04599 0
M  V30 19768 H 1909.98 2.60276 -2.85995 0
M  V30 19769 H 1911.67 2.43816 -3.24513 0
M  V30 19770 H 1912.43 0.519653 -4.82208 0
M  V30 19771 H 1908.31 1.63412 -4.31065 0
M  V30 19772 H 1911.86 -0.589806 -6.95102 0
M  V30 19773 H 1907.75 0.530975 -6.43312 0
M  V30 19774 H 1908.52 -0.618596 -8.16159 0
M  V30 19775 N 1911.18 1.5123 0.44355 0
M  V30 19776 C 1912.41 1.67671 1.2207 0
M  V30 19777 C 1912.83 0.370934 1.84406 0
M  V30 19778 O 1912.19 -0.668265 1.68535 0
M  V30 19779 C 1912.24 2.7896 2.28503 0
M  V30 19780 O 1911.34 2.4213 3.33837 0
M  V30 19781 H 1910.68 0.559275 0.357921 0
M  V30 19782 H 1913.21 1.9776 0.524592 0
M  V30 19783 H 1913.22 3.0286 2.73386 0
M  V30 19784 H 1911.9 3.73716 1.82509 0
M  V30 19785 H 1910.48 2.28779 2.94473 0
M  V30 19786 N 1912.66 -0.698586 1.41271 0
M  V30 19787 C 1913.89 -1.48743 1.43816 0
M  V30 19788 C 1914.3 -1.88752 0.0425858 0
M  V30 19789 O 1913.66 -1.56584 -0.937425 0
M  V30 19790 C 1913.71 -2.75192 2.34418 0
M  V30 19791 O 1913.43 -2.36869 3.68544 0
M  V30 19792 C 1914.93 -3.68957 2.45735 0
M  V30 19793 H 1912.15 -0.458477 0.489938 0
M  V30 19794 H 1914.7 -0.860372 1.85521 0
M  V30 19795 H 1912.85 -3.34142 1.9603 0
M  V30 19796 H 1913.27 -3.18354 4.16834 0
M  V30 19797 H 1914.74 -4.54473 3.13302 0
M  V30 19798 H 1915.22 -4.13237 1.48767 0
M  V30 19799 H 1915.82 -3.15912 2.84745 0
M  V30 19800 N 1914.14 -1.27049 -0.93254 0
M  V30 19801 C 1915.37 -1.15735 -1.7114 0
M  V30 19802 C 1915.78 0.289069 -1.86979 0
M  V30 19803 O 1915.12 1.20906 -1.38302 0
M  V30 19804 C 1915.18 -1.76319 -3.13292 0
M  V30 19805 C 1914.85 -3.25471 -3.20808 0
M  V30 19806 C 1915.84 -4.22172 -3.03425 0
M  V30 19807 C 1913.53 -3.66092 -3.43921 0
M  V30 19808 C 1915.52 -5.57471 -3.09038 0
M  V30 19809 C 1913.21 -5.01522 -3.49168 0
M  V30 19810 C 1914.21 -5.97022 -3.31744 0
M  V30 19811 O 1913.9 -7.29985 -3.36716 0
M  V30 19812 H 1913.63 -0.403495 -0.542372 0
M  V30 19813 H 1916.18 -1.68334 -1.17698 0
M  V30 19814 H 1914.41 -1.18192 -3.68195 0
M  V30 19815 H 1916.1 -1.59788 -3.73125 0
M  V30 19816 H 1916.87 -3.92127 -2.85415 0
M  V30 19817 H 1912.75 -2.92238 -3.56536 0
M  V30 19818 H 1916.29 -6.3199 -2.95356 0
M  V30 19819 H 1912.19 -5.31225 -3.66702 0
M  V30 19820 H 1912.95 -7.3837 -3.53203 0
M  V30 19821 N 1915.62 1.13835 -1.08993 0
M  V30 19822 C 1916.86 1.86663 -0.832848 0
M  V30 19823 C 1917.22 1.81369 0.630021 0
M  V30 19824 O 1918.42 2.49392 1.00285 0
M  V30 19825 C 1916.69 3.31013 -1.34778 0
M  V30 19826 S 1918.25 4.21386 -1.22391 0
M  V30 19827 H 1915.07 0.643982 -0.301344 0
M  V30 19828 H 1917.67 1.3723 -1.39241 0
M  V30 19829 H 1916.38 3.32418 -2.4068 0
M  V30 19830 H 1915.91 3.85506 -0.78415 0
M  V30 19831 H 1917.92 4.95902 -0.172001 0
M  V30 19832 N 1917.1 0.876467 1.3098 0
M  V30 19833 C 1918.04 0.335149 2.28354 0
M  V30 19834 C 1919.01 -0.569979 1.56014 0
M  V30 19835 O 1920.2 -0.500226 1.84126 0
M  V30 19836 C 1917.34 -0.451723 3.42131 0
M  V30 19837 C 1916.45 0.481657 4.29306 0
M  V30 19838 C 1915.59 -0.319977 5.30235 0
M  V30 19839 C 1914.62 0.609417 6.09059 0
M  V30 19840 N 1913.76 -0.156366 7.01926 0
M  V30 19841 H 1918.6 1.17069 2.74042 0
M  V30 19842 H 1916.14 0.588683 1.34807 0
M  V30 19843 H 1918.1 -0.923775 4.06844 0
M  V30 19844 H 1916.73 -1.25191 2.97535 0
M  V30 19845 H 1915.78 1.07218 3.64977 0
M  V30 19846 H 1917.09 1.19403 4.84298 0
M  V30 19847 H 1916.24 -0.854256 6.00656 0
M  V30 19848 H 1914.98 -1.06561 4.75916 0
M  V30 19849 H 1913.99 1.1554 5.37523 0
M  V30 19850 H 1915.21 1.354 6.65465 0
M  V30 19851 H 1913.16 -0.884688 6.50007 0
M  V30 19852 H 1913.08 0.496538 7.54368 0
M  V30 19853 H 1914.34 -0.671665 7.76601 0
M  V30 19854 N 1918.57 -1.44173 0.636557 0
M  V30 19855 C 1919.82 -2.01993 0.143216 0
M  V30 19856 C 1920.15 -1.50104 -1.23689 0
M  V30 19857 O 1919.4 -0.677627 -1.83594 0
M  V30 19858 C 1919.7 -3.57299 0.0849933 0
M  V30 19859 C 1919.37 -4.28464 1.40461 0
M  V30 19860 C 1918.03 -4.47622 1.76601 0
M  V30 19861 C 1920.38 -4.68908 2.27541 0
M  V30 19862 C 1917.71 -5.04485 2.99519 0
M  V30 19863 C 1920.06 -5.27133 3.49734 0
M  V30 19864 C 1918.73 -5.44509 3.86091 0
M  V30 19865 H 1918 -0.739144 0.0524066 0
M  V30 19866 H 1920.64 -1.72868 0.823952 0
M  V30 19867 H 1918.95 -3.85869 -0.679134 0
M  V30 19868 H 1920.65 -3.99774 -0.31333 0
M  V30 19869 H 1917.24 -4.13886 1.11337 0
M  V30 19870 H 1921.42 -4.53815 2.00913 0
M  V30 19871 H 1916.68 -5.16125 3.27758 0
M  V30 19872 H 1920.85 -5.5742 4.1744 0
M  V30 19873 H 1918.48 -5.88336 4.81419 0
M  V30 19874 N 1920.05 -0.377435 -1.53014 0
M  V30 19875 C 1920.98 0.455103 -2.29022 0
M  V30 19876 C 1921.96 1.07375 -1.31926 0
M  V30 19877 O 1923.15 1.08877 -1.60809 0
M  V30 19878 C 1920.28 1.58883 -3.08826 0
M  V30 19879 C 1919.23 1.09683 -4.13707 0
M  V30 19880 C 1918.56 2.32172 -4.81664 0
M  V30 19881 C 1919.86 0.173165 -5.22013 0
M  V30 19882 H 1921.55 -0.179053 -2.98864 0
M  V30 19883 H 1919.1 -0.0875549 -1.43734 0
M  V30 19884 H 1921.05 2.17798 -3.60752 0
M  V30 19885 H 1919.77 2.2504 -2.36695 0
M  V30 19886 H 1918.43 0.530291 -3.62744 0
M  V30 19887 H 1918.08 2.96811 -4.06094 0
M  V30 19888 H 1917.78 1.99919 -5.52545 0
M  V30 19889 H 1919.31 2.91751 -5.3639 0
M  V30 19890 H 1920.72 0.670145 -5.6937 0
M  V30 19891 H 1919.12 -0.0590463 -6.00071 0
M  V30 19892 H 1920.19 -0.781339 -4.78564 0
M  V30 19893 N 1921.53 1.57237 -0.106922 0
M  V30 19894 C 1922.49 2.13515 0.833317 0
M  V30 19895 C 1923.49 1.06715 1.20285 0
M  V30 19896 O 1924.68 1.32548 1.13034 0
M  V30 19897 C 1921.82 2.66546 2.12523 0
M  V30 19898 H 1923.01 2.97916 0.344435 0
M  V30 19899 H 1920.56 1.55652 0.142199 0
M  V30 19900 H 1921.3 1.85699 2.65869 0
M  V30 19901 H 1921.08 3.44643 1.86985 0
M  V30 19902 H 1922.57 3.10039 2.7976 0
M  V30 19903 N 1923.01 -0.166818 1.56715 0
M  V30 19904 C 1924.29 -0.910255 1.73129 0
M  V30 19905 C 1924.67 -2.002 0.669555 0
M  V30 19906 O 1924.01 -2.2632 -0.314899 0
M  V30 19907 C 1924.22 -1.47087 3.16491 0
M  V30 19908 C 1925.57 -1.94204 3.77584 0
M  V30 19909 O 1926.6 -1.56872 3.19796 0
M  V30 19910 O 1925.45 -2.62988 4.79061 0
M  V30 19911 H 1922.55 -0.428766 0.70717 0
M  V30 19912 H 1925.09 -0.154295 1.68997 0
M  V30 19913 H 1923.87 -0.685322 3.85252 0
M  V30 19914 H 1923.49 -2.29089 3.24967 0
M  V30 19915 N 1924.49 -1.51463 -0.435524 0
M  V30 19916 C 1925.73 -1.63897 -1.18247 0
M  V30 19917 C 1926.06 -0.358322 -1.9168 0
M  V30 19918 O 1925.33 0.625888 -1.85633 0
M  V30 19919 H 1923.91 -0.60404 -0.439482 0
M  V30 19920 H 1926.57 -1.884 -0.49915 0
M  V30 19921 H 1925.66 -2.46749 -1.91105 0
M  V30 19922 N 1925.96 0.691085 -1.4164 0
M  V30 19923 C 1927.21 1.44828 -1.40959 0
M  V30 19924 C 1927.53 1.94988 -0.0211789 0
M  V30 19925 O 1926.8 1.71999 0.937714 0
M  V30 19926 H 1925.38 0.53739 -0.518865 0
M  V30 19927 H 1928.05 0.817677 -1.76918 0
M  V30 19928 H 1927.14 2.30926 -2.09952 0
M  V30 19929 N 1927.44 1.27542 0.925789 0
M  V30 19930 C 1928.68 1.1523 1.68823 0
M  V30 19931 C 1929.05 -0.296566 1.89696 0
M  V30 19932 O 1930.25 -0.542141 2.63276 0
M  V30 19933 C 1928.52 1.91634 3.0168 0
M  V30 19934 S 1930.08 1.95558 3.92814 0
M  V30 19935 H 1926.9 0.41133 0.579938 0
M  V30 19936 H 1929.5 1.61477 1.10207 0
M  V30 19937 H 1928.2 2.9609 2.84181 0
M  V30 19938 H 1927.73 1.4589 3.65349 0
M  V30 19939 H 1929.75 1.05338 4.8489 0
M  V30 19940 N 1928.92 -1.13255 1.09595 0
M  V30 19941 C 1930.15 -1.88952 0.855104 0
M  V30 19942 C 1930.57 -1.78668 -0.588174 0
M  V30 19943 O 1929.93 -1.13544 -1.41341 0
M  V30 19944 C 1929.98 -3.36461 1.29717 0
M  V30 19945 O 1929.08 -4.09863 0.456717 0
M  V30 19946 H 1928.42 -0.587432 0.309547 0
M  V30 19947 H 1930.95 -1.43282 1.46053 0
M  V30 19948 H 1930.96 -3.87291 1.28333 0
M  V30 19949 H 1929.64 -3.43263 2.34826 0
M  V30 19950 H 1928.21 -3.69042 0.535026 0
M  V30 19951 N 1930.4 -0.883401 -1.30514 0
M  V30 19952 C 1931.65 -0.500062 -1.95816 0
M  V30 19953 C 1931.97 0.953596 -1.70093 0
M  V30 19954 O 1931.24 1.67027 -1.02365 0
M  V30 19955 H 1929.82 -0.181936 -0.724506 0
M  V30 19956 H 1932.48 -1.12613 -1.59073 0
M  V30 19957 H 1931.58 -0.668998 -3.04846 0
M  V30 19958 N 1931.88 1.43833 -0.644194 0
M  V30 19959 C 1933.12 2.01515 -0.153623 0
M  V30 19960 C 1933.45 1.51022 1.23358 0
M  V30 19961 O 1932.72 0.719137 1.82223 0
M  V30 19962 H 1931.3 0.74506 -0.053802 0
M  V30 19963 H 1933.96 1.76163 -0.833833 0
M  V30 19964 H 1933.05 3.11824 -0.131313 0
M  V30 19965 N 1933.35 0.385544 1.52811 0
M  V30 19966 C 1934.32 -0.439294 2.24951 0
M  V30 19967 C 1935.32 -0.993315 1.26451 0
M  V30 19968 O 1936.51 -0.875911 1.50577 0
M  V30 19969 C 1933.64 -1.61595 3.00166 0
M  V30 19970 H 1934.83 0.192232 2.99283 0
M  V30 19971 H 1932.39 0.137589 1.55693 0
M  V30 19972 H 1933.12 -2.28501 2.30125 0
M  V30 19973 H 1932.91 -1.22544 3.72459 0
M  V30 19974 H 1934.4 -2.20001 3.5495 0
M  V30 19975 N 1934.83 -1.57178 0.115259 0
M  V30 19976 C 1936.06 -1.99126 -0.550671 0
M  V30 19977 C 1936.47 -0.993751 -1.61001 0
M  V30 19978 O 1935.81 0.0220518 -1.83687 0
M  V30 19979 C 1935.88 -3.37482 -1.2388 0
M  V30 19980 C 1935.54 -4.55823 -0.327848 0
M  V30 19981 C 1936.54 -5.18102 0.432054 0
M  V30 19982 C 1934.22 -5.01726 -0.240012 0
M  V30 19983 C 1936.22 -6.24669 1.26756 0
M  V30 19984 C 1933.9 -6.08156 0.599131 0
M  V30 19985 C 1934.9 -6.69494 1.35155 0
M  V30 19986 O 1934.59 -7.73868 2.17677 0
M  V30 19987 H 1934.32 -0.658991 -0.150689 0
M  V30 19988 H 1936.87 -2.0445 0.197288 0
M  V30 19989 H 1935.1 -3.28901 -2.03375 0
M  V30 19990 H 1936.79 -3.63744 -1.80126 0
M  V30 19991 H 1937.56 -4.83555 0.374044 0
M  V30 19992 H 1933.44 -4.53732 -0.81535 0
M  V30 19993 H 1936.98 -6.72475 1.85533 0
M  V30 19994 H 1932.88 -6.42132 0.658548 0
M  V30 19995 H 1933.65 -7.90948 2.10578 0
M  V30 19996 N 1936.31 0.158505 -1.56801 0
M  V30 19997 C 1937.59 0.901061 -1.73609 0
M  V30 19998 C 1937.97 1.99842 -0.680163 0
M  V30 19999 O 1937.32 2.26484 0.302892 0
M  V30 20000 C 1937.53 1.45407 -3.17266 0
M  V30 20001 C 1938.87 1.92199 -3.78609 0
M  V30 20002 O 1939.9 1.55173 -3.20624 0
M  V30 20003 O 1938.76 2.60443 -4.80449 0
M  V30 20004 H 1935.85 0.425009 -0.709434 0
M  V30 20005 H 1938.4 0.14533 -1.69077 0
M  V30 20006 H 1937.17 0.664882 -3.8561 0
M  V30 20007 H 1936.79 2.27363 -3.26178 0
M  V30 20008 N 1937.79 1.51692 0.427485 0
M  V30 20009 C 1939.04 1.64079 1.17308 0
M  V30 20010 C 1939.35 0.367695 1.92113 0
M  V30 20011 O 1940.56 0.371083 2.68952 0
M  V30 20012 C 1939.01 2.89812 2.13394 0
M  V30 20013 C 1938.62 4.24161 1.44191 0
M  V30 20014 C 1940.37 3.11559 2.88325 0
M  V30 20015 C 1938.27 5.41036 2.38819 0
M  V30 20016 H 1937.2 0.611162 0.441584 0
M  V30 20017 H 1939.85 1.78167 0.439193 0
M  V30 20018 H 1938.24 2.6938 2.90259 0
M  V30 20019 H 1939.41 4.5501 0.72817 0
M  V30 20020 H 1937.72 4.08371 0.813739 0
M  V30 20021 H 1940.32 3.96051 3.59232 0
M  V30 20022 H 1940.66 2.25037 3.50234 0
M  V30 20023 H 1941.2 3.32376 2.18565 0
M  V30 20024 H 1937.94 6.29847 1.81585 0
M  V30 20025 H 1937.46 5.1455 3.08218 0
M  V30 20026 H 1939.14 5.73381 2.9974 0
M  V30 20027 N 1939.27 -0.683564 1.42004 0
M  V30 20028 C 1940.52 -1.43934 1.413 0
M  V30 20029 C 1940.83 -1.95578 0.0296606 0
M  V30 20030 O 1942.04 -2.71316 -0.0999859 0
M  V30 20031 C 1940.49 -2.60331 2.48507 0
M  V30 20032 C 1940.1 -2.15424 3.92806 0
M  V30 20033 C 1941.84 -3.37895 2.56957 0
M  V30 20034 C 1939.75 -3.28851 4.91539 0
M  V30 20035 H 1938.68 -0.540693 0.525516 0
M  V30 20036 H 1941.33 -0.740914 1.67877 0
M  V30 20037 H 1939.71 -3.325 2.15081 0
M  V30 20038 H 1940.89 -1.50466 4.35542 0
M  V30 20039 H 1939.2 -1.50822 3.88126 0
M  V30 20040 H 1941.8 -4.22355 3.27903 0
M  V30 20041 H 1942.14 -3.83896 1.61027 0
M  V30 20042 H 1942.68 -2.72791 2.89534 0
M  V30 20043 H 1939.41 -2.87851 5.88916 0
M  V30 20044 H 1938.93 -3.92619 4.53443 0
M  V30 20045 H 1940.61 -3.9445 5.12853 0
M  V30 20046 N 1940.75 -1.28031 -0.919012 0
M  V30 20047 C 1941.99 -1.14258 -1.66217 0
M  V30 20048 C 1942.31 0.309269 -1.9314 0
M  V30 20049 O 1943.51 0.568038 -2.65491 0
M  V30 20050 C 1941.97 -1.99702 -2.99411 0
M  V30 20051 C 1941.58 -3.49596 -2.80155 0
M  V30 20052 C 1943.32 -1.94601 -3.77267 0
M  V30 20053 C 1941.23 -4.27209 -4.08958 0
M  V30 20054 H 1940.16 -0.424009 -0.623484 0
M  V30 20055 H 1942.81 -1.52521 -1.02028 0
M  V30 20056 H 1941.19 -1.5429 -3.64706 0
M  V30 20057 H 1942.37 -4.02929 -2.23574 0
M  V30 20058 H 1940.68 -3.56167 -2.15718 0
M  V30 20059 H 1943.28 -2.49859 -4.72731 0
M  V30 20060 H 1943.62 -0.92157 -4.05971 0
M  V30 20061 H 1944.15 -2.37954 -3.18783 0
M  V30 20062 H 1940.89 -5.30212 -3.8543 0
M  V30 20063 H 1940.41 -3.7865 -4.65171 0
M  V30 20064 H 1942.09 -4.36847 -4.77256 0
M  V30 20065 N 1942.22 1.12672 -1.10194 0
M  V30 20066 C 1943.46 1.85769 -0.852599 0
M  V30 20067 C 1943.83 1.82027 0.610749 0
M  V30 20068 O 1945.03 2.50442 0.976339 0
M  V30 20069 C 1943.3 3.29565 -1.38281 0
M  V30 20070 S 1944.86 4.20064 -1.26853 0
M  V30 20071 H 1941.68 0.64075 -0.308157 0
M  V30 20072 H 1944.28 1.35746 -1.40689 0
M  V30 20073 H 1942.98 3.29846 -2.44192 0
M  V30 20074 H 1942.51 3.84652 -0.824994 0
M  V30 20075 H 1944.53 4.95691 -0.224588 0
M  V30 20076 N 1943.7 0.89031 1.30043 0
M  V30 20077 C 1944.98 0.43131 1.90785 0
M  V30 20078 C 1945.36 -1.08836 1.80881 0
M  V30 20079 O 1944.71 -1.92605 1.22946 0
M  V30 20080 C 1944.92 0.935377 3.36232 0
M  V30 20081 C 1946.26 0.973504 4.13289 0
M  V30 20082 O 1947.29 0.882404 3.45097 0
M  V30 20083 O 1946.15 1.10893 5.35131 0
M  V30 20084 H 1943.24 0.132845 0.816261 0
M  V30 20085 H 1945.79 0.979561 1.38574 0
M  V30 20086 H 1944.56 1.97928 3.3755 0
M  V30 20087 H 1944.18 0.366596 3.95906 0
M  V30 20088 N 1945.18 -1.43489 0.651812 0
M  V30 20089 C 1946.09 -2.34564 -0.0413115 0
M  V30 20090 C 1947.11 -1.53803 -0.81368 0
M  V30 20091 O 1948.28 -1.86459 -0.761246 0
M  V30 20092 C 1945.35 -3.32063 -0.996745 0
M  V30 20093 C 1944.41 -4.28728 -0.221464 0
M  V30 20094 C 1943.64 -5.2157 -1.13139 0
M  V30 20095 O 1943.86 -5.18804 -2.37062 0
M  V30 20096 O 1942.8 -5.98856 -0.604552 0
M  V30 20097 H 1946.62 -2.95325 0.708295 0
M  V30 20098 H 1944.21 -1.43607 0.411999 0
M  V30 20099 H 1946.09 -3.92022 -1.54586 0
M  V30 20100 H 1944.77 -2.73807 -1.7266 0
M  V30 20101 H 1943.67 -3.72254 0.371205 0
M  V30 20102 H 1945.01 -4.89962 0.468797 0
M  V30 20103 N 1946.66 -0.393643 -1.52605 0
M  V30 20104 C 1947.9 0.186875 -2.03544 0
M  V30 20105 C 1948.26 1.43681 -1.27357 0
M  V30 20106 O 1949.46 2.09477 -1.68443 0
M  V30 20107 C 1947.73 0.444006 -3.54631 0
M  V30 20108 S 1949.29 0.994186 -4.27389 0
M  V30 20109 H 1946.11 0.0522497 -0.709078 0
M  V30 20110 H 1948.71 -0.542992 -1.87808 0
M  V30 20111 H 1947.42 -0.472739 -4.07668 0
M  V30 20112 H 1946.95 1.20218 -3.74581 0
M  V30 20113 H 1948.96 2.27617 -4.40914 0
M  V30 20114 N 1948.14 1.57115 -0.123593 0
M  V30 20115 C 1949.09 2.12114 0.836157 0
M  V30 20116 C 1950.07 1.04305 1.22512 0
M  V30 20117 O 1951.26 1.3053 1.19545 0
M  V30 20118 C 1948.39 2.72776 2.08442 0
M  V30 20119 C 1947.48 3.87673 1.71962 0
M  V30 20120 N 1947.87 4.9453 1.0618 0
M  V30 20121 C 1946.17 3.97942 2.0139 0
M  V30 20122 C 1946.87 5.74861 0.889393 0
M  V30 20123 N 1945.84 5.24838 1.41586 0
M  V30 20124 H 1949.64 2.92108 0.324092 0
M  V30 20125 H 1947.16 1.62209 0.0787292 0
M  V30 20126 H 1949.16 3.10525 2.78172 0
M  V30 20127 H 1947.82 1.94247 2.60188 0
M  V30 20128 H 1948.83 5.12797 0.725245 0
M  V30 20129 H 1945.5 3.30461 2.5515 0
M  V30 20130 H 1946.89 6.70866 0.372697 0
M  V30 20131 N 1949.61 -0.150187 1.56883 0
M  V30 20132 C 1950.84 -0.88235 1.87695 0
M  V30 20133 C 1951.26 -1.74093 0.712272 0
M  V30 20134 O 1950.62 -1.78118 -0.338207 0
M  V30 20135 C 1950.67 -1.71754 3.1707 0
M  V30 20136 O 1949.77 -2.82145 3.00779 0
M  V30 20137 H 1949.11 -0.245947 0.616771 0
M  V30 20138 H 1951.64 -0.141963 2.04107 0
M  V30 20139 H 1951.65 -2.1132 3.4901 0
M  V30 20140 H 1950.33 -1.08704 4.01443 0
M  V30 20141 H 1948.91 -2.46008 2.8024 0
M  V30 20142 N 1951.09 -1.51916 -0.419434 0
M  V30 20143 C 1952.32 -1.69302 -1.1893 0
M  V30 20144 C 1952.74 -0.398024 -1.84557 0
M  V30 20145 O 1952.09 0.625083 -1.71461 0
M  V30 20146 C 1952.14 -2.82139 -2.26009 0
M  V30 20147 O 1951.86 -4.06623 -1.63064 0
M  V30 20148 C 1953.37 -3.10947 -3.15954 0
M  V30 20149 H 1950.59 -0.567657 -0.357781 0
M  V30 20150 H 1953.13 -1.98424 -0.494807 0
M  V30 20151 H 1951.28 -2.55565 -2.91144 0
M  V30 20152 H 1951.7 -4.69423 -2.33971 0
M  V30 20153 H 1953.17 -3.93438 -3.87183 0
M  V30 20154 H 1953.65 -2.24078 -3.77738 0
M  V30 20155 H 1954.26 -3.39246 -2.56499 0
M  V30 20156 N 1952.57 0.676023 -1.42365 0
M  V30 20157 C 1953.85 1.43189 -1.33252 0
M  V30 20158 C 1954.23 2.11078 0.0306765 0
M  V30 20159 O 1953.58 2.03148 1.0461 0
M  V30 20160 C 1953.79 2.43534 -2.49984 0
M  V30 20161 C 1955.13 3.08213 -2.92044 0
M  V30 20162 O 1956.16 2.53861 -2.49866 0
M  V30 20163 O 1955.02 4.06702 -3.65042 0
M  V30 20164 H 1952.11 0.638626 -0.525438 0
M  V30 20165 H 1954.66 0.704851 -1.5437 0
M  V30 20166 H 1953.43 1.92159 -3.40867 0
M  V30 20167 H 1953.05 3.23721 -2.30847 0
M  V30 20168 N 1954.05 1.28517 0.912209 0
M  V30 20169 C 1955.27 1.18732 1.70052 0
M  V30 20170 C 1955.7 -0.250323 1.86427 0
M  V30 20171 O 1955.06 -1.18105 1.37553 0
M  V30 20172 C 1955.1 1.89256 3.06944 0
M  V30 20173 O 1954.21 1.20108 3.94522 0
M  V30 20174 H 1953.55 0.412087 0.520654 0
M  V30 20175 H 1956.08 1.69866 1.14048 0
M  V30 20176 H 1956.09 1.97223 3.57165 0
M  V30 20177 H 1954.76 2.93829 2.94343 0
M  V30 20178 H 1953.34 1.20315 3.52957 0
M  V30 20179 N 1955.53 -1.12086 1.1079 0
M  V30 20180 C 1956.75 -1.87493 0.874862 0
M  V30 20181 C 1957.17 -1.79834 -0.574907 0
M  V30 20182 O 1956.53 -1.17483 -1.39657 0
M  V30 20183 C 1956.58 -3.36566 1.3193 0
M  V30 20184 O 1956.3 -3.4405 2.71222 0
M  V30 20185 C 1957.8 -4.289 1.12069 0
M  V30 20186 H 1955.02 -0.593122 0.313764 0
M  V30 20187 H 1957.56 -1.41803 1.4735 0
M  V30 20188 H 1955.72 -3.79787 0.764254 0
M  V30 20189 H 1956.13 -4.36824 2.90319 0
M  V30 20190 H 1957.61 -5.31768 1.48076 0
M  V30 20191 H 1958.08 -4.3916 0.0596432 0
M  V30 20192 H 1958.69 -3.91465 1.66238 0
M  V30 20193 N 1957 -0.897194 -1.29569 0
M  V30 20194 C 1958.23 -0.53717 -1.99805 0
M  V30 20195 C 1958.65 0.877466 -1.6717 0
M  V30 20196 O 1958 1.57882 -0.915398 0
M  V30 20197 C 1958.06 -0.716902 -3.5432 0
M  V30 20198 O 1957.78 -2.07586 -3.85798 0
M  V30 20199 C 1959.28 -0.361494 -4.41824 0
M  V30 20200 H 1956.5 -0.206379 -0.638474 0
M  V30 20201 H 1959.04 -1.20585 -1.65165 0
M  V30 20202 H 1957.2 -0.095433 -3.87282 0
M  V30 20203 H 1957.61 -2.10338 -4.80477 0
M  V30 20204 H 1959.08 -0.538099 -5.49371 0
M  V30 20205 H 1959.56 0.701301 -4.33565 0
M  V30 20206 H 1960.17 -0.959799 -4.14328 0
M  V30 20207 N 1958.48 1.43142 -0.659413 0
M  V30 20208 C 1959.73 2.0096 -0.172631 0
M  V30 20209 C 1960.04 1.52669 1.22277 0
M  V30 20210 O 1961.25 2.02802 1.8051 0
M  V30 20211 C 1959.71 3.58975 -0.257802 0
M  V30 20212 C 1959.31 4.16259 -1.65628 0
M  V30 20213 C 1961.06 4.24155 0.171057 0
M  V30 20214 C 1958.97 5.66588 -1.69505 0
M  V30 20215 H 1957.9 0.751547 -0.0607765 0
M  V30 20216 H 1960.55 1.64042 -0.822352 0
M  V30 20217 H 1958.93 3.93325 0.459538 0
M  V30 20218 H 1960.1 3.93398 -2.39947 0
M  V30 20219 H 1958.42 3.63473 -2.03165 0
M  V30 20220 H 1961.01 5.34454 0.162026 0
M  V30 20221 H 1961.36 3.98521 1.2036 0
M  V30 20222 H 1961.89 3.94711 -0.494745 0
M  V30 20223 H 1958.63 5.96998 -2.7069 0
M  V30 20224 H 1958.15 5.91486 -0.995201 0
M  V30 20225 H 1959.83 6.30736 -1.44156 0
M  V30 20226 N 1959.96 0.40173 1.52394 0
M  V30 20227 C 1960.89 -0.41861 2.29717 0
M  V30 20228 C 1961.87 -1.05263 1.33618 0
M  V30 20229 O 1963.06 -1.06304 1.62521 0
M  V30 20230 C 1960.19 -1.5395 3.11314 0
M  V30 20231 C 1959.14 -1.03088 4.154 0
M  V30 20232 C 1958.47 -2.2448 4.85297 0
M  V30 20233 C 1959.77 -0.0900956 5.22222 0
M  V30 20234 H 1961.46 0.226577 2.98541 0
M  V30 20235 H 1959.01 0.110411 1.43576 0
M  V30 20236 H 1960.96 -2.12031 3.64171 0
M  V30 20237 H 1959.68 -2.21246 2.40246 0
M  V30 20238 H 1958.34 -0.472515 3.63542 0
M  V30 20239 H 1957.99 -2.90313 4.10764 0
M  V30 20240 H 1957.69 -1.91103 5.55656 0
M  V30 20241 H 1959.21 -2.83181 5.40963 0
M  V30 20242 H 1960.63 -0.579479 5.70364 0
M  V30 20243 H 1959.03 0.154505 5.99901 0
M  V30 20244 H 1960.1 0.857375 4.7726 0
M  V30 20245 N 1961.44 -1.57047 0.131923 0
M  V30 20246 C 1962.69 -1.95245 -0.521892 0
M  V30 20247 C 1963.01 -1.01692 -1.66385 0
M  V30 20248 O 1962.28 -0.0756026 -1.95754 0
M  V30 20249 H 1960.86 -0.720886 -0.195786 0
M  V30 20250 H 1963.52 -1.93831 0.203893 0
M  V30 20251 H 1962.62 -2.986 -0.907979 0
M  V30 20252 N 1962.92 0.141865 -1.5696 0
M  V30 20253 C 1964.17 0.852066 -1.82819 0
M  V30 20254 C 1964.48 1.82103 -0.713987 0
M  V30 20255 O 1965.68 2.57575 -0.858321 0
M  V30 20256 C 1964.14 1.56589 -3.24049 0
M  V30 20257 C 1963.75 0.639071 -4.43418 0
M  V30 20258 C 1965.49 2.26257 -3.59177 0
M  V30 20259 C 1963.4 1.35481 -5.75673 0
M  V30 20260 H 1962.33 0.321934 -0.681817 0
M  V30 20261 H 1964.98 0.104791 -1.83201 0
M  V30 20262 H 1963.36 2.35898 -3.1807 0
M  V30 20263 H 1964.54 -0.119159 -4.60646 0
M  V30 20264 H 1962.85 0.0505413 -4.16369 0
M  V30 20265 H 1965.45 2.80455 -4.55246 0
M  V30 20266 H 1965.79 3.02992 -2.85485 0
M  V30 20267 H 1966.32 1.53861 -3.6684 0
M  V30 20268 H 1963.06 0.629214 -6.52473 0
M  V30 20269 H 1962.58 2.08562 -5.62372 0
M  V30 20270 H 1964.26 1.89432 -6.18647 0
M  V30 20271 N 1964.39 1.52136 0.411372 0
M  V30 20272 C 1965.64 1.65757 1.15624 0
M  V30 20273 C 1965.96 0.388771 1.91085 0
M  V30 20274 O 1965.23 -0.596276 1.86605 0
M  V30 20275 H 1963.81 0.610955 0.429817 0
M  V30 20276 H 1966.48 1.8917 0.469114 0
M  V30 20277 H 1965.57 2.49759 1.87155 0
M  V30 20278 N 1965.87 -0.668464 1.42721 0
M  V30 20279 C 1967.1 -1.45659 1.46939 0
M  V30 20280 C 1967.52 -1.88619 0.0826133 0
M  V30 20281 O 1966.87 -1.58537 -0.904 0
M  V30 20282 C 1966.92 -2.70158 2.40202 0
M  V30 20283 O 1966.65 -2.28999 3.73485 0
M  V30 20284 C 1968.15 -3.63662 2.53505 0
M  V30 20285 H 1965.37 -0.447982 0.499553 0
M  V30 20286 H 1967.91 -0.820826 1.87304 0
M  V30 20287 H 1966.07 -3.29909 2.03074 0
M  V30 20288 H 1966.48 -3.09441 4.23493 0
M  V30 20289 H 1967.95 -4.47726 3.22871 0
M  V30 20290 H 1968.43 -4.09989 1.57498 0
M  V30 20291 H 1969.04 -3.09801 2.91382 0
M  V30 20292 N 1967.35 -1.28999 -0.905381 0
M  V30 20293 C 1968.6 -1.16813 -1.65779 0
M  V30 20294 C 1968.93 0.280936 -1.92157 0
M  V30 20295 O 1968.21 1.2035 -1.52794 0
M  V30 20296 C 1968.49 -1.97593 -3.01047 0
M  V30 20297 C 1968.34 -3.50608 -2.8177 0
M  V30 20298 C 1969.66 -1.79788 -4.01702 0
M  V30 20299 H 1966.78 -0.425716 -0.60161 0
M  V30 20300 H 1969.42 -1.58409 -1.04913 0
M  V30 20301 H 1967.57 -1.62246 -3.52999 0
M  V30 20302 H 1969.24 -3.95905 -2.36763 0
M  V30 20303 H 1967.49 -3.75818 -2.16663 0
M  V30 20304 H 1968.16 -4.02396 -3.77865 0
M  V30 20305 H 1970.63 -2.10649 -3.5884 0
M  V30 20306 H 1969.51 -2.38667 -4.94297 0
M  V30 20307 H 1969.77 -0.75156 -4.35665 0
M  V30 20308 N 1968.83 1.11497 -1.11383 0
M  V30 20309 C 1969.76 2.19592 -0.793827 0
M  V30 20310 C 1970.74 1.68433 0.237559 0
M  V30 20311 O 1971.93 1.93936 0.101164 0
M  V30 20312 C 1969.06 3.465 -0.235579 0
M  V30 20313 C 1968.01 4.10869 -1.19877 0
M  V30 20314 C 1967.34 5.32345 -0.501259 0
M  V30 20315 C 1968.64 4.55864 -2.54922 0
M  V30 20316 H 1970.33 2.46617 -1.69766 0
M  V30 20317 H 1967.88 1.18532 -0.817695 0
M  V30 20318 H 1969.83 4.214 0.000490272 0
M  V30 20319 H 1968.55 3.18932 0.703544 0
M  V30 20320 H 1967.21 3.37962 -1.42046 0
M  V30 20321 H 1966.86 5.01048 0.442652 0
M  V30 20322 H 1966.56 5.76363 -1.14367 0
M  V30 20323 H 1968.08 6.09985 -0.273968 0
M  V30 20324 H 1969.5 5.22089 -2.36845 0
M  V30 20325 H 1967.89 5.10693 -3.15139 0
M  V30 20326 H 1968.96 3.69342 -3.14189 0
M  V30 20327 N 1970.31 0.904053 1.29092 0
M  V30 20328 C 1971.58 0.451521 1.90317 0
M  V30 20329 C 1971.96 -1.06911 1.82025 0
M  V30 20330 O 1971.31 -1.9129 1.24982 0
M  V30 20331 C 1971.52 0.970986 3.35221 0
M  V30 20332 C 1972.87 1.01728 4.12234 0
M  V30 20333 O 1973.89 0.918956 3.44142 0
M  V30 20334 O 1972.75 1.16562 5.33925 0
M  V30 20335 H 1969.85 0.141495 0.814806 0
M  V30 20336 H 1972.39 0.994203 1.37527 0
M  V30 20337 H 1971.17 2.01497 3.35432 0
M  V30 20338 H 1970.79 0.408567 3.95495 0
M  V30 20339 N 1971.79 -1.4279 0.666995 0
M  V30 20340 C 1972.72 -2.29134 -0.0550112 0
M  V30 20341 C 1973.73 -1.43259 -0.773357 0
M  V30 20342 O 1974.92 -1.67057 -0.628816 0
M  V30 20343 C 1972.02 -3.20503 -1.1014 0
M  V30 20344 C 1971.19 -4.34991 -0.458443 0
M  V30 20345 C 1970.25 -5.07136 -1.40356 0
M  V30 20346 O 1969.28 -5.61929 -0.90686 0
M  V30 20347 N 1970.48 -5.1192 -2.73712 0
M  V30 20348 H 1973.24 -2.9174 0.686156 0
M  V30 20349 H 1970.81 -1.5363 0.510814 0
M  V30 20350 H 1972.8 -3.65634 -1.73477 0
M  V30 20351 H 1971.37 -2.59403 -1.74439 0
M  V30 20352 H 1970.59 -3.92605 0.354287 0
M  V30 20353 H 1971.88 -5.08799 -0.0101948 0
M  V30 20354 H 1971.27 -4.68799 -3.16613 0
M  V30 20355 H 1969.83 -5.60722 -3.32316 0
M  V30 20356 N 1973.26 -0.409806 -1.52179 0
M  V30 20357 C 1974.23 0.40345 -2.25621 0
M  V30 20358 C 1975.23 0.973072 -1.28015 0
M  V30 20359 O 1976.42 0.851845 -1.51951 0
M  V30 20360 C 1973.55 1.568 -3.02699 0
M  V30 20361 H 1974.74 -0.239822 -2.9894 0
M  V30 20362 H 1972.29 -0.162341 -1.55455 0
M  V30 20363 H 1973.03 2.24811 -2.33731 0
M  V30 20364 H 1972.81 1.16603 -3.74361 0
M  V30 20365 H 1974.3 2.14326 -3.58405 0
M  V30 20366 N 1974.74 1.56975 -0.14025 0
M  V30 20367 C 1975.65 2.19981 0.815207 0
M  V30 20368 C 1976.67 1.18211 1.2768 0
M  V30 20369 O 1977.84 1.50762 1.33539 0
M  V30 20370 C 1974.91 2.80369 2.03946 0
M  V30 20371 C 1973.97 3.97244 1.62774 0
M  V30 20372 C 1973.2 4.54744 2.79363 0
M  V30 20373 O 1973.43 4.11124 3.9539 0
M  V30 20374 O 1972.36 5.45109 2.55224 0
M  V30 20375 H 1976.19 3.02125 0.308908 0
M  V30 20376 H 1973.77 1.4915 0.0864409 0
M  V30 20377 H 1975.65 3.18778 2.75606 0
M  V30 20378 H 1974.33 2.01243 2.53541 0
M  V30 20379 H 1973.23 3.63564 0.88158 0
M  V30 20380 H 1974.57 4.7787 1.17901 0
M  V30 20381 N 1976.22 -0.133539 1.57033 0
M  V30 20382 C 1977.45 -0.858432 1.88251 0
M  V30 20383 C 1977.86 -1.74119 0.729935 0
M  V30 20384 O 1977.22 -1.8002 -0.29983 0
M  V30 20385 C 1977.27 -1.70397 3.18821 0
M  V30 20386 O 1976.99 -0.856775 4.29641 0
M  V30 20387 C 1978.49 -2.53529 3.63646 0
M  V30 20388 H 1975.71 -0.247538 0.623671 0
M  V30 20389 H 1978.26 -0.122289 2.04134 0
M  V30 20390 H 1976.41 -2.39303 3.04652 0
M  V30 20391 H 1976.83 -1.43857 5.04386 0
M  V30 20392 H 1978.3 -3.0841 4.57807 0
M  V30 20393 H 1978.78 -3.30204 2.89589 0
M  V30 20394 H 1979.38 -1.89891 3.80554 0
M  V30 20395 N 1977.7 -1.52352 -0.403298 0
M  V30 20396 C 1978.66 -1.75482 -1.4744 0
M  V30 20397 C 1979.66 -0.62473 -1.48168 0
M  V30 20398 O 1980.85 -0.892662 -1.4959 0
M  V30 20399 C 1977.98 -1.84253 -2.86817 0
M  V30 20400 H 1979.18 -2.71107 -1.28222 0
M  V30 20401 H 1976.73 -1.42857 -0.634157 0
M  V30 20402 H 1977.46 -0.905623 -3.11398 0
M  V30 20403 H 1977.25 -2.66414 -2.87691 0
M  V30 20404 H 1978.74 -2.03869 -3.64454 0
M  V30 20405 N 1979.18 0.660885 -1.43074 0
M  V30 20406 C 1980.42 1.41805 -1.43999 0
M  V30 20407 C 1980.74 1.949 -0.0625341 0
M  V30 20408 O 1980.01 1.7395 0.901019 0
M  V30 20409 H 1978.59 0.526263 -0.530147 0
M  V30 20410 H 1981.26 0.779967 -1.78613 0
M  V30 20411 H 1980.35 2.2642 -2.14803 0
M  V30 20412 N 1980.65 1.29477 0.898527 0
M  V30 20413 C 1981.62 1.14706 1.98432 0
M  V30 20414 C 1982.62 0.0821822 1.6059 0
M  V30 20415 O 1983.81 0.329216 1.71061 0
M  V30 20416 C 1980.94 0.754356 3.32449 0
M  V30 20417 H 1982.13 2.11154 2.12964 0
M  V30 20418 H 1979.69 1.1268 1.08319 0
M  V30 20419 H 1980.42 -0.210224 3.23618 0
M  V30 20420 H 1980.21 1.52377 3.61281 0
M  V30 20421 H 1981.7 0.674095 4.12123 0
M  V30 20422 N 1982.13 -1.10905 1.11972 0
M  V30 20423 C 1983.55 -1.3478 0.854776 0
M  V30 20424 C 1983.75 -1.94737 -0.517653 0
M  V30 20425 O 1982.8 -2.18391 -1.26734 0
M  V30 20426 C 1984.12 -2.27414 1.96732 0
M  V30 20427 C 1985.67 -2.40964 1.99764 0
M  V30 20428 C 1986.14 -3.36923 3.10237 0
M  V30 20429 N 1987.63 -3.44488 3.09648 0
M  V30 20430 C 1988.37 -4.18695 3.91768 0
M  V30 20431 N 1987.86 -4.95829 4.83865 0
M  V30 20432 N 1989.66 -4.14263 3.79924 0
M  V30 20433 H 1981.81 -0.703538 2.0041 0
M  V30 20434 H 1984.07 -0.372318 0.871828 0
M  V30 20435 H 1983.78 -1.90561 2.956 0
M  V30 20436 H 1983.65 -3.27681 1.86829 0
M  V30 20437 H 1986.04 -2.77089 1.01518 0
M  V30 20438 H 1986.12 -1.40529 2.13741 0
M  V30 20439 H 1985.76 -3.01524 4.08712 0
M  V30 20440 H 1985.69 -4.37225 2.93499 0
M  V30 20441 H 1988.18 -2.89475 2.42925 0
M  V30 20442 H 1988.5 -5.49836 5.43047 0
M  V30 20443 H 1986.84 -4.9497 4.87883 0
M  V30 20444 H 1990.03 -3.53095 3.07314 0
M  V30 20445 H 1990.2 -4.71837 4.44155 0
M  V30 20446 N 1983.61 -0.910886 -1.2861 0
M  V30 20447 C 1984.54 -0.413998 -2.29801 0
M  V30 20448 C 1985.52 0.51689 -1.62056 0
M  V30 20449 O 1986.71 0.425236 -1.89487 0
M  V30 20450 C 1983.84 0.349336 -3.45539 0
M  V30 20451 C 1982.79 -0.49215 -4.25161 0
M  V30 20452 C 1982.12 0.399352 -5.33207 0
M  V30 20453 C 1983.42 -1.74792 -4.92184 0
M  V30 20454 H 1985.11 -1.25965 -2.71612 0
M  V30 20455 H 1982.66 -0.607149 -1.30575 0
M  V30 20456 H 1984.61 0.70777 -4.15414 0
M  V30 20457 H 1983.33 1.22887 -3.02599 0
M  V30 20458 H 1981.99 -0.833064 -3.57009 0
M  V30 20459 H 1981.64 1.27734 -4.86511 0
M  V30 20460 H 1981.34 -0.160062 -5.87382 0
M  V30 20461 H 1982.86 0.753731 -6.0593 0
M  V30 20462 H 1984.28 -1.45856 -5.54436 0
M  V30 20463 H 1982.68 -2.24952 -5.56342 0
M  V30 20464 H 1983.75 -2.4774 -4.16837 0
M  V30 20465 N 1985.09 1.42434 -0.674558 0
M  V30 20466 C 1986.33 2.01841 -0.197012 0
M  V30 20467 C 1986.67 1.53214 1.19328 0
M  V30 20468 O 1985.94 0.734239 1.80109 0
M  V30 20469 C 1986.23 3.59356 -0.231383 0
M  V30 20470 C 1986.08 4.18162 -1.65711 0
M  V30 20471 C 1987.4 4.38086 0.420535 0
M  V30 20472 H 1984.52 0.733369 -0.0730636 0
M  V30 20473 H 1987.16 1.69458 -0.859297 0
M  V30 20474 H 1985.31 3.87074 0.332539 0
M  V30 20475 H 1986.98 4.01398 -2.27327 0
M  V30 20476 H 1985.22 3.74 -2.19787 0
M  V30 20477 H 1985.89 5.27297 -1.63285 0
M  V30 20478 H 1988.37 4.16057 -0.0594985 0
M  V30 20479 H 1987.25 5.47679 0.365847 0
M  V30 20480 H 1987.51 4.15945 1.49808 0
M  V30 20481 N 1986.57 0.417871 1.51959 0
M  V30 20482 C 1987.81 -0.155282 2.02205 0
M  V30 20483 C 1988.15 -1.44044 1.3025 0
M  V30 20484 O 1987.42 -1.90098 0.411449 0
M  V30 20485 C 1987.7 -0.394038 3.57938 0
M  V30 20486 C 1987.56 0.908404 4.40532 0
M  V30 20487 C 1988.88 -1.17238 4.24197 0
M  V30 20488 H 1985.99 -0.0549616 0.734948 0
M  V30 20489 H 1988.64 0.553053 1.81773 0
M  V30 20490 H 1986.79 -0.997422 3.75478 0
M  V30 20491 H 1988.46 1.54427 4.34684 0
M  V30 20492 H 1986.7 1.51743 4.06395 0
M  V30 20493 H 1987.37 0.69563 5.47599 0
M  V30 20494 H 1989.85 -0.661461 4.10809 0
M  V30 20495 H 1988.72 -1.30818 5.33083 0
M  V30 20496 H 1988.99 -2.19534 3.83741 0
M  V30 20497 N 1988.04 -1.56898 0.148573 0
M  V30 20498 C 1988.97 -2.19852 -0.786585 0
M  V30 20499 C 1989.96 -1.14723 -1.2559 0
M  V30 20500 O 1991.14 -1.43071 -1.31317 0
M  V30 20501 C 1988.27 -2.82137 -2.02524 0
M  V30 20502 C 1987.22 -3.93108 -1.69264 0
M  V30 20503 C 1986.55 -4.42335 -3.00407 0
M  V30 20504 C 1987.85 -5.13807 -0.938092 0
M  V30 20505 H 1989.54 -2.98252 -0.261903 0
M  V30 20506 H 1987.09 -1.43461 -0.124531 0
M  V30 20507 H 1989.04 -3.24845 -2.68428 0
M  V30 20508 H 1987.77 -2.01071 -2.57368 0
M  V30 20509 H 1986.43 -3.5102 -1.05739 0
M  V30 20510 H 1986.07 -3.58089 -3.53244 0
M  V30 20511 H 1985.77 -5.17185 -2.78915 0
M  V30 20512 H 1987.3 -4.87714 -3.67378 0
M  V30 20513 H 1988.71 -5.53349 -1.49924 0
M  V30 20514 H 1987.11 -5.94429 -0.823062 0
M  V30 20515 H 1988.18 -4.8485 0.0698825 0
M  V30 20516 N 1989.52 0.125209 -1.57102 0
M  V30 20517 C 1990.49 1.13792 -1.98957 0
M  V30 20518 C 1991.49 1.34656 -0.878887 0
M  V30 20519 O 1992.68 1.31278 -1.14506 0
M  V30 20520 C 1989.81 2.49371 -2.32437 0
M  V30 20521 H 1991 0.778319 -2.89624 0
M  V30 20522 H 1988.55 0.369299 -1.51875 0
M  V30 20523 H 1989.29 2.90263 -1.4463 0
M  V30 20524 H 1989.07 2.35583 -3.13437 0
M  V30 20525 H 1990.56 3.22268 -2.65581 0
M  V30 20526 N 1991 1.52564 0.395213 0
M  V30 20527 C 1992.23 1.71173 1.16222 0
M  V30 20528 C 1992.64 0.427335 1.839 0
M  V30 20529 O 1992 -0.597726 1.72434 0
M  V30 20530 C 1992.05 2.85698 2.21492 0
M  V30 20531 O 1991.77 4.09165 1.56574 0
M  V30 20532 C 1993.27 3.15934 3.10967 0
M  V30 20533 H 1990.49 0.573277 0.348705 0
M  V30 20534 H 1993.04 1.99186 0.463177 0
M  V30 20535 H 1991.19 2.60165 2.87042 0
M  V30 20536 H 1991.61 4.73086 2.26473 0
M  V30 20537 H 1993.08 3.99548 3.80874 0
M  V30 20538 H 1993.56 2.30059 3.74125 0
M  V30 20539 H 1994.16 3.43284 2.5107 0
M  V30 20540 N 1992.48 -0.653289 1.43422 0
M  V30 20541 C 1993.44 -1.74802 1.48246 0
M  V30 20542 C 1994.44 -1.56552 0.367179 0
M  V30 20543 O 1995.63 -1.62451 0.628923 0
M  V30 20544 C 1992.76 -3.13673 1.33499 0
M  V30 20545 H 1993.96 -1.71906 2.4574 0
M  V30 20546 H 1991.51 -0.864936 1.30187 0
M  V30 20547 H 1992.24 -3.22181 0.370118 0
M  V30 20548 H 1992.03 -3.28325 2.14348 0
M  V30 20549 H 1993.52 -3.93502 1.39806 0
M  V30 20550 N 1993.96 -1.29952 -0.891648 0
M  V30 20551 C 1995.18 -1.21297 -1.67615 0
M  V30 20552 C 1995.6 0.225203 -1.87452 0
M  V30 20553 O 1994.96 1.14977 -1.41727 0
M  V30 20554 C 1995.01 -1.93074 -3.05622 0
M  V30 20555 O 1994.73 -3.31276 -2.86684 0
M  V30 20556 C 1996.23 -1.90996 -4.00044 0
M  V30 20557 H 1993.45 -0.420057 -0.523253 0
M  V30 20558 H 1995.99 -1.71463 -1.11448 0
M  V30 20559 H 1994.15 -1.46724 -3.5854 0
M  V30 20560 H 1994.56 -3.67538 -3.74187 0
M  V30 20561 H 1996.04 -2.45768 -4.94269 0
M  V30 20562 H 1996.51 -0.887331 -4.30143 0
M  V30 20563 H 1997.12 -2.37127 -3.53059 0
M  V30 20564 N 1995.44 1.1031 -1.12559 0
M  V30 20565 C 1996.85 1.63801 -0.895891 0
M  V30 20566 C 1997.2 1.87753 0.569511 0
M  V30 20567 O 1996.32 1.62046 1.43423 0
M  V30 20568 C 1996.92 2.9757 -1.6198 0
M  V30 20569 C 1995.48 3.47922 -1.43622 0
M  V30 20570 C 1994.62 2.22506 -1.65489 0
M  V30 20571 H 1997.57 0.937927 -1.28018 0
M  V30 20572 H 1997.6 3.65099 -1.07159 0
M  V30 20573 H 1997.11 2.80105 -2.68631 0
M  V30 20574 H 1995.21 3.70529 -0.392328 0
M  V30 20575 H 1995.32 4.25953 -2.1932 0
M  V30 20576 H 1993.69 2.30712 -1.07908 0
M  V30 20577 H 1994.47 2.07571 -2.7344 0
M  V30 20578 N 1996.91 0.917694 1.28125 0
M  V30 20579 C 1998.32 0.598885 1.76834 0
M  V30 20580 C 1998.68 -0.885857 1.75063 0
M  V30 20581 O 1997.8 -1.69304 1.34778 0
M  V30 20582 C 1998.4 1.08036 3.21113 0
M  V30 20583 C 1996.95 0.812402 3.67528 0
M  V30 20584 C 1996.1 1.24483 2.47789 0
M  V30 20585 H 1999.05 1.09854 1.14533 0
M  V30 20586 H 1999.07 0.423555 3.78135 0
M  V30 20587 H 1998.59 2.161 3.2237 0
M  V30 20588 H 1996.69 -0.254859 3.71727 0
M  V30 20589 H 1996.8 1.42291 4.57482 0
M  V30 20590 H 1995.16 0.663509 2.45906 0
M  V30 20591 H 1995.95 2.3339 2.51762 0
M  V30 20592 N 1998.39 -1.42074 0.682102 0
M  V30 20593 C 1999.64 -2.01037 0.206997 0
M  V30 20594 C 1999.96 -1.5424 -1.19311 0
M  V30 20595 O 1999.23 -0.767197 -1.80252 0
M  V30 20596 H 1997.81 -0.743372 0.073537 0
M  V30 20597 H 2000.47 -1.7389 0.880247 0
M  V30 20598 H 1999.57 -3.11366 0.213942 0
M  V30 20599 N 1999.87 -0.425924 -1.51735 0
M  V30 20600 C 2001.09 0.145767 -2.06887 0
M  V30 20601 C 2001.52 1.36671 -1.29239 0
M  V30 20602 O 2000.88 1.78323 -0.327176 0
M  V30 20603 C 2000.93 0.457951 -3.5768 0
M  V30 20604 O 2000.03 1.54629 -3.82314 0
M  V30 20605 H 1999.37 0.00686619 -0.663964 0
M  V30 20606 H 2001.9 -0.603968 -1.95482 0
M  V30 20607 H 2001.91 0.71173 -4.01744 0
M  V30 20608 H 2000.59 -0.434483 -4.13624 0
M  V30 20609 H 1999.16 1.28336 -3.5012 0
M  V30 20610 N 2001.35 1.56817 -0.156891 0
M  V30 20611 C 2002.6 1.95614 0.491749 0
M  V30 20612 C 2002.91 1.04481 1.65357 0
M  V30 20613 O 2004.12 1.32898 2.36749 0
M  V30 20614 C 2002.57 3.47777 0.926222 0
M  V30 20615 C 2002.18 4.47511 -0.209209 0
M  V30 20616 C 2003.92 3.95421 1.54409 0
M  V30 20617 C 2001.83 5.90896 0.244087 0
M  V30 20618 H 2000.76 0.73032 0.187481 0
M  V30 20619 H 2003.41 1.81886 -0.242819 0
M  V30 20620 H 2001.79 3.56872 1.71634 0
M  V30 20621 H 2002.97 4.5012 -0.986326 0
M  V30 20622 H 2001.28 4.09842 -0.736118 0
M  V30 20623 H 2003.88 4.99992 1.89504 0
M  V30 20624 H 2004.22 3.37535 2.43672 0
M  V30 20625 H 2004.76 3.89284 0.818685 0
M  V30 20626 H 2001.49 6.52624 -0.613406 0
M  V30 20627 H 2001.01 5.91626 0.986869 0
M  V30 20628 H 2002.69 6.4328 0.6928 0
M  V30 20629 N 2002.83 -0.116876 1.57166 0
M  V30 20630 C 2004.05 -0.838417 1.89151 0
M  V30 20631 C 2004.47 -1.73335 0.748361 0
M  V30 20632 O 2003.83 -1.80328 -0.280719 0
M  V30 20633 C 2003.88 -1.67006 3.20611 0
M  V30 20634 O 2003.6 -0.811158 4.30525 0
M  V30 20635 C 2005.1 -2.49657 3.66314 0
M  V30 20636 H 2002.32 -0.240909 0.626262 0
M  V30 20637 H 2004.86 -0.100631 2.04252 0
M  V30 20638 H 2003.02 -2.36058 3.07173 0
M  V30 20639 H 2003.43 -1.38499 5.05884 0
M  V30 20640 H 2004.91 -3.03537 4.61052 0
M  V30 20641 H 2005.38 -3.27114 2.93075 0
M  V30 20642 H 2005.99 -1.85844 3.82547 0
M  V30 20643 N 2004.3 -1.52772 -0.387116 0
M  V30 20644 C 2005.55 -1.68156 -1.13364 0
M  V30 20645 C 2005.88 -0.421195 -1.89577 0
M  V30 20646 O 2005.16 0.581056 -1.85618 0
M  V30 20647 C 2005.44 -2.91781 -2.11036 0
M  V30 20648 C 2005.29 -4.27922 -1.38573 0
M  V30 20649 C 2006.61 -3.10957 -3.11438 0
M  V30 20650 H 2003.73 -0.611922 -0.410755 0
M  V30 20651 H 2006.37 -1.85372 -0.416809 0
M  V30 20652 H 2004.52 -2.77234 -2.72165 0
M  V30 20653 H 2006.2 -4.54241 -0.803941 0
M  V30 20654 H 2004.44 -4.28316 -0.687576 0
M  V30 20655 H 2005.11 -5.10514 -2.09952 0
M  V30 20656 H 2007.59 -3.24547 -2.604 0
M  V30 20657 H 2006.46 -3.9893 -3.77022 0
M  V30 20658 H 2006.72 -2.25258 -3.80409 0
M  V30 20659 N 2005.78 0.645673 -1.43767 0
M  V30 20660 C 2007.19 1.22702 -1.40717 0
M  V30 20661 C 2007.54 1.95862 -0.115066 0
M  V30 20662 O 2006.67 2.01652 0.785197 0
M  V30 20663 C 2007.26 2.23174 -2.54909 0
M  V30 20664 C 2005.82 2.76769 -2.551 0
M  V30 20665 C 2004.97 1.5153 -2.32237 0
M  V30 20666 H 2007.92 0.437227 -1.52558 0
M  V30 20667 H 2007.94 3.05497 -2.2683 0
M  V30 20668 H 2007.45 1.69898 -3.48936 0
M  V30 20669 H 2005.55 3.34087 -1.64974 0
M  V30 20670 H 2005.67 3.23799 -3.53116 0
M  V30 20671 H 2004.03 1.79146 -1.81049 0
M  V30 20672 H 2004.81 1.00177 -3.28359 0
M  V30 20673 N 2007.26 1.30423 0.884744 0
M  V30 20674 C 2008.21 1.13434 1.97779 0
M  V30 20675 C 2009.19 0.0494483 1.60824 0
M  V30 20676 O 2010.39 0.272793 1.74885 0
M  V30 20677 C 2007.51 0.828489 3.33153 0
M  V30 20678 C 2006.6 1.95365 3.76422 0
M  V30 20679 N 2006.99 3.19903 3.91785 0
M  V30 20680 C 2005.29 1.85007 4.05818 0
M  V30 20681 C 2005.99 3.93408 4.28492 0
M  V30 20682 N 2004.97 3.2146 4.38366 0
M  V30 20683 H 2008.77 2.07889 2.07748 0
M  V30 20684 H 2006.28 1.21765 1.07457 0
M  V30 20685 H 2008.28 0.687799 4.11187 0
M  V30 20686 H 2006.94 -0.107985 3.2452 0
M  V30 20687 H 2007.95 3.55189 3.7691 0
M  V30 20688 H 2004.63 0.987286 4.05659 0
M  V30 20689 H 2006.02 5.00656 4.48099 0
M  V30 20690 N 2008.74 -1.09711 1.13142 0
M  V30 20691 C 2010.15 -1.63323 0.904565 0
M  V30 20692 C 2010.5 -1.88052 -0.559546 0
M  V30 20693 O 2009.62 -1.62804 -1.42562 0
M  V30 20694 C 2010.22 -2.96707 1.63556 0
M  V30 20695 C 2008.78 -3.47156 1.45465 0
M  V30 20696 C 2007.93 -2.21625 1.66667 0
M  V30 20697 H 2010.88 -0.931125 1.28514 0
M  V30 20698 H 2010.9 -3.64525 1.09094 0
M  V30 20699 H 2010.41 -2.78677 2.70113 0
M  V30 20700 H 2008.51 -3.70315 0.411972 0
M  V30 20701 H 2008.62 -4.24784 2.21576 0
M  V30 20702 H 2006.99 -2.30136 1.0913 0
M  V30 20703 H 2007.77 -2.06118 2.74537 0
M  V30 20704 N 2010.22 -0.924476 -1.27637 0
M  V30 20705 C 2011.16 -0.411501 -2.28931 0
M  V30 20706 C 2012.16 0.502472 -1.61776 0
M  V30 20707 O 2013.36 0.382531 -1.75888 0
M  V30 20708 H 2009.74 -0.114496 -0.743233 0
M  V30 20709 H 2011.71 -1.27869 -2.69615 0
M  V30 20710 C 2010.46 0.323415 -3.46193 0
M  V30 20711 H 2009.78 -0.37068 -3.98078 0
M  V30 20712 H 2011.22 0.646821 -4.19037 0
M  V30 20713 C 2009.68 1.53523 -2.99887 0
M  V30 20714 O 2010.21 2.63407 -3.03281 0
M  V30 20715 N 2008.42 1.38594 -2.55421 0
M  V30 20716 H 2007.96 0.491939 -2.52859 0
M  V30 20717 H 2007.92 2.198 -2.24801 0
M  V30 20718 N 2011.69 1.41711 -0.689627 0
M  V30 20719 C 2012.94 2.00548 -0.215219 0
M  V30 20720 C 2013.26 1.55228 1.19011 0
M  V30 20721 O 2014.46 2.06585 1.76167 0
M  V30 20722 C 2012.92 3.58348 -0.333888 0
M  V30 20723 C 2012.53 4.12652 -1.74421 0
M  V30 20724 C 2014.27 4.24423 0.0810486 0
M  V30 20725 C 2012.18 5.62865 -1.81485 0
M  V30 20726 H 2011.11 0.750088 -0.0767043 0
M  V30 20727 H 2013.76 1.6226 -0.856963 0
M  V30 20728 H 2012.14 3.94211 0.376004 0
M  V30 20729 H 2013.31 3.8822 -2.48238 0
M  V30 20730 H 2011.63 3.59082 -2.1083 0
M  V30 20731 H 2014.23 5.34678 0.0486243 0
M  V30 20732 H 2014.57 4.00984 1.1188 0
M  V30 20733 H 2015.1 3.93573 -0.578357 0
M  V30 20734 H 2011.84 5.91122 -2.83292 0
M  V30 20735 H 2011.36 5.89242 -1.12044 0
M  V30 20736 H 2013.04 6.27536 -1.57503 0
M  V30 20737 N 2013.17 0.433965 1.51507 0
M  V30 20738 C 2014.08 -0.385423 2.31412 0
M  V30 20739 C 2015.1 -1.03078 1.40182 0
M  V30 20740 O 2016.27 -1.02688 1.73254 0
M  V30 20741 C 2013.34 -1.47371 3.13819 0
M  V30 20742 C 2012.4 -0.848838 4.20824 0
M  V30 20743 C 2011.63 -1.88527 4.99293 0
M  V30 20744 O 2011.86 -3.107 4.78353 0
M  V30 20745 O 2010.79 -1.47768 5.83479 0
M  V30 20746 H 2014.62 0.266798 3.02526 0
M  V30 20747 H 2012.2 0.19658 1.48101 0
M  V30 20748 H 2014.08 -2.10495 3.65061 0
M  V30 20749 H 2012.76 -2.11008 2.45474 0
M  V30 20750 H 2011.67 -0.179639 3.73668 0
M  V30 20751 H 2013 -0.256013 4.91534 0
M  V30 20752 N 2014.65 -1.56732 0.165206 0
M  V30 20753 C 2015.56 -2.2125 -0.780107 0
M  V30 20754 C 2016.58 -1.20227 -1.25784 0
M  V30 20755 O 2017.75 -1.52868 -1.31124 0
M  V30 20756 C 2014.82 -2.83579 -1.99459 0
M  V30 20757 C 2013.88 -3.99784 -1.56434 0
M  V30 20758 C 2013.11 -4.5913 -2.72094 0
M  V30 20759 O 2013.33 -4.17363 -3.88799 0
M  V30 20760 O 2012.27 -5.49101 -2.46519 0
M  V30 20761 H 2016.09 -3.02578 -0.260803 0
M  V30 20762 H 2013.68 -1.49268 -0.0627015 0
M  V30 20763 H 2015.56 -3.23123 -2.70499 0
M  V30 20764 H 2014.24 -2.05251 -2.50307 0
M  V30 20765 H 2013.14 -3.64921 -0.823629 0
M  V30 20766 H 2014.48 -4.79686 -1.10284 0
M  V30 20767 N 2016.13 0.10854 -1.57226 0
M  V30 20768 C 2017.37 0.815673 -1.85673 0
M  V30 20769 C 2017.71 1.79031 -0.752441 0
M  V30 20770 O 2016.98 1.93004 0.240811 0
M  V30 20771 C 2017.27 1.55633 -3.24731 0
M  V30 20772 C 2017.12 0.600595 -4.45772 0
M  V30 20773 C 2018.44 2.51009 -3.61501 0
M  V30 20774 H 2015.56 0.295076 -0.675351 0
M  V30 20775 H 2018.2 0.079634 -1.89833 0
M  V30 20776 H 2016.35 2.18377 -3.21316 0
M  V30 20777 H 2018.02 -0.0187984 -4.61296 0
M  V30 20778 H 2016.26 -0.0870799 -4.33713 0
M  V30 20779 H 2016.93 1.15569 -5.39766 0
M  V30 20780 H 2019.41 1.98365 -3.65774 0
M  V30 20781 H 2018.29 2.99857 -4.59758 0
M  V30 20782 H 2018.55 3.34154 -2.89472 0
M  V30 20783 N 2017.61 1.52975 0.379009 0
M  V30 20784 C 2018.57 1.77806 1.4463 0
M  V30 20785 C 2019.57 0.648223 1.47155 0
M  V30 20786 O 2020.76 0.916347 1.48151 0
M  V30 20787 C 2017.89 1.88792 2.83849 0
M  V30 20788 H 2019.08 2.73113 1.23892 0
M  V30 20789 H 2016.64 1.43848 0.61135 0
M  V30 20790 H 2017.37 0.955049 3.09918 0
M  V30 20791 H 2017.16 2.70957 2.83416 0
M  V30 20792 H 2018.65 2.09642 3.61165 0
M  V30 20793 N 2019.08 -0.63804 1.44107 0
M  V30 20794 C 2020.01 -1.76164 1.5326 0
M  V30 20795 C 2021 -1.6566 0.386107 0
M  V30 20796 O 2022.18 -1.84525 0.605326 0
M  V30 20797 C 2019.31 -3.14665 1.4698 0
M  V30 20798 C 2018.26 -3.39949 2.60035 0
M  V30 20799 C 2017.59 -4.78409 2.38808 0
M  V30 20800 C 2018.89 -3.33193 4.02219 0
M  V30 20801 H 2020.58 -1.6876 2.47306 0
M  V30 20802 H 2018.13 -0.810483 1.19026 0
M  V30 20803 H 2020.08 -3.93037 1.51986 0
M  V30 20804 H 2018.81 -3.22835 0.494471 0
M  V30 20805 H 2017.47 -2.63955 2.54408 0
M  V30 20806 H 2017.11 -4.83274 1.39483 0
M  V30 20807 H 2016.81 -4.96285 3.14602 0
M  V30 20808 H 2018.34 -5.5902 2.4562 0
M  V30 20809 H 2019.75 -4.0148 4.09252 0
M  V30 20810 H 2018.15 -3.62605 4.78161 0
M  V30 20811 H 2019.22 -2.31116 4.26279 0
M  V30 20812 N 2020.56 -1.3089 -0.877815 0
M  V30 20813 C 2021.79 -1.23199 -1.66844 0
M  V30 20814 C 2022.21 0.200808 -1.87025 0
M  V30 20815 O 2021.57 1.14417 -1.40636 0
M  V30 20816 C 2021.62 -1.97328 -3.01818 0
M  V30 20817 O 2020.72 -1.30526 -3.91199 0
M  V30 20818 H 2020.06 -0.425746 -0.509545 0
M  V30 20819 H 2022.59 -1.7283 -1.09504 0
M  V30 20820 H 2022.6 -2.06624 -3.51811 0
M  V30 20821 H 2021.28 -3.01529 -2.86449 0
M  V30 20822 H 2019.86 -1.29631 -3.49643 0
M  V30 20823 N 2022.04 1.0911 -1.13723 0
M  V30 20824 C 2022.99 2.17927 -0.813066 0
M  V30 20825 C 2023.98 1.68143 0.205993 0
M  V30 20826 O 2025.19 1.7989 0.0628131 0
M  V30 20827 H 2021.56 0.710911 -0.245171 0
M  V30 20828 H 2023.53 2.42497 -1.7389 0
M  V30 20829 C 2022.28 3.46412 -0.298989 0
M  V30 20830 H 2021.61 3.85091 -1.07447 0
M  V30 20831 H 2023.05 4.23856 -0.110638 0
M  V30 20832 C 2021.51 3.22454 0.975967 0
M  V30 20833 O 2022.04 3.45385 2.05115 0
M  V30 20834 N 2020.24 2.76039 0.908345 0
M  V30 20835 H 2019.79 2.57579 0.0332379 0
M  V30 20836 H 2019.75 2.60387 1.76199 0
M  V30 20837 N 2023.52 0.931232 1.27145 0
M  V30 20838 C 2024.75 0.589956 1.98311 0
M  V30 20839 C 2025.16 -0.832836 1.69438 0
M  V30 20840 O 2024.52 -1.55399 0.956935 0
M  V30 20841 C 2024.57 0.810592 3.52295 0
M  V30 20842 O 2024.29 2.17741 3.80158 0
M  V30 20843 C 2025.79 0.478508 4.4071 0
M  V30 20844 H 2023.01 0.223234 0.632778 0
M  V30 20845 H 2025.56 1.24922 1.6191 0
M  V30 20846 H 2023.71 0.198081 3.86893 0
M  V30 20847 H 2024.12 2.23003 4.74731 0
M  V30 20848 H 2025.6 0.683566 5.47751 0
M  V30 20849 H 2026.08 -0.586102 4.35272 0
M  V30 20850 H 2026.68 1.06931 4.11638 0
M  V30 20851 N 2025 -1.41343 0.697132 0
M  V30 20852 C 2026.25 -2.00806 0.228308 0
M  V30 20853 C 2026.57 -1.55497 -1.17668 0
M  V30 20854 O 2025.84 -0.786272 -1.79428 0
M  V30 20855 H 2024.42 -0.74255 0.0814173 0
M  V30 20856 H 2027.08 -1.72946 0.898641 0
M  V30 20857 H 2026.17 -3.11121 0.246954 0
M  V30 20858 N 2026.48 -0.441993 -1.51275 0
M  V30 20859 C 2027.39 0.373145 -2.31613 0
M  V30 20860 C 2028.4 1.02333 -1.40726 0
M  V30 20861 O 2029.58 1.01768 -1.73796 0
M  V30 20862 C 2026.64 1.45705 -3.14597 0
M  V30 20863 C 2025.7 0.826508 -4.21269 0
M  V30 20864 C 2024.94 1.85876 -5.00286 0
M  V30 20865 O 2025.16 3.08159 -4.79994 0
M  V30 20866 O 2024.09 1.44671 -5.84255 0
M  V30 20867 H 2027.92 -0.282837 -3.0238 0
M  V30 20868 H 2025.5 -0.204432 -1.47995 0
M  V30 20869 H 2027.39 2.08556 -3.66172 0
M  V30 20870 H 2026.06 2.09703 -2.46589 0
M  V30 20871 H 2024.97 0.15982 -3.73758 0
M  V30 20872 H 2026.3 0.229942 -4.91663 0
M  V30 20873 N 2027.95 1.56642 -0.173515 0
M  V30 20874 C 2029.2 1.96124 0.470974 0
M  V30 20875 C 2029.52 1.06229 1.6424 0
M  V30 20876 O 2030.72 1.35402 2.35327 0
M  V30 20877 C 2029.18 3.4874 0.889284 0
M  V30 20878 C 2028.79 4.47264 -0.256662 0
M  V30 20879 C 2030.53 3.97037 1.50207 0
M  V30 20880 C 2028.44 5.91122 0.181401 0
M  V30 20881 H 2027.37 0.732267 0.179724 0
M  V30 20882 H 2030.02 1.81619 -0.262096 0
M  V30 20883 H 2028.4 3.58672 1.6784 0
M  V30 20884 H 2029.57 4.49049 -1.03401 0
M  V30 20885 H 2027.89 4.09038 -0.779546 0
M  V30 20886 H 2030.49 5.01974 1.8419 0
M  V30 20887 H 2030.83 3.401 2.40078 0
M  V30 20888 H 2031.36 3.90131 0.777351 0
M  V30 20889 H 2028.1 6.51936 -0.682591 0
M  V30 20890 H 2027.62 5.92639 0.924063 0
M  V30 20891 H 2029.3 6.43979 0.624532 0
M  V30 20892 N 2029.43 -0.1002 1.57281 0
M  V30 20893 C 2030.84 -0.655287 1.74822 0
M  V30 20894 C 2031.19 -1.79373 0.794961 0
M  V30 20895 O 2030.32 -2.16382 -0.0277532 0
M  V30 20896 C 2030.91 -1.19548 3.17008 0
M  V30 20897 C 2029.47 -1.69668 3.35991 0
M  V30 20898 C 2028.62 -0.604127 2.70639 0
M  V30 20899 H 2031.57 0.125841 1.582 0
M  V30 20900 H 2031.59 -2.06489 3.19598 0
M  V30 20901 H 2031.1 -0.366679 3.86364 0
M  V30 20902 H 2029.2 -2.54964 2.71706 0
M  V30 20903 H 2029.32 -1.79318 4.44277 0
M  V30 20904 H 2027.68 -1.04234 2.32395 0
M  V30 20905 H 2028.46 0.214006 3.42632 0
M  V30 20906 N 2030.91 -1.53174 -0.370891 0
M  V30 20907 C 2032.16 -1.69098 -1.11409 0
M  V30 20908 C 2032.48 -0.440066 -1.89456 0
M  V30 20909 O 2031.74 0.577901 -1.86973 0
M  V30 20910 C 2032.04 -2.88881 -2.10435 0
M  V30 20911 C 2031.7 -4.25602 -1.48908 0
M  V30 20912 C 2030.37 -4.62782 -1.31856 0
M  V30 20913 C 2032.72 -5.10648 -1.04346 0
M  V30 20914 C 2030.05 -5.8265 -0.688168 0
M  V30 20915 C 2032.4 -6.31157 -0.427093 0
M  V30 20916 C 2031.06 -6.67054 -0.244019 0
M  V30 20917 H 2030.33 -0.618775 -0.407674 0
M  V30 20918 H 2032.98 -1.8735 -0.396513 0
M  V30 20919 H 2031.28 -2.65119 -2.88477 0
M  V30 20920 H 2032.98 -2.98396 -2.67882 0
M  V30 20921 H 2029.57 -3.96324 -1.63173 0
M  V30 20922 H 2033.76 -4.82477 -1.16315 0
M  V30 20923 H 2029.01 -6.09057 -0.53469 0
M  V30 20924 H 2033.19 -6.96361 -0.0735755 0
M  V30 20925 H 2030.81 -7.598 0.246525 0
M  V30 20926 N 2032.39 0.630389 -1.44443 0
M  V30 20927 C 2033.62 1.41507 -1.5053 0
M  V30 20928 C 2034.03 1.88759 -0.129099 0
M  V30 20929 O 2033.37 1.61501 0.8754 0
M  V30 20930 C 2033.43 2.6686 -2.40886 0
M  V30 20931 C 2033.09 2.41399 -3.88041 0
M  V30 20932 C 2034.09 2.03181 -4.78554 0
M  V30 20933 C 2031.78 2.55016 -4.3275 0
M  V30 20934 C 2033.77 1.78909 -6.11776 0
M  V30 20935 C 2031.46 2.30359 -5.6602 0
M  V30 20936 C 2032.46 1.92364 -6.55351 0
M  V30 20937 O 2032.14 1.67981 -7.86154 0
M  V30 20938 H 2031.88 0.440388 -0.512869 0
M  V30 20939 H 2034.43 0.778074 -1.90093 0
M  V30 20940 H 2032.66 3.33199 -1.96252 0
M  V30 20941 H 2034.35 3.28864 -2.37915 0
M  V30 20942 H 2035.11 1.92217 -4.45284 0
M  V30 20943 H 2030.99 2.8356 -3.63476 0
M  V30 20944 H 2034.54 1.49178 -6.81463 0
M  V30 20945 H 2030.43 2.40932 -5.9885 0
M  V30 20946 H 2031.2 1.82221 -7.97959 0
M  V30 20947 N 2033.87 1.31354 0.870861 0
M  V30 20948 C 2035.11 1.20749 1.62062 0
M  V30 20949 C 2035.43 -0.234709 1.93582 0
M  V30 20950 O 2034.7 -1.15517 1.58217 0
M  V30 20951 H 2033.28 0.443911 0.600793 0
M  V30 20952 H 2035.95 1.64667 1.04262 0
M  V30 20953 H 2035.04 1.77855 2.56464 0
M  V30 20954 N 2035.34 -1.08505 1.143 0
M  V30 20955 C 2036.29 -2.15397 0.829011 0
M  V30 20956 C 2037.26 -1.64728 -0.213016 0
M  V30 20957 O 2038.45 -1.90619 -0.0831625 0
M  V30 20958 C 2035.59 -3.43691 0.311546 0
M  V30 20959 C 2034.7 -4.08212 1.41375 0
M  V30 20960 C 2033.83 -5.24296 0.853639 0
M  V30 20961 C 2032.87 -5.80757 1.93359 0
M  V30 20962 N 2032.01 -6.88188 1.39073 0
M  V30 20963 H 2036.85 -2.41597 1.74456 0
M  V30 20964 H 2034.39 -1.18566 0.870668 0
M  V30 20965 H 2036.34 -4.17199 -0.00667521 0
M  V30 20966 H 2034.97 -3.17779 -0.567106 0
M  V30 20967 H 2034.03 -3.32474 1.84839 0
M  V30 20968 H 2035.34 -4.46196 2.2296 0
M  V30 20969 H 2034.49 -6.0474 0.487261 0
M  V30 20970 H 2033.23 -4.877 0.00682778 0
M  V30 20971 H 2032.24 -4.98967 2.30893 0
M  V30 20972 H 2033.46 -6.19412 2.78398 0
M  V30 20973 H 2031.41 -6.53553 0.566079 0
M  V30 20974 H 2031.32 -7.24992 2.14296 0
M  V30 20975 H 2032.59 -7.72366 1.05222 0
M  V30 20976 N 2036.82 -0.937962 -1.26649 0
M  V30 20977 C 2037.78 -0.449635 -2.24746 0
M  V30 20978 C 2038.78 0.437489 -1.54734 0
M  V30 20979 O 2039.97 0.237121 -1.72579 0
M  V30 20980 C 2037.11 0.35235 -3.39074 0
M  V30 20981 H 2038.3 -1.31648 -2.6946 0
M  V30 20982 H 2035.85 -0.71962 -1.38749 0
M  V30 20983 H 2036.59 1.23758 -2.99757 0
M  V30 20984 H 2036.37 -0.283853 -3.91071 0
M  V30 20985 H 2037.86 0.684038 -4.1196 0
M  V30 20986 N 2038.3 1.40971 -0.704618 0
M  V30 20987 C 2039.55 2.00309 -0.236478 0
M  V30 20988 C 2039.86 1.56482 1.17358 0
M  V30 20989 O 2041.07 2.08442 1.73966 0
M  V30 20990 C 2039.52 3.57974 -0.371877 0
M  V30 20991 C 2039.13 4.10779 -1.78788 0
M  V30 20992 C 2040.88 4.24485 0.0360284 0
M  V30 20993 C 2038.78 5.60909 -1.87445 0
M  V30 20994 H 2037.71 0.749233 -0.0846557 0
M  V30 20995 H 2040.36 1.61342 -0.874125 0
M  V30 20996 H 2038.75 3.94587 0.334172 0
M  V30 20997 H 2039.92 3.85565 -2.52342 0
M  V30 20998 H 2038.23 3.56826 -2.14626 0
M  V30 20999 H 2040.83 5.34699 -0.00808813 0
M  V30 21000 H 2041.17 4.02149 1.07621 0
M  V30 21001 H 2041.71 3.92938 -0.620069 0
M  V30 21002 H 2038.45 5.88084 -2.89546 0
M  V30 21003 H 2037.97 5.88021 -1.18287 0
M  V30 21004 H 2039.65 6.25831 -1.6415 0
M  V30 21005 N 2039.78 0.45001 1.51039 0
M  V30 21006 C 2041.19 -0.0101397 1.86697 0
M  V30 21007 C 2041.54 -1.40804 1.36633 0
M  V30 21008 O 2040.67 -2.03986 0.722411 0
M  V30 21009 C 2041.26 -0.0251761 3.38791 0
M  V30 21010 C 2039.82 -0.429779 3.73938 0
M  V30 21011 C 2038.97 0.369286 2.7483 0
M  V30 21012 H 2041.92 0.665278 1.44082 0
M  V30 21013 H 2041.94 -0.831964 3.71293 0
M  V30 21014 H 2041.45 0.992361 3.75198 0
M  V30 21015 H 2039.55 -1.45245 3.43125 0
M  V30 21016 H 2039.66 -0.145773 4.78878 0
M  V30 21017 H 2038.03 -0.174158 2.54104 0
M  V30 21018 H 2038.81 1.38594 3.14081 0
M  V30 21019 N 2041.26 -1.56548 0.18182 0
M  V30 21020 C 2042.51 -1.96371 -0.460566 0
M  V30 21021 C 2042.82 -1.07099 -1.63674 0
M  V30 21022 O 2044.02 -1.36648 -2.34605 0
M  V30 21023 C 2042.48 -3.49207 -0.870777 0
M  V30 21024 C 2042.09 -4.47122 0.280378 0
M  V30 21025 C 2043.83 -3.97828 -1.48099 0
M  V30 21026 C 2041.74 -5.9121 -0.15005 0
M  V30 21027 H 2040.67 -0.73321 -0.175838 0
M  V30 21028 H 2043.32 -1.81477 0.271724 0
M  V30 21029 H 2041.7 -3.59557 -1.65935 0
M  V30 21030 H 2042.88 -4.48494 1.05781 0
M  V30 21031 H 2041.19 -4.08619 0.801227 0
M  V30 21032 H 2043.79 -5.02944 -1.81525 0
M  V30 21033 H 2044.13 -3.41369 -2.38271 0
M  V30 21034 H 2044.66 -3.90538 -0.75665 0
M  V30 21035 H 2041.4 -6.51565 0.717155 0
M  V30 21036 H 2040.92 -5.93121 -0.892621 0
M  V30 21037 H 2042.6 -6.44301 -0.590372 0
M  V30 21038 N 2042.73 0.0918577 -1.57332 0
M  V30 21039 C 2043.64 1.1295 -2.0562 0
M  V30 21040 C 2044.66 1.4366 -0.981728 0
M  V30 21041 O 2045.84 1.54237 -1.29511 0
M  V30 21042 C 2042.9 2.42918 -2.4737 0
M  V30 21043 C 2041.96 2.19361 -3.69024 0
M  V30 21044 C 2041.2 3.43132 -4.08774 0
M  V30 21045 O 2041.42 4.51492 -3.48584 0
M  V30 21046 O 2040.35 3.32529 -5.01705 0
M  V30 21047 H 2044.18 0.74936 -2.9431 0
M  V30 21048 H 2041.76 0.304595 -1.46262 0
M  V30 21049 H 2043.65 3.19442 -2.74835 0
M  V30 21050 H 2042.32 2.80352 -1.61816 0
M  V30 21051 H 2041.23 1.40607 -3.46671 0
M  V30 21052 H 2042.56 1.86818 -4.55368 0
M  V30 21053 N 2044.21 1.53368 0.362763 0
M  V30 21054 C 2045.18 1.7933 1.42736 0
M  V30 21055 C 2046.18 0.663794 1.4646 0
M  V30 21056 O 2047.37 0.932009 1.47171 0
M  V30 21057 C 2044.5 1.91792 2.81831 0
M  V30 21058 H 2045.69 2.74412 1.20989 0
M  V30 21059 H 2043.24 1.44488 0.596058 0
M  V30 21060 H 2043.98 0.987867 3.08888 0
M  V30 21061 H 2043.76 2.73948 2.80526 0
M  V30 21062 H 2045.25 2.13461 3.58921 0
M  V30 21063 N 2045.69 -0.62272 1.44776 0
M  V30 21064 C 2046.94 -1.37812 1.47278 0
M  V30 21065 C 2047.25 -1.95276 0.112585 0
M  V30 21066 O 2048.46 -2.71496 0.0151784 0
M  V30 21067 C 2046.91 -2.49557 2.59325 0
M  V30 21068 C 2046.52 -1.9857 4.01589 0
M  V30 21069 C 2048.27 -3.26693 2.71057 0
M  V30 21070 C 2046.17 -3.07707 5.05045 0
M  V30 21071 H 2045.1 -0.517918 0.547976 0
M  V30 21072 H 2047.75 -0.669045 1.70868 0
M  V30 21073 H 2046.14 -3.23078 2.2899 0
M  V30 21074 H 2047.31 -1.31858 4.41532 0
M  V30 21075 H 2045.63 -1.34224 3.94174 0
M  V30 21076 H 2048.22 -4.08067 3.45521 0
M  V30 21077 H 2048.57 -3.76721 1.77164 0
M  V30 21078 H 2049.1 -2.60265 3.00844 0
M  V30 21079 H 2045.84 -2.62614 6.00595 0
M  V30 21080 H 2045.36 -3.73034 4.69687 0
M  V30 21081 H 2047.04 -3.72343 5.29121 0
M  V30 21082 N 2047.17 -1.31814 -0.863883 0
M  V30 21083 C 2048.12 -1.19976 -1.97166 0
M  V30 21084 C 2049.09 -0.0840886 -1.65887 0
M  V30 21085 O 2050.27 -0.258021 -1.89047 0
M  V30 21086 C 2047.41 -0.919316 -3.3263 0
M  V30 21087 C 2046.52 -2.1189 -3.76466 0
M  V30 21088 C 2045.66 -1.77472 -5.00677 0
M  V30 21089 C 2044.7 -2.93804 -5.36978 0
M  V30 21090 N 2043.83 -2.59541 -6.52367 0
M  V30 21091 H 2048.67 -2.14735 -2.06623 0
M  V30 21092 H 2046.21 -1.06811 -1.01143 0
M  V30 21093 H 2048.17 -0.737251 -4.10634 0
M  V30 21094 H 2046.8 -0.0085443 -3.22799 0
M  V30 21095 H 2045.85 -2.41154 -2.94192 0
M  V30 21096 H 2047.16 -2.98939 -3.99295 0
M  V30 21097 H 2046.32 -1.55764 -5.86364 0
M  V30 21098 H 2045.06 -0.876231 -4.79764 0
M  V30 21099 H 2044.06 -3.16154 -4.49807 0
M  V30 21100 H 2045.29 -3.84371 -5.59853 0
M  V30 21101 H 2043.23 -1.72222 -6.32989 0
M  V30 21102 H 2043.15 -3.4012 -6.7517 0
M  V30 21103 H 2044.42 -2.4124 -7.41231 0
M  V30 21104 N 2048.65 1.07897 -1.14873 0
M  V30 21105 C 2049.89 1.8003 -0.918351 0
M  V30 21106 C 2050.22 1.86897 0.556293 0
M  V30 21107 O 2049.49 1.36584 1.40434 0
M  V30 21108 H 2048.07 0.666777 -0.336776 0
M  V30 21109 H 2050.73 1.30421 -1.44832 0
M  V30 21110 H 2049.82 2.82678 -1.32287 0
M  V30 21111 N 2050.12 0.944665 1.2615 0
M  V30 21112 C 2051.37 0.592919 1.93207 0
M  V30 21113 C 2051.69 -0.871356 1.74449 0
M  V30 21114 O 2050.96 -1.61953 1.10218 0
M  V30 21115 H 2049.54 0.216296 0.715 0
M  V30 21116 H 2052.21 1.20074 1.53519 0
M  V30 21117 H 2051.3 0.813682 3.01307 0
M  V30 21118 N 2051.6 -1.40596 0.712085 0
M  V30 21119 C 2053.02 -1.5488 0.385286 0
M  V30 21120 C 2053.22 -1.68416 -1.10626 0
M  V30 21121 O 2052.27 -1.67179 -1.89228 0
M  V30 21122 C 2053.59 -2.77912 1.14828 0
M  V30 21123 C 2055.14 -2.91726 1.13424 0
M  V30 21124 C 2055.61 -4.17667 1.87931 0
M  V30 21125 N 2057.1 -4.2466 1.84982 0
M  V30 21126 C 2057.84 -5.21006 2.39459 0
M  V30 21127 N 2057.33 -6.23282 3.02476 0
M  V30 21128 N 2059.13 -5.1306 2.29621 0
M  V30 21129 H 2051.28 -1.30055 1.67927 0
M  V30 21130 H 2053.54 -0.628638 0.70959 0
M  V30 21131 H 2053.25 -2.74175 2.20275 0
M  V30 21132 H 2053.12 -3.69918 0.737606 0
M  V30 21133 H 2055.51 -2.94969 0.0879737 0
M  V30 21134 H 2055.59 -2.00848 1.5841 0
M  V30 21135 H 2055.23 -4.15186 2.92546 0
M  V30 21136 H 2055.16 -5.07548 1.40367 0
M  V30 21137 H 2057.65 -3.51387 1.39053 0
M  V30 21138 H 2057.97 -6.93217 3.4157 0
M  V30 21139 H 2056.31 -6.23736 3.06559 0
M  V30 21140 H 2059.5 -4.32088 1.80049 0
M  V30 21141 H 2059.67 -5.87975 2.72378 0
M  V30 21142 N 2053.08 -0.458013 -1.50798 0
M  V30 21143 C 2054.03 0.361282 -2.25119 0
M  V30 21144 C 2055.01 0.972627 -1.28175 0
M  V30 21145 O 2056.21 0.887343 -1.53151 0
M  V30 21146 C 2053.34 1.45021 -3.11165 0
M  V30 21147 C 2052.42 0.847244 -4.15551 0
M  V30 21148 N 2052.81 -0.0246437 -5.05794 0
M  V30 21149 C 2051.11 1.11261 -4.31899 0
M  V30 21150 C 2051.81 -0.365487 -5.80551 0
M  V30 21151 N 2050.79 0.256092 -5.42996 0
M  V30 21152 H 2054.59 -0.310578 -2.92254 0
M  V30 21153 H 2052.1 -0.271346 -1.60117 0
M  V30 21154 H 2054.1 2.05021 -3.63004 0
M  V30 21155 H 2052.76 2.1242 -2.45577 0
M  V30 21156 H 2053.77 -0.392565 -5.1641 0
M  V30 21157 H 2050.45 1.78256 -3.77533 0
M  V30 21158 H 2051.84 -1.07624 -6.63224 0
M  V30 21159 N 2054.56 1.56449 -0.190119 0
M  V30 21160 C 2055.49 2.21861 0.728019 0
M  V30 21161 C 2056.47 1.18012 1.22504 0
M  V30 21162 O 2057.66 1.46503 1.27478 0
M  V30 21163 C 2054.79 2.87407 1.94973 0
M  V30 21164 C 2053.74 3.97457 1.58782 0
M  V30 21165 C 2053.07 4.50144 2.88573 0
M  V30 21166 C 2054.37 5.16113 0.801535 0
M  V30 21167 H 2056.06 2.98842 0.182734 0
M  V30 21168 H 2053.61 1.4374 0.0864508 0
M  V30 21169 H 2055.56 3.31848 2.59721 0
M  V30 21170 H 2054.28 2.07824 2.51946 0
M  V30 21171 H 2052.94 3.537 0.96395 0
M  V30 21172 H 2052.59 3.67328 3.43626 0
M  V30 21173 H 2052.29 5.24398 2.65105 0
M  V30 21174 H 2053.81 4.97283 3.54318 0
M  V30 21175 H 2055.23 5.5713 1.35201 0
M  V30 21176 H 2053.62 5.96402 0.66517 0
M  V30 21177 H 2054.69 4.84494 -0.198407 0
M  V30 21178 N 2056.04 -0.0835127 1.57379 0
M  V30 21179 C 2057.29 -0.783627 1.85855 0
M  V30 21180 C 2057.6 -1.79328 0.781081 0
M  V30 21181 O 2058.81 -2.54212 0.953327 0
M  V30 21182 C 2057.26 -1.44454 3.29638 0
M  V30 21183 C 2056.87 -0.474058 4.45485 0
M  V30 21184 C 2058.61 -2.1277 3.67327 0
M  V30 21185 C 2056.52 -1.14022 5.80304 0
M  V30 21186 H 2055.45 -0.296407 0.693295 0
M  V30 21187 H 2058.1 -0.0367253 1.83463 0
M  V30 21188 H 2056.48 -2.2393 3.26606 0
M  V30 21189 H 2057.66 0.290043 4.59886 0
M  V30 21190 H 2055.97 0.104026 4.1627 0
M  V30 21191 H 2058.57 -2.63365 4.65342 0
M  V30 21192 H 2058.91 -2.92187 2.96534 0
M  V30 21193 H 2059.45 -1.4014 3.72298 0
M  V30 21194 H 2056.18 -0.386619 6.54359 0
M  V30 21195 H 2055.7 -1.87547 5.69725 0
M  V30 21196 H 2057.38 -1.66341 6.25252 0
M  V30 21197 N 2057.52 -1.53558 -0.354624 0
M  V30 21198 C 2058.76 -1.70271 -1.09609 0
M  V30 21199 C 2059.09 -0.460135 -1.88979 0
M  V30 21200 O 2058.35 0.558038 -1.87575 0
M  V30 21201 C 2058.64 -2.91096 -2.07359 0
M  V30 21202 C 2058.31 -4.27157 -1.44386 0
M  V30 21203 C 2056.97 -4.64155 -1.2694 0
M  V30 21204 C 2059.32 -5.11726 -0.989239 0
M  V30 21205 C 2056.65 -5.83347 -0.626331 0
M  V30 21206 C 2059 -6.31574 -0.360126 0
M  V30 21207 C 2057.67 -6.67275 -0.173255 0
M  V30 21208 H 2056.94 -0.623064 -0.401089 0
M  V30 21209 H 2059.59 -1.8776 -0.37662 0
M  V30 21210 H 2057.89 -2.68164 -2.85649 0
M  V30 21211 H 2059.59 -3.0122 -2.64702 0
M  V30 21212 H 2056.18 -3.98032 -1.5896 0
M  V30 21213 H 2060.36 -4.83684 -1.11191 0
M  V30 21214 H 2055.62 -6.0959 -0.470062 0
M  V30 21215 H 2059.79 -6.964 0.00028709 0
M  V30 21216 H 2057.42 -7.59496 0.327098 0
M  V30 21217 N 2058.99 0.615033 -1.45104 0
M  V30 21218 C 2060.23 1.38563 -1.50265 0
M  V30 21219 C 2060.6 1.91504 -0.137917 0
M  V30 21220 O 2061.8 2.68723 -0.0642206 0
M  V30 21221 C 2060.07 2.50819 -2.54607 0
M  V30 21222 S 2061.63 3.38731 -2.78938 0
M  V30 21223 H 2058.45 0.472501 -0.531285 0
M  V30 21224 H 2061.05 0.710424 -1.82135 0
M  V30 21225 H 2059.75 2.10263 -3.52445 0
M  V30 21226 H 2059.28 3.23148 -2.24363 0
M  V30 21227 H 2061.3 4.48749 -2.11752 0
M  V30 21228 N 2060.47 1.3227 0.85688 0
M  V30 21229 C 2061.42 1.17604 1.95329 0
M  V30 21230 C 2062.41 0.0835503 1.60683 0
M  V30 21231 O 2063.6 0.309827 1.74267 0
M  V30 21232 C 2060.73 0.89897 3.31321 0
M  V30 21233 C 2059.81 2.03306 3.72193 0
M  V30 21234 N 2060.2 3.28141 3.84911 0
M  V30 21235 C 2058.5 1.93573 4.01803 0
M  V30 21236 C 2059.2 4.02408 4.20051 0
M  V30 21237 N 2058.18 3.30686 4.31448 0
M  V30 21238 H 2061.98 2.12249 2.03292 0
M  V30 21239 H 2059.49 1.24017 1.0485 0
M  V30 21240 H 2061.49 0.774863 4.09636 0
M  V30 21241 H 2060.15 -0.0391247 3.24676 0
M  V30 21242 H 2061.16 3.63104 3.69291 0
M  V30 21243 H 2057.84 1.07311 4.03473 0
M  V30 21244 H 2059.23 5.10048 4.37379 0
M  V30 21245 N 2061.95 -1.07287 1.15444 0
M  V30 21246 C 2063.17 -1.84153 0.954061 0
M  V30 21247 C 2063.6 -1.81534 -0.492639 0
M  V30 21248 O 2062.96 -1.20877 -1.35124 0
M  V30 21249 C 2063.01 -3.29112 1.4737 0
M  V30 21250 O 2062.11 -4.06866 0.673335 0
M  V30 21251 H 2061.45 -0.570198 0.34025 0
M  V30 21252 H 2063.98 -1.35339 1.53442 0
M  V30 21253 H 2063.99 -3.79944 1.48682 0
M  V30 21254 H 2062.67 -3.30333 2.52691 0
M  V30 21255 H 2061.24 -3.65687 0.729894 0
M  V30 21256 N 2063.43 -0.951342 -1.25647 0
M  V30 21257 C 2064.37 -0.467715 -2.26011 0
M  V30 21258 C 2065.34 0.478049 -1.59072 0
M  V30 21259 O 2066.53 0.392024 -1.86729 0
M  V30 21260 C 2063.67 0.251483 -3.44182 0
M  V30 21261 C 2062.78 -0.731135 -4.25768 0
M  V30 21262 C 2061.92 0.0102901 -5.31199 0
M  V30 21263 C 2060.96 -0.963479 -6.0447 0
M  V30 21264 N 2060.09 -0.253142 -7.01643 0
M  V30 21265 H 2064.93 -1.32847 -2.6675 0
M  V30 21266 H 2062.47 -0.666278 -1.31146 0
M  V30 21267 H 2064.43 0.685002 -4.11538 0
M  V30 21268 H 2063.06 1.07631 -3.04328 0
M  V30 21269 H 2062.11 -1.28314 -3.58106 0
M  V30 21270 H 2063.42 -1.47435 -4.76513 0
M  V30 21271 H 2062.58 0.502603 -6.04615 0
M  V30 21272 H 2061.32 0.78632 -4.81319 0
M  V30 21273 H 2060.32 -1.46682 -5.29872 0
M  V30 21274 H 2061.55 -1.73968 -6.56439 0
M  V30 21275 H 2059.49 0.50421 -6.54059 0
M  V30 21276 H 2059.41 -0.935511 -7.50189 0
M  V30 21277 H 2060.68 0.217742 -7.79196 0
M  V30 21278 N 2064.91 1.40216 -0.719531 0
M  V30 21279 C 2065.85 2.30695 -0.0695046 0
M  V30 21280 C 2066.82 1.48398 0.746138 0
M  V30 21281 O 2068.01 1.77127 0.709277 0
M  V30 21282 C 2065.15 3.34636 0.843357 0
M  V30 21283 C 2064.26 4.31997 0.0167651 0
M  V30 21284 C 2063.4 5.23005 0.929469 0
M  V30 21285 C 2062.43 6.12023 0.0972024 0
M  V30 21286 N 2061.57 6.95437 0.964997 0
M  V30 21287 H 2066.41 2.85716 -0.846765 0
M  V30 21288 H 2063.95 1.40698 -0.429253 0
M  V30 21289 H 2065.91 3.93473 1.38691 0
M  V30 21290 H 2064.54 2.81108 1.58676 0
M  V30 21291 H 2063.59 3.74909 -0.644016 0
M  V30 21292 H 2064.9 4.94838 -0.627416 0
M  V30 21293 H 2064.05 5.86792 1.54141 0
M  V30 21294 H 2062.79 4.60447 1.60746 0
M  V30 21295 H 2061.8 5.47262 -0.52765 0
M  V30 21296 H 2063.02 6.76641 -0.577347 0
M  V30 21297 H 2060.97 6.35463 1.62857 0
M  V30 21298 H 2060.89 7.5506 0.376943 0
M  V30 21299 H 2062.15 7.63669 1.56299 0
M  V30 21300 N 2066.38 0.466004 1.50553 0
M  V30 21301 C 2067.33 -0.330804 2.28417 0
M  V30 21302 C 2068.3 -0.991708 1.33246 0
M  V30 21303 O 2069.49 -1.00512 1.62179 0
M  V30 21304 C 2066.63 -1.40978 3.14991 0
M  V30 21305 C 2065.74 -0.76416 4.25188 0
M  V30 21306 C 2064.87 -1.8206 4.99027 0
M  V30 21307 C 2063.91 -1.15495 6.01105 0
M  V30 21308 N 2063.05 -2.15401 6.68242 0
M  V30 21309 H 2067.89 0.339504 2.9606 0
M  V30 21310 H 2065.43 0.179273 1.46003 0
M  V30 21311 H 2067.38 -2.04695 3.63532 0
M  V30 21312 H 2066.01 -2.04932 2.49405 0
M  V30 21313 H 2065.07 -0.0145483 3.80397 0
M  V30 21314 H 2066.38 -0.238458 4.9823 0
M  V30 21315 H 2065.53 -2.5337 5.51261 0
M  V30 21316 H 2064.27 -2.38009 4.25679 0
M  V30 21317 H 2063.28 -0.427447 5.48136 0
M  V30 21318 H 2064.5 -0.602414 6.76423 0
M  V30 21319 H 2062.45 -2.70378 5.97689 0
M  V30 21320 H 2062.36 -1.67802 7.37142 0
M  V30 21321 H 2063.63 -2.86107 7.25095 0
M  V30 21322 N 2067.86 -1.56346 0.198413 0
M  V30 21323 C 2069.1 -1.99572 -0.441608 0
M  V30 21324 C 2069.47 -1.08257 -1.5857 0
M  V30 21325 O 2070.67 -1.40734 -2.29014 0
M  V30 21326 C 2068.94 -3.46221 -0.886882 0
M  V30 21327 S 2070.5 -4.11475 -1.52427 0
M  V30 21328 H 2067.31 -0.69686 -0.141092 0
M  V30 21329 H 2069.92 -1.93149 0.302261 0
M  V30 21330 H 2068.62 -4.10376 -0.0441917 0
M  V30 21331 H 2068.15 -3.56469 -1.66413 0
M  V30 21332 H 2070.17 -4.08754 -2.81308 0
M  V30 21333 N 2069.34 0.0751653 -1.57421 0
M  V30 21334 C 2070.62 0.807768 -1.78142 0
M  V30 21335 C 2071 1.95956 -0.785139 0
M  V30 21336 O 2070.35 2.27771 0.182413 0
M  V30 21337 C 2070.56 1.28385 -3.24528 0
M  V30 21338 C 2071.9 1.71859 -3.88265 0
M  V30 21339 O 2072.93 1.3796 -3.28398 0
M  V30 21340 O 2071.79 2.3461 -4.93579 0
M  V30 21341 H 2068.88 0.386806 -0.730965 0
M  V30 21342 H 2071.43 0.0555021 -1.69609 0
M  V30 21343 H 2070.2 0.459543 -3.88592 0
M  V30 21344 H 2069.82 2.09753 -3.37771 0
M  V30 21345 N 2070.82 1.53744 0.346476 0
M  V30 21346 C 2071.73 1.84516 1.44883 0
M  V30 21347 C 2072.74 0.735054 1.57712 0
M  V30 21348 O 2073.92 1.02706 1.73244 0
M  V30 21349 C 2070.99 2.04576 2.7991 0
M  V30 21350 C 2070.05 3.28442 2.7645 0
M  V30 21351 C 2069.28 3.47536 4.05036 0
M  V30 21352 O 2069.5 2.70527 5.02167 0
M  V30 21353 O 2068.44 4.40955 4.09686 0
M  V30 21354 H 2072.26 2.78207 1.21797 0
M  V30 21355 H 2069.85 1.39362 0.53838 0
M  V30 21356 H 2071.73 2.19232 3.59882 0
M  V30 21357 H 2070.4 1.14074 3.02934 0
M  V30 21358 H 2069.31 3.19192 1.95108 0
M  V30 21359 H 2070.64 4.18928 2.5838 0
M  V30 21360 N 2072.3 -0.607329 1.45428 0
M  V30 21361 C 2073.23 -1.72873 1.56962 0
M  V30 21362 C 2074.21 -1.64804 0.421159 0
M  V30 21363 O 2075.39 -1.83199 0.64433 0
M  V30 21364 C 2072.52 -3.11476 1.53622 0
M  V30 21365 C 2071.48 -3.34357 2.67188 0
M  V30 21366 C 2070.8 -4.73236 2.48902 0
M  V30 21367 C 2072.1 -3.24586 4.09196 0
M  V30 21368 H 2073.8 -1.63477 2.5083 0
M  V30 21369 H 2071.34 -0.785054 1.20718 0
M  V30 21370 H 2073.3 -3.89725 1.60288 0
M  V30 21371 H 2072.02 -3.21714 0.562838 0
M  V30 21372 H 2070.68 -2.58499 2.5995 0
M  V30 21373 H 2070.33 -4.80206 1.49702 0
M  V30 21374 H 2070.03 -4.895 3.25059 0
M  V30 21375 H 2071.55 -5.53684 2.57422 0
M  V30 21376 H 2072.96 -3.92709 4.17676 0
M  V30 21377 H 2071.36 -3.52381 4.85745 0
M  V30 21378 H 2072.43 -2.22022 4.31085 0
M  V30 21379 N 2073.77 -1.32722 -0.849853 0
M  V30 21380 C 2074.74 -1.21991 -1.94038 0
M  V30 21381 C 2075.74 -0.141727 -1.60174 0
M  V30 21382 O 2076.93 -0.392477 -1.69721 0
M  V30 21383 C 2074.06 -0.877223 -3.2942 0
M  V30 21384 H 2075.25 -2.18913 -2.04981 0
M  V30 21385 H 2072.81 -1.16623 -1.04062 0
M  V30 21386 H 2073.54 0.0899704 -3.24175 0
M  V30 21387 H 2073.33 -1.65681 -3.55376 0
M  V30 21388 H 2074.82 -0.826588 -4.09338 0
M  V30 21389 N 2075.25 1.06673 -1.16011 0
M  V30 21390 C 2076.22 2.12223 -0.865686 0
M  V30 21391 C 2077.22 1.6021 0.137621 0
M  V30 21392 O 2078.41 1.73953 -0.0928217 0
M  V30 21393 C 2075.54 3.39631 -0.293865 0
M  V30 21394 H 2076.73 2.39774 -1.80134 0
M  V30 21395 H 2074.28 1.22675 -0.968529 0
M  V30 21396 H 2075.02 3.17726 0.649656 0
M  V30 21397 H 2074.8 3.78688 -1.01676 0
M  V30 21398 H 2076.29 4.17466 -0.105682 0
M  V30 21399 N 2076.73 0.957992 1.25141 0
M  V30 21400 C 2077.68 0.479695 2.2576 0
M  V30 21401 C 2078.65 -0.469606 1.59323 0
M  V30 21402 O 2079.83 -0.382116 1.86935 0
M  V30 21403 C 2076.97 -0.233227 3.44311 0
M  V30 21404 C 2076.09 0.753705 4.25374 0
M  V30 21405 C 2075.22 0.0178808 5.31197 0
M  V30 21406 C 2074.26 0.995522 6.0395 0
M  V30 21407 N 2073.4 0.290349 7.01499 0
M  V30 21408 H 2078.24 1.3426 2.66042 0
M  V30 21409 H 2075.77 0.673224 1.3079 0
M  V30 21410 H 2077.73 -0.663168 4.11896 0
M  V30 21411 H 2076.36 -1.06015 3.04894 0
M  V30 21412 H 2075.41 1.30212 3.5742 0
M  V30 21413 H 2076.73 1.4996 4.75724 0
M  V30 21414 H 2075.88 -0.470532 6.04873 0
M  V30 21415 H 2074.62 -0.760784 4.8173 0
M  V30 21416 H 2073.62 1.4949 5.29087 0
M  V30 21417 H 2074.85 1.77447 6.55507 0
M  V30 21418 H 2072.79 -0.469516 6.54318 0
M  V30 21419 H 2072.71 0.975282 7.49683 0
M  V30 21420 H 2073.98 -0.176416 7.793 0
M  V30 21421 N 2078.21 -1.39832 0.726957 0
M  V30 21422 C 2079.14 -2.333 0.0966938 0
M  V30 21423 C 2080.12 -1.53492 -0.733095 0
M  V30 21424 O 2081.3 -1.81916 -0.679712 0
M  V30 21425 C 2078.43 -3.37545 -0.817367 0
M  V30 21426 C 2077.39 -4.279 -0.0923447 0
M  V30 21427 C 2076.71 -5.22777 -1.12288 0
M  V30 21428 C 2078.01 -5.11425 1.06028 0
M  V30 21429 H 2079.71 -2.86255 0.877412 0
M  V30 21430 H 2077.25 -1.37635 0.423378 0
M  V30 21431 H 2079.21 -4.01878 -1.26776 0
M  V30 21432 H 2077.93 -2.83011 -1.63011 0
M  V30 21433 H 2076.59 -3.65035 0.338339 0
M  V30 21434 H 2076.24 -4.64542 -1.92898 0
M  V30 21435 H 2075.94 -5.84076 -0.64259 0
M  V30 21436 H 2077.46 -5.89987 -1.57314 0
M  V30 21437 H 2078.88 -5.69148 0.688715 0
M  V30 21438 H 2077.27 -5.81825 1.46968 0
M  V30 21439 H 2078.34 -4.46731 1.88571 0
M  V30 21440 N 2079.69 -0.473982 -1.50304 0
M  V30 21441 C 2080.91 0.0776132 -2.06754 0
M  V30 21442 C 2081.33 1.33251 -1.33752 0
M  V30 21443 O 2080.69 1.77889 -0.407659 0
M  V30 21444 C 2080.74 0.362773 -3.59675 0
M  V30 21445 O 2080.46 -0.842352 -4.29926 0
M  V30 21446 C 2081.96 0.961013 -4.32758 0
M  V30 21447 H 2079.18 -0.00837304 -0.670948 0
M  V30 21448 H 2081.72 -0.663594 -1.93434 0
M  V30 21449 H 2079.88 1.05392 -3.72789 0
M  V30 21450 H 2080.29 -0.588708 -5.21186 0
M  V30 21451 H 2081.77 1.11029 -5.40719 0
M  V30 21452 H 2082.24 1.95187 -3.93445 0
M  V30 21453 H 2082.85 0.308162 -4.24182 0
M  V30 21454 N 2081.16 1.56239 -0.206702 0
M  V30 21455 C 2082.41 1.97513 0.428144 0
M  V30 21456 C 2082.73 1.09514 1.61343 0
M  V30 21457 O 2082 0.168913 1.9517 0
M  V30 21458 H 2080.58 0.729406 0.161169 0
M  V30 21459 H 2083.25 1.92637 -0.296139 0
M  V30 21460 H 2082.34 3.02592 0.764479 0
M  V30 21461 N 2082.64 -0.0668159 1.57458 0
M  V30 21462 C 2083.57 -1.0791 2.07069 0
M  V30 21463 C 2084.55 -1.40063 0.965207 0
M  V30 21464 O 2085.74 -1.49604 1.23823 0
M  V30 21465 C 2082.87 -2.39113 2.51877 0
M  V30 21466 C 2081.82 -2.213 3.66347 0
M  V30 21467 C 2081.15 -3.57931 3.97227 0
M  V30 21468 C 2082.45 -1.63013 4.9621 0
M  V30 21469 H 2084.14 -0.666254 2.91893 0
M  V30 21470 H 2081.69 -0.319039 1.40421 0
M  V30 21471 H 2083.64 -3.10226 2.85198 0
M  V30 21472 H 2082.37 -2.82387 1.64088 0
M  V30 21473 H 2081.02 -1.52628 3.33317 0
M  V30 21474 H 2080.67 -3.98784 3.06562 0
M  V30 21475 H 2080.37 -3.4685 4.74309 0
M  V30 21476 H 2081.9 -4.30467 4.33048 0
M  V30 21477 H 2083.31 -2.23997 5.27729 0
M  V30 21478 H 2081.71 -1.62614 5.77648 0
M  V30 21479 H 2082.78 -0.592078 4.81272 0
M  V30 21480 N 2084.12 -1.53926 -0.338317 0
M  V30 21481 C 2085.37 -1.71085 -1.07584 0
M  V30 21482 C 2085.69 -0.479497 -1.89013 0
M  V30 21483 O 2084.96 0.506566 -1.89237 0
M  V30 21484 H 2083.54 -0.630767 -0.400178 0
M  V30 21485 H 2086.2 -1.91193 -0.378324 0
M  V30 21486 H 2085.3 -2.58404 -1.75026 0
M  V30 21487 N 2085.6 0.599608 -1.45748 0
M  V30 21488 C 2086.53 1.72038 -1.57877 0
M  V30 21489 C 2087.51 1.64578 -0.429893 0
M  V30 21490 O 2088.7 1.82855 -0.654037 0
M  V30 21491 C 2085.83 3.10657 -1.55272 0
M  V30 21492 C 2084.78 3.32936 -2.68957 0
M  V30 21493 C 2084.11 4.71909 -2.51408 0
M  V30 21494 C 2085.41 3.22412 -4.10911 0
M  V30 21495 H 2087.1 1.62144 -2.51694 0
M  V30 21496 H 2084.65 0.778641 -1.21133 0
M  V30 21497 H 2086.6 3.8887 -1.62353 0
M  V30 21498 H 2085.32 3.21411 -0.579891 0
M  V30 21499 H 2083.98 2.57117 -2.61317 0
M  V30 21500 H 2083.63 4.79406 -1.52247 0
M  V30 21501 H 2083.33 4.8777 -3.2765 0
M  V30 21502 H 2084.85 5.52311 -2.60355 0
M  V30 21503 H 2086.27 3.90488 -4.19752 0
M  V30 21504 H 2084.66 3.498 -4.87607 0
M  V30 21505 H 2085.73 2.19732 -4.32256 0
M  V30 21506 N 2087.08 1.33171 0.842803 0
M  V30 21507 C 2088.03 1.23072 1.97373 0
M  V30 21508 C 2089.02 0.132938 1.68878 0
M  V30 21509 O 2090.23 0.296643 1.77539 0
M  V30 21510 H 2086.6 0.381819 0.647857 0
M  V30 21511 H 2088.57 2.18694 2.03016 0
M  V30 21512 C 2087.32 0.982778 3.33522 0
M  V30 21513 H 2086.64 1.81975 3.55985 0
M  V30 21514 H 2088.08 0.952404 4.13165 0
M  V30 21515 C 2086.54 -0.314352 3.3543 0
M  V30 21516 O 2087.07 -1.32235 3.79311 0
M  V30 21517 N 2085.28 -0.340506 2.88598 0
M  V30 21518 H 2084.83 0.480318 2.53082 0
M  V30 21519 H 2084.78 -1.20822 2.90257 0
M  V30 21520 N 2088.56 -1.06056 1.16576 0
M  V30 21521 C 2089.52 -2.11761 0.876928 0
M  V30 21522 C 2090.52 -1.60281 -0.129123 0
M  V30 21523 O 2091.71 -1.73901 0.102046 0
M  V30 21524 C 2088.84 -3.3947 0.311872 0
M  V30 21525 H 2090.03 -2.38816 1.81403 0
M  V30 21526 H 2087.59 -1.2216 0.975021 0
M  V30 21527 H 2088.32 -3.18066 -0.632797 0
M  V30 21528 H 2088.11 -3.78143 1.03683 0
M  V30 21529 H 2089.6 -4.17404 0.12782 0
M  V30 21530 N 2090.03 -0.964615 -1.24631 0
M  V30 21531 C 2091.28 -0.625742 -1.92905 0
M  V30 21532 C 2091.61 0.836529 -1.75259 0
M  V30 21533 O 2090.89 1.60146 -1.10379 0
M  V30 21534 C 2091.17 -0.997473 -3.46009 0
M  V30 21535 C 2091.02 -2.51621 -3.72836 0
M  V30 21536 C 2092.34 -0.529778 -4.369 0
M  V30 21537 H 2089.46 -0.228804 -0.700584 0
M  V30 21538 H 2092.1 -1.20306 -1.47059 0
M  V30 21539 H 2090.25 -0.506207 -3.85188 0
M  V30 21540 H 2091.93 -3.082 -3.43235 0
M  V30 21541 H 2090.17 -2.94954 -3.18095 0
M  V30 21542 H 2090.84 -2.72681 -4.79947 0
M  V30 21543 H 2093.32 -0.951326 -4.05079 0
M  V30 21544 H 2092.19 -0.818472 -5.42764 0
M  V30 21545 H 2092.45 0.570178 -4.38408 0
M  V30 21546 N 2091.51 1.39445 -0.734362 0
M  V30 21547 C 2092.47 2.28971 -0.102477 0
M  V30 21548 C 2093.47 1.46277 0.667805 0
M  V30 21549 O 2094.66 1.66962 0.496917 0
M  V30 21550 C 2091.8 3.29767 0.864107 0
M  V30 21551 H 2092.99 2.86352 -0.891208 0
M  V30 21552 H 2090.54 1.48082 -0.500154 0
M  V30 21553 H 2091.28 2.7744 1.67922 0
M  V30 21554 H 2091.06 3.90837 0.314418 0
M  V30 21555 H 2092.55 3.96757 1.30282 0
M  V30 21556 N 2092.99 0.481946 1.5005 0
M  V30 21557 C 2094.22 -0.0665508 2.06493 0
M  V30 21558 C 2094.63 -1.3309 1.34476 0
M  V30 21559 O 2093.97 -1.79046 0.410882 0
M  V30 21560 C 2094.03 -0.409721 3.57158 0
M  V30 21561 C 2093.7 0.754158 4.50734 0
M  V30 21562 C 2094.69 1.63929 4.93379 0
M  V30 21563 C 2092.38 0.947563 4.93281 0
M  V30 21564 C 2094.37 2.70214 5.77289 0
M  V30 21565 C 2092.06 2.01362 5.76972 0
M  V30 21566 C 2093.06 2.88927 6.18878 0
M  V30 21567 O 2092.75 3.93695 7.00899 0
M  V30 21568 H 2092.48 0.00864043 0.675945 0
M  V30 21569 H 2095.03 0.672929 1.94064 0
M  V30 21570 H 2093.26 -1.20254 3.67527 0
M  V30 21571 H 2094.95 -0.894578 3.95919 0
M  V30 21572 H 2095.72 1.5016 4.61169 0
M  V30 21573 H 2091.6 0.275431 4.60176 0
M  V30 21574 H 2095.14 3.38592 6.09919 0
M  V30 21575 H 2091.04 2.15133 6.08595 0
M  V30 21576 H 2091.8 3.90816 7.1917 0
M  V30 21577 N 2094.47 -1.56127 0.214985 0
M  V30 21578 C 2095.7 -2.02225 -0.422919 0
M  V30 21579 C 2096.11 -1.09413 -1.54355 0
M  V30 21580 O 2095.45 -0.0948108 -1.83455 0
M  V30 21581 C 2095.51 -3.44677 -1.02166 0
M  V30 21582 C 2095.17 -4.56985 -0.0372982 0
M  V30 21583 C 2096.17 -5.14305 0.760672 0
M  V30 21584 C 2093.86 -5.02237 0.0795528 0
M  V30 21585 C 2095.85 -6.15343 1.66226 0
M  V30 21586 C 2093.54 -6.03115 0.984683 0
M  V30 21587 C 2094.54 -6.59543 1.77459 0
M  V30 21588 O 2094.22 -7.58458 2.66451 0
M  V30 21589 H 2093.96 -0.66724 -0.108474 0
M  V30 21590 H 2096.51 -2.02782 0.326912 0
M  V30 21591 H 2094.74 -3.41169 -1.82046 0
M  V30 21592 H 2096.43 -3.74463 -1.56629 0
M  V30 21593 H 2097.19 -4.80198 0.68081 0
M  V30 21594 H 2093.07 -4.57999 -0.525143 0
M  V30 21595 H 2096.62 -6.59315 2.27925 0
M  V30 21596 H 2092.51 -6.36644 1.06559 0
M  V30 21597 H 2093.28 -7.75955 2.60453 0
M  V30 21598 N 2095.95 0.0584645 -1.57492 0
M  V30 21599 C 2097.36 0.413547 -1.54149 0
M  V30 21600 C 2097.56 1.78385 -0.937076 0
M  V30 21601 O 2096.62 2.46541 -0.545339 0
M  V30 21602 C 2097.93 0.342371 -2.98745 0
M  V30 21603 C 2099.48 0.421594 -3.10148 0
M  V30 21604 C 2099.95 0.380184 -4.56419 0
M  V30 21605 N 2101.44 0.439864 -4.61107 0
M  V30 21606 C 2102.18 0.430249 -5.71784 0
M  V30 21607 N 2101.68 0.374659 -6.91786 0
M  V30 21608 N 2103.47 0.4778 -5.60066 0
M  V30 21609 H 2095.62 -0.838642 -1.95142 0
M  V30 21610 H 2097.88 -0.316052 -0.893765 0
M  V30 21611 H 2097.59 -0.598115 -3.46577 0
M  V30 21612 H 2097.46 1.14747 -3.59323 0
M  V30 21613 H 2099.85 1.35251 -2.62281 0
M  V30 21614 H 2099.93 -0.41232 -2.52455 0
M  V30 21615 H 2099.57 -0.546935 -5.04947 0
M  V30 21616 H 2099.5 1.23181 -5.1199 0
M  V30 21617 H 2102 0.486535 -3.74755 0
M  V30 21618 H 2102.31 0.371614 -7.71906 0
M  V30 21619 H 2100.65 0.341145 -6.94162 0
M  V30 21620 H 2103.84 0.519015 -4.65214 0
M  V30 21621 H 2104.02 0.466838 -6.46316 0
M  V30 21622 N 2097.42 1.54103 0.330149 0
M  V30 21623 C 2098.67 1.71653 1.06675 0
M  V30 21624 C 2098.99 0.489514 1.88756 0
M  V30 21625 O 2098.26 -0.496523 1.89503 0
M  V30 21626 H 2096.84 0.63288 0.396827 0
M  V30 21627 H 2099.5 1.91391 0.36818 0
M  V30 21628 H 2098.6 2.59328 1.73653 0
M  V30 21629 N 2098.9 -0.59187 1.46064 0
M  V30 21630 C 2099.83 -1.71199 1.58787 0
M  V30 21631 C 2100.81 -1.64348 0.438615 0
M  V30 21632 O 2102 -1.82506 0.663725 0
M  V30 21633 C 2099.13 -3.0983 1.56917 0
M  V30 21634 C 2098.08 -3.31505 2.70719 0
M  V30 21635 C 2097.41 -4.70569 2.53907 0
M  V30 21636 C 2098.71 -3.20228 4.12615 0
M  V30 21637 H 2100.4 -1.60807 2.5255 0
M  V30 21638 H 2097.95 -0.772206 1.21544 0
M  V30 21639 H 2099.9 -3.88003 1.64413 0
M  V30 21640 H 2098.63 -3.21099 0.596928 0
M  V30 21641 H 2097.28 -2.55727 2.62677 0
M  V30 21642 H 2096.93 -4.78592 1.54787 0
M  V30 21643 H 2096.63 -4.86025 3.30232 0
M  V30 21644 H 2098.16 -5.50923 2.6328 0
M  V30 21645 H 2099.57 -3.88257 4.21817 0
M  V30 21646 H 2097.97 -3.47209 4.89455 0
M  V30 21647 H 2099.04 -2.17437 4.33416 0
M  V30 21648 N 2100.38 -1.33616 -0.835729 0
M  V30 21649 C 2101.66 -1.15846 -1.57604 0
M  V30 21650 C 2102.04 0.273951 -2.09315 0
M  V30 21651 O 2101.39 1.27345 -1.89725 0
M  V30 21652 C 2101.6 -2.20224 -2.70744 0
M  V30 21653 C 2102.94 -2.54542 -3.39843 0
M  V30 21654 O 2103.97 -2.18915 -2.80989 0
M  V30 21655 O 2102.83 -3.15692 -4.46095 0
M  V30 21656 H 2099.92 -0.448265 -0.694973 0
M  V30 21657 H 2102.47 -1.45209 -0.878211 0
M  V30 21658 H 2101.24 -3.16426 -2.30196 0
M  V30 21659 H 2100.86 -1.91965 -3.48188 0
M  V30 21660 N 2101.86 1.05436 -1.17136 0
M  V30 21661 C 2103.1 1.78658 -0.959644 0
M  V30 21662 C 2103.44 1.87366 0.510659 0
M  V30 21663 O 2102.71 1.37162 1.37901 0
M  V30 21664 C 2103 3.22682 -1.59839 0
M  V30 21665 C 2102.85 3.22002 -3.14062 0
M  V30 21666 C 2104.17 4.20454 -1.30023 0
M  V30 21667 H 2101.29 0.648566 -0.350044 0
M  V30 21668 H 2103.93 1.23254 -1.44598 0
M  V30 21669 H 2102.08 3.69992 -1.18484 0
M  V30 21670 H 2103.75 2.82787 -3.64457 0
M  V30 21671 H 2101.99 2.60411 -3.46941 0
M  V30 21672 H 2102.66 4.23642 -3.53881 0
M  V30 21673 H 2105.14 3.81628 -1.65829 0
M  V30 21674 H 2104.02 5.19475 -1.77304 0
M  V30 21675 H 2104.28 4.41549 -0.220588 0
M  V30 21676 N 2103.34 0.971211 1.24118 0
M  V30 21677 C 2104.56 0.652357 1.96873 0
M  V30 21678 C 2104.99 -0.772193 1.71519 0
M  V30 21679 O 2104.34 -1.52463 0.981051 0
M  V30 21680 C 2104.39 0.937388 3.48203 0
M  V30 21681 O 2103.5 0.0246311 4.12393 0
M  V30 21682 H 2102.84 0.246274 0.61664 0
M  V30 21683 H 2105.37 1.30231 1.578 0
M  V30 21684 H 2105.38 0.870349 3.98609 0
M  V30 21685 H 2104.05 1.97556 3.65984 0
M  V30 21686 H 2102.63 0.145292 3.72617 0
M  V30 21687 N 2104.81 -1.39054 0.741747 0
M  V30 21688 C 2106.06 -2.00671 0.293089 0
M  V30 21689 C 2106.39 -1.58733 -1.11882 0
M  V30 21690 O 2105.67 -0.819335 -1.76401 0
M  V30 21691 C 2105.95 -3.57843 0.402573 0
M  V30 21692 C 2105.8 -4.0978 1.85474 0
M  V30 21693 C 2107.12 -4.39594 -0.211039 0
M  V30 21694 H 2104.24 -0.729048 0.10797 0
M  V30 21695 H 2106.88 -1.65165 0.939169 0
M  V30 21696 H 2105.03 -3.8822 -0.147482 0
M  V30 21697 H 2106.71 -3.90095 2.46219 0
M  V30 21698 H 2104.95 -3.63088 2.3738 0
M  V30 21699 H 2105.62 -5.18906 1.88257 0
M  V30 21700 H 2108.1 -4.153 0.257937 0
M  V30 21701 H 2106.97 -5.48801 -0.104126 0
M  V30 21702 H 2107.23 -4.22618 -1.29792 0
M  V30 21703 N 2106.29 -0.489897 -1.49792 0
M  V30 21704 C 2107.54 0.0603289 -2.0161 0
M  V30 21705 C 2107.85 1.39071 -1.37545 0
M  V30 21706 O 2109.06 2.02698 -1.80626 0
M  V30 21707 C 2107.52 0.157998 -3.59553 0
M  V30 21708 C 2107.12 -1.16507 -4.32585 0
M  V30 21709 C 2108.87 0.65918 -4.19351 0
M  V30 21710 C 2106.78 -1.03017 -5.82358 0
M  V30 21711 H 2105.71 0.0263203 -0.75354 0
M  V30 21712 H 2108.36 -0.627641 -1.72432 0
M  V30 21713 H 2106.74 0.910172 -3.85398 0
M  V30 21714 H 2107.91 -1.92967 -4.1845 0
M  V30 21715 H 2106.23 -1.59883 -3.84482 0
M  V30 21716 H 2108.82 0.77744 -5.29018 0
M  V30 21717 H 2109.17 1.65527 -3.81977 0
M  V30 21718 H 2109.7 -0.0361409 -3.97784 0
M  V30 21719 H 2106.44 -2.00019 -6.24238 0
M  V30 21720 H 2105.96 -0.306276 -5.99018 0
M  V30 21721 H 2107.64 -0.704383 -6.43154 0
M  V30 21722 N 2107.77 1.56011 -0.223262 0
M  V30 21723 C 2109.18 1.84523 0.284276 0
M  V30 21724 C 2109.53 1.14468 1.59347 0
M  V30 21725 O 2108.66 0.414932 2.12385 0
M  V30 21726 C 2109.25 3.34746 0.522566 0
M  V30 21727 C 2107.81 3.63569 0.974409 0
M  V30 21728 C 2106.96 2.77273 0.038428 0
M  V30 21729 H 2109.91 1.52292 -0.446413 0
M  V30 21730 H 2109.93 3.55044 1.36835 0
M  V30 21731 H 2109.44 3.85705 -0.430453 0
M  V30 21732 H 2107.54 3.18067 1.94073 0
M  V30 21733 H 2107.66 4.71542 0.847634 0
M  V30 21734 H 2106.02 2.48789 0.545532 0
M  V30 21735 H 2106.8 3.31032 -0.909539 0
M  V30 21736 N 2109.25 -0.0501116 1.5752 0
M  V30 21737 C 2110.48 -0.757437 1.92537 0
M  V30 21738 C 2110.89 -1.70005 0.821205 0
M  V30 21739 O 2110.25 -1.81356 -0.203983 0
M  V30 21740 C 2110.3 -1.53258 3.27405 0
M  V30 21741 O 2110.02 -0.627828 4.33578 0
M  V30 21742 C 2111.52 -2.33896 3.76573 0
M  V30 21743 H 2108.74 -0.21413 0.635916 0
M  V30 21744 H 2111.29 -0.01391 2.04495 0
M  V30 21745 H 2109.44 -2.22818 3.16909 0
M  V30 21746 H 2109.85 -1.16918 5.11303 0
M  V30 21747 H 2111.33 -2.83709 4.73511 0
M  V30 21748 H 2111.81 -3.14389 3.06685 0
M  V30 21749 H 2112.41 -1.69451 3.90085 0
M  V30 21750 N 2110.73 -1.54276 -0.321972 0
M  V30 21751 C 2111.95 -1.76841 -1.0836 0
M  V30 21752 C 2112.38 -0.5163 -1.80876 0
M  V30 21753 O 2111.73 0.532225 -1.73312 0
M  V30 21754 C 2111.78 -2.96236 -2.05613 0
M  V30 21755 O 2110.89 -2.67893 -3.1354 0
M  V30 21756 H 2110.23 -0.585948 -0.312347 0
M  V30 21757 H 2112.76 -2.01304 -0.365783 0
M  V30 21758 H 2112.77 -3.23627 -2.48455 0
M  V30 21759 H 2111.44 -3.87037 -1.52234 0
M  V30 21760 H 2110.02 -2.51456 -2.75362 0
M  V30 21761 N 2112.2 0.584116 -1.46376 0
M  V30 21762 C 2113.45 1.33973 -1.51313 0
M  V30 21763 C 2113.77 1.94294 -0.165758 0
M  V30 21764 O 2113.04 1.78481 0.807546 0
M  V30 21765 H 2111.62 0.497422 -0.557298 0
M  V30 21766 H 2114.29 0.684191 -1.82496 0
M  V30 21767 H 2113.38 2.14716 -2.26503 0
M  V30 21768 N 2113.68 1.34058 0.828631 0
M  V30 21769 C 2114.96 1.1668 1.56988 0
M  V30 21770 C 2115.34 -0.262846 2.09457 0
M  V30 21771 O 2114.69 -1.26337 1.90398 0
M  V30 21772 C 2114.9 2.21657 2.69572 0
M  V30 21773 C 2116.25 2.56341 3.38489 0
M  V30 21774 O 2117.27 2.20402 2.79824 0
M  V30 21775 O 2116.13 3.18053 4.44415 0
M  V30 21776 H 2113.22 0.451944 0.692586 0
M  V30 21777 H 2115.77 1.45672 0.870498 0
M  V30 21778 H 2114.54 3.17643 2.28515 0
M  V30 21779 H 2114.16 1.93809 3.47166 0
M  V30 21780 N 2115.16 -1.04814 1.17694 0
M  V30 21781 C 2116.41 -1.78147 0.969105 0
M  V30 21782 C 2116.74 -1.87634 -0.500715 0
M  V30 21783 O 2116.02 -1.37892 -1.37172 0
M  V30 21784 C 2116.3 -3.2183 1.61548 0
M  V30 21785 C 2116.15 -3.20332 3.15765 0
M  V30 21786 C 2117.47 -4.19759 1.32251 0
M  V30 21787 H 2114.59 -0.646701 0.353479 0
M  V30 21788 H 2117.23 -1.22485 1.45249 0
M  V30 21789 H 2115.38 -3.69358 1.20445 0
M  V30 21790 H 2117.05 -2.8085 3.65952 0
M  V30 21791 H 2115.3 -2.58568 3.48318 0
M  V30 21792 H 2115.97 -4.21759 3.56123 0
M  V30 21793 H 2118.44 -3.80743 1.67851 0
M  V30 21794 H 2117.32 -5.18527 1.80057 0
M  V30 21795 H 2117.58 -4.41426 0.244002 0
M  V30 21796 N 2116.64 -0.977779 -1.23601 0
M  V30 21797 C 2117.89 -0.646167 -1.9223 0
M  V30 21798 C 2118.22 0.817893 -1.76137 0
M  V30 21799 O 2117.49 1.58966 -1.12071 0
M  V30 21800 C 2117.78 -1.03412 -3.44932 0
M  V30 21801 C 2117.63 -2.55561 -3.70147 0
M  V30 21802 C 2118.95 -0.576087 -4.36313 0
M  V30 21803 H 2116.07 -0.236222 -0.698118 0
M  V30 21804 H 2118.71 -1.21859 -1.45775 0
M  V30 21805 H 2116.86 -0.547033 -3.84629 0
M  V30 21806 H 2118.53 -3.11824 -3.39947 0
M  V30 21807 H 2116.77 -2.98312 -3.14949 0
M  V30 21808 H 2117.45 -2.77756 -4.77028 0
M  V30 21809 H 2119.92 -0.994237 -4.04047 0
M  V30 21810 H 2118.8 -0.875993 -5.41865 0
M  V30 21811 H 2119.06 0.523647 -4.38988 0
M  V30 21812 N 2118.12 1.38658 -0.749111 0
M  V30 21813 C 2119.36 2.00513 -0.303727 0
M  V30 21814 C 2119.7 1.59324 1.11039 0
M  V30 21815 O 2118.97 0.828679 1.75964 0
M  V30 21816 C 2119.25 3.57624 -0.421545 0
M  V30 21817 C 2119.11 4.0879 -1.87644 0
M  V30 21818 C 2120.43 4.39699 0.187724 0
M  V30 21819 H 2117.55 0.728465 -0.111835 0
M  V30 21820 H 2120.19 1.64665 -0.947915 0
M  V30 21821 H 2118.34 3.88293 0.126892 0
M  V30 21822 H 2120.01 3.88784 -2.48284 0
M  V30 21823 H 2118.25 3.61824 -2.39303 0
M  V30 21824 H 2118.92 5.179 -1.91006 0
M  V30 21825 H 2121.4 4.15157 -0.279958 0
M  V30 21826 H 2120.28 5.48849 0.0750199 0
M  V30 21827 H 2120.54 4.23301 1.27549 0
M  V30 21828 N 2119.6 0.497834 1.49531 0
M  V30 21829 C 2120.84 -0.0478795 2.02743 0
M  V30 21830 C 2121.17 -1.36937 1.37702 0
M  V30 21831 O 2120.45 -1.8765 0.511637 0
M  V30 21832 C 2120.73 -0.203749 3.59523 0
M  V30 21833 C 2120.59 1.14064 4.35097 0
M  V30 21834 C 2121.9 -0.945869 4.29815 0
M  V30 21835 H 2119.02 -0.0159264 0.736828 0
M  V30 21836 H 2121.67 0.648629 1.78586 0
M  V30 21837 H 2119.82 -0.796987 3.80237 0
M  V30 21838 H 2121.49 1.77252 4.25887 0
M  V30 21839 H 2119.73 1.73071 3.9778 0
M  V30 21840 H 2120.4 0.984923 5.43142 0
M  V30 21841 H 2122.88 -0.44277 4.13738 0
M  V30 21842 H 2121.75 -1.02377 5.39268 0
M  V30 21843 H 2122.01 -1.98884 3.94839 0
M  V30 21844 N 2121.07 -1.5589 0.231532 0
M  V30 21845 C 2122.04 -2.19461 -0.661012 0
M  V30 21846 C 2123.04 -1.15936 -1.11424 0
M  V30 21847 O 2124.23 -1.41111 -1.02144 0
M  V30 21848 C 2121.36 -2.82592 -1.90669 0
M  V30 21849 H 2122.55 -2.9971 -0.106607 0
M  V30 21850 H 2120.1 -1.5629 -0.0180602 0
M  V30 21851 H 2120.84 -2.06239 -2.50272 0
M  V30 21852 H 2120.62 -3.58412 -1.59007 0
M  V30 21853 H 2122.11 -3.3129 -2.54238 0
M  V30 21854 N 2122.55 0.0417572 -1.57545 0
M  V30 21855 C 2123.78 0.747215 -1.92936 0
M  V30 21856 C 2124.19 1.69567 -0.830209 0
M  V30 21857 O 2123.55 1.81462 0.194363 0
M  V30 21858 C 2123.6 1.51519 -3.28214 0
M  V30 21859 O 2123.32 0.604825 -4.33905 0
M  V30 21860 C 2124.82 2.31896 -3.77809 0
M  V30 21861 H 2122.04 0.210755 -0.637043 0
M  V30 21862 H 2124.59 0.00306497 -2.045 0
M  V30 21863 H 2122.74 2.21134 -3.18086 0
M  V30 21864 H 2123.16 1.14205 -5.11916 0
M  V30 21865 H 2124.63 2.81194 -4.75009 0
M  V30 21866 H 2125.11 3.12759 -3.08348 0
M  V30 21867 H 2125.71 1.6738 -3.90978 0
M  V30 21868 N 2124.03 1.54445 0.313786 0
M  V30 21869 C 2125.31 1.63779 1.06939 0
M  V30 21870 C 2125.69 0.477876 2.0562 0
M  V30 21871 O 2125.03 -0.526814 2.22344 0
M  V30 21872 C 2125.24 3.01218 1.76263 0
M  V30 21873 C 2126.59 3.57599 2.28928 0
M  V30 21874 O 2127.62 3.03587 1.86316 0
M  V30 21875 O 2126.48 4.52141 3.06971 0
M  V30 21876 H 2123.57 0.663608 0.493511 0
M  V30 21877 H 2126.12 1.6679 0.312895 0
M  V30 21878 H 2124.89 3.77077 1.04539 0
M  V30 21879 H 2124.51 3.01928 2.58699 0
M  V30 21880 N 2125.51 -0.576345 1.46683 0
M  V30 21881 C 2126.47 -1.66698 1.57303 0
M  V30 21882 C 2127.47 -1.54385 0.449647 0
M  V30 21883 O 2128.66 -1.58888 0.71415 0
M  V30 21884 C 2125.79 -3.06156 1.49938 0
M  V30 21885 H 2126.99 -1.58638 2.54507 0
M  V30 21886 H 2124.54 -0.79471 1.34588 0
M  V30 21887 H 2125.27 -3.19766 0.540379 0
M  V30 21888 H 2125.06 -3.16502 2.3145 0
M  V30 21889 H 2126.55 -3.85538 1.60469 0
M  V30 21890 N 2126.99 -1.34495 -0.82151 0
M  V30 21891 C 2127.92 -1.28835 -1.94741 0
M  V30 21892 C 2128.9 -0.165528 -1.69293 0
M  V30 21893 O 2130.08 -0.358115 -1.9087 0
M  V30 21894 C 2127.21 -1.04446 -3.31222 0
M  V30 21895 C 2126.17 -2.13209 -3.71114 0
M  V30 21896 C 2125.49 -1.74007 -5.05594 0
M  V30 21897 C 2126.79 -3.55051 -3.83062 0
M  V30 21898 H 2128.49 -2.23039 -1.99734 0
M  V30 21899 H 2126.03 -1.07369 -0.959573 0
M  V30 21900 H 2127.98 -0.991306 -4.09574 0
M  V30 21901 H 2126.71 -0.0668391 -3.26532 0
M  V30 21902 H 2125.37 -2.17597 -2.95038 0
M  V30 21903 H 2125.02 -0.749021 -4.97392 0
M  V30 21904 H 2124.72 -2.46803 -5.33256 0
M  V30 21905 H 2126.24 -1.7019 -5.86402 0
M  V30 21906 H 2127.65 -3.53068 -4.51681 0
M  V30 21907 H 2126.05 -4.2648 -4.22179 0
M  V30 21908 H 2127.12 -3.92289 -2.85021 0
M  V30 21909 N 2128.46 1.04188 -1.18248 0
M  V30 21910 C 2129.4 2.11707 -0.851784 0
M  V30 21911 C 2130.38 1.61536 0.185734 0
M  V30 21912 O 2131.56 1.88388 0.0649765 0
M  V30 21913 C 2128.69 3.37603 -0.272436 0
M  V30 21914 C 2127.73 4.0662 -1.28694 0
M  V30 21915 S 2128.57 4.53841 -2.84234 0
M  V30 21916 C 2129.72 5.82971 -2.27807 0
M  V30 21917 H 2129.95 2.39432 -1.76237 0
M  V30 21918 H 2127.49 1.16938 -1.00821 0
M  V30 21919 H 2129.45 4.10463 0.0553219 0
M  V30 21920 H 2128.11 3.07995 0.616252 0
M  V30 21921 H 2127.3 4.97111 -0.830431 0
M  V30 21922 H 2126.9 3.39872 -1.56087 0
M  V30 21923 H 2129.19 6.56851 -1.6599 0
M  V30 21924 H 2130.14 6.33383 -3.16593 0
M  V30 21925 H 2130.54 5.38017 -1.70873 0
M  V30 21926 N 2129.94 0.98432 1.23081 0
M  V30 21927 C 2131.17 0.673535 1.9563 0
M  V30 21928 C 2131.59 -0.760222 1.72818 0
M  V30 21929 O 2130.94 -1.51201 1.02198 0
M  V30 21930 C 2130.99 0.959283 3.4854 0
M  V30 21931 O 2130.71 2.33669 3.70581 0
M  V30 21932 C 2132.22 0.664998 4.38284 0
M  V30 21933 H 2129.44 0.249871 0.62274 0
M  V30 21934 H 2131.98 1.31677 1.56466 0
M  V30 21935 H 2130.13 0.361997 3.85705 0
M  V30 21936 H 2130.55 2.42938 4.64846 0
M  V30 21937 H 2132.02 0.915271 5.44359 0
M  V30 21938 H 2132.5 -0.400961 4.37366 0
M  V30 21939 H 2133.11 1.24294 4.06732 0
M  V30 21940 N 2131.42 -1.38259 0.756453 0
M  V30 21941 C 2132.67 -1.99657 0.313271 0
M  V30 21942 C 2132.99 -1.60347 -1.10967 0
M  V30 21943 O 2132.26 -0.861667 -1.75932 0
M  V30 21944 H 2130.84 -0.738428 0.112838 0
M  V30 21945 H 2133.5 -1.68979 0.971184 0
M  V30 21946 H 2132.6 -3.09794 0.378689 0
M  V30 21947 N 2132.9 -0.505757 -1.49264 0
M  V30 21948 C 2134.15 0.0370719 -2.02466 0
M  V30 21949 C 2134.47 1.36554 -1.38504 0
M  V30 21950 O 2133.73 1.88895 -0.51159 0
M  V30 21951 C 2134.03 0.233245 -3.56638 0
M  V30 21952 C 2133.69 -1.01781 -4.39262 0
M  V30 21953 C 2132.36 -1.36074 -4.6156 0
M  V30 21954 C 2134.71 -1.84918 -4.87293 0
M  V30 21955 C 2132.04 -2.53445 -5.29134 0
M  V30 21956 C 2134.39 -3.01446 -5.56159 0
M  V30 21957 C 2133.05 -3.36113 -5.76701 0
M  V30 21958 H 2132.32 0.0135656 -0.740876 0
M  V30 21959 H 2134.97 -0.666878 -1.79513 0
M  V30 21960 H 2133.27 1.01976 -3.78296 0
M  V30 21961 H 2134.97 0.66778 -3.95401 0
M  V30 21962 H 2131.56 -0.740706 -4.22151 0
M  V30 21963 H 2135.74 -1.59738 -4.69891 0
M  V30 21964 H 2131 -2.80536 -5.4324 0
M  V30 21965 H 2135.17 -3.66189 -5.9235 0
M  V30 21966 H 2132.8 -4.27163 -6.28837 0
M  V30 21967 N 2134.38 1.55765 -0.239796 0
M  V30 21968 C 2135.6 2.03167 0.391261 0
M  V30 21969 C 2136.02 1.11923 1.52049 0
M  V30 21970 O 2135.38 0.132278 1.8202 0
M  V30 21971 C 2135.43 3.49969 0.90575 0
M  V30 21972 O 2135.15 4.37736 -0.178468 0
M  V30 21973 C 2136.65 4.131 1.60821 0
M  V30 21974 H 2133.87 0.664411 0.0938007 0
M  V30 21975 H 2136.41 2.01278 -0.361584 0
M  V30 21976 H 2134.57 3.52415 1.6088 0
M  V30 21977 H 2134.98 5.24075 0.211064 0
M  V30 21978 H 2136.46 5.17533 1.92 0
M  V30 21979 H 2136.93 3.59169 2.52773 0
M  V30 21980 H 2137.54 4.14556 0.949915 0
M  V30 21981 N 2135.85 -0.0334016 1.57565 0
M  V30 21982 C 2137.1 -0.723651 1.887 0
M  V30 21983 C 2137.42 -1.76126 0.836929 0
M  V30 21984 O 2136.69 -1.95468 -0.12998 0
M  V30 21985 H 2135.27 -0.270263 0.696396 0
M  V30 21986 H 2137.94 -0.000381018 1.949 0
M  V30 21987 H 2137.03 -1.21594 2.87439 0
M  V30 21988 N 2137.33 -1.54609 -0.305591 0
M  V30 21989 C 2138.61 -1.64344 -1.06068 0
M  V30 21990 C 2138.99 -0.488774 -2.05364 0
M  V30 21991 O 2138.34 0.515015 -2.2262 0
M  V30 21992 C 2138.55 -3.02149 -1.74663 0
M  V30 21993 C 2139.9 -3.58808 -2.27029 0
M  V30 21994 O 2140.92 -3.04571 -1.84703 0
M  V30 21995 O 2139.78 -4.53762 -3.04568 0
M  V30 21996 H 2136.87 -0.666216 -0.489984 0
M  V30 21997 H 2139.42 -1.66954 -0.304046 0
M  V30 21998 H 2138.19 -3.77626 -1.02538 0
M  V30 21999 H 2137.81 -3.03296 -2.57094 0
M  V30 22000 N 2138.81 0.568558 -1.46987 0
M  V30 22001 C 2140.06 1.32622 -1.53028 0
M  V30 22002 C 2140.39 1.93591 -0.187815 0
M  V30 22003 O 2139.64 1.77779 0.818104 0
M  V30 22004 C 2139.94 2.46501 -2.5879 0
M  V30 22005 C 2139.61 2.03435 -4.02399 0
M  V30 22006 C 2138.27 1.91406 -4.41494 0
M  V30 22007 C 2140.62 1.70411 -4.92554 0
M  V30 22008 C 2137.95 1.4463 -5.68594 0
M  V30 22009 C 2140.3 1.2511 -6.20105 0
M  V30 22010 C 2138.96 1.11668 -6.58093 0
M  V30 22011 H 2138.23 0.485299 -0.559969 0
M  V30 22012 H 2140.88 0.638777 -1.80532 0
M  V30 22013 H 2139.19 3.20753 -2.24999 0
M  V30 22014 H 2140.88 3.047 -2.60689 0
M  V30 22015 H 2137.47 2.13737 -3.71503 0
M  V30 22016 H 2141.66 1.78582 -4.63057 0
M  V30 22017 H 2136.91 1.32878 -5.96786 0
M  V30 22018 H 2141.09 0.986139 -6.89383 0
M  V30 22019 H 2138.71 0.751996 -7.56471 0
M  V30 22020 N 2140.29 1.34929 0.814366 0
M  V30 22021 C 2141.57 1.18339 1.55741 0
M  V30 22022 C 2141.95 -0.240616 2.09724 0
M  V30 22023 O 2141.29 -1.2431 1.91727 0
M  V30 22024 C 2141.5 2.24503 2.67206 0
M  V30 22025 C 2142.85 2.59917 3.35751 0
M  V30 22026 O 2143.88 2.23358 2.7747 0
M  V30 22027 O 2142.73 3.22749 4.41017 0
M  V30 22028 H 2139.83 0.459265 0.687753 0
M  V30 22029 H 2142.37 1.46587 0.854999 0
M  V30 22030 H 2141.15 3.20048 2.25133 0
M  V30 22031 H 2140.77 1.9748 3.4509 0
M  V30 22032 N 2141.77 -1.0356 1.18799 0
M  V30 22033 C 2142.99 -1.81025 1.01216 0
M  V30 22034 C 2143.42 -1.8301 -0.434636 0
M  V30 22035 O 2142.77 -1.25115 -1.3121 0
M  V30 22036 C 2142.82 -3.24257 1.57766 0
M  V30 22037 O 2141.93 -4.04518 0.802435 0
M  V30 22038 H 2141.27 -0.559085 0.358218 0
M  V30 22039 H 2143.8 -1.30389 1.57671 0
M  V30 22040 H 2143.81 -3.75022 1.60694 0
M  V30 22041 H 2142.48 -3.22127 2.63073 0
M  V30 22042 H 2141.06 -3.6318 0.845866 0
M  V30 22043 N 2143.25 -0.990834 -1.22557 0
M  V30 22044 C 2144.49 -0.666519 -1.91534 0
M  V30 22045 C 2144.82 0.799165 -1.76994 0
M  V30 22046 O 2144.1 1.57769 -1.13751 0
M  V30 22047 C 2144.38 -1.07064 -3.43816 0
M  V30 22048 C 2144.24 -2.59473 -3.67415 0
M  V30 22049 C 2145.55 -0.622332 -4.35678 0
M  V30 22050 H 2142.67 -0.243613 -0.695573 0
M  V30 22051 H 2145.32 -1.23399 -1.44474 0
M  V30 22052 H 2143.47 -0.587797 -3.84028 0
M  V30 22053 H 2145.14 -3.15412 -3.3662 0
M  V30 22054 H 2143.38 -3.01635 -3.11767 0
M  V30 22055 H 2144.05 -2.828 -4.74055 0
M  V30 22056 H 2146.53 -1.03704 -4.0297 0
M  V30 22057 H 2145.4 -0.933416 -5.40905 0
M  V30 22058 H 2145.66 0.477057 -4.39519 0
M  V30 22059 N 2144.72 1.37856 -0.763775 0
M  V30 22060 C 2145.97 1.99126 -0.321223 0
M  V30 22061 C 2146.29 1.61318 1.10615 0
M  V30 22062 O 2147.49 2.15633 1.64969 0
M  V30 22063 C 2145.95 3.56074 -0.523371 0
M  V30 22064 C 2145.56 4.02826 -1.96049 0
M  V30 22065 C 2147.3 4.24256 -0.144043 0
M  V30 22066 C 2145.21 5.52454 -2.11066 0
M  V30 22067 H 2144.14 0.744968 -0.116357 0
M  V30 22068 H 2146.79 1.5749 -0.941769 0
M  V30 22069 H 2145.17 3.9565 0.166513 0
M  V30 22070 H 2146.34 3.74515 -2.68468 0
M  V30 22071 H 2144.66 3.47402 -2.29567 0
M  V30 22072 H 2147.26 5.34184 -0.234865 0
M  V30 22073 H 2147.6 4.06351 0.904676 0
M  V30 22074 H 2148.13 3.89954 -0.786169 0
M  V30 22075 H 2144.87 5.75275 -3.14228 0
M  V30 22076 H 2144.39 5.82474 -1.43121 0
M  V30 22077 H 2146.07 6.18305 -1.90546 0
M  V30 22078 N 2146.2 0.513665 1.48994 0
M  V30 22079 C 2147.48 -0.0899538 1.95393 0
M  V30 22080 C 2147.86 -1.52898 1.45552 0
M  V30 22081 O 2147.21 -2.18308 0.674808 0
M  V30 22082 C 2147.42 0.010453 3.48998 0
M  V30 22083 C 2148.76 -0.157087 4.24309 0
M  V30 22084 O 2149.79 -0.0641299 3.56142 0
M  V30 22085 O 2148.65 -0.349548 5.45381 0
M  V30 22086 H 2145.74 -0.0883243 0.82227 0
M  V30 22087 H 2148.29 0.577105 1.59586 0
M  V30 22088 H 2147.06 1.0135 3.77947 0
M  V30 22089 H 2146.68 -0.696188 3.91458 0
M  V30 22090 N 2147.68 -1.55636 0.248053 0
M  V30 22091 C 2148.92 -2.00876 -0.377892 0
M  V30 22092 C 2149.28 -1.13247 -1.55045 0
M  V30 22093 O 2150.48 -1.47949 -2.24421 0
M  V30 22094 C 2148.76 -3.48868 -0.776285 0
M  V30 22095 S 2150.31 -4.16116 -1.39259 0
M  V30 22096 H 2147.13 -0.700996 -0.118851 0
M  V30 22097 H 2149.73 -1.9209 0.363557 0
M  V30 22098 H 2148.44 -4.10309 0.0863888 0
M  V30 22099 H 2147.97 -3.61583 -1.54988 0
M  V30 22100 H 2149.98 -4.17497 -2.68162 0
M  V30 22101 N 2149.16 0.0250451 -1.5758 0
M  V30 22102 C 2150.11 1.04281 -2.07914 0
M  V30 22103 C 2151.1 1.37188 -0.993769 0
M  V30 22104 O 2152.31 1.36046 -1.17862 0
M  V30 22105 H 2148.68 0.353839 -0.663552 0
M  V30 22106 H 2150.65 0.592514 -2.92458 0
M  V30 22107 C 2149.4 2.33393 -2.57726 0
M  V30 22108 H 2148.72 2.08934 -3.40862 0
M  V30 22109 H 2150.16 3.02943 -2.96651 0
M  V30 22110 C 2148.62 3.02638 -1.48026 0
M  V30 22111 O 2149.15 3.9263 -0.848789 0
M  V30 22112 N 2147.36 2.64036 -1.21381 0
M  V30 22113 H 2146.91 1.90939 -1.72916 0
M  V30 22114 H 2146.86 3.10684 -0.481967 0
M  V30 22115 N 2150.64 1.54769 0.297388 0
M  V30 22116 C 2151.86 1.78217 1.05101 0
M  V30 22117 C 2152.28 0.543423 1.8081 0
M  V30 22118 O 2151.64 -0.486854 1.75886 0
M  V30 22119 C 2151.69 2.99206 2.02874 0
M  V30 22120 O 2151.41 4.18295 1.30236 0
M  V30 22121 C 2152.91 3.35071 2.90245 0
M  V30 22122 H 2150.13 0.594292 0.31154 0
M  V30 22123 H 2152.67 2.01728 0.335565 0
M  V30 22124 H 2150.83 2.77893 2.69915 0
M  V30 22125 H 2151.24 4.86531 1.95928 0
M  V30 22126 H 2152.72 4.22961 3.54694 0
M  V30 22127 H 2153.19 2.53386 3.58737 0
M  V30 22128 H 2153.8 3.58556 2.2873 0
M  V30 22129 N 2152.11 -0.560755 1.47286 0
M  V30 22130 C 2153.35 -1.3289 1.55305 0
M  V30 22131 C 2153.72 -1.9086 0.208898 0
M  V30 22132 O 2154.92 -2.683 0.163911 0
M  V30 22133 C 2153.19 -2.41196 2.63741 0
M  V30 22134 S 2154.75 -3.28146 2.91318 0
M  V30 22135 H 2151.57 -0.452457 0.548456 0
M  V30 22136 H 2154.17 -0.642337 1.84646 0
M  V30 22137 H 2152.87 -1.97037 3.60006 0
M  V30 22138 H 2152.4 -3.14598 2.36202 0
M  V30 22139 H 2154.42 -4.4058 2.28261 0
M  V30 22140 N 2153.59 -1.35359 -0.807199 0
M  V30 22141 C 2154.84 -1.28788 -1.56657 0
M  V30 22142 C 2155.17 0.137625 -1.93712 0
M  V30 22143 O 2154.45 1.08685 -1.61301 0
M  V30 22144 C 2154.73 -2.19379 -2.85561 0
M  V30 22145 C 2154.58 -3.70543 -2.54986 0
M  V30 22146 C 2155.9 -2.0909 -3.87259 0
M  V30 22147 H 2153.02 -0.469169 -0.568374 0
M  V30 22148 H 2155.66 -1.65754 -0.928736 0
M  V30 22149 H 2153.81 -1.87984 -3.39992 0
M  V30 22150 H 2155.48 -4.12377 -2.06743 0
M  V30 22151 H 2153.73 -3.90855 -1.88189 0
M  V30 22152 H 2154.4 -4.29316 -3.46975 0
M  V30 22153 H 2156.87 -2.36687 -3.42226 0
M  V30 22154 H 2155.75 -2.74675 -4.75231 0
M  V30 22155 H 2156.01 -1.07265 -4.2889 0
M  V30 22156 N 2155.07 1.02928 -1.19346 0
M  V30 22157 C 2156.3 1.79948 -1.02109 0
M  V30 22158 C 2156.71 1.83834 0.430184 0
M  V30 22159 O 2156.07 1.28209 1.2988 0
M  V30 22160 C 2156.12 3.25018 -1.58258 0
M  V30 22161 O 2155.84 3.21409 -2.97705 0
M  V30 22162 C 2157.34 4.18638 -1.45798 0
M  V30 22163 H 2154.56 0.566313 -0.359904 0
M  V30 22164 H 2157.11 1.29645 -1.58153 0
M  V30 22165 H 2155.26 3.72512 -1.06364 0
M  V30 22166 H 2155.68 4.12372 -3.24113 0
M  V30 22167 H 2157.15 5.1832 -1.89865 0
M  V30 22168 H 2157.63 4.37297 -0.408433 0
M  V30 22169 H 2158.23 3.77017 -1.96821 0
M  V30 22170 N 2156.55 0.997319 1.2203 0
M  V30 22171 C 2157.48 0.50954 2.23464 0
M  V30 22172 C 2158.49 -0.397746 1.57866 0
M  V30 22173 O 2159.68 -0.199173 1.77385 0
M  V30 22174 C 2156.78 -0.280337 3.37739 0
M  V30 22175 C 2155.95 0.624157 4.32924 0
M  V30 22176 C 2155.01 -0.114778 5.26075 0
M  V30 22177 O 2154.04 0.501303 5.66988 0
M  V30 22178 N 2155.24 -1.39573 5.63471 0
M  V30 22179 H 2158.01 1.38179 2.65945 0
M  V30 22180 H 2155.57 0.872554 1.36375 0
M  V30 22181 H 2157.56 -0.783436 3.97045 0
M  V30 22182 H 2156.13 -1.05371 2.94305 0
M  V30 22183 H 2155.35 1.30786 3.71872 0
M  V30 22184 H 2156.64 1.23998 4.93459 0
M  V30 22185 H 2156.04 -1.91751 5.3221 0
M  V30 22186 H 2154.59 -1.84393 6.25174 0
M  V30 22187 N 2158.03 -1.37449 0.771075 0
M  V30 22188 C 2159.25 -2.03979 0.346453 0
M  V30 22189 C 2159.67 -1.58156 -1.03113 0
M  V30 22190 O 2159.03 -0.762511 -1.65807 0
M  V30 22191 C 2159.08 -3.595 0.379748 0
M  V30 22192 O 2158.8 -4.03646 1.70298 0
M  V30 22193 C 2160.3 -4.43264 -0.0565544 0
M  V30 22194 H 2157.52 -0.655084 0.145281 0
M  V30 22195 H 2160.06 -1.75795 1.04481 0
M  V30 22196 H 2158.22 -3.86458 -0.270023 0
M  V30 22197 H 2158.63 -4.98163 1.64115 0
M  V30 22198 H 2160.11 -5.51997 0.0178961 0
M  V30 22199 H 2160.58 -4.25025 -1.10683 0
M  V30 22200 H 2161.19 -4.2153 0.565003 0
M  V30 22201 N 2159.5 -0.52156 -1.4872 0
M  V30 22202 C 2160.75 0.0156187 -2.02794 0
M  V30 22203 C 2161.08 1.34729 -1.39863 0
M  V30 22204 O 2160.36 1.86812 -0.541426 0
M  V30 22205 C 2160.64 0.146526 -3.59802 0
M  V30 22206 C 2160.49 -1.20972 -4.33227 0
M  V30 22207 C 2161.81 0.87737 -4.31266 0
M  V30 22208 H 2158.93 0.00420207 -0.736988 0
M  V30 22209 H 2161.57 -0.676958 -1.77531 0
M  V30 22210 H 2159.72 0.736393 -3.81457 0
M  V30 22211 H 2161.4 -1.84005 -4.23013 0
M  V30 22212 H 2159.64 -1.79378 -3.94976 0
M  V30 22213 H 2160.31 -1.07121 -5.41506 0
M  V30 22214 H 2162.79 0.376892 -4.1439 0
M  V30 22215 H 2161.66 0.937846 -5.40829 0
M  V30 22216 H 2161.92 1.92578 -3.97953 0
M  V30 22217 N 2160.98 1.55502 -0.256304 0
M  V30 22218 C 2162.26 1.91111 0.41663 0
M  V30 22219 C 2162.64 1.17825 1.75159 0
M  V30 22220 O 2161.99 0.298822 2.26538 0
M  V30 22221 C 2162.2 3.44223 0.575462 0
M  V30 22222 C 2163.55 4.15653 0.867028 0
M  V30 22223 O 2164.57 3.50014 0.660977 0
M  V30 22224 O 2163.43 5.31777 1.25997 0
M  V30 22225 H 2160.52 0.795781 0.225083 0
M  V30 22226 H 2163.07 1.67008 -0.301066 0
M  V30 22227 H 2161.84 3.89596 -0.364767 0
M  V30 22228 H 2161.46 3.74219 1.34334 0
M  V30 22229 N 2162.46 -0.0166879 1.57591 0
M  V30 22230 C 2163.71 -0.704989 1.89832 0
M  V30 22231 C 2164.04 -1.74694 0.855116 0
M  V30 22232 O 2163.29 -1.95182 -0.142329 0
M  V30 22233 C 2163.59 -1.4003 3.28826 0
M  V30 22234 C 2163.26 -0.493148 4.48195 0
M  V30 22235 C 2161.92 -0.24333 4.80584 0
M  V30 22236 C 2164.27 0.132428 5.21032 0
M  V30 22237 C 2161.6 0.640635 5.83192 0
M  V30 22238 C 2163.95 1.00417 6.24579 0
M  V30 22239 C 2162.61 1.26333 6.55436 0
M  V30 22240 H 2161.88 -0.257974 0.694644 0
M  V30 22241 H 2164.53 0.0352552 1.91468 0
M  V30 22242 H 2162.84 -2.21417 3.23236 0
M  V30 22243 H 2164.53 -1.93863 3.51025 0
M  V30 22244 H 2161.12 -0.698019 4.22878 0
M  V30 22245 H 2165.31 -0.0475893 4.96277 0
M  V30 22246 H 2160.56 0.849601 6.05468 0
M  V30 22247 H 2164.74 1.49535 6.80156 0
M  V30 22248 H 2162.36 1.95 7.34765 0
M  V30 22249 N 2163.94 -1.54924 -0.289176 0
M  V30 22250 C 2165.16 -1.791 -1.04585 0
M  V30 22251 C 2165.59 -0.55455 -1.7974 0
M  V30 22252 O 2164.95 0.495343 -1.74402 0
M  V30 22253 C 2164.99 -3.0053 -1.99283 0
M  V30 22254 O 2164.1 -2.74483 -3.07787 0
M  V30 22255 H 2163.44 -0.592442 -0.299847 0
M  V30 22256 H 2165.97 -2.02034 -0.323001 0
M  V30 22257 H 2165.98 -3.28824 -2.41534 0
M  V30 22258 H 2164.65 -3.90179 -1.4399 0
M  V30 22259 H 2163.23 -2.5724 -2.69966 0
M  V30 22260 N 2165.42 0.552936 -1.47582 0
M  V30 22261 C 2166.35 1.66928 -1.6327 0
M  V30 22262 C 2167.33 1.63127 -0.482035 0
M  V30 22263 O 2168.51 1.80682 -0.71188 0
M  V30 22264 C 2165.64 3.0556 -1.65076 0
M  V30 22265 C 2164.6 3.2421 -2.79413 0
M  V30 22266 C 2163.92 4.63672 -2.66294 0
M  V30 22267 C 2165.22 3.09176 -4.20961 0
M  V30 22268 H 2166.92 1.54055 -2.56725 0
M  V30 22269 H 2164.46 0.739709 -1.23549 0
M  V30 22270 H 2166.42 3.83508 -1.74642 0
M  V30 22271 H 2165.14 3.19403 -0.681852 0
M  V30 22272 H 2163.8 2.48673 -2.69365 0
M  V30 22273 H 2163.45 4.7432 -1.67422 0
M  V30 22274 H 2163.15 4.77099 -3.43002 0
M  V30 22275 H 2164.67 5.43749 -2.77795 0
M  V30 22276 H 2166.08 3.76936 -4.31963 0
M  V30 22277 H 2164.48 3.3411 -4.98488 0
M  V30 22278 H 2165.55 2.05869 -4.39028 0
M  V30 22279 N 2166.89 1.35785 0.800009 0
M  V30 22280 C 2168.17 1.19984 1.54477 0
M  V30 22281 C 2168.55 -0.218358 2.09968 0
M  V30 22282 O 2167.9 -1.2227 1.93035 0
M  V30 22283 C 2168.11 2.27325 2.6481 0
M  V30 22284 C 2169.46 2.63463 3.32975 0
M  V30 22285 O 2170.48 2.26288 2.75086 0
M  V30 22286 O 2169.34 3.27408 4.37569 0
M  V30 22287 H 2166.43 0.466534 0.682844 0
M  V30 22288 H 2168.98 1.47486 0.839403 0
M  V30 22289 H 2167.75 3.22418 2.21725 0
M  V30 22290 H 2167.38 2.01129 3.42976 0
M  V30 22291 N 2168.37 -1.02294 1.19891 0
M  V30 22292 C 2169.78 -1.5724 1.0066 0
M  V30 22293 C 2170.13 -1.9123 -0.43882 0
M  V30 22294 O 2169.26 -1.71541 -1.31919 0
M  V30 22295 C 2169.85 -2.85704 1.82094 0
M  V30 22296 C 2168.41 -3.37202 1.67248 0
M  V30 22297 C 2167.56 -2.10577 1.80424 0
M  V30 22298 H 2170.51 -0.84751 1.34175 0
M  V30 22299 H 2170.53 -3.56849 1.32056 0
M  V30 22300 H 2170.04 -2.60935 2.87289 0
M  V30 22301 H 2168.15 -3.66946 0.646645 0
M  V30 22302 H 2168.26 -4.09832 2.48142 0
M  V30 22303 H 2166.62 -2.2273 1.23545 0
M  V30 22304 H 2167.41 -1.88241 2.87089 0
M  V30 22305 N 2169.85 -1.00378 -1.21499 0
M  V30 22306 C 2171.08 -0.704573 -1.94534 0
M  V30 22307 C 2171.49 0.732632 -1.74006 0
M  V30 22308 O 2170.85 1.49556 -1.04591 0
M  V30 22309 C 2170.9 -1.01461 -3.4697 0
M  V30 22310 O 2170.62 -2.39535 -3.66817 0
M  V30 22311 C 2172.12 -0.734641 -4.3717 0
M  V30 22312 H 2169.34 -0.259747 -0.618686 0
M  V30 22313 H 2171.89 -1.34149 -1.54351 0
M  V30 22314 H 2170.04 -0.423313 -3.8508 0
M  V30 22315 H 2170.46 -2.50302 -4.60922 0
M  V30 22316 H 2171.93 -1.00176 -5.42834 0
M  V30 22317 H 2172.41 0.331329 -4.37948 0
M  V30 22318 H 2173.01 -1.30749 -4.04703 0
M  V30 22319 N 2171.33 1.37038 -0.778354 0
M  V30 22320 C 2172.58 1.99528 -0.345678 0
M  V30 22321 C 2172.9 1.61785 1.07962 0
M  V30 22322 O 2172.16 0.85887 1.75846 0
M  V30 22323 C 2172.46 3.54632 -0.443975 0
M  V30 22324 C 2172.12 4.12162 -1.82848 0
M  V30 22325 C 2170.79 4.27587 -2.20732 0
M  V30 22326 C 2173.14 4.43641 -2.73555 0
M  V30 22327 C 2170.47 4.71797 -3.48747 0
M  V30 22328 C 2172.82 4.89278 -4.00986 0
M  V30 22329 C 2171.48 5.02909 -4.38906 0
M  V30 22330 H 2170.75 0.730124 -0.126493 0
M  V30 22331 H 2173.4 1.63703 -0.993664 0
M  V30 22332 H 2171.7 3.90743 0.287537 0
M  V30 22333 H 2173.4 4.00898 -0.0903991 0
M  V30 22334 H 2169.99 4.00588 -1.52406 0
M  V30 22335 H 2174.17 4.31303 -2.45544 0
M  V30 22336 H 2169.43 4.80537 -3.78013 0
M  V30 22337 H 2173.6 5.12601 -4.71394 0
M  V30 22338 H 2171.23 5.36926 -5.38159 0
M  V30 22339 N 2172.81 0.529439 1.48441 0
M  V30 22340 C 2174.04 -0.000824174 2.069 0
M  V30 22341 C 2174.45 -1.28195 1.38605 0
M  V30 22342 O 2173.81 -1.76253 0.4734 0
M  V30 22343 C 2173.86 -0.229032 3.60774 0
M  V30 22344 O 2173.58 1.00134 4.26503 0
M  V30 22345 C 2175.08 -0.799736 4.36027 0
M  V30 22346 H 2172.3 0.0332691 0.670175 0
M  V30 22347 H 2174.84 0.734929 1.90838 0
M  V30 22348 H 2173 -0.914832 3.76443 0
M  V30 22349 H 2173.41 0.781737 5.18642 0
M  V30 22350 H 2174.89 -0.908842 5.44467 0
M  V30 22351 H 2175.36 -1.8045 4.00418 0
M  V30 22352 H 2175.97 -0.150518 4.25034 0
M  V30 22353 N 2174.29 -1.55364 0.264547 0
M  V30 22354 C 2175.53 -1.98537 -0.355827 0
M  V30 22355 C 2175.85 -1.15624 -1.57767 0
M  V30 22356 O 2177.05 -1.48892 -2.27032 0
M  V30 22357 C 2175.51 -3.53332 -0.684446 0
M  V30 22358 C 2175.12 -4.45007 0.516993 0
M  V30 22359 C 2176.86 -4.05119 -1.26803 0
M  V30 22360 C 2174.77 -5.91174 0.163548 0
M  V30 22361 H 2173.7 -0.7415 -0.136725 0
M  V30 22362 H 2176.35 -1.79782 0.367539 0
M  V30 22363 H 2174.73 -3.67848 -1.46643 0
M  V30 22364 H 2175.91 -4.42256 1.29406 0
M  V30 22365 H 2174.22 -4.03797 1.0167 0
M  V30 22366 H 2176.82 -5.11859 -1.5461 0
M  V30 22367 H 2177.16 -3.53519 -2.19841 0
M  V30 22368 H 2177.69 -3.93999 -0.548571 0
M  V30 22369 H 2174.43 -6.46848 1.06153 0
M  V30 22370 H 2173.95 -5.97019 -0.576966 0
M  V30 22371 H 2175.63 -6.46524 -0.248012 0
M  V30 22372 N 2175.76 0.00833021 -1.57598 0
M  V30 22373 C 2176.67 1.01892 -2.11318 0
M  V30 22374 C 2177.69 1.38254 -1.0565 0
M  V30 22375 O 2178.87 1.47155 -1.37505 0
M  V30 22376 C 2175.93 2.29464 -2.59899 0
M  V30 22377 C 2174.99 1.99492 -3.80134 0
M  V30 22378 C 2174.22 3.20981 -4.26388 0
M  V30 22379 O 2174.45 4.3238 -3.72027 0
M  V30 22380 O 2173.38 3.05467 -5.18627 0
M  V30 22381 H 2177.21 0.592299 -2.97868 0
M  V30 22382 H 2174.79 0.226636 -1.47671 0
M  V30 22383 H 2176.67 3.04425 -2.91382 0
M  V30 22384 H 2175.35 2.7138 -1.76449 0
M  V30 22385 H 2174.26 1.22033 -3.53636 0
M  V30 22386 H 2175.59 1.62418 -4.6463 0
M  V30 22387 N 2177.24 1.55075 0.280956 0
M  V30 22388 C 2178.47 1.79322 1.03205 0
M  V30 22389 C 2178.88 0.56257 1.80224 0
M  V30 22390 O 2178.24 -0.468172 1.76393 0
M  V30 22391 C 2178.29 3.01341 1.99689 0
M  V30 22392 O 2178.01 4.19652 1.25792 0
M  V30 22393 C 2179.51 3.38131 2.86675 0
M  V30 22394 H 2176.73 0.597563 0.30522 0
M  V30 22395 H 2179.28 2.02073 0.31415 0
M  V30 22396 H 2177.43 2.8074 2.66953 0
M  V30 22397 H 2177.85 4.88582 1.90757 0
M  V30 22398 H 2179.32 4.267 3.50188 0
M  V30 22399 H 2179.8 2.57177 3.56029 0
M  V30 22400 H 2180.4 3.60962 2.24914 0
M  V30 22401 N 2178.72 -0.545102 1.47873 0
M  V30 22402 C 2179.95 -1.32682 1.58755 0
M  V30 22403 C 2180.36 -1.8724 0.242172 0
M  V30 22404 O 2179.72 -1.65628 -0.766386 0
M  V30 22405 C 2179.77 -2.48828 2.62234 0
M  V30 22406 O 2179.49 -1.96522 3.91549 0
M  V30 22407 C 2180.99 -3.40869 2.83414 0
M  V30 22408 H 2178.21 -0.404033 0.535722 0
M  V30 22409 H 2180.76 -0.659132 1.93586 0
M  V30 22410 H 2178.91 -3.11511 2.30303 0
M  V30 22411 H 2179.33 -2.72436 4.48195 0
M  V30 22412 H 2180.8 -4.18751 3.59655 0
M  V30 22413 H 2181.28 -3.95166 1.91679 0
M  V30 22414 H 2181.88 -2.83991 3.1659 0
M  V30 22415 N 2180.2 -1.36208 -0.792797 0
M  V30 22416 C 2181.43 -1.33396 -1.58155 0
M  V30 22417 C 2181.84 0.0855356 -1.88606 0
M  V30 22418 O 2181.2 1.04147 -1.49865 0
M  V30 22419 C 2181.25 -2.15213 -2.90458 0
M  V30 22420 O 2180.97 -3.51629 -2.61321 0
M  V30 22421 C 2182.47 -2.20144 -3.84775 0
M  V30 22422 H 2179.69 -0.457713 -0.490652 0
M  V30 22423 H 2182.23 -1.79258 -0.984222 0
M  V30 22424 H 2180.39 -1.72915 -3.46669 0
M  V30 22425 H 2180.8 -3.94282 -3.45893 0
M  V30 22426 H 2182.28 -2.81755 -4.74677 0
M  V30 22427 H 2182.75 -1.20396 -4.22376 0
M  V30 22428 H 2183.36 -2.62663 -3.34497 0
M  V30 22429 N 2181.68 1.01656 -1.20431 0
M  V30 22430 C 2182.61 2.12074 -0.977076 0
M  V30 22431 C 2183.59 1.6984 0.0939563 0
M  V30 22432 O 2184.77 1.94096 -0.0635618 0
M  V30 22433 C 2181.9 3.43257 -0.528392 0
M  V30 22434 C 2180.86 3.99231 -1.54267 0
M  V30 22435 C 2180.18 5.26182 -0.950621 0
M  V30 22436 C 2181.48 4.32619 -2.92639 0
M  V30 22437 H 2183.18 2.31342 -1.90056 0
M  V30 22438 H 2180.72 1.11175 -0.915209 0
M  V30 22439 H 2182.67 4.19888 -0.35665 0
M  V30 22440 H 2181.4 3.23747 0.430716 0
M  V30 22441 H 2180.06 3.24708 -1.70177 0
M  V30 22442 H 2179.71 5.02997 0.0164182 0
M  V30 22443 H 2179.41 5.64597 -1.62802 0
M  V30 22444 H 2180.93 6.05469 -0.789947 0
M  V30 22445 H 2182.34 5.00138 -2.8024 0
M  V30 22446 H 2180.74 4.82148 -3.57286 0
M  V30 22447 H 2181.81 3.41386 -3.4436 0
M  V30 22448 N 2183.15 1.01021 1.20965 0
M  V30 22449 C 2184.56 0.728406 1.71904 0
M  V30 22450 C 2184.92 -0.753559 1.81152 0
M  V30 22451 O 2184.04 -1.5884 1.46966 0
M  V30 22452 C 2184.64 1.31558 3.12215 0
M  V30 22453 C 2183.19 1.08279 3.6049 0
M  V30 22454 C 2182.34 1.42521 2.37872 0
M  V30 22455 H 2185.29 1.18047 1.06069 0
M  V30 22456 H 2185.31 0.702879 3.73952 0
M  V30 22457 H 2184.83 2.39417 3.05452 0
M  V30 22458 H 2182.93 0.0215819 3.72594 0
M  V30 22459 H 2183.04 1.75834 4.45667 0
M  V30 22460 H 2181.4 0.844088 2.40307 0
M  V30 22461 H 2182.19 2.51422 2.33756 0
M  V30 22462 N 2184.63 -1.36623 0.78561 0
M  V30 22463 C 2185.56 -2.28776 0.139379 0
M  V30 22464 C 2186.58 -1.49297 -0.649162 0
M  V30 22465 O 2187.77 -1.71786 -0.484971 0
M  V30 22466 C 2184.87 -3.28685 -0.825808 0
M  V30 22467 C 2184.04 -4.37311 -0.0881363 0
M  V30 22468 C 2183.1 -5.17206 -0.96871 0
M  V30 22469 O 2182.12 -5.67593 -0.427359 0
M  V30 22470 N 2183.33 -5.33275 -2.29342 0
M  V30 22471 H 2186.09 -2.84875 0.930938 0
M  V30 22472 H 2183.65 -1.48748 0.639179 0
M  V30 22473 H 2185.64 -3.7902 -1.41865 0
M  V30 22474 H 2184.21 -2.73254 -1.51826 0
M  V30 22475 H 2183.43 -3.8819 0.685747 0
M  V30 22476 H 2184.72 -5.07055 0.421052 0
M  V30 22477 H 2184.12 -4.93946 -2.75743 0
M  V30 22478 H 2182.68 -5.86868 -2.83599 0
M  V30 22479 N 2186.11 -0.537304 -1.48158 0
M  V30 22480 C 2187.39 0.0588571 -1.95511 0
M  V30 22481 C 2187.77 1.50563 -1.47966 0
M  V30 22482 O 2187.11 2.17207 -0.709454 0
M  V30 22483 C 2187.32 -0.0659743 -3.48938 0
M  V30 22484 C 2188.67 0.089563 -4.24506 0
M  V30 22485 O 2189.7 0.00746266 -3.56199 0
M  V30 22486 O 2188.56 0.262738 -5.45868 0
M  V30 22487 H 2185.65 0.0752315 -0.823571 0
M  V30 22488 H 2188.2 -0.60242 -1.58647 0
M  V30 22489 H 2186.97 -1.0735 -3.76287 0
M  V30 22490 H 2186.59 0.633822 -3.92516 0
M  V30 22491 N 2187.59 1.55221 -0.272782 0
M  V30 22492 C 2188.55 2.21137 0.602593 0
M  V30 22493 C 2189.55 1.1885 1.08311 0
M  V30 22494 O 2190.74 1.4377 0.983663 0
M  V30 22495 C 2187.87 2.87548 1.8311 0
M  V30 22496 H 2189.07 2.99888 0.0271068 0
M  V30 22497 H 2186.62 1.56283 -0.0233836 0
M  V30 22498 H 2187.35 2.12802 2.44716 0
M  V30 22499 H 2187.14 3.62502 1.49449 0
M  V30 22500 H 2188.63 3.37914 2.45365 0
M  V30 22501 N 2189.07 2.77022e-05 1.576 0
M  V30 22502 C 2190.31 -0.685829 1.90851 0
M  V30 22503 C 2190.65 -1.73422 0.873984 0
M  V30 22504 O 2189.92 -1.94204 -0.107282 0
M  V30 22505 C 2190.2 -1.32893 3.34681 0
M  V30 22506 C 2190.06 -0.292085 4.48851 0
M  V30 22507 C 2191.38 -2.25509 3.77933 0
M  V30 22508 H 2188.49 -0.247851 0.694074 0
M  V30 22509 H 2191.14 0.0513272 1.89931 0
M  V30 22510 H 2189.29 -1.95723 3.35596 0
M  V30 22511 H 2190.96 0.336531 4.60071 0
M  V30 22512 H 2189.2 0.385648 4.32082 0
M  V30 22513 H 2189.87 -0.781112 5.46445 0
M  V30 22514 H 2192.35 -1.72696 3.7857 0
M  V30 22515 H 2191.22 -2.67473 4.79322 0
M  V30 22516 H 2191.49 -3.13419 3.11803 0
M  V30 22517 N 2190.54 -1.55222 -0.272728 0
M  V30 22518 C 2191.77 -1.80199 -1.02679 0
M  V30 22519 C 2192.19 -0.573583 -1.79141 0
M  V30 22520 O 2191.55 0.476818 -1.74918 0
M  V30 22521 C 2191.6 -3.02627 -1.96084 0
M  V30 22522 O 2190.7 -2.77732 -3.04858 0
M  V30 22523 H 2190.05 -0.595589 -0.293547 0
M  V30 22524 H 2192.58 -2.02366 -0.301554 0
M  V30 22525 H 2192.59 -3.31367 -2.38033 0
M  V30 22526 H 2191.26 -3.91684 -1.39844 0
M  V30 22527 H 2189.84 -2.60089 -2.67223 0
M  V30 22528 N 2192.02 0.537252 -1.4816 0
M  V30 22529 C 2193.44 0.865105 -1.3412 0
M  V30 22530 C 2193.64 1.98495 -0.346713 0
M  V30 22531 O 2192.69 2.51407 0.234671 0
M  V30 22532 C 2194.01 1.23949 -2.73965 0
M  V30 22533 C 2195.56 1.34979 -2.824 0
M  V30 22534 C 2196.03 1.75764 -4.22931 0
M  V30 22535 N 2197.52 1.8288 -4.25569 0
M  V30 22536 C 2198.26 2.15808 -5.31239 0
M  V30 22537 N 2197.75 2.4721 -6.47193 0
M  V30 22538 N 2199.55 2.16752 -5.18628 0
M  V30 22539 H 2191.7 -0.201752 -2.1144 0
M  V30 22540 H 2193.96 -0.0276116 -0.947598 0
M  V30 22541 H 2193.67 0.49032 -3.48265 0
M  V30 22542 H 2193.54 2.19126 -3.07023 0
M  V30 22543 H 2195.93 2.08974 -2.0836 0
M  V30 22544 H 2196.01 0.379404 -2.52971 0
M  V30 22545 H 2195.65 1.02332 -4.97484 0
M  V30 22546 H 2195.58 2.7384 -4.49799 0
M  V30 22547 H 2198.07 1.60918 -3.41927 0
M  V30 22548 H 2198.39 2.7142 -7.23568 0
M  V30 22549 H 2196.73 2.44746 -6.5048 0
M  V30 22550 H 2199.92 1.91672 -4.27059 0
M  V30 22551 H 2200.09 2.42082 -6.01082 0
M  V30 22552 N 2193.5 1.36626 0.785562 0
M  V30 22553 C 2194.46 1.3111 1.87997 0
M  V30 22554 C 2195.46 0.217987 1.59316 0
M  V30 22555 O 2196.65 0.473006 1.67655 0
M  V30 22556 C 2193.79 1.03339 3.2486 0
M  V30 22557 H 2194.98 2.28444 1.94303 0
M  V30 22558 H 2192.53 1.21455 0.983792 0
M  V30 22559 H 2193.27 0.0648002 3.24235 0
M  V30 22560 H 2193.05 1.82447 3.47067 0
M  V30 22561 H 2194.54 1.02095 4.04928 0
M  V30 22562 N 2194.98 -1.01016 1.20969 0
M  V30 22563 C 2195.91 -2.09833 0.922096 0
M  V30 22564 C 2196.92 -1.62536 -0.092682 0
M  V30 22565 O 2198.11 -1.77957 0.139159 0
M  V30 22566 C 2195.21 -3.3696 0.362064 0
M  V30 22567 C 2194.39 -4.13366 1.42993 0
M  V30 22568 C 2193.44 -5.18788 0.880067 0
M  V30 22569 O 2192.47 -5.4734 1.56229 0
M  V30 22570 N 2193.67 -5.79686 -0.307294 0
M  V30 22571 H 2196.44 -2.3509 1.85884 0
M  V30 22572 H 2194 -1.17458 1.11424 0
M  V30 22573 H 2195.99 -4.04695 -0.0200762 0
M  V30 22574 H 2194.56 -3.08902 -0.479382 0
M  V30 22575 H 2193.78 -3.40509 1.98614 0
M  V30 22576 H 2195.07 -4.61192 2.14893 0
M  V30 22577 H 2194.47 -5.58834 -0.878698 0
M  V30 22578 H 2193.02 -6.48738 -0.631001 0
M  V30 22579 N 2196.46 -1.01661 -1.20428 0
M  V30 22580 C 2197.87 -0.731467 -1.41851 0
M  V30 22581 C 2198.07 0.688865 -1.89359 0
M  V30 22582 O 2197.13 1.45662 -2.06249 0
M  V30 22583 C 2198.44 -1.75718 -2.44016 0
M  V30 22584 C 2199.99 -1.77532 -2.57782 0
M  V30 22585 C 2200.46 -2.7903 -3.63189 0
M  V30 22586 N 2201.96 -2.7777 -3.70673 0
M  V30 22587 C 2202.69 -3.52962 -4.51891 0
M  V30 22588 N 2202.19 -4.3783 -5.36914 0
M  V30 22589 N 2203.98 -3.41559 -4.46424 0
M  V30 22590 H 2196.13 -1.93355 -0.879059 0
M  V30 22591 H 2198.39 -0.835244 -0.448411 0
M  V30 22592 H 2198.1 -2.77473 -2.16105 0
M  V30 22593 H 2197.97 -1.56933 -3.43004 0
M  V30 22594 H 2200.36 -0.764619 -2.85022 0
M  V30 22595 H 2200.44 -2.0039 -1.58989 0
M  V30 22596 H 2200.09 -3.80264 -3.36693 0
M  V30 22597 H 2200.02 -2.53433 -4.61605 0
M  V30 22598 H 2202.51 -2.16206 -3.09941 0
M  V30 22599 H 2202.82 -4.91973 -5.95972 0
M  V30 22600 H 2201.16 -4.41908 -5.36416 0
M  V30 22601 H 2204.36 -2.74679 -3.79037 0
M  V30 22602 H 2204.53 -4.00413 -5.09484 0
M  V30 22603 N 2197.93 1.36205 -0.792844 0
M  V30 22604 C 2199.35 1.5237 -0.47493 0
M  V30 22605 C 2199.55 1.7458 1.00619 0
M  V30 22606 O 2198.61 1.77927 1.79159 0
M  V30 22607 C 2199.92 2.70745 -1.30835 0
M  V30 22608 C 2201.47 2.84617 -1.30239 0
M  V30 22609 C 2201.94 4.06 -2.11963 0
M  V30 22610 N 2203.43 4.13152 -2.09427 0
M  V30 22611 C 2204.17 5.06158 -2.69428 0
M  V30 22612 N 2203.66 6.04586 -3.38301 0
M  V30 22613 N 2205.46 4.988 -2.59143 0
M  V30 22614 H 2197.61 1.20043 -1.75224 0
M  V30 22615 H 2199.87 0.586198 -0.745034 0
M  V30 22616 H 2199.58 2.60866 -2.35885 0
M  V30 22617 H 2199.45 3.64988 -0.952024 0
M  V30 22618 H 2201.84 2.93954 -0.259799 0
M  V30 22619 H 2201.92 1.91271 -1.6985 0
M  V30 22620 H 2201.56 3.97423 -3.16255 0
M  V30 22621 H 2201.49 4.985 -1.6972 0
M  V30 22622 H 2203.98 3.42682 -1.59303 0
M  V30 22623 H 2204.3 6.72123 -3.81405 0
M  V30 22624 H 2202.64 6.04801 -3.42404 0
M  V30 22625 H 2205.83 4.20855 -2.04935 0
M  V30 22626 H 2206.01 5.71094 -3.06195 0
M  V30 22627 N 2199.41 0.545154 1.47871 0
M  V30 22628 C 2200.66 0.0165886 2.02093 0
M  V30 22629 C 2200.98 -1.33317 1.42308 0
M  V30 22630 O 2200.25 -1.86681 0.593886 0
M  V30 22631 H 2198.83 0.00314351 0.746993 0
M  V30 22632 H 2201.49 0.712429 1.81412 0
M  V30 22633 H 2200.59 -0.0804873 3.11996 0
M  V30 22634 N 2200.89 -1.55074 0.28101 0
M  V30 22635 C 2202.31 -1.59433 -0.0729684 0
M  V30 22636 C 2202.51 -1.29819 -1.54108 0
M  V30 22637 O 2201.56 -1.06191 -2.29085 0
M  V30 22638 C 2202.88 -2.99129 0.306974 0
M  V30 22639 C 2204.42 -3.11967 0.254078 0
M  V30 22640 C 2204.9 -4.53939 0.608547 0
M  V30 22641 N 2206.39 -4.59798 0.560322 0
M  V30 22642 C 2207.12 -5.67688 0.807319 0
M  V30 22643 N 2206.62 -6.83699 1.11924 0
M  V30 22644 N 2208.41 -5.57264 0.735721 0
M  V30 22645 H 2200.56 -1.72588 1.23803 0
M  V30 22646 H 2202.83 -0.805073 0.500561 0
M  V30 22647 H 2202.53 -3.25655 1.32822 0
M  V30 22648 H 2202.41 -3.75579 -0.349297 0
M  V30 22649 H 2204.79 -2.85202 -0.75789 0
M  V30 22650 H 2204.88 -2.37717 0.94469 0
M  V30 22651 H 2204.52 -4.81431 1.61823 0
M  V30 22652 H 2204.45 -5.26497 -0.10392 0
M  V30 22653 H 2206.94 -3.76462 0.329354 0
M  V30 22654 H 2207.25 -7.61886 1.29422 0
M  V30 22655 H 2205.6 -6.853 1.15708 0
M  V30 22656 H 2208.79 -4.65509 0.491834 0
M  V30 22657 H 2208.96 -6.41269 0.931595 0
M  V30 22658 N 2202.37 -0.00838561 -1.57598 0
M  V30 22659 C 2203.6 0.685456 -1.95216 0
M  V30 22660 C 2204.01 1.6684 -0.883736 0
M  V30 22661 O 2203.37 1.81989 0.136533 0
M  V30 22662 C 2203.42 1.41001 -3.32868 0
M  V30 22663 O 2203.14 0.466475 -4.35609 0
M  V30 22664 C 2204.64 2.19759 -3.84995 0
M  V30 22665 H 2201.86 0.190381 -0.643425 0
M  V30 22666 H 2204.41 -0.0619966 -2.04406 0
M  V30 22667 H 2202.56 2.10902 -3.2496 0
M  V30 22668 H 2202.98 0.978608 -5.1529 0
M  V30 22669 H 2204.45 2.6594 -4.83715 0
M  V30 22670 H 2204.93 3.0279 -3.18142 0
M  V30 22671 H 2205.53 1.54857 -3.96105 0
M  V30 22672 N 2203.85 1.55365 0.264492 0
M  V30 22673 C 2205.1 1.76023 0.99299 0
M  V30 22674 C 2205.42 0.569132 1.8651 0
M  V30 22675 O 2204.69 -0.415701 1.91439 0
M  V30 22676 H 2203.27 0.649141 0.369627 0
M  V30 22677 H 2205.93 1.9278 0.286673 0
M  V30 22678 H 2205.02 2.6646 1.62498 0
M  V30 22679 N 2205.33 -0.529387 1.48443 0
M  V30 22680 C 2206.74 -0.85798 1.34577 0
M  V30 22681 C 2206.94 -1.98308 0.357235 0
M  V30 22682 O 2206 -2.51528 -0.221335 0
M  V30 22683 C 2207.31 -1.22495 2.74619 0
M  V30 22684 C 2208.86 -1.33479 2.83112 0
M  V30 22685 C 2209.33 -1.73519 4.23858 0
M  V30 22686 N 2210.82 -1.8062 4.26533 0
M  V30 22687 C 2211.56 -2.12987 5.32376 0
M  V30 22688 N 2211.06 -2.43774 6.48495 0
M  V30 22689 N 2212.85 -2.13998 5.1977 0
M  V30 22690 H 2205 0.212962 2.1133 0
M  V30 22691 H 2207.26 0.0326365 0.947438 0
M  V30 22692 H 2206.97 -0.471843 3.4852 0
M  V30 22693 H 2206.84 -2.17495 3.08181 0
M  V30 22694 H 2209.23 -2.07866 2.09465 0
M  V30 22695 H 2209.31 -0.365983 2.53168 0
M  V30 22696 H 2208.95 -0.996925 4.9802 0
M  V30 22697 H 2208.88 -2.71451 4.51245 0
M  V30 22698 H 2211.38 -1.59102 3.42775 0
M  V30 22699 H 2211.69 -2.67579 7.24998 0
M  V30 22700 H 2210.03 -2.41293 6.51769 0
M  V30 22701 H 2213.22 -1.89404 4.2807 0
M  V30 22702 H 2213.4 -2.38891 6.02358 0
M  V30 22703 N 2206.8 -1.37041 -0.778305 0
M  V30 22704 C 2208.05 -1.31626 -1.53359 0
M  V30 22705 C 2208.37 0.100797 -1.94739 0
M  V30 22706 O 2207.64 1.04344 -1.65799 0
M  V30 22707 H 2206.22 -0.484244 -0.568785 0
M  V30 22708 H 2208.88 -1.71459 -0.926712 0
M  V30 22709 H 2207.98 -1.951 -2.43603 0
M  V30 22710 N 2208.28 1.00373 -1.21503 0
M  V30 22711 C 2209.7 1.26537 -0.972652 0
M  V30 22712 C 2209.9 1.98607 0.340222 0
M  V30 22713 O 2208.95 2.28915 1.06557 0
M  V30 22714 C 2210.27 2.08778 -2.16408 0
M  V30 22715 C 2211.81 2.22 -2.20647 0
M  V30 22716 C 2212.29 3.07623 -3.39312 0
M  V30 22717 N 2213.78 3.15211 -3.39406 0
M  V30 22718 C 2214.52 3.81722 -4.27874 0
M  V30 22719 N 2214.01 4.50251 -5.26541 0
M  V30 22720 N 2215.8 3.78375 -4.15679 0
M  V30 22721 H 2207.96 0.520244 -2.0593 0
M  V30 22722 H 2210.22 0.292312 -0.901808 0
M  V30 22723 H 2209.92 1.63173 -3.11557 0
M  V30 22724 H 2209.8 3.09529 -2.15573 0
M  V30 22725 H 2212.19 2.66823 -1.26053 0
M  V30 22726 H 2212.27 1.20714 -2.25525 0
M  V30 22727 H 2211.91 2.63502 -4.342 0
M  V30 22728 H 2211.84 4.09025 -3.31672 0
M  V30 22729 H 2214.33 2.66428 -2.68001 0
M  V30 22730 H 2214.64 4.9871 -5.90346 0
M  V30 22731 H 2212.99 4.49034 -5.30465 0
M  V30 22732 H 2216.18 3.23992 -3.37856 0
M  V30 22733 H 2216.35 4.29932 -4.84833 0
M  V30 22734 N 2209.76 1.02298 1.19887 0
M  V30 22735 C 2210.98 0.735271 1.93929 0
M  V30 22736 C 2211.41 -0.698751 1.7464 0
M  V30 22737 O 2210.77 -1.48165 1.04483 0
M  V30 22738 C 2210.82 1.08423 3.43914 0
M  V30 22739 O 2209.92 0.199519 4.11917 0
M  V30 22740 H 2209.26 0.272207 0.60564 0
M  V30 22741 H 2211.79 1.36807 1.52135 0
M  V30 22742 H 2211.8 1.03863 3.94559 0
M  V30 22743 H 2210.48 2.12901 3.57276 0
M  V30 22744 H 2209.05 0.303201 3.71665 0
M  V30 22745 N 2211.24 -1.35782 0.800057 0
M  V30 22746 C 2212.49 -1.9856 0.376632 0
M  V30 22747 C 2212.81 -1.63797 -1.0581 0
M  V30 22748 O 2212.08 -0.917202 -1.73102 0
M  V30 22749 H 2210.66 -0.734465 0.136274 0
M  V30 22750 H 2213.32 -1.65804 1.02445 0
M  V30 22751 H 2212.41 -3.08432 0.477056 0
M  V30 22752 N 2212.72 -0.552988 -1.4758 0
M  V30 22753 C 2213.96 -0.025235 -2.01684 0
M  V30 22754 C 2214.28 1.33112 -1.4332 0
M  V30 22755 O 2215.48 1.94855 -1.89061 0
M  V30 22756 C 2213.94 0.00535725 -3.599 0
M  V30 22757 C 2213.55 -1.3475 -4.27255 0
M  V30 22758 C 2215.29 0.480725 -4.21769 0
M  V30 22759 C 2213.2 -1.27624 -5.77465 0
M  V30 22760 H 2212.13 -0.00566359 -0.753979 0
M  V30 22761 H 2214.78 -0.70021 -1.69615 0
M  V30 22762 H 2213.16 0.745892 -3.88912 0
M  V30 22763 H 2214.34 -2.10541 -4.09889 0
M  V30 22764 H 2212.65 -1.76046 -3.77355 0
M  V30 22765 H 2215.25 0.552366 -5.31839 0
M  V30 22766 H 2215.59 1.49177 -3.88654 0
M  V30 22767 H 2216.12 -0.204822 -3.97272 0
M  V30 22768 H 2212.86 -2.26315 -6.15192 0
M  V30 22769 H 2212.38 -0.560065 -5.97179 0
M  V30 22770 H 2214.06 -0.976533 -6.39588 0
M  V30 22771 N 2214.19 1.54923 -0.28923 0
M  V30 22772 C 2215.42 2.04013 0.325953 0
M  V30 22773 C 2215.83 1.16653 1.48959 0
M  V30 22774 O 2215.17 0.182232 1.82794 0
M  V30 22775 C 2215.24 3.49159 0.85605 0
M  V30 22776 C 2214.9 4.56642 -0.180778 0
M  V30 22777 C 2215.9 5.1009 -1.00519 0
M  V30 22778 C 2213.58 5.01285 -0.319086 0
M  V30 22779 C 2215.58 6.06712 -1.95396 0
M  V30 22780 C 2213.26 5.9773 -1.27132 0
M  V30 22781 C 2214.26 6.50325 -2.08724 0
M  V30 22782 O 2213.95 7.44882 -3.02335 0
M  V30 22783 H 2213.68 0.671656 0.0765158 0
M  V30 22784 H 2216.24 2.00991 -0.423289 0
M  V30 22785 H 2214.47 3.49466 1.65561 0
M  V30 22786 H 2216.15 3.81509 1.38584 0
M  V30 22787 H 2216.92 4.76403 -0.909143 0
M  V30 22788 H 2212.8 4.59983 0.306027 0
M  V30 22789 H 2216.34 6.47689 -2.59122 0
M  V30 22790 H 2212.24 6.30835 -1.36812 0
M  V30 22791 H 2213.01 7.62645 -2.97178 0
M  V30 22792 N 2215.67 0.0167433 1.57591 0
M  V30 22793 C 2217.09 -0.339529 1.55947 0
M  V30 22794 C 2217.29 -1.73711 1.02112 0
M  V30 22795 O 2216.34 -2.43658 0.662345 0
M  V30 22796 C 2217.66 -0.199446 3.00038 0
M  V30 22797 C 2219.2 -0.273139 3.11806 0
M  V30 22798 C 2219.68 -0.161988 4.57713 0
M  V30 22799 N 2221.17 -0.219363 4.6268 0
M  V30 22800 C 2221.91 -0.156954 5.73185 0
M  V30 22801 N 2221.4 -0.0441718 6.92786 0
M  V30 22802 N 2223.19 -0.210041 5.61707 0
M  V30 22803 H 2215.35 0.930792 1.90919 0
M  V30 22804 H 2217.61 0.358334 0.877668 0
M  V30 22805 H 2217.31 0.76279 3.43328 0
M  V30 22806 H 2217.19 -0.974722 3.64389 0
M  V30 22807 H 2219.58 -1.22583 2.68435 0
M  V30 22808 H 2219.66 0.5323 2.502 0
M  V30 22809 H 2219.3 0.787228 5.01762 0
M  V30 22810 H 2219.23 -0.986131 5.17284 0
M  V30 22811 H 2221.72 -0.30718 3.76649 0
M  V30 22812 H 2222.03 -0.00290485 7.728 0
M  V30 22813 H 2220.38 -0.00956241 6.94999 0
M  V30 22814 H 2223.57 -0.296464 4.6716 0
M  V30 22815 H 2223.74 -0.15794 6.47807 0
M  V30 22816 N 2217.15 -1.55503 -0.256249 0
M  V30 22817 C 2218.4 -1.76897 -0.985588 0
M  V30 22818 C 2218.73 -0.579387 -1.8567 0
M  V30 22819 O 2217.98 0.437617 -1.90744 0
M  V30 22820 C 2218.28 -3.03694 -1.88427 0
M  V30 22821 C 2217.95 -4.35475 -1.16928 0
M  V30 22822 C 2216.61 -4.71288 -0.971647 0
M  V30 22823 C 2218.96 -5.16981 -0.661798 0
M  V30 22824 C 2216.29 -5.8615 -0.254076 0
M  V30 22825 C 2218.64 -6.32586 0.0422602 0
M  V30 22826 C 2217.3 -6.67026 0.251457 0
M  V30 22827 H 2216.57 -0.647311 -0.360652 0
M  V30 22828 H 2219.22 -1.89775 -0.256449 0
M  V30 22829 H 2217.53 -2.85788 -2.68016 0
M  V30 22830 H 2219.22 -3.17445 -2.4501 0
M  V30 22831 H 2215.81 -4.07336 -1.33325 0
M  V30 22832 H 2220 -4.89776 -0.802059 0
M  V30 22833 H 2215.25 -6.11346 -0.0814334 0
M  V30 22834 H 2219.43 -6.94988 0.443171 0
M  V30 22835 H 2217.05 -7.55878 0.809447 0
M  V30 22836 N 2218.63 0.521507 -1.48721 0
M  V30 22837 C 2219.87 1.27876 -1.57403 0
M  V30 22838 C 2220.21 1.92573 -0.25085 0
M  V30 22839 O 2219.48 1.79712 0.743902 0
M  V30 22840 C 2219.77 2.36159 -2.71847 0
M  V30 22841 C 2219.62 1.76098 -4.13896 0
M  V30 22842 C 2220.94 3.3787 -2.82014 0
M  V30 22843 H 2218.06 0.463571 -0.572949 0
M  V30 22844 H 2220.7 0.580088 -1.80928 0
M  V30 22845 H 2218.85 2.95752 -2.51919 0
M  V30 22846 H 2220.52 1.20491 -4.45286 0
M  V30 22847 H 2218.76 1.06594 -4.205 0
M  V30 22848 H 2219.43 2.54541 -4.89809 0
M  V30 22849 H 2221.91 2.88244 -3.00091 0
M  V30 22850 H 2220.79 4.11021 -3.63803 0
M  V30 22851 H 2221.05 3.98943 -1.90518 0
M  V30 22852 N 2220.11 1.37452 0.771027 0
M  V30 22853 C 2221.33 1.35895 1.56013 0
M  V30 22854 C 2221.75 -0.0555192 1.88718 0
M  V30 22855 O 2221.11 -1.0175 1.51503 0
M  V30 22856 C 2221.16 2.19806 2.86997 0
M  V30 22857 O 2220.88 3.55742 2.55694 0
M  V30 22858 C 2222.38 2.26237 3.81224 0
M  V30 22859 H 2219.6 0.465461 0.483308 0
M  V30 22860 H 2222.14 1.80801 0.955579 0
M  V30 22861 H 2220.3 1.78408 3.43874 0
M  V30 22862 H 2220.71 3.99735 3.39577 0
M  V30 22863 H 2222.19 2.89271 4.70134 0
M  V30 22864 H 2222.66 1.271 4.20407 0
M  V30 22865 H 2223.27 2.67951 3.30276 0
M  V30 22866 N 2221.58 -0.997276 1.22033 0
M  V30 22867 C 2223 -1.5507 1.03973 0
M  V30 22868 C 2223.35 -1.92118 -0.398158 0
M  V30 22869 O 2222.47 -1.743 -1.28251 0
M  V30 22870 C 2223.07 -2.81778 1.88114 0
M  V30 22871 C 2221.63 -3.33578 1.74363 0
M  V30 22872 C 2220.77 -2.06702 1.8485 0
M  V30 22873 H 2223.72 -0.818859 1.35943 0
M  V30 22874 H 2223.74 -3.53968 1.39595 0
M  V30 22875 H 2223.26 -2.54782 2.92759 0
M  V30 22876 H 2221.36 -3.65492 0.724334 0
M  V30 22877 H 2221.47 -4.04477 2.56779 0
M  V30 22878 H 2219.83 -2.20059 1.28242 0
M  V30 22879 H 2220.62 -1.82109 2.91017 0
M  V30 22880 N 2223.06 -1.02932 -1.19343 0
M  V30 22881 C 2224.31 -0.724607 -1.88663 0
M  V30 22882 C 2224.63 0.749112 -1.80037 0
M  V30 22883 O 2223.9 1.53976 -1.21113 0
M  V30 22884 H 2222.48 -0.265037 -0.698401 0
M  V30 22885 H 2225.14 -1.30365 -1.44883 0
M  V30 22886 H 2224.24 -1.01931 -2.94985 0
M  V30 22887 N 2224.54 1.35356 -0.807246 0
M  V30 22888 C 2225.45 2.3357 -0.219635 0
M  V30 22889 C 2226.47 1.61893 0.637705 0
M  V30 22890 O 2227.64 1.93764 0.549302 0
M  V30 22891 C 2224.71 3.41084 0.62152 0
M  V30 22892 C 2223.77 4.28534 -0.25639 0
M  V30 22893 C 2223 5.30913 0.544713 0
M  V30 22894 O 2223.22 5.41937 1.77935 0
M  V30 22895 O 2222.16 6.01865 -0.0647536 0
M  V30 22896 H 2225.98 2.85624 -1.03213 0
M  V30 22897 H 2223.57 1.38138 -0.569049 0
M  V30 22898 H 2225.45 4.06774 1.1006 0
M  V30 22899 H 2224.13 2.913 1.4116 0
M  V30 22900 H 2223.03 3.65822 -0.782623 0
M  V30 22901 H 2224.37 4.81717 -1.01043 0
M  V30 22902 N 2226.02 0.560807 1.47284 0
M  V30 22903 C 2227.43 0.220837 1.58065 0
M  V30 22904 C 2227.63 -1.27668 1.55894 0
M  V30 22905 O 2226.69 -2.05708 1.46426 0
M  V30 22906 C 2228 0.850676 2.88416 0
M  V30 22907 C 2229.55 0.822237 3.02007 0
M  V30 22908 C 2230.03 1.43121 4.35064 0
M  V30 22909 N 2231.52 1.39456 4.41708 0
M  V30 22910 C 2232.25 1.83534 5.43234 0
M  V30 22911 N 2231.75 2.35485 6.51551 0
M  V30 22912 N 2233.54 1.74583 5.34301 0
M  V30 22913 H 2225.69 1.53371 1.46939 0
M  V30 22914 H 2227.96 0.639795 0.699547 0
M  V30 22915 H 2227.66 1.90326 2.95752 0
M  V30 22916 H 2227.54 0.345839 3.75611 0
M  V30 22917 H 2229.92 -0.221663 2.94266 0
M  V30 22918 H 2230 1.36487 2.16345 0
M  V30 22919 H 2229.65 2.4742 4.43561 0
M  V30 22920 H 2229.58 0.86399 5.19464 0
M  V30 22921 H 2232.07 1.01459 3.64026 0
M  V30 22922 H 2232.38 2.67034 7.25198 0
M  V30 22923 H 2230.73 2.39498 6.5243 0
M  V30 22924 H 2233.92 1.33771 4.48579 0
M  V30 22925 H 2234.09 2.09253 6.13284 0
M  V30 22926 N 2227.5 -1.54768 0.297442 0
M  V30 22927 C 2228.91 -1.85669 -0.195914 0
M  V30 22928 C 2229.26 -1.2194 -1.53704 0
M  V30 22929 O 2228.38 -0.515791 -2.10163 0
M  V30 22930 C 2228.98 -3.36858 -0.362259 0
M  V30 22931 C 2227.54 -3.67804 -0.799836 0
M  V30 22932 C 2226.68 -2.77141 0.0939065 0
M  V30 22933 H 2229.64 -1.49989 0.518565 0
M  V30 22934 H 2229.66 -3.61169 -1.19739 0
M  V30 22935 H 2229.17 -3.83212 0.613988 0
M  V30 22936 H 2227.27 -3.26964 -1.78676 0
M  V30 22937 H 2227.38 -4.75049 -0.62169 0
M  V30 22938 H 2225.75 -2.51109 -0.42621 0
M  V30 22939 H 2226.53 -3.26316 1.06644 0
M  V30 22940 N 2228.97 -0.0251005 -1.5758 0
M  V30 22941 C 2230.2 0.668282 -1.96338 0
M  V30 22942 C 2230.62 1.65098 -0.901343 0
M  V30 22943 O 2229.98 1.80773 0.138155 0
M  V30 22944 C 2230.03 1.35451 -3.34194 0
M  V30 22945 O 2229.13 2.46968 -3.30273 0
M  V30 22946 H 2228.48 0.175876 -0.640284 0
M  V30 22947 H 2231.01 -0.0857583 -2.0442 0
M  V30 22948 H 2231.02 1.71222 -3.70334 0
M  V30 22949 H 2229.69 0.634146 -4.11037 0
M  V30 22950 H 2228.27 2.13339 -3.05845 0
M  V30 22951 N 2230.45 1.55637 0.247999 0
M  V30 22952 C 2231.7 1.77066 0.974264 0
M  V30 22953 C 2232.02 0.588882 1.85896 0
M  V30 22954 O 2231.29 -0.395373 1.91869 0
M  V30 22955 H 2229.87 0.653025 0.362722 0
M  V30 22956 H 2232.53 1.93073 0.26621 0
M  V30 22957 H 2231.63 2.68168 1.59662 0
M  V30 22958 N 2231.93 -0.513613 1.48996 0
M  V30 22959 C 2232.86 -1.63376 1.59322 0
M  V30 22960 C 2233.84 -1.56453 0.442844 0
M  V30 22961 O 2235.03 -1.76692 0.656686 0
M  V30 22962 C 2232.15 -3.01846 1.53645 0
M  V30 22963 C 2231.2 -3.27073 2.73725 0
M  V30 22964 S 2232.03 -3.11563 4.35533 0
M  V30 22965 C 2233.19 -4.5245 4.32481 0
M  V30 22966 H 2233.42 -1.5437 2.54081 0
M  V30 22967 H 2230.95 -0.697824 1.37731 0
M  V30 22968 H 2232.91 -3.81697 1.51056 0
M  V30 22969 H 2231.57 -3.08278 0.601952 0
M  V30 22970 H 2230.77 -4.28128 2.65938 0
M  V30 22971 H 2230.37 -2.54922 2.73662 0
M  V30 22972 H 2232.66 -5.44294 4.03423 0
M  V30 22973 H 2233.6 -4.6529 5.33771 0
M  V30 22974 H 2234.01 -4.32539 3.62726 0
M  V30 22975 N 2233.41 -1.37859 -0.763727 0
M  V30 22976 C 2234.66 -1.33509 -1.52255 0
M  V30 22977 C 2234.98 0.0779878 -1.94344 0
M  V30 22978 O 2234.24 1.05294 -1.6496 0
M  V30 22979 C 2234.54 -2.2275 -2.79495 0
M  V30 22980 C 2234.2 -3.70891 -2.56419 0
M  V30 22981 C 2232.87 -4.11262 -2.49835 0
M  V30 22982 C 2235.22 -4.64708 -2.36 0
M  V30 22983 C 2232.55 -5.43553 -2.20832 0
M  V30 22984 C 2234.9 -5.97246 -2.08519 0
M  V30 22985 C 2233.56 -6.36712 -2.00384 0
M  V30 22986 H 2232.83 -0.488544 -0.55714 0
M  V30 22987 H 2235.48 -1.70133 -0.879043 0
M  V30 22988 H 2233.78 -1.79148 -3.48444 0
M  V30 22989 H 2235.48 -2.16694 -3.37409 0
M  V30 22990 H 2232.07 -3.38879 -2.62411 0
M  V30 22991 H 2236.26 -4.34372 -2.40072 0
M  V30 22992 H 2231.51 -5.73085 -2.13035 0
M  V30 22993 H 2235.69 -6.6949 -1.9172 0
M  V30 22994 H 2233.31 -7.39145 -1.77675 0
M  V30 22995 N 2234.89 0.990791 -1.22561 0
M  V30 22996 C 2236.16 1.70426 -0.959905 0
M  V30 22997 C 2236.54 2.04482 0.524419 0
M  V30 22998 O 2235.89 1.7298 1.49299 0
M  V30 22999 C 2236.1 2.9533 -1.8596 0
M  V30 23000 C 2237.45 3.68064 -2.11693 0
M  V30 23001 O 2238.47 3.05342 -1.83425 0
M  V30 23002 O 2237.33 4.80916 -2.5958 0
M  V30 23003 H 2234.43 0.743967 -0.361167 0
M  V30 23004 H 2236.97 1.04695 -1.33556 0
M  V30 23005 H 2235.75 2.66682 -2.86351 0
M  V30 23006 H 2235.37 3.68801 -1.48566 0
M  V30 23007 N 2236.37 1.03564 1.18795 0
M  V30 23008 C 2237.59 0.755798 1.93138 0
M  V30 23009 C 2238.02 -0.680189 1.75371 0
M  V30 23010 O 2237.37 -1.47049 1.06049 0
M  V30 23011 C 2237.42 1.12064 3.42745 0
M  V30 23012 O 2236.53 0.243197 4.11682 0
M  V30 23013 H 2235.87 0.278615 0.602719 0
M  V30 23014 H 2238.4 1.38413 1.50675 0
M  V30 23015 H 2238.41 1.08042 3.93435 0
M  V30 23016 H 2237.08 2.16678 3.54998 0
M  V30 23017 H 2235.66 0.342604 3.71323 0
M  V30 23018 N 2237.84 -1.34926 0.814413 0
M  V30 23019 C 2239.07 -2.03304 0.410133 0
M  V30 23020 C 2239.49 -1.60953 -0.973436 0
M  V30 23021 O 2238.85 -0.789993 -1.63183 0
M  V30 23022 C 2238.9 -3.56967 0.510553 0
M  V30 23023 O 2238 -4.09679 -0.472963 0
M  V30 23024 H 2237.34 -0.641843 0.170099 0
M  V30 23025 H 2239.87 -1.72356 1.10247 0
M  V30 23026 H 2239.88 -4.06196 0.383206 0
M  V30 23027 H 2238.56 -3.87141 1.5197 0
M  V30 23028 H 2237.14 -3.71649 -0.305206 0
M  V30 23029 N 2239.32 -0.56861 -1.46985 0
M  V30 23030 C 2240.57 -0.0489066 -2.02741 0
M  V30 23031 C 2240.9 1.30211 -1.44079 0
M  V30 23032 O 2240.18 1.84995 -0.600585 0
M  V30 23033 C 2240.46 0.0319837 -3.60086 0
M  V30 23034 C 2240.31 -1.34693 -4.29159 0
M  V30 23035 C 2241.63 0.739722 -4.33839 0
M  V30 23036 H 2238.75 -0.0192468 -0.736749 0
M  V30 23037 H 2241.39 -0.733096 -1.75287 0
M  V30 23038 H 2239.54 0.614663 -3.83607 0
M  V30 23039 H 2241.21 -1.97369 -4.16945 0
M  V30 23040 H 2239.46 -1.91853 -3.89069 0
M  V30 23041 H 2240.13 -1.24294 -5.37824 0
M  V30 23042 H 2242.6 0.244866 -4.15379 0
M  V30 23043 H 2241.48 0.765311 -5.43539 0
M  V30 23044 H 2241.74 1.79819 -4.03878 0
M  V30 23045 N 2240.8 1.54608 -0.305646 0
M  V30 23046 C 2241.73 2.2665 0.561442 0
M  V30 23047 C 2242.71 1.26774 1.13412 0
M  V30 23048 O 2243.9 1.55555 1.1626 0
M  V30 23049 C 2241.03 3.01078 1.73116 0
M  V30 23050 C 2239.98 4.0814 1.28863 0
M  V30 23051 C 2239.31 4.70309 2.54388 0
M  V30 23052 C 2240.61 5.20637 0.416487 0
M  V30 23053 H 2242.3 2.99374 -0.0394428 0
M  V30 23054 H 2239.85 1.43986 -0.0204103 0
M  V30 23055 H 2241.8 3.50199 2.34389 0
M  V30 23056 H 2240.52 2.2594 2.35836 0
M  V30 23057 H 2239.18 3.59876 0.698928 0
M  V30 23058 H 2238.83 3.91806 3.15432 0
M  V30 23059 H 2238.53 5.42618 2.25476 0
M  V30 23060 H 2240.05 5.22196 3.16455 0
M  V30 23061 H 2241.47 5.65624 0.935017 0
M  V30 23062 H 2239.86 5.99693 0.220941 0
M  V30 23063 H 2240.93 4.81687 -0.557246 0
M  V30 23064 N 2242.28 0.033457 1.57564 0
M  V30 23065 C 2243.52 -0.648345 1.93845 0
M  V30 23066 C 2243.88 -1.69043 0.910416 0
M  V30 23067 O 2245.08 -2.42503 1.15956 0
M  V30 23068 C 2243.35 -1.24487 3.35019 0
M  V30 23069 S 2244.91 -1.94714 3.93233 0
M  V30 23070 H 2241.73 -0.213352 0.678234 0
M  V30 23071 H 2244.33 0.0981596 1.95253 0
M  V30 23072 H 2243.04 -0.474057 4.07653 0
M  V30 23073 H 2242.57 -2.02858 3.37064 0
M  V30 23074 H 2244.58 -3.226 3.7702 0
M  V30 23075 N 2243.76 -1.55766 -0.239741 0
M  V30 23076 C 2244.67 -1.94058 -1.31828 0
M  V30 23077 C 2245.68 -0.841952 -1.52273 0
M  V30 23078 O 2246.86 -1.14397 -1.65757 0
M  V30 23079 C 2243.92 -2.23372 -2.65152 0
M  V30 23080 C 2242.98 -3.46706 -2.53167 0
M  V30 23081 C 2242.22 -3.74612 -3.80133 0
M  V30 23082 O 2242.44 -3.04477 -4.82338 0
M  V30 23083 O 2241.37 -4.6813 -3.78336 0
M  V30 23084 H 2245.2 -2.85937 -1.02342 0
M  V30 23085 H 2242.78 -1.4274 -0.441098 0
M  V30 23086 H 2244.67 -2.43503 -3.43925 0
M  V30 23087 H 2243.34 -1.34671 -2.94356 0
M  V30 23088 H 2242.25 -3.31874 -1.72656 0
M  V30 23089 H 2243.58 -4.35732 -2.28907 0
M  V30 23090 N 2245.23 0.505704 -1.49266 0
M  V30 23091 C 2246.47 1.27035 -1.6013 0
M  V30 23092 C 2246.84 1.89953 -0.27959 0
M  V30 23093 O 2248.04 2.67507 -0.263376 0
M  V30 23094 C 2246.31 2.31241 -2.72511 0
M  V30 23095 S 2247.87 3.17107 -3.03296 0
M  V30 23096 H 2244.69 0.43179 -0.56487 0
M  V30 23097 H 2247.29 0.573364 -1.86903 0
M  V30 23098 H 2245.99 1.8354 -3.67071 0
M  V30 23099 H 2245.52 3.05615 -2.47716 0
M  V30 23100 H 2247.54 4.31805 -2.44456 0
M  V30 23101 N 2246.71 1.38262 0.756405 0
M  V30 23102 C 2247.94 1.37343 1.54339 0
M  V30 23103 C 2248.35 -0.0393584 1.89159 0
M  V30 23104 O 2247.69 -1.01562 1.53071 0
M  V30 23105 C 2247.76 2.16187 2.87234 0
M  V30 23106 C 2247.42 3.65024 2.74967 0
M  V30 23107 C 2248.42 4.58578 2.44954 0
M  V30 23108 C 2246.1 4.08344 2.92508 0
M  V30 23109 C 2248.1 5.93432 2.32632 0
M  V30 23110 C 2245.78 5.43279 2.79806 0
M  V30 23111 C 2246.78 6.35637 2.4991 0
M  V30 23112 O 2246.47 7.6809 2.37262 0
M  V30 23113 H 2246.2 0.471652 0.484273 0
M  V30 23114 H 2248.75 1.82416 0.94412 0
M  V30 23115 H 2246.98 1.65828 3.49339 0
M  V30 23116 H 2248.67 2.07711 3.48728 0
M  V30 23117 H 2249.44 4.26416 2.31073 0
M  V30 23118 H 2245.32 3.36805 3.14775 0
M  V30 23119 H 2248.86 6.65487 2.09219 0
M  V30 23120 H 2244.76 5.75039 2.93259 0
M  V30 23121 H 2245.53 7.78581 2.52495 0
M  V30 23122 N 2248.19 -0.984277 1.23084 0
M  V30 23123 C 2249.47 -1.69915 0.968929 0
M  V30 23124 C 2249.85 -2.04758 -0.513568 0
M  V30 23125 O 2249.2 -1.73769 -1.4838 0
M  V30 23126 C 2249.41 -2.9434 1.87524 0
M  V30 23127 C 2250.75 -3.66936 2.13642 0
M  V30 23128 O 2251.78 -3.04365 1.85042 0
M  V30 23129 O 2250.64 -4.79533 2.62127 0
M  V30 23130 H 2247.73 -0.742041 0.365108 0
M  V30 23131 H 2250.28 -1.03985 1.34109 0
M  V30 23132 H 2249.05 -2.65159 2.87761 0
M  V30 23133 H 2248.67 -3.68007 1.5052 0
M  V30 23134 N 2249.67 -1.04192 -1.18244 0
M  V30 23135 C 2250.63 -0.638491 -2.20127 0
M  V30 23136 C 2251.63 0.304777 -1.57885 0
M  V30 23137 O 2252.82 0.0900063 -1.73967 0
M  V30 23138 C 2249.95 0.0637152 -3.4084 0
M  V30 23139 H 2251.15 -1.54012 -2.57333 0
M  V30 23140 H 2248.7 -0.834621 -1.32151 0
M  V30 23141 H 2249.43 0.979081 -3.09167 0
M  V30 23142 H 2249.22 -0.614266 -3.87259 0
M  V30 23143 H 2250.71 0.332439 -4.16275 0
M  V30 23144 N 2251.15 1.34492 -0.821557 0
M  V30 23145 C 2252.39 1.97935 -0.408173 0
M  V30 23146 C 2252.72 1.65459 1.0319 0
M  V30 23147 O 2251.99 0.944625 1.71621 0
M  V30 23148 H 2250.57 0.732204 -0.147941 0
M  V30 23149 H 2253.23 1.64153 -1.0507 0
M  V30 23150 H 2252.32 3.07634 -0.526065 0
M  V30 23151 N 2252.62 0.576397 1.46681 0
M  V30 23152 C 2253.86 0.0621715 2.04305 0
M  V30 23153 C 2254.23 -1.27118 1.43893 0
M  V30 23154 O 2255.43 -1.87426 1.92679 0
M  V30 23155 C 2253.7 -0.00921639 3.57399 0
M  V30 23156 S 2255.26 -0.466783 4.3631 0
M  V30 23157 H 2252.08 0.0344141 0.710167 0
M  V30 23158 H 2254.68 0.767469 1.79806 0
M  V30 23159 H 2253.38 0.965249 3.98887 0
M  V30 23160 H 2252.91 -0.73748 3.86426 0
M  V30 23161 H 2254.93 -1.72278 4.65333 0
M  V30 23162 N 2254.1 -1.54444 0.313841 0
M  V30 23163 C 2255.07 -2.22657 -0.543751 0
M  V30 23164 C 2256.07 -1.2168 -1.05122 0
M  V30 23165 O 2257.26 -1.46327 -0.945199 0
M  V30 23166 C 2254.39 -2.92301 -1.75422 0
M  V30 23167 H 2255.58 -2.99854 0.0524126 0
M  V30 23168 H 2253.13 -1.56166 0.0648109 0
M  V30 23169 H 2253.87 -2.19216 -2.38987 0
M  V30 23170 H 2253.65 -3.66337 -1.39785 0
M  V30 23171 H 2255.14 -3.44301 -2.36319 0
M  V30 23172 N 2255.58 -0.0418125 -1.57545 0
M  V30 23173 C 2256.83 0.629134 -1.93426 0
M  V30 23174 C 2257.18 1.69001 -0.919594 0
M  V30 23175 O 2256.47 1.91498 0.0625841 0
M  V30 23176 C 2256.67 1.27729 -3.33796 0
M  V30 23177 C 2256.5 0.280727 -4.48823 0
M  V30 23178 C 2255.27 -0.123957 -5.05148 0
M  V30 23179 C 2257.47 -0.470102 -5.12147 0
M  V30 23180 N 2255.45 -1.11436 -6.03701 0
M  V30 23181 C 2256.82 -1.31387 -6.05919 0
M  V30 23182 C 2258.87 -0.52943 -4.95077 0
M  V30 23183 C 2257.58 -2.21164 -6.84455 0
M  V30 23184 C 2259.6 -1.41458 -5.74233 0
M  V30 23185 C 2258.96 -2.2461 -6.6763 0
M  V30 23186 H 2255.06 0.202145 -0.755421 0
M  V30 23187 H 2257.65 -0.111957 -1.94378 0
M  V30 23188 H 2255.82 1.98846 -3.33639 0
M  V30 23189 H 2257.55 1.90629 -3.56991 0
M  V30 23190 H 2254.31 0.253095 -4.72923 0
M  V30 23191 H 2254.73 -1.60618 -6.57671 0
M  V30 23192 H 2259.37 0.0992055 -4.22684 0
M  V30 23193 H 2257.09 -2.85077 -7.56146 0
M  V30 23194 H 2260.68 -1.46494 -5.63055 0
M  V30 23195 H 2259.56 -2.91993 -7.27812 0
M  V30 23196 N 2257.06 1.55891 0.231477 0
M  V30 23197 C 2258.29 1.8225 0.97306 0
M  V30 23198 C 2258.7 0.617359 1.78844 0
M  V30 23199 O 2258.04 -0.423468 1.78752 0
M  V30 23200 C 2258.1 3.02195 1.94727 0
M  V30 23201 C 2257.77 4.37601 1.31735 0
M  V30 23202 C 2258.76 5.14999 0.712147 0
M  V30 23203 C 2256.45 4.84315 1.33209 0
M  V30 23204 C 2258.44 6.37267 0.130083 0
M  V30 23205 C 2256.13 6.06527 0.746179 0
M  V30 23206 C 2257.13 6.82843 0.146217 0
M  V30 23207 O 2256.81 8.02746 -0.430606 0
M  V30 23208 H 2256.55 0.610046 0.29124 0
M  V30 23209 H 2259.1 2.03812 0.254879 0
M  V30 23210 H 2257.33 2.76426 2.70417 0
M  V30 23211 H 2259.02 3.15512 2.55356 0
M  V30 23212 H 2259.79 4.80021 0.693156 0
M  V30 23213 H 2255.66 4.24894 1.78846 0
M  V30 23214 H 2259.21 6.96777 -0.338832 0
M  V30 23215 H 2255.11 6.4098 0.76255 0
M  V30 23216 H 2255.87 8.17859 -0.323962 0
M  V30 23217 N 2258.54 -0.497781 1.49532 0
M  V30 23218 C 2259.45 -1.62529 1.69179 0
M  V30 23219 C 2260.46 -1.64245 0.574429 0
M  V30 23220 O 2261.64 -1.82606 0.849529 0
M  V30 23221 C 2258.7 -2.98882 1.757 0
M  V30 23222 C 2257.76 -3.07768 2.99295 0
M  V30 23223 C 2257 -4.37616 3.05496 0
M  V30 23224 O 2257.22 -5.26599 2.19201 0
M  V30 23225 O 2256.15 -4.51541 3.97988 0
M  V30 23226 H 2259.98 -1.48883 2.64703 0
M  V30 23227 H 2257.57 -0.674418 1.33312 0
M  V30 23228 H 2259.45 -3.79916 1.82324 0
M  V30 23229 H 2258.12 -3.12784 0.833555 0
M  V30 23230 H 2257.03 -2.2591 2.98187 0
M  V30 23231 H 2258.36 -2.98794 3.9113 0
M  V30 23232 N 2260.01 -1.38661 -0.749062 0
M  V30 23233 C 2260.94 -1.38976 -1.87637 0
M  V30 23234 C 2261.93 -0.255034 -1.68177 0
M  V30 23235 O 2263.11 -0.458787 -1.88703 0
M  V30 23236 C 2260.24 -1.21857 -3.2522 0
M  V30 23237 C 2259.19 -2.32581 -3.59291 0
M  V30 23238 C 2258.52 -2.00563 -4.9566 0
M  V30 23239 C 2259.82 -3.74857 -3.63703 0
M  V30 23240 H 2261.51 -2.33313 -1.87631 0
M  V30 23241 H 2259.06 -1.12305 -0.90131 0
M  V30 23242 H 2261.01 -1.20702 -4.03744 0
M  V30 23243 H 2259.74 -0.239832 -3.25718 0
M  V30 23244 H 2258.4 -2.3293 -2.83089 0
M  V30 23245 H 2258.04 -1.01162 -4.92722 0
M  V30 23246 H 2257.74 -2.74723 -5.19424 0
M  V30 23247 H 2259.27 -2.01034 -5.76557 0
M  V30 23248 H 2260.68 -3.76514 -4.32331 0
M  V30 23249 H 2259.08 -4.48259 -3.98978 0
M  V30 23250 H 2260.15 -4.06846 -2.63826 0
M  V30 23251 N 2261.49 0.977736 -1.23605 0
M  V30 23252 C 2262.72 1.75456 -1.09649 0
M  V30 23253 C 2263.14 1.85493 0.351826 0
M  V30 23254 O 2262.49 1.33602 1.24325 0
M  V30 23255 C 2262.54 3.18013 -1.71901 0
M  V30 23256 O 2262.27 3.08493 -3.11069 0
M  V30 23257 C 2263.77 4.12078 -1.63422 0
M  V30 23258 H 2260.99 0.550538 -0.383599 0
M  V30 23259 H 2263.53 1.22821 -1.63509 0
M  V30 23260 H 2261.69 3.67666 -1.22067 0
M  V30 23261 H 2262.1 3.98254 -3.41312 0
M  V30 23262 H 2263.57 5.098 -2.11678 0
M  V30 23263 H 2264.05 4.35171 -0.593538 0
M  V30 23264 H 2264.66 3.6833 -2.12634 0
M  V30 23265 N 2262.97 1.04818 1.1769 0
M  V30 23266 C 2264.38 0.782728 1.695 0
M  V30 23267 C 2264.73 -0.695545 1.83457 0
M  V30 23268 O 2263.86 -1.54084 1.51945 0
M  V30 23269 C 2264.45 1.41424 3.07871 0
M  V30 23270 C 2263.01 1.19693 3.56862 0
M  V30 23271 C 2262.16 1.50016 2.33218 0
M  V30 23272 H 2265.11 1.21362 1.0226 0
M  V30 23273 H 2265.13 0.821494 3.71526 0
M  V30 23274 H 2264.64 2.49014 2.97681 0
M  V30 23275 H 2262.74 0.140109 3.72336 0
M  V30 23276 H 2262.86 1.89924 4.39847 0
M  V30 23277 H 2261.22 0.920113 2.375 0
M  V30 23278 H 2262 2.58731 2.25639 0
M  V30 23279 N 2264.45 -1.34055 0.828678 0
M  V30 23280 C 2265.41 -2.27721 0.259967 0
M  V30 23281 C 2266.41 -1.5053 -0.565451 0
M  V30 23282 O 2267.6 -1.69989 -0.38072 0
M  V30 23283 C 2264.73 -3.34936 -0.634885 0
M  V30 23284 H 2265.93 -2.79532 1.08635 0
M  V30 23285 H 2263.48 -1.44284 0.600977 0
M  V30 23286 H 2264.22 -2.88348 -1.48411 0
M  V30 23287 H 2264 -3.92075 -0.044431 0
M  V30 23288 H 2265.49 -4.0479 -1.02641 0
M  V30 23289 N 2265.93 -0.584167 -1.46374 0
M  V30 23290 C 2266.84 0.150686 -2.34116 0
M  V30 23291 C 2267.85 0.884541 -1.4984 0
M  V30 23292 O 2269.03 0.847397 -1.82705 0
M  V30 23293 C 2266.09 1.15056 -3.27052 0
M  V30 23294 C 2265.16 0.421218 -4.27229 0
M  V30 23295 C 2264.39 1.37346 -5.15725 0
M  V30 23296 O 2264.61 2.61006 -5.07181 0
M  V30 23297 O 2263.55 0.88325 -5.95384 0
M  V30 23298 H 2267.37 -0.56976 -2.98308 0
M  V30 23299 H 2264.96 -0.34456 -1.45372 0
M  V30 23300 H 2266.84 1.72705 -3.84384 0
M  V30 23301 H 2265.51 1.85245 -2.65454 0
M  V30 23302 H 2264.42 -0.197151 -3.7358 0
M  V30 23303 H 2265.75 -0.239727 -4.91616 0
M  V30 23304 N 2267.41 1.54275 -0.322027 0
M  V30 23305 C 2268.63 2.04955 0.283016 0
M  V30 23306 C 2269.05 1.19825 1.45902 0
M  V30 23307 O 2268.41 0.228576 1.81063 0
M  V30 23308 C 2268.46 3.54278 0.718966 0
M  V30 23309 O 2268.18 4.36175 -0.410252 0
M  V30 23310 C 2269.68 4.21044 1.38698 0
M  V30 23311 H 2266.9 0.668449 0.0584499 0
M  V30 23312 H 2269.44 1.99078 -0.467769 0
M  V30 23313 H 2267.6 3.60448 1.41973 0
M  V30 23314 H 2268.01 5.24457 -0.0670338 0
M  V30 23315 H 2269.49 5.26982 1.64297 0
M  V30 23316 H 2269.96 3.72063 2.33379 0
M  V30 23317 H 2270.57 4.19008 0.728833 0
M  V30 23318 N 2268.88 0.0501669 1.5752 0
M  V30 23319 C 2270.11 -0.636962 1.97377 0
M  V30 23320 C 2270.53 -1.63643 0.927495 0
M  V30 23321 O 2269.89 -1.8097 -0.109378 0
M  V30 23322 C 2269.94 -1.30117 3.36306 0
M  V30 23323 O 2269.04 -2.41683 3.3416 0
M  V30 23324 H 2268.38 -0.165667 0.643001 0
M  V30 23325 H 2270.91 0.118269 2.04258 0
M  V30 23326 H 2270.92 -1.65309 3.73011 0
M  V30 23327 H 2269.6 -0.568673 4.11994 0
M  V30 23328 H 2268.18 -2.08446 3.092 0
M  V30 23329 N 2270.36 -1.56011 -0.223207 0
M  V30 23330 C 2271.61 -1.79213 -0.949248 0
M  V30 23331 C 2271.94 -0.619527 -1.84053 0
M  V30 23332 O 2271.22 0.381283 -1.90726 0
M  V30 23333 C 2271.5 -3.12483 -1.7896 0
M  V30 23334 C 2271.35 -4.40188 -0.92492 0
M  V30 23335 C 2272.67 -3.4218 -2.76768 0
M  V30 23336 H 2269.79 -0.651969 -0.343665 0
M  V30 23337 H 2272.43 -1.88743 -0.21822 0
M  V30 23338 H 2270.58 -3.04489 -2.41285 0
M  V30 23339 H 2272.25 -4.60199 -0.318535 0
M  V30 23340 H 2270.5 -4.33188 -0.230268 0
M  V30 23341 H 2271.17 -5.29872 -1.54726 0
M  V30 23342 H 2273.64 -3.50291 -2.24578 0
M  V30 23343 H 2272.52 -4.36603 -3.3267 0
M  V30 23344 H 2272.78 -2.64265 -3.54424 0
M  V30 23345 N 2271.84 0.489844 -1.49794 0
M  V30 23346 C 2273.26 0.821998 -1.36804 0
M  V30 23347 C 2273.46 1.97291 -0.409687 0
M  V30 23348 O 2272.51 2.52026 0.154569 0
M  V30 23349 C 2273.82 1.1517 -2.7777 0
M  V30 23350 C 2275.37 1.25926 -2.86551 0
M  V30 23351 C 2275.85 1.6222 -4.28309 0
M  V30 23352 N 2277.34 1.69248 -4.31172 0
M  V30 23353 C 2278.07 1.98798 -5.37836 0
M  V30 23354 N 2277.57 2.26495 -6.5473 0
M  V30 23355 N 2279.36 2.00142 -5.25261 0
M  V30 23356 H 2271.51 -0.268918 -2.10691 0
M  V30 23357 H 2273.78 -0.0577447 -0.94624 0
M  V30 23358 H 2273.48 0.379273 -3.49649 0
M  V30 23359 H 2273.36 2.09248 -3.13839 0
M  V30 23360 H 2275.74 2.02239 -2.14903 0
M  V30 23361 H 2275.82 0.298731 -2.5405 0
M  V30 23362 H 2275.47 0.864534 -5.00488 0
M  V30 23363 H 2275.4 2.59392 -4.58283 0
M  V30 23364 H 2277.89 1.49958 -3.46873 0
M  V30 23365 H 2278.2 2.48263 -7.31837 0
M  V30 23366 H 2276.55 2.23927 -6.57937 0
M  V30 23367 H 2279.74 1.77988 -4.32941 0
M  V30 23368 H 2279.91 2.22837 -6.0848 0
M  V30 23369 N 2273.32 1.39056 0.741698 0
M  V30 23370 C 2274.25 1.39969 1.86898 0
M  V30 23371 C 2275.23 0.263949 1.6804 0
M  V30 23372 O 2276.41 0.468788 1.88457 0
M  V30 23373 C 2273.54 1.2358 3.24569 0
M  V30 23374 C 2272.5 2.34484 3.58052 0
M  V30 23375 C 2271.82 2.03189 4.94589 0
M  V30 23376 C 2273.12 3.7678 3.6171 0
M  V30 23377 H 2274.82 2.34305 1.86391 0
M  V30 23378 H 2272.36 1.12781 0.895341 0
M  V30 23379 H 2274.32 1.22841 4.03098 0
M  V30 23380 H 2273.04 0.257103 3.25586 0
M  V30 23381 H 2271.7 2.34428 2.81849 0
M  V30 23382 H 2271.35 1.03774 4.92179 0
M  V30 23383 H 2271.05 2.77474 5.17959 0
M  V30 23384 H 2272.57 2.04089 5.75482 0
M  V30 23385 H 2273.99 3.78802 4.30328 0
M  V30 23386 H 2272.38 4.50369 3.96595 0
M  V30 23387 H 2273.45 4.08239 2.61665 0
M  V30 23388 N 2274.8 -0.971167 1.24121 0
M  V30 23389 C 2276.21 -1.23914 1.00586 0
M  V30 23390 C 2276.41 -1.99439 -0.287446 0
M  V30 23391 O 2275.47 -2.31659 -1.0045 0
M  V30 23392 C 2276.78 -2.02966 2.21867 0
M  V30 23393 C 2278.33 -2.16072 2.26455 0
M  V30 23394 C 2278.8 -2.98518 3.47348 0
M  V30 23395 N 2280.29 -3.06101 3.47644 0
M  V30 23396 C 2281.03 -3.70243 4.37844 0
M  V30 23397 N 2280.53 -4.36133 5.38294 0
M  V30 23398 N 2282.32 -3.67221 4.25565 0
M  V30 23399 H 2274.47 -0.465463 2.07237 0
M  V30 23400 H 2276.73 -0.268299 0.909241 0
M  V30 23401 H 2276.44 -1.54855 3.15773 0
M  V30 23402 H 2276.31 -3.03705 2.23704 0
M  V30 23403 H 2278.7 -2.63387 1.33083 0
M  V30 23404 H 2278.78 -1.14692 2.28647 0
M  V30 23405 H 2278.42 -2.51897 4.41033 0
M  V30 23406 H 2278.35 -4.00087 3.424 0
M  V30 23407 H 2280.85 -2.59228 2.74971 0
M  V30 23408 H 2281.16 -4.82883 6.03361 0
M  V30 23409 H 2279.5 -4.34812 5.42184 0
M  V30 23410 H 2282.69 -3.14921 3.46327 0
M  V30 23411 H 2282.87 -4.16926 4.96061 0
M  V30 23412 N 2276.27 -1.05441 -1.17133 0
M  V30 23413 C 2277.24 -0.661802 -2.19438 0
M  V30 23414 C 2278.24 0.288014 -1.582 0
M  V30 23415 O 2279.43 0.0715497 -1.74053 0
M  V30 23416 C 2276.56 0.027561 -3.40889 0
M  V30 23417 H 2277.75 -1.56732 -2.55685 0
M  V30 23418 H 2275.31 -0.84859 -1.31258 0
M  V30 23419 H 2276.04 0.946235 -3.10188 0
M  V30 23420 H 2275.83 -0.655306 -3.86585 0
M  V30 23421 H 2277.32 0.288269 -4.16604 0
M  V30 23422 N 2277.75 1.33613 -0.835776 0
M  V30 23423 C 2278.98 2.018 -0.442736 0
M  V30 23424 C 2279.39 1.63049 0.959779 0
M  V30 23425 O 2278.73 0.838117 1.63466 0
M  V30 23426 C 2278.8 3.56279 -0.480188 0
M  V30 23427 C 2278.46 4.18397 -1.83828 0
M  V30 23428 C 2279.46 4.37993 -2.80104 0
M  V30 23429 C 2277.14 4.5489 -2.13027 0
M  V30 23430 C 2279.14 4.93223 -4.03745 0
M  V30 23431 C 2276.82 5.09828 -3.36925 0
M  V30 23432 C 2277.82 5.28941 -4.32101 0
M  V30 23433 O 2277.51 5.82711 -5.53807 0
M  V30 23434 H 2277.24 0.65311 -0.174421 0
M  V30 23435 H 2279.79 1.71587 -1.12903 0
M  V30 23436 H 2278.02 3.85806 0.262863 0
M  V30 23437 H 2279.71 4.05763 -0.105406 0
M  V30 23438 H 2280.48 4.10151 -2.58845 0
M  V30 23439 H 2276.36 4.3931 -1.39741 0
M  V30 23440 H 2279.9 5.08056 -4.78043 0
M  V30 23441 H 2275.8 5.371 -3.58042 0
M  V30 23442 H 2276.57 6.0113 -5.55504 0
M  V30 23443 N 2279.23 0.591922 1.46062 0
M  V30 23444 C 2280.16 -0.123632 2.33172 0
M  V30 23445 C 2281.14 -0.874505 1.45899 0
M  V30 23446 O 2282.33 -0.84815 1.747 0
M  V30 23447 C 2279.46 -1.13188 3.28338 0
M  V30 23448 C 2278.41 -0.495249 4.25125 0
M  V30 23449 C 2277.74 -1.61063 5.09866 0
M  V30 23450 C 2279.04 0.573516 5.19142 0
M  V30 23451 H 2280.73 0.603698 2.9325 0
M  V30 23452 H 2278.28 0.291766 1.41013 0
M  V30 23453 H 2280.23 -1.6409 3.8814 0
M  V30 23454 H 2278.95 -1.8896 2.66386 0
M  V30 23455 H 2277.61 -0.00723008 3.66599 0
M  V30 23456 H 2277.26 -2.35824 4.44293 0
M  V30 23457 H 2276.96 -1.19025 5.75419 0
M  V30 23458 H 2278.48 -2.12223 5.72533 0
M  V30 23459 H 2279.9 0.149201 5.73106 0
M  V30 23460 H 2278.3 0.91474 5.93087 0
M  V30 23461 H 2279.37 1.45625 4.62516 0
M  V30 23462 N 2280.71 -1.54102 0.330204 0
M  V30 23463 C 2281.66 -2.26048 -0.548186 0
M  V30 23464 C 2282.65 -1.277 -1.11306 0
M  V30 23465 O 2283.86 -1.45454 -1.06034 0
M  V30 23466 H 2280.23 -0.726158 -0.195443 0
M  V30 23467 H 2282.2 -2.98291 0.0808092 0
M  V30 23468 C 2280.95 -3.03637 -1.6941 0
M  V30 23469 H 2280.27 -3.79136 -1.2687 0
M  V30 23470 H 2281.71 -3.57214 -2.28417 0
M  V30 23471 C 2280.17 -2.12333 -2.61565 0
M  V30 23472 O 2280.7 -1.71056 -3.63459 0
M  V30 23473 N 2278.91 -1.77685 -2.29949 0
M  V30 23474 H 2278.46 -2.11448 -1.4713 0
M  V30 23475 H 2278.41 -1.16874 -2.91869 0
M  V30 23476 N 2282.19 -0.0585199 -1.57491 0
M  V30 23477 C 2283.41 0.623003 -1.97297 0
M  V30 23478 C 2283.83 1.63944 -0.936367 0
M  V30 23479 O 2283.19 1.82331 0.0785661 0
M  V30 23480 C 2283.24 1.3034 -3.37185 0
M  V30 23481 O 2282.96 0.327653 -4.36873 0
M  V30 23482 C 2284.46 2.07399 -3.91791 0
M  V30 23483 H 2281.68 0.169815 -0.649156 0
M  V30 23484 H 2284.22 -0.126995 -2.04105 0
M  V30 23485 H 2282.38 2.00457 -3.31505 0
M  V30 23486 H 2282.79 0.814178 -5.18142 0
M  V30 23487 H 2284.27 2.50416 -4.91931 0
M  V30 23488 H 2284.74 2.92516 -3.27614 0
M  V30 23489 H 2285.35 1.42177 -4.00831 0
M  V30 23490 N 2283.66 1.56128 0.21493 0
M  V30 23491 C 2285.08 1.69563 0.781357 0
M  V30 23492 C 2285.43 0.661682 1.84706 0
M  V30 23493 O 2284.55 -0.18589 2.156 0
M  V30 23494 C 2285.15 3.07418 1.42406 0
M  V30 23495 C 2283.71 3.22686 1.9378 0
M  V30 23496 C 2282.85 2.65498 0.800391 0
M  V30 23497 H 2285.8 1.58697 -0.00983423 0
M  V30 23498 H 2285.82 3.03644 2.29304 0
M  V30 23499 H 2285.34 3.82649 0.648192 0
M  V30 23500 H 2283.44 2.52336 2.74148 0
M  V30 23501 H 2283.55 4.29976 2.11322 0
M  V30 23502 H 2281.91 2.24152 1.20946 0
M  V30 23503 H 2282.7 3.4328 0.0370867 0
M  V30 23504 N 2285.14 -0.481893 1.50052 0
M  V30 23505 C 2286.39 -1.23231 1.60183 0
M  V30 23506 C 2286.71 -1.92691 0.29921 0
M  V30 23507 O 2285.98 -1.8362 -0.682675 0
M  V30 23508 H 2284.56 -0.457849 0.59024 0
M  V30 23509 H 2287.22 -0.556848 1.86776 0
M  V30 23510 H 2286.32 -1.98602 2.40756 0
M  V30 23511 N 2286.62 -1.39448 -0.734313 0
M  V30 23512 C 2287.55 -1.40959 -1.86153 0
M  V30 23513 C 2288.53 -0.272857 -1.67897 0
M  V30 23514 O 2289.72 -0.478776 -1.88206 0
M  V30 23515 C 2286.85 -1.25299 -3.23909 0
M  V30 23516 C 2285.8 -2.36379 -3.56804 0
M  V30 23517 C 2285.13 -2.05809 -4.93504 0
M  V30 23518 C 2286.43 -3.78693 -3.59707 0
M  V30 23519 H 2288.12 -2.3529 -1.85146 0
M  V30 23520 H 2285.67 -1.13255 -0.889347 0
M  V30 23521 H 2287.62 -1.24977 -4.02441 0
M  V30 23522 H 2286.34 -0.274366 -3.25446 0
M  V30 23523 H 2285 -2.35919 -2.80602 0
M  V30 23524 H 2284.65 -1.06383 -4.91622 0
M  V30 23525 H 2284.35 -2.80217 -5.16481 0
M  V30 23526 H 2285.87 -2.07138 -5.74392 0
M  V30 23527 H 2287.29 -3.81078 -4.28313 0
M  V30 23528 H 2285.69 -4.52466 -3.94201 0
M  V30 23529 H 2286.76 -4.09621 -2.59496 0
M  V30 23530 N 2288.1 0.964571 -1.24635 0
M  V30 23531 C 2289.51 1.52258 -1.08048 0
M  V30 23532 C 2289.86 1.93106 0.347082 0
M  V30 23533 O 2288.99 1.77639 1.23585 0
M  V30 23534 C 2289.58 2.76691 -1.95518 0
M  V30 23535 C 2288.14 3.28838 -1.83146 0
M  V30 23536 C 2287.29 2.01729 -1.90265 0
M  V30 23537 H 2290.24 0.782529 -1.38066 0
M  V30 23538 H 2290.26 3.50143 -1.48931 0
M  V30 23539 H 2289.77 2.46931 -2.99411 0
M  V30 23540 H 2287.87 3.63443 -0.820983 0
M  V30 23541 H 2287.98 3.97526 -2.67413 0
M  V30 23542 H 2286.35 2.16582 -1.34031 0
M  V30 23543 H 2287.13 1.74329 -2.95743 0
M  V30 23544 N 2289.58 1.0606 1.16572 0
M  V30 23545 C 2290.82 0.777055 1.87322 0
M  V30 23546 C 2291.16 -0.694613 1.81353 0
M  V30 23547 O 2290.43 -1.50869 1.22756 0
M  V30 23548 C 2290.71 1.26928 3.36989 0
M  V30 23549 C 2290.57 2.80453 3.51662 0
M  V30 23550 C 2291.89 0.875286 4.31308 0
M  V30 23551 H 2289 0.283752 0.680187 0
M  V30 23552 H 2291.65 1.31612 1.37034 0
M  V30 23553 H 2289.8 0.810697 3.79947 0
M  V30 23554 H 2291.47 3.34501 3.17658 0
M  V30 23555 H 2289.71 3.19299 2.9365 0
M  V30 23556 H 2290.38 3.09958 4.56761 0
M  V30 23557 H 2292.86 1.27021 3.96238 0
M  V30 23558 H 2291.73 1.24719 5.34543 0
M  V30 23559 H 2292 -0.219994 4.41552 0
M  V30 23560 N 2291.06 -1.33168 0.84285 0
M  V30 23561 C 2292.3 -1.99461 0.446609 0
M  V30 23562 C 2292.66 -1.65296 -0.976788 0
M  V30 23563 O 2293.86 -2.24587 -1.47697 0
M  V30 23564 C 2292.13 -3.51151 0.665414 0
M  V30 23565 S 2293.69 -4.37279 0.364987 0
M  V30 23566 H 2290.51 -0.690912 0.167815 0
M  V30 23567 H 2293.11 -1.62092 1.093 0
M  V30 23568 H 2291.81 -3.73504 1.70067 0
M  V30 23569 H 2291.35 -3.934 0.00501483 0
M  V30 23570 H 2293.36 -4.89483 -0.813675 0
M  V30 23571 N 2292.53 -0.599659 -1.45746 0
M  V30 23572 C 2293.47 0.161838 -2.28628 0
M  V30 23573 C 2294.48 0.839343 -1.39495 0
M  V30 23574 O 2295.67 0.706061 -1.63942 0
M  V30 23575 C 2292.77 1.24971 -3.15017 0
M  V30 23576 C 2291.94 0.660859 -4.32379 0
M  V30 23577 C 2291 1.6386 -5.00036 0
M  V30 23578 O 2290.03 1.168 -5.57087 0
M  V30 23579 N 2291.23 2.97294 -4.98594 0
M  V30 23580 H 2293.99 -0.549317 -2.94623 0
M  V30 23581 H 2291.55 -0.438592 -1.55846 0
M  V30 23582 H 2293.55 1.90344 -3.57143 0
M  V30 23583 H 2292.12 1.86349 -2.50983 0
M  V30 23584 H 2291.34 -0.170758 -3.9383 0
M  V30 23585 H 2292.62 0.24753 -5.08198 0
M  V30 23586 H 2292.02 3.38137 -4.53519 0
M  V30 23587 H 2290.58 3.58111 -5.44609 0
M  V30 23588 N 2294.01 1.53925 -0.338371 0
M  V30 23589 C 2295.29 1.93051 0.31474 0
M  V30 23590 C 2295.67 1.26944 1.68667 0
M  V30 23591 O 2295.02 0.418484 2.24635 0
M  V30 23592 C 2295.23 3.46789 0.392188 0
M  V30 23593 C 2296.57 4.19665 0.645481 0
M  V30 23594 O 2297.6 3.53025 0.474513 0
M  V30 23595 O 2296.46 5.37708 0.976314 0
M  V30 23596 H 2293.55 0.806593 0.182584 0
M  V30 23597 H 2296.1 1.65177 -0.38917 0
M  V30 23598 H 2294.87 3.87115 -0.57077 0
M  V30 23599 H 2294.49 3.80814 1.14309 0
M  V30 23600 N 2295.49 0.0668712 1.57458 0
M  V30 23601 C 2296.44 -0.912082 2.08962 0
M  V30 23602 C 2297.42 -1.26193 0.998208 0
M  V30 23603 O 2298.62 -1.24173 1.26136 0
M  V30 23604 C 2295.74 -2.18141 2.65084 0
M  V30 23605 C 2294.83 -1.85826 3.81221 0
M  V30 23606 N 2295.22 -1.23939 4.9038 0
M  V30 23607 C 2293.52 -2.15605 3.90424 0
M  V30 23608 C 2294.22 -1.09606 5.71281 0
M  V30 23609 N 2293.2 -1.60414 5.19392 0
M  V30 23610 H 2297 -0.429189 2.90749 0
M  V30 23611 H 2294.51 -0.137156 1.6182 0
M  V30 23612 H 2296.51 -2.89186 3.00295 0
M  V30 23613 H 2295.17 -2.67022 1.84741 0
M  V30 23614 H 2296.18 -0.909642 5.09849 0
M  V30 23615 H 2292.86 -2.66898 3.21048 0
M  V30 23616 H 2294.25 -0.614308 6.69086 0
M  V30 23617 N 2296.97 -1.56239 -0.206647 0
M  V30 23618 C 2297.9 -1.96647 -1.25906 0
M  V30 23619 C 2298.88 -0.83676 -1.48096 0
M  V30 23620 O 2300.06 -1.10021 -1.60028 0
M  V30 23621 C 2297.19 -2.29603 -2.60576 0
M  V30 23622 C 2296.15 -3.45204 -2.53018 0
M  V30 23623 C 2295.47 -3.63805 -3.91854 0
M  V30 23624 C 2296.77 -4.79738 -2.06516 0
M  V30 23625 H 2298.47 -2.84807 -0.923319 0
M  V30 23626 H 2296.01 -1.37026 -0.442711 0
M  V30 23627 H 2297.97 -2.56464 -3.34371 0
M  V30 23628 H 2296.69 -1.38312 -2.95867 0
M  V30 23629 H 2295.35 -3.18415 -1.81679 0
M  V30 23630 H 2295 -2.69865 -4.24479 0
M  V30 23631 H 2294.7 -4.41567 -3.87675 0
M  V30 23632 H 2296.22 -3.93031 -4.67289 0
M  V30 23633 H 2297.64 -5.05706 -2.70063 0
M  V30 23634 H 2296.03 -5.60888 -2.13364 0
M  V30 23635 H 2297.1 -4.74095 -1.01793 0
M  V30 23636 N 2298.45 0.473929 -1.50305 0
M  V30 23637 C 2299.36 1.59817 -1.71743 0
M  V30 23638 C 2300.37 1.6331 -0.600486 0
M  V30 23639 O 2301.55 1.81231 -0.878473 0
M  V30 23640 C 2298.61 2.96049 -1.80433 0
M  V30 23641 C 2297.67 3.02967 -3.04154 0
M  V30 23642 C 2296.91 4.32701 -3.12419 0
M  V30 23643 O 2297.13 5.23045 -2.27551 0
M  V30 23644 O 2296.06 4.45152 -4.05121 0
M  V30 23645 H 2299.89 1.44653 -2.67038 0
M  V30 23646 H 2297.47 0.653124 -1.34368 0
M  V30 23647 H 2299.36 3.76967 -1.88345 0
M  V30 23648 H 2298.03 3.11418 -0.883211 0
M  V30 23649 H 2296.94 2.21137 -3.01744 0
M  V30 23650 H 2298.27 2.92534 -3.95834 0
M  V30 23651 N 2299.92 1.39835 0.726907 0
M  V30 23652 C 2301.17 1.37499 1.48662 0
M  V30 23653 C 2301.5 -0.0264336 1.94482 0
M  V30 23654 O 2300.75 -1.00883 1.67693 0
M  V30 23655 C 2301.05 2.30082 2.73491 0
M  V30 23656 C 2300.72 3.77559 2.46495 0
M  V30 23657 C 2299.38 4.17741 2.38843 0
M  V30 23658 C 2301.73 4.70802 2.23596 0
M  V30 23659 C 2299.06 5.49217 2.06343 0
M  V30 23660 C 2301.41 6.02564 1.92611 0
M  V30 23661 C 2300.08 6.41801 1.83433 0
M  V30 23662 H 2299.35 0.503144 0.543992 0
M  V30 23663 H 2301.99 1.72403 0.833627 0
M  V30 23664 H 2300.3 1.88323 3.43572 0
M  V30 23665 H 2302 2.25563 3.31545 0
M  V30 23666 H 2298.59 3.45717 2.53333 0
M  V30 23667 H 2302.77 4.40585 2.28471 0
M  V30 23668 H 2298.03 5.78532 1.97765 0
M  V30 23669 H 2302.2 6.74337 1.73902 0
M  V30 23670 H 2299.83 7.43596 1.58016 0
M  V30 23671 N 2301.4 -0.957948 1.25144 0
M  V30 23672 C 2302.65 -1.70529 1.10866 0
M  V30 23673 C 2303 -1.89238 -0.347357 0
M  V30 23674 O 2302.3 -1.44985 -1.25259 0
M  V30 23675 C 2302.49 -3.09183 1.79277 0
M  V30 23676 C 2302.32 -3.04001 3.31382 0
M  V30 23677 C 2301.09 -3.07941 4.00625 0
M  V30 23678 C 2303.29 -2.85423 4.2783 0
M  V30 23679 N 2301.27 -2.9288 5.39532 0
M  V30 23680 C 2302.64 -2.78759 5.53799 0
M  V30 23681 C 2304.69 -2.70078 4.18285 0
M  V30 23682 C 2303.4 -2.58319 6.71315 0
M  V30 23683 C 2305.42 -2.51007 5.3549 0
M  V30 23684 C 2304.79 -2.45061 6.60397 0
M  V30 23685 H 2300.88 -0.632124 0.460373 0
M  V30 23686 H 2303.47 -1.13497 1.58198 0
M  V30 23687 H 2301.64 -3.64389 1.34445 0
M  V30 23688 H 2303.37 -3.7268 1.57771 0
M  V30 23689 H 2300.13 -3.17003 3.51861 0
M  V30 23690 H 2300.55 -2.88564 6.12421 0
M  V30 23691 H 2305.19 -2.73451 3.22466 0
M  V30 23692 H 2302.91 -2.53688 7.67247 0
M  V30 23693 H 2306.5 -2.40064 5.29963 0
M  V30 23694 H 2305.38 -2.30496 7.49561 0
M  V30 23695 N 2302.88 -1.06677 -1.16008 0
M  V30 23696 C 2303.79 -0.692218 -2.24155 0
M  V30 23697 C 2304.81 0.293483 -1.71507 0
M  V30 23698 O 2305.98 0.141826 -2.009 0
M  V30 23699 C 2303.05 -0.0884741 -3.46587 0
M  V30 23700 C 2302.11 -1.12654 -4.14255 0
M  V30 23701 C 2301.34 -0.551509 -5.30843 0
M  V30 23702 O 2301.56 0.634556 -5.66859 0
M  V30 23703 O 2300.5 -1.29308 -5.87846 0
M  V30 23704 H 2304.32 -1.59392 -2.58511 0
M  V30 23705 H 2301.91 -0.839282 -1.23598 0
M  V30 23706 H 2303.79 0.246287 -4.2068 0
M  V30 23707 H 2302.47 0.786657 -3.13996 0
M  V30 23708 H 2301.37 -1.51354 -3.42115 0
M  V30 23709 H 2302.71 -1.97333 -4.50911 0
M  V30 23710 N 2304.36 1.32719 -0.8499 0
M  V30 23711 C 2305.58 2.02146 -0.463891 0
M  V30 23712 C 2306.01 1.63477 0.93042 0
M  V30 23713 O 2305.37 0.83298 1.61031 0
M  V30 23714 C 2305.41 3.55488 -0.605017 0
M  V30 23715 O 2304.52 4.10789 0.364177 0
M  V30 23716 H 2303.86 0.637107 -0.187057 0
M  V30 23717 H 2306.39 1.69373 -1.14778 0
M  V30 23718 H 2306.4 4.05038 -0.490767 0
M  V30 23719 H 2305.07 3.82976 -1.6218 0
M  V30 23720 H 2303.65 3.72327 0.206563 0
M  V30 23721 N 2305.84 0.60738 1.45426 0
M  V30 23722 C 2307.08 0.102643 2.0254 0
M  V30 23723 C 2307.42 -1.26345 1.47481 0
M  V30 23724 O 2306.69 -1.83338 0.649422 0
M  V30 23725 C 2306.97 0.063498 3.60044 0
M  V30 23726 C 2306.83 1.46024 4.25437 0
M  V30 23727 C 2308.15 -0.624437 4.35648 0
M  V30 23728 H 2305.26 0.0387736 0.735979 0
M  V30 23729 H 2307.91 0.779312 1.73282 0
M  V30 23730 H 2306.06 -0.51274 3.85102 0
M  V30 23731 H 2307.73 2.08355 4.11565 0
M  V30 23732 H 2305.97 2.02101 3.83846 0
M  V30 23733 H 2306.64 1.3851 5.3434 0
M  V30 23734 H 2309.12 -0.13465 4.15882 0
M  V30 23735 H 2307.99 -0.620932 5.45377 0
M  V30 23736 H 2308.26 -1.69048 4.08504 0
M  V30 23737 N 2307.31 -1.53743 0.34653 0
M  V30 23738 C 2308.56 -2.00962 -0.249069 0
M  V30 23739 C 2308.89 -1.23429 -1.50318 0
M  V30 23740 O 2308.14 -0.310795 -1.93216 0
M  V30 23741 C 2308.44 -3.52229 -0.605747 0
M  V30 23742 C 2308.11 -4.47511 0.551825 0
M  V30 23743 C 2306.77 -4.73279 0.869493 0
M  V30 23744 C 2309.12 -5.03991 1.32827 0
M  V30 23745 C 2306.45 -5.52783 1.96592 0
M  V30 23746 C 2308.8 -5.8469 2.41496 0
M  V30 23747 C 2307.47 -6.08752 2.73819 0
M  V30 23748 H 2306.74 -0.735374 -0.0911408 0
M  V30 23749 H 2309.38 -1.85514 0.47506 0
M  V30 23750 H 2307.69 -3.65525 -1.41063 0
M  V30 23751 H 2309.39 -3.86224 -1.07852 0
M  V30 23752 H 2305.98 -4.27589 0.294177 0
M  V30 23753 H 2310.16 -4.84045 1.0961 0
M  V30 23754 H 2305.42 -5.6965 2.22055 0
M  V30 23755 H 2309.59 -6.27467 3.02089 0
M  V30 23756 H 2307.22 -6.70144 3.58903 0
M  V30 23757 N 2308.79 -0.0752207 -1.5742 0
M  V30 23758 C 2310.02 0.602042 -1.97947 0
M  V30 23759 C 2310.44 1.62942 -0.953703 0
M  V30 23760 O 2309.79 1.82404 0.059223 0
M  V30 23761 C 2309.84 1.26756 -3.38549 0
M  V30 23762 O 2309.56 0.281299 -4.37196 0
M  V30 23763 C 2311.07 2.03232 -3.93969 0
M  V30 23764 H 2308.29 0.16292 -0.650921 0
M  V30 23765 H 2310.83 -0.148636 -2.03959 0
M  V30 23766 H 2308.98 1.9693 -3.33613 0
M  V30 23767 H 2309.4 0.759176 -5.18977 0
M  V30 23768 H 2310.87 2.45184 -4.94559 0
M  V30 23769 H 2311.35 2.89024 -3.30699 0
M  V30 23770 H 2311.96 1.37917 -4.02317 0
M  V30 23771 N 2310.27 1.56347 0.198358 0
M  V30 23772 C 2311.52 1.80076 0.917439 0
M  V30 23773 C 2311.84 0.647725 1.83928 0
M  V30 23774 O 2311.11 -0.334132 1.93029 0
M  V30 23775 H 2309.69 0.664234 0.341762 0
M  V30 23776 H 2312.35 1.93823 0.20465 0
M  V30 23777 H 2311.45 2.73112 1.5105 0
M  V30 23778 N 2311.75 -0.465951 1.50554 0
M  V30 23779 C 2312.68 -1.57125 1.72725 0
M  V30 23780 C 2313.66 -1.60039 0.576322 0
M  V30 23781 O 2314.84 -1.76224 0.816011 0
M  V30 23782 C 2311.97 -2.95416 1.82611 0
M  V30 23783 C 2310.93 -3.07368 2.9784 0
M  V30 23784 C 2310.25 -4.47357 2.92875 0
M  V30 23785 C 2311.55 -2.84106 4.3827 0
M  V30 23786 H 2313.25 -1.38825 2.6527 0
M  V30 23787 H 2310.79 -0.666418 1.27651 0
M  V30 23788 H 2312.75 -3.72673 1.96705 0
M  V30 23789 H 2311.47 -3.14884 0.866914 0
M  V30 23790 H 2310.13 -2.32545 2.83405 0
M  V30 23791 H 2309.78 -4.63752 1.94791 0
M  V30 23792 H 2309.48 -4.56289 3.70235 0
M  V30 23793 H 2311 -5.26627 3.09024 0
M  V30 23794 H 2312.42 -3.5111 4.53205 0
M  V30 23795 H 2310.81 -3.04478 5.1712 0
M  V30 23796 H 2311.88 -1.79923 4.50284 0
M  V30 23797 N 2313.23 -1.40218 -0.719481 0
M  V30 23798 C 2314.45 -1.41592 -1.50862 0
M  V30 23799 C 2314.87 -0.0145607 -1.88794 0
M  V30 23800 O 2314.23 0.960566 -1.55175 0
M  V30 23801 C 2314.28 -2.30307 -2.78641 0
M  V30 23802 O 2314 -3.64987 -2.42314 0
M  V30 23803 C 2315.5 -2.4023 -3.72564 0
M  V30 23804 H 2312.72 -0.483078 -0.4657 0
M  V30 23805 H 2315.26 -1.84223 -0.887817 0
M  V30 23806 H 2313.42 -1.91048 -3.37015 0
M  V30 23807 H 2313.83 -4.12062 -3.24507 0
M  V30 23808 H 2315.31 -3.0652 -4.59074 0
M  V30 23809 H 2315.78 -1.42616 -4.154 0
M  V30 23810 H 2316.39 -2.80024 -3.20104 0
M  V30 23811 N 2314.7 0.951297 -1.25651 0
M  V30 23812 C 2315.65 2.03405 -1.03008 0
M  V30 23813 C 2316.64 1.60864 0.0341587 0
M  V30 23814 O 2317.83 1.76066 -0.18158 0
M  V30 23815 C 2314.96 3.37007 -0.654314 0
M  V30 23816 C 2314.05 3.86062 -1.75548 0
M  V30 23817 N 2314.44 4.07874 -2.9912 0
M  V30 23818 C 2312.73 4.14881 -1.63676 0
M  V30 23819 C 2313.44 4.48349 -3.70618 0
M  V30 23820 N 2312.41 4.54472 -2.98255 0
M  V30 23821 H 2316.21 2.18267 -1.96817 0
M  V30 23822 H 2313.73 1.13637 -1.16019 0
M  V30 23823 H 2315.72 4.14205 -0.473279 0
M  V30 23824 H 2314.38 3.23521 0.276411 0
M  V30 23825 H 2315.4 3.94852 -3.35131 0
M  V30 23826 H 2312.07 4.10239 -0.775234 0
M  V30 23827 H 2313.46 4.73501 -4.76704 0
M  V30 23828 N 2316.18 1.07291 1.1544 0
M  V30 23829 C 2317.43 0.790702 1.85555 0
M  V30 23830 C 2317.74 -0.685706 1.83187 0
M  V30 23831 O 2318.95 -1.08266 2.48979 0
M  V30 23832 C 2317.41 1.36439 3.33035 0
M  V30 23833 C 2317.01 2.87176 3.43851 0
M  V30 23834 C 2318.76 1.16017 4.08338 0
M  V30 23835 C 2316.67 3.37739 4.85476 0
M  V30 23836 H 2315.6 0.29211 0.695117 0
M  V30 23837 H 2318.25 1.2929 1.30217 0
M  V30 23838 H 2316.63 0.789932 3.88041 0
M  V30 23839 H 2317.8 3.5066 2.98955 0
M  V30 23840 H 2316.12 3.06381 2.81992 0
M  V30 23841 H 2318.71 1.51271 5.12856 0
M  V30 23842 H 2319.06 0.0991739 4.16182 0
M  V30 23843 H 2319.59 1.70095 3.596 0
M  V30 23844 H 2316.33 4.43361 4.82816 0
M  V30 23845 H 2315.85 2.79008 5.30956 0
M  V30 23846 H 2317.53 3.33658 5.5433 0
M  V30 23847 N 2317.66 -1.32267 0.856927 0
M  V30 23848 C 2318.94 -1.91821 0.382617 0
M  V30 23849 C 2319.32 -1.78053 -1.13404 0
M  V30 23850 O 2318.67 -1.18004 -1.95671 0
M  V30 23851 C 2318.88 -3.38503 0.849505 0
M  V30 23852 C 2320.22 -4.15633 0.868009 0
M  V30 23853 O 2321.25 -3.47231 0.794293 0
M  V30 23854 O 2320.11 -5.3778 0.972381 0
M  V30 23855 H 2317.2 -0.819377 0.112028 0
M  V30 23856 H 2319.75 -1.41022 0.943977 0
M  V30 23857 H 2318.52 -3.42478 1.89273 0
M  V30 23858 H 2318.14 -3.96711 0.265722 0
M  V30 23859 N 2319.14 -0.615084 -1.45102 0
M  V30 23860 C 2320.1 0.0895082 -2.29025 0
M  V30 23861 C 2321.1 0.787882 -1.40175 0
M  V30 23862 O 2322.29 0.634905 -1.62218 0
M  V30 23863 C 2319.42 1.13706 -3.21378 0
M  V30 23864 H 2320.62 -0.648433 -2.92806 0
M  V30 23865 H 2318.17 -0.37447 -1.51748 0
M  V30 23866 H 2318.9 1.90552 -2.62413 0
M  V30 23867 H 2318.69 0.640407 -3.86835 0
M  V30 23868 H 2320.18 1.6303 -3.84462 0
M  V30 23869 N 2320.62 1.53557 -0.354678 0
M  V30 23870 C 2321.57 2.22151 0.51314 0
M  V30 23871 C 2322.55 1.21283 1.05732 0
M  V30 23872 O 2323.74 1.4678 0.989176 0
M  V30 23873 C 2320.87 3.00612 1.65792 0
M  V30 23874 C 2319.96 4.08847 1.12714 0
M  V30 23875 N 2320.35 5.04796 0.318474 0
M  V30 23876 C 2318.65 4.23358 1.40299 0
M  V30 23877 C 2319.35 5.81693 0.0291202 0
M  V30 23878 N 2318.32 5.40009 0.623796 0
M  V30 23879 H 2322.13 2.93688 -0.111637 0
M  V30 23880 H 2319.64 1.61589 -0.16212 0
M  V30 23881 H 2321.64 3.48262 2.2917 0
M  V30 23882 H 2320.3 2.30604 2.28587 0
M  V30 23883 H 2321.31 5.17883 -0.0414001 0
M  V30 23884 H 2317.99 3.64573 2.03452 0
M  V30 23885 H 2319.38 6.68997 -0.623926 0
M  V30 23886 N 2322.1 0.083568 1.57378 0
M  V30 23887 C 2323.34 -0.582836 1.93931 0
M  V30 23888 C 2323.67 -1.68902 0.964484 0
M  V30 23889 O 2322.93 -1.95692 -0.017913 0
M  V30 23890 C 2323.22 -1.18834 3.37066 0
M  V30 23891 C 2322.89 -0.207114 4.50424 0
M  V30 23892 C 2321.55 0.0627961 4.81159 0
M  V30 23893 C 2323.9 0.463517 5.19135 0
M  V30 23894 C 2321.23 1.01023 5.77937 0
M  V30 23895 C 2323.58 1.39934 6.16929 0
M  V30 23896 C 2322.25 1.6776 6.46075 0
M  V30 23897 H 2321.52 -0.213275 0.709644 0
M  V30 23898 H 2324.17 0.15695 1.90856 0
M  V30 23899 H 2322.47 -2.00413 3.36663 0
M  V30 23900 H 2324.17 -1.71146 3.62643 0
M  V30 23901 H 2320.76 -0.427672 4.26461 0
M  V30 23902 H 2324.94 0.268121 4.95575 0
M  V30 23903 H 2320.2 1.23294 5.98839 0
M  V30 23904 H 2324.37 1.92488 6.69269 0
M  V30 23905 H 2322 2.41333 7.20876 0
M  V30 23906 N 2323.57 -1.5645 -0.190064 0
M  V30 23907 C 2324.5 -1.97971 -1.23813 0
M  V30 23908 C 2325.48 -0.85242 -1.472 0
M  V30 23909 O 2326.67 -1.11712 -1.58852 0
M  V30 23910 C 2323.8 -2.32354 -2.58126 0
M  V30 23911 C 2322.75 -3.47868 -2.49342 0
M  V30 23912 C 2322.08 -3.67941 -3.87974 0
M  V30 23913 C 2323.38 -4.81901 -2.01416 0
M  V30 23914 H 2325.07 -2.85771 -0.89306 0
M  V30 23915 H 2322.62 -1.37488 -0.428153 0
M  V30 23916 H 2324.57 -2.59997 -3.31632 0
M  V30 23917 H 2323.3 -1.41443 -2.94383 0
M  V30 23918 H 2321.96 -3.20324 -1.78291 0
M  V30 23919 H 2321.6 -2.74352 -4.21592 0
M  V30 23920 H 2321.3 -4.45654 -3.8297 0
M  V30 23921 H 2322.83 -3.97965 -4.63094 0
M  V30 23922 H 2324.24 -5.08542 -2.64684 0
M  V30 23923 H 2322.64 -5.6312 -2.07403 0
M  V30 23924 H 2323.71 -4.75148 -0.967593 0
M  V30 23925 N 2325.05 0.45796 -1.50799 0
M  V30 23926 C 2326.28 1.23665 -1.66499 0
M  V30 23927 C 2326.7 1.84752 -0.353321 0
M  V30 23928 O 2326.06 1.67889 0.684316 0
M  V30 23929 C 2326.11 2.31155 -2.76767 0
M  V30 23930 O 2325.21 3.36132 -2.38933 0
M  V30 23931 H 2324.55 0.363242 -0.555834 0
M  V30 23932 H 2327.08 0.543439 -1.97251 0
M  V30 23933 H 2327.09 2.76264 -3.00237 0
M  V30 23934 H 2325.77 1.86067 -3.71957 0
M  V30 23935 H 2324.34 2.96643 -2.25959 0
M  V30 23936 N 2326.53 1.40598 0.712035 0
M  V30 23937 C 2327.46 1.37064 1.83701 0
M  V30 23938 C 2328.47 0.275454 1.60453 0
M  V30 23939 O 2329.66 0.53605 1.70261 0
M  V30 23940 C 2326.76 1.11105 3.2017 0
M  V30 23941 C 2325.94 2.32347 3.70586 0
M  V30 23942 C 2325 2.02494 4.85678 0
M  V30 23943 O 2324.02 2.75391 4.98145 0
M  V30 23944 N 2325.22 1.00507 5.71733 0
M  V30 23945 H 2327.99 2.34019 1.8723 0
M  V30 23946 H 2325.55 1.34998 0.893715 0
M  V30 23947 H 2327.54 0.891134 3.94767 0
M  V30 23948 H 2326.11 0.228044 3.11767 0
M  V30 23949 H 2325.33 2.70145 2.8708 0
M  V30 23950 H 2326.62 3.13165 4.01006 0
M  V30 23951 H 2326.02 0.401397 5.64274 0
M  V30 23952 H 2324.57 0.845056 6.46299 0
M  V30 23953 N 2328.01 -0.94462 1.26153 0
M  V30 23954 C 2329.24 -1.72487 1.14262 0
M  V30 23955 C 2329.65 -1.86361 -0.302523 0
M  V30 23956 O 2329.01 -1.36852 -1.20739 0
M  V30 23957 C 2329.06 -3.13344 1.80272 0
M  V30 23958 O 2328.78 -3.00137 3.19138 0
M  V30 23959 C 2330.28 -4.076 1.7429 0
M  V30 23960 H 2327.5 -0.540174 0.398061 0
M  V30 23961 H 2330.04 -1.18443 1.66708 0
M  V30 23962 H 2328.2 -3.643 1.31772 0
M  V30 23963 H 2328.61 -3.89065 3.51751 0
M  V30 23964 H 2330.09 -5.04009 2.2512 0
M  V30 23965 H 2330.56 -4.33444 0.708708 0
M  V30 23966 H 2331.17 -3.62563 2.22325 0
M  V30 23967 N 2329.49 -1.07901 -1.1487 0
M  V30 23968 C 2330.43 -0.704357 -2.1979 0
M  V30 23969 C 2331.4 0.306958 -1.63239 0
M  V30 23970 O 2332.59 0.192137 -1.8983 0
M  V30 23971 C 2329.73 -0.114305 -3.44911 0
M  V30 23972 C 2328.84 -1.17777 -4.15635 0
M  V30 23973 C 2327.98 -0.55213 -5.28323 0
M  V30 23974 C 2327.01 -1.598 -5.90873 0
M  V30 23975 N 2326.15 -0.994526 -6.95021 0
M  V30 23976 H 2330.99 -1.6034 -2.51187 0
M  V30 23977 H 2328.53 -0.801373 -1.23355 0
M  V30 23978 H 2330.49 0.245471 -4.16477 0
M  V30 23979 H 2329.12 0.748075 -3.14012 0
M  V30 23980 H 2328.17 -1.65505 -3.42509 0
M  V30 23981 H 2329.48 -1.97054 -4.58226 0
M  V30 23982 H 2328.63 -0.140306 -6.06538 0
M  V30 23983 H 2327.37 0.272345 -4.86939 0
M  V30 23984 H 2326.38 -2.01954 -5.11366 0
M  V30 23985 H 2327.6 -2.42486 -6.34332 0
M  V30 23986 H 2325.55 -0.191054 -6.55722 0
M  V30 23987 H 2325.47 -1.72445 -7.3607 0
M  V30 23988 H 2326.73 -0.60839 -7.77122 0
M  V30 23989 N 2330.96 1.31811 -0.863929 0
M  V30 23990 C 2331.9 2.27574 -0.272525 0
M  V30 23991 C 2332.91 1.52828 0.561013 0
M  V30 23992 O 2334.1 1.74321 0.383991 0
M  V30 23993 C 2331.2 3.3294 0.632771 0
M  V30 23994 C 2330.37 4.37081 -0.166979 0
M  V30 23995 C 2329.43 5.21974 0.665516 0
M  V30 23996 O 2328.46 5.6912 0.0957091 0
M  V30 23997 N 2329.66 5.45739 1.9786 0
M  V30 23998 H 2332.42 2.78963 -1.09544 0
M  V30 23999 H 2329.98 1.44769 -0.724816 0
M  V30 24000 H 2331.98 3.86647 1.19526 0
M  V30 24001 H 2330.55 2.81641 1.35637 0
M  V30 24002 H 2329.77 3.83531 -0.910906 0
M  V30 24003 H 2331.05 5.03737 -0.715963 0
M  V30 24004 H 2330.45 5.09182 2.46475 0
M  V30 24005 H 2329.01 6.02405 2.48901 0
M  V30 24006 N 2332.44 0.62277 1.44773 0
M  V30 24007 C 2333.4 -0.0773612 2.29069 0
M  V30 24008 C 2334.4 -0.780437 1.40591 0
M  V30 24009 O 2335.59 -0.626293 1.62552 0
M  V30 24010 C 2332.73 -1.12 3.21976 0
M  V30 24011 H 2333.92 0.663952 2.92458 0
M  V30 24012 H 2331.47 0.382512 1.51547 0
M  V30 24013 H 2332.21 -1.89157 2.6342 0
M  V30 24014 H 2331.99 -0.619883 3.87169 0
M  V30 24015 H 2333.48 -1.60988 3.85321 0
M  V30 24016 N 2333.92 -1.53367 0.362817 0
M  V30 24017 C 2335.17 -2.00818 -0.22729 0
M  V30 24018 C 2335.49 -1.25188 -1.49509 0
M  V30 24019 O 2334.76 -0.364382 -1.92481 0
M  V30 24020 H 2333.34 -0.741919 -0.0869792 0
M  V30 24021 H 2336 -1.88681 0.488414 0
M  V30 24022 H 2335.1 -3.08748 -0.456219 0
M  V30 24023 N 2335.4 -0.091913 -1.57332 0
M  V30 24024 C 2336.68 0.614636 -1.85692 0
M  V30 24025 C 2337.06 1.86543 -0.988179 0
M  V30 24026 O 2336.4 2.28422 -0.0597456 0
M  V30 24027 C 2336.61 0.933067 -3.36296 0
M  V30 24028 C 2337.96 1.29789 -4.04277 0
M  V30 24029 O 2338.99 1.02418 -3.41158 0
M  V30 24030 O 2337.84 1.81038 -5.15643 0
M  V30 24031 H 2334.94 0.307248 -0.767807 0
M  V30 24032 H 2337.48 -0.124369 -1.69244 0
M  V30 24033 H 2336.26 0.0455716 -3.91273 0
M  V30 24034 H 2335.88 1.72816 -3.58079 0
M  V30 24035 N 2336.88 1.56548 0.181765 0
M  V30 24036 C 2337.82 1.96502 1.24457 0
M  V30 24037 C 2338.82 0.852287 1.46398 0
M  V30 24038 O 2340.02 1.03736 1.47102 0
M  V30 24039 H 2336.4 0.625039 0.418127 0
M  V30 24040 H 2338.37 2.85109 0.880664 0
M  V30 24041 C 2337.12 2.33216 2.57886 0
M  V30 24042 H 2336.44 3.18373 2.41823 0
M  V30 24043 H 2337.88 2.65025 3.30965 0
M  V30 24044 C 2336.34 1.17168 3.15869 0
M  V30 24045 O 2336.87 0.453779 3.99129 0
M  V30 24046 N 2335.08 0.944984 2.74806 0
M  V30 24047 H 2334.62 1.53053 2.07202 0
M  V30 24048 H 2334.58 0.170341 3.13938 0
M  V30 24049 N 2338.35 -0.449957 1.5104 0
M  V30 24050 C 2339.28 -1.55284 1.74382 0
M  V30 24051 C 2340.27 -1.59419 0.593264 0
M  V30 24052 O 2341.45 -1.75349 0.834656 0
M  V30 24053 C 2338.58 -2.93463 1.85734 0
M  V30 24054 C 2337.53 -3.04192 3.01083 0
M  V30 24055 C 2336.86 -4.44226 2.97603 0
M  V30 24056 C 2338.16 -2.79442 4.41259 0
M  V30 24057 H 2339.85 -1.36003 2.66727 0
M  V30 24058 H 2337.4 -0.652842 1.28351 0
M  V30 24059 H 2339.35 -3.70566 2.00646 0
M  V30 24060 H 2338.08 -3.13947 0.900262 0
M  V30 24061 H 2336.74 -2.29526 2.85855 0
M  V30 24062 H 2336.38 -4.61659 1.99699 0
M  V30 24063 H 2336.08 -4.52337 3.75054 0
M  V30 24064 H 2337.61 -5.2332 3.14592 0
M  V30 24065 H 2339.02 -3.46284 4.56903 0
M  V30 24066 H 2337.42 -2.98976 5.2032 0
M  V30 24067 H 2338.49 -1.75137 4.52167 0
M  V30 24068 N 2339.83 -1.40974 -0.704569 0
M  V30 24069 C 2341.24 -1.35523 -1.28415 0
M  V30 24070 C 2341.59 -0.0339779 -1.96171 0
M  V30 24071 O 2340.72 0.867909 -1.98233 0
M  V30 24072 C 2341.31 -2.45463 -2.33524 0
M  V30 24073 C 2339.87 -2.43438 -2.8708 0
M  V30 24074 C 2339.02 -2.25773 -1.61003 0
M  V30 24075 H 2341.97 -1.5062 -0.499936 0
M  V30 24076 H 2341.99 -2.14004 -3.14615 0
M  V30 24077 H 2341.5 -3.41612 -1.84181 0
M  V30 24078 H 2339.61 -1.51019 -3.40623 0
M  V30 24079 H 2339.72 -3.39425 -3.38124 0
M  V30 24080 H 2338.08 -1.73486 -1.86479 0
M  V30 24081 H 2338.87 -3.23935 -1.13669 0
M  V30 24082 N 2341.31 0.937917 -1.26653 0
M  V30 24083 C 2342.54 1.71629 -1.15009 0
M  V30 24084 C 2342.95 1.86854 0.296993 0
M  V30 24085 O 2342.29 1.37788 1.21491 0
M  V30 24086 C 2342.35 3.14036 -1.7499 0
M  V30 24087 C 2342.02 3.22184 -3.24108 0
M  V30 24088 C 2343.01 3.05212 -4.20882 0
M  V30 24089 C 2340.7 3.4547 -3.64631 0
M  V30 24090 C 2342.69 3.11398 -5.56156 0
M  V30 24091 C 2340.38 3.51291 -5.00038 0
M  V30 24092 C 2341.38 3.34272 -5.9561 0
M  V30 24093 O 2341.07 3.39808 -7.28551 0
M  V30 24094 H 2340.8 0.544078 -0.401192 0
M  V30 24095 H 2343.35 1.1841 -1.67834 0
M  V30 24096 H 2341.58 3.68693 -1.1663 0
M  V30 24097 H 2343.27 3.73799 -1.58205 0
M  V30 24098 H 2344.04 2.87074 -3.90914 0
M  V30 24099 H 2339.92 3.57772 -2.90724 0
M  V30 24100 H 2343.46 2.98032 -6.30732 0
M  V30 24101 H 2339.36 3.6895 -5.29666 0
M  V30 24102 H 2340.13 3.5633 -7.36866 0
M  V30 24103 N 2342.79 1.08509 1.14296 0
M  V30 24104 C 2343.72 0.737685 2.21541 0
M  V30 24105 C 2344.7 -0.280347 1.67774 0
M  V30 24106 O 2345.88 -0.150487 1.93616 0
M  V30 24107 C 2343.01 0.14732 3.46987 0
M  V30 24108 C 2341.97 1.09382 4.13787 0
M  V30 24109 C 2341.29 0.365618 5.33449 0
M  V30 24110 C 2342.59 2.43238 4.62204 0
M  V30 24111 H 2344.29 1.63435 2.50858 0
M  V30 24112 H 2341.83 0.787264 1.20574 0
M  V30 24113 H 2343.79 -0.107734 4.21262 0
M  V30 24114 H 2342.51 -0.784483 3.17039 0
M  V30 24115 H 2341.17 1.33399 3.41468 0
M  V30 24116 H 2340.82 -0.570022 4.9976 0
M  V30 24117 H 2340.52 0.996614 5.79087 0
M  V30 24118 H 2342.04 0.118641 6.10485 0
M  V30 24119 H 2343.46 2.23481 5.27948 0
M  V30 24120 H 2341.85 3.0204 5.18548 0
M  V30 24121 H 2342.92 3.04687 3.77218 0
M  V30 24122 N 2344.27 -1.31351 0.870907 0
M  V30 24123 C 2345.51 -1.96964 0.483022 0
M  V30 24124 C 2345.85 -1.68674 -0.962433 0
M  V30 24125 O 2345.12 -0.983739 -1.67788 0
M  V30 24126 C 2345.4 -3.52376 0.741814 0
M  V30 24127 C 2345.26 -3.90236 2.23687 0
M  V30 24128 C 2346.58 -4.39604 0.208915 0
M  V30 24129 H 2343.69 -0.715438 0.176967 0
M  V30 24130 H 2346.34 -1.55462 1.09232 0
M  V30 24131 H 2344.49 -3.87858 0.223217 0
M  V30 24132 H 2346.16 -3.64851 2.82279 0
M  V30 24133 H 2344.4 -3.38809 2.70907 0
M  V30 24134 H 2345.07 -4.986 2.36859 0
M  V30 24135 H 2347.55 -4.10951 0.652601 0
M  V30 24136 H 2346.42 -5.47295 0.419432 0
M  V30 24137 H 2346.69 -4.33065 -0.889199 0
M  V30 24138 N 2345.74 -0.630439 -1.44441 0
M  V30 24139 C 2346.71 0.065212 -2.29107 0
M  V30 24140 C 2347.71 0.77297 -1.41003 0
M  V30 24141 O 2348.9 0.617664 -1.62882 0
M  V30 24142 C 2346.03 1.10291 -3.22566 0
M  V30 24143 H 2347.22 -0.679453 -2.92102 0
M  V30 24144 H 2344.78 -0.390544 -1.51342 0
M  V30 24145 H 2345.51 1.87758 -2.64419 0
M  V30 24146 H 2345.3 0.599342 -3.87492 0
M  V30 24147 H 2346.79 1.58943 -3.8617 0
M  V30 24148 N 2347.22 1.53172 -0.370945 0
M  V30 24149 C 2348.45 2.05453 0.217352 0
M  V30 24150 C 2348.86 1.24385 1.42566 0
M  V30 24151 O 2348.2 0.278871 1.81571 0
M  V30 24152 C 2348.27 3.53206 0.669765 0
M  V30 24153 C 2347.93 4.55042 -0.42258 0
M  V30 24154 C 2348.93 5.04045 -1.27416 0
M  V30 24155 C 2346.61 4.98889 -0.584358 0
M  V30 24156 C 2348.61 5.95501 -2.27282 0
M  V30 24157 C 2346.29 5.9015 -1.58637 0
M  V30 24158 C 2347.29 6.38347 -2.42903 0
M  V30 24159 O 2346.98 7.27808 -3.41394 0
M  V30 24160 H 2346.71 0.674767 0.0408053 0
M  V30 24161 H 2349.26 1.98465 -0.529235 0
M  V30 24162 H 2347.49 3.57751 1.46804 0
M  V30 24163 H 2349.18 3.88319 1.18166 0
M  V30 24164 H 2349.95 4.70914 -1.1604 0
M  V30 24165 H 2345.83 4.60959 0.06177 0
M  V30 24166 H 2349.37 6.33043 -2.9309 0
M  V30 24167 H 2345.27 6.22696 -1.70059 0
M  V30 24168 H 2346.04 7.4582 -3.37187 0
M  V30 24169 N 2348.7 0.100255 1.57281 0
M  V30 24170 C 2349.63 -0.886935 2.11344 0
M  V30 24171 C 2350.65 -1.24259 1.05184 0
M  V30 24172 O 2351.83 -1.1948 1.32615 0
M  V30 24173 C 2348.93 -2.19449 2.58254 0
M  V30 24174 C 2348.11 -2.01339 3.88306 0
M  V30 24175 C 2347.17 -3.15654 4.2101 0
M  V30 24176 O 2346.19 -2.8939 4.90145 0
M  V30 24177 N 2347.39 -4.41568 3.76826 0
M  V30 24178 H 2350.16 -0.425163 2.96669 0
M  V30 24179 H 2347.72 -0.084705 1.61678 0
M  V30 24180 H 2349.71 -2.94883 2.77175 0
M  V30 24181 H 2348.28 -2.57034 1.77912 0
M  V30 24182 H 2347.5 -1.10205 3.78482 0
M  V30 24183 H 2348.79 -1.86522 4.73378 0
M  V30 24184 H 2348.19 -4.65787 3.21029 0
M  V30 24185 H 2346.75 -5.13935 4.00892 0
M  V30 24186 N 2350.18 -1.56643 -0.17346 0
M  V30 24187 C 2351.14 -1.95364 -1.19856 0
M  V30 24188 C 2352.14 -0.837064 -1.37295 0
M  V30 24189 O 2353.33 -1.10415 -1.34737 0
M  V30 24190 C 2350.46 -2.24658 -2.56401 0
M  V30 24191 H 2351.66 -2.87094 -0.867012 0
M  V30 24192 H 2349.21 -1.50667 -0.415827 0
M  V30 24193 H 2349.95 -1.35636 -2.94573 0
M  V30 24194 H 2349.73 -3.06045 -2.4511 0
M  V30 24195 H 2351.22 -2.55546 -3.30282 0
M  V30 24196 N 2351.66 0.44194 -1.51277 0
M  V30 24197 C 2352.89 1.21431 -1.67518 0
M  V30 24198 C 2353.3 1.85127 -0.370582 0
M  V30 24199 O 2352.66 1.70514 0.650468 0
M  V30 24200 C 2352.71 2.30172 -2.78752 0
M  V30 24201 O 2352.43 1.69082 -4.04157 0
M  V30 24202 C 2353.93 3.20535 -3.06222 0
M  V30 24203 H 2351.15 0.366168 -0.562283 0
M  V30 24204 H 2353.69 0.524209 -1.97667 0
M  V30 24205 H 2351.85 2.94906 -2.51215 0
M  V30 24206 H 2352.26 2.40914 -4.65898 0
M  V30 24207 H 2353.74 3.92981 -3.87647 0
M  V30 24208 H 2354.21 3.81023 -2.18445 0
M  V30 24209 H 2354.82 2.61507 -3.35401 0
M  V30 24210 N 2353.14 1.41345 0.697083 0
M  V30 24211 C 2354.38 1.4083 1.45928 0
M  V30 24212 C 2354.71 0.0167439 1.94193 0
M  V30 24213 O 2353.99 -0.955233 1.69427 0
M  V30 24214 C 2354.27 2.41377 2.67224 0
M  V30 24215 C 2354.13 3.89634 2.24735 0
M  V30 24216 C 2355.44 2.39202 3.69419 0
M  V30 24217 H 2352.56 0.512852 0.529294 0
M  V30 24218 H 2355.21 1.7261 0.794082 0
M  V30 24219 H 2353.36 2.14407 3.23978 0
M  V30 24220 H 2355.03 4.27502 1.7332 0
M  V30 24221 H 2353.27 4.04573 1.56535 0
M  V30 24222 H 2353.94 4.55531 3.11762 0
M  V30 24223 H 2356.42 2.63133 3.22335 0
M  V30 24224 H 2355.29 3.11571 4.51901 0
M  V30 24225 H 2355.55 1.41008 4.1901 0
M  V30 24226 N 2354.61 -0.931187 1.27148 0
M  V30 24227 C 2355.85 -1.6931 1.14514 0
M  V30 24228 C 2356.22 -1.89568 -0.304605 0
M  V30 24229 O 2357.42 -2.63044 -0.553297 0
M  V30 24230 C 2355.69 -3.0249 1.90354 0
M  V30 24231 S 2357.25 -3.93639 1.93891 0
M  V30 24232 H 2354.07 -0.581677 0.408868 0
M  V30 24233 H 2356.67 -1.1089 1.61008 0
M  V30 24234 H 2355.37 -2.85434 2.94882 0
M  V30 24235 H 2354.9 -3.65964 1.4434 0
M  V30 24236 H 2356.92 -4.85332 1.03282 0
M  V30 24237 N 2356.09 -1.09114 -1.13719 0
M  V30 24238 C 2357.05 -0.73128 -2.17221 0
M  V30 24239 C 2358.05 0.237538 -1.59036 0
M  V30 24240 O 2359.24 0.0161398 -1.74193 0
M  V30 24241 C 2356.38 -0.0809042 -3.40804 0
M  V30 24242 H 2357.57 -1.64787 -2.5057 0
M  V30 24243 H 2355.12 -0.889919 -1.28492 0
M  V30 24244 H 2355.86 0.847072 -3.13042 0
M  V30 24245 H 2355.64 -0.777963 -3.84305 0
M  V30 24246 H 2357.13 0.155584 -4.1731 0
M  V30 24247 N 2357.57 1.30887 -0.877861 0
M  V30 24248 C 2358.99 1.49041 -0.57087 0
M  V30 24249 C 2359.19 1.80625 0.893127 0
M  V30 24250 O 2358.24 1.88961 1.67481 0
M  V30 24251 C 2359.55 2.61876 -1.47789 0
M  V30 24252 C 2361.1 2.75758 -1.48076 0
M  V30 24253 C 2361.58 3.91698 -2.37354 0
M  V30 24254 N 2363.07 3.98997 -2.35278 0
M  V30 24255 C 2363.8 4.87999 -3.01072 0
M  V30 24256 N 2363.3 5.81847 -3.76066 0
M  V30 24257 N 2365.09 4.8131 -2.9034 0
M  V30 24258 H 2357.24 1.08656 -1.82504 0
M  V30 24259 H 2359.51 0.53763 -0.780806 0
M  V30 24260 H 2359.21 2.45337 -2.51998 0
M  V30 24261 H 2359.09 3.58195 -1.18222 0
M  V30 24262 H 2361.47 2.91707 -0.446217 0
M  V30 24263 H 2361.55 1.80082 -1.81671 0
M  V30 24264 H 2361.2 3.76506 -3.40889 0
M  V30 24265 H 2361.13 4.86698 -2.01079 0
M  V30 24266 H 2363.62 3.31857 -1.80774 0
M  V30 24267 H 2363.93 6.46507 -4.23378 0
M  V30 24268 H 2362.28 5.81802 -3.80174 0
M  V30 24269 H 2365.47 4.0697 -2.31285 0
M  V30 24270 H 2365.64 5.50465 -3.41895 0
M  V30 24271 N 2359.05 0.638091 1.44105 0
M  V30 24272 C 2360.01 -0.053061 2.29139 0
M  V30 24273 C 2361.01 -0.765481 1.41411 0
M  V30 24274 O 2362.2 -0.609017 1.63207 0
M  V30 24275 C 2359.33 -1.08579 3.23146 0
M  V30 24276 H 2360.53 0.694934 2.91737 0
M  V30 24277 H 2358.08 0.398565 1.51133 0
M  V30 24278 H 2358.81 -1.86353 2.65411 0
M  V30 24279 H 2358.6 -0.578784 3.87805 0
M  V30 24280 H 2360.09 -1.56893 3.87007 0
M  V30 24281 N 2360.53 -1.52973 0.379063 0
M  V30 24282 C 2361.46 -2.23771 -0.495923 0
M  V30 24283 C 2362.47 -1.25652 -1.03515 0
M  V30 24284 O 2363.66 -1.51792 -0.939222 0
M  V30 24285 C 2360.76 -2.93242 -1.69889 0
M  V30 24286 C 2359.93 -4.17981 -1.28883 0
M  V30 24287 C 2358.99 -4.70542 -2.35535 0
M  V30 24288 O 2358.02 -5.33887 -1.97366 0
M  V30 24289 N 2359.22 -4.49515 -3.6731 0
M  V30 24290 H 2361.98 -2.99496 0.110575 0
M  V30 24291 H 2359.55 -1.60598 0.204906 0
M  V30 24292 H 2361.54 -3.25309 -2.40741 0
M  V30 24293 H 2360.11 -2.20887 -2.21196 0
M  V30 24294 H 2359.33 -3.92066 -0.409607 0
M  V30 24295 H 2360.62 -4.99049 -0.991356 0
M  V30 24296 H 2360.01 -3.9893 -4.01088 0
M  V30 24297 H 2358.57 -4.86097 -4.34227 0
M  V30 24298 N 2362 -0.108595 -1.57225 0
M  V30 24299 C 2362.97 0.831044 -2.13603 0
M  V30 24300 C 2363.97 1.20171 -1.06843 0
M  V30 24301 O 2365.16 1.12893 -1.32668 0
M  V30 24302 C 2362.29 2.12239 -2.66772 0
M  V30 24303 H 2363.48 0.341265 -2.97952 0
M  V30 24304 H 2361.03 0.140542 -1.55667 0
M  V30 24305 H 2361.77 2.65671 -1.85982 0
M  V30 24306 H 2361.55 1.86619 -3.44842 0
M  V30 24307 H 2363.04 2.79429 -3.10337 0
M  V30 24308 N 2363.48 1.56732 0.16515 0
M  V30 24309 C 2364.89 1.71963 0.727016 0
M  V30 24310 C 2365.24 0.72011 1.82507 0
M  V30 24311 O 2364.37 -0.117204 2.16082 0
M  V30 24312 C 2364.96 3.11793 1.32554 0
M  V30 24313 C 2363.52 3.28688 1.83416 0
M  V30 24314 C 2362.67 2.6791 0.71552 0
M  V30 24315 H 2365.62 1.58585 -0.0603175 0
M  V30 24316 H 2365.64 3.10786 2.19528 0
M  V30 24317 H 2365.15 3.84517 0.526127 0
M  V30 24318 H 2363.25 2.6093 2.65981 0
M  V30 24319 H 2363.37 4.36482 1.97536 0
M  V30 24320 H 2361.73 2.27886 1.13754 0
M  V30 24321 H 2362.51 3.43224 -0.0721439 0
M  V30 24322 N 2364.96 -0.433911 1.51509 0
M  V30 24323 C 2366.37 -1.01366 1.56786 0
M  V30 24324 C 2366.72 -1.92216 0.393383 0
M  V30 24325 O 2365.85 -2.10793 -0.489404 0
M  V30 24326 C 2366.44 -1.84515 2.84147 0
M  V30 24327 C 2365 -2.37533 2.91984 0
M  V30 24328 C 2364.15 -1.16839 2.51484 0
M  V30 24329 H 2367.1 -0.215053 1.57236 0
M  V30 24330 H 2367.12 -2.70002 2.68103 0
M  V30 24331 H 2366.63 -1.18366 3.69609 0
M  V30 24332 H 2364.73 -3.07126 2.1096 0
M  V30 24333 H 2364.85 -2.70096 3.95708 0
M  V30 24334 H 2363.21 -1.51477 2.0476 0
M  V30 24335 H 2363.99 -0.522955 3.39293 0
M  V30 24336 N 2366.44 -1.41713 -0.689577 0
M  V30 24337 C 2367.85 -1.36877 -1.26971 0
M  V30 24338 C 2368.2 -0.0547825 -1.96124 0
M  V30 24339 O 2367.33 0.846835 -1.99142 0
M  V30 24340 C 2367.92 -2.47926 -2.30907 0
M  V30 24341 C 2366.48 -2.46469 -2.84482 0
M  V30 24342 C 2365.63 -2.27468 -1.58599 0
M  V30 24343 H 2368.58 -1.51142 -0.483933 0
M  V30 24344 H 2368.6 -2.17329 -3.12328 0
M  V30 24345 H 2368.11 -3.43546 -1.80548 0
M  V30 24346 H 2366.21 -1.54623 -3.39002 0
M  V30 24347 H 2366.32 -3.42992 -3.34504 0
M  V30 24348 H 2364.69 -1.75455 -1.84629 0
M  V30 24349 H 2365.47 -3.25123 -1.10227 0
M  V30 24350 N 2367.92 0.924431 -1.2764 0
M  V30 24351 C 2369.14 1.71177 -1.17104 0
M  V30 24352 C 2369.57 1.8618 0.268101 0
M  V30 24353 O 2368.92 1.3642 1.19413 0
M  V30 24354 C 2368.97 3.08736 -1.86319 0
M  V30 24355 O 2368.08 3.9565 -1.16338 0
M  V30 24356 H 2367.42 0.524562 -0.4071 0
M  V30 24357 H 2369.95 1.15663 -1.68769 0
M  V30 24358 H 2369.96 3.59031 -1.93806 0
M  V30 24359 H 2368.63 2.97133 -2.91006 0
M  V30 24360 H 2367.21 3.54089 -1.16941 0
M  V30 24361 N 2369.39 1.09715 1.13139 0
M  V30 24362 C 2370.64 0.846136 1.84965 0
M  V30 24363 C 2371 -0.621569 1.82083 0
M  V30 24364 O 2370.29 -1.45198 1.25013 0
M  V30 24365 C 2370.48 1.31916 3.32164 0
M  V30 24366 C 2370.31 2.83131 3.49381 0
M  V30 24367 C 2369.08 3.51045 3.6345 0
M  V30 24368 C 2371.28 3.81262 3.45172 0
M  V30 24369 N 2369.26 4.90657 3.68957 0
M  V30 24370 C 2370.63 5.06843 3.57085 0
M  V30 24371 C 2372.69 3.74075 3.28591 0
M  V30 24372 C 2371.39 6.26087 3.54129 0
M  V30 24373 C 2373.42 4.9281 3.26945 0
M  V30 24374 C 2372.78 6.17235 3.39411 0
M  V30 24375 H 2368.88 0.362524 0.692893 0
M  V30 24376 H 2371.46 1.3981 1.35504 0
M  V30 24377 H 2369.63 0.794602 3.80185 0
M  V30 24378 H 2371.36 1.01315 3.91813 0
M  V30 24379 H 2368.12 3.01478 3.65251 0
M  V30 24380 H 2368.54 5.6339 3.75394 0
M  V30 24381 H 2373.19 2.788 3.17853 0
M  V30 24382 H 2370.9 7.21659 3.6364 0
M  V30 24383 H 2374.49 4.8895 3.15308 0
M  V30 24384 H 2373.37 7.07571 3.38102 0
M  V30 24385 N 2370.87 -1.30419 0.88479 0
M  V30 24386 C 2372.15 -1.90967 0.423219 0
M  V30 24387 C 2372.53 -1.80418 -1.09601 0
M  V30 24388 O 2371.88 -1.22128 -1.93124 0
M  V30 24389 C 2372.09 -3.36625 0.921115 0
M  V30 24390 C 2373.44 -4.13698 0.955976 0
M  V30 24391 O 2374.46 -3.45468 0.867767 0
M  V30 24392 O 2373.32 -5.35596 1.08623 0
M  V30 24393 H 2370.41 -0.816816 0.129383 0
M  V30 24394 H 2372.96 -1.38988 0.973678 0
M  V30 24395 H 2371.73 -3.38386 1.96495 0
M  V30 24396 H 2371.35 -3.96058 0.34981 0
M  V30 24397 N 2372.35 -0.645724 -1.43764 0
M  V30 24398 C 2373.28 0.0890203 -2.29027 0
M  V30 24399 C 2374.3 0.794538 -1.42095 0
M  V30 24400 O 2375.48 0.653546 -1.66105 0
M  V30 24401 C 2372.58 1.14886 -3.18833 0
M  V30 24402 C 2371.76 0.522967 -4.34262 0
M  V30 24403 C 2370.82 1.47869 -5.04996 0
M  V30 24404 O 2369.84 0.990179 -5.60521 0
M  V30 24405 N 2371.04 2.81282 -5.078 0
M  V30 24406 H 2373.81 -0.642771 -2.92726 0
M  V30 24407 H 2371.37 -0.487951 -1.54372 0
M  V30 24408 H 2373.36 1.78885 -3.63018 0
M  V30 24409 H 2371.93 1.7827 -2.56785 0
M  V30 24410 H 2371.15 -0.295965 -3.93087 0
M  V30 24411 H 2372.44 0.0857253 -5.08728 0
M  V30 24412 H 2371.84 3.23537 -4.64047 0
M  V30 24413 H 2370.4 3.40604 -5.55727 0
M  V30 24414 N 2373.83 1.5277 -0.38717 0
M  V30 24415 C 2374.76 2.22809 0.493084 0
M  V30 24416 C 2375.74 1.228 1.06578 0
M  V30 24417 O 2376.92 1.51779 1.11783 0
M  V30 24418 C 2374.05 2.93965 1.68232 0
M  V30 24419 C 2373.1 4.08225 1.23508 0
M  V30 24420 S 2373.93 5.35055 0.218386 0
M  V30 24421 C 2375.09 6.09731 1.41346 0
M  V30 24422 H 2375.32 2.97126 -0.101678 0
M  V30 24423 H 2372.85 1.53446 -0.17135 0
M  V30 24424 H 2374.81 3.35571 2.36437 0
M  V30 24425 H 2373.47 2.19332 2.24838 0
M  V30 24426 H 2372.66 4.57106 2.12296 0
M  V30 24427 H 2372.27 3.68622 0.631979 0
M  V30 24428 H 2374.56 6.35774 2.3409 0
M  V30 24429 H 2375.5 7.01485 0.965613 0
M  V30 24430 H 2375.91 5.40476 1.6293 0
M  V30 24431 N 2375.31 0.116931 1.57166 0
M  V30 24432 C 2376.55 -0.536132 1.96207 0
M  V30 24433 C 2376.91 -1.64421 0.999179 0
M  V30 24434 O 2376.2 -1.91578 0.0288532 0
M  V30 24435 C 2376.39 -1.11658 3.3951 0
M  V30 24436 C 2376.22 -0.0662684 4.49651 0
M  V30 24437 C 2374.99 0.364829 5.03981 0
M  V30 24438 C 2377.19 0.713918 5.09321 0
M  V30 24439 N 2375.17 1.40113 5.97697 0
M  V30 24440 C 2376.54 1.60147 5.9896 0
M  V30 24441 C 2378.6 0.765034 4.91987 0
M  V30 24442 C 2377.3 2.53568 6.73124 0
M  V30 24443 C 2379.33 1.68695 5.6683 0
M  V30 24444 C 2378.69 2.56208 6.56153 0
M  V30 24445 H 2374.79 -0.165872 0.764206 0
M  V30 24446 H 2377.37 0.204569 1.93622 0
M  V30 24447 H 2375.54 -1.82701 3.42746 0
M  V30 24448 H 2377.28 -1.73379 3.6568 0
M  V30 24449 H 2374.03 -0.0271687 4.73592 0
M  V30 24450 H 2374.46 1.91814 6.49258 0
M  V30 24451 H 2379.1 0.102575 4.22676 0
M  V30 24452 H 2376.82 3.20829 7.41684 0
M  V30 24453 H 2380.4 1.73191 5.55424 0
M  V30 24454 H 2379.28 3.26385 7.13052 0
M  V30 24455 N 2376.78 -1.56818 -0.156836 0
M  V30 24456 C 2377.73 -1.97521 -1.1939 0
M  V30 24457 C 2378.7 -0.84129 -1.43218 0
M  V30 24458 O 2379.89 -1.10258 -1.55717 0
M  V30 24459 C 2377.03 -2.35263 -2.52479 0
M  V30 24460 C 2376.14 -3.619 -2.35907 0
M  V30 24461 C 2375.27 -3.88789 -3.61962 0
M  V30 24462 C 2374.31 -5.08728 -3.40386 0
M  V30 24463 N 2373.45 -5.31676 -4.58547 0
M  V30 24464 H 2378.29 -2.85922 -0.839795 0
M  V30 24465 H 2375.83 -1.41465 -0.403239 0
M  V30 24466 H 2377.79 -2.55171 -3.30066 0
M  V30 24467 H 2376.42 -1.49954 -2.85856 0
M  V30 24468 H 2375.47 -3.49824 -1.49423 0
M  V30 24469 H 2376.78 -4.49645 -2.15918 0
M  V30 24470 H 2375.93 -4.09142 -4.47981 0
M  V30 24471 H 2374.67 -2.99447 -3.84945 0
M  V30 24472 H 2373.68 -4.88257 -2.52754 0
M  V30 24473 H 2374.9 -5.99613 -3.18811 0
M  V30 24474 H 2372.85 -4.45287 -4.81721 0
M  V30 24475 H 2372.77 -6.13671 -4.41524 0
M  V30 24476 H 2374.03 -5.5652 -5.45807 0
M  V30 24477 N 2378.26 0.425871 -1.51737 0
M  V30 24478 C 2379.5 1.18368 -1.66638 0
M  V30 24479 C 2379.87 1.88204 -0.379887 0
M  V30 24480 O 2381.07 2.65734 -0.404805 0
M  V30 24481 C 2379.34 2.16471 -2.84385 0
M  V30 24482 S 2380.9 3.00584 -3.19679 0
M  V30 24483 H 2377.72 0.40124 -0.586965 0
M  V30 24484 H 2380.32 0.473484 -1.8968 0
M  V30 24485 H 2379.02 1.63824 -3.76284 0
M  V30 24486 H 2378.55 2.92054 -2.63567 0
M  V30 24487 H 2380.57 4.1824 -2.67001 0
M  V30 24488 N 2379.74 1.42077 0.682052 0
M  V30 24489 C 2380.67 1.4777 1.80793 0
M  V30 24490 C 2381.65 0.334983 1.66769 0
M  V30 24491 O 2382.84 0.548297 1.86299 0
M  V30 24492 C 2379.97 1.37235 3.19036 0
M  V30 24493 C 2378.92 2.49459 3.47785 0
M  V30 24494 C 2378.25 2.23983 4.85526 0
M  V30 24495 C 2379.55 3.91783 3.45404 0
M  V30 24496 H 2381.24 2.42 1.76285 0
M  V30 24497 H 2378.79 1.16477 0.846701 0
M  V30 24498 H 2380.74 1.39828 3.97525 0
M  V30 24499 H 2379.46 0.394964 3.24203 0
M  V30 24500 H 2378.12 2.46171 2.71653 0
M  V30 24501 H 2377.77 1.24556 4.87334 0
M  V30 24502 H 2377.47 2.99193 5.05725 0
M  V30 24503 H 2378.99 2.28314 5.66308 0
M  V30 24504 H 2380.41 3.96712 4.13875 0
M  V30 24505 H 2378.81 4.66784 3.77137 0
M  V30 24506 H 2379.88 4.1897 2.44115 0
M  V30 24507 N 2381.22 -0.917649 1.28129 0
M  V30 24508 C 2382.47 -1.66095 1.14435 0
M  V30 24509 C 2382.78 -1.93172 -0.307213 0
M  V30 24510 O 2383.99 -2.65552 -0.565212 0
M  V30 24511 C 2382.44 -2.99199 2.0002 0
M  V30 24512 C 2382.05 -2.79783 3.49893 0
M  V30 24513 C 2383.8 -3.7706 1.95002 0
M  V30 24514 C 2381.7 -4.08503 4.27643 0
M  V30 24515 H 2380.63 -0.623032 0.424673 0
M  V30 24516 H 2383.28 -1.01865 1.52629 0
M  V30 24517 H 2381.67 -3.64542 1.54678 0
M  V30 24518 H 2382.84 -2.23145 4.03166 0
M  V30 24519 H 2381.15 -2.15339 3.56396 0
M  V30 24520 H 2383.75 -4.72465 2.50362 0
M  V30 24521 H 2384.09 -4.05873 0.92589 0
M  V30 24522 H 2384.63 -3.1853 2.38293 0
M  V30 24523 H 2381.37 -3.84865 5.30621 0
M  V30 24524 H 2380.89 -4.64768 3.79145 0
M  V30 24525 H 2382.57 -4.76791 4.37355 0
M  V30 24526 N 2382.7 -1.10314 -1.12555 0
M  V30 24527 C 2384.11 -0.834673 -1.36034 0
M  V30 24528 C 2384.31 0.546505 -1.93947 0
M  V30 24529 O 2383.37 1.29962 -2.16486 0
M  V30 24530 C 2384.68 -1.93335 -2.30309 0
M  V30 24531 C 2386.23 -1.96164 -2.43903 0
M  V30 24532 C 2386.71 -3.05201 -3.41491 0
M  V30 24533 N 2388.2 -3.045 -3.49047 0
M  V30 24534 C 2388.93 -3.8551 -4.24464 0
M  V30 24535 N 2388.43 -4.76451 -5.02957 0
M  V30 24536 N 2390.22 -3.73732 -4.19858 0
M  V30 24537 H 2382.37 -1.99343 -0.733211 0
M  V30 24538 H 2384.63 -0.866204 -0.385219 0
M  V30 24539 H 2384.34 -2.92739 -1.94928 0
M  V30 24540 H 2384.21 -1.81944 -3.30418 0
M  V30 24541 H 2386.6 -0.973935 -2.78565 0
M  V30 24542 H 2386.68 -2.11632 -1.43686 0
M  V30 24543 H 2386.33 -4.04191 -3.07558 0
M  V30 24544 H 2386.26 -2.86976 -4.41534 0
M  V30 24545 H 2388.75 -2.38601 -2.93049 0
M  V30 24546 H 2389.06 -5.34825 -5.57837 0
M  V30 24547 H 2387.41 -4.80481 -5.02158 0
M  V30 24548 H 2390.6 -3.02038 -3.57618 0
M  V30 24549 H 2390.77 -4.37102 -4.78378 0
M  V30 24550 N 2384.18 1.29948 -0.891694 0
M  V30 24551 C 2385.11 2.3039 -0.379838 0
M  V30 24552 C 2386.09 1.61271 0.540891 0
M  V30 24553 O 2387.27 1.88835 0.453319 0
M  V30 24554 C 2384.4 3.44982 0.400593 0
M  V30 24555 C 2383.36 4.25845 -0.42898 0
M  V30 24556 C 2382.68 5.32555 0.478463 0
M  V30 24557 C 2383.98 4.94724 -1.67467 0
M  V30 24558 H 2385.68 2.73452 -1.21919 0
M  V30 24559 H 2383.22 1.31461 -0.587698 0
M  V30 24560 H 2385.17 4.14317 0.769361 0
M  V30 24561 H 2383.9 3.00742 1.27365 0
M  V30 24562 H 2382.56 3.58207 -0.779974 0
M  V30 24563 H 2382.21 4.84561 1.34943 0
M  V30 24564 H 2381.91 5.87555 -0.0728465 0
M  V30 24565 H 2383.43 6.04744 0.843599 0
M  V30 24566 H 2384.84 5.5654 -1.3761 0
M  V30 24567 H 2383.24 5.5962 -2.16668 0
M  V30 24568 H 2384.31 4.20468 -2.41525 0
M  V30 24569 N 2385.65 0.653339 1.4342 0
M  V30 24570 C 2386.6 -0.0381866 2.30768 0
M  V30 24571 C 2387.57 -0.814551 1.44756 0
M  V30 24572 O 2388.76 -0.791131 1.73625 0
M  V30 24573 C 2385.9 -0.998541 3.30338 0
M  V30 24574 C 2385.01 -0.218266 4.31448 0
M  V30 24575 C 2384.14 -1.17243 5.181 0
M  V30 24576 C 2383.18 -0.382595 6.10903 0
M  V30 24577 N 2382.32 -1.28836 6.90178 0
M  V30 24578 H 2387.16 0.712562 2.89355 0
M  V30 24579 H 2384.7 0.363153 1.42547 0
M  V30 24580 H 2386.65 -1.56894 3.86575 0
M  V30 24581 H 2385.28 -1.71616 2.734 0
M  V30 24582 H 2384.34 0.468427 3.77505 0
M  V30 24583 H 2385.65 0.395899 4.97226 0
M  V30 24584 H 2384.8 -1.81346 5.78963 0
M  V30 24585 H 2383.54 -1.8205 4.52448 0
M  V30 24586 H 2382.55 0.271787 5.49128 0
M  V30 24587 H 2383.77 0.261076 6.78598 0
M  V30 24588 H 2381.72 -1.92323 6.27175 0
M  V30 24589 H 2381.63 -0.728755 7.52479 0
M  V30 24590 H 2382.9 -1.91753 7.55547 0
M  V30 24591 N 2387.13 -1.52563 0.395266 0
M  V30 24592 C 2388.54 -1.86539 -0.0774391 0
M  V30 24593 C 2388.89 -1.31468 -1.45638 0
M  V30 24594 O 2388.02 -0.648403 -2.06457 0
M  V30 24595 C 2388.61 -3.3848 -0.147297 0
M  V30 24596 C 2387.17 -3.72146 -0.564308 0
M  V30 24597 C 2386.32 -2.75983 0.269968 0
M  V30 24598 H 2389.27 -1.46387 0.612902 0
M  V30 24599 H 2389.29 -3.68052 -0.965278 0
M  V30 24600 H 2388.8 -3.78532 0.856454 0
M  V30 24601 H 2386.9 -3.37665 -1.57521 0
M  V30 24602 H 2387.02 -4.78041 -0.318318 0
M  V30 24603 H 2385.38 -2.53311 -0.265651 0
M  V30 24604 H 2386.16 -3.18873 1.27181 0
M  V30 24605 N 2388.61 -0.125265 -1.57101 0
M  V30 24606 C 2389.84 0.538761 -1.99762 0
M  V30 24607 C 2390.25 1.59825 -1.00506 0
M  V30 24608 O 2389.61 1.825 0.00116266 0
M  V30 24609 C 2389.66 1.15921 -3.4241 0
M  V30 24610 O 2389.38 0.142066 -4.3787 0
M  V30 24611 C 2390.88 1.90595 -4.00235 0
M  V30 24612 H 2388.1 0.142129 -0.655775 0
M  V30 24613 H 2390.65 -0.213449 -2.03383 0
M  V30 24614 H 2388.8 1.86217 -3.39709 0
M  V30 24615 H 2389.22 0.593683 -5.21129 0
M  V30 24616 H 2390.69 2.29326 -5.02109 0
M  V30 24617 H 2391.17 2.78357 -3.39726 0
M  V30 24618 H 2391.77 1.25048 -4.06501 0
M  V30 24619 N 2390.09 1.56899 0.148518 0
M  V30 24620 C 2391.02 2.01184 1.18521 0
M  V30 24621 C 2392 0.891148 1.44888 0
M  V30 24622 O 2393.18 1.15885 1.55834 0
M  V30 24623 C 2390.31 2.39116 2.51874 0
M  V30 24624 C 2389.27 3.54357 2.40031 0
M  V30 24625 C 2388.59 3.78098 3.78082 0
M  V30 24626 C 2389.89 4.87072 1.88568 0
M  V30 24627 H 2391.59 2.88038 0.816979 0
M  V30 24628 H 2389.13 1.38574 0.39155 0
M  V30 24629 H 2391.09 2.68698 3.24622 0
M  V30 24630 H 2389.81 1.49198 2.9053 0
M  V30 24631 H 2388.47 3.24939 1.69736 0
M  V30 24632 H 2388.12 2.85433 4.1417 0
M  V30 24633 H 2387.82 4.55651 3.7102 0
M  V30 24634 H 2389.34 4.10103 4.5238 0
M  V30 24635 H 2390.76 5.15381 2.51108 0
M  V30 24636 H 2389.15 5.68421 1.924 0
M  V30 24637 H 2390.22 4.77546 0.841276 0
M  V30 24638 N 2391.57 -0.417818 1.51961 0
M  V30 24639 C 2392.52 -1.50737 1.71062 0
M  V30 24640 C 2393.5 -1.50672 0.564513 0
M  V30 24641 O 2394.69 -1.56795 0.821233 0
M  V30 24642 C 2391.82 -2.88751 1.85682 0
M  V30 24643 C 2390.91 -2.93497 3.06138 0
M  V30 24644 N 2391.3 -2.67954 4.28992 0
M  V30 24645 C 2389.6 -3.24664 3.05793 0
M  V30 24646 C 2390.3 -2.79046 5.104 0
M  V30 24647 N 2389.27 -3.11554 4.45461 0
M  V30 24648 H 2393.07 -1.2977 2.63698 0
M  V30 24649 H 2390.59 -0.625409 1.49875 0
M  V30 24650 H 2392.59 -3.6716 1.97481 0
M  V30 24651 H 2391.25 -3.10723 0.942403 0
M  V30 24652 H 2392.26 -2.42512 4.57612 0
M  V30 24653 H 2388.93 -3.52286 2.24056 0
M  V30 24654 H 2390.32 -2.63086 6.18252 0
M  V30 24655 N 2393.04 -1.42436 -0.674508 0
M  V30 24656 C 2394.29 -1.42639 -1.43173 0
M  V30 24657 C 2394.61 -0.0439335 -1.94951 0
M  V30 24658 O 2393.88 0.917577 -1.73082 0
M  V30 24659 H 2392.46 -0.525101 -0.531298 0
M  V30 24660 H 2395.12 -1.7786 -0.796975 0
M  V30 24661 H 2394.22 -2.12633 -2.2846 0
M  V30 24662 N 2394.52 0.910841 -1.28614 0
M  V30 24663 C 2395.93 1.47539 -1.14408 0
M  V30 24664 C 2396.28 1.94404 0.264867 0
M  V30 24665 O 2395.41 1.82721 1.15939 0
M  V30 24666 C 2396 2.6815 -2.07078 0
M  V30 24667 C 2394.56 3.20774 -1.96928 0
M  V30 24668 C 2393.71 1.93477 -1.9865 0
M  V30 24669 H 2396.66 0.723266 -1.41261 0
M  V30 24670 H 2396.68 3.43511 -1.63648 0
M  V30 24671 H 2396.19 2.34009 -3.09615 0
M  V30 24672 H 2394.29 3.59634 -0.974393 0
M  V30 24673 H 2394.41 3.85827 -2.84032 0
M  V30 24674 H 2392.77 2.10702 -1.43096 0
M  V30 24675 H 2393.55 1.61629 -3.02871 0
M  V30 24676 N 2396 1.10909 1.11969 0
M  V30 24677 C 2397.23 0.876857 1.874 0
M  V30 24678 C 2397.64 -0.572993 1.79895 0
M  V30 24679 O 2397 -1.39532 1.17631 0
M  V30 24680 C 2397.05 1.32288 3.36426 0
M  V30 24681 O 2396.77 2.71588 3.43761 0
M  V30 24682 C 2398.27 1.12526 4.28781 0
M  V30 24683 H 2395.49 0.314395 0.592788 0
M  V30 24684 H 2398.04 1.47501 1.41646 0
M  V30 24685 H 2396.19 0.768295 3.79705 0
M  V30 24686 H 2396.61 2.90784 4.36515 0
M  V30 24687 H 2398.08 1.48642 5.3161 0
M  V30 24688 H 2398.56 0.0643166 4.39153 0
M  V30 24689 H 2399.16 1.66655 3.91288 0
M  V30 24690 N 2397.48 -1.29474 0.898573 0
M  V30 24691 C 2398.89 -1.77704 0.572568 0
M  V30 24692 C 2399.24 -1.73729 -0.911747 0
M  V30 24693 O 2398.37 -1.3225 -1.71286 0
M  V30 24694 C 2398.96 -3.22682 1.03257 0
M  V30 24695 C 2397.52 -3.68694 0.757752 0
M  V30 24696 C 2396.67 -2.49609 1.20791 0
M  V30 24697 H 2399.62 -1.16151 1.08141 0
M  V30 24698 H 2399.64 -3.78722 0.367374 0
M  V30 24699 H 2399.15 -3.25543 2.11291 0
M  V30 24700 H 2397.25 -3.71308 -0.310014 0
M  V30 24701 H 2397.36 -4.59544 1.35484 0
M  V30 24702 H 2395.73 -2.46864 0.626931 0
M  V30 24703 H 2396.51 -2.55199 2.29626 0
M  V30 24704 N 2398.96 -0.660936 -1.43071 0
M  V30 24705 C 2399.89 0.0122419 -2.33497 0
M  V30 24706 C 2400.87 0.803899 -1.49905 0
M  V30 24707 O 2402.05 0.763833 -1.78548 0
M  V30 24708 C 2399.18 0.973936 -3.33364 0
M  V30 24709 C 2398.14 0.291852 -4.27004 0
M  V30 24710 C 2397.46 1.36553 -5.16969 0
M  V30 24711 C 2398.76 -0.820552 -5.15814 0
M  V30 24712 H 2400.46 -0.742924 -2.90036 0
M  V30 24713 H 2398 -0.358713 -1.39461 0
M  V30 24714 H 2399.96 1.45385 -3.95527 0
M  V30 24715 H 2398.68 1.76036 -2.75098 0
M  V30 24716 H 2397.34 -0.167687 -3.66216 0
M  V30 24717 H 2396.99 2.14358 -4.55038 0
M  V30 24718 H 2396.69 0.914352 -5.80442 0
M  V30 24719 H 2398.21 1.84665 -5.82006 0
M  V30 24720 H 2399.62 -0.422467 -5.71741 0
M  V30 24721 H 2398.02 -1.19667 -5.88048 0
M  V30 24722 H 2399.09 -1.67526 -4.55042 0
M  V30 24723 N 2400.43 1.52351 -0.403352 0
M  V30 24724 C 2401.36 2.29761 0.416165 0
M  V30 24725 C 2402.35 1.3373 1.0512 0
M  V30 24726 O 2403.53 1.62634 1.06131 0
M  V30 24727 C 2400.66 3.11478 1.53619 0
M  V30 24728 C 2399.61 4.15509 1.02645 0
M  V30 24729 C 2398.94 4.85535 2.23963 0
M  V30 24730 C 2400.24 5.22232 0.0845382 0
M  V30 24731 H 2401.93 2.98517 -0.229754 0
M  V30 24732 H 2399.48 1.43564 -0.111938 0
M  V30 24733 H 2401.43 3.64397 2.11644 0
M  V30 24734 H 2400.16 2.40481 2.2099 0
M  V30 24735 H 2398.82 3.63592 0.468646 0
M  V30 24736 H 2398.46 4.11073 2.89876 0
M  V30 24737 H 2398.16 5.55859 1.90511 0
M  V30 24738 H 2399.69 5.41264 2.82605 0
M  V30 24739 H 2401.1 5.70425 0.573409 0
M  V30 24740 H 2399.5 5.99884 -0.160889 0
M  V30 24741 H 2400.57 4.77168 -0.862454 0
M  V30 24742 N 2401.91 0.133594 1.57033 0
M  V30 24743 C 2403.14 -0.527394 1.99755 0
M  V30 24744 C 2403.55 -1.5983 1.01247 0
M  V30 24745 O 2402.89 -1.837 -0.000613206 0
M  V30 24746 C 2402.96 -1.19933 3.38905 0
M  V30 24747 C 2402.62 -0.274629 4.56174 0
M  V30 24748 C 2403.62 0.492489 5.17562 0
M  V30 24749 C 2401.3 -0.181442 5.01972 0
M  V30 24750 C 2403.3 1.34038 6.23147 0
M  V30 24751 C 2400.98 0.670065 6.07415 0
M  V30 24752 C 2401.98 1.42959 6.67871 0
M  V30 24753 O 2401.67 2.26693 7.71275 0
M  V30 24754 H 2401.4 -0.142988 0.660705 0
M  V30 24755 H 2403.95 0.221135 2.04206 0
M  V30 24756 H 2402.18 -1.99522 3.31252 0
M  V30 24757 H 2403.87 -1.75869 3.65821 0
M  V30 24758 H 2404.64 0.430452 4.83086 0
M  V30 24759 H 2400.52 -0.762342 4.54653 0
M  V30 24760 H 2404.06 1.93369 6.70264 0
M  V30 24761 H 2399.96 0.733443 6.4132 0
M  V30 24762 H 2400.73 2.19794 7.88437 0
M  V30 24763 N 2403.39 -1.56975 -0.140195 0
M  V30 24764 C 2404.81 -1.51793 -0.493061 0
M  V30 24765 C 2405.01 -0.843148 -1.83012 0
M  V30 24766 O 2404.06 -0.416537 -2.49041 0
M  V30 24767 C 2405.38 -2.96563 -0.497092 0
M  V30 24768 C 2406.92 -3.07539 -0.582132 0
M  V30 24769 C 2407.4 -4.53828 -0.616759 0
M  V30 24770 N 2408.89 -4.58199 -0.678793 0
M  V30 24771 C 2409.62 -5.68777 -0.726682 0
M  V30 24772 N 2409.12 -6.88906 -0.733502 0
M  V30 24773 N 2410.91 -5.56828 -0.768081 0
M  V30 24774 H 2403.06 -1.99235 0.736143 0
M  V30 24775 H 2405.33 -0.908975 0.269198 0
M  V30 24776 H 2405.03 -3.49216 0.417278 0
M  V30 24777 H 2404.91 -3.52877 -1.33257 0
M  V30 24778 H 2407.29 -2.54901 -1.48692 0
M  V30 24779 H 2407.38 -2.54256 0.280625 0
M  V30 24780 H 2407.02 -5.07106 0.283901 0
M  V30 24781 H 2406.95 -5.049 -1.4961 0
M  V30 24782 H 2409.44 -3.71722 -0.680545 0
M  V30 24783 H 2409.75 -7.68934 -0.77208 0
M  V30 24784 H 2408.1 -6.91453 -0.701268 0
M  V30 24785 H 2411.29 -4.6189 -0.75997 0
M  V30 24786 H 2411.46 -6.43019 -0.801937 0
M  V30 24787 N 2404.87 0.409753 -1.5218 0
M  V30 24788 C 2405.8 1.50606 -1.78438 0
M  V30 24789 C 2406.78 1.5779 -0.635323 0
M  V30 24790 O 2407.96 1.73074 -0.880853 0
M  V30 24791 C 2405.09 2.88435 -1.93449 0
M  V30 24792 C 2404.05 2.96102 -3.09043 0
M  V30 24793 C 2403.37 4.36179 -3.09276 0
M  V30 24794 C 2404.67 2.67645 -4.48513 0
M  V30 24795 H 2406.37 1.28884 -2.70239 0
M  V30 24796 H 2403.91 0.618582 -1.30037 0
M  V30 24797 H 2405.87 3.65116 -2.10401 0
M  V30 24798 H 2404.59 3.1145 -0.983184 0
M  V30 24799 H 2403.25 2.21866 -2.9184 0
M  V30 24800 H 2402.9 4.56202 -2.11869 0
M  V30 24801 H 2402.6 4.42234 -3.86915 0
M  V30 24802 H 2404.12 5.14795 -3.28357 0
M  V30 24803 H 2405.54 3.34048 -4.65924 0
M  V30 24804 H 2403.93 2.85076 -5.28064 0
M  V30 24805 H 2405 1.63087 -4.56652 0
M  V30 24806 N 2406.35 1.42792 0.666944 0
M  V30 24807 C 2407.59 1.43397 1.42414 0
M  V30 24808 C 2407.92 0.0542716 1.94924 0
M  V30 24809 O 2407.19 -0.908385 1.73566 0
M  V30 24810 H 2405.77 0.527911 0.528506 0
M  V30 24811 H 2408.43 1.78281 0.787531 0
M  V30 24812 H 2407.52 2.13841 2.27329 0
M  V30 24813 N 2407.82 -0.904008 1.29095 0
M  V30 24814 C 2408.79 -1.98917 1.13863 0
M  V30 24815 C 2409.79 -1.60623 0.0753739 0
M  V30 24816 O 2410.98 -1.71199 0.321961 0
M  V30 24817 C 2408.11 -3.32766 0.740257 0
M  V30 24818 H 2409.3 -2.13858 2.1025 0
M  V30 24819 H 2406.86 -1.08795 1.1222 0
M  V30 24820 H 2407.59 -3.23526 -0.223941 0
M  V30 24821 H 2407.38 -3.61923 1.50844 0
M  V30 24822 H 2408.87 -4.12405 0.656619 0
M  V30 24823 N 2409.3 -1.11501 -1.11379 0
M  V30 24824 C 2410.55 -0.865544 -1.83402 0
M  V30 24825 C 2410.88 0.607296 -1.8446 0
M  V30 24826 O 2410.16 1.4484 -1.29814 0
M  V30 24827 C 2410.44 -1.42861 -3.30549 0
M  V30 24828 C 2410.29 -2.96912 -3.37881 0
M  V30 24829 C 2411.61 -1.08007 -4.26641 0
M  V30 24830 H 2408.73 -0.315882 -0.665874 0
M  V30 24831 H 2411.37 -1.38 -1.30598 0
M  V30 24832 H 2409.52 -0.991051 -3.75647 0
M  V30 24833 H 2411.19 -3.49276 -3.01337 0
M  V30 24834 H 2409.44 -3.32946 -2.78082 0
M  V30 24835 H 2410.11 -3.31397 -4.41452 0
M  V30 24836 H 2412.58 -1.45782 -3.89727 0
M  V30 24837 H 2411.46 -1.50081 -5.27984 0
M  V30 24838 H 2411.72 0.00907266 -4.42099 0
M  V30 24839 N 2410.78 1.28995 -0.905426 0
M  V30 24840 C 2411.71 2.26592 -0.344788 0
M  V30 24841 C 2412.73 1.54536 0.512108 0
M  V30 24842 O 2413.92 1.75454 0.328337 0
M  V30 24843 C 2411.02 3.34785 0.526528 0
M  V30 24844 C 2410.19 4.36329 -0.305948 0
M  V30 24845 C 2409.25 5.23828 0.499117 0
M  V30 24846 O 2408.27 5.69136 -0.0854004 0
M  V30 24847 N 2409.48 5.51758 1.80398 0
M  V30 24848 H 2412.24 2.75336 -1.18364 0
M  V30 24849 H 2409.8 1.4239 -0.770506 0
M  V30 24850 H 2411.79 3.90254 1.07164 0
M  V30 24851 H 2410.36 2.85813 1.26608 0
M  V30 24852 H 2409.58 3.80439 -1.03246 0
M  V30 24853 H 2410.87 5.01205 -0.875861 0
M  V30 24854 H 2410.27 5.16766 2.30151 0
M  V30 24855 H 2408.83 6.10019 2.2961 0
M  V30 24856 N 2412.26 0.668514 1.42719 0
M  V30 24857 C 2413.21 -0.0254448 2.32586 0
M  V30 24858 C 2414.2 -0.79715 1.49472 0
M  V30 24859 O 2415.41 -0.705823 1.65584 0
M  V30 24860 H 2411.78 -0.0270207 0.751514 0
M  V30 24861 H 2413.75 0.749987 2.88821 0
M  V30 24862 C 2412.5 -0.967368 3.33972 0
M  V30 24863 H 2411.83 -0.382978 3.97961 0
M  V30 24864 H 2413.27 -1.42174 3.99453 0
M  V30 24865 C 2411.72 -2.07075 2.65747 0
M  V30 24866 O 2412.25 -3.15644 2.48459 0
M  V30 24867 N 2410.46 -1.84066 2.24873 0
M  V30 24868 H 2410.01 -0.957738 2.39134 0
M  V30 24869 H 2409.97 -2.58083 1.79557 0
M  V30 24870 N 2413.74 -1.52135 0.411426 0
M  V30 24871 C 2414.65 -2.30815 -0.419734 0
M  V30 24872 C 2415.66 -1.38636 -1.05148 0
M  V30 24873 O 2416.84 -1.71711 -1.05249 0
M  V30 24874 C 2413.9 -3.11597 -1.52014 0
M  V30 24875 C 2412.97 -4.19518 -0.911216 0
M  V30 24876 C 2412.2 -4.96439 -1.95918 0
M  V30 24877 O 2412.42 -4.73688 -3.17767 0
M  V30 24878 O 2411.36 -5.81222 -1.56413 0
M  V30 24879 H 2415.18 -3.02889 0.221858 0
M  V30 24880 H 2412.77 -1.48377 0.174573 0
M  V30 24881 H 2414.65 -3.61896 -2.15891 0
M  V30 24882 H 2413.32 -2.42314 -2.14629 0
M  V30 24883 H 2412.23 -3.73361 -0.235091 0
M  V30 24884 H 2413.56 -4.911 -0.328954 0
M  V30 24885 N 2415.22 -0.14192 -1.5696 0
M  V30 24886 C 2416.46 0.511214 -1.96251 0
M  V30 24887 C 2416.79 1.64849 -1.02657 0
M  V30 24888 O 2416.07 1.94381 -0.0680017 0
M  V30 24889 C 2416.35 1.02221 -3.45287 0
M  V30 24890 C 2416.21 -0.113217 -4.49657 0
M  V30 24891 C 2417.52 1.90567 -3.96702 0
M  V30 24892 H 2414.64 0.184355 -0.71357 0
M  V30 24893 H 2417.29 -0.22212 -1.88697 0
M  V30 24894 H 2415.44 1.64713 -3.51855 0
M  V30 24895 H 2417.11 -0.749382 -4.55172 0
M  V30 24896 H 2415.35 -0.773101 -4.26855 0
M  V30 24897 H 2416.02 0.285956 -5.51259 0
M  V30 24898 H 2418.5 1.37911 -3.92581 0
M  V30 24899 H 2417.37 2.23232 -5.01457 0
M  V30 24900 H 2417.63 2.84073 -3.38755 0
M  V30 24901 N 2416.69 1.57047 0.131868 0
M  V30 24902 C 2417.92 1.88343 0.856428 0
M  V30 24903 C 2418.34 0.731787 1.74041 0
M  V30 24904 O 2417.69 -0.297914 1.80052 0
M  V30 24905 C 2417.74 3.19002 1.70058 0
M  V30 24906 O 2417.47 4.29731 0.852203 0
M  V30 24907 C 2418.97 3.63915 2.53141 0
M  V30 24908 H 2416.19 0.623934 0.246874 0
M  V30 24909 H 2418.73 2.04147 0.120117 0
M  V30 24910 H 2416.89 3.04906 2.38979 0
M  V30 24911 H 2417.3 5.04539 1.4332 0
M  V30 24912 H 2418.77 4.58135 3.07923 0
M  V30 24913 H 2419.25 2.8994 3.29896 0
M  V30 24914 H 2419.86 3.80756 1.89486 0
M  V30 24915 N 2418.17 -0.401677 1.52395 0
M  V30 24916 C 2419.1 -1.49658 1.79234 0
M  V30 24917 C 2420.08 -1.57451 0.643682 0
M  V30 24918 O 2421.27 -1.72604 0.89002 0
M  V30 24919 C 2418.4 -2.87405 1.94976 0
M  V30 24920 C 2417.35 -2.94459 3.10609 0
M  V30 24921 C 2416.68 -4.34533 3.11585 0
M  V30 24922 C 2417.98 -2.65262 4.49926 0
M  V30 24923 H 2419.67 -1.27449 2.70919 0
M  V30 24924 H 2417.22 -0.611677 1.30363 0
M  V30 24925 H 2419.17 -3.63995 2.12334 0
M  V30 24926 H 2417.89 -3.10924 0.999687 0
M  V30 24927 H 2416.55 -2.20316 2.93013 0
M  V30 24928 H 2416.2 -4.55072 2.14285 0
M  V30 24929 H 2415.9 -4.40176 3.89255 0
M  V30 24930 H 2417.43 -5.13047 3.31082 0
M  V30 24931 H 2418.84 -3.31573 4.67689 0
M  V30 24932 H 2417.24 -2.82271 5.29569 0
M  V30 24933 H 2418.31 -1.60663 4.5751 0
M  V30 24934 N 2419.65 -1.43144 -0.659362 0
M  V30 24935 C 2420.88 -1.47863 -1.44721 0
M  V30 24936 C 2421.29 -0.0946217 -1.88563 0
M  V30 24937 O 2420.65 0.893887 -1.5911 0
M  V30 24938 C 2420.7 -2.41918 -2.68623 0
M  V30 24939 O 2420.42 -3.74936 -2.26616 0
M  V30 24940 C 2421.92 -2.55816 -3.6204 0
M  V30 24941 H 2419.14 -0.502395 -0.444792 0
M  V30 24942 H 2421.69 -1.87823 -0.808883 0
M  V30 24943 H 2419.84 -2.0517 -3.28609 0
M  V30 24944 H 2420.26 -4.25455 -3.06738 0
M  V30 24945 H 2421.73 -3.25715 -4.45661 0
M  V30 24946 H 2422.21 -1.60106 -4.08978 0
M  V30 24947 H 2422.81 -2.93349 -3.07939 0
M  V30 24948 N 2421.13 0.897149 -1.29572 0
M  V30 24949 C 2422.08 1.98853 -1.11542 0
M  V30 24950 C 2423.06 1.60864 -0.0340998 0
M  V30 24951 O 2424.25 1.75138 -0.256093 0
M  V30 24952 C 2421.38 3.33928 -0.796661 0
M  V30 24953 C 2420.47 3.78269 -1.91765 0
M  V30 24954 N 2420.86 3.9482 -3.1615 0
M  V30 24955 C 2419.16 4.07565 -1.81126 0
M  V30 24956 C 2419.86 4.32226 -3.89301 0
M  V30 24957 N 2418.83 4.41413 -3.17263 0
M  V30 24958 H 2422.64 2.09722 -2.05897 0
M  V30 24959 H 2420.15 1.08614 -1.20734 0
M  V30 24960 H 2422.15 4.11825 -0.648531 0
M  V30 24961 H 2420.81 3.24403 0.138946 0
M  V30 24962 H 2421.82 3.80282 -3.51576 0
M  V30 24963 H 2418.5 4.06582 -0.948533 0
M  V30 24964 H 2419.89 4.52856 -4.96357 0
M  V30 24965 N 2422.61 1.1209 1.10786 0
M  V30 24966 C 2424.02 0.888939 1.64179 0
M  V30 24967 C 2424.37 -0.577465 1.87509 0
M  V30 24968 O 2423.49 -1.44109 1.61436 0
M  V30 24969 C 2424.09 1.60717 2.98254 0
M  V30 24970 C 2422.65 1.42145 3.48528 0
M  V30 24971 C 2421.79 1.64544 2.23205 0
M  V30 24972 H 2424.74 1.27619 0.943346 0
M  V30 24973 H 2424.77 1.05611 3.6555 0
M  V30 24974 H 2424.28 2.67441 2.81242 0
M  V30 24975 H 2422.38 0.376617 3.70692 0
M  V30 24976 H 2422.49 2.17512 4.26879 0
M  V30 24977 H 2420.86 1.06929 2.31167 0
M  V30 24978 H 2421.64 2.72557 2.08728 0
M  V30 24979 N 2424.08 -1.28513 0.912254 0
M  V30 24980 C 2425.33 -1.94322 0.540538 0
M  V30 24981 C 2425.65 -1.72613 -0.920014 0
M  V30 24982 O 2426.85 -2.32631 -1.39982 0
M  V30 24983 C 2425.31 -3.48052 0.915865 0
M  V30 24984 C 2424.92 -3.78542 2.39604 0
M  V30 24985 C 2426.66 -4.20026 0.614662 0
M  V30 24986 C 2424.57 -5.25574 2.71157 0
M  V30 24987 H 2423.5 -0.727421 0.198431 0
M  V30 24988 H 2426.15 -1.46047 1.11097 0
M  V30 24989 H 2424.53 -3.95049 0.274238 0
M  V30 24990 H 2425.7 -3.42358 3.08428 0
M  V30 24991 H 2424.02 -3.19736 2.66755 0
M  V30 24992 H 2426.62 -5.28264 0.827094 0
M  V30 24993 H 2426.96 -4.13888 -0.447458 0
M  V30 24994 H 2427.49 -3.78801 1.21469 0
M  V30 24995 H 2424.23 -5.36788 3.76217 0
M  V30 24996 H 2423.75 -5.6296 2.0697 0
M  V30 24997 H 2425.43 -5.93298 2.58083 0
M  V30 24998 N 2425.56 -0.676073 -1.42362 0
M  V30 24999 C 2426.79 -0.207304 -2.05859 0
M  V30 25000 C 2427.21 1.13602 -1.50798 0
M  V30 25001 O 2426.56 1.70597 -0.648295 0
M  V30 25002 C 2426.61 -0.135039 -3.61248 0
M  V30 25003 O 2426.33 -1.42528 -4.14267 0
M  V30 25004 C 2427.84 0.357073 -4.4186 0
M  V30 25005 H 2425.06 -0.100514 -0.663429 0
M  V30 25006 H 2427.6 -0.923168 -1.82477 0
M  V30 25007 H 2425.75 0.531521 -3.83736 0
M  V30 25008 H 2426.17 -1.29948 -5.08147 0
M  V30 25009 H 2427.64 0.356544 -5.50847 0
M  V30 25010 H 2428.12 1.39256 -4.16539 0
M  V30 25011 H 2428.73 -0.277794 -4.24392 0
M  V30 25012 N 2427.04 1.51915 -0.419488 0
M  V30 25013 C 2427.99 2.27292 0.400887 0
M  V30 25014 C 2428.96 1.30133 1.03221 0
M  V30 25015 O 2430.14 1.59011 1.05452 0
M  V30 25016 C 2427.28 3.10507 1.50597 0
M  V30 25017 C 2426.4 4.22637 0.894546 0
M  V30 25018 C 2425.53 4.93192 1.97319 0
M  V30 25019 C 2424.57 5.97269 1.33925 0
M  V30 25020 N 2423.71 6.61302 2.35848 0
M  V30 25021 H 2428.55 2.96964 -0.248304 0
M  V30 25022 H 2426.08 1.46486 -0.134292 0
M  V30 25023 H 2428.04 3.57066 2.15777 0
M  V30 25024 H 2426.67 2.42985 2.12505 0
M  V30 25025 H 2425.72 3.80173 0.131516 0
M  V30 25026 H 2427.04 4.97261 0.391553 0
M  V30 25027 H 2426.19 5.43209 2.70202 0
M  V30 25028 H 2424.93 4.18159 2.50987 0
M  V30 25029 H 2423.93 5.46562 0.5958 0
M  V30 25030 H 2425.16 6.7425 0.810133 0
M  V30 25031 H 2423.1 5.89092 2.88629 0
M  V30 25032 H 2423.02 7.31633 1.9039 0
M  V30 25033 H 2424.29 7.15954 3.08269 0
M  V30 25034 N 2428.52 0.150242 1.56882 0
M  V30 25035 C 2429.75 -0.506178 2.00303 0
M  V30 25036 C 2430.16 -1.58747 1.02937 0
M  V30 25037 O 2429.5 -1.8369 0.0188707 0
M  V30 25038 C 2429.56 -1.16331 3.40158 0
M  V30 25039 C 2429.23 -0.22623 4.5644 0
M  V30 25040 C 2430.22 0.547356 5.17011 0
M  V30 25041 C 2427.91 -0.128191 5.02136 0
M  V30 25042 C 2429.9 1.4064 6.21691 0
M  V30 25043 C 2427.59 0.734452 6.0667 0
M  V30 25044 C 2428.59 1.50035 6.66317 0
M  V30 25045 O 2428.27 2.34861 7.68827 0
M  V30 25046 H 2428.01 -0.135972 0.662184 0
M  V30 25047 H 2430.56 0.242782 2.0396 0
M  V30 25048 H 2428.79 -1.95998 3.33349 0
M  V30 25049 H 2430.48 -1.71979 3.67666 0
M  V30 25050 H 2431.25 0.481665 4.82602 0
M  V30 25051 H 2427.12 -0.714077 4.55436 0
M  V30 25052 H 2430.67 2.00467 6.68176 0
M  V30 25053 H 2426.57 0.801422 6.40506 0
M  V30 25054 H 2427.33 2.28144 7.86061 0
M  V30 25055 N 2430 -1.57115 -0.123538 0
M  V30 25056 C 2431.25 -1.83801 -0.830672 0
M  V30 25057 C 2431.56 -0.73519 -1.81258 0
M  V30 25058 O 2432.76 -0.888323 -2.56556 0
M  V30 25059 C 2431.22 -3.25855 -1.52796 0
M  V30 25060 C 2430.83 -4.44134 -0.587278 0
M  V30 25061 C 2432.57 -3.61793 -2.2205 0
M  V30 25062 C 2430.48 -5.77214 -1.28754 0
M  V30 25063 H 2429.41 -0.685528 -0.313955 0
M  V30 25064 H 2432.06 -1.8331 -0.0834037 0
M  V30 25065 H 2430.44 -3.20801 -2.32169 0
M  V30 25066 H 2431.62 -4.60475 0.17291 0
M  V30 25067 H 2429.93 -4.164 -0.00194572 0
M  V30 25068 H 2432.53 -4.58488 -2.75123 0
M  V30 25069 H 2432.87 -2.89002 -2.99639 0
M  V30 25070 H 2433.4 -3.68611 -1.4957 0
M  V30 25071 H 2430.14 -6.53163 -0.553025 0
M  V30 25072 H 2429.66 -5.64767 -2.01985 0
M  V30 25073 H 2431.34 -6.20816 -1.82199 0
M  V30 25074 N 2431.47 0.393589 -1.52606 0
M  V30 25075 C 2432.41 1.50199 -1.71801 0
M  V30 25076 C 2433.39 1.5244 -0.565769 0
M  V30 25077 O 2434.57 1.70914 -0.795017 0
M  V30 25078 C 2431.7 2.88682 -1.77145 0
M  V30 25079 C 2430.74 3.04287 -2.98851 0
M  V30 25080 S 2431.58 2.75968 -4.58914 0
M  V30 25081 C 2432.73 4.16652 -4.67067 0
M  V30 25082 H 2432.96 1.33691 -2.65545 0
M  V30 25083 H 2430.5 0.58617 -1.42841 0
M  V30 25084 H 2432.46 3.68486 -1.8091 0
M  V30 25085 H 2431.12 3.0252 -0.845022 0
M  V30 25086 H 2430.31 4.05641 -2.99118 0
M  V30 25087 H 2429.91 2.32369 -2.93054 0
M  V30 25088 H 2432.2 5.10515 -4.454 0
M  V30 25089 H 2433.15 4.21402 -5.69057 0
M  V30 25090 H 2433.55 4.02347 -3.95951 0
M  V30 25091 N 2432.95 1.43492 0.651762 0
M  V30 25092 C 2433.92 1.48432 1.74644 0
M  V30 25093 C 2434.92 0.368845 1.56513 0
M  V30 25094 O 2436.11 0.630651 1.62384 0
M  V30 25095 C 2433.24 1.33833 3.13531 0
M  V30 25096 H 2434.43 2.45923 1.71644 0
M  V30 25097 H 2431.98 1.30279 0.86355 0
M  V30 25098 H 2432.72 0.373546 3.22141 0
M  V30 25099 H 2432.5 2.14697 3.28097 0
M  V30 25100 H 2433.99 1.40225 3.93353 0
M  V30 25101 N 2434.43 -0.890264 1.30046 0
M  V30 25102 C 2435.67 -1.65582 1.19842 0
M  V30 25103 C 2436.03 -1.90441 -0.244141 0
M  V30 25104 O 2437.24 -2.64671 -0.469331 0
M  V30 25105 C 2435.51 -2.96281 1.99881 0
M  V30 25106 S 2437.07 -3.87271 2.06316 0
M  V30 25107 H 2433.88 -0.568374 0.427167 0
M  V30 25108 H 2436.49 -1.05712 1.64455 0
M  V30 25109 H 2435.19 -2.75908 3.03814 0
M  V30 25110 H 2434.72 -3.61187 1.5591 0
M  V30 25111 H 2436.74 -4.81801 1.1867 0
M  V30 25112 N 2435.91 -1.12676 -1.1019 0
M  V30 25113 C 2436.84 -0.740663 -2.15846 0
M  V30 25114 C 2437.82 0.269393 -1.60353 0
M  V30 25115 O 2439 0.162747 -1.87796 0
M  V30 25116 C 2436.13 -0.0967005 -3.38562 0
M  V30 25117 C 2435.18 -1.07399 -4.12756 0
M  V30 25118 S 2436.01 -2.60275 -4.67993 0
M  V30 25119 C 2437.17 -1.97217 -5.94017 0
M  V30 25120 H 2437.4 -1.63562 -2.48263 0
M  V30 25121 H 2434.93 -0.946109 -1.22017 0
M  V30 25122 H 2436.89 0.268463 -4.09621 0
M  V30 25123 H 2435.55 0.775409 -3.04378 0
M  V30 25124 H 2434.74 -0.571085 -5.00754 0
M  V30 25125 H 2434.35 -1.38222 -3.47521 0
M  V30 25126 H 2436.64 -1.31645 -6.64587 0
M  V30 25127 H 2437.58 -2.83264 -6.48974 0
M  V30 25128 H 2437.99 -1.42695 -5.46167 0
M  V30 25129 N 2437.39 1.28028 -0.919057 0
M  V30 25130 C 2438.61 1.99402 -0.570392 0
M  V30 25131 C 2439.04 1.68179 0.842456 0
M  V30 25132 O 2438.39 0.917169 1.5639 0
M  V30 25133 C 2438.44 3.51781 -0.792603 0
M  V30 25134 O 2437.55 4.12142 0.145915 0
M  V30 25135 H 2436.89 0.626296 -0.220566 0
M  V30 25136 H 2439.42 1.63051 -1.23595 0
M  V30 25137 H 2439.43 4.01867 -0.704779 0
M  V30 25138 H 2438.1 3.7384 -1.82253 0
M  V30 25139 H 2436.68 3.72899 0.00890974 0
M  V30 25140 N 2438.86 0.683613 1.42002 0
M  V30 25141 C 2439.83 0.0198645 2.29191 0
M  V30 25142 C 2440.83 -0.720105 1.43775 0
M  V30 25143 O 2442.02 -0.556786 1.65062 0
M  V30 25144 C 2439.15 -0.98243 3.26437 0
M  V30 25145 H 2440.34 0.787396 2.89379 0
M  V30 25146 H 2437.9 0.446445 1.49788 0
M  V30 25147 H 2438.63 -1.77814 2.71206 0
M  V30 25148 H 2438.42 -0.455113 3.8945 0
M  V30 25149 H 2439.91 -1.44501 3.91803 0
M  V30 25150 N 2440.34 -1.5169 0.427538 0
M  V30 25151 C 2441.62 -1.94558 -0.20165 0
M  V30 25152 C 2442 -1.36562 -1.60979 0
M  V30 25153 O 2441.35 -0.548741 -2.21813 0
M  V30 25154 C 2441.56 -3.48486 -0.189333 0
M  V30 25155 C 2442.91 -4.22714 -0.399706 0
M  V30 25156 O 2443.93 -3.55191 -0.267882 0
M  V30 25157 O 2442.79 -5.42486 -0.661153 0
M  V30 25158 H 2439.88 -0.815866 -0.135247 0
M  V30 25159 H 2442.43 -1.62627 0.484811 0
M  V30 25160 H 2441.2 -3.83129 0.795498 0
M  V30 25161 H 2440.82 -3.86831 -0.919119 0
M  V30 25162 N 2441.82 -0.15856 -1.568 0
M  V30 25163 C 2442.75 0.77257 -2.20349 0
M  V30 25164 C 2443.73 1.24857 -1.1552 0
M  V30 25165 O 2444.92 1.30404 -1.43905 0
M  V30 25166 C 2442.05 2.00724 -2.83421 0
M  V30 25167 C 2441 1.66758 -3.94177 0
M  V30 25168 C 2440.33 2.97584 -4.44238 0
M  V30 25169 C 2441.63 0.905357 -5.14393 0
M  V30 25170 H 2443.32 0.242906 -2.98413 0
M  V30 25171 H 2440.87 0.115393 -1.43537 0
M  V30 25172 H 2442.82 2.66354 -3.26548 0
M  V30 25173 H 2441.54 2.56082 -2.02705 0
M  V30 25174 H 2440.2 1.03502 -3.51686 0
M  V30 25175 H 2439.85 3.50957 -3.60331 0
M  V30 25176 H 2439.55 2.75617 -5.1895 0
M  V30 25177 H 2441.08 3.64266 -4.90044 0
M  V30 25178 H 2442.49 1.46398 -5.54293 0
M  V30 25179 H 2440.89 0.785195 -5.94941 0
M  V30 25180 H 2441.96 -0.100753 -4.84795 0
M  V30 25181 N 2443.3 1.57178 0.115204 0
M  V30 25182 C 2444.21 2.0392 1.1599 0
M  V30 25183 C 2445.23 0.960293 1.45101 0
M  V30 25184 O 2446.4 1.27207 1.56142 0
M  V30 25185 C 2443.47 2.43736 2.46563 0
M  V30 25186 C 2442.53 3.65727 2.24815 0
M  V30 25187 C 2441.76 4.03635 3.49163 0
M  V30 25188 O 2441.98 3.41843 4.56617 0
M  V30 25189 O 2440.92 4.96714 3.3994 0
M  V30 25190 H 2444.74 2.93165 0.792968 0
M  V30 25191 H 2442.33 1.45794 0.326274 0
M  V30 25192 H 2444.21 2.70063 3.23487 0
M  V30 25193 H 2442.89 1.57636 2.82723 0
M  V30 25194 H 2441.79 3.44545 1.45738 0
M  V30 25195 H 2443.13 4.52544 1.93558 0
M  V30 25196 N 2444.78 -0.38549 1.52813 0
M  V30 25197 C 2446.02 -1.13185 1.68277 0
M  V30 25198 C 2446.36 -1.89532 0.423212 0
M  V30 25199 O 2445.63 -1.8568 -0.57908 0
M  V30 25200 C 2445.91 -2.10725 2.92005 0
M  V30 25201 C 2445.77 -1.38118 4.28069 0
M  V30 25202 C 2447.09 -3.11107 3.11288 0
M  V30 25203 H 2444.21 -0.410104 0.612359 0
M  V30 25204 H 2446.85 -0.414836 1.85416 0
M  V30 25205 H 2445 -2.7187 2.77523 0
M  V30 25206 H 2446.67 -0.799107 4.54326 0
M  V30 25207 H 2444.91 -0.683017 4.28389 0
M  V30 25208 H 2445.58 -2.09408 5.10737 0
M  V30 25209 H 2448.06 -2.60055 3.24824 0
M  V30 25210 H 2446.94 -3.76598 3.99331 0
M  V30 25211 H 2447.2 -3.80169 2.25663 0
M  V30 25212 N 2446.26 -1.43835 -0.644143 0
M  V30 25213 C 2447.5 -1.46149 -1.406 0
M  V30 25214 C 2447.83 -0.0888058 -1.93997 0
M  V30 25215 O 2447.11 0.891693 -1.72856 0
M  V30 25216 C 2447.39 -2.51129 -2.58082 0
M  V30 25217 C 2447.25 -3.97706 -2.10119 0
M  V30 25218 C 2448.56 -2.52748 -3.60287 0
M  V30 25219 H 2445.68 -0.532143 -0.509895 0
M  V30 25220 H 2448.33 -1.75439 -0.729472 0
M  V30 25221 H 2446.48 -2.26284 -3.15797 0
M  V30 25222 H 2448.15 -4.3364 -1.57334 0
M  V30 25223 H 2446.39 -4.10104 -1.41411 0
M  V30 25224 H 2447.06 -4.66788 -2.9464 0
M  V30 25225 H 2449.54 -2.74915 -3.12347 0
M  V30 25226 H 2448.41 -3.28128 -4.40026 0
M  V30 25227 H 2448.67 -1.56462 -4.13488 0
M  V30 25228 N 2447.73 0.883355 -1.30517 0
M  V30 25229 C 2448.96 1.66839 -1.22362 0
M  V30 25230 C 2449.38 1.87592 0.213263 0
M  V30 25231 O 2448.73 1.42456 1.14072 0
M  V30 25232 C 2448.78 3.04386 -1.95017 0
M  V30 25233 O 2448.51 2.84569 -3.33095 0
M  V30 25234 C 2450.01 3.9882 -1.93539 0
M  V30 25235 H 2447.23 0.520567 -0.42338 0
M  V30 25236 H 2449.77 1.10354 -1.72169 0
M  V30 25237 H 2447.93 3.57598 -1.49004 0
M  V30 25238 H 2448.34 3.71839 -3.69913 0
M  V30 25239 H 2449.81 4.92694 -2.48911 0
M  V30 25240 H 2450.29 4.29569 -0.914702 0
M  V30 25241 H 2450.9 3.51542 -2.3937 0
M  V30 25242 N 2449.21 1.13259 1.09591 0
M  V30 25243 C 2450.44 0.916765 1.86038 0
M  V30 25244 C 2450.86 -0.529114 1.80505 0
M  V30 25245 O 2450.22 -1.37532 1.1813 0
M  V30 25246 C 2450.27 1.40709 3.32014 0
M  V30 25247 O 2449.37 0.591225 4.0814 0
M  V30 25248 H 2448.71 0.328693 0.576937 0
M  V30 25249 H 2451.24 1.50685 1.38403 0
M  V30 25250 H 2451.25 1.40997 3.82863 0
M  V30 25251 H 2449.93 2.45985 3.35357 0
M  V30 25252 H 2448.5 0.656069 3.67083 0
M  V30 25253 N 2450.69 -1.27539 0.925834 0
M  V30 25254 C 2451.92 -1.98559 0.581544 0
M  V30 25255 C 2452.33 -1.69084 -0.840011 0
M  V30 25256 O 2451.69 -0.950339 -1.55804 0
M  V30 25257 C 2451.74 -3.52635 0.795651 0
M  V30 25258 O 2451.46 -3.81078 2.16128 0
M  V30 25259 C 2452.96 -4.40909 0.459822 0
M  V30 25260 H 2450.18 -0.633718 0.22055 0
M  V30 25261 H 2452.73 -1.62438 1.24234 0
M  V30 25262 H 2450.88 -3.86974 0.181678 0
M  V30 25263 H 2451.3 -4.75672 2.20989 0
M  V30 25264 H 2452.77 -5.48036 0.66034 0
M  V30 25265 H 2453.25 -4.35019 -0.604548 0
M  V30 25266 H 2453.85 -4.12088 1.05185 0
M  V30 25267 N 2452.17 -0.691135 -1.41637 0
M  V30 25268 C 2453.41 -0.229293 -2.02103 0
M  V30 25269 C 2453.77 1.15675 -1.53743 0
M  V30 25270 O 2453.06 1.76863 -0.73688 0
M  V30 25271 C 2453.26 -0.22134 -3.56714 0
M  V30 25272 C 2453.08 -1.60508 -4.2008 0
M  V30 25273 C 2451.85 -2.20684 -4.54562 0
M  V30 25274 C 2454.05 -2.55086 -4.46582 0
M  V30 25275 N 2452.03 -3.51668 -5.03192 0
M  V30 25276 C 2453.41 -3.70744 -4.9694 0
M  V30 25277 C 2455.46 -2.53409 -4.28589 0
M  V30 25278 C 2454.16 -4.85 -5.31195 0
M  V30 25279 C 2456.19 -3.66774 -4.6393 0
M  V30 25280 C 2455.55 -4.81161 -5.14455 0
M  V30 25281 H 2451.65 -0.129194 -0.771254 0
M  V30 25282 H 2454.23 -0.907656 -1.72249 0
M  V30 25283 H 2452.41 0.426494 -3.86051 0
M  V30 25284 H 2454.14 0.254912 -4.03896 0
M  V30 25285 H 2450.89 -1.73013 -4.40867 0
M  V30 25286 H 2451.32 -4.18798 -5.31919 0
M  V30 25287 H 2455.96 -1.66191 -3.88768 0
M  V30 25288 H 2453.68 -5.72881 -5.69941 0
M  V30 25289 H 2457.26 -3.66722 -4.5167 0
M  V30 25290 H 2456.14 -5.67429 -5.41289 0
M  V30 25291 N 2453.65 1.51461 -0.435577 0
M  V30 25292 C 2454.89 2.02372 0.131673 0
M  V30 25293 C 2455.22 1.31922 1.42514 0
M  V30 25294 O 2454.5 0.433606 1.89605 0
M  V30 25295 C 2454.78 3.58373 0.352238 0
M  V30 25296 C 2454.64 4.39441 -0.959754 0
M  V30 25297 C 2455.95 4.25537 1.12279 0
M  V30 25298 H 2453.07 0.735539 0.0463807 0
M  V30 25299 H 2455.72 1.81115 -0.574229 0
M  V30 25300 H 2453.87 3.76616 0.953534 0
M  V30 25301 H 2455.54 4.32852 -1.5949 0
M  V30 25302 H 2453.78 4.04596 -1.56475 0
M  V30 25303 H 2454.45 5.4675 -0.75949 0
M  V30 25304 H 2456.93 4.11553 0.613473 0
M  V30 25305 H 2455.8 5.34574 1.24588 0
M  V30 25306 H 2456.06 3.86277 2.15041 0
M  V30 25307 N 2455.12 0.166873 1.56714 0
M  V30 25308 C 2456.05 -0.760874 2.20755 0
M  V30 25309 C 2457.04 -1.24242 1.1618 0
M  V30 25310 O 2458.22 -1.29639 1.44594 0
M  V30 25311 C 2455.35 -1.99218 2.84481 0
M  V30 25312 C 2454.3 -1.64665 3.95056 0
M  V30 25313 C 2453.63 -2.95224 4.4581 0
M  V30 25314 C 2454.93 -0.878064 5.14866 0
M  V30 25315 H 2456.62 -0.227077 2.98538 0
M  V30 25316 H 2454.17 -0.10778 1.43596 0
M  V30 25317 H 2456.12 -2.64618 3.27956 0
M  V30 25318 H 2454.85 -2.55004 2.04061 0
M  V30 25319 H 2453.51 -1.01635 3.5223 0
M  V30 25320 H 2453.15 -3.49041 3.62187 0
M  V30 25321 H 2452.85 -2.72861 5.20404 0
M  V30 25322 H 2454.38 -3.61662 4.91969 0
M  V30 25323 H 2455.79 -1.43456 5.55061 0
M  V30 25324 H 2454.19 -0.753633 5.95349 0
M  V30 25325 H 2455.26 0.126462 4.84735 0
M  V30 25326 N 2456.6 -1.57237 -0.106866 0
M  V30 25327 C 2457.85 -1.8576 -0.813697 0
M  V30 25328 C 2458.18 -0.754346 -1.7895 0
M  V30 25329 O 2457.46 0.238757 -1.93029 0
M  V30 25330 C 2457.74 -3.24897 -1.55288 0
M  V30 25331 C 2457.59 -4.45836 -0.595851 0
M  V30 25332 C 2458.91 -3.61768 -2.50624 0
M  V30 25333 H 2456.03 -0.675665 -0.294357 0
M  V30 25334 H 2458.67 -1.89841 -0.0776138 0
M  V30 25335 H 2456.82 -3.21548 -2.18035 0
M  V30 25336 H 2458.49 -4.61294 0.0237073 0
M  V30 25337 H 2456.74 -4.33703 0.0916953 0
M  V30 25338 H 2457.41 -5.39889 -1.14995 0
M  V30 25339 H 2459.88 -3.65985 -1.97976 0
M  V30 25340 H 2458.76 -4.60076 -2.99368 0
M  V30 25341 H 2459.02 -2.89827 -3.33845 0
M  V30 25342 N 2458.08 0.377381 -1.53015 0
M  V30 25343 C 2459.33 1.11903 -1.68292 0
M  V30 25344 C 2459.65 1.90172 -0.431239 0
M  V30 25345 O 2458.92 1.87887 0.554561 0
M  V30 25346 H 2457.5 0.416101 -0.620378 0
M  V30 25347 H 2460.16 0.426859 -1.90168 0
M  V30 25348 H 2459.26 1.81545 -2.53866 0
M  V30 25349 N 2459.56 1.44175 0.636506 0
M  V30 25350 C 2460.81 1.46385 1.39341 0
M  V30 25351 C 2461.13 0.0956057 1.94765 0
M  V30 25352 O 2460.4 -0.871365 1.75454 0
M  V30 25353 H 2458.98 0.539003 0.517189 0
M  V30 25354 H 2461.64 1.79911 0.749538 0
M  V30 25355 H 2460.74 2.18615 2.22742 0
M  V30 25356 N 2461.04 -0.876421 1.30983 0
M  V30 25357 C 2462.28 -1.63136 1.20477 0
M  V30 25358 C 2462.62 -1.92735 -0.238063 0
M  V30 25359 O 2461.89 -1.55437 -1.16917 0
M  V30 25360 C 2462.17 -2.96571 2.04249 0
M  V30 25361 C 2462.03 -2.7389 3.56797 0
M  V30 25362 C 2463.35 -3.97597 1.88691 0
M  V30 25363 H 2460.46 -0.591978 0.439012 0
M  V30 25364 H 2463.11 -1.01358 1.60706 0
M  V30 25365 H 2461.26 -3.49297 1.70069 0
M  V30 25366 H 2462.93 -2.27885 4.01081 0
M  V30 25367 H 2461.17 -2.08238 3.80551 0
M  V30 25368 H 2461.84 -3.68807 4.10713 0
M  V30 25369 H 2464.32 -3.54059 2.1859 0
M  V30 25370 H 2463.19 -4.88858 2.49619 0
M  V30 25371 H 2463.46 -4.33883 0.848419 0
M  V30 25372 N 2462.51 -1.13839 -1.08989 0
M  V30 25373 C 2463.44 -0.842545 -2.17769 0
M  V30 25374 C 2464.43 0.199981 -1.6892 0
M  V30 25375 O 2465.61 0.0579389 -1.94114 0
M  V30 25376 C 2462.74 -0.312705 -3.45889 0
M  V30 25377 C 2461.69 -1.28999 -4.08097 0
M  V30 25378 C 2461.02 -0.619716 -5.31097 0
M  V30 25379 C 2462.32 -2.65013 -4.50073 0
M  V30 25380 H 2464.01 -1.75217 -2.42774 0
M  V30 25381 H 2461.56 -0.843895 -1.16681 0
M  V30 25382 H 2463.51 -0.0933784 -4.21297 0
M  V30 25383 H 2462.24 0.632326 -3.2042 0
M  V30 25384 H 2460.9 -1.49539 -3.34714 0
M  V30 25385 H 2460.54 0.330931 -5.0191 0
M  V30 25386 H 2460.24 -1.27177 -5.73672 0
M  V30 25387 H 2461.77 -0.409776 -6.09223 0
M  V30 25388 H 2463.18 -2.48416 -5.16684 0
M  V30 25389 H 2461.58 -3.26436 -5.03547 0
M  V30 25390 H 2462.65 -3.22338 -3.62252 0
M  V30 25391 N 2463.99 1.27046 -0.932584 0
M  V30 25392 C 2464.96 2.24935 -0.440104 0
M  V30 25393 C 2465.96 1.54547 0.444044 0
M  V30 25394 O 2467.15 1.72477 0.244434 0
M  V30 25395 C 2464.28 3.38922 0.36672 0
M  V30 25396 H 2465.47 2.70016 -1.30505 0
M  V30 25397 H 2463.02 1.39052 -0.713732 0
M  V30 25398 H 2463.76 2.9923 1.25028 0
M  V30 25399 H 2463.54 3.91188 -0.267272 0
M  V30 25400 H 2465.03 4.11666 0.701495 0
M  V30 25401 N 2465.47 0.698636 1.41269 0
M  V30 25402 C 2466.43 0.0441722 2.29157 0
M  V30 25403 C 2467.43 -0.704815 1.4453 0
M  V30 25404 O 2468.62 -0.539247 1.65643 0
M  V30 25405 C 2465.76 -0.947751 3.27461 0
M  V30 25406 H 2466.95 0.818044 2.88527 0
M  V30 25407 H 2464.5 0.462307 1.49306 0
M  V30 25408 H 2465.24 -1.74928 2.73076 0
M  V30 25409 H 2465.02 -0.413782 3.89911 0
M  V30 25410 H 2466.51 -1.40337 3.93313 0
M  V30 25411 N 2466.95 -1.51228 0.443603 0
M  V30 25412 C 2467.88 -2.30784 -0.355102 0
M  V30 25413 C 2468.86 -1.3647 -1.01538 0
M  V30 25414 O 2470.04 -1.65391 -1.01782 0
M  V30 25415 C 2467.17 -3.15442 -1.45306 0
M  V30 25416 C 2466.13 -4.18085 -0.915929 0
M  V30 25417 C 2465.45 -4.91303 -2.11011 0
M  V30 25418 C 2466.75 -5.22272 0.053952 0
M  V30 25419 H 2468.45 -2.97803 0.308819 0
M  V30 25420 H 2465.99 -1.43217 0.149963 0
M  V30 25421 H 2467.95 -3.6988 -2.01908 0
M  V30 25422 H 2466.67 -2.46255 -2.14536 0
M  V30 25423 H 2465.33 -3.64707 -0.372081 0
M  V30 25424 H 2464.98 -4.18614 -2.78875 0
M  V30 25425 H 2464.68 -5.60715 -1.75707 0
M  V30 25426 H 2466.2 -5.48567 -2.68155 0
M  V30 25427 H 2467.62 -5.71745 -0.421969 0
M  V30 25428 H 2466.01 -5.99247 0.319881 0
M  V30 25429 H 2467.08 -4.74714 0.988663 0
M  V30 25430 N 2468.43 -0.175182 -1.56623 0
M  V30 25431 C 2469.39 0.7397 -2.16936 0
M  V30 25432 C 2470.39 1.15532 -1.11844 0
M  V30 25433 O 2471.58 1.07164 -1.37337 0
M  V30 25434 C 2468.71 2.00733 -2.75534 0
M  V30 25435 H 2469.9 0.214586 -2.99131 0
M  V30 25436 H 2467.46 0.0743922 -1.56123 0
M  V30 25437 H 2468.19 2.57544 -1.97083 0
M  V30 25438 H 2467.98 1.71825 -3.52447 0
M  V30 25439 H 2469.47 2.66016 -3.21909 0
M  V30 25440 N 2469.91 1.57292 0.0985263 0
M  V30 25441 C 2470.87 2.0086 1.10398 0
M  V30 25442 C 2471.87 0.901616 1.33145 0
M  V30 25443 O 2473.06 1.16718 1.29316 0
M  V30 25444 C 2470.19 2.36636 2.4539 0
M  V30 25445 H 2471.38 2.90904 0.729048 0
M  V30 25446 H 2468.94 1.52479 0.343468 0
M  V30 25447 H 2469.67 1.49536 2.87766 0
M  V30 25448 H 2469.46 3.17391 2.30229 0
M  V30 25449 H 2470.95 2.71013 3.17713 0
M  V30 25450 N 2471.38 -0.369261 1.53213 0
M  V30 25451 C 2472.61 -1.13136 1.7287 0
M  V30 25452 C 2473.02 -1.83628 0.455787 0
M  V30 25453 O 2472.36 -1.74276 -0.580831 0
M  V30 25454 C 2472.43 -2.20842 2.83671 0
M  V30 25455 C 2472.09 -1.70148 4.24145 0
M  V30 25456 C 2473.09 -1.16754 5.06621 0
M  V30 25457 C 2470.77 -1.75772 4.70542 0
M  V30 25458 C 2472.77 -0.696566 6.33582 0
M  V30 25459 C 2470.45 -1.28287 5.97483 0
M  V30 25460 C 2471.45 -0.753188 6.78834 0
M  V30 25461 O 2471.14 -0.285334 8.03393 0
M  V30 25462 H 2470.87 -0.344362 0.581713 0
M  V30 25463 H 2473.43 -0.435207 2.00736 0
M  V30 25464 H 2471.66 -2.93939 2.5127 0
M  V30 25465 H 2473.34 -2.82416 2.91541 0
M  V30 25466 H 2474.11 -1.1175 4.7195 0
M  V30 25467 H 2469.99 -2.15941 4.07296 0
M  V30 25468 H 2473.53 -0.282459 6.97028 0
M  V30 25469 H 2469.43 -1.32983 6.31653 0
M  V30 25470 H 2470.2 -0.405001 8.17497 0
M  V30 25471 N 2472.86 -1.4451 -0.628851 0
M  V30 25472 C 2474.1 -1.48936 -1.3999 0
M  V30 25473 C 2474.47 -0.119637 -1.91627 0
M  V30 25474 O 2475.67 -0.0385755 -2.68772 0
M  V30 25475 C 2473.94 -2.52202 -2.53237 0
M  V30 25476 S 2475.5 -2.75693 -3.41378 0
M  V30 25477 H 2472.31 -0.526752 -0.477549 0
M  V30 25478 H 2474.92 -1.81449 -0.727772 0
M  V30 25479 H 2473.62 -3.50423 -2.13616 0
M  V30 25480 H 2473.15 -2.2127 -3.25274 0
M  V30 25481 H 2475.17 -2.07461 -4.50749 0
M  V30 25482 N 2474.34 0.869463 -1.31446 0
M  V30 25483 C 2475.27 1.99259 -1.2173 0
M  V30 25484 C 2476.25 1.69779 -0.104389 0
M  V30 25485 O 2477.44 1.92036 -0.289072 0
M  V30 25486 C 2474.57 3.34772 -0.924376 0
M  V30 25487 C 2473.52 3.78559 -1.99692 0
M  V30 25488 C 2472.85 5.11539 -1.55667 0
M  V30 25489 C 2474.15 3.95613 -3.4101 0
M  V30 25490 H 2475.84 2.07645 -2.15694 0
M  V30 25491 H 2473.39 0.997657 -1.0384 0
M  V30 25492 H 2475.34 4.12882 -0.843006 0
M  V30 25493 H 2474.06 3.2656 0.0509219 0
M  V30 25494 H 2472.72 3.02691 -2.06819 0
M  V30 25495 H 2472.37 4.99769 -0.569219 0
M  V30 25496 H 2472.07 5.41807 -2.27419 0
M  V30 25497 H 2473.59 5.92157 -1.48939 0
M  V30 25498 H 2475.01 4.64116 -3.36555 0
M  V30 25499 H 2473.4 4.37279 -4.10983 0
M  V30 25500 H 2474.47 2.98979 -3.81759 0
M  V30 25501 N 2475.82 1.14415 1.08383 0
M  V30 25502 C 2477.05 0.936033 1.84516 0
M  V30 25503 C 2477.46 -0.515471 1.81627 0
M  V30 25504 O 2476.82 -1.35719 1.22011 0
M  V30 25505 C 2476.87 1.42924 3.32047 0
M  V30 25506 O 2476.59 2.82387 3.34946 0
M  V30 25507 C 2478.09 1.2611 4.24984 0
M  V30 25508 H 2475.31 0.333095 0.582485 0
M  V30 25509 H 2477.85 1.51933 1.36882 0
M  V30 25510 H 2476.01 0.888707 3.77069 0
M  V30 25511 H 2476.42 3.04524 4.27042 0
M  V30 25512 H 2477.9 1.6548 5.26612 0
M  V30 25513 H 2478.37 0.203997 4.38726 0
M  V30 25514 H 2478.98 1.79019 3.85788 0
M  V30 25515 N 2477.3 -1.26549 0.939309 0
M  V30 25516 C 2478.52 -1.97931 0.602571 0
M  V30 25517 C 2478.94 -1.69965 -0.82203 0
M  V30 25518 O 2478.3 -0.966811 -1.54787 0
M  V30 25519 C 2478.35 -3.51772 0.833008 0
M  V30 25520 O 2478.07 -3.78764 2.20158 0
M  V30 25521 C 2479.57 -4.40396 0.50656 0
M  V30 25522 H 2476.79 -0.631343 0.227259 0
M  V30 25523 H 2479.33 -1.61111 1.2595 0
M  V30 25524 H 2477.49 -3.86759 0.222712 0
M  V30 25525 H 2477.9 -4.73302 2.26022 0
M  V30 25526 H 2479.38 -5.47305 0.718429 0
M  V30 25527 H 2479.85 -4.35636 -0.558375 0
M  V30 25528 H 2480.46 -4.10949 1.0955 0
M  V30 25529 N 2478.77 -0.706118 -1.40896 0
M  V30 25530 C 2480.02 -0.241089 -2.00657 0
M  V30 25531 C 2480.34 1.16676 -1.56243 0
M  V30 25532 O 2479.61 1.78924 -0.797681 0
M  V30 25533 H 2478.19 -0.0861438 -0.742016 0
M  V30 25534 H 2480.85 -0.909635 -1.72371 0
M  V30 25535 H 2479.95 -0.266759 -3.10958 0
M  V30 25536 N 2480.25 1.50991 -0.451617 0
M  V30 25537 C 2481.48 2.07105 0.11063 0
M  V30 25538 C 2481.9 1.3154 1.34458 0
M  V30 25539 O 2481.26 0.357396 1.77742 0
M  V30 25540 C 2481.31 3.58406 0.397175 0
M  V30 25541 O 2480.41 3.84883 1.48117 0
M  V30 25542 H 2479.75 0.663985 -0.00440438 0
M  V30 25543 H 2482.28 1.94429 -0.637061 0
M  V30 25544 H 2482.29 4.02894 0.643439 0
M  V30 25545 H 2480.97 4.12827 -0.504626 0
M  V30 25546 H 2479.54 3.52248 1.22375 0
M  V30 25547 N 2481.73 0.183486 1.56528 0
M  V30 25548 C 2482.98 -0.459002 1.97537 0
M  V30 25549 C 2483.31 -1.62069 1.06992 0
M  V30 25550 O 2482.58 -1.94132 0.119515 0
M  V30 25551 C 2482.87 -0.930307 3.47875 0
M  V30 25552 C 2482.72 0.232396 4.49199 0
M  V30 25553 C 2484.04 -1.79982 4.01615 0
M  V30 25554 H 2481.16 -0.165371 0.718207 0
M  V30 25555 H 2483.8 0.272072 1.88042 0
M  V30 25556 H 2481.95 -1.55327 3.56098 0
M  V30 25557 H 2483.62 0.869799 4.53026 0
M  V30 25558 H 2481.86 0.886002 4.24656 0
M  V30 25559 H 2482.54 -0.139699 5.51823 0
M  V30 25560 H 2485.01 -1.27454 3.96099 0
M  V30 25561 H 2483.89 -2.09858 5.07199 0
M  V30 25562 H 2484.15 -2.74992 3.46167 0
M  V30 25563 N 2483.21 -1.57342 -0.0901833 0
M  V30 25564 C 2484.45 -1.86613 -0.793949 0
M  V30 25565 C 2484.79 -0.773284 -1.7814 0
M  V30 25566 O 2484.06 0.21827 -1.93271 0
M  V30 25567 C 2484.34 -3.26525 -1.51833 0
M  V30 25568 C 2484.2 -4.46443 -0.548531 0
M  V30 25569 C 2485.52 -3.64405 -2.46773 0
M  V30 25570 H 2482.64 -0.678749 -0.287174 0
M  V30 25571 H 2485.28 -1.89913 -0.0574742 0
M  V30 25572 H 2483.43 -3.23843 -2.14612 0
M  V30 25573 H 2485.1 -4.61243 0.0726324 0
M  V30 25574 H 2483.34 -4.33581 0.13769 0
M  V30 25575 H 2484.01 -5.41078 -1.09262 0
M  V30 25576 H 2486.49 -3.68064 -1.94083 0
M  V30 25577 H 2485.37 -4.63226 -2.94471 0
M  V30 25578 H 2485.63 -2.93352 -3.30753 0
M  V30 25579 N 2484.69 0.36113 -1.53407 0
M  V30 25580 C 2485.94 1.10063 -1.69024 0
M  V30 25581 C 2486.25 1.90333 -0.450871 0
M  V30 25582 O 2487.45 2.67084 -0.487664 0
M  V30 25583 C 2485.91 2.00592 -2.98815 0
M  V30 25584 C 2485.52 1.25614 -4.30029 0
M  V30 25585 C 2487.26 2.74507 -3.23799 0
M  V30 25586 C 2485.17 2.15071 -5.50907 0
M  V30 25587 H 2484.1 0.414595 -0.629783 0
M  V30 25588 H 2486.75 0.361317 -1.79908 0
M  V30 25589 H 2485.13 2.78273 -2.81745 0
M  V30 25590 H 2486.31 0.529659 -4.57746 0
M  V30 25591 H 2484.62 0.635424 -4.11523 0
M  V30 25592 H 2487.22 3.41673 -4.11295 0
M  V30 25593 H 2487.56 3.40119 -2.40051 0
M  V30 25594 H 2488.09 2.03908 -3.41565 0
M  V30 25595 H 2484.83 1.54029 -6.37146 0
M  V30 25596 H 2484.35 2.85556 -5.27464 0
M  V30 25597 H 2486.03 2.74527 -5.8587 0
M  V30 25598 N 2486.16 1.44842 0.621179 0
M  V30 25599 C 2487.41 1.48367 1.38257 0
M  V30 25600 C 2487.74 0.119658 1.93831 0
M  V30 25601 O 2487.02 -0.864081 1.74252 0
M  V30 25602 C 2487.3 2.55203 2.54054 0
M  V30 25603 C 2487.15 4.00999 2.03765 0
M  V30 25604 C 2488.47 2.58448 3.5622 0
M  V30 25605 H 2485.59 0.540187 0.501365 0
M  V30 25606 H 2488.23 1.76577 0.701469 0
M  V30 25607 H 2486.38 2.31279 3.12157 0
M  V30 25608 H 2488.06 4.36088 1.50415 0
M  V30 25609 H 2486.3 4.12302 1.34869 0
M  V30 25610 H 2486.97 4.71416 2.87177 0
M  V30 25611 H 2489.45 2.7985 3.07934 0
M  V30 25612 H 2488.32 3.35087 4.3475 0
M  V30 25613 H 2488.58 1.63021 4.10946 0
M  V30 25614 N 2487.64 -0.862479 1.31905 0
M  V30 25615 C 2488.89 -1.6129 1.21778 0
M  V30 25616 C 2489.21 -1.93728 -0.222378 0
M  V30 25617 O 2488.48 -1.58949 -1.14508 0
M  V30 25618 H 2487.06 -0.597954 0.447728 0
M  V30 25619 H 2489.72 -1.03212 1.65328 0
M  V30 25620 H 2488.82 -2.55326 1.79485 0
M  V30 25621 N 2489.12 -1.14988 -1.07775 0
M  V30 25622 C 2490.54 -0.891619 -1.32372 0
M  V30 25623 C 2490.74 0.463754 -1.96091 0
M  V30 25624 O 2489.79 1.20663 -2.21803 0
M  V30 25625 C 2491.11 -2.02929 -2.21902 0
M  V30 25626 C 2492.65 -2.06333 -2.35363 0
M  V30 25627 C 2493.13 -3.19411 -3.28239 0
M  V30 25628 N 2494.62 -3.1903 -3.35818 0
M  V30 25629 C 2495.35 -4.03166 -4.07732 0
M  V30 25630 N 2494.85 -4.97355 -4.82297 0
M  V30 25631 N 2496.64 -3.91204 -4.03629 0
M  V30 25632 H 2488.79 -2.02274 -0.648003 0
M  V30 25633 H 2491.06 -0.881763 -0.348134 0
M  V30 25634 H 2490.76 -3.00743 -1.82336 0
M  V30 25635 H 2490.64 -1.95795 -3.22404 0
M  V30 25636 H 2493.02 -1.09121 -2.74184 0
M  V30 25637 H 2493.11 -2.17535 -1.34581 0
M  V30 25638 H 2492.75 -4.16872 -2.90138 0
M  V30 25639 H 2492.68 -3.05445 -4.28965 0
M  V30 25640 H 2495.17 -2.50816 -2.82666 0
M  V30 25641 H 2495.48 -5.58004 -5.34651 0
M  V30 25642 H 2493.83 -5.01347 -4.81328 0
M  V30 25643 H 2497.02 -3.16934 -3.44486 0
M  V30 25644 H 2497.19 -4.56998 -4.59409 0
M  V30 25645 N 2490.6 1.26049 -0.946007 0
M  V30 25646 C 2491.85 1.92821 -0.591869 0
M  V30 25647 C 2492.16 1.74991 0.873925 0
M  V30 25648 O 2493.37 2.36261 1.33765 0
M  V30 25649 C 2491.82 3.45501 -1.00782 0
M  V30 25650 C 2491.43 3.72056 -2.49556 0
M  V30 25651 C 2493.17 4.18249 -0.725808 0
M  V30 25652 C 2491.08 5.182 -2.84997 0
M  V30 25653 H 2490.01 0.721904 -0.217647 0
M  V30 25654 H 2492.66 1.4305 -1.1493 0
M  V30 25655 H 2491.04 3.94183 -0.378882 0
M  V30 25656 H 2492.22 3.3406 -3.17396 0
M  V30 25657 H 2490.53 3.12551 -2.75138 0
M  V30 25658 H 2493.13 5.25886 -0.966864 0
M  V30 25659 H 2493.47 4.14929 0.337566 0
M  V30 25660 H 2494.01 3.75447 -1.31469 0
M  V30 25661 H 2490.75 5.26624 -3.90316 0
M  V30 25662 H 2490.27 5.57274 -2.21823 0
M  V30 25663 H 2491.94 5.86247 -2.73722 0
M  V30 25664 N 2492.08 0.71358 1.4052 0
M  V30 25665 C 2493.33 0.249228 2.00154 0
M  V30 25666 C 2493.64 -1.16359 1.57226 0
M  V30 25667 O 2494.84 -1.72635 2.09545 0
M  V30 25668 C 2493.3 0.394663 3.5773 0
M  V30 25669 C 2492.91 1.814 4.09632 0
M  V30 25670 C 2494.65 -0.00899903 4.24499 0
M  V30 25671 C 2492.56 1.91012 5.59704 0
M  V30 25672 H 2491.49 0.0894246 0.748678 0
M  V30 25673 H 2494.14 0.88438 1.60782 0
M  V30 25674 H 2492.52 -0.30904 3.94792 0
M  V30 25675 H 2493.7 2.54791 3.8395 0
M  V30 25676 H 2492.01 2.16894 3.55452 0
M  V30 25677 H 2494.61 0.0421344 5.34683 0
M  V30 25678 H 2494.95 -1.05058 4.02826 0
M  V30 25679 H 2495.48 0.645076 3.92535 0
M  V30 25680 H 2492.22 2.93285 5.86229 0
M  V30 25681 H 2491.74 1.22029 5.87255 0
M  V30 25682 H 2493.42 1.68131 6.24773 0
M  V30 25683 N 2493.55 -1.50749 0.459618 0
M  V30 25684 C 2494.48 -2.31148 -0.330604 0
M  V30 25685 C 2495.47 -1.37539 -1.00085 0
M  V30 25686 O 2496.65 -1.66461 -1.00022 0
M  V30 25687 C 2493.78 -3.16965 -1.41952 0
M  V30 25688 C 2492.73 -4.19033 -0.871534 0
M  V30 25689 C 2492.06 -4.93513 -2.05788 0
M  V30 25690 C 2493.36 -5.22186 0.109343 0
M  V30 25691 H 2495.05 -2.97459 0.340388 0
M  V30 25692 H 2492.6 -1.4305 0.165144 0
M  V30 25693 H 2494.55 -3.72001 -1.97973 0
M  V30 25694 H 2493.28 -2.48517 -2.11912 0
M  V30 25695 H 2491.94 -3.65081 -0.333378 0
M  V30 25696 H 2491.58 -4.21548 -2.74419 0
M  V30 25697 H 2491.28 -5.62547 -1.6975 0
M  V30 25698 H 2492.81 -5.5138 -2.62321 0
M  V30 25699 H 2494.22 -5.7216 -0.361304 0
M  V30 25700 H 2492.62 -5.98874 0.383421 0
M  V30 25701 H 2493.69 -4.73639 1.03896 0
M  V30 25702 N 2495.03 -0.191784 -1.56429 0
M  V30 25703 C 2496.26 0.45667 -2.0231 0
M  V30 25704 C 2496.68 1.54628 -1.07106 0
M  V30 25705 O 2496.04 1.8122 -0.0539996 0
M  V30 25706 C 2496.09 0.993098 -3.46655 0
M  V30 25707 O 2495.19 2.10616 -3.54563 0
M  V30 25708 H 2494.53 0.107103 -0.655305 0
M  V30 25709 H 2497.06 -0.301689 -2.02364 0
M  V30 25710 H 2497.07 1.31054 -3.86379 0
M  V30 25711 H 2495.75 0.195431 -4.15441 0
M  V30 25712 H 2494.33 1.79761 -3.26711 0
M  V30 25713 N 2496.51 1.57387 0.0818378 0
M  V30 25714 C 2497.76 1.86386 0.781335 0
M  V30 25715 C 2498.08 0.782374 1.78617 0
M  V30 25716 O 2497.35 -0.190027 1.94976 0
M  V30 25717 H 2495.93 0.687756 0.29155 0
M  V30 25718 H 2498.59 1.94807 0.0603137 0
M  V30 25719 H 2497.69 2.83564 1.30375 0
M  V30 25720 N 2497.99 -0.35299 1.53596 0
M  V30 25721 C 2499.4 -0.69549 1.43649 0
M  V30 25722 C 2499.6 -1.92801 0.585651 0
M  V30 25723 O 2498.66 -2.52395 0.0729667 0
M  V30 25724 C 2499.97 -0.896941 2.87011 0
M  V30 25725 C 2501.52 -0.996157 2.96725 0
M  V30 25726 C 2502 -1.22999 4.41175 0
M  V30 25727 N 2503.49 -1.29741 4.44659 0
M  V30 25728 C 2504.22 -1.49567 5.5355 0
M  V30 25729 N 2503.72 -1.66628 6.72463 0
M  V30 25730 N 2505.51 -1.52038 5.41148 0
M  V30 25731 H 2497.66 0.457518 2.07414 0
M  V30 25732 H 2499.93 0.142703 0.937198 0
M  V30 25733 H 2499.63 -0.062932 3.51644 0
M  V30 25734 H 2499.51 -1.80142 3.31404 0
M  V30 25735 H 2501.89 -1.8207 2.32238 0
M  V30 25736 H 2501.97 -0.0687881 2.55707 0
M  V30 25737 H 2501.62 -0.410416 5.06239 0
M  V30 25738 H 2501.55 -2.17078 4.79776 0
M  V30 25739 H 2504.04 -1.18119 3.58966 0
M  V30 25740 H 2504.35 -1.81365 7.51217 0
M  V30 25741 H 2502.7 -1.63782 6.75426 0
M  V30 25742 H 2505.89 -1.38286 4.47208 0
M  V30 25743 H 2506.06 -1.67148 6.26071 0
M  V30 25744 N 2499.47 -1.45169 -0.613489 0
M  V30 25745 C 2500.88 -1.43415 -1.19537 0
M  V30 25746 C 2501.23 -0.158666 -1.95557 0
M  V30 25747 O 2500.35 0.740083 -2.03351 0
M  V30 25748 C 2500.95 -2.59817 -2.17441 0
M  V30 25749 C 2499.51 -2.61202 -2.71017 0
M  V30 25750 C 2498.66 -2.35555 -1.46319 0
M  V30 25751 H 2501.61 -1.53494 -0.403136 0
M  V30 25752 H 2501.63 -2.33579 -3.00368 0
M  V30 25753 H 2501.14 -3.52634 -1.62083 0
M  V30 25754 H 2499.24 -1.72375 -3.30329 0
M  V30 25755 H 2499.35 -3.60241 -3.15853 0
M  V30 25756 H 2497.72 -1.84995 -1.75069 0
M  V30 25757 H 2498.5 -3.30509 -0.928382 0
M  V30 25758 N 2500.95 0.855472 -1.32361 0
M  V30 25759 C 2501.91 1.94553 -1.21168 0
M  V30 25760 C 2502.91 1.60233 -0.134936 0
M  V30 25761 O 2504.1 1.69886 -0.385279 0
M  V30 25762 C 2501.23 3.29789 -0.86325 0
M  V30 25763 H 2502.42 2.05907 -2.18042 0
M  V30 25764 H 2499.98 1.04555 -1.1618 0
M  V30 25765 H 2500.71 3.24134 0.103712 0
M  V30 25766 H 2500.5 3.56075 -1.64173 0
M  V30 25767 H 2501.99 4.09684 -0.809228 0
M  V30 25768 N 2502.42 1.15558 1.07164 0
M  V30 25769 C 2503.67 0.933016 1.80063 0
M  V30 25770 C 2504 -0.538417 1.86587 0
M  V30 25771 O 2503.28 -1.39922 1.351 0
M  V30 25772 C 2503.56 1.55031 3.25019 0
M  V30 25773 C 2503.41 3.09247 3.26628 0
M  V30 25774 C 2504.73 1.23767 4.22338 0
M  V30 25775 H 2501.85 0.340377 0.653691 0
M  V30 25776 H 2504.49 1.42752 1.25387 0
M  V30 25777 H 2502.64 1.12979 3.7171 0
M  V30 25778 H 2504.32 3.60219 2.88166 0
M  V30 25779 H 2502.56 3.43037 2.65533 0
M  V30 25780 H 2503.23 3.47553 4.28848 0
M  V30 25781 H 2505.71 1.60146 3.84048 0
M  V30 25782 H 2504.58 1.69573 5.2205 0
M  V30 25783 H 2504.84 0.155016 4.41828 0
M  V30 25784 N 2503.9 -1.25546 0.952678 0
M  V30 25785 C 2505.15 -1.92504 0.602087 0
M  V30 25786 C 2505.46 -1.75452 -0.864633 0
M  V30 25787 O 2506.67 -2.36967 -1.3251 0
M  V30 25788 C 2505.13 -3.44962 1.02613 0
M  V30 25789 C 2504.73 -3.70727 2.51526 0
M  V30 25790 C 2506.48 -4.17858 0.747979 0
M  V30 25791 C 2504.38 -5.16681 2.87741 0
M  V30 25792 H 2503.31 -0.72074 0.221473 0
M  V30 25793 H 2505.97 -1.42439 1.15687 0
M  V30 25794 H 2504.35 -3.93977 0.399781 0
M  V30 25795 H 2505.52 -3.32372 3.19163 0
M  V30 25796 H 2503.84 -3.11087 2.76792 0
M  V30 25797 H 2506.43 -5.25366 0.994739 0
M  V30 25798 H 2506.78 -4.15102 -0.315556 0
M  V30 25799 H 2507.31 -3.74745 1.33459 0
M  V30 25800 H 2504.05 -5.24547 3.93104 0
M  V30 25801 H 2503.57 -5.5609 2.24775 0
M  V30 25802 H 2505.25 -5.84787 2.76827 0
M  V30 25803 N 2505.38 -0.721022 -1.40139 0
M  V30 25804 C 2506.79 -0.334585 -1.83677 0
M  V30 25805 C 2507.14 1.1317 -1.60272 0
M  V30 25806 O 2506.27 1.8715 -1.08646 0
M  V30 25807 C 2506.86 -0.600496 -3.33436 0
M  V30 25808 C 2505.42 -0.267708 -3.75447 0
M  V30 25809 C 2504.57 -0.870143 -2.63294 0
M  V30 25810 H 2507.52 -0.919755 -1.2933 0
M  V30 25811 H 2507.54 0.132451 -3.80269 0
M  V30 25812 H 2507.05 -1.66775 -3.5044 0
M  V30 25813 H 2505.15 0.794265 -3.64036 0
M  V30 25814 H 2505.27 -0.740503 -4.73343 0
M  V30 25815 H 2503.63 -0.297783 -2.52953 0
M  V30 25816 H 2504.41 -1.94177 -2.83108 0
M  V30 25817 N 2506.86 1.50503 -0.467606 0
M  V30 25818 C 2508.13 1.95024 0.149996 0
M  V30 25819 C 2508.51 1.40782 1.57301 0
M  V30 25820 O 2507.86 0.607358 2.2028 0
M  V30 25821 C 2508.07 3.48866 0.0968711 0
M  V30 25822 C 2509.42 4.23626 0.28749 0
M  V30 25823 O 2510.44 3.55777 0.173615 0
M  V30 25824 O 2509.3 5.44048 0.51709 0
M  V30 25825 H 2506.4 0.819165 0.113568 0
M  V30 25826 H 2508.94 1.61285 -0.527758 0
M  V30 25827 H 2507.72 3.80885 -0.896798 0
M  V30 25828 H 2507.34 3.89132 0.816234 0
M  V30 25829 N 2508.34 0.200077 1.56325 0
M  V30 25830 C 2509.75 -0.155688 1.58839 0
M  V30 25831 C 2509.95 -1.60643 1.21639 0
M  V30 25832 O 2509.01 -2.34291 0.941478 0
M  V30 25833 C 2510.32 0.151176 3.0032 0
M  V30 25834 C 2511.87 0.0916834 3.12866 0
M  V30 25835 C 2512.34 0.371926 4.56487 0
M  V30 25836 N 2513.83 0.320722 4.62088 0
M  V30 25837 C 2514.57 0.511343 5.71115 0
M  V30 25838 N 2514.07 0.762582 6.8859 0
M  V30 25839 N 2515.86 0.445256 5.60334 0
M  V30 25840 H 2508.01 1.14671 1.78786 0
M  V30 25841 H 2510.27 0.458065 0.829988 0
M  V30 25842 H 2509.98 1.15726 3.32115 0
M  V30 25843 H 2509.85 -0.543921 3.73258 0
M  V30 25844 H 2512.24 -0.905016 2.8088 0
M  V30 25845 H 2512.32 0.819933 2.42303 0
M  V30 25846 H 2511.96 1.36596 4.89187 0
M  V30 25847 H 2511.89 -0.37727 5.25247 0
M  V30 25848 H 2514.39 0.133356 3.77665 0
M  V30 25849 H 2514.7 0.896711 7.6758 0
M  V30 25850 H 2513.04 0.799533 6.90386 0
M  V30 25851 H 2516.23 0.249361 4.67435 0
M  V30 25852 H 2516.41 0.597229 6.45242 0
M  V30 25853 N 2509.81 -1.57429 -0.0734901 0
M  V30 25854 C 2510.72 -2.06924 -1.10543 0
M  V30 25855 C 2511.74 -0.998427 -1.42504 0
M  V30 25856 O 2512.92 -1.31302 -1.52715 0
M  V30 25857 C 2509.98 -2.50188 -2.40014 0
M  V30 25858 C 2509.04 -3.71559 -2.1504 0
M  V30 25859 C 2508.27 -4.12751 -3.38338 0
M  V30 25860 O 2508.5 -3.5383 -4.47393 0
M  V30 25861 O 2507.43 -5.05552 -3.26651 0
M  V30 25862 H 2511.26 -2.95164 -0.714962 0
M  V30 25863 H 2508.84 -1.46608 -0.287505 0
M  V30 25864 H 2510.72 -2.78545 -3.16213 0
M  V30 25865 H 2509.4 -1.65077 -2.78444 0
M  V30 25866 H 2508.31 -3.48288 -1.36552 0
M  V30 25867 H 2509.64 -4.57517 -1.81491 0
M  V30 25868 N 2511.29 0.344839 -1.53781 0
M  V30 25869 C 2512.54 1.08684 -1.71218 0
M  V30 25870 C 2512.87 1.88344 -0.473314 0
M  V30 25871 O 2512.15 1.8715 0.529647 0
M  V30 25872 C 2512.43 2.02909 -2.97489 0
M  V30 25873 C 2512.28 1.2672 -4.31581 0
M  V30 25874 C 2513.6 3.02745 -3.19427 0
M  V30 25875 H 2510.72 0.393724 -0.623017 0
M  V30 25876 H 2513.36 0.36553 -1.86451 0
M  V30 25877 H 2511.51 2.64416 -2.84634 0
M  V30 25878 H 2513.18 0.67837 -4.56285 0
M  V30 25879 H 2511.43 0.569197 -4.3005 0
M  V30 25880 H 2512.1 1.95793 -5.16109 0
M  V30 25881 H 2514.57 2.51351 -3.31605 0
M  V30 25882 H 2513.45 3.65878 -4.09176 0
M  V30 25883 H 2513.71 3.74053 -2.35663 0
M  V30 25884 N 2512.77 1.45492 0.605781 0
M  V30 25885 C 2513.7 1.57146 1.72706 0
M  V30 25886 C 2514.68 0.422913 1.64759 0
M  V30 25887 O 2515.87 0.646279 1.83131 0
M  V30 25888 C 2513 1.53953 3.11313 0
M  V30 25889 C 2511.95 2.67543 3.34073 0
M  V30 25890 C 2511.28 2.49405 4.72971 0
M  V30 25891 C 2512.58 4.09541 3.24151 0
M  V30 25892 H 2514.27 2.51004 1.6321 0
M  V30 25893 H 2511.82 1.20802 0.783769 0
M  V30 25894 H 2513.77 1.60703 3.89554 0
M  V30 25895 H 2512.49 0.566261 3.21654 0
M  V30 25896 H 2511.15 2.60225 2.58222 0
M  V30 25897 H 2510.8 1.50213 4.80047 0
M  V30 25898 H 2510.5 3.25579 4.89154 0
M  V30 25899 H 2512.02 2.58011 5.5341 0
M  V30 25900 H 2513.44 4.18093 3.92264 0
M  V30 25901 H 2511.83 4.86119 3.51863 0
M  V30 25902 H 2512.9 4.31321 2.21563 0
M  V30 25903 N 2514.25 -0.848441 1.32813 0
M  V30 25904 C 2515.48 -1.63299 1.26559 0
M  V30 25905 C 2515.89 -1.88457 -0.167567 0
M  V30 25906 O 2515.23 -1.4583 -1.1171 0
M  V30 25907 C 2515.29 -3.01236 1.96207 0
M  V30 25908 C 2514.96 -2.99092 3.45533 0
M  V30 25909 C 2515.95 -2.75493 4.40908 0
M  V30 25910 C 2513.64 -3.19531 3.87564 0
M  V30 25911 C 2515.63 -2.72346 5.76287 0
M  V30 25912 C 2513.32 -3.1601 5.2305 0
M  V30 25913 C 2514.32 -2.92447 6.17222 0
M  V30 25914 O 2514 -2.88812 7.50229 0
M  V30 25915 H 2513.74 -0.515148 0.437719 0
M  V30 25916 H 2516.29 -1.06567 1.75592 0
M  V30 25917 H 2514.52 -3.59782 1.41752 0
M  V30 25918 H 2516.21 -3.62013 1.8358 0
M  V30 25919 H 2516.98 -2.59463 4.09761 0
M  V30 25920 H 2512.85 -3.36894 3.1468 0
M  V30 25921 H 2516.4 -2.53874 6.49764 0
M  V30 25922 H 2512.3 -3.31586 5.53824 0
M  V30 25923 H 2513.06 -3.04722 7.59662 0
M  V30 25924 N 2515.73 -1.16125 -1.06549 0
M  V30 25925 C 2516.66 -0.823208 -2.13906 0
M  V30 25926 C 2517.67 0.168401 -1.61927 0
M  V30 25927 O 2518.86 -0.0559933 -1.78412 0
M  V30 25928 C 2515.96 -0.204483 -3.38283 0
M  V30 25929 C 2515.13 -1.23555 -4.19587 0
M  V30 25930 C 2514.19 -0.637103 -5.22329 0
M  V30 25931 O 2513.22 -1.30526 -5.54032 0
M  V30 25932 N 2514.42 0.577373 -5.77622 0
M  V30 25933 H 2517.19 -1.74715 -2.43505 0
M  V30 25934 H 2514.75 -1.05823 -1.22528 0
M  V30 25935 H 2516.74 0.208838 -4.04161 0
M  V30 25936 H 2515.31 0.622958 -3.0633 0
M  V30 25937 H 2514.53 -1.82514 -3.49403 0
M  V30 25938 H 2515.82 -1.93145 -4.70715 0
M  V30 25939 H 2515.21 1.13843 -5.54127 0
M  V30 25940 H 2513.77 0.932939 -6.45089 0
M  V30 25941 N 2517.2 1.25039 -0.959323 0
M  V30 25942 C 2518.11 2.29425 -0.490034 0
M  V30 25943 C 2519.13 1.68216 0.444915 0
M  V30 25944 O 2520.31 1.98841 0.320011 0
M  V30 25945 C 2517.37 3.46 0.220248 0
M  V30 25946 C 2516.43 4.22636 -0.753492 0
M  V30 25947 C 2515.67 5.33644 -0.0770118 0
M  V30 25948 O 2515.89 5.58965 1.13639 0
M  V30 25949 O 2514.82 5.9702 -0.764929 0
M  V30 25950 H 2518.65 2.71667 -1.3576 0
M  V30 25951 H 2516.23 1.30575 -0.725984 0
M  V30 25952 H 2518.12 4.1682 0.619604 0
M  V30 25953 H 2516.79 3.05751 1.06291 0
M  V30 25954 H 2515.7 3.54225 -1.20315 0
M  V30 25955 H 2517.03 4.6668 -1.56431 0
M  V30 25956 N 2518.68 0.728444 1.39755 0
M  V30 25957 C 2519.93 0.273522 2.00644 0
M  V30 25958 C 2520.26 -1.13725 1.57788 0
M  V30 25959 O 2519.51 -1.78828 0.794918 0
M  V30 25960 C 2519.81 0.315839 3.56002 0
M  V30 25961 C 2519.48 1.6787 4.18486 0
M  V30 25962 C 2518.14 2.05174 4.35267 0
M  V30 25963 C 2520.49 2.57383 4.53214 0
M  V30 25964 C 2517.82 3.31511 4.84063 0
M  V30 25965 C 2520.17 3.83086 5.03416 0
M  V30 25966 C 2518.84 4.2049 5.18405 0
M  V30 25967 H 2518.11 0.100089 0.734209 0
M  V30 25968 H 2520.75 0.934001 1.67179 0
M  V30 25969 H 2519.06 -0.428216 3.89453 0
M  V30 25970 H 2520.75 -0.054187 4.00963 0
M  V30 25971 H 2517.34 1.37865 4.05822 0
M  V30 25972 H 2521.53 2.29835 4.39874 0
M  V30 25973 H 2516.78 3.60443 4.93853 0
M  V30 25974 H 2520.96 4.52608 5.29262 0
M  V30 25975 H 2518.59 5.18452 5.55978 0
M  V30 25976 N 2520.16 -1.50253 0.475581 0
M  V30 25977 C 2521.44 -1.95101 -0.139651 0
M  V30 25978 C 2521.82 -1.41614 -1.56552 0
M  V30 25979 O 2521.17 -0.619032 -2.19955 0
M  V30 25980 C 2521.38 -3.48912 -0.0783685 0
M  V30 25981 C 2522.72 -4.23772 -0.26502 0
M  V30 25982 O 2523.75 -3.55864 -0.154745 0
M  V30 25983 O 2522.61 -5.44315 -0.488231 0
M  V30 25984 H 2519.7 -0.819756 -0.109222 0
M  V30 25985 H 2522.25 -1.61003 0.536304 0
M  V30 25986 H 2521.02 -3.80404 0.916985 0
M  V30 25987 H 2520.64 -3.89559 -0.795586 0
M  V30 25988 N 2521.64 -0.208365 -1.56217 0
M  V30 25989 C 2522.55 0.718796 -2.23317 0
M  V30 25990 C 2523.56 1.2242 -1.2365 0
M  V30 25991 O 2524.74 1.26858 -1.56426 0
M  V30 25992 C 2521.81 1.91563 -2.88971 0
M  V30 25993 C 2520.87 1.4535 -4.03945 0
M  V30 25994 C 2520.1 2.59329 -4.66459 0
M  V30 25995 O 2520.32 3.77141 -4.27926 0
M  V30 25996 O 2519.26 2.31283 -5.5569 0
M  V30 25997 H 2523.08 0.177262 -3.03182 0
M  V30 25998 H 2520.67 0.0215139 -1.49385 0
M  V30 25999 H 2522.55 2.61486 -3.30459 0
M  V30 26000 H 2521.22 2.44552 -2.12076 0
M  V30 26001 H 2520.13 0.722681 -3.67053 0
M  V30 26002 H 2521.46 0.970134 -4.82545 0
M  V30 26003 N 2523.12 1.57465 0.0651402 0
M  V30 26004 C 2524.05 1.99455 1.10873 0
M  V30 26005 C 2525.03 0.872579 1.37204 0
M  V30 26006 O 2526.21 1.13544 1.50466 0
M  V30 26007 C 2523.34 2.33694 2.45163 0
M  V30 26008 C 2522.38 3.55968 2.34924 0
M  V30 26009 S 2523.22 5.06546 1.737 0
M  V30 26010 C 2524.37 5.43992 3.09554 0
M  V30 26011 H 2524.61 2.8766 0.750916 0
M  V30 26012 H 2522.14 1.51951 0.273906 0
M  V30 26013 H 2524.1 2.54094 3.22407 0
M  V30 26014 H 2522.76 1.46006 2.78103 0
M  V30 26015 H 2521.95 3.77463 3.33973 0
M  V30 26016 H 2521.55 3.35232 1.65817 0
M  V30 26017 H 2523.85 5.4247 4.05873 0
M  V30 26018 H 2524.79 6.44713 2.92831 0
M  V30 26019 H 2525.2 4.71457 3.10466 0
M  V30 26020 N 2524.59 -0.336679 1.53962 0
M  V30 26021 C 2525.5 -1.43705 1.85435 0
M  V30 26022 C 2526.52 -1.5724 0.745081 0
M  V30 26023 O 2527.7 -1.72586 1.03807 0
M  V30 26024 C 2524.76 -2.78602 2.06354 0
M  V30 26025 C 2523.82 -2.74353 3.30196 0
M  V30 26026 C 2523.06 -4.02815 3.50108 0
M  V30 26027 O 2523.28 -5.00434 2.73719 0
M  V30 26028 O 2522.21 -4.0687 4.43554 0
M  V30 26029 H 2526.04 -1.20023 2.78977 0
M  V30 26030 H 2523.62 -0.529496 1.39702 0
M  V30 26031 H 2525.51 -3.58479 2.21519 0
M  V30 26032 H 2524.18 -3.02201 1.16 0
M  V30 26033 H 2523.09 -1.93072 3.20428 0
M  V30 26034 H 2524.42 -2.55707 4.20565 0
M  V30 26035 N 2526.07 -1.45812 -0.598057 0
M  V30 26036 C 2526.98 -1.57766 -1.73629 0
M  V30 26037 C 2528 -0.461705 -1.67763 0
M  V30 26038 O 2529.17 -0.723718 -1.87948 0
M  V30 26039 C 2526.24 -1.55023 -3.10111 0
M  V30 26040 C 2525.3 -2.77731 -3.27359 0
M  V30 26041 C 2524.53 -2.7511 -4.57329 0
M  V30 26042 O 2524.76 -1.82979 -5.40254 0
M  V30 26043 O 2523.69 -3.66445 -4.77495 0
M  V30 26044 H 2527.52 -2.53995 -1.66494 0
M  V30 26045 H 2525.1 -1.2843 -0.763285 0
M  V30 26046 H 2526.98 -1.56135 -3.91407 0
M  V30 26047 H 2525.66 -0.619486 -3.17717 0
M  V30 26048 H 2524.57 -2.82178 -2.45614 0
M  V30 26049 H 2525.9 -3.69964 -3.24635 0
M  V30 26050 N 2527.55 0.841385 -1.33261 0
M  V30 26051 C 2528.79 1.6102 -1.25905 0
M  V30 26052 C 2529.15 1.91216 0.173292 0
M  V30 26053 O 2530.36 2.66231 0.370777 0
M  V30 26054 C 2528.63 2.88658 -2.1074 0
M  V30 26055 S 2530.19 3.79347 -2.20547 0
M  V30 26056 H 2527 0.552129 -0.447967 0
M  V30 26057 H 2529.61 0.995352 -1.68265 0
M  V30 26058 H 2528.31 2.64442 -3.13845 0
M  V30 26059 H 2527.84 3.55151 -1.69208 0
M  V30 26060 H 2529.86 4.77064 -1.3647 0
M  V30 26061 N 2529.03 1.16688 1.05932 0
M  V30 26062 C 2529.99 0.879181 2.11667 0
M  V30 26063 C 2530.99 -0.127417 1.60294 0
M  V30 26064 O 2532.18 0.103896 1.7389 0
M  V30 26065 C 2529.31 0.315485 3.39437 0
M  V30 26066 H 2530.51 1.81657 2.38623 0
M  V30 26067 H 2528.06 0.976321 1.22056 0
M  V30 26068 H 2528.8 -0.629412 3.18133 0
M  V30 26069 H 2528.58 1.04085 3.78033 0
M  V30 26070 H 2530.07 0.132262 4.1739 0
M  V30 26071 N 2530.51 -1.24529 0.96594 0
M  V30 26072 C 2531.73 -1.97148 0.644006 0
M  V30 26073 C 2532.16 -1.7119 -0.779457 0
M  V30 26074 O 2531.52 -0.97458 -1.52878 0
M  V30 26075 C 2531.56 -3.48597 0.922618 0
M  V30 26076 O 2530.67 -4.12399 0.00714921 0
M  V30 26077 H 2530.01 -0.617678 0.243658 0
M  V30 26078 H 2532.54 -1.58351 1.29561 0
M  V30 26079 H 2532.55 -3.98974 0.853443 0
M  V30 26080 H 2531.22 -3.66819 1.96002 0
M  V30 26081 H 2529.8 -3.72675 0.129495 0
M  V30 26082 N 2531.99 -0.735845 -1.39367 0
M  V30 26083 C 2532.94 -0.0724687 -2.27885 0
M  V30 26084 C 2533.92 0.711731 -1.44302 0
M  V30 26085 O 2535.11 0.580601 -1.67207 0
M  V30 26086 C 2532.24 0.833396 -3.33031 0
M  V30 26087 C 2531.33 0.0433003 -4.24078 0
M  V30 26088 N 2531.72 -0.98399 -4.96136 0
M  V30 26089 C 2530.02 0.272827 -4.45165 0
M  V30 26090 C 2530.72 -1.4605 -5.63067 0
M  V30 26091 N 2529.69 -0.778951 -5.3799 0
M  V30 26092 H 2533.49 -0.859516 -2.81051 0
M  V30 26093 H 2531.01 -0.570254 -1.52059 0
M  V30 26094 H 2533.01 1.32412 -3.95313 0
M  V30 26095 H 2531.67 1.61959 -2.81424 0
M  V30 26096 H 2532.68 -1.36537 -4.99578 0
M  V30 26097 H 2529.35 1.03376 -4.04499 0
M  V30 26098 H 2530.74 -2.31522 -6.30751 0
M  V30 26099 N 2533.46 1.49999 -0.483543 0
M  V30 26100 C 2534.39 2.31644 0.293788 0
M  V30 26101 C 2535.37 1.39114 0.97884 0
M  V30 26102 O 2536.56 1.68031 0.973614 0
M  V30 26103 C 2533.69 3.19183 1.36892 0
M  V30 26104 C 2532.64 4.20366 0.804759 0
M  V30 26105 C 2531.97 4.96725 1.97911 0
M  V30 26106 C 2533.27 5.21945 -0.192404 0
M  V30 26107 H 2534.96 2.9688 -0.387668 0
M  V30 26108 H 2532.51 1.42769 -0.187881 0
M  V30 26109 H 2534.46 3.75103 1.9203 0
M  V30 26110 H 2533.19 2.51857 2.07932 0
M  V30 26111 H 2531.85 3.65565 0.275254 0
M  V30 26112 H 2531.49 4.25861 2.67678 0
M  V30 26113 H 2531.19 5.65176 1.60779 0
M  V30 26114 H 2532.72 5.55483 2.53516 0
M  V30 26115 H 2534.13 5.72663 0.270232 0
M  V30 26116 H 2532.53 5.98188 -0.478648 0
M  V30 26117 H 2533.6 4.71926 -1.11418 0
M  V30 26118 N 2534.94 0.216646 1.56104 0
M  V30 26119 C 2536.35 -0.292096 1.84401 0
M  V30 26120 C 2536.7 -1.59831 1.13791 0
M  V30 26121 O 2535.83 -2.12559 0.405925 0
M  V30 26122 C 2536.42 -0.536751 3.34521 0
M  V30 26123 C 2534.98 -0.989813 3.63152 0
M  V30 26124 C 2534.13 -0.0501815 2.77255 0
M  V30 26125 H 2537.08 0.439953 1.5248 0
M  V30 26126 H 2537.1 -1.38338 3.54461 0
M  V30 26127 H 2536.61 0.414099 3.85884 0
M  V30 26128 H 2534.71 -1.95419 3.17241 0
M  V30 26129 H 2534.83 -0.867615 4.71179 0
M  V30 26130 H 2533.19 -0.556073 2.48556 0
M  V30 26131 H 2533.97 0.895498 3.31415 0
M  V30 26132 N 2536.42 -1.57498 -0.0567885 0
M  V30 26133 C 2537.65 -1.91936 -0.764482 0
M  V30 26134 C 2538.06 -0.8123 -1.70875 0
M  V30 26135 O 2537.4 0.222181 -1.82351 0
M  V30 26136 C 2537.46 -3.21965 -1.59935 0
M  V30 26137 C 2537.13 -4.49531 -0.822846 0
M  V30 26138 C 2538.12 -5.19724 -0.135373 0
M  V30 26139 C 2535.81 -4.96119 -0.785579 0
M  V30 26140 C 2537.8 -6.34765 0.578973 0
M  V30 26141 C 2535.49 -6.11063 -0.067471 0
M  V30 26142 C 2536.49 -6.80238 0.613591 0
M  V30 26143 O 2536.18 -7.92987 1.3201 0
M  V30 26144 H 2535.91 -0.638634 -0.221636 0
M  V30 26145 H 2538.46 -2.05383 -0.0267857 0
M  V30 26146 H 2536.69 -3.04768 -2.3802 0
M  V30 26147 H 2538.38 -3.41937 -2.18709 0
M  V30 26148 H 2539.15 -4.84751 -0.155373 0
M  V30 26149 H 2535.03 -4.42139 -1.30516 0
M  V30 26150 H 2538.57 -6.88694 1.11112 0
M  V30 26151 H 2534.47 -6.45484 -0.0454501 0
M  V30 26152 H 2535.23 -8.09191 1.23091 0
M  V30 26153 N 2537.9 0.328509 -1.54138 0
M  V30 26154 C 2539.15 1.06453 -1.7132 0
M  V30 26155 C 2539.46 1.89333 -0.491142 0
M  V30 26156 O 2540.67 2.6599 -0.544207 0
M  V30 26157 C 2539.12 1.94209 -3.03003 0
M  V30 26158 C 2538.73 1.16464 -4.32597 0
M  V30 26159 C 2540.47 2.67577 -3.29549 0
M  V30 26160 C 2538.38 2.03337 -5.55345 0
M  V30 26161 H 2537.31 0.401143 -0.638436 0
M  V30 26162 H 2539.96 0.323074 -1.80634 0
M  V30 26163 H 2538.34 2.72234 -2.87584 0
M  V30 26164 H 2539.52 0.432445 -4.58766 0
M  V30 26165 H 2537.83 0.54799 -4.12778 0
M  V30 26166 H 2540.43 3.32872 -4.1845 0
M  V30 26167 H 2540.77 3.34951 -2.47212 0
M  V30 26168 H 2541.31 1.96617 -3.45813 0
M  V30 26169 H 2538.04 1.4048 -6.4027 0
M  V30 26170 H 2537.56 2.74303 -5.33402 0
M  V30 26171 H 2539.24 2.62039 -5.91561 0
M  V30 26172 N 2539.38 1.46127 0.590316 0
M  V30 26173 C 2540.29 1.58684 1.7279 0
M  V30 26174 C 2541.3 0.470595 1.67515 0
M  V30 26175 O 2542.48 0.733675 1.87561 0
M  V30 26176 C 2539.54 1.56666 3.09284 0
M  V30 26177 C 2538.6 2.79463 3.25881 0
M  V30 26178 C 2537.84 2.77532 4.55864 0
M  V30 26179 O 2538.06 1.85842 5.39276 0
M  V30 26180 O 2536.99 3.68972 4.75545 0
M  V30 26181 H 2540.82 2.54875 1.65144 0
M  V30 26182 H 2538.4 1.28833 0.756463 0
M  V30 26183 H 2540.29 1.58209 3.90574 0
M  V30 26184 H 2538.96 0.636327 3.17384 0
M  V30 26185 H 2537.87 2.83477 2.44114 0
M  V30 26186 H 2539.2 3.7168 3.22668 0
M  V30 26187 N 2540.85 -0.834306 1.33705 0
M  V30 26188 C 2541.79 -1.95168 1.20176 0
M  V30 26189 C 2542.8 -1.62267 0.131601 0
M  V30 26190 O 2543.99 -1.74355 0.382437 0
M  V30 26191 C 2541.09 -3.28786 0.821774 0
M  V30 26192 C 2540.26 -3.89789 1.98453 0
M  V30 26193 C 2539.32 -5.01768 1.58478 0
M  V30 26194 O 2538.35 -5.20672 2.29977 0
M  V30 26195 N 2539.55 -5.78408 0.492392 0
M  V30 26196 H 2542.31 -2.07309 2.16432 0
M  V30 26197 H 2539.87 -1.01028 1.2651 0
M  V30 26198 H 2541.87 -4.0113 0.536361 0
M  V30 26199 H 2540.44 -3.1256 -0.0502509 0
M  V30 26200 H 2539.66 -3.09978 2.43531 0
M  V30 26201 H 2540.94 -4.27278 2.76244 0
M  V30 26202 H 2540.34 -5.65608 -0.102249 0
M  V30 26203 H 2538.9 -6.51254 0.266669 0
M  V30 26204 N 2542.33 -1.17248 -1.05312 0
M  V30 26205 C 2543.58 -0.958225 -1.77939 0
M  V30 26206 C 2543.9 0.514523 -1.8809 0
M  V30 26207 O 2543.17 1.37357 -1.39678 0
M  V30 26208 H 2541.75 -0.351545 -0.659109 0
M  V30 26209 H 2544.41 -1.47701 -1.27163 0
M  V30 26210 H 2543.51 -1.38551 -2.79661 0
M  V30 26211 N 2543.81 1.24015 -0.972531 0
M  V30 26212 C 2544.74 2.23695 -0.451209 0
M  V30 26213 C 2545.72 1.55435 0.477351 0
M  V30 26214 O 2546.91 1.8404 0.407615 0
M  V30 26215 C 2544.03 3.36906 0.34812 0
M  V30 26216 C 2543.08 4.23276 -0.523429 0
M  V30 26217 S 2543.91 4.98083 -1.96655 0
M  V30 26218 C 2545.07 6.1475 -1.17615 0
M  V30 26219 H 2545.3 2.67569 -1.29593 0
M  V30 26220 H 2542.83 1.3337 -0.777927 0
M  V30 26221 H 2544.79 4.02563 0.803316 0
M  V30 26222 H 2543.45 2.91581 1.16787 0
M  V30 26223 H 2542.65 5.03919 0.0905295 0
M  V30 26224 H 2542.25 3.62646 -0.914549 0
M  V30 26225 H 2544.54 6.76111 -0.433553 0
M  V30 26226 H 2545.48 6.80516 -1.95712 0
M  V30 26227 H 2545.89 5.60163 -0.698394 0
M  V30 26228 N 2545.29 0.743226 1.38974 0
M  V30 26229 C 2546.22 0.0689631 2.29096 0
M  V30 26230 C 2547.23 -0.694765 1.47231 0
M  V30 26231 O 2548.42 -0.537567 1.70213 0
M  V30 26232 C 2545.52 -0.92649 3.2599 0
M  V30 26233 C 2544.7 -0.22257 4.36833 0
M  V30 26234 C 2543.75 -1.1273 5.13983 0
M  V30 26235 O 2542.78 -0.601695 5.66011 0
M  V30 26236 N 2543.98 -2.45632 5.25971 0
M  V30 26237 H 2546.75 0.842897 2.87603 0
M  V30 26238 H 2544.31 0.593136 1.50644 0
M  V30 26239 H 2546.3 -1.53453 3.74479 0
M  V30 26240 H 2544.87 -1.60157 2.68456 0
M  V30 26241 H 2544.09 0.566052 3.90115 0
M  V30 26242 H 2545.38 0.26493 5.0811 0
M  V30 26243 H 2544.78 -2.90802 4.85233 0
M  V30 26244 H 2543.33 -3.01512 5.7787 0
M  V30 26245 N 2546.77 -1.4974 0.491491 0
M  V30 26246 C 2547.7 -2.31797 -0.2815 0
M  V30 26247 C 2548.68 -1.39631 -0.971448 0
M  V30 26248 O 2549.86 -1.68545 -0.964689 0
M  V30 26249 C 2546.99 -3.19905 -1.35197 0
M  V30 26250 C 2545.95 -4.20787 -0.782455 0
M  V30 26251 C 2545.27 -4.97767 -1.95274 0
M  V30 26252 C 2546.57 -5.21836 0.220082 0
M  V30 26253 H 2548.27 -2.9667 0.403407 0
M  V30 26254 H 2545.81 -1.42667 0.19545 0
M  V30 26255 H 2547.77 -3.76116 -1.90038 0
M  V30 26256 H 2546.49 -2.52956 -2.06593 0
M  V30 26257 H 2545.15 -3.65706 -0.255864 0
M  V30 26258 H 2544.8 -4.27274 -2.65416 0
M  V30 26259 H 2544.5 -5.66021 -1.57779 0
M  V30 26260 H 2546.02 -5.5682 -2.50567 0
M  V30 26261 H 2547.43 -5.72798 -0.239859 0
M  V30 26262 H 2545.83 -5.97926 0.510365 0
M  V30 26263 H 2546.9 -4.71328 1.13919 0
M  V30 26264 N 2548.24 -0.224922 -1.55987 0
M  V30 26265 C 2549.21 0.670309 -2.19179 0
M  V30 26266 C 2550.21 1.11915 -1.15463 0
M  V30 26267 O 2551.4 1.02741 -1.40677 0
M  V30 26268 C 2548.53 1.91866 -2.81781 0
M  V30 26269 H 2549.72 0.119311 -2.99663 0
M  V30 26270 H 2547.28 0.0246853 -1.56281 0
M  V30 26271 H 2548.01 2.51144 -2.05176 0
M  V30 26272 H 2547.8 1.60525 -3.57735 0
M  V30 26273 H 2549.29 2.5564 -3.30209 0
M  V30 26274 N 2549.72 1.57526 0.0484352 0
M  V30 26275 C 2550.63 2.08656 1.07237 0
M  V30 26276 C 2551.65 1.02097 1.40898 0
M  V30 26277 O 2552.82 1.33715 1.50606 0
M  V30 26278 C 2549.89 2.53975 2.36004 0
M  V30 26279 C 2548.95 3.74933 2.09101 0
M  V30 26280 C 2548.18 4.18081 3.31729 0
M  V30 26281 O 2548.41 3.60903 4.41708 0
M  V30 26282 O 2547.34 5.10685 3.18567 0
M  V30 26283 H 2551.17 2.96264 0.667913 0
M  V30 26284 H 2548.75 1.47046 0.264144 0
M  V30 26285 H 2550.63 2.8354 3.11742 0
M  V30 26286 H 2549.31 1.69486 2.75783 0
M  V30 26287 H 2548.22 3.50416 1.30993 0
M  V30 26288 H 2549.55 4.60346 1.7419 0
M  V30 26289 N 2551.2 -0.32033 1.5431 0
M  V30 26290 C 2552.13 -1.41553 1.80265 0
M  V30 26291 C 2553.15 -1.47699 0.684749 0
M  V30 26292 O 2554.33 -1.50365 0.961913 0
M  V30 26293 C 2551.43 -2.80066 1.9083 0
M  V30 26294 C 2550.61 -2.97085 3.21028 0
M  V30 26295 C 2549.67 -4.15979 3.22254 0
M  V30 26296 O 2548.69 -4.08985 3.95878 0
M  V30 26297 N 2549.89 -5.25674 2.46267 0
M  V30 26298 H 2552.66 -1.19651 2.7478 0
M  V30 26299 H 2550.22 -0.510331 1.53646 0
M  V30 26300 H 2552.21 -3.57817 1.89074 0
M  V30 26301 H 2550.78 -2.95005 1.03397 0
M  V30 26302 H 2550 -2.06608 3.35718 0
M  V30 26303 H 2551.29 -3.05353 4.06985 0
M  V30 26304 H 2550.69 -5.34232 1.86046 0
M  V30 26305 H 2549.25 -6.01831 2.50285 0
M  V30 26306 N 2552.68 -1.46438 -0.582558 0
M  V30 26307 C 2553.93 -1.51756 -1.34076 0
M  V30 26308 C 2554.25 -0.169333 -1.93761 0
M  V30 26309 O 2553.51 0.835031 -1.76991 0
M  V30 26310 C 2553.81 -2.56426 -2.48959 0
M  V30 26311 C 2553.47 -4.00439 -2.07266 0
M  V30 26312 C 2552.14 -4.39648 -1.9561 0
M  V30 26313 C 2554.49 -4.90906 -1.75103 0
M  V30 26314 C 2551.82 -5.67188 -1.5005 0
M  V30 26315 C 2554.17 -6.18883 -1.31021 0
M  V30 26316 C 2552.83 -6.56998 -1.17942 0
M  V30 26317 H 2552.1 -0.555313 -0.49062 0
M  V30 26318 H 2554.75 -1.79914 -0.655975 0
M  V30 26319 H 2553.05 -2.21928 -3.22885 0
M  V30 26320 H 2554.75 -2.5777 -3.07174 0
M  V30 26321 H 2551.34 -3.69446 -2.17272 0
M  V30 26322 H 2555.52 -4.61332 -1.82993 0
M  V30 26323 H 2550.78 -5.95491 -1.38567 0
M  V30 26324 H 2554.95 -6.8841 -1.05188 0
M  V30 26325 H 2552.58 -7.55719 -0.824146 0
M  V30 26326 N 2554.16 0.827204 -1.34146 0
M  V30 26327 C 2555.1 1.93782 -1.25367 0
M  V30 26328 C 2556.07 1.65592 -0.129803 0
M  V30 26329 O 2557.26 1.88264 -0.310057 0
M  V30 26330 C 2554.4 3.29968 -1.0107 0
M  V30 26331 C 2553.51 3.7048 -2.22191 0
M  V30 26332 C 2552.65 4.95592 -1.91212 0
M  V30 26333 C 2551.69 5.28672 -3.085 0
M  V30 26334 N 2550.82 6.44962 -2.77432 0
M  V30 26335 H 2555.66 2.00623 -2.20351 0
M  V30 26336 H 2553.2 0.981589 -1.09559 0
M  V30 26337 H 2555.16 4.08445 -0.850211 0
M  V30 26338 H 2553.79 3.22653 -0.0975593 0
M  V30 26339 H 2552.84 2.8743 -2.49175 0
M  V30 26340 H 2554.15 3.909 -3.09837 0
M  V30 26341 H 2553.31 5.81845 -1.71875 0
M  V30 26342 H 2552.04 4.77165 -1.0082 0
M  V30 26343 H 2551.05 4.40918 -3.28438 0
M  V30 26344 H 2552.27 5.4904 -3.99664 0
M  V30 26345 H 2550.22 6.27999 -1.89612 0
M  V30 26346 H 2550.14 6.65534 -3.5861 0
M  V30 26347 H 2551.41 7.34296 -2.61589 0
M  V30 26348 N 2555.63 1.17805 1.04688 0
M  V30 26349 C 2556.57 0.857135 2.1257 0
M  V30 26350 C 2557.58 -0.142619 1.62174 0
M  V30 26351 O 2558.77 0.0843701 1.783 0
M  V30 26352 C 2555.87 0.258275 3.37914 0
M  V30 26353 C 2555.04 1.30215 4.17568 0
M  V30 26354 C 2554.1 0.72012 5.21249 0
M  V30 26355 O 2553.13 1.39324 5.51885 0
M  V30 26356 N 2554.33 -0.485405 5.78467 0
M  V30 26357 H 2557.09 1.78567 2.40695 0
M  V30 26358 H 2554.65 1.07759 1.20829 0
M  V30 26359 H 2556.65 -0.144513 4.04442 0
M  V30 26360 H 2555.22 -0.574145 3.07282 0
M  V30 26361 H 2554.44 1.88049 3.46455 0
M  V30 26362 H 2555.72 2.00609 4.67582 0
M  V30 26363 H 2555.12 -1.05013 5.55868 0
M  V30 26364 H 2553.68 -0.830193 6.46491 0
M  V30 26365 N 2557.11 -1.23497 0.979094 0
M  V30 26366 C 2558.06 -2.24913 0.517944 0
M  V30 26367 C 2559.03 -1.60097 -0.442496 0
M  V30 26368 O 2560.21 -1.87556 -0.350332 0
M  V30 26369 C 2557.35 -3.44657 -0.174753 0
M  V30 26370 C 2556.47 -4.24034 0.825795 0
M  V30 26371 C 2555.6 -5.3109 0.108039 0
M  V30 26372 C 2554.64 -6.02173 1.09789 0
M  V30 26373 N 2553.78 -7.00906 0.409374 0
M  V30 26374 H 2558.62 -2.63725 1.38756 0
M  V30 26375 H 2556.16 -1.29629 0.695326 0
M  V30 26376 H 2558.11 -4.12962 -0.59316 0
M  V30 26377 H 2556.74 -3.0665 -1.00825 0
M  V30 26378 H 2555.8 -3.55158 1.3626 0
M  V30 26379 H 2557.11 -4.7311 1.58013 0
M  V30 26380 H 2556.26 -6.05584 -0.367798 0
M  V30 26381 H 2555 -4.82951 -0.678909 0
M  V30 26382 H 2554.01 -5.26473 1.58449 0
M  V30 26383 H 2555.23 -6.52401 1.88548 0
M  V30 26384 H 2553.18 -6.5502 -0.35839 0
M  V30 26385 H 2553.09 -7.47919 1.10239 0
M  V30 26386 H 2554.36 -7.79488 -0.0441187 0
M  V30 26387 N 2558.59 -0.750586 -1.38578 0
M  V30 26388 C 2559.55 -0.129192 -2.28836 0
M  V30 26389 C 2560.55 0.650688 -1.47047 0
M  V30 26390 O 2561.74 0.477398 -1.67531 0
M  V30 26391 C 2558.88 0.825563 -3.30753 0
M  V30 26392 H 2560.07 -0.924566 -2.85292 0
M  V30 26393 H 2557.62 -0.517402 -1.47488 0
M  V30 26394 H 2558.36 1.64672 -2.79381 0
M  V30 26395 H 2558.14 0.268784 -3.91178 0
M  V30 26396 H 2559.63 1.25643 -3.98251 0
M  V30 26397 N 2560.07 1.49477 -0.499425 0
M  V30 26398 C 2561 2.31943 0.269203 0
M  V30 26399 C 2561.98 1.40144 0.96403 0
M  V30 26400 O 2563.17 1.69054 0.955737 0
M  V30 26401 C 2560.3 3.20617 1.33499 0
M  V30 26402 C 2559.25 4.21196 0.760128 0
M  V30 26403 C 2558.58 4.98796 1.92631 0
M  V30 26404 C 2559.88 5.21712 -0.247753 0
M  V30 26405 H 2561.57 2.96452 -0.419134 0
M  V30 26406 H 2559.12 1.42562 -0.203013 0
M  V30 26407 H 2561.07 3.77119 1.88041 0
M  V30 26408 H 2559.79 2.54048 2.05249 0
M  V30 26409 H 2558.45 3.65837 0.236466 0
M  V30 26410 H 2558.1 4.28676 2.63146 0
M  V30 26411 H 2557.8 5.6685 1.54775 0
M  V30 26412 H 2559.32 5.58141 2.4761 0
M  V30 26413 H 2560.74 5.72917 0.209479 0
M  V30 26414 H 2559.13 5.97647 -0.542067 0
M  V30 26415 H 2560.2 4.70718 -1.16417 0
M  V30 26416 N 2561.55 0.233191 1.55865 0
M  V30 26417 C 2562.8 -0.394558 1.98211 0
M  V30 26418 C 2563.12 -1.59461 1.12237 0
M  V30 26419 O 2562.39 -1.94856 0.202016 0
M  V30 26420 H 2560.97 -0.148765 0.732037 0
M  V30 26421 H 2563.63 0.328793 1.92107 0
M  V30 26422 H 2562.72 -0.71301 3.03846 0
M  V30 26423 N 2563.03 -1.57549 -0.0400806 0
M  V30 26424 C 2563.96 -2.08871 -1.0438 0
M  V30 26425 C 2564.94 -0.988842 -1.38405 0
M  V30 26426 O 2566.12 -1.26345 -1.47481 0
M  V30 26427 C 2563.25 -2.55899 -2.34804 0
M  V30 26428 C 2562.21 -3.70051 -2.1505 0
M  V30 26429 C 2561.53 -4.03245 -3.51137 0
M  V30 26430 C 2562.83 -4.98905 -1.54567 0
M  V30 26431 H 2564.53 -2.92982 -0.616615 0
M  V30 26432 H 2562.07 -1.40943 -0.295159 0
M  V30 26433 H 2564.02 -2.90422 -3.05341 0
M  V30 26434 H 2562.75 -1.68858 -2.79562 0
M  V30 26435 H 2561.41 -3.3586 -1.46948 0
M  V30 26436 H 2561.06 -3.13286 -3.93523 0
M  V30 26437 H 2560.76 -4.80128 -3.38749 0
M  V30 26438 H 2562.28 -4.40292 -4.23054 0
M  V30 26439 H 2563.69 -5.31455 -2.15008 0
M  V30 26440 H 2562.09 -5.80324 -1.52786 0
M  V30 26441 H 2563.16 -4.82207 -0.510306 0
M  V30 26442 N 2564.5 0.312142 -1.54478 0
M  V30 26443 C 2565.43 1.38954 -1.87654 0
M  V30 26444 C 2566.41 1.5343 -0.734385 0
M  V30 26445 O 2567.6 1.67122 -0.989139 0
M  V30 26446 C 2564.73 2.75549 -2.11401 0
M  V30 26447 C 2563.68 2.75849 -3.27248 0
M  V30 26448 C 2563.01 4.15628 -3.36389 0
M  V30 26449 C 2564.31 2.38579 -4.64626 0
M  V30 26450 H 2566 1.11437 -2.77889 0
M  V30 26451 H 2563.55 0.534631 -1.33707 0
M  V30 26452 H 2565.5 3.50996 -2.33195 0
M  V30 26453 H 2564.23 3.04567 -1.17926 0
M  V30 26454 H 2562.89 2.02857 -3.0536 0
M  V30 26455 H 2562.53 4.41805 -2.40452 0
M  V30 26456 H 2562.23 4.16732 -4.14256 0
M  V30 26457 H 2563.76 4.92871 -3.60431 0
M  V30 26458 H 2565.17 3.03741 -4.86225 0
M  V30 26459 H 2563.57 2.50916 -5.45125 0
M  V30 26460 H 2564.64 1.33715 -4.66099 0
M  V30 26461 N 2565.98 1.46745 0.574784 0
M  V30 26462 C 2566.91 1.53949 1.69801 0
M  V30 26463 C 2567.93 0.427134 1.57097 0
M  V30 26464 O 2569.12 0.695892 1.64376 0
M  V30 26465 C 2566.22 1.41116 3.08123 0
M  V30 26466 C 2565.39 2.66611 3.46753 0
M  V30 26467 C 2564.45 2.47864 4.64166 0
M  V30 26468 O 2563.47 3.21617 4.69629 0
M  V30 26469 N 2564.68 1.54544 5.5955 0
M  V30 26470 H 2567.44 2.50799 1.64073 0
M  V30 26471 H 2565 1.42901 0.760975 0
M  V30 26472 H 2566.99 1.26334 3.84476 0
M  V30 26473 H 2565.56 0.524163 3.08174 0
M  V30 26474 H 2564.78 2.96278 2.60025 0
M  V30 26475 H 2566.07 3.4996 3.69331 0
M  V30 26476 H 2565.47 0.937402 5.57879 0
M  V30 26477 H 2564.03 1.45722 6.35302 0
M  V30 26478 N 2567.46 -0.820078 1.34583 0
M  V30 26479 C 2568.69 -1.60811 1.30183 0
M  V30 26480 C 2569.1 -1.88396 -0.123518 0
M  V30 26481 O 2568.46 -1.47737 -1.07145 0
M  V30 26482 C 2568.51 -2.94735 2.09317 0
M  V30 26483 O 2568.23 -2.68352 3.46293 0
M  V30 26484 C 2569.73 -3.89132 2.12347 0
M  V30 26485 H 2566.95 -0.499774 0.447735 0
M  V30 26486 H 2569.5 -1.02014 1.77238 0
M  V30 26487 H 2567.65 -3.50082 1.65895 0
M  V30 26488 H 2568.07 -3.53767 3.87233 0
M  V30 26489 H 2569.54 -4.80257 2.72134 0
M  V30 26490 H 2570.02 -4.24716 1.11861 0
M  V30 26491 H 2570.62 -3.39721 2.5587 0
M  V30 26492 N 2568.94 -1.18359 -1.04062 0
M  V30 26493 C 2569.9 -0.912744 -2.10242 0
M  V30 26494 C 2570.9 0.1019 -1.60477 0
M  V30 26495 O 2572.09 -0.131547 -1.73703 0
M  V30 26496 C 2569.22 -0.369446 -3.38892 0
M  V30 26497 H 2570.42 -1.8543 -2.35702 0
M  V30 26498 H 2567.97 -0.995615 -1.20487 0
M  V30 26499 H 2568.7 0.57872 -3.19095 0
M  V30 26500 H 2568.49 -1.10086 -3.76329 0
M  V30 26501 H 2569.98 -0.198648 -4.17127 0
M  V30 26502 N 2570.42 1.22976 -0.98563 0
M  V30 26503 C 2571.64 1.95558 -0.675617 0
M  V30 26504 C 2572.06 1.72899 0.758382 0
M  V30 26505 O 2571.42 1.02359 1.51092 0
M  V30 26506 C 2571.47 3.48438 -0.962992 0
M  V30 26507 O 2571.19 3.70332 -2.34063 0
M  V30 26508 C 2572.69 4.38213 -0.669662 0
M  V30 26509 H 2569.91 0.622474 -0.250534 0
M  V30 26510 H 2572.45 1.56325 -1.31843 0
M  V30 26511 H 2570.61 3.85666 -0.366101 0
M  V30 26512 H 2571.02 4.64587 -2.43432 0
M  V30 26513 H 2572.5 5.44261 -0.921063 0
M  V30 26514 H 2572.97 4.37408 0.396307 0
M  V30 26515 H 2573.58 4.066 -1.24727 0
M  V30 26516 N 2571.89 0.757924 1.38178 0
M  V30 26517 C 2572.84 0.133097 2.30416 0
M  V30 26518 C 2573.81 -0.70493 1.50399 0
M  V30 26519 O 2575 -0.660161 1.79015 0
M  V30 26520 C 2572.14 -0.750754 3.36835 0
M  V30 26521 C 2571.25 0.102373 4.31879 0
M  V30 26522 C 2570.38 -0.784887 5.25369 0
M  V30 26523 C 2569.42 0.0716122 6.12058 0
M  V30 26524 N 2568.56 -0.772849 6.97833 0
M  V30 26525 H 2573.4 0.925235 2.83273 0
M  V30 26526 H 2570.94 0.46789 1.3946 0
M  V30 26527 H 2572.89 -1.27787 3.97148 0
M  V30 26528 H 2571.52 -1.50863 2.85377 0
M  V30 26529 H 2570.58 0.74716 3.7299 0
M  V30 26530 H 2571.89 0.763639 4.9292 0
M  V30 26531 H 2571.04 -1.37901 5.9082 0
M  V30 26532 H 2569.78 -1.47987 4.64705 0
M  V30 26533 H 2568.79 0.678368 5.45599 0
M  V30 26534 H 2570.01 0.763725 6.74792 0
M  V30 26535 H 2567.96 -1.45271 6.39713 0
M  V30 26536 H 2567.87 -0.168576 7.55812 0
M  V30 26537 H 2569.14 -1.3518 7.67689 0
M  V30 26538 N 2573.37 -1.4921 0.507345 0
M  V30 26539 C 2574.3 -2.27168 -0.304492 0
M  V30 26540 C 2575.32 -1.33973 -0.924932 0
M  V30 26541 O 2576.51 -1.59206 -0.807199 0
M  V30 26542 C 2573.61 -3.06585 -1.44426 0
M  V30 26543 C 2572.78 -4.274 -0.929951 0
M  V30 26544 C 2571.84 -4.88811 -1.94809 0
M  V30 26545 O 2570.86 -5.48693 -1.51409 0
M  V30 26546 N 2572.07 -4.79027 -3.27892 0
M  V30 26547 H 2574.83 -2.97481 0.364002 0
M  V30 26548 H 2572.39 -1.58284 0.340277 0
M  V30 26549 H 2574.38 -3.44541 -2.12305 0
M  V30 26550 H 2572.95 -2.38839 -2.0168 0
M  V30 26551 H 2572.17 -3.94127 -0.0758551 0
M  V30 26552 H 2573.46 -5.05655 -0.564843 0
M  V30 26553 H 2572.86 -4.31487 -3.65836 0
M  V30 26554 H 2571.42 -5.21149 -3.91467 0
M  V30 26555 N 2574.85 -0.241454 -1.55739 0
M  V30 26556 C 2575.81 0.647025 -2.19878 0
M  V30 26557 C 2576.81 1.10684 -1.16644 0
M  V30 26558 O 2578 1.01243 -1.41759 0
M  V30 26559 C 2575.14 1.88866 -2.838 0
M  V30 26560 H 2576.33 0.0875213 -2.99772 0
M  V30 26561 H 2573.88 0.00810826 -1.56298 0
M  V30 26562 H 2574.62 2.48953 -2.07829 0
M  V30 26563 H 2574.4 1.56722 -3.59417 0
M  V30 26564 H 2575.89 2.52123 -3.32902 0
M  V30 26565 N 2576.33 1.57568 0.0317248 0
M  V30 26566 C 2577.24 2.09782 1.05018 0
M  V30 26567 C 2578.25 1.03586 1.39807 0
M  V30 26568 O 2579.43 1.35305 1.4918 0
M  V30 26569 C 2576.5 2.56463 2.33297 0
M  V30 26570 C 2575.56 3.7713 2.05113 0
M  V30 26571 C 2574.79 4.21576 3.27276 0
M  V30 26572 O 2575.01 3.65567 4.37855 0
M  V30 26573 O 2573.95 5.14035 3.13132 0
M  V30 26574 H 2577.77 2.96956 0.636453 0
M  V30 26575 H 2575.36 1.47318 0.248533 0
M  V30 26576 H 2577.24 2.86831 3.08717 0
M  V30 26577 H 2575.91 1.72401 2.7397 0
M  V30 26578 H 2574.82 3.51786 1.27269 0
M  V30 26579 H 2576.15 4.62168 1.69297 0
M  V30 26580 N 2577.81 -0.303946 1.54641 0
M  V30 26581 C 2578.77 -1.35786 1.84648 0
M  V30 26582 C 2579.77 -1.43819 0.719225 0
M  V30 26583 O 2580.96 -1.43505 0.987516 0
M  V30 26584 C 2578.09 -2.74303 2.02412 0
M  V30 26585 H 2579.28 -1.10424 2.78831 0
M  V30 26586 H 2576.84 -0.540462 1.46658 0
M  V30 26587 H 2577.57 -3.04891 1.10507 0
M  V30 26588 H 2577.36 -2.69863 2.84458 0
M  V30 26589 H 2578.85 -3.5051 2.27008 0
M  V30 26590 N 2579.28 -1.47047 -0.566994 0
M  V30 26591 C 2580.25 -1.58362 -1.65693 0
M  V30 26592 C 2581.25 -0.459469 -1.54096 0
M  V30 26593 O 2582.44 -0.724253 -1.5843 0
M  V30 26594 C 2579.57 -1.51885 -3.05195 0
M  V30 26595 H 2580.76 -2.55512 -1.57014 0
M  V30 26596 H 2578.32 -1.35092 -0.786125 0
M  V30 26597 H 2579.05 -0.560729 -3.19416 0
M  V30 26598 H 2578.84 -2.33461 -3.15021 0
M  V30 26599 H 2580.33 -1.6292 -3.84508 0
M  V30 26600 N 2580.76 0.812929 -1.35016 0
M  V30 26601 C 2581.73 1.906 -1.27296 0
M  V30 26602 C 2582.73 1.59722 -0.185845 0
M  V30 26603 O 2583.92 1.68574 -0.439132 0
M  V30 26604 C 2581.05 3.26876 -0.967733 0
M  V30 26605 H 2582.24 1.98866 -2.24482 0
M  V30 26606 H 2579.79 1.00806 -1.19448 0
M  V30 26607 H 2580.53 3.243 0.000538396 0
M  V30 26608 H 2580.31 3.50672 -1.75418 0
M  V30 26609 H 2581.8 4.06902 -0.939156 0
M  V30 26610 N 2582.24 1.18909 1.03433 0
M  V30 26611 C 2583.65 0.991551 1.58193 0
M  V30 26612 C 2584 -0.457047 1.90802 0
M  V30 26613 O 2583.13 -1.3355 1.70274 0
M  V30 26614 C 2583.72 1.7936 2.87429 0
M  V30 26615 C 2582.28 1.64023 3.38782 0
M  V30 26616 C 2581.43 1.78406 2.12289 0
M  V30 26617 H 2584.38 1.3336 0.860275 0
M  V30 26618 H 2584.4 1.28645 3.58093 0
M  V30 26619 H 2583.91 2.84786 2.63664 0
M  V30 26620 H 2582.01 0.611601 3.67546 0
M  V30 26621 H 2582.13 2.4422 4.12181 0
M  V30 26622 H 2580.49 1.21414 2.23899 0
M  V30 26623 H 2581.27 2.8528 1.90972 0
M  V30 26624 N 2583.72 -1.22452 0.992137 0
M  V30 26625 C 2584.96 -1.91463 0.668557 0
M  V30 26626 C 2585.3 -1.77079 -0.797281 0
M  V30 26627 O 2584.57 -1.13919 -1.57648 0
M  V30 26628 C 2584.86 -3.43702 1.0743 0
M  V30 26629 C 2584.71 -3.67139 2.59864 0
M  V30 26630 C 2586.03 -4.35611 0.626968 0
M  V30 26631 H 2583.15 -0.695313 0.244353 0
M  V30 26632 H 2585.79 -1.44343 1.23552 0
M  V30 26633 H 2583.94 -3.83965 0.591884 0
M  V30 26634 H 2585.61 -3.36284 3.1577 0
M  V30 26635 H 2583.85 -3.11446 3.01967 0
M  V30 26636 H 2584.52 -4.73754 2.83304 0
M  V30 26637 H 2587 -4.02859 1.04132 0
M  V30 26638 H 2585.88 -5.40806 0.939171 0
M  V30 26639 H 2586.14 -4.39569 -0.472379 0
M  V30 26640 N 2585.2 -0.765242 -1.37774 0
M  V30 26641 C 2586.44 -0.327107 -2.00145 0
M  V30 26642 C 2586.78 1.09172 -1.60609 0
M  V30 26643 O 2586.05 1.74984 -0.849158 0
M  V30 26644 C 2586.33 -0.463252 -3.57108 0
M  V30 26645 C 2586.19 -1.92402 -4.06573 0
M  V30 26646 C 2587.51 0.136396 -4.39889 0
M  V30 26647 H 2584.62 -0.120329 -0.727111 0
M  V30 26648 H 2587.27 -0.967068 -1.63548 0
M  V30 26649 H 2585.42 0.0815675 -3.88414 0
M  V30 26650 H 2587.09 -2.52805 -3.85859 0
M  V30 26651 H 2585.33 -2.43509 -3.59007 0
M  V30 26652 H 2586 -1.97038 -5.15636 0
M  V30 26653 H 2588.48 -0.328389 -4.14802 0
M  V30 26654 H 2587.35 0.0109617 -5.48899 0
M  V30 26655 H 2587.62 1.226 -4.24761 0
M  V30 26656 N 2586.67 1.48939 -0.515251 0
M  V30 26657 C 2587.58 2.33158 0.259733 0
M  V30 26658 C 2588.6 1.4555 0.953475 0
M  V30 26659 O 2589.78 1.78553 0.931703 0
M  V30 26660 C 2586.84 3.21329 1.30187 0
M  V30 26661 C 2585.9 4.24799 0.620054 0
M  V30 26662 C 2585.14 5.08756 1.61254 0
M  V30 26663 O 2585.36 4.94453 2.84381 0
M  V30 26664 O 2584.29 5.90616 1.16003 0
M  V30 26665 H 2588.12 3.00641 -0.429984 0
M  V30 26666 H 2585.7 1.46821 -0.276372 0
M  V30 26667 H 2587.59 3.75909 1.90448 0
M  V30 26668 H 2586.26 2.56524 1.97426 0
M  V30 26669 H 2585.17 3.74093 -0.0226677 0
M  V30 26670 H 2586.5 4.92199 -0.0101358 0
M  V30 26671 N 2588.15 0.249709 1.55609 0
M  V30 26672 C 2589.38 -0.381269 2.03865 0
M  V30 26673 C 2589.8 -1.50546 1.12771 0
M  V30 26674 O 2589.16 -1.80894 0.121221 0
M  V30 26675 C 2589.21 -0.863754 3.50102 0
M  V30 26676 O 2588.31 -1.97311 3.62135 0
M  V30 26677 H 2587.65 -0.0827079 0.658829 0
M  V30 26678 H 2590.18 0.376587 2.01104 0
M  V30 26679 H 2590.19 -1.16623 3.90977 0
M  V30 26680 H 2588.87 -0.0411085 4.1588 0
M  V30 26681 H 2587.45 -1.67512 3.33158 0
M  V30 26682 N 2589.63 -1.57583 -0.0233682 0
M  V30 26683 C 2590.58 -2.06929 -1.02221 0
M  V30 26684 C 2591.55 -0.959641 -1.35573 0
M  V30 26685 O 2592.73 -1.23058 -1.45813 0
M  V30 26686 C 2589.87 -2.55814 -2.31632 0
M  V30 26687 C 2588.99 -3.80591 -2.04388 0
M  V30 26688 C 2588.12 -4.18067 -3.2771 0
M  V30 26689 C 2587.16 -5.35745 -2.96046 0
M  V30 26690 N 2586.3 -5.68625 -4.11837 0
M  V30 26691 H 2591.14 -2.92011 -0.594453 0
M  V30 26692 H 2588.67 -1.44374 -0.281896 0
M  V30 26693 H 2590.63 -2.82226 -3.07253 0
M  V30 26694 H 2589.26 -1.73641 -2.72119 0
M  V30 26695 H 2588.31 -3.61229 -1.19238 0
M  V30 26696 H 2589.63 -4.66327 -1.77034 0
M  V30 26697 H 2588.78 -4.45637 -4.11695 0
M  V30 26698 H 2587.52 -3.30994 -3.58182 0
M  V30 26699 H 2586.52 -5.07922 -2.10465 0
M  V30 26700 H 2587.75 -6.24476 -2.66846 0
M  V30 26701 H 2585.7 -4.84511 -4.4225 0
M  V30 26702 H 2585.61 -6.48883 -3.87927 0
M  V30 26703 H 2586.88 -6.00775 -4.96678 0
M  V30 26704 N 2591.11 0.29574 -1.548 0
M  V30 26705 C 2592.36 1.02785 -1.75518 0
M  V30 26706 C 2592.71 1.84745 -0.537299 0
M  V30 26707 O 2592 1.85739 0.470266 0
M  V30 26708 C 2592.2 1.96094 -2.98801 0
M  V30 26709 C 2592.03 1.23314 -4.32462 0
M  V30 26710 C 2590.8 0.958133 -4.96133 0
M  V30 26711 C 2592.99 0.634934 -5.10366 0
M  V30 26712 N 2590.98 0.20115 -6.1357 0
M  V30 26713 C 2592.35 0.0109847 -6.19999 0
M  V30 26714 C 2594.4 0.540507 -4.94958 0
M  V30 26715 C 2593.11 -0.698262 -7.15903 0
M  V30 26716 C 2595.13 -0.155096 -5.91197 0
M  V30 26717 C 2594.49 -0.767875 -7.00202 0
M  V30 26718 H 2590.59 0.35887 -0.694792 0
M  V30 26719 H 2593.18 0.305909 -1.92282 0
M  V30 26720 H 2591.35 2.65535 -2.83453 0
M  V30 26721 H 2593.08 2.62497 -3.08022 0
M  V30 26722 H 2589.83 1.25763 -4.56597 0
M  V30 26723 H 2590.26 -0.164009 -6.76801 0
M  V30 26724 H 2594.9 0.999962 -4.10805 0
M  V30 26725 H 2592.62 -1.16947 -7.99593 0
M  V30 26726 H 2596.2 -0.228172 -5.81352 0
M  V30 26727 H 2595.08 -1.29757 -7.7339 0
M  V30 26728 N 2592.59 1.47346 0.559187 0
M  V30 26729 C 2594 1.32821 0.88492 0
M  V30 26730 C 2594.2 0.317208 1.98988 0
M  V30 26731 O 2593.26 -0.271967 2.51031 0
M  V30 26732 C 2594.57 2.72095 1.28003 0
M  V30 26733 C 2596.12 2.80365 1.39156 0
M  V30 26734 C 2596.6 4.20276 1.82023 0
M  V30 26735 N 2598.09 4.22808 1.89177 0
M  V30 26736 C 2598.82 5.27976 2.2367 0
M  V30 26737 N 2598.32 6.43452 2.56791 0
M  V30 26738 N 2600.11 5.15353 2.24427 0
M  V30 26739 H 2592.26 2.11716 -0.170341 0
M  V30 26740 H 2594.52 0.947903 -0.0135413 0
M  V30 26741 H 2594.23 3.47499 0.541966 0
M  V30 26742 H 2594.1 3.03737 2.2366 0
M  V30 26743 H 2596.49 2.05235 2.12044 0
M  V30 26744 H 2596.57 2.5238 0.416916 0
M  V30 26745 H 2596.22 4.9591 1.09706 0
M  V30 26746 H 2596.15 4.45684 2.80488 0
M  V30 26747 H 2598.64 3.395 1.65976 0
M  V30 26748 H 2598.95 7.19459 2.82131 0
M  V30 26749 H 2597.3 6.46775 2.54375 0
M  V30 26750 H 2600.49 4.24167 1.9799 0
M  V30 26751 H 2600.66 5.97422 2.50979 0
M  V30 26752 N 2594.07 -0.805758 1.35445 0
M  V30 26753 C 2595.03 -1.89922 1.28305 0
M  V30 26754 C 2596.03 -1.59622 0.194313 0
M  V30 26755 O 2597.22 -1.68339 0.448065 0
M  V30 26756 C 2594.35 -3.26358 0.985055 0
M  V30 26757 H 2595.54 -1.97673 2.25534 0
M  V30 26758 H 2593.1 -1.00171 1.19981 0
M  V30 26759 H 2593.83 -3.24296 0.01666 0
M  V30 26760 H 2593.62 -3.49737 1.77275 0
M  V30 26761 H 2595.11 -4.06399 0.960722 0
M  V30 26762 N 2595.54 -1.19456 -1.02801 0
M  V30 26763 C 2596.47 -0.956795 -2.12997 0
M  V30 26764 C 2597.45 0.110159 -1.69743 0
M  V30 26765 O 2598.64 -0.0450379 -1.94148 0
M  V30 26766 C 2595.77 -0.495614 -3.43745 0
M  V30 26767 C 2594.72 -1.5045 -4.00685 0
M  V30 26768 C 2594.05 -0.900368 -5.27065 0
M  V30 26769 C 2595.35 -2.88498 -4.35392 0
M  V30 26770 H 2597.04 -1.8784 -2.33145 0
M  V30 26771 H 2594.59 -0.904559 -1.12043 0
M  V30 26772 H 2596.54 -0.316567 -4.20209 0
M  V30 26773 H 2595.27 0.461589 -3.23322 0
M  V30 26774 H 2593.93 -1.67071 -3.26317 0
M  V30 26775 H 2593.57 0.0644145 -5.02959 0
M  V30 26776 H 2593.27 -1.57407 -5.66124 0
M  V30 26777 H 2594.8 -0.732136 -6.06195 0
M  V30 26778 H 2596.21 -2.75455 -5.0279 0
M  V30 26779 H 2594.61 -3.52669 -4.85535 0
M  V30 26780 H 2595.68 -3.41087 -3.44656 0
M  V30 26781 N 2597.02 1.21924 -0.998617 0
M  V30 26782 C 2597.93 2.2775 -0.562776 0
M  V30 26783 C 2598.95 1.69546 0.391173 0
M  V30 26784 O 2600.12 1.99759 0.256589 0
M  V30 26785 C 2597.19 3.46525 0.110059 0
M  V30 26786 C 2596.25 4.20025 -0.887569 0
M  V30 26787 C 2595.48 5.33129 -0.246748 0
M  V30 26788 O 2595.71 5.62298 0.957989 0
M  V30 26789 O 2594.64 5.94284 -0.954479 0
M  V30 26790 H 2598.47 2.6721 -1.44334 0
M  V30 26791 H 2596.05 1.28199 -0.767158 0
M  V30 26792 H 2597.93 4.1858 0.486682 0
M  V30 26793 H 2596.61 3.08978 0.9651 0
M  V30 26794 H 2595.51 3.50218 -1.31523 0
M  V30 26795 H 2596.85 4.61467 -1.71199 0
M  V30 26796 N 2598.5 0.772537 1.37367 0
M  V30 26797 C 2599.75 0.337716 1.99968 0
M  V30 26798 C 2600.08 -1.08318 1.61185 0
M  V30 26799 O 2599.35 -1.74532 0.858426 0
M  V30 26800 C 2599.64 0.482184 3.56857 0
M  V30 26801 C 2599.49 1.94556 4.05547 0
M  V30 26802 C 2600.81 -0.113066 4.39955 0
M  V30 26803 H 2597.93 0.124183 0.726462 0
M  V30 26804 H 2600.57 0.975728 1.63032 0
M  V30 26805 H 2598.72 -0.0609678 3.88452 0
M  V30 26806 H 2600.39 2.54847 3.84513 0
M  V30 26807 H 2598.63 2.45409 3.5771 0
M  V30 26808 H 2599.31 1.99769 5.14584 0
M  V30 26809 H 2601.78 0.350383 4.14622 0
M  V30 26810 H 2600.66 0.0181479 5.48897 0
M  V30 26811 H 2600.92 -1.20346 4.25405 0
M  V30 26812 N 2599.98 -1.48664 0.523142 0
M  V30 26813 C 2601.22 -2.02496 -0.0134407 0
M  V30 26814 C 2601.55 -1.40088 -1.34928 0
M  V30 26815 O 2600.81 -0.5336 -1.88285 0
M  V30 26816 C 2601.11 -3.56886 -0.191608 0
M  V30 26817 C 2600.77 -4.38045 1.06901 0
M  V30 26818 C 2599.43 -4.5994 1.41451 0
M  V30 26819 C 2601.79 -4.85102 1.90592 0
M  V30 26820 C 2599.11 -5.2614 2.59603 0
M  V30 26821 C 2601.47 -5.52603 3.07916 0
M  V30 26822 C 2600.13 -5.72739 3.42821 0
M  V30 26823 H 2599.4 -0.740984 -0.00491831 0
M  V30 26824 H 2602.05 -1.78723 0.687782 0
M  V30 26825 H 2600.35 -3.79461 -0.975543 0
M  V30 26826 H 2602.05 -3.96153 -0.62159 0
M  V30 26827 H 2598.64 -4.21258 0.789922 0
M  V30 26828 H 2602.82 -4.67995 1.65211 0
M  V30 26829 H 2598.08 -5.39929 2.86857 0
M  V30 26830 H 2602.25 -5.88036 3.73077 0
M  V30 26831 H 2599.88 -6.23809 4.34473 0
M  V30 26832 N 2601.46 -0.257958 -1.55475 0
M  V30 26833 C 2602.7 0.357302 -2.00237 0
M  V30 26834 C 2603.06 1.54757 -1.14316 0
M  V30 26835 O 2602.35 1.9054 -0.201221 0
M  V30 26836 C 2602.54 0.806372 -3.48184 0
M  V30 26837 C 2602.37 -0.338837 -4.48422 0
M  V30 26838 C 2601.14 -0.817099 -4.9865 0
M  V30 26839 C 2603.34 -1.16958 -5.00825 0
M  V30 26840 N 2601.32 -1.93356 -5.82655 0
M  V30 26841 C 2602.69 -2.13423 -5.82109 0
M  V30 26842 C 2604.75 -1.20488 -4.83101 0
M  V30 26843 C 2603.45 -3.13142 -6.4756 0
M  V30 26844 C 2605.48 -2.19043 -5.4934 0
M  V30 26845 C 2604.84 -3.14243 -6.30421 0
M  V30 26846 H 2600.94 0.0963946 -0.776036 0
M  V30 26847 H 2603.52 -0.378064 -1.90994 0
M  V30 26848 H 2601.69 1.511 -3.57803 0
M  V30 26849 H 2603.43 1.39752 -3.79805 0
M  V30 26850 H 2600.18 -0.399333 -4.71913 0
M  V30 26851 H 2600.6 -2.4949 -6.29352 0
M  V30 26852 H 2605.25 -0.482708 -4.20035 0
M  V30 26853 H 2602.96 -3.86302 -7.09786 0
M  V30 26854 H 2606.55 -2.22495 -5.37575 0
M  V30 26855 H 2605.43 -3.89258 -6.8077 0
M  V30 26856 N 2602.93 1.57593 0.0150108 0
M  V30 26857 C 2603.9 2.0643 0.99596 0
M  V30 26858 C 2604.9 0.970926 1.28178 0
M  V30 26859 O 2606.09 1.23409 1.22947 0
M  V30 26860 C 2603.22 2.49311 2.32502 0
M  V30 26861 H 2604.41 2.94359 0.573822 0
M  V30 26862 H 2601.97 1.54086 0.262159 0
M  V30 26863 H 2602.7 1.6458 2.79435 0
M  V30 26864 H 2602.49 3.29149 2.13081 0
M  V30 26865 H 2603.98 2.87473 3.02901 0
M  V30 26866 N 2604.41 -0.287527 1.54955 0
M  V30 26867 C 2605.36 -1.35502 1.86836 0
M  V30 26868 C 2606.33 -1.49757 0.718479 0
M  V30 26869 O 2607.51 -1.64399 0.968387 0
M  V30 26870 C 2604.65 -2.71282 2.13308 0
M  V30 26871 C 2603.77 -2.65367 3.40887 0
M  V30 26872 C 2602.9 -3.9323 3.57132 0
M  V30 26873 C 2601.94 -3.81767 4.78456 0
M  V30 26874 N 2601.08 -5.01434 4.91435 0
M  V30 26875 H 2605.92 -1.07614 2.77891 0
M  V30 26876 H 2603.46 -0.520216 1.37594 0
M  V30 26877 H 2605.41 -3.50263 2.26653 0
M  V30 26878 H 2604.04 -2.97403 1.25504 0
M  V30 26879 H 2603.1 -1.78176 3.36092 0
M  V30 26880 H 2604.41 -2.52792 4.29997 0
M  V30 26881 H 2603.56 -4.80651 3.70215 0
M  V30 26882 H 2602.3 -4.08656 2.6618 0
M  V30 26883 H 2601.31 -2.9273 4.65391 0
M  V30 26884 H 2602.53 -3.67874 5.70829 0
M  V30 26885 H 2600.48 -5.17297 4.0341 0
M  V30 26886 H 2600.39 -4.91333 5.74567 0
M  V30 26887 H 2601.66 -5.90468 5.08889 0
M  V30 26888 N 2605.89 -1.47641 -0.551365 0
M  V30 26889 C 2606.84 -1.56972 -1.65359 0
M  V30 26890 C 2607.82 -0.428216 -1.55097 0
M  V30 26891 O 2609.02 -0.67847 -1.6348 0
M  V30 26892 C 2606.15 -1.59254 -3.04127 0
M  V30 26893 C 2605.23 -2.7881 -3.19571 0
M  V30 26894 N 2605.62 -4.0345 -3.0506 0
M  V30 26895 C 2603.92 -2.75694 -3.50584 0
M  V30 26896 C 2604.62 -4.83548 -3.23351 0
M  V30 26897 N 2603.6 -4.15974 -3.49952 0
M  V30 26898 H 2607.4 -2.51107 -1.52718 0
M  V30 26899 H 2604.91 -1.43716 -0.756278 0
M  V30 26900 H 2606.91 -1.6403 -3.83275 0
M  V30 26901 H 2605.57 -0.662204 -3.17876 0
M  V30 26902 H 2606.58 -4.3422 -2.82265 0
M  V30 26903 H 2603.26 -1.91823 -3.70823 0
M  V30 26904 H 2604.65 -5.92392 -3.1705 0
M  V30 26905 N 2607.37 0.798563 -1.3587 0
M  V30 26906 C 2608.3 1.91697 -1.23804 0
M  V30 26907 C 2609.28 1.62125 -0.124171 0
M  V30 26908 O 2610.46 1.86198 -0.293689 0
M  V30 26909 C 2607.59 3.26299 -0.908121 0
M  V30 26910 C 2606.64 3.74811 -2.03516 0
M  V30 26911 S 2607.47 3.91659 -3.6519 0
M  V30 26912 C 2608.63 5.2915 -3.34292 0
M  V30 26913 H 2608.86 2.01639 -2.1847 0
M  V30 26914 H 2606.39 0.956811 -1.2118 0
M  V30 26915 H 2608.35 4.04055 -0.724577 0
M  V30 26916 H 2607.01 3.14093 0.0206032 0
M  V30 26917 H 2606.2 4.72321 -1.75866 0
M  V30 26918 H 2605.81 3.04077 -2.17745 0
M  V30 26919 H 2608.1 6.13419 -2.87618 0
M  V30 26920 H 2609.04 5.61798 -4.31031 0
M  V30 26921 H 2609.45 4.95817 -2.69863 0
M  V30 26922 N 2608.85 1.19999 1.02166 0
M  V30 26923 C 2610.09 1.01858 1.76058 0
M  V30 26924 C 2610.45 -0.445189 1.87179 0
M  V30 26925 O 2609.74 -1.32621 1.38283 0
M  V30 26926 C 2609.93 1.62975 3.18079 0
M  V30 26927 C 2609.76 3.15143 3.20804 0
M  V30 26928 C 2608.53 3.84088 3.28336 0
M  V30 26929 C 2610.73 4.12426 3.07261 0
M  V30 26930 N 2608.71 5.23589 3.20511 0
M  V30 26931 C 2610.08 5.38571 3.0715 0
M  V30 26932 C 2612.14 4.03691 2.91441 0
M  V30 26933 C 2610.84 6.5699 2.92842 0
M  V30 26934 C 2612.87 5.21728 2.78484 0
M  V30 26935 C 2612.23 6.46776 2.79035 0
M  V30 26936 H 2608.33 0.426916 0.655184 0
M  V30 26937 H 2610.91 1.52089 1.21561 0
M  V30 26938 H 2609.08 1.15335 3.7088 0
M  V30 26939 H 2610.82 1.38199 3.80372 0
M  V30 26940 H 2607.57 3.34919 3.34853 0
M  V30 26941 H 2608 5.96605 3.19986 0
M  V30 26942 H 2612.64 3.07826 2.89832 0
M  V30 26943 H 2610.36 7.53033 2.932 0
M  V30 26944 H 2613.94 5.16777 2.67269 0
M  V30 26945 H 2612.82 7.36576 2.69121 0
M  V30 26946 N 2610.32 -1.21392 1.00507 0
M  V30 26947 C 2611.27 -2.25791 0.558663 0
M  V30 26948 C 2612.27 -1.64687 -0.396819 0
M  V30 26949 O 2613.47 -1.77994 -0.268004 0
M  V30 26950 H 2609.85 -0.734274 0.162313 0
M  V30 26951 H 2611.82 -2.60783 1.45034 0
M  V30 26952 C 2610.57 -3.47559 -0.0988963 0
M  V30 26953 H 2609.89 -3.94848 0.627295 0
M  V30 26954 H 2611.33 -4.22343 -0.374526 0
M  V30 26955 C 2609.79 -3.09186 -1.33811 0
M  V30 26956 O 2610.32 -3.19678 -2.43246 0
M  V30 26957 N 2608.53 -2.63848 -1.21789 0
M  V30 26958 H 2608.07 -2.55511 -0.327415 0
M  V30 26959 H 2608.03 -2.38542 -2.04805 0
M  V30 26960 N 2611.8 -0.779811 -1.36955 0
M  V30 26961 C 2613.05 -0.347801 -1.99491 0
M  V30 26962 C 2613.38 1.0779 -1.619 0
M  V30 26963 O 2612.63 1.75755 -0.860741 0
M  V30 26964 C 2612.93 -0.447749 -3.54584 0
M  V30 26965 C 2612.6 -1.83287 -4.11967 0
M  V30 26966 C 2611.26 -2.21187 -4.27352 0
M  V30 26967 C 2613.61 -2.74027 -4.4335 0
M  V30 26968 C 2610.94 -3.49249 -4.71426 0
M  V30 26969 C 2613.29 -4.01506 -4.88851 0
M  V30 26970 C 2611.96 -4.39441 -5.02442 0
M  V30 26971 H 2611.23 -0.127269 -0.729989 0
M  V30 26972 H 2613.87 -0.995405 -1.63597 0
M  V30 26973 H 2612.18 0.283378 -3.90774 0
M  V30 26974 H 2613.87 -0.0946653 -4.00888 0
M  V30 26975 H 2610.46 -1.52832 -4.00425 0
M  V30 26976 H 2614.65 -2.46002 -4.31041 0
M  V30 26977 H 2609.9 -3.78524 -4.80135 0
M  V30 26978 H 2614.08 -4.7194 -5.121 0
M  V30 26979 H 2611.71 -5.3873 -5.36353 0
M  V30 26980 N 2613.28 1.48384 -0.531019 0
M  V30 26981 C 2614.53 2.01699 0.00470803 0
M  V30 26982 C 2614.84 1.41328 1.35225 0
M  V30 26983 O 2616.05 1.86147 1.9764 0
M  V30 26984 C 2614.5 3.59852 0.0587841 0
M  V30 26985 C 2614.11 4.29208 -1.28392 0
M  V30 26986 C 2615.86 4.21009 0.543284 0
M  V30 26987 C 2613.76 5.79296 -1.19038 0
M  V30 26988 H 2612.69 0.75398 0.00552992 0
M  V30 26989 H 2615.34 1.70636 -0.674954 0
M  V30 26990 H 2613.73 3.87762 0.803544 0
M  V30 26991 H 2614.9 4.12969 -2.04433 0
M  V30 26992 H 2613.22 3.79927 -1.70425 0
M  V30 26993 H 2615.81 5.30961 0.631257 0
M  V30 26994 H 2616.16 3.86397 1.5493 0
M  V30 26995 H 2616.69 3.97533 -0.145824 0
M  V30 26996 H 2613.43 6.18484 -2.17158 0
M  V30 26997 H 2612.95 5.97945 -0.471351 0
M  V30 26998 H 2614.63 6.40967 -0.881478 0
M  V30 26999 N 2614.76 0.2662 1.55336 0
M  V30 27000 C 2615.98 -0.359625 2.04258 0
M  V30 27001 C 2616.41 -1.49342 1.14362 0
M  V30 27002 O 2615.77 -1.80756 0.1404 0
M  V30 27003 C 2615.81 -0.826573 3.50999 0
M  V30 27004 O 2614.92 -1.93459 3.64208 0
M  V30 27005 H 2614.26 -0.0757154 0.659669 0
M  V30 27006 H 2616.79 0.397896 2.00694 0
M  V30 27007 H 2616.8 -1.1247 3.92192 0
M  V30 27008 H 2615.47 0.00300343 4.159 0
M  V30 27009 H 2614.05 -1.63969 3.34916 0
M  V30 27010 N 2616.24 -1.57599 -0.0066531 0
M  V30 27011 C 2617.48 -1.89901 -0.691518 0
M  V30 27012 C 2617.81 -0.866703 -1.7468 0
M  V30 27013 O 2617.08 0.0967845 -1.95661 0
M  V30 27014 H 2615.66 -0.700883 -0.258404 0
M  V30 27015 H 2618.32 -1.94873 0.0326997 0
M  V30 27016 H 2617.41 -2.89462 -1.16697 0
M  V30 27017 N 2617.72 0.279305 -1.55105 0
M  V30 27018 C 2618.96 1.00949 -1.7462 0
M  V30 27019 C 2619.28 1.87675 -0.551129 0
M  V30 27020 O 2620.48 2.64124 -0.628554 0
M  V30 27021 C 2618.94 1.84471 -3.09028 0
M  V30 27022 C 2618.55 1.02642 -4.36083 0
M  V30 27023 C 2620.29 2.56957 -3.37895 0
M  V30 27024 C 2618.2 1.85566 -5.61533 0
M  V30 27025 H 2617.13 0.380629 -0.650875 0
M  V30 27026 H 2619.78 0.265444 -1.8157 0
M  V30 27027 H 2618.16 2.62947 -2.961 0
M  V30 27028 H 2619.34 0.286273 -4.5991 0
M  V30 27029 H 2617.65 0.416391 -4.14313 0
M  V30 27030 H 2620.25 3.19391 -4.28828 0
M  V30 27031 H 2620.59 3.26916 -2.57743 0
M  V30 27032 H 2621.12 1.85516 -3.51893 0
M  V30 27033 H 2617.86 1.20039 -6.44415 0
M  V30 27034 H 2617.38 2.57195 -5.41859 0
M  V30 27035 H 2619.06 2.43086 -5.99598 0
M  V30 27036 N 2619.19 1.47931 0.543528 0
M  V30 27037 C 2620.13 1.57516 1.66497 0
M  V30 27038 C 2621.14 0.46036 1.56155 0
M  V30 27039 O 2622.33 0.730602 1.62863 0
M  V30 27040 C 2619.43 1.4762 3.0506 0
M  V30 27041 C 2618.6 2.73906 3.4102 0
M  V30 27042 C 2617.66 2.57653 4.58804 0
M  V30 27043 O 2616.69 3.31506 4.62701 0
M  V30 27044 N 2617.89 1.66378 5.56146 0
M  V30 27045 H 2620.65 2.54223 1.58716 0
M  V30 27046 H 2618.21 1.44483 0.730492 0
M  V30 27047 H 2620.21 1.34461 3.8171 0
M  V30 27048 H 2618.78 0.589413 3.06993 0
M  V30 27049 H 2618 3.01727 2.53682 0
M  V30 27050 H 2619.28 3.57716 3.61825 0
M  V30 27051 H 2618.68 1.05553 5.55765 0
M  V30 27052 H 2617.24 1.59165 6.32068 0
M  V30 27053 N 2620.67 -0.791347 1.36292 0
M  V30 27054 C 2621.9 -1.57784 1.33371 0
M  V30 27055 C 2622.31 -1.88998 -0.0874856 0
M  V30 27056 O 2621.65 -1.50437 -1.05425 0
M  V30 27057 C 2621.71 -2.92643 2.08807 0
M  V30 27058 C 2621.38 -2.84167 3.57908 0
M  V30 27059 C 2622.38 -2.56545 4.52195 0
M  V30 27060 C 2620.06 -3.02805 4.00767 0
M  V30 27061 C 2622.05 -2.47659 5.87319 0
M  V30 27062 C 2619.74 -2.93541 5.35982 0
M  V30 27063 C 2620.74 -2.66006 6.29071 0
M  V30 27064 O 2620.43 -2.56732 7.61803 0
M  V30 27065 H 2620.16 -0.496119 0.459175 0
M  V30 27066 H 2622.71 -0.990238 1.79954 0
M  V30 27067 H 2620.94 -3.53446 1.56884 0
M  V30 27068 H 2622.63 -3.53901 1.98769 0
M  V30 27069 H 2623.4 -2.4185 4.20397 0
M  V30 27070 H 2619.28 -3.23244 3.28685 0
M  V30 27071 H 2622.82 -2.26087 6.59947 0
M  V30 27072 H 2618.72 -3.07798 5.67389 0
M  V30 27073 H 2619.49 -2.72228 7.71903 0
M  V30 27074 N 2622.15 -1.2054 -1.01528 0
M  V30 27075 C 2623.08 -0.979333 -2.1197 0
M  V30 27076 C 2624.06 0.0921489 -1.6985 0
M  V30 27077 O 2625.25 -0.0656273 -1.94089 0
M  V30 27078 C 2622.38 -0.532044 -3.432 0
M  V30 27079 C 2621.33 -1.54692 -3.99067 0
M  V30 27080 C 2620.66 -0.95622 -5.2608 0
M  V30 27081 C 2621.96 -2.931 -4.32308 0
M  V30 27082 H 2623.65 -1.90302 -2.3114 0
M  V30 27083 H 2621.2 -0.916392 -1.11078 0
M  V30 27084 H 2623.15 -0.361118 -4.1985 0
M  V30 27085 H 2621.87 0.427271 -3.23793 0
M  V30 27086 H 2620.53 -1.70523 -3.24527 0
M  V30 27087 H 2620.18 0.0110654 -5.02999 0
M  V30 27088 H 2619.88 -1.63403 -5.64423 0
M  V30 27089 H 2621.4 -0.79639 -6.05384 0
M  V30 27090 H 2622.82 -2.80772 -4.9984 0
M  V30 27091 H 2621.21 -3.57799 -4.81767 0
M  V30 27092 H 2622.28 -3.44723 -3.41019 0
M  V30 27093 N 2623.63 1.20858 -1.01149 0
M  V30 27094 C 2624.59 2.21681 -0.582263 0
M  V30 27095 C 2625.59 1.57058 0.344859 0
M  V30 27096 O 2626.78 1.73682 0.134251 0
M  V30 27097 C 2623.91 3.40568 0.150437 0
M  V30 27098 H 2625.11 2.6117 -1.47413 0
M  V30 27099 H 2622.66 1.34232 -0.800719 0
M  V30 27100 H 2623.39 3.06576 1.05745 0
M  V30 27101 H 2623.18 3.88696 -0.515512 0
M  V30 27102 H 2624.67 4.15294 0.438271 0
M  V30 27103 N 2625.11 0.787064 1.3654 0
M  V30 27104 C 2626.35 0.357668 1.9891 0
M  V30 27105 C 2626.67 -1.07368 1.6278 0
M  V30 27106 O 2625.94 -1.73969 0.900642 0
M  V30 27107 H 2624.52 0.129259 0.735732 0
M  V30 27108 H 2627.19 1.00858 1.66774 0
M  V30 27109 H 2626.28 0.447603 3.08874 0
M  V30 27110 N 2626.58 -1.48101 0.53888 0
M  V30 27111 C 2627.51 -2.32575 -0.207613 0
M  V30 27112 C 2628.49 -1.42651 -0.926534 0
M  V30 27113 O 2629.68 -1.71529 -0.91058 0
M  V30 27114 C 2626.81 -3.24044 -1.24951 0
M  V30 27115 C 2625.76 -4.23063 -0.648189 0
M  V30 27116 C 2625.09 -5.03728 -1.79339 0
M  V30 27117 C 2626.39 -5.20872 0.385988 0
M  V30 27118 H 2628.08 -2.95236 0.497586 0
M  V30 27119 H 2625.63 -1.41973 0.24074 0
M  V30 27120 H 2627.58 -3.81972 -1.77976 0
M  V30 27121 H 2626.31 -2.59401 -1.98441 0
M  V30 27122 H 2624.97 -3.66335 -0.139388 0
M  V30 27123 H 2624.61 -4.35502 -2.51688 0
M  V30 27124 H 2624.31 -5.70754 -1.39692 0
M  V30 27125 H 2625.84 -5.6451 -2.32725 0
M  V30 27126 H 2627.25 -5.73271 -0.0575062 0
M  V30 27127 H 2625.65 -5.95999 0.700332 0
M  V30 27128 H 2626.72 -4.67466 1.28856 0
M  V30 27129 N 2628.06 -0.274434 -1.55192 0
M  V30 27130 C 2629.29 0.348788 -2.04446 0
M  V30 27131 C 2629.71 1.48733 -1.15152 0
M  V30 27132 O 2629.07 1.80679 -0.149984 0
M  V30 27133 C 2629.12 0.807947 -3.51432 0
M  V30 27134 O 2628.22 1.91525 -3.65229 0
M  V30 27135 H 2627.56 0.072216 -0.660061 0
M  V30 27136 H 2630.09 -0.408533 -2.0048 0
M  V30 27137 H 2630.1 1.10388 -3.92783 0
M  V30 27138 H 2628.78 -0.0250596 -4.15892 0
M  V30 27139 H 2627.35 1.6219 -3.35781 0
M  V30 27140 N 2629.54 1.576 -0.00170483 0
M  V30 27141 C 2630.77 1.94923 0.693725 0
M  V30 27142 C 2631.18 0.876655 1.67213 0
M  V30 27143 O 2630.54 -0.144247 1.81929 0
M  V30 27144 C 2630.59 3.32267 1.42411 0
M  V30 27145 O 2630.31 4.35408 0.484937 0
M  V30 27146 C 2631.81 3.8406 2.21389 0
M  V30 27147 H 2629.03 0.642612 0.193107 0
M  V30 27148 H 2631.58 2.0443 -0.0533311 0
M  V30 27149 H 2629.73 3.24063 2.12278 0
M  V30 27150 H 2630.15 5.1487 1.00044 0
M  V30 27151 H 2631.62 4.82583 2.67988 0
M  V30 27152 H 2632.1 3.16856 3.04136 0
M  V30 27153 H 2632.7 3.95445 1.56535 0
M  V30 27154 N 2631.02 -0.271076 1.55251 0
M  V30 27155 C 2631.95 -1.33929 1.91272 0
M  V30 27156 C 2632.93 -1.51429 0.774806 0
M  V30 27157 O 2634.11 -1.6444 1.0331 0
M  V30 27158 C 2631.24 -2.69847 2.18632 0
M  V30 27159 C 2630.2 -2.67076 3.34447 0
M  V30 27160 C 2629.52 -4.06563 3.47291 0
M  V30 27161 C 2630.82 -2.26176 4.70788 0
M  V30 27162 H 2632.52 -1.0403 2.80746 0
M  V30 27163 H 2630.06 -0.498993 1.35078 0
M  V30 27164 H 2632.02 -3.4469 2.42419 0
M  V30 27165 H 2630.74 -3.01333 1.2596 0
M  V30 27166 H 2629.4 -1.9469 3.10631 0
M  V30 27167 H 2629.05 -4.35274 2.52082 0
M  V30 27168 H 2628.75 -4.05603 4.25159 0
M  V30 27169 H 2630.27 -4.83142 3.73372 0
M  V30 27170 H 2631.69 -2.90743 4.94107 0
M  V30 27171 H 2630.08 -2.36375 5.51586 0
M  V30 27172 H 2631.15 -1.2131 4.6948 0
M  V30 27173 N 2632.5 -1.48217 -0.535675 0
M  V30 27174 C 2633.91 -1.4955 -1.11767 0
M  V30 27175 C 2634.26 -0.262104 -1.94441 0
M  V30 27176 O 2633.38 0.63125 -2.06988 0
M  V30 27177 C 2633.98 -2.70978 -2.03363 0
M  V30 27178 C 2632.54 -2.75201 -2.56791 0
M  V30 27179 C 2631.68 -2.4298 -1.33627 0
M  V30 27180 H 2634.64 -1.55415 -0.321205 0
M  V30 27181 H 2634.66 -2.49172 -2.87565 0
M  V30 27182 H 2634.17 -3.6073 -1.43163 0
M  V30 27183 H 2632.27 -1.89643 -3.20728 0
M  V30 27184 H 2632.38 -3.76477 -2.96313 0
M  V30 27185 H 2630.75 -1.94015 -1.65017 0
M  V30 27186 H 2631.53 -3.34965 -0.751881 0
M  V30 27187 N 2633.97 0.784108 -1.3671 0
M  V30 27188 C 2635.22 1.53916 -1.30975 0
M  V30 27189 C 2635.54 1.94695 0.109051 0
M  V30 27190 O 2634.81 1.65355 1.05046 0
M  V30 27191 H 2633.39 0.570833 -0.481829 0
M  V30 27192 H 2636.06 0.933971 -1.71064 0
M  V30 27193 H 2635.15 2.44428 -1.94066 0
M  V30 27194 N 2635.45 1.21076 1.00888 0
M  V30 27195 C 2636.4 0.963513 2.11705 0
M  V30 27196 C 2637.39 -0.0878734 1.69172 0
M  V30 27197 O 2638.6 0.0631731 1.79889 0
M  V30 27198 H 2634.98 0.294299 0.69202 0
M  V30 27199 H 2636.95 1.90426 2.2974 0
M  V30 27200 C 2635.7 0.54057 3.43472 0
M  V30 27201 H 2635.02 1.34121 3.76632 0
M  V30 27202 H 2636.46 0.406851 4.22044 0
M  V30 27203 C 2634.92 -0.748021 3.28491 0
M  V30 27204 O 2635.45 -1.80453 3.58886 0
M  V30 27205 N 2633.65 -0.713032 2.81717 0
M  V30 27206 H 2633.2 0.147018 2.5718 0
M  V30 27207 H 2633.16 -1.57553 2.72074 0
M  V30 27208 N 2636.93 -1.2032 1.01789 0
M  V30 27209 C 2638.34 -1.71437 0.739337 0
M  V30 27210 C 2638.69 -1.81628 -0.742009 0
M  V30 27211 O 2637.82 -1.47974 -1.57901 0
M  V30 27212 C 2638.41 -3.11371 1.33543 0
M  V30 27213 C 2636.97 -3.59793 1.10572 0
M  V30 27214 C 2636.12 -2.3696 1.44032 0
M  V30 27215 H 2639.07 -1.05315 1.1872 0
M  V30 27216 H 2639.09 -3.73497 0.726676 0
M  V30 27217 H 2638.6 -3.03921 2.41357 0
M  V30 27218 H 2636.7 -3.72572 0.045306 0
M  V30 27219 H 2636.82 -4.44538 1.78668 0
M  V30 27220 H 2635.18 -2.39764 0.859373 0
M  V30 27221 H 2635.96 -2.32151 2.52905 0
M  V30 27222 N 2638.41 -0.794293 -1.3612 0
M  V30 27223 C 2639.37 -0.201929 -2.28309 0
M  V30 27224 C 2640.37 0.603577 -1.49042 0
M  V30 27225 O 2641.56 0.423858 -1.68965 0
M  V30 27226 C 2638.69 0.719919 -3.33212 0
M  V30 27227 H 2639.89 -1.01486 -2.82207 0
M  V30 27228 H 2637.44 -0.564062 -1.45767 0
M  V30 27229 H 2638.17 1.55701 -2.84478 0
M  V30 27230 H 2637.96 0.144197 -3.91835 0
M  V30 27231 H 2639.45 1.12909 -4.02046 0
M  V30 27232 N 2639.89 1.47813 -0.546727 0
M  V30 27233 C 2641.14 2.01693 -0.0166852 0
M  V30 27234 C 2641.45 1.42754 1.33718 0
M  V30 27235 O 2642.65 1.88233 1.95654 0
M  V30 27236 C 2641.11 3.59894 0.0206137 0
M  V30 27237 C 2640.72 4.27822 -1.32938 0
M  V30 27238 C 2642.46 4.21562 0.4986 0
M  V30 27239 C 2640.37 5.78001 -1.25175 0
M  V30 27240 H 2639.3 0.753996 -0.00246736 0
M  V30 27241 H 2641.95 1.6991 -0.693014 0
M  V30 27242 H 2640.33 3.88592 0.762372 0
M  V30 27243 H 2641.51 4.10778 -2.08802 0
M  V30 27244 H 2639.82 3.78098 -1.74445 0
M  V30 27245 H 2642.42 5.316 0.574906 0
M  V30 27246 H 2642.76 3.88018 1.50823 0
M  V30 27247 H 2643.29 3.97356 -0.187979 0
M  V30 27248 H 2640.03 6.16146 -2.23705 0
M  V30 27249 H 2639.55 5.97412 -0.534745 0
M  V30 27250 H 2641.23 6.39996 -0.949411 0
M  V30 27251 N 2641.36 0.28266 1.55044 0
M  V30 27252 C 2642.33 -0.588501 2.21516 0
M  V30 27253 C 2643.33 -1.07552 1.19537 0
M  V30 27254 O 2644.52 -0.974489 1.44393 0
M  V30 27255 C 2641.65 -1.81275 2.88708 0
M  V30 27256 H 2642.84 -0.00801126 2.99899 0
M  V30 27257 H 2640.4 0.0333342 1.56264 0
M  V30 27258 H 2641.13 -2.43356 2.14356 0
M  V30 27259 H 2640.92 -1.47137 3.63446 0
M  V30 27260 H 2642.41 -2.43208 3.3947 0
M  V30 27261 N 2642.84 -1.57597 0.0100627 0
M  V30 27262 C 2644.07 -1.95692 -0.686987 0
M  V30 27263 C 2644.49 -0.885548 -1.65951 0
M  V30 27264 O 2643.85 0.155398 -1.80633 0
M  V30 27265 C 2643.9 -3.32886 -1.38634 0
M  V30 27266 O 2643 -3.27901 -2.50109 0
M  V30 27267 H 2642.34 -0.638577 -0.181978 0
M  V30 27268 H 2644.87 -2.04493 0.0662482 0
M  V30 27269 H 2644.88 -3.68683 -1.74748 0
M  V30 27270 H 2643.56 -4.10413 -0.673339 0
M  V30 27271 H 2642.14 -3.03795 -2.16247 0
M  V30 27272 N 2644.32 0.262839 -1.55393 0
M  V30 27273 C 2645.25 1.32913 -1.9198 0
M  V30 27274 C 2646.23 1.51016 -0.782826 0
M  V30 27275 O 2647.42 1.6389 -1.04181 0
M  V30 27276 C 2644.55 2.68684 -2.2006 0
M  V30 27277 C 2643.5 2.65298 -3.35858 0
M  V30 27278 C 2642.83 4.04715 -3.49442 0
M  V30 27279 C 2644.13 2.23677 -4.71981 0
M  V30 27280 H 2645.82 1.02539 -2.81293 0
M  V30 27281 H 2643.37 0.491823 -1.35341 0
M  V30 27282 H 2645.32 3.43399 -2.44243 0
M  V30 27283 H 2644.04 3.00661 -1.27556 0
M  V30 27284 H 2642.7 1.9304 -3.11659 0
M  V30 27285 H 2642.35 4.33932 -2.54386 0
M  V30 27286 H 2642.05 4.03342 -4.27304 0
M  V30 27287 H 2643.57 4.81155 -3.75929 0
M  V30 27288 H 2644.99 2.88118 -4.95642 0
M  V30 27289 H 2643.39 2.33446 -5.52832 0
M  V30 27290 H 2644.46 1.18819 -4.70117 0
M  V30 27291 N 2645.8 1.48499 0.527807 0
M  V30 27292 C 2646.73 1.57756 1.64889 0
M  V30 27293 C 2647.71 0.427895 1.56869 0
M  V30 27294 O 2648.89 0.639796 1.7731 0
M  V30 27295 C 2646.02 1.50758 3.03298 0
M  V30 27296 C 2645.07 2.70592 3.2967 0
M  V30 27297 S 2645.9 4.3254 3.15704 0
M  V30 27298 C 2647.06 4.28144 4.56556 0
M  V30 27299 H 2647.29 2.52597 1.56787 0
M  V30 27300 H 2644.82 1.37059 0.710935 0
M  V30 27301 H 2646.78 1.47407 3.83121 0
M  V30 27302 H 2645.44 0.572508 3.08838 0
M  V30 27303 H 2644.63 2.6184 4.30646 0
M  V30 27304 H 2644.24 2.71217 2.57522 0
M  V30 27305 H 2646.53 3.98211 5.48119 0
M  V30 27306 H 2647.47 5.29306 4.70362 0
M  V30 27307 H 2647.88 3.58582 4.35981 0
M  V30 27308 N 2647.28 -0.776847 1.37123 0
M  V30 27309 C 2648.24 -1.87158 1.32304 0
M  V30 27310 C 2649.24 -1.59174 0.228127 0
M  V30 27311 O 2650.43 -1.67351 0.483672 0
M  V30 27312 C 2647.56 -3.24195 1.05406 0
M  V30 27313 H 2648.76 -1.92844 2.29676 0
M  V30 27314 H 2646.31 -0.976038 1.22079 0
M  V30 27315 H 2647.04 -3.24187 0.0854442 0
M  V30 27316 H 2646.83 -3.45898 1.84654 0
M  V30 27317 H 2648.32 -4.04269 1.04671 0
M  V30 27318 N 2648.76 -1.2161 -1.00244 0
M  V30 27319 C 2650 -1.03488 -1.74059 0
M  V30 27320 C 2650.33 0.431274 -1.89658 0
M  V30 27321 O 2649.59 1.33625 -1.42979 0
M  V30 27322 C 2649.88 -1.68015 -3.15446 0
M  V30 27323 C 2649.55 -3.17879 -3.19787 0
M  V30 27324 C 2648.21 -3.58774 -3.20679 0
M  V30 27325 C 2650.56 -4.13847 -3.16828 0
M  V30 27326 C 2647.89 -4.94136 -3.16301 0
M  V30 27327 C 2650.24 -5.49174 -3.13991 0
M  V30 27328 C 2648.91 -5.89462 -3.13194 0
M  V30 27329 H 2648.18 -0.378689 -0.636927 0
M  V30 27330 H 2650.83 -1.51238 -1.17471 0
M  V30 27331 H 2649.13 -1.12564 -3.75282 0
M  V30 27332 H 2650.83 -1.51493 -3.71283 0
M  V30 27333 H 2647.42 -2.85311 -3.19837 0
M  V30 27334 H 2651.6 -3.83278 -3.15297 0
M  V30 27335 H 2646.86 -5.24595 -3.14023 0
M  V30 27336 H 2651.03 -6.2327 -3.10656 0
M  V30 27337 H 2648.66 -6.94319 -3.09556 0
M  V30 27338 N 2650.23 1.19778 -1.02425 0
M  V30 27339 C 2651.46 1.9331 -0.73749 0
M  V30 27340 C 2651.88 1.75224 0.702992 0
M  V30 27341 O 2651.23 1.07114 1.47759 0
M  V30 27342 C 2651.28 3.45197 -1.07336 0
M  V30 27343 O 2651.01 3.62698 -2.45727 0
M  V30 27344 C 2652.51 4.3586 -0.808737 0
M  V30 27345 H 2649.73 0.614188 -0.270211 0
M  V30 27346 H 2652.27 1.52052 -1.3675 0
M  V30 27347 H 2650.43 3.84306 -0.488613 0
M  V30 27348 H 2650.84 4.56607 -2.58089 0
M  V30 27349 H 2652.31 5.41056 -1.09375 0
M  V30 27350 H 2652.79 4.38448 0.256948 0
M  V30 27351 H 2653.4 4.02426 -1.37599 0
M  V30 27352 N 2651.71 0.801501 1.35697 0
M  V30 27353 C 2652.67 0.214034 2.28198 0
M  V30 27354 C 2653.67 -0.595665 1.4936 0
M  V30 27355 O 2654.86 -0.414891 1.69187 0
M  V30 27356 C 2652 -0.702238 3.33589 0
M  V30 27357 H 2653.19 1.02981 2.81664 0
M  V30 27358 H 2650.74 0.571785 1.45466 0
M  V30 27359 H 2651.48 -1.5419 2.853 0
M  V30 27360 H 2651.26 -0.123415 3.91906 0
M  V30 27361 H 2652.75 -1.10775 4.02639 0
M  V30 27362 N 2653.19 -1.47521 0.554558 0
M  V30 27363 C 2654.41 -2.07375 0.0323025 0
M  V30 27364 C 2654.84 -1.4049 -1.25077 0
M  V30 27365 O 2654.2 -0.47899 -1.74858 0
M  V30 27366 C 2654.25 -3.60291 -0.149334 0
M  V30 27367 O 2653.35 -3.94172 -1.21252 0
M  V30 27368 H 2652.69 -0.662105 0.0501345 0
M  V30 27369 H 2655.22 -1.89579 0.769485 0
M  V30 27370 H 2655.23 -4.0637 -0.364365 0
M  V30 27371 H 2653.91 -4.0837 0.787815 0
M  V30 27372 H 2652.48 -3.59842 -0.978187 0
M  V30 27373 N 2654.67 -0.290879 -1.54892 0
M  V30 27374 C 2655.92 0.322078 -1.99112 0
M  V30 27375 C 2656.23 1.55782 -1.18285 0
M  V30 27376 O 2657.44 2.24472 -1.52724 0
M  V30 27377 C 2655.89 0.624375 -3.54443 0
M  V30 27378 C 2655.5 -0.592451 -4.44065 0
M  V30 27379 C 2657.24 1.19909 -4.07213 0
M  V30 27380 C 2655.15 -0.263866 -5.90811 0
M  V30 27381 H 2654.08 0.12412 -0.743714 0
M  V30 27382 H 2656.73 -0.398001 -1.79132 0
M  V30 27383 H 2655.11 1.40378 -3.70284 0
M  V30 27384 H 2656.29 -1.36894 -4.39996 0
M  V30 27385 H 2654.6 -1.08509 -4.02013 0
M  V30 27386 H 2657.2 1.459 -5.1441 0
M  V30 27387 H 2657.54 2.13809 -3.57199 0
M  V30 27388 H 2658.08 0.481618 -3.94874 0
M  V30 27389 H 2654.81 -1.17117 -6.44953 0
M  V30 27390 H 2654.33 0.47555 -5.97912 0
M  V30 27391 H 2656.01 0.138241 -6.46852 0
M  V30 27392 N 2656.15 1.57589 -0.0184203 0
M  V30 27393 C 2657.37 1.95648 0.673012 0
M  V30 27394 C 2657.79 0.894341 1.66274 0
M  V30 27395 O 2657.15 -0.124943 1.82072 0
M  V30 27396 C 2657.2 3.33759 1.38878 0
M  V30 27397 O 2656.92 4.35898 0.438729 0
M  V30 27398 C 2658.42 3.86386 2.17303 0
M  V30 27399 H 2655.64 0.644624 0.18628 0
M  V30 27400 H 2658.18 2.04362 -0.0750107 0
M  V30 27401 H 2656.34 3.26296 2.08829 0
M  V30 27402 H 2656.75 5.15902 0.945778 0
M  V30 27403 H 2658.23 4.85398 2.62854 0
M  V30 27404 H 2658.7 3.20064 3.00759 0
M  V30 27405 H 2659.31 3.97083 1.52332 0
M  V30 27406 N 2657.62 -0.254594 1.5553 0
M  V30 27407 C 2658.85 -1.00569 1.81385 0
M  V30 27408 C 2659.27 -1.7846 0.59445 0
M  V30 27409 O 2658.63 -1.75462 -0.456372 0
M  V30 27410 C 2658.68 -1.92539 3.04895 0
M  V30 27411 O 2657.78 -3.01596 2.81271 0
M  V30 27412 H 2657.12 -0.286576 0.598974 0
M  V30 27413 H 2659.65 -0.277917 2.02704 0
M  V30 27414 H 2659.66 -2.3415 3.34123 0
M  V30 27415 H 2658.34 -1.35263 3.9329 0
M  V30 27416 H 2656.92 -2.64169 2.6319 0
M  V30 27417 N 2659.1 -1.48777 -0.519925 0
M  V30 27418 C 2660.51 -1.50727 -1.10174 0
M  V30 27419 C 2660.86 -0.282712 -1.94152 0
M  V30 27420 O 2659.99 0.609261 -2.07646 0
M  V30 27421 C 2660.58 -2.7312 -2.00477 0
M  V30 27422 C 2659.14 -2.77909 -2.53857 0
M  V30 27423 C 2658.29 -2.44383 -1.31042 0
M  V30 27424 H 2661.24 -1.55747 -0.304703 0
M  V30 27425 H 2661.26 -2.52208 -2.84906 0
M  V30 27426 H 2660.77 -3.62228 -1.39329 0
M  V30 27427 H 2658.87 -1.93034 -3.18698 0
M  V30 27428 H 2658.99 -3.79599 -2.92304 0
M  V30 27429 H 2657.35 -1.95754 -1.62949 0
M  V30 27430 H 2658.13 -3.35744 -0.716311 0
M  V30 27431 N 2660.58 0.769564 -1.37534 0
M  V30 27432 C 2661.51 1.8968 -1.36176 0
M  V30 27433 C 2662.49 1.68537 -0.23004 0
M  V30 27434 O 2663.68 1.89363 -0.430723 0
M  V30 27435 C 2660.81 3.26993 -1.17016 0
M  V30 27436 C 2659.76 3.62704 -2.27222 0
M  V30 27437 C 2659.09 4.98582 -1.93183 0
M  V30 27438 C 2660.39 3.69228 -3.69416 0
M  V30 27439 H 2662.08 1.91074 -2.30502 0
M  V30 27440 H 2659.63 0.917882 -1.10955 0
M  V30 27441 H 2661.58 4.05491 -1.14695 0
M  V30 27442 H 2660.3 3.26038 -0.191453 0
M  V30 27443 H 2658.96 2.86515 -2.28702 0
M  V30 27444 H 2658.61 4.9417 -0.938368 0
M  V30 27445 H 2658.31 5.23445 -2.66982 0
M  V30 27446 H 2659.83 5.79477 -1.92453 0
M  V30 27447 H 2661.25 4.37873 -3.70055 0
M  V30 27448 H 2659.64 4.05589 -4.42287 0
M  V30 27449 H 2660.71 2.69837 -4.02885 0
M  V30 27450 N 2662.06 1.22139 0.995977 0
M  V30 27451 C 2663.29 1.07032 1.77064 0
M  V30 27452 C 2663.7 -0.379324 1.8495 0
M  V30 27453 O 2663.06 -1.26295 1.31742 0
M  V30 27454 C 2663.11 1.67161 3.2053 0
M  V30 27455 O 2662.83 3.06455 3.13077 0
M  V30 27456 C 2664.33 1.57287 4.14458 0
M  V30 27457 H 2661.55 0.375384 0.556172 0
M  V30 27458 H 2664.1 1.61668 1.25235 0
M  V30 27459 H 2662.25 1.16596 3.69438 0
M  V30 27460 H 2662.66 3.35362 4.03277 0
M  V30 27461 H 2664.14 2.04087 5.12887 0
M  V30 27462 H 2664.62 0.528871 4.36004 0
M  V30 27463 H 2665.22 2.07143 3.71446 0
M  V30 27464 N 2663.54 -1.19233 1.03059 0
M  V30 27465 C 2664.76 -1.92916 0.747731 0
M  V30 27466 C 2665.18 -1.75594 -0.693689 0
M  V30 27467 O 2664.54 -1.07896 -1.47189 0
M  V30 27468 C 2664.59 -3.44623 1.09165 0
M  V30 27469 O 2664.31 -3.6139 2.47647 0
M  V30 27470 C 2665.81 -4.35425 0.83184 0
M  V30 27471 H 2663.03 -0.612747 0.273464 0
M  V30 27472 H 2665.57 -1.51324 1.37554 0
M  V30 27473 H 2663.73 -3.84042 0.508987 0
M  V30 27474 H 2664.14 -4.55232 2.60507 0
M  V30 27475 H 2665.62 -5.40468 1.12243 0
M  V30 27476 H 2666.09 -4.38578 -0.233692 0
M  V30 27477 H 2666.7 -4.0169 1.39732 0
M  V30 27478 N 2665.01 -0.808686 -1.3527 0
M  V30 27479 C 2665.95 -0.178189 -2.28506 0
M  V30 27480 C 2666.96 0.623728 -1.50378 0
M  V30 27481 O 2668.15 0.455744 -1.72584 0
M  V30 27482 C 2665.25 0.769901 -3.30039 0
M  V30 27483 C 2664.42 0.0138981 -4.37398 0
M  V30 27484 C 2663.48 0.880784 -5.18776 0
M  V30 27485 O 2662.51 0.330959 -5.68237 0
M  V30 27486 N 2663.71 2.20258 -5.37091 0
M  V30 27487 H 2666.47 -0.979156 -2.83254 0
M  V30 27488 H 2664.03 -0.664334 -1.47642 0
M  V30 27489 H 2666.03 1.35411 -3.81374 0
M  V30 27490 H 2664.6 1.47167 -2.75791 0
M  V30 27491 H 2663.82 -0.751536 -3.8697 0
M  V30 27492 H 2665.1 -0.507054 -5.06267 0
M  V30 27493 H 2664.5 2.67319 -4.98555 0
M  V30 27494 H 2663.06 2.73598 -5.91598 0
M  V30 27495 N 2666.49 1.47225 -0.562374 0
M  V30 27496 C 2667.44 2.31778 0.195435 0
M  V30 27497 C 2668.43 1.43243 0.904305 0
M  V30 27498 O 2669.64 1.5998 0.825003 0
M  V30 27499 H 2666.02 0.747527 0.0818963 0
M  V30 27500 H 2667.99 2.93532 -0.536804 0
M  V30 27501 C 2666.74 3.26005 1.20897 0
M  V30 27502 H 2666.06 3.94096 0.672928 0
M  V30 27503 H 2667.5 3.87989 1.71 0
M  V30 27504 C 2665.96 2.49895 2.25951 0
M  V30 27505 O 2666.49 2.24715 3.32965 0
M  V30 27506 N 2664.69 2.10813 2.00015 0
M  V30 27507 H 2664.24 2.31491 1.13002 0
M  V30 27508 H 2664.2 1.60206 2.70521 0
M  V30 27509 N 2667.97 0.299089 1.54736 0
M  V30 27510 C 2669.2 -0.313411 2.04512 0
M  V30 27511 C 2669.61 -1.47665 1.17646 0
M  V30 27512 O 2668.97 -1.81382 0.201672 0
M  V30 27513 C 2669.02 -0.77148 3.53172 0
M  V30 27514 O 2668.74 0.345456 4.36736 0
M  V30 27515 C 2670.24 -1.44933 4.18938 0
M  V30 27516 H 2667.46 -0.0683666 0.667508 0
M  V30 27517 H 2670.01 0.438164 1.99751 0
M  V30 27518 H 2668.16 -1.47308 3.583 0
M  V30 27519 H 2668.58 -0.0108297 5.24499 0
M  V30 27520 H 2670.05 -1.72102 5.24485 0
M  V30 27521 H 2670.53 -2.38876 3.68558 0
M  V30 27522 H 2671.13 -0.790955 4.1788 0
M  V30 27523 N 2669.45 -1.57577 0.0267774 0
M  V30 27524 C 2670.38 -2.1311 -0.95427 0
M  V30 27525 C 2671.36 -1.04665 -1.34086 0
M  V30 27526 O 2672.54 -1.32486 -1.4199 0
M  V30 27527 C 2669.67 -2.65628 -2.23739 0
M  V30 27528 C 2668.63 -3.78839 -1.99162 0
M  V30 27529 C 2667.95 -4.17775 -3.33719 0
M  V30 27530 C 2669.25 -5.05012 -1.33268 0
M  V30 27531 H 2670.95 -2.95333 -0.491796 0
M  V30 27532 H 2668.49 -1.42068 -0.235115 0
M  V30 27533 H 2670.45 -3.03111 -2.92748 0
M  V30 27534 H 2669.17 -1.80563 -2.72148 0
M  V30 27535 H 2667.83 -3.4179 -1.32571 0
M  V30 27536 H 2667.48 -3.29695 -3.79882 0
M  V30 27537 H 2667.18 -4.94063 -3.18081 0
M  V30 27538 H 2668.7 -4.57839 -4.03999 0
M  V30 27539 H 2670.12 -5.40096 -1.92273 0
M  V30 27540 H 2668.51 -5.86282 -1.28035 0
M  V30 27541 H 2669.58 -4.83938 -0.305326 0
M  V30 27542 N 2670.93 0.246342 -1.55663 0
M  V30 27543 C 2671.86 1.3087 -1.93379 0
M  V30 27544 C 2672.84 1.50177 -0.798799 0
M  V30 27545 O 2674.02 1.62776 -1.05913 0
M  V30 27546 C 2671.15 2.66334 -2.22897 0
M  V30 27547 C 2670.11 2.61721 -3.38653 0
M  V30 27548 C 2669.43 4.00986 -3.53715 0
M  V30 27549 C 2670.73 2.18658 -4.74327 0
M  V30 27550 H 2672.43 0.995502 -2.82365 0
M  V30 27551 H 2669.97 0.47744 -1.35855 0
M  V30 27552 H 2671.93 3.4079 -2.47872 0
M  V30 27553 H 2670.65 2.99291 -1.30738 0
M  V30 27554 H 2669.31 1.89723 -3.13689 0
M  V30 27555 H 2668.96 4.31209 -2.58975 0
M  V30 27556 H 2668.66 3.98787 -4.31558 0
M  V30 27557 H 2670.18 4.7714 -3.81011 0
M  V30 27558 H 2671.59 2.82845 -4.9867 0
M  V30 27559 H 2669.99 2.27569 -5.55277 0
M  V30 27560 H 2671.06 1.13826 -4.71351 0
M  V30 27561 N 2672.4 1.4905 0.512027 0
M  V30 27562 C 2673.65 1.5798 1.26683 0
M  V30 27563 C 2673.98 0.261586 1.92733 0
M  V30 27564 O 2673.23 -0.749635 1.80773 0
M  V30 27565 C 2673.53 2.68012 2.36441 0
M  V30 27566 C 2673.2 4.09872 1.87924 0
M  V30 27567 C 2671.86 4.4848 1.74411 0
M  V30 27568 C 2674.21 4.98701 1.51482 0
M  V30 27569 C 2671.54 5.73701 1.22817 0
M  V30 27570 C 2673.89 6.24429 1.01344 0
M  V30 27571 C 2672.56 6.61877 0.864618 0
M  V30 27572 H 2671.83 0.578089 0.463567 0
M  V30 27573 H 2674.47 1.82839 0.569388 0
M  V30 27574 H 2672.78 2.37081 3.11929 0
M  V30 27575 H 2674.48 2.72132 2.94525 0
M  V30 27576 H 2671.07 3.79392 1.99398 0
M  V30 27577 H 2675.25 4.69538 1.60774 0
M  V30 27578 H 2670.51 6.01424 1.09997 0
M  V30 27579 H 2674.68 6.92645 0.722229 0
M  V30 27580 H 2672.31 7.58791 0.462644 0
M  V30 27581 N 2673.88 -0.762259 1.3794 0
M  V30 27582 C 2674.83 -1.89719 1.34572 0
M  V30 27583 C 2675.82 -1.67791 0.232958 0
M  V30 27584 O 2677.03 -1.75465 0.401516 0
M  V30 27585 H 2673.41 -0.624047 0.419605 0
M  V30 27586 H 2675.38 -1.89675 2.3036 0
M  V30 27587 C 2674.13 -3.27099 1.17904 0
M  V30 27588 H 2673.45 -3.44554 2.02787 0
M  V30 27589 H 2674.89 -4.06782 1.196 0
M  V30 27590 C 2673.35 -3.36705 -0.114669 0
M  V30 27591 O 2673.88 -3.86492 -1.09484 0
M  V30 27592 N 2672.08 -2.90111 -0.168579 0
M  V30 27593 H 2671.63 -2.49785 0.629714 0
M  V30 27594 H 2671.59 -2.96918 -1.03378 0
M  V30 27595 N 2675.36 -1.22666 -0.989486 0
M  V30 27596 C 2676.61 -1.0474 -1.72373 0
M  V30 27597 C 2676.92 0.417282 -1.91097 0
M  V30 27598 O 2678.13 0.716288 -2.61881 0
M  V30 27599 C 2676.58 -1.82566 -3.10157 0
M  V30 27600 C 2676.19 -3.33305 -2.99352 0
M  V30 27601 C 2677.94 -1.73099 -3.87604 0
M  V30 27602 C 2675.84 -4.03559 -4.32312 0
M  V30 27603 H 2674.77 -0.388314 -0.646319 0
M  V30 27604 H 2677.42 -1.46548 -1.10435 0
M  V30 27605 H 2675.81 -1.33558 -3.72798 0
M  V30 27606 H 2676.98 -3.89732 -2.45856 0
M  V30 27607 H 2675.3 -3.43486 -2.35386 0
M  V30 27608 H 2677.89 -2.22907 -4.86021 0
M  V30 27609 H 2678.24 -0.692048 -4.10507 0
M  V30 27610 H 2678.77 -2.19669 -3.31648 0
M  V30 27611 H 2675.51 -5.07722 -4.14607 0
M  V30 27612 H 2675.03 -3.5192 -4.85708 0
M  V30 27613 H 2676.71 -4.09346 -5.01044 0
M  V30 27614 N 2676.84 1.18685 -1.0369 0
M  V30 27615 C 2677.77 2.24402 -0.645446 0
M  V30 27616 C 2678.75 1.66471 0.349482 0
M  V30 27617 O 2679.94 1.92828 0.230419 0
M  V30 27618 C 2677.07 3.473 -0.00371441 0
M  V30 27619 C 2676.02 4.17956 -0.921779 0
M  V30 27620 C 2675.35 5.34504 -0.144723 0
M  V30 27621 C 2676.65 4.71867 -2.23918 0
M  V30 27622 H 2678.34 2.57401 -1.52922 0
M  V30 27623 H 2675.89 1.23726 -0.736733 0
M  V30 27624 H 2677.84 4.20456 0.281835 0
M  V30 27625 H 2676.56 3.13524 0.914908 0
M  V30 27626 H 2675.22 3.46692 -1.19165 0
M  V30 27627 H 2674.87 4.96975 0.776186 0
M  V30 27628 H 2674.57 5.82712 -0.756308 0
M  V30 27629 H 2676.09 6.10453 0.133897 0
M  V30 27630 H 2677.51 5.36737 -2.01459 0
M  V30 27631 H 2675.9 5.30594 -2.80339 0
M  V30 27632 H 2676.97 3.89495 -2.88829 0
M  V30 27633 N 2678.32 0.815849 1.34839 0
M  V30 27634 C 2679.57 0.399779 1.98106 0
M  V30 27635 C 2679.89 -1.03891 1.6502 0
M  V30 27636 O 2679.16 -1.7202 0.937341 0
M  V30 27637 H 2677.74 0.144836 0.732824 0
M  V30 27638 H 2680.4 1.04373 1.64597 0
M  V30 27639 H 2679.49 0.513019 3.07855 0
M  V30 27640 N 2679.8 -1.46924 0.570174 0
M  V30 27641 C 2681.04 -2.02036 0.0508878 0
M  V30 27642 C 2681.36 -1.4455 -1.30883 0
M  V30 27643 O 2680.63 -0.625486 -1.85646 0
M  V30 27644 H 2679.21 -0.746832 0.0158219 0
M  V30 27645 H 2681.88 -1.80177 0.743118 0
M  V30 27646 H 2680.97 -3.12088 -0.0275201 0
M  V30 27647 N 2681.27 -0.307291 -1.54575 0
M  V30 27648 C 2682.52 0.293418 -2.01273 0
M  V30 27649 C 2682.87 1.51042 -1.19181 0
M  V30 27650 O 2682.17 1.89804 -0.261738 0
M  V30 27651 C 2682.36 0.695191 -3.50574 0
M  V30 27652 C 2682.19 -0.481328 -4.47117 0
M  V30 27653 C 2680.96 -0.975327 -4.95798 0
M  V30 27654 C 2683.16 -1.32832 -4.9685 0
M  V30 27655 N 2681.14 -2.11795 -5.76208 0
M  V30 27656 C 2682.51 -2.31834 -5.75024 0
M  V30 27657 C 2684.57 -1.35797 -4.79024 0
M  V30 27658 C 2683.27 -3.33585 -6.3727 0
M  V30 27659 C 2685.3 -2.36409 -5.42093 0
M  V30 27660 C 2684.66 -3.3414 -6.20105 0
M  V30 27661 H 2680.76 0.0716568 -0.77871 0
M  V30 27662 H 2683.34 -0.438635 -1.89695 0
M  V30 27663 H 2681.51 1.3964 -3.62429 0
M  V30 27664 H 2683.24 1.27598 -3.84059 0
M  V30 27665 H 2680 -0.549267 -4.70404 0
M  V30 27666 H 2680.42 -2.69386 -6.21096 0
M  V30 27667 H 2685.06 -0.616095 -4.18287 0
M  V30 27668 H 2682.78 -4.08688 -6.97137 0
M  V30 27669 H 2686.37 -2.39485 -5.30225 0
M  V30 27670 H 2685.25 -4.10719 -6.68042 0
M  V30 27671 N 2682.75 1.57561 -0.0351337 0
M  V30 27672 C 2684 1.92332 0.643146 0
M  V30 27673 C 2684.33 0.912398 1.71432 0
M  V30 27674 O 2683.61 -0.0639962 1.94395 0
M  V30 27675 C 2683.89 3.37558 1.25405 0
M  V30 27676 C 2683.74 4.4939 0.19203 0
M  V30 27677 C 2685.06 3.82863 2.17035 0
M  V30 27678 H 2682.18 0.699423 0.232329 0
M  V30 27679 H 2684.82 1.89769 -0.0936222 0
M  V30 27680 H 2682.97 3.39873 1.88199 0
M  V30 27681 H 2684.64 4.59207 -0.43893 0
M  V30 27682 H 2682.89 4.31116 -0.481801 0
M  V30 27683 H 2683.56 5.4805 0.659196 0
M  V30 27684 H 2686.03 3.82323 1.64221 0
M  V30 27685 H 2684.91 4.85161 2.56729 0
M  V30 27686 H 2685.17 3.18707 3.06395 0
M  V30 27687 N 2684.23 -0.238084 1.55791 0
M  V30 27688 C 2685.19 -1.27832 1.90241 0
M  V30 27689 C 2686.19 -1.40639 0.779577 0
M  V30 27690 O 2687.38 -1.39188 1.04749 0
M  V30 27691 C 2684.51 -2.65471 2.13864 0
M  V30 27692 H 2685.71 -0.984984 2.83263 0
M  V30 27693 H 2683.26 -0.477772 1.48819 0
M  V30 27694 H 2684 -2.9993 1.23339 0
M  V30 27695 H 2683.78 -2.57555 2.95648 0
M  V30 27696 H 2685.27 -3.40566 2.4167 0
M  V30 27697 N 2685.71 -1.4932 -0.504115 0
M  V30 27698 C 2686.67 -1.65247 -1.58827 0
M  V30 27699 C 2687.67 -0.524412 -1.52008 0
M  V30 27700 O 2688.86 -0.790797 -1.55216 0
M  V30 27701 C 2685.99 -1.64692 -2.98478 0
M  V30 27702 H 2687.19 -2.61942 -1.46036 0
M  V30 27703 H 2684.74 -1.38304 -0.72812 0
M  V30 27704 H 2685.47 -0.695699 -3.1675 0
M  V30 27705 H 2685.26 -2.46612 -3.04836 0
M  V30 27706 H 2686.75 -1.79082 -3.77252 0
M  V30 27707 N 2687.19 0.754933 -1.38342 0
M  V30 27708 C 2688.12 1.87829 -1.3135 0
M  V30 27709 C 2689.13 1.61224 -0.225983 0
M  V30 27710 O 2690.32 1.71829 -0.48344 0
M  V30 27711 C 2687.42 3.23435 -1.01207 0
M  V30 27712 C 2686.59 3.77555 -2.20841 0
M  V30 27713 C 2685.65 4.91675 -1.87463 0
M  V30 27714 O 2684.68 5.06378 -2.59942 0
M  V30 27715 N 2685.88 5.74553 -0.828783 0
M  V30 27716 H 2688.64 1.94338 -2.28151 0
M  V30 27717 H 2686.21 0.934805 -1.32186 0
M  V30 27718 H 2688.2 3.9732 -0.769319 0
M  V30 27719 H 2686.77 3.12321 -0.132066 0
M  V30 27720 H 2685.99 2.95252 -2.6119 0
M  V30 27721 H 2687.28 4.10446 -3.00685 0
M  V30 27722 H 2686.67 5.65242 -0.22769 0
M  V30 27723 H 2685.23 6.48592 -0.645916 0
M  V30 27724 N 2688.66 1.23189 0.982967 0
M  V30 27725 C 2689.59 1.03519 2.09299 0
M  V30 27726 C 2690.57 -0.0470837 1.70035 0
M  V30 27727 O 2691.76 0.117064 1.93847 0
M  V30 27728 C 2688.89 0.622851 3.41669 0
M  V30 27729 C 2687.84 1.65218 3.94825 0
M  V30 27730 C 2687.17 1.09536 5.2336 0
M  V30 27731 C 2688.47 3.04459 4.24385 0
M  V30 27732 H 2690.16 1.96363 2.26013 0
M  V30 27733 H 2687.71 0.94552 1.08609 0
M  V30 27734 H 2689.66 0.472307 4.18745 0
M  V30 27735 H 2688.39 -0.341272 3.24812 0
M  V30 27736 H 2687.05 1.79067 3.19891 0
M  V30 27737 H 2686.69 0.1223 5.02851 0
M  V30 27738 H 2686.39 1.7831 5.59892 0
M  V30 27739 H 2687.92 0.956617 6.0306 0
M  V30 27740 H 2689.33 2.93926 4.9222 0
M  V30 27741 H 2687.73 3.70447 4.72112 0
M  V30 27742 H 2688.8 3.53644 3.31759 0
M  V30 27743 N 2690.14 -1.18133 1.04318 0
M  V30 27744 C 2691.1 -2.20059 0.640833 0
M  V30 27745 C 2692.1 -1.57918 -0.303096 0
M  V30 27746 O 2693.29 -1.73977 -0.0881549 0
M  V30 27747 C 2690.43 -3.40847 -0.0600881 0
M  V30 27748 H 2691.62 -2.57169 1.54285 0
M  V30 27749 H 2689.17 -1.32062 0.836027 0
M  V30 27750 H 2689.91 -3.09271 -0.975791 0
M  V30 27751 H 2689.69 -3.87193 0.618387 0
M  V30 27752 H 2691.18 -4.1631 -0.328009 0
M  V30 27753 N 2691.62 -0.822988 -1.34405 0
M  V30 27754 C 2693.03 -0.469911 -1.8069 0
M  V30 27755 C 2693.38 1.0097 -1.68225 0
M  V30 27756 O 2692.51 1.78575 -1.22229 0
M  V30 27757 C 2693.1 -0.846176 -3.28063 0
M  V30 27758 C 2691.66 -0.545468 -3.72427 0
M  V30 27759 C 2690.81 -1.06305 -2.56114 0
M  V30 27760 H 2693.76 -1.01315 -1.22151 0
M  V30 27761 H 2693.78 -0.149989 -3.80204 0
M  V30 27762 H 2693.29 -1.9231 -3.37103 0
M  V30 27763 H 2691.39 0.522044 -3.68925 0
M  V30 27764 H 2691.51 -1.08958 -4.66546 0
M  V30 27765 H 2689.87 -0.484598 -2.50047 0
M  V30 27766 H 2690.65 -2.14642 -2.67925 0
M  V30 27767 N 2693.1 1.4662 -0.577957 0
M  V30 27768 C 2694.51 1.86096 -0.150104 0
M  V30 27769 C 2694.86 1.48212 1.2856 0
M  V30 27770 O 2693.99 0.894788 1.97034 0
M  V30 27771 C 2694.58 3.37757 -0.265636 0
M  V30 27772 C 2693.14 3.76247 0.107314 0
M  V30 27773 C 2692.29 2.70647 -0.603758 0
M  V30 27774 H 2695.24 1.37842 -0.786462 0
M  V30 27775 H 2695.26 3.77063 0.510286 0
M  V30 27776 H 2694.77 3.65299 -1.31066 0
M  V30 27777 H 2692.87 3.54323 1.15266 0
M  V30 27778 H 2692.98 4.78363 -0.265694 0
M  V30 27779 H 2691.35 2.54661 -0.0445331 0
M  V30 27780 H 2692.13 3.01029 -1.65034 0
M  V30 27781 N 2694.58 0.315484 1.5441 0
M  V30 27782 C 2695.8 -0.29446 2.05299 0
M  V30 27783 C 2696.23 -1.45628 1.19055 0
M  V30 27784 O 2695.58 -1.80217 0.197835 0
M  V30 27785 C 2695.63 -0.714487 3.53451 0
M  V30 27786 O 2694.74 -1.81774 3.70178 0
M  V30 27787 H 2694.08 -0.0546902 0.661744 0
M  V30 27788 H 2696.61 0.461543 1.99326 0
M  V30 27789 H 2696.62 -0.999357 3.95572 0
M  V30 27790 H 2695.29 0.135317 4.1568 0
M  V30 27791 H 2693.87 -1.5323 3.39963 0
M  V30 27792 N 2696.05 -1.5754 0.0434891 0
M  V30 27793 C 2697.02 -2.09984 -0.918659 0
M  V30 27794 C 2698.02 -1.01783 -1.24486 0
M  V30 27795 O 2699.21 -1.27887 -1.18282 0
M  V30 27796 C 2696.34 -2.57768 -2.23088 0
M  V30 27797 H 2697.53 -2.96286 -0.464177 0
M  V30 27798 H 2695.09 -1.54953 -0.204791 0
M  V30 27799 H 2695.82 -1.74837 -2.73134 0
M  V30 27800 H 2695.61 -3.3683 -2.00718 0
M  V30 27801 H 2697.1 -2.98517 -2.92023 0
M  V30 27802 N 2697.53 0.229818 -1.55915 0
M  V30 27803 C 2698.5 1.26821 -1.90916 0
M  V30 27804 C 2699.5 1.40223 -0.787024 0
M  V30 27805 O 2700.69 1.3863 -1.05486 0
M  V30 27806 C 2697.82 2.64333 -2.15269 0
M  V30 27807 H 2699.01 0.969948 -2.83782 0
M  V30 27808 H 2696.56 0.469873 -1.4907 0
M  V30 27809 H 2697.3 2.99272 -1.24928 0
M  V30 27810 H 2697.08 2.55984 -2.9701 0
M  V30 27811 H 2698.57 3.3928 -2.43473 0
M  V30 27812 N 2699.01 1.49585 0.49619 0
M  V30 27813 C 2700.24 1.63297 1.27862 0
M  V30 27814 C 2700.66 0.306188 1.85591 0
M  V30 27815 O 2700.02 -0.726822 1.66093 0
M  V30 27816 C 2700.07 2.70794 2.38123 0
M  V30 27817 O 2699.17 2.30302 3.42104 0
M  V30 27818 H 2698.51 0.54641 0.37727 0
M  V30 27819 H 2701.04 1.95804 0.593462 0
M  V30 27820 H 2701.05 2.93109 2.83815 0
M  V30 27821 H 2699.73 3.67101 1.95472 0
M  V30 27822 H 2698.3 2.18336 3.02297 0
M  V30 27823 N 2700.49 -0.747586 1.3874 0
M  V30 27824 C 2701.45 -1.8431 1.36245 0
M  V30 27825 C 2702.45 -1.58654 0.261839 0
M  V30 27826 O 2703.64 -1.66287 0.51906 0
M  V30 27827 C 2700.77 -3.21886 1.12259 0
M  V30 27828 H 2701.97 -1.87929 2.33715 0
M  V30 27829 H 2699.52 -0.949924 1.24121 0
M  V30 27830 H 2700.25 -3.23933 0.15419 0
M  V30 27831 H 2700.04 -3.41903 1.91949 0
M  V30 27832 H 2701.53 -4.01958 1.13223 0
M  V30 27833 N 2701.97 -1.23709 -0.97642 0
M  V30 27834 C 2703.21 -1.07157 -1.71825 0
M  V30 27835 C 2703.54 0.390948 -1.9053 0
M  V30 27836 O 2702.8 1.30562 -1.45781 0
M  V30 27837 C 2703.1 -1.74668 -3.11811 0
M  V30 27838 C 2702.76 -3.24591 -3.12972 0
M  V30 27839 C 2701.42 -3.65495 -3.12996 0
M  V30 27840 C 2703.78 -4.20475 -3.07978 0
M  V30 27841 C 2701.1 -5.00734 -3.05748 0
M  V30 27842 C 2703.46 -5.55711 -3.02272 0
M  V30 27843 C 2702.12 -5.95973 -3.0062 0
M  V30 27844 H 2701.39 -0.392113 -0.628751 0
M  V30 27845 H 2704.04 -1.53695 -1.14236 0
M  V30 27846 H 2702.34 -1.20499 -3.7281 0
M  V30 27847 H 2704.04 -1.59335 -3.67986 0
M  V30 27848 H 2700.63 -2.92031 -3.13713 0
M  V30 27849 H 2704.81 -3.89879 -3.07096 0
M  V30 27850 H 2700.07 -5.31138 -3.02825 0
M  V30 27851 H 2704.24 -6.2972 -2.97365 0
M  V30 27852 H 2701.87 -7.00729 -2.94759 0
M  V30 27853 N 2703.44 1.17579 -1.04943 0
M  V30 27854 C 2704.69 1.88055 -0.759145 0
M  V30 27855 C 2705.02 1.80682 0.711887 0
M  V30 27856 O 2704.3 1.2131 1.52033 0
M  V30 27857 C 2704.58 3.38185 -1.23706 0
M  V30 27858 C 2704.43 3.54322 -2.77084 0
M  V30 27859 C 2705.75 4.32124 -0.83409 0
M  V30 27860 H 2702.87 0.682863 -0.277249 0
M  V30 27861 H 2705.51 1.38284 -1.30298 0
M  V30 27862 H 2703.66 3.80704 -0.774404 0
M  V30 27863 H 2705.34 3.20836 -3.31455 0
M  V30 27864 H 2703.58 2.96684 -3.16482 0
M  V30 27865 H 2704.25 4.59698 -3.05585 0
M  V30 27866 H 2706.73 3.97432 -1.23235 0
M  V30 27867 H 2705.6 5.35709 -1.19613 0
M  V30 27868 H 2705.86 4.41322 0.262117 0
M  V30 27869 N 2704.92 0.830104 1.33967 0
M  V30 27870 C 2706.17 0.420768 1.97671 0
M  V30 27871 C 2706.49 -1.02135 1.66113 0
M  V30 27872 O 2705.76 -1.71016 0.955533 0
M  V30 27873 H 2704.34 0.1526 0.731247 0
M  V30 27874 H 2707 1.06113 1.63481 0
M  V30 27875 H 2706.1 0.545642 3.07293 0
M  V30 27876 N 2706.4 -1.46311 0.585725 0
M  V30 27877 C 2707.36 -2.28798 -0.135633 0
M  V30 27878 C 2708.36 -1.38559 -0.815964 0
M  V30 27879 O 2709.55 -1.60906 -0.667459 0
M  V30 27880 C 2706.69 -3.19022 -1.20158 0
M  V30 27881 H 2707.88 -2.94053 0.589308 0
M  V30 27882 H 2705.43 -1.52472 0.343821 0
M  V30 27883 H 2706.17 -2.58521 -1.958 0
M  V30 27884 H 2705.95 -3.85466 -0.718214 0
M  V30 27885 H 2707.44 -3.81099 -1.70743 0
M  V30 27886 N 2707.88 -0.323668 -1.54241 0
M  V30 27887 C 2709.13 0.278324 -2.00174 0
M  V30 27888 C 2709.45 1.52646 -1.21343 0
M  V30 27889 O 2708.72 1.93346 -0.315278 0
M  V30 27890 H 2707.3 0.105832 -0.739465 0
M  V30 27891 H 2709.96 -0.440238 -1.89863 0
M  V30 27892 H 2709.06 0.534646 -3.07487 0
M  V30 27893 N 2709.36 1.57515 -0.0518432 0
M  V30 27894 C 2710.61 1.91894 0.621252 0
M  V30 27895 C 2710.92 0.932083 1.71964 0
M  V30 27896 O 2712.13 1.16795 2.45094 0
M  V30 27897 C 2710.58 3.40818 1.15635 0
M  V30 27898 C 2710.19 4.4791 0.0900359 0
M  V30 27899 C 2711.93 3.8423 1.80465 0
M  V30 27900 C 2709.84 5.87948 0.638051 0
M  V30 27901 H 2708.77 0.716173 0.235822 0
M  V30 27902 H 2711.42 1.83102 -0.120841 0
M  V30 27903 H 2709.8 3.44617 1.95078 0
M  V30 27904 H 2710.98 4.55701 -0.683605 0
M  V30 27905 H 2709.29 4.13842 -0.460847 0
M  V30 27906 H 2711.89 4.86225 2.22463 0
M  V30 27907 H 2712.23 3.20513 2.65664 0
M  V30 27908 H 2712.77 3.8295 1.07676 0
M  V30 27909 H 2709.5 6.55263 -0.176317 0
M  V30 27910 H 2709.02 5.83717 1.37966 0
M  V30 27911 H 2710.7 6.37219 1.12074 0
M  V30 27912 N 2710.84 -0.221546 1.56035 0
M  V30 27913 C 2711.8 -1.25807 1.91586 0
M  V30 27914 C 2712.8 -1.39804 0.794449 0
M  V30 27915 O 2713.99 -1.38069 1.0622 0
M  V30 27916 C 2711.12 -2.63188 2.16668 0
M  V30 27917 H 2712.31 -0.954885 2.84292 0
M  V30 27918 H 2709.87 -0.461961 1.49317 0
M  V30 27919 H 2710.6 -2.98605 1.26514 0
M  V30 27920 H 2710.39 -2.54405 2.98363 0
M  V30 27921 H 2711.88 -3.37984 2.45268 0
M  V30 27922 N 2712.31 -1.49846 -0.48825 0
M  V30 27923 C 2713.56 -1.59659 -1.23909 0
M  V30 27924 C 2713.88 -0.291039 -1.92816 0
M  V30 27925 O 2713.15 0.690453 -1.83329 0
M  V30 27926 H 2711.73 -0.588294 -0.460347 0
M  V30 27927 H 2714.39 -1.86538 -0.564761 0
M  V30 27928 H 2713.49 -2.39912 -1.99621 0
M  V30 27929 N 2713.79 0.740218 -1.39135 0
M  V30 27930 C 2714.75 1.83585 -1.3722 0
M  V30 27931 C 2715.75 1.58513 -0.270249 0
M  V30 27932 O 2716.94 1.66009 -0.527872 0
M  V30 27933 C 2714.08 3.21286 -1.13964 0
M  V30 27934 H 2715.27 1.86687 -2.34708 0
M  V30 27935 H 2712.82 0.943328 -1.24623 0
M  V30 27936 H 2713.56 3.23847 -0.171367 0
M  V30 27937 H 2713.34 3.40881 -1.9376 0
M  V30 27938 H 2714.83 4.01352 -1.15353 0
M  V30 27939 N 2715.27 1.24225 0.969846 0
M  V30 27940 C 2716.23 1.03377 2.04563 0
M  V30 27941 C 2717.23 -0.0081638 1.60798 0
M  V30 27942 O 2718.42 0.232597 1.7264 0
M  V30 27943 C 2715.55 0.566402 3.36162 0
M  V30 27944 H 2716.75 1.98857 2.2449 0
M  V30 27945 H 2714.3 1.06417 1.14478 0
M  V30 27946 H 2715.04 -0.391694 3.21926 0
M  V30 27947 H 2714.82 1.3184 3.6927 0
M  V30 27948 H 2716.31 0.441508 4.1526 0
M  V30 27949 N 2716.75 -1.1702 1.05565 0
M  V30 27950 C 2717.99 -1.8765 0.769107 0
M  V30 27951 C 2718.33 -1.81057 -0.702295 0
M  V30 27952 O 2717.6 -1.22115 -1.51388 0
M  V30 27953 C 2717.88 -3.37524 1.25498 0
M  V30 27954 C 2717.74 -3.52848 2.78959 0
M  V30 27955 C 2719.06 -4.31675 0.856994 0
M  V30 27956 H 2716.18 -0.681383 0.280866 0
M  V30 27957 H 2718.82 -1.37591 1.3103 0
M  V30 27958 H 2716.97 -3.80288 0.794583 0
M  V30 27959 H 2718.64 -3.19073 3.33151 0
M  V30 27960 H 2716.88 -2.95001 3.18051 0
M  V30 27961 H 2717.55 -4.5807 3.08019 0
M  V30 27962 H 2720.03 -3.96773 1.25341 0
M  V30 27963 H 2718.91 -5.35067 1.22452 0
M  V30 27964 H 2719.17 -4.41455 -0.238709 0
M  V30 27965 N 2718.23 -0.837197 -1.33524 0
M  V30 27966 C 2719.47 -0.431246 -1.97445 0
M  V30 27967 C 2719.79 1.01252 -1.66652 0
M  V30 27968 O 2719.06 1.70507 -0.964589 0
M  V30 27969 H 2717.64 -0.156476 -0.730427 0
M  V30 27970 H 2720.31 -1.06979 -1.62916 0
M  V30 27971 H 2719.4 -0.561931 -3.07 0
M  V30 27972 N 2719.7 1.45999 -0.593476 0
M  V30 27973 C 2720.93 2.07216 -0.087273 0
M  V30 27974 C 2721.35 1.43757 1.21308 0
M  V30 27975 O 2720.71 0.525183 1.73527 0
M  V30 27976 C 2720.76 3.6056 0.0537564 0
M  V30 27977 O 2719.86 3.97249 1.10758 0
M  V30 27978 H 2719.2 0.660543 -0.0676714 0
M  V30 27979 H 2721.73 1.87472 -0.819478 0
M  V30 27980 H 2721.74 4.07193 0.256496 0
M  V30 27981 H 2720.42 4.06138 -0.89581 0
M  V30 27982 H 2719 3.62309 0.882437 0
M  V30 27983 N 2721.18 0.331843 1.54067 0
M  V30 27984 C 2722.43 -0.269173 1.99896 0
M  V30 27985 C 2722.74 -1.52591 1.22374 0
M  V30 27986 O 2723.95 -2.20344 1.58621 0
M  V30 27987 C 2722.41 -0.530182 3.55973 0
M  V30 27988 C 2722.01 0.709978 4.42338 0
M  V30 27989 C 2723.76 -1.0907 4.10249 0
M  V30 27990 C 2721.67 0.420416 5.89904 0
M  V30 27991 H 2720.6 -0.104358 0.746743 0
M  V30 27992 H 2723.25 0.445355 1.78014 0
M  V30 27993 H 2721.63 -1.30511 3.73875 0
M  V30 27994 H 2722.8 1.48512 4.36212 0
M  V30 27995 H 2721.12 1.1913 3.98995 0
M  V30 27996 H 2723.71 -1.3221 5.18097 0
M  V30 27997 H 2724.06 -2.04263 3.62743 0
M  V30 27998 H 2724.59 -0.376755 3.96012 0
M  V30 27999 H 2721.33 1.34175 6.41621 0
M  V30 28000 H 2720.85 -0.316857 5.98962 0
M  V30 28001 H 2722.53 0.0333093 6.46991 0
M  V30 28002 N 2722.66 -1.57485 0.0601958 0
M  V30 28003 C 2723.91 -1.92663 -0.610353 0
M  V30 28004 C 2724.23 -0.940011 -1.70847 0
M  V30 28005 O 2723.5 0.013711 -1.95895 0
M  V30 28006 H 2722.08 -0.711212 -0.228445 0
M  V30 28007 H 2724.74 -1.94559 0.115322 0
M  V30 28008 H 2723.84 -2.94151 -1.04315 0
M  V30 28009 N 2724.14 0.213268 -1.5615 0
M  V30 28010 C 2725.07 1.26738 -1.96111 0
M  V30 28011 C 2726.05 1.48449 -0.830475 0
M  V30 28012 O 2727.23 1.60493 -1.09342 0
M  V30 28013 C 2724.36 2.61547 -2.28497 0
M  V30 28014 C 2723.32 2.54479 -3.44129 0
M  V30 28015 C 2722.64 3.93393 -3.62141 0
M  V30 28016 C 2723.94 2.08548 -4.78858 0
M  V30 28017 H 2725.64 0.935384 -2.84413 0
M  V30 28018 H 2723.18 0.448516 -1.36837 0
M  V30 28019 H 2725.14 3.35455 -2.55045 0
M  V30 28020 H 2723.86 2.96451 -1.37057 0
M  V30 28021 H 2722.52 1.83027 -3.17642 0
M  V30 28022 H 2722.17 4.25619 -2.68063 0
M  V30 28023 H 2721.87 3.89544 -4.3992 0
M  V30 28024 H 2723.39 4.68951 -3.91046 0
M  V30 28025 H 2724.81 2.72204 -5.04557 0
M  V30 28026 H 2723.2 2.1574 -5.59979 0
M  V30 28027 H 2724.27 1.03802 -4.73659 0
M  V30 28028 N 2725.62 1.50103 0.480296 0
M  V30 28029 C 2726.86 1.60314 1.2306 0
M  V30 28030 C 2727.19 0.30126 1.92659 0
M  V30 28031 O 2726.46 -0.680721 1.83693 0
M  V30 28032 H 2725.04 0.590727 0.457221 0
M  V30 28033 H 2727.7 1.86835 0.55486 0
M  V30 28034 H 2726.79 2.40967 1.98346 0
M  V30 28035 N 2727.09 -0.732829 1.39526 0
M  V30 28036 C 2728.04 -1.84686 1.38419 0
M  V30 28037 C 2729.01 -1.64304 0.243568 0
M  V30 28038 O 2730.2 -1.85681 0.439011 0
M  V30 28039 C 2727.34 -3.22222 1.2356 0
M  V30 28040 C 2726.45 -3.54293 2.47185 0
M  V30 28041 C 2725.58 -4.81242 2.24898 0
M  V30 28042 C 2724.62 -5.06164 3.44187 0
M  V30 28043 N 2723.76 -6.24318 3.21203 0
M  V30 28044 H 2728.6 -1.84967 2.33648 0
M  V30 28045 H 2726.14 -0.903784 1.16061 0
M  V30 28046 H 2728.1 -4.01618 1.12956 0
M  V30 28047 H 2726.73 -3.21214 0.319596 0
M  V30 28048 H 2725.78 -2.69582 2.68383 0
M  V30 28049 H 2727.09 -3.68627 3.36029 0
M  V30 28050 H 2726.24 -5.68623 2.11548 0
M  V30 28051 H 2724.98 -4.69086 1.33452 0
M  V30 28052 H 2723.99 -4.17245 3.58032 0
M  V30 28053 H 2725.21 -5.20204 4.36537 0
M  V30 28054 H 2723.16 -6.13445 2.32424 0
M  V30 28055 H 2723.08 -6.39249 4.03605 0
M  V30 28056 H 2724.34 -7.14532 3.11552 0
M  V30 28057 N 2728.57 -1.24737 -0.963244 0
M  V30 28058 C 2729.82 -1.09134 -1.70931 0
M  V30 28059 C 2730.15 0.368239 -1.90677 0
M  V30 28060 O 2729.43 1.2719 -1.47149 0
M  V30 28061 C 2729.71 -1.83664 -3.09741 0
M  V30 28062 C 2729.56 -3.37399 -2.97459 0
M  V30 28063 C 2730.88 -1.61289 -4.0948 0
M  V30 28064 H 2728 -0.397849 -0.620391 0
M  V30 28065 H 2730.64 -1.53461 -1.12025 0
M  V30 28066 H 2728.79 -1.45986 -3.60028 0
M  V30 28067 H 2730.46 -3.84701 -2.54564 0
M  V30 28068 H 2728.71 -3.65551 -2.3357 0
M  V30 28069 H 2729.38 -3.84752 -3.95815 0
M  V30 28070 H 2731.85 -1.94073 -3.68069 0
M  V30 28071 H 2730.73 -2.15886 -5.04662 0
M  V30 28072 H 2730.99 -0.552179 -4.38638 0
M  V30 28073 N 2730.05 1.16459 -1.06184 0
M  V30 28074 C 2730.98 2.22982 -0.6929 0
M  V30 28075 C 2731.96 1.67175 0.314092 0
M  V30 28076 O 2733.15 1.93274 0.189465 0
M  V30 28077 C 2730.28 3.47214 -0.077381 0
M  V30 28078 C 2729.23 4.15907 -1.01023 0
M  V30 28079 C 2728.56 5.34077 -0.258067 0
M  V30 28080 C 2729.86 4.67011 -2.33876 0
M  V30 28081 H 2731.55 2.54099 -1.58347 0
M  V30 28082 H 2729.1 1.22136 -0.762812 0
M  V30 28083 H 2731.05 4.2096 0.192586 0
M  V30 28084 H 2729.77 3.15394 0.848199 0
M  V30 28085 H 2728.43 3.44086 -1.26492 0
M  V30 28086 H 2728.08 4.9851 0.670596 0
M  V30 28087 H 2727.78 5.80977 -0.87974 0
M  V30 28088 H 2729.3 6.106 0.00438055 0
M  V30 28089 H 2730.72 5.32343 -2.12799 0
M  V30 28090 H 2729.12 5.24528 -2.91531 0
M  V30 28091 H 2730.19 3.8328 -2.97025 0
M  V30 28092 N 2731.53 0.844266 1.33079 0
M  V30 28093 C 2732.77 0.44324 1.97897 0
M  V30 28094 C 2733.11 -0.996221 1.66701 0
M  V30 28095 O 2732.38 -1.69736 0.949734 0
M  V30 28096 C 2732.67 0.670668 3.53799 0
M  V30 28097 C 2732.52 2.15779 3.94664 0
M  V30 28098 C 2733.84 0.120304 4.39936 0
M  V30 28099 H 2730.96 0.162517 0.718858 0
M  V30 28100 H 2733.6 1.06078 1.57631 0
M  V30 28101 H 2731.75 0.145028 3.88229 0
M  V30 28102 H 2733.42 2.74871 3.70464 0
M  V30 28103 H 2731.66 2.64026 3.44199 0
M  V30 28104 H 2732.33 2.26765 5.03271 0
M  V30 28105 H 2734.81 0.569672 4.12182 0
M  V30 28106 H 2733.69 0.309081 5.48029 0
M  V30 28107 H 2733.95 -0.976271 4.31186 0
M  V30 28108 N 2733.01 -1.45682 0.60121 0
M  V30 28109 C 2734.28 -1.95582 0.0262003 0
M  V30 28110 C 2734.66 -1.54372 -1.43987 0
M  V30 28111 O 2734.01 -0.803217 -2.13917 0
M  V30 28112 C 2734.22 -3.48321 0.217618 0
M  V30 28113 C 2735.57 -4.24494 0.0950822 0
M  V30 28114 O 2736.59 -3.55895 0.147408 0
M  V30 28115 O 2735.45 -5.46494 -0.0251649 0
M  V30 28116 H 2732.55 -0.826063 -0.0393543 0
M  V30 28117 H 2735.09 -1.55878 0.670825 0
M  V30 28118 H 2733.86 -3.71264 1.23608 0
M  V30 28119 H 2733.49 -3.949 -0.462571 0
M  V30 28120 N 2734.48 -0.340009 -1.53889 0
M  V30 28121 C 2735.73 0.258569 -2.00036 0
M  V30 28122 C 2736.05 1.5194 -1.23182 0
M  V30 28123 O 2737.25 2.195 -1.59788 0
M  V30 28124 C 2735.71 0.511296 -3.5625 0
M  V30 28125 C 2735.32 -0.733427 -4.41956 0
M  V30 28126 C 2737.06 1.06893 -4.10821 0
M  V30 28127 C 2734.97 -0.451694 -5.89673 0
M  V30 28128 H 2733.9 0.100396 -0.747286 0
M  V30 28129 H 2736.55 -0.454789 -1.77775 0
M  V30 28130 H 2734.93 1.28526 -3.74562 0
M  V30 28131 H 2736.1 -1.50823 -4.35418 0
M  V30 28132 H 2734.42 -1.21244 -3.98358 0
M  V30 28133 H 2737.02 1.29461 -5.18791 0
M  V30 28134 H 2737.36 2.02337 -3.63821 0
M  V30 28135 H 2737.89 0.355748 -3.96206 0
M  V30 28136 H 2734.63 -1.37576 -6.409 0
M  V30 28137 H 2734.15 0.285088 -5.99122 0
M  V30 28138 H 2735.83 -0.0676204 -6.46965 0
M  V30 28139 N 2735.96 1.57451 -0.0685468 0
M  V30 28140 C 2736.89 2.15565 0.897432 0
M  V30 28141 C 2737.87 1.08184 1.31264 0
M  V30 28142 O 2739.06 1.36204 1.38427 0
M  V30 28143 C 2736.19 2.71466 2.16618 0
M  V30 28144 C 2735.14 3.83986 1.89047 0
M  V30 28145 C 2734.47 4.26476 3.22525 0
M  V30 28146 C 2735.77 5.08368 1.19831 0
M  V30 28147 H 2737.46 2.96533 0.413321 0
M  V30 28148 H 2735.01 1.42641 0.197365 0
M  V30 28149 H 2736.96 3.10766 2.84609 0
M  V30 28150 H 2735.69 1.87715 2.67265 0
M  V30 28151 H 2734.35 3.45185 1.23463 0
M  V30 28152 H 2733.99 3.39651 3.71007 0
M  V30 28153 H 2733.69 5.02323 3.0487 0
M  V30 28154 H 2735.22 4.6839 3.91719 0
M  V30 28155 H 2736.63 5.45004 1.77886 0
M  V30 28156 H 2735.03 5.89471 1.12445 0
M  V30 28157 H 2736.1 4.84577 0.176911 0
M  V30 28158 N 2737.44 -0.204984 1.56261 0
M  V30 28159 C 2738.4 -1.23768 1.9291 0
M  V30 28160 C 2739.4 -1.38953 0.809233 0
M  V30 28161 O 2740.59 -1.36935 1.07678 0
M  V30 28162 C 2737.73 -2.60875 2.19447 0
M  V30 28163 H 2738.92 -0.924678 2.85289 0
M  V30 28164 H 2736.47 -0.446098 1.49799 0
M  V30 28165 H 2737.21 -2.97246 1.29674 0
M  V30 28166 H 2736.99 -2.51226 3.01044 0
M  V30 28167 H 2738.48 -3.35364 2.48839 0
M  V30 28168 N 2738.92 -1.50356 -0.472329 0
M  V30 28169 C 2740.17 -1.60964 -1.22208 0
M  V30 28170 C 2740.49 -0.311473 -1.92496 0
M  V30 28171 O 2739.76 0.67097 -1.84051 0
M  V30 28172 H 2738.34 -0.593143 -0.454081 0
M  V30 28173 H 2741 -1.87127 -0.544944 0
M  V30 28174 H 2740.1 -2.42016 -1.97065 0
M  V30 28175 N 2740.4 0.725419 -1.39912 0
M  V30 28176 C 2741.63 1.51241 -1.40747 0
M  V30 28177 C 2742.04 1.892 -0.00278729 0
M  V30 28178 O 2741.38 1.55296 0.981272 0
M  V30 28179 C 2741.44 2.82347 -2.22532 0
M  V30 28180 C 2741.1 2.66768 -3.71058 0
M  V30 28181 C 2742.1 2.34678 -4.63921 0
M  V30 28182 C 2739.79 2.83339 -4.14758 0
M  V30 28183 C 2741.78 2.19355 -5.98466 0
M  V30 28184 C 2739.47 2.67635 -5.49377 0
M  V30 28185 C 2740.47 2.35689 -6.41046 0
M  V30 28186 O 2740.15 2.20093 -7.73184 0
M  V30 28187 H 2739.89 0.473647 -0.482322 0
M  V30 28188 H 2742.44 0.903252 -1.84474 0
M  V30 28189 H 2740.67 3.45559 -1.73569 0
M  V30 28190 H 2742.36 3.44014 -2.15427 0
M  V30 28191 H 2743.12 2.21517 -4.31457 0
M  V30 28192 H 2739 3.07194 -3.43733 0
M  V30 28193 H 2742.55 1.94343 -6.69983 0
M  V30 28194 H 2738.44 2.80377 -5.81429 0
M  V30 28195 H 2739.21 2.35089 -7.84012 0
M  V30 28196 N 2741.88 1.25246 0.956615 0
M  V30 28197 C 2743.12 1.09659 1.69762 0
M  V30 28198 C 2743.44 -0.36343 1.91583 0
M  V30 28199 O 2742.71 -1.25823 1.50151 0
M  V30 28200 H 2741.29 0.402809 0.62909 0
M  V30 28201 H 2743.96 1.57339 1.15024 0
M  V30 28202 H 2743.05 1.60336 2.67766 0
M  V30 28203 N 2743.35 -1.15894 1.068 0
M  V30 28204 C 2744.32 -2.1865 0.687366 0
M  V30 28205 C 2745.32 -1.58525 -0.269532 0
M  V30 28206 O 2746.51 -1.74125 -0.0512321 0
M  V30 28207 C 2743.64 -3.40898 0.0122241 0
M  V30 28208 H 2744.83 -2.53839 1.59705 0
M  V30 28209 H 2742.38 -1.30259 0.863851 0
M  V30 28210 H 2743.12 -3.11272 -0.90997 0
M  V30 28211 H 2742.9 -3.85794 0.700377 0
M  V30 28212 H 2744.39 -4.16912 -0.23963 0
M  V30 28213 N 2744.83 -0.851312 -1.32629 0
M  V30 28214 C 2746.08 -0.452163 -1.96977 0
M  V30 28215 C 2746.4 0.99479 -1.67717 0
M  V30 28216 O 2745.67 1.69474 -0.98262 0
M  V30 28217 H 2744.25 -0.164214 -0.728727 0
M  V30 28218 H 2746.91 -1.08701 -1.61772 0
M  V30 28219 H 2746.01 -0.594461 -3.06386 0
M  V30 28220 N 2746.31 1.45361 -0.608928 0
M  V30 28221 C 2747.56 2.02529 -0.104798 0
M  V30 28222 C 2747.89 1.47615 1.26188 0
M  V30 28223 O 2747.16 0.651373 1.83269 0
M  V30 28224 C 2747.45 3.60037 -0.0673294 0
M  V30 28225 C 2747.3 4.25282 -1.46477 0
M  V30 28226 C 2748.62 4.35714 0.619801 0
M  V30 28227 H 2745.74 0.735938 -0.0395568 0
M  V30 28228 H 2748.38 1.73199 -0.781156 0
M  V30 28229 H 2746.53 3.85156 0.508642 0
M  V30 28230 H 2748.2 4.11343 -2.08792 0
M  V30 28231 H 2746.44 3.83631 -2.02509 0
M  V30 28232 H 2747.12 5.34192 -1.39078 0
M  V30 28233 H 2749.59 4.15896 0.130224 0
M  V30 28234 H 2748.47 5.45442 0.615128 0
M  V30 28235 H 2748.73 4.08683 1.68613 0
M  V30 28236 N 2747.79 0.348166 1.53706 0
M  V30 28237 C 2748.75 -0.494019 2.23813 0
M  V30 28238 C 2749.75 -1.02386 1.23991 0
M  V30 28239 O 2750.94 -0.91237 1.48396 0
M  V30 28240 C 2748.07 -1.68867 2.96136 0
M  V30 28241 H 2749.27 0.119193 2.99663 0
M  V30 28242 H 2746.82 0.0995813 1.55982 0
M  V30 28243 H 2747.55 -2.34045 2.24485 0
M  V30 28244 H 2747.34 -1.3159 3.6936 0
M  V30 28245 H 2748.83 -2.28591 3.49479 0
M  V30 28246 N 2749.27 -1.57412 0.0768958 0
M  V30 28247 C 2750.51 -1.933 -0.589884 0
M  V30 28248 C 2750.83 -0.958079 -1.69841 0
M  V30 28249 O 2750.1 -0.00706705 -1.95899 0
M  V30 28250 H 2748.68 -0.713595 -0.220888 0
M  V30 28251 H 2751.35 -1.94425 0.135951 0
M  V30 28252 H 2750.44 -2.95241 -1.0119 0
M  V30 28253 N 2750.74 0.196695 -1.56368 0
M  V30 28254 C 2751.71 1.22743 -1.93563 0
M  V30 28255 C 2752.71 1.38522 -0.81659 0
M  V30 28256 O 2753.9 1.36362 -1.08403 0
M  V30 28257 C 2751.03 2.59708 -2.20827 0
M  V30 28258 H 2752.22 0.909536 -2.85775 0
M  V30 28259 H 2749.78 0.438148 -1.50033 0
M  V30 28260 H 2750.51 2.96554 -1.31248 0
M  V30 28261 H 2750.3 2.49626 -3.02372 0
M  V30 28262 H 2751.79 3.34039 -2.50614 0
M  V30 28263 N 2752.22 1.50604 0.464349 0
M  V30 28264 C 2753.15 1.72892 1.56941 0
M  V30 28265 C 2754.13 0.578025 1.59978 0
M  V30 28266 O 2755.32 0.817886 1.76137 0
M  V30 28267 C 2752.45 1.82925 2.95222 0
M  V30 28268 C 2751.4 2.98167 3.07051 0
M  V30 28269 C 2750.73 2.9335 4.47045 0
M  V30 28270 C 2752.03 4.38572 2.8364 0
M  V30 28271 H 2753.72 2.65417 1.38542 0
M  V30 28272 H 2751.27 1.27722 0.665059 0
M  V30 28273 H 2753.22 1.97101 3.72464 0
M  V30 28274 H 2751.95 0.870264 3.14792 0
M  V30 28275 H 2750.6 2.83652 2.32243 0
M  V30 28276 H 2750.25 1.95284 4.63544 0
M  V30 28277 H 2749.95 3.7072 4.55895 0
M  V30 28278 H 2751.48 3.09584 5.26298 0
M  V30 28279 H 2752.89 4.53578 3.50628 0
M  V30 28280 H 2751.29 5.17444 3.03928 0
M  V30 28281 H 2752.36 4.50475 1.79443 0
M  V30 28282 N 2753.7 -0.717989 1.40295 0
M  V30 28283 C 2754.95 -1.48002 1.38648 0
M  V30 28284 C 2755.28 -1.94196 -0.012086 0
M  V30 28285 O 2754.55 -1.6799 -0.98028 0
M  V30 28286 C 2754.84 -2.70778 2.37384 0
M  V30 28287 C 2754.69 -2.30494 3.86255 0
M  V30 28288 C 2756.01 -3.72929 2.33692 0
M  V30 28289 H 2753.13 -0.536849 0.504938 0
M  V30 28290 H 2755.77 -0.819619 1.71413 0
M  V30 28291 H 2753.92 -3.27125 2.09574 0
M  V30 28292 H 2755.59 -1.79647 4.24882 0
M  V30 28293 H 2753.84 -1.62523 4.02205 0
M  V30 28294 H 2754.51 -3.1849 4.50853 0
M  V30 28295 H 2756.98 -3.26206 2.58319 0
M  V30 28296 H 2755.86 -4.56477 3.04828 0
M  V30 28297 H 2756.12 -4.21057 1.34772 0
M  V30 28298 N 2755.18 -1.25752 -0.94996 0
M  V30 28299 C 2756.14 -1.06618 -2.02892 0
M  V30 28300 C 2757.14 -0.0174188 -1.60791 0
M  V30 28301 O 2758.33 -0.260033 -1.72248 0
M  V30 28302 C 2755.46 -0.61981 -3.35218 0
M  V30 28303 H 2756.66 -2.02403 -2.21298 0
M  V30 28304 H 2754.21 -1.08225 -1.1277 0
M  V30 28305 H 2754.94 0.340429 -3.22508 0
M  V30 28306 H 2754.73 -1.37698 -3.67126 0
M  V30 28307 H 2756.22 -0.507516 -4.14505 0
M  V30 28308 N 2756.66 1.15326 -1.07413 0
M  V30 28309 C 2757.9 1.86127 -0.797682 0
M  V30 28310 C 2758.23 1.82365 0.676265 0
M  V30 28311 O 2757.49 1.24221 1.51221 0
M  V30 28312 C 2757.79 3.34755 -1.25196 0
M  V30 28313 C 2757.45 3.58711 -2.73198 0
M  V30 28314 C 2756.11 3.64959 -3.13622 0
M  V30 28315 C 2758.47 3.68363 -3.68725 0
M  V30 28316 C 2755.79 3.78369 -4.4839 0
M  V30 28317 C 2758.15 3.83298 -5.03255 0
M  V30 28318 C 2756.81 3.87791 -5.433 0
M  V30 28319 H 2756.08 0.681087 -0.291892 0
M  V30 28320 H 2758.73 1.36289 -1.34527 0
M  V30 28321 H 2757.03 3.86803 -0.62378 0
M  V30 28322 H 2758.73 3.87943 -1.01495 0
M  V30 28323 H 2755.32 3.5449 -2.40904 0
M  V30 28324 H 2759.5 3.62836 -3.3862 0
M  V30 28325 H 2754.76 3.80105 -4.78884 0
M  V30 28326 H 2758.93 3.89708 -5.77149 0
M  V30 28327 H 2756.56 3.97935 -6.47728 0
M  V30 28328 N 2758.13 0.858334 1.32176 0
M  V30 28329 C 2759.08 0.303647 2.28794 0
M  V30 28330 C 2760.05 -0.591426 1.55214 0
M  V30 28331 O 2761.24 -0.525553 1.83419 0
M  V30 28332 C 2758.38 -0.49883 3.41476 0
M  V30 28333 C 2757.49 0.422448 4.2993 0
M  V30 28334 C 2756.62 -0.393018 5.29744 0
M  V30 28335 C 2755.66 0.525425 6.09841 0
M  V30 28336 N 2754.8 -0.253084 7.01644 0
M  V30 28337 H 2759.64 1.13281 2.75629 0
M  V30 28338 H 2757.18 0.570049 1.35605 0
M  V30 28339 H 2759.14 -0.979755 4.05533 0
M  V30 28340 H 2757.77 -1.29279 2.95782 0
M  V30 28341 H 2756.82 1.02178 3.6642 0
M  V30 28342 H 2758.13 1.12717 4.85897 0
M  V30 28343 H 2757.28 -0.936951 5.99421 0
M  V30 28344 H 2756.02 -1.13109 4.74402 0
M  V30 28345 H 2755.03 1.08121 5.39064 0
M  V30 28346 H 2756.25 1.26216 6.67268 0
M  V30 28347 H 2754.2 -0.974181 6.48726 0
M  V30 28348 H 2754.12 0.392531 7.5498 0
M  V30 28349 H 2755.38 -0.778625 7.75602 0
M  V30 28350 N 2759.61 -1.45036 0.616628 0
M  V30 28351 C 2760.86 -2.02471 0.115537 0
M  V30 28352 C 2761.19 -1.48282 -1.25404 0
M  V30 28353 O 2760.47 -0.661083 -1.82921 0
M  V30 28354 C 2760.75 -3.59996 0.0864221 0
M  V30 28355 C 2760.6 -4.24499 1.4873 0
M  V30 28356 C 2761.92 -4.36036 -0.596685 0
M  V30 28357 H 2759.04 -0.735718 0.0434591 0
M  V30 28358 H 2761.68 -1.72782 0.79033 0
M  V30 28359 H 2759.83 -3.8542 -0.488209 0
M  V30 28360 H 2761.5 -4.1023 2.10971 0
M  V30 28361 H 2759.75 -3.82551 2.04541 0
M  V30 28362 H 2760.42 -5.33447 1.41909 0
M  V30 28363 H 2762.89 -4.15959 -0.108166 0
M  V30 28364 H 2761.77 -5.45761 -0.586193 0
M  V30 28365 H 2762.03 -4.09572 -1.66444 0
M  V30 28366 N 2761.09 -0.356312 -1.53519 0
M  V30 28367 C 2762.02 0.537874 -2.2177 0
M  V30 28368 C 2763 1.0903 -1.20628 0
M  V30 28369 O 2764.19 1.14818 -1.49496 0
M  V30 28370 C 2761.31 1.74121 -2.90516 0
M  V30 28371 C 2760.36 1.31708 -4.05654 0
M  V30 28372 S 2761.19 0.326142 -5.34506 0
M  V30 28373 C 2762.35 1.53602 -6.0676 0
M  V30 28374 H 2762.58 -0.0417934 -2.97271 0
M  V30 28375 H 2760.11 -0.140399 -1.5376 0
M  V30 28376 H 2762.07 2.4315 -3.30739 0
M  V30 28377 H 2760.73 2.29211 -2.14758 0
M  V30 28378 H 2759.93 2.21463 -4.52736 0
M  V30 28379 H 2759.53 0.706119 -3.67274 0
M  V30 28380 H 2761.82 2.46852 -6.30928 0
M  V30 28381 H 2762.76 1.10675 -6.99397 0
M  V30 28382 H 2763.17 1.73786 -5.37083 0
M  V30 28383 N 2762.57 1.57369 -0.0852427 0
M  V30 28384 C 2763.79 1.98747 0.592838 0
M  V30 28385 C 2764.22 0.963717 1.61537 0
M  V30 28386 O 2763.58 -0.0690391 1.81169 0
M  V30 28387 C 2763.62 3.39121 1.22593 0
M  V30 28388 O 2762.73 3.39461 2.34179 0
M  V30 28389 H 2762.07 0.646532 0.151303 0
M  V30 28390 H 2764.6 2.03944 -0.163739 0
M  V30 28391 H 2764.61 3.76601 1.56959 0
M  V30 28392 H 2763.28 4.13158 0.476759 0
M  V30 28393 H 2761.86 3.13767 2.01507 0
M  V30 28394 N 2764.05 -0.188399 1.5647 0
M  V30 28395 C 2765.29 -0.905954 1.80657 0
M  V30 28396 C 2765.62 -1.83512 0.659423 0
M  V30 28397 O 2764.89 -1.93238 -0.321834 0
M  V30 28398 H 2763.47 -0.337526 0.666397 0
M  V30 28399 H 2766.13 -0.192305 1.93949 0
M  V30 28400 H 2765.22 -1.49308 2.74069 0
M  V30 28401 N 2765.53 -1.50848 -0.456355 0
M  V30 28402 C 2766.44 -1.73597 -1.57802 0
M  V30 28403 C 2767.45 -0.619504 -1.62598 0
M  V30 28404 O 2768.63 -0.899564 -1.80194 0
M  V30 28405 C 2765.69 -1.83875 -2.93923 0
M  V30 28406 C 2764.75 -3.07669 -2.99397 0
M  V30 28407 C 2763.99 -3.17448 -4.29025 0
M  V30 28408 O 2764.21 -2.3364 -5.20354 0
M  V30 28409 O 2763.14 -4.10289 -4.40394 0
M  V30 28410 H 2766.97 -2.68708 -1.41526 0
M  V30 28411 H 2764.55 -1.35121 -0.637398 0
M  V30 28412 H 2766.44 -1.92731 -3.74743 0
M  V30 28413 H 2765.11 -0.919494 -3.10366 0
M  V30 28414 H 2764.02 -3.04304 -2.17601 0
M  V30 28415 H 2765.35 -3.99221 -2.87894 0
M  V30 28416 N 2767 0.710538 -1.40674 0
M  V30 28417 C 2767.94 1.83435 -1.35745 0
M  V30 28418 C 2768.91 1.61007 -0.227025 0
M  V30 28419 O 2770.1 1.83953 -0.41151 0
M  V30 28420 C 2767.23 3.19863 -1.1138 0
M  V30 28421 C 2766.27 3.61109 -2.26941 0
M  V30 28422 S 2767.1 3.67641 -3.89359 0
M  V30 28423 C 2768.26 5.06819 -3.67267 0
M  V30 28424 H 2768.49 1.87337 -2.30851 0
M  V30 28425 H 2766.03 0.877809 -1.27019 0
M  V30 28426 H 2767.98 3.98629 -0.980074 0
M  V30 28427 H 2766.65 3.13588 -0.17919 0
M  V30 28428 H 2765.84 4.6018 -2.05548 0
M  V30 28429 H 2765.44 2.89614 -2.36643 0
M  V30 28430 H 2767.73 5.93885 -3.26047 0
M  V30 28431 H 2768.68 5.33249 -4.65887 0
M  V30 28432 H 2769.08 4.77651 -3.00849 0
M  V30 28433 N 2768.48 1.26254 0.943277 0
M  V30 28434 C 2769.89 1.10616 1.50403 0
M  V30 28435 C 2770.24 -0.314256 1.93667 0
M  V30 28436 O 2769.37 -1.20552 1.79711 0
M  V30 28437 C 2769.96 2.00187 2.73333 0
M  V30 28438 C 2768.52 1.88701 3.25682 0
M  V30 28439 C 2767.67 1.93662 1.9847 0
M  V30 28440 H 2770.62 1.39374 0.758982 0
M  V30 28441 H 2770.64 1.54853 3.47564 0
M  V30 28442 H 2770.15 3.03559 2.41813 0
M  V30 28443 H 2768.25 0.882553 3.61997 0
M  V30 28444 H 2768.37 2.74121 3.9293 0
M  V30 28445 H 2766.73 1.37688 2.14276 0
M  V30 28446 H 2767.51 2.9866 1.69284 0
M  V30 28447 N 2769.96 -1.14755 1.08024 0
M  V30 28448 C 2771.18 -1.90112 0.828983 0
M  V30 28449 C 2771.61 -1.7784 -0.612741 0
M  V30 28450 O 2770.97 -1.11586 -1.42893 0
M  V30 28451 C 2771.02 -3.38216 1.25068 0
M  V30 28452 O 2770.12 -4.10454 0.400191 0
M  V30 28453 H 2769.46 -0.591642 0.301422 0
M  V30 28454 H 2771.99 -1.45281 1.44064 0
M  V30 28455 H 2772 -3.89023 1.22984 0
M  V30 28456 H 2770.68 -3.46467 2.30073 0
M  V30 28457 H 2769.25 -3.69744 0.484117 0
M  V30 28458 N 2771.44 -0.865331 -1.31719 0
M  V30 28459 C 2772.67 -0.488286 -2.01056 0
M  V30 28460 C 2773.08 0.917971 -1.64981 0
M  V30 28461 O 2772.44 1.60067 -0.876625 0
M  V30 28462 C 2772.49 -0.630286 -3.55963 0
M  V30 28463 O 2772.21 -1.98116 -3.90745 0
M  V30 28464 C 2773.71 -0.253645 -4.42574 0
M  V30 28465 H 2770.93 -0.190748 -0.643317 0
M  V30 28466 H 2773.47 -1.16522 -1.68056 0
M  V30 28467 H 2771.63 -0.000963517 -3.874 0
M  V30 28468 H 2772.04 -1.98559 -4.85463 0
M  V30 28469 H 2773.52 -0.403971 -5.5052 0
M  V30 28470 H 2773.99 0.806819 -4.31726 0
M  V30 28471 H 2774.6 -0.858478 -4.16546 0
M  V30 28472 N 2772.92 1.44707 -0.624311 0
M  V30 28473 C 2773.83 2.34442 0.0860671 0
M  V30 28474 C 2774.84 1.52222 0.842883 0
M  V30 28475 O 2776.02 1.84972 0.79669 0
M  V30 28476 C 2773.08 3.301 1.05993 0
M  V30 28477 C 2772.14 4.28228 0.303241 0
M  V30 28478 C 2771.38 5.19316 1.23072 0
M  V30 28479 O 2771.6 5.14186 2.4692 0
M  V30 28480 O 2770.53 5.97593 0.718725 0
M  V30 28481 H 2774.36 2.96623 -0.651808 0
M  V30 28482 H 2771.94 1.44367 -0.384519 0
M  V30 28483 H 2773.83 3.89 1.6204 0
M  V30 28484 H 2772.5 2.70462 1.77854 0
M  V30 28485 H 2771.41 3.72894 -0.300098 0
M  V30 28486 H 2772.74 4.90768 -0.375209 0
M  V30 28487 N 2774.39 0.364449 1.53328 0
M  V30 28488 C 2775.67 -0.281928 1.93558 0
M  V30 28489 C 2776.05 -1.66488 1.29788 0
M  V30 28490 O 2775.4 -2.23893 0.456552 0
M  V30 28491 C 2775.61 -0.33327 3.47405 0
M  V30 28492 C 2776.96 -0.574157 4.207 0
M  V30 28493 O 2777.98 -0.414525 3.5378 0
M  V30 28494 O 2776.84 -0.884907 5.39288 0
M  V30 28495 H 2773.93 -0.168867 0.809576 0
M  V30 28496 H 2776.48 0.41715 1.64493 0
M  V30 28497 H 2775.25 0.636394 3.8609 0
M  V30 28498 H 2774.87 -1.07829 3.82699 0
M  V30 28499 N 2775.87 -1.57322 0.0935872 0
M  V30 28500 C 2776.8 -2.16966 -0.863024 0
M  V30 28501 C 2777.78 -1.10258 -1.29527 0
M  V30 28502 O 2778.97 -1.38389 -1.36243 0
M  V30 28503 C 2776.1 -2.74878 -2.12272 0
M  V30 28504 C 2775.05 -3.86945 -1.82915 0
M  V30 28505 C 2774.38 -4.31553 -3.15699 0
M  V30 28506 C 2775.68 -5.1021 -1.11728 0
M  V30 28507 H 2777.37 -2.97153 -0.366093 0
M  V30 28508 H 2774.92 -1.42937 -0.174647 0
M  V30 28509 H 2776.87 -3.15255 -2.79629 0
M  V30 28510 H 2775.59 -1.91943 -2.64245 0
M  V30 28511 H 2774.25 -3.47105 -1.17955 0
M  V30 28512 H 2773.9 -3.4551 -3.65557 0
M  V30 28513 H 2773.6 -5.07109 -2.9684 0
M  V30 28514 H 2775.13 -4.74562 -3.84217 0
M  V30 28515 H 2776.54 -5.47765 -1.69193 0
M  V30 28516 H 2774.94 -5.91185 -1.03053 0
M  V30 28517 H 2776.01 -4.84797 -0.0997966 0
M  V30 28518 N 2777.35 0.180099 -1.56568 0
M  V30 28519 C 2778.6 0.899465 -1.81762 0
M  V30 28520 C 2778.93 1.82275 -0.670048 0
M  V30 28521 O 2778.2 1.91705 0.328541 0
M  V30 28522 C 2778.49 1.70274 -3.17299 0
M  V30 28523 C 2778.34 0.803177 -4.42571 0
M  V30 28524 C 2779.66 2.67227 -3.49683 0
M  V30 28525 H 2776.78 0.325555 -0.661198 0
M  V30 28526 H 2779.42 0.166087 -1.89273 0
M  V30 28527 H 2777.57 2.32797 -3.11027 0
M  V30 28528 H 2779.24 0.191504 -4.60902 0
M  V30 28529 H 2777.48 0.11072 -4.33659 0
M  V30 28530 H 2778.16 1.40054 -5.33937 0
M  V30 28531 H 2780.63 2.14833 -3.56351 0
M  V30 28532 H 2779.51 3.20503 -4.45611 0
M  V30 28533 H 2779.77 3.47002 -2.73938 0
M  V30 28534 N 2778.83 1.51088 0.448349 0
M  V30 28535 C 2779.78 1.72164 1.56404 0
M  V30 28536 C 2780.77 0.587748 1.58877 0
M  V30 28537 O 2781.98 0.768851 1.62753 0
M  V30 28538 H 2778.35 0.543796 0.519413 0
M  V30 28539 H 2780.32 2.65709 1.35798 0
M  V30 28540 C 2779.07 1.85378 2.9416 0
M  V30 28541 H 2778.39 2.72029 2.92985 0
M  V30 28542 H 2779.83 2.04142 3.71621 0
M  V30 28543 C 2778.29 0.610861 3.31316 0
M  V30 28544 O 2778.82 -0.239566 4.00985 0
M  V30 28545 N 2777.03 0.458177 2.86965 0
M  V30 28546 H 2776.58 1.15128 2.30441 0
M  V30 28547 H 2776.53 -0.372234 3.12189 0
M  V30 28548 N 2780.31 -0.703068 1.41049 0
M  V30 28549 C 2781.24 -1.82967 1.4507 0
M  V30 28550 C 2782.22 -1.67248 0.310189 0
M  V30 28551 O 2783.4 -1.87092 0.52058 0
M  V30 28552 C 2780.53 -3.21038 1.32484 0
M  V30 28553 C 2779.49 -3.5145 2.44268 0
M  V30 28554 C 2778.81 -4.88798 2.16751 0
M  V30 28555 C 2780.11 -3.51182 3.86612 0
M  V30 28556 H 2781.81 -1.79858 2.39356 0
M  V30 28557 H 2779.35 -0.863899 1.15208 0
M  V30 28558 H 2781.31 -3.99557 1.33911 0
M  V30 28559 H 2780.03 -3.24754 0.346792 0
M  V30 28560 H 2778.69 -2.75277 2.42111 0
M  V30 28561 H 2778.34 -4.8913 1.17307 0
M  V30 28562 H 2778.04 -5.10111 2.91652 0
M  V30 28563 H 2779.56 -5.69635 2.19882 0
M  V30 28564 H 2780.97 -4.19718 3.90525 0
M  V30 28565 H 2779.37 -3.84025 4.61134 0
M  V30 28566 H 2780.44 -2.50308 4.153 0
M  V30 28567 N 2781.78 -1.26752 -0.936569 0
M  V30 28568 C 2782.71 -1.11216 -2.05313 0
M  V30 28569 C 2783.7 -0.0160561 -1.70092 0
M  V30 28570 O 2784.88 -0.188928 -1.93279 0
M  V30 28571 C 2782.01 -0.74923 -3.39122 0
M  V30 28572 C 2780.96 -1.79758 -3.88421 0
M  V30 28573 C 2780.29 -1.28885 -5.18934 0
M  V30 28574 C 2781.59 -3.2 -4.12792 0
M  V30 28575 H 2783.28 -2.04616 -2.18569 0
M  V30 28576 H 2780.83 -0.985178 -1.05025 0
M  V30 28577 H 2782.78 -0.627396 -4.16703 0
M  V30 28578 H 2781.51 0.220485 -3.25855 0
M  V30 28579 H 2780.17 -1.90816 -3.13025 0
M  V30 28580 H 2779.81 -0.308845 -5.02051 0
M  V30 28581 H 2779.51 -1.98967 -5.52889 0
M  V30 28582 H 2781.04 -1.17978 -5.99094 0
M  V30 28583 H 2782.45 -3.11992 -4.80972 0
M  V30 28584 H 2780.85 -3.87713 -4.58037 0
M  V30 28585 H 2781.92 -3.65713 -3.18405 0
M  V30 28586 N 2783.26 1.1418 -1.08631 0
M  V30 28587 C 2784.67 1.66835 -0.838032 0
M  V30 28588 C 2785.02 1.85645 0.634852 0
M  V30 28589 O 2784.15 1.56928 1.49005 0
M  V30 28590 C 2784.74 3.03055 -1.5147 0
M  V30 28591 C 2783.3 3.52734 -1.31361 0
M  V30 28592 C 2782.45 2.28159 -1.57603 0
M  V30 28593 H 2785.4 0.982143 -1.24658 0
M  V30 28594 H 2785.42 3.68624 -0.943199 0
M  V30 28595 H 2784.93 2.89333 -2.58666 0
M  V30 28596 H 2783.04 3.71675 -0.262449 0
M  V30 28597 H 2783.15 4.33365 -2.04282 0
M  V30 28598 H 2781.51 2.34346 -0.9977 0
M  V30 28599 H 2782.3 2.17011 -2.6601 0
M  V30 28600 N 2784.74 0.872304 1.31258 0
M  V30 28601 C 2785.7 0.334696 2.26743 0
M  V30 28602 C 2786.7 -0.515655 1.52308 0
M  V30 28603 O 2787.89 -0.324626 1.71149 0
M  V30 28604 C 2785.03 -0.524423 3.36842 0
M  V30 28605 H 2786.22 1.17767 2.7581 0
M  V30 28606 H 2783.77 0.648089 1.4223 0
M  V30 28607 H 2784.51 -1.3885 2.93072 0
M  V30 28608 H 2784.29 0.0844988 3.92009 0
M  V30 28609 H 2785.78 -0.892767 4.07945 0
M  V30 28610 N 2786.22 -1.44374 0.631976 0
M  V30 28611 C 2787.47 -2.01253 0.13425 0
M  V30 28612 C 2787.78 -1.50307 -1.25168 0
M  V30 28613 O 2788.99 -1.9932 -1.84347 0
M  V30 28614 C 2787.44 -3.59402 0.18925 0
M  V30 28615 C 2787.05 -4.19344 1.57655 0
M  V30 28616 C 2788.79 -4.23752 -0.25197 0
M  V30 28617 C 2786.7 -5.6972 1.58661 0
M  V30 28618 H 2785.63 -0.75257 0.0464233 0
M  V30 28619 H 2788.28 -1.65581 0.790898 0
M  V30 28620 H 2786.66 -3.92376 -0.534515 0
M  V30 28621 H 2787.84 -3.97905 2.32396 0
M  V30 28622 H 2786.15 -3.67284 1.96192 0
M  V30 28623 H 2788.75 -5.34048 -0.26399 0
M  V30 28624 H 2789.09 -3.96152 -1.27944 0
M  V30 28625 H 2789.63 -3.95584 0.419329 0
M  V30 28626 H 2786.37 -6.02055 2.59248 0
M  V30 28627 H 2785.89 -5.93278 0.882143 0
M  V30 28628 H 2787.56 -6.33372 1.32093 0
M  V30 28629 N 2787.7 -0.372575 -1.53133 0
M  V30 28630 C 2788.63 0.462372 -2.28876 0
M  V30 28631 C 2789.61 1.07793 -1.31585 0
M  V30 28632 O 2790.79 1.09387 -1.60462 0
M  V30 28633 C 2787.92 1.59863 -3.0832 0
M  V30 28634 C 2786.88 1.10996 -4.13357 0
M  V30 28635 C 2786.2 2.337 -4.80925 0
M  V30 28636 C 2787.5 0.189738 -5.21955 0
M  V30 28637 H 2789.2 -0.169563 -2.98919 0
M  V30 28638 H 2786.74 -0.0829911 -1.43761 0
M  V30 28639 H 2788.7 2.18942 -3.60059 0
M  V30 28640 H 2787.42 2.2579 -2.3598 0
M  V30 28641 H 2786.08 0.541805 -3.62574 0
M  V30 28642 H 2785.73 2.98099 -4.05149 0
M  V30 28643 H 2785.43 2.01672 -5.51908 0
M  V30 28644 H 2786.95 2.93453 -5.35461 0
M  V30 28645 H 2788.36 0.688219 -5.69154 0
M  V30 28646 H 2786.76 -0.0399942 -6.00087 0
M  V30 28647 H 2787.83 -0.766141 -4.78809 0
M  V30 28648 N 2789.17 1.5727 -0.101929 0
M  V30 28649 C 2790.4 1.99364 0.571724 0
M  V30 28650 C 2790.82 0.980796 1.60505 0
M  V30 28651 O 2790.18 -0.0498199 1.81232 0
M  V30 28652 C 2790.23 3.40402 1.1899 0
M  V30 28653 O 2789.33 3.41926 2.30566 0
M  V30 28654 H 2788.68 0.6481 0.144437 0
M  V30 28655 H 2791.21 2.03759 -0.185361 0
M  V30 28656 H 2791.22 3.78244 1.52955 0
M  V30 28657 H 2789.89 4.13641 0.432911 0
M  V30 28658 H 2788.47 3.15886 1.98167 0
M  V30 28659 N 2790.65 -0.171793 1.56661 0
M  V30 28660 C 2792.06 -0.734299 1.71654 0
M  V30 28661 C 2792.41 -1.82811 0.712367 0
M  V30 28662 O 2791.54 -2.16031 -0.126363 0
M  V30 28663 C 2792.13 -1.33874 3.11228 0
M  V30 28664 C 2790.69 -1.84808 3.27907 0
M  V30 28665 C 2789.84 -0.72687 2.67604 0
M  V30 28666 H 2792.79 0.0535944 1.58609 0
M  V30 28667 H 2792.81 -2.20843 3.09853 0
M  V30 28668 H 2792.32 -0.542423 3.84291 0
M  V30 28669 H 2790.43 -2.67085 2.59801 0
M  V30 28670 H 2790.54 -1.99384 4.35641 0
M  V30 28671 H 2788.9 -1.14719 2.27402 0
M  V30 28672 H 2789.69 0.0575937 3.43252 0
M  V30 28673 N 2792.13 -1.51324 -0.44033 0
M  V30 28674 C 2793.38 -1.6352 -1.18767 0
M  V30 28675 C 2793.7 -0.352234 -1.91792 0
M  V30 28676 O 2792.97 0.631779 -1.85433 0
M  V30 28677 H 2791.55 -0.602642 -0.441398 0
M  V30 28678 H 2794.21 -1.8824 -0.505129 0
M  V30 28679 H 2793.31 -2.46141 -1.91887 0
M  V30 28680 N 2793.61 0.695578 -1.41419 0
M  V30 28681 C 2794.57 1.79126 -1.42991 0
M  V30 28682 C 2795.57 1.57573 -0.320542 0
M  V30 28683 O 2796.76 1.64246 -0.580419 0
M  V30 28684 C 2793.89 3.17498 -1.24128 0
M  V30 28685 H 2795.09 1.79125 -2.40529 0
M  V30 28686 H 2792.64 0.903203 -1.27562 0
M  V30 28687 H 2793.37 3.23138 -0.274309 0
M  V30 28688 H 2793.16 3.34544 -2.04506 0
M  V30 28689 H 2794.65 3.97479 -1.28063 0
M  V30 28690 N 2795.09 1.27247 0.929833 0
M  V30 28691 C 2796.02 1.12303 2.0472 0
M  V30 28692 C 2797 0.0250762 1.70082 0
M  V30 28693 O 2798.18 0.199175 1.93176 0
M  V30 28694 C 2795.31 0.767204 3.3872 0
M  V30 28695 C 2794.27 1.81815 3.87463 0
M  V30 28696 C 2793.59 1.31635 5.18243 0
M  V30 28697 C 2794.89 3.22184 4.1109 0
M  V30 28698 H 2796.59 2.05773 2.17481 0
M  V30 28699 H 2794.13 0.990734 1.04501 0
M  V30 28700 H 2796.09 0.649486 4.16365 0
M  V30 28701 H 2794.81 -0.203201 3.25967 0
M  V30 28702 H 2793.47 1.92474 3.12009 0
M  V30 28703 H 2793.12 0.335466 5.0188 0
M  V30 28704 H 2792.82 2.01897 5.51826 0
M  V30 28705 H 2794.34 1.21153 5.9846 0
M  V30 28706 H 2795.76 3.14538 4.79311 0
M  V30 28707 H 2794.15 3.90137 4.55975 0
M  V30 28708 H 2795.22 3.67396 3.16462 0
M  V30 28709 N 2796.57 -1.13603 1.09235 0
M  V30 28710 C 2797.81 -1.85108 0.828417 0
M  V30 28711 C 2798.14 -1.83199 -0.644337 0
M  V30 28712 O 2797.42 -1.26869 -1.47426 0
M  V30 28713 C 2797.7 -3.3336 1.36172 0
M  V30 28714 C 2797.56 -3.43794 2.90044 0
M  V30 28715 C 2798.87 -4.2873 0.993895 0
M  V30 28716 H 2795.99 -0.672103 0.302402 0
M  V30 28717 H 2798.64 -1.33352 1.35341 0
M  V30 28718 H 2796.79 -3.77567 0.915166 0
M  V30 28719 H 2798.46 -3.08313 3.43134 0
M  V30 28720 H 2796.7 -2.84733 3.27276 0
M  V30 28721 H 2797.37 -4.48039 3.22436 0
M  V30 28722 H 2799.85 -3.92585 1.379 0
M  V30 28723 H 2798.72 -5.309 1.39413 0
M  V30 28724 H 2798.98 -4.41991 -0.0981429 0
M  V30 28725 N 2798.04 -0.879253 -1.30793 0
M  V30 28726 C 2799.29 -0.495553 -1.96652 0
M  V30 28727 C 2799.62 0.951673 -1.69283 0
M  V30 28728 O 2798.9 1.67158 -0.994403 0
M  V30 28729 C 2799.18 -0.764236 -3.51897 0
M  V30 28730 C 2799.03 -2.26167 -3.88804 0
M  V30 28731 C 2800.35 -0.236902 -4.39462 0
M  V30 28732 H 2797.47 -0.181519 -0.714297 0
M  V30 28733 H 2800.11 -1.1022 -1.54763 0
M  V30 28734 H 2798.26 -0.247909 -3.87708 0
M  V30 28735 H 2799.94 -2.84597 -3.63046 0
M  V30 28736 H 2798.18 -2.73059 -3.37078 0
M  V30 28737 H 2798.85 -2.40029 -4.97082 0
M  V30 28738 H 2801.33 -0.678755 -4.10527 0
M  V30 28739 H 2800.2 -0.454272 -5.47017 0
M  V30 28740 H 2800.46 0.861606 -4.33623 0
M  V30 28741 N 2799.52 1.44037 -0.639624 0
M  V30 28742 C 2800.77 2.01563 -0.147224 0
M  V30 28743 C 2801.09 1.5063 1.23837 0
M  V30 28744 O 2800.36 0.713348 1.8245 0
M  V30 28745 H 2798.94 0.745227 -0.0514362 0
M  V30 28746 H 2801.6 1.76426 -0.828236 0
M  V30 28747 H 2800.7 3.11864 -0.121412 0
M  V30 28748 N 2801 0.380691 1.52933 0
M  V30 28749 C 2802.25 -0.204545 2.01766 0
M  V30 28750 C 2802.58 -1.47177 1.26699 0
M  V30 28751 O 2801.85 -1.91045 0.36497 0
M  V30 28752 C 2802.14 -0.481206 3.5687 0
M  V30 28753 C 2801.99 0.800707 4.42616 0
M  V30 28754 C 2803.31 -1.27547 4.21212 0
M  V30 28755 H 2800.43 -0.0728674 0.733389 0
M  V30 28756 H 2803.07 0.508562 1.83067 0
M  V30 28757 H 2801.22 -1.08869 3.72934 0
M  V30 28758 H 2802.89 1.43781 4.3832 0
M  V30 28759 H 2801.13 1.41787 4.09974 0
M  V30 28760 H 2801.81 0.561888 5.49133 0
M  V30 28761 H 2804.28 -0.761442 4.09074 0
M  V30 28762 H 2803.16 -1.43779 5.29735 0
M  V30 28763 H 2803.42 -2.28827 3.78273 0
M  V30 28764 N 2802.48 -1.57214 0.110268 0
M  V30 28765 C 2803.72 -1.95181 -0.55065 0
M  V30 28766 C 2804.06 -0.993151 -1.66884 0
M  V30 28767 O 2803.33 -0.0288249 -1.94479 0
M  V30 28768 C 2803.61 -3.43157 -1.09157 0
M  V30 28769 C 2803.47 -4.49794 0.0225989 0
M  V30 28770 C 2804.79 -3.92782 -1.98521 0
M  V30 28771 H 2801.91 -0.709711 -0.198694 0
M  V30 28772 H 2804.55 -1.89106 0.184057 0
M  V30 28773 H 2802.7 -3.48465 -1.71769 0
M  V30 28774 H 2804.37 -4.5659 0.657524 0
M  V30 28775 H 2802.61 -4.28326 0.686943 0
M  V30 28776 H 2803.28 -5.50571 -0.396963 0
M  V30 28777 H 2805.76 -3.89723 -1.45793 0
M  V30 28778 H 2804.64 -4.96857 -2.33289 0
M  V30 28779 H 2804.9 -3.32963 -2.90841 0
M  V30 28780 N 2803.96 0.163482 -1.5675 0
M  V30 28781 C 2805.2 0.885238 -1.84236 0
M  V30 28782 C 2805.56 1.79085 -0.692291 0
M  V30 28783 O 2806.76 2.5508 -0.847792 0
M  V30 28784 C 2805.03 1.65331 -3.1686 0
M  V30 28785 S 2806.59 2.42276 -3.65852 0
M  V30 28786 H 2803.41 0.296343 -0.646299 0
M  V30 28787 H 2806.01 0.146331 -1.94952 0
M  V30 28788 H 2804.71 0.979196 -3.98547 0
M  V30 28789 H 2804.25 2.43345 -3.09107 0
M  V30 28790 H 2806.26 3.67138 -3.33803 0
M  V30 28791 N 2805.43 1.51555 0.432299 0
M  V30 28792 C 2806.4 1.72636 1.50762 0
M  V30 28793 C 2807.4 0.59634 1.49333 0
M  V30 28794 O 2808.59 0.863952 1.51266 0
M  V30 28795 C 2805.72 1.78746 2.90281 0
M  V30 28796 H 2806.91 2.68611 1.33372 0
M  V30 28797 H 2804.46 1.41621 0.661304 0
M  V30 28798 H 2805.2 0.846032 3.1307 0
M  V30 28799 H 2804.98 2.60875 2.92723 0
M  V30 28800 H 2806.47 1.96877 3.68279 0
M  V30 28801 N 2806.91 -0.688069 1.41786 0
M  V30 28802 C 2807.87 -1.78365 1.43939 0
M  V30 28803 C 2808.87 -1.57401 0.328894 0
M  V30 28804 O 2810.06 -1.63936 0.589121 0
M  V30 28805 C 2807.2 -3.16835 1.2581 0
M  V30 28806 H 2808.39 -1.77847 2.41475 0
M  V30 28807 H 2805.94 -0.896425 1.28039 0
M  V30 28808 H 2806.68 -3.22988 0.291442 0
M  V30 28809 H 2806.46 -3.33455 2.06278 0
M  V30 28810 H 2807.95 -3.96794 1.30169 0
M  V30 28811 N 2808.39 -1.27739 -0.923072 0
M  V30 28812 C 2809.64 -1.13729 -1.66579 0
M  V30 28813 C 2809.95 0.315399 -1.9304 0
M  V30 28814 O 2811.16 0.576464 -2.6531 0
M  V30 28815 C 2809.61 -1.9875 -3.00044 0
M  V30 28816 C 2809.22 -3.48704 -2.81264 0
M  V30 28817 C 2810.97 -1.93402 -3.77883 0
M  V30 28818 C 2808.87 -4.25908 -4.10313 0
M  V30 28819 H 2807.8 -0.422028 -0.624827 0
M  V30 28820 H 2810.45 -1.52196 -1.02511 0
M  V30 28821 H 2808.84 -1.53132 -3.65194 0
M  V30 28822 H 2810.01 -4.02217 -2.24852 0
M  V30 28823 H 2808.32 -3.5548 -2.16848 0
M  V30 28824 H 2810.92 -2.48357 -4.73522 0
M  V30 28825 H 2811.26 -0.908676 -4.06262 0
M  V30 28826 H 2811.8 -2.3694 -3.19537 0
M  V30 28827 H 2808.54 -5.28985 -3.87111 0
M  V30 28828 H 2808.06 -3.77171 -4.66371 0
M  V30 28829 H 2809.74 -4.3533 -4.78641 0
M  V30 28830 N 2809.87 1.13022 -1.09836 0
M  V30 28831 C 2810.8 2.20665 -0.76349 0
M  V30 28832 C 2811.78 1.6809 0.260748 0
M  V30 28833 O 2812.96 1.93778 0.127881 0
M  V30 28834 C 2810.09 3.46792 -0.187805 0
M  V30 28835 C 2809.05 4.12482 -1.14203 0
M  V30 28836 C 2808.37 5.32986 -0.427849 0
M  V30 28837 C 2809.67 4.59334 -2.48615 0
M  V30 28838 H 2811.37 2.48933 -1.66351 0
M  V30 28839 H 2808.91 1.19647 -0.801282 0
M  V30 28840 H 2810.87 4.21359 0.0585635 0
M  V30 28841 H 2809.59 3.17932 0.747429 0
M  V30 28842 H 2808.25 3.39888 -1.37375 0
M  V30 28843 H 2807.9 5.00391 0.511659 0
M  V30 28844 H 2807.6 5.77884 -1.06413 0
M  V30 28845 H 2809.12 6.10305 -0.189879 0
M  V30 28846 H 2810.54 5.25304 -2.29628 0
M  V30 28847 H 2808.93 5.14988 -3.08071 0
M  V30 28848 H 2810 3.73637 -3.09069 0
M  V30 28849 N 2811.35 0.886177 1.30325 0
M  V30 28850 C 2812.76 0.580349 1.48675 0
M  V30 28851 C 2812.96 -0.881608 1.8119 0
M  V30 28852 O 2812.02 -1.66275 1.90024 0
M  V30 28853 C 2813.33 1.49453 2.6093 0
M  V30 28854 C 2814.88 1.49829 2.7481 0
M  V30 28855 C 2815.35 2.39843 3.90179 0
M  V30 28856 N 2816.85 2.37813 3.97491 0
M  V30 28857 C 2817.58 3.04173 4.86072 0
M  V30 28858 N 2817.08 3.79763 5.79441 0
M  V30 28859 N 2818.87 2.93399 4.79451 0
M  V30 28860 H 2811.02 1.83192 1.07492 0
M  V30 28861 H 2813.28 0.784213 0.532647 0
M  V30 28862 H 2812.99 2.53555 2.43727 0
M  V30 28863 H 2812.86 1.205 3.57435 0
M  V30 28864 H 2815.25 0.464782 2.91417 0
M  V30 28865 H 2815.33 1.82814 1.78921 0
M  V30 28866 H 2814.98 3.4328 3.74328 0
M  V30 28867 H 2814.91 2.04174 4.85408 0
M  V30 28868 H 2817.4 1.82883 3.30699 0
M  V30 28869 H 2817.71 4.27486 6.43798 0
M  V30 28870 H 2816.05 3.8387 5.79369 0
M  V30 28871 H 2819.25 2.33872 4.05489 0
M  V30 28872 H 2819.42 3.45393 5.48277 0
M  V30 28873 N 2812.82 -1.43695 0.647253 0
M  V30 28874 C 2814.24 -1.56475 0.314283 0
M  V30 28875 C 2814.44 -1.63198 -1.18189 0
M  V30 28876 O 2813.5 -1.58379 -1.96652 0
M  V30 28877 C 2814.81 -2.82858 1.02039 0
M  V30 28878 C 2816.36 -2.96593 1.00007 0
M  V30 28879 C 2816.83 -4.258 1.68696 0
M  V30 28880 N 2818.32 -4.32651 1.65432 0
M  V30 28881 C 2819.06 -5.3138 2.1546 0
M  V30 28882 N 2818.55 -6.36422 2.7375 0
M  V30 28883 N 2820.35 -5.22994 2.05994 0
M  V30 28884 H 2812.5 -1.37575 1.61824 0
M  V30 28885 H 2814.76 -0.660332 0.680195 0
M  V30 28886 H 2814.47 -2.83931 2.07547 0
M  V30 28887 H 2814.34 -3.72896 0.568211 0
M  V30 28888 H 2816.73 -2.95063 -0.0465801 0
M  V30 28889 H 2816.81 -2.0786 1.4909 0
M  V30 28890 H 2816.45 -4.2809 2.73315 0
M  V30 28891 H 2816.38 -5.13419 1.17085 0
M  V30 28892 H 2818.87 -3.5736 1.2289 0
M  V30 28893 H 2819.19 -7.08067 3.09614 0
M  V30 28894 H 2817.53 -6.37062 2.77808 0
M  V30 28895 H 2820.72 -4.39846 1.60165 0
M  V30 28896 H 2820.9 -5.9978 2.45292 0
M  V30 28897 N 2814.3 -0.388796 -1.52729 0
M  V30 28898 C 2815.25 0.463528 -2.23238 0
M  V30 28899 C 2816.24 1.03005 -1.23608 0
M  V30 28900 O 2817.43 0.956235 -1.48947 0
M  V30 28901 C 2814.56 1.59055 -3.04231 0
M  V30 28902 C 2813.64 1.03579 -4.11257 0
M  V30 28903 N 2814.03 0.205949 -5.05381 0
M  V30 28904 C 2812.33 1.30834 -4.26378 0
M  V30 28905 C 2813.03 -0.100461 -5.81613 0
M  V30 28906 N 2812.01 0.503352 -5.41265 0
M  V30 28907 H 2815.81 -0.17703 -2.93366 0
M  V30 28908 H 2813.33 -0.198074 -1.61188 0
M  V30 28909 H 2815.32 2.21356 -3.53281 0
M  V30 28910 H 2813.98 2.23393 -2.35638 0
M  V30 28911 H 2814.99 -0.15675 -5.17663 0
M  V30 28912 H 2811.67 1.9528 -3.69015 0
M  V30 28913 H 2813.06 -0.772793 -6.67441 0
M  V30 28914 N 2815.78 1.57153 -0.118604 0
M  V30 28915 C 2817.03 1.9547 0.540291 0
M  V30 28916 C 2817.36 1.00199 1.66355 0
M  V30 28917 O 2816.63 0.0391382 1.94461 0
M  V30 28918 C 2816.92 3.43731 1.07336 0
M  V30 28919 C 2816.77 4.49776 -0.0464523 0
M  V30 28920 C 2818.09 3.93829 1.96435 0
M  V30 28921 H 2815.21 0.710755 0.194927 0
M  V30 28922 H 2817.85 1.89006 -0.194083 0
M  V30 28923 H 2816 3.49371 1.69918 0
M  V30 28924 H 2817.67 4.56235 -0.681729 0
M  V30 28925 H 2815.92 4.27956 -0.709649 0
M  V30 28926 H 2816.59 5.50774 0.36776 0
M  V30 28927 H 2819.06 3.9049 1.43724 0
M  V30 28928 H 2817.94 4.98088 2.30651 0
M  V30 28929 H 2818.2 3.345 2.89071 0
M  V30 28930 N 2817.26 -0.155167 1.56834 0
M  V30 28931 C 2818.51 -0.86743 1.82538 0
M  V30 28932 C 2818.83 -1.82072 0.6982 0
M  V30 28933 O 2818.1 -1.93877 -0.280773 0
M  V30 28934 H 2816.68 -0.323315 0.673407 0
M  V30 28935 H 2819.34 -0.151122 1.94313 0
M  V30 28936 H 2818.44 -1.43461 2.77174 0
M  V30 28937 N 2818.74 -1.51782 -0.424256 0
M  V30 28938 C 2820.15 -1.57428 -1.00365 0
M  V30 28939 C 2820.5 -0.405614 -1.91961 0
M  V30 28940 O 2819.62 0.475972 -2.11101 0
M  V30 28941 C 2820.22 -2.85316 -1.82702 0
M  V30 28942 C 2818.78 -2.93491 -2.35669 0
M  V30 28943 C 2817.92 -2.52222 -1.15235 0
M  V30 28944 H 2820.88 -1.5737 -0.205037 0
M  V30 28945 H 2820.9 -2.69817 -2.68289 0
M  V30 28946 H 2820.41 -3.70355 -1.16011 0
M  V30 28947 H 2818.51 -2.12912 -3.05777 0
M  V30 28948 H 2818.62 -3.9742 -2.67571 0
M  V30 28949 H 2816.99 -2.05721 -1.5017 0
M  V30 28950 H 2817.77 -3.3962 -0.501341 0
M  V30 28951 N 2820.21 0.68054 -1.42149 0
M  V30 28952 C 2821.46 1.43776 -1.42031 0
M  V30 28953 C 2821.78 1.94967 -0.035669 0
M  V30 28954 O 2821.05 1.72691 0.924906 0
M  V30 28955 H 2819.63 0.533519 -0.522844 0
M  V30 28956 H 2822.3 0.804507 -1.77521 0
M  V30 28957 H 2821.39 2.29359 -2.11662 0
M  V30 28958 N 2821.69 1.28226 0.916285 0
M  V30 28959 C 2822.6 1.13778 2.05163 0
M  V30 28960 C 2823.62 0.0649724 1.73879 0
M  V30 28961 O 2824.79 0.273757 1.99531 0
M  V30 28962 C 2821.86 0.798326 3.37384 0
M  V30 28963 C 2820.92 1.95323 3.82292 0
M  V30 28964 C 2820.15 1.62987 5.08204 0
M  V30 28965 O 2820.38 0.543048 5.67809 0
M  V30 28966 O 2819.31 2.4727 5.48763 0
M  V30 28967 H 2823.14 2.09082 2.20269 0
M  V30 28968 H 2820.72 1.07521 1.03728 0
M  V30 28969 H 2822.6 0.622853 4.16772 0
M  V30 28970 H 2821.28 -0.125082 3.23458 0
M  V30 28971 H 2820.19 2.18384 3.03742 0
M  V30 28972 H 2821.52 2.85725 4.00777 0
M  V30 28973 N 2823.17 -1.12438 1.10433 0
M  V30 28974 C 2824.42 -1.83583 0.845077 0
M  V30 28975 C 2824.74 -1.84504 -0.631136 0
M  V30 28976 O 2824.01 -1.30815 -1.45823 0
M  V30 28977 H 2822.59 -0.679803 0.30964 0
M  V30 28978 H 2825.25 -1.3615 1.3946 0
M  V30 28979 H 2824.35 -2.87778 1.20791 0
M  V30 28980 N 2824.65 -0.893076 -1.29853 0
M  V30 28981 C 2825.61 -0.370727 -2.26182 0
M  V30 28982 C 2826.61 0.491358 -1.53109 0
M  V30 28983 O 2827.8 0.297356 -1.71643 0
M  V30 28984 C 2824.93 0.470768 -3.37634 0
M  V30 28985 H 2826.13 -1.2214 -2.73901 0
M  V30 28986 H 2823.68 -0.670635 -1.41181 0
M  V30 28987 H 2824.42 1.3417 -2.95244 0
M  V30 28988 H 2824.2 -0.146853 -3.91825 0
M  V30 28989 H 2825.69 0.827753 -4.09314 0
M  V30 28990 N 2826.13 1.4335 -0.654865 0
M  V30 28991 C 2827.37 2.02093 -0.169178 0
M  V30 28992 C 2827.71 1.51555 1.21428 0
M  V30 28993 O 2826.98 0.709348 1.81104 0
M  V30 28994 C 2827.26 3.59641 -0.181838 0
M  V30 28995 C 2827.12 4.20406 -1.59933 0
M  V30 28996 C 2828.44 4.37465 0.480868 0
M  V30 28997 H 2825.56 0.734307 -0.0629501 0
M  V30 28998 H 2828.2 1.70626 -0.835863 0
M  V30 28999 H 2826.35 3.86579 0.38585 0
M  V30 29000 H 2828.02 4.04493 -2.21773 0
M  V30 29001 H 2826.26 3.76994 -2.14612 0
M  V30 29002 H 2826.93 5.29497 -1.56003 0
M  V30 29003 H 2829.41 4.161 -0.00215586 0
M  V30 29004 H 2828.29 5.47123 0.441288 0
M  V30 29005 H 2828.55 4.13841 1.55526 0
M  V30 29006 N 2827.61 0.39689 1.52521 0
M  V30 29007 C 2828.54 -0.469774 2.24334 0
M  V30 29008 C 2829.55 -1.02041 1.26852 0
M  V30 29009 O 2830.74 -0.921444 1.52878 0
M  V30 29010 C 2827.84 -1.66455 2.95205 0
M  V30 29011 C 2827.01 -1.23996 4.19456 0
M  V30 29012 C 2826.07 -2.30027 4.73259 0
M  V30 29013 O 2825.1 -1.91122 5.36154 0
M  V30 29014 N 2826.3 -3.62039 4.53771 0
M  V30 29015 H 2829.06 0.14552 2.99347 0
M  V30 29016 H 2826.63 0.223635 1.60348 0
M  V30 29017 H 2828.62 -2.36929 3.28096 0
M  V30 29018 H 2827.19 -2.18603 2.23454 0
M  V30 29019 H 2826.41 -0.363823 3.92517 0
M  V30 29020 H 2827.7 -0.933047 5.00172 0
M  V30 29021 H 2827.09 -3.96405 4.03583 0
M  V30 29022 H 2825.65 -4.28524 4.91132 0
M  V30 29023 N 2829.08 -1.57088 0.126936 0
M  V30 29024 C 2830.33 -1.96544 -0.523628 0
M  V30 29025 C 2830.68 -1.00963 -1.63781 0
M  V30 29026 O 2829.98 -0.0410512 -1.91556 0
M  V30 29027 C 2830.17 -3.40214 -1.09494 0
M  V30 29028 C 2830 -4.49684 -0.037636 0
M  V30 29029 C 2828.77 -5.03739 0.396912 0
M  V30 29030 C 2830.97 -5.08856 0.746334 0
M  V30 29031 N 2828.95 -5.96793 1.43916 0
M  V30 29032 C 2830.32 -5.97928 1.63957 0
M  V30 29033 C 2832.38 -4.9149 0.796346 0
M  V30 29034 C 2831.08 -6.71496 2.57849 0
M  V30 29035 C 2833.11 -5.65744 1.723 0
M  V30 29036 C 2832.47 -6.54509 2.6038 0
M  V30 29037 H 2828.57 -0.765246 -0.161003 0
M  V30 29038 H 2831.15 -1.93488 0.216894 0
M  V30 29039 H 2829.32 -3.43903 -1.80515 0
M  V30 29040 H 2831.05 -3.66776 -1.71047 0
M  V30 29041 H 2827.81 -4.736 0.00298731 0
M  V30 29042 H 2828.23 -6.48024 1.95944 0
M  V30 29043 H 2832.87 -4.22602 0.129487 0
M  V30 29044 H 2830.59 -7.39626 3.25545 0
M  V30 29045 H 2834.18 -5.5431 1.76724 0
M  V30 29046 H 2833.06 -7.10959 3.30919 0
M  V30 29047 N 2830.56 0.146848 -1.56914 0
M  V30 29048 C 2831.49 1.21084 -1.93427 0
M  V30 29049 C 2832.47 1.41551 -0.800131 0
M  V30 29050 O 2833.66 1.56161 -1.05575 0
M  V30 29051 C 2830.78 2.56971 -2.20643 0
M  V30 29052 C 2829.83 2.53098 -3.43284 0
M  V30 29053 S 2830.66 1.99778 -4.96839 0
M  V30 29054 C 2831.82 3.37394 -5.27178 0
M  V30 29055 H 2832.05 0.899328 -2.83371 0
M  V30 29056 H 2829.58 0.352468 -1.50323 0
M  V30 29057 H 2831.54 3.35171 -2.37004 0
M  V30 29058 H 2830.2 2.85312 -1.31363 0
M  V30 29059 H 2829.4 3.53129 -3.59605 0
M  V30 29060 H 2829 1.83007 -3.26166 0
M  V30 29061 H 2831.29 4.33503 -5.20654 0
M  V30 29062 H 2832.23 3.25926 -6.28632 0
M  V30 29063 H 2832.64 3.34536 -4.54693 0
M  V30 29064 N 2832.04 1.52005 0.4162 0
M  V30 29065 C 2832.99 1.75443 1.52717 0
M  V30 29066 C 2833.98 0.621316 1.57594 0
M  V30 29067 O 2835.19 0.8032 1.61086 0
M  V30 29068 H 2831.56 0.554691 0.507762 0
M  V30 29069 H 2833.53 2.6853 1.30131 0
M  V30 29070 C 2832.28 1.91576 2.90162 0
M  V30 29071 H 2831.61 2.78183 2.87149 0
M  V30 29072 H 2833.05 2.11978 3.67207 0
M  V30 29073 C 2831.5 0.681 3.29945 0
M  V30 29074 O 2832.03 -0.154457 4.01403 0
M  V30 29075 N 2830.24 0.518944 2.85929 0
M  V30 29076 H 2829.79 1.1999 2.27948 0
M  V30 29077 H 2829.75 -0.30593 3.12908 0
M  V30 29078 N 2833.52 -0.672992 1.42508 0
M  V30 29079 C 2834.93 -0.986333 1.25474 0
M  V30 29080 C 2835.13 -2.00862 0.160217 0
M  V30 29081 O 2834.19 -2.48126 -0.467949 0
M  V30 29082 C 2835.5 -1.48942 2.61222 0
M  V30 29083 C 2837.05 -1.6071 2.68591 0
M  V30 29084 C 2837.53 -2.14414 4.0471 0
M  V30 29085 N 2839.02 -2.21745 4.06674 0
M  V30 29086 C 2839.75 -2.64377 5.08814 0
M  V30 29087 N 2839.25 -3.06449 6.21338 0
M  V30 29088 N 2841.04 -2.64142 4.96171 0
M  V30 29089 H 2833.19 0.00382266 2.124 0
M  V30 29090 H 2835.45 -0.06082 0.946047 0
M  V30 29091 H 2835.16 -0.812752 3.4218 0
M  V30 29092 H 2835.03 -2.46786 2.85266 0
M  V30 29093 H 2837.42 -2.27483 1.87978 0
M  V30 29094 H 2837.5 -0.613509 2.48334 0
M  V30 29095 H 2837.15 -1.4825 4.85782 0
M  V30 29096 H 2837.08 -3.14568 4.22321 0
M  V30 29097 H 2839.57 -1.92084 3.25442 0
M  V30 29098 H 2839.88 -3.37672 6.95124 0
M  V30 29099 H 2838.23 -3.04302 6.2484 0
M  V30 29100 H 2841.42 -2.30637 4.07338 0
M  V30 29101 H 2841.59 -2.97047 5.75906 0
M  V30 29102 N 2835 -1.2871 -0.909472 0
M  V30 29103 C 2835.93 -1.15545 -2.02908 0
M  V30 29104 C 2836.91 -0.0521316 -1.7002 0
M  V30 29105 O 2838.09 -0.229883 -1.92835 0
M  V30 29106 C 2835.22 -0.820994 -3.37457 0
M  V30 29107 C 2834.18 -1.87956 -3.84521 0
M  V30 29108 C 2833.5 -1.39864 -5.16084 0
M  V30 29109 C 2834.8 -3.28683 -4.05912 0
M  V30 29110 H 2836.5 -2.09207 -2.1418 0
M  V30 29111 H 2834.04 -1.00723 -1.02912 0
M  V30 29112 H 2835.99 -0.715644 -4.15279 0
M  V30 29113 H 2834.72 0.151317 -3.26249 0
M  V30 29114 H 2833.38 -1.97413 -3.08907 0
M  V30 29115 H 2833.03 -0.415268 -5.01283 0
M  V30 29116 H 2832.73 -2.1065 -5.48544 0
M  V30 29117 H 2834.25 -1.30659 -5.96457 0
M  V30 29118 H 2835.66 -3.22124 -4.74246 0
M  V30 29119 H 2834.06 -3.97342 -4.4971 0
M  V30 29120 H 2835.13 -3.72385 -3.10576 0
M  V30 29121 N 2836.47 1.1185 -1.11028 0
M  V30 29122 C 2837.72 1.82855 -0.851281 0
M  V30 29123 C 2838.04 1.85342 0.625108 0
M  V30 29124 O 2839.24 2.52404 1.00022 0
M  V30 29125 C 2837.7 3.28369 -1.47314 0
M  V30 29126 C 2837.31 3.34224 -2.98326 0
M  V30 29127 C 2839.05 4.04303 -1.2938 0
M  V30 29128 C 2836.96 4.74109 -3.53517 0
M  V30 29129 H 2835.89 0.685137 -0.314806 0
M  V30 29130 H 2838.54 1.25896 -1.33501 0
M  V30 29131 H 2836.92 3.85234 -0.917085 0
M  V30 29132 H 2838.09 2.87264 -3.603 0
M  V30 29133 H 2836.41 2.71767 -3.15486 0
M  V30 29134 H 2839.01 5.07605 -1.68051 0
M  V30 29135 H 2839.35 4.15631 -0.235952 0
M  V30 29136 H 2839.88 3.53814 -1.81826 0
M  V30 29137 H 2836.62 4.67978 -4.58996 0
M  V30 29138 H 2836.14 5.21496 -2.96314 0
M  V30 29139 H 2837.82 5.4306 -3.51703 0
M  V30 29140 N 2837.95 0.89995 1.29378 0
M  V30 29141 C 2838.91 0.382716 2.25982 0
M  V30 29142 C 2839.91 -0.483232 1.53367 0
M  V30 29143 O 2841.1 -0.288249 1.71799 0
M  V30 29144 C 2838.24 -0.452855 3.37879 0
M  V30 29145 H 2839.43 1.23591 2.7325 0
M  V30 29146 H 2836.98 0.678113 1.40824 0
M  V30 29147 H 2837.72 -1.32602 2.95951 0
M  V30 29148 H 2837.5 0.167631 3.91742 0
M  V30 29149 H 2838.99 -0.806035 4.09747 0
M  V30 29150 N 2839.43 -1.43001 0.662458 0
M  V30 29151 C 2840.68 -2.01702 0.179627 0
M  V30 29152 C 2841.01 -1.52311 -1.20961 0
M  V30 29153 O 2840.26 -0.710632 -1.82342 0
M  V30 29154 C 2840.56 -3.57087 0.149426 0
M  V30 29155 C 2840.23 -4.25861 1.48166 0
M  V30 29156 C 2838.89 -4.44364 1.84646 0
M  V30 29157 C 2841.24 -4.64728 2.35961 0
M  V30 29158 C 2838.57 -4.99001 3.0857 0
M  V30 29159 C 2840.92 -5.20739 3.59185 0
M  V30 29160 C 2839.58 -5.37456 3.9585 0
M  V30 29161 H 2838.85 -0.738079 0.0657301 0
M  V30 29162 H 2841.5 -1.71354 0.854999 0
M  V30 29163 H 2839.81 -3.87031 -0.609423 0
M  V30 29164 H 2841.5 -4.00274 -0.241171 0
M  V30 29165 H 2838.09 -4.11811 1.18784 0
M  V30 29166 H 2842.28 -4.50117 2.09066 0
M  V30 29167 H 2837.53 -5.10129 3.37014 0
M  V30 29168 H 2841.71 -5.498 4.27426 0
M  V30 29169 H 2839.33 -5.79557 4.91953 0
M  V30 29170 N 2840.91 -0.404973 -1.52308 0
M  V30 29171 C 2841.87 0.410612 -2.25492 0
M  V30 29172 C 2842.87 0.977132 -1.27706 0
M  V30 29173 O 2844.06 0.856665 -1.5168 0
M  V30 29174 C 2841.19 1.5776 -3.022 0
M  V30 29175 H 2842.39 -0.230329 -2.99014 0
M  V30 29176 H 2839.94 -0.157405 -1.55505 0
M  V30 29177 H 2840.67 2.25552 -2.33016 0
M  V30 29178 H 2840.46 1.17791 -3.73989 0
M  V30 29179 H 2841.95 2.15463 -3.57723 0
M  V30 29180 N 2842.39 1.57018 -0.135265 0
M  V30 29181 C 2843.61 2.00532 0.529308 0
M  V30 29182 C 2844.04 1.01462 1.58389 0
M  V30 29183 O 2843.39 -0.0113668 1.81296 0
M  V30 29184 C 2843.44 3.4285 1.11742 0
M  V30 29185 O 2842.55 3.46739 2.23261 0
M  V30 29186 H 2841.89 0.651018 0.130658 0
M  V30 29187 H 2844.42 2.0332 -0.228539 0
M  V30 29188 H 2844.43 3.81403 1.44898 0
M  V30 29189 H 2843.1 4.14466 0.345074 0
M  V30 29190 H 2841.68 3.20019 1.91422 0
M  V30 29191 N 2843.86 -0.138524 1.5699 0
M  V30 29192 C 2845.28 -0.491446 1.51845 0
M  V30 29193 C 2845.48 -1.82922 0.845095 0
M  V30 29194 O 2844.54 -2.48996 0.419187 0
M  V30 29195 C 2845.85 -0.493935 2.96616 0
M  V30 29196 C 2847.4 -0.578859 3.07601 0
M  V30 29197 C 2847.87 -0.611929 4.53894 0
M  V30 29198 N 2849.36 -0.673916 4.58271 0
M  V30 29199 C 2850.1 -0.720629 5.68854 0
M  V30 29200 N 2849.59 -0.72617 6.88984 0
M  V30 29201 N 2851.39 -0.762155 5.56909 0
M  V30 29202 H 2843.54 0.738263 1.99157 0
M  V30 29203 H 2845.8 0.270165 0.908688 0
M  V30 29204 H 2845.51 0.420994 3.49171 0
M  V30 29205 H 2845.38 -1.32881 3.53019 0
M  V30 29206 H 2847.77 -1.48421 2.55059 0
M  V30 29207 H 2847.85 0.283331 2.54226 0
M  V30 29208 H 2847.49 0.289297 5.07075 0
M  V30 29209 H 2847.42 -1.49073 5.05059 0
M  V30 29210 H 2849.91 -0.676589 3.71794 0
M  V30 29211 H 2850.23 -0.763897 7.69015 0
M  V30 29212 H 2848.57 -0.693909 6.91527 0
M  V30 29213 H 2851.76 -0.755054 4.6197 0
M  V30 29214 H 2851.94 -0.795094 6.43104 0
M  V30 29215 N 2845.34 -1.52224 -0.408133 0
M  V30 29216 C 2846.59 -1.66003 -1.15271 0
M  V30 29217 C 2846.91 -0.392837 -1.91002 0
M  V30 29218 O 2846.18 0.592303 -1.86731 0
M  V30 29219 H 2844.76 -0.611869 -0.428515 0
M  V30 29220 H 2847.42 -1.8927 -0.465087 0
M  V30 29221 H 2846.52 -2.50156 -1.86623 0
M  V30 29222 N 2846.82 0.665425 -1.42863 0
M  V30 29223 C 2847.77 1.79997 -1.47322 0
M  V30 29224 C 2848.76 1.65787 -0.347992 0
M  V30 29225 O 2849.97 1.72282 -0.521436 0
M  V30 29226 H 2846.34 0.593659 -0.461598 0
M  V30 29227 H 2848.31 1.73356 -2.42879 0
M  V30 29228 C 2847.06 3.182 -1.40157 0
M  V30 29229 H 2846.39 3.29766 -2.26041 0
M  V30 29230 H 2847.83 3.97577 -1.47338 0
M  V30 29231 C 2846.29 3.36695 -0.117552 0
M  V30 29232 O 2846.82 3.93116 0.825989 0
M  V30 29233 N 2845.02 2.90583 -0.0316729 0
M  V30 29234 H 2844.57 2.44853 -0.80029 0
M  V30 29235 H 2844.53 3.03334 0.826782 0
M  V30 29236 N 2848.3 1.29191 0.902633 0
M  V30 29237 C 2849.25 1.10698 1.99324 0
M  V30 29238 C 2850.23 0.0272804 1.60877 0
M  V30 29239 O 2851.42 0.248666 1.75245 0
M  V30 29240 C 2848.55 0.782499 3.34263 0
M  V30 29241 C 2847.64 1.90159 3.79078 0
M  V30 29242 N 2848.03 3.14473 3.96157 0
M  V30 29243 C 2846.33 1.79396 4.08329 0
M  V30 29244 C 2847.03 3.87465 4.33873 0
M  V30 29245 N 2846.01 3.15389 4.42754 0
M  V30 29246 H 2849.81 2.05006 2.10593 0
M  V30 29247 H 2847.32 1.20273 1.09125 0
M  V30 29248 H 2849.32 0.631068 4.12096 0
M  V30 29249 H 2847.98 -0.152697 3.24341 0
M  V30 29250 H 2848.99 3.49961 3.81769 0
M  V30 29251 H 2845.67 0.931289 4.06981 0
M  V30 29252 H 2847.06 4.94433 4.54956 0
M  V30 29253 N 2849.78 -1.1126 1.1162 0
M  V30 29254 C 2851.02 -1.83309 0.867495 0
M  V30 29255 C 2851.36 -1.84525 -0.605333 0
M  V30 29256 O 2850.63 -1.29968 -1.44702 0
M  V30 29257 C 2850.91 -3.30397 1.43213 0
M  V30 29258 C 2850.77 -3.37565 2.97271 0
M  V30 29259 C 2852.09 -4.26526 1.08461 0
M  V30 29260 H 2849.2 -0.665537 0.31659 0
M  V30 29261 H 2851.85 -1.30452 1.38139 0
M  V30 29262 H 2850 -3.75541 0.995048 0
M  V30 29263 H 2851.67 -3.00965 3.49596 0
M  V30 29264 H 2849.91 -2.77727 3.33242 0
M  V30 29265 H 2850.58 -4.41099 3.31867 0
M  V30 29266 H 2853.06 -3.89571 1.46196 0
M  V30 29267 H 2851.93 -5.27824 1.50643 0
M  V30 29268 H 2852.2 -4.421 -0.00436797 0
M  V30 29269 N 2851.25 -0.906798 -1.28899 0
M  V30 29270 C 2852.48 -0.551338 -1.99938 0
M  V30 29271 C 2852.9 0.858466 -1.67368 0
M  V30 29272 O 2852.26 1.57258 -0.902204 0
M  V30 29273 C 2852.31 -0.758999 -3.52522 0
M  V30 29274 O 2851.41 0.185236 -4.11984 0
M  V30 29275 H 2850.76 -0.214579 -0.628372 0
M  V30 29276 H 2853.29 -1.22033 -1.64223 0
M  V30 29277 H 2853.3 -0.6664 -4.02521 0
M  V30 29278 H 2851.97 -1.78678 -3.75562 0
M  V30 29279 H 2850.55 0.0444922 -3.72873 0
M  V30 29280 N 2852.73 1.42648 -0.670032 0
M  V30 29281 C 2854.14 1.84764 -0.26815 0
M  V30 29282 C 2854.49 1.56088 1.18874 0
M  V30 29283 O 2853.62 1.01828 1.90945 0
M  V30 29284 C 2854.21 3.35384 -0.479899 0
M  V30 29285 C 2852.77 3.76168 -0.132182 0
M  V30 29286 C 2851.92 2.6626 -0.774658 0
M  V30 29287 H 2854.87 1.32562 -0.872532 0
M  V30 29288 H 2854.89 3.79545 0.269455 0
M  V30 29289 H 2854.4 3.56224 -1.54033 0
M  V30 29290 H 2852.51 3.60936 0.924987 0
M  V30 29291 H 2852.62 4.75705 -0.569377 0
M  V30 29292 H 2850.98 2.53862 -0.206398 0
M  V30 29293 H 2851.77 2.89924 -1.83844 0
M  V30 29294 N 2854.21 0.413044 1.52091 0
M  V30 29295 C 2855.44 -0.160845 2.06274 0
M  V30 29296 C 2855.85 -1.38531 1.28275 0
M  V30 29297 O 2855.21 -1.79387 0.335662 0
M  V30 29298 C 2855.26 -0.50738 3.57922 0
M  V30 29299 O 2854.98 0.668464 4.3297 0
M  V30 29300 C 2856.48 -1.13458 4.28535 0
M  V30 29301 H 2853.7 -0.0186642 0.67074 0
M  V30 29302 H 2856.25 0.585127 1.9595 0
M  V30 29303 H 2854.4 -1.20325 3.6824 0
M  V30 29304 H 2854.82 0.378261 5.23134 0
M  V30 29305 H 2856.29 -1.32723 5.35807 0
M  V30 29306 H 2856.77 -2.10879 3.85262 0
M  V30 29307 H 2857.37 -0.478802 4.22596 0
M  V30 29308 N 2855.69 -1.56945 0.143591 0
M  V30 29309 C 2856.64 -2.13162 -0.809077 0
M  V30 29310 C 2857.62 -1.05857 -1.21174 0
M  V30 29311 O 2858.82 -1.32042 -1.17873 0
M  V30 29312 C 2855.94 -2.75408 -2.04952 0
M  V30 29313 C 2855.03 -3.89831 -1.67011 0
M  V30 29314 N 2855.42 -4.95842 -0.998735 0
M  V30 29315 C 2853.72 -4.00475 -1.96306 0
M  V30 29316 C 2854.42 -5.75947 -0.816115 0
M  V30 29317 N 2853.4 -5.26598 -1.3489 0
M  V30 29318 H 2857.2 -2.92497 -0.286867 0
M  V30 29319 H 2854.71 -1.62296 -0.0580662 0
M  V30 29320 H 2856.71 -3.14042 -2.74196 0
M  V30 29321 H 2855.37 -1.97545 -2.57694 0
M  V30 29322 H 2856.38 -5.13679 -0.659884 0
M  V30 29323 H 2853.06 -3.33684 -2.50921 0
M  V30 29324 H 2854.45 -6.71286 -0.287235 0
M  V30 29325 N 2857.17 0.130197 -1.57061 0
M  V30 29326 C 2858.4 0.853184 -1.8816 0
M  V30 29327 C 2858.81 1.74478 -0.731705 0
M  V30 29328 O 2858.15 1.81116 0.307003 0
M  V30 29329 C 2858.21 1.7478 -3.14153 0
M  V30 29330 C 2857.87 1.03165 -4.45203 0
M  V30 29331 C 2858.87 0.377667 -5.18526 0
M  V30 29332 C 2856.56 1.01616 -4.91914 0
M  V30 29333 C 2858.55 -0.282235 -6.36775 0
M  V30 29334 C 2856.24 0.352448 -6.10083 0
M  V30 29335 C 2857.24 -0.295603 -6.8236 0
M  V30 29336 O 2856.92 -0.948746 -7.98282 0
M  V30 29337 H 2856.66 0.251186 -0.6276 0
M  V30 29338 H 2859.21 0.122564 -2.05034 0
M  V30 29339 H 2857.44 2.51978 -2.93333 0
M  V30 29340 H 2859.13 2.34422 -3.31363 0
M  V30 29341 H 2859.89 0.381332 -4.83499 0
M  V30 29342 H 2855.77 1.50999 -4.35569 0
M  V30 29343 H 2859.32 -0.788647 -6.93128 0
M  V30 29344 H 2855.21 0.346508 -6.44569 0
M  V30 29345 H 2855.98 -0.852097 -8.14053 0
M  V30 29346 N 2858.65 1.52438 0.400055 0
M  V30 29347 C 2859.89 1.67189 1.14786 0
M  V30 29348 C 2860.22 0.405107 1.89928 0
M  V30 29349 O 2859.5 -0.596772 1.85119 0
M  V30 29350 C 2859.78 2.89981 2.13502 0
M  V30 29351 C 2859.64 4.26732 1.42196 0
M  V30 29352 C 2860.95 3.08305 3.14063 0
M  V30 29353 H 2858.07 0.608418 0.415929 0
M  V30 29354 H 2860.72 1.85012 0.43251 0
M  V30 29355 H 2858.87 2.74916 2.74505 0
M  V30 29356 H 2860.54 4.53543 0.842424 0
M  V30 29357 H 2858.78 4.27718 0.723864 0
M  V30 29358 H 2859.45 5.08715 2.14272 0
M  V30 29359 H 2861.93 3.22328 2.63142 0
M  V30 29360 H 2860.8 3.9572 3.80391 0
M  V30 29361 H 2861.06 2.22025 3.82305 0
M  V30 29362 N 2860.12 -0.657839 1.43214 0
M  V30 29363 C 2861.53 -1.2389 1.39671 0
M  V30 29364 C 2861.89 -1.95953 0.0984561 0
M  V30 29365 O 2861.01 -2.00979 -0.802265 0
M  V30 29366 C 2861.61 -2.25327 2.53008 0
M  V30 29367 C 2860.16 -2.78921 2.52745 0
M  V30 29368 C 2859.31 -1.53493 2.30944 0
M  V30 29369 H 2862.26 -0.450146 1.52182 0
M  V30 29370 H 2862.28 -3.07409 2.24232 0
M  V30 29371 H 2861.8 -1.7285 3.47483 0
M  V30 29372 H 2859.9 -3.35474 1.62136 0
M  V30 29373 H 2860.01 -3.26781 3.50358 0
M  V30 29374 H 2858.37 -1.80675 1.79524 0
M  V30 29375 H 2859.16 -1.02958 3.27498 0
M  V30 29376 N 2861.6 -1.29668 -0.895769 0
M  V30 29377 C 2862.51 -1.17028 -2.03327 0
M  V30 29378 C 2863.53 -0.0926267 -1.73753 0
M  V30 29379 O 2864.7 -0.305466 -1.9907 0
M  V30 29380 C 2861.77 -0.8519 -3.36071 0
M  V30 29381 C 2860.83 -2.0138 -3.79137 0
M  V30 29382 C 2860.06 -1.71052 -5.05546 0
M  V30 29383 O 2860.29 -0.633312 -5.66873 0
M  V30 29384 O 2859.22 -2.55969 -5.4476 0
M  V30 29385 H 2863.05 -2.1256 -2.16915 0
M  V30 29386 H 2860.63 -1.09158 -1.02005 0
M  V30 29387 H 2862.51 -0.689079 -4.15728 0
M  V30 29388 H 2861.19 0.0736065 -3.23616 0
M  V30 29389 H 2860.09 -2.23188 -3.0023 0
M  V30 29390 H 2861.43 -2.92065 -3.96181 0
M  V30 29391 N 2863.08 1.10667 -1.12208 0
M  V30 29392 C 2864.3 1.86904 -0.898971 0
M  V30 29393 C 2864.73 1.79992 0.546314 0
M  V30 29394 O 2864.09 1.16812 1.38653 0
M  V30 29395 C 2864.14 3.33342 -1.37534 0
M  V30 29396 O 2863.24 4.08686 -0.552252 0
M  V30 29397 H 2862.58 0.580048 -0.323173 0
M  V30 29398 H 2865.11 1.39834 -1.49357 0
M  V30 29399 H 2865.12 3.84191 -1.37337 0
M  V30 29400 H 2863.8 3.37689 -2.42773 0
M  V30 29401 H 2862.37 3.67693 -0.621012 0
M  V30 29402 N 2864.56 0.913621 1.28416 0
M  V30 29403 C 2865.83 0.465652 1.89976 0
M  V30 29404 C 2866.21 -1.05555 1.82815 0
M  V30 29405 O 2865.56 -1.90356 1.264 0
M  V30 29406 C 2865.77 0.995871 3.3449 0
M  V30 29407 C 2867.12 1.04789 4.11466 0
M  V30 29408 O 2868.14 0.944506 3.43449 0
M  V30 29409 O 2867 1.20527 5.33044 0
M  V30 29410 H 2864.1 0.147546 0.813732 0
M  V30 29411 H 2866.64 1.0044 1.36784 0
M  V30 29412 H 2865.42 2.03984 3.33925 0
M  V30 29413 H 2865.04 0.437947 3.95181 0
M  V30 29414 N 2866.04 -1.4229 0.677588 0
M  V30 29415 C 2867 -2.29198 0.0101488 0
M  V30 29416 C 2868 -1.43468 -0.726193 0
M  V30 29417 O 2869.19 -1.64825 -0.563778 0
M  V30 29418 C 2866.32 -3.26018 -0.996259 0
M  V30 29419 H 2867.51 -2.8971 0.775122 0
M  V30 29420 H 2865.07 -1.49976 0.440091 0
M  V30 29421 H 2865.8 -2.70449 -1.78963 0
M  V30 29422 H 2865.59 -3.89253 -0.471618 0
M  V30 29423 H 2867.08 -3.91187 -1.4616 0
M  V30 29424 N 2867.51 -0.421104 -1.5187 0
M  V30 29425 C 2868.48 0.386672 -2.25915 0
M  V30 29426 C 2869.48 0.963532 -1.28735 0
M  V30 29427 O 2870.67 0.840529 -1.5258 0
M  V30 29428 C 2867.8 1.54546 -3.03856 0
M  V30 29429 H 2868.99 -0.262031 -2.98753 0
M  V30 29430 H 2866.54 -0.173889 -1.5533 0
M  V30 29431 H 2867.28 2.23068 -2.35396 0
M  V30 29432 H 2867.06 1.13817 -3.75217 0
M  V30 29433 H 2868.55 2.11657 -3.59988 0
M  V30 29434 N 2868.99 1.56866 -0.151912 0
M  V30 29435 C 2869.96 2.15814 0.771823 0
M  V30 29436 C 2870.96 1.10117 1.17179 0
M  V30 29437 O 2872.15 1.35731 1.09191 0
M  V30 29438 C 2869.28 2.72524 2.04801 0
M  V30 29439 H 2870.47 2.9878 0.258969 0
M  V30 29440 H 2868.02 1.55995 0.0975606 0
M  V30 29441 H 2868.76 1.93238 2.60441 0
M  V30 29442 H 2868.54 3.49857 1.77038 0
M  V30 29443 H 2870.03 3.17925 2.70765 0
M  V30 29444 N 2870.47 -0.121866 1.57128 0
M  V30 29445 C 2871.89 -0.475313 1.52358 0
M  V30 29446 C 2872.09 -1.82015 0.864449 0
M  V30 29447 O 2871.14 -2.48538 0.445572 0
M  V30 29448 C 2872.46 -0.462448 2.97123 0
M  V30 29449 C 2874 -0.546201 3.08197 0
M  V30 29450 C 2874.48 -0.563753 4.54517 0
M  V30 29451 N 2875.97 -0.625272 4.5896 0
M  V30 29452 C 2876.7 -0.660254 5.69586 0
M  V30 29453 N 2876.2 -0.653054 6.89715 0
M  V30 29454 N 2877.99 -0.703045 5.57686 0
M  V30 29455 H 2870.14 0.759344 1.98363 0
M  V30 29456 H 2872.41 0.279788 0.905772 0
M  V30 29457 H 2872.11 0.458005 3.48705 0
M  V30 29458 H 2871.99 -1.2913 3.54409 0
M  V30 29459 H 2874.37 -1.45707 2.56619 0
M  V30 29460 H 2874.46 0.310279 2.53911 0
M  V30 29461 H 2874.1 0.343063 5.0674 0
M  V30 29462 H 2874.03 -1.43708 5.06612 0
M  V30 29463 H 2876.52 -0.637117 3.72491 0
M  V30 29464 H 2876.83 -0.68229 7.69782 0
M  V30 29465 H 2875.18 -0.620524 6.92224 0
M  V30 29466 H 2878.37 -0.706013 4.62745 0
M  V30 29467 H 2878.54 -0.726839 6.43911 0
M  V30 29468 N 2871.95 -1.52648 -0.391965 0
M  V30 29469 C 2873.19 -1.67795 -1.13897 0
M  V30 29470 C 2873.53 -0.415174 -1.8971 0
M  V30 29471 O 2872.8 0.586946 -1.85432 0
M  V30 29472 C 2873.09 -2.91109 -2.11961 0
M  V30 29473 C 2872.94 -4.2748 -1.39931 0
M  V30 29474 C 2874.26 -3.09966 -3.12424 0
M  V30 29475 H 2871.38 -0.610615 -0.412696 0
M  V30 29476 H 2874.02 -1.85239 -0.422692 0
M  V30 29477 H 2872.17 -2.76368 -2.73044 0
M  V30 29478 H 2873.84 -4.53983 -0.818359 0
M  V30 29479 H 2872.08 -4.28096 -0.701171 0
M  V30 29480 H 2872.75 -5.09845 -2.11572 0
M  V30 29481 H 2875.23 -3.23719 -2.61429 0
M  V30 29482 H 2874.11 -3.97731 -3.78287 0
M  V30 29483 H 2874.37 -2.24049 -3.81123 0
M  V30 29484 N 2873.43 0.650235 -1.43561 0
M  V30 29485 C 2874.65 1.43776 -1.48782 0
M  V30 29486 C 2875.07 1.88499 -0.106626 0
M  V30 29487 O 2874.43 1.59676 0.883738 0
M  V30 29488 C 2874.48 2.67077 -2.43623 0
M  V30 29489 O 2874.2 2.24224 -3.76371 0
M  V30 29490 C 2875.7 3.60404 -2.58116 0
M  V30 29491 H 2872.92 0.441584 -0.505217 0
M  V30 29492 H 2875.46 0.796908 -1.88334 0
M  V30 29493 H 2873.62 3.27296 -2.07258 0
M  V30 29494 H 2874.03 3.04023 -4.274 0
M  V30 29495 H 2875.51 4.43578 -3.28547 0
M  V30 29496 H 2875.98 4.0795 -1.62707 0
M  V30 29497 H 2876.59 3.06065 -2.95304 0
M  V30 29498 N 2874.9 1.30141 0.88888 0
M  V30 29499 C 2875.84 1.12003 1.9997 0
M  V30 29500 C 2876.85 0.0643905 1.62673 0
M  V30 29501 O 2878.04 0.310013 1.75787 0
M  V30 29502 C 2875.14 0.685118 3.31903 0
M  V30 29503 C 2874.31 1.82165 3.97661 0
M  V30 29504 C 2873.37 1.37594 5.07892 0
M  V30 29505 O 2872.4 2.0825 5.29736 0
M  V30 29506 N 2873.6 0.252799 5.79949 0
M  V30 29507 H 2876.36 2.07675 2.16082 0
M  V30 29508 H 2873.92 1.22225 1.06173 0
M  V30 29509 H 2875.92 0.370035 4.03005 0
M  V30 29510 H 2874.49 -0.179452 3.12084 0
M  V30 29511 H 2873.71 2.30505 3.19783 0
M  V30 29512 H 2874.99 2.58339 4.38336 0
M  V30 29513 H 2874.39 -0.336042 5.64701 0
M  V30 29514 H 2872.95 -0.00285356 6.518 0
M  V30 29515 N 2876.38 -1.1007 1.12794 0
M  V30 29516 C 2877.63 -1.81478 0.880264 0
M  V30 29517 C 2877.94 -1.86313 -0.595542 0
M  V30 29518 O 2879.15 -2.53964 -0.959934 0
M  V30 29519 C 2877.61 -3.25984 1.5252 0
M  V30 29520 C 2877.21 -3.29435 3.03606 0
M  V30 29521 C 2878.96 -4.02194 1.35795 0
M  V30 29522 C 2876.87 -4.68425 3.61015 0
M  V30 29523 H 2875.8 -0.680042 0.325666 0
M  V30 29524 H 2878.45 -1.23756 1.35487 0
M  V30 29525 H 2876.83 -3.83727 0.978256 0
M  V30 29526 H 2878 -2.81496 3.64824 0
M  V30 29527 H 2876.32 -2.66713 3.1977 0
M  V30 29528 H 2878.91 -5.04867 1.76105 0
M  V30 29529 H 2879.26 -4.15203 0.302045 0
M  V30 29530 H 2879.79 -3.50876 1.87432 0
M  V30 29531 H 2876.53 -4.60616 4.66383 0
M  V30 29532 H 2876.05 -5.16716 3.04573 0
M  V30 29533 H 2877.73 -5.37396 3.60298 0
M  V30 29534 N 2877.86 -0.920419 -1.2793 0
M  V30 29535 C 2878.79 -0.431064 -2.29487 0
M  V30 29536 C 2879.77 0.504833 -1.62436 0
M  V30 29537 O 2880.96 0.411142 -1.89798 0
M  V30 29538 C 2878.09 0.323648 -3.45789 0
M  V30 29539 C 2877.04 -0.523732 -4.24784 0
M  V30 29540 C 2876.37 0.359716 -5.33489 0
M  V30 29541 C 2877.67 -1.78445 -4.90871 0
M  V30 29542 H 2879.36 -1.2798 -2.70669 0
M  V30 29543 H 2876.91 -0.616836 -1.3012 0
M  V30 29544 H 2878.86 0.676879 -4.15928 0
M  V30 29545 H 2877.58 1.20634 -3.03504 0
M  V30 29546 H 2876.24 -0.859572 -3.5638 0
M  V30 29547 H 2875.89 1.24115 -4.87447 0
M  V30 29548 H 2875.59 -0.203709 -5.87247 0
M  V30 29549 H 2877.11 0.708681 -6.06473 0
M  V30 29550 H 2878.53 -1.49973 -5.53336 0
M  V30 29551 H 2876.93 -2.2908 -5.54655 0
M  V30 29552 H 2878 -2.50831 -4.14984 0
M  V30 29553 N 2879.34 1.41929 -0.685124 0
M  V30 29554 C 2880.56 2.06242 -0.218878 0
M  V30 29555 C 2880.99 1.5118 1.1192 0
M  V30 29556 O 2880.35 0.634476 1.69835 0
M  V30 29557 C 2880.39 3.60172 -0.175655 0
M  V30 29558 O 2879.5 4.03488 0.852705 0
M  V30 29559 H 2878.84 0.654902 -0.109542 0
M  V30 29560 H 2881.37 1.81881 -0.937045 0
M  V30 29561 H 2881.38 4.08 -0.00298323 0
M  V30 29562 H 2880.05 3.99619 -1.15229 0
M  V30 29563 H 2878.63 3.67187 0.650236 0
M  V30 29564 N 2880.82 0.429152 1.51644 0
M  V30 29565 C 2882.04 -0.141363 2.06918 0
M  V30 29566 C 2882.47 -1.36396 1.29529 0
M  V30 29567 O 2881.82 -1.78253 0.330971 0
M  V30 29568 C 2881.87 -0.450337 3.57777 0
M  V30 29569 O 2880.98 -1.53815 3.82642 0
M  V30 29570 H 2880.32 -0.00545303 0.663978 0
M  V30 29571 H 2882.85 0.608127 1.95353 0
M  V30 29572 H 2882.86 -0.703178 4.01895 0
M  V30 29573 H 2881.53 0.443286 4.13531 0
M  V30 29574 H 2880.11 -1.27591 3.50393 0
M  V30 29575 N 2882.29 -1.56783 0.160229 0
M  V30 29576 C 2883.22 -2.20431 -0.770225 0
M  V30 29577 C 2884.21 -1.15653 -1.24734 0
M  V30 29578 O 2885.39 -1.44043 -1.30251 0
M  V30 29579 C 2882.52 -2.83634 -2.00422 0
M  V30 29580 C 2881.47 -3.94355 -1.66338 0
M  V30 29581 C 2880.8 -4.44555 -2.97111 0
M  V30 29582 C 2882.1 -5.14489 -0.899882 0
M  V30 29583 H 2883.79 -2.98439 -0.239731 0
M  V30 29584 H 2881.34 -1.43549 -0.113866 0
M  V30 29585 H 2883.29 -3.26831 -2.66006 0
M  V30 29586 H 2882.02 -2.02978 -2.55866 0
M  V30 29587 H 2880.68 -3.51796 -1.03127 0
M  V30 29588 H 2880.32 -3.60704 -3.50573 0
M  V30 29589 H 2880.02 -5.19243 -2.75064 0
M  V30 29590 H 2881.55 -4.90431 -3.63744 0
M  V30 29591 H 2882.96 -5.54448 -1.45808 0
M  V30 29592 H 2881.36 -5.95024 -0.778864 0
M  V30 29593 H 2882.43 -4.84784 0.105912 0
M  V30 29594 N 2883.77 0.113531 -1.57191 0
M  V30 29595 C 2885 0.834389 -1.89329 0
M  V30 29596 C 2885.42 1.73175 -0.752049 0
M  V30 29597 O 2884.77 1.80387 0.276881 0
M  V30 29598 C 2884.82 1.66324 -3.20965 0
M  V30 29599 O 2884.55 0.801993 -4.30697 0
M  V30 29600 C 2886.05 2.48877 -3.66845 0
M  V30 29601 H 2883.27 0.239576 -0.626773 0
M  V30 29602 H 2885.81 0.0962836 -2.04273 0
M  V30 29603 H 2883.97 2.35404 -3.07675 0
M  V30 29604 H 2884.38 1.37422 -5.06177 0
M  V30 29605 H 2885.85 3.02555 -4.61697 0
M  V30 29606 H 2886.33 3.2649 -2.93771 0
M  V30 29607 H 2886.94 1.85029 -3.82942 0
M  V30 29608 N 2885.25 1.52854 0.383864 0
M  V30 29609 C 2886.5 1.67371 1.1256 0
M  V30 29610 C 2886.81 0.422567 1.90981 0
M  V30 29611 O 2888.02 0.447961 2.67779 0
M  V30 29612 C 2886.48 2.95805 2.05006 0
M  V30 29613 C 2886.08 4.28117 1.31984 0
M  V30 29614 C 2887.83 3.19689 2.79284 0
M  V30 29615 C 2885.73 5.47654 2.23225 0
M  V30 29616 H 2884.66 0.623559 0.423899 0
M  V30 29617 H 2887.32 1.79351 0.387984 0
M  V30 29618 H 2885.7 2.77583 2.82425 0
M  V30 29619 H 2886.87 4.56909 0.597553 0
M  V30 29620 H 2885.19 4.10535 0.696445 0
M  V30 29621 H 2887.78 4.06177 3.47742 0
M  V30 29622 H 2888.13 2.34976 3.43645 0
M  V30 29623 H 2888.66 3.385 2.08956 0
M  V30 29624 H 2885.4 6.34789 1.63471 0
M  V30 29625 H 2884.92 5.23166 2.93355 0
M  V30 29626 H 2886.6 5.8173 2.83195 0
M  V30 29627 N 2886.73 -0.642612 1.43904 0
M  V30 29628 C 2887.96 -1.42985 1.49542 0
M  V30 29629 C 2888.37 -1.88439 0.116621 0
M  V30 29630 O 2887.73 -1.60142 -0.875257 0
M  V30 29631 C 2887.78 -2.65781 2.45036 0
M  V30 29632 O 2887.5 -2.22225 3.77555 0
M  V30 29633 C 2889 -3.5903 2.60024 0
M  V30 29634 H 2886.22 -0.438899 0.507552 0
M  V30 29635 H 2888.77 -0.786909 1.88754 0
M  V30 29636 H 2886.92 -3.26192 2.08991 0
M  V30 29637 H 2887.34 -3.01752 4.29006 0
M  V30 29638 H 2888.81 -4.41829 3.30894 0
M  V30 29639 H 2889.29 -4.07081 1.64868 0
M  V30 29640 H 2889.89 -3.04495 2.96923 0
M  V30 29641 N 2888.21 -1.30611 -0.881966 0
M  V30 29642 C 2889.14 -1.13062 -1.99373 0
M  V30 29643 C 2890.15 -0.0730165 -1.62636 0
M  V30 29644 O 2891.34 -0.319332 -1.7562 0
M  V30 29645 C 2888.44 -0.70271 -3.31535 0
M  V30 29646 C 2887.61 -1.84272 -3.9669 0
M  V30 29647 C 2886.67 -1.40286 -5.07155 0
M  V30 29648 O 2885.7 -2.11057 -5.28624 0
M  V30 29649 N 2886.9 -0.283551 -5.79807 0
M  V30 29650 H 2889.67 -2.08818 -2.14977 0
M  V30 29651 H 2887.23 -1.22786 -1.05523 0
M  V30 29652 H 2889.22 -0.391402 -4.02803 0
M  V30 29653 H 2887.79 0.162899 -3.12175 0
M  V30 29654 H 2887.01 -2.32198 -3.18556 0
M  V30 29655 H 2888.3 -2.6066 -4.3696 0
M  V30 29656 H 2887.7 0.306089 -5.64871 0
M  V30 29657 H 2886.25 -0.031713 -6.51792 0
M  V30 29658 N 2889.69 1.0947 -1.13376 0
M  V30 29659 C 2890.62 2.18124 -0.833306 0
M  V30 29660 C 2891.6 1.68834 0.20714 0
M  V30 29661 O 2892.78 1.94087 0.0661671 0
M  V30 29662 C 2889.91 3.46019 -0.298039 0
M  V30 29663 C 2888.87 4.0864 -1.27268 0
M  V30 29664 C 2888.19 5.31355 -0.597197 0
M  V30 29665 C 2889.49 4.51192 -2.63103 0
M  V30 29666 H 2891.19 2.43515 -1.74186 0
M  V30 29667 H 2888.73 1.17037 -0.838941 0
M  V30 29668 H 2890.68 4.21332 -0.0755184 0
M  V30 29669 H 2889.41 3.20149 0.645903 0
M  V30 29670 H 2888.07 3.35345 -1.48119 0
M  V30 29671 H 2887.72 5.01765 0.352205 0
M  V30 29672 H 2887.42 5.74206 -1.24744 0
M  V30 29673 H 2888.94 6.09392 -0.383947 0
M  V30 29674 H 2890.35 5.17732 -2.46223 0
M  V30 29675 H 2888.75 5.04926 -3.24299 0
M  V30 29676 H 2889.82 3.63615 -3.20799 0
M  V30 29677 N 2891.16 0.92719 1.2744 0
M  V30 29678 C 2892.09 0.443228 2.29255 0
M  V30 29679 C 2893.07 -0.496211 1.62701 0
M  V30 29680 O 2894.26 -0.401071 1.90013 0
M  V30 29681 C 2891.39 -0.305305 3.45955 0
M  V30 29682 C 2890.34 0.546252 4.245 0
M  V30 29683 C 2889.67 -0.331418 5.33672 0
M  V30 29684 C 2890.97 1.81046 4.89918 0
M  V30 29685 H 2892.66 1.29413 2.69986 0
M  V30 29686 H 2890.21 0.623727 1.29791 0
M  V30 29687 H 2892.16 -0.654812 4.16281 0
M  V30 29688 H 2890.89 -1.19023 3.0414 0
M  V30 29689 H 2889.55 0.87846 3.55919 0
M  V30 29690 H 2889.19 -1.21528 4.88098 0
M  V30 29691 H 2888.89 0.234849 5.8713 0
M  V30 29692 H 2890.42 -0.676508 6.06841 0
M  V30 29693 H 2891.83 1.52905 5.52533 0
M  V30 29694 H 2890.23 2.32019 5.53432 0
M  V30 29695 H 2891.3 2.53028 4.13648 0
M  V30 29696 N 2892.64 -1.41564 0.692641 0
M  V30 29697 C 2893.59 -2.30786 0.025467 0
M  V30 29698 C 2894.56 -1.46947 -0.774321 0
M  V30 29699 O 2895.74 -1.75741 -0.74295 0
M  V30 29700 C 2892.88 -3.32966 -0.907064 0
M  V30 29701 C 2892 -4.31886 -0.0992024 0
M  V30 29702 C 2891.13 -5.21136 -1.02911 0
M  V30 29703 C 2890.17 -6.11726 -0.213981 0
M  V30 29704 N 2889.31 -6.93469 -1.09754 0
M  V30 29705 H 2894.15 -2.8728 0.792086 0
M  V30 29706 H 2891.68 -1.41491 0.402325 0
M  V30 29707 H 2893.64 -3.90754 -1.46174 0
M  V30 29708 H 2892.27 -2.78029 -1.64011 0
M  V30 29709 H 2891.32 -3.7607 0.572353 0
M  V30 29710 H 2892.64 -4.95946 0.532869 0
M  V30 29711 H 2891.79 -5.83744 -1.65311 0
M  V30 29712 H 2890.53 -4.57296 -1.69504 0
M  V30 29713 H 2889.53 -5.48169 0.423117 0
M  V30 29714 H 2890.76 -6.7762 0.448114 0
M  V30 29715 H 2888.71 -6.3224 -1.74954 0
M  V30 29716 H 2888.62 -7.54203 -0.520966 0
M  V30 29717 H 2889.89 -7.60547 -1.70844 0
M  V30 29718 N 2894.12 -0.437188 -1.51415 0
M  V30 29719 C 2895.54 -0.0894739 -1.59349 0
M  V30 29720 C 2895.74 1.40113 -1.44812 0
M  V30 29721 O 2894.79 2.17104 -1.28928 0
M  V30 29722 C 2896.1 -0.609449 -2.94459 0
M  V30 29723 C 2897.65 -0.569878 -3.07768 0
M  V30 29724 C 2898.13 -1.06683 -4.45402 0
M  V30 29725 N 2899.62 -1.02481 -4.51721 0
M  V30 29726 C 2900.35 -1.38019 -5.56541 0
M  V30 29727 N 2899.85 -1.80843 -6.68781 0
M  V30 29728 N 2901.64 -1.29837 -5.46899 0
M  V30 29729 H 2893.79 -1.40705 -1.59109 0
M  V30 29730 H 2896.06 -0.579804 -0.750021 0
M  V30 29731 H 2895.76 -1.65237 -3.10467 0
M  V30 29732 H 2895.64 -0.0342899 -3.77184 0
M  V30 29733 H 2898.02 0.464056 -2.91428 0
M  V30 29734 H 2898.1 -1.18144 -2.26883 0
M  V30 29735 H 2897.75 -2.09922 -4.62488 0
M  V30 29736 H 2897.68 -0.431805 -5.24827 0
M  V30 29737 H 2900.17 -0.710323 -3.71164 0
M  V30 29738 H 2900.48 -2.06198 -7.44783 0
M  V30 29739 H 2898.83 -1.84769 -6.69989 0
M  V30 29740 H 2902.02 -0.962478 -4.58098 0
M  V30 29741 H 2902.19 -1.57862 -6.28477 0
M  V30 29742 N 2895.6 1.56696 -0.168541 0
M  V30 29743 C 2896.53 2.20836 0.758524 0
M  V30 29744 C 2897.51 1.16313 1.24118 0
M  V30 29745 O 2898.69 1.44732 1.29485 0
M  V30 29746 C 2895.82 2.84693 1.98915 0
M  V30 29747 C 2894.78 3.95231 1.64245 0
M  V30 29748 C 2894.1 4.46124 2.94749 0
M  V30 29749 C 2895.4 5.14959 0.872585 0
M  V30 29750 H 2897.1 2.98562 0.2239 0
M  V30 29751 H 2894.64 1.43607 0.106252 0
M  V30 29752 H 2896.6 3.28237 2.64269 0
M  V30 29753 H 2895.32 2.04332 2.54786 0
M  V30 29754 H 2893.98 3.52338 1.0126 0
M  V30 29755 H 2893.63 3.62558 3.48655 0
M  V30 29756 H 2893.33 5.20695 2.72307 0
M  V30 29757 H 2894.85 4.92353 3.61138 0
M  V30 29758 H 2896.27 5.55214 1.42866 0
M  V30 29759 H 2894.66 5.95429 0.747297 0
M  V30 29760 H 2895.73 4.84721 -0.13162 0
M  V30 29761 N 2897.08 -0.105193 1.57249 0
M  V30 29762 C 2898.03 -1.13446 1.97772 0
M  V30 29763 C 2899.01 -1.36323 0.854678 0
M  V30 29764 O 2900.2 -1.37184 1.11846 0
M  V30 29765 C 2897.33 -2.45741 2.39721 0
M  V30 29766 C 2896.42 -2.2628 3.58689 0
M  V30 29767 N 2896.81 -1.76663 4.73945 0
M  V30 29768 C 2895.11 -2.56885 3.6459 0
M  V30 29769 C 2895.81 -1.71235 5.55926 0
M  V30 29770 N 2894.78 -2.16084 4.98807 0
M  V30 29771 H 2898.58 -0.743614 2.84337 0
M  V30 29772 H 2896.1 -0.312759 1.5936 0
M  V30 29773 H 2898.1 -3.20202 2.66977 0
M  V30 29774 H 2896.76 -2.85571 1.54528 0
M  V30 29775 H 2897.77 -1.46007 4.96893 0
M  V30 29776 H 2894.44 -3.00308 2.90036 0
M  V30 29777 H 2895.83 -1.3401 6.584 0
M  V30 29778 N 2898.55 -1.53055 -0.375752 0
M  V30 29779 C 2899.49 -1.75045 -1.4796 0
M  V30 29780 C 2900.5 -0.631057 -1.50072 0
M  V30 29781 O 2901.69 -0.90708 -1.53735 0
M  V30 29782 C 2898.79 -1.80609 -2.86764 0
M  V30 29783 C 2897.96 -3.10109 -3.08465 0
M  V30 29784 C 2897.02 -3.07048 -4.27326 0
M  V30 29785 O 2896.05 -3.80877 -4.22991 0
M  V30 29786 N 2897.25 -2.27156 -5.3421 0
M  V30 29787 H 2900.01 -2.70288 -1.29479 0
M  V30 29788 H 2897.57 -1.51707 -0.56539 0
M  V30 29789 H 2899.57 -1.76051 -3.64401 0
M  V30 29790 H 2898.14 -0.92695 -2.9854 0
M  V30 29791 H 2897.36 -3.28052 -2.18577 0
M  V30 29792 H 2898.64 -3.95712 -3.19827 0
M  V30 29793 H 2898.04 -1.66666 -5.40591 0
M  V30 29794 H 2896.6 -2.28426 -6.10463 0
M  V30 29795 N 2900.03 0.634971 -1.44242 0
M  V30 29796 C 2901.28 1.39489 -1.48035 0
M  V30 29797 C 2901.63 1.92086 -0.109825 0
M  V30 29798 O 2900.93 1.70486 0.874364 0
M  V30 29799 C 2901.12 2.58042 -2.47284 0
M  V30 29800 C 2900.95 2.1705 -3.93852 0
M  V30 29801 C 2899.72 2.0451 -4.62065 0
M  V30 29802 C 2901.92 1.762 -4.83175 0
M  V30 29803 N 2899.9 1.57041 -5.93474 0
M  V30 29804 C 2901.27 1.39948 -6.03999 0
M  V30 29805 C 2903.33 1.63546 -4.70274 0
M  V30 29806 C 2902.03 0.923071 -7.13353 0
M  V30 29807 C 2904.05 1.1731 -5.79648 0
M  V30 29808 C 2903.42 0.820058 -6.9961 0
M  V30 29809 H 2899.52 0.505382 -0.596752 0
M  V30 29810 H 2902.1 0.728838 -1.80544 0
M  V30 29811 H 2900.27 3.2228 -2.16772 0
M  V30 29812 H 2902 3.24823 -2.41397 0
M  V30 29813 H 2898.76 2.24843 -4.16824 0
M  V30 29814 H 2899.18 1.35616 -6.63278 0
M  V30 29815 H 2903.82 1.89474 -3.77968 0
M  V30 29816 H 2901.54 0.6513 -8.05471 0
M  V30 29817 H 2905.13 1.07983 -5.71691 0
M  V30 29818 H 2904.01 0.467763 -7.82804 0
M  V30 29819 N 2901.51 1.31076 0.875027 0
M  V30 29820 C 2902.76 1.19834 1.62243 0
M  V30 29821 C 2903.07 -0.243536 1.94078 0
M  V30 29822 O 2904.28 -0.477599 2.67266 0
M  V30 29823 C 2902.73 2.09749 2.92461 0
M  V30 29824 C 2902.34 3.58903 2.68128 0
M  V30 29825 C 2904.09 2.07294 3.70445 0
M  V30 29826 C 2901.99 4.40843 3.94223 0
M  V30 29827 H 2900.92 0.444927 0.608733 0
M  V30 29828 H 2903.57 1.55896 0.96792 0
M  V30 29829 H 2901.96 1.6658 3.59259 0
M  V30 29830 H 2903.13 4.10285 2.09769 0
M  V30 29831 H 2901.45 3.63283 2.03505 0
M  V30 29832 H 2904.04 2.6576 4.63978 0
M  V30 29833 H 2904.39 1.05883 4.0261 0
M  V30 29834 H 2904.92 2.48637 3.10523 0
M  V30 29835 H 2901.66 5.42988 3.67211 0
M  V30 29836 H 2901.18 3.94221 4.52051 0
M  V30 29837 H 2902.86 4.52794 4.62154 0
M  V30 29838 N 2902.99 -1.08867 1.13955 0
M  V30 29839 C 2903.94 -2.17753 0.817703 0
M  V30 29840 C 2904.93 -1.68186 -0.202414 0
M  V30 29841 O 2906.14 -1.79903 -0.0589843 0
M  V30 29842 H 2902.51 -0.710388 0.246684 0
M  V30 29843 H 2904.48 -2.42127 1.74405 0
M  V30 29844 C 2903.23 -3.46348 0.306361 0
M  V30 29845 H 2902.55 -3.84862 1.08266 0
M  V30 29846 H 2903.99 -4.23831 0.119658 0
M  V30 29847 C 2902.45 -3.22661 -0.969102 0
M  V30 29848 O 2902.98 -3.45821 -2.0438 0
M  V30 29849 N 2901.19 -2.76232 -0.902468 0
M  V30 29850 H 2900.74 -2.57585 -0.0277557 0
M  V30 29851 H 2900.69 -2.60761 -1.75644 0
M  V30 29852 N 2904.47 -0.933936 -1.26946 0
M  V30 29853 C 2905.38 -0.443711 -2.30366 0
M  V30 29854 C 2906.39 0.478716 -1.67285 0
M  V30 29855 O 2907.57 0.360008 -1.98156 0
M  V30 29856 C 2904.63 0.289913 -3.45486 0
M  V30 29857 C 2903.69 -0.668188 -4.24068 0
M  V30 29858 C 2902.93 0.03052 -5.33691 0
M  V30 29859 O 2903.15 1.24878 -5.56562 0
M  V30 29860 O 2902.08 -0.644489 -5.9844 0
M  V30 29861 H 2905.91 -1.30259 -2.74347 0
M  V30 29862 H 2903.5 -0.699529 -1.32011 0
M  V30 29863 H 2905.38 0.703457 -4.15487 0
M  V30 29864 H 2904.05 1.1243 -3.03548 0
M  V30 29865 H 2902.96 -1.13153 -3.56577 0
M  V30 29866 H 2904.29 -1.46997 -4.69737 0
M  V30 29867 N 2905.94 1.41194 -0.700139 0
M  V30 29868 C 2907.22 1.94937 -0.160871 0
M  V30 29869 C 2907.6 1.63925 1.33011 0
M  V30 29870 O 2906.95 0.948673 2.07876 0
M  V30 29871 C 2907.16 3.45994 -0.457052 0
M  V30 29872 C 2908.51 4.2283 -0.387281 0
M  V30 29873 O 2909.53 3.54034 -0.392226 0
M  V30 29874 O 2908.39 5.45369 -0.351363 0
M  V30 29875 H 2905.48 0.826812 -0.017645 0
M  V30 29876 H 2908.03 1.50887 -0.776613 0
M  V30 29877 H 2906.8 3.61867 -1.4889 0
M  V30 29878 H 2906.43 3.97148 0.189433 0
M  V30 29879 N 2907.42 0.445212 1.51181 0
M  V30 29880 C 2908.66 -0.117681 2.04061 0
M  V30 29881 C 2909.03 -1.39276 1.3216 0
M  V30 29882 O 2910.23 -2.03639 1.75455 0
M  V30 29883 C 2908.5 -0.323383 3.55934 0
M  V30 29884 S 2910.06 -0.848551 4.30517 0
M  V30 29885 H 2906.88 -0.0281525 0.710442 0
M  V30 29886 H 2909.48 0.606424 1.85857 0
M  V30 29887 H 2908.18 0.610835 4.05829 0
M  V30 29888 H 2907.71 -1.07434 3.78446 0
M  V30 29889 H 2909.73 -2.1252 4.48385 0
M  V30 29890 N 2908.9 -1.56605 0.176849 0
M  V30 29891 C 2910.13 -2.01865 -0.475954 0
M  V30 29892 C 2910.55 -1.05626 -1.55643 0
M  V30 29893 O 2909.91 -0.0367048 -1.81263 0
M  V30 29894 C 2909.96 -3.45692 -1.02613 0
M  V30 29895 O 2909.06 -3.52537 -2.13989 0
M  V30 29896 H 2908.4 -0.654253 -0.113351 0
M  V30 29897 H 2910.93 -2.02642 0.282365 0
M  V30 29898 H 2910.94 -3.85111 -1.34735 0
M  V30 29899 H 2909.62 -4.15235 -0.235065 0
M  V30 29900 H 2908.19 -3.24981 -1.8287 0
M  V30 29901 N 2910.38 0.0968524 -1.57302 0
M  V30 29902 C 2911.61 0.814261 -1.90204 0
M  V30 29903 C 2912.02 1.72368 -0.770374 0
M  V30 29904 O 2911.38 1.80671 0.257732 0
M  V30 29905 C 2911.43 1.6291 -3.22711 0
M  V30 29906 O 2911.15 0.756267 -4.31523 0
M  V30 29907 C 2912.65 2.44972 -3.69464 0
M  V30 29908 H 2909.87 0.232914 -0.629279 0
M  V30 29909 H 2912.42 0.0746122 -2.04364 0
M  V30 29910 H 2910.57 2.32128 -3.10154 0
M  V30 29911 H 2910.98 1.32046 -5.07606 0
M  V30 29912 H 2912.46 2.97641 -4.6488 0
M  V30 29913 H 2912.94 3.23355 -2.97217 0
M  V30 29914 H 2913.54 1.80957 -3.84883 0
M  V30 29915 N 2911.86 1.53252 0.36763 0
M  V30 29916 C 2913.27 1.61045 0.944535 0
M  V30 29917 C 2913.62 0.476579 1.90324 0
M  V30 29918 O 2912.74 -0.397296 2.12722 0
M  V30 29919 C 2913.34 2.91901 1.71987 0
M  V30 29920 C 2911.9 3.02035 2.24614 0
M  V30 29921 C 2911.04 2.56326 1.05795 0
M  V30 29922 H 2914 1.58022 0.146489 0
M  V30 29923 H 2914.02 2.79588 2.5809 0
M  V30 29924 H 2913.53 3.74406 1.02185 0
M  V30 29925 H 2911.63 2.24114 2.97664 0
M  V30 29926 H 2911.74 4.07077 2.52636 0
M  V30 29927 H 2910.11 2.11152 1.42432 0
M  V30 29928 H 2910.89 3.41246 0.374948 0
M  V30 29929 N 2913.34 -0.627313 1.44577 0
M  V30 29930 C 2914.58 -1.39832 1.49085 0
M  V30 29931 C 2914.94 -1.91614 0.121677 0
M  V30 29932 O 2916.14 -2.68768 0.0414357 0
M  V30 29933 C 2914.41 -2.52968 2.52472 0
M  V30 29934 S 2915.97 -3.41084 2.76056 0
M  V30 29935 H 2912.79 -0.476988 0.52726 0
M  V30 29936 H 2915.39 -0.725841 1.81526 0
M  V30 29937 H 2914.09 -2.13243 3.5065 0
M  V30 29938 H 2913.63 -3.25039 2.21616 0
M  V30 29939 H 2915.64 -4.50528 2.0794 0
M  V30 29940 N 2914.81 -1.31539 -0.868063 0
M  V30 29941 C 2916.04 -1.24435 -1.65924 0
M  V30 29942 C 2916.46 0.186903 -1.87169 0
M  V30 29943 O 2915.82 1.13369 -1.41482 0
M  V30 29944 C 2915.87 -1.99565 -3.00343 0
M  V30 29945 O 2914.97 -1.33429 -3.90218 0
M  V30 29946 H 2914.31 -0.429521 -0.506367 0
M  V30 29947 H 2916.84 -1.73639 -1.08216 0
M  V30 29948 H 2916.85 -2.09233 -3.50265 0
M  V30 29949 H 2915.53 -3.0365 -2.842 0
M  V30 29950 H 2914.11 -1.32225 -3.4867 0
M  V30 29951 N 2916.29 1.08262 -1.1453 0
M  V30 29952 C 2917.54 1.8032 -0.91263 0
M  V30 29953 C 2917.86 1.86719 0.562224 0
M  V30 29954 O 2917.13 1.36137 1.40867 0
M  V30 29955 H 2915.71 0.667843 -0.334657 0
M  V30 29956 H 2918.37 1.30881 -1.44417 0
M  V30 29957 H 2917.47 2.83096 -1.31389 0
M  V30 29958 N 2917.77 0.940655 1.26449 0
M  V30 29959 C 2918.99 0.604155 1.98405 0
M  V30 29960 C 2919.42 -0.81379 1.69585 0
M  V30 29961 O 2918.78 -1.5481 0.943581 0
M  V30 29962 C 2918.83 0.852197 3.50385 0
M  V30 29963 O 2917.93 -0.0759406 4.1233 0
M  V30 29964 H 2917.27 0.231164 0.622462 0
M  V30 29965 H 2919.8 1.26344 1.60929 0
M  V30 29966 H 2919.81 0.772887 4.00613 0
M  V30 29967 H 2918.49 1.88572 3.70693 0
M  V30 29968 H 2917.06 0.0543843 3.7286 0
M  V30 29969 N 2919.25 -1.40821 0.707617 0
M  V30 29970 C 2920.49 -2.01822 0.252864 0
M  V30 29971 C 2920.85 -1.55083 -1.13873 0
M  V30 29972 O 2920.14 -0.75747 -1.75991 0
M  V30 29973 C 2920.34 -3.56431 0.262955 0
M  V30 29974 C 2920.16 -4.18178 1.65399 0
M  V30 29975 C 2918.93 -4.51956 2.25974 0
M  V30 29976 C 2921.13 -4.43575 2.6028 0
M  V30 29977 N 2919.11 -4.99054 3.57517 0
M  V30 29978 C 2920.49 -4.92579 3.76518 0
M  V30 29979 C 2922.54 -4.25602 2.58393 0
M  V30 29980 C 2921.24 -5.25499 4.91166 0
M  V30 29981 C 2923.27 -4.59618 3.72163 0
M  V30 29982 C 2922.63 -5.08804 4.87132 0
M  V30 29983 H 2918.73 -0.769694 0.138186 0
M  V30 29984 H 2921.31 -1.71178 0.927697 0
M  V30 29985 H 2919.49 -3.86523 -0.381411 0
M  V30 29986 H 2921.22 -4.04166 -0.207759 0
M  V30 29987 H 2917.97 -4.38818 1.78146 0
M  V30 29988 H 2918.4 -5.26995 4.24977 0
M  V30 29989 H 2923.04 -3.86802 1.70717 0
M  V30 29990 H 2920.76 -5.63217 5.79493 0
M  V30 29991 H 2924.34 -4.4736 3.71969 0
M  V30 29992 H 2923.22 -5.3463 5.73707 0
M  V30 29993 N 2920.73 -0.453223 -1.50943 0
M  V30 29994 C 2921.66 0.340399 -2.31005 0
M  V30 29995 C 2922.64 1.00667 -1.37114 0
M  V30 29996 O 2923.82 1.00727 -1.66035 0
M  V30 29997 C 2920.95 1.43295 -3.1636 0
M  V30 29998 C 2919.91 0.889289 -4.18659 0
M  V30 29999 C 2919.23 2.07879 -4.92636 0
M  V30 30000 C 2920.53 -0.087206 -5.22227 0
M  V30 30001 H 2922.23 -0.327775 -2.976 0
M  V30 30002 H 2919.77 -0.159079 -1.43119 0
M  V30 30003 H 2921.72 1.99549 -3.71158 0
M  V30 30004 H 2920.45 2.12964 -2.47617 0
M  V30 30005 H 2919.11 0.348851 -3.64936 0
M  V30 30006 H 2918.76 2.76204 -4.20381 0
M  V30 30007 H 2918.46 1.72133 -5.61822 0
M  V30 30008 H 2919.98 2.64656 -5.50263 0
M  V30 30009 H 2921.39 0.385555 -5.72002 0
M  V30 30010 H 2919.79 -0.358031 -5.99031 0
M  V30 30011 H 2920.86 -1.01887 -4.74075 0
M  V30 30012 N 2922.2 1.56509 -0.185151 0
M  V30 30013 C 2923.15 2.18626 0.73969 0
M  V30 30014 C 2924.12 1.13044 1.21698 0
M  V30 30015 O 2925.31 1.41254 1.28266 0
M  V30 30016 C 2922.45 2.84189 1.95782 0
M  V30 30017 C 2921.56 4.0427 1.52282 0
M  V30 30018 C 2920.69 4.57719 2.69568 0
M  V30 30019 C 2919.73 5.70179 2.22626 0
M  V30 30020 N 2918.87 6.18077 3.33054 0
M  V30 30021 H 2923.71 2.97306 0.203216 0
M  V30 30022 H 2921.25 1.46833 0.0885688 0
M  V30 30023 H 2923.2 3.20366 2.67248 0
M  V30 30024 H 2921.83 2.08089 2.46777 0
M  V30 30025 H 2920.89 3.73821 0.704392 0
M  V30 30026 H 2922.2 4.85637 1.13835 0
M  V30 30027 H 2921.35 4.9615 3.49171 0
M  V30 30028 H 2920.09 3.75438 3.11283 0
M  V30 30029 H 2919.1 5.31286 1.41474 0
M  V30 30030 H 2920.32 6.54271 1.81953 0
M  V30 30031 H 2918.27 5.38722 3.74319 0
M  V30 30032 H 2918.18 6.9447 2.98744 0
M  V30 30033 H 2919.45 6.6116 4.12901 0
M  V30 30034 N 2923.68 -0.0885089 1.57351 0
M  V30 30035 C 2924.96 -0.822842 1.7745 0
M  V30 30036 C 2925.34 -1.96615 0.768497 0
M  V30 30037 O 2924.69 -2.27608 -0.201717 0
M  V30 30038 C 2924.9 -1.31132 3.23428 0
M  V30 30039 C 2926.24 -1.75145 3.86794 0
M  V30 30040 O 2927.27 -1.40739 3.27217 0
M  V30 30041 O 2926.13 -2.38786 4.91573 0
M  V30 30042 H 2923.22 -0.392989 0.727659 0
M  V30 30043 H 2925.77 -0.0698797 1.69556 0
M  V30 30044 H 2924.54 -0.492472 3.88189 0
M  V30 30045 H 2924.16 -2.12609 3.35981 0
M  V30 30046 N 2925.16 -1.53445 -0.359498 0
M  V30 30047 C 2926.41 -1.70173 -1.10312 0
M  V30 30048 C 2926.74 -0.455321 -1.88787 0
M  V30 30049 O 2926.01 0.547481 -1.86636 0
M  V30 30050 C 2926.3 -2.9554 -2.05738 0
M  V30 30051 C 2926.15 -4.30352 -1.30832 0
M  V30 30052 C 2927.47 -3.16524 -3.05779 0
M  V30 30053 H 2924.59 -0.619232 -0.399651 0
M  V30 30054 H 2927.23 -1.86093 -0.383305 0
M  V30 30055 H 2925.38 -2.82098 -2.6712 0
M  V30 30056 H 2927.05 -4.55617 -0.721879 0
M  V30 30057 H 2925.29 -4.29487 -0.610208 0
M  V30 30058 H 2925.97 -5.14218 -2.00709 0
M  V30 30059 H 2928.44 -3.29191 -2.54504 0
M  V30 30060 H 2927.32 -4.05666 -3.69765 0
M  V30 30061 H 2927.58 -2.32083 -3.76284 0
M  V30 30062 N 2926.64 0.619637 -1.44908 0
M  V30 30063 C 2927.88 1.37911 -1.49506 0
M  V30 30064 C 2928.24 1.91959 -0.130192 0
M  V30 30065 O 2927.53 1.71404 0.856233 0
M  V30 30066 C 2927.73 2.55404 -2.50007 0
M  V30 30067 C 2927.55 2.12861 -3.96132 0
M  V30 30068 C 2926.32 1.99598 -4.64208 0
M  V30 30069 C 2928.52 1.71065 -4.85017 0
M  V30 30070 N 2926.5 1.50737 -5.95106 0
M  V30 30071 C 2927.88 1.33533 -6.05449 0
M  V30 30072 C 2929.93 1.58548 -4.71982 0
M  V30 30073 C 2928.63 0.847358 -7.14291 0
M  V30 30074 C 2930.66 1.11155 -5.8086 0
M  V30 30075 C 2930.02 0.745809 -7.00441 0
M  V30 30076 H 2926.12 0.499024 -0.602079 0
M  V30 30077 H 2928.7 0.709648 -1.81307 0
M  V30 30078 H 2926.88 3.19963 -2.20178 0
M  V30 30079 H 2928.61 3.22244 -2.44828 0
M  V30 30080 H 2925.36 2.2041 -4.19186 0
M  V30 30081 H 2925.79 1.28574 -6.64679 0
M  V30 30082 H 2930.43 1.85454 -3.79956 0
M  V30 30083 H 2928.15 0.565832 -8.06117 0
M  V30 30084 H 2931.73 1.01913 -5.72804 0
M  V30 30085 H 2930.61 0.38471 -7.83256 0
M  V30 30086 N 2928.12 1.31997 0.861075 0
M  V30 30087 C 2929.39 1.12817 1.59786 0
M  V30 30088 C 2929.77 -0.313846 2.08754 0
M  V30 30089 O 2929.12 -1.30942 1.8726 0
M  V30 30090 C 2929.33 2.15017 2.74898 0
M  V30 30091 C 2930.68 2.4801 3.44639 0
M  V30 30092 O 2931.7 2.13513 2.85115 0
M  V30 30093 O 2930.56 3.07121 4.52039 0
M  V30 30094 H 2927.66 0.434921 0.703401 0
M  V30 30095 H 2930.2 1.43506 0.905763 0
M  V30 30096 H 2928.97 3.11976 2.36193 0
M  V30 30097 H 2928.6 1.85285 3.51788 0
M  V30 30098 N 2929.59 -1.07653 1.15103 0
M  V30 30099 C 2930.84 -1.80618 0.935345 0
M  V30 30100 C 2931.2 -1.84898 -0.53202 0
M  V30 30101 O 2930.49 -1.31946 -1.38928 0
M  V30 30102 C 2930.68 -3.25335 1.4796 0
M  V30 30103 C 2930.51 -3.35155 2.99835 0
M  V30 30104 C 2929.28 -3.45895 3.68354 0
M  V30 30105 C 2931.48 -3.26166 3.97644 0
M  V30 30106 N 2929.46 -3.44587 5.08068 0
M  V30 30107 C 2930.83 -3.31939 5.23657 0
M  V30 30108 C 2932.89 -3.09955 3.89657 0
M  V30 30109 C 2931.59 -3.23171 6.42614 0
M  V30 30110 C 2933.62 -3.02519 5.08169 0
M  V30 30111 C 2932.98 -3.08902 6.33055 0
M  V30 30112 H 2929.08 -0.674386 0.395888 0
M  V30 30113 H 2931.66 -1.28523 1.46253 0
M  V30 30114 H 2929.83 -3.75857 0.979088 0
M  V30 30115 H 2931.56 -3.86405 1.20305 0
M  V30 30116 H 2928.32 -3.50112 3.18934 0
M  V30 30117 H 2928.74 -3.47469 5.81029 0
M  V30 30118 H 2933.39 -3.03876 2.93971 0
M  V30 30119 H 2931.1 -3.28009 7.38536 0
M  V30 30120 H 2934.69 -2.91084 5.03747 0
M  V30 30121 H 2933.57 -3.03188 7.2322 0
M  V30 30122 N 2931.07 -0.947348 -1.25949 0
M  V30 30123 C 2932.32 -0.593921 -1.92758 0
M  V30 30124 C 2932.63 0.872062 -1.75084 0
M  V30 30125 O 2933.84 1.33513 -2.36403 0
M  V30 30126 C 2932.3 -1.0115 -3.45394 0
M  V30 30127 C 2931.9 -2.49952 -3.7179 0
M  V30 30128 C 2933.65 -0.730259 -4.18172 0
M  V30 30129 C 2931.56 -2.85548 -5.17896 0
M  V30 30130 H 2930.49 -0.218415 -0.721672 0
M  V30 30131 H 2933.14 -1.15082 -1.42928 0
M  V30 30132 H 2931.52 -0.383076 -3.94143 0
M  V30 30133 H 2932.69 -3.17751 -3.33722 0
M  V30 30134 H 2931.01 -2.75471 -3.12258 0
M  V30 30135 H 2933.6 -0.972459 -5.25783 0
M  V30 30136 H 2933.95 0.33315 -4.14965 0
M  V30 30137 H 2934.48 -1.31869 -3.75307 0
M  V30 30138 H 2931.22 -3.90877 -5.26209 0
M  V30 30139 H 2930.74 -2.22416 -5.57038 0
M  V30 30140 H 2932.42 -2.74346 -5.85955 0
M  V30 30141 N 2932.55 1.40444 -0.715075 0
M  V30 30142 C 2933.79 2.02755 -0.258778 0
M  V30 30143 C 2934.15 1.55474 1.12659 0
M  V30 30144 O 2935.36 2.09845 1.67984 0
M  V30 30145 C 2933.63 3.55824 -0.335263 0
M  V30 30146 S 2935.19 4.38778 0.0441239 0
M  V30 30147 H 2932 0.703544 -0.102695 0
M  V30 30148 H 2934.61 1.71573 -0.937181 0
M  V30 30149 H 2933.31 3.87728 -1.34518 0
M  V30 30150 H 2932.84 3.91734 0.361636 0
M  V30 30151 H 2934.86 4.7977 1.26631 0
M  V30 30152 N 2934.03 0.461222 1.507 0
M  V30 30153 C 2935.26 -0.0951392 2.06681 0
M  V30 30154 C 2935.67 -1.3438 1.32618 0
M  V30 30155 O 2935.03 -1.78228 0.392562 0
M  V30 30156 C 2935.08 -0.393253 3.59355 0
M  V30 30157 O 2934.8 0.805872 4.30624 0
M  V30 30158 C 2936.3 -0.997669 4.31928 0
M  V30 30159 H 2933.52 0.00268438 0.670995 0
M  V30 30160 H 2936.07 0.647171 1.9399 0
M  V30 30161 H 2934.22 -1.08548 3.71882 0
M  V30 30162 H 2934.63 0.5445 5.21666 0
M  V30 30163 H 2936.11 -1.15609 5.39758 0
M  V30 30164 H 2936.59 -1.98516 3.91776 0
M  V30 30165 H 2937.19 -0.344114 4.23906 0
M  V30 30166 N 2935.51 -1.56408 0.193449 0
M  V30 30167 C 2936.75 -1.97826 -0.446414 0
M  V30 30168 C 2937.09 -1.08022 -1.61385 0
M  V30 30169 O 2936.36 -0.131873 -1.94052 0
M  V30 30170 C 2936.64 -3.48461 -0.908137 0
M  V30 30171 C 2936.5 -4.49042 0.260993 0
M  V30 30172 C 2937.82 -4.02753 -1.77421 0
M  V30 30173 H 2934.93 -0.719246 -0.160794 0
M  V30 30174 H 2937.58 -1.87865 0.284039 0
M  V30 30175 H 2935.73 -3.5708 -1.53056 0
M  V30 30176 H 2937.4 -4.52463 0.898628 0
M  V30 30177 H 2935.64 -4.24083 0.913024 0
M  V30 30178 H 2936.31 -5.51901 -0.10456 0
M  V30 30179 H 2938.79 -3.96903 -1.24929 0
M  V30 30180 H 2937.66 -5.08525 -2.06624 0
M  V30 30181 H 2937.93 -3.47911 -2.72782 0
M  V30 30182 N 2936.98 0.0801629 -1.57396 0
M  V30 30183 C 2937.91 1.09662 -2.06147 0
M  V30 30184 C 2938.9 1.40877 -0.953298 0
M  V30 30185 O 2940.08 1.50649 -1.2255 0
M  V30 30186 C 2937.21 2.4124 -2.49841 0
M  V30 30187 C 2936.16 2.24398 -3.64458 0
M  V30 30188 C 2935.49 3.61286 -3.94178 0
M  V30 30189 C 2936.79 1.67214 -4.9481 0
M  V30 30190 H 2938.48 0.690977 -2.91317 0
M  V30 30191 H 2936.03 0.330932 -1.40146 0
M  V30 30192 H 2937.98 3.12633 -2.82557 0
M  V30 30193 H 2936.71 2.83768 -1.61688 0
M  V30 30194 H 2935.37 1.55448 -3.32011 0
M  V30 30195 H 2935.01 4.01369 -3.0317 0
M  V30 30196 H 2934.71 3.50859 -4.71351 0
M  V30 30197 H 2936.24 4.34123 -4.29383 0
M  V30 30198 H 2937.65 2.28463 -5.25811 0
M  V30 30199 H 2936.05 1.67505 -5.76248 0
M  V30 30200 H 2937.12 0.632859 -4.80752 0
M  V30 30201 N 2938.46 1.53634 0.351355 0
M  V30 30202 C 2939.69 1.74741 1.11715 0
M  V30 30203 C 2940.11 0.481688 1.81828 0
M  V30 30204 O 2939.47 -0.565202 1.72265 0
M  V30 30205 C 2939.52 2.92258 2.11229 0
M  V30 30206 O 2938.62 2.6186 3.18595 0
M  V30 30207 H 2937.96 0.579881 0.323472 0
M  V30 30208 H 2940.49 2.00569 0.404132 0
M  V30 30209 H 2940.5 3.18826 2.54585 0
M  V30 30210 H 2939.18 3.84061 1.59593 0
M  V30 30211 H 2937.76 2.46155 2.80111 0
M  V30 30212 N 2939.94 -0.611943 1.45234 0
M  V30 30213 C 2941.22 -1.37112 1.39498 0
M  V30 30214 C 2941.6 -2.11005 0.0633674 0
M  V30 30215 O 2940.95 -2.07605 -0.95458 0
M  V30 30216 C 2941.16 -2.32158 2.60583 0
M  V30 30217 C 2942.5 -2.949 3.05482 0
M  V30 30218 O 2943.53 -2.4248 2.60925 0
M  V30 30219 O 2942.39 -3.9004 3.82794 0
M  V30 30220 H 2939.48 -0.61459 0.553361 0
M  V30 30221 H 2942.03 -0.635395 1.57356 0
M  V30 30222 H 2940.8 -1.76787 3.49088 0
M  V30 30223 H 2940.42 -3.13118 2.45037 0
M  V30 30224 N 2941.42 -1.32452 -0.854063 0
M  V30 30225 C 2942.67 -1.23046 -1.60829 0
M  V30 30226 C 2942.99 0.207566 -1.93389 0
M  V30 30227 O 2942.25 1.16072 -1.57562 0
M  V30 30228 C 2942.55 -2.03592 -2.93743 0
M  V30 30229 C 2942.21 -3.52944 -2.80609 0
M  V30 30230 C 2940.88 -3.93664 -2.76735 0
M  V30 30231 C 2943.23 -4.47915 -2.66499 0
M  V30 30232 C 2940.56 -5.27597 -2.56629 0
M  V30 30233 C 2942.91 -5.81992 -2.47929 0
M  V30 30234 C 2941.57 -6.21913 -2.42447 0
M  V30 30235 H 2940.84 -0.450257 -0.588515 0
M  V30 30236 H 2943.49 -1.63884 -0.99067 0
M  V30 30237 H 2941.79 -1.55484 -3.59627 0
M  V30 30238 H 2943.49 -1.93683 -3.51124 0
M  V30 30239 H 2940.08 -3.20603 -2.8445 0
M  V30 30240 H 2944.26 -4.17375 -2.68537 0
M  V30 30241 H 2939.52 -5.57583 -2.50821 0
M  V30 30242 H 2943.69 -6.55196 -2.35991 0
M  V30 30243 H 2941.32 -7.25634 -2.26627 0
M  V30 30244 N 2942.9 1.07041 -1.15672 0
M  V30 30245 C 2943.84 2.14324 -0.856374 0
M  V30 30246 C 2944.81 1.64986 0.192022 0
M  V30 30247 O 2946 1.90709 0.0588813 0
M  V30 30248 C 2943.14 3.43266 -0.355288 0
M  V30 30249 C 2942.25 4.06379 -1.46562 0
M  V30 30250 C 2941.39 5.23167 -0.920337 0
M  V30 30251 C 2940.43 5.78247 -2.00739 0
M  V30 30252 N 2939.56 6.86361 -1.47825 0
M  V30 30253 H 2944.4 2.39356 -1.77518 0
M  V30 30254 H 2941.94 1.17447 -0.885696 0
M  V30 30255 H 2943.9 4.17174 -0.0464537 0
M  V30 30256 H 2942.53 3.18476 0.526593 0
M  V30 30257 H 2941.58 3.30093 -1.89058 0
M  V30 30258 H 2942.89 4.4332 -2.28624 0
M  V30 30259 H 2942.05 6.04071 -0.564233 0
M  V30 30260 H 2940.79 4.87651 -0.0689335 0
M  V30 30261 H 2939.79 4.95986 -2.37229 0
M  V30 30262 H 2941.02 6.15817 -2.86263 0
M  V30 30263 H 2938.96 6.52779 -0.64926 0
M  V30 30264 H 2938.88 7.22204 -2.23511 0
M  V30 30265 H 2940.15 7.70963 -1.15049 0
M  V30 30266 N 2944.38 0.954014 1.25445 0
M  V30 30267 C 2945.6 0.625629 1.97214 0
M  V30 30268 C 2946.02 -0.802138 1.70913 0
M  V30 30269 O 2945.38 -1.53648 0.984809 0
M  V30 30270 C 2945.43 0.874004 3.50775 0
M  V30 30271 O 2945.15 2.24563 3.76169 0
M  V30 30272 C 2946.65 0.557922 4.39775 0
M  V30 30273 H 2943.87 0.234611 0.628648 0
M  V30 30274 H 2946.41 1.27822 1.5963 0
M  V30 30275 H 2944.57 0.267833 3.86473 0
M  V30 30276 H 2944.98 2.3153 4.70632 0
M  V30 30277 H 2946.46 0.782253 5.46429 0
M  V30 30278 H 2946.93 -0.507496 4.36258 0
M  V30 30279 H 2947.54 1.14339 4.09642 0
M  V30 30280 N 2945.85 -1.40063 0.722513 0
M  V30 30281 C 2947.1 -2.01543 0.274256 0
M  V30 30282 C 2947.45 -1.56282 -1.12222 0
M  V30 30283 O 2946.75 -0.776094 -1.75178 0
M  V30 30284 C 2946.94 -3.56132 0.300745 0
M  V30 30285 C 2946.77 -4.16401 1.69825 0
M  V30 30286 C 2945.54 -4.49533 2.30755 0
M  V30 30287 C 2947.74 -4.40789 2.6497 0
M  V30 30288 N 2945.72 -4.95234 3.6279 0
M  V30 30289 C 2947.09 -4.88558 3.81721 0
M  V30 30290 C 2949.15 -4.22838 2.62893 0
M  V30 30291 C 2947.85 -5.20259 4.96712 0
M  V30 30292 C 2949.88 -4.55645 3.77017 0
M  V30 30293 C 2949.24 -5.03609 4.92501 0
M  V30 30294 H 2945.34 -0.768185 0.146342 0
M  V30 30295 H 2947.92 -1.70184 0.9458 0
M  V30 30296 H 2946.09 -3.86906 -0.340393 0
M  V30 30297 H 2947.82 -4.04364 -0.16488 0
M  V30 30298 H 2944.58 -4.36903 1.8279 0
M  V30 30299 H 2945 -5.22458 4.30543 0
M  V30 30300 H 2949.64 -3.84969 1.7481 0
M  V30 30301 H 2947.36 -5.57039 5.85434 0
M  V30 30302 H 2950.95 -4.43389 3.76693 0
M  V30 30303 H 2949.83 -5.28515 5.79346 0
M  V30 30304 N 2947.33 -0.469207 -1.50453 0
M  V30 30305 C 2948.26 0.315879 -2.31354 0
M  V30 30306 C 2949.24 0.99207 -1.38174 0
M  V30 30307 O 2950.43 0.989604 -1.67094 0
M  V30 30308 C 2947.56 1.39931 -3.17862 0
M  V30 30309 C 2946.51 0.844835 -4.19579 0
M  V30 30310 C 2945.84 2.02642 -4.94814 0
M  V30 30311 C 2947.14 -0.14259 -5.22105 0
M  V30 30312 H 2948.83 -0.359322 -2.97236 0
M  V30 30313 H 2946.38 -0.174249 -1.42942 0
M  V30 30314 H 2948.33 1.95601 -3.73254 0
M  V30 30315 H 2947.05 2.10326 -2.49861 0
M  V30 30316 H 2945.71 0.310125 -3.65286 0
M  V30 30317 H 2945.36 2.7173 -4.23287 0
M  V30 30318 H 2945.06 1.66164 -5.63616 0
M  V30 30319 H 2946.59 2.58805 -5.53039 0
M  V30 30320 H 2948 0.324865 -5.72379 0
M  V30 30321 H 2946.4 -0.421546 -5.98618 0
M  V30 30322 H 2947.47 -1.06909 -4.72968 0
M  V30 30323 N 2948.81 1.56303 -0.201741 0
M  V30 30324 C 2949.74 2.16636 0.748428 0
M  V30 30325 C 2950.75 1.12998 1.17198 0
M  V30 30326 O 2951.94 1.40063 1.10656 0
M  V30 30327 C 2949.04 2.71903 2.02292 0
M  V30 30328 C 2948.22 4.00511 1.75811 0
M  V30 30329 C 2947.28 4.40538 2.87771 0
M  V30 30330 O 2946.3 5.07831 2.57092 0
M  V30 30331 N 2947.5 4.04588 4.1628 0
M  V30 30332 H 2950.27 2.98797 0.232453 0
M  V30 30333 H 2947.83 1.61888 -0.0200106 0
M  V30 30334 H 2949.82 2.95662 2.76344 0
M  V30 30335 H 2948.39 1.94159 2.44992 0
M  V30 30336 H 2947.61 3.84815 0.855028 0
M  V30 30337 H 2948.9 4.84448 1.55524 0
M  V30 30338 H 2948.3 3.50474 4.44055 0
M  V30 30339 H 2946.85 4.33283 4.86939 0
M  V30 30340 N 2950.29 -0.0718147 1.57436 0
M  V30 30341 C 2951.51 -0.787712 1.91859 0
M  V30 30342 C 2951.94 -1.70327 0.798149 0
M  V30 30343 O 2951.3 -1.79582 -0.249018 0
M  V30 30344 C 2951.34 -1.55738 3.25235 0
M  V30 30345 O 2950.45 -2.66804 3.14467 0
M  V30 30346 H 2949.79 -0.214903 0.628262 0
M  V30 30347 H 2952.32 -0.0400653 2.04561 0
M  V30 30348 H 2952.33 -1.93663 3.59108 0
M  V30 30349 H 2951 -0.88562 4.06361 0
M  V30 30350 H 2949.58 -2.31736 2.92152 0
M  V30 30351 N 2951.77 -1.53818 -0.343203 0
M  V30 30352 C 2952.71 -1.8183 -1.4215 0
M  V30 30353 C 2953.68 -0.664023 -1.5225 0
M  V30 30354 O 2954.87 -0.908491 -1.67783 0
M  V30 30355 C 2952.01 -2.03389 -2.78796 0
M  V30 30356 C 2951.12 -3.31099 -2.77484 0
M  V30 30357 C 2950.26 -3.42724 -4.0585 0
M  V30 30358 C 2949.29 -4.64382 -3.98768 0
M  V30 30359 N 2948.43 -4.73038 -5.18825 0
M  V30 30360 H 2953.27 -2.73831 -1.17562 0
M  V30 30361 H 2950.81 -1.35629 -0.569482 0
M  V30 30362 H 2952.77 -2.13878 -3.58207 0
M  V30 30363 H 2951.4 -1.14701 -3.01734 0
M  V30 30364 H 2950.45 -3.2945 -1.90176 0
M  V30 30365 H 2951.76 -4.20605 -2.68129 0
M  V30 30366 H 2950.91 -3.52647 -4.93685 0
M  V30 30367 H 2949.65 -2.51275 -4.17986 0
M  V30 30368 H 2948.66 -4.54536 -3.09317 0
M  V30 30369 H 2949.88 -5.57195 -3.88214 0
M  V30 30370 H 2947.83 -3.84499 -5.31504 0
M  V30 30371 H 2947.75 -5.56481 -5.11728 0
M  V30 30372 H 2949.01 -4.87271 -6.0843 0
M  V30 30373 N 2953.24 0.604233 -1.45557 0
M  V30 30374 C 2954.17 1.72539 -1.5733 0
M  V30 30375 C 2955.15 1.64714 -0.424666 0
M  V30 30376 O 2956.34 1.83062 -0.648228 0
M  V30 30377 C 2953.47 3.11149 -1.54284 0
M  V30 30378 C 2952.42 3.33788 -2.67899 0
M  V30 30379 C 2951.75 4.72705 -2.49908 0
M  V30 30380 C 2953.05 3.23715 -4.09886 0
M  V30 30381 H 2954.74 1.62942 -2.51177 0
M  V30 30382 H 2952.29 0.782483 -1.20885 0
M  V30 30383 H 2954.24 3.89383 -1.61117 0
M  V30 30384 H 2952.97 3.21593 -0.569684 0
M  V30 30385 H 2951.63 2.57945 -2.60499 0
M  V30 30386 H 2951.27 4.79887 -1.50724 0
M  V30 30387 H 2950.97 4.88807 -3.261 0
M  V30 30388 H 2952.5 5.53135 -2.586 0
M  V30 30389 H 2953.91 3.91819 -4.1851 0
M  V30 30390 H 2952.31 3.51346 -4.86494 0
M  V30 30391 H 2953.38 2.21104 -4.31557 0
M  V30 30392 N 2954.72 1.32903 0.847027 0
M  V30 30393 C 2955.65 1.25095 1.97164 0
M  V30 30394 C 2956.63 0.133191 1.69578 0
M  V30 30395 O 2957.82 0.321625 1.91518 0
M  V30 30396 C 2954.95 0.981064 3.33155 0
M  V30 30397 C 2953.9 2.06088 3.75116 0
M  V30 30398 C 2953.23 1.64327 5.08823 0
M  V30 30399 C 2954.53 3.47676 3.89768 0
M  V30 30400 H 2956.22 2.19187 2.03954 0
M  V30 30401 H 2953.77 1.05519 0.979888 0
M  V30 30402 H 2955.72 0.912964 4.11391 0
M  V30 30403 H 2954.44 0.00451299 3.266 0
M  V30 30404 H 2953.1 2.11927 2.99137 0
M  V30 30405 H 2952.75 0.653964 4.98731 0
M  V30 30406 H 2952.45 2.36582 5.37869 0
M  V30 30407 H 2953.98 1.58968 5.89543 0
M  V30 30408 H 2955.39 3.44384 4.58337 0
M  V30 30409 H 2953.79 4.18346 4.30241 0
M  V30 30410 H 2954.86 3.86778 2.92456 0
M  V30 30411 N 2956.2 -1.06426 1.16238 0
M  V30 30412 C 2957.61 -1.60666 0.950971 0
M  V30 30413 C 2957.96 -1.89577 -0.505457 0
M  V30 30414 O 2957.09 -1.6682 -1.3784 0
M  V30 30415 C 2957.68 -2.91901 1.71987 0
M  V30 30416 C 2956.24 -3.42847 1.55348 0
M  V30 30417 C 2955.39 -2.1676 1.72946 0
M  V30 30418 H 2958.34 -0.893936 1.31128 0
M  V30 30419 H 2958.36 -3.61251 1.1949 0
M  V30 30420 H 2957.87 -2.70826 2.77983 0
M  V30 30421 H 2955.97 -3.68984 0.517865 0
M  V30 30422 H 2956.09 -4.18263 2.33651 0
M  V30 30423 H 2954.45 -2.26916 1.15677 0
M  V30 30424 H 2955.23 -1.9817 2.80327 0
M  V30 30425 N 2957.68 -0.960653 -1.24937 0
M  V30 30426 C 2959.09 -0.666043 -1.45038 0
M  V30 30427 C 2959.29 0.774469 -1.86022 0
M  V30 30428 O 2958.35 1.54913 -1.99395 0
M  V30 30429 C 2959.66 -1.64412 -2.51772 0
M  V30 30430 C 2961.21 -1.65596 -2.65607 0
M  V30 30431 C 2961.69 -2.62183 -3.75531 0
M  V30 30432 N 2963.18 -2.60584 -3.8295 0
M  V30 30433 C 2963.91 -3.31995 -4.67511 0
M  V30 30434 N 2963.41 -4.129 -5.56314 0
M  V30 30435 N 2965.2 -3.20853 -4.6153 0
M  V30 30436 H 2957.35 -1.89147 -0.966287 0
M  V30 30437 H 2959.62 -0.813934 -0.486019 0
M  V30 30438 H 2959.32 -2.67333 -2.28529 0
M  V30 30439 H 2959.2 -1.41134 -3.49801 0
M  V30 30440 H 2961.58 -0.633896 -2.88211 0
M  V30 30441 H 2961.66 -1.92934 -1.67958 0
M  V30 30442 H 2961.31 -3.6452 -3.53677 0
M  V30 30443 H 2961.24 -2.32128 -4.72678 0
M  V30 30444 H 2963.73 -2.01853 -3.19474 0
M  V30 30445 H 2964.04 -4.64294 -6.17779 0
M  V30 30446 H 2962.39 -4.16996 -5.56003 0
M  V30 30447 H 2965.58 -2.57115 -3.91164 0
M  V30 30448 H 2965.75 -3.76772 -5.27207 0
M  V30 30449 N 2959.16 1.39677 -0.729931 0
M  V30 30450 C 2960.09 2.33279 -0.101659 0
M  V30 30451 C 2961.07 1.53647 0.729827 0
M  V30 30452 O 2962.25 1.82061 0.675838 0
M  V30 30453 C 2959.38 3.37718 0.810181 0
M  V30 30454 C 2958.34 4.27919 0.0832374 0
M  V30 30455 C 2957.66 5.23014 1.11175 0
M  V30 30456 C 2958.96 5.11198 -1.07116 0
M  V30 30457 H 2960.66 2.86067 -0.883503 0
M  V30 30458 H 2958.2 1.37545 -0.426307 0
M  V30 30459 H 2960.16 4.02147 1.2592 0
M  V30 30460 H 2958.88 2.83357 1.62408 0
M  V30 30461 H 2957.54 3.64963 -0.346107 0
M  V30 30462 H 2957.19 4.64952 1.91909 0
M  V30 30463 H 2956.89 5.84211 0.630157 0
M  V30 30464 H 2958.41 5.9032 1.56058 0
M  V30 30465 H 2959.82 5.69 -0.700826 0
M  V30 30466 H 2958.22 5.81511 -1.48206 0
M  V30 30467 H 2959.29 4.46329 -1.89521 0
M  V30 30468 N 2960.63 0.47718 1.50202 0
M  V30 30469 C 2962.05 0.0235369 1.86685 0
M  V30 30470 C 2962.4 -1.38317 1.39151 0
M  V30 30471 O 2961.52 -2.0265 0.759087 0
M  V30 30472 C 2962.12 0.0359362 3.38781 0
M  V30 30473 C 2960.68 -0.362261 3.74653 0
M  V30 30474 C 2959.82 0.418798 2.74119 0
M  V30 30475 H 2962.77 0.691158 1.42859 0
M  V30 30476 H 2962.79 -0.764858 3.72733 0
M  V30 30477 H 2962.31 1.05988 3.73347 0
M  V30 30478 H 2960.41 -1.39033 3.45689 0
M  V30 30479 H 2960.52 -0.0593728 4.79063 0
M  V30 30480 H 2958.88 -0.128296 2.54377 0
M  V30 30481 H 2959.67 1.44236 3.1153 0
M  V30 30482 N 2962.11 -1.56194 0.210027 0
M  V30 30483 C 2963.36 -1.97604 -0.423939 0
M  V30 30484 C 2963.68 -1.09857 -1.6111 0
M  V30 30485 O 2962.95 -0.173067 -1.95134 0
M  V30 30486 H 2961.53 -0.729748 -0.159616 0
M  V30 30487 H 2964.19 -1.92574 0.300239 0
M  V30 30488 H 2963.29 -3.02754 -0.758037 0
M  V30 30489 N 2963.59 0.0634645 -1.57472 0
M  V30 30490 C 2964.52 1.07469 -2.07298 0
M  V30 30491 C 2965.5 1.39858 -0.968186 0
M  V30 30492 O 2966.69 1.4934 -1.24141 0
M  V30 30493 C 2963.82 2.38577 -2.52385 0
M  V30 30494 C 2962.77 2.2052 -3.66817 0
M  V30 30495 C 2962.1 3.57085 -3.97988 0
M  V30 30496 C 2963.4 1.61956 -4.96556 0
M  V30 30497 H 2965.09 0.66004 -2.92034 0
M  V30 30498 H 2962.64 0.316049 -1.40489 0
M  V30 30499 H 2964.59 3.09619 -2.85857 0
M  V30 30500 H 2963.31 2.82037 -1.64689 0
M  V30 30501 H 2961.97 1.51918 -3.33641 0
M  V30 30502 H 2961.62 3.98131 -3.0741 0
M  V30 30503 H 2961.32 3.4584 -4.75046 0
M  V30 30504 H 2962.84 4.29544 -4.33963 0
M  V30 30505 H 2964.26 2.22873 -5.28205 0
M  V30 30506 H 2962.66 1.61384 -5.77992 0
M  V30 30507 H 2963.73 0.581834 -4.81397 0
M  V30 30508 N 2965.07 1.53998 0.33504 0
M  V30 30509 C 2966.48 1.63012 0.910162 0
M  V30 30510 C 2966.83 0.516843 1.8927 0
M  V30 30511 O 2965.96 -0.352085 2.13517 0
M  V30 30512 C 2966.55 2.95483 1.65756 0
M  V30 30513 C 2965.11 3.06732 2.18157 0
M  V30 30514 C 2964.26 2.58512 1.00334 0
M  V30 30515 H 2967.21 1.58298 0.112937 0
M  V30 30516 H 2967.23 2.85 2.52102 0
M  V30 30517 H 2966.74 3.76489 0.942204 0
M  V30 30518 H 2964.84 2.30377 2.92843 0
M  V30 30519 H 2964.95 4.12344 2.43945 0
M  V30 30520 H 2963.32 2.14126 1.37921 0
M  V30 30521 H 2964.1 3.41965 0.30248 0
M  V30 30522 N 2966.55 -0.596505 1.45875 0
M  V30 30523 C 2967.79 -1.35518 1.50469 0
M  V30 30524 C 2968.12 -1.93914 0.150836 0
M  V30 30525 O 2967.38 -1.76186 -0.851882 0
M  V30 30526 C 2967.68 -2.51395 2.54038 0
M  V30 30527 C 2967.34 -2.11078 3.98443 0
M  V30 30528 C 2966 -1.99796 4.37761 0
M  V30 30529 C 2968.36 -1.79779 4.89213 0
M  V30 30530 C 2965.68 -1.55455 5.6573 0
M  V30 30531 C 2968.04 -1.36921 6.17605 0
M  V30 30532 C 2966.7 -1.24206 6.55842 0
M  V30 30533 H 2965.97 -0.495897 0.550606 0
M  V30 30534 H 2968.62 -0.673113 1.7928 0
M  V30 30535 H 2966.92 -3.24988 2.18837 0
M  V30 30536 H 2968.62 -3.09619 2.54827 0
M  V30 30537 H 2965.21 -2.20788 3.67356 0
M  V30 30538 H 2969.39 -1.87387 4.59565 0
M  V30 30539 H 2964.65 -1.44243 5.94141 0
M  V30 30540 H 2968.82 -1.11752 6.87375 0
M  V30 30541 H 2966.45 -0.896221 7.54899 0
M  V30 30542 N 2968.02 -1.3335 -0.839967 0
M  V30 30543 C 2968.95 -1.26139 -1.96498 0
M  V30 30544 C 2969.94 -0.142182 -1.69505 0
M  V30 30545 O 2971.12 -0.331777 -1.91345 0
M  V30 30546 C 2968.25 -0.998719 -3.3263 0
M  V30 30547 C 2967.2 -2.08075 -3.74017 0
M  V30 30548 C 2966.53 -1.67023 -5.07944 0
M  V30 30549 C 2967.83 -3.49738 -3.87918 0
M  V30 30550 H 2969.52 -2.20266 -2.02789 0
M  V30 30551 H 2967.07 -1.06037 -0.974278 0
M  V30 30552 H 2969.02 -0.934768 -4.10902 0
M  V30 30553 H 2967.75 -0.0218333 -3.26593 0
M  V30 30554 H 2966.41 -2.1351 -2.98008 0
M  V30 30555 H 2966.05 -0.680404 -4.98377 0
M  V30 30556 H 2965.75 -2.39431 -5.36606 0
M  V30 30557 H 2967.28 -1.62092 -5.88692 0
M  V30 30558 H 2968.69 -3.4681 -4.56504 0
M  V30 30559 H 2967.09 -4.20621 -4.28016 0
M  V30 30560 H 2968.16 -3.88324 -2.90401 0
M  V30 30561 N 2969.5 1.05808 -1.16801 0
M  V30 30562 C 2970.73 1.82923 -0.977435 0
M  V30 30563 C 2971.15 1.82147 0.469482 0
M  V30 30564 O 2970.51 1.22588 1.33574 0
M  V30 30565 C 2970.56 3.27208 -1.51549 0
M  V30 30566 O 2969.66 4.05976 -0.725093 0
M  V30 30567 H 2969 0.565819 -0.347484 0
M  V30 30568 H 2971.53 1.33374 -1.55154 0
M  V30 30569 H 2971.54 3.7802 -1.53508 0
M  V30 30570 H 2970.22 3.27088 -2.56877 0
M  V30 30571 H 2968.8 3.64728 -0.776404 0
M  V30 30572 N 2970.98 0.967265 1.24426 0
M  V30 30573 C 2972.22 0.636758 1.94229 0
M  V30 30574 C 2972.58 -0.812941 1.7394 0
M  V30 30575 O 2973.79 -1.25365 2.37775 0
M  V30 30576 C 2972.06 1.00073 3.43104 0
M  V30 30577 S 2973.62 0.784709 4.31726 0
M  V30 30578 H 2970.43 0.233619 0.671523 0
M  V30 30579 H 2973.04 1.24413 1.50804 0
M  V30 30580 H 2971.74 2.05271 3.55376 0
M  V30 30581 H 2971.27 0.384123 3.9152 0
M  V30 30582 H 2973.29 -0.338157 4.95046 0
M  V30 30583 N 2972.46 -1.39288 0.737328 0
M  V30 30584 C 2973.39 -2.29123 0.0592509 0
M  V30 30585 C 2974.4 -1.46935 -0.701 0
M  V30 30586 O 2975.59 -1.69984 -0.544778 0
M  V30 30587 C 2972.69 -3.25594 -0.940301 0
M  V30 30588 C 2971.87 -4.36735 -0.241086 0
M  V30 30589 C 2970.93 -5.135 -1.14907 0
M  V30 30590 O 2969.95 -5.65751 -0.625684 0
M  V30 30591 N 2971.15 -5.24925 -2.4786 0
M  V30 30592 H 2973.92 -2.87957 0.830698 0
M  V30 30593 H 2971.48 -1.50894 0.586744 0
M  V30 30594 H 2973.47 -3.73825 -1.55039 0
M  V30 30595 H 2972.04 -2.67774 -1.61294 0
M  V30 30596 H 2971.26 -3.90351 0.549509 0
M  V30 30597 H 2972.55 -5.08218 0.243389 0
M  V30 30598 H 2971.95 -4.83996 -2.92856 0
M  V30 30599 H 2970.5 -5.76587 -3.03959 0
M  V30 30600 N 2973.94 -0.485139 -1.49947 0
M  V30 30601 C 2975.35 -0.140124 -1.58984 0
M  V30 30602 C 2975.55 1.35435 -1.49196 0
M  V30 30603 O 2974.61 2.12892 -1.35769 0
M  V30 30604 C 2975.92 -0.702821 -2.92371 0
M  V30 30605 C 2977.47 -0.667503 -3.058 0
M  V30 30606 C 2977.95 -1.20799 -4.41782 0
M  V30 30607 N 2979.44 -1.168 -4.48232 0
M  V30 30608 C 2980.17 -1.55656 -5.51869 0
M  V30 30609 N 2979.67 -2.02028 -6.62689 0
M  V30 30610 N 2981.46 -1.47171 -5.42492 0
M  V30 30611 H 2973.61 -1.45696 -1.54552 0
M  V30 30612 H 2975.87 -0.603372 -0.731195 0
M  V30 30613 H 2975.58 -1.75031 -3.05053 0
M  V30 30614 H 2975.45 -0.154271 -3.76884 0
M  V30 30615 H 2977.84 0.371105 -2.92757 0
M  V30 30616 H 2977.92 -1.25302 -2.23009 0
M  V30 30617 H 2977.57 -2.2453 -4.55575 0
M  V30 30618 H 2977.5 -0.598556 -5.23187 0
M  V30 30619 H 2979.99 -0.828047 -3.68716 0
M  V30 30620 H 2980.3 -2.29788 -7.37846 0
M  V30 30621 H 2978.65 -2.05991 -6.63772 0
M  V30 30622 H 2981.84 -1.10773 -4.54804 0
M  V30 30623 H 2982.01 -1.77777 -6.23137 0
M  V30 30624 N 2975.42 1.56081 -0.218307 0
M  V30 30625 C 2976.66 1.97826 0.413454 0
M  V30 30626 C 2976.98 1.1071 1.60525 0
M  V30 30627 O 2976.25 0.183413 1.9504 0
M  V30 30628 H 2974.83 0.730584 0.155744 0
M  V30 30629 H 2977.5 1.92412 -0.310447 0
M  V30 30630 H 2976.59 3.03152 0.741971 0
M  V30 30631 N 2976.89 -0.0551124 1.57504 0
M  V30 30632 C 2978.12 -0.762439 1.92017 0
M  V30 30633 C 2978.53 -1.70789 0.814118 0
M  V30 30634 O 2977.87 -1.82375 -0.220241 0
M  V30 30635 C 2977.94 -1.59592 3.22135 0
M  V30 30636 C 2977.6 -0.818062 4.49618 0
M  V30 30637 C 2978.6 -0.129842 5.19738 0
M  V30 30638 C 2976.28 -0.780299 4.96202 0
M  V30 30639 C 2978.28 0.585727 6.34703 0
M  V30 30640 C 2975.96 -0.0609682 6.1107 0
M  V30 30641 C 2976.96 0.620829 6.80173 0
M  V30 30642 O 2976.65 1.32854 7.92846 0
M  V30 30643 H 2976.38 -0.220956 0.63887 0
M  V30 30644 H 2978.94 -0.0246001 2.05385 0
M  V30 30645 H 2977.17 -2.37696 3.05021 0
M  V30 30646 H 2978.85 -2.18345 3.4217 0
M  V30 30647 H 2979.62 -0.150214 4.84767 0
M  V30 30648 H 2975.5 -1.30046 4.42277 0
M  V30 30649 H 2979.04 1.11845 6.88576 0
M  V30 30650 H 2974.94 -0.038581 6.45488 0
M  V30 30651 H 2975.71 1.23952 8.0906 0
M  V30 30652 N 2978.37 -1.54173 -0.326869 0
M  V30 30653 C 2979.32 -1.83327 -1.40213 0
M  V30 30654 C 2980.29 -0.680134 -1.51537 0
M  V30 30655 O 2981.47 -0.926235 -1.6681 0
M  V30 30656 C 2978.61 -2.06334 -2.76623 0
M  V30 30657 C 2977.73 -3.34023 -2.73957 0
M  V30 30658 C 2976.86 -3.47009 -4.02192 0
M  V30 30659 C 2975.9 -4.68585 -3.9382 0
M  V30 30660 N 2975.04 -4.78515 -5.13778 0
M  V30 30661 H 2979.88 -2.75062 -1.14651 0
M  V30 30662 H 2977.41 -1.36226 -0.555065 0
M  V30 30663 H 2979.37 -2.17665 -3.55918 0
M  V30 30664 H 2978 -1.17895 -3.00501 0
M  V30 30665 H 2977.05 -3.31448 -1.86671 0
M  V30 30666 H 2978.37 -4.23425 -2.63653 0
M  V30 30667 H 2977.52 -3.57863 -4.89917 0
M  V30 30668 H 2976.26 -2.55694 -4.15297 0
M  V30 30669 H 2975.26 -4.57791 -3.04479 0
M  V30 30670 H 2976.49 -5.61282 -3.82282 0
M  V30 30671 H 2974.44 -3.90114 -5.27396 0
M  V30 30672 H 2974.35 -5.61877 -5.05797 0
M  V30 30673 H 2975.62 -4.93697 -6.03228 0
M  V30 30674 N 2979.85 0.58876 -1.4619 0
M  V30 30675 C 2981.1 1.34452 -1.50887 0
M  V30 30676 C 2981.42 1.94346 -0.159589 0
M  V30 30677 O 2980.69 1.78224 0.813208 0
M  V30 30678 H 2979.27 0.499189 -0.555716 0
M  V30 30679 H 2981.93 0.689982 -1.82278 0
M  V30 30680 H 2981.03 2.15434 -2.2582 0
M  V30 30681 N 2981.33 1.33794 0.832883 0
M  V30 30682 C 2982.57 1.25775 1.59086 0
M  V30 30683 C 2982.91 -0.174567 1.93414 0
M  V30 30684 O 2982.18 -1.11743 1.59197 0
M  V30 30685 C 2982.46 2.1389 2.89695 0
M  V30 30686 C 2982.32 3.65609 2.62011 0
M  V30 30687 C 2983.64 2.01661 3.91179 0
M  V30 30688 H 2980.76 0.458237 0.577224 0
M  V30 30689 H 2983.4 1.63952 0.960199 0
M  V30 30690 H 2981.55 1.81462 3.43517 0
M  V30 30691 H 2983.22 4.08357 2.14575 0
M  V30 30692 H 2981.46 3.87192 1.95614 0
M  V30 30693 H 2982.13 4.22616 3.55105 0
M  V30 30694 H 2984.61 2.30113 3.4668 0
M  V30 30695 H 2983.49 2.65556 4.80386 0
M  V30 30696 H 2983.75 0.990612 4.30859 0
M  V30 30697 N 2982.81 -1.05187 1.1736 0
M  V30 30698 C 2984.05 -1.78593 0.973446 0
M  V30 30699 C 2984.41 -1.85985 -0.49268 0
M  V30 30700 O 2983.7 -1.34863 -1.36098 0
M  V30 30701 C 2983.89 -3.22123 1.54827 0
M  V30 30702 C 2983.72 -3.2872 3.06877 0
M  V30 30703 C 2982.49 -3.38004 3.75608 0
M  V30 30704 C 2984.69 -3.17658 4.04473 0
M  V30 30705 N 2982.67 -3.33732 5.15263 0
M  V30 30706 C 2984.04 -3.20757 5.3058 0
M  V30 30707 C 2986.1 -3.0162 3.96144 0
M  V30 30708 C 2984.8 -3.09467 6.49325 0
M  V30 30709 C 2986.83 -2.91672 5.14472 0
M  V30 30710 C 2986.19 -2.95404 6.39465 0
M  V30 30711 H 2982.29 -0.665837 0.410104 0
M  V30 30712 H 2984.87 -1.25392 1.48946 0
M  V30 30713 H 2983.04 -3.73696 1.05859 0
M  V30 30714 H 2984.78 -3.83766 1.28474 0
M  V30 30715 H 2981.53 -3.43268 3.26289 0
M  V30 30716 H 2981.95 -3.35066 5.88268 0
M  V30 30717 H 2986.6 -2.97572 3.00351 0
M  V30 30718 H 2984.31 -3.1227 7.45328 0
M  V30 30719 H 2987.9 -2.80334 5.09808 0
M  V30 30720 H 2986.78 -2.87779 7.29488 0
M  V30 30721 N 2984.28 -0.97385 -1.23911 0
M  V30 30722 C 2985.7 -0.681389 -1.44323 0
M  V30 30723 C 2985.9 0.754695 -1.86833 0
M  V30 30724 O 2984.96 1.52789 -2.01027 0
M  V30 30725 C 2986.27 -1.67073 -2.50014 0
M  V30 30726 C 2987.82 -1.68404 -2.63835 0
M  V30 30727 C 2988.29 -2.66152 -3.72729 0
M  V30 30728 N 2989.78 -2.64631 -3.80164 0
M  V30 30729 C 2990.52 -3.36935 -4.63964 0
M  V30 30730 N 2990.01 -4.18777 -5.51904 0
M  V30 30731 N 2991.81 -3.25731 -4.581 0
M  V30 30732 H 2983.96 -1.90161 -0.946171 0
M  V30 30733 H 2986.22 -0.819043 -0.477359 0
M  V30 30734 H 2985.93 -2.69742 -2.25681 0
M  V30 30735 H 2985.8 -1.44837 -3.48285 0
M  V30 30736 H 2988.19 -0.664429 -2.87523 0
M  V30 30737 H 2988.27 -1.94705 -1.65902 0
M  V30 30738 H 2987.91 -3.68251 -3.49791 0
M  V30 30739 H 2987.84 -2.37128 -4.70189 0
M  V30 30740 H 2990.33 -2.0523 -3.17315 0
M  V30 30741 H 2990.65 -4.7082 -6.1282 0
M  V30 30742 H 2988.99 -4.2287 -5.51549 0
M  V30 30743 H 2992.18 -2.61249 -3.88415 0
M  V30 30744 H 2992.36 -3.82342 -5.23181 0
M  V30 30745 N 2985.76 1.38895 -0.744705 0
M  V30 30746 C 2987.01 1.99916 -0.296333 0
M  V30 30747 C 2987.33 1.59401 1.12323 0
M  V30 30748 O 2986.6 0.84672 1.76656 0
M  V30 30749 H 2985.18 0.739359 -0.106574 0
M  V30 30750 H 2987.84 1.69797 -0.956823 0
M  V30 30751 H 2986.94 3.10104 -0.352411 0
M  V30 30752 N 2987.24 0.493084 1.49688 0
M  V30 30753 C 2988.52 -0.116872 1.95251 0
M  V30 30754 C 2988.9 -1.54889 1.43431 0
M  V30 30755 O 2988.25 -2.19218 0.644659 0
M  V30 30756 C 2988.46 -0.0376436 3.4898 0
M  V30 30757 C 2989.8 -0.215546 4.24053 0
M  V30 30758 O 2990.83 -0.113204 3.5602 0
M  V30 30759 O 2989.69 -0.424674 5.44847 0
M  V30 30760 H 2986.78 -0.0996476 0.820975 0
M  V30 30761 H 2989.33 0.555057 1.60366 0
M  V30 30762 H 2988.1 0.961317 3.79308 0
M  V30 30763 H 2987.72 -0.750069 3.90461 0
M  V30 30764 N 2988.72 -1.55963 0.226582 0
M  V30 30765 C 2989.97 -1.98042 -0.402957 0
M  V30 30766 C 2990.29 -1.1156 -1.59936 0
M  V30 30767 O 2989.56 -0.193754 -1.94939 0
M  V30 30768 H 2988.14 -0.7314 -0.151867 0
M  V30 30769 H 2990.8 -1.92244 0.320647 0
M  V30 30770 H 2989.9 -3.03541 -0.725883 0
M  V30 30771 N 2990.2 0.0467589 -1.57531 0
M  V30 30772 C 2991.45 0.740036 -1.87634 0
M  V30 30773 C 2991.76 1.77456 -0.822722 0
M  V30 30774 O 2992.96 2.51918 -1.0124 0
M  V30 30775 C 2991.42 1.36721 -3.32919 0
M  V30 30776 C 2991.03 0.369956 -4.4647 0
M  V30 30777 C 2992.77 2.04139 -3.72193 0
M  V30 30778 C 2990.68 1.00447 -5.82807 0
M  V30 30779 H 2989.61 0.280146 -0.700025 0
M  V30 30780 H 2992.26 -0.00610376 -1.83499 0
M  V30 30781 H 2990.64 2.16246 -3.31743 0
M  V30 30782 H 2991.82 -0.397298 -4.59084 0
M  V30 30783 H 2990.13 -0.201152 -4.15914 0
M  V30 30784 H 2992.73 2.52433 -4.71362 0
M  V30 30785 H 2993.07 2.85187 -3.03273 0
M  V30 30786 H 2993.6 1.31413 -3.75467 0
M  V30 30787 H 2990.34 0.233791 -6.55083 0
M  V30 30788 H 2989.86 1.74198 -5.73947 0
M  V30 30789 H 2991.54 1.51702 -6.28964 0
M  V30 30790 N 2991.67 1.54344 0.318688 0
M  V30 30791 C 2992.61 1.78922 1.41641 0
M  V30 30792 C 2993.59 0.639447 1.49499 0
M  V30 30793 O 2994.77 0.877433 1.66833 0
M  V30 30794 C 2991.9 1.91015 2.79698 0
M  V30 30795 C 2990.94 3.13336 2.89348 0
M  V30 30796 S 2991.78 4.71828 2.53256 0
M  V30 30797 C 2992.93 4.86833 3.93375 0
M  V30 30798 H 2993.16 2.71749 1.2058 0
M  V30 30799 H 2990.7 1.4553 0.515803 0
M  V30 30800 H 2992.66 1.98667 3.59224 0
M  V30 30801 H 2991.32 0.991568 2.98038 0
M  V30 30802 H 2990.51 3.18547 3.90569 0
M  V30 30803 H 2990.11 3.04039 2.17799 0
M  V30 30804 H 2992.4 4.6977 4.88183 0
M  V30 30805 H 2993.35 5.88933 3.93145 0
M  V30 30806 H 2993.75 4.15104 3.82556 0
M  V30 30807 N 2993.15 -0.580999 1.465 0
M  V30 30808 C 2994.08 -1.70452 1.53228 0
M  V30 30809 C 2995.1 -1.57276 0.42047 0
M  V30 30810 O 2996.29 -1.6467 0.688917 0
M  V30 30811 C 2993.39 -3.08718 1.39808 0
M  V30 30812 C 2992.56 -3.4788 2.65138 0
M  V30 30813 C 2991.62 -4.65213 2.45894 0
M  V30 30814 O 2990.64 -4.70988 3.19624 0
M  V30 30815 N 2991.85 -5.602 1.5217 0
M  V30 30816 H 2994.61 -1.65134 2.50101 0
M  V30 30817 H 2992.17 -0.767025 1.42577 0
M  V30 30818 H 2994.16 -3.85008 1.24703 0
M  V30 30819 H 2992.73 -3.08394 0.511095 0
M  V30 30820 H 2991.95 -2.61278 2.95173 0
M  V30 30821 H 2993.24 -3.70811 3.48391 0
M  V30 30822 H 2992.64 -5.58272 0.913744 0
M  V30 30823 H 2991.2 -6.35914 1.43028 0
M  V30 30824 N 2994.63 -1.34234 -0.825776 0
M  V30 30825 C 2995.86 -1.295 -1.61361 0
M  V30 30826 C 2996.27 0.131503 -1.88341 0
M  V30 30827 O 2995.63 1.07771 -1.47281 0
M  V30 30828 C 2995.68 -2.08066 -2.95619 0
M  V30 30829 O 2995.4 -3.45152 -2.69818 0
M  V30 30830 C 2996.9 -2.10695 -3.90029 0
M  V30 30831 H 2994.12 -0.445612 -0.501668 0
M  V30 30832 H 2996.67 -1.76804 -1.02764 0
M  V30 30833 H 2994.82 -1.6441 -3.50782 0
M  V30 30834 H 2995.24 -3.8573 -3.55405 0
M  V30 30835 H 2996.71 -2.70096 -4.81407 0
M  V30 30836 H 2997.19 -1.1006 -4.25186 0
M  V30 30837 H 2997.79 -2.54428 -3.40803 0
M  V30 30838 N 2996.11 1.04563 -1.17917 0
M  V30 30839 C 2997.34 1.81338 -0.996192 0
M  V30 30840 C 2997.75 1.83223 0.455477 0
M  V30 30841 O 2997.11 1.26407 1.31634 0
M  V30 30842 C 2997.16 3.27168 -1.53764 0
M  V30 30843 O 2996.88 3.25481 -2.93247 0
M  V30 30844 C 2998.38 4.20608 -1.40014 0
M  V30 30845 H 2995.6 0.571219 -0.352065 0
M  V30 30846 H 2998.15 1.31813 -1.56351 0
M  V30 30847 H 2996.3 3.73943 -1.0122 0
M  V30 30848 H 2996.71 4.168 -3.184 0
M  V30 30849 H 2998.19 5.20887 -1.82704 0
M  V30 30850 H 2998.67 4.37818 -0.348131 0
M  V30 30851 H 2999.27 3.79693 -1.91606 0
M  V30 30852 N 2997.59 0.980408 1.23393 0
M  V30 30853 C 2998.83 0.657322 1.93542 0
M  V30 30854 C 2999.19 -0.794446 1.74793 0
M  V30 30855 O 3000.39 -1.22836 2.39092 0
M  V30 30856 C 2998.66 1.03707 3.42023 0
M  V30 30857 S 3000.22 0.830455 4.3087 0
M  V30 30858 H 2997.04 0.240728 0.669007 0
M  V30 30859 H 2999.64 1.26005 1.49476 0
M  V30 30860 H 2998.35 2.09028 3.53179 0
M  V30 30861 H 2997.88 0.425628 3.91091 0
M  V30 30862 H 2999.89 -0.285632 4.95377 0
M  V30 30863 N 2999.06 -1.38498 0.75206 0
M  V30 30864 C 3000.48 -1.82887 0.375417 0
M  V30 30865 C 3000.83 -1.62753 -1.09572 0
M  V30 30866 O 2999.95 -1.12788 -1.84683 0
M  V30 30867 C 3000.55 -3.32016 0.674621 0
M  V30 30868 C 2999.11 -3.74757 0.351274 0
M  V30 30869 C 2998.25 -2.61291 0.928577 0
M  V30 30870 H 3001.2 -1.27249 0.948335 0
M  V30 30871 H 3001.22 -3.8047 -0.0477112 0
M  V30 30872 H 3000.74 -3.46638 1.74539 0
M  V30 30873 H 2998.84 -3.65715 -0.712978 0
M  V30 30874 H 2998.95 -4.71576 0.845758 0
M  V30 30875 H 2997.31 -2.52227 0.354056 0
M  V30 30876 H 2998.1 -2.78713 2.00435 0
M  V30 30877 N 3000.54 -0.501015 -1.49424 0
M  V30 30878 C 3001.78 0.0418645 -2.04357 0
M  V30 30879 C 3002.15 1.34275 -1.37238 0
M  V30 30880 O 3003.35 1.96987 -1.82892 0
M  V30 30881 C 3001.62 0.191057 -3.56889 0
M  V30 30882 S 3003.18 0.688183 -4.3337 0
M  V30 30883 H 3000 0.00176547 -0.710998 0
M  V30 30884 H 3002.6 -0.674985 -1.83478 0
M  V30 30885 H 3001.3 -0.761035 -4.03282 0
M  V30 30886 H 3000.83 0.933147 -3.82173 0
M  V30 30887 H 3002.85 1.95732 -4.55964 0
M  V30 30888 N 3002.02 1.5584 -0.234849 0
M  V30 30889 C 3003.27 1.98253 0.392448 0
M  V30 30890 C 3003.59 1.12406 1.59342 0
M  V30 30891 O 3002.86 0.204089 1.94834 0
M  V30 30892 H 3001.44 0.732195 0.147986 0
M  V30 30893 H 3004.1 1.92072 -0.330838 0
M  V30 30894 H 3003.2 3.03922 0.709776 0
M  V30 30895 N 3003.5 -0.038404 1.57553 0
M  V30 30896 C 3004.46 -1.0265 2.04929 0
M  V30 30897 C 3005.46 -1.29606 0.951791 0
M  V30 30898 O 3006.65 -1.24765 1.2157 0
M  V30 30899 C 3003.78 -2.36177 2.45832 0
M  V30 30900 H 3004.98 -0.617456 2.93475 0
M  V30 30901 H 3002.53 -0.285004 1.5368 0
M  V30 30902 H 3003.27 -2.81848 1.60413 0
M  V30 30903 H 3003.05 -2.17944 3.25949 0
M  V30 30904 H 3004.54 -3.07135 2.82945 0
M  V30 30905 N 3004.98 -1.54511 -0.310498 0
M  V30 30906 C 3005.91 -1.81163 -1.40402 0
M  V30 30907 C 3006.92 -0.69414 -1.4726 0
M  V30 30908 O 3008.11 -0.971467 -1.49749 0
M  V30 30909 C 3005.21 -1.92609 -2.78846 0
M  V30 30910 C 3004.38 -3.22913 -2.95035 0
M  V30 30911 C 3003.44 -3.24896 -4.13919 0
M  V30 30912 O 3002.47 -3.98474 -4.06456 0
M  V30 30913 N 3003.67 -2.49609 -5.24095 0
M  V30 30914 H 3006.44 -2.75536 -1.17898 0
M  V30 30915 H 3004 -1.53968 -0.500537 0
M  V30 30916 H 3005.99 -1.91348 -3.56606 0
M  V30 30917 H 3004.56 -1.05274 -2.9434 0
M  V30 30918 H 3003.78 -3.37027 -2.04466 0
M  V30 30919 H 3005.07 -4.08921 -3.02756 0
M  V30 30920 H 3004.47 -1.89444 -5.33036 0
M  V30 30921 H 3003.02 -2.54112 -6.00225 0
M  V30 30922 N 3006.46 0.573222 -1.46806 0
M  V30 30923 C 3007.7 1.32733 -1.51871 0
M  V30 30924 C 3008.02 1.94781 -0.178799 0
M  V30 30925 O 3009.22 2.71288 -0.107319 0
M  V30 30926 C 3007.68 2.40611 -2.67646 0
M  V30 30927 C 3007.29 1.84825 -4.08098 0
M  V30 30928 C 3009.03 3.17305 -2.8199 0
M  V30 30929 C 3006.94 2.90388 -5.15198 0
M  V30 30930 H 3005.87 0.49902 -0.565239 0
M  V30 30931 H 3008.52 0.610665 -1.73041 0
M  V30 30932 H 3006.9 3.1512 -2.39824 0
M  V30 30933 H 3008.08 1.16795 -4.45753 0
M  V30 30934 H 3006.39 1.20768 -3.98502 0
M  V30 30935 H 3008.99 3.96105 -3.59173 0
M  V30 30936 H 3009.33 3.7049 -1.89849 0
M  V30 30937 H 3009.86 2.49904 -3.09504 0
M  V30 30938 H 3006.6 2.42077 -6.09162 0
M  V30 30939 H 3006.12 3.56877 -4.82077 0
M  V30 30940 H 3007.8 3.5417 -5.41454 0
M  V30 30941 N 3007.93 1.3467 0.818645 0
M  V30 30942 C 3009.16 1.30354 1.60672 0
M  V30 30943 C 3009.58 -0.121513 1.88409 0
M  V30 30944 O 3008.93 -1.06988 1.47851 0
M  V30 30945 C 3008.98 2.09631 2.94512 0
M  V30 30946 O 3008.71 3.46578 2.67984 0
M  V30 30947 C 3010.21 2.12761 3.88906 0
M  V30 30948 H 3007.43 0.448266 0.499298 0
M  V30 30949 H 3009.97 1.77347 1.01825 0
M  V30 30950 H 3008.13 1.66268 3.49905 0
M  V30 30951 H 3008.54 3.87609 3.53355 0
M  V30 30952 H 3010.01 2.72645 4.79967 0
M  V30 30953 H 3010.49 1.12313 4.24597 0
M  V30 30954 H 3011.1 2.56231 3.39449 0
M  V30 30955 N 3009.41 -1.03936 1.1847 0
M  V30 30956 C 3010.66 -1.76809 0.978926 0
M  V30 30957 C 3010.98 -1.88677 -0.492537 0
M  V30 30958 O 3010.25 -1.41271 -1.35717 0
M  V30 30959 H 3008.83 -0.654962 0.359213 0
M  V30 30960 H 3011.49 -1.25431 1.49175 0
M  V30 30961 H 3010.59 -2.78025 1.41805 0
M  V30 30962 N 3010.89 -0.986938 -1.22871 0
M  V30 30963 C 3011.84 -0.503586 -2.22369 0
M  V30 30964 C 3012.82 0.424971 -1.55186 0
M  V30 30965 O 3014.02 0.252761 -1.75186 0
M  V30 30966 C 3011.14 0.186294 -3.42794 0
M  V30 30967 C 3010.23 -0.762216 -4.17194 0
M  V30 30968 N 3010.62 -1.90758 -4.6845 0
M  V30 30969 C 3008.92 -0.576875 -4.42253 0
M  V30 30970 C 3009.62 -2.50244 -5.25122 0
M  V30 30971 N 3008.6 -1.78569 -5.13434 0
M  V30 30972 H 3012.4 -1.37722 -2.59634 0
M  V30 30973 H 3009.91 -0.848439 -1.38475 0
M  V30 30974 H 3011.91 0.54992 -4.13257 0
M  V30 30975 H 3010.57 1.05614 -3.07044 0
M  V30 30976 H 3011.58 -2.28856 -4.64591 0
M  V30 30977 H 3008.26 0.247401 -4.16766 0
M  V30 30978 H 3009.65 -3.47007 -5.75357 0
M  V30 30979 N 3012.37 1.38098 -0.759394 0
M  V30 30980 C 3013.61 2.00281 -0.31862 0
M  V30 30981 C 3013.95 1.60145 1.09852 0
M  V30 30982 O 3013.22 0.841732 1.75343 0
M  V30 30983 C 3013.5 3.57301 -0.44811 0
M  V30 30984 C 3013.36 4.07385 -1.90677 0
M  V30 30985 C 3014.68 4.39827 0.155042 0
M  V30 30986 H 3011.8 0.727614 -0.117246 0
M  V30 30987 H 3014.44 1.63956 -0.960126 0
M  V30 30988 H 3012.59 3.88376 0.098032 0
M  V30 30989 H 3014.26 3.86928 -2.51167 0
M  V30 30990 H 3012.5 3.60036 -2.41985 0
M  V30 30991 H 3013.17 5.16466 -1.9485 0
M  V30 30992 H 3015.65 4.14938 -0.310803 0
M  V30 30993 H 3014.53 5.48889 0.0342299 0
M  V30 30994 H 3014.79 4.24237 1.244 0
M  V30 30995 N 3013.85 0.508932 1.49156 0
M  V30 30996 C 3014.79 -0.265248 2.29271 0
M  V30 30997 C 3015.76 -0.953138 1.36031 0
M  V30 30998 O 3016.95 -0.958262 1.64991 0
M  V30 30999 C 3014.09 -1.31898 3.18899 0
M  V30 31000 C 3013.2 -0.642069 4.27202 0
M  V30 31001 C 3012.34 -1.67693 5.04036 0
M  V30 31002 C 3011.37 -0.982315 6.04166 0
M  V30 31003 N 3010.51 -1.96174 6.74137 0
M  V30 31004 H 3015.35 0.424159 2.94966 0
M  V30 31005 H 3012.89 0.221016 1.4543 0
M  V30 31006 H 3014.85 -1.94199 3.69246 0
M  V30 31007 H 3013.48 -1.97705 2.55172 0
M  V30 31008 H 3012.53 0.0944063 3.80283 0
M  V30 31009 H 3013.84 -0.095663 4.98708 0
M  V30 31010 H 3012.99 -2.37478 5.58291 0
M  V30 31011 H 3011.73 -2.2572 4.32321 0
M  V30 31012 H 3010.74 -0.270282 5.49135 0
M  V30 31013 H 3011.96 -0.408434 6.77871 0
M  V30 31014 H 3009.91 -2.53148 6.05188 0
M  V30 31015 H 3009.83 -1.46621 7.41646 0
M  V30 31016 H 3011.09 -2.65223 7.32992 0
M  V30 31017 N 3015.32 -1.55714 0.243111 0
M  V30 31018 C 3016.27 -2.22611 -0.67431 0
M  V30 31019 C 3017.27 -1.21245 -1.18305 0
M  V30 31020 O 3018.47 -1.39267 -1.14038 0
M  V30 31021 H 3014.85 -0.714032 -0.235928 0
M  V30 31022 H 3016.82 -2.98273 -0.0868922 0
M  V30 31023 C 3015.57 -2.9364 -1.862 0
M  V30 31024 H 3014.89 -3.7141 -1.47969 0
M  V30 31025 H 3016.33 -3.43818 -2.48124 0
M  V30 31026 C 3014.79 -1.97303 -2.73081 0
M  V30 31027 O 3015.32 -1.50368 -3.72495 0
M  V30 31028 N 3013.52 -1.64486 -2.39568 0
M  V30 31029 H 3013.07 -2.02849 -1.58777 0
M  V30 31030 H 3013.03 -1.00293 -2.97974 0
M  V30 31031 N 3016.8 0.030048 -1.57571 0
M  V30 31032 C 3018.05 0.719633 -1.88854 0
M  V30 31033 C 3018.37 1.75948 -0.840676 0
M  V30 31034 O 3017.64 1.95496 0.12582 0
M  V30 31035 H 3016.22 0.26878 -0.696969 0
M  V30 31036 H 3018.88 -0.00376711 -1.949 0
M  V30 31037 H 3017.98 1.20982 -2.87698 0
M  V30 31038 N 3018.28 1.54674 0.3023 0
M  V30 31039 C 3019.51 1.78207 1.061 0
M  V30 31040 C 3019.93 0.539292 1.80203 0
M  V30 31041 O 3019.29 -0.510112 1.73976 0
M  V30 31042 C 3019.34 2.9883 2.01824 0
M  V30 31043 O 3018.44 2.71864 3.10103 0
M  V30 31044 H 3017.78 0.589879 0.304859 0
M  V30 31045 H 3020.31 2.01753 0.340118 0
M  V30 31046 H 3020.32 3.26764 2.44313 0
M  V30 31047 H 3019 3.88944 1.47293 0
M  V30 31048 H 3017.57 2.54942 2.72138 0
M  V30 31049 N 3019.76 -0.565428 1.47108 0
M  V30 31050 C 3020.69 -1.6885 1.53508 0
M  V30 31051 C 3021.67 -1.57907 0.387834 0
M  V30 31052 O 3022.85 -1.78881 0.594464 0
M  V30 31053 C 3019.98 -3.07037 1.4299 0
M  V30 31054 C 3019.03 -3.36449 2.62114 0
M  V30 31055 S 3019.86 -3.2661 4.24366 0
M  V30 31056 C 3021.02 -4.67304 4.16386 0
M  V30 31057 H 3021.25 -1.63165 2.48525 0
M  V30 31058 H 3018.78 -0.745586 1.35205 0
M  V30 31059 H 3020.74 -3.86748 1.37609 0
M  V30 31060 H 3019.4 -3.10195 0.493725 0
M  V30 31061 H 3018.59 -4.3717 2.50796 0
M  V30 31062 H 3018.2 -2.64341 2.64575 0
M  V30 31063 H 3020.49 -5.58075 3.84133 0
M  V30 31064 H 3021.43 -4.8368 5.17165 0
M  V30 31065 H 3021.84 -4.44965 3.4737 0
M  V30 31066 N 3021.24 -1.35102 -0.811492 0
M  V30 31067 C 3022.65 -1.15033 -1.10632 0
M  V30 31068 C 3022.85 0.0405025 -2.01459 0
M  V30 31069 O 3021.91 0.712592 -2.42236 0
M  V30 31070 C 3023.22 -2.451 -1.74203 0
M  V30 31071 C 3024.77 -2.51262 -1.86645 0
M  V30 31072 C 3025.24 -3.81359 -2.53632 0
M  V30 31073 N 3026.74 -3.82583 -2.61121 0
M  V30 31074 C 3027.47 -4.79974 -3.13708 0
M  V30 31075 N 3026.97 -5.87751 -3.66771 0
M  V30 31076 N 3028.76 -4.67416 -3.12216 0
M  V30 31077 H 3020.91 -2.11383 -0.207604 0
M  V30 31078 H 3023.17 -0.935296 -0.154681 0
M  V30 31079 H 3022.88 -3.32391 -1.1493 0
M  V30 31080 H 3022.75 -2.59286 -2.73954 0
M  V30 31081 H 3025.14 -1.64402 -2.45063 0
M  V30 31082 H 3025.22 -2.40994 -0.857636 0
M  V30 31083 H 3024.87 -4.68614 -1.95865 0
M  V30 31084 H 3024.8 -3.88914 -3.5504 0
M  V30 31085 H 3027.29 -3.04707 -2.23522 0
M  V30 31086 H 3027.6 -6.58063 -4.05183 0
M  V30 31087 H 3025.94 -5.91449 -3.64983 0
M  V30 31088 H 3029.14 -3.82359 -2.70035 0
M  V30 31089 H 3029.31 -5.4348 -3.52893 0
M  V30 31090 N 3022.71 1.03306 -1.19019 0
M  V30 31091 C 3023.96 1.76037 -0.984573 0
M  V30 31092 C 3024.28 1.89469 0.485903 0
M  V30 31093 O 3025.48 2.59128 0.810233 0
M  V30 31094 C 3023.94 3.16537 -1.71266 0
M  V30 31095 C 3023.55 3.11174 -3.22296 0
M  V30 31096 C 3025.29 3.93592 -1.59013 0
M  V30 31097 C 3023.2 4.4658 -3.87712 0
M  V30 31098 H 3022.13 0.659898 -0.364761 0
M  V30 31099 H 3024.78 1.15646 -1.42472 0
M  V30 31100 H 3023.16 3.7737 -1.20032 0
M  V30 31101 H 3024.33 2.59747 -3.80616 0
M  V30 31102 H 3022.65 2.47616 -3.34776 0
M  V30 31103 H 3025.25 4.93741 -2.05241 0
M  V30 31104 H 3025.59 4.12736 -0.543607 0
M  V30 31105 H 3026.12 3.39351 -2.0757 0
M  V30 31106 H 3022.86 4.32641 -4.92445 0
M  V30 31107 H 3022.38 4.98079 -3.34181 0
M  V30 31108 H 3024.06 5.15475 -3.91017 0
M  V30 31109 N 3024.19 0.99344 1.22346 0
M  V30 31110 C 3025.44 0.670594 1.91392 0
M  V30 31111 C 3025.77 -0.795397 1.77164 0
M  V30 31112 O 3025.05 -1.57526 1.14086 0
M  V30 31113 C 3025.33 1.07796 3.43587 0
M  V30 31114 C 3025.18 2.60254 3.66862 0
M  V30 31115 C 3026.5 0.631603 4.35544 0
M  V30 31116 H 3023.62 0.245093 0.695053 0
M  V30 31117 H 3026.26 1.23706 1.44211 0
M  V30 31118 H 3024.41 0.595969 3.83902 0
M  V30 31119 H 3026.08 3.16127 3.35948 0
M  V30 31120 H 3024.33 3.02298 3.11124 0
M  V30 31121 H 3025 2.83808 4.73452 0
M  V30 31122 H 3027.47 1.04561 4.02748 0
M  V30 31123 H 3026.35 0.944926 5.40705 0
M  V30 31124 H 3026.61 -0.467701 4.39619 0
M  V30 31125 N 3025.67 -1.37693 0.766707 0
M  V30 31126 C 3026.92 -1.99419 0.3281 0
M  V30 31127 C 3027.24 -1.61168 -1.09772 0
M  V30 31128 O 3026.51 -0.874717 -1.75287 0
M  V30 31129 H 3025.09 -0.737569 0.118323 0
M  V30 31130 H 3027.75 -1.68253 0.983715 0
M  V30 31131 H 3026.85 -3.09504 0.401701 0
M  V30 31132 N 3027.15 -0.516835 -1.48884 0
M  V30 31133 C 3028.56 -0.0730249 -1.86557 0
M  V30 31134 C 3028.91 1.34579 -1.42769 0
M  V30 31135 O 3028.04 2.00566 -0.812549 0
M  V30 31136 C 3028.63 -0.125745 -3.38567 0
M  V30 31137 C 3027.19 0.262801 -3.75481 0
M  V30 31138 C 3026.34 -0.491329 -2.72913 0
M  V30 31139 H 3029.29 -0.728791 -1.40976 0
M  V30 31140 H 3029.31 0.665766 -3.7463 0
M  V30 31141 H 3028.82 -1.15849 -3.70406 0
M  V30 31142 H 3026.92 1.29818 -3.49253 0
M  V30 31143 H 3027.03 -0.0676632 -4.79052 0
M  V30 31144 H 3025.4 0.0608078 -2.54627 0
M  V30 31145 H 3026.18 -1.52445 -3.07596 0
M  V30 31146 N 3028.63 1.55583 -0.251365 0
M  V30 31147 C 3029.57 2.21566 0.646298 0
M  V30 31148 C 3030.54 1.18104 1.16793 0
M  V30 31149 O 3031.73 1.46567 1.22159 0
M  V30 31150 C 3028.87 2.92237 1.83552 0
M  V30 31151 C 3027.98 4.10365 1.34999 0
M  V30 31152 C 3027.12 4.6874 2.49912 0
M  V30 31153 C 3026.16 5.79108 1.98243 0
M  V30 31154 N 3025.29 6.31647 3.0654 0
M  V30 31155 H 3030.13 2.97901 0.0769357 0
M  V30 31156 H 3027.67 1.47077 0.0262121 0
M  V30 31157 H 3029.63 3.31413 2.53419 0
M  V30 31158 H 3028.26 2.18369 2.37729 0
M  V30 31159 H 3027.31 3.76473 0.545208 0
M  V30 31160 H 3028.62 4.90028 0.931349 0
M  V30 31161 H 3027.78 5.10513 3.27814 0
M  V30 31162 H 3026.51 3.88303 2.9508 0
M  V30 31163 H 3025.52 5.36809 1.18813 0
M  V30 31164 H 3026.74 6.61399 1.54039 0
M  V30 31165 H 3024.69 5.54113 3.51133 0
M  V30 31166 H 3024.61 7.06515 2.6902 0
M  V30 31167 H 3025.88 6.78078 3.84487 0
M  V30 31168 N 3030.1 -0.0216912 1.57585 0
M  V30 31169 C 3031.33 -0.722585 1.93872 0
M  V30 31170 C 3031.75 -1.68496 0.851736 0
M  V30 31171 O 3031.1 -1.81695 -0.171239 0
M  V30 31172 C 3031.16 -1.47327 3.30116 0
M  V30 31173 O 3030.88 -0.54952 4.3464 0
M  V30 31174 C 3032.38 -2.27066 3.80731 0
M  V30 31175 H 3029.6 -0.202625 0.639675 0
M  V30 31176 H 3032.14 0.0229774 2.04487 0
M  V30 31177 H 3030.3 -2.17065 3.20876 0
M  V30 31178 H 3030.71 -1.07677 5.13328 0
M  V30 31179 H 3032.18 -2.75122 4.78552 0
M  V30 31180 H 3032.66 -3.08807 3.12306 0
M  V30 31181 H 3033.27 -1.62388 3.93078 0
M  V30 31182 N 3031.58 -1.54832 -0.294093 0
M  V30 31183 C 3032.82 -1.76181 -1.03632 0
M  V30 31184 C 3033.19 -0.539986 -1.8425 0
M  V30 31185 O 3034.39 -0.631341 -2.61281 0
M  V30 31186 C 3032.66 -3.01912 -1.91269 0
M  V30 31187 S 3034.22 -3.44293 -2.72044 0
M  V30 31188 H 3031.04 -0.61923 -0.349392 0
M  V30 31189 H 3033.64 -1.93043 -0.308972 0
M  V30 31190 H 3032.34 -3.88954 -1.30931 0
M  V30 31191 H 3031.87 -2.87657 -2.6836 0
M  V30 31192 H 3033.89 -3.01906 -3.93786 0
M  V30 31193 N 3033.06 0.557619 -1.47405 0
M  V30 31194 C 3034.29 1.34505 -1.57871 0
M  V30 31195 C 3034.71 1.86699 -0.229184 0
M  V30 31196 O 3034.07 1.62946 0.79488 0
M  V30 31197 C 3034.12 2.49117 -2.60716 0
M  V30 31198 O 3033.22 3.51334 -2.15959 0
M  V30 31199 H 3032.56 0.399541 -0.530342 0
M  V30 31200 H 3035.09 0.67392 -1.93183 0
M  V30 31201 H 3035.1 2.95692 -2.81123 0
M  V30 31202 H 3033.78 2.10485 -3.58704 0
M  V30 31203 H 3032.35 3.11067 -2.05649 0
M  V30 31204 N 3034.54 1.35531 0.804316 0
M  V30 31205 C 3035.49 1.28674 1.93767 0
M  V30 31206 C 3036.48 0.181252 1.68428 0
M  V30 31207 O 3037.69 0.347369 1.76616 0
M  V30 31208 H 3034.06 0.400217 0.636655 0
M  V30 31209 H 3036.03 2.24419 1.96669 0
M  V30 31210 C 3034.78 1.0779 3.3057 0
M  V30 31211 H 3034.11 1.92096 3.50627 0
M  V30 31212 H 3035.55 1.07035 4.10268 0
M  V30 31213 C 3034 -0.218154 3.36193 0
M  V30 31214 O 3034.53 -1.21317 3.82943 0
M  V30 31215 N 3032.74 -0.25771 2.89455 0
M  V30 31216 H 3032.29 0.552606 2.51603 0
M  V30 31217 H 3032.25 -1.12459 2.93599 0
M  V30 31218 N 3036.02 -1.02674 1.19565 0
M  V30 31219 C 3037.25 -1.79731 1.02492 0
M  V30 31220 C 3037.66 -1.83925 -0.42627 0
M  V30 31221 O 3037.02 -1.28485 -1.29606 0
M  V30 31222 C 3037.07 -3.2468 1.58949 0
M  V30 31223 O 3036.79 -3.20774 2.98388 0
M  V30 31224 C 3038.29 -4.18327 1.46688 0
M  V30 31225 H 3035.51 -0.565546 0.361108 0
M  V30 31226 H 3038.05 -1.29309 1.58428 0
M  V30 31227 H 3036.21 -3.72285 1.07156 0
M  V30 31228 H 3036.62 -4.11681 3.2499 0
M  V30 31229 H 3038.1 -5.17914 1.90968 0
M  V30 31230 H 3038.57 -4.37209 0.41774 0
M  V30 31231 H 3039.18 -3.76597 1.97623 0
M  V30 31232 N 3037.5 -0.999914 -1.21817 0
M  V30 31233 C 3038.74 -0.690407 -1.91324 0
M  V30 31234 C 3039.1 0.769898 -1.76324 0
M  V30 31235 O 3038.39 1.55031 -1.12587 0
M  V30 31236 C 3038.58 -1.04018 -3.41928 0
M  V30 31237 C 3038.41 -2.53294 -3.71581 0
M  V30 31238 C 3037.18 -3.19813 -3.91214 0
M  V30 31239 C 3039.38 -3.51437 -3.75495 0
M  V30 31240 N 3037.36 -4.58492 -4.08238 0
M  V30 31241 C 3038.73 -4.75604 -3.97744 0
M  V30 31242 C 3040.79 -3.45644 -3.58377 0
M  V30 31243 C 3039.49 -5.94685 -4.04651 0
M  V30 31244 C 3041.52 -4.64109 -3.66547 0
M  V30 31245 C 3040.88 -5.87079 -3.89252 0
M  V30 31246 H 3036.98 -0.304031 -0.720478 0
M  V30 31247 H 3039.56 -1.28135 -1.46593 0
M  V30 31248 H 3037.73 -0.477739 -3.85451 0
M  V30 31249 H 3039.47 -0.685934 -3.98845 0
M  V30 31250 H 3036.22 -2.70266 -3.88913 0
M  V30 31251 H 3036.64 -5.30444 -4.20663 0
M  V30 31252 H 3041.29 -2.51582 -3.39803 0
M  V30 31253 H 3039 -6.89144 -4.22027 0
M  V30 31254 H 3042.59 -4.61224 -3.54631 0
M  V30 31255 H 3041.47 -6.77214 -3.95412 0
M  V30 31256 N 3038.97 1.37284 -0.773999 0
M  V30 31257 C 3039.92 2.27598 -0.135285 0
M  V30 31258 C 3040.91 1.4621 0.671666 0
M  V30 31259 O 3042.1 1.68744 0.534269 0
M  V30 31260 C 3039.23 3.35202 0.741239 0
M  V30 31261 C 3038.31 4.24036 -0.0736642 0
M  V30 31262 N 3038.71 4.93234 -1.12044 0
M  V30 31263 C 3037 4.45748 0.14996 0
M  V30 31264 C 3037.7 5.58825 -1.61522 0
M  V30 31265 N 3036.68 5.35637 -0.927016 0
M  V30 31266 H 3040.48 2.78574 -0.936695 0
M  V30 31267 H 3038 1.50428 -0.61197 0
M  V30 31268 H 3039.99 3.98814 1.21461 0
M  V30 31269 H 3038.65 2.85783 1.54137 0
M  V30 31270 H 3039.66 4.95623 -1.50262 0
M  V30 31271 H 3036.34 4.07196 0.921819 0
M  V30 31272 H 3037.73 6.24127 -2.48829 0
M  V30 31273 N 3040.45 0.524724 1.48608 0
M  V30 31274 C 3041.7 -0.0112635 2.02097 0
M  V30 31275 C 3042.02 -1.35266 1.40457 0
M  V30 31276 O 3041.29 -1.87482 0.568103 0
M  V30 31277 H 3039.87 -0.00715113 0.746966 0
M  V30 31278 H 3042.53 0.687361 1.82377 0
M  V30 31279 H 3041.63 -0.123476 3.11856 0
M  V30 31280 N 3041.93 -1.55447 0.259613 0
M  V30 31281 C 3043.16 -2.03649 -0.365357 0
M  V30 31282 C 3043.57 -1.1385 -1.50611 0
M  V30 31283 O 3042.93 -0.155446 -1.81837 0
M  V30 31284 C 3042.98 -3.51094 -0.86111 0
M  V30 31285 O 3042.7 -4.37474 0.234198 0
M  V30 31286 C 3044.2 -4.15114 -1.55548 0
M  V30 31287 H 3041.42 -0.665552 -0.0853322 0
M  V30 31288 H 3043.97 -2.00801 0.387186 0
M  V30 31289 H 3042.12 -3.54435 -1.56379 0
M  V30 31290 H 3042.54 -5.24301 -0.144308 0
M  V30 31291 H 3044.01 -5.19936 -1.85394 0
M  V30 31292 H 3044.49 -3.62359 -2.48178 0
M  V30 31293 H 3045.09 -4.15732 -0.897047 0
M  V30 31294 N 3043.41 0.0133338 -1.57594 0
M  V30 31295 C 3044.65 0.700947 -1.89982 0
M  V30 31296 C 3044.98 1.74512 -0.858833 0
M  V30 31297 O 3044.24 1.95212 0.138175 0
M  V30 31298 C 3044.54 1.3933 -3.29123 0
M  V30 31299 C 3044.2 0.483608 -4.48299 0
M  V30 31300 C 3042.86 0.233101 -4.80635 0
M  V30 31301 C 3045.22 -0.143517 -5.21002 0
M  V30 31302 C 3042.54 -0.653045 -5.83054 0
M  V30 31303 C 3044.9 -1.01746 -6.24364 0
M  V30 31304 C 3043.56 -1.27727 -6.55166 0
M  V30 31305 H 3042.83 0.256495 -0.695192 0
M  V30 31306 H 3045.48 -0.0393301 -1.9146 0
M  V30 31307 H 3043.78 2.20729 -3.23707 0
M  V30 31308 H 3045.48 1.93115 -3.51436 0
M  V30 31309 H 3042.07 0.689017 -4.23025 0
M  V30 31310 H 3046.25 0.0370267 -4.96286 0
M  V30 31311 H 3041.51 -0.862485 -6.05286 0
M  V30 31312 H 3045.68 -1.50982 -6.79836 0
M  V30 31313 H 3043.31 -1.96563 -7.34348 0
M  V30 31314 N 3044.89 1.54985 0.285878 0
M  V30 31315 C 3046.3 1.65825 0.85784 0
M  V30 31316 C 3046.65 0.576796 1.8753 0
M  V30 31317 O 3045.77 -0.283978 2.14529 0
M  V30 31318 C 3046.37 3.00607 1.56272 0
M  V30 31319 C 3044.93 3.13517 2.08288 0
M  V30 31320 C 3044.07 2.61573 0.920587 0
M  V30 31321 H 3047.02 1.58577 0.0625184 0
M  V30 31322 H 3047.05 2.92876 2.42907 0
M  V30 31323 H 3046.56 3.79296 0.82195 0
M  V30 31324 H 3044.66 2.39577 2.85366 0
M  V30 31325 H 3044.77 4.19896 2.30703 0
M  V30 31326 H 3043.14 2.18405 1.31039 0
M  V30 31327 H 3043.92 3.42754 0.193533 0
M  V30 31328 N 3046.36 -0.549794 1.47699 0
M  V30 31329 C 3047.61 -1.30301 1.53963 0
M  V30 31330 C 3047.93 -1.94472 0.209765 0
M  V30 31331 O 3049.13 -2.71083 0.150465 0
M  V30 31332 C 3047.59 -2.36323 2.7144 0
M  V30 31333 C 3047.2 -1.78309 4.10986 0
M  V30 31334 C 3048.94 -3.12778 2.87002 0
M  V30 31335 C 3046.85 -2.82155 5.19752 0
M  V30 31336 H 3045.78 -0.489964 0.573106 0
M  V30 31337 H 3048.43 -0.583058 1.7399 0
M  V30 31338 H 3046.81 -3.11265 2.44806 0
M  V30 31339 H 3047.98 -1.09689 4.47554 0
M  V30 31340 H 3046.3 -1.14413 4.00373 0
M  V30 31341 H 3048.9 -3.90341 3.65429 0
M  V30 31342 H 3049.24 -3.67423 1.95719 0
M  V30 31343 H 3049.77 -2.44949 3.13441 0
M  V30 31344 H 3046.51 -2.32356 6.12936 0
M  V30 31345 H 3046.03 -3.49163 4.87694 0
M  V30 31346 H 3047.71 -3.45511 5.4702 0
M  V30 31347 N 3047.84 -1.35955 -0.797117 0
M  V30 31348 C 3048.79 -1.297 -1.93082 0
M  V30 31349 C 3049.78 -0.190181 -1.68329 0
M  V30 31350 O 3050.99 -0.356731 -1.7643 0
M  V30 31351 H 3047.37 -0.403588 -0.634524 0
M  V30 31352 H 3049.34 -2.25458 -1.95477 0
M  V30 31353 C 3048.09 -1.09541 -3.29994 0
M  V30 31354 H 3047.41 -1.93952 -3.49603 0
M  V30 31355 H 3048.85 -1.09209 -4.09694 0
M  V30 31356 C 3047.31 0.200321 -3.36304 0
M  V30 31357 O 3047.84 1.19284 -3.83581 0
M  V30 31358 N 3046.04 0.242356 -2.89588 0
M  V30 31359 H 3045.59 -0.565942 -2.51306 0
M  V30 31360 H 3045.55 1.10901 -2.94191 0
M  V30 31361 N 3049.32 1.02038 -1.20108 0
M  V30 31362 C 3050.28 2.08662 -0.948298 0
M  V30 31363 C 3051.28 1.60627 0.0746471 0
M  V30 31364 O 3052.47 1.73454 -0.161011 0
M  V30 31365 C 3049.61 3.38216 -0.426914 0
M  V30 31366 H 3050.8 2.32521 -1.89404 0
M  V30 31367 H 3048.35 1.1878 -1.01592 0
M  V30 31368 H 3049.09 3.20031 0.524476 0
M  V30 31369 H 3048.87 3.74406 -1.16458 0
M  V30 31370 H 3050.36 4.1673 -0.26942 0
M  V30 31371 N 3050.8 1.00636 1.21285 0
M  V30 31372 C 3052.03 0.707684 1.94101 0
M  V30 31373 C 3052.44 -0.73396 1.74384 0
M  V30 31374 O 3051.78 -1.50841 1.04846 0
M  V30 31375 C 3051.84 0.950641 3.46703 0
M  V30 31376 C 3051.51 2.37939 3.90172 0
M  V30 31377 C 3052.5 3.35968 3.96763 0
M  V30 31378 C 3050.19 2.71741 4.22448 0
M  V30 31379 C 3052.18 4.65866 4.35026 0
M  V30 31380 C 3049.87 4.01854 4.60387 0
M  V30 31381 C 3050.87 4.98728 4.66647 0
M  V30 31382 O 3050.55 6.26514 5.03721 0
M  V30 31383 H 3050.29 0.259892 0.624045 0
M  V30 31384 H 3052.84 1.3476 1.55013 0
M  V30 31385 H 3051.07 0.25356 3.85868 0
M  V30 31386 H 3052.76 0.645139 4.0074 0
M  V30 31387 H 3053.53 3.11189 3.72003 0
M  V30 31388 H 3049.4 1.97032 4.16772 0
M  V30 31389 H 3052.95 5.41478 4.39827 0
M  V30 31390 H 3048.85 4.26417 4.84602 0
M  V30 31391 H 3049.61 6.3065 5.2175 0
M  V30 31392 N 3052.28 -1.36872 0.781268 0
M  V30 31393 C 3053.5 -2.03716 0.361602 0
M  V30 31394 C 3053.92 -1.58918 -1.01934 0
M  V30 31395 O 3053.28 -0.774812 -1.65236 0
M  V30 31396 C 3053.33 -3.59208 0.406454 0
M  V30 31397 O 3053.05 -4.02369 1.73293 0
M  V30 31398 C 3054.55 -4.43294 -0.0236115 0
M  V30 31399 H 3051.77 -0.653986 0.150145 0
M  V30 31400 H 3054.31 -1.75014 1.05784 0
M  V30 31401 H 3052.47 -3.86648 -0.241296 0
M  V30 31402 H 3052.88 -4.9693 1.67812 0
M  V30 31403 H 3054.36 -5.51969 0.0589175 0
M  V30 31404 H 3054.83 -4.25835 -1.07522 0
M  V30 31405 H 3055.44 -4.21099 0.596314 0
M  V30 31406 N 3053.75 -0.532597 -1.48328 0
M  V30 31407 C 3054.98 -0.00357936 -2.069 0
M  V30 31408 C 3055.4 1.279 -1.38878 0
M  V30 31409 O 3054.75 1.76152 -0.47715 0
M  V30 31410 C 3054.81 0.221353 -3.60822 0
M  V30 31411 O 3054.53 -1.01041 -4.26289 0
M  V30 31412 C 3056.03 0.790454 -4.36196 0
M  V30 31413 H 3053.25 -0.0346953 -0.670102 0
M  V30 31414 H 3055.79 -0.738989 -1.90681 0
M  V30 31415 H 3053.95 0.906818 -3.76637 0
M  V30 31416 H 3054.36 -0.792774 -5.18474 0
M  V30 31417 H 3055.83 0.897252 -5.44659 0
M  V30 31418 H 3056.31 1.79598 -4.00801 0
M  V30 31419 H 3056.92 0.141471 -4.25065 0
M  V30 31420 N 3055.23 1.55307 -0.267853 0
M  V30 31421 C 3056.48 1.99041 0.350308 0
M  V30 31422 C 3056.8 1.15761 1.56922 0
M  V30 31423 O 3056.07 0.24537 1.94357 0
M  V30 31424 H 3054.65 0.735169 0.132422 0
M  V30 31425 H 3057.31 1.91327 -0.371504 0
M  V30 31426 H 3056.41 3.05359 0.64515 0
M  V30 31427 N 3056.71 -0.00497598 1.57599 0
M  V30 31428 C 3058.12 -0.548449 1.78463 0
M  V30 31429 C 3058.47 -1.74242 0.901899 0
M  V30 31430 O 3057.6 -2.16154 0.103052 0
M  V30 31431 C 3058.19 -1.00173 3.23652 0
M  V30 31432 C 3056.75 -1.49055 3.45629 0
M  V30 31433 C 3055.9 -0.439482 2.73795 0
M  V30 31434 H 3058.85 0.221208 1.57151 0
M  V30 31435 H 3058.87 -1.86799 3.31491 0
M  V30 31436 H 3058.38 -0.132539 3.87874 0
M  V30 31437 H 3056.48 -2.3808 2.86616 0
M  V30 31438 H 3056.6 -1.52144 4.54301 0
M  V30 31439 H 3054.96 -0.900001 2.38269 0
M  V30 31440 H 3055.74 0.420659 3.40713 0
M  V30 31441 N 3058.19 -1.55135 -0.277654 0
M  V30 31442 C 3059.43 -1.7727 -1.01758 0
M  V30 31443 C 3059.79 -0.559498 -1.83667 0
M  V30 31444 O 3060.99 -0.659018 -2.60596 0
M  V30 31445 C 3059.26 -3.03924 -1.88056 0
M  V30 31446 S 3060.82 -3.47159 -2.68377 0
M  V30 31447 H 3057.64 -0.622901 -0.342805 0
M  V30 31448 H 3060.24 -1.9336 -0.28848 0
M  V30 31449 H 3058.95 -3.90321 -1.26798 0
M  V30 31450 H 3058.48 -2.90487 -2.65294 0
M  V30 31451 H 3060.49 -3.06066 -3.90561 0
M  V30 31452 N 3059.67 0.541953 -1.47989 0
M  V30 31453 C 3060.89 1.32344 -1.59037 0
M  V30 31454 C 3061.31 1.87188 -0.246156 0
M  V30 31455 O 3060.67 1.65791 0.762859 0
M  V30 31456 C 3060.72 2.4827 -2.62763 0
M  V30 31457 O 3060.44 1.95688 -3.91967 0
M  V30 31458 C 3061.94 3.40265 -2.84139 0
M  V30 31459 H 3059.16 0.402892 -0.536581 0
M  V30 31460 H 3061.7 0.655011 -1.93726 0
M  V30 31461 H 3059.86 3.1102 -2.30965 0
M  V30 31462 H 3060.27 2.71482 -4.48774 0
M  V30 31463 H 3061.75 4.17985 -3.60545 0
M  V30 31464 H 3062.22 3.94757 -1.92519 0
M  V30 31465 H 3062.83 2.83317 -3.17193 0
M  V30 31466 N 3061.15 1.36376 0.789896 0
M  V30 31467 C 3062.56 1.27372 1.36503 0
M  V30 31468 C 3062.91 -0.0866766 1.96008 0
M  V30 31469 O 3062.03 -0.988125 1.92523 0
M  V30 31470 C 3062.63 2.30644 2.48171 0
M  V30 31471 C 3061.19 2.2533 3.01502 0
M  V30 31472 C 3060.33 2.15448 1.74577 0
M  V30 31473 H 3063.28 1.47262 0.59158 0
M  V30 31474 H 3063.31 1.94259 3.27175 0
M  V30 31475 H 3062.82 3.29644 2.04833 0
M  V30 31476 H 3060.92 1.29794 3.49262 0
M  V30 31477 H 3061.03 3.17998 3.58349 0
M  V30 31478 H 3059.4 1.61695 1.96791 0
M  V30 31479 H 3060.18 3.16335 1.33367 0
M  V30 31480 N 3062.62 -1.014 1.20647 0
M  V30 31481 C 3063.85 -1.7917 1.04465 0
M  V30 31482 C 3064.27 -1.83764 -0.401556 0
M  V30 31483 O 3063.63 -1.27461 -1.28932 0
M  V30 31484 C 3063.68 -3.21358 1.63589 0
M  V30 31485 O 3062.78 -4.03005 0.875268 0
M  V30 31486 H 3062.12 -0.552532 0.368245 0
M  V30 31487 H 3064.65 -1.27523 1.59997 0
M  V30 31488 H 3064.66 -3.72062 1.67433 0
M  V30 31489 H 3063.34 -3.17329 2.6884 0
M  V30 31490 H 3061.92 -3.61595 0.911235 0
M  V30 31491 N 3064.1 -1.01278 -1.2075 0
M  V30 31492 C 3065.51 -0.732063 -1.71749 0
M  V30 31493 C 3065.86 0.749701 -1.81312 0
M  V30 31494 O 3064.99 1.58527 -1.47303 0
M  V30 31495 C 3065.58 -1.32222 -3.11934 0
M  V30 31496 C 3064.14 -1.09046 -3.60258 0
M  V30 31497 C 3063.29 -1.43026 -2.37568 0
M  V30 31498 H 3066.24 -1.18272 -1.05818 0
M  V30 31499 H 3066.26 -0.710837 -3.73801 0
M  V30 31500 H 3065.77 -2.40067 -3.04942 0
M  V30 31501 H 3063.87 -0.0295119 -3.72588 0
M  V30 31502 H 3063.99 -1.76782 -4.45292 0
M  V30 31503 H 3062.35 -0.849201 -2.40126 0
M  V30 31504 H 3063.13 -2.51919 -2.33221 0
M  V30 31505 N 3065.58 1.36456 -0.788516 0
M  V30 31506 C 3066.54 2.28392 -0.192249 0
M  V30 31507 C 3067.54 1.48785 0.60989 0
M  V30 31508 O 3068.73 1.68784 0.431017 0
M  V30 31509 C 3065.86 3.32903 0.734038 0
M  V30 31510 H 3067.06 2.82634 -1.00289 0
M  V30 31511 H 3064.61 1.46005 -0.557878 0
M  V30 31512 H 3065.35 2.83815 1.56905 0
M  V30 31513 H 3065.13 3.9177 0.160806 0
M  V30 31514 H 3066.62 4.01564 1.14612 0
M  V30 31515 N 3067.06 0.540456 1.48043 0
M  V30 31516 C 3068.47 0.102695 1.86417 0
M  V30 31517 C 3068.82 -1.3229 1.44892 0
M  V30 31518 O 3067.94 -1.99248 0.844355 0
M  V30 31519 C 3068.54 0.179592 3.38324 0
M  V30 31520 C 3067.1 -0.203032 3.75852 0
M  V30 31521 C 3066.25 0.534684 2.72096 0
M  V30 31522 H 3069.2 0.751127 1.39799 0
M  V30 31523 H 3069.22 -0.606081 3.75642 0
M  V30 31524 H 3068.73 1.21727 3.68516 0
M  V30 31525 H 3066.83 -1.24246 3.51275 0
M  V30 31526 H 3066.94 0.143868 4.78884 0
M  V30 31527 H 3065.31 -0.0202911 2.54692 0
M  V30 31528 H 3066.09 1.5732 3.05132 0
M  V30 31529 N 3068.54 -1.55163 0.276085 0
M  V30 31530 C 3069.48 -2.23992 -0.626939 0
M  V30 31531 C 3070.48 -1.23727 -1.15706 0
M  V30 31532 O 3071.68 -1.41655 -1.11058 0
M  V30 31533 H 3068.06 -0.718876 -0.22073 0
M  V30 31534 H 3070.03 -2.98391 -0.0236044 0
M  V30 31535 C 3068.78 -2.97524 -1.7993 0
M  V30 31536 H 3068.1 -3.74465 -1.40057 0
M  V30 31537 H 3069.54 -3.49003 -2.40775 0
M  V30 31538 C 3068 -2.03051 -2.68834 0
M  V30 31539 O 3068.53 -1.58235 -3.69221 0
M  V30 31540 N 3066.74 -1.69531 -2.36025 0
M  V30 31541 H 3066.28 -2.06171 -1.54438 0
M  V30 31542 H 3066.24 -1.06591 -2.9578 0
M  V30 31543 N 3070.01 -0.00338196 -1.576 0
M  V30 31544 C 3071.24 0.690648 -1.94714 0
M  V30 31545 C 3071.65 1.67649 -0.876944 0
M  V30 31546 O 3070.99 1.83067 0.152402 0
M  V30 31547 C 3071.06 1.47526 -3.27836 0
M  V30 31548 C 3070.72 0.650625 -4.52345 0
M  V30 31549 C 3071.72 -0.0631451 -5.19862 0
M  V30 31550 C 3069.4 0.595599 -4.98756 0
M  V30 31551 C 3071.4 -0.82089 -6.32092 0
M  V30 31552 C 3069.08 -0.165868 -6.10875 0
M  V30 31553 C 3070.08 -0.872843 -6.774 0
M  V30 31554 O 3069.77 -1.62188 -7.87369 0
M  V30 31555 H 3069.5 0.197092 -0.64663 0
M  V30 31556 H 3072.06 -0.0516443 -2.05335 0
M  V30 31557 H 3070.29 2.26211 -3.13632 0
M  V30 31558 H 3071.97 2.05495 -3.50038 0
M  V30 31559 H 3072.74 -0.0298075 -4.84991 0
M  V30 31560 H 3068.62 1.13541 -4.46799 0
M  V30 31561 H 3072.16 -1.37324 -6.8395 0
M  V30 31562 H 3068.06 -0.201014 -6.45187 0
M  V30 31563 H 3068.83 -1.53894 -8.03902 0
M  V30 31564 N 3071.49 1.5528 0.269423 0
M  V30 31565 C 3072.72 1.80417 1.02296 0
M  V30 31566 C 3073.14 0.577394 1.79019 0
M  V30 31567 O 3072.5 -0.473094 1.75019 0
M  V30 31568 C 3072.55 3.03044 1.9544 0
M  V30 31569 O 3071.65 2.7838 3.04267 0
M  V30 31570 H 3070.99 0.596212 0.292279 0
M  V30 31571 H 3073.52 2.02429 0.297247 0
M  V30 31572 H 3073.53 3.31873 2.37327 0
M  V30 31573 H 3072.21 3.91981 1.3901 0
M  V30 31574 H 3070.78 2.60657 2.66669 0
M  V30 31575 N 3072.97 -0.534097 1.48274 0
M  V30 31576 C 3074.39 -0.862249 1.34304 0
M  V30 31577 C 3074.59 -1.9842 0.350937 0
M  V30 31578 O 3073.64 -2.51457 -0.22932 0
M  V30 31579 C 3074.95 -1.23366 2.74229 0
M  V30 31580 C 3076.5 -1.34378 2.82686 0
M  V30 31581 C 3076.98 -1.74864 4.23304 0
M  V30 31582 N 3078.47 -1.81974 4.25958 0
M  V30 31583 C 3079.2 -2.14677 5.31697 0
M  V30 31584 N 3078.7 -2.45832 6.47718 0
M  V30 31585 N 3080.49 -2.15648 5.19088 0
M  V30 31586 H 3072.64 0.206252 2.11396 0
M  V30 31587 H 3074.91 0.0296283 0.947537 0
M  V30 31588 H 3074.61 -0.482906 3.48369 0
M  V30 31589 H 3074.49 -2.18473 3.07489 0
M  V30 31590 H 3076.87 -2.0853 2.08804 0
M  V30 31591 H 3076.95 -0.374019 2.53051 0
M  V30 31592 H 3076.6 -1.01273 4.97701 0
M  V30 31593 H 3076.53 -2.72883 4.50381 0
M  V30 31594 H 3079.02 -1.6019 3.42268 0
M  V30 31595 H 3079.33 -2.69879 7.24144 0
M  V30 31596 H 3077.68 -2.43361 6.51 0
M  V30 31597 H 3080.87 -1.90762 4.27466 0
M  V30 31598 H 3081.04 -2.40803 6.01596 0
M  V30 31599 N 3074.45 -1.36793 -0.782652 0
M  V30 31600 C 3075.41 -1.3151 -1.87717 0
M  V30 31601 C 3076.41 -0.221377 -1.59269 0
M  V30 31602 O 3077.6 -0.476573 -1.67554 0
M  V30 31603 C 3074.73 -1.04031 -3.24639 0
M  V30 31604 H 3075.93 -2.28857 -1.93816 0
M  V30 31605 H 3073.48 -1.21664 -0.981205 0
M  V30 31606 H 3074.21 -0.0717009 -3.24221 0
M  V30 31607 H 3074 -1.83186 -3.46678 0
M  V30 31608 H 3075.49 -1.02956 -4.04709 0
M  V30 31609 N 3075.93 1.00759 -1.21184 0
M  V30 31610 C 3076.86 2.11342 -0.99281 0
M  V30 31611 C 3077.84 1.69905 0.081332 0
M  V30 31612 O 3079.02 1.94043 -0.0779844 0
M  V30 31613 C 3076.15 3.42855 -0.553887 0
M  V30 31614 C 3075.11 3.98074 -1.5723 0
M  V30 31615 C 3074.43 5.25461 -0.989698 0
M  V30 31616 C 3075.73 4.30433 -2.95846 0
M  V30 31617 H 3077.43 2.29923 -1.9177 0
M  V30 31618 H 3074.97 1.10492 -0.923446 0
M  V30 31619 H 3076.93 4.19611 -0.387844 0
M  V30 31620 H 3075.65 3.24059 0.406645 0
M  V30 31621 H 3074.31 3.23434 -1.72586 0
M  V30 31622 H 3073.96 5.02996 -0.0209627 0
M  V30 31623 H 3073.66 5.63371 -1.66993 0
M  V30 31624 H 3075.18 6.04865 -0.834921 0
M  V30 31625 H 3076.59 4.98042 -2.83949 0
M  V30 31626 H 3074.99 4.79479 -3.6086 0
M  V30 31627 H 3076.06 3.38817 -3.46888 0
M  V30 31628 N 3077.4 1.01917 1.20211 0
M  V30 31629 C 3078.65 0.720757 1.90202 0
M  V30 31630 C 3079.01 -0.741749 1.77527 0
M  V30 31631 O 3078.3 -1.5322 1.1504 0
M  V30 31632 C 3078.49 1.09444 3.4023 0
M  V30 31633 C 3078.32 2.59173 3.67504 0
M  V30 31634 C 3077.09 3.25996 3.86076 0
M  V30 31635 C 3079.29 3.57366 3.69857 0
M  V30 31636 N 3077.27 4.64929 4.00892 0
M  V30 31637 C 3078.64 4.81872 3.90128 0
M  V30 31638 C 3080.7 3.51302 3.52833 0
M  V30 31639 C 3079.4 6.01047 3.95139 0
M  V30 31640 C 3081.43 4.69882 3.59117 0
M  V30 31641 C 3080.79 5.93198 3.79863 0
M  V30 31642 H 3076.89 0.315455 0.71555 0
M  V30 31643 H 3079.47 1.30451 1.44536 0
M  V30 31644 H 3077.64 0.539 3.84642 0
M  V30 31645 H 3079.37 0.7493 3.97703 0
M  V30 31646 H 3076.13 2.76419 3.84564 0
M  V30 31647 H 3076.55 5.3707 4.12171 0
M  V30 31648 H 3081.2 2.56957 3.35758 0
M  V30 31649 H 3078.91 6.95771 4.1101 0
M  V30 31650 H 3082.5 4.66808 3.47249 0
M  V30 31651 H 3081.38 6.83419 3.84588 0
M  V30 31652 N 3078.88 -1.36036 0.795742 0
M  V30 31653 C 3080.3 -1.52268 0.478172 0
M  V30 31654 C 3080.5 -1.74793 -1.00247 0
M  V30 31655 O 3079.55 -1.78308 -1.7878 0
M  V30 31656 C 3080.87 -2.70466 1.31411 0
M  V30 31657 C 3082.42 -2.84339 1.30845 0
M  V30 31658 C 3082.89 -4.05548 2.12826 0
M  V30 31659 N 3084.38 -4.12706 2.10305 0
M  V30 31660 C 3085.12 -5.05584 2.70504 0
M  V30 31661 N 3084.61 -6.03865 3.39587 0
M  V30 31662 N 3086.41 -4.98247 2.60204 0
M  V30 31663 H 3078.56 -1.1967 1.75479 0
M  V30 31664 H 3080.82 -0.584611 0.74628 0
M  V30 31665 H 3080.53 -2.60363 2.3644 0
M  V30 31666 H 3080.4 -3.64785 0.95979 0
M  V30 31667 H 3082.79 -2.93898 0.266055 0
M  V30 31668 H 3082.87 -1.90909 1.70257 0
M  V30 31669 H 3082.51 -3.96749 3.171 0
M  V30 31670 H 3082.44 -4.98138 1.70781 0
M  V30 31671 H 3084.93 -3.42342 1.60032 0
M  V30 31672 H 3085.25 -6.7131 3.82835 0
M  V30 31673 H 3083.59 -6.04071 3.4369 0
M  V30 31674 H 3086.78 -4.20418 2.0583 0
M  V30 31675 H 3086.95 -5.70441 3.0741 0
M  V30 31676 N 3080.36 -0.5483 -1.47755 0
M  V30 31677 C 3081.61 -0.0209621 -2.02789 0
M  V30 31678 C 3081.94 1.32184 -1.42271 0
M  V30 31679 O 3081.21 1.85805 -0.575034 0
M  V30 31680 C 3081.5 0.0816042 -3.60008 0
M  V30 31681 C 3081.35 -1.28766 -4.30975 0
M  V30 31682 C 3082.67 0.799439 -4.32778 0
M  V30 31683 H 3079.79 -0.00909179 -0.736944 0
M  V30 31684 H 3082.43 -0.70887 -1.76281 0
M  V30 31685 H 3080.58 0.66747 -3.82723 0
M  V30 31686 H 3082.25 -1.91605 -4.19625 0
M  V30 31687 H 3080.5 -1.86473 -3.91676 0
M  V30 31688 H 3081.17 -1.16871 -5.39486 0
M  V30 31689 H 3083.64 0.302087 -4.15002 0
M  V30 31690 H 3082.52 0.840143 -5.42432 0
M  V30 31691 H 3082.78 1.85368 -4.01361 0
M  V30 31692 N 3081.84 1.55014 -0.28431 0
M  V30 31693 C 3082.8 2.21578 0.586143 0
M  V30 31694 C 3083.8 1.19652 1.07425 0
M  V30 31695 O 3084.99 1.44497 0.972951 0
M  V30 31696 C 3082.12 2.889 1.80968 0
M  V30 31697 H 3083.32 2.999 0.00481982 0
M  V30 31698 H 3080.87 1.56261 -0.0349971 0
M  V30 31699 H 3081.6 2.14615 2.43127 0
M  V30 31700 H 3081.39 3.63602 1.4675 0
M  V30 31701 H 3082.88 3.39728 2.42847 0
M  V30 31702 N 3083.32 0.0117398 1.57596 0
M  V30 31703 C 3084.28 -0.960779 2.08091 0
M  V30 31704 C 3085.28 -1.26512 0.992542 0
M  V30 31705 O 3086.47 -1.20835 1.25478 0
M  V30 31706 C 3083.6 -2.28236 2.53221 0
M  V30 31707 H 3084.79 -0.523777 2.95291 0
M  V30 31708 H 3082.35 -0.235968 1.54509 0
M  V30 31709 H 3083.08 -2.76602 1.69299 0
M  V30 31710 H 3082.87 -2.07464 3.32718 0
M  V30 31711 H 3084.36 -2.97978 2.92573 0
M  V30 31712 N 3084.79 -1.55421 -0.261185 0
M  V30 31713 C 3085.7 -1.92223 -1.3449 0
M  V30 31714 C 3086.72 -0.820887 -1.53419 0
M  V30 31715 O 3087.9 -1.12102 -1.67318 0
M  V30 31716 C 3084.96 -2.19697 -2.68205 0
M  V30 31717 C 3084.02 -3.43184 -2.57921 0
M  V30 31718 C 3083.26 -3.69338 -3.8526 0
M  V30 31719 O 3083.48 -2.97801 -4.86488 0
M  V30 31720 O 3082.41 -4.62871 -3.84752 0
M  V30 31721 H 3086.24 -2.84499 -1.06273 0
M  V30 31722 H 3083.82 -1.42119 -0.460727 0
M  V30 31723 H 3085.71 -2.3874 -3.47248 0
M  V30 31724 H 3084.38 -1.30602 -2.96184 0
M  V30 31725 H 3083.29 -3.29463 -1.77214 0
M  V30 31726 H 3084.62 -4.32536 -2.3489 0
M  V30 31727 N 3086.27 0.526227 -1.48555 0
M  V30 31728 C 3087.18 1.65728 -1.66046 0
M  V30 31729 C 3088.2 1.65311 -0.54298 0
M  V30 31730 O 3089.37 1.84194 -0.814527 0
M  V30 31731 C 3086.44 3.02181 -1.69964 0
M  V30 31732 C 3085.5 3.13423 -2.93367 0
M  V30 31733 C 3084.73 4.43367 -2.97089 0
M  V30 31734 O 3084.96 5.30687 -2.09112 0
M  V30 31735 O 3083.89 4.59054 -3.89298 0
M  V30 31736 H 3087.72 1.53907 -2.61813 0
M  V30 31737 H 3085.3 0.699736 -1.32 0
M  V30 31738 H 3087.18 3.83326 -1.7504 0
M  V30 31739 H 3085.86 3.14317 -0.773713 0
M  V30 31740 H 3084.77 2.31559 -2.93822 0
M  V30 31741 H 3086.1 3.06204 -3.85357 0
M  V30 31742 N 3087.75 1.37206 0.775387 0
M  V30 31743 C 3088.98 1.35203 1.56217 0
M  V30 31744 C 3089.39 -0.0654227 1.89087 0
M  V30 31745 O 3088.73 -1.03662 1.51657 0
M  V30 31746 C 3088.79 2.12208 2.90186 0
M  V30 31747 C 3088.46 3.612 2.79971 0
M  V30 31748 C 3089.45 4.55159 2.5125 0
M  V30 31749 C 3087.14 4.04274 2.98107 0
M  V30 31750 C 3089.13 5.90169 2.40788 0
M  V30 31751 C 3086.82 5.39371 2.87266 0
M  V30 31752 C 3087.82 6.32132 2.58646 0
M  V30 31753 O 3087.51 7.64747 2.47824 0
M  V30 31754 H 3087.24 0.464933 0.490727 0
M  V30 31755 H 3089.79 1.81097 0.969169 0
M  V30 31756 H 3088.02 1.60998 3.51591 0
M  V30 31757 H 3089.71 2.02885 3.51557 0
M  V30 31758 H 3090.48 4.23191 2.36928 0
M  V30 31759 H 3086.36 3.32435 3.19387 0
M  V30 31760 H 3089.9 6.62541 2.1837 0
M  V30 31761 H 3085.8 5.70943 3.01156 0
M  V30 31762 H 3086.57 7.75027 2.63201 0
M  V30 31763 N 3089.23 -1.00115 1.21716 0
M  V30 31764 C 3090.47 -1.74206 1.03827 0
M  V30 31765 C 3090.81 -1.89454 -0.4267 0
M  V30 31766 O 3090.08 -1.43168 -1.31655 0
M  V30 31767 C 3090.37 -3.15242 1.74052 0
M  V30 31768 C 3090.22 -3.07694 3.28092 0
M  V30 31769 C 3091.54 -4.14246 1.48621 0
M  V30 31770 H 3088.66 -0.632332 0.378584 0
M  V30 31771 H 3091.3 -1.16691 1.49944 0
M  V30 31772 H 3089.45 -3.64347 1.34846 0
M  V30 31773 H 3091.12 -2.66274 3.76691 0
M  V30 31774 H 3089.36 -2.447 3.58196 0
M  V30 31775 H 3090.03 -4.07459 3.72399 0
M  V30 31776 H 3092.51 -3.73863 1.82662 0
M  V30 31777 H 3091.39 -5.11062 2.00266 0
M  V30 31778 H 3091.65 -4.40129 0.417035 0
M  V30 31779 N 3090.71 -1.02553 -1.19669 0
M  V30 31780 C 3091.62 -0.613368 -2.2644 0
M  V30 31781 C 3092.63 0.353309 -1.70375 0
M  V30 31782 O 3093.81 0.212029 -2.00281 0
M  V30 31783 C 3090.87 0.0328419 -3.46684 0
M  V30 31784 C 3089.94 -0.980911 -4.17943 0
M  V30 31785 C 3089.17 -0.365443 -5.32447 0
M  V30 31786 O 3089.39 0.832497 -5.64292 0
M  V30 31787 O 3088.33 -1.08662 -5.9201 0
M  V30 31788 H 3092.15 -1.5025 -2.63929 0
M  V30 31789 H 3089.74 -0.795524 -1.26459 0
M  V30 31790 H 3091.62 0.393321 -4.1956 0
M  V30 31791 H 3090.29 0.896034 -3.11051 0
M  V30 31792 H 3089.2 -1.39292 -3.47201 0
M  V30 31793 H 3090.53 -1.81436 -4.57539 0
M  V30 31794 N 3092.19 1.35612 -0.802945 0
M  V30 31795 C 3093.43 1.99166 -0.382176 0
M  V30 31796 C 3093.76 1.63558 1.04701 0
M  V30 31797 O 3093.04 0.89709 1.72576 0
M  V30 31798 C 3093.32 3.55694 -0.561556 0
M  V30 31799 C 3093.18 4.01112 -2.03541 0
M  V30 31800 C 3094.49 4.40097 0.0150361 0
M  V30 31801 H 3091.61 0.723516 -0.140335 0
M  V30 31802 H 3094.26 1.60818 -1.0118 0
M  V30 31803 H 3092.41 3.88492 -0.0255766 0
M  V30 31804 H 3094.08 3.78741 -2.63349 0
M  V30 31805 H 3092.32 3.52155 -2.53317 0
M  V30 31806 H 3092.99 5.10006 -2.11182 0
M  V30 31807 H 3095.47 4.13739 -0.442655 0
M  V30 31808 H 3094.34 5.4872 -0.140412 0
M  V30 31809 H 3094.6 4.2798 1.1084 0
M  V30 31810 N 3093.66 0.556128 1.47462 0
M  V30 31811 C 3094.89 0.0364948 2.06868 0
M  V30 31812 C 3095.31 -1.25674 1.40895 0
M  V30 31813 O 3094.66 -1.75371 0.505114 0
M  V30 31814 C 3094.71 -0.163921 3.61128 0
M  V30 31815 O 3094.44 1.0781 4.24628 0
M  V30 31816 C 3095.94 -0.720959 4.37398 0
M  V30 31817 H 3093.16 0.0453517 0.669466 0
M  V30 31818 H 3095.7 0.769231 1.89481 0
M  V30 31819 H 3093.86 -0.846783 3.78032 0
M  V30 31820 H 3094.27 0.875158 5.17147 0
M  V30 31821 H 3095.74 -0.810488 5.46017 0
M  V30 31822 H 3096.22 -1.73198 4.03607 0
M  V30 31823 H 3096.83 -0.0738292 4.25236 0
M  V30 31824 N 3095.14 -1.54861 0.292527 0
M  V30 31825 C 3096.56 -1.59483 -0.061118 0
M  V30 31826 C 3096.76 -1.30961 -1.53139 0
M  V30 31827 O 3095.81 -1.07891 -2.28289 0
M  V30 31828 C 3097.13 -2.98893 0.329195 0
M  V30 31829 C 3098.67 -3.1177 0.277255 0
M  V30 31830 C 3099.15 -4.53474 0.642264 0
M  V30 31831 N 3100.64 -4.59369 0.594476 0
M  V30 31832 C 3101.38 -5.67073 0.849485 0
M  V30 31833 N 3100.87 -6.82849 1.17002 0
M  V30 31834 N 3102.66 -5.56702 0.777114 0
M  V30 31835 H 3094.82 -1.71663 1.25082 0
M  V30 31836 H 3097.08 -0.801331 0.50653 0
M  V30 31837 H 3096.78 -3.24659 1.35238 0
M  V30 31838 H 3096.66 -3.75828 -0.321376 0
M  V30 31839 H 3099.05 -2.85757 -0.736675 0
M  V30 31840 H 3099.13 -2.37008 0.96233 0
M  V30 31841 H 3098.77 -4.80215 1.65396 0
M  V30 31842 H 3098.7 -5.2656 -0.0647906 0
M  V30 31843 H 3101.19 -3.76207 0.357322 0
M  V30 31844 H 3101.5 -7.60903 1.3508 0
M  V30 31845 H 3099.85 -6.84422 1.20797 0
M  V30 31846 H 3103.04 -4.65131 0.526415 0
M  V30 31847 H 3103.21 -6.40558 0.979225 0
M  V30 31848 N 3096.62 -0.0200973 -1.57587 0
M  V30 31849 C 3097.87 0.66147 -1.91709 0
M  V30 31850 C 3098.2 1.72295 -0.895998 0
M  V30 31851 O 3097.47 1.94325 0.0825428 0
M  V30 31852 C 3097.76 1.28621 -3.36346 0
M  V30 31853 C 3097.61 0.234903 -4.49186 0
M  V30 31854 C 3098.93 2.20678 -3.80774 0
M  V30 31855 H 3096.05 0.238992 -0.697174 0
M  V30 31856 H 3098.69 -0.0755098 -1.8985 0
M  V30 31857 H 3096.84 1.91433 -3.38061 0
M  V30 31858 H 3098.51 -0.395091 -4.59605 0
M  V30 31859 H 3096.75 -0.440641 -4.31556 0
M  V30 31860 H 3097.43 0.711462 -5.47396 0
M  V30 31861 H 3099.9 1.67862 -3.80738 0
M  V30 31862 H 3098.78 2.61347 -4.82689 0
M  V30 31863 H 3099.04 3.09423 -3.15769 0
M  V30 31864 N 3098.1 1.55557 0.252939 0
M  V30 31865 C 3099.35 1.76756 0.979881 0
M  V30 31866 C 3099.67 0.582977 1.86082 0
M  V30 31867 O 3098.94 -0.401463 1.91742 0
M  V30 31868 H 3097.52 0.65187 0.364793 0
M  V30 31869 H 3100.18 1.92988 0.272339 0
M  V30 31870 H 3099.27 2.6766 1.60513 0
M  V30 31871 N 3099.58 -0.518341 1.48832 0
M  V30 31872 C 3100.85 -1.27963 1.47935 0
M  V30 31873 C 3101.23 -2.10175 0.19743 0
M  V30 31874 O 3100.58 -2.13256 -0.820619 0
M  V30 31875 C 3100.79 -2.15116 2.7482 0
M  V30 31876 C 3102.14 -2.74875 3.23618 0
M  V30 31877 O 3103.16 -2.25395 2.75818 0
M  V30 31878 O 3102.02 -3.64906 4.06824 0
M  V30 31879 H 3099.12 -0.578154 0.591327 0
M  V30 31880 H 3101.66 -0.534037 1.61078 0
M  V30 31881 H 3100.43 -1.54228 3.59624 0
M  V30 31882 H 3100.06 -2.96901 2.64454 0
M  V30 31883 N 3101.05 -1.37615 -0.7681 0
M  V30 31884 C 3102.3 -1.33025 -1.52678 0
M  V30 31885 C 3102.63 0.0841577 -1.94318 0
M  V30 31886 O 3101.88 1.05817 -1.64624 0
M  V30 31887 C 3102.18 -2.21861 -2.802 0
M  V30 31888 C 3101.85 -3.70075 -2.57595 0
M  V30 31889 C 3100.51 -4.10466 -2.51139 0
M  V30 31890 C 3102.86 -4.63957 -2.37474 0
M  V30 31891 C 3100.19 -5.42849 -2.22556 0
M  V30 31892 C 3102.54 -5.96581 -2.10414 0
M  V30 31893 C 3101.21 -6.36073 -2.02405 0
M  V30 31894 H 3100.48 -0.486773 -0.558689 0
M  V30 31895 H 3103.12 -1.69853 -0.884441 0
M  V30 31896 H 3101.43 -1.78041 -3.49011 0
M  V30 31897 H 3103.13 -2.15621 -3.38095 0
M  V30 31898 H 3099.72 -3.38044 -2.63485 0
M  V30 31899 H 3103.9 -4.33608 -2.4145 0
M  V30 31900 H 3099.16 -5.72406 -2.14853 0
M  V30 31901 H 3103.33 -6.68878 -1.93845 0
M  V30 31902 H 3100.96 -7.38577 -1.80021 0
M  V30 31903 N 3102.53 0.994677 -1.22245 0
M  V30 31904 C 3103.48 2.06884 -0.95828 0
M  V30 31905 C 3104.47 1.60646 0.0904198 0
M  V30 31906 O 3105.66 1.76594 -0.119868 0
M  V30 31907 C 3102.79 3.3909 -0.536003 0
M  V30 31908 C 3101.87 3.91967 -1.61934 0
M  V30 31909 N 3102.26 4.18089 -2.84666 0
M  V30 31910 C 3100.56 4.20353 -1.49061 0
M  V30 31911 C 3101.26 4.61042 -3.54705 0
M  V30 31912 N 3100.24 4.64629 -2.82172 0
M  V30 31913 H 3104.04 2.25019 -1.8906 0
M  V30 31914 H 3101.55 1.17627 -1.11972 0
M  V30 31915 H 3103.55 4.15607 -0.32807 0
M  V30 31916 H 3102.21 3.22356 0.389434 0
M  V30 31917 H 3103.22 4.06335 -3.21111 0
M  V30 31918 H 3099.9 4.12701 -0.631227 0
M  V30 31919 H 3101.29 4.8989 -4.59845 0
M  V30 31920 N 3104.01 1.03186 1.19123 0
M  V30 31921 C 3105.24 0.748697 1.92557 0
M  V30 31922 C 3105.65 -0.696806 1.75901 0
M  V30 31923 O 3104.99 -1.48583 1.08022 0
M  V30 31924 C 3105.05 1.02397 3.44609 0
M  V30 31925 C 3104.72 2.46162 3.85037 0
M  V30 31926 C 3105.71 3.44309 3.89548 0
M  V30 31927 C 3103.4 2.8064 4.16589 0
M  V30 31928 C 3105.39 4.74989 4.25047 0
M  V30 31929 C 3103.08 4.11529 4.5176 0
M  V30 31930 C 3104.08 5.08514 4.55963 0
M  V30 31931 O 3103.77 6.37058 4.90319 0
M  V30 31932 H 3103.5 0.27307 0.618392 0
M  V30 31933 H 3106.05 1.38017 1.5212 0
M  V30 31934 H 3104.28 0.335351 3.85243 0
M  V30 31935 H 3105.97 0.729997 3.99282 0
M  V30 31936 H 3106.74 3.1901 3.65319 0
M  V30 31937 H 3102.62 2.05828 4.12499 0
M  V30 31938 H 3106.16 5.50685 4.28242 0
M  V30 31939 H 3102.06 4.366 4.75448 0
M  V30 31940 H 3102.82 6.41575 5.08255 0
M  V30 31941 N 3105.49 -1.35184 0.810125 0
M  V30 31942 C 3106.73 -1.98961 0.392733 0
M  V30 31943 C 3107.07 -1.64111 -1.03832 0
M  V30 31944 O 3106.34 -0.90623 -1.72098 0
M  V30 31945 C 3106.63 -3.55392 0.580411 0
M  V30 31946 C 3106.48 -4.00027 2.05666 0
M  V30 31947 C 3107.8 -4.40099 0.00830353 0
M  V30 31948 H 3104.92 -0.722761 0.14417 0
M  V30 31949 H 3107.56 -1.6028 1.02032 0
M  V30 31950 H 3105.71 -3.88473 0.0461789 0
M  V30 31951 H 3107.38 -3.77339 2.65354 0
M  V30 31952 H 3105.62 -3.50807 2.55181 0
M  V30 31953 H 3106.29 -5.08879 2.13884 0
M  V30 31954 H 3108.77 -4.13498 0.46459 0
M  V30 31955 H 3107.65 -5.48638 0.16951 0
M  V30 31956 H 3107.91 -4.28562 -1.08569 0
M  V30 31957 N 3106.97 -0.56394 -1.47165 0
M  V30 31958 C 3108.19 -0.047465 -2.06846 0
M  V30 31959 C 3108.61 1.24925 -1.4156 0
M  V30 31960 O 3107.97 1.751 -0.514407 0
M  V30 31961 C 3108.02 0.144767 -3.6121 0
M  V30 31962 O 3107.74 -1.10061 -4.2405 0
M  V30 31963 C 3109.24 0.697753 -4.37774 0
M  V30 31964 H 3106.46 -0.0489014 -0.669216 0
M  V30 31965 H 3109 -0.779269 -1.8907 0
M  V30 31966 H 3107.16 0.826723 -3.78476 0
M  V30 31967 H 3107.57 -0.902571 -5.16676 0
M  V30 31968 H 3109.05 0.78152 -5.4644 0
M  V30 31969 H 3109.52 1.71056 -4.0452 0
M  V30 31970 H 3110.13 0.0512769 -4.25269 0
M  V30 31971 N 3108.44 1.54704 -0.300735 0
M  V30 31972 C 3109.69 1.99739 0.308009 0
M  V30 31973 C 3110.01 1.19064 1.54431 0
M  V30 31974 O 3109.28 0.286541 1.93793 0
M  V30 31975 H 3107.86 0.737812 0.116798 0
M  V30 31976 H 3110.53 1.90496 -0.412004 0
M  V30 31977 H 3109.62 3.06659 0.580233 0
M  V30 31978 N 3109.92 0.0284543 1.57574 0
M  V30 31979 C 3110.86 -0.988365 2.05686 0
M  V30 31980 C 3111.83 -1.31781 0.952491 0
M  V30 31981 O 3113.02 -1.4346 1.22277 0
M  V30 31982 C 3110.14 -2.30857 2.47836 0
M  V30 31983 C 3109.19 -2.13378 3.69286 0
M  V30 31984 S 3110.02 -1.43322 5.15964 0
M  V30 31985 C 3111.18 -2.76714 5.61409 0
M  V30 31986 H 3111.41 -0.578822 2.91611 0
M  V30 31987 H 3108.95 -0.183217 1.53309 0
M  V30 31988 H 3110.9 -3.06754 2.72786 0
M  V30 31989 H 3109.56 -2.68945 1.62258 0
M  V30 31990 H 3108.76 -3.10976 3.96623 0
M  V30 31991 H 3108.36 -1.45623 3.44485 0
M  V30 31992 H 3110.65 -3.72953 5.65608 0
M  V30 31993 H 3111.59 -2.54041 6.6096 0
M  V30 31994 H 3112 -2.8193 4.89056 0
M  V30 31995 N 3111.4 -1.55689 -0.244686 0
M  V30 31996 C 3112.63 -1.81682 -0.989912 0
M  V30 31997 C 3113.04 -0.60448 -1.78862 0
M  V30 31998 O 3112.4 0.426876 -1.77437 0
M  V30 31999 C 3112.45 -3.0592 -1.92602 0
M  V30 32000 O 3112.17 -4.22474 -1.15963 0
M  V30 32001 C 3113.67 -3.44729 -2.78705 0
M  V30 32002 H 3110.89 -0.604524 -0.29119 0
M  V30 32003 H 3113.44 -2.02751 -0.266902 0
M  V30 32004 H 3111.59 -2.86894 -2.60328 0
M  V30 32005 H 3112.01 -4.92901 -1.79302 0
M  V30 32006 H 3113.48 -4.34757 -3.40133 0
M  V30 32007 H 3113.96 -2.65416 -3.4993 0
M  V30 32008 H 3114.56 -3.66113 -2.16428 0
M  V30 32009 N 3112.88 0.510441 -1.49105 0
M  V30 32010 C 3114.11 1.28941 -1.61808 0
M  V30 32011 C 3114.52 1.86624 -0.285806 0
M  V30 32012 O 3113.88 1.67372 0.727521 0
M  V30 32013 C 3113.93 2.4264 -2.6797 0
M  V30 32014 O 3113.65 1.8733 -3.96029 0
M  V30 32015 C 3115.15 3.34161 -2.91292 0
M  V30 32016 H 3112.37 0.391419 -0.545006 0
M  V30 32017 H 3114.92 0.613771 -1.95072 0
M  V30 32018 H 3113.07 3.06051 -2.37511 0
M  V30 32019 H 3113.48 2.61901 -4.54431 0
M  V30 32020 H 3114.96 4.10243 -3.6933 0
M  V30 32021 H 3115.44 3.90584 -2.00849 0
M  V30 32022 H 3116.04 2.76525 -3.23132 0
M  V30 32023 N 3114.36 1.38021 0.760791 0
M  V30 32024 C 3115.63 1.24359 1.50978 0
M  V30 32025 C 3116.01 -0.158132 2.10507 0
M  V30 32026 O 3115.36 -1.16691 1.96457 0
M  V30 32027 C 3115.57 2.34816 2.58191 0
M  V30 32028 C 3116.92 2.72892 3.25293 0
M  V30 32029 O 3117.94 2.34074 2.68492 0
M  V30 32030 O 3116.8 3.39806 4.28012 0
M  V30 32031 H 3113.9 0.485899 0.669202 0
M  V30 32032 H 3116.44 1.4983 0.796818 0
M  V30 32033 H 3115.21 3.28636 2.124 0
M  V30 32034 H 3114.84 2.1087 3.37075 0
M  V30 32035 N 3115.83 -0.98818 1.22771 0
M  V30 32036 C 3116.78 -2.1004 0.999308 0
M  V30 32037 C 3117.78 -1.69297 -0.0591469 0
M  V30 32038 O 3118.98 -1.79756 0.0936969 0
M  V30 32039 H 3115.36 -0.686926 0.306002 0
M  V30 32040 H 3117.33 -2.26475 1.94298 0
M  V30 32041 C 3116.08 -3.42505 0.59879 0
M  V30 32042 H 3115.4 -3.74301 1.40494 0
M  V30 32043 H 3116.84 -4.21292 0.478427 0
M  V30 32044 C 3115.3 -3.29713 -0.692158 0
M  V30 32045 O 3115.83 -3.61898 -1.74336 0
M  V30 32046 N 3114.04 -2.82886 -0.665113 0
M  V30 32047 H 3113.58 -2.56894 0.190649 0
M  V30 32048 H 3113.54 -2.74709 -1.52913 0
M  V30 32049 N 3117.31 -1.03816 -1.18575 0
M  V30 32050 C 3118.56 -0.741166 -1.88771 0
M  V30 32051 C 3118.89 0.729095 -1.79994 0
M  V30 32052 O 3118.17 1.53184 -1.19854 0
M  V30 32053 C 3118.45 -1.20473 -3.3935 0
M  V30 32054 C 3118.3 -2.73691 -3.5695 0
M  V30 32055 C 3119.62 -0.792817 -4.329 0
M  V30 32056 H 3116.74 -0.27072 -0.685478 0
M  V30 32057 H 3119.38 -1.28973 -1.39521 0
M  V30 32058 H 3117.53 -0.738041 -3.81425 0
M  V30 32059 H 3119.2 -3.28378 -3.23984 0
M  V30 32060 H 3117.45 -3.13637 -2.9969 0
M  V30 32061 H 3118.12 -3.01185 -4.62593 0
M  V30 32062 H 3120.59 -1.19437 -3.9859 0
M  V30 32063 H 3119.47 -1.14495 -5.36826 0
M  V30 32064 H 3119.73 0.304217 -4.41052 0
M  V30 32065 N 3118.79 1.34753 -0.817283 0
M  V30 32066 C 3119.74 2.29619 -0.233148 0
M  V30 32067 C 3120.71 1.53322 0.638875 0
M  V30 32068 O 3121.89 1.81716 0.581707 0
M  V30 32069 C 3119.03 3.3978 0.6036 0
M  V30 32070 C 3118.15 4.31025 -0.290042 0
M  V30 32071 C 3117.28 5.28285 0.555732 0
M  V30 32072 C 3116.32 6.11168 -0.337647 0
M  V30 32073 N 3115.46 7.00534 0.468724 0
M  V30 32074 H 3120.3 2.78982 -1.04752 0
M  V30 32075 H 3117.83 1.37294 -0.52808 0
M  V30 32076 H 3119.79 4.02328 1.104 0
M  V30 32077 H 3118.42 2.91666 1.38313 0
M  V30 32078 H 3117.47 3.69389 -0.908617 0
M  V30 32079 H 3118.79 4.89134 -0.977222 0
M  V30 32080 H 3117.94 5.96257 1.12083 0
M  V30 32081 H 3116.68 4.707 1.27644 0
M  V30 32082 H 3115.68 5.42134 -0.914934 0
M  V30 32083 H 3116.91 6.70833 -1.05638 0
M  V30 32084 H 3114.85 6.45424 1.17321 0
M  V30 32085 H 3114.77 7.5583 -0.160184 0
M  V30 32086 H 3116.04 7.7284 1.01676 0
M  V30 32087 N 3120.27 0.571737 1.46864 0
M  V30 32088 C 3121.51 0.0556846 2.04324 0
M  V30 32089 C 3121.87 -1.27574 1.43488 0
M  V30 32090 O 3123.07 -1.88036 1.92083 0
M  V30 32091 C 3121.35 -0.0205635 3.57394 0
M  V30 32092 S 3122.9 -0.480633 4.3616 0
M  V30 32093 H 3119.72 0.0321592 0.710272 0
M  V30 32094 H 3122.32 0.761756 1.80049 0
M  V30 32095 H 3121.03 0.952579 3.99192 0
M  V30 32096 H 3120.56 -0.749745 3.8619 0
M  V30 32097 H 3122.57 -1.73755 4.64783 0
M  V30 32098 N 3121.75 -1.54542 0.308935 0
M  V30 32099 C 3123.16 -1.8581 -0.182111 0
M  V30 32100 C 3123.51 -1.23079 -1.52794 0
M  V30 32101 O 3122.63 -0.531395 -2.09774 0
M  V30 32102 C 3123.23 -3.37118 -0.337215 0
M  V30 32103 C 3121.79 -3.68388 -0.772481 0
M  V30 32104 C 3120.94 -2.77064 0.1145 0
M  V30 32105 H 3123.89 -1.49599 0.529697 0
M  V30 32106 H 3123.91 -3.62049 -1.17052 0
M  V30 32107 H 3123.42 -3.82746 0.64245 0
M  V30 32108 H 3121.52 -3.28283 -1.76241 0
M  V30 32109 H 3121.63 -4.75498 -0.586369 0
M  V30 32110 H 3120 -2.51418 -0.407537 0
M  V30 32111 H 3120.78 -3.25514 1.09066 0
M  V30 32112 N 3123.23 -0.0368104 -1.57557 0
M  V30 32113 C 3124.47 0.644218 -1.93982 0
M  V30 32114 C 3124.83 1.68849 -0.914012 0
M  V30 32115 O 3126.03 2.42255 -1.16472 0
M  V30 32116 C 3124.3 1.23773 -3.35283 0
M  V30 32117 S 3125.86 1.93876 -3.93646 0
M  V30 32118 H 3122.68 0.211908 -0.678687 0
M  V30 32119 H 3125.28 -0.102315 -1.95232 0
M  V30 32120 H 3123.98 0.46538 -4.07753 0
M  V30 32121 H 3123.52 2.0214 -3.37495 0
M  V30 32122 H 3125.53 3.21797 -3.77705 0
M  V30 32123 N 3124.7 1.55817 0.236426 0
M  V30 32124 C 3125.64 1.87655 1.31599 0
M  V30 32125 C 3126.65 0.763609 1.43781 0
M  V30 32126 O 3127.84 1.04181 1.44943 0
M  V30 32127 C 3124.94 2.05694 2.69339 0
M  V30 32128 C 3124.11 3.36622 2.79292 0
M  V30 32129 C 3123.17 3.44275 3.97946 0
M  V30 32130 O 3122.2 4.17413 3.86982 0
M  V30 32131 N 3123.4 2.7433 5.11589 0
M  V30 32132 H 3126.16 2.80847 1.04618 0
M  V30 32133 H 3123.72 1.56181 0.426507 0
M  V30 32134 H 3125.72 2.08144 3.47071 0
M  V30 32135 H 3124.29 1.19197 2.88982 0
M  V30 32136 H 3123.51 3.46399 1.88153 0
M  V30 32137 H 3124.79 4.229 2.82901 0
M  V30 32138 H 3124.19 2.1466 5.2339 0
M  V30 32139 H 3122.75 2.8246 5.87418 0
M  V30 32140 N 3126.18 -0.502526 1.49373 0
M  V30 32141 C 3127.43 -1.25861 1.59018 0
M  V30 32142 C 3127.76 -1.92238 0.275353 0
M  V30 32143 O 3127.04 -1.80645 -0.720956 0
M  V30 32144 C 3127.32 -2.32678 2.74832 0
M  V30 32145 C 3127.17 -1.70813 4.16105 0
M  V30 32146 C 3128.49 -3.34251 2.86294 0
M  V30 32147 H 3125.61 -0.456237 0.578806 0
M  V30 32148 H 3128.25 -0.557 1.81652 0
M  V30 32149 H 3126.4 -2.9252 2.55665 0
M  V30 32150 H 3128.07 -1.1481 4.46784 0
M  V30 32151 H 3126.32 -1.0123 4.21823 0
M  V30 32152 H 3126.99 -2.48283 4.93011 0
M  V30 32153 H 3129.46 -2.84399 3.03738 0
M  V30 32154 H 3128.34 -4.06355 3.69008 0
M  V30 32155 H 3128.6 -3.96484 1.95583 0
M  V30 32156 N 3127.66 -1.38422 -0.75346 0
M  V30 32157 C 3129.07 -1.30947 -1.33078 0
M  V30 32158 C 3129.42 0.0346779 -1.96169 0
M  V30 32159 O 3128.55 0.936734 -1.95075 0
M  V30 32160 C 3129.14 -2.37142 -2.41969 0
M  V30 32161 C 3127.7 -2.33244 -2.95422 0
M  V30 32162 C 3126.85 -2.20001 -1.68804 0
M  V30 32163 H 3129.8 -1.48778 -0.552328 0
M  V30 32164 H 3129.82 -2.02865 -3.2191 0
M  V30 32165 H 3129.33 -3.34959 -1.96021 0
M  V30 32166 H 3127.43 -1.39009 -3.45698 0
M  V30 32167 H 3127.55 -3.27387 -3.49792 0
M  V30 32168 H 3125.91 -1.66856 -1.92435 0
M  V30 32169 H 3126.69 -3.1976 -1.24933 0
M  V30 32170 N 3129.14 0.981655 -1.23294 0
M  V30 32171 C 3130.1 2.0554 -1.0142 0
M  V30 32172 C 3131.1 1.60783 0.0235071 0
M  V30 32173 O 3132.29 1.72854 -0.216113 0
M  V30 32174 C 3129.42 3.36687 -0.534299 0
M  V30 32175 H 3130.62 2.26378 -1.96706 0
M  V30 32176 H 3128.17 1.15488 -1.0532 0
M  V30 32177 H 3128.9 3.21537 0.422395 0
M  V30 32178 H 3128.69 3.70512 -1.28311 0
M  V30 32179 H 3130.18 4.15662 -0.401863 0
M  V30 32180 N 3130.62 1.04444 1.18022 0
M  V30 32181 C 3132.03 0.777342 1.69748 0
M  V30 32182 C 3132.38 -0.701366 1.83236 0
M  V30 32183 O 3131.5 -1.54565 1.51455 0
M  V30 32184 C 3132.1 1.40446 3.08319 0
M  V30 32185 C 3130.66 1.18559 3.5724 0
M  V30 32186 C 3129.8 1.49275 2.33693 0
M  V30 32187 H 3132.75 1.21036 1.02645 0
M  V30 32188 H 3132.78 0.809694 3.71785 0
M  V30 32189 H 3132.29 2.48067 2.9847 0
M  V30 32190 H 3130.39 0.128287 3.72379 0
M  V30 32191 H 3130.5 1.88526 4.40448 0
M  V30 32192 H 3128.87 0.912568 2.3779 0
M  V30 32193 H 3129.65 2.58014 2.26459 0
M  V30 32194 N 3132.09 -1.34317 0.824418 0
M  V30 32195 C 3133 -2.33271 0.249361 0
M  V30 32196 C 3134.02 -1.62692 -0.617037 0
M  V30 32197 O 3135.2 -1.94448 -0.524582 0
M  V30 32198 C 3132.26 -3.41847 -0.578034 0
M  V30 32199 C 3131.32 -4.28172 0.310941 0
M  V30 32200 C 3130.55 -5.31564 -0.47706 0
M  V30 32201 O 3130.78 -5.44159 -1.71019 0
M  V30 32202 O 3129.71 -6.01734 0.141393 0
M  V30 32203 H 3133.54 -2.84286 1.06842 0
M  V30 32204 H 3131.12 -1.37402 0.586594 0
M  V30 32205 H 3133 -4.08142 -1.04871 0
M  V30 32206 H 3131.68 -2.93074 -1.37439 0
M  V30 32207 H 3130.59 -3.64796 0.829145 0
M  V30 32208 H 3131.92 -4.80391 1.07169 0
M  V30 32209 N 3133.57 -0.579517 -1.46558 0
M  V30 32210 C 3134.82 -0.0638773 -2.02399 0
M  V30 32211 C 3135.15 1.29481 -1.45137 0
M  V30 32212 O 3134.4 1.8611 -0.605094 0
M  V30 32213 C 3134.7 0.0552175 -3.57357 0
M  V30 32214 C 3134.37 -1.23547 -4.33644 0
M  V30 32215 C 3133.03 -1.58908 -4.54205 0
M  V30 32216 C 3135.38 -2.08973 -4.77472 0
M  V30 32217 C 3132.71 -2.79501 -5.15845 0
M  V30 32218 C 3135.06 -3.28789 -5.40445 0
M  V30 32219 C 3133.72 -3.64437 -5.59234 0
M  V30 32220 H 3132.99 -0.0233744 -0.740631 0
M  V30 32221 H 3135.64 -0.755513 -1.75967 0
M  V30 32222 H 3133.95 0.829963 -3.82908 0
M  V30 32223 H 3135.64 0.469894 -3.98237 0
M  V30 32224 H 3132.23 -0.950173 -4.17935 0
M  V30 32225 H 3136.42 -1.82958 -4.61346 0
M  V30 32226 H 3131.67 -3.07261 -5.28584 0
M  V30 32227 H 3135.85 -3.95255 -5.73364 0
M  V30 32228 H 3133.47 -4.57972 -6.06767 0
M  V30 32229 N 3135.05 1.54376 -0.317127 0
M  V30 32230 C 3136.3 2.00451 0.287375 0
M  V30 32231 C 3136.63 1.20538 1.52646 0
M  V30 32232 O 3135.88 0.273865 1.93774 0
M  V30 32233 C 3136.18 3.51009 0.672855 0
M  V30 32234 C 3135.85 4.48482 -0.466324 0
M  V30 32235 C 3134.51 4.74852 -0.779016 0
M  V30 32236 C 3136.86 5.06434 -1.23185 0
M  V30 32237 C 3134.19 5.56434 -1.86007 0
M  V30 32238 C 3136.54 5.89192 -2.30294 0
M  V30 32239 C 3135.2 6.13867 -2.62152 0
M  V30 32240 H 3134.47 0.7335 0.105158 0
M  V30 32241 H 3137.12 1.86387 -0.439571 0
M  V30 32242 H 3135.43 3.62766 1.48013 0
M  V30 32243 H 3137.12 3.84096 1.15202 0
M  V30 32244 H 3133.71 4.28073 -0.212524 0
M  V30 32245 H 3137.9 4.86048 -1.00353 0
M  V30 32246 H 3133.15 5.73784 -2.11144 0
M  V30 32247 H 3137.33 6.33118 -2.90059 0
M  V30 32248 H 3134.95 6.76871 -3.46049 0
M  V30 32249 N 3136.53 0.0451655 1.57535 0
M  V30 32250 C 3137.76 -0.639707 1.96762 0
M  V30 32251 C 3138.17 -1.64732 0.922434 0
M  V30 32252 O 3137.53 -1.82258 -0.0940214 0
M  V30 32253 C 3137.58 -1.33194 3.36068 0
M  V30 32254 O 3137.3 -0.36468 4.3658 0
M  V30 32255 C 3138.8 -2.10713 3.90019 0
M  V30 32256 H 3136.02 -0.175312 0.647693 0
M  V30 32257 H 3138.57 0.109687 2.04206 0
M  V30 32258 H 3136.72 -2.03261 3.29794 0
M  V30 32259 H 3137.13 -0.858077 5.17433 0
M  V30 32260 H 3138.61 -2.54578 4.8979 0
M  V30 32261 H 3139.09 -2.95283 3.25123 0
M  V30 32262 H 3139.69 -1.4557 3.99612 0
M  V30 32263 N 3138.01 -1.5594 -0.228159 0
M  V30 32264 C 3138.92 -1.95032 -1.30382 0
M  V30 32265 C 3139.93 -0.853245 -1.51643 0
M  V30 32266 O 3141.11 -1.15625 -1.64902 0
M  V30 32267 C 3138.17 -2.25337 -2.63485 0
M  V30 32268 C 3137.23 -3.48578 -2.50584 0
M  V30 32269 C 3136.47 -3.77427 -3.77339 0
M  V30 32270 O 3136.69 -3.08053 -4.80062 0
M  V30 32271 O 3135.62 -4.70928 -3.74847 0
M  V30 32272 H 3139.45 -2.86689 -1.00215 0
M  V30 32273 H 3137.04 -1.43064 -0.430478 0
M  V30 32274 H 3138.92 -2.46052 -3.42106 0
M  V30 32275 H 3137.59 -1.36855 -2.93347 0
M  V30 32276 H 3136.5 -3.33148 -1.70185 0
M  V30 32277 H 3137.83 -4.37421 -2.25663 0
M  V30 32278 N 3139.48 0.494597 -1.49638 0
M  V30 32279 C 3140.73 1.25016 -1.59684 0
M  V30 32280 C 3141.06 1.92089 -0.285544 0
M  V30 32281 O 3140.34 1.81024 0.711366 0
M  V30 32282 C 3140.62 2.31218 -2.76062 0
M  V30 32283 C 3140.47 1.68603 -4.17005 0
M  V30 32284 C 3141.79 3.32728 -2.88062 0
M  V30 32285 H 3138.91 0.453162 -0.581217 0
M  V30 32286 H 3141.55 0.547359 -1.81945 0
M  V30 32287 H 3139.7 2.9116 -2.57212 0
M  V30 32288 H 3141.38 1.12439 -4.47387 0
M  V30 32289 H 3139.62 0.989917 -4.22354 0
M  V30 32290 H 3140.29 2.45665 -4.9432 0
M  V30 32291 H 3142.77 2.82784 -3.05242 0
M  V30 32292 H 3141.64 4.04392 -3.71158 0
M  V30 32293 H 3141.9 3.95441 -1.97683 0
M  V30 32294 N 3140.96 1.3882 0.746109 0
M  V30 32295 C 3142.24 1.25953 1.4965 0
M  V30 32296 C 3142.62 -0.135796 2.10663 0
M  V30 32297 O 3141.97 -1.14601 1.97684 0
M  V30 32298 C 3142.18 2.37541 2.55686 0
M  V30 32299 C 3143.53 2.76326 3.2238 0
M  V30 32300 O 3144.55 2.36909 2.65994 0
M  V30 32301 O 3143.41 3.44327 4.24384 0
M  V30 32302 H 3140.5 0.49297 0.66401 0
M  V30 32303 H 3143.05 1.50666 0.780882 0
M  V30 32304 H 3141.82 3.30871 2.08903 0
M  V30 32305 H 3141.44 2.14433 3.3482 0
M  V30 32306 N 3142.44 -0.975103 1.23812 0
M  V30 32307 C 3143.69 -1.71371 1.07127 0
M  V30 32308 C 3144.01 -1.91023 -0.391831 0
M  V30 32309 O 3143.28 -1.48267 -1.28038 0
M  V30 32310 H 3141.86 -0.635 0.393426 0
M  V30 32311 H 3144.52 -1.17347 1.55614 0
M  V30 32312 H 3143.62 -2.70117 1.56343 0
M  V30 32313 N 3143.92 -1.05068 -1.17467 0
M  V30 32314 C 3145.16 -0.761146 -1.87975 0
M  V30 32315 C 3145.5 0.709963 -1.80757 0
M  V30 32316 O 3144.77 1.51904 -1.21472 0
M  V30 32317 C 3145.06 -1.24066 -3.38053 0
M  V30 32318 C 3144.91 -2.77461 -3.54027 0
M  V30 32319 C 3146.23 -0.838688 -4.32035 0
M  V30 32320 H 3143.35 -0.277975 -0.682568 0
M  V30 32321 H 3145.99 -1.30445 -1.38145 0
M  V30 32322 H 3144.14 -0.778455 -3.80621 0
M  V30 32323 H 3145.81 -3.31796 -3.20483 0
M  V30 32324 H 3144.05 -3.16798 -2.96347 0
M  V30 32325 H 3144.72 -3.06074 -4.59372 0
M  V30 32326 H 3147.2 -1.23658 -3.97301 0
M  V30 32327 H 3146.08 -1.20183 -5.35581 0
M  V30 32328 H 3146.34 0.257421 -4.4135 0
M  V30 32329 N 3145.4 1.33878 -0.831529 0
M  V30 32330 C 3146.81 1.50947 -0.518375 0
M  V30 32331 C 3147.01 1.7739 0.955776 0
M  V30 32332 O 3146.07 1.82986 1.7399 0
M  V30 32333 C 3147.38 2.66886 -1.38536 0
M  V30 32334 C 3148.93 2.8077 -1.38337 0
M  V30 32335 C 3149.4 3.99762 -2.23504 0
M  V30 32336 N 3150.9 4.06985 -2.21174 0
M  V30 32337 C 3151.63 4.98234 -2.83814 0
M  V30 32338 N 3151.13 5.94649 -3.55478 0
M  V30 32339 N 3152.92 4.91173 -2.73323 0
M  V30 32340 H 3145.07 1.14975 -1.7859 0
M  V30 32341 H 3147.33 0.564619 -0.761518 0
M  V30 32342 H 3147.04 2.54003 -2.4326 0
M  V30 32343 H 3146.91 3.62112 -1.05617 0
M  V30 32344 H 3149.3 2.93089 -0.343884 0
M  V30 32345 H 3149.38 1.86328 -1.75259 0
M  V30 32346 H 3149.03 3.88203 -3.27507 0
M  V30 32347 H 3148.96 4.93435 -1.83928 0
M  V30 32348 H 3151.45 3.37979 -1.69052 0
M  V30 32349 H 3151.76 6.60924 -4.00499 0
M  V30 32350 H 3150.1 5.94747 -3.59585 0
M  V30 32351 H 3153.3 4.14813 -2.16904 0
M  V30 32352 H 3153.47 5.6209 -3.22426 0
M  V30 32353 N 3146.87 0.587281 1.46249 0
M  V30 32354 C 3147.8 -0.131035 2.33132 0
M  V30 32355 C 3148.79 -0.879133 1.4562 0
M  V30 32356 O 3149.97 -0.853692 1.7443 0
M  V30 32357 C 3147.1 -1.1423 3.27977 0
M  V30 32358 C 3146.05 -0.508744 4.24966 0
M  V30 32359 C 3145.38 -1.62681 5.09352 0
M  V30 32360 C 3146.68 0.557031 5.19321 0
M  V30 32361 H 3148.37 0.594384 2.93441 0
M  V30 32362 H 3145.92 0.287287 1.41105 0
M  V30 32363 H 3147.87 -1.65322 3.87617 0
M  V30 32364 H 3146.6 -1.89805 2.65785 0
M  V30 32365 H 3145.26 -0.0188693 3.66595 0
M  V30 32366 H 3144.9 -2.37234 4.43542 0
M  V30 32367 H 3144.6 -1.20851 5.75038 0
M  V30 32368 H 3146.13 -2.14039 5.71856 0
M  V30 32369 H 3147.54 0.131004 5.7315 0
M  V30 32370 H 3145.94 0.895905 5.93375 0
M  V30 32371 H 3147.01 1.44156 4.62976 0
M  V30 32372 N 3148.35 -1.54206 0.325309 0
M  V30 32373 C 3149.3 -2.21131 -0.555441 0
M  V30 32374 C 3150.29 -1.19243 -1.08028 0
M  V30 32375 O 3151.48 -1.44865 -1.01701 0
M  V30 32376 C 3148.61 -2.97394 -1.71499 0
M  V30 32377 C 3147.69 -4.06622 -1.20496 0
M  V30 32378 N 3148.08 -5.04097 -0.414749 0
M  V30 32379 C 3146.38 -4.20604 -1.48353 0
M  V30 32380 C 3147.08 -5.81531 -0.140123 0
M  V30 32381 N 3146.06 -5.3872 -0.726735 0
M  V30 32382 H 3149.86 -2.93847 0.0555708 0
M  V30 32383 H 3147.38 -1.61869 0.131253 0
M  V30 32384 H 3149.37 -3.43825 -2.35775 0
M  V30 32385 H 3148.03 -2.262 -2.32946 0
M  V30 32386 H 3149.04 -5.17868 -0.0574381 0
M  V30 32387 H 3145.72 -3.60624 -2.10372 0
M  V30 32388 H 3147.11 -6.70066 0.496144 0
M  V30 32389 N 3149.83 -0.0535194 -1.57509 0
M  V30 32390 C 3151.25 0.30304 -1.56697 0
M  V30 32391 C 3151.45 1.7128 -1.06138 0
M  V30 32392 O 3150.5 2.42046 -0.719033 0
M  V30 32393 C 3151.82 0.129365 -3.00422 0
M  V30 32394 C 3153.36 0.200291 -3.12359 0
M  V30 32395 C 3153.84 0.0551166 -4.57967 0
M  V30 32396 N 3155.33 0.111317 -4.63066 0
M  V30 32397 C 3156.07 0.0231336 -5.73395 0
M  V30 32398 N 3155.56 -0.117532 -6.927 0
M  V30 32399 N 3157.35 0.0788852 -5.62045 0
M  V30 32400 H 3149.51 -0.975098 -1.88694 0
M  V30 32401 H 3151.77 -0.378721 -0.869065 0
M  V30 32402 H 3151.47 -0.842713 -3.41455 0
M  V30 32403 H 3151.35 0.889411 -3.66564 0
M  V30 32404 H 3153.74 1.16284 -2.71223 0
M  V30 32405 H 3153.82 -0.59055 -2.4889 0
M  V30 32406 H 3153.46 -0.904121 -4.99788 0
M  V30 32407 H 3153.39 0.865132 -5.19445 0
M  V30 32408 H 3155.88 0.219189 -3.77264 0
M  V30 32409 H 3156.19 -0.177462 -7.72596 0
M  V30 32410 H 3154.54 -0.152648 -6.94832 0
M  V30 32411 H 3157.73 0.187351 -4.67725 0
M  V30 32412 H 3157.9 0.00670341 -6.48 0
M  V30 32413 N 3151.31 1.56059 0.219886 0
M  V30 32414 C 3152.54 1.82968 0.959489 0
M  V30 32415 C 3152.95 0.630633 1.78381 0
M  V30 32416 O 3152.29 -0.410172 1.79062 0
M  V30 32417 C 3152.35 3.03634 1.92475 0
M  V30 32418 C 3152.02 4.38568 1.28479 0
M  V30 32419 C 3153.01 5.15515 0.673855 0
M  V30 32420 C 3150.7 4.85291 1.29606 0
M  V30 32421 C 3152.69 6.37346 0.0827204 0
M  V30 32422 C 3150.38 6.07065 0.701084 0
M  V30 32423 C 3151.38 6.82933 0.0954677 0
M  V30 32424 O 3151.07 8.02404 -0.49025 0
M  V30 32425 H 3150.8 0.612193 0.286698 0
M  V30 32426 H 3153.35 2.03996 0.239726 0
M  V30 32427 H 3151.58 2.78428 2.68355 0
M  V30 32428 H 3153.27 3.17401 2.53005 0
M  V30 32429 H 3154.04 4.80523 0.657464 0
M  V30 32430 H 3149.92 4.26211 1.75684 0
M  V30 32431 H 3153.46 6.96506 -0.390604 0
M  V30 32432 H 3149.36 6.41529 0.714894 0
M  V30 32433 H 3150.12 8.17595 -0.384732 0
M  V30 32434 N 3152.79 -0.486655 1.49898 0
M  V30 32435 C 3153.75 -1.56888 1.67089 0
M  V30 32436 C 3154.75 -1.51386 0.542117 0
M  V30 32437 O 3155.94 -1.54283 0.808858 0
M  V30 32438 C 3153.07 -2.96536 1.68165 0
M  V30 32439 H 3154.27 -1.42969 2.63628 0
M  V30 32440 H 3151.82 -0.71193 1.39145 0
M  V30 32441 H 3152.55 -3.15916 0.732618 0
M  V30 32442 H 3152.34 -3.01937 2.50153 0
M  V30 32443 H 3153.83 -3.75137 1.83472 0
M  V30 32444 N 3154.27 -1.39214 -0.738737 0
M  V30 32445 C 3155.68 -1.32351 -1.31682 0
M  V30 32446 C 3156.03 0.0138696 -1.96195 0
M  V30 32447 O 3155.15 0.915991 -1.96058 0
M  V30 32448 C 3155.75 -2.39695 -2.3944 0
M  V30 32449 C 3154.31 -2.36365 -2.92931 0
M  V30 32450 C 3153.45 -2.21779 -1.66461 0
M  V30 32451 H 3156.4 -1.49356 -0.536517 0
M  V30 32452 H 3156.43 -2.06268 -3.1974 0
M  V30 32453 H 3155.94 -3.37019 -1.92457 0
M  V30 32454 H 3154.04 -1.42668 -3.44204 0
M  V30 32455 H 3154.15 -3.31079 -3.463 0
M  V30 32456 H 3152.52 -1.68887 -1.90654 0
M  V30 32457 H 3153.3 -3.21067 -1.21535 0
M  V30 32458 N 3155.74 0.968523 -1.24328 0
M  V30 32459 C 3156.99 1.71392 -1.08409 0
M  V30 32460 C 3157.32 1.90519 0.376319 0
M  V30 32461 O 3156.6 1.46609 1.27813 0
M  V30 32462 C 3156.88 3.10517 -1.82349 0
M  V30 32463 C 3156.73 2.98887 -3.36135 0
M  V30 32464 C 3158.05 4.1016 -1.59552 0
M  V30 32465 H 3155.17 0.622072 -0.395216 0
M  V30 32466 H 3157.81 1.12675 -1.52985 0
M  V30 32467 H 3155.96 3.60644 -1.44459 0
M  V30 32468 H 3157.64 2.56193 -3.83618 0
M  V30 32469 H 3155.88 2.35117 -3.64558 0
M  V30 32470 H 3156.55 3.97443 -3.83071 0
M  V30 32471 H 3159.03 3.68889 -1.92511 0
M  V30 32472 H 3157.9 5.05573 -2.13745 0
M  V30 32473 H 3158.16 4.38868 -0.53358 0
M  V30 32474 N 3157.22 1.0569 1.16908 0
M  V30 32475 C 3158.46 0.779077 1.8897 0
M  V30 32476 C 3158.83 -0.681676 1.79491 0
M  V30 32477 O 3160.03 -1.07382 2.46419 0
M  V30 32478 C 3158.3 1.25248 3.34735 0
M  V30 32479 S 3159.86 1.10279 4.24716 0
M  V30 32480 H 3156.67 0.282787 0.652344 0
M  V30 32481 H 3159.28 1.35256 1.4116 0
M  V30 32482 H 3157.98 2.31066 3.3917 0
M  V30 32483 H 3157.51 0.673485 3.87592 0
M  V30 32484 H 3159.53 0.0299876 4.96191 0
M  V30 32485 N 3158.7 -1.33435 0.838617 0
M  V30 32486 C 3159.65 -2.29219 0.269649 0
M  V30 32487 C 3160.62 -1.54319 -0.614402 0
M  V30 32488 O 3161.8 -1.82619 -0.552724 0
M  V30 32489 C 3158.94 -3.40698 -0.549467 0
M  V30 32490 C 3158.05 -4.30509 0.358578 0
M  V30 32491 C 3157.19 -5.29102 -0.471616 0
M  V30 32492 C 3156.23 -6.10554 0.434835 0
M  V30 32493 N 3155.37 -7.01191 -0.357216 0
M  V30 32494 H 3160.21 -2.7728 1.09177 0
M  V30 32495 H 3157.74 -1.36437 0.549856 0
M  V30 32496 H 3159.7 -4.04033 -1.03985 0
M  V30 32497 H 3158.33 -2.9383 -1.33656 0
M  V30 32498 H 3157.38 -3.67897 0.967269 0
M  V30 32499 H 3158.69 -4.87517 1.05492 0
M  V30 32500 H 3157.85 -5.97965 -1.02583 0
M  V30 32501 H 3156.59 -4.72671 -1.20139 0
M  V30 32502 H 3155.59 -5.4061 1.00107 0
M  V30 32503 H 3156.82 -6.69068 1.16297 0
M  V30 32504 H 3154.76 -6.47209 -1.07038 0
M  V30 32505 H 3154.68 -7.5548 0.28041 0
M  V30 32506 H 3155.95 -7.7436 -0.893678 0
M  V30 32507 N 3160.18 -0.595029 -1.45935 0
M  V30 32508 C 3161.59 -0.171812 -1.85908 0
M  V30 32509 C 3161.94 1.26822 -1.49702 0
M  V30 32510 O 3161.06 1.95977 -0.917722 0
M  V30 32511 C 3161.66 -0.305035 -3.37424 0
M  V30 32512 C 3160.22 0.0633973 -3.76347 0
M  V30 32513 C 3159.37 -0.635303 -2.69924 0
M  V30 32514 H 3162.32 -0.802495 -1.36915 0
M  V30 32515 H 3162.34 0.466246 -3.77633 0
M  V30 32516 H 3161.85 -1.3532 -3.63744 0
M  V30 32517 H 3159.95 1.11123 -3.55644 0
M  V30 32518 H 3160.06 -0.321503 -4.7802 0
M  V30 32519 H 3158.43 -0.0742502 -2.54592 0
M  V30 32520 H 3159.21 -1.68536 -2.99083 0
M  V30 32521 N 3161.66 1.54031 -0.333483 0
M  V30 32522 C 3162.59 2.27625 0.52047 0
M  V30 32523 C 3163.57 1.28799 1.11107 0
M  V30 32524 O 3164.75 1.57627 1.13435 0
M  V30 32525 C 3161.88 3.04152 1.67658 0
M  V30 32526 C 3160.84 4.10398 1.2148 0
M  V30 32527 C 3160.16 4.74821 2.45863 0
M  V30 32528 C 3161.46 5.21303 0.322511 0
M  V30 32529 H 3163.16 2.99254 -0.0934349 0
M  V30 32530 H 3160.7 1.43925 -0.0463779 0
M  V30 32531 H 3162.65 3.5437 2.28035 0
M  V30 32532 H 3161.38 2.30157 2.31722 0
M  V30 32533 H 3160.04 3.61078 0.633903 0
M  V30 32534 H 3159.69 3.97432 3.08313 0
M  V30 32535 H 3159.39 5.46597 2.15652 0
M  V30 32536 H 3160.91 5.27819 3.06985 0
M  V30 32537 H 3162.32 5.67218 0.832842 0
M  V30 32538 H 3160.72 5.99994 0.112737 0
M  V30 32539 H 3161.79 4.80604 -0.644038 0
M  V30 32540 N 3163.13 0.0618717 1.57479 0
M  V30 32541 C 3164.06 -0.906562 2.15183 0
M  V30 32542 C 3165.04 -1.31722 1.07626 0
M  V30 32543 O 3166.23 -1.39003 1.35616 0
M  V30 32544 C 3163.36 -2.17767 2.70546 0
M  V30 32545 C 3162.31 -1.90673 3.83181 0
M  V30 32546 C 3161.64 -3.2433 4.25105 0
M  V30 32547 C 3162.94 -1.21985 5.07855 0
M  V30 32548 H 3164.63 -0.425888 2.96355 0
M  V30 32549 H 3162.18 -0.20341 1.42556 0
M  V30 32550 H 3164.13 -2.85924 3.09557 0
M  V30 32551 H 3162.86 -2.68059 1.8658 0
M  V30 32552 H 3161.52 -1.24925 3.44658 0
M  V30 32553 H 3161.16 -3.72443 3.38075 0
M  V30 32554 H 3160.86 -3.06996 5.01026 0
M  V30 32555 H 3162.39 -3.93701 4.66725 0
M  V30 32556 H 3163.8 -1.80195 5.44245 0
M  V30 32557 H 3162.2 -1.14943 5.88989 0
M  V30 32558 H 3163.27 -0.197451 4.84498 0
M  V30 32559 N 3164.61 -1.56173 -0.211607 0
M  V30 32560 C 3166.03 -1.49387 -0.561744 0
M  V30 32561 C 3166.23 -0.758845 -1.86665 0
M  V30 32562 O 3165.28 -0.302578 -2.50681 0
M  V30 32563 C 3166.6 -2.93988 -0.631764 0
M  V30 32564 C 3168.15 -3.04566 -0.721719 0
M  V30 32565 C 3168.62 -4.50545 -0.822996 0
M  V30 32566 N 3170.11 -4.54629 -0.886958 0
M  V30 32567 C 3170.85 -5.64873 -0.985205 0
M  V30 32568 N 3170.34 -6.84846 -1.04678 0
M  V30 32569 N 3172.14 -5.52747 -1.02111 0
M  V30 32570 H 3164.29 -2.02384 0.644556 0
M  V30 32571 H 3166.55 -0.920302 0.227483 0
M  V30 32572 H 3166.26 -3.50755 0.257653 0
M  V30 32573 H 3166.13 -3.46436 -1.49204 0
M  V30 32574 H 3168.52 -2.47858 -1.60157 0
M  V30 32575 H 3168.6 -2.55271 0.16443 0
M  V30 32576 H 3168.24 -5.07873 0.0524403 0
M  V30 32577 H 3168.17 -4.97555 -1.72471 0
M  V30 32578 H 3170.66 -3.68233 -0.849288 0
M  V30 32579 H 3170.98 -7.64615 -1.1218 0
M  V30 32580 H 3169.32 -6.87537 -1.01574 0
M  V30 32581 H 3172.51 -4.57945 -0.969733 0
M  V30 32582 H 3172.68 -6.38695 -1.09423 0
M  V30 32583 N 3166.09 0.478699 -1.50154 0
M  V30 32584 C 3167 1.60361 -1.71235 0
M  V30 32585 C 3168.02 1.635 -0.595298 0
M  V30 32586 O 3169.19 1.81509 -0.872715 0
M  V30 32587 C 3166.26 2.9662 -1.79492 0
M  V30 32588 C 3165.32 3.03931 -3.0319 0
M  V30 32589 C 3164.55 4.33691 -3.11044 0
M  V30 32590 O 3164.77 5.23765 -2.25889 0
M  V30 32591 O 3163.71 4.46436 -4.03706 0
M  V30 32592 H 3167.53 1.455 -2.66577 0
M  V30 32593 H 3165.12 0.657387 -1.3416 0
M  V30 32594 H 3167 3.77563 -1.87147 0
M  V30 32595 H 3165.68 3.11697 -0.873319 0
M  V30 32596 H 3164.58 2.22094 -3.0104 0
M  V30 32597 H 3165.92 2.93789 -3.94904 0
M  V30 32598 N 3167.57 1.39603 0.731343 0
M  V30 32599 C 3168.48 1.40898 1.87577 0
M  V30 32600 C 3169.49 0.303349 1.71335 0
M  V30 32601 O 3170.67 0.545411 1.93874 0
M  V30 32602 C 3167.74 1.25448 3.23209 0
M  V30 32603 C 3166.8 2.46014 3.51817 0
M  V30 32604 C 3166.03 2.31292 4.80978 0
M  V30 32605 O 3166.25 1.31834 5.54956 0
M  V30 32606 O 3165.19 3.2035 5.09568 0
M  V30 32607 H 3169.01 2.37373 1.8944 0
M  V30 32608 H 3166.6 1.20758 0.879654 0
M  V30 32609 H 3168.48 1.18979 4.04255 0
M  V30 32610 H 3167.15 0.320694 3.22108 0
M  V30 32611 H 3166.06 2.5806 2.70843 0
M  V30 32612 H 3167.39 3.38099 3.57701 0
M  V30 32613 N 3169.05 -0.961916 1.2484 0
M  V30 32614 C 3170.29 -1.70815 1.09316 0
M  V30 32615 C 3170.63 -1.90716 -0.36621 0
M  V30 32616 O 3169.9 -1.47284 -1.27034 0
M  V30 32617 C 3170.18 -3.09546 1.83993 0
M  V30 32618 C 3170.04 -2.971 3.37715 0
M  V30 32619 C 3171.36 -4.09308 1.61725 0
M  V30 32620 H 3168.47 -0.619967 0.398509 0
M  V30 32621 H 3171.12 -1.11862 1.53581 0
M  V30 32622 H 3169.27 -3.59873 1.46369 0
M  V30 32623 H 3170.94 -2.54155 3.84972 0
M  V30 32624 H 3169.18 -2.33181 3.65799 0
M  V30 32625 H 3169.85 -3.95406 3.85173 0
M  V30 32626 H 3172.33 -3.67863 1.94464 0
M  V30 32627 H 3171.2 -5.04432 2.16423 0
M  V30 32628 H 3171.47 -4.38579 0.556847 0
M  V30 32629 N 3170.52 -1.06308 -1.16346 0
M  V30 32630 C 3171.77 -0.78104 -1.87157 0
M  V30 32631 C 3172.1 0.690752 -1.815 0
M  V30 32632 O 3171.38 1.50607 -1.23076 0
M  V30 32633 C 3171.66 -1.27644 -3.36718 0
M  V30 32634 C 3171.51 -2.81201 -3.51065 0
M  V30 32635 C 3172.83 -0.884463 -4.31121 0
M  V30 32636 H 3169.95 -0.285199 -0.679581 0
M  V30 32637 H 3172.59 -1.31903 -1.36753 0
M  V30 32638 H 3170.74 -0.818781 -3.79774 0
M  V30 32639 H 3172.42 -3.35176 -3.16946 0
M  V30 32640 H 3170.66 -3.19923 -2.9297 0
M  V30 32641 H 3171.33 -3.10929 -4.561 0
M  V30 32642 H 3173.81 -1.27864 -3.95967 0
M  V30 32643 H 3172.68 -1.25857 -5.34276 0
M  V30 32644 H 3172.94 0.210595 -4.41598 0
M  V30 32645 N 3172 1.32989 -0.845682 0
M  V30 32646 C 3173.25 1.97557 -0.444687 0
M  V30 32647 C 3173.58 1.66964 0.997653 0
M  V30 32648 O 3172.83 0.94544 1.71347 0
M  V30 32649 C 3173.13 3.51978 -0.620162 0
M  V30 32650 C 3172.8 4.02537 -2.03162 0
M  V30 32651 C 3171.46 4.16055 -2.41768 0
M  V30 32652 C 3173.81 4.29456 -2.95325 0
M  V30 32653 C 3171.14 4.5383 -3.71826 0
M  V30 32654 C 3173.49 4.68686 -4.24871 0
M  V30 32655 C 3172.16 4.8041 -4.63424 0
M  V30 32656 H 3171.43 0.722912 -0.162723 0
M  V30 32657 H 3174.07 1.58547 -1.07401 0
M  V30 32658 H 3172.38 3.91691 0.0924442 0
M  V30 32659 H 3174.07 3.99949 -0.290083 0
M  V30 32660 H 3170.66 3.92494 -1.72181 0
M  V30 32661 H 3174.85 4.1853 -2.66733 0
M  V30 32662 H 3170.1 4.61101 -4.01492 0
M  V30 32663 H 3174.28 4.88472 -4.96355 0
M  V30 32664 H 3171.91 5.09438 -5.64249 0
M  V30 32665 N 3173.48 0.60276 1.45618 0
M  V30 32666 C 3174.41 -0.156972 2.28662 0
M  V30 32667 C 3175.43 -0.836372 1.39673 0
M  V30 32668 O 3176.61 -0.70257 1.64092 0
M  V30 32669 C 3173.71 -1.243 3.15282 0
M  V30 32670 C 3172.89 -0.651655 4.32518 0
M  V30 32671 C 3171.95 -1.62796 5.00384 0
M  V30 32672 O 3170.97 -1.15614 5.57335 0
M  V30 32673 N 3172.17 -2.96233 4.99226 0
M  V30 32674 H 3174.94 0.555586 2.94505 0
M  V30 32675 H 3172.5 0.441908 1.55752 0
M  V30 32676 H 3174.49 -1.89584 3.57547 0
M  V30 32677 H 3173.06 -1.85815 2.51379 0
M  V30 32678 H 3172.28 0.179139 3.93793 0
M  V30 32679 H 3173.57 -0.236713 5.08249 0
M  V30 32680 H 3172.97 -3.37171 4.54238 0
M  V30 32681 H 3171.53 -3.56951 5.4537 0
M  V30 32682 N 3174.96 -1.53852 0.341647 0
M  V30 32683 C 3176.2 -2.0118 -0.255827 0
M  V30 32684 C 3176.54 -1.22912 -1.50354 0
M  V30 32685 O 3175.81 -0.316232 -1.91912 0
M  V30 32686 C 3176.1 -3.5553 -0.571871 0
M  V30 32687 C 3175.95 -4.4451 0.687805 0
M  V30 32688 C 3177.27 -4.1783 -1.38225 0
M  V30 32689 H 3174.39 -0.731297 -0.0915081 0
M  V30 32690 H 3177.03 -1.84302 0.461808 0
M  V30 32691 H 3175.18 -3.70043 -1.18324 0
M  V30 32692 H 3176.85 -4.41837 1.3258 0
M  V30 32693 H 3175.09 -4.1345 1.31308 0
M  V30 32694 H 3175.76 -5.50385 0.421955 0
M  V30 32695 H 3178.24 -4.07003 -0.865303 0
M  V30 32696 H 3177.12 -5.25904 -1.57214 0
M  V30 32697 H 3177.38 -3.72327 -2.38379 0
M  V30 32698 N 3176.44 -0.0702223 -1.57443 0
M  V30 32699 C 3177.68 0.598073 -1.93048 0
M  V30 32700 C 3178.01 1.70245 -0.950871 0
M  V30 32701 O 3177.28 1.959 0.00123733 0
M  V30 32702 H 3175.86 0.223911 -0.712652 0
M  V30 32703 H 3178.52 -0.127708 -1.94481 0
M  V30 32704 H 3177.61 1.0244 -2.94809 0
M  V30 32705 N 3177.91 1.56283 0.203321 0
M  V30 32706 C 3178.84 1.96914 1.25487 0
M  V30 32707 C 3179.83 0.83991 1.47917 0
M  V30 32708 O 3181.01 1.10362 1.59793 0
M  V30 32709 C 3178.14 2.30157 2.60086 0
M  V30 32710 C 3177.09 3.45742 2.52282 0
M  V30 32711 C 3176.42 3.64638 3.91079 0
M  V30 32712 C 3177.72 4.80176 2.05494 0
M  V30 32713 H 3179.41 2.85003 0.917256 0
M  V30 32714 H 3176.96 1.3712 0.439794 0
M  V30 32715 H 3178.91 2.57176 3.33824 0
M  V30 32716 H 3177.64 1.38942 2.95572 0
M  V30 32717 H 3176.3 3.18801 1.81001 0
M  V30 32718 H 3175.94 2.70767 4.23903 0
M  V30 32719 H 3175.64 4.42391 3.86735 0
M  V30 32720 H 3177.17 3.94024 4.66452 0
M  V30 32721 H 3178.58 5.0628 2.68986 0
M  V30 32722 H 3176.98 5.61341 2.1217 0
M  V30 32723 H 3178.05 4.74311 1.00784 0
M  V30 32724 N 3179.39 -0.470729 1.50406 0
M  V30 32725 C 3180.34 -1.58943 1.69823 0
M  V30 32726 C 3181.34 -1.59732 0.564098 0
M  V30 32727 O 3182.54 -1.63877 0.744605 0
M  V30 32728 H 3178.92 -0.527429 0.536025 0
M  V30 32729 H 3180.89 -1.39727 2.63664 0
M  V30 32730 C 3179.64 -2.9688 1.80991 0
M  V30 32731 H 3178.96 -2.96991 2.6765 0
M  V30 32732 H 3180.4 -3.74611 1.98602 0
M  V30 32733 C 3178.86 -3.32186 0.561609 0
M  V30 32734 O 3179.39 -4.00585 -0.299066 0
M  V30 32735 N 3177.59 -2.87614 0.415527 0
M  V30 32736 H 3177.14 -2.32125 1.11695 0
M  V30 32737 H 3177.1 -3.11602 -0.418537 0
M  V30 32738 N 3180.87 -1.39989 -0.72393 0
M  V30 32739 C 3181.8 -1.35501 -1.84857 0
M  V30 32740 C 3182.82 -0.261841 -1.60681 0
M  V30 32741 O 3184.01 -0.521596 -1.70709 0
M  V30 32742 C 3181.11 -1.08386 -3.21101 0
M  V30 32743 C 3180.28 -2.29196 -3.72542 0
M  V30 32744 C 3179.34 -1.98369 -4.87377 0
M  V30 32745 O 3178.36 -2.71158 -5.00462 0
M  V30 32746 N 3179.57 -0.956562 -5.72565 0
M  V30 32747 H 3182.33 -2.32423 -1.89208 0
M  V30 32748 H 3179.89 -1.34235 -0.905128 0
M  V30 32749 H 3181.88 -0.857633 -3.95508 0
M  V30 32750 H 3180.45 -0.201604 -3.11949 0
M  V30 32751 H 3179.67 -2.67702 -2.8936 0
M  V30 32752 H 3180.96 -3.09754 -4.03646 0
M  V30 32753 H 3180.36 -0.353543 -5.64594 0
M  V30 32754 H 3178.92 -0.790232 -6.46992 0
M  V30 32755 N 3182.35 0.955282 -1.25348 0
M  V30 32756 C 3183.58 1.73198 -1.12632 0
M  V30 32757 C 3183.99 1.86427 0.322715 0
M  V30 32758 O 3183.33 1.36101 1.23378 0
M  V30 32759 C 3183.39 3.16418 -1.70645 0
M  V30 32760 C 3183.06 3.2662 -3.19638 0
M  V30 32761 C 3184.05 3.10983 -4.16636 0
M  V30 32762 C 3181.74 3.50462 -3.59835 0
M  V30 32763 C 3183.73 3.19033 -5.51812 0
M  V30 32764 C 3181.42 3.58149 -4.95149 0
M  V30 32765 C 3182.42 3.42448 -5.90947 0
M  V30 32766 O 3182.11 3.49815 -7.23799 0
M  V30 32767 H 3181.84 0.549555 -0.393656 0
M  V30 32768 H 3184.39 1.20712 -1.66186 0
M  V30 32769 H 3182.62 3.70265 -1.11538 0
M  V30 32770 H 3184.31 3.75944 -1.53039 0
M  V30 32771 H 3185.08 2.92434 -3.8692 0
M  V30 32772 H 3180.96 3.61744 -2.85766 0
M  V30 32773 H 3184.5 3.06696 -6.26565 0
M  V30 32774 H 3180.4 3.76214 -5.24531 0
M  V30 32775 H 3181.16 3.66451 -7.31885 0
M  V30 32776 N 3183.83 1.06924 1.1578 0
M  V30 32777 C 3184.76 0.707084 2.22537 0
M  V30 32778 C 3185.74 -0.303441 1.67372 0
M  V30 32779 O 3186.92 -0.177155 1.9339 0
M  V30 32780 C 3184.05 0.0994879 3.47157 0
M  V30 32781 C 3183.01 1.03669 4.15255 0
M  V30 32782 C 3182.33 0.292068 5.33902 0
M  V30 32783 C 3183.63 2.36845 4.65512 0
M  V30 32784 H 3185.33 1.59962 2.53086 0
M  V30 32785 H 3182.87 0.770573 1.21648 0
M  V30 32786 H 3184.83 -0.165778 4.21074 0
M  V30 32787 H 3183.55 -0.828099 3.15927 0
M  V30 32788 H 3182.21 1.2868 3.43274 0
M  V30 32789 H 3181.86 -0.63884 4.98927 0
M  V30 32790 H 3181.56 0.916716 5.80405 0
M  V30 32791 H 3183.08 0.0344988 6.1059 0
M  V30 32792 H 3184.5 2.16184 5.30978 0
M  V30 32793 H 3182.89 2.94865 5.22661 0
M  V30 32794 H 3183.96 2.9946 3.81381 0
M  V30 32795 N 3185.31 -1.32538 0.852723 0
M  V30 32796 C 3186.55 -1.97611 0.455832 0
M  V30 32797 C 3186.88 -1.67332 -0.985586 0
M  V30 32798 O 3186.16 -0.960523 -1.69128 0
M  V30 32799 C 3186.44 -3.53365 0.693183 0
M  V30 32800 C 3186.3 -3.93282 2.18288 0
M  V30 32801 C 3187.61 -4.3985 0.148314 0
M  V30 32802 H 3184.73 -0.717809 0.167091 0
M  V30 32803 H 3187.38 -1.56952 1.07079 0
M  V30 32804 H 3185.53 -3.88129 0.169745 0
M  V30 32805 H 3187.2 -3.68706 2.77225 0
M  V30 32806 H 3185.44 -3.42511 2.66212 0
M  V30 32807 H 3186.11 -5.01817 2.29965 0
M  V30 32808 H 3188.59 -4.11811 0.595906 0
M  V30 32809 H 3187.46 -5.47821 0.34397 0
M  V30 32810 H 3187.72 -4.31799 -0.948796 0
M  V30 32811 N 3186.78 -0.610474 -1.45296 0
M  V30 32812 C 3188.03 -0.106584 -2.01819 0
M  V30 32813 C 3188.35 1.26847 -1.48104 0
M  V30 32814 O 3187.62 1.83851 -0.676444 0
M  V30 32815 H 3186.2 -0.0364113 -0.746112 0
M  V30 32816 H 3188.86 -0.792523 -1.78059 0
M  V30 32817 H 3187.96 -0.0585549 -3.12045 0
M  V30 32818 N 3188.26 1.53669 -0.349801 0
M  V30 32819 C 3189.49 2.05904 0.248656 0
M  V30 32820 C 3189.91 1.22269 1.4294 0
M  V30 32821 O 3189.27 0.23793 1.79732 0
M  V30 32822 C 3189.32 3.54955 0.635577 0
M  V30 32823 O 3188.42 3.74135 1.73483 0
M  V30 32824 H 3187.76 0.662798 0.0399361 0
M  V30 32825 H 3190.29 1.98249 -0.50583 0
M  V30 32826 H 3190.3 3.977 0.910994 0
M  V30 32827 H 3188.98 4.15275 -0.227878 0
M  V30 32828 H 3187.55 3.43292 1.4562 0
M  V30 32829 N 3189.74 0.0785709 1.57404 0
M  V30 32830 C 3190.67 -0.915976 2.10101 0
M  V30 32831 C 3191.68 -1.25696 1.03461 0
M  V30 32832 O 3192.87 -1.21296 1.30956 0
M  V30 32833 C 3189.97 -2.22987 2.55206 0
M  V30 32834 C 3189.15 -2.06671 3.85494 0
M  V30 32835 C 3188.21 -3.21425 4.1662 0
M  V30 32836 O 3187.23 -2.96117 4.8611 0
M  V30 32837 N 3188.43 -4.4672 3.70705 0
M  V30 32838 H 3191.2 -0.466007 2.96055 0
M  V30 32839 H 3188.76 -0.106978 1.61546 0
M  V30 32840 H 3190.75 -2.98675 2.73085 0
M  V30 32841 H 3189.32 -2.59461 1.74352 0
M  V30 32842 H 3188.54 -1.15411 3.76927 0
M  V30 32843 H 3189.83 -1.93028 4.70763 0
M  V30 32844 H 3189.23 -4.70166 3.14579 0
M  V30 32845 H 3187.78 -5.19411 3.93771 0
M  V30 32846 N 3191.22 -1.56389 -0.19503 0
M  V30 32847 C 3192.15 -1.97577 -1.24441 0
M  V30 32848 C 3193.13 -0.847743 -1.4747 0
M  V30 32849 O 3194.31 -1.11208 -1.59206 0
M  V30 32850 C 3191.44 -2.31533 -2.58862 0
M  V30 32851 C 3190.4 -3.47075 -2.50445 0
M  V30 32852 C 3189.72 -3.66707 -3.8914 0
M  V30 32853 C 3191.02 -4.81259 -2.02945 0
M  V30 32854 H 3192.72 -2.85486 -0.902128 0
M  V30 32855 H 3190.26 -1.37351 -0.432516 0
M  V30 32856 H 3192.22 -2.58942 -3.32456 0
M  V30 32857 H 3190.94 -1.40507 -2.94831 0
M  V30 32858 H 3189.6 -3.19757 -1.79307 0
M  V30 32859 H 3189.25 -2.73012 -4.22461 0
M  V30 32860 H 3188.95 -4.44436 -3.84383 0
M  V30 32861 H 3190.47 -3.96492 -4.64356 0
M  V30 32862 H 3191.89 -5.07699 -2.66297 0
M  V30 32863 H 3190.28 -5.62458 -2.0919 0
M  V30 32864 H 3191.35 -4.74838 -0.982674 0
M  V30 32865 N 3192.7 0.462746 -1.50653 0
M  V30 32866 C 3194.11 1.04339 -1.54823 0
M  V30 32867 C 3194.46 1.92932 -0.356629 0
M  V30 32868 O 3193.58 2.09821 0.529542 0
M  V30 32869 C 3194.18 1.89904 -2.80574 0
M  V30 32870 C 3192.74 2.43062 -2.87398 0
M  V30 32871 C 3191.88 1.21617 -2.49208 0
M  V30 32872 H 3194.83 0.24502 -1.56797 0
M  V30 32873 H 3194.86 2.75069 -2.62902 0
M  V30 32874 H 3194.37 1.25398 -3.67283 0
M  V30 32875 H 3192.47 3.11096 -2.05061 0
M  V30 32876 H 3192.58 2.77598 -3.90482 0
M  V30 32877 H 3190.95 1.55357 -2.01832 0
M  V30 32878 H 3191.73 0.58761 -3.38234 0
M  V30 32879 N 3194.17 1.40371 0.716495 0
M  V30 32880 C 3195.41 1.40049 1.48881 0
M  V30 32881 C 3195.78 0.00161402 1.92 0
M  V30 32882 O 3196.98 -0.126717 2.68501 0
M  V30 32883 C 3195.25 2.36158 2.68261 0
M  V30 32884 S 3196.81 2.54186 3.5768 0
M  V30 32885 H 3193.63 0.4964 0.509026 0
M  V30 32886 H 3196.23 1.76632 0.837936 0
M  V30 32887 H 3194.93 3.36629 2.34753 0
M  V30 32888 H 3194.46 2.00856 3.38261 0
M  V30 32889 H 3196.48 1.7936 4.62649 0
M  V30 32890 N 3195.65 -0.948621 1.25853 0
M  V30 32891 C 3196.56 -2.07992 1.0852 0
M  V30 32892 C 3197.58 -1.73988 0.0207002 0
M  V30 32893 O 3198.75 -2.00163 0.222889 0
M  V30 32894 C 3195.82 -3.39306 0.712205 0
M  V30 32895 C 3194.88 -3.8714 1.8553 0
M  V30 32896 C 3194.11 -5.12187 1.50001 0
M  V30 32897 O 3194.34 -5.69007 0.398368 0
M  V30 32898 O 3193.27 -5.54878 2.33224 0
M  V30 32899 H 3197.1 -2.25519 2.03409 0
M  V30 32900 H 3194.68 -1.06431 1.04846 0
M  V30 32901 H 3196.56 -4.18222 0.516585 0
M  V30 32902 H 3195.24 -3.23035 -0.207359 0
M  V30 32903 H 3194.15 -3.09202 2.10583 0
M  V30 32904 H 3195.48 -4.07919 2.75433 0
M  V30 32905 N 3197.13 -1.07536 -1.15212 0
M  V30 32906 C 3198.54 -0.822074 -1.67627 0
M  V30 32907 C 3198.89 0.652538 -1.85031 0
M  V30 32908 O 3198.02 1.50495 -1.55499 0
M  V30 32909 C 3198.61 -1.48571 -3.04487 0
M  V30 32910 C 3197.17 -1.27989 -3.53971 0
M  V30 32911 C 3196.32 -1.55418 -2.29653 0
M  V30 32912 H 3199.27 -1.23715 -0.993994 0
M  V30 32913 H 3199.29 -0.907981 -3.69508 0
M  V30 32914 H 3198.8 -2.55894 -2.91788 0
M  V30 32915 H 3196.9 -0.226971 -3.71908 0
M  V30 32916 H 3197.02 -2.00138 -4.35295 0
M  V30 32917 H 3195.38 -0.975293 -2.35287 0
M  V30 32918 H 3196.16 -2.63927 -2.19539 0
M  V30 32919 N 3198.61 1.32084 -0.85974 0
M  V30 32920 C 3199.52 2.32528 -0.311121 0
M  V30 32921 C 3200.53 1.64271 0.573686 0
M  V30 32922 O 3201.71 1.95771 0.472843 0
M  V30 32923 C 3198.78 3.4326 0.487196 0
M  V30 32924 C 3197.84 4.27198 -0.424354 0
M  V30 32925 C 3197.07 5.32642 0.335957 0
M  V30 32926 O 3197.29 5.48502 1.56531 0
M  V30 32927 O 3196.23 6.01147 -0.300882 0
M  V30 32928 H 3200.05 2.81353 -1.14341 0
M  V30 32929 H 3197.64 1.35799 -0.622818 0
M  V30 32930 H 3199.52 4.10779 0.940131 0
M  V30 32931 H 3198.19 2.96615 1.2962 0
M  V30 32932 H 3197.1 3.62469 -0.925573 0
M  V30 32933 H 3198.43 4.77381 -1.19868 0
M  V30 32934 N 3200.09 0.618171 1.4497 0
M  V30 32935 C 3201.5 0.201367 1.85611 0
M  V30 32936 C 3201.85 -1.24424 1.51701 0
M  V30 32937 O 3200.97 -1.94492 0.948784 0
M  V30 32938 C 3201.57 0.358678 3.36896 0
M  V30 32939 C 3200.13 -0.0035158 3.764 0
M  V30 32940 C 3199.27 0.678165 2.6888 0
M  V30 32941 H 3202.23 0.824176 1.35621 0
M  V30 32942 H 3202.25 -0.406109 3.78327 0
M  V30 32943 H 3201.76 1.4109 3.61546 0
M  V30 32944 H 3199.86 -1.05451 3.57367 0
M  V30 32945 H 3199.97 0.397511 4.77448 0
M  V30 32946 H 3198.34 0.114744 2.54441 0
M  V30 32947 H 3199.12 1.73273 2.96364 0
M  V30 32948 N 3201.56 -1.53481 0.357946 0
M  V30 32949 C 3202.84 -1.93436 -0.29013 0
M  V30 32950 C 3203.22 -1.29082 -1.67036 0
M  V30 32951 O 3202.57 -0.447057 -2.24084 0
M  V30 32952 C 3202.78 -3.47261 -0.347994 0
M  V30 32953 C 3204.13 -4.20453 -0.591986 0
M  V30 32954 O 3205.15 -3.53601 -0.429519 0
M  V30 32955 O 3204.01 -5.38908 -0.90776 0
M  V30 32956 H 3201.1 -0.808853 -0.172297 0
M  V30 32957 H 3203.65 -1.64668 0.410173 0
M  V30 32958 H 3202.42 -3.86357 0.620021 0
M  V30 32959 H 3202.05 -3.82239 -1.0945 0
M  V30 32960 N 3203.04 -0.0869173 -1.5736 0
M  V30 32961 C 3204.29 0.579564 -1.94342 0
M  V30 32962 C 3204.62 1.6834 -0.968268 0
M  V30 32963 O 3203.9 1.945 4.87768e-05 0
M  V30 32964 C 3204.18 1.14239 -3.41499 0
M  V30 32965 C 3204.03 0.044176 -4.49778 0
M  V30 32966 C 3205.35 2.0433 -3.89792 0
M  V30 32967 H 3202.47 0.209208 -0.706683 0
M  V30 32968 H 3205.11 -0.155964 -1.89359 0
M  V30 32969 H 3203.26 1.76923 -3.45876 0
M  V30 32970 H 3204.93 -0.58967 -4.57516 0
M  V30 32971 H 3203.18 -0.623282 -4.29299 0
M  V30 32972 H 3203.85 0.478652 -5.49921 0
M  V30 32973 H 3206.32 1.51562 -3.87515 0
M  V30 32974 H 3205.2 2.4064 -4.93339 0
M  V30 32975 H 3205.46 2.95751 -3.28608 0
M  V30 32976 N 3204.52 1.5649 0.186734 0
M  V30 32977 C 3205.48 1.94341 1.21508 0
M  V30 32978 C 3206.48 0.825394 1.38 0
M  V30 32979 O 3207.67 1.09269 1.35669 0
M  V30 32980 C 3204.81 2.22477 2.58296 0
M  V30 32981 H 3206 2.86349 0.891321 0
M  V30 32982 H 3203.55 1.50309 0.428586 0
M  V30 32983 H 3204.29 1.33134 2.95713 0
M  V30 32984 H 3204.07 3.03956 2.47696 0
M  V30 32985 H 3205.56 2.52736 3.32437 0
M  V30 32986 N 3206 -0.45475 1.50897 0
M  V30 32987 C 3207.24 -1.20738 1.62942 0
M  V30 32988 C 3207.58 -1.91265 0.336373 0
M  V30 32989 O 3206.85 -1.82847 -0.663121 0
M  V30 32990 C 3207.14 -2.23817 2.82096 0
M  V30 32991 C 3206.99 -1.57488 4.21328 0
M  V30 32992 C 3208.31 -3.24974 2.96783 0
M  V30 32993 H 3205.43 -0.437592 0.593028 0
M  V30 32994 H 3208.07 -0.498927 1.83332 0
M  V30 32995 H 3206.22 -2.84238 2.64842 0
M  V30 32996 H 3207.89 -1.00538 4.50211 0
M  V30 32997 H 3206.13 -0.877589 4.2483 0
M  V30 32998 H 3206.8 -2.32473 5.0066 0
M  V30 32999 H 3209.28 -2.74592 3.12632 0
M  V30 33000 H 3208.16 -3.9441 3.81749 0
M  V30 33001 H 3208.42 -3.90061 2.08098 0
M  V30 33002 N 3207.48 -1.40749 -0.709041 0
M  V30 33003 C 3208.41 -1.44293 -1.8358 0
M  V30 33004 C 3209.39 -0.303096 -1.67378 0
M  V30 33005 O 3210.57 -0.512645 -1.87311 0
M  V30 33006 C 3207.7 -1.31121 -3.21597 0
M  V30 33007 C 3206.66 -2.42776 -3.52482 0
M  V30 33008 C 3205.98 -2.14677 -4.89712 0
M  V30 33009 C 3207.28 -3.8512 -3.52817 0
M  V30 33010 H 3208.98 -2.38591 -1.80871 0
M  V30 33011 H 3206.52 -1.1484 -0.868775 0
M  V30 33012 H 3208.48 -1.32216 -4.00121 0
M  V30 33013 H 3207.2 -0.333022 -3.24898 0
M  V30 33014 H 3205.86 -2.40942 -2.76301 0
M  V30 33015 H 3205.51 -1.15233 -4.89623 0
M  V30 33016 H 3205.21 -2.89487 -5.11342 0
M  V30 33017 H 3206.73 -2.17465 -5.70562 0
M  V30 33018 H 3208.14 -3.88742 -4.2137 0
M  V30 33019 H 3206.54 -4.59502 -3.85976 0
M  V30 33020 H 3207.61 -4.14235 -2.52066 0
M  V30 33021 N 3208.96 0.941933 -1.26354 0
M  V30 33022 C 3210.18 1.72243 -1.14629 0
M  V30 33023 C 3210.6 1.86424 0.298555 0
M  V30 33024 O 3209.96 1.37108 1.20447 0
M  V30 33025 C 3210.01 3.12959 -1.80938 0
M  V30 33026 O 3209.73 2.99457 -3.19777 0
M  V30 33027 C 3211.23 4.07228 -1.75157 0
M  V30 33028 H 3208.45 0.539326 -0.39921 0
M  V30 33029 H 3210.99 1.18088 -1.6696 0
M  V30 33030 H 3209.15 3.64019 -1.32548 0
M  V30 33031 H 3209.56 3.88315 -3.52578 0
M  V30 33032 H 3211.04 5.03529 -2.26192 0
M  V30 33033 H 3211.51 4.33292 -0.717931 0
M  V30 33034 H 3212.12 3.62089 -2.23096 0
M  V30 33035 N 3210.43 1.08146 1.1464 0
M  V30 33036 C 3211.66 0.831006 1.90024 0
M  V30 33037 C 3212.08 -0.610848 1.77905 0
M  V30 33038 O 3211.44 -1.42774 1.11738 0
M  V30 33039 C 3211.49 1.25428 3.38083 0
M  V30 33040 O 3210.59 0.404558 4.10411 0
M  V30 33041 H 3209.93 0.302052 0.591321 0
M  V30 33042 H 3212.46 1.44219 1.45128 0
M  V30 33043 H 3212.47 1.23397 3.88892 0
M  V30 33044 H 3211.15 2.30442 3.46222 0
M  V30 33045 H 3209.73 0.488051 3.69692 0
M  V30 33046 N 3211.91 -1.31626 0.866732 0
M  V30 33047 C 3212.84 -2.26658 0.264828 0
M  V30 33048 C 3213.82 -1.50959 -0.604154 0
M  V30 33049 O 3215.01 -1.80043 -0.558293 0
M  V30 33050 C 3212.13 -3.32878 -0.625314 0
M  V30 33051 C 3211.18 -4.26153 0.171888 0
M  V30 33052 S 3212.01 -5.12629 1.54827 0
M  V30 33053 C 3213.17 -6.22366 0.66416 0
M  V30 33054 H 3213.4 -2.77362 1.0704 0
M  V30 33055 H 3210.93 -1.39342 0.665063 0
M  V30 33056 H 3212.89 -3.94549 -1.13321 0
M  V30 33057 H 3211.55 -2.80934 -1.40481 0
M  V30 33058 H 3210.75 -5.01447 -0.506606 0
M  V30 33059 H 3210.35 -3.68963 0.611769 0
M  V30 33060 H 3212.64 -6.77382 -0.126598 0
M  V30 33061 H 3213.58 -6.94361 1.38812 0
M  V30 33062 H 3213.99 -5.64018 0.233145 0
M  V30 33063 N 3213.39 -0.62585 -1.4464 0
M  V30 33064 C 3214.32 0.0691778 -2.33398 0
M  V30 33065 C 3215.3 0.840215 -1.479 0
M  V30 33066 O 3216.49 0.807145 -1.76632 0
M  V30 33067 C 3213.62 1.05494 -3.3089 0
M  V30 33068 C 3212.57 0.395893 -4.26165 0
M  V30 33069 C 3211.9 1.49119 -5.13486 0
M  V30 33070 C 3213.2 -0.694524 -5.17662 0
M  V30 33071 H 3214.89 -0.671976 -2.91762 0
M  V30 33072 H 3212.44 -0.324598 -1.40294 0
M  V30 33073 H 3214.39 1.54986 -3.91864 0
M  V30 33074 H 3213.11 1.82692 -2.70724 0
M  V30 33075 H 3211.77 -0.0783336 -3.66516 0
M  V30 33076 H 3211.42 2.25391 -4.49675 0
M  V30 33077 H 3211.12 1.05562 -5.7804 0
M  V30 33078 H 3212.64 1.98802 -5.7733 0
M  V30 33079 H 3214.06 -0.282919 -5.72601 0
M  V30 33080 H 3212.45 -1.05291 -5.90791 0
M  V30 33081 H 3213.52 -1.5638 -4.58992 0
M  V30 33082 N 3214.87 1.53289 -0.36608 0
M  V30 33083 C 3216.1 2.05682 0.224199 0
M  V30 33084 C 3216.51 1.23955 1.4241 0
M  V30 33085 O 3215.87 0.280341 1.80334 0
M  V30 33086 C 3215.92 3.56192 0.617203 0
M  V30 33087 O 3215.64 4.34821 -0.535007 0
M  V30 33088 C 3217.14 4.24843 1.26582 0
M  V30 33089 H 3214.36 0.669849 0.039281 0
M  V30 33090 H 3216.9 1.97657 -0.524594 0
M  V30 33091 H 3215.06 3.64366 1.31591 0
M  V30 33092 H 3215.47 5.2405 -0.217215 0
M  V30 33093 H 3216.95 5.31472 1.49136 0
M  V30 33094 H 3217.42 3.78595 2.22627 0
M  V30 33095 H 3218.03 4.20924 0.608526 0
M  V30 33096 N 3216.35 0.0952613 1.57312 0
M  V30 33097 C 3217.62 -0.610682 1.85823 0
M  V30 33098 C 3218 -1.86332 0.992147 0
M  V30 33099 O 3217.35 -2.28409 0.0646071 0
M  V30 33100 C 3217.56 -0.925907 3.36494 0
M  V30 33101 C 3218.91 -1.28929 4.04552 0
M  V30 33102 O 3219.93 -1.01692 3.41376 0
M  V30 33103 O 3218.79 -1.7994 5.16027 0
M  V30 33104 H 3215.89 -0.305613 0.768459 0
M  V30 33105 H 3218.43 0.127971 1.69217 0
M  V30 33106 H 3217.2 -0.0372439 3.91282 0
M  V30 33107 H 3216.83 -1.72053 3.58446 0
M  V30 33108 N 3217.82 -1.56587 -0.178432 0
M  V30 33109 C 3219.23 -1.71341 -0.741569 0
M  V30 33110 C 3219.59 -0.704611 -1.83111 0
M  V30 33111 O 3218.71 0.135519 -2.15975 0
M  V30 33112 C 3219.31 -3.10658 -1.35192 0
M  V30 33113 C 3217.86 -3.27121 -1.86196 0
M  V30 33114 C 3217.01 -2.67293 -0.738208 0
M  V30 33115 H 3219.96 -1.58631 0.0468703 0
M  V30 33116 H 3219.98 -3.08914 -2.22155 0
M  V30 33117 H 3219.5 -3.84057 -0.558708 0
M  V30 33118 H 3217.6 -2.58666 -2.68184 0
M  V30 33119 H 3217.71 -4.34791 -2.01229 0
M  V30 33120 H 3216.07 -2.26914 -1.15682 0
M  V30 33121 H 3216.86 -3.43273 0.0430425 0
M  V30 33122 N 3219.3 0.446741 -1.51136 0
M  V30 33123 C 3220.53 1.22424 -1.67413 0
M  V30 33124 C 3220.95 1.84484 -0.367041 0
M  V30 33125 O 3220.31 1.68393 0.671821 0
M  V30 33126 C 3220.36 2.29092 -2.78477 0
M  V30 33127 O 3219.46 3.34347 -2.41425 0
M  V30 33128 H 3218.8 0.359101 -0.558518 0
M  V30 33129 H 3221.33 0.528765 -1.97649 0
M  V30 33130 H 3221.34 2.74025 -3.02282 0
M  V30 33131 H 3220.02 1.83297 -3.7333 0
M  V30 33132 H 3218.59 2.94956 -2.28157 0
M  V30 33133 N 3220.78 1.41123 0.701567 0
M  V30 33134 C 3221.73 1.38969 1.80753 0
M  V30 33135 C 3222.71 0.264992 1.58703 0
M  V30 33136 O 3223.91 0.505198 1.69637 0
M  V30 33137 C 3221.03 1.26842 3.19008 0
M  V30 33138 C 3220.12 2.4415 3.46773 0
M  V30 33139 N 3220.51 3.69623 3.45272 0
M  V30 33140 C 3218.81 2.37833 3.77295 0
M  V30 33141 C 3219.51 4.47391 3.71774 0
M  V30 33142 N 3218.49 3.77422 3.91221 0
M  V30 33143 H 3222.29 2.33907 1.77946 0
M  V30 33144 H 3219.8 1.35094 0.901301 0
M  V30 33145 H 3221.8 1.2338 3.98225 0
M  V30 33146 H 3220.46 0.328834 3.23031 0
M  V30 33147 H 3221.47 4.02591 3.25792 0
M  V30 33148 H 3218.15 1.52315 3.88724 0
M  V30 33149 H 3219.54 5.56301 3.768 0
M  V30 33150 N 3222.26 -0.935219 1.26852 0
M  V30 33151 C 3223.51 -1.67656 1.12135 0
M  V30 33152 C 3223.82 -1.92731 -0.333805 0
M  V30 33153 O 3225.03 -2.64747 -0.601754 0
M  V30 33154 C 3223.48 -3.01927 1.95878 0
M  V30 33155 C 3223.09 -2.84578 3.46005 0
M  V30 33156 C 3224.83 -3.79712 1.89787 0
M  V30 33157 C 3222.74 -4.14358 4.21973 0
M  V30 33158 H 3221.67 -0.628826 0.416046 0
M  V30 33159 H 3224.32 -1.03959 1.51211 0
M  V30 33160 H 3222.7 -3.66639 1.4964 0
M  V30 33161 H 3223.88 -2.2868 4.00053 0
M  V30 33162 H 3222.19 -2.2023 3.53395 0
M  V30 33163 H 3224.79 -4.7587 2.43827 0
M  V30 33164 H 3225.13 -4.07111 0.869868 0
M  V30 33165 H 3225.67 -3.21784 2.3388 0
M  V30 33166 H 3222.4 -3.92141 5.25267 0
M  V30 33167 H 3221.92 -4.69949 3.72704 0
M  V30 33168 H 3223.6 -4.82773 4.30743 0
M  V30 33169 N 3223.74 -1.08752 -1.14065 0
M  V30 33170 C 3224.96 -0.840935 -1.89039 0
M  V30 33171 C 3225.38 0.607219 -1.78769 0
M  V30 33172 O 3224.74 1.41751 -1.14947 0
M  V30 33173 C 3224.79 -1.25844 -3.38889 0
M  V30 33174 O 3224.51 -2.64979 -3.48881 0
M  V30 33175 C 3226.01 -1.04323 -4.3085 0
M  V30 33176 H 3223.23 -0.303025 -0.598679 0
M  V30 33177 H 3225.77 -1.44771 -1.44435 0
M  V30 33178 H 3223.93 -0.695694 -3.81102 0
M  V30 33179 H 3224.34 -2.82401 -4.41984 0
M  V30 33180 H 3225.82 -1.3847 -5.3435 0
M  V30 33181 H 3226.29 0.0195012 -4.39196 0
M  V30 33182 H 3226.9 -1.59157 -3.94397 0
M  V30 33183 N 3225.21 1.31165 -0.873701 0
M  V30 33184 C 3226.18 2.26707 -0.337109 0
M  V30 33185 C 3227.18 1.52363 0.514033 0
M  V30 33186 O 3228.37 1.71183 0.322804 0
M  V30 33187 C 3225.5 3.36898 0.520838 0
M  V30 33188 H 3226.69 2.75684 -1.1806 0
M  V30 33189 H 3224.25 1.42161 -0.649602 0
M  V30 33190 H 3224.98 2.9322 1.38538 0
M  V30 33191 H 3224.77 3.92 -0.0886704 0
M  V30 33192 H 3226.26 4.0804 0.888425 0
M  V30 33193 N 3226.69 0.633512 1.44307 0
M  V30 33194 C 3227.6 -0.0711375 2.34492 0
M  V30 33195 C 3228.62 -0.833173 1.52755 0
M  V30 33196 O 3229.79 -0.784896 1.85476 0
M  V30 33197 C 3226.86 -1.03889 3.30769 0
M  V30 33198 C 3225.92 -0.275968 4.28412 0
M  V30 33199 C 3225.15 -1.19762 5.20089 0
M  V30 33200 O 3225.38 -2.43641 5.15747 0
M  V30 33201 O 3224.31 -0.680659 5.98039 0
M  V30 33202 H 3228.14 0.670682 2.96202 0
M  V30 33203 H 3225.72 0.393703 1.44119 0
M  V30 33204 H 3227.6 -1.59559 3.90024 0
M  V30 33205 H 3226.28 -1.76128 2.71589 0
M  V30 33206 H 3225.19 0.323836 3.72696 0
M  V30 33207 H 3226.52 0.406451 4.90519 0
M  V30 33208 N 3228.17 -1.53093 0.374204 0
M  V30 33209 C 3229.4 -2.05798 -0.213289 0
M  V30 33210 C 3229.81 -1.24708 -1.41751 0
M  V30 33211 O 3229.17 -0.2899 -1.80183 0
M  V30 33212 C 3229.22 -3.56514 -0.598305 0
M  V30 33213 O 3228.94 -4.34531 0.55806 0
M  V30 33214 C 3230.44 -4.25509 -1.24327 0
M  V30 33215 H 3227.66 -0.670048 -0.0357281 0
M  V30 33216 H 3230.21 -1.97376 0.535069 0
M  V30 33217 H 3228.36 -3.65059 -1.29657 0
M  V30 33218 H 3228.78 -5.23927 0.245003 0
M  V30 33219 H 3230.25 -5.32255 -1.46316 0
M  V30 33220 H 3230.73 -3.7977 -2.20616 0
M  V30 33221 H 3231.33 -4.21241 -0.586195 0
M  V30 33222 N 3229.65 -0.103603 -1.57259 0
M  V30 33223 C 3230.61 0.837822 -2.13338 0
M  V30 33224 C 3231.61 1.2051 -1.06461 0
M  V30 33225 O 3232.8 1.13313 -1.32309 0
M  V30 33226 C 3229.93 2.13085 -2.66097 0
M  V30 33227 H 3231.13 0.350723 -2.97842 0
M  V30 33228 H 3228.68 0.145484 -1.55621 0
M  V30 33229 H 3229.41 2.6626 -1.85137 0
M  V30 33230 H 3229.2 1.87713 -3.44248 0
M  V30 33231 H 3230.69 2.80413 -3.09448 0
M  V30 33232 N 3231.13 1.56679 0.170126 0
M  V30 33233 C 3232.07 1.96502 1.21061 0
M  V30 33234 C 3233.04 0.829117 1.43927 0
M  V30 33235 O 3234.23 1.08933 1.56647 0
M  V30 33236 C 3231.37 2.33114 2.54464 0
M  V30 33237 C 3230.48 3.59887 2.38967 0
M  V30 33238 C 3229.62 3.85706 3.65245 0
M  V30 33239 C 3228.66 5.05824 3.44687 0
M  V30 33240 N 3227.79 5.27769 4.63038 0
M  V30 33241 H 3232.63 2.852 0.864005 0
M  V30 33242 H 3230.17 1.41118 0.415218 0
M  V30 33243 H 3232.13 2.52363 3.32218 0
M  V30 33244 H 3230.76 1.47525 2.87117 0
M  V30 33245 H 3229.81 3.48545 1.52384 0
M  V30 33246 H 3231.12 4.47798 2.19723 0
M  V30 33247 H 3230.28 4.0533 4.51434 0
M  V30 33248 H 3229.01 2.96173 3.8747 0
M  V30 33249 H 3228.02 4.86097 2.56885 0
M  V30 33250 H 3229.24 5.96889 3.23883 0
M  V30 33251 H 3227.19 4.41187 4.85479 0
M  V30 33252 H 3227.11 6.09906 4.46711 0
M  V30 33253 H 3228.38 5.51873 5.50506 0
M  V30 33254 N 3232.6 -0.43872 1.5137 0
M  V30 33255 C 3234.02 -0.775091 1.39515 0
M  V30 33256 C 3234.22 -1.95787 0.476414 0
M  V30 33257 O 3233.28 -2.52406 -0.0689388 0
M  V30 33258 C 3234.59 -1.05676 2.81519 0
M  V30 33259 C 3236.14 -1.16128 2.9066 0
M  V30 33260 C 3236.61 -1.47589 4.33568 0
M  V30 33261 N 3238.1 -1.54516 4.36668 0
M  V30 33262 C 3238.84 -1.80428 5.44273 0
M  V30 33263 N 3238.33 -2.04142 6.62041 0
M  V30 33264 N 3240.13 -1.82199 5.31752 0
M  V30 33265 H 3232.28 0.340274 2.09657 0
M  V30 33266 H 3234.54 0.0898281 0.943735 0
M  V30 33267 H 3234.25 -0.260379 3.50735 0
M  V30 33268 H 3234.12 -1.98475 3.20761 0
M  V30 33269 H 3236.51 -1.94829 2.21643 0
M  V30 33270 H 3236.59 -0.212331 2.54917 0
M  V30 33271 H 3236.23 -0.694163 5.03134 0
M  V30 33272 H 3236.16 -2.43688 4.66823 0
M  V30 33273 H 3238.65 -1.38099 3.51763 0
M  V30 33274 H 3238.97 -2.2328 7.39842 0
M  V30 33275 H 3237.31 -2.01467 6.65159 0
M  V30 33276 H 3240.5 -1.63191 4.38733 0
M  V30 33277 H 3240.68 -2.02056 6.15693 0
M  V30 33278 N 3234.08 -1.41493 -0.694073 0
M  V30 33279 C 3235.5 -1.23996 -1.00485 0
M  V30 33280 C 3235.7 -0.130381 -2.01078 0
M  V30 33281 O 3234.75 0.504732 -2.47404 0
M  V30 33282 C 3236.07 -2.58982 -1.52803 0
M  V30 33283 C 3237.62 -2.66176 -1.64679 0
M  V30 33284 C 3238.09 -4.01483 -2.20399 0
M  V30 33285 N 3239.58 -4.03337 -2.27757 0
M  V30 33286 C 3240.32 -5.04834 -2.71902 0
M  V30 33287 N 3239.81 -6.1672 -3.1564 0
M  V30 33288 N 3241.61 -4.92195 -2.71479 0
M  V30 33289 H 3233.76 -2.12382 -0.0277087 0
M  V30 33290 H 3236.02 -0.94504 -0.0748575 0
M  V30 33291 H 3235.73 -3.40936 -0.863459 0
M  V30 33292 H 3235.6 -2.81571 -2.50993 0
M  V30 33293 H 3237.99 -1.8458 -2.30248 0
M  V30 33294 H 3238.07 -2.47396 -0.650307 0
M  V30 33295 H 3237.71 -4.83528 -1.55445 0
M  V30 33296 H 3237.64 -4.17604 -3.20802 0
M  V30 33297 H 3240.13 -3.22554 -1.96894 0
M  V30 33298 H 3240.45 -6.90035 -3.47954 0
M  V30 33299 H 3238.79 -6.20254 -3.13545 0
M  V30 33300 H 3241.98 -4.03869 -2.36659 0
M  V30 33301 H 3242.15 -5.71432 -3.05563 0
M  V30 33302 N 3235.56 0.928479 -1.27346 0
M  V30 33303 C 3236.49 2.04601 -1.12521 0
M  V30 33304 C 3237.47 1.70079 -0.0268862 0
M  V30 33305 O 3238.66 1.93155 -0.201231 0
M  V30 33306 C 3235.79 3.38638 -0.770808 0
M  V30 33307 C 3234.74 3.87269 -1.82227 0
M  V30 33308 C 3234.07 5.18103 -1.32187 0
M  V30 33309 C 3235.37 4.10746 -3.22621 0
M  V30 33310 H 3237.06 2.17262 -2.06004 0
M  V30 33311 H 3234.61 1.04396 -0.991845 0
M  V30 33312 H 3236.56 4.16295 -0.653916 0
M  V30 33313 H 3235.28 3.25989 0.199732 0
M  V30 33314 H 3233.94 3.11804 -1.92805 0
M  V30 33315 H 3233.59 5.01844 -0.340807 0
M  V30 33316 H 3233.29 5.5161 -2.02484 0
M  V30 33317 H 3234.81 5.98331 -1.2179 0
M  V30 33318 H 3236.23 4.78976 -3.15048 0
M  V30 33319 H 3234.63 4.55559 -3.90622 0
M  V30 33320 H 3235.7 3.1607 -3.67733 0
M  V30 33321 N 3237.04 1.09355 1.13486 0
M  V30 33322 C 3238 0.735901 2.17065 0
M  V30 33323 C 3239 -0.234153 1.59086 0
M  V30 33324 O 3240.19 -0.0124324 1.74196 0
M  V30 33325 C 3237.32 0.0881575 3.40786 0
M  V30 33326 H 3238.52 1.6532 2.50218 0
M  V30 33327 H 3236.07 0.892652 1.28302 0
M  V30 33328 H 3236.8 -0.840407 3.13221 0
M  V30 33329 H 3236.59 0.786141 3.84138 0
M  V30 33330 H 3238.08 -0.146702 4.17342 0
M  V30 33331 N 3238.52 -1.307 0.880644 0
M  V30 33332 C 3239.93 -1.48919 0.574041 0
M  V30 33333 C 3240.13 -1.80815 -0.88928 0
M  V30 33334 O 3239.19 -1.89317 -1.67079 0
M  V30 33335 C 3240.5 -2.61561 1.48346 0
M  V30 33336 C 3242.05 -2.75442 1.48663 0
M  V30 33337 C 3242.53 -3.91192 2.38187 0
M  V30 33338 N 3244.02 -3.98495 2.36126 0
M  V30 33339 C 3244.75 -4.87357 3.0211 0
M  V30 33340 N 3244.25 -5.81046 3.77303 0
M  V30 33341 N 3246.04 -4.80691 2.91364 0
M  V30 33342 H 3238.19 -1.08268 1.82734 0
M  V30 33343 H 3240.45 -0.535967 0.781948 0
M  V30 33344 H 3240.16 -2.448 2.52519 0
M  V30 33345 H 3240.03 -3.57942 1.18984 0
M  V30 33346 H 3242.42 -2.91611 0.452425 0
M  V30 33347 H 3242.5 -1.79695 1.82054 0
M  V30 33348 H 3242.15 -3.7578 3.4169 0
M  V30 33349 H 3242.08 -4.86269 2.02115 0
M  V30 33350 H 3244.57 -3.31472 1.8148 0
M  V30 33351 H 3244.88 -6.45604 4.24753 0
M  V30 33352 H 3243.23 -5.80991 3.81411 0
M  V30 33353 H 3246.42 -4.06477 2.3215 0
M  V30 33354 H 3246.59 -5.49736 3.43066 0
M  V30 33355 N 3240 -0.641156 -1.43969 0
M  V30 33356 C 3241.24 -0.149369 -2.01547 0
M  V30 33357 C 3241.56 1.23677 -1.50762 0
M  V30 33358 O 3240.83 1.82374 -0.715289 0
M  V30 33359 H 3239.41 -0.0522292 -0.745172 0
M  V30 33360 H 3242.08 -0.830113 -1.76338 0
M  V30 33361 H 3241.17 -0.124731 -3.11851 0
M  V30 33362 N 3241.47 1.52892 -0.382318 0
M  V30 33363 C 3242.7 2.06385 0.204925 0
M  V30 33364 C 3243.12 1.25274 1.40314 0
M  V30 33365 O 3242.48 0.276001 1.79187 0
M  V30 33366 C 3242.53 3.56223 0.560143 0
M  V30 33367 O 3241.63 3.77731 1.65508 0
M  V30 33368 H 3240.97 0.663496 0.0258682 0
M  V30 33369 H 3243.5 1.97131 -0.547767 0
M  V30 33370 H 3243.51 3.99542 0.826431 0
M  V30 33371 H 3242.19 4.14698 -0.315913 0
M  V30 33372 H 3240.77 3.46303 1.38305 0
M  V30 33373 N 3242.95 0.111941 1.57202 0
M  V30 33374 C 3244.36 -0.414559 1.82039 0
M  V30 33375 C 3244.71 -1.67072 1.02866 0
M  V30 33376 O 3243.84 -2.14795 0.263106 0
M  V30 33377 C 3244.43 -0.758895 3.30191 0
M  V30 33378 C 3242.99 -1.23006 3.55734 0
M  V30 33379 C 3242.14 -0.235177 2.76301 0
M  V30 33380 H 3245.09 0.337169 1.55077 0
M  V30 33381 H 3245.11 -1.61695 3.44434 0
M  V30 33382 H 3244.62 0.155541 3.87788 0
M  V30 33383 H 3242.72 -2.16164 3.03487 0
M  V30 33384 H 3242.84 -1.18026 4.64335 0
M  V30 33385 H 3241.2 -0.720779 2.44288 0
M  V30 33386 H 3241.98 0.672233 3.36654 0
M  V30 33387 N 3244.43 -1.56767 -0.161814 0
M  V30 33388 C 3245.84 -1.72118 -0.723354 0
M  V30 33389 C 3246.19 -0.723993 -1.82353 0
M  V30 33390 O 3245.32 0.112605 -2.16107 0
M  V30 33391 C 3245.91 -3.12075 -1.3189 0
M  V30 33392 C 3244.47 -3.29077 -1.82716 0
M  V30 33393 C 3243.62 -2.68061 -0.709816 0
M  V30 33394 H 3246.57 -1.58572 0.0636926 0
M  V30 33395 H 3246.59 -3.11252 -2.18866 0
M  V30 33396 H 3246.1 -3.84628 -0.517942 0
M  V30 33397 H 3244.2 -2.61496 -2.65425 0
M  V30 33398 H 3244.32 -4.36901 -1.96606 0
M  V30 33399 H 3242.68 -2.28128 -1.13269 0
M  V30 33400 H 3243.46 -3.43208 0.0794488 0
M  V30 33401 N 3245.91 0.430686 -1.51601 0
M  V30 33402 C 3247.13 1.20642 -1.68702 0
M  V30 33403 C 3247.56 1.84085 -0.386587 0
M  V30 33404 O 3246.92 1.69096 0.653923 0
M  V30 33405 C 3246.96 2.26125 -2.80891 0
M  V30 33406 O 3246.07 3.31767 -2.44957 0
M  V30 33407 H 3245.41 0.353157 -0.562295 0
M  V30 33408 H 3247.94 0.507772 -1.98199 0
M  V30 33409 H 3247.95 2.70803 -3.05172 0
M  V30 33410 H 3246.62 1.79327 -3.75253 0
M  V30 33411 H 3245.2 2.92519 -2.31273 0
M  V30 33412 N 3247.39 1.4186 0.686559 0
M  V30 33413 C 3248.32 1.47196 1.81261 0
M  V30 33414 C 3249.3 0.329686 1.66874 0
M  V30 33415 O 3250.48 0.54238 1.86472 0
M  V30 33416 C 3247.61 1.36221 3.1947 0
M  V30 33417 C 3246.57 2.48353 3.48575 0
M  V30 33418 C 3245.89 2.22441 4.86235 0
M  V30 33419 C 3247.19 3.90684 3.46646 0
M  V30 33420 H 3248.89 2.41439 1.77053 0
M  V30 33421 H 3246.43 1.16208 0.850395 0
M  V30 33422 H 3248.38 1.38565 3.97967 0
M  V30 33423 H 3247.11 0.384668 3.24327 0
M  V30 33424 H 3245.77 2.45307 2.72433 0
M  V30 33425 H 3245.42 1.23008 4.87727 0
M  V30 33426 H 3245.12 2.97585 5.06672 0
M  V30 33427 H 3246.64 2.26514 5.6703 0
M  V30 33428 H 3248.05 3.95396 4.15132 0
M  V30 33429 H 3246.45 4.65585 3.78617 0
M  V30 33430 H 3247.52 4.18193 2.45444 0
M  V30 33431 N 3248.86 -0.921712 1.27837 0
M  V30 33432 C 3249.83 -2.00467 1.11111 0
M  V30 33433 C 3250.83 -1.60712 0.0532312 0
M  V30 33434 O 3252.02 -1.71626 0.298338 0
M  V30 33435 C 3249.15 -3.33754 0.694328 0
M  V30 33436 H 3250.34 -2.16735 2.07283 0
M  V30 33437 H 3247.89 -1.10331 1.1071 0
M  V30 33438 H 3248.63 -3.23187 -0.268504 0
M  V30 33439 H 3248.41 -3.63968 1.45842 0
M  V30 33440 H 3249.9 -4.13271 0.599723 0
M  V30 33441 N 3250.34 -1.09956 -1.12905 0
M  V30 33442 C 3251.57 -0.861132 -1.88678 0
M  V30 33443 C 3251.99 0.582467 -1.78854 0
M  V30 33444 O 3251.35 1.40978 -1.13995 0
M  V30 33445 C 3251.4 -1.30791 -3.36045 0
M  V30 33446 O 3250.5 -0.4698 -4.09715 0
M  V30 33447 H 3249.84 -0.311421 -0.586441 0
M  V30 33448 H 3252.37 -1.46509 -1.42815 0
M  V30 33449 H 3252.38 -1.29569 -3.8688 0
M  V30 33450 H 3251.06 -2.35921 -3.42512 0
M  V30 33451 H 3249.63 -0.546805 -3.68869 0
M  V30 33452 N 3251.82 1.30231 -0.887563 0
M  V30 33453 C 3253.04 2.00734 -0.521597 0
M  V30 33454 C 3253.47 1.66075 0.883217 0
M  V30 33455 O 3252.83 0.878759 1.5858 0
M  V30 33456 C 3252.88 3.5361 -0.706583 0
M  V30 33457 O 3251.98 4.11663 0.246375 0
M  V30 33458 H 3251.32 0.631489 -0.205227 0
M  V30 33459 H 3253.85 1.66016 -1.19582 0
M  V30 33460 H 3253.86 4.03466 -0.606572 0
M  V30 33461 H 3252.54 3.78174 -1.73083 0
M  V30 33462 H 3251.11 3.72766 0.0998407 0
M  V30 33463 N 3253.3 0.648782 1.43627 0
M  V30 33464 C 3254.52 0.16632 2.06732 0
M  V30 33465 C 3254.95 -1.15731 1.48283 0
M  V30 33466 O 3254.31 -1.71395 0.591048 0
M  V30 33467 C 3254.35 0.0839365 3.60502 0
M  V30 33468 O 3253.46 -0.955114 4.01187 0
M  V30 33469 H 3252.8 0.0928401 0.657478 0
M  V30 33470 H 3255.33 0.890453 1.84207 0
M  V30 33471 H 3255.34 -0.100851 4.07875 0
M  V30 33472 H 3254.01 1.05021 4.02422 0
M  V30 33473 H 3252.59 -0.743473 3.65413 0
M  V30 33474 N 3254.78 -1.52688 0.390421 0
M  V30 33475 C 3255.74 -2.2509 -0.43211 0
M  V30 33476 C 3256.74 -1.26768 -0.989273 0
M  V30 33477 O 3257.93 -1.50856 -0.871099 0
M  V30 33478 C 3255.06 -3.00681 -1.60636 0
M  V30 33479 H 3256.25 -2.9922 0.201786 0
M  V30 33480 H 3253.81 -1.55649 0.142559 0
M  V30 33481 H 3254.54 -2.30854 -2.27765 0
M  V30 33482 H 3254.33 -3.72848 -1.21354 0
M  V30 33483 H 3255.82 -3.5565 -2.18867 0
M  V30 33484 N 3256.25 -0.120276 -1.5714 0
M  V30 33485 C 3257.48 0.548419 -2.00018 0
M  V30 33486 C 3257.9 1.5935 -0.999461 0
M  V30 33487 O 3257.26 1.81277 0.028666 0
M  V30 33488 C 3257.31 1.15009 -3.41768 0
M  V30 33489 O 3256.41 2.2656 -3.44593 0
M  V30 33490 H 3255.76 0.136864 -0.649742 0
M  V30 33491 H 3258.29 -0.209127 -2.03528 0
M  V30 33492 H 3258.3 1.48531 -3.80003 0
M  V30 33493 H 3256.97 0.384608 -4.14118 0
M  V30 33494 H 3255.55 1.94467 -3.18177 0
M  V30 33495 N 3257.73 1.56851 0.153498 0
M  V30 33496 C 3258.66 1.94367 1.21467 0
M  V30 33497 C 3259.68 0.83875 1.39531 0
M  V30 33498 O 3260.87 1.11717 1.39217 0
M  V30 33499 C 3257.97 2.19682 2.58056 0
M  V30 33500 C 3257.14 3.50954 2.61056 0
M  V30 33501 C 3256.2 3.64885 3.79138 0
M  V30 33502 O 3255.22 4.37339 3.64312 0
M  V30 33503 N 3256.43 3.01063 4.96328 0
M  V30 33504 H 3259.19 2.85998 0.895838 0
M  V30 33505 H 3256.75 1.58222 0.343119 0
M  V30 33506 H 3258.74 2.26249 3.35549 0
M  V30 33507 H 3257.31 1.34348 2.82258 0
M  V30 33508 H 3256.53 3.55885 1.69527 0
M  V30 33509 H 3257.82 4.37302 2.60086 0
M  V30 33510 H 3257.22 2.42102 5.11276 0
M  V30 33511 H 3255.78 3.13201 5.71619 0
M  V30 33512 N 3259.21 -0.42264 1.51827 0
M  V30 33513 C 3260.14 -1.52114 1.77154 0
M  V30 33514 C 3261.12 -1.58323 0.621922 0
M  V30 33515 O 3262.31 -1.73815 0.866148 0
M  V30 33516 C 3259.44 -2.90065 1.90997 0
M  V30 33517 C 3258.39 -2.98712 3.06521 0
M  V30 33518 C 3257.72 -4.38786 3.05567 0
M  V30 33519 C 3259.02 -2.71437 4.46227 0
M  V30 33520 H 3260.71 -1.3117 2.69137 0
M  V30 33521 H 3258.26 -0.629584 1.29508 0
M  V30 33522 H 3260.21 -3.66886 2.07298 0
M  V30 33523 H 3258.93 -3.12272 0.956743 0
M  V30 33524 H 3257.59 -2.24333 2.89949 0
M  V30 33525 H 3257.24 -4.57982 2.07993 0
M  V30 33526 H 3256.94 -4.45498 3.83151 0
M  V30 33527 H 3258.46 -5.17561 3.2398 0
M  V30 33528 H 3259.88 -3.37986 4.63075 0
M  V30 33529 H 3258.28 -2.89542 5.25628 0
M  V30 33530 H 3259.35 -1.66952 4.55253 0
M  V30 33531 N 3260.69 -1.42222 -0.679027 0
M  V30 33532 C 3261.91 -1.4606 -1.47245 0
M  V30 33533 C 3262.34 -0.0721318 -1.87962 0
M  V30 33534 O 3261.7 0.928461 -1.55722 0
M  V30 33535 C 3261.74 -2.38953 -2.70063 0
M  V30 33536 O 3260.85 -1.85798 -3.68175 0
M  V30 33537 H 3260.19 -0.495044 -0.442524 0
M  V30 33538 H 3262.72 -1.86865 -0.83323 0
M  V30 33539 H 3262.73 -2.5539 -3.18182 0
M  V30 33540 H 3261.4 -3.39831 -2.39767 0
M  V30 33541 H 3259.98 -1.78895 -3.27187 0
M  V30 33542 N 3262.17 0.91492 -1.28324 0
M  V30 33543 C 3263.13 1.99875 -1.12173 0
M  V30 33544 C 3264.13 1.60681 -0.0617534 0
M  V30 33545 O 3265.32 1.71466 -0.307435 0
M  V30 33546 C 3262.45 3.33381 -0.712018 0
M  V30 33547 H 3263.64 2.15632 -2.08429 0
M  V30 33548 H 3261.2 1.09743 -1.11293 0
M  V30 33549 H 3261.93 3.23324 0.251361 0
M  V30 33550 H 3261.72 3.63189 -1.4777 0
M  V30 33551 H 3263.21 4.12947 -0.621631 0
M  V30 33552 N 3263.64 1.10553 1.1232 0
M  V30 33553 C 3265.06 0.866229 1.65389 0
M  V30 33554 C 3265.41 -0.603251 1.86696 0
M  V30 33555 O 3264.53 -1.4632 1.59435 0
M  V30 33556 C 3265.13 1.56592 3.0044 0
M  V30 33557 C 3263.69 1.37329 3.50454 0
M  V30 33558 C 3262.83 1.61453 2.25451 0
M  V30 33559 H 3265.78 1.26307 0.960844 0
M  V30 33560 H 3265.8 1.00563 3.6697 0
M  V30 33561 H 3265.32 2.6354 2.84901 0
M  V30 33562 H 3263.42 0.325496 3.71176 0
M  V30 33563 H 3263.53 2.11609 4.29836 0
M  V30 33564 H 3261.89 1.03733 2.32619 0
M  V30 33565 H 3262.68 2.69655 2.12464 0
M  V30 33566 N 3265.12 -1.29758 0.894457 0
M  V30 33567 C 3266.35 -2.00455 0.532235 0
M  V30 33568 C 3266.77 -1.66541 -0.874398 0
M  V30 33569 O 3266.13 -0.887157 -1.58111 0
M  V30 33570 C 3266.18 -3.5323 0.725326 0
M  V30 33571 O 3265.28 -4.11788 -0.22454 0
M  V30 33572 H 3264.62 -0.630391 0.208573 0
M  V30 33573 H 3267.15 -1.6538 1.20461 0
M  V30 33574 H 3267.16 -4.03139 0.62796 0
M  V30 33575 H 3265.84 -3.7725 1.75086 0
M  V30 33576 H 3264.42 -3.72814 -0.0800706 0
M  V30 33577 N 3266.6 -0.65639 -1.4328 0
M  V30 33578 C 3267.53 0.0196551 -2.33492 0
M  V30 33579 C 3268.51 0.808654 -1.49649 0
M  V30 33580 O 3269.7 0.769498 -1.78304 0
M  V30 33581 C 3266.83 0.984515 -3.33053 0
M  V30 33582 C 3265.78 0.305408 -4.26909 0
M  V30 33583 C 3265.11 1.38193 -5.16533 0
M  V30 33584 C 3266.41 -0.804172 -5.16072 0
M  V30 33585 H 3268.1 -0.733712 -2.90271 0
M  V30 33586 H 3265.65 -0.354283 -1.39574 0
M  V30 33587 H 3267.6 1.4664 -3.95063 0
M  V30 33588 H 3266.32 1.76908 -2.74538 0
M  V30 33589 H 3264.98 -0.156059 -3.66268 0
M  V30 33590 H 3264.63 2.15802 -4.54355 0
M  V30 33591 H 3264.33 0.932776 -5.80149 0
M  V30 33592 H 3265.85 1.86512 -5.81417 0
M  V30 33593 H 3267.27 -0.404312 -5.71873 0
M  V30 33594 H 3265.67 -1.17799 -5.88424 0
M  V30 33595 H 3266.74 -1.66081 -4.55571 0
M  V30 33596 N 3268.08 1.52478 -0.398513 0
M  V30 33597 C 3269.03 2.26718 0.432172 0
M  V30 33598 C 3270 1.28698 1.05005 0
M  V30 33599 O 3271.18 1.57543 1.07633 0
M  V30 33600 C 3268.32 3.08402 1.54862 0
M  V30 33601 C 3267.43 4.21364 0.952705 0
M  V30 33602 C 3266.57 4.90426 2.04097 0
M  V30 33603 C 3265.61 5.95367 1.42143 0
M  V30 33604 N 3264.75 6.57989 2.44939 0
M  V30 33605 H 3269.59 2.97278 -0.207355 0
M  V30 33606 H 3267.12 1.46657 -0.114092 0
M  V30 33607 H 3269.08 3.54058 2.20677 0
M  V30 33608 H 3267.71 2.40033 2.15833 0
M  V30 33609 H 3266.76 3.79955 0.183895 0
M  V30 33610 H 3268.07 4.96674 0.460044 0
M  V30 33611 H 3267.23 5.39434 2.77662 0
M  V30 33612 H 3265.97 4.1466 2.56725 0
M  V30 33613 H 3264.97 5.45689 0.671065 0
M  V30 33614 H 3266.2 6.7307 0.902975 0
M  V30 33615 H 3264.14 5.85058 2.9672 0
M  V30 33616 H 3264.06 7.2894 2.00455 0
M  V30 33617 H 3265.33 7.11638 3.18106 0
M  V30 33618 N 3269.56 0.128608 1.57074 0
M  V30 33619 C 3270.52 -0.803776 2.14644 0
M  V30 33620 C 3271.52 -1.18801 1.08365 0
M  V30 33621 O 3272.71 -1.11194 1.34095 0
M  V30 33622 C 3269.84 -2.08824 2.69454 0
M  V30 33623 H 3271.04 -0.303294 2.98362 0
M  V30 33624 H 3268.59 -0.120708 1.55833 0
M  V30 33625 H 3269.32 -2.63281 1.8935 0
M  V30 33626 H 3269.11 -1.82212 3.4719 0
M  V30 33627 H 3270.6 -2.75455 3.1387 0
M  V30 33628 N 3271.04 -1.5693 -0.145178 0
M  V30 33629 C 3272.26 -1.8761 -0.872365 0
M  V30 33630 C 3272.68 -0.717006 -1.74655 0
M  V30 33631 O 3272.04 0.313168 -1.79793 0
M  V30 33632 C 3272.09 -3.17549 -1.72756 0
M  V30 33633 O 3271.81 -4.28993 -0.888605 0
M  V30 33634 C 3273.31 -3.61756 -2.56218 0
M  V30 33635 H 3270.53 -0.621819 -0.252155 0
M  V30 33636 H 3273.07 -2.04038 -0.13742 0
M  V30 33637 H 3271.23 -3.02869 -2.41555 0
M  V30 33638 H 3271.64 -5.03306 -1.47592 0
M  V30 33639 H 3273.12 -4.55508 -3.11796 0
M  V30 33640 H 3273.59 -2.87133 -3.32342 0
M  V30 33641 H 3274.2 -3.79136 -1.92707 0
M  V30 33642 N 3272.51 0.414582 -1.52049 0
M  V30 33643 C 3273.75 1.17126 -1.67514 0
M  V30 33644 C 3274.12 1.87917 -0.393863 0
M  V30 33645 O 3275.32 2.65426 -0.424542 0
M  V30 33646 C 3273.59 2.14352 -2.85986 0
M  V30 33647 S 3275.15 2.982 -3.21904 0
M  V30 33648 H 3271.97 0.396867 -0.58993 0
M  V30 33649 H 3274.57 0.459375 -1.90026 0
M  V30 33650 H 3273.27 1.61023 -3.77491 0
M  V30 33651 H 3272.8 2.90088 -2.6573 0
M  V30 33652 H 3274.82 4.16244 -2.70102 0
M  V30 33653 N 3273.99 1.4258 0.671475 0
M  V30 33654 C 3275.22 1.46631 1.45969 0
M  V30 33655 C 3275.63 0.0786318 1.88636 0
M  V30 33656 O 3274.99 -0.907344 1.58346 0
M  V30 33657 C 3275.04 2.39632 2.70664 0
M  V30 33658 O 3274.76 3.73001 2.29787 0
M  V30 33659 C 3276.26 2.52737 3.64196 0
M  V30 33660 H 3273.48 0.498606 0.449035 0
M  V30 33661 H 3276.03 1.8713 0.824778 0
M  V30 33662 H 3274.18 2.02377 3.30337 0
M  V30 33663 H 3274.6 4.22839 3.10334 0
M  V30 33664 H 3276.07 3.21925 4.48406 0
M  V30 33665 H 3276.55 1.56633 4.1032 0
M  V30 33666 H 3277.15 2.90728 3.10415 0
M  V30 33667 N 3275.47 -0.908102 1.28807 0
M  V30 33668 C 3276.7 -1.69143 1.19156 0
M  V30 33669 C 3277.11 -1.87151 -0.249023 0
M  V30 33670 O 3276.47 -1.40254 -1.1677 0
M  V30 33671 C 3276.52 -3.08052 1.89172 0
M  V30 33672 O 3276.24 -2.90874 3.27604 0
M  V30 33673 C 3277.74 -4.02441 1.85893 0
M  V30 33674 H 3274.96 -0.528552 0.413369 0
M  V30 33675 H 3277.51 -1.13619 1.70032 0
M  V30 33676 H 3275.66 -3.60377 1.42152 0
M  V30 33677 H 3276.08 -3.78831 3.6275 0
M  V30 33678 H 3277.55 -4.97355 2.39463 0
M  V30 33679 H 3278.03 -4.31237 0.832559 0
M  V30 33680 H 3278.63 -3.56046 2.32618 0
M  V30 33681 N 3276.95 -1.11147 -1.11732 0
M  V30 33682 C 3277.9 -0.736171 -2.15788 0
M  V30 33683 C 3278.88 0.258292 -1.58813 0
M  V30 33684 O 3280.07 0.0658768 -1.76877 0
M  V30 33685 C 3277.2 -0.177657 -3.4284 0
M  V30 33686 C 3276.29 -1.1996 -4.0678 0
M  V30 33687 N 3276.68 -2.39279 -4.45622 0
M  V30 33688 C 3274.98 -1.04183 -4.33661 0
M  V30 33689 C 3275.68 -3.0443 -4.95678 0
M  V30 33690 N 3274.65 -2.31921 -4.91644 0
M  V30 33691 H 3278.46 -1.64435 -2.43595 0
M  V30 33692 H 3275.97 -0.99027 -1.28714 0
M  V30 33693 H 3277.97 0.109328 -4.16757 0
M  V30 33694 H 3276.63 0.725145 -3.16499 0
M  V30 33695 H 3277.64 -2.76755 -4.37752 0
M  V30 33696 H 3274.32 -0.195206 -4.17043 0
M  V30 33697 H 3275.71 -4.05968 -5.35387 0
M  V30 33698 N 3278.43 1.29282 -0.901326 0
M  V30 33699 C 3279.38 2.25273 -0.351602 0
M  V30 33700 C 3280.36 1.51947 0.529249 0
M  V30 33701 O 3281.55 1.73068 0.371001 0
M  V30 33702 C 3278.68 3.40741 0.41837 0
M  V30 33703 C 3277.77 4.21403 -0.477494 0
M  V30 33704 N 3278.16 4.80309 -1.58546 0
M  V30 33705 C 3276.46 4.45148 -0.275583 0
M  V30 33706 C 3277.16 5.40886 -2.1405 0
M  V30 33707 N 3276.13 5.24363 -1.43333 0
M  V30 33708 H 3279.93 2.68377 -1.19795 0
M  V30 33709 H 3277.45 1.43911 -0.752563 0
M  V30 33710 H 3279.45 4.08576 0.82895 0
M  V30 33711 H 3278.11 2.99173 1.26196 0
M  V30 33712 H 3279.12 4.79044 -1.96818 0
M  V30 33713 H 3275.79 4.14129 0.529508 0
M  V30 33714 H 3277.18 5.97568 -3.07184 0
M  V30 33715 N 3279.9 0.663979 1.4293 0
M  V30 33716 C 3281.18 0.111208 1.95284 0
M  V30 33717 C 3281.56 -1.3714 1.60487 0
M  V30 33718 O 3280.91 -2.10223 0.895462 0
M  V30 33719 C 3281.12 0.36885 3.47045 0
M  V30 33720 C 3282.47 0.279548 4.23679 0
M  V30 33721 O 3283.49 0.301999 3.54917 0
M  V30 33722 O 3282.35 0.212456 5.46087 0
M  V30 33723 H 3279.44 -0.00340264 0.826993 0
M  V30 33724 H 3281.99 0.737962 1.52814 0
M  V30 33725 H 3280.76 1.39632 3.65539 0
M  V30 33726 H 3280.38 -0.290444 3.96538 0
M  V30 33727 N 3281.38 -1.52265 0.406593 0
M  V30 33728 C 3282.61 -2.06685 -0.172065 0
M  V30 33729 C 3283.03 -1.2749 -1.38303 0
M  V30 33730 O 3282.39 -0.304473 -1.78725 0
M  V30 33731 C 3282.44 -3.57069 -0.5034 0
M  V30 33732 O 3281.54 -3.80316 -1.59478 0
M  V30 33733 H 3280.88 -0.663823 -0.0153092 0
M  V30 33734 H 3283.41 -1.96235 0.57906 0
M  V30 33735 H 3283.42 -4.00807 -0.762763 0
M  V30 33736 H 3282.1 -4.14143 0.381848 0
M  V30 33737 H 3280.67 -3.4846 -1.32778 0
M  V30 33738 N 3282.86 -0.136936 -1.57004 0
M  V30 33739 C 3284.27 0.385545 -1.82676 0
M  V30 33740 C 3284.62 1.65414 -1.05511 0
M  V30 33741 O 3283.75 2.14349 -0.297245 0
M  V30 33742 C 3284.34 0.706268 -3.31357 0
M  V30 33743 C 3282.9 1.17331 -3.57646 0
M  V30 33744 C 3282.05 0.19119 -2.7664 0
M  V30 33745 H 3285 -0.361798 -1.54521 0
M  V30 33746 H 3285.02 1.56195 -3.46963 0
M  V30 33747 H 3284.53 -0.217215 -3.87492 0
M  V30 33748 H 3282.63 2.11308 -3.06887 0
M  V30 33749 H 3282.75 1.10624 -4.66154 0
M  V30 33750 H 3281.11 0.681824 -2.45404 0
M  V30 33751 H 3281.89 -0.725706 -3.35542 0
M  V30 33752 N 3284.34 1.57005 0.136853 0
M  V30 33753 C 3285.62 1.74836 0.87702 0
M  V30 33754 C 3286 0.707674 1.98885 0
M  V30 33755 O 3285.34 -0.271612 2.2688 0
M  V30 33756 C 3285.55 3.19242 1.41015 0
M  V30 33757 C 3286.9 3.81225 1.86956 0
M  V30 33758 O 3287.93 3.22734 1.50735 0
M  V30 33759 O 3286.78 4.83997 2.53789 0
M  V30 33760 H 3283.88 0.715231 0.41518 0
M  V30 33761 H 3286.42 1.69261 0.121986 0
M  V30 33762 H 3285.2 3.86491 0.61161 0
M  V30 33763 H 3284.82 3.29284 2.2284 0
M  V30 33764 N 3285.82 -0.406513 1.52267 0
M  V30 33765 C 3286.78 -1.47811 1.7517 0
M  V30 33766 C 3287.78 -1.483 0.621601 0
M  V30 33767 O 3288.97 -1.49778 0.889502 0
M  V30 33768 C 3286.1 -2.87205 1.83647 0
M  V30 33769 H 3287.29 -1.28794 2.70836 0
M  V30 33770 H 3284.85 -0.637171 1.42723 0
M  V30 33771 H 3285.58 -3.11589 0.899048 0
M  V30 33772 H 3285.37 -2.88253 2.65806 0
M  V30 33773 H 3286.86 -3.64884 2.031 0
M  V30 33774 N 3287.29 -1.42934 -0.663904 0
M  V30 33775 C 3288.57 -1.34464 -1.42052 0
M  V30 33776 C 3288.95 0.012743 -2.11096 0
M  V30 33777 O 3288.3 1.0288 -2.04029 0
M  V30 33778 C 3288.51 -2.52044 -2.41401 0
M  V30 33779 C 3289.86 -2.94652 -3.05721 0
M  V30 33780 O 3290.88 -2.52014 -2.51729 0
M  V30 33781 O 3289.74 -3.68484 -4.03587 0
M  V30 33782 H 3286.83 -0.530845 -0.634139 0
M  V30 33783 H 3289.38 -1.54963 -0.69171 0
M  V30 33784 H 3288.15 -3.42487 -1.89257 0
M  V30 33785 H 3287.78 -2.33589 -3.21748 0
M  V30 33786 N 3288.77 0.901258 -1.29287 0
M  V30 33787 C 3289.7 2.02168 -1.16835 0
M  V30 33788 C 3290.68 1.69983 -0.0629564 0
M  V30 33789 O 3291.87 1.92684 -0.242157 0
M  V30 33790 C 3289 3.36927 -0.842465 0
M  V30 33791 C 3287.95 3.83316 -1.90401 0
M  V30 33792 C 3287.28 5.15183 -1.43147 0
M  V30 33793 C 3288.58 4.03811 -3.31261 0
M  V30 33794 H 3290.27 2.12843 -2.10566 0
M  V30 33795 H 3287.82 1.02268 -1.01377 0
M  V30 33796 H 3289.77 4.14815 -0.742072 0
M  V30 33797 H 3288.5 3.26339 0.13054 0
M  V30 33798 H 3287.15 3.07644 -1.99376 0
M  V30 33799 H 3286.8 5.01008 -0.447179 0
M  V30 33800 H 3286.5 5.47191 -2.14139 0
M  V30 33801 H 3288.03 5.95613 -1.34454 0
M  V30 33802 H 3289.44 4.72185 -3.25137 0
M  V30 33803 H 3287.84 4.47171 -4.00197 0
M  V30 33804 H 3288.91 3.08199 -3.74355 0
M  V30 33805 N 3290.25 1.11738 1.11141 0
M  V30 33806 C 3291.5 0.862907 1.8231 0
M  V30 33807 C 3291.81 -0.613294 1.85737 0
M  V30 33808 O 3293.02 -0.984124 2.53036 0
M  V30 33809 C 3291.47 1.49402 3.27425 0
M  V30 33810 C 3291.08 3.00448 3.32317 0
M  V30 33811 C 3292.83 1.31951 4.03471 0
M  V30 33812 C 3290.73 3.56529 4.71848 0
M  V30 33813 H 3289.66 0.319162 0.683119 0
M  V30 33814 H 3292.31 1.343 1.25043 0
M  V30 33815 H 3290.7 0.941595 3.84643 0
M  V30 33816 H 3291.87 3.62122 2.84964 0
M  V30 33817 H 3290.19 3.17211 2.69753 0
M  V30 33818 H 3292.78 1.7128 5.06525 0
M  V30 33819 H 3293.13 0.262412 4.15472 0
M  V30 33820 H 3293.66 1.84075 3.52649 0
M  V30 33821 H 3290.4 4.61966 4.65046 0
M  V30 33822 H 3289.92 2.99628 5.19599 0
M  V30 33823 H 3291.6 3.55154 5.40809 0
M  V30 33824 N 3291.73 -1.28802 0.90817 0
M  V30 33825 C 3292.64 -2.31213 0.397208 0
M  V30 33826 C 3293.65 -1.66287 -0.512322 0
M  V30 33827 O 3294.83 -1.97391 -0.399859 0
M  V30 33828 C 3291.9 -3.44832 -0.359462 0
M  V30 33829 C 3290.96 -4.25328 0.582613 0
M  V30 33830 C 3290.19 -5.33521 -0.13804 0
M  V30 33831 O 3290.41 -5.53933 -1.36066 0
M  V30 33832 O 3289.35 -5.99617 0.523787 0
M  V30 33833 H 3293.17 -2.76916 1.24705 0
M  V30 33834 H 3290.76 -1.33394 0.67279 0
M  V30 33835 H 3292.64 -4.13985 -0.787025 0
M  V30 33836 H 3291.31 -3.01221 -1.18523 0
M  V30 33837 H 3290.22 -3.58784 1.05946 0
M  V30 33838 H 3291.55 -4.72603 1.37503 0
M  V30 33839 N 3293.21 -0.67155 -1.42576 0
M  V30 33840 C 3294.17 -0.000432769 -2.292 0
M  V30 33841 C 3295.17 0.732268 -1.43159 0
M  V30 33842 O 3296.36 0.57076 -1.64584 0
M  V30 33843 C 3293.49 1.01007 -3.25592 0
M  V30 33844 H 3294.68 -0.762834 -2.90036 0
M  V30 33845 H 3292.24 -0.433729 -1.50162 0
M  V30 33846 H 3292.97 1.80107 -2.69688 0
M  V30 33847 H 3292.76 0.488115 -3.8905 0
M  V30 33848 H 3294.25 1.47817 -3.90563 0
M  V30 33849 N 3294.68 1.52047 -0.414663 0
M  V30 33850 C 3295.63 2.28726 0.422725 0
M  V30 33851 C 3296.63 1.33642 1.04097 0
M  V30 33852 O 3297.83 1.51079 0.978532 0
M  V30 33853 H 3294.21 0.735829 0.15511 0
M  V30 33854 H 3296.18 2.97391 -0.245143 0
M  V30 33855 C 3294.93 3.12515 1.52412 0
M  V30 33856 H 3294.25 3.85554 1.05774 0
M  V30 33857 H 3295.69 3.69264 2.08375 0
M  V30 33858 C 3294.15 2.26431 2.49461 0
M  V30 33859 O 3294.68 1.90835 3.53476 0
M  V30 33860 N 3292.89 1.90092 2.19803 0
M  V30 33861 H 3292.43 2.19239 1.35249 0
M  V30 33862 H 3292.39 1.32788 2.84982 0
M  V30 33863 N 3296.16 0.145261 1.56929 0
M  V30 33864 C 3297.09 -0.791224 2.19686 0
M  V30 33865 C 3298.07 -1.25831 1.14457 0
M  V30 33866 O 3299.26 -1.31619 1.42794 0
M  V30 33867 C 3296.39 -2.03119 2.81709 0
M  V30 33868 C 3295.34 -1.70094 3.92749 0
M  V30 33869 C 3294.67 -3.0134 4.417 0
M  V30 33870 C 3295.97 -0.948935 5.13607 0
M  V30 33871 H 3297.66 -0.268197 2.98196 0
M  V30 33872 H 3295.21 -0.127558 1.43434 0
M  V30 33873 H 3297.16 -2.69113 3.24278 0
M  V30 33874 H 3295.89 -2.57791 2.00527 0
M  V30 33875 H 3294.54 -1.06479 3.50796 0
M  V30 33876 H 3294.19 -3.53999 3.57342 0
M  V30 33877 H 3293.89 -2.80006 5.16595 0
M  V30 33878 H 3295.42 -3.68407 4.86938 0
M  V30 33879 H 3296.83 -1.51092 5.53032 0
M  V30 33880 H 3295.23 -0.835607 5.94254 0
M  V30 33881 H 3296.3 0.0596483 4.84863 0
M  V30 33882 N 3297.64 -1.57075 -0.128525 0
M  V30 33883 C 3298.57 -2.02677 -1.15949 0
M  V30 33884 C 3299.55 -0.909527 -1.43742 0
M  V30 33885 O 3300.74 -1.1786 -1.54346 0
M  V30 33886 C 3297.87 -2.42304 -2.48809 0
M  V30 33887 C 3296.82 -3.57385 -2.35499 0
M  V30 33888 C 3296.15 -3.82882 -3.73236 0
M  V30 33889 C 3297.45 -4.89434 -1.8235 0
M  V30 33890 H 3299.14 -2.89055 -0.780232 0
M  V30 33891 H 3296.69 -1.39062 -0.373872 0
M  V30 33892 H 3298.64 -2.7281 -3.21174 0
M  V30 33893 H 3297.36 -1.52886 -2.88606 0
M  V30 33894 H 3296.02 -3.27074 -1.65584 0
M  V30 33895 H 3295.67 -2.90684 -4.10502 0
M  V30 33896 H 3295.37 -4.60339 -3.65187 0
M  V30 33897 H 3296.9 -4.15831 -4.47121 0
M  V30 33898 H 3298.31 -5.18537 -2.44524 0
M  V30 33899 H 3296.71 -5.70825 -1.85146 0
M  V30 33900 H 3297.78 -4.78579 -0.780394 0
M  V30 33901 N 3299.12 0.398432 -1.5248 0
M  V30 33902 C 3300.37 1.14274 -1.68264 0
M  V30 33903 C 3300.72 1.8792 -0.412755 0
M  V30 33904 O 3300.01 1.82185 0.593225 0
M  V30 33905 C 3300.21 2.15606 -2.85042 0
M  V30 33906 C 3300.04 1.51912 -4.23265 0
M  V30 33907 C 3298.81 1.28724 -4.88629 0
M  V30 33908 C 3301 0.97426 -5.04988 0
M  V30 33909 N 3298.99 0.610348 -6.10858 0
M  V30 33910 C 3300.36 0.424899 -6.18542 0
M  V30 33911 C 3302.41 0.869757 -4.90244 0
M  V30 33912 C 3301.12 -0.218735 -7.18967 0
M  V30 33913 C 3303.14 0.239959 -5.90913 0
M  V30 33914 C 3302.5 -0.298676 -7.03767 0
M  V30 33915 H 3298.6 0.404457 -0.669282 0
M  V30 33916 H 3301.19 0.433602 -1.8981 0
M  V30 33917 H 3299.36 2.83867 -2.65092 0
M  V30 33918 H 3301.09 2.82476 -2.89809 0
M  V30 33919 H 3297.84 1.55967 -4.47181 0
M  V30 33920 H 3298.27 0.288219 -6.76386 0
M  V30 33921 H 3302.91 1.272 -4.03212 0
M  V30 33922 H 3300.63 -0.633015 -8.05617 0
M  V30 33923 H 3304.21 0.160474 -5.81579 0
M  V30 33924 H 3303.09 -0.778322 -7.80328 0
M  V30 33925 N 3300.6 1.43284 0.656314 0
M  V30 33926 C 3302.01 1.26616 0.971623 0
M  V30 33927 C 3302.21 0.183647 2.00661 0
M  V30 33928 O 3301.27 -0.43896 2.48655 0
M  V30 33929 C 3302.58 2.62942 1.45883 0
M  V30 33930 C 3304.13 2.70449 1.57564 0
M  V30 33931 C 3304.61 4.07185 2.09677 0
M  V30 33932 N 3306.1 4.09234 2.16984 0
M  V30 33933 C 3306.83 5.11865 2.58421 0
M  V30 33934 N 3306.33 6.24872 2.99177 0
M  V30 33935 N 3308.12 4.9922 2.58334 0
M  V30 33936 H 3300.27 2.12381 -0.0286104 0
M  V30 33937 H 3302.53 0.946692 0.0497751 0
M  V30 33938 H 3302.24 3.43105 0.772762 0
M  V30 33939 H 3302.11 2.88126 2.4344 0
M  V30 33940 H 3304.5 1.9062 2.25273 0
M  V30 33941 H 3304.58 2.49033 0.584485 0
M  V30 33942 H 3304.23 4.87479 1.42571 0
M  V30 33943 H 3304.16 4.25963 3.09618 0
M  V30 33944 H 3306.65 3.27661 1.88272 0
M  V30 33945 H 3306.96 6.99018 3.29536 0
M  V30 33946 H 3305.31 6.28349 2.96989 0
M  V30 33947 H 3308.5 4.10002 2.25868 0
M  V30 33948 H 3308.67 5.79333 2.90305 0
M  V30 33949 N 3302.08 -0.894389 1.29763 0
M  V30 33950 C 3303.01 -2.00443 1.11154 0
M  V30 33951 C 3304.02 -1.62698 0.0574941 0
M  V30 33952 O 3305.21 -1.75917 0.302559 0
M  V30 33953 C 3302.31 -3.3219 0.671042 0
M  V30 33954 C 3301.48 -3.9843 1.80478 0
M  V30 33955 C 3300.54 -5.08471 1.3544 0
M  V30 33956 O 3299.57 -5.30614 2.06003 0
M  V30 33957 N 3300.77 -5.80051 0.228212 0
M  V30 33958 H 3303.53 -2.1696 2.06757 0
M  V30 33959 H 3301.1 -1.0669 1.21774 0
M  V30 33960 H 3303.09 -4.03158 0.352948 0
M  V30 33961 H 3301.66 -3.12006 -0.19268 0
M  V30 33962 H 3300.88 -3.20757 2.29148 0
M  V30 33963 H 3302.17 -4.39427 2.56479 0
M  V30 33964 H 3301.56 -5.64554 -0.359977 0
M  V30 33965 H 3300.12 -6.51793 -0.0304839 0
M  V30 33966 N 3303.55 -1.12326 -1.10547 0
M  V30 33967 C 3304.46 -0.803071 -2.20427 0
M  V30 33968 C 3305.48 0.207644 -1.72757 0
M  V30 33969 O 3306.66 0.0415269 -2.01357 0
M  V30 33970 C 3303.72 -0.261093 -3.45715 0
M  V30 33971 C 3302.78 -1.33159 -4.08126 0
M  V30 33972 C 3302.01 -0.81538 -5.27435 0
M  V30 33973 O 3302.24 0.351261 -5.69317 0
M  V30 33974 O 3301.17 -1.58444 -5.80671 0
M  V30 33975 H 3305 -1.72078 -2.50246 0
M  V30 33976 H 3302.58 -0.899836 -1.19261 0
M  V30 33977 H 3304.46 0.0363266 -4.21384 0
M  V30 33978 H 3303.14 0.629193 -3.17526 0
M  V30 33979 H 3302.05 -1.68216 -3.34147 0
M  V30 33980 H 3303.38 -2.1956 -4.40516 0
M  V30 33981 N 3305.03 1.28319 -0.914988 0
M  V30 33982 C 3305.96 2.25519 -0.348768 0
M  V30 33983 C 3306.94 1.53098 0.54771 0
M  V30 33984 O 3308.13 1.81991 0.491087 0
M  V30 33985 C 3305.25 3.34969 0.501338 0
M  V30 33986 C 3304.3 4.25222 -0.329934 0
M  V30 33987 S 3305.13 5.0653 -1.73746 0
M  V30 33988 C 3306.29 6.19472 -0.894689 0
M  V30 33989 H 3306.52 2.73198 -1.17261 0
M  V30 33990 H 3304.05 1.36778 -0.716321 0
M  V30 33991 H 3306.01 3.98483 0.985991 0
M  V30 33992 H 3304.67 2.85954 1.29957 0
M  V30 33993 H 3303.87 5.02982 0.320148 0
M  V30 33994 H 3303.47 3.66438 -0.748285 0
M  V30 33995 H 3305.76 6.77385 -0.124895 0
M  V30 33996 H 3306.7 6.8873 -1.64488 0
M  V30 33997 H 3307.11 5.62764 -0.442316 0
M  V30 33998 N 3306.51 0.679102 1.42218 0
M  V30 33999 C 3307.76 0.202753 2.0108 0
M  V30 34000 C 3308.08 -1.19636 1.53988 0
M  V30 34001 O 3307.35 -1.80414 0.763391 0
M  V30 34002 H 3305.93 0.0719678 0.743525 0
M  V30 34003 H 3308.59 0.876574 1.74075 0
M  V30 34004 H 3307.69 0.207369 3.1141 0
M  V30 34005 N 3307.99 -1.51825 0.42272 0
M  V30 34006 C 3309.24 -2.01555 -0.148312 0
M  V30 34007 C 3309.56 -1.30959 -1.44481 0
M  V30 34008 O 3308.83 -0.439633 -1.90903 0
M  V30 34009 H 3307.41 -0.744761 -0.0577985 0
M  V30 34010 H 3310.07 -1.86619 0.562079 0
M  V30 34011 H 3309.16 -3.103 -0.334711 0
M  V30 34012 N 3309.47 -0.153581 -1.5685 0
M  V30 34013 C 3310.41 0.800628 -2.18387 0
M  V30 34014 C 3311.41 1.25051 -1.14275 0
M  V30 34015 O 3312.61 1.21822 -1.32511 0
M  V30 34016 H 3308.99 0.276413 -0.699357 0
M  V30 34017 H 3310.96 0.257483 -2.97287 0
M  V30 34018 C 3309.71 2.02703 -2.82501 0
M  V30 34019 H 3309.03 1.68986 -3.62331 0
M  V30 34020 H 3310.47 2.67397 -3.29051 0
M  V30 34021 C 3308.93 2.83927 -1.81348 0
M  V30 34022 O 3309.46 3.80491 -1.288 0
M  V30 34023 N 3307.67 2.4859 -1.50503 0
M  V30 34024 H 3307.21 1.70128 -1.93428 0
M  V30 34025 H 3307.17 3.03226 -0.830726 0
M  V30 34026 N 3310.94 1.57141 0.120193 0
M  V30 34027 C 3312.19 1.83977 0.826758 0
M  V30 34028 C 3312.51 0.739046 1.81101 0
M  V30 34029 O 3313.71 0.893781 2.56367 0
M  V30 34030 C 3312.17 3.26179 1.52102 0
M  V30 34031 C 3311.78 4.44258 0.577824 0
M  V30 34032 C 3313.52 3.62265 2.21279 0
M  V30 34033 C 3311.43 5.77487 1.27525 0
M  V30 34034 H 3310.36 0.686194 0.312496 0
M  V30 34035 H 3313.01 1.83328 0.0795021 0
M  V30 34036 H 3311.39 3.21294 2.31486 0
M  V30 34037 H 3312.56 4.60438 -0.18271 0
M  V30 34038 H 3310.88 4.16399 -0.00691667 0
M  V30 34039 H 3313.48 4.59073 2.74146 0
M  V30 34040 H 3313.82 2.89639 2.99023 0
M  V30 34041 H 3314.35 3.68928 1.48785 0
M  V30 34042 H 3311.09 6.53279 0.539122 0
M  V30 34043 H 3310.61 5.65196 2.00782 0
M  V30 34044 H 3312.29 6.21202 1.80877 0
M  V30 34045 N 3312.42 -0.39034 1.5269 0
M  V30 34046 C 3313.65 -1.15675 1.71543 0
M  V30 34047 C 3314.07 -1.83763 0.433204 0
M  V30 34048 O 3313.42 -1.72624 -0.592218 0
M  V30 34049 C 3313.47 -2.20579 2.86404 0
M  V30 34050 O 3313.19 -1.55267 4.09663 0
M  V30 34051 C 3314.7 -3.09957 3.16925 0
M  V30 34052 H 3311.92 -0.346873 0.574387 0
M  V30 34053 H 3314.46 -0.456816 1.99332 0
M  V30 34054 H 3312.61 -2.8621 2.6108 0
M  V30 34055 H 3313.03 -2.24962 4.73806 0
M  V30 34056 H 3314.5 -3.79597 4.00762 0
M  V30 34057 H 3314.98 -3.73389 2.31252 0
M  V30 34058 H 3315.59 -2.49973 3.44084 0
M  V30 34059 N 3313.9 -1.4363 -0.648706 0
M  V30 34060 C 3315.32 -1.2713 -0.964894 0
M  V30 34061 C 3315.52 -0.194286 -2.00561 0
M  V30 34062 O 3314.57 0.425767 -2.48884 0
M  V30 34063 C 3315.89 -2.63712 -1.44487 0
M  V30 34064 C 3317.43 -2.7128 -1.56128 0
M  V30 34065 C 3317.91 -4.08291 -2.07514 0
M  V30 34066 N 3319.4 -4.10379 -2.1481 0
M  V30 34067 C 3320.13 -5.13229 -2.55703 0
M  V30 34068 N 3319.63 -6.2645 -2.95859 0
M  V30 34069 N 3321.42 -5.00583 -2.55682 0
M  V30 34070 H 3313.57 -2.12363 0.039873 0
M  V30 34071 H 3315.84 -0.946943 -0.0447539 0
M  V30 34072 H 3315.54 -3.4351 -0.754556 0
M  V30 34073 H 3315.42 -2.89413 -2.41908 0
M  V30 34074 H 3317.8 -1.91812 -2.24259 0
M  V30 34075 H 3317.89 -2.49339 -0.57127 0
M  V30 34076 H 3317.53 -4.88229 -1.39983 0
M  V30 34077 H 3317.46 -4.27599 -3.07354 0
M  V30 34078 H 3319.95 -3.28655 -1.86532 0
M  V30 34079 H 3320.26 -7.00755 -3.25825 0
M  V30 34080 H 3318.61 -6.29915 -2.93653 0
M  V30 34081 H 3321.8 -4.11194 -2.2369 0
M  V30 34082 H 3321.97 -5.80864 -2.87229 0
M  V30 34083 N 3315.38 0.887495 -1.30236 0
M  V30 34084 C 3316.62 1.64151 -1.19089 0
M  V30 34085 C 3316.96 1.92527 0.254394 0
M  V30 34086 O 3316.23 1.5444 1.1823 0
M  V30 34087 C 3316.52 2.98292 -2.01728 0
M  V30 34088 C 3316.37 2.76905 -3.54463 0
M  V30 34089 C 3317.69 3.99183 -1.85314 0
M  V30 34090 H 3314.81 0.595678 -0.433977 0
M  V30 34091 H 3317.45 1.02717 -1.59841 0
M  V30 34092 H 3315.6 3.50727 -1.67102 0
M  V30 34093 H 3317.27 2.31277 -3.99135 0
M  V30 34094 H 3315.51 2.11457 -3.78772 0
M  V30 34095 H 3316.18 3.72276 -4.07571 0
M  V30 34096 H 3318.66 3.55899 -2.15581 0
M  V30 34097 H 3317.54 4.90956 -2.45465 0
M  V30 34098 H 3317.8 4.34586 -0.811604 0
M  V30 34099 N 3316.86 1.12911 1.0995 0
M  V30 34100 C 3317.77 0.814749 2.19998 0
M  V30 34101 C 3318.78 -0.198479 1.72864 0
M  V30 34102 O 3319.96 -0.0308478 2.01376 0
M  V30 34103 C 3317.02 0.279424 3.45572 0
M  V30 34104 C 3316.08 1.35322 4.07414 0
M  V30 34105 C 3315.32 0.84334 5.26995 0
M  V30 34106 O 3315.54 -0.321064 5.69496 0
M  V30 34107 O 3314.47 1.61522 5.79823 0
M  V30 34108 H 3318.3 1.73403 2.4933 0
M  V30 34109 H 3315.89 0.906149 1.18783 0
M  V30 34110 H 3317.77 -0.0139791 4.21398 0
M  V30 34111 H 3316.44 -0.612345 3.17855 0
M  V30 34112 H 3315.35 1.69986 3.3325 0
M  V30 34113 H 3316.68 2.21893 4.39345 0
M  V30 34114 N 3318.33 -1.27832 0.92178 0
M  V30 34115 C 3319.56 -1.9928 0.574635 0
M  V30 34116 C 3319.98 -1.68358 -0.838875 0
M  V30 34117 O 3319.34 -0.920495 -1.56194 0
M  V30 34118 C 3319.39 -3.51612 0.800088 0
M  V30 34119 O 3318.49 -4.12172 -0.137143 0
M  V30 34120 H 3317.84 -0.625825 0.221898 0
M  V30 34121 H 3320.37 -1.62787 1.23941 0
M  V30 34122 H 3320.38 -4.01716 0.71333 0
M  V30 34123 H 3319.05 -3.73452 1.83048 0
M  V30 34124 H 3317.63 -3.729 -0.000973171 0
M  V30 34125 N 3319.81 -0.686634 -1.41856 0
M  V30 34126 C 3320.72 -0.0159418 -2.34595 0
M  V30 34127 C 3321.74 0.775905 -1.55742 0
M  V30 34128 O 3322.91 0.715517 -1.88261 0
M  V30 34129 C 3319.98 0.915414 -3.34397 0
M  V30 34130 C 3319.04 0.116775 -4.29141 0
M  V30 34131 C 3318.27 1.00377 -5.24176 0
M  V30 34132 O 3318.5 2.24331 -5.24435 0
M  V30 34133 O 3317.43 0.458232 -6.00153 0
M  V30 34134 H 3321.26 -0.780153 -2.93509 0
M  V30 34135 H 3318.84 -0.446921 -1.42559 0
M  V30 34136 H 3320.72 1.44974 -3.95677 0
M  V30 34137 H 3319.4 1.65927 -2.77939 0
M  V30 34138 H 3318.31 -0.461936 -3.71237 0
M  V30 34139 H 3319.64 -0.588223 -4.88672 0
M  V30 34140 N 3321.29 1.51599 -0.430766 0
M  V30 34141 C 3322.24 2.29162 0.398442 0
M  V30 34142 C 3323.23 1.34739 1.02673 0
M  V30 34143 O 3324.44 1.52108 0.962453 0
M  V30 34144 H 3320.81 0.737433 0.147297 0
M  V30 34145 H 3322.78 2.97115 -0.276671 0
M  V30 34146 C 3321.53 3.14114 1.49089 0
M  V30 34147 H 3320.86 3.86654 1.01679 0
M  V30 34148 H 3322.3 3.71453 2.04447 0
M  V30 34149 C 3320.76 2.29064 2.47045 0
M  V30 34150 O 3321.29 1.94573 3.51432 0
M  V30 34151 N 3319.49 1.92413 2.17774 0
M  V30 34152 H 3319.04 2.20661 1.32916 0
M  V30 34153 H 3319 1.35803 2.83557 0
M  V30 34154 N 3322.77 0.161897 1.56766 0
M  V30 34155 C 3323.72 -0.772064 2.17504 0
M  V30 34156 C 3324.69 -1.23362 1.11225 0
M  V30 34157 O 3325.87 -1.30348 1.39334 0
M  V30 34158 C 3323.01 -1.99979 2.81252 0
M  V30 34159 C 3322.12 -1.58267 4.01965 0
M  V30 34160 C 3321.26 -2.76333 4.53667 0
M  V30 34161 C 3320.3 -2.31066 5.66811 0
M  V30 34162 N 3319.43 -3.42193 6.13065 0
M  V30 34163 H 3324.27 -0.247329 2.96972 0
M  V30 34164 H 3321.81 -0.110357 1.46685 0
M  V30 34165 H 3323.77 -2.71974 3.16364 0
M  V30 34166 H 3322.4 -2.49839 2.04403 0
M  V30 34167 H 3321.45 -0.759809 3.72735 0
M  V30 34168 H 3322.76 -1.21032 4.83893 0
M  V30 34169 H 3321.92 -3.56498 4.90911 0
M  V30 34170 H 3320.66 -3.16822 3.70776 0
M  V30 34171 H 3319.66 -1.49345 5.29128 0
M  V30 34172 H 3320.89 -1.91646 6.51497 0
M  V30 34173 H 3318.83 -3.82275 5.33106 0
M  V30 34174 H 3318.75 -3.09021 6.89958 0
M  V30 34175 H 3320.02 -4.2267 6.54958 0
M  V30 34176 N 3324.25 -1.57203 -0.111858 0
M  V30 34177 C 3325.49 -1.85501 -0.819591 0
M  V30 34178 C 3325.83 -0.748661 -1.79189 0
M  V30 34179 O 3325.1 0.244884 -1.92952 0
M  V30 34180 C 3325.38 -3.24402 -1.56318 0
M  V30 34181 C 3325.24 -4.45644 -0.610003 0
M  V30 34182 C 3326.56 -3.6097 -2.51771 0
M  V30 34183 H 3323.67 -0.674727 -0.2965 0
M  V30 34184 H 3326.32 -1.89816 -0.0836407 0
M  V30 34185 H 3324.47 -3.20854 -2.19054 0
M  V30 34186 H 3326.14 -4.61299 0.00906146 0
M  V30 34187 H 3324.38 -4.3373 0.0779251 0
M  V30 34188 H 3325.05 -5.39521 -1.16708 0
M  V30 34189 H 3327.53 -3.65354 -1.99137 0
M  V30 34190 H 3326.4 -4.59124 -3.00827 0
M  V30 34191 H 3326.67 -2.88766 -3.34764 0
M  V30 34192 N 3325.72 0.382237 -1.52894 0
M  V30 34193 C 3326.97 1.12827 -1.68517 0
M  V30 34194 C 3327.3 1.89442 -0.427245 0
M  V30 34195 O 3326.58 1.85802 0.575127 0
M  V30 34196 C 3326.86 2.10103 -2.92453 0
M  V30 34197 C 3326.71 1.37207 -4.28362 0
M  V30 34198 C 3328.03 3.10444 -3.1195 0
M  V30 34199 H 3325.15 0.4088 -0.613231 0
M  V30 34200 H 3327.79 0.410889 -1.85504 0
M  V30 34201 H 3325.94 2.71278 -2.78101 0
M  V30 34202 H 3327.62 0.789436 -4.54495 0
M  V30 34203 H 3325.86 0.673898 -4.28534 0
M  V30 34204 H 3326.53 2.08321 -5.11181 0
M  V30 34205 H 3329.01 2.59363 -3.25377 0
M  V30 34206 H 3327.88 3.75747 -4.00132 0
M  V30 34207 H 3328.14 3.79688 -2.26471 0
M  V30 34208 N 3327.2 1.43972 0.64108 0
M  V30 34209 C 3328.45 1.45514 1.39674 0
M  V30 34210 C 3328.77 0.0877427 1.95403 0
M  V30 34211 O 3329.97 -0.0193488 2.71493 0
M  V30 34212 C 3328.43 2.5613 2.52835 0
M  V30 34213 C 3328.04 3.99032 2.03661 0
M  V30 34214 C 3329.78 2.66881 3.30113 0
M  V30 34215 C 3327.69 5.01091 3.14105 0
M  V30 34216 H 3326.62 0.541345 0.524844 0
M  V30 34217 H 3329.27 1.70004 0.69072 0
M  V30 34218 H 3327.65 2.24863 3.25964 0
M  V30 34219 H 3328.82 4.39819 1.37462 0
M  V30 34220 H 3327.14 3.92435 1.39226 0
M  V30 34221 H 3329.74 3.40304 4.12428 0
M  V30 34222 H 3330.08 1.72359 3.78943 0
M  V30 34223 H 3330.61 2.97509 2.6407 0
M  V30 34224 H 3327.35 5.97207 2.7023 0
M  V30 34225 H 3326.87 4.64905 3.78977 0
M  V30 34226 H 3328.55 5.24344 3.79042 0
M  V30 34227 N 3328.68 -0.880575 1.30704 0
M  V30 34228 C 3329.61 -2.00283 1.20037 0
M  V30 34229 C 3330.59 -1.69862 0.0899913 0
M  V30 34230 O 3331.78 -1.92275 0.27278 0
M  V30 34231 C 3328.91 -3.35544 0.89596 0
M  V30 34232 C 3327.86 -3.80239 1.96475 0
M  V30 34233 C 3327.19 -5.1284 1.51325 0
M  V30 34234 C 3328.49 -3.9849 3.37644 0
M  V30 34235 H 3330.18 -2.09466 2.13926 0
M  V30 34236 H 3327.73 -1.00642 1.02991 0
M  V30 34237 H 3329.68 -4.13582 0.807971 0
M  V30 34238 H 3328.4 -3.26505 -0.0786062 0
M  V30 34239 H 3327.06 -3.04433 2.04245 0
M  V30 34240 H 3326.71 -5.00233 0.526828 0
M  V30 34241 H 3326.41 -5.43715 2.22817 0
M  V30 34242 H 3327.94 -5.93398 1.43913 0
M  V30 34243 H 3329.35 -4.66953 3.32608 0
M  V30 34244 H 3327.75 -4.40748 4.07261 0
M  V30 34245 H 3328.82 -3.02204 3.7921 0
M  V30 34246 N 3330.16 -1.13492 -1.09349 0
M  V30 34247 C 3331.44 -0.808256 -1.7812 0
M  V30 34248 C 3331.82 0.700037 -1.99155 0
M  V30 34249 O 3331.16 1.63759 -1.59359 0
M  V30 34250 C 3331.37 -1.59607 -3.10365 0
M  V30 34251 C 3332.72 -1.78925 -3.8506 0
M  V30 34252 O 3333.75 -1.56212 -3.20119 0
M  V30 34253 O 3332.61 -2.1683 -5.01644 0
M  V30 34254 H 3329.7 -0.295186 -0.772524 0
M  V30 34255 H 3332.25 -1.23958 -1.15899 0
M  V30 34256 H 3331.02 -2.62106 -2.90544 0
M  V30 34257 H 3330.64 -1.15973 -3.8031 0
M  V30 34258 N 3331.64 1.27341 -0.928546 0
M  V30 34259 C 3332.86 1.98973 -0.585195 0
M  V30 34260 C 3333.29 1.68801 0.829935 0
M  V30 34261 O 3332.65 0.928765 1.55704 0
M  V30 34262 C 3332.69 3.51183 -0.818724 0
M  V30 34263 O 3331.8 4.12239 0.115283 0
M  V30 34264 H 3331.14 0.62464 -0.225214 0
M  V30 34265 H 3333.67 1.62128 -1.24803 0
M  V30 34266 H 3333.68 4.01332 -0.734624 0
M  V30 34267 H 3332.35 3.72476 -1.85026 0
M  V30 34268 H 3330.93 3.72895 -0.0188026 0
M  V30 34269 N 3333.12 0.694147 1.4149 0
M  V30 34270 C 3334.36 0.224512 2.01252 0
M  V30 34271 C 3334.69 -1.17539 1.54968 0
M  V30 34272 O 3333.95 -1.80714 0.751073 0
M  V30 34273 C 3334.24 0.228932 3.56666 0
M  V30 34274 C 3333.91 1.57615 4.22455 0
M  V30 34275 C 3332.57 1.94499 4.40141 0
M  V30 34276 C 3334.92 2.46255 4.59356 0
M  V30 34277 C 3332.25 3.19609 4.92003 0
M  V30 34278 C 3334.6 3.70696 5.12608 0
M  V30 34279 C 3333.27 4.07724 5.28505 0
M  V30 34280 H 3332.54 0.0821548 0.736432 0
M  V30 34281 H 3335.19 0.892956 1.69406 0
M  V30 34282 H 3333.49 -0.523059 3.88293 0
M  V30 34283 H 3335.19 -0.151948 4.00712 0
M  V30 34284 H 3331.78 1.27928 4.09063 0
M  V30 34285 H 3335.96 2.1904 4.45348 0
M  V30 34286 H 3331.22 3.48293 5.02495 0
M  V30 34287 H 3335.39 4.39567 5.40142 0
M  V30 34288 H 3333.02 5.0474 5.68455 0
M  V30 34289 N 3334.59 -1.51368 0.438799 0
M  V30 34290 C 3335.87 -1.94702 -0.187186 0
M  V30 34291 C 3336.25 -1.37754 -1.59959 0
M  V30 34292 O 3335.6 -0.56521 -2.21399 0
M  V30 34293 C 3335.81 -3.48617 -0.163429 0
M  V30 34294 C 3337.16 -4.23 -0.368281 0
M  V30 34295 O 3338.18 -3.55381 -0.241479 0
M  V30 34296 O 3337.04 -5.42962 -0.62082 0
M  V30 34297 H 3334.13 -0.816849 -0.12918 0
M  V30 34298 H 3336.68 -1.62263 0.496883 0
M  V30 34299 H 3335.45 -3.82527 0.823949 0
M  V30 34300 H 3335.07 -3.87503 -0.890346 0
M  V30 34301 N 3336.07 -0.170208 -1.56678 0
M  V30 34302 C 3337.48 0.34671 -1.83452 0
M  V30 34303 C 3337.83 1.63139 -1.08996 0
M  V30 34304 O 3336.96 2.1367 -0.342644 0
M  V30 34305 C 3337.55 0.635824 -3.3278 0
M  V30 34306 C 3336.11 1.09718 -3.60054 0
M  V30 34307 C 3335.26 0.132468 -2.76983 0
M  V30 34308 H 3338.21 -0.394492 -1.53719 0
M  V30 34309 H 3338.23 1.488 -3.50198 0
M  V30 34310 H 3337.74 -0.299359 -3.86944 0
M  V30 34311 H 3335.84 2.04751 -3.113 0
M  V30 34312 H 3335.96 1.00711 -4.68395 0
M  V30 34313 H 3334.32 0.629616 -2.46795 0
M  V30 34314 H 3335.1 -0.796716 -3.33927 0
M  V30 34315 N 3337.55 1.5726 0.10352 0
M  V30 34316 C 3338.8 1.84844 0.807198 0
M  V30 34317 C 3339.11 0.758213 1.80307 0
M  V30 34318 O 3340.32 0.920922 2.55404 0
M  V30 34319 C 3338.77 3.27774 1.48634 0
M  V30 34320 C 3338.38 4.44846 0.530672 0
M  V30 34321 C 3340.13 3.64591 2.17425 0
M  V30 34322 C 3338.03 5.78807 1.21393 0
M  V30 34323 H 3336.96 0.68947 0.3052 0
M  V30 34324 H 3339.61 1.83402 0.0600532 0
M  V30 34325 H 3338 3.23732 2.28065 0
M  V30 34326 H 3339.17 4.60218 -0.231536 0
M  V30 34327 H 3337.48 4.16369 -0.051081 0
M  V30 34328 H 3340.08 4.61955 2.69262 0
M  V30 34329 H 3340.42 2.92794 2.95935 0
M  V30 34330 H 3340.96 3.70485 1.44863 0
M  V30 34331 H 3337.7 6.53814 0.469803 0
M  V30 34332 H 3337.22 5.67294 1.94777 0
M  V30 34333 H 3338.9 6.23086 1.74278 0
M  V30 34334 N 3339.03 -0.374123 1.53095 0
M  V30 34335 C 3340.44 -0.715221 1.42677 0
M  V30 34336 C 3340.64 -1.9359 0.559026 0
M  V30 34337 O 3339.7 -2.52471 0.0381772 0
M  V30 34338 C 3341.01 -0.936409 2.85748 0
M  V30 34339 C 3342.56 -1.03695 2.95324 0
M  V30 34340 C 3343.04 -1.29067 4.39438 0
M  V30 34341 N 3344.53 -1.35856 4.42829 0
M  V30 34342 C 3345.26 -1.57181 5.51436 0
M  V30 34343 N 3344.76 -1.75879 6.70103 0
M  V30 34344 N 3346.55 -1.59482 5.39001 0
M  V30 34345 H 3338.7 0.428891 2.08025 0
M  V30 34346 H 3340.96 0.129774 0.939075 0
M  V30 34347 H 3340.67 -0.111386 3.51524 0
M  V30 34348 H 3340.54 -1.84692 3.2889 0
M  V30 34349 H 3342.93 -1.85253 2.29707 0
M  V30 34350 H 3343.01 -0.104021 2.55588 0
M  V30 34351 H 3342.66 -0.480142 5.05625 0
M  V30 34352 H 3342.59 -2.23669 4.76739 0
M  V30 34353 H 3345.08 -1.23055 3.57304 0
M  V30 34354 H 3345.39 -1.917 7.48646 0
M  V30 34355 H 3343.74 -1.73074 6.73105 0
M  V30 34356 H 3346.93 -1.44436 4.45259 0
M  V30 34357 H 3347.1 -1.7576 6.23708 0
M  V30 34358 N 3340.51 -1.4431 -0.633436 0
M  V30 34359 C 3341.47 -1.50644 -1.7274 0
M  V30 34360 C 3342.47 -0.388746 -1.5603 0
M  V30 34361 O 3343.66 -0.651279 -1.61567 0
M  V30 34362 C 3340.79 -1.37814 -3.11801 0
M  V30 34363 H 3341.98 -2.48089 -1.68499 0
M  V30 34364 H 3339.54 -1.31368 -0.846889 0
M  V30 34365 H 3340.27 -0.414539 -3.2164 0
M  V30 34366 H 3340.06 -2.18858 -3.25336 0
M  V30 34367 H 3341.55 -1.45223 -3.91536 0
M  V30 34368 N 3341.98 0.873632 -1.3117 0
M  V30 34369 C 3343.23 1.62879 -1.20824 0
M  V30 34370 C 3343.56 1.92786 0.23396 0
M  V30 34371 O 3342.84 1.55686 1.16586 0
M  V30 34372 C 3343.12 2.96135 -2.0488 0
M  V30 34373 C 3342.97 2.7313 -3.5738 0
M  V30 34374 C 3344.29 3.97195 -1.89537 0
M  V30 34375 H 3341.41 0.591042 -0.440271 0
M  V30 34376 H 3344.05 1.01016 -1.60922 0
M  V30 34377 H 3342.2 3.48935 -1.70812 0
M  V30 34378 H 3343.88 2.27031 -4.01565 0
M  V30 34379 H 3342.12 2.07428 -3.80994 0
M  V30 34380 H 3342.79 3.67932 -4.11497 0
M  V30 34381 H 3345.27 3.53592 -2.19343 0
M  V30 34382 H 3344.14 4.88325 -2.50659 0
M  V30 34383 H 3344.4 4.33701 -0.857652 0
M  V30 34384 N 3343.46 1.1407 1.08746 0
M  V30 34385 C 3344.37 0.838037 2.19121 0
M  V30 34386 C 3345.39 -0.180133 1.73065 0
M  V30 34387 O 3346.56 -0.00948744 2.01398 0
M  V30 34388 C 3343.63 0.31606 3.45256 0
M  V30 34389 C 3342.69 1.39635 4.05956 0
M  V30 34390 C 3341.92 0.899187 5.26071 0
M  V30 34391 O 3342.15 -0.260643 5.69804 0
M  V30 34392 O 3341.08 1.67662 5.78077 0
M  V30 34393 H 3344.91 1.76037 2.47476 0
M  V30 34394 H 3342.49 0.918696 1.17815 0
M  V30 34395 H 3344.37 0.0307166 4.21389 0
M  V30 34396 H 3343.05 -0.578598 3.18487 0
M  V30 34397 H 3341.96 1.73511 3.31428 0
M  V30 34398 H 3343.29 2.2654 4.36967 0
M  V30 34399 N 3344.94 -1.26847 0.935286 0
M  V30 34400 C 3346.22 -1.89159 0.49783 0
M  V30 34401 C 3346.6 -1.8458 -1.02437 0
M  V30 34402 O 3345.95 -1.29613 -1.88183 0
M  V30 34403 C 3346.16 -3.32751 1.0525 0
M  V30 34404 C 3347.5 -4.09628 1.11758 0
M  V30 34405 O 3348.53 -3.41797 1.00266 0
M  V30 34406 O 3347.39 -5.30921 1.29557 0
M  V30 34407 H 3344.48 -0.81111 0.161336 0
M  V30 34408 H 3347.03 -1.3506 1.02747 0
M  V30 34409 H 3345.8 -3.30415 2.09622 0
M  V30 34410 H 3345.42 -3.9438 0.504959 0
M  V30 34411 N 3346.42 -0.701641 -1.4112 0
M  V30 34412 C 3347.33 -0.0408228 -2.34564 0
M  V30 34413 C 3348.34 0.759343 -1.56557 0
M  V30 34414 O 3349.52 0.695509 -1.8901 0
M  V30 34415 C 3346.59 0.879895 -3.35349 0
M  V30 34416 C 3345.65 0.0712524 -4.29241 0
M  V30 34417 C 3344.88 0.948119 -5.25211 0
M  V30 34418 O 3345.1 2.18756 -5.26784 0
M  V30 34419 O 3344.04 0.394552 -6.00605 0
M  V30 34420 H 3347.86 -0.81124 -2.92665 0
M  V30 34421 H 3345.45 -0.462016 -1.42077 0
M  V30 34422 H 3347.33 1.40769 -3.97193 0
M  V30 34423 H 3346 1.6297 -2.79683 0
M  V30 34424 H 3344.91 -0.501285 -3.70726 0
M  V30 34425 H 3346.24 -0.640021 -4.88021 0
M  V30 34426 N 3347.9 1.51133 -0.446821 0
M  V30 34427 C 3349.31 1.59289 -0.0996185 0
M  V30 34428 C 3349.51 1.45701 1.39188 0
M  V30 34429 O 3348.57 1.30307 2.16278 0
M  V30 34430 C 3349.88 2.94065 -0.628186 0
M  V30 34431 C 3351.43 3.07399 -0.589463 0
M  V30 34432 C 3351.9 4.44714 -1.09516 0
M  V30 34433 N 3353.4 4.51059 -1.05355 0
M  V30 34434 C 3354.13 5.55651 -1.4156 0
M  V30 34435 N 3353.63 6.67616 -1.85097 0
M  V30 34436 N 3355.42 5.46061 -1.33317 0
M  V30 34437 H 3347.57 1.5821 -1.41716 0
M  V30 34438 H 3349.83 0.746314 -0.584568 0
M  V30 34439 H 3349.54 3.09408 -1.6721 0
M  V30 34440 H 3349.41 3.77155 -0.0583061 0
M  V30 34441 H 3351.8 2.91718 0.44549 0
M  V30 34442 H 3351.88 2.26126 -1.19586 0
M  V30 34443 H 3351.53 4.61142 -2.12863 0
M  V30 34444 H 3351.46 5.24541 -0.465214 0
M  V30 34445 H 3353.95 3.70704 -0.733942 0
M  V30 34446 H 3354.26 7.43455 -2.10936 0
M  V30 34447 H 3352.6 6.68799 -1.89032 0
M  V30 34448 H 3355.8 4.57476 -0.991627 0
M  V30 34449 H 3355.97 6.27459 -1.61861 0
M  V30 34450 N 3349.37 0.178515 1.56586 0
M  V30 34451 C 3350.28 -0.761282 2.21905 0
M  V30 34452 C 3351.3 -1.24758 1.21291 0
M  V30 34453 O 3352.48 -1.2982 1.53976 0
M  V30 34454 C 3349.54 -1.97043 2.85263 0
M  V30 34455 C 3348.6 -1.53032 4.01098 0
M  V30 34456 C 3347.84 -2.68183 4.61426 0
M  V30 34457 O 3348.06 -3.85239 4.20651 0
M  V30 34458 O 3346.99 -2.41846 5.51175 0
M  V30 34459 H 3350.82 -0.235088 3.02789 0
M  V30 34460 H 3348.4 -0.0500179 1.49316 0
M  V30 34461 H 3350.29 -2.67744 3.25409 0
M  V30 34462 H 3348.96 -2.48555 2.0737 0
M  V30 34463 H 3347.87 -0.792596 3.65607 0
M  V30 34464 H 3349.2 -1.06204 4.80605 0
M  V30 34465 N 3350.85 -1.57312 -0.0951784 0
M  V30 34466 C 3352.1 -1.85269 -0.797384 0
M  V30 34467 C 3352.41 -0.767764 -1.79902 0
M  V30 34468 O 3353.62 -0.934454 -2.54912 0
M  V30 34469 C 3352.08 -3.28558 -1.46894 0
M  V30 34470 C 3351.68 -4.45121 -0.507074 0
M  V30 34471 C 3353.43 -3.65739 -2.15488 0
M  V30 34472 C 3351.34 -5.79443 -1.18321 0
M  V30 34473 H 3350.27 -0.691079 -0.301539 0
M  V30 34474 H 3352.92 -1.83431 -0.0503261 0
M  V30 34475 H 3351.3 -3.24937 -2.26345 0
M  V30 34476 H 3352.47 -4.60089 0.255939 0
M  V30 34477 H 3350.79 -4.16336 0.0731613 0
M  V30 34478 H 3353.38 -4.63376 -2.66808 0
M  V30 34479 H 3353.73 -2.94359 -2.94378 0
M  V30 34480 H 3354.26 -3.71248 -1.42897 0
M  V30 34481 H 3351 -6.54054 -0.435123 0
M  V30 34482 H 3350.52 -5.68319 -1.91765 0
M  V30 34483 H 3352.2 -6.24001 -1.70972 0
M  V30 34484 N 3352.33 0.365999 -1.53291 0
M  V30 34485 C 3353.56 1.13378 -1.73667 0
M  V30 34486 C 3353.98 1.82279 -0.464316 0
M  V30 34487 O 3353.34 1.71718 0.581615 0
M  V30 34488 C 3353.39 2.14008 -2.90229 0
M  V30 34489 O 3352.49 3.21079 -2.58808 0
M  V30 34490 H 3351.83 0.32899 -0.576768 0
M  V30 34491 H 3354.36 0.423252 -2.00174 0
M  V30 34492 H 3354.37 2.57616 -3.16383 0
M  V30 34493 H 3353.05 1.6325 -3.82521 0
M  V30 34494 H 3351.62 2.82447 -2.43471 0
M  V30 34495 N 3353.81 1.44644 0.625774 0
M  V30 34496 C 3355.05 1.47927 1.38728 0
M  V30 34497 C 3355.39 0.113503 1.93868 0
M  V30 34498 O 3354.66 -0.869609 1.73977 0
M  V30 34499 C 3354.95 2.54395 2.54863 0
M  V30 34500 C 3354.8 4.0035 2.05037 0
M  V30 34501 C 3356.12 2.57316 3.57039 0
M  V30 34502 H 3353.24 0.538593 0.503077 0
M  V30 34503 H 3355.88 1.76353 0.707071 0
M  V30 34504 H 3354.03 2.30287 3.1289 0
M  V30 34505 H 3355.7 4.35608 1.51799 0
M  V30 34506 H 3353.94 4.11872 1.36177 0
M  V30 34507 H 3354.61 4.70502 2.88672 0
M  V30 34508 H 3357.09 2.78871 3.08821 0
M  V30 34509 H 3355.97 3.33705 4.35812 0
M  V30 34510 H 3356.23 1.61715 4.11462 0
M  V30 34511 N 3355.29 -0.866663 1.31631 0
M  V30 34512 C 3356.7 -1.4357 1.1935 0
M  V30 34513 C 3357.05 -1.95191 -0.198731 0
M  V30 34514 O 3356.17 -1.86551 -1.09671 0
M  V30 34515 C 3356.77 -2.60967 2.1606 0
M  V30 34516 C 3355.33 -3.13906 2.07702 0
M  V30 34517 C 3354.47 -1.86623 2.05102 0
M  V30 34518 H 3357.43 -0.674903 1.43634 0
M  V30 34519 H 3357.45 -3.37758 1.75213 0
M  V30 34520 H 3356.96 -2.23366 3.17379 0
M  V30 34521 H 3355.06 -3.56119 1.0959 0
M  V30 34522 H 3355.17 -3.75964 2.96964 0
M  V30 34523 H 3353.54 -2.05724 1.50165 0
M  V30 34524 H 3354.32 -1.51256 3.08183 0
M  V30 34525 N 3356.77 -1.14645 -1.0814 0
M  V30 34526 C 3357.73 -0.838627 -2.13307 0
M  V30 34527 C 3358.73 0.157984 -1.60022 0
M  V30 34528 O 3359.92 -0.0706927 -1.74057 0
M  V30 34529 C 3357.05 -0.25065 -3.39977 0
M  V30 34530 H 3358.24 -1.7707 -2.42046 0
M  V30 34531 H 3355.8 -0.95285 -1.23897 0
M  V30 34532 H 3356.53 0.690008 -3.16874 0
M  V30 34533 H 3356.32 -0.968523 -3.7995 0
M  V30 34534 H 3357.81 -0.0525849 -4.17567 0
M  V30 34535 N 3358.24 1.26349 -0.942 0
M  V30 34536 C 3359.15 2.30079 -0.458371 0
M  V30 34537 C 3360.17 1.67587 0.468054 0
M  V30 34538 O 3361.35 1.98381 0.347383 0
M  V30 34539 C 3358.41 3.45663 0.267909 0
M  V30 34540 C 3357.47 4.23634 -0.695177 0
M  V30 34541 C 3356.7 5.337 -0.00346281 0
M  V30 34542 O 3356.93 5.57346 1.21332 0
M  V30 34543 O 3355.86 5.98017 -0.682581 0
M  V30 34544 H 3359.69 2.73512 -1.32003 0
M  V30 34545 H 3357.27 1.31563 -0.70792 0
M  V30 34546 H 3359.15 4.15926 0.676987 0
M  V30 34547 H 3357.83 3.04258 1.10495 0
M  V30 34548 H 3356.74 3.55849 -1.15422 0
M  V30 34549 H 3358.07 4.68791 -1.49985 0
M  V30 34550 N 3359.72 0.709115 1.40746 0
M  V30 34551 C 3360.97 0.242872 2.00232 0
M  V30 34552 C 3361.28 -1.16858 1.56855 0
M  V30 34553 O 3362.49 -1.733 2.08996 0
M  V30 34554 C 3360.95 0.383304 3.57853 0
M  V30 34555 C 3360.55 1.80098 4.10206 0
M  V30 34556 C 3362.3 -0.0224765 4.24494 0
M  V30 34557 C 3360.2 1.89234 5.60307 0
M  V30 34558 H 3359.13 0.0870472 0.748958 0
M  V30 34559 H 3361.79 0.879271 1.61062 0
M  V30 34560 H 3360.17 -0.321573 3.94692 0
M  V30 34561 H 3361.34 2.53571 3.84757 0
M  V30 34562 H 3359.66 2.15764 3.56139 0
M  V30 34563 H 3362.25 0.0251584 5.34694 0
M  V30 34564 H 3362.6 -1.06336 4.0249 0
M  V30 34565 H 3363.13 0.63261 3.92738 0
M  V30 34566 H 3359.87 2.91422 5.87157 0
M  V30 34567 H 3359.39 1.20164 5.8764 0
M  V30 34568 H 3361.07 1.66147 6.25303 0
M  V30 34569 N 3361.2 -1.50894 0.454829 0
M  V30 34570 C 3362.13 -2.31042 -0.337941 0
M  V30 34571 C 3363.11 -1.37221 -1.00521 0
M  V30 34572 O 3364.3 -1.66142 -1.0055 0
M  V30 34573 C 3361.43 -3.16513 -1.42958 0
M  V30 34574 C 3360.38 -4.18754 -0.884833 0
M  V30 34575 C 3359.71 -4.92857 -2.07354 0
M  V30 34576 C 3361.01 -5.22218 0.0927634 0
M  V30 34577 H 3362.7 -2.97565 0.330942 0
M  V30 34578 H 3360.25 -1.43102 0.160602 0
M  V30 34579 H 3362.2 -3.7137 -1.99154 0
M  V30 34580 H 3360.92 -2.47843 -2.127 0
M  V30 34581 H 3359.58 -3.64973 -0.344967 0
M  V30 34582 H 3359.23 -4.20675 -2.75756 0
M  V30 34583 H 3358.93 -5.62005 -1.71535 0
M  V30 34584 H 3360.45 -5.50544 -2.64071 0
M  V30 34585 H 3361.87 -5.72043 -0.379468 0
M  V30 34586 H 3360.26 -5.98993 0.364405 0
M  V30 34587 H 3361.33 -4.73966 1.02391 0
M  V30 34588 N 3362.68 -0.186817 -1.56489 0
M  V30 34589 C 3364.09 0.169149 -1.58701 0
M  V30 34590 C 3364.29 1.61669 -1.20273 0
M  V30 34591 O 3363.35 2.35081 -0.921581 0
M  V30 34592 C 3364.66 -0.12571 -3.00437 0
M  V30 34593 C 3366.21 -0.065155 -3.12932 0
M  V30 34594 C 3366.69 -0.333211 -4.56786 0
M  V30 34595 N 3368.18 -0.281534 -4.62344 0
M  V30 34596 C 3368.91 -0.462905 -5.71528 0
M  V30 34597 N 3368.41 -0.704176 -6.89212 0
M  V30 34598 N 3370.2 -0.397734 -5.60691 0
M  V30 34599 H 3362.35 -1.13151 -1.79752 0
M  V30 34600 H 3364.61 -0.451012 -0.833842 0
M  V30 34601 H 3364.32 -1.12907 -3.33084 0
M  V30 34602 H 3364.19 0.575546 -3.72783 0
M  V30 34603 H 3366.58 0.928796 -2.80102 0
M  V30 34604 H 3366.66 -0.799361 -2.42989 0
M  V30 34605 H 3366.31 -1.32444 -4.90327 0
M  V30 34606 H 3366.24 0.421787 -5.24908 0
M  V30 34607 H 3368.73 -0.101332 -3.77764 0
M  V30 34608 H 3369.04 -0.831603 -7.68313 0
M  V30 34609 H 3367.39 -0.740973 -6.91039 0
M  V30 34610 H 3370.58 -0.209722 -4.6763 0
M  V30 34611 H 3370.75 -0.542504 -6.45725 0
M  V30 34612 N 3364.16 1.57361 0.0868344 0
M  V30 34613 C 3365.1 2.02643 1.10474 0
M  V30 34614 C 3366.07 0.904244 1.39329 0
M  V30 34615 O 3367.26 1.17084 1.50652 0
M  V30 34616 C 3364.4 2.46275 2.41749 0
M  V30 34617 C 3363.51 3.72048 2.19554 0
M  V30 34618 C 3362.65 4.04525 3.44286 0
M  V30 34619 C 3361.68 5.23383 3.1739 0
M  V30 34620 N 3360.82 5.51572 4.34411 0
M  V30 34621 H 3365.66 2.89379 0.711612 0
M  V30 34622 H 3363.2 1.43121 0.33983 0
M  V30 34623 H 3365.16 2.69619 3.18373 0
M  V30 34624 H 3363.79 1.62537 2.78894 0
M  V30 34625 H 3362.84 3.56132 1.33694 0
M  V30 34626 H 3364.15 4.58816 1.95677 0
M  V30 34627 H 3363.3 4.28689 4.29314 0
M  V30 34628 H 3362.04 3.16295 3.71226 0
M  V30 34629 H 3361.05 4.9903 2.30757 0
M  V30 34630 H 3362.27 6.13218 2.91788 0
M  V30 34631 H 3360.22 4.66301 4.6141 0
M  V30 34632 H 3360.14 6.32728 4.13753 0
M  V30 34633 H 3361.4 5.80278 5.20479 0
M  V30 34634 N 3365.63 -0.357865 1.53483 0
M  V30 34635 C 3367.04 -0.934261 1.61643 0
M  V30 34636 C 3367.4 -1.90017 0.488688 0
M  V30 34637 O 3366.52 -2.1297 -0.383743 0
M  V30 34638 C 3367.12 -1.70124 2.9299 0
M  V30 34639 C 3365.67 -2.22687 3.03459 0
M  V30 34640 C 3364.82 -1.0416 2.56994 0
M  V30 34641 H 3367.77 -0.136424 1.58113 0
M  V30 34642 H 3367.79 -2.56305 2.81226 0
M  V30 34643 H 3367.31 -0.99799 3.75049 0
M  V30 34644 H 3365.41 -2.96231 2.26004 0
M  V30 34645 H 3365.52 -2.50039 4.08677 0
M  V30 34646 H 3363.88 -1.41084 2.12055 0
M  V30 34647 H 3364.67 -0.353212 3.41478 0
M  V30 34648 N 3367.11 -1.44974 -0.618094 0
M  V30 34649 C 3368.53 -1.29148 -0.937711 0
M  V30 34650 C 3368.73 -0.236785 -2.00104 0
M  V30 34651 O 3367.78 0.372879 -2.49732 0
M  V30 34652 C 3369.1 -2.66718 -1.38861 0
M  V30 34653 C 3370.64 -2.74531 -1.50338 0
M  V30 34654 C 3371.12 -4.12601 -1.98807 0
M  V30 34655 N 3372.61 -4.14843 -2.06057 0
M  V30 34656 C 3373.35 -5.18537 -2.44759 0
M  V30 34657 N 3372.84 -6.32584 -2.82505 0
M  V30 34658 N 3374.63 -5.05893 -2.45007 0
M  V30 34659 H 3366.79 -2.1223 0.0849093 0
M  V30 34660 H 3369.05 -0.947679 -0.0246577 0
M  V30 34661 H 3368.75 -3.45034 -0.681522 0
M  V30 34662 H 3368.63 -2.9448 -2.35715 0
M  V30 34663 H 3371.02 -1.96525 -2.2014 0
M  V30 34664 H 3371.1 -2.50495 -0.518253 0
M  V30 34665 H 3370.74 -4.91088 -1.29596 0
M  V30 34666 H 3370.67 -4.34022 -2.98215 0
M  V30 34667 H 3373.16 -3.32538 -1.79519 0
M  V30 34668 H 3373.47 -7.07509 -3.10887 0
M  V30 34669 H 3371.82 -6.36002 -2.80225 0
M  V30 34670 H 3375.01 -4.15846 -2.14918 0
M  V30 34671 H 3375.18 -5.86826 -2.74843 0
M  V30 34672 N 3368.59 0.85967 -1.32089 0
M  V30 34673 C 3369.54 1.96782 -1.20605 0
M  V30 34674 C 3370.51 1.65859 -0.0893841 0
M  V30 34675 O 3371.69 1.88964 -0.264055 0
M  V30 34676 C 3368.83 3.32335 -0.92993 0
M  V30 34677 C 3367.94 3.75788 -2.13091 0
M  V30 34678 C 3367.08 5.00107 -1.7907 0
M  V30 34679 C 3366.12 5.36038 -2.95517 0
M  V30 34680 N 3365.26 6.51535 -2.61622 0
M  V30 34681 H 3370.1 2.05936 -2.15393 0
M  V30 34682 H 3367.63 1.00801 -1.07133 0
M  V30 34683 H 3369.59 4.10397 -0.750357 0
M  V30 34684 H 3368.22 3.22794 -0.0188496 0
M  V30 34685 H 3367.27 2.93421 -2.42092 0
M  V30 34686 H 3368.58 3.98339 -3.00212 0
M  V30 34687 H 3367.74 5.85864 -1.57635 0
M  V30 34688 H 3366.48 4.79482 -0.891543 0
M  V30 34689 H 3365.48 4.48796 -3.17589 0
M  V30 34690 H 3366.71 5.58623 -3.86157 0
M  V30 34691 H 3364.65 6.32436 -1.74242 0
M  V30 34692 H 3364.57 6.74081 -3.42274 0
M  V30 34693 H 3365.84 7.40457 -2.43605 0
M  V30 34694 N 3370.07 1.15217 1.0753 0
M  V30 34695 C 3371.31 0.925923 1.80091 0
M  V30 34696 C 3371.64 -0.547046 1.86648 0
M  V30 34697 O 3370.9 -1.42161 1.34494 0
M  V30 34698 C 3371.2 1.48306 3.25177 0
M  V30 34699 C 3370.86 2.9762 3.38723 0
M  V30 34700 C 3369.52 3.38382 3.42127 0
M  V30 34701 C 3371.88 3.93589 3.41669 0
M  V30 34702 C 3369.2 4.73758 3.46078 0
M  V30 34703 C 3371.56 5.28834 3.47156 0
M  V30 34704 C 3370.22 5.69095 3.48837 0
M  V30 34705 H 3369.49 0.338819 0.659001 0
M  V30 34706 H 3372.14 1.43731 1.26546 0
M  V30 34707 H 3370.44 0.892818 3.81492 0
M  V30 34708 H 3372.14 1.28383 3.79893 0
M  V30 34709 H 3368.73 2.6511 3.36771 0
M  V30 34710 H 3372.91 3.63171 3.38261 0
M  V30 34711 H 3368.17 5.04299 3.45677 0
M  V30 34712 H 3372.34 6.02995 3.48382 0
M  V30 34713 H 3369.97 6.73977 3.51652 0
M  V30 34714 N 3371.55 -1.25848 0.948687 0
M  V30 34715 C 3372.96 -1.7532 0.64186 0
M  V30 34716 C 3373.31 -1.77173 -0.842872 0
M  V30 34717 O 3372.43 -1.3887 -1.65964 0
M  V30 34718 C 3373.03 -3.18381 1.1584 0
M  V30 34719 C 3371.59 -3.65436 0.901848 0
M  V30 34720 C 3370.73 -2.44677 1.30493 0
M  V30 34721 H 3373.69 -1.11818 1.12616 0
M  V30 34722 H 3373.71 -3.76989 0.515706 0
M  V30 34723 H 3373.22 -3.17001 2.23902 0
M  V30 34724 H 3371.32 -3.72239 -0.164069 0
M  V30 34725 H 3371.43 -4.53874 1.53413 0
M  V30 34726 H 3369.8 -2.44213 0.723321 0
M  V30 34727 H 3370.58 -2.45992 2.39464 0
M  V30 34728 N 3373.02 -0.716569 -1.40368 0
M  V30 34729 C 3374.44 -0.328752 -1.83783 0
M  V30 34730 C 3374.79 1.13678 -1.59912 0
M  V30 34731 O 3373.91 1.87494 -1.08051 0
M  V30 34732 C 3374.51 -0.589906 -3.33625 0
M  V30 34733 C 3373.07 -0.255786 -3.7553 0
M  V30 34734 C 3372.21 -0.861779 -2.63569 0
M  V30 34735 H 3375.16 -0.915644 -1.29621 0
M  V30 34736 H 3375.18 0.144523 -3.80225 0
M  V30 34737 H 3374.7 -1.65661 -3.50967 0
M  V30 34738 H 3372.8 0.805819 -3.63782 0
M  V30 34739 H 3372.91 -0.725471 -4.73575 0
M  V30 34740 H 3371.27 -0.289751 -2.53047 0
M  V30 34741 H 3372.06 -1.93277 -2.83723 0
M  V30 34742 N 3374.5 1.50651 -0.462825 0
M  V30 34743 C 3375.47 2.26895 0.324224 0
M  V30 34744 C 3376.47 1.31343 0.927664 0
M  V30 34745 O 3377.66 1.5484 0.798132 0
M  V30 34746 C 3374.79 3.08002 1.46107 0
M  V30 34747 H 3375.98 2.97917 -0.344318 0
M  V30 34748 H 3373.53 1.54791 -0.216658 0
M  V30 34749 H 3374.27 2.41458 2.16492 0
M  V30 34750 H 3374.05 3.78213 1.03427 0
M  V30 34751 H 3375.54 3.65688 2.01649 0
M  V30 34752 N 3375.98 0.195113 1.56388 0
M  V30 34753 C 3376.91 -0.720932 2.22092 0
M  V30 34754 C 3377.89 -1.22126 1.18403 0
M  V30 34755 O 3379.08 -1.2701 1.46909 0
M  V30 34756 C 3376.21 -1.94054 2.88028 0
M  V30 34757 C 3375.16 -1.57513 3.97962 0
M  V30 34758 C 3374.49 -2.87135 4.51063 0
M  V30 34759 C 3375.79 -0.785054 5.16366 0
M  V30 34760 H 3377.48 -0.173193 2.98899 0
M  V30 34761 H 3375.03 -0.0818615 1.43767 0
M  V30 34762 H 3376.98 -2.5866 3.32676 0
M  V30 34763 H 3375.7 -2.51281 2.08627 0
M  V30 34764 H 3374.36 -0.952653 3.54006 0
M  V30 34765 H 3374.01 -3.42451 3.68424 0
M  V30 34766 H 3373.71 -2.6343 5.25241 0
M  V30 34767 H 3375.23 -3.52729 4.98412 0
M  V30 34768 H 3376.65 -1.33421 5.57559 0
M  V30 34769 H 3375.05 -0.646126 5.96611 0
M  V30 34770 H 3376.12 0.213874 4.84428 0
M  V30 34771 N 3377.46 -1.57404 -0.0784879 0
M  V30 34772 C 3378.87 -1.7571 -0.631101 0
M  V30 34773 C 3379.22 -0.819637 -1.78259 0
M  V30 34774 O 3378.35 -0.00210716 -2.164 0
M  V30 34775 C 3378.94 -3.18627 -1.15162 0
M  V30 34776 C 3377.5 -3.383 -1.65015 0
M  V30 34777 C 3376.65 -2.71447 -0.566725 0
M  V30 34778 H 3379.6 -1.58012 0.147659 0
M  V30 34779 H 3379.62 -3.22416 -2.02059 0
M  V30 34780 H 3379.13 -3.86833 -0.313331 0
M  V30 34781 H 3377.23 -2.75198 -2.51191 0
M  V30 34782 H 3377.34 -4.46709 -1.73171 0
M  V30 34783 H 3375.71 -2.33811 -1.01017 0
M  V30 34784 H 3376.49 -3.42304 0.261264 0
M  V30 34785 N 3378.94 0.34972 -1.53671 0
M  V30 34786 C 3380.19 1.08804 -1.69837 0
M  V30 34787 C 3380.5 1.89992 -0.465003 0
M  V30 34788 O 3381.7 2.66715 -0.507499 0
M  V30 34789 C 3380.16 1.98366 -3.00298 0
M  V30 34790 C 3379.77 1.22414 -4.30951 0
M  V30 34791 C 3381.51 2.72093 -3.2583 0
M  V30 34792 C 3379.42 2.10971 -5.5249 0
M  V30 34793 H 3378.35 0.409904 -0.632847 0
M  V30 34794 H 3381 0.347937 -1.80171 0
M  V30 34795 H 3379.38 2.76171 -2.83805 0
M  V30 34796 H 3380.56 0.495626 -4.58127 0
M  V30 34797 H 3378.87 0.604824 -4.11984 0
M  V30 34798 H 3381.47 3.38607 -4.13823 0
M  V30 34799 H 3381.81 3.38326 -2.42572 0
M  V30 34800 H 3382.34 2.01364 -3.4307 0
M  V30 34801 H 3379.08 1.4929 -6.38273 0
M  V30 34802 H 3378.6 2.81628 -5.29571 0
M  V30 34803 H 3380.28 2.70166 -5.87894 0
M  V30 34804 N 3380.41 1.45299 0.610397 0
M  V30 34805 C 3381.66 1.50381 1.36956 0
M  V30 34806 C 3382.02 0.142412 1.91872 0
M  V30 34807 O 3381.31 -0.845302 1.71945 0
M  V30 34808 C 3381.5 2.51628 2.53807 0
M  V30 34809 C 3381.33 3.97479 2.10334 0
M  V30 34810 C 3380.1 4.65469 1.96638 0
M  V30 34811 C 3382.3 4.86096 1.67973 0
M  V30 34812 N 3380.28 5.96054 1.46945 0
M  V30 34813 C 3381.65 6.06287 1.29676 0
M  V30 34814 C 3383.71 4.72982 1.5554 0
M  V30 34815 C 3382.41 7.14817 0.801859 0
M  V30 34816 C 3384.44 5.81556 1.07454 0
M  V30 34817 C 3383.8 7.00901 0.701194 0
M  V30 34818 H 3379.9 0.605244 0.49518 0
M  V30 34819 H 3382.48 1.81755 0.698089 0
M  V30 34820 H 3380.65 2.22211 3.18554 0
M  V30 34821 H 3382.38 2.46875 3.20678 0
M  V30 34822 H 3379.14 4.20581 2.17736 0
M  V30 34823 H 3379.56 6.65484 1.24339 0
M  V30 34824 H 3384.21 3.81129 1.83031 0
M  V30 34825 H 3381.92 8.06461 0.514492 0
M  V30 34826 H 3385.51 5.73442 0.98264 0
M  V30 34827 H 3384.39 7.83485 0.33483 0
M  V30 34828 N 3381.89 -0.852653 1.32543 0
M  V30 34829 C 3382.86 -1.94295 1.21581 0
M  V30 34830 C 3383.86 -1.60204 0.138346 0
M  V30 34831 O 3385.05 -1.69804 0.388894 0
M  V30 34832 C 3382.18 -3.29605 0.870267 0
M  V30 34833 H 3383.37 -2.05442 2.1848 0
M  V30 34834 H 3380.92 -1.04308 1.16403 0
M  V30 34835 H 3381.66 -3.24155 -0.0968128 0
M  V30 34836 H 3381.44 -3.55725 1.6493 0
M  V30 34837 H 3382.93 -4.09511 0.817946 0
M  V30 34838 N 3383.37 -1.15786 -1.06918 0
M  V30 34839 C 3384.79 -0.901432 -1.31706 0
M  V30 34840 C 3384.99 0.449168 -1.9643 0
M  V30 34841 O 3384.04 1.19011 -2.22694 0
M  V30 34842 C 3385.36 -2.04572 -2.20388 0
M  V30 34843 C 3386.9 -2.08076 -2.33823 0
M  V30 34844 C 3387.38 -3.21841 -3.25856 0
M  V30 34845 N 3388.87 -3.21517 -3.33438 0
M  V30 34846 C 3389.6 -4.06185 -4.04724 0
M  V30 34847 N 3389.1 -5.00925 -4.78587 0
M  V30 34848 N 3390.89 -3.94193 -4.0071 0
M  V30 34849 H 3383.04 -2.0275 -0.632953 0
M  V30 34850 H 3385.31 -0.884326 -0.341571 0
M  V30 34851 H 3385.01 -3.0209 -1.80096 0
M  V30 34852 H 3384.89 -1.98185 -3.2094 0
M  V30 34853 H 3387.27 -1.11155 -2.73365 0
M  V30 34854 H 3387.36 -2.18529 -1.32961 0
M  V30 34855 H 3387 -4.19017 -2.87032 0
M  V30 34856 H 3386.93 -3.08624 -4.26683 0
M  V30 34857 H 3389.42 -2.5291 -2.80794 0
M  V30 34858 H 3389.73 -5.61962 -5.30489 0
M  V30 34859 H 3388.08 -5.0491 -4.77589 0
M  V30 34860 H 3391.27 -3.19486 -3.42121 0
M  V30 34861 H 3391.44 -4.604 -4.56 0
M  V30 34862 N 3384.85 1.25343 -0.955348 0
M  V30 34863 C 3386.26 1.74977 -0.651148 0
M  V30 34864 C 3386.61 1.77617 0.833464 0
M  V30 34865 O 3385.74 1.39748 1.65225 0
M  V30 34866 C 3386.33 3.17762 -1.17527 0
M  V30 34867 C 3384.89 3.64953 -0.921215 0
M  V30 34868 C 3384.04 2.43982 -1.31789 0
M  V30 34869 H 3386.99 1.1122 -1.13207 0
M  V30 34870 H 3387.01 3.7671 -0.535691 0
M  V30 34871 H 3386.52 3.15809 -2.2558 0
M  V30 34872 H 3384.62 3.7232 0.144326 0
M  V30 34873 H 3384.73 4.53054 -1.55818 0
M  V30 34874 H 3383.1 2.43826 -0.736262 0
M  V30 34875 H 3383.88 2.44718 -2.40765 0
M  V30 34876 N 3386.33 0.724003 1.39986 0
M  V30 34877 C 3387.6 0.193935 1.94636 0
M  V30 34878 C 3387.98 -1.30209 1.66159 0
M  V30 34879 O 3387.33 -2.06236 0.983819 0
M  V30 34880 C 3387.54 0.515712 3.45169 0
M  V30 34881 C 3388.89 0.458993 4.22112 0
M  V30 34882 O 3389.91 0.45226 3.53317 0
M  V30 34883 O 3388.77 0.443879 5.44694 0
M  V30 34884 H 3385.87 0.031676 0.826393 0
M  V30 34885 H 3388.41 0.802111 1.49547 0
M  V30 34886 H 3387.19 1.55011 3.59287 0
M  V30 34887 H 3386.81 -0.121998 3.97413 0
M  V30 34888 N 3387.81 -1.50403 0.470808 0
M  V30 34889 C 3389.04 -2.06438 -0.0818582 0
M  V30 34890 C 3389.44 -1.33485 -1.34083 0
M  V30 34891 O 3388.79 -0.397596 -1.79346 0
M  V30 34892 C 3388.85 -3.56844 -0.43619 0
M  V30 34893 C 3388.51 -4.51281 0.72072 0
M  V30 34894 C 3389.51 -4.94581 1.60267 0
M  V30 34895 C 3387.19 -4.9397 0.910965 0
M  V30 34896 C 3389.19 -5.79277 2.65927 0
M  V30 34897 C 3386.88 -5.78449 1.97079 0
M  V30 34898 C 3387.87 -6.21003 2.8433 0
M  V30 34899 O 3387.56 -7.03798 3.88488 0
M  V30 34900 H 3387.29 -0.67599 0.00362876 0
M  V30 34901 H 3389.85 -1.94558 0.658522 0
M  V30 34902 H 3388.08 -3.66625 -1.22975 0
M  V30 34903 H 3389.77 -3.95245 -0.923906 0
M  V30 34904 H 3390.53 -4.6227 1.46737 0
M  V30 34905 H 3386.41 -4.60368 0.241306 0
M  V30 34906 H 3389.96 -6.12413 3.3406 0
M  V30 34907 H 3385.85 -6.10173 2.10615 0
M  V30 34908 H 3386.62 -7.22048 3.85473 0
M  V30 34909 N 3389.28 -0.203404 -1.56282 0
M  V30 34910 C 3390.23 0.730745 -2.20823 0
M  V30 34911 C 3391.23 1.21352 -1.18195 0
M  V30 34912 O 3392.43 1.17545 -1.3632 0
M  V30 34913 H 3388.81 0.254024 -0.707797 0
M  V30 34914 H 3390.78 0.162773 -2.97956 0
M  V30 34915 C 3389.53 1.93613 -2.88807 0
M  V30 34916 H 3388.85 1.57373 -3.67524 0
M  V30 34917 H 3390.29 2.56793 -3.37392 0
M  V30 34918 C 3388.75 2.78014 -1.90289 0
M  V30 34919 O 3389.28 3.76201 -1.40839 0
M  V30 34920 N 3387.48 2.43676 -1.58336 0
M  V30 34921 H 3387.03 1.63888 -1.98743 0
M  V30 34922 H 3386.99 3.0043 -0.926774 0
M  V30 34923 N 3390.76 1.57444 0.0701393 0
M  V30 34924 C 3392.17 1.76042 0.621774 0
M  V30 34925 C 3392.52 0.829079 1.77822 0
M  V30 34926 O 3391.65 0.0135833 2.16396 0
M  V30 34927 C 3392.24 3.19233 1.13471 0
M  V30 34928 C 3390.8 3.3917 1.63219 0
M  V30 34929 C 3389.95 2.71744 0.552321 0
M  V30 34930 H 3392.9 1.57931 -0.156036 0
M  V30 34931 H 3392.92 3.23483 2.00346 0
M  V30 34932 H 3392.43 3.86994 0.292812 0
M  V30 34933 H 3390.53 2.76526 2.49728 0
M  V30 34934 H 3390.65 4.47621 1.70799 0
M  V30 34935 H 3389.01 2.34344 0.997756 0
M  V30 34936 H 3389.79 3.42161 -0.279414 0
M  V30 34937 N 3392.24 -0.341566 1.53854 0
M  V30 34938 C 3393.65 -0.917064 1.62625 0
M  V30 34939 C 3394 -1.89488 0.508815 0
M  V30 34940 O 3393.13 -2.13365 -0.361133 0
M  V30 34941 C 3393.72 -1.67007 2.94778 0
M  V30 34942 C 3392.28 -2.19455 3.05804 0
M  V30 34943 C 3391.43 -1.01429 2.58084 0
M  V30 34944 H 3394.38 -0.119646 1.58248 0
M  V30 34945 H 3394.4 -2.53308 2.83929 0
M  V30 34946 H 3393.91 -0.958155 3.76086 0
M  V30 34947 H 3392.01 -2.93817 2.29134 0
M  V30 34948 H 3392.13 -2.45691 4.11306 0
M  V30 34949 H 3390.49 -1.38827 2.13539 0
M  V30 34950 H 3391.27 -0.316973 3.41834 0
M  V30 34951 N 3393.72 -1.45621 -0.602683 0
M  V30 34952 C 3394.65 -1.57513 -1.72371 0
M  V30 34953 C 3395.63 -0.426418 -1.64668 0
M  V30 34954 O 3396.81 -0.650176 -1.82993 0
M  V30 34955 C 3393.94 -1.54615 -3.10984 0
M  V30 34956 C 3392.9 -2.68254 -3.33502 0
M  V30 34957 C 3392.22 -2.50411 -4.72439 0
M  V30 34958 C 3393.52 -4.1023 -3.23278 0
M  V30 34959 H 3395.22 -2.51351 -1.62675 0
M  V30 34960 H 3392.76 -1.20968 -0.781196 0
M  V30 34961 H 3394.72 -1.61532 -3.89211 0
M  V30 34962 H 3393.44 -0.573106 -3.21532 0
M  V30 34963 H 3392.1 -2.60774 -2.57668 0
M  V30 34964 H 3391.75 -1.51234 -4.79726 0
M  V30 34965 H 3391.45 -3.2662 -4.8846 0
M  V30 34966 H 3392.97 -2.59189 -5.52859 0
M  V30 34967 H 3394.39 -4.18927 -3.91373 0
M  V30 34968 H 3392.78 -4.86867 -3.50828 0
M  V30 34969 H 3393.85 -4.31792 -2.20644 0
M  V30 34970 N 3395.2 0.845612 -1.32993 0
M  V30 34971 C 3396.13 1.9703 -1.25305 0
M  V30 34972 C 3397.11 1.69563 -0.134996 0
M  V30 34973 O 3398.29 1.91484 -0.323663 0
M  V30 34974 C 3395.42 3.33051 -0.984609 0
M  V30 34975 C 3394.38 3.74896 -2.06487 0
M  V30 34976 C 3393.7 5.08648 -1.64869 0
M  V30 34977 C 3395 3.89397 -3.4809 0
M  V30 34978 H 3396.7 2.03721 -2.19404 0
M  V30 34979 H 3394.24 0.978765 -1.05623 0
M  V30 34980 H 3396.19 4.11294 -0.917341 0
M  V30 34981 H 3394.92 3.26599 -0.00798856 0
M  V30 34982 H 3393.58 2.98911 -2.12245 0
M  V30 34983 H 3393.23 4.98661 -0.659271 0
M  V30 34984 H 3392.93 5.37617 -2.37154 0
M  V30 34985 H 3394.45 5.89374 -1.59595 0
M  V30 34986 H 3395.86 4.5797 -3.44871 0
M  V30 34987 H 3394.26 4.29795 -4.18803 0
M  V30 34988 H 3395.33 2.92044 -3.87089 0
M  V30 34989 N 3396.67 1.16351 1.06302 0
M  V30 34990 C 3397.58 0.884327 2.17294 0
M  V30 34991 C 3398.6 -0.143383 1.73408 0
M  V30 34992 O 3399.78 0.0332341 2.01373 0
M  V30 34993 C 3396.84 0.389223 3.44508 0
M  V30 34994 C 3395.9 1.48215 4.02903 0
M  V30 34995 C 3395.13 1.01057 5.24045 0
M  V30 34996 O 3395.36 -0.139721 5.70229 0
M  V30 34997 O 3394.29 1.79886 5.74391 0
M  V30 34998 H 3398.12 1.81247 2.43687 0
M  V30 34999 H 3395.7 0.94348 1.1584 0
M  V30 35000 H 3397.58 0.120092 4.21229 0
M  V30 35001 H 3396.26 -0.510912 3.19643 0
M  V30 35002 H 3395.17 1.80502 3.27673 0
M  V30 35003 H 3396.5 2.35758 4.32064 0
M  V30 35004 N 3398.15 -1.24835 0.961982 0
M  V30 35005 C 3399.38 -1.97351 0.637743 0
M  V30 35006 C 3399.8 -1.70942 -0.784889 0
M  V30 35007 O 3399.16 -0.969721 -1.53186 0
M  V30 35008 C 3399.21 -3.48889 0.911546 0
M  V30 35009 O 3398.31 -4.124 -0.00594419 0
M  V30 35010 H 3397.65 -0.618449 0.241696 0
M  V30 35011 H 3400.18 -1.58762 1.29058 0
M  V30 35012 H 3400.19 -3.99243 0.840772 0
M  V30 35013 H 3398.87 -3.67439 1.94837 0
M  V30 35014 H 3397.44 -3.72714 0.117663 0
M  V30 35015 N 3399.63 -0.731417 -1.396 0
M  V30 35016 C 3400.88 -0.287083 -2.01364 0
M  V30 35017 C 3401.23 1.11224 -1.56993 0
M  V30 35018 O 3400.52 1.7468 -0.787232 0
M  V30 35019 C 3400.72 -0.323415 -3.55934 0
M  V30 35020 C 3400.55 -1.72473 -4.15311 0
M  V30 35021 C 3399.32 -2.33613 -4.48055 0
M  V30 35022 C 3401.51 -2.67772 -4.39093 0
M  V30 35023 N 3399.5 -3.65936 -4.92914 0
M  V30 35024 C 3400.87 -3.84824 -4.86118 0
M  V30 35025 C 3402.92 -2.6558 -4.21155 0
M  V30 35026 C 3401.63 -5.00014 -5.17086 0
M  V30 35027 C 3403.65 -3.7991 -4.53235 0
M  V30 35028 C 3403.01 -4.95698 -5.00463 0
M  V30 35029 H 3399.11 -0.15123 -0.767238 0
M  V30 35030 H 3401.7 -0.956618 -1.69579 0
M  V30 35031 H 3399.87 0.315751 -3.87114 0
M  V30 35032 H 3401.6 0.139129 -4.04461 0
M  V30 35033 H 3398.35 -1.85569 -4.35731 0
M  V30 35034 H 3398.78 -4.33861 -5.19706 0
M  V30 35035 H 3403.42 -1.77257 -3.83849 0
M  V30 35036 H 3401.14 -5.88969 -5.533 0
M  V30 35037 H 3404.72 -3.79508 -4.40982 0
M  V30 35038 H 3403.6 -5.82699 -5.24816 0
M  V30 35039 N 3401.11 1.50152 -0.478778 0
M  V30 35040 C 3402.06 2.2869 0.311386 0
M  V30 35041 C 3403.03 1.34083 0.980352 0
M  V30 35042 O 3404.21 1.63027 0.991309 0
M  V30 35043 C 3401.35 3.16177 1.38297 0
M  V30 35044 C 3400.46 4.25822 0.728009 0
M  V30 35045 C 3399.6 5.00555 1.77814 0
M  V30 35046 C 3398.64 6.02065 1.10384 0
M  V30 35047 N 3397.77 6.70047 2.09716 0
M  V30 35048 H 3402.61 2.95761 -0.364644 0
M  V30 35049 H 3400.15 1.45846 -0.191671 0
M  V30 35050 H 3402.11 3.65258 2.01599 0
M  V30 35051 H 3400.74 2.51137 2.02806 0
M  V30 35052 H 3399.79 3.80396 -0.0177695 0
M  V30 35053 H 3401.1 4.98414 0.196121 0
M  V30 35054 H 3400.26 5.53393 2.48678 0
M  V30 35055 H 3399 4.27686 2.34384 0
M  V30 35056 H 3398 5.48479 0.380864 0
M  V30 35057 H 3399.23 6.7691 0.544926 0
M  V30 35058 H 3397.17 5.99964 2.6529 0
M  V30 35059 H 3397.09 7.38541 1.61533 0
M  V30 35060 H 3398.36 7.275 2.79937 0
M  V30 35061 N 3402.59 0.211689 1.56172 0
M  V30 35062 C 3403.86 -0.471161 1.89841 0
M  V30 35063 C 3404.24 -1.78459 1.12763 0
M  V30 35064 O 3403.59 -2.273 0.233857 0
M  V30 35065 C 3403.8 -0.673754 3.42435 0
M  V30 35066 C 3405.15 -0.985647 4.13001 0
M  V30 35067 O 3406.17 -0.760891 3.47978 0
M  V30 35068 O 3405.03 -1.41166 5.27953 0
M  V30 35069 H 3402.13 -0.247768 0.789012 0
M  V30 35070 H 3404.67 0.253139 1.67801 0
M  V30 35071 H 3403.44 0.253102 3.90481 0
M  V30 35072 H 3403.07 -1.44991 3.70221 0
M  V30 35073 N 3404.06 -1.57479 -0.0617887 0
M  V30 35074 C 3405.48 -1.76369 -0.61243 0
M  V30 35075 C 3405.83 -0.838497 -1.7738 0
M  V30 35076 O 3404.95 -0.0250591 -2.16385 0
M  V30 35077 C 3405.55 -3.19831 -1.11776 0
M  V30 35078 C 3404.11 -3.40031 -1.61418 0
M  V30 35079 C 3403.25 -2.72033 -0.537902 0
M  V30 35080 H 3406.2 -1.57846 0.16441 0
M  V30 35081 H 3406.22 -3.24541 -1.98628 0
M  V30 35082 H 3405.74 -3.87144 -0.272285 0
M  V30 35083 H 3403.84 -2.77847 -2.48258 0
M  V30 35084 H 3403.95 -4.4852 -1.68423 0
M  V30 35085 H 3402.31 -2.34869 -0.985314 0
M  V30 35086 H 3403.1 -3.42008 0.297555 0
M  V30 35087 N 3405.54 0.333401 -1.54033 0
M  V30 35088 C 3406.82 1.09013 -1.62406 0
M  V30 35089 C 3407.2 2.06211 -0.451689 0
M  V30 35090 O 3406.55 2.21656 0.555047 0
M  V30 35091 C 3406.76 1.8008 -2.98952 0
M  V30 35092 C 3408.11 2.33457 -3.54659 0
M  V30 35093 O 3409.13 1.90161 -3.01193 0
M  V30 35094 O 3407.99 3.12696 -4.48201 0
M  V30 35095 H 3405.08 0.50191 -0.657279 0
M  V30 35096 H 3407.63 0.334081 -1.66379 0
M  V30 35097 H 3406.4 1.09326 -3.75717 0
M  V30 35098 H 3406.02 2.62518 -2.98614 0
M  V30 35099 N 3407.02 1.45939 0.594952 0
M  V30 35100 C 3408.25 1.53939 1.37791 0
M  V30 35101 C 3408.66 0.175124 1.88388 0
M  V30 35102 O 3408 -0.835728 1.63589 0
M  V30 35103 C 3408.06 2.47326 2.60902 0
M  V30 35104 C 3407.73 3.93816 2.31858 0
M  V30 35105 C 3408.72 4.83369 1.91442 0
M  V30 35106 C 3406.41 4.38844 2.4438 0
M  V30 35107 C 3408.4 6.1596 1.63927 0
M  V30 35108 C 3406.09 5.71472 2.16477 0
M  V30 35109 C 3407.09 6.5985 1.76314 0
M  V30 35110 O 3406.78 7.90019 1.48746 0
M  V30 35111 H 3406.51 0.523463 0.427741 0
M  V30 35112 H 3409.06 1.91935 0.731453 0
M  V30 35113 H 3407.29 2.04325 3.28311 0
M  V30 35114 H 3408.98 2.45869 3.2296 0
M  V30 35115 H 3409.75 4.49842 1.81293 0
M  V30 35116 H 3405.63 3.70288 2.74605 0
M  V30 35117 H 3409.17 6.849 1.32504 0
M  V30 35118 H 3405.07 6.04552 2.26247 0
M  V30 35119 H 3405.84 8.02168 1.62694 0
M  V30 35120 N 3408.5 -0.838547 1.3344 0
M  V30 35121 C 3409.74 -1.59618 1.251 0
M  V30 35122 C 3410.08 -1.93338 -0.182764 0
M  V30 35123 O 3409.35 -1.58722 -1.12417 0
M  V30 35124 C 3409.64 -2.90599 2.1266 0
M  V30 35125 C 3409.49 -2.63559 3.64495 0
M  V30 35126 C 3410.81 -3.9203 2.00001 0
M  V30 35127 H 3407.93 -0.579161 0.455786 0
M  V30 35128 H 3410.57 -0.96714 1.63543 0
M  V30 35129 H 3408.72 -3.44283 1.80004 0
M  V30 35130 H 3410.39 -2.16304 4.07443 0
M  V30 35131 H 3408.63 -1.97253 3.86359 0
M  V30 35132 H 3409.3 -3.56893 4.21107 0
M  V30 35133 H 3411.78 -3.47653 2.28641 0
M  V30 35134 H 3410.66 -4.81508 2.63518 0
M  V30 35135 H 3410.92 -4.31275 0.972339 0
M  V30 35136 N 3409.98 -1.16914 -1.05683 0
M  V30 35137 C 3411.39 -0.961182 -1.60057 0
M  V30 35138 C 3411.74 0.493376 -1.89895 0
M  V30 35139 O 3410.86 1.36775 -1.67695 0
M  V30 35140 C 3411.46 -1.73842 -2.908 0
M  V30 35141 C 3410.02 -1.57528 -3.41851 0
M  V30 35142 C 3409.16 -1.74322 -2.15655 0
M  V30 35143 H 3412.12 -1.31694 -0.885568 0
M  V30 35144 H 3412.14 -1.21787 -3.60483 0
M  V30 35145 H 3411.65 -2.79702 -2.69051 0
M  V30 35146 H 3409.75 -0.541349 -3.68646 0
M  V30 35147 H 3409.86 -2.36309 -4.16767 0
M  V30 35148 H 3408.23 -1.17119 -2.26175 0
M  V30 35149 H 3409.01 -2.81584 -1.96381 0
M  V30 35150 N 3411.45 1.24323 -0.968589 0
M  V30 35151 C 3412.87 1.74277 -0.66967 0
M  V30 35152 C 3413.22 1.78491 0.814579 0
M  V30 35153 O 3412.34 1.41493 1.63734 0
M  V30 35154 C 3412.94 3.16498 -1.20891 0
M  V30 35155 C 3411.5 3.63955 -0.959872 0
M  V30 35156 C 3410.64 2.4257 -1.34369 0
M  V30 35157 H 3413.59 1.10013 -1.14381 0
M  V30 35158 H 3413.61 3.76121 -0.575616 0
M  V30 35159 H 3413.13 3.13398 -2.28917 0
M  V30 35160 H 3411.23 3.72453 0.104829 0
M  V30 35161 H 3411.34 4.51375 -1.60614 0
M  V30 35162 H 3409.7 2.43032 -0.762081 0
M  V30 35163 H 3410.49 2.42151 -2.43347 0
M  V30 35164 N 3412.93 0.73881 1.3921 0
M  V30 35165 C 3414.18 0.288852 2.00732 0
M  V30 35166 C 3414.51 -1.12217 1.58496 0
M  V30 35167 O 3413.79 -1.76573 0.81561 0
M  V30 35168 C 3414.07 0.395019 3.57927 0
M  V30 35169 C 3413.92 1.84608 4.1017 0
M  V30 35170 C 3415.24 -0.220318 4.39548 0
M  V30 35171 H 3412.36 0.106431 0.729275 0
M  V30 35172 H 3415 0.935681 1.65363 0
M  V30 35173 H 3413.15 -0.155676 3.88188 0
M  V30 35174 H 3414.82 2.45395 3.90614 0
M  V30 35175 H 3413.07 2.36613 3.63588 0
M  V30 35176 H 3413.74 1.87161 5.19302 0
M  V30 35177 H 3416.21 0.249171 4.15353 0
M  V30 35178 H 3415.09 -0.115709 5.48778 0
M  V30 35179 H 3415.35 -1.30684 4.22344 0
M  V30 35180 N 3414.41 -1.49895 0.486734 0
M  V30 35181 C 3415.66 -2.02702 -0.0629095 0
M  V30 35182 C 3415.99 -1.36683 -1.37954 0
M  V30 35183 O 3415.26 -0.497711 -1.88024 0
M  V30 35184 C 3415.55 -3.59362 -0.230398 0
M  V30 35185 C 3415.4 -4.35931 1.10835 0
M  V30 35186 C 3416.72 -4.29102 -0.97771 0
M  V30 35187 H 3413.84 -0.73669 -0.0213887 0
M  V30 35188 H 3416.48 -1.79062 0.635371 0
M  V30 35189 H 3414.63 -3.79636 -0.825155 0
M  V30 35190 H 3416.3 -4.27189 1.74089 0
M  V30 35191 H 3414.55 -3.99052 1.70117 0
M  V30 35192 H 3415.22 -5.43857 0.944627 0
M  V30 35193 H 3417.69 -4.13398 -0.473432 0
M  V30 35194 H 3416.57 -5.38494 -1.06372 0
M  V30 35195 H 3416.83 -3.93353 -2.01806 0
M  V30 35196 N 3415.89 -0.219968 -1.56057 0
M  V30 35197 C 3416.84 0.704146 -2.16854 0
M  V30 35198 C 3417.82 1.15867 -1.11641 0
M  V30 35199 O 3419.02 1.11292 -1.37634 0
M  V30 35200 C 3416.14 1.91275 -2.85077 0
M  V30 35201 C 3415.23 1.47798 -3.97513 0
M  V30 35202 N 3415.62 0.755704 -5.00123 0
M  V30 35203 C 3413.92 1.76539 -4.09573 0
M  V30 35204 C 3414.62 0.53423 -5.79242 0
M  V30 35205 N 3413.6 1.09046 -5.32551 0
M  V30 35206 H 3417.4 0.143863 -2.93548 0
M  V30 35207 H 3414.91 -0.0211616 -1.62386 0
M  V30 35208 H 3416.91 2.58552 -3.27042 0
M  V30 35209 H 3415.57 2.47752 -2.09879 0
M  V30 35210 H 3416.58 0.408556 -5.16286 0
M  V30 35211 H 3413.26 2.34347 -3.45525 0
M  V30 35212 H 3414.65 -0.0405213 -6.71888 0
M  V30 35213 N 3417.37 1.57509 0.0534363 0
M  V30 35214 C 3418.62 1.87765 0.747589 0
M  V30 35215 C 3418.94 0.814464 1.77176 0
M  V30 35216 O 3418.21 -0.154828 1.95287 0
M  V30 35217 H 3416.79 0.692902 0.279097 0
M  V30 35218 H 3419.45 1.94884 0.0251663 0
M  V30 35219 H 3418.54 2.8587 1.25239 0
M  V30 35220 N 3418.85 -0.325228 1.54208 0
M  V30 35221 C 3420.09 -1.07161 1.74057 0
M  V30 35222 C 3420.45 -1.85301 0.502754 0
M  V30 35223 O 3421.65 -2.625 0.578571 0
M  V30 35224 C 3419.92 -1.97313 2.97997 0
M  V30 35225 S 3421.48 -2.78925 3.38742 0
M  V30 35226 H 3418.3 -0.361797 0.612065 0
M  V30 35227 H 3420.9 -0.347803 1.92381 0
M  V30 35228 H 3419.6 -1.3874 3.86237 0
M  V30 35229 H 3419.14 -2.74101 2.82191 0
M  V30 35230 H 3421.15 -3.99788 2.93911 0
M  V30 35231 N 3420.32 -1.46252 -0.587204 0
M  V30 35232 C 3421.73 -1.45548 -1.16931 0
M  V30 35233 C 3422.09 -0.193913 -1.95239 0
M  V30 35234 O 3421.21 0.703284 -2.04653 0
M  V30 35235 C 3421.81 -2.63697 -2.12719 0
M  V30 35236 C 3420.36 -2.66048 -2.66262 0
M  V30 35237 C 3419.51 -2.38156 -1.42046 0
M  V30 35238 H 3422.46 -1.54196 -0.375384 0
M  V30 35239 H 3422.48 -2.38959 -2.96106 0
M  V30 35240 H 3422 -3.555 -1.55696 0
M  V30 35241 H 3420.1 -1.78306 -3.27166 0
M  V30 35242 H 3420.21 -3.6588 -3.09304 0
M  V30 35243 H 3418.57 -1.88122 -1.71704 0
M  V30 35244 H 3419.36 -3.32129 -0.868616 0
M  V30 35245 N 3421.8 0.831459 -1.33883 0
M  V30 35246 C 3422.73 1.9569 -1.27387 0
M  V30 35247 C 3423.71 1.69411 -0.152972 0
M  V30 35248 O 3424.9 1.9113 -0.343954 0
M  V30 35249 C 3422.03 3.31988 -1.01988 0
M  V30 35250 C 3420.98 3.72685 -2.10452 0
M  V30 35251 C 3420.31 5.0687 -1.70254 0
M  V30 35252 C 3421.61 3.85684 -3.52201 0
M  V30 35253 H 3423.3 2.01382 -2.21552 0
M  V30 35254 H 3420.85 0.967507 -1.06655 0
M  V30 35255 H 3422.8 4.10298 -0.960913 0
M  V30 35256 H 3421.52 3.26572 -0.0426283 0
M  V30 35257 H 3420.18 2.96643 -2.15403 0
M  V30 35258 H 3419.83 4.97934 -0.712124 0
M  V30 35259 H 3419.53 5.35071 -2.42843 0
M  V30 35260 H 3421.06 5.87648 -1.65837 0
M  V30 35261 H 3422.47 4.54287 -3.49709 0
M  V30 35262 H 3420.87 4.25329 -4.23338 0
M  V30 35263 H 3421.94 2.87922 -3.90165 0
M  V30 35264 N 3423.28 1.17472 1.05062 0
M  V30 35265 C 3424.69 0.969656 1.59545 0
M  V30 35266 C 3425.04 -0.483298 1.90154 0
M  V30 35267 O 3424.17 -1.35884 1.68418 0
M  V30 35268 C 3424.76 1.75382 2.89874 0
M  V30 35269 C 3423.32 1.59338 3.41011 0
M  V30 35270 C 3422.47 1.75464 2.14727 0
M  V30 35271 H 3425.42 1.32162 0.878572 0
M  V30 35272 H 3425.44 1.23697 3.59832 0
M  V30 35273 H 3424.95 2.81125 2.67564 0
M  V30 35274 H 3423.05 0.560891 3.68354 0
M  V30 35275 H 3423.17 2.38516 4.15508 0
M  V30 35276 H 3421.53 1.18317 2.25551 0
M  V30 35277 H 3422.31 2.82621 1.94885 0
M  V30 35278 N 3424.76 -1.23807 0.975168 0
M  V30 35279 C 3425.98 -1.96664 0.658639 0
M  V30 35280 C 3426.41 -1.71765 -0.766714 0
M  V30 35281 O 3425.77 -0.985914 -1.52149 0
M  V30 35282 C 3425.81 -3.47902 0.948499 0
M  V30 35283 O 3424.92 -4.12383 0.0377966 0
M  V30 35284 H 3424.26 -0.615851 0.248242 0
M  V30 35285 H 3426.79 -1.57384 1.30734 0
M  V30 35286 H 3426.8 -3.98329 0.88307 0
M  V30 35287 H 3425.47 -3.65352 1.98723 0
M  V30 35288 H 3424.05 -3.72569 0.157187 0
M  V30 35289 N 3426.24 -0.746182 -1.38816 0
M  V30 35290 C 3427.46 -0.309641 -2.0457 0
M  V30 35291 C 3427.88 1.05946 -1.56272 0
M  V30 35292 O 3427.24 1.67154 -0.73251 0
M  V30 35293 C 3427.29 -0.314906 -3.60126 0
M  V30 35294 O 3427.01 -1.62997 -4.06649 0
M  V30 35295 C 3428.51 0.13642 -4.4309 0
M  V30 35296 H 3425.73 -0.133453 -0.657595 0
M  V30 35297 H 3428.27 -1.01296 -1.77649 0
M  V30 35298 H 3426.43 0.339617 -3.85908 0
M  V30 35299 H 3426.84 -1.55111 -5.0104 0
M  V30 35300 H 3428.32 0.0815744 -5.5194 0
M  V30 35301 H 3428.79 1.18324 -4.22961 0
M  V30 35302 H 3429.4 -0.488953 -4.2248 0
M  V30 35303 N 3427.71 1.49635 -0.494676 0
M  V30 35304 C 3428.66 2.29007 0.287113 0
M  V30 35305 C 3429.63 1.35115 0.966075 0
M  V30 35306 O 3430.82 1.64069 0.973962 0
M  V30 35307 C 3427.96 3.17626 1.34935 0
M  V30 35308 C 3427.07 4.2657 0.682804 0
M  V30 35309 C 3426.2 5.02413 1.72495 0
M  V30 35310 C 3425.24 6.03201 1.03992 0
M  V30 35311 N 3424.38 6.72234 2.02598 0
M  V30 35312 H 3429.22 2.95357 -0.395993 0
M  V30 35313 H 3426.76 1.45634 -0.207129 0
M  V30 35314 H 3428.71 3.67376 1.97714 0
M  V30 35315 H 3427.34 2.53274 2.00131 0
M  V30 35316 H 3426.4 3.80356 -0.0581146 0
M  V30 35317 H 3427.71 4.98594 0.143247 0
M  V30 35318 H 3426.86 5.56 2.42794 0
M  V30 35319 H 3425.6 4.30148 2.29835 0
M  V30 35320 H 3424.61 5.48852 0.322669 0
M  V30 35321 H 3425.83 6.7745 0.4731 0
M  V30 35322 H 3423.78 6.02744 2.58912 0
M  V30 35323 H 3423.69 7.40213 1.53691 0
M  V30 35324 H 3424.96 7.30428 2.72205 0
M  V30 35325 N 3429.19 0.228241 1.55939 0
M  V30 35326 C 3430.15 -0.665643 2.19321 0
M  V30 35327 C 3431.15 -1.11669 1.15701 0
M  V30 35328 O 3432.34 -1.02441 1.40895 0
M  V30 35329 C 3429.48 -1.91265 2.82189 0
M  V30 35330 H 3430.67 -0.112933 2.99687 0
M  V30 35331 H 3428.22 -0.0213591 1.56285 0
M  V30 35332 H 3428.96 -2.50706 2.0571 0
M  V30 35333 H 3428.74 -1.59763 3.58076 0
M  V30 35334 H 3430.23 -2.54936 3.30753 0
M  V30 35335 N 3430.67 -1.57536 -0.0450825 0
M  V30 35336 C 3432.08 -1.77009 -0.593689 0
M  V30 35337 C 3432.43 -0.857264 -1.76481 0
M  V30 35338 O 3431.56 -0.0480083 -2.16347 0
M  V30 35339 C 3432.15 -3.20998 -1.08377 0
M  V30 35340 C 3430.71 -3.41724 -1.57802 0
M  V30 35341 C 3429.86 -2.72588 -0.509019 0
M  V30 35342 H 3432.81 -1.57663 0.181142 0
M  V30 35343 H 3432.83 -3.2663 -1.95175 0
M  V30 35344 H 3432.34 -3.87411 -0.231208 0
M  V30 35345 H 3430.44 -2.80464 -2.45297 0
M  V30 35346 H 3430.56 -4.50281 -1.63656 0
M  V30 35347 H 3428.92 -2.35901 -0.960347 0
M  V30 35348 H 3429.7 -3.41673 0.333813 0
M  V30 35349 N 3432.15 0.317045 -1.54378 0
M  V30 35350 C 3433.56 0.891076 -1.64063 0
M  V30 35351 C 3433.91 1.88654 -0.538896 0
M  V30 35352 O 3433.04 2.13913 0.327143 0
M  V30 35353 C 3433.63 1.62297 -2.97398 0
M  V30 35354 C 3432.19 2.14563 -3.09257 0
M  V30 35355 C 3431.34 0.973101 -2.59665 0
M  V30 35356 H 3434.29 0.0944551 -1.58419 0
M  V30 35357 H 3434.31 2.48759 -2.87923 0
M  V30 35358 H 3433.82 0.898202 -3.77563 0
M  V30 35359 H 3431.92 2.90135 -2.33779 0
M  V30 35360 H 3432.03 2.39116 -4.15163 0
M  V30 35361 H 3430.4 1.35412 -2.15721 0
M  V30 35362 H 3431.18 0.262551 -3.42295 0
M  V30 35363 N 3433.63 1.46561 0.57944 0
M  V30 35364 C 3434.88 1.51307 1.33376 0
M  V30 35365 C 3435.19 0.170541 1.94855 0
M  V30 35366 O 3436.39 0.0958181 2.71331 0
M  V30 35367 C 3434.85 2.66623 2.41744 0
M  V30 35368 C 3434.46 4.07311 1.86553 0
M  V30 35369 C 3436.2 2.80642 3.18497 0
M  V30 35370 C 3434.11 5.13962 2.92569 0
M  V30 35371 H 3433.04 0.563118 0.501412 0
M  V30 35372 H 3435.69 1.7278 0.617994 0
M  V30 35373 H 3434.07 2.38486 3.16134 0
M  V30 35374 H 3435.25 4.45254 1.18684 0
M  V30 35375 H 3433.56 3.97987 1.22457 0
M  V30 35376 H 3436.16 3.5749 3.97624 0
M  V30 35377 H 3436.5 1.88277 3.71292 0
M  V30 35378 H 3437.03 3.08442 2.51214 0
M  V30 35379 H 3433.77 6.08131 2.44658 0
M  V30 35380 H 3433.29 4.8056 3.58918 0
M  V30 35381 H 3434.97 5.39948 3.56462 0
M  V30 35382 N 3435.1 -0.824347 1.34322 0
M  V30 35383 C 3436.52 -1.39701 1.23857 0
M  V30 35384 C 3436.87 -1.95724 -0.136532 0
M  V30 35385 O 3435.99 -1.89946 -1.0368 0
M  V30 35386 C 3436.59 -2.53961 2.24253 0
M  V30 35387 C 3435.15 -3.07139 2.17584 0
M  V30 35388 C 3434.29 -1.80004 2.10936 0
M  V30 35389 H 3437.24 -0.628866 1.45709 0
M  V30 35390 H 3437.26 -3.32013 1.8587 0
M  V30 35391 H 3436.78 -2.13156 3.24324 0
M  V30 35392 H 3434.88 -3.52452 1.20864 0
M  V30 35393 H 3434.99 -3.66326 3.08775 0
M  V30 35394 H 3433.35 -2.00843 1.56634 0
M  V30 35395 H 3434.14 -1.41375 3.12839 0
M  V30 35396 N 3436.58 -1.18028 -1.04437 0
M  V30 35397 C 3437.99 -0.978104 -1.59028 0
M  V30 35398 C 3438.34 0.473207 -1.90408 0
M  V30 35399 O 3437.47 1.34989 -1.69136 0
M  V30 35400 C 3438.06 -1.76917 -2.88939 0
M  V30 35401 C 3436.62 -1.61145 -3.40161 0
M  V30 35402 C 3435.77 -1.766 -2.13794 0
M  V30 35403 H 3438.72 -1.32626 -0.871551 0
M  V30 35404 H 3438.74 -1.25604 -3.59171 0
M  V30 35405 H 3438.25 -2.8254 -2.66069 0
M  V30 35406 H 3436.36 -0.580418 -3.68052 0
M  V30 35407 H 3436.47 -2.40716 -4.14237 0
M  V30 35408 H 3434.83 -1.19511 -2.2492 0
M  V30 35409 H 3435.62 -2.83651 -1.93384 0
M  V30 35410 N 3438.06 1.23288 -0.98172 0
M  V30 35411 C 3439.47 1.73556 -0.688117 0
M  V30 35412 C 3439.82 1.79345 0.795601 0
M  V30 35413 O 3438.95 1.43221 1.62224 0
M  V30 35414 C 3439.54 3.15198 -1.24241 0
M  V30 35415 C 3438.1 3.62917 -0.99842 0
M  V30 35416 C 3437.25 2.41131 -1.36934 0
M  V30 35417 H 3440.2 1.08793 -1.15541 0
M  V30 35418 H 3440.22 3.75489 -0.615476 0
M  V30 35419 H 3439.73 3.10953 -2.32228 0
M  V30 35420 H 3437.83 3.72543 0.0653193 0
M  V30 35421 H 3437.95 4.49647 -1.65393 0
M  V30 35422 H 3436.31 2.4221 -0.787815 0
M  V30 35423 H 3437.09 2.39556 -2.45902 0
M  V30 35424 N 3439.54 0.753533 1.38418 0
M  V30 35425 C 3440.95 0.431122 1.53667 0
M  V30 35426 C 3441.15 -1.05575 1.71628 0
M  V30 35427 O 3440.21 -1.84179 1.72726 0
M  V30 35428 C 3441.52 1.23032 2.74379 0
M  V30 35429 C 3443.07 1.22039 2.88228 0
M  V30 35430 C 3443.55 2.00255 4.119 0
M  V30 35431 N 3445.04 1.97515 4.18977 0
M  V30 35432 C 3445.77 2.54829 5.13663 0
M  V30 35433 N 3445.27 3.20857 6.14022 0
M  V30 35434 N 3447.06 2.4476 5.06013 0
M  V30 35435 H 3439.21 1.71716 1.25009 0
M  V30 35436 H 3441.48 0.72795 0.607283 0
M  V30 35437 H 3441.18 2.28322 2.67511 0
M  V30 35438 H 3441.06 0.847163 3.67564 0
M  V30 35439 H 3443.44 0.175554 2.94577 0
M  V30 35440 H 3443.52 1.64306 1.96054 0
M  V30 35441 H 3443.17 3.0475 4.06313 0
M  V30 35442 H 3443.1 1.55382 5.03154 0
M  V30 35443 H 3445.59 1.49429 3.47101 0
M  V30 35444 H 3445.9 3.62011 6.82765 0
M  V30 35445 H 3444.25 3.24952 6.14354 0
M  V30 35446 H 3447.44 1.92805 4.26549 0
M  V30 35447 H 3447.61 2.89723 5.79624 0
M  V30 35448 N 3441.02 -1.49371 0.502605 0
M  V30 35449 C 3442.43 -1.58809 0.158669 0
M  V30 35450 C 3442.63 -1.50767 -1.33685 0
M  V30 35451 O 3441.69 -1.38245 -2.11293 0
M  V30 35452 C 3443 -2.91531 0.736894 0
M  V30 35453 C 3444.55 -3.05 0.703146 0
M  V30 35454 C 3445.02 -4.40343 1.25946 0
M  V30 35455 N 3446.52 -4.46838 1.22023 0
M  V30 35456 C 3447.25 -5.50014 1.62086 0
M  V30 35457 N 3446.75 -6.60286 2.09748 0
M  V30 35458 N 3448.54 -5.40737 1.53492 0
M  V30 35459 H 3440.69 -1.52841 1.4749 0
M  V30 35460 H 3442.95 -0.724104 0.611864 0
M  V30 35461 H 3442.66 -3.02989 1.78579 0
M  V30 35462 H 3442.53 -3.76679 0.198244 0
M  V30 35463 H 3444.92 -2.9317 -0.336914 0
M  V30 35464 H 3445 -2.21532 1.27896 0
M  V30 35465 H 3444.65 -4.52924 2.29831 0
M  V30 35466 H 3444.58 -5.22453 0.659573 0
M  V30 35467 H 3447.07 -3.67725 0.871021 0
M  V30 35468 H 3447.38 -7.35114 2.38383 0
M  V30 35469 H 3445.72 -6.61322 2.13723 0
M  V30 35470 H 3448.92 -4.53481 1.16073 0
M  V30 35471 H 3449.09 -6.2102 1.85037 0
M  V30 35472 N 3442.49 -0.236508 -1.55815 0
M  V30 35473 C 3443.44 0.667411 -2.2094 0
M  V30 35474 C 3444.41 1.17915 -1.16984 0
M  V30 35475 O 3445.6 1.23552 -1.45394 0
M  V30 35476 C 3442.74 1.86332 -2.90472 0
M  V30 35477 C 3441.85 1.38908 -4.09058 0
M  V30 35478 C 3440.98 2.54374 -4.66334 0
M  V30 35479 C 3440.02 2.0376 -5.7719 0
M  V30 35480 N 3439.16 3.12553 -6.28693 0
M  V30 35481 H 3444 0.105359 -2.97814 0
M  V30 35482 H 3441.54 0.0402453 -1.47045 0
M  V30 35483 H 3443.5 2.5657 -3.2898 0
M  V30 35484 H 3442.13 2.39802 -2.1609 0
M  V30 35485 H 3441.18 0.581107 -3.75935 0
M  V30 35486 H 3442.49 0.978066 -4.89117 0
M  V30 35487 H 3441.64 3.3267 -5.07361 0
M  V30 35488 H 3440.38 2.98771 -3.8547 0
M  V30 35489 H 3439.39 1.2393 -5.35651 0
M  V30 35490 H 3440.61 1.60344 -6.59899 0
M  V30 35491 H 3438.56 3.56405 -5.50737 0
M  V30 35492 H 3438.48 2.7575 -7.03916 0
M  V30 35493 H 3439.74 3.9094 -6.74378 0
M  V30 35494 N 3443.97 1.57557 0.0367273 0
M  V30 35495 C 3445.39 1.54705 0.392237 0
M  V30 35496 C 3445.59 0.961601 1.77075 0
M  V30 35497 O 3444.64 0.579306 2.45765 0
M  V30 35498 C 3445.96 2.99189 0.301115 0
M  V30 35499 C 3447.51 3.107 0.378758 0
M  V30 35500 C 3447.98 4.569 0.317169 0
M  V30 35501 N 3449.47 4.6167 0.376196 0
M  V30 35502 C 3450.21 5.72323 0.35131 0
M  V30 35503 N 3449.7 6.92237 0.279166 0
M  V30 35504 N 3451.5 5.60672 0.400473 0
M  V30 35505 H 3443.65 1.93967 -0.865489 0
M  V30 35506 H 3445.91 0.889319 -0.328354 0
M  V30 35507 H 3445.62 3.45718 -0.645881 0
M  V30 35508 H 3445.49 3.60872 1.09778 0
M  V30 35509 H 3447.88 2.64122 1.31619 0
M  V30 35510 H 3447.96 2.51862 -0.447116 0
M  V30 35511 H 3447.6 5.04144 -0.616558 0
M  V30 35512 H 3447.53 5.13641 1.16105 0
M  V30 35513 H 3450.02 3.75391 0.434777 0
M  V30 35514 H 3450.34 7.72345 0.265067 0
M  V30 35515 H 3448.68 6.94567 0.245327 0
M  V30 35516 H 3451.87 4.65886 0.454772 0
M  V30 35517 H 3452.04 6.46899 0.37761 0
M  V30 35518 N 3445.45 -0.308854 1.54544 0
M  V30 35519 C 3446.68 -1.06419 1.77433 0
M  V30 35520 C 3447.09 -1.81208 0.530003 0
M  V30 35521 O 3446.45 -1.7552 -0.499881 0
M  V30 35522 C 3446.5 -2.05087 2.97694 0
M  V30 35523 O 3446.22 -1.33333 4.17317 0
M  V30 35524 C 3447.72 -2.92722 3.3291 0
M  V30 35525 H 3444.94 -0.315938 0.591966 0
M  V30 35526 H 3447.49 -0.350512 2.01474 0
M  V30 35527 H 3445.64 -2.71968 2.75884 0
M  V30 35528 H 3446.06 -1.9953 4.85065 0
M  V30 35529 H 3447.53 -3.5782 4.2032 0
M  V30 35530 H 3448.01 -3.60606 2.50719 0
M  V30 35531 H 3448.61 -2.31382 3.56851 0
M  V30 35532 N 3446.93 -1.46867 -0.571659 0
M  V30 35533 C 3448.18 -1.52974 -1.33142 0
M  V30 35534 C 3448.51 -0.185378 -1.93313 0
M  V30 35535 O 3447.78 0.804439 -1.77085 0
M  V30 35536 C 3448.07 -2.63679 -2.45246 0
M  V30 35537 C 3447.92 -4.07684 -1.90037 0
M  V30 35538 C 3449.24 -2.7039 -3.47243 0
M  V30 35539 H 3446.36 -0.556893 -0.482741 0
M  V30 35540 H 3449 -1.78856 -0.641132 0
M  V30 35541 H 3447.15 -2.41741 -3.04128 0
M  V30 35542 H 3448.82 -4.40942 -1.35527 0
M  V30 35543 H 3447.06 -4.16642 -1.20797 0
M  V30 35544 H 3447.74 -4.80892 -2.71011 0
M  V30 35545 H 3450.21 -2.9014 -2.98258 0
M  V30 35546 H 3449.09 -3.4965 -4.23126 0
M  V30 35547 H 3449.35 -1.76875 -4.05176 0
M  V30 35548 N 3448.41 0.817212 -1.34757 0
M  V30 35549 C 3449.65 1.57608 -1.27623 0
M  V30 35550 C 3449.99 1.93604 0.151983 0
M  V30 35551 O 3449.26 1.6049 1.09878 0
M  V30 35552 C 3449.54 2.87179 -2.17256 0
M  V30 35553 C 3449.4 2.57726 -3.68642 0
M  V30 35554 C 3450.72 3.88798 -2.06213 0
M  V30 35555 H 3447.84 0.571837 -0.464943 0
M  V30 35556 H 3450.48 0.940999 -1.65061 0
M  V30 35557 H 3448.63 3.41376 -1.85458 0
M  V30 35558 H 3450.3 2.09795 -4.10833 0
M  V30 35559 H 3448.54 1.91082 -3.89449 0
M  V30 35560 H 3449.21 3.50148 -4.26732 0
M  V30 35561 H 3451.69 3.43971 -2.34143 0
M  V30 35562 H 3450.57 4.77254 -2.71145 0
M  V30 35563 H 3450.83 4.29673 -1.04083 0
M  V30 35564 N 3449.89 1.1858 1.0381 0
M  V30 35565 C 3450.82 0.938703 2.138 0
M  V30 35566 C 3451.8 -0.124546 1.69643 0
M  V30 35567 O 3452.98 0.0285762 1.94179 0
M  V30 35568 C 3450.11 0.466453 3.44153 0
M  V30 35569 C 3449.07 1.47048 4.01946 0
M  V30 35570 C 3448.39 0.855651 5.27809 0
M  V30 35571 C 3449.69 2.84796 4.37822 0
M  V30 35572 H 3451.39 1.85856 2.34729 0
M  V30 35573 H 3448.93 0.895027 1.12806 0
M  V30 35574 H 3450.88 0.28093 4.20463 0
M  V30 35575 H 3449.61 -0.488984 3.22919 0
M  V30 35576 H 3448.27 1.64299 3.27722 0
M  V30 35577 H 3447.92 -0.107054 5.02886 0
M  V30 35578 H 3447.62 1.52602 5.67438 0
M  V30 35579 H 3449.14 0.680716 6.06794 0
M  V30 35580 H 3450.55 2.71182 5.05107 0
M  V30 35581 H 3448.95 3.4854 4.88508 0
M  V30 35582 H 3450.02 3.38153 3.47535 0
M  V30 35583 N 3451.36 -1.22766 0.988245 0
M  V30 35584 C 3452.59 -1.95414 0.679777 0
M  V30 35585 C 3453.01 -1.7306 -0.754701 0
M  V30 35586 O 3452.36 -1.02681 -1.50874 0
M  V30 35587 C 3452.41 -3.48232 0.970405 0
M  V30 35588 O 3452.14 -3.69833 2.34851 0
M  V30 35589 C 3453.64 -4.38069 0.678987 0
M  V30 35590 H 3450.86 -0.621939 0.251858 0
M  V30 35591 H 3453.4 -1.56044 1.32176 0
M  V30 35592 H 3451.56 -3.85587 0.374309 0
M  V30 35593 H 3451.97 -4.64068 2.4442 0
M  V30 35594 H 3453.44 -5.44064 0.932645 0
M  V30 35595 H 3453.92 -4.37492 -0.386996 0
M  V30 35596 H 3454.53 -4.06333 1.25592 0
M  V30 35597 N 3452.84 -0.760864 -1.38017 0
M  V30 35598 C 3453.75 -0.140273 -2.3418 0
M  V30 35599 C 3454.77 0.692259 -1.59636 0
M  V30 35600 O 3455.94 0.614718 -1.91789 0
M  V30 35601 C 3453.01 0.736871 -3.38779 0
M  V30 35602 C 3452.07 -0.110867 -4.29157 0
M  V30 35603 C 3451.3 0.724506 -5.28759 0
M  V30 35604 O 3451.53 1.96217 -5.35589 0
M  V30 35605 O 3450.46 0.13946 -6.01738 0
M  V30 35606 H 3454.29 -0.934639 -2.88961 0
M  V30 35607 H 3451.87 -0.52186 -1.39989 0
M  V30 35608 H 3453.75 1.23796 -4.02806 0
M  V30 35609 H 3452.43 1.50961 -2.86343 0
M  V30 35610 H 3451.33 -0.658072 -3.68267 0
M  V30 35611 H 3452.67 -0.846431 -4.84867 0
M  V30 35612 N 3454.32 1.49102 -0.510519 0
M  V30 35613 C 3455.54 2.07379 0.0292749 0
M  V30 35614 C 3455.97 1.36715 1.29192 0
M  V30 35615 O 3455.33 0.426869 1.76203 0
M  V30 35616 C 3455.38 3.59689 0.256227 0
M  V30 35617 O 3454.48 3.90399 1.329 0
M  V30 35618 H 3453.82 0.663301 -0.0304565 0
M  V30 35619 H 3456.35 1.9178 -0.712866 0
M  V30 35620 H 3456.36 4.05109 0.484843 0
M  V30 35621 H 3455.04 4.10529 -0.666235 0
M  V30 35622 H 3453.61 3.56779 1.08458 0
M  V30 35623 N 3455.8 0.244768 1.55688 0
M  V30 35624 C 3457.03 -0.384773 2.03291 0
M  V30 35625 C 3457.44 -1.5169 1.12408 0
M  V30 35626 O 3456.8 -1.81977 0.138088 0
M  V30 35627 C 3456.85 -0.894573 3.50257 0
M  V30 35628 O 3456.57 0.192442 4.37677 0
M  V30 35629 C 3458.07 -1.59502 4.13611 0
M  V30 35630 H 3455.29 -0.0916791 0.664707 0
M  V30 35631 H 3457.83 0.368008 2.01162 0
M  V30 35632 H 3455.99 -1.59754 3.52927 0
M  V30 35633 H 3456.4 -0.194332 5.2414 0
M  V30 35634 H 3457.88 -1.90347 5.18143 0
M  V30 35635 H 3458.35 -2.51625 3.59974 0
M  V30 35636 H 3458.96 -0.936676 4.14857 0
M  V30 35637 N 3457.28 -1.57574 -0.0283712 0
M  V30 35638 C 3458.52 -1.89584 -0.720109 0
M  V30 35639 C 3458.85 -0.842592 -1.74969 0
M  V30 35640 O 3458.13 0.14226 -1.93979 0
M  V30 35641 C 3458.41 -3.32232 -1.38903 0
M  V30 35642 C 3458.27 -4.48251 -0.372919 0
M  V30 35643 C 3459.58 -3.73808 -2.32283 0
M  V30 35644 H 3456.7 -0.689495 -0.260318 0
M  V30 35645 H 3459.35 -1.89992 0.0170941 0
M  V30 35646 H 3457.5 -3.32015 -2.01739 0
M  V30 35647 H 3459.17 -4.60603 0.253573 0
M  V30 35648 H 3457.41 -4.32707 0.307726 0
M  V30 35649 H 3458.08 -5.44949 -0.879453 0
M  V30 35650 H 3460.56 -3.75396 -1.7949 0
M  V30 35651 H 3459.43 -4.74424 -2.76067 0
M  V30 35652 H 3459.69 -3.06105 -3.18986 0
M  V30 35653 N 3458.75 0.300654 -1.54706 0
M  V30 35654 C 3459.98 1.0591 -1.7832 0
M  V30 35655 C 3460.4 1.80146 -0.541209 0
M  V30 35656 O 3459.76 1.7403 0.50826 0
M  V30 35657 C 3459.81 2.01506 -2.99045 0
M  V30 35658 O 3458.91 3.09814 -2.72194 0
M  V30 35659 H 3458.25 0.304232 -0.590203 0
M  V30 35660 H 3460.78 0.337971 -2.01789 0
M  V30 35661 H 3460.79 2.43965 -3.27024 0
M  V30 35662 H 3459.47 1.46879 -3.89101 0
M  V30 35663 H 3458.05 2.71866 -2.55232 0
M  V30 35664 N 3460.23 1.47168 0.563863 0
M  V30 35665 C 3461.46 1.57299 1.35173 0
M  V30 35666 C 3461.88 0.221268 1.86794 0
M  V30 35667 O 3461.24 -0.80178 1.62607 0
M  V30 35668 C 3461.29 2.59658 2.5022 0
M  V30 35669 O 3460.39 2.14467 3.52246 0
M  V30 35670 H 3459.73 0.528644 0.401786 0
M  V30 35671 H 3462.26 1.92895 0.682103 0
M  V30 35672 H 3462.27 2.79867 2.96881 0
M  V30 35673 H 3460.95 3.57809 2.12004 0
M  V30 35674 H 3459.53 2.04329 3.11936 0
M  V30 35675 N 3461.71 -0.810054 1.35188 0
M  V30 35676 C 3462.67 -1.90329 1.27701 0
M  V30 35677 C 3463.67 -1.59683 0.189244 0
M  V30 35678 O 3464.86 -1.6848 0.442718 0
M  V30 35679 C 3462 -3.26669 0.974688 0
M  V30 35680 H 3463.19 -1.98388 2.24905 0
M  V30 35681 H 3460.74 -1.00552 1.19662 0
M  V30 35682 H 3461.48 -3.24299 0.0063638 0
M  V30 35683 H 3461.26 -3.50298 1.76164 0
M  V30 35684 H 3462.75 -4.06702 0.947814 0
M  V30 35685 N 3463.19 -1.19129 -1.0318 0
M  V30 35686 C 3464.12 -0.950028 -2.133 0
M  V30 35687 C 3465.1 0.115547 -1.69707 0
M  V30 35688 O 3466.28 -0.0388736 -1.94161 0
M  V30 35689 C 3463.41 -0.484697 -3.43901 0
M  V30 35690 C 3462.37 -1.49177 -4.01161 0
M  V30 35691 C 3461.69 -0.883629 -5.27348 0
M  V30 35692 C 3462.99 -2.87114 -4.36306 0
M  V30 35693 H 3464.69 -1.87099 -2.3374 0
M  V30 35694 H 3462.23 -0.900997 -1.1233 0
M  V30 35695 H 3464.19 -0.303224 -4.20308 0
M  V30 35696 H 3462.91 0.471852 -3.23174 0
M  V30 35697 H 3461.57 -1.66034 -3.26846 0
M  V30 35698 H 3461.22 0.0803828 -5.02936 0
M  V30 35699 H 3460.92 -1.55609 -5.66621 0
M  V30 35700 H 3462.44 -0.712886 -6.06424 0
M  V30 35701 H 3463.86 -2.73857 -5.03662 0
M  V30 35702 H 3462.25 -3.51126 -4.86652 0
M  V30 35703 H 3463.32 -3.39991 -3.45737 0
M  V30 35704 N 3464.67 1.2224 -0.994741 0
M  V30 35705 C 3465.63 2.22462 -0.551658 0
M  V30 35706 C 3466.63 1.56568 0.36647 0
M  V30 35707 O 3467.82 1.7348 0.158173 0
M  V30 35708 C 3464.95 3.40328 0.197356 0
M  V30 35709 H 3466.14 2.63176 -1.43799 0
M  V30 35710 H 3463.7 1.35323 -0.782144 0
M  V30 35711 H 3464.43 3.05089 1.09959 0
M  V30 35712 H 3464.22 3.8937 -0.461897 0
M  V30 35713 H 3465.71 4.1465 0.495461 0
M  V30 35714 N 3466.14 0.768172 1.37611 0
M  V30 35715 C 3467.05 0.15269 2.34103 0
M  V30 35716 C 3468.07 -0.683783 1.60001 0
M  V30 35717 O 3469.25 -0.604538 1.92113 0
M  V30 35718 C 3466.31 -0.718894 3.39165 0
M  V30 35719 C 3465.37 0.133625 4.29092 0
M  V30 35720 C 3464.61 -0.696454 5.29136 0
M  V30 35721 O 3464.83 -1.93374 5.36622 0
M  V30 35722 O 3463.76 -0.107546 6.01804 0
M  V30 35723 H 3467.59 0.94995 2.88461 0
M  V30 35724 H 3465.17 0.529277 1.3971 0
M  V30 35725 H 3467.06 -1.21658 4.03457 0
M  V30 35726 H 3465.73 -1.4944 2.8714 0
M  V30 35727 H 3464.64 0.677592 3.67912 0
M  V30 35728 H 3465.97 0.872133 4.84412 0
M  V30 35729 N 3467.62 -1.48829 0.518419 0
M  V30 35730 C 3468.55 -2.32267 -0.239644 0
M  V30 35731 C 3469.53 -1.41361 -0.946105 0
M  V30 35732 O 3470.72 -1.70258 -0.934132 0
M  V30 35733 C 3467.85 -3.22291 -1.29405 0
M  V30 35734 C 3466.8 -4.2213 -0.706429 0
M  V30 35735 C 3466.13 -5.01208 -1.86264 0
M  V30 35736 C 3467.43 -5.21354 0.31417 0
M  V30 35737 H 3469.12 -2.95894 0.456852 0
M  V30 35738 H 3466.67 -1.42292 0.221151 0
M  V30 35739 H 3468.62 -3.79483 -1.83223 0
M  V30 35740 H 3467.35 -2.56641 -2.01997 0
M  V30 35741 H 3466 -3.66108 -0.189859 0
M  V30 35742 H 3465.65 -4.31992 -2.57666 0
M  V30 35743 H 3465.35 -5.68775 -1.47544 0
M  V30 35744 H 3466.88 -5.61249 -2.40483 0
M  V30 35745 H 3468.29 -5.73137 -0.136503 0
M  V30 35746 H 3466.69 -5.96908 0.618131 0
M  V30 35747 H 3467.76 -4.69197 1.22402 0
M  V30 35748 N 3469.1 -0.253021 -1.55556 0
M  V30 35749 C 3470.06 0.630667 -2.20353 0
M  V30 35750 C 3471.06 1.09814 -1.17463 0
M  V30 35751 O 3472.25 1.00187 -1.42507 0
M  V30 35752 C 3469.39 1.86752 -2.85196 0
M  V30 35753 H 3470.58 0.0652412 -2.99829 0
M  V30 35754 H 3468.13 -0.0035073 -1.563 0
M  V30 35755 H 3468.87 2.47402 -2.09673 0
M  V30 35756 H 3468.65 1.54046 -3.60572 0
M  V30 35757 H 3470.14 2.49642 -3.34767 0
M  V30 35758 N 3470.58 1.57587 0.0200142 0
M  V30 35759 C 3471.81 1.93949 0.720522 0
M  V30 35760 C 3472.22 0.853528 1.68405 0
M  V30 35761 O 3471.58 -0.169305 1.81713 0
M  V30 35762 C 3471.63 3.30273 1.46976 0
M  V30 35763 O 3471.35 4.34698 0.544895 0
M  V30 35764 C 3472.85 3.80972 2.2666 0
M  V30 35765 H 3470.07 0.63989 0.201945 0
M  V30 35766 H 3472.62 2.04485 -0.0251534 0
M  V30 35767 H 3470.77 3.21107 2.16724 0
M  V30 35768 H 3471.18 5.13443 1.0713 0
M  V30 35769 H 3472.66 4.78844 2.74613 0
M  V30 35770 H 3473.14 3.12635 3.08474 0
M  V30 35771 H 3473.74 3.93251 1.61969 0
M  V30 35772 N 3472.06 -0.292445 1.54863 0
M  V30 35773 C 3473 -1.36095 1.86405 0
M  V30 35774 C 3473.97 -1.49984 0.71372 0
M  V30 35775 O 3475.16 -1.64705 0.963163 0
M  V30 35776 C 3472.3 -2.71958 2.12445 0
M  V30 35777 C 3471.41 -2.66448 3.40043 0
M  V30 35778 C 3470.55 -3.94362 3.55882 0
M  V30 35779 C 3469.59 -3.83284 4.77241 0
M  V30 35780 N 3468.72 -5.02992 4.89841 0
M  V30 35781 H 3473.56 -1.08495 2.77548 0
M  V30 35782 H 3471.1 -0.524582 1.37428 0
M  V30 35783 H 3473.06 -3.50981 2.25539 0
M  V30 35784 H 3471.69 -2.978 1.2456 0
M  V30 35785 H 3470.74 -1.79242 3.35524 0
M  V30 35786 H 3472.05 -2.54156 4.29193 0
M  V30 35787 H 3471.21 -4.81824 3.68688 0
M  V30 35788 H 3469.94 -4.09499 2.64881 0
M  V30 35789 H 3468.95 -2.94206 4.6446 0
M  V30 35790 H 3470.17 -3.69685 5.69658 0
M  V30 35791 H 3468.12 -5.18575 4.01766 0
M  V30 35792 H 3468.04 -4.93155 5.73004 0
M  V30 35793 H 3469.31 -5.92081 5.07012 0
M  V30 35794 N 3473.53 -1.47465 -0.55605 0
M  V30 35795 C 3474.76 -1.57767 -1.33855 0
M  V30 35796 C 3475.18 -0.228283 -1.87415 0
M  V30 35797 O 3474.53 0.778645 -1.65056 0
M  V30 35798 C 3474.59 -2.60382 -2.50766 0
M  V30 35799 O 3474.31 -3.90081 -1.99419 0
M  V30 35800 C 3475.81 -2.80879 -3.42961 0
M  V30 35801 H 3473.03 -0.532712 -0.407994 0
M  V30 35802 H 3475.57 -1.93092 -0.673467 0
M  V30 35803 H 3473.73 -2.27987 -3.1321 0
M  V30 35804 H 3474.14 -4.46163 -2.75752 0
M  V30 35805 H 3475.61 -3.5654 -4.21406 0
M  V30 35806 H 3476.09 -1.88744 -3.96576 0
M  V30 35807 H 3476.7 -3.14476 -2.86331 0
M  V30 35808 N 3475.01 0.802873 -1.35616 0
M  V30 35809 C 3476.26 1.56014 -1.29096 0
M  V30 35810 C 3476.59 1.94041 0.133583 0
M  V30 35811 O 3475.84 1.61878 1.09972 0
M  V30 35812 C 3476.14 2.85756 -2.14659 0
M  V30 35813 C 3475.81 2.6693 -3.63399 0
M  V30 35814 C 3474.47 2.61504 -4.03942 0
M  V30 35815 C 3476.82 2.49204 -4.57763 0
M  V30 35816 C 3474.15 2.363 -5.3701 0
M  V30 35817 C 3476.5 2.25529 -5.91033 0
M  V30 35818 C 3475.17 2.18527 -6.30716 0
M  V30 35819 H 3474.44 0.570896 -0.472397 0
M  V30 35820 H 3477.08 0.927381 -1.67547 0
M  V30 35821 H 3475.39 3.53429 -1.69101 0
M  V30 35822 H 3477.09 3.43473 -2.06947 0
M  V30 35823 H 3473.68 2.72003 -3.31229 0
M  V30 35824 H 3477.86 2.52407 -4.27323 0
M  V30 35825 H 3473.12 2.29351 -5.66752 0
M  V30 35826 H 3477.29 2.10805 -6.63728 0
M  V30 35827 H 3474.92 1.98759 -7.33757 0
M  V30 35828 N 3476.49 1.19674 1.02547 0
M  V30 35829 C 3477.74 0.999494 1.75655 0
M  V30 35830 C 3478.06 -0.470484 1.89239 0
M  V30 35831 O 3477.33 -1.34059 1.42846 0
M  V30 35832 H 3475.91 0.366832 0.650725 0
M  V30 35833 H 3478.57 1.50629 1.23681 0
M  V30 35834 H 3477.67 1.4504 2.76351 0
M  V30 35835 N 3477.97 -1.21711 1.00121 0
M  V30 35836 C 3479.19 -1.95223 0.700206 0
M  V30 35837 C 3479.62 -1.73352 -0.730107 0
M  V30 35838 O 3478.98 -1.01797 -1.50024 0
M  V30 35839 C 3479.03 -3.45812 1.02208 0
M  V30 35840 O 3478.13 -4.1221 0.125261 0
M  V30 35841 H 3477.47 -0.610447 0.261249 0
M  V30 35842 H 3480 -1.54575 1.34043 0
M  V30 35843 H 3480.01 -3.96366 0.967362 0
M  V30 35844 H 3478.69 -3.61054 2.06428 0
M  V30 35845 H 3477.26 -3.72151 0.236179 0
M  V30 35846 N 3479.45 -0.775459 -1.37202 0
M  V30 35847 C 3480.67 -0.351772 -2.04395 0
M  V30 35848 C 3481.1 1.01911 -1.58101 0
M  V30 35849 O 3480.46 1.65378 -0.742961 0
M  V30 35850 C 3480.5 -0.408168 -3.58282 0
M  V30 35851 O 3479.61 0.590032 -4.08157 0
M  V30 35852 H 3478.95 -0.151658 -0.646449 0
M  V30 35853 H 3481.48 -1.05268 -1.75441 0
M  V30 35854 H 3481.49 -0.266783 -4.07127 0
M  V30 35855 H 3480.16 -1.40826 -3.91332 0
M  V30 35856 H 3478.74 0.411459 -3.70623 0
M  V30 35857 N 3480.93 1.48552 -0.526305 0
M  V30 35858 C 3482.17 2.02098 0.00911287 0
M  V30 35859 C 3482.49 1.40601 1.35116 0
M  V30 35860 O 3481.76 0.570098 1.87421 0
M  V30 35861 H 3480.34 0.746973 0.00635622 0
M  V30 35862 H 3483.01 1.82304 -0.689301 0
M  V30 35863 H 3482.1 3.11869 0.120157 0
M  V30 35864 N 3482.4 0.261267 1.55419 0
M  V30 35865 C 3483.63 -0.366109 2.04143 0
M  V30 35866 C 3484.05 -1.49704 1.13887 0
M  V30 35867 O 3483.41 -1.80799 0.134661 0
M  V30 35868 C 3483.46 -0.837713 3.50735 0
M  V30 35869 O 3482.56 -1.94615 3.63592 0
M  V30 35870 H 3481.9 -0.0778095 0.659425 0
M  V30 35871 H 3484.43 0.391522 2.00819 0
M  V30 35872 H 3484.44 -1.13715 3.91833 0
M  V30 35873 H 3483.12 -0.0102011 4.15899 0
M  V30 35874 H 3481.7 -1.65031 3.34394 0
M  V30 35875 N 3483.88 -1.57596 -0.0116567 0
M  V30 35876 C 3485.11 -1.94726 -0.71389 0
M  V30 35877 C 3485.53 -0.862594 -1.67155 0
M  V30 35878 O 3484.89 0.180277 -1.80401 0
M  V30 35879 C 3484.94 -3.30944 -1.43208 0
M  V30 35880 O 3484.04 -3.24424 -2.54604 0
M  V30 35881 H 3483.38 -0.636008 -0.190761 0
M  V30 35882 H 3485.91 -2.04565 0.0380607 0
M  V30 35883 H 3485.92 -3.6624 -1.79812 0
M  V30 35884 H 3484.6 -4.09446 -0.729834 0
M  V30 35885 H 3483.17 -3.00786 -2.20414 0
M  V30 35886 N 3485.36 0.284228 -1.55016 0
M  V30 35887 C 3486.32 1.33423 -1.86362 0
M  V30 35888 C 3487.32 1.42891 -0.737482 0
M  V30 35889 O 3488.51 1.42236 -1.00571 0
M  V30 35890 C 3485.64 2.71703 -2.05889 0
M  V30 35891 H 3486.84 1.06864 -2.80214 0
M  V30 35892 H 3484.39 0.521741 -1.47335 0
M  V30 35893 H 3485.13 3.03459 -1.14381 0
M  V30 35894 H 3484.91 2.66219 -2.87871 0
M  V30 35895 H 3486.4 3.47591 -2.31453 0
M  V30 35896 N 3486.84 1.47758 0.548222 0
M  V30 35897 C 3488.08 1.55073 1.30691 0
M  V30 35898 C 3488.42 0.216109 1.92994 0
M  V30 35899 O 3487.69 -0.776165 1.78342 0
M  V30 35900 C 3487.97 2.67547 2.4102 0
M  V30 35901 C 3487.83 4.10655 1.83527 0
M  V30 35902 C 3489.15 2.7588 3.42897 0
M  V30 35903 H 3486.27 0.564503 0.47382 0
M  V30 35904 H 3488.91 1.79853 0.612596 0
M  V30 35905 H 3487.06 2.46549 3.00243 0
M  V30 35906 H 3488.73 4.43043 1.28495 0
M  V30 35907 H 3486.97 4.18511 1.14154 0
M  V30 35908 H 3487.64 4.85143 2.63326 0
M  V30 35909 H 3490.12 2.94849 2.93604 0
M  V30 35910 H 3489 3.56338 4.1751 0
M  V30 35911 H 3489.26 1.83298 4.02311 0
M  V30 35912 N 3488.32 -0.79567 1.3604 0
M  V30 35913 C 3489.59 -1.54093 1.20476 0
M  V30 35914 C 3489.97 -2.10036 -0.211654 0
M  V30 35915 O 3489.32 -1.93424 -1.21653 0
M  V30 35916 C 3489.53 -2.64083 2.28169 0
M  V30 35917 C 3490.88 -3.32132 2.64525 0
M  V30 35918 O 3491.9 -2.74362 2.27165 0
M  V30 35919 O 3490.76 -4.36521 3.28803 0
M  V30 35920 H 3487.86 -0.681351 0.468711 0
M  V30 35921 H 3490.4 -0.83469 1.47753 0
M  V30 35922 H 3489.17 -2.20695 3.23124 0
M  V30 35923 H 3488.8 -3.42333 2.02223 0
M  V30 35924 N 3489.79 -1.20217 -1.0191 0
M  V30 35925 C 3491.02 -1.03705 -1.79611 0
M  V30 35926 C 3491.44 0.409342 -1.83592 0
M  V30 35927 O 3490.8 1.29471 -1.26913 0
M  V30 35928 C 3490.85 -1.62225 -3.22049 0
M  V30 35929 O 3489.95 -0.858177 -4.03372 0
M  V30 35930 H 3489.3 -0.365899 -0.554088 0
M  V30 35931 H 3491.83 -1.59455 -1.282 0
M  V30 35932 H 3491.84 -1.65854 -3.72769 0
M  V30 35933 H 3490.51 -2.67493 -3.18466 0
M  V30 35934 H 3489.09 -0.895899 -3.61978 0
M  V30 35935 N 3491.27 1.21178 -1.00765 0
M  V30 35936 C 3492.52 1.89938 -0.690493 0
M  V30 35937 C 3492.84 1.78658 0.781432 0
M  V30 35938 O 3492.11 1.18318 1.56133 0
M  V30 35939 H 3490.69 0.703064 -0.252409 0
M  V30 35940 H 3493.35 1.47208 -1.27733 0
M  V30 35941 H 3492.45 2.96774 -0.965992 0
M  V30 35942 N 3492.75 0.782725 1.36789 0
M  V30 35943 C 3493.98 0.36377 2.03677 0
M  V30 35944 C 3494.39 -1.01765 1.59026 0
M  V30 35945 O 3493.75 -1.65153 0.77657 0
M  V30 35946 C 3493.8 0.410276 3.59164 0
M  V30 35947 O 3493.52 1.73721 4.02185 0
M  V30 35948 C 3495.02 -0.0188941 4.43296 0
M  V30 35949 H 3492.24 0.150841 0.653826 0
M  V30 35950 H 3494.79 1.05971 1.74901 0
M  V30 35951 H 3492.94 -0.237181 3.86673 0
M  V30 35952 H 3493.36 1.68341 4.96751 0
M  V30 35953 H 3494.83 0.0647914 5.51962 0
M  V30 35954 H 3495.31 -1.07068 4.2595 0
M  V30 35955 H 3495.91 0.600795 4.21035 0
M  V30 35956 N 3494.23 -1.48271 0.534176 0
M  V30 35957 C 3495.19 -2.28184 -0.215601 0
M  V30 35958 C 3496.19 -1.3562 -0.863942 0
M  V30 35959 O 3497.38 -1.58472 -0.723347 0
M  V30 35960 C 3494.51 -3.14623 -1.31246 0
M  V30 35961 H 3495.71 -2.95935 0.486066 0
M  V30 35962 H 3493.26 -1.53581 0.290264 0
M  V30 35963 H 3493.99 -2.51512 -2.04725 0
M  V30 35964 H 3493.78 -3.82717 -0.852639 0
M  V30 35965 H 3495.27 -3.74892 -1.83972 0
M  V30 35966 N 3495.71 -0.269505 -1.55279 0
M  V30 35967 C 3496.93 0.352382 -2.03877 0
M  V30 35968 C 3497.35 1.49883 -1.14807 0
M  V30 35969 O 3496.71 1.81734 -0.167021 0
M  V30 35970 C 3496.76 0.838737 -3.51635 0
M  V30 35971 O 3496.48 -0.262048 -4.37316 0
M  V30 35972 C 3497.98 1.52901 -4.16096 0
M  V30 35973 H 3495.2 0.0810926 -0.666082 0
M  V30 35974 H 3497.74 -0.399964 -2.00551 0
M  V30 35975 H 3495.9 1.54119 -3.55424 0
M  V30 35976 H 3496.31 0.110921 -5.24383 0
M  V30 35977 H 3497.79 1.8208 -5.21106 0
M  V30 35978 H 3498.26 2.45866 -3.63932 0
M  V30 35979 H 3498.87 0.870557 -4.16295 0
M  V30 35980 N 3497.18 1.576 0.00329885 0
M  V30 35981 C 3498.43 1.90048 0.687475 0
M  V30 35982 C 3498.75 0.870419 1.74496 0
M  V30 35983 O 3498.02 -0.09262 1.95681 0
M  V30 35984 H 3496.6 0.701431 0.256912 0
M  V30 35985 H 3499.27 1.94865 -0.0368472 0
M  V30 35986 H 3498.36 2.8971 1.16081 0
M  V30 35987 N 3498.66 -0.276003 1.55164 0
M  V30 35988 C 3500.07 -0.847264 1.66368 0
M  V30 35989 C 3500.42 -1.87159 0.588725 0
M  V30 35990 O 3499.55 -2.14705 -0.270313 0
M  V30 35991 C 3500.14 -1.54354 3.01596 0
M  V30 35992 C 3498.7 -2.06288 3.14837 0
M  V30 35993 C 3497.85 -0.903913 2.62154 0
M  V30 35994 H 3500.8 -0.05242 1.58613 0
M  V30 35995 H 3500.82 -2.41037 2.94417 0
M  V30 35996 H 3500.33 -0.797782 3.79812 0
M  V30 35997 H 3498.44 -2.83835 2.41389 0
M  V30 35998 H 3498.55 -2.28025 4.21357 0
M  V30 35999 H 3496.91 -1.29645 2.19235 0
M  V30 36000 H 3497.7 -0.171705 3.4287 0
M  V30 36001 N 3500.14 -1.48046 -0.540378 0
M  V30 36002 C 3501.55 -1.49194 -1.12241 0
M  V30 36003 C 3501.9 -0.255929 -1.94524 0
M  V30 36004 O 3501.03 0.637819 -2.06787 0
M  V30 36005 C 3501.62 -2.70331 -2.04222 0
M  V30 36006 C 3500.18 -2.74384 -2.57663 0
M  V30 36007 C 3499.33 -2.42554 -1.34398 0
M  V30 36008 H 3502.28 -1.55313 -0.326138 0
M  V30 36009 H 3502.3 -2.48258 -2.88354 0
M  V30 36010 H 3501.81 -3.60273 -1.44308 0
M  V30 36011 H 3499.91 -1.88624 -3.21328 0
M  V30 36012 H 3500.03 -3.75535 -2.97507 0
M  V30 36013 H 3498.39 -1.9349 -1.65632 0
M  V30 36014 H 3499.17 -3.34725 -0.762512 0
M  V30 36015 N 3501.62 0.788444 -1.3646 0
M  V30 36016 C 3502.9 1.53452 -1.21292 0
M  V30 36017 C 3503.28 2.10146 0.200512 0
M  V30 36018 O 3502.62 1.94066 1.20626 0
M  V30 36019 C 3502.83 2.62869 -2.29566 0
M  V30 36020 C 3504.18 3.30725 -2.66282 0
M  V30 36021 O 3505.21 2.73153 -2.28617 0
M  V30 36022 O 3504.06 4.34771 -3.31114 0
M  V30 36023 H 3501.16 0.678855 -0.472318 0
M  V30 36024 H 3503.7 0.826843 -1.48194 0
M  V30 36025 H 3502.48 2.18978 -3.2429 0
M  V30 36026 H 3502.1 3.41255 -2.04036 0
M  V30 36027 N 3503.1 1.20755 1.01271 0
M  V30 36028 C 3504.03 0.917665 2.10028 0
M  V30 36029 C 3505.04 -0.0961126 1.62516 0
M  V30 36030 O 3506.23 0.135402 1.77986 0
M  V30 36031 C 3503.33 0.35495 3.37036 0
M  V30 36032 C 3502.5 1.42121 4.13667 0
M  V30 36033 C 3501.56 0.869115 5.18973 0
M  V30 36034 O 3500.59 1.55073 5.47669 0
M  V30 36035 N 3501.79 -0.319529 5.7962 0
M  V30 36036 H 3504.56 1.85387 2.35482 0
M  V30 36037 H 3502.12 1.11175 1.17693 0
M  V30 36038 H 3504.11 -0.0286183 4.0469 0
M  V30 36039 H 3502.68 -0.485901 3.08801 0
M  V30 36040 H 3501.9 1.97895 3.40927 0
M  V30 36041 H 3503.19 2.13919 4.61645 0
M  V30 36042 H 3502.58 -0.890492 5.58647 0
M  V30 36043 H 3501.14 -0.644693 6.48604 0
M  V30 36044 N 3504.58 -1.20642 1.01406 0
M  V30 36045 C 3505.54 -2.21556 0.58698 0
M  V30 36046 C 3506.54 -1.57132 -0.341515 0
M  V30 36047 O 3507.73 -1.7371 -0.130554 0
M  V30 36048 C 3504.86 -3.40599 -0.143188 0
M  V30 36049 H 3506.05 -2.60855 1.47968 0
M  V30 36050 H 3503.61 -1.34061 0.803574 0
M  V30 36051 H 3504.34 -3.068 -1.05092 0
M  V30 36052 H 3504.13 -3.88586 0.523784 0
M  V30 36053 H 3505.62 -4.15386 -0.429431 0
M  V30 36054 N 3506.05 -0.789968 -1.36372 0
M  V30 36055 C 3507.28 -0.373431 -2.0401 0
M  V30 36056 C 3507.7 1.00228 -1.59173 0
M  V30 36057 O 3507.06 1.6458 -0.76046 0
M  V30 36058 C 3507.11 -0.446146 -3.57829 0
M  V30 36059 O 3506.21 0.546708 -4.0876 0
M  V30 36060 H 3505.55 -0.158506 -0.644804 0
M  V30 36061 H 3508.08 -1.07123 -1.74315 0
M  V30 36062 H 3508.09 -0.309949 -4.06821 0
M  V30 36063 H 3506.77 -1.44969 -3.89816 0
M  V30 36064 H 3505.35 0.372126 -3.71039 0
M  V30 36065 N 3507.53 1.47986 -0.542031 0
M  V30 36066 C 3508.81 1.95529 0.0526151 0
M  V30 36067 C 3509.19 1.48446 1.5009 0
M  V30 36068 O 3508.54 0.716385 2.1698 0
M  V30 36069 C 3508.75 3.48915 -0.0771138 0
M  V30 36070 C 3510.09 4.24532 0.0760102 0
M  V30 36071 O 3511.12 3.562 -0.00390905 0
M  V30 36072 O 3509.98 5.45949 0.24531 0
M  V30 36073 H 3507.07 0.823807 0.0726018 0
M  V30 36074 H 3509.62 1.58454 -0.607482 0
M  V30 36075 H 3508.39 3.75942 -1.08551 0
M  V30 36076 H 3508.01 3.92716 0.621288 0
M  V30 36077 N 3509.01 0.277736 1.55133 0
M  V30 36078 C 3510.29 -0.390219 1.91668 0
M  V30 36079 C 3510.67 -1.73516 1.20231 0
M  V30 36080 O 3510.01 -2.26104 0.330052 0
M  V30 36081 C 3510.22 -0.527909 3.44984 0
M  V30 36082 C 3511.57 -0.809592 4.1681 0
M  V30 36083 O 3512.6 -0.612617 3.50892 0
M  V30 36084 O 3511.46 -1.18647 5.33465 0
M  V30 36085 H 3508.55 -0.214081 0.798811 0
M  V30 36086 H 3511.1 0.324082 1.66577 0
M  V30 36087 H 3509.87 0.418491 3.89056 0
M  V30 36088 H 3509.49 -1.29158 3.76037 0
M  V30 36089 N 3510.49 -1.57599 0.00505908 0
M  V30 36090 C 3511.74 -1.9041 -0.677387 0
M  V30 36091 C 3512.06 -0.879661 -1.74032 0
M  V30 36092 O 3511.33 0.0822413 -1.95727 0
M  V30 36093 H 3509.91 -0.702784 -0.253188 0
M  V30 36094 H 3512.57 -1.94843 0.0471808 0
M  V30 36095 H 3511.66 -2.90321 -1.14543 0
M  V30 36096 N 3511.97 0.267771 -1.55309 0
M  V30 36097 C 3513.24 1.02026 -1.66883 0
M  V30 36098 C 3513.62 2.0411 -0.538744 0
M  V30 36099 O 3512.97 2.23811 0.460535 0
M  V30 36100 C 3513.18 1.67238 -3.06321 0
M  V30 36101 C 3514.53 2.18205 -3.64241 0
M  V30 36102 O 3515.55 1.77215 -3.08987 0
M  V30 36103 O 3514.41 2.93404 -4.6106 0
M  V30 36104 H 3511.51 0.473581 -0.677975 0
M  V30 36105 H 3514.05 0.263213 -1.67646 0
M  V30 36106 H 3512.82 0.932918 -3.80016 0
M  V30 36107 H 3512.45 2.49616 -3.09479 0
M  V30 36108 N 3513.44 1.48331 0.532519 0
M  V30 36109 C 3514.39 1.62664 1.63735 0
M  V30 36110 C 3515.36 0.468786 1.59347 0
M  V30 36111 O 3516.55 0.691952 1.77811 0
M  V30 36112 C 3513.69 1.66998 3.02003 0
M  V30 36113 C 3512.8 2.93873 3.16643 0
M  V30 36114 C 3511.93 2.89384 4.45455 0
M  V30 36115 C 3510.97 4.10974 4.53615 0
M  V30 36116 N 3510.11 4.04577 5.73813 0
M  V30 36117 H 3514.95 2.57014 1.50823 0
M  V30 36118 H 3512.49 1.2746 0.734326 0
M  V30 36119 H 3514.44 1.67492 3.82102 0
M  V30 36120 H 3513.07 0.761405 3.13692 0
M  V30 36121 H 3512.13 3.03135 2.29812 0
M  V30 36122 H 3513.44 3.83846 3.18534 0
M  V30 36123 H 3512.59 2.88265 5.33843 0
M  V30 36124 H 3511.33 1.97135 4.46082 0
M  V30 36125 H 3510.34 4.12371 3.63635 0
M  V30 36126 H 3511.56 5.04379 4.54729 0
M  V30 36127 H 3509.51 3.15147 5.75342 0
M  V30 36128 H 3509.42 4.88253 5.77187 0
M  V30 36129 H 3510.69 4.07514 6.64494 0
M  V30 36130 N 3514.92 -0.781196 1.36876 0
M  V30 36131 C 3516.17 -1.53636 1.31302 0
M  V30 36132 C 3516.49 -1.94718 -0.104907 0
M  V30 36133 O 3515.76 -1.65578 -1.04693 0
M  V30 36134 H 3514.34 -0.569806 0.483042 0
M  V30 36135 H 3517 -0.930329 1.71263 0
M  V30 36136 H 3516.1 -2.44014 1.94586 0
M  V30 36137 N 3516.4 -1.21291 -1.0063 0
M  V30 36138 C 3517.62 -1.05604 -1.78501 0
M  V30 36139 C 3518.05 0.389847 -1.84016 0
M  V30 36140 O 3517.41 1.28118 -1.28279 0
M  V30 36141 C 3517.46 -1.65631 -3.2031 0
M  V30 36142 O 3516.56 -0.900912 -4.02439 0
M  V30 36143 H 3515.9 -0.371755 -0.550176 0
M  V30 36144 H 3518.43 -1.60805 -1.26502 0
M  V30 36145 H 3518.44 -1.69798 -3.70989 0
M  V30 36146 H 3517.12 -2.70855 -3.15611 0
M  V30 36147 H 3515.69 -0.934241 -3.61007 0
M  V30 36148 N 3517.88 1.20103 -1.02045 0
M  V30 36149 C 3519.15 1.8528 -0.626955 0
M  V30 36150 C 3519.53 1.91198 0.894786 0
M  V30 36151 O 3518.88 1.42268 1.78807 0
M  V30 36152 C 3519.09 3.2471 -1.27923 0
M  V30 36153 C 3520.44 4.00956 -1.39711 0
M  V30 36154 O 3521.46 3.34078 -1.23574 0
M  V30 36155 O 3520.32 5.20735 -1.65823 0
M  V30 36156 H 3517.42 0.798069 -0.216829 0
M  V30 36157 H 3519.96 1.27661 -1.11807 0
M  V30 36158 H 3518.74 3.1519 -2.31886 0
M  V30 36159 H 3518.36 3.89965 -0.775439 0
M  V30 36160 N 3519.36 0.797189 1.35951 0
M  V30 36161 C 3520.6 0.37373 1.99327 0
M  V30 36162 C 3520.94 -1.05394 1.63113 0
M  V30 36163 O 3520.21 -1.72955 0.889767 0
M  V30 36164 C 3520.49 0.546473 3.55929 0
M  V30 36165 C 3520.35 2.01839 4.01971 0
M  V30 36166 C 3521.67 -0.0336921 4.40087 0
M  V30 36167 H 3518.78 0.137267 0.724104 0
M  V30 36168 H 3521.43 1.00498 1.61246 0
M  V30 36169 H 3519.58 0.00910788 3.88499 0
M  V30 36170 H 3521.25 2.61741 3.79854 0
M  V30 36171 H 3519.49 2.51822 3.53226 0
M  V30 36172 H 3520.16 2.09018 5.10897 0
M  V30 36173 H 3522.64 0.425112 4.13923 0
M  V30 36174 H 3521.51 0.11715 5.48775 0
M  V30 36175 H 3521.78 -1.12653 4.27506 0
M  V30 36176 N 3520.83 -1.47696 0.549872 0
M  V30 36177 C 3521.74 -2.337 -0.205245 0
M  V30 36178 C 3522.76 -1.47736 -0.919245 0
M  V30 36179 O 3523.94 -1.80679 -0.889776 0
M  V30 36180 C 3521 -3.2428 -1.22652 0
M  V30 36181 C 3520.06 -4.2613 -0.52074 0
M  V30 36182 C 3519.3 -5.12381 -1.49336 0
M  V30 36183 O 3519.52 -5.00956 -2.72763 0
M  V30 36184 O 3518.45 -5.93162 -1.02186 0
M  V30 36185 H 3522.28 -2.99555 0.500035 0
M  V30 36186 H 3519.86 -1.46136 0.310563 0
M  V30 36187 H 3521.75 -3.80251 -1.81623 0
M  V30 36188 H 3520.42 -2.61062 -1.91385 0
M  V30 36189 H 3519.33 -3.73938 0.109972 0
M  V30 36190 H 3520.66 -4.92041 0.125009 0
M  V30 36191 N 3522.31 -0.285959 -1.54984 0
M  V30 36192 C 3523.54 0.333585 -2.047 0
M  V30 36193 C 3523.96 1.47873 -1.16254 0
M  V30 36194 O 3523.32 1.80562 -0.163407 0
M  V30 36195 C 3523.37 0.781808 -3.52023 0
M  V30 36196 O 3522.47 1.88805 -3.66642 0
M  V30 36197 H 3521.81 0.0673087 -0.66058 0
M  V30 36198 H 3524.34 -0.423421 -2.00171 0
M  V30 36199 H 3524.35 1.07466 -3.93592 0
M  V30 36200 H 3523.03 -0.0559661 -4.15862 0
M  V30 36201 H 3521.61 1.5969 -3.36977 0
M  V30 36202 N 3523.79 1.57594 -0.0134169 0
M  V30 36203 C 3525.02 1.9515 0.678235 0
M  V30 36204 C 3525.43 0.887601 1.67088 0
M  V30 36205 O 3524.77 -0.140742 1.8316 0
M  V30 36206 C 3524.83 3.28768 1.45436 0
M  V30 36207 C 3524.5 4.5275 0.621809 0
M  V30 36208 C 3525.49 5.19811 -0.0962454 0
M  V30 36209 C 3523.18 4.99125 0.56383 0
M  V30 36210 C 3525.17 6.31556 -0.861121 0
M  V30 36211 C 3522.86 6.10757 -0.204762 0
M  V30 36212 C 3523.86 6.7683 -0.915958 0
M  V30 36213 O 3523.55 7.86321 -1.67198 0
M  V30 36214 H 3523.28 0.647872 0.192971 0
M  V30 36215 H 3525.83 2.05298 -0.0647177 0
M  V30 36216 H 3524.06 3.15066 2.2421 0
M  V30 36217 H 3525.75 3.51339 2.03262 0
M  V30 36218 H 3526.52 4.84962 -0.0606882 0
M  V30 36219 H 3522.4 4.47513 1.10694 0
M  V30 36220 H 3525.94 6.83062 -1.41676 0
M  V30 36221 H 3521.84 6.45046 -0.242092 0
M  V30 36222 H 3522.61 8.02906 -1.5901 0
M  V30 36223 N 3525.27 -0.259531 1.55448 0
M  V30 36224 C 3526.49 -1.01145 1.81065 0
M  V30 36225 C 3526.92 -1.78648 0.588781 0
M  V30 36226 O 3526.28 -1.75316 -0.46194 0
M  V30 36227 C 3526.32 -1.93506 3.04282 0
M  V30 36228 O 3525.43 -3.02488 2.80312 0
M  V30 36229 H 3524.77 -0.288476 0.598061 0
M  V30 36230 H 3527.3 -0.284351 2.02614 0
M  V30 36231 H 3527.31 -2.35209 3.33378 0
M  V30 36232 H 3525.98 -1.36511 3.92858 0
M  V30 36233 H 3524.56 -2.65004 2.6235 0
M  V30 36234 N 3526.75 -1.48611 -0.524645 0
M  V30 36235 C 3527.97 -1.60828 -1.30955 0
M  V30 36236 C 3528.4 -0.270715 -1.86142 0
M  V30 36237 O 3527.75 0.758386 -1.64676 0
M  V30 36238 C 3527.8 -2.66201 -2.43248 0
M  V30 36239 O 3526.91 -2.23731 -3.46436 0
M  V30 36240 H 3526.25 -0.539111 -0.387629 0
M  V30 36241 H 3528.78 -1.94636 -0.630721 0
M  V30 36242 H 3528.79 -2.8764 -2.89357 0
M  V30 36243 H 3527.46 -3.63304 -2.02442 0
M  V30 36244 H 3526.04 -2.12527 -3.06409 0
M  V30 36245 N 3528.22 0.773926 -1.37289 0
M  V30 36246 C 3529.16 1.89433 -1.27242 0
M  V30 36247 C 3530.14 1.61875 -0.153394 0
M  V30 36248 O 3531.32 1.85638 -0.327226 0
M  V30 36249 C 3528.45 3.24608 -0.966828 0
M  V30 36250 C 3527.49 3.71079 -2.10244 0
M  V30 36251 S 3528.33 3.85008 -3.72195 0
M  V30 36252 C 3529.48 5.23034 -3.43782 0
M  V30 36253 H 3529.71 1.97665 -2.22071 0
M  V30 36254 H 3527.25 0.934798 -1.22886 0
M  V30 36255 H 3529.21 4.02682 -0.797339 0
M  V30 36256 H 3527.87 3.14079 -0.0360537 0
M  V30 36257 H 3527.06 4.69072 -1.84357 0
M  V30 36258 H 3526.66 3.001 -2.23195 0
M  V30 36259 H 3528.95 6.08131 -2.98635 0
M  V30 36260 H 3529.9 5.53933 -4.41095 0
M  V30 36261 H 3530.3 4.90869 -2.78762 0
M  V30 36262 N 3529.7 1.21823 0.99985 0
M  V30 36263 C 3531.11 1.03645 1.55289 0
M  V30 36264 C 3531.46 -0.402213 1.92033 0
M  V30 36265 O 3530.59 -1.28619 1.74029 0
M  V30 36266 C 3531.18 1.87519 2.82174 0
M  V30 36267 C 3529.74 1.73658 3.33946 0
M  V30 36268 C 3528.89 1.84413 2.07092 0
M  V30 36269 H 3531.84 1.35769 0.821727 0
M  V30 36270 H 3531.86 1.38848 3.54262 0
M  V30 36271 H 3531.37 2.9222 2.554 0
M  V30 36272 H 3529.48 0.716618 3.65644 0
M  V30 36273 H 3529.59 2.55925 4.05018 0
M  V30 36274 H 3527.95 1.27777 2.2033 0
M  V30 36275 H 3528.74 2.90632 1.82723 0
M  V30 36276 N 3531.18 -1.1956 1.0268 0
M  V30 36277 C 3532.59 -1.70883 0.752057 0
M  V30 36278 C 3532.94 -1.82174 -0.728491 0
M  V30 36279 O 3532.07 -1.49143 -1.56797 0
M  V30 36280 C 3532.66 -3.1037 1.35854 0
M  V30 36281 C 3531.22 -3.58961 1.13243 0
M  V30 36282 C 3530.37 -2.35883 1.45789 0
M  V30 36283 H 3533.32 -1.0443 1.19499 0
M  V30 36284 H 3533.34 -3.72946 0.754413 0
M  V30 36285 H 3532.85 -3.02119 2.43609 0
M  V30 36286 H 3530.95 -3.72528 0.0729926 0
M  V30 36287 H 3531.07 -4.43198 1.81967 0
M  V30 36288 H 3529.43 -2.39119 0.877167 0
M  V30 36289 H 3530.21 -2.30265 2.54623 0
M  V30 36290 N 3532.66 -0.804387 -1.35526 0
M  V30 36291 C 3533.59 -0.227645 -2.32388 0
M  V30 36292 C 3534.57 0.645681 -1.57369 0
M  V30 36293 O 3535.75 0.576409 -1.85449 0
M  V30 36294 C 3532.88 0.62639 -3.41605 0
M  V30 36295 C 3531.84 -0.148262 -4.27743 0
M  V30 36296 C 3531.16 0.827332 -5.28261 0
M  V30 36297 C 3532.46 -1.346 -5.04658 0
M  V30 36298 H 3534.16 -1.03689 -2.80872 0
M  V30 36299 H 3531.7 -0.500054 -1.35039 0
M  V30 36300 H 3533.66 1.03992 -4.08367 0
M  V30 36301 H 3532.38 1.4685 -2.91724 0
M  V30 36302 H 3531.04 -0.542938 -3.62557 0
M  V30 36303 H 3530.69 1.66488 -4.74648 0
M  V30 36304 H 3530.39 0.31335 -5.86764 0
M  V30 36305 H 3531.91 1.23911 -5.97895 0
M  V30 36306 H 3533.33 -1.00746 -5.64378 0
M  V30 36307 H 3531.72 -1.79432 -5.72647 0
M  V30 36308 H 3532.79 -2.13377 -4.35429 0
M  V30 36309 N 3534.14 1.47403 -0.557697 0
M  V30 36310 C 3535.05 2.33806 0.192849 0
M  V30 36311 C 3536.06 1.48221 0.911398 0
M  V30 36312 O 3537.24 1.81148 0.880182 0
M  V30 36313 C 3534.3 3.24926 1.20931 0
M  V30 36314 C 3533.37 4.264 0.498134 0
M  V30 36315 C 3532.6 5.13166 1.46617 0
M  V30 36316 O 3532.82 5.02395 2.70102 0
M  V30 36317 O 3531.76 5.93696 0.990392 0
M  V30 36318 H 3535.58 2.99286 -0.515914 0
M  V30 36319 H 3533.17 1.4597 -0.318309 0
M  V30 36320 H 3535.05 3.81209 1.79604 0
M  V30 36321 H 3533.72 2.62073 1.89998 0
M  V30 36322 H 3532.63 3.73875 -0.129801 0
M  V30 36323 H 3533.96 4.91968 -0.151101 0
M  V30 36324 N 3535.62 0.294175 1.5483 0
M  V30 36325 C 3536.86 -0.316474 1.99607 0
M  V30 36326 C 3537.18 -1.54934 1.18408 0
M  V30 36327 O 3536.45 -1.93913 0.278323 0
M  V30 36328 H 3535.03 -0.119925 0.737311 0
M  V30 36329 H 3537.7 0.403925 1.90668 0
M  V30 36330 H 3536.79 -0.593228 3.0641 0
M  V30 36331 N 3537.09 -1.57585 0.0217743 0
M  V30 36332 C 3538 -2.13225 -0.97837 0
M  V30 36333 C 3539.02 -1.08271 -1.36211 0
M  V30 36334 O 3540.2 -1.4029 -1.44501 0
M  V30 36335 C 3537.26 -2.64234 -2.24458 0
M  V30 36336 C 3536.32 -3.83875 -1.92194 0
M  V30 36337 C 3535.55 -4.32441 -3.12778 0
M  V30 36338 O 3535.78 -3.80218 -4.25195 0
M  V30 36339 O 3534.71 -5.24367 -2.95505 0
M  V30 36340 H 3538.54 -2.98945 -0.535295 0
M  V30 36341 H 3536.12 -1.48077 -0.198388 0
M  V30 36342 H 3538 -2.97144 -2.98804 0
M  V30 36343 H 3536.68 -1.81601 -2.6796 0
M  V30 36344 H 3535.59 -3.55903 -1.15256 0
M  V30 36345 H 3536.92 -4.67648 -1.53513 0
M  V30 36346 N 3538.57 0.251283 -1.55584 0
M  V30 36347 C 3539.98 0.820689 -1.67695 0
M  V30 36348 C 3540.33 1.86199 -0.618426 0
M  V30 36349 O 3539.46 2.15108 0.236121 0
M  V30 36350 C 3540.05 1.49537 -3.04013 0
M  V30 36351 C 3538.61 2.01253 -3.18079 0
M  V30 36352 C 3537.76 0.862092 -2.63559 0
M  V30 36353 H 3540.71 0.0271793 -1.58677 0
M  V30 36354 H 3540.73 2.36323 -2.98214 0
M  V30 36355 H 3540.24 0.737256 -3.81033 0
M  V30 36356 H 3538.34 2.79958 -2.45874 0
M  V30 36357 H 3538.46 2.21292 -4.24931 0
M  V30 36358 H 3536.82 1.26141 -2.2127 0
M  V30 36359 H 3537.6 0.117135 -3.431 0
M  V30 36360 N 3540.05 1.48887 0.516757 0
M  V30 36361 C 3541.3 1.57265 1.26933 0
M  V30 36362 C 3541.62 0.254189 1.93336 0
M  V30 36363 O 3540.89 -0.725313 1.81978 0
M  V30 36364 H 3539.47 0.579402 0.47149 0
M  V30 36365 H 3542.13 1.85426 0.600256 0
M  V30 36366 H 3541.23 2.36059 2.04163 0
M  V30 36367 N 3541.53 -0.766635 1.37697 0
M  V30 36368 C 3542.8 -1.51503 1.23718 0
M  V30 36369 C 3543.18 -2.10438 -0.167054 0
M  V30 36370 O 3542.53 -1.95961 -1.17523 0
M  V30 36371 C 3542.74 -2.59184 2.33719 0
M  V30 36372 C 3544.09 -3.26447 2.7151 0
M  V30 36373 O 3545.11 -2.69482 2.32934 0
M  V30 36374 O 3543.97 -4.29448 3.37989 0
M  V30 36375 H 3541.07 -0.671255 0.483058 0
M  V30 36376 H 3543.61 -0.803162 1.4949 0
M  V30 36377 H 3542.39 -2.13791 3.27733 0
M  V30 36378 H 3542.01 -3.37966 2.09439 0
M  V30 36379 N 3543.01 -1.22351 -0.993375 0
M  V30 36380 C 3544.42 -1.04467 -1.54737 0
M  V30 36381 C 3544.77 0.392023 -1.92244 0
M  V30 36382 O 3543.89 1.27694 -1.74709 0
M  V30 36383 C 3544.49 -1.89012 -2.81176 0
M  V30 36384 C 3543.05 -1.75427 -3.3302 0
M  V30 36385 C 3542.19 -1.85509 -2.06111 0
M  V30 36386 H 3545.14 -1.36203 -0.814515 0
M  V30 36387 H 3545.17 -1.40725 -3.53521 0
M  V30 36388 H 3544.68 -2.93571 -2.53846 0
M  V30 36389 H 3542.78 -0.735999 -3.65259 0
M  V30 36390 H 3542.89 -2.58069 -4.03655 0
M  V30 36391 H 3541.26 -1.28944 -2.19649 0
M  V30 36392 H 3542.04 -2.91597 -1.81179 0
M  V30 36393 N 3544.48 1.19014 -1.03313 0
M  V30 36394 C 3545.76 1.84604 -0.646571 0
M  V30 36395 C 3546.14 1.92137 0.874456 0
M  V30 36396 O 3545.49 1.44157 1.77288 0
M  V30 36397 C 3545.7 3.23335 -1.31359 0
M  V30 36398 C 3547.05 3.99452 -1.43956 0
M  V30 36399 O 3548.07 3.32748 -1.2711 0
M  V30 36400 O 3546.93 5.18947 -1.71337 0
M  V30 36401 H 3544.02 0.795724 -0.225281 0
M  V30 36402 H 3546.57 1.26468 -1.13154 0
M  V30 36403 H 3545.34 3.12713 -2.35216 0
M  V30 36404 H 3544.96 3.89121 -0.816757 0
M  V30 36405 N 3545.96 0.811563 1.35098 0
M  V30 36406 C 3546.89 0.239966 2.32264 0
M  V30 36407 C 3547.87 -0.637327 1.57709 0
M  V30 36408 O 3549.06 -0.566566 1.85752 0
M  V30 36409 C 3546.19 -0.608265 3.41932 0
M  V30 36410 C 3545.14 0.170944 4.27658 0
M  V30 36411 C 3544.47 -0.799305 5.28692 0
M  V30 36412 C 3545.77 1.37274 5.03938 0
M  V30 36413 H 3547.46 1.05177 2.80318 0
M  V30 36414 H 3545.01 0.507209 1.34772 0
M  V30 36415 H 3546.96 -1.01824 4.08913 0
M  V30 36416 H 3545.68 -1.453 2.92498 0
M  V30 36417 H 3544.34 0.562157 3.62264 0
M  V30 36418 H 3543.99 -1.63968 4.75524 0
M  V30 36419 H 3543.69 -0.282228 5.86922 0
M  V30 36420 H 3545.22 -1.20738 5.98544 0
M  V30 36421 H 3546.63 1.03738 5.63836 0
M  V30 36422 H 3545.03 1.82466 5.71687 0
M  V30 36423 H 3546.1 2.15684 4.34291 0
M  V30 36424 N 3547.44 -1.47105 0.565506 0
M  V30 36425 C 3548.66 -2.07345 0.0477128 0
M  V30 36426 C 3549.09 -1.41416 -1.24029 0
M  V30 36427 O 3548.45 -0.491972 -1.74497 0
M  V30 36428 C 3548.5 -3.60392 -0.122554 0
M  V30 36429 O 3547.6 -3.95063 -1.18319 0
M  V30 36430 H 3546.94 -0.661714 0.0550535 0
M  V30 36431 H 3549.47 -1.89002 0.783553 0
M  V30 36432 H 3549.48 -4.06629 -0.334156 0
M  V30 36433 H 3548.16 -4.07774 0.818141 0
M  V30 36434 H 3546.73 -3.60559 -0.951418 0
M  V30 36435 N 3548.92 -0.302382 -1.54672 0
M  V30 36436 C 3550.2 0.359677 -1.92265 0
M  V30 36437 C 3550.58 1.71581 -1.22976 0
M  V30 36438 O 3549.92 2.2555 -0.365982 0
M  V30 36439 C 3550.13 0.472958 -3.4578 0
M  V30 36440 C 3551.48 0.743178 -4.18045 0
M  V30 36441 O 3552.51 0.556716 -3.51823 0
M  V30 36442 O 3551.36 1.10145 -5.35285 0
M  V30 36443 H 3548.46 0.201345 -0.802115 0
M  V30 36444 H 3551 -0.350542 -1.6604 0
M  V30 36445 H 3549.78 -0.480333 -3.88341 0
M  V30 36446 H 3549.4 1.23159 -3.78044 0
M  V30 36447 N 3550.4 1.57571 -0.0301311 0
M  V30 36448 C 3551.64 1.91463 0.647008 0
M  V30 36449 C 3551.97 0.907236 1.7261 0
M  V30 36450 O 3551.24 -0.0510923 1.95833 0
M  V30 36451 H 3549.82 0.706723 0.241975 0
M  V30 36452 H 3552.48 1.94743 -0.0781727 0
M  V30 36453 H 3551.57 2.92107 1.0991 0
M  V30 36454 N 3551.87 -0.243029 1.55715 0
M  V30 36455 C 3553.1 -0.992187 1.82127 0
M  V30 36456 C 3553.52 -1.78013 0.607696 0
M  V30 36457 O 3552.88 -1.75796 -0.44332 0
M  V30 36458 C 3552.93 -1.90268 3.06317 0
M  V30 36459 O 3552.03 -2.99498 2.83505 0
M  V30 36460 H 3551.38 -0.282117 0.601087 0
M  V30 36461 H 3553.91 -0.262845 2.02905 0
M  V30 36462 H 3553.92 -2.3166 3.35854 0
M  V30 36463 H 3552.59 -1.32337 3.94284 0
M  V30 36464 H 3551.17 -2.62206 2.65146 0
M  V30 36465 N 3553.35 -1.49159 -0.508854 0
M  V30 36466 C 3554.6 -1.59459 -1.26271 0
M  V30 36467 C 3554.95 -0.27425 -1.90435 0
M  V30 36468 O 3554.25 0.724844 -1.7736 0
M  V30 36469 C 3554.44 -2.68514 -2.3587 0
M  V30 36470 C 3554.27 -4.11024 -1.82453 0
M  V30 36471 C 3553.04 -4.77909 -1.64106 0
M  V30 36472 C 3555.24 -4.96513 -1.34088 0
M  V30 36473 N 3553.22 -6.04761 -1.05535 0
M  V30 36474 C 3554.59 -6.1378 -0.876017 0
M  V30 36475 C 3556.65 -4.82573 -1.22588 0
M  V30 36476 C 3555.35 -7.18642 -0.307533 0
M  V30 36477 C 3557.37 -5.87577 -0.67137 0
M  V30 36478 C 3556.74 -7.04067 -0.216692 0
M  V30 36479 H 3552.84 -0.637918 -0.45231 0
M  V30 36480 H 3555.42 -1.86132 -0.571224 0
M  V30 36481 H 3553.59 -2.43627 -3.0249 0
M  V30 36482 H 3555.32 -2.6838 -3.0291 0
M  V30 36483 H 3552.08 -4.34581 -1.88246 0
M  V30 36484 H 3552.5 -6.72468 -0.781996 0
M  V30 36485 H 3557.14 -3.92832 -1.56341 0
M  V30 36486 H 3554.86 -8.08089 0.042284 0
M  V30 36487 H 3558.45 -5.78849 -0.585273 0
M  V30 36488 H 3557.33 -7.8393 0.205692 0
M  V30 36489 N 3554.83 0.759322 -1.38102 0
M  V30 36490 C 3556.06 1.55365 -1.37392 0
M  V30 36491 C 3556.48 1.88066 0.0355766 0
M  V30 36492 O 3555.84 1.50152 1.01607 0
M  V30 36493 C 3555.89 2.83298 -2.23103 0
M  V30 36494 O 3554.99 3.78207 -1.64419 0
M  V30 36495 H 3554.33 0.470135 -0.468902 0
M  V30 36496 H 3556.86 0.938826 -1.81789 0
M  V30 36497 H 3556.87 3.32279 -2.36758 0
M  V30 36498 H 3555.55 2.58826 -3.25549 0
M  V30 36499 H 3554.12 3.3689 -1.59873 0
M  V30 36500 N 3556.31 1.22876 0.986873 0
M  V30 36501 C 3557.54 1.08345 1.76264 0
M  V30 36502 C 3557.95 -0.365569 1.85227 0
M  V30 36503 O 3557.31 -1.25312 1.32677 0
M  V30 36504 C 3557.36 1.69538 3.19279 0
M  V30 36505 O 3557.08 3.08773 3.10791 0
M  V30 36506 C 3558.58 1.60363 4.13278 0
M  V30 36507 H 3555.8 0.379507 0.553367 0
M  V30 36508 H 3558.35 1.62594 1.2403 0
M  V30 36509 H 3556.5 1.19338 3.68561 0
M  V30 36510 H 3556.91 3.3835 4.00774 0
M  V30 36511 H 3558.39 2.07893 5.11356 0
M  V30 36512 H 3558.87 0.561259 4.35599 0
M  V30 36513 H 3559.47 2.09897 3.69896 0
M  V30 36514 N 3557.79 -1.18464 1.03942 0
M  V30 36515 C 3559.03 -1.88692 0.743174 0
M  V30 36516 C 3559.37 -1.80071 -0.727179 0
M  V30 36517 O 3558.64 -1.20017 -1.53056 0
M  V30 36518 C 3558.92 -3.39221 1.20835 0
M  V30 36519 C 3558.78 -3.56659 2.7407 0
M  V30 36520 C 3560.1 -4.32815 0.797424 0
M  V30 36521 H 3557.21 -0.685189 0.271449 0
M  V30 36522 H 3559.86 -1.39383 1.29121 0
M  V30 36523 H 3558.01 -3.81346 0.7421 0
M  V30 36524 H 3559.68 -3.23634 3.28723 0
M  V30 36525 H 3557.92 -2.99356 3.13956 0
M  V30 36526 H 3558.59 -4.62272 3.01677 0
M  V30 36527 H 3561.07 -3.98463 1.19861 0
M  V30 36528 H 3559.94 -5.36704 1.15067 0
M  V30 36529 H 3560.21 -4.41084 -0.299524 0
M  V30 36530 N 3559.26 -0.818716 -1.34665 0
M  V30 36531 C 3560.49 -0.416621 -2.03172 0
M  V30 36532 C 3560.91 0.968293 -1.61263 0
M  V30 36533 O 3560.27 1.6293 -0.795199 0
M  V30 36534 C 3560.32 -0.521947 -3.56803 0
M  V30 36535 O 3559.42 0.459881 -4.09828 0
M  V30 36536 H 3558.77 -0.172148 -0.641297 0
M  V30 36537 H 3561.3 -1.10797 -1.72004 0
M  V30 36538 H 3561.31 -0.396172 -4.06072 0
M  V30 36539 H 3559.98 -1.53205 -3.86654 0
M  V30 36540 H 3558.56 0.29334 -3.71744 0
M  V30 36541 N 3560.74 1.46803 -0.573299 0
M  V30 36542 C 3561.99 2.02025 -0.0551877 0
M  V30 36543 C 3562.31 1.44828 1.30575 0
M  V30 36544 O 3561.58 0.629436 1.85513 0
M  V30 36545 H 3560.16 0.746797 -0.0174114 0
M  V30 36546 H 3562.82 1.80018 -0.746951 0
M  V30 36547 H 3561.92 3.12093 0.0208778 0
M  V30 36548 N 3562.22 0.31058 1.54509 0
M  V30 36549 C 3563.13 -0.570478 2.27558 0
M  V30 36550 C 3564.15 -1.14029 1.31428 0
M  V30 36551 O 3565.32 -1.16304 1.64425 0
M  V30 36552 C 3562.39 -1.72158 3.00936 0
M  V30 36553 C 3561.45 -1.18488 4.12625 0
M  V30 36554 C 3560.68 -2.28112 4.82494 0
M  V30 36555 O 3560.9 -3.48203 4.51786 0
M  V30 36556 O 3559.84 -1.94263 5.69689 0
M  V30 36557 H 3563.66 0.0223729 3.03692 0
M  V30 36558 H 3561.25 0.0767083 1.49203 0
M  V30 36559 H 3563.13 -2.39202 3.4693 0
M  V30 36560 H 3561.81 -2.30086 2.27689 0
M  V30 36561 H 3560.71 -0.479891 3.71009 0
M  V30 36562 H 3562.05 -0.650908 4.87877 0
M  V30 36563 N 3563.7 -1.57553 0.0384871 0
M  V30 36564 C 3564.66 -2.09691 -0.925321 0
M  V30 36565 C 3565.66 -1.01387 -1.24809 0
M  V30 36566 O 3566.85 -1.2751 -1.18688 0
M  V30 36567 C 3563.98 -2.57059 -2.23906 0
M  V30 36568 H 3565.18 -2.96137 -0.473581 0
M  V30 36569 H 3562.73 -1.54887 -0.209709 0
M  V30 36570 H 3563.47 -1.73969 -2.73688 0
M  V30 36571 H 3563.25 -3.36191 -2.01787 0
M  V30 36572 H 3564.74 -2.97588 -2.92969 0
M  V30 36573 N 3565.18 0.234767 -1.55842 0
M  V30 36574 C 3566.43 0.959186 -1.77888 0
M  V30 36575 C 3566.75 1.85389 -0.604653 0
M  V30 36576 O 3566.02 1.92198 0.379059 0
M  V30 36577 H 3564.6 0.357161 -0.656083 0
M  V30 36578 H 3567.26 0.249797 -1.93293 0
M  V30 36579 H 3566.35 1.57378 -2.69515 0
M  V30 36580 N 3566.66 1.49427 0.500936 0
M  V30 36581 C 3567.57 1.68835 1.62886 0
M  V30 36582 C 3568.58 0.570961 1.64366 0
M  V30 36583 O 3569.76 0.845673 1.82785 0
M  V30 36584 C 3566.82 1.75069 2.99252 0
M  V30 36585 C 3565.88 2.98645 3.08399 0
M  V30 36586 C 3565.12 3.04571 4.3826 0
M  V30 36587 O 3565.34 2.18089 5.27061 0
M  V30 36588 O 3564.27 3.97034 4.5238 0
M  V30 36589 H 3568.1 2.64388 1.49441 0
M  V30 36590 H 3565.68 1.33169 0.67723 0
M  V30 36591 H 3567.57 1.81521 3.803 0
M  V30 36592 H 3566.24 0.826951 3.12959 0
M  V30 36593 H 3565.15 2.9771 2.26538 0
M  V30 36594 H 3566.48 3.90499 2.99619 0
M  V30 36595 N 3568.13 -0.751987 1.38502 0
M  V30 36596 C 3569.41 -1.50183 1.25318 0
M  V30 36597 C 3569.79 -2.10603 -0.144725 0
M  V30 36598 O 3569.14 -1.97196 -1.15438 0
M  V30 36599 C 3569.35 -2.5669 2.36455 0
M  V30 36600 C 3570.7 -3.23548 2.74957 0
M  V30 36601 O 3571.72 -2.66996 2.35779 0
M  V30 36602 O 3570.58 -4.25839 3.42524 0
M  V30 36603 H 3567.67 -0.666094 0.490151 0
M  V30 36604 H 3570.22 -0.787261 1.50334 0
M  V30 36605 H 3568.99 -2.10303 3.29982 0
M  V30 36606 H 3568.61 -3.35726 2.13012 0
M  V30 36607 N 3569.61 -1.23398 -0.980343 0
M  V30 36608 C 3570.86 -1.06768 -1.72419 0
M  V30 36609 C 3571.19 0.394482 -1.90151 0
M  V30 36610 O 3570.47 1.29206 -1.45382 0
M  V30 36611 C 3570.75 -1.79378 -3.12243 0
M  V30 36612 C 3570.6 -3.33268 -3.02081 0
M  V30 36613 C 3571.92 -1.55631 -4.11664 0
M  V30 36614 H 3569.04 -0.389262 -0.625815 0
M  V30 36615 H 3571.68 -1.51903 -1.14129 0
M  V30 36616 H 3569.83 -1.41011 -3.62006 0
M  V30 36617 H 3571.5 -3.81156 -2.59842 0
M  V30 36618 H 3569.75 -3.62297 -2.38585 0
M  V30 36619 H 3570.42 -3.79261 -4.0108 0
M  V30 36620 H 3572.89 -1.88982 -3.70709 0
M  V30 36621 H 3571.77 -2.08911 -5.0759 0
M  V30 36622 H 3572.03 -0.491678 -4.39357 0
M  V30 36623 N 3571.09 1.17911 -1.04569 0
M  V30 36624 C 3572.34 1.88295 -0.75317 0
M  V30 36625 C 3572.67 1.80455 0.71762 0
M  V30 36626 O 3571.94 1.20827 1.52417 0
M  V30 36627 C 3572.23 3.38576 -1.22632 0
M  V30 36628 C 3572.08 3.552 -2.75958 0
M  V30 36629 C 3573.4 4.32386 -0.820366 0
M  V30 36630 H 3570.52 0.68374 -0.275079 0
M  V30 36631 H 3573.16 1.38697 -1.29859 0
M  V30 36632 H 3571.31 3.80948 -0.762313 0
M  V30 36633 H 3572.98 3.21886 -3.30434 0
M  V30 36634 H 3571.22 2.97687 -3.15539 0
M  V30 36635 H 3571.9 4.60665 -3.04124 0
M  V30 36636 H 3574.37 3.97822 -1.21972 0
M  V30 36637 H 3573.25 5.36086 -1.17911 0
M  V30 36638 H 3573.51 4.41237 0.276128 0
M  V30 36639 N 3572.57 0.825847 1.34229 0
M  V30 36640 C 3573.81 0.421208 2.00013 0
M  V30 36641 C 3574.17 -0.99773 1.64041 0
M  V30 36642 O 3575.37 -1.50541 2.2269 0
M  V30 36643 C 3573.64 0.620705 3.51969 0
M  V30 36644 S 3575.2 0.309349 4.37708 0
M  V30 36645 H 3572.02 0.159015 0.69299 0
M  V30 36646 H 3574.62 1.0723 1.63469 0
M  V30 36647 H 3573.33 1.65303 3.75637 0
M  V30 36648 H 3572.86 -0.045014 3.93374 0
M  V30 36649 H 3574.87 -0.875857 4.88409 0
M  V30 36650 N 3574.05 -1.46497 0.581077 0
M  V30 36651 C 3575.29 -2.04285 0.0686936 0
M  V30 36652 C 3575.65 -1.44298 -1.26658 0
M  V30 36653 O 3576.85 -1.93276 -1.86809 0
M  V30 36654 C 3575.12 -3.574 0.00219362 0
M  V30 36655 S 3576.68 -4.36457 -0.452851 0
M  V30 36656 H 3573.5 -0.710053 0.0366811 0
M  V30 36657 H 3576.1 -1.7956 0.773205 0
M  V30 36658 H 3574.8 -3.98577 0.977978 0
M  V30 36659 H 3574.34 -3.86659 -0.725139 0
M  V30 36660 H 3576.35 -4.6588 -1.70792 0
M  V30 36661 N 3575.52 -0.31877 -1.54343 0
M  V30 36662 C 3576.75 0.29009 -2.05361 0
M  V30 36663 C 3577.17 1.45374 -1.19365 0
M  V30 36664 O 3576.53 1.80175 -0.20167 0
M  V30 36665 C 3576.58 0.706963 -3.53602 0
M  V30 36666 O 3575.68 1.80986 -3.70564 0
M  V30 36667 H 3575.02 0.0532817 -0.661859 0
M  V30 36668 H 3577.55 -0.465785 -1.99228 0
M  V30 36669 H 3577.56 0.990936 -3.95783 0
M  V30 36670 H 3576.24 -0.144164 -4.1565 0
M  V30 36671 H 3574.82 1.52507 -3.40288 0
M  V30 36672 N 3577 1.5753 -0.0468419 0
M  V30 36673 C 3577.93 2.06825 0.964293 0
M  V30 36674 C 3578.91 0.967806 1.30661 0
M  V30 36675 O 3580.1 1.23943 1.42023 0
M  V30 36676 C 3577.22 2.50513 2.27949 0
M  V30 36677 C 3576.27 3.71751 2.09053 0
M  V30 36678 S 3577.1 5.17602 1.37291 0
M  V30 36679 C 3578.26 5.646 2.70143 0
M  V30 36680 H 3578.49 2.92267 0.54475 0
M  V30 36681 H 3576.02 1.53512 0.165313 0
M  V30 36682 H 3577.98 2.76347 3.0355 0
M  V30 36683 H 3576.64 1.65385 2.67033 0
M  V30 36684 H 3575.84 4.00226 3.06326 0
M  V30 36685 H 3575.44 3.46161 1.41593 0
M  V30 36686 H 3577.73 5.69922 3.66327 0
M  V30 36687 H 3578.67 6.6388 2.4631 0
M  V30 36688 H 3579.08 4.92313 2.76203 0
M  V30 36689 N 3578.48 -0.226499 1.55964 0
M  V30 36690 C 3579.71 -0.972814 1.8317 0
M  V30 36691 C 3580.13 -1.77359 0.626543 0
M  V30 36692 O 3579.49 -1.76257 -0.424649 0
M  V30 36693 C 3579.54 -1.87009 3.08318 0
M  V30 36694 O 3578.64 -2.96474 2.86665 0
M  V30 36695 H 3577.98 -0.275726 0.604046 0
M  V30 36696 H 3580.51 -0.24131 2.03172 0
M  V30 36697 H 3580.52 -2.28085 3.38292 0
M  V30 36698 H 3579.2 -1.28148 3.95665 0
M  V30 36699 H 3577.77 -2.59379 2.67912 0
M  V30 36700 N 3579.96 -1.4969 -0.493005 0
M  V30 36701 C 3581.19 -1.63065 -1.26859 0
M  V30 36702 C 3581.6 -0.304484 -1.86734 0
M  V30 36703 O 3580.94 0.72105 -1.68957 0
M  V30 36704 C 3581 -2.64712 -2.43244 0
M  V30 36705 C 3580.67 -4.08853 -2.04178 0
M  V30 36706 C 3581.66 -4.95409 -1.57689 0
M  V30 36707 C 3579.35 -4.54636 -2.13568 0
M  V30 36708 C 3581.34 -6.25789 -1.21105 0
M  V30 36709 C 3579.03 -5.85028 -1.76596 0
M  V30 36710 C 3580.03 -6.70429 -1.3044 0
M  V30 36711 O 3579.71 -7.98389 -0.939703 0
M  V30 36712 H 3579.45 -0.551686 -0.390665 0
M  V30 36713 H 3582 -1.96518 -0.597496 0
M  V30 36714 H 3580.23 -2.26456 -3.13456 0
M  V30 36715 H 3581.92 -2.67533 -3.05256 0
M  V30 36716 H 3582.69 -4.61262 -1.49874 0
M  V30 36717 H 3578.56 -3.88325 -2.48445 0
M  V30 36718 H 3582.11 -6.92401 -0.850077 0
M  V30 36719 H 3578.01 -6.18701 -1.84063 0
M  V30 36720 H 3578.77 -8.1147 -1.07048 0
M  V30 36721 N 3581.44 0.744631 -1.38899 0
M  V30 36722 C 3582.66 1.53389 -1.38851 0
M  V30 36723 C 3583.08 1.8879 0.0194617 0
M  V30 36724 O 3582.44 1.53419 0.988372 0
M  V30 36725 C 3582.49 2.82746 -2.25248 0
M  V30 36726 O 3582.21 2.48852 -3.60561 0
M  V30 36727 C 3583.71 3.76833 -2.33478 0
M  V30 36728 H 3580.93 0.474329 -0.474608 0
M  V30 36729 H 3583.47 0.92087 -1.82593 0
M  V30 36730 H 3581.63 3.40403 -1.84944 0
M  V30 36731 H 3582.04 3.31879 -4.06148 0
M  V30 36732 H 3583.52 4.64523 -2.98198 0
M  V30 36733 H 3583.99 4.17903 -1.35107 0
M  V30 36734 H 3584.6 3.25098 -2.74211 0
M  V30 36735 N 3582.91 1.23916 0.973785 0
M  V30 36736 C 3584.16 1.08688 1.71926 0
M  V30 36737 C 3584.52 -0.371395 1.88781 0
M  V30 36738 O 3583.81 -1.27093 1.4338 0
M  V30 36739 C 3584 1.75331 3.11438 0
M  V30 36740 C 3583.83 3.27489 3.0819 0
M  V30 36741 C 3582.6 3.96677 3.13011 0
M  V30 36742 C 3584.8 4.24165 2.9084 0
M  V30 36743 N 3582.78 5.35763 2.99718 0
M  V30 36744 C 3584.15 5.50209 2.8578 0
M  V30 36745 C 3586.21 4.14817 2.75375 0
M  V30 36746 C 3584.91 6.67976 2.66835 0
M  V30 36747 C 3586.94 5.32254 2.57797 0
M  V30 36748 C 3586.3 6.57227 2.5344 0
M  V30 36749 H 3582.4 0.452297 0.637927 0
M  V30 36750 H 3584.98 1.56742 1.15499 0
M  V30 36751 H 3583.15 1.298 3.66069 0
M  V30 36752 H 3584.88 1.53019 3.74656 0
M  V30 36753 H 3581.64 3.47801 3.21452 0
M  V30 36754 H 3582.06 6.08702 2.96329 0
M  V30 36755 H 3586.71 3.18963 2.7753 0
M  V30 36756 H 3584.42 7.63959 2.63425 0
M  V30 36757 H 3588.01 5.26867 2.46784 0
M  V30 36758 H 3586.89 7.46569 2.4001 0
M  V30 36759 N 3584.39 -1.17355 1.05193 0
M  V30 36760 C 3585.62 -1.91536 0.782406 0
M  V30 36761 C 3586.04 -1.76817 -0.661904 0
M  V30 36762 O 3585.39 -1.10534 -1.45219 0
M  V30 36763 C 3585.44 -3.42598 1.15363 0
M  V30 36764 O 3585.16 -3.56864 2.54125 0
M  V30 36765 C 3586.67 -4.33854 0.910243 0
M  V30 36766 H 3583.89 -0.607714 0.284472 0
M  V30 36767 H 3586.43 -1.48819 1.40261 0
M  V30 36768 H 3584.58 -3.83061 0.578174 0
M  V30 36769 H 3585 -4.50459 2.68676 0
M  V30 36770 H 3586.47 -5.38355 1.21973 0
M  V30 36771 H 3586.95 -4.38928 -0.154547 0
M  V30 36772 H 3587.56 -3.99105 1.46954 0
M  V30 36773 N 3585.87 -0.832954 -1.3379 0
M  V30 36774 C 3587.12 -0.424975 -1.97581 0
M  V30 36775 C 3587.44 1.01781 -1.6633 0
M  V30 36776 O 3586.71 1.70812 -0.959171 0
M  V30 36777 H 3585.29 -0.154156 -0.730921 0
M  V30 36778 H 3587.95 -1.06461 -1.63255 0
M  V30 36779 H 3587.05 -0.552181 -3.07176 0
M  V30 36780 N 3587.35 1.46186 -0.588837 0
M  V30 36781 C 3588.31 2.28827 0.130763 0
M  V30 36782 C 3589.31 1.38733 0.813013 0
M  V30 36783 O 3590.5 1.61047 0.664033 0
M  V30 36784 C 3587.63 3.19277 1.19478 0
M  V30 36785 H 3588.83 2.93927 -0.595565 0
M  V30 36786 H 3586.38 1.52398 -0.347065 0
M  V30 36787 H 3587.11 2.58937 1.95249 0
M  V30 36788 H 3586.9 3.85618 0.710009 0
M  V30 36789 H 3588.39 3.81462 1.69931 0
M  V30 36790 N 3588.83 0.32695 1.54171 0
M  V30 36791 C 3589.76 -0.530114 2.27403 0
M  V30 36792 C 3590.74 -1.11652 1.28327 0
M  V30 36793 O 3591.92 -1.14102 1.57144 0
M  V30 36794 C 3589.05 -1.68945 3.03438 0
M  V30 36795 C 3588.01 -1.23218 4.0988 0
M  V30 36796 C 3587.33 -2.47874 4.73775 0
M  V30 36797 C 3588.63 -0.344607 5.21162 0
M  V30 36798 H 3590.33 0.0807485 2.99291 0
M  V30 36799 H 3587.87 0.0402764 1.43944 0
M  V30 36800 H 3589.83 -2.29535 3.534 0
M  V30 36801 H 3588.55 -2.32696 2.29173 0
M  V30 36802 H 3587.21 -0.649204 3.60806 0
M  V30 36803 H 3586.86 -3.09995 3.96121 0
M  V30 36804 H 3586.56 -2.17967 5.45678 0
M  V30 36805 H 3588.08 -3.09219 5.26513 0
M  V30 36806 H 3589.49 -0.85688 5.6686 0
M  V30 36807 H 3587.89 -0.138171 5.99941 0
M  V30 36808 H 3588.96 0.623659 4.80873 0
M  V30 36809 N 3590.3 -1.57503 0.0551955 0
M  V30 36810 C 3591.55 -1.92026 -0.617167 0
M  V30 36811 C 3591.87 -0.935741 -1.71765 0
M  V30 36812 O 3593.07 -1.17317 -2.44845 0
M  V30 36813 C 3591.53 -3.41063 -1.14909 0
M  V30 36814 C 3591.14 -4.47928 -0.0805026 0
M  V30 36815 C 3592.88 -3.84613 -1.79647 0
M  V30 36816 C 3590.79 -5.88082 -0.625536 0
M  V30 36817 H 3589.72 -0.716673 -0.234297 0
M  V30 36818 H 3592.37 -1.83076 0.124738 0
M  V30 36819 H 3590.75 -3.45031 -1.94344 0
M  V30 36820 H 3591.92 -4.55555 0.693302 0
M  V30 36821 H 3590.24 -4.13743 0.469654 0
M  V30 36822 H 3592.84 -4.86697 -2.21427 0
M  V30 36823 H 3593.18 -3.21078 -2.64981 0
M  V30 36824 H 3593.71 -3.83178 -1.06861 0
M  V30 36825 H 3590.45 -6.55224 0.190263 0
M  V30 36826 H 3589.97 -5.84009 -1.36724 0
M  V30 36827 H 3591.65 -6.37456 -1.10717 0
M  V30 36828 N 3591.78 0.218225 -1.56082 0
M  V30 36829 C 3593.01 0.958932 -1.83336 0
M  V30 36830 C 3593.43 1.7781 -0.634751 0
M  V30 36831 O 3592.78 1.78136 0.396697 0
M  V30 36832 C 3592.83 1.87382 -3.09145 0
M  V30 36833 O 3592.55 1.08776 -4.24381 0
M  V30 36834 C 3594.06 2.72814 -3.4941 0
M  V30 36835 H 3591.28 0.280887 -0.60938 0
M  V30 36836 H 3593.82 0.232451 -2.03175 0
M  V30 36837 H 3591.97 2.55421 -2.91272 0
M  V30 36838 H 3592.39 1.7091 -4.95873 0
M  V30 36839 H 3593.86 3.32705 -4.40467 0
M  V30 36840 H 3594.34 3.45375 -2.71317 0
M  V30 36841 H 3594.95 2.10183 -3.69734 0
M  V30 36842 N 3593.26 1.4995 0.485059 0
M  V30 36843 C 3594.67 1.53257 1.06626 0
M  V30 36844 C 3595.02 0.327949 1.9344 0
M  V30 36845 O 3594.15 -0.560632 2.09012 0
M  V30 36846 C 3594.74 2.77724 1.94048 0
M  V30 36847 C 3593.3 2.83758 2.47302 0
M  V30 36848 C 3592.45 2.47375 1.25303 0
M  V30 36849 H 3595.4 1.56416 0.26827 0
M  V30 36850 H 3595.42 2.58789 2.78942 0
M  V30 36851 H 3594.93 3.65381 1.30837 0
M  V30 36852 H 3593.03 2.0042 3.14106 0
M  V30 36853 H 3593.15 3.86318 2.83364 0
M  V30 36854 H 3591.51 1.99504 1.58336 0
M  V30 36855 H 3592.29 3.37324 0.637756 0
M  V30 36856 N 3594.74 -0.737255 1.39292 0
M  V30 36857 C 3595.98 -1.50944 1.37824 0
M  V30 36858 C 3596.34 -1.91981 -0.0268887 0
M  V30 36859 O 3597.54 -2.68283 -0.166563 0
M  V30 36860 C 3595.82 -2.71737 2.3215 0
M  V30 36861 S 3597.37 -3.61414 2.48849 0
M  V30 36862 H 3594.19 -0.516339 0.488789 0
M  V30 36863 H 3596.79 -0.864065 1.75369 0
M  V30 36864 H 3595.5 -2.39725 3.33107 0
M  V30 36865 H 3595.03 -3.41205 1.95812 0
M  V30 36866 H 3597.04 -4.65261 1.72472 0
M  V30 36867 N 3596.22 -1.24431 -0.967199 0
M  V30 36868 C 3597.18 -1.03812 -2.04342 0
M  V30 36869 C 3598.18 0.00474146 -1.60799 0
M  V30 36870 O 3599.37 -0.236271 -1.7259 0
M  V30 36871 C 3596.5 -0.573555 -3.3604 0
M  V30 36872 H 3597.7 -1.99334 -2.24067 0
M  V30 36873 H 3595.25 -1.0666 -1.14251 0
M  V30 36874 H 3595.98 0.384842 -3.22008 0
M  V30 36875 H 3595.77 -1.32626 -3.68989 0
M  V30 36876 H 3597.26 -0.450345 -4.15165 0
M  V30 36877 N 3597.7 1.16795 -1.05814 0
M  V30 36878 C 3598.66 2.19225 -0.668804 0
M  V30 36879 C 3599.66 1.58291 0.282962 0
M  V30 36880 O 3600.85 1.74075 0.0659927 0
M  V30 36881 C 3597.98 3.40896 0.0166779 0
M  V30 36882 H 3599.17 2.55184 -1.57548 0
M  V30 36883 H 3596.73 1.30986 -0.852776 0
M  V30 36884 H 3597.46 3.10489 0.936327 0
M  V30 36885 H 3597.25 3.86374 -0.667644 0
M  V30 36886 H 3598.74 4.16694 0.274967 0
M  V30 36887 N 3599.17 0.840037 1.33346 0
M  V30 36888 C 3600.08 0.276568 2.32964 0
M  V30 36889 C 3601.1 -0.598008 1.63401 0
M  V30 36890 O 3602.28 -0.501854 1.95047 0
M  V30 36891 C 3599.34 -0.538099 3.42499 0
M  V30 36892 C 3598.4 0.36089 4.2778 0
M  V30 36893 C 3597.63 -0.414992 5.32084 0
M  V30 36894 O 3597.86 -1.64657 5.46118 0
M  V30 36895 O 3596.79 0.211608 6.01528 0
M  V30 36896 H 3600.62 1.10152 2.8302 0
M  V30 36897 H 3598.2 0.60259 1.36708 0
M  V30 36898 H 3600.08 -1.00101 4.09338 0
M  V30 36899 H 3598.76 -1.34009 2.94658 0
M  V30 36900 H 3597.67 0.871662 3.63803 0
M  V30 36901 H 3599 1.12768 4.79108 0
M  V30 36902 N 3600.65 -1.45872 0.596582 0
M  V30 36903 C 3601.56 -2.34235 -0.130791 0
M  V30 36904 C 3602.58 -1.50586 -0.871779 0
M  V30 36905 O 3603.75 -1.83418 -0.831844 0
M  V30 36906 C 3600.82 -3.28018 -1.12273 0
M  V30 36907 C 3599.88 -4.27571 -0.384907 0
M  V30 36908 C 3599.11 -5.16873 -1.3296 0
M  V30 36909 O 3599.34 -5.0938 -2.56687 0
M  V30 36910 O 3598.27 -5.96113 -0.832636 0
M  V30 36911 H 3602.1 -2.97813 0.595083 0
M  V30 36912 H 3599.68 -1.45074 0.356898 0
M  V30 36913 H 3601.56 -3.85837 -1.69434 0
M  V30 36914 H 3600.24 -2.67019 -1.82983 0
M  V30 36915 H 3599.14 -3.73399 0.228882 0
M  V30 36916 H 3600.48 -4.91394 0.281485 0
M  V30 36917 N 3602.13 -0.335122 -1.53996 0
M  V30 36918 C 3603.35 0.268292 -2.05657 0
M  V30 36919 C 3603.78 1.441 -1.209 0
M  V30 36920 O 3603.14 1.79951 -0.220769 0
M  V30 36921 C 3603.19 0.669419 -3.54332 0
M  V30 36922 O 3602.29 1.77045 -3.72463 0
M  V30 36923 H 3601.63 0.0462588 -0.662387 0
M  V30 36924 H 3604.16 -0.486889 -1.98722 0
M  V30 36925 H 3604.17 0.948902 -3.96812 0
M  V30 36926 H 3602.85 -0.188241 -4.15474 0
M  V30 36927 H 3601.42 1.48889 -3.41887 0
M  V30 36928 N 3603.61 1.57472 -0.0635475 0
M  V30 36929 C 3604.55 2.1225 0.906567 0
M  V30 36930 C 3605.52 1.03293 1.30076 0
M  V30 36931 O 3606.71 1.3091 1.38806 0
M  V30 36932 C 3603.85 2.68196 2.17175 0
M  V30 36933 C 3602.96 3.91281 1.83094 0
M  V30 36934 C 3602.1 4.35498 3.04162 0
M  V30 36935 C 3601.14 5.51252 2.66059 0
M  V30 36936 N 3600.27 5.90466 3.79861 0
M  V30 36937 H 3605.11 2.94844 0.432554 0
M  V30 36938 H 3602.65 1.45708 0.201869 0
M  V30 36939 H 3604.61 2.98737 2.91225 0
M  V30 36940 H 3603.24 1.88379 2.62132 0
M  V30 36941 H 3602.29 3.67254 0.991408 0
M  V30 36942 H 3603.6 4.75378 1.51055 0
M  V30 36943 H 3602.76 4.67657 3.86499 0
M  V30 36944 H 3601.5 3.50238 3.39389 0
M  V30 36945 H 3600.5 5.18753 1.82141 0
M  V30 36946 H 3601.73 6.38238 2.32011 0
M  V30 36947 H 3599.67 5.08157 4.14864 0
M  V30 36948 H 3599.59 6.69283 3.51562 0
M  V30 36949 H 3600.86 6.27245 4.628 0
M  V30 36950 N 3605.09 -0.209945 1.56195 0
M  V30 36951 C 3606.02 -1.26321 1.96381 0
M  V30 36952 C 3607 -1.48272 0.833632 0
M  V30 36953 O 3608.18 -1.6026 1.09683 0
M  V30 36954 C 3605.31 -2.6106 2.29053 0
M  V30 36955 C 3604.27 -2.53746 3.44669 0
M  V30 36956 C 3603.59 -3.92621 3.62977 0
M  V30 36957 C 3604.89 -2.07528 4.79301 0
M  V30 36958 H 3606.59 -0.929329 2.84612 0
M  V30 36959 H 3604.13 -0.445603 1.36932 0
M  V30 36960 H 3606.08 -3.34912 2.55758 0
M  V30 36961 H 3604.81 -2.96158 1.37688 0
M  V30 36962 H 3603.47 -1.82351 3.18031 0
M  V30 36963 H 3603.12 -4.25047 2.68968 0
M  V30 36964 H 3602.82 -3.88606 4.40748 0
M  V30 36965 H 3604.34 -4.68118 3.92043 0
M  V30 36966 H 3605.75 -2.7113 5.05135 0
M  V30 36967 H 3604.15 -2.14548 5.60437 0
M  V30 36968 H 3605.22 -1.02794 4.73879 0
M  V30 36969 N 3606.56 -1.50205 -0.4771 0
M  V30 36970 C 3607.97 -1.5382 -1.05812 0
M  V30 36971 C 3608.33 -0.338203 -1.93263 0
M  V30 36972 O 3607.45 0.54954 -2.09306 0
M  V30 36973 C 3608.05 -2.7875 -1.92572 0
M  V30 36974 C 3606.6 -2.85066 -2.45794 0
M  V30 36975 C 3605.75 -2.48036 -1.23989 0
M  V30 36976 H 3608.7 -1.56556 -0.259971 0
M  V30 36977 H 3608.72 -2.60265 -2.77565 0
M  V30 36978 H 3608.24 -3.6607 -1.28897 0
M  V30 36979 H 3606.34 -2.02083 -3.13039 0
M  V30 36980 H 3606.45 -3.87815 -2.81312 0
M  V30 36981 H 3604.81 -2.00341 -1.57276 0
M  V30 36982 H 3605.6 -3.37658 -0.619858 0
M  V30 36983 N 3608.04 0.729857 -1.39681 0
M  V30 36984 C 3609.29 1.485 -1.36494 0
M  V30 36985 C 3609.6 1.95569 0.0346228 0
M  V30 36986 O 3610.81 2.70841 0.189087 0
M  V30 36987 C 3609.27 2.68357 -2.39818 0
M  V30 36988 C 3608.87 2.28215 -3.85515 0
M  V30 36989 C 3610.62 3.46157 -2.45715 0
M  V30 36990 C 3608.53 3.44826 -4.80468 0
M  V30 36991 H 3607.46 0.55767 -0.507465 0
M  V30 36992 H 3610.11 0.795679 -1.65352 0
M  V30 36993 H 3608.49 3.39388 -2.04039 0
M  V30 36994 H 3609.66 1.64697 -4.30362 0
M  V30 36995 H 3607.98 1.63494 -3.8296 0
M  V30 36996 H 3610.57 4.32902 -3.13847 0
M  V30 36997 H 3610.92 3.8898 -1.48325 0
M  V30 36998 H 3611.45 2.82158 -2.80414 0
M  V30 36999 H 3608.19 3.07047 -5.79139 0
M  V30 37000 H 3607.71 4.07308 -4.40296 0
M  V30 37001 H 3609.39 4.1109 -4.99614 0
M  V30 37002 N 3609.52 1.24942 0.960587 0
M  V30 37003 C 3610.47 1.04585 2.07761 0
M  V30 37004 C 3611.46 -0.0214207 1.69386 0
M  V30 37005 O 3612.67 0.133715 1.79503 0
M  V30 37006 H 3609.04 0.321228 0.679939 0
M  V30 37007 H 3611.01 1.99295 2.2209 0
M  V30 37008 C 3609.76 0.674936 3.41086 0
M  V30 37009 H 3609.09 1.48797 3.71079 0
M  V30 37010 H 3610.53 0.572153 4.20122 0
M  V30 37011 C 3608.99 -0.618542 3.31173 0
M  V30 37012 O 3609.52 -1.66231 3.65691 0
M  V30 37013 N 3607.72 -0.601934 2.84298 0
M  V30 37014 H 3607.27 0.247826 2.56405 0
M  V30 37015 H 3607.23 -1.46755 2.78047 0
M  V30 37016 N 3611 -1.16233 1.06432 0
M  V30 37017 C 3612.41 -1.68404 0.806042 0
M  V30 37018 C 3612.76 -1.844 -0.670164 0
M  V30 37019 O 3611.89 -1.54056 -1.51972 0
M  V30 37020 C 3612.48 -3.0589 1.45659 0
M  V30 37021 C 3611.04 -3.55177 1.24605 0
M  V30 37022 C 3610.19 -2.31125 1.5322 0
M  V30 37023 H 3613.14 -1.00575 1.22761 0
M  V30 37024 H 3613.16 -3.70357 0.872681 0
M  V30 37025 H 3612.67 -2.94216 2.53098 0
M  V30 37026 H 3610.77 -3.72108 0.191473 0
M  V30 37027 H 3610.88 -4.37185 1.95975 0
M  V30 37028 H 3609.25 -2.36207 0.952797 0
M  V30 37029 H 3610.03 -2.22048 2.6182 0
M  V30 37030 N 3612.48 -0.847097 -1.32899 0
M  V30 37031 C 3613.41 -0.301462 -2.31546 0
M  V30 37032 C 3614.39 0.595289 -1.59343 0
M  V30 37033 O 3615.57 0.517118 -1.87188 0
M  V30 37034 C 3612.7 0.517394 -3.43424 0
M  V30 37035 C 3611.66 -0.28427 -4.27055 0
M  V30 37036 C 3610.98 0.658851 -5.30625 0
M  V30 37037 C 3612.28 -1.50587 -5.00121 0
M  V30 37038 H 3613.98 -1.12572 -2.77431 0
M  V30 37039 H 3611.52 -0.542763 -1.33379 0
M  V30 37040 H 3613.48 0.90947 -4.11469 0
M  V30 37041 H 3612.2 1.37494 -2.96248 0
M  V30 37042 H 3610.86 -0.658008 -3.60646 0
M  V30 37043 H 3610.51 1.51303 -4.79704 0
M  V30 37044 H 3610.21 0.126517 -5.87464 0
M  V30 37045 H 3611.73 1.04827 -6.01534 0
M  V30 37046 H 3613.14 -1.1865 -5.60888 0
M  V30 37047 H 3611.54 -1.97559 -5.66648 0
M  V30 37048 H 3612.61 -2.27122 -4.2842 0
M  V30 37049 N 3613.95 1.45554 -0.604309 0
M  V30 37050 C 3615.18 2.07146 -0.10267 0
M  V30 37051 C 3615.6 1.44654 1.20236 0
M  V30 37052 O 3614.96 0.538064 1.73132 0
M  V30 37053 C 3615.01 3.6059 0.0269597 0
M  V30 37054 O 3614.11 3.98061 1.07803 0
M  V30 37055 H 3613.46 0.660022 -0.0725783 0
M  V30 37056 H 3615.99 1.86858 -0.833388 0
M  V30 37057 H 3616 4.07372 0.226228 0
M  V30 37058 H 3614.67 4.05461 -0.925968 0
M  V30 37059 H 3613.25 3.62954 0.855488 0
M  V30 37060 N 3615.43 0.343284 1.53816 0
M  V30 37061 C 3616.38 -0.528962 2.26506 0
M  V30 37062 C 3617.37 -1.10218 1.28641 0
M  V30 37063 O 3618.58 -1.04794 1.46349 0
M  V30 37064 H 3614.96 -0.189267 0.727793 0
M  V30 37065 H 3616.93 0.106148 2.98211 0
M  V30 37066 C 3615.68 -1.66824 3.05065 0
M  V30 37067 H 3615 -1.23644 3.802 0
M  V30 37068 H 3616.44 -2.25374 3.59142 0
M  V30 37069 C 3614.9 -2.59752 2.14547 0
M  V30 37070 O 3615.43 -3.61993 1.74138 0
M  V30 37071 N 3613.63 -2.28431 1.79632 0
M  V30 37072 H 3613.18 -1.45329 2.12691 0
M  V30 37073 H 3613.14 -2.90866 1.1935 0
M  V30 37074 N 3616.91 -1.57436 0.0718977 0
M  V30 37075 C 3618.14 -1.98237 -0.609666 0
M  V30 37076 C 3618.56 -0.949987 -1.62348 0
M  V30 37077 O 3617.92 0.0843963 -1.81103 0
M  V30 37078 C 3617.97 -3.3807 -1.25464 0
M  V30 37079 O 3617.07 -3.37463 -2.37049 0
M  V30 37080 H 3616.41 -0.645226 -0.156779 0
M  V30 37081 H 3618.94 -2.04075 0.146442 0
M  V30 37082 H 3618.95 -3.75256 -1.60146 0
M  V30 37083 H 3617.63 -4.12739 -0.51177 0
M  V30 37084 H 3616.2 -3.12047 -2.0416 0
M  V30 37085 N 3618.39 0.201658 -1.56305 0
M  V30 37086 C 3619.32 1.25277 -1.97048 0
M  V30 37087 C 3620.3 1.47828 -0.841484 0
M  V30 37088 O 3621.48 1.59676 -1.10532 0
M  V30 37089 C 3618.61 2.59841 -2.30434 0
M  V30 37090 C 3617.57 2.51914 -3.4601 0
M  V30 37091 C 3616.89 3.90691 -3.65054 0
M  V30 37092 C 3618.19 2.04983 -4.80395 0
M  V30 37093 H 3619.89 0.914222 -2.85101 0
M  V30 37094 H 3617.43 0.438335 -1.37166 0
M  V30 37095 H 3619.39 3.3355 -2.57531 0
M  V30 37096 H 3618.11 2.95424 -1.39256 0
M  V30 37097 H 3616.77 1.80661 -3.18994 0
M  V30 37098 H 3616.42 4.23615 -2.71218 0
M  V30 37099 H 3616.12 3.86264 -4.42803 0
M  V30 37100 H 3617.64 4.66032 -3.9452 0
M  V30 37101 H 3619.06 2.68447 -5.06566 0
M  V30 37102 H 3617.45 2.11572 -5.61567 0
M  V30 37103 H 3618.52 1.00279 -4.74418 0
M  V30 37104 N 3619.87 1.50456 0.469128 0
M  V30 37105 C 3620.8 1.72393 1.5749 0
M  V30 37106 C 3621.78 0.572943 1.6016 0
M  V30 37107 O 3622.96 0.81229 1.76396 0
M  V30 37108 C 3620.09 1.81987 2.95801 0
M  V30 37109 C 3619.05 2.97191 3.07996 0
M  V30 37110 C 3618.37 2.9193 4.47975 0
M  V30 37111 C 3619.67 4.3767 2.85031 0
M  V30 37112 H 3621.37 2.64976 1.39384 0
M  V30 37113 H 3618.91 1.2751 0.669111 0
M  V30 37114 H 3620.87 1.95918 3.73087 0
M  V30 37115 H 3619.59 0.860265 3.15067 0
M  V30 37116 H 3618.25 2.82913 2.33143 0
M  V30 37117 H 3617.9 1.93812 4.64162 0
M  V30 37118 H 3617.6 3.69271 4.5707 0
M  V30 37119 H 3619.12 3.07912 5.27279 0
M  V30 37120 H 3620.53 4.52462 3.52066 0
M  V30 37121 H 3618.93 5.16476 3.05569 0
M  V30 37122 H 3620 4.49903 1.80873 0
M  V30 37123 N 3621.34 -0.722439 1.40066 0
M  V30 37124 C 3622.76 -1.02963 1.21946 0
M  V30 37125 C 3622.96 -2.013 0.0898423 0
M  V30 37126 O 3622.02 -2.46337 -0.554475 0
M  V30 37127 C 3623.33 -1.5799 2.55851 0
M  V30 37128 C 3624.88 -1.70009 2.62804 0
M  V30 37129 C 3625.35 -2.28443 3.96961 0
M  V30 37130 N 3626.84 -2.35837 3.98666 0
M  V30 37131 C 3627.58 -2.82018 4.99253 0
M  V30 37132 N 3627.07 -3.28001 6.10235 0
M  V30 37133 N 3628.87 -2.8134 4.86625 0
M  V30 37134 H 3621.02 -0.0704928 2.12283 0
M  V30 37135 H 3623.28 -0.0938825 0.94334 0
M  V30 37136 H 3622.99 -0.931974 3.39127 0
M  V30 37137 H 3622.86 -2.56615 2.76457 0
M  V30 37138 H 3625.25 -2.3392 1.79904 0
M  V30 37139 H 3625.33 -0.700019 2.46035 0
M  V30 37140 H 3624.97 -1.65155 4.80298 0
M  V30 37141 H 3624.9 -3.29151 4.11056 0
M  V30 37142 H 3627.39 -2.03352 3.18522 0
M  V30 37143 H 3627.71 -3.61785 6.82884 0
M  V30 37144 H 3626.05 -3.25977 6.13811 0
M  V30 37145 H 3629.24 -2.44748 3.99019 0
M  V30 37146 H 3629.42 -3.17014 5.6516 0
M  V30 37147 N 3622.82 -1.2545 -0.953947 0
M  V30 37148 C 3623.77 -1.02578 -2.03622 0
M  V30 37149 C 3624.76 0.0375541 -1.60856 0
M  V30 37150 O 3625.95 -0.177864 -1.76104 0
M  V30 37151 C 3623.08 -0.647199 -3.37144 0
M  V30 37152 C 3622.16 -1.74733 -3.86431 0
M  V30 37153 N 3622.56 -2.98258 -4.08504 0
M  V30 37154 C 3620.85 -1.628 -4.15225 0
M  V30 37155 C 3621.55 -3.69671 -4.4913 0
M  V30 37156 N 3620.53 -2.97295 -4.55101 0
M  V30 37157 H 3624.33 -1.96356 -2.18682 0
M  V30 37158 H 3621.85 -1.15779 -1.13882 0
M  V30 37159 H 3623.84 -0.464535 -4.14304 0
M  V30 37160 H 3622.5 0.283239 -3.23462 0
M  V30 37161 H 3623.51 -3.34297 -3.95558 0
M  V30 37162 H 3620.19 -0.766573 -4.10402 0
M  V30 37163 H 3621.58 -4.75703 -4.74506 0
M  V30 37164 N 3624.3 1.15667 -1.07047 0
M  V30 37165 C 3625.25 2.18302 -0.657899 0
M  V30 37166 C 3626.24 1.57779 0.315378 0
M  V30 37167 O 3627.43 1.76525 0.1296 0
M  V30 37168 C 3624.56 3.43258 -0.0539446 0
M  V30 37169 C 3623.64 4.10841 -1.05217 0
M  V30 37170 N 3624.03 4.53959 -2.23059 0
M  V30 37171 C 3622.33 4.37135 -0.884816 0
M  V30 37172 C 3623.03 5.06331 -2.86363 0
M  V30 37173 N 3622.01 4.99685 -2.14046 0
M  V30 37174 H 3625.81 2.49364 -1.55546 0
M  V30 37175 H 3623.32 1.32201 -0.943223 0
M  V30 37176 H 3625.32 4.16092 0.259502 0
M  V30 37177 H 3623.98 3.13679 0.838775 0
M  V30 37178 H 3624.99 4.47445 -2.60794 0
M  V30 37179 H 3621.67 4.17476 -0.0447309 0
M  V30 37180 H 3623.06 5.49675 -3.86403 0
M  V30 37181 N 3625.78 0.854133 1.32447 0
M  V30 37182 C 3627 0.470342 2.01996 0
M  V30 37183 C 3627.43 -0.925196 1.63773 0
M  V30 37184 O 3626.79 -1.60765 0.838117 0
M  V30 37185 C 3626.84 0.616363 3.55293 0
M  V30 37186 O 3625.94 -0.351061 4.10903 0
M  V30 37187 H 3625.28 0.18909 0.636507 0
M  V30 37188 H 3627.81 1.15318 1.69006 0
M  V30 37189 H 3627.82 0.503695 4.04879 0
M  V30 37190 H 3626.5 1.63402 3.82456 0
M  V30 37191 H 3625.07 -0.194675 3.72391 0
M  V30 37192 N 3627.26 -1.45231 0.61202 0
M  V30 37193 C 3628.19 -2.27685 -0.153174 0
M  V30 37194 C 3629.17 -1.37402 -0.86945 0
M  V30 37195 O 3630.35 -1.66834 -0.877424 0
M  V30 37196 C 3627.48 -3.1588 -1.22218 0
M  V30 37197 C 3626.53 -4.22136 -0.608549 0
M  V30 37198 S 3627.36 -5.32274 0.586941 0
M  V30 37199 C 3628.51 -6.24037 -0.482547 0
M  V30 37200 H 3628.75 -2.92236 0.546367 0
M  V30 37201 H 3626.28 -1.49138 0.399658 0
M  V30 37202 H 3628.24 -3.67249 -1.83407 0
M  V30 37203 H 3626.9 -2.50586 -1.89381 0
M  V30 37204 H 3626.09 -4.83786 -1.41303 0
M  V30 37205 H 3625.69 -3.73931 -0.0717032 0
M  V30 37206 H 3627.99 -6.63701 -1.36041 0
M  V30 37207 H 3628.93 -7.08032 0.0979048 0
M  V30 37208 H 3629.34 -5.58804 -0.799866 0
M  V30 37209 N 3628.74 -0.351436 -1.53632 0
M  V30 37210 C 3629.98 0.243012 -2.01339 0
M  V30 37211 C 3630.31 1.49568 -1.23867 0
M  V30 37212 O 3629.59 1.91707 -0.328445 0
M  V30 37213 C 3629.87 0.549222 -3.55887 0
M  V30 37214 C 3629.73 -0.716094 -4.44063 0
M  V30 37215 C 3631.04 1.35562 -4.18702 0
M  V30 37216 H 3628.16 0.0868498 -0.731865 0
M  V30 37217 H 3630.81 -0.473533 -1.84005 0
M  V30 37218 H 3628.96 1.15966 -3.70789 0
M  V30 37219 H 3630.63 -1.3539 -4.40984 0
M  V30 37220 H 3628.87 -1.33938 -4.12605 0
M  V30 37221 H 3629.54 -0.456991 -5.50105 0
M  V30 37222 H 3632.02 0.83937 -4.07546 0
M  V30 37223 H 3630.89 1.53862 -5.26894 0
M  V30 37224 H 3631.15 2.36004 -3.73838 0
M  V30 37225 N 3630.21 1.57396 -0.0802459 0
M  V30 37226 C 3631.44 1.97851 0.594855 0
M  V30 37227 C 3631.85 0.95767 1.63173 0
M  V30 37228 O 3631.19 -0.062931 1.83592 0
M  V30 37229 C 3631.26 3.34641 1.31361 0
M  V30 37230 C 3630.92 4.5498 0.429223 0
M  V30 37231 C 3631.92 5.18935 -0.316628 0
M  V30 37232 C 3629.6 5.01068 0.351626 0
M  V30 37233 C 3631.6 6.27336 -1.12821 0
M  V30 37234 C 3629.28 6.09339 -0.46362 0
M  V30 37235 C 3630.28 6.72336 -1.2022 0
M  V30 37236 O 3629.97 7.78521 -2.00398 0
M  V30 37237 H 3629.7 0.655474 0.165319 0
M  V30 37238 H 3632.26 2.04839 -0.151733 0
M  V30 37239 H 3630.49 3.24292 2.10645 0
M  V30 37240 H 3632.17 3.59644 1.88178 0
M  V30 37241 H 3632.94 4.84268 -0.266323 0
M  V30 37242 H 3628.82 4.51805 0.916139 0
M  V30 37243 H 3632.36 6.76438 -1.7052 0
M  V30 37244 H 3628.26 6.43439 -0.51546 0
M  V30 37245 H 3629.03 7.95439 -1.92921 0
M  V30 37246 N 3631.69 -0.193366 1.56409 0
M  V30 37247 C 3632.92 -0.933742 1.85192 0
M  V30 37248 C 3633.34 -1.7599 0.664022 0
M  V30 37249 O 3632.7 -1.77118 -0.387167 0
M  V30 37250 C 3632.75 -1.80427 3.12216 0
M  V30 37251 O 3631.85 -2.90327 2.92889 0
M  V30 37252 H 3631.19 -0.262851 0.609758 0
M  V30 37253 H 3633.72 -0.198159 2.03638 0
M  V30 37254 H 3633.73 -2.20858 3.43054 0
M  V30 37255 H 3632.41 -1.19726 3.98294 0
M  V30 37256 H 3630.98 -2.53638 2.73354 0
M  V30 37257 N 3633.17 -1.50702 -0.461142 0
M  V30 37258 C 3634.4 -1.6596 -1.23551 0
M  V30 37259 C 3634.81 -0.34701 -1.85584 0
M  V30 37260 O 3634.17 0.672099 -1.69673 0
M  V30 37261 C 3634.22 -2.75803 -2.33699 0
M  V30 37262 O 3633.94 -4.01974 -1.74208 0
M  V30 37263 C 3635.44 -3.02121 -3.24403 0
M  V30 37264 H 3632.66 -0.557581 -0.373289 0
M  V30 37265 H 3635.21 -1.96985 -0.549304 0
M  V30 37266 H 3633.36 -2.47445 -2.98077 0
M  V30 37267 H 3633.78 -4.62796 -2.46819 0
M  V30 37268 H 3635.25 -3.82618 -3.97879 0
M  V30 37269 H 3635.73 -2.13582 -3.8377 0
M  V30 37270 H 3636.33 -3.32049 -2.65752 0
M  V30 37271 N 3634.65 0.715001 -1.40447 0
M  V30 37272 C 3635.88 1.50409 -1.42073 0
M  V30 37273 C 3636.29 1.88789 -0.0205879 0
M  V30 37274 O 3635.65 1.55481 0.955608 0
M  V30 37275 C 3635.7 2.77905 -2.31195 0
M  V30 37276 O 3635.42 2.41148 -3.65759 0
M  V30 37277 C 3636.92 3.71796 -2.41418 0
M  V30 37278 H 3634.14 0.464155 -0.484562 0
M  V30 37279 H 3636.68 0.881932 -1.84505 0
M  V30 37280 H 3634.84 3.36404 -1.92123 0
M  V30 37281 H 3635.25 3.2319 -4.13096 0
M  V30 37282 H 3636.73 4.58093 -3.07984 0
M  V30 37283 H 3637.2 4.14943 -1.43941 0
M  V30 37284 H 3637.81 3.19208 -2.81045 0
M  V30 37285 N 3636.13 1.25954 0.947281 0
M  V30 37286 C 3637.35 1.14 1.73259 0
M  V30 37287 C 3637.78 -0.301607 1.85666 0
M  V30 37288 O 3637.13 -1.21851 1.34246 0
M  V30 37289 C 3637.18 1.80725 3.12043 0
M  V30 37290 O 3636.29 1.09189 3.97683 0
M  V30 37291 H 3635.63 0.397581 0.531813 0
M  V30 37292 H 3638.16 1.66658 1.18686 0
M  V30 37293 H 3638.17 1.87305 3.62465 0
M  V30 37294 H 3636.84 2.85605 3.02329 0
M  V30 37295 H 3635.42 1.10542 3.56139 0
M  V30 37296 N 3637.6 -1.15097 1.07659 0
M  V30 37297 C 3639.02 -1.37944 0.802721 0
M  V30 37298 C 3639.22 -1.9262 -0.591588 0
M  V30 37299 O 3638.28 -2.13396 -1.34975 0
M  V30 37300 C 3639.59 -2.34755 1.87911 0
M  V30 37301 C 3641.14 -2.48411 1.90423 0
M  V30 37302 C 3641.61 -3.48516 2.97154 0
M  V30 37303 N 3643.1 -3.56054 2.96277 0
M  V30 37304 C 3643.84 -4.3334 3.75505 0
M  V30 37305 N 3643.33 -5.13932 4.64592 0
M  V30 37306 N 3645.13 -4.2846 3.63839 0
M  V30 37307 H 3637.28 -0.779502 1.97579 0
M  V30 37308 H 3639.54 -0.405316 0.856985 0
M  V30 37309 H 3639.25 -2.01702 2.88113 0
M  V30 37310 H 3639.12 -3.34571 1.74189 0
M  V30 37311 H 3641.51 -2.80761 0.908704 0
M  V30 37312 H 3641.59 -1.48583 2.08223 0
M  V30 37313 H 3641.23 -3.16901 3.96908 0
M  V30 37314 H 3641.16 -4.48107 2.766 0
M  V30 37315 H 3643.65 -2.98534 2.31702 0
M  V30 37316 H 3643.97 -5.70158 5.2167 0
M  V30 37317 H 3642.31 -5.13227 4.68639 0
M  V30 37318 H 3645.5 -3.64565 2.93616 0
M  V30 37319 H 3645.68 -4.88442 4.25826 0
M  V30 37320 N 3639.08 -0.861145 -1.31993 0
M  V30 37321 C 3640.31 -0.481048 -2.01744 0
M  V30 37322 C 3640.73 0.916498 -1.64262 0
M  V30 37323 O 3640.09 1.60318 -0.846631 0
M  V30 37324 C 3640.14 -0.635196 -3.54961 0
M  V30 37325 O 3639.24 0.329265 -4.11083 0
M  V30 37326 H 3638.58 -0.192463 -0.635495 0
M  V30 37327 H 3641.11 -1.16213 -1.68392 0
M  V30 37328 H 3641.12 -0.52516 -4.04606 0
M  V30 37329 H 3639.8 -1.65428 -3.81584 0
M  V30 37330 H 3638.38 0.174924 -3.72489 0
M  V30 37331 N 3640.56 1.44905 -0.619713 0
M  V30 37332 C 3641.52 2.29053 0.0821962 0
M  V30 37333 C 3642.52 1.40426 0.783403 0
M  V30 37334 O 3643.71 1.6242 0.629723 0
M  V30 37335 C 3640.85 3.21739 1.12679 0
M  V30 37336 H 3642.04 2.92597 -0.657778 0
M  V30 37337 H 3639.59 1.51628 -0.379313 0
M  V30 37338 H 3640.33 2.6302 1.89713 0
M  V30 37339 H 3640.11 3.87037 0.628054 0
M  V30 37340 H 3641.6 3.84981 1.61801 0
M  V30 37341 N 3642.04 0.359579 1.53443 0
M  V30 37342 C 3643.26 -0.23554 2.06058 0
M  V30 37343 C 3643.69 -1.42158 1.23177 0
M  V30 37344 O 3643.05 -1.79577 0.24937 0
M  V30 37345 C 3643.09 -0.612963 3.55352 0
M  V30 37346 O 3642.2 -1.71098 3.75232 0
M  V30 37347 H 3641.54 -0.035715 0.663039 0
M  V30 37348 H 3644.07 0.518443 1.97923 0
M  V30 37349 H 3644.08 -0.885652 3.98272 0
M  V30 37350 H 3642.75 0.254316 4.15122 0
M  V30 37351 H 3641.33 -1.43431 3.44212 0
M  V30 37352 N 3643.52 -1.57351 0.0885919 0
M  V30 37353 C 3644.45 -2.16691 -0.869908 0
M  V30 37354 C 3645.43 -1.09846 -1.29876 0
M  V30 37355 O 3646.61 -1.37956 -1.36681 0
M  V30 37356 C 3643.74 -2.74203 -2.13143 0
M  V30 37357 C 3642.7 -3.86362 -1.84142 0
M  V30 37358 C 3642.02 -4.30549 -3.17068 0
M  V30 37359 C 3643.32 -5.09852 -1.13348 0
M  V30 37360 H 3645.02 -2.97036 -0.375526 0
M  V30 37361 H 3642.56 -1.42881 -0.179185 0
M  V30 37362 H 3644.52 -3.14365 -2.80628 0
M  V30 37363 H 3643.24 -1.91103 -2.64853 0
M  V30 37364 H 3641.9 -3.46729 -1.19057 0
M  V30 37365 H 3641.55 -3.44348 -3.66652 0
M  V30 37366 H 3641.25 -5.06164 -2.98448 0
M  V30 37367 H 3642.77 -4.7334 -3.85722 0
M  V30 37368 H 3644.18 -5.47225 -1.70931 0
M  V30 37369 H 3642.58 -5.90855 -1.0493 0
M  V30 37370 H 3643.65 -4.84763 -0.115188 0
M  V30 37371 N 3644.99 0.185069 -1.5651 0
M  V30 37372 C 3646.41 0.536307 -1.50319 0
M  V30 37373 C 3646.61 1.8535 -0.790419 0
M  V30 37374 O 3645.67 2.50131 -0.345083 0
M  V30 37375 C 3646.98 0.581774 -2.95018 0
M  V30 37376 C 3648.53 0.669921 -3.05747 0
M  V30 37377 C 3649 0.746406 -4.51877 0
M  V30 37378 N 3650.49 0.809666 -4.56069 0
M  V30 37379 C 3651.23 0.889186 -5.66464 0
M  V30 37380 N 3650.72 0.930388 -6.86524 0
M  V30 37381 N 3652.52 0.927148 -5.54401 0
M  V30 37382 H 3644.67 -0.678814 -2.01261 0
M  V30 37383 H 3646.93 -0.24307 -0.916308 0
M  V30 37384 H 3646.64 -0.31715 -3.50267 0
M  V30 37385 H 3646.51 1.43303 -3.48919 0
M  V30 37386 H 3648.9 1.55927 -2.50541 0
M  V30 37387 H 3648.98 -0.207734 -2.54955 0
M  V30 37388 H 3648.62 -0.138635 -5.07711 0
M  V30 37389 H 3648.55 1.64001 -5.00411 0
M  V30 37390 H 3651.04 0.786664 -3.69621 0
M  V30 37391 H 3651.36 0.991857 -7.66409 0
M  V30 37392 H 3649.7 0.898896 -6.89162 0
M  V30 37393 H 3652.89 0.891866 -4.59525 0
M  V30 37394 H 3653.07 0.985661 -6.4046 0
M  V30 37395 N 3646.47 1.50945 0.453144 0
M  V30 37396 C 3647.4 1.67289 1.56675 0
M  V30 37397 C 3648.42 0.55388 1.53088 0
M  V30 37398 O 3649.61 0.827681 1.58151 0
M  V30 37399 C 3646.71 1.65784 2.95582 0
M  V30 37400 C 3645.88 2.94012 3.23845 0
M  V30 37401 C 3644.94 2.84907 4.42396 0
M  V30 37402 O 3643.96 3.58861 4.41823 0
M  V30 37403 N 3645.17 1.9968 5.45076 0
M  V30 37404 H 3647.93 2.63349 1.43064 0
M  V30 37405 H 3645.49 1.48633 0.641849 0
M  V30 37406 H 3647.48 1.57281 3.72887 0
M  V30 37407 H 3646.05 0.773844 3.0287 0
M  V30 37408 H 3645.27 3.16505 2.34986 0
M  V30 37409 H 3646.56 3.78926 3.39548 0
M  V30 37410 H 3645.96 1.38943 5.48371 0
M  V30 37411 H 3644.52 1.97068 6.21295 0
M  V30 37412 N 3647.95 -0.707543 1.40825 0
M  V30 37413 C 3648.9 -1.82159 1.41728 0
M  V30 37414 C 3649.87 -1.63838 0.273164 0
M  V30 37415 O 3651.05 -1.84859 0.472431 0
M  V30 37416 C 3648.19 -3.19941 1.29352 0
M  V30 37417 C 3647.31 -3.49777 2.53535 0
M  V30 37418 C 3646.44 -4.77108 2.33542 0
M  V30 37419 C 3645.48 -4.99874 3.5326 0
M  V30 37420 N 3644.62 -6.18423 3.32412 0
M  V30 37421 H 3649.46 -1.80722 2.36946 0
M  V30 37422 H 3646.99 -0.882703 1.17672 0
M  V30 37423 H 3648.95 -3.99515 1.20182 0
M  V30 37424 H 3647.58 -3.20585 0.377482 0
M  V30 37425 H 3646.63 -2.64697 2.73202 0
M  V30 37426 H 3647.95 -3.62506 3.42623 0
M  V30 37427 H 3647.1 -5.64715 2.2177 0
M  V30 37428 H 3645.84 -4.66603 1.41891 0
M  V30 37429 H 3644.84 -4.10719 3.655 0
M  V30 37430 H 3646.07 -5.12246 4.45849 0
M  V30 37431 H 3644.01 -6.09153 2.43451 0
M  V30 37432 H 3643.93 -6.31865 4.1507 0
M  V30 37433 H 3645.2 -7.08796 3.2439 0
M  V30 37434 N 3649.43 -1.26454 -0.940588 0
M  V30 37435 C 3650.38 -1.08063 -2.03939 0
M  V30 37436 C 3651.35 0.0145096 -1.66094 0
M  V30 37437 O 3652.53 -0.145371 -1.90245 0
M  V30 37438 C 3649.67 -0.720287 -3.37499 0
M  V30 37439 C 3648.78 -1.89174 -3.88378 0
M  V30 37440 C 3647.92 -1.47445 -5.10327 0
M  V30 37441 C 3646.96 -2.61418 -5.53468 0
M  V30 37442 N 3646.09 -2.20367 -6.6662 0
M  V30 37443 H 3650.93 -2.02094 -2.19003 0
M  V30 37444 H 3648.47 -1.0062 -1.07304 0
M  V30 37445 H 3650.43 -0.49225 -4.14286 0
M  V30 37446 H 3649.06 0.183044 -3.22281 0
M  V30 37447 H 3648.11 -2.23269 -3.07986 0
M  V30 37448 H 3649.42 -2.74715 -4.16333 0
M  V30 37449 H 3648.58 -1.2069 -5.94575 0
M  V30 37450 H 3647.32 -0.589958 -4.84119 0
M  V30 37451 H 3646.32 -2.88902 -4.67777 0
M  V30 37452 H 3647.55 -3.50468 -5.81678 0
M  V30 37453 H 3645.49 -1.34352 -6.42095 0
M  V30 37454 H 3645.41 -2.99451 -6.94165 0
M  V30 37455 H 3646.68 -1.96825 -7.54242 0
M  V30 37456 N 3650.91 1.14525 -1.08268 0
M  V30 37457 C 3652.15 1.85804 -0.812694 0
M  V30 37458 C 3652.49 1.82646 0.659846 0
M  V30 37459 O 3651.76 1.25615 1.48496 0
M  V30 37460 C 3652.04 3.34503 -1.33341 0
M  V30 37461 C 3651.9 3.46241 -2.87119 0
M  V30 37462 C 3653.22 4.29558 -0.957511 0
M  V30 37463 H 3650.33 0.674642 -0.296693 0
M  V30 37464 H 3652.98 1.34495 -1.34205 0
M  V30 37465 H 3651.13 3.78329 -0.883123 0
M  V30 37466 H 3652.8 3.11211 -3.40508 0
M  V30 37467 H 3651.04 2.87498 -3.2485 0
M  V30 37468 H 3651.71 4.50757 -3.18626 0
M  V30 37469 H 3654.19 3.9374 -1.34567 0
M  V30 37470 H 3653.06 5.32063 -1.34907 0
M  V30 37471 H 3653.33 4.41892 0.135612 0
M  V30 37472 N 3652.39 0.868133 1.31534 0
M  V30 37473 C 3653.61 0.492564 2.00951 0
M  V30 37474 C 3654.03 -0.914458 1.65176 0
M  V30 37475 O 3653.39 -1.5988 0.88003 0
M  V30 37476 C 3653.44 0.637861 3.55828 0
M  V30 37477 O 3653.16 1.98947 3.90322 0
M  V30 37478 C 3654.66 0.263064 4.42519 0
M  V30 37479 H 3651.88 0.192116 0.642909 0
M  V30 37480 H 3654.42 1.16879 1.67808 0
M  V30 37481 H 3652.58 0.00920869 3.87399 0
M  V30 37482 H 3652.99 1.99592 4.8504 0
M  V30 37483 H 3654.47 0.415687 5.50433 0
M  V30 37484 H 3654.94 -0.797629 4.31896 0
M  V30 37485 H 3655.55 0.867341 4.16362 0
M  V30 37486 N 3653.86 -1.44574 0.627389 0
M  V30 37487 C 3655.11 -2.0208 0.130387 0
M  V30 37488 C 3655.44 -1.49316 -1.2464 0
M  V30 37489 O 3654.69 -0.665956 -1.8402 0
M  V30 37490 C 3654.99 -3.57346 0.0623037 0
M  V30 37491 C 3654.66 -4.29348 1.37737 0
M  V30 37492 C 3653.32 -4.48734 1.73755 0
M  V30 37493 C 3655.67 -4.70343 2.24559 0
M  V30 37494 C 3653 -5.06377 2.9631 0
M  V30 37495 C 3655.35 -5.29343 3.4638 0
M  V30 37496 C 3654.02 -5.46949 3.82626 0
M  V30 37497 H 3653.29 -0.739462 0.0477121 0
M  V30 37498 H 3655.93 -1.73388 0.812959 0
M  V30 37499 H 3654.24 -3.8543 -0.703622 0
M  V30 37500 H 3655.94 -3.99567 -0.338708 0
M  V30 37501 H 3652.53 -4.14585 1.08707 0
M  V30 37502 H 3656.71 -4.55081 1.98027 0
M  V30 37503 H 3651.97 -5.18196 3.24474 0
M  V30 37504 H 3656.14 -5.60059 4.13892 0
M  V30 37505 H 3653.77 -5.91382 4.77673 0
M  V30 37506 N 3655.34 -0.367711 -1.5325 0
M  V30 37507 C 3656.62 0.277808 -1.93617 0
M  V30 37508 C 3657 1.66211 -1.30143 0
M  V30 37509 O 3656.35 2.23795 -0.461316 0
M  V30 37510 C 3656.56 0.325876 -3.47475 0
M  V30 37511 C 3657.9 0.565202 -4.20821 0
M  V30 37512 O 3658.93 0.406995 -3.53867 0
M  V30 37513 O 3657.79 0.873427 -5.39475 0
M  V30 37514 H 3654.88 0.167144 -0.809933 0
M  V30 37515 H 3657.43 -0.42065 -1.64404 0
M  V30 37516 H 3656.2 -0.644609 -3.85954 0
M  V30 37517 H 3655.82 1.07014 -3.82928 0
M  V30 37518 N 3656.82 1.57302 -0.0969353 0
M  V30 37519 C 3658.24 1.57473 0.259712 0
M  V30 37520 C 3658.44 1.10821 1.68288 0
M  V30 37521 O 3657.49 0.785509 2.39971 0
M  V30 37522 C 3658.8 3.00664 0.0464682 0
M  V30 37523 C 3660.35 3.12792 0.114076 0
M  V30 37524 C 3660.83 4.57945 -0.071198 0
M  V30 37525 N 3662.32 4.63197 -0.0164252 0
M  V30 37526 C 3663.05 5.73241 -0.135 0
M  V30 37527 N 3662.55 6.92113 -0.308513 0
M  V30 37528 N 3664.34 5.62048 -0.0761399 0
M  V30 37529 H 3656.49 1.85934 -1.02676 0
M  V30 37530 H 3658.76 0.858291 -0.402543 0
M  V30 37531 H 3658.46 3.39001 -0.936556 0
M  V30 37532 H 3658.34 3.68878 0.787985 0
M  V30 37533 H 3660.72 2.74327 1.08761 0
M  V30 37534 H 3660.8 2.47167 -0.658962 0
M  V30 37535 H 3660.45 4.97105 -1.0416 0
M  V30 37536 H 3660.38 5.21633 0.721555 0
M  V30 37537 H 3662.87 3.77725 0.115068 0
M  V30 37538 H 3663.18 7.71813 -0.390453 0
M  V30 37539 H 3661.53 6.94147 -0.344204 0
M  V30 37540 H 3664.72 4.68064 0.0582955 0
M  V30 37541 H 3664.89 6.47772 -0.171998 0
M  V30 37542 N 3658.3 -0.176766 1.56606 0
M  V30 37543 C 3659.23 -1.22127 1.99016 0
M  V30 37544 C 3660.21 -1.4647 0.864895 0
M  V30 37545 O 3661.39 -1.57897 1.13058 0
M  V30 37546 C 3658.52 -2.56142 2.34539 0
M  V30 37547 C 3657.48 -2.46378 3.49974 0
M  V30 37548 C 3656.8 -3.84834 3.71224 0
M  V30 37549 C 3658.1 -1.97315 4.83595 0
M  V30 37550 H 3659.8 -0.868749 2.86519 0
M  V30 37551 H 3657.34 -0.416457 1.37846 0
M  V30 37552 H 3659.3 -3.29411 2.62805 0
M  V30 37553 H 3658.02 -2.93171 1.43939 0
M  V30 37554 H 3656.68 -1.75564 3.21828 0
M  V30 37555 H 3656.33 -4.19246 2.77923 0
M  V30 37556 H 3656.03 -3.7917 4.48892 0
M  V30 37557 H 3657.55 -4.59697 4.01885 0
M  V30 37558 H 3658.97 -2.60354 5.10773 0
M  V30 37559 H 3657.36 -2.02612 5.64862 0
M  V30 37560 H 3658.43 -0.927191 4.75953 0
M  V30 37561 N 3659.78 -1.51183 -0.445132 0
M  V30 37562 C 3660.71 -1.68118 -1.55785 0
M  V30 37563 C 3661.72 -0.56199 -1.52792 0
M  V30 37564 O 3662.91 -0.836056 -1.5771 0
M  V30 37565 C 3660.01 -1.67349 -2.94699 0
M  V30 37566 C 3659.18 -2.95726 -3.22281 0
M  V30 37567 C 3658.24 -2.87249 -4.40879 0
M  V30 37568 O 3657.27 -3.61199 -4.39914 0
M  V30 37569 N 3658.47 -2.02568 -5.4401 0
M  V30 37570 H 3661.23 -2.64104 -1.41665 0
M  V30 37571 H 3658.8 -1.48972 -0.633958 0
M  V30 37572 H 3660.79 -1.59257 -3.72048 0
M  V30 37573 H 3659.36 -0.789895 -3.02456 0
M  V30 37574 H 3658.58 -3.17747 -2.33304 0
M  V30 37575 H 3659.87 -3.80721 -3.37533 0
M  V30 37576 H 3659.26 -1.41849 -5.47627 0
M  V30 37577 H 3657.82 -2.00361 -6.20241 0
M  V30 37578 N 3661.25 0.700065 -1.41198 0
M  V30 37579 C 3662.5 1.46225 -1.40521 0
M  V30 37580 C 3662.83 1.94196 -0.0126449 0
M  V30 37581 O 3662.11 1.69225 0.958807 0
M  V30 37582 C 3662.39 2.67733 -2.40813 0
M  V30 37583 C 3662.24 2.25557 -3.89158 0
M  V30 37584 C 3663.56 3.69923 -2.38422 0
M  V30 37585 H 3660.68 0.530375 -0.511733 0
M  V30 37586 H 3663.32 0.797724 -1.72442 0
M  V30 37587 H 3661.47 3.2443 -2.13723 0
M  V30 37588 H 3663.15 1.74222 -4.27135 0
M  V30 37589 H 3661.39 1.57388 -4.04242 0
M  V30 37590 H 3662.06 3.12723 -4.54872 0
M  V30 37591 H 3664.54 3.2289 -2.62452 0
M  V30 37592 H 3663.41 4.52558 -3.10617 0
M  V30 37593 H 3663.67 4.19306 -1.40123 0
M  V30 37594 N 3662.73 1.26951 0.933869 0
M  V30 37595 C 3663.66 1.11652 2.05076 0
M  V30 37596 C 3664.64 0.0196762 1.70089 0
M  V30 37597 O 3665.83 0.193041 1.93238 0
M  V30 37598 C 3662.96 0.756446 3.38962 0
M  V30 37599 C 3661.91 1.80584 3.88038 0
M  V30 37600 C 3661.24 1.29989 5.18659 0
M  V30 37601 C 3662.54 3.20877 4.1211 0
M  V30 37602 H 3664.23 2.05081 2.18133 0
M  V30 37603 H 3661.78 0.987411 1.04815 0
M  V30 37604 H 3663.73 0.636263 4.16569 0
M  V30 37605 H 3662.45 -0.21355 3.25901 0
M  V30 37606 H 3661.11 1.91482 3.12618 0
M  V30 37607 H 3660.76 0.31953 5.01984 0
M  V30 37608 H 3660.46 2.00144 5.52464 0
M  V30 37609 H 3661.99 1.19253 5.98841 0
M  V30 37610 H 3663.4 3.13015 4.80307 0
M  V30 37611 H 3661.8 3.88687 4.57211 0
M  V30 37612 H 3662.87 3.6639 3.17626 0
M  V30 37613 N 3664.21 -1.13949 1.08873 0
M  V30 37614 C 3665.49 -1.81309 0.733912 0
M  V30 37615 C 3665.87 -1.9609 -0.78179 0
M  V30 37616 O 3665.21 -1.52451 -1.70208 0
M  V30 37617 C 3665.42 -3.167 1.46637 0
M  V30 37618 C 3666.77 -3.92129 1.6285 0
M  V30 37619 O 3667.8 -3.26305 1.42841 0
M  V30 37620 O 3666.66 -5.10181 1.95902 0
M  V30 37621 H 3663.75 -0.78407 0.26299 0
M  V30 37622 H 3666.3 -1.20925 1.1906 0
M  V30 37623 H 3665.07 -3.01134 2.49868 0
M  V30 37624 H 3664.69 -3.84781 1.00148 0
M  V30 37625 N 3665.69 -0.875096 -1.31072 0
M  V30 37626 C 3666.96 -0.409049 -1.91275 0
M  V30 37627 C 3667.34 1.10936 -1.79601 0
M  V30 37628 O 3666.69 1.94024 -1.20693 0
M  V30 37629 C 3666.9 -0.896133 -3.37299 0
M  V30 37630 C 3668.25 -0.925278 -4.14396 0
M  V30 37631 O 3669.27 -0.84213 -3.46102 0
M  V30 37632 O 3668.13 -1.04649 -5.36387 0
M  V30 37633 H 3665.23 -0.123324 -0.817753 0
M  V30 37634 H 3667.77 -0.963346 -1.39706 0
M  V30 37635 H 3666.55 -1.93981 -3.39834 0
M  V30 37636 H 3666.17 -0.320437 -3.96307 0
M  V30 37637 N 3667.17 1.44239 -0.635047 0
M  V30 37638 C 3668.12 2.27824 0.0894974 0
M  V30 37639 C 3669.1 1.38886 0.81238 0
M  V30 37640 O 3670.29 1.62663 0.697842 0
M  V30 37641 C 3667.42 3.26274 1.06772 0
M  V30 37642 C 3666.51 4.227 0.344259 0
M  V30 37643 N 3666.9 5.0187 -0.629283 0
M  V30 37644 C 3665.2 4.42105 0.588176 0
M  V30 37645 C 3665.9 5.72015 -1.05707 0
M  V30 37646 N 3664.87 5.42163 -0.395048 0
M  V30 37647 H 3668.68 2.86444 -0.65782 0
M  V30 37648 H 3666.19 1.55724 -0.460863 0
M  V30 37649 H 3668.19 3.84915 1.60143 0
M  V30 37650 H 3666.85 2.69215 1.8153 0
M  V30 37651 H 3667.86 5.08011 -1.00726 0
M  V30 37652 H 3664.53 3.9614 1.31832 0
M  V30 37653 H 3665.92 6.45596 -1.86159 0
M  V30 37654 N 3668.64 0.375833 1.53053 0
M  V30 37655 C 3669.87 -0.210792 2.05522 0
M  V30 37656 C 3670.28 -1.42168 1.24839 0
M  V30 37657 O 3669.63 -1.81481 0.284666 0
M  V30 37658 C 3669.69 -0.658485 3.53418 0
M  V30 37659 C 3669.35 0.437105 4.54905 0
M  V30 37660 C 3670.35 1.29025 5.03635 0
M  V30 37661 C 3668.03 0.600282 4.987 0
M  V30 37662 C 3670.03 2.29182 5.94773 0
M  V30 37663 C 3667.71 1.6052 5.89641 0
M  V30 37664 C 3668.71 2.4494 6.37568 0
M  V30 37665 O 3668.4 3.43716 7.26715 0
M  V30 37666 H 3668.13 -0.0386509 0.674894 0
M  V30 37667 H 3670.69 0.535569 1.98295 0
M  V30 37668 H 3668.92 -1.45661 3.58217 0
M  V30 37669 H 3670.61 -1.16926 3.88694 0
M  V30 37670 H 3671.37 1.17542 4.70541 0
M  V30 37671 H 3667.25 -0.0470536 4.60976 0
M  V30 37672 H 3670.79 2.9511 6.32104 0
M  V30 37673 H 3666.69 1.72046 6.2215 0
M  V30 37674 H 3667.46 3.39566 7.4474 0
M  V30 37675 N 3670.12 -1.57248 0.105276 0
M  V30 37676 C 3671.54 -1.57608 -0.251358 0
M  V30 37677 C 3671.74 -1.11712 -1.67698 0
M  V30 37678 O 3670.79 -0.798224 -2.39551 0
M  V30 37679 C 3672.11 -3.00685 -0.0305226 0
M  V30 37680 C 3673.66 -3.12848 -0.0974859 0
M  V30 37681 C 3674.13 -4.579 0.0954829 0
M  V30 37682 N 3675.62 -4.63182 0.0409894 0
M  V30 37683 C 3676.36 -5.73161 0.165399 0
M  V30 37684 N 3675.85 -6.91939 0.345213 0
M  V30 37685 N 3677.65 -5.62 0.105946 0
M  V30 37686 H 3669.8 -1.85387 1.03661 0
M  V30 37687 H 3672.06 -0.856144 0.407089 0
M  V30 37688 H 3671.77 -3.38499 0.95452 0
M  V30 37689 H 3671.64 -3.6929 -0.768412 0
M  V30 37690 H 3674.03 -2.749 -1.07304 0
M  V30 37691 H 3674.11 -2.46814 0.67206 0
M  V30 37692 H 3673.75 -4.96545 1.06795 0
M  V30 37693 H 3673.68 -5.22008 -0.693882 0
M  V30 37694 H 3676.17 -3.7778 -0.0950345 0
M  V30 37695 H 3676.49 -7.71595 0.431379 0
M  V30 37696 H 3674.83 -6.93955 0.381012 0
M  V30 37697 H 3678.02 -4.68088 -0.0334721 0
M  V30 37698 H 3678.19 -6.47671 0.206349 0
M  V30 37699 N 3671.6 0.168458 -1.56697 0
M  V30 37700 C 3672.88 0.912067 -1.73034 0
M  V30 37701 C 3673.26 2.0027 -0.667459 0
M  V30 37702 O 3672.61 2.26287 0.317268 0
M  V30 37703 C 3672.82 1.47419 -3.16337 0
M  V30 37704 C 3674.16 1.94599 -3.77381 0
M  V30 37705 O 3675.19 1.57206 -3.19632 0
M  V30 37706 O 3674.05 2.63489 -4.78786 0
M  V30 37707 H 3671.14 0.429505 -0.706721 0
M  V30 37708 H 3673.69 0.156063 -1.68981 0
M  V30 37709 H 3672.46 0.689354 -3.8518 0
M  V30 37710 H 3672.08 2.29429 -3.24727 0
M  V30 37711 N 3673.08 1.51417 0.437109 0
M  V30 37712 C 3674.32 1.6434 1.18828 0
M  V30 37713 C 3674.66 0.358672 1.90859 0
M  V30 37714 O 3673.93 -0.641736 1.83608 0
M  V30 37715 C 3674.22 2.84688 2.2051 0
M  V30 37716 C 3674.07 4.23138 1.5256 0
M  V30 37717 C 3675.39 3.00555 3.21488 0
M  V30 37718 H 3672.51 0.598094 0.430642 0
M  V30 37719 H 3675.15 1.83902 0.477497 0
M  V30 37720 H 3673.3 2.68141 2.81128 0
M  V30 37721 H 3674.97 4.51353 0.952772 0
M  V30 37722 H 3673.21 4.25826 0.82795 0
M  V30 37723 H 3673.88 5.03339 2.26614 0
M  V30 37724 H 3676.36 3.15815 2.70924 0
M  V30 37725 H 3675.24 3.86326 3.89928 0
M  V30 37726 H 3675.5 2.12636 3.87606 0
M  V30 37727 N 3674.56 -0.692567 1.41567 0
M  V30 37728 C 3675.49 -1.81884 1.46426 0
M  V30 37729 C 3676.47 -1.67013 0.32261 0
M  V30 37730 O 3677.65 -1.867 0.53447 0
M  V30 37731 C 3674.78 -3.20045 1.34866 0
M  V30 37732 C 3673.74 -3.49625 2.46873 0
M  V30 37733 C 3673.06 -4.87173 2.20378 0
M  V30 37734 C 3674.36 -3.48299 3.89211 0
M  V30 37735 H 3676.06 -1.78075 2.40686 0
M  V30 37736 H 3673.6 -0.855313 1.15846 0
M  V30 37737 H 3675.56 -3.98551 1.36876 0
M  V30 37738 H 3674.28 -3.24487 0.370917 0
M  V30 37739 H 3672.94 -2.73471 2.4415 0
M  V30 37740 H 3672.59 -4.88245 1.20939 0
M  V30 37741 H 3672.29 -5.07929 2.95435 0
M  V30 37742 H 3673.81 -5.67986 2.24109 0
M  V30 37743 H 3675.22 -4.16804 3.93633 0
M  V30 37744 H 3673.62 -3.80587 4.63976 0
M  V30 37745 H 3674.69 -2.47214 4.17149 0
M  V30 37746 N 3676.03 -1.27445 -0.927123 0
M  V30 37747 C 3676.98 -1.1022 -2.02781 0
M  V30 37748 C 3677.95 -0.00310762 -1.661 0
M  V30 37749 O 3679.14 -0.165541 -1.90081 0
M  V30 37750 C 3676.28 -0.756043 -3.36716 0
M  V30 37751 C 3675.39 -1.93283 -3.86349 0
M  V30 37752 C 3674.52 -1.5285 -5.08734 0
M  V30 37753 C 3673.56 -2.67273 -5.50665 0
M  V30 37754 N 3672.7 -2.27425 -6.64246 0
M  V30 37755 H 3677.54 -2.04405 -2.16847 0
M  V30 37756 H 3675.08 -1.01752 -1.0623 0
M  V30 37757 H 3677.04 -0.536163 -4.1374 0
M  V30 37758 H 3675.67 0.148852 -3.22457 0
M  V30 37759 H 3674.72 -2.26523 -3.056 0
M  V30 37760 H 3676.03 -2.79115 -4.13396 0
M  V30 37761 H 3675.18 -1.26989 -5.93261 0
M  V30 37762 H 3673.92 -0.641272 -4.83466 0
M  V30 37763 H 3672.93 -2.93847 -4.64687 0
M  V30 37764 H 3674.15 -3.56618 -5.77928 0
M  V30 37765 H 3672.1 -1.41155 -6.40634 0
M  V30 37766 H 3672.02 -3.06797 -6.9095 0
M  V30 37767 H 3673.28 -2.04813 -7.52112 0
M  V30 37768 N 3677.51 1.1337 -1.09476 0
M  V30 37769 C 3678.42 2.22399 -0.746713 0
M  V30 37770 C 3679.44 1.72172 0.251542 0
M  V30 37771 O 3680.61 2.01186 0.0927577 0
M  V30 37772 C 3677.68 3.46268 -0.173026 0
M  V30 37773 C 3676.74 4.11383 -1.22729 0
M  V30 37774 C 3675.97 5.29339 -0.680887 0
M  V30 37775 O 3676.2 5.68239 0.496036 0
M  V30 37776 O 3675.13 5.84515 -1.43615 0
M  V30 37777 H 3678.96 2.54544 -1.65654 0
M  V30 37778 H 3676.54 1.21513 -0.869194 0
M  V30 37779 H 3678.42 4.21155 0.143555 0
M  V30 37780 H 3677.1 3.15822 0.709798 0
M  V30 37781 H 3676.01 3.3832 -1.59658 0
M  V30 37782 H 3677.34 4.45961 -2.08278 0
M  V30 37783 N 3678.99 0.882035 1.30606 0
M  V30 37784 C 3679.92 0.291262 2.26334 0
M  V30 37785 C 3680.9 -0.586495 1.51654 0
M  V30 37786 O 3682.09 -0.537243 1.80682 0
M  V30 37787 C 3679.21 -0.586423 3.33585 0
M  V30 37788 C 3678.26 0.22161 4.25924 0
M  V30 37789 S 3679.09 1.60799 5.10788 0
M  V30 37790 C 3680.25 0.736747 6.21549 0
M  V30 37791 H 3680.48 1.1027 2.76094 0
M  V30 37792 H 3678.01 0.68128 1.38557 0
M  V30 37793 H 3679.97 -1.08708 3.95844 0
M  V30 37794 H 3678.63 -1.37193 2.82554 0
M  V30 37795 H 3677.83 -0.44805 5.02004 0
M  V30 37796 H 3677.43 0.654787 3.68223 0
M  V30 37797 H 3679.72 -0.0475358 6.77483 0
M  V30 37798 H 3680.66 1.46906 6.92693 0
M  V30 37799 H 3681.07 0.298952 5.63708 0
M  V30 37800 N 3680.47 -1.439 0.642688 0
M  V30 37801 C 3681.42 -2.30734 -0.0552946 0
M  V30 37802 C 3682.39 -1.44148 -0.82526 0
M  V30 37803 O 3683.57 -1.73034 -0.803982 0
M  V30 37804 C 3680.71 -3.29589 -1.02301 0
M  V30 37805 C 3679.82 -4.31275 -0.250247 0
M  V30 37806 C 3678.96 -5.17216 -1.21081 0
M  V30 37807 C 3678 -6.10603 -0.427876 0
M  V30 37808 N 3677.13 -6.89204 -1.33949 0
M  V30 37809 H 3681.97 -2.89876 0.691089 0
M  V30 37810 H 3679.51 -1.42812 0.352575 0
M  V30 37811 H 3681.47 -3.85401 -1.59756 0
M  V30 37812 H 3680.1 -2.7212 -1.73638 0
M  V30 37813 H 3679.15 -3.77842 0.440426 0
M  V30 37814 H 3680.46 -4.97506 0.359024 0
M  V30 37815 H 3679.62 -5.77603 -1.85634 0
M  V30 37816 H 3678.36 -4.51086 -1.854 0
M  V30 37817 H 3677.36 -5.49314 0.231067 0
M  V30 37818 H 3678.59 -6.78773 0.210758 0
M  V30 37819 H 3676.53 -6.25731 -1.96967 0
M  V30 37820 H 3676.45 -7.51918 -0.784523 0
M  V30 37821 H 3677.72 -7.54104 -1.97349 0
M  V30 37822 N 3681.95 -0.383945 -1.52852 0
M  V30 37823 C 3682.91 0.441648 -2.24905 0
M  V30 37824 C 3683.91 0.994638 -1.26347 0
M  V30 37825 O 3685.1 0.877486 -1.50485 0
M  V30 37826 C 3682.23 1.61909 -2.99997 0
M  V30 37827 H 3683.43 -0.1891 -2.99303 0
M  V30 37828 H 3680.98 -0.135959 -1.55708 0
M  V30 37829 H 3681.71 2.28742 -2.29886 0
M  V30 37830 H 3681.5 1.22933 -3.7233 0
M  V30 37831 H 3682.99 2.20372 -3.54719 0
M  V30 37832 N 3683.43 1.5719 -0.113614 0
M  V30 37833 C 3684.37 2.15027 0.838582 0
M  V30 37834 C 3685.34 1.07379 1.26724 0
M  V30 37835 O 3686.53 1.3526 1.34571 0
M  V30 37836 C 3683.67 2.74969 2.08533 0
M  V30 37837 C 3682.78 3.96908 1.70553 0
M  V30 37838 C 3681.92 4.44955 2.90153 0
M  V30 37839 C 3680.95 5.59438 2.48387 0
M  V30 37840 N 3680.09 6.02252 3.60883 0
M  V30 37841 H 3684.93 2.96071 0.338533 0
M  V30 37842 H 3682.47 1.46277 0.155411 0
M  V30 37843 H 3684.43 3.07851 2.81574 0
M  V30 37844 H 3683.06 1.96624 2.56006 0
M  V30 37845 H 3682.11 3.70222 0.874068 0
M  V30 37846 H 3683.42 4.79943 1.35854 0
M  V30 37847 H 3682.57 4.79717 3.71425 0
M  V30 37848 H 3681.31 3.60858 3.28074 0
M  V30 37849 H 3680.32 5.24285 1.65546 0
M  V30 37850 H 3681.54 6.45296 2.11589 0
M  V30 37851 H 3679.49 5.21098 3.98488 0
M  V30 37852 H 3679.41 6.80129 3.30091 0
M  V30 37853 H 3680.67 6.41651 4.42611 0
M  V30 37854 N 3684.9 -0.160146 1.56784 0
M  V30 37855 C 3685.87 -1.18192 1.96375 0
M  V30 37856 C 3686.87 -1.36579 0.848698 0
M  V30 37857 O 3688.06 -1.33794 1.11556 0
M  V30 37858 C 3685.19 -2.54483 2.26829 0
M  V30 37859 H 3686.38 -0.84259 2.8782 0
M  V30 37860 H 3683.93 -0.403012 1.51015 0
M  V30 37861 H 3684.67 -2.9341 1.38134 0
M  V30 37862 H 3684.45 -2.42501 3.08116 0
M  V30 37863 H 3685.94 -3.28099 2.58342 0
M  V30 37864 N 3686.38 -1.51647 -0.429072 0
M  V30 37865 C 3687.61 -1.6883 -1.20462 0
M  V30 37866 C 3688.03 -0.388546 -1.84043 0
M  V30 37867 O 3687.39 0.652123 -1.69166 0
M  V30 37868 C 3687.44 -2.81132 -2.25826 0
M  V30 37869 O 3686.54 -2.4531 -3.31507 0
M  V30 37870 H 3685.88 -0.562671 -0.352558 0
M  V30 37871 H 3688.41 -1.98253 -0.505663 0
M  V30 37872 H 3688.42 -3.0546 -2.70478 0
M  V30 37873 H 3687.1 -3.75443 -1.78928 0
M  V30 37874 H 3685.67 -2.31584 -2.92273 0
M  V30 37875 N 3687.86 0.685049 -1.41932 0
M  V30 37876 C 3689.09 1.47362 -1.45231 0
M  V30 37877 C 3689.5 1.88703 -0.0606281 0
M  V30 37878 O 3688.86 1.57473 0.922413 0
M  V30 37879 C 3688.91 2.72938 -2.37038 0
M  V30 37880 O 3688.63 2.33335 -3.70791 0
M  V30 37881 C 3690.13 3.66591 -2.4925 0
M  V30 37882 H 3687.35 0.453773 -0.494299 0
M  V30 37883 H 3689.9 0.842597 -1.86335 0
M  V30 37884 H 3688.05 3.32253 -1.99215 0
M  V30 37885 H 3688.47 3.14355 -4.19859 0
M  V30 37886 H 3689.94 4.51458 -3.17632 0
M  V30 37887 H 3690.42 4.11796 -1.5271 0
M  V30 37888 H 3691.02 3.13175 -2.87752 0
M  V30 37889 N 3689.34 1.27935 0.920351 0
M  V30 37890 C 3690.58 1.14873 1.67129 0
M  V30 37891 C 3690.92 -0.303309 1.91817 0
M  V30 37892 O 3690.19 -1.22123 1.51381 0
M  V30 37893 C 3690.47 1.94071 3.03329 0
M  V30 37894 C 3690.33 3.47301 2.85836 0
M  V30 37895 C 3691.65 1.75095 4.0377 0
M  V30 37896 H 3688.77 0.418677 0.60653 0
M  V30 37897 H 3691.41 1.57175 1.06752 0
M  V30 37898 H 3689.56 1.58122 3.54866 0
M  V30 37899 H 3691.23 3.93119 2.4136 0
M  V30 37900 H 3689.47 3.73268 2.21028 0
M  V30 37901 H 3690.14 3.97965 3.82528 0
M  V30 37902 H 3692.62 2.06454 3.6127 0
M  V30 37903 H 3691.5 2.32891 4.97044 0
M  V30 37904 H 3691.76 0.700741 4.36511 0
M  V30 37905 N 3690.82 -1.12788 1.10076 0
M  V30 37906 C 3691.76 -2.18404 0.746211 0
M  V30 37907 C 3692.73 -1.63796 -0.275722 0
M  V30 37908 O 3693.92 -1.90162 -0.155842 0
M  V30 37909 C 3691.06 -3.44629 0.180166 0
M  V30 37910 C 3690.17 -4.1331 1.25695 0
M  V30 37911 C 3689.31 -5.27172 0.652945 0
M  V30 37912 C 3688.34 -5.87712 1.71057 0
M  V30 37913 N 3687.48 -6.92994 1.1271 0
M  V30 37914 H 3692.32 -2.48079 1.65109 0
M  V30 37915 H 3689.86 -1.21802 0.824789 0
M  V30 37916 H 3691.82 -4.1687 -0.165875 0
M  V30 37917 H 3690.45 -3.15384 -0.687958 0
M  V30 37918 H 3689.5 -3.39285 1.72017 0
M  V30 37919 H 3690.81 -4.54379 2.0577 0
M  V30 37920 H 3689.96 -6.06159 0.256136 0
M  V30 37921 H 3688.7 -4.8737 -0.179284 0
M  V30 37922 H 3687.71 -5.07415 2.11685 0
M  V30 37923 H 3688.93 -6.29585 2.54558 0
M  V30 37924 H 3686.88 -6.55237 0.31627 0
M  V30 37925 H 3686.8 -7.32641 1.86474 0
M  V30 37926 H 3688.06 -7.75818 0.756718 0
M  V30 37927 N 3692.29 -0.888949 -1.30136 0
M  V30 37928 C 3693.26 -0.363544 -2.26298 0
M  V30 37929 C 3694.26 0.496217 -1.52952 0
M  V30 37930 O 3695.45 0.302804 -1.71548 0
M  V30 37931 C 3692.58 0.481485 -3.37483 0
M  V30 37932 H 3693.77 -1.2127 -2.74288 0
M  V30 37933 H 3691.32 -0.666149 -1.41394 0
M  V30 37934 H 3692.06 1.35107 -2.94816 0
M  V30 37935 H 3691.84 -0.134412 -3.9187 0
M  V30 37936 H 3693.33 0.840744 -4.09049 0
M  V30 37937 N 3693.77 1.43557 -0.65031 0
M  V30 37938 C 3695.19 1.56408 -0.317613 0
M  V30 37939 C 3695.39 1.6345 1.17841 0
M  V30 37940 O 3694.44 1.58798 1.96315 0
M  V30 37941 C 3695.76 2.8264 -1.02641 0
M  V30 37942 C 3697.3 2.9638 -1.00638 0
M  V30 37943 C 3697.78 4.2544 -1.69602 0
M  V30 37944 N 3699.27 4.32298 -1.66352 0
M  V30 37945 C 3700.01 5.3092 -2.1659 0
M  V30 37946 N 3699.5 6.35838 -2.75103 0
M  V30 37947 N 3701.29 5.22554 -2.07107 0
M  V30 37948 H 3693.45 1.3723 -1.62116 0
M  V30 37949 H 3695.71 0.658883 -0.681599 0
M  V30 37950 H 3695.41 2.83489 -2.08151 0
M  V30 37951 H 3695.29 3.72774 -0.576146 0
M  V30 37952 H 3697.68 2.95072 0.0403 0
M  V30 37953 H 3697.76 2.07543 -1.49532 0
M  V30 37954 H 3697.4 4.27507 -2.74226 0
M  V30 37955 H 3697.33 5.13168 -1.18177 0
M  V30 37956 H 3699.82 3.57098 -1.2365 0
M  V30 37957 H 3700.13 7.07406 -3.11121 0
M  V30 37958 H 3698.48 6.36469 -2.79163 0
M  V30 37959 H 3701.67 4.39504 -1.61101 0
M  V30 37960 H 3701.84 5.99256 -2.46568 0
M  V30 37961 N 3695.25 0.392045 1.52646 0
M  V30 37962 C 3696.18 -0.433188 2.29447 0
M  V30 37963 C 3697.16 -1.06109 1.32947 0
M  V30 37964 O 3698.35 -1.07334 1.61842 0
M  V30 37965 C 3695.48 -1.55924 3.10331 0
M  V30 37966 C 3694.43 -1.05723 4.14737 0
M  V30 37967 C 3693.76 -2.27557 4.83862 0
M  V30 37968 C 3695.06 -0.123254 5.22155 0
M  V30 37969 H 3696.75 0.207615 2.98679 0
M  V30 37970 H 3694.3 0.101292 1.43643 0
M  V30 37971 H 3696.25 -2.14339 3.62818 0
M  V30 37972 H 3694.97 -2.22767 2.38836 0
M  V30 37973 H 3693.63 -0.495589 3.63235 0
M  V30 37974 H 3693.28 -2.92916 4.08913 0
M  V30 37975 H 3692.98 -1.94627 5.54431 0
M  V30 37976 H 3694.5 -2.8661 5.39154 0
M  V30 37977 H 3695.92 -0.615684 5.69984 0
M  V30 37978 H 3694.31 0.116409 5.99987 0
M  V30 37979 H 3695.38 0.827053 4.77795 0
M  V30 37980 N 3696.73 -1.57127 0.121948 0
M  V30 37981 C 3697.66 -2.18487 -0.823749 0
M  V30 37982 C 3698.64 -1.12577 -1.27517 0
M  V30 37983 O 3699.82 -1.40824 -1.33724 0
M  V30 37984 C 3696.95 -2.78662 -2.07279 0
M  V30 37985 C 3695.91 -3.90181 -1.75905 0
M  V30 37986 C 3695.23 -4.37177 -3.07864 0
M  V30 37987 C 3696.53 -5.12142 -1.02508 0
M  V30 37988 H 3698.23 -2.97765 -0.312435 0
M  V30 37989 H 3695.77 -1.43229 -0.148837 0
M  V30 37990 H 3697.73 -3.20247 -2.73897 0
M  V30 37991 H 3696.45 -1.96678 -2.6074 0
M  V30 37992 H 3695.11 -3.49176 -1.11675 0
M  V30 37993 H 3694.76 -3.52048 -3.59265 0
M  V30 37994 H 3694.46 -5.12381 -2.87644 0
M  V30 37995 H 3695.98 -4.81415 -3.75595 0
M  V30 37996 H 3697.4 -5.50728 -1.59285 0
M  V30 37997 H 3695.79 -5.92948 -0.923732 0
M  V30 37998 H 3696.86 -4.84898 -0.0123366 0
M  V30 37999 N 3698.21 0.151829 -1.56867 0
M  V30 38000 C 3699.43 0.884314 -1.87602 0
M  V30 38001 C 3699.86 1.74167 -0.710449 0
M  V30 38002 O 3699.21 1.78082 0.340071 0
M  V30 38003 C 3699.26 1.72085 -3.1689 0
M  V30 38004 O 3698.37 2.82459 -3.00484 0
M  V30 38005 H 3697.71 0.246592 -0.616513 0
M  V30 38006 H 3700.24 0.144099 -2.04092 0
M  V30 38007 H 3700.25 2.11685 -3.48789 0
M  V30 38008 H 3698.92 1.09124 -4.01329 0
M  V30 38009 H 3697.5 2.46301 -2.79982 0
M  V30 38010 N 3699.68 1.51872 0.421024 0
M  V30 38011 C 3700.93 1.64576 1.16608 0
M  V30 38012 C 3701.25 0.375869 1.91955 0
M  V30 38013 O 3702.45 0.382528 2.68792 0
M  V30 38014 C 3700.91 2.90718 2.12159 0
M  V30 38015 C 3700.52 4.24771 1.42384 0
M  V30 38016 C 3702.26 3.12783 2.86997 0
M  V30 38017 C 3700.17 5.42047 2.36514 0
M  V30 38018 H 3699.1 0.613037 0.438979 0
M  V30 38019 H 3701.75 1.78352 0.431605 0
M  V30 38020 H 3700.13 2.70613 2.8911 0
M  V30 38021 H 3701.3 4.55316 0.708795 0
M  V30 38022 H 3699.62 4.08714 0.796349 0
M  V30 38023 H 3702.22 3.97577 3.57543 0
M  V30 38024 H 3702.56 2.26526 3.49273 0
M  V30 38025 H 3703.09 3.33304 2.17149 0
M  V30 38026 H 3699.83 6.30614 1.78902 0
M  V30 38027 H 3699.35 5.15857 3.06025 0
M  V30 38028 H 3701.03 5.74651 2.97296 0
M  V30 38029 N 3701.16 -0.677513 1.42294 0
M  V30 38030 C 3702.07 -1.82061 1.47956 0
M  V30 38031 C 3703.09 -1.70052 0.36854 0
M  V30 38032 O 3704.26 -1.91651 0.61903 0
M  V30 38033 C 3701.33 -3.18184 1.37696 0
M  V30 38034 C 3700.39 -3.42169 2.59267 0
M  V30 38035 C 3699.62 -4.71797 2.49486 0
M  V30 38036 O 3699.85 -5.49518 1.52925 0
M  V30 38037 O 3698.78 -4.96966 3.39571 0
M  V30 38038 H 3702.61 -1.8024 2.44433 0
M  V30 38039 H 3700.19 -0.83291 1.24028 0
M  V30 38040 H 3702.07 -3.99418 1.34326 0
M  V30 38041 H 3700.75 -3.20648 0.443433 0
M  V30 38042 H 3699.66 -2.60793 2.68212 0
M  V30 38043 H 3700.99 -3.44532 3.51509 0
M  V30 38044 N 3702.64 -1.28421 -0.913554 0
M  V30 38045 C 3703.55 -1.14215 -2.0492 0
M  V30 38046 C 3704.57 -0.068673 -1.73864 0
M  V30 38047 O 3705.74 -0.278003 -1.99472 0
M  V30 38048 C 3702.81 -0.805505 -3.37213 0
M  V30 38049 C 3701.87 -1.96136 -3.81876 0
M  V30 38050 C 3701.1 -1.64068 -5.07856 0
M  V30 38051 O 3701.32 -0.555131 -5.67692 0
M  V30 38052 O 3700.26 -2.48438 -5.48236 0
M  V30 38053 H 3704.08 -2.0955 -2.19823 0
M  V30 38054 H 3701.67 -1.07742 -1.03499 0
M  V30 38055 H 3703.55 -0.631722 -4.16638 0
M  V30 38056 H 3702.23 0.118197 -3.23484 0
M  V30 38057 H 3701.13 -2.1903 -3.03277 0
M  V30 38058 H 3702.47 -2.86577 -4.00168 0
M  V30 38059 N 3704.12 1.12202 -1.10672 0
M  V30 38060 C 3705.08 2.16191 -0.761183 0
M  V30 38061 C 3706.08 1.59348 0.215571 0
M  V30 38062 O 3707.27 1.74198 -0.00789785 0
M  V30 38063 C 3704.4 3.4066 -0.127923 0
M  V30 38064 H 3705.6 2.48272 -1.68229 0
M  V30 38065 H 3703.15 1.27252 -0.907565 0
M  V30 38066 H 3703.88 3.14181 0.803796 0
M  V30 38067 H 3703.67 3.83195 -0.830918 0
M  V30 38068 H 3705.16 4.17485 0.0979859 0
M  V30 38069 N 3705.6 0.895838 1.29663 0
M  V30 38070 C 3706.84 0.526638 1.97499 0
M  V30 38071 C 3707.2 -0.909373 1.69099 0
M  V30 38072 O 3708.4 -1.38525 2.30357 0
M  V30 38073 C 3706.67 0.806403 3.48184 0
M  V30 38074 S 3708.23 0.540934 4.35453 0
M  V30 38075 H 3705.05 0.195525 0.683587 0
M  V30 38076 H 3707.65 1.15744 1.57555 0
M  V30 38077 H 3706.36 1.84982 3.66346 0
M  V30 38078 H 3705.89 0.163568 3.9306 0
M  V30 38079 H 3707.9 -0.615731 4.92365 0
M  V30 38080 N 3707.07 -1.43211 0.657914 0
M  V30 38081 C 3708.02 -2.30779 -0.0308191 0
M  V30 38082 C 3708.99 -1.45015 -0.809925 0
M  V30 38083 O 3710.18 -1.73877 -0.785584 0
M  V30 38084 C 3707.32 -3.30655 -0.98799 0
M  V30 38085 C 3706.43 -4.31516 -0.204491 0
M  V30 38086 C 3705.56 -5.18472 -1.15588 0
M  V30 38087 C 3704.6 -6.11022 -0.36309 0
M  V30 38088 N 3703.74 -6.90586 -1.26632 0
M  V30 38089 H 3708.58 -2.89126 0.721796 0
M  V30 38090 H 3706.12 -1.4243 0.367702 0
M  V30 38091 H 3708.08 -3.87074 -1.55659 0
M  V30 38092 H 3706.71 -2.73947 -1.70743 0
M  V30 38093 H 3705.76 -3.77353 0.480476 0
M  V30 38094 H 3707.07 -4.97097 0.411771 0
M  V30 38095 H 3706.22 -5.79539 -1.79497 0
M  V30 38096 H 3704.96 -4.53027 -1.80605 0
M  V30 38097 H 3703.97 -5.49038 0.289316 0
M  V30 38098 H 3705.19 -6.78511 0.282739 0
M  V30 38099 H 3703.14 -6.27785 -1.9032 0
M  V30 38100 H 3703.06 -7.52708 -0.704728 0
M  V30 38101 H 3704.32 -7.56155 -1.8934 0
M  V30 38102 N 3708.55 -0.400135 -1.52436 0
M  V30 38103 C 3709.48 0.421014 -2.29673 0
M  V30 38104 C 3710.46 1.05403 -1.33508 0
M  V30 38105 O 3711.65 1.06475 -1.62409 0
M  V30 38106 C 3708.78 1.54276 -3.11153 0
M  V30 38107 C 3707.73 1.03522 -4.15292 0
M  V30 38108 C 3707.06 2.24987 -4.85062 0
M  V30 38109 C 3708.36 0.0955611 -5.22213 0
M  V30 38110 H 3710.05 -0.223452 -2.98565 0
M  V30 38111 H 3707.6 -0.108908 -1.43588 0
M  V30 38112 H 3709.55 2.12412 -3.63949 0
M  V30 38113 H 3708.28 2.21497 -2.40014 0
M  V30 38114 H 3706.93 0.476319 -3.63492 0
M  V30 38115 H 3706.58 2.90743 -4.1046 0
M  V30 38116 H 3706.28 1.91684 -5.55456 0
M  V30 38117 H 3707.81 2.83747 -5.40666 0
M  V30 38118 H 3709.22 0.585448 -5.70303 0
M  V30 38119 H 3707.62 -0.148226 -5.99917 0
M  V30 38120 H 3708.69 -0.85238 -4.77349 0
M  V30 38121 N 3710.03 1.57061 -0.13028 0
M  V30 38122 C 3711.26 1.99933 0.532381 0
M  V30 38123 C 3711.67 1.01016 1.59503 0
M  V30 38124 O 3711.03 0.00466366 1.82499 0
M  V30 38125 C 3711.08 3.42778 1.14827 0
M  V30 38126 O 3710.8 4.37913 0.128086 0
M  V30 38127 C 3712.3 4.00842 1.89317 0
M  V30 38128 H 3709.52 0.656225 0.140035 0
M  V30 38129 H 3712.07 2.03314 -0.219941 0
M  V30 38130 H 3710.22 3.40302 1.85131 0
M  V30 38131 H 3710.64 5.21316 0.577043 0
M  V30 38132 H 3712.11 5.02839 2.27722 0
M  V30 38133 H 3712.59 3.40613 2.77271 0
M  V30 38134 H 3713.19 4.06898 1.2375 0
M  V30 38135 N 3711.51 -0.143508 1.56945 0
M  V30 38136 C 3712.92 -0.703218 1.7295 0
M  V30 38137 C 3713.27 -1.81496 0.745225 0
M  V30 38138 O 3712.4 -2.16224 -0.0873764 0
M  V30 38139 C 3712.99 -1.28239 3.13593 0
M  V30 38140 C 3711.55 -1.78863 3.31187 0
M  V30 38141 C 3710.7 -0.678484 2.68872 0
M  V30 38142 H 3713.65 0.0821943 1.58487 0
M  V30 38143 H 3713.67 -2.15218 3.13785 0
M  V30 38144 H 3713.18 -0.473019 3.85207 0
M  V30 38145 H 3711.28 -2.62356 2.64576 0
M  V30 38146 H 3711.4 -1.91494 4.39166 0
M  V30 38147 H 3709.76 -1.10599 2.29434 0
M  V30 38148 H 3710.54 0.119497 3.43092 0
M  V30 38149 N 3712.99 -1.52093 -0.412964 0
M  V30 38150 C 3714.4 -1.5817 -0.991927 0
M  V30 38151 C 3714.75 -0.419868 -1.91655 0
M  V30 38152 O 3713.87 0.460271 -2.11448 0
M  V30 38153 C 3714.47 -2.86666 -1.80576 0
M  V30 38154 C 3713.03 -2.95234 -2.33482 0
M  V30 38155 C 3712.18 -2.53072 -1.13358 0
M  V30 38156 H 3715.13 -1.57518 -0.193336 0
M  V30 38157 H 3715.15 -2.71803 -2.66277 0
M  V30 38158 H 3714.66 -3.71207 -1.13255 0
M  V30 38159 H 3712.76 -2.15178 -3.04186 0
M  V30 38160 H 3712.87 -3.99398 -2.6461 0
M  V30 38161 H 3711.24 -2.06831 -1.48637 0
M  V30 38162 H 3712.02 -3.39983 -0.476088 0
M  V30 38163 N 3714.47 0.669957 -1.42651 0
M  V30 38164 C 3715.42 1.77612 -1.42961 0
M  V30 38165 C 3716.4 1.58073 -0.300278 0
M  V30 38166 O 3717.59 1.6847 -0.54286 0
M  V30 38167 C 3714.72 3.16103 -1.33916 0
M  V30 38168 C 3713.81 3.41249 -2.51814 0
M  V30 38169 N 3714.2 3.36953 -3.77222 0
M  V30 38170 C 3712.5 3.71903 -2.46178 0
M  V30 38171 C 3713.2 3.61716 -4.55562 0
M  V30 38172 N 3712.17 3.82717 -3.86043 0
M  V30 38173 H 3715.97 1.72691 -2.37813 0
M  V30 38174 H 3713.49 0.870985 -1.37068 0
M  V30 38175 H 3715.49 3.95377 -1.3222 0
M  V30 38176 H 3714.15 3.22218 -0.400709 0
M  V30 38177 H 3715.16 3.16744 -4.09748 0
M  V30 38178 H 3711.83 3.85235 -1.60937 0
M  V30 38179 H 3713.22 3.64315 -5.64557 0
M  V30 38180 N 3715.94 1.28904 0.90673 0
M  V30 38181 C 3717.17 1.19455 1.69545 0
M  V30 38182 C 3717.59 -0.242386 1.86532 0
M  V30 38183 O 3716.95 -1.17519 1.38054 0
M  V30 38184 C 3717 1.90561 3.06135 0
M  V30 38185 O 3716.1 1.21786 3.94007 0
M  V30 38186 H 3715.44 0.414299 0.518895 0
M  V30 38187 H 3717.97 1.70349 1.13324 0
M  V30 38188 H 3717.98 1.98742 3.56322 0
M  V30 38189 H 3716.66 2.95079 2.93089 0
M  V30 38190 H 3715.24 1.21816 3.52442 0
M  V30 38191 N 3717.42 -1.11614 1.11266 0
M  V30 38192 C 3718.38 -2.15784 0.772638 0
M  V30 38193 C 3719.38 -1.59461 -0.207117 0
M  V30 38194 O 3720.57 -1.74192 0.0171359 0
M  V30 38195 C 3717.71 -3.40587 0.145987 0
M  V30 38196 H 3718.9 -2.47376 1.69543 0
M  V30 38197 H 3716.45 -1.26768 0.9143 0
M  V30 38198 H 3717.19 -3.14603 -0.787123 0
M  V30 38199 H 3716.97 -3.82749 0.851228 0
M  V30 38200 H 3718.46 -4.17531 -0.0758442 0
M  V30 38201 N 3718.9 -0.902701 -1.29186 0
M  V30 38202 C 3719.85 -0.381128 -2.27631 0
M  V30 38203 C 3720.82 0.538403 -1.57132 0
M  V30 38204 O 3722 0.462995 -1.85097 0
M  V30 38205 C 3719.14 0.382641 -3.42972 0
M  V30 38206 C 3718.25 -0.568129 -4.28248 0
M  V30 38207 C 3717.39 0.212989 -5.30773 0
M  V30 38208 C 3716.43 -0.732111 -6.07706 0
M  V30 38209 N 3715.57 0.0147905 -7.02098 0
M  V30 38210 H 3720.41 -1.22571 -2.71625 0
M  V30 38211 H 3717.94 -0.615747 -1.33593 0
M  V30 38212 H 3719.9 0.841547 -4.08624 0
M  V30 38213 H 3718.53 1.19165 -2.99999 0
M  V30 38214 H 3717.58 -1.14556 -3.62741 0
M  V30 38215 H 3718.89 -1.29144 -4.81792 0
M  V30 38216 H 3718.05 0.732959 -6.02256 0
M  V30 38217 H 3716.79 0.96942 -4.77968 0
M  V30 38218 H 3715.79 -1.26355 -5.35084 0
M  V30 38219 H 3717.02 -1.48792 -6.62599 0
M  V30 38220 H 3714.96 0.753433 -6.51659 0
M  V30 38221 H 3714.88 -0.648556 -7.53213 0
M  V30 38222 H 3716.15 0.514926 -7.77797 0
M  V30 38223 N 3720.38 1.4286 -0.6655 0
M  V30 38224 C 3721.6 2.06524 -0.190435 0
M  V30 38225 C 3722.03 1.49624 1.13993 0
M  V30 38226 O 3721.39 0.611011 1.70694 0
M  V30 38227 C 3721.43 3.6038 -0.126003 0
M  V30 38228 O 3720.54 4.02275 0.908229 0
M  V30 38229 H 3719.88 0.656349 -0.100507 0
M  V30 38230 H 3722.41 1.83155 -0.911891 0
M  V30 38231 H 3722.42 4.07965 0.0532436 0
M  V30 38232 H 3721.09 4.01169 -1.0971 0
M  V30 38233 H 3719.67 3.66256 0.700777 0
M  V30 38234 N 3721.86 0.408213 1.52221 0
M  V30 38235 C 3722.8 -0.417727 2.26988 0
M  V30 38236 C 3723.77 -1.04183 1.29364 0
M  V30 38237 O 3724.96 -1.06628 1.58225 0
M  V30 38238 C 3722.1 -1.52895 3.09382 0
M  V30 38239 C 3721.21 -0.925855 4.21962 0
M  V30 38240 C 3720.35 -2.0097 4.91716 0
M  V30 38241 C 3719.38 -1.38349 5.9626 0
M  V30 38242 N 3718.52 -2.40745 6.59535 0
M  V30 38243 H 3723.36 0.22628 2.9714 0
M  V30 38244 H 3720.9 0.123428 1.46581 0
M  V30 38245 H 3722.86 -2.18419 3.55456 0
M  V30 38246 H 3721.49 -2.143 2.41403 0
M  V30 38247 H 3720.54 -0.159698 3.80065 0
M  V30 38248 H 3721.85 -0.428409 4.96957 0
M  V30 38249 H 3721 -2.74222 5.41191 0
M  V30 38250 H 3719.74 -2.5408 4.16287 0
M  V30 38251 H 3718.75 -0.636306 5.46105 0
M  V30 38252 H 3719.97 -0.8601 6.73631 0
M  V30 38253 H 3717.92 -2.92989 5.86936 0
M  V30 38254 H 3717.84 -1.95809 7.30202 0
M  V30 38255 H 3719.1 -3.13569 7.13649 0
M  V30 38256 N 3723.33 -1.56989 0.138607 0
M  V30 38257 C 3724.58 -1.95852 -0.514593 0
M  V30 38258 C 3724.91 -1.02302 -1.65423 0
M  V30 38259 O 3724.16 -0.0505998 -1.95635 0
M  V30 38260 C 3724.46 -3.41019 -1.06963 0
M  V30 38261 C 3724.13 -4.50873 -0.0493168 0
M  V30 38262 C 3722.79 -4.80644 0.231187 0
M  V30 38263 C 3725.14 -5.17194 0.644956 0
M  V30 38264 C 3722.47 -5.74047 1.21191 0
M  V30 38265 C 3724.82 -6.11652 1.61444 0
M  V30 38266 C 3723.49 -6.39806 1.90273 0
M  V30 38267 H 3722.76 -0.716675 -0.188303 0
M  V30 38268 H 3725.4 -1.90189 0.223663 0
M  V30 38269 H 3723.71 -3.43472 -1.88505 0
M  V30 38270 H 3725.41 -3.68412 -1.58347 0
M  V30 38271 H 3722 -4.27697 -0.278127 0
M  V30 38272 H 3726.18 -4.94333 0.441432 0
M  V30 38273 H 3721.44 -5.94157 1.4418 0
M  V30 38274 H 3725.61 -6.62121 2.15797 0
M  V30 38275 H 3723.24 -7.11986 2.6642 0
M  V30 38276 N 3724.81 0.135183 -1.57019 0
M  V30 38277 C 3726.06 0.844115 -1.83628 0
M  V30 38278 C 3726.38 1.81168 -0.72133 0
M  V30 38279 O 3725.65 1.94219 0.256061 0
M  V30 38280 H 3724.23 0.314713 -0.677469 0
M  V30 38281 H 3726.89 0.126365 -1.9449 0
M  V30 38282 H 3725.99 1.3992 -2.78978 0
M  V30 38283 N 3726.29 1.5231 0.404892 0
M  V30 38284 C 3727.52 1.70184 1.17136 0
M  V30 38285 C 3727.93 0.412838 1.84641 0
M  V30 38286 O 3727.27 -0.621317 1.72874 0
M  V30 38287 C 3727.33 2.78443 2.27397 0
M  V30 38288 C 3727 4.20061 1.79993 0
M  V30 38289 C 3727.99 5.0376 1.28537 0
M  V30 38290 C 3725.68 4.66314 1.86698 0
M  V30 38291 C 3727.67 6.31786 0.844139 0
M  V30 38292 C 3725.36 5.94328 1.42186 0
M  V30 38293 C 3726.36 6.76893 0.911299 0
M  V30 38294 O 3726.05 8.0251 0.472621 0
M  V30 38295 H 3725.78 0.573524 0.357835 0
M  V30 38296 H 3728.33 1.99667 0.481904 0
M  V30 38297 H 3726.56 2.44346 2.99719 0
M  V30 38298 H 3728.25 2.84875 2.89138 0
M  V30 38299 H 3729.02 4.69216 1.22726 0
M  V30 38300 H 3724.9 4.02149 2.25382 0
M  V30 38301 H 3728.44 6.9618 0.444941 0
M  V30 38302 H 3724.34 6.2838 1.47678 0
M  V30 38303 H 3725.11 8.16331 0.595546 0
M  V30 38304 N 3727.77 -0.662382 1.43004 0
M  V30 38305 C 3729.02 -1.41956 1.43851 0
M  V30 38306 C 3729.34 -1.94906 0.0604943 0
M  V30 38307 O 3728.61 -1.73855 -0.902839 0
M  V30 38308 H 3727.19 -0.526818 0.529596 0
M  V30 38309 H 3729.85 -0.781835 1.78531 0
M  V30 38310 H 3728.95 -2.26645 2.14566 0
M  V30 38311 N 3729.25 -1.29383 -0.899882 0
M  V30 38312 C 3730.21 -1.14498 -1.98552 0
M  V30 38313 C 3731.21 -0.0805014 -1.60598 0
M  V30 38314 O 3732.4 -0.327425 -1.71095 0
M  V30 38315 C 3729.53 -0.750876 -3.32528 0
M  V30 38316 H 3730.72 -2.10931 -2.13185 0
M  V30 38317 H 3728.28 -1.12567 -1.08436 0
M  V30 38318 H 3729.01 0.213611 -3.23596 0
M  V30 38319 H 3728.8 -1.51999 -3.6144 0
M  V30 38320 H 3730.29 -0.669781 -4.12194 0
M  V30 38321 N 3730.72 1.11022 -1.11856 0
M  V30 38322 C 3731.67 2.17189 -0.780863 0
M  V30 38323 C 3732.64 1.64213 0.249629 0
M  V30 38324 O 3733.83 1.90386 0.125569 0
M  V30 38325 C 3730.97 3.44299 -0.23497 0
M  V30 38326 C 3730.08 4.11258 -1.32254 0
M  V30 38327 C 3729.21 5.26066 -0.736731 0
M  V30 38328 C 3728.25 5.84917 -1.80385 0
M  V30 38329 N 3727.39 6.91113 -1.23721 0
M  V30 38330 H 3732.23 2.4542 -1.69035 0
M  V30 38331 H 3729.77 1.20474 -0.844062 0
M  V30 38332 H 3731.73 4.17081 0.0995331 0
M  V30 38333 H 3730.36 3.16438 0.637697 0
M  V30 38334 H 3729.41 3.36505 -1.77393 0
M  V30 38335 H 3730.72 4.51048 -2.12973 0
M  V30 38336 H 3729.87 6.05675 -0.352539 0
M  V30 38337 H 3728.61 4.87594 0.101725 0
M  V30 38338 H 3727.62 5.03983 -2.1973 0
M  V30 38339 H 3728.84 6.25455 -2.64542 0
M  V30 38340 H 3726.79 6.54651 -0.420472 0
M  V30 38341 H 3726.71 7.29582 -1.98106 0
M  V30 38342 H 3727.97 7.74516 -0.880049 0
M  V30 38343 N 3732.2 0.90954 1.28706 0
M  V30 38344 C 3733.48 0.459618 1.90123 0
M  V30 38345 C 3733.86 -1.06135 1.82479 0
M  V30 38346 O 3733.21 -1.90756 1.25795 0
M  V30 38347 C 3733.42 0.985247 3.34804 0
M  V30 38348 C 3734.77 1.03482 4.11797 0
M  V30 38349 O 3735.79 0.933597 3.43748 0
M  V30 38350 O 3734.65 1.18834 5.33424 0
M  V30 38351 H 3731.74 0.144962 0.814196 0
M  V30 38352 H 3734.29 1.00005 1.37103 0
M  V30 38353 H 3733.06 2.02923 3.34571 0
M  V30 38354 H 3732.68 0.425398 3.95318 0
M  V30 38355 N 3733.68 -1.42505 0.673067 0
M  V30 38356 C 3734.93 -2.01861 0.1949 0
M  V30 38357 C 3735.26 -1.53089 -1.19488 0
M  V30 38358 O 3734.53 -0.732354 -1.80186 0
M  V30 38359 C 3734.82 -3.5938 0.227622 0
M  V30 38360 C 3734.67 -4.18336 1.65274 0
M  V30 38361 C 3735.99 -4.38042 -0.42512 0
M  V30 38362 H 3733.11 -0.733445 0.072296 0
M  V30 38363 H 3735.75 -1.69548 0.857523 0
M  V30 38364 H 3733.9 -3.87039 -0.33659 0
M  V30 38365 H 3735.57 -4.01636 2.26906 0
M  V30 38366 H 3733.82 -3.7423 2.19395 0
M  V30 38367 H 3734.49 -5.27467 1.62733 0
M  V30 38368 H 3736.96 -4.16063 0.0551441 0
M  V30 38369 H 3735.84 -5.47641 -0.371579 0
M  V30 38370 H 3736.1 -4.15788 -1.50243 0
M  V30 38371 N 3735.16 -0.41628 -1.52003 0
M  V30 38372 C 3736.57 -0.0675055 -1.59457 0
M  V30 38373 C 3736.77 1.42096 -1.42867 0
M  V30 38374 O 3735.83 2.1886 -1.25923 0
M  V30 38375 C 3737.14 -0.568812 -2.95271 0
M  V30 38376 C 3738.69 -0.52741 -3.08525 0
M  V30 38377 C 3739.17 -1.00534 -4.4683 0
M  V30 38378 N 3740.66 -0.962457 -4.53091 0
M  V30 38379 C 3741.39 -1.30337 -5.5839 0
M  V30 38380 N 3740.89 -1.71609 -6.71209 0
M  V30 38381 N 3742.68 -1.22288 -5.48637 0
M  V30 38382 H 3734.83 -1.38499 -1.61033 0
M  V30 38383 H 3737.1 -0.569413 -0.75794 0
M  V30 38384 H 3736.8 -1.60943 -3.12714 0
M  V30 38385 H 3736.68 0.0176932 -3.77196 0
M  V30 38386 H 3739.06 0.504174 -2.90761 0
M  V30 38387 H 3739.14 -1.15006 -2.28489 0
M  V30 38388 H 3738.79 -2.03529 -4.65337 0
M  V30 38389 H 3738.72 -0.359437 -5.25372 0
M  V30 38390 H 3741.21 -0.659106 -3.72108 0
M  V30 38391 H 3741.52 -1.95914 -7.47554 0
M  V30 38392 H 3739.87 -1.75519 -6.72472 0
M  V30 38393 H 3743.06 -0.899256 -4.59381 0
M  V30 38394 H 3743.23 -1.49186 -6.30593 0
M  V30 38395 N 3736.64 1.56914 -0.146931 0
M  V30 38396 C 3737.86 2.0092 0.51439 0
M  V30 38397 C 3738.29 1.02636 1.57631 0
M  V30 38398 O 3737.64 0.00210665 1.813 0
M  V30 38399 C 3737.69 3.43671 1.09191 0
M  V30 38400 O 3736.8 3.48389 2.20678 0
M  V30 38401 H 3736.14 0.651971 0.125816 0
M  V30 38402 H 3738.67 2.03144 -0.243643 0
M  V30 38403 H 3738.68 3.8247 1.4206 0
M  V30 38404 H 3737.35 4.14711 0.314263 0
M  V30 38405 H 3735.93 3.21432 1.89039 0
M  V30 38406 N 3738.11 -0.126854 1.57089 0
M  V30 38407 C 3739.04 -1.15733 2.02801 0
M  V30 38408 C 3740.03 -1.43645 0.911056 0
M  V30 38409 O 3741.21 -1.5422 1.18024 0
M  V30 38410 C 3738.34 -2.48551 2.42569 0
M  V30 38411 C 3737.29 -2.35119 3.57635 0
M  V30 38412 C 3736.62 -3.72829 3.83279 0
M  V30 38413 C 3737.92 -1.81829 4.89628 0
M  V30 38414 H 3739.61 -0.777156 2.89138 0
M  V30 38415 H 3737.16 -0.372392 1.39102 0
M  V30 38416 H 3739.11 -3.20883 2.73152 0
M  V30 38417 H 3737.84 -2.88443 1.53193 0
M  V30 38418 H 3736.5 -1.65236 3.2725 0
M  V30 38419 H 3736.14 -4.10192 2.91121 0
M  V30 38420 H 3735.84 -3.64697 4.60728 0
M  V30 38421 H 3737.37 -4.46678 4.16306 0
M  V30 38422 H 3738.78 -2.43972 5.18797 0
M  V30 38423 H 3737.18 -1.84538 5.71022 0
M  V30 38424 H 3738.25 -0.775301 4.78662 0
M  V30 38425 N 3739.59 -1.52523 -0.396809 0
M  V30 38426 C 3740.82 -1.71348 -1.16854 0
M  V30 38427 C 3741.24 -0.427497 -1.83178 0
M  V30 38428 O 3740.6 0.616093 -1.70511 0
M  V30 38429 C 3740.65 -2.85858 -2.19812 0
M  V30 38430 O 3739.75 -2.52287 -3.26229 0
M  V30 38431 H 3739.09 -0.570023 -0.340544 0
M  V30 38432 H 3741.62 -1.99281 -0.463497 0
M  V30 38433 H 3741.63 -3.11128 -2.63938 0
M  V30 38434 H 3740.31 -3.79154 -1.70924 0
M  V30 38435 H 3738.89 -2.37731 -2.87295 0
M  V30 38436 N 3741.07 0.654789 -1.43354 0
M  V30 38437 C 3742.3 1.44745 -1.48538 0
M  V30 38438 C 3742.72 1.87812 -0.104024 0
M  V30 38439 O 3742.08 1.57275 0.901896 0
M  V30 38440 C 3742.13 2.65968 -2.43502 0
M  V30 38441 O 3741.23 3.64969 -1.9202 0
M  V30 38442 H 3740.57 0.434058 -0.502484 0
M  V30 38443 H 3743.1 0.801393 -1.88252 0
M  V30 38444 H 3743.11 3.13802 -2.60754 0
M  V30 38445 H 3741.79 2.33964 -3.43851 0
M  V30 38446 H 3740.36 3.24103 -1.84422 0
M  V30 38447 N 3742.55 1.29858 0.893007 0
M  V30 38448 C 3743.97 1.08015 1.17494 0
M  V30 38449 C 3744.17 -0.164267 2.00829 0
M  V30 38450 O 3743.22 -0.860152 2.37398 0
M  V30 38451 C 3744.53 2.33928 1.8894 0
M  V30 38452 C 3746.08 2.39313 2.01738 0
M  V30 38453 C 3746.56 3.65047 2.76595 0
M  V30 38454 N 3748.05 3.65808 2.84145 0
M  V30 38455 C 3748.78 4.59782 3.4262 0
M  V30 38456 N 3748.28 5.64093 4.02208 0
M  V30 38457 N 3750.07 4.4734 3.40358 0
M  V30 38458 H 3742.22 2.09707 0.337153 0
M  V30 38459 H 3744.49 0.924018 0.211883 0
M  V30 38460 H 3744.19 3.24698 1.35145 0
M  V30 38461 H 3744.07 2.41955 2.89374 0
M  V30 38462 H 3746.45 1.49027 2.54706 0
M  V30 38463 H 3746.53 2.35266 1.00416 0
M  V30 38464 H 3746.18 4.55688 2.24301 0
M  V30 38465 H 3746.11 3.66353 3.78276 0
M  V30 38466 H 3748.6 2.9039 2.4183 0
M  V30 38467 H 3748.91 6.31911 4.44869 0
M  V30 38468 H 3747.26 5.67894 4.00651 0
M  V30 38469 H 3750.45 3.65036 2.93029 0
M  V30 38470 H 3750.62 5.20759 3.85635 0
M  V30 38471 N 3744.03 -1.10427 1.12443 0
M  V30 38472 C 3744.99 -2.14953 0.795481 0
M  V30 38473 C 3745.99 -1.59671 -0.190192 0
M  V30 38474 O 3747.18 -1.74164 0.0356103 0
M  V30 38475 C 3744.31 -3.40413 0.182103 0
M  V30 38476 H 3745.51 -2.45564 1.72158 0
M  V30 38477 H 3743.06 -1.25792 0.927695 0
M  V30 38478 H 3743.79 -3.1542 -0.753711 0
M  V30 38479 H 3743.58 -3.81824 0.891776 0
M  V30 38480 H 3745.07 -4.17588 -0.0315552 0
M  V30 38481 N 3745.51 -0.916353 -1.28221 0
M  V30 38482 C 3746.75 -0.551673 -1.95152 0
M  V30 38483 C 3747.08 0.902799 -1.71939 0
M  V30 38484 O 3746.36 1.64242 -1.04187 0
M  V30 38485 C 3746.64 -0.864709 -3.49564 0
M  V30 38486 C 3746.5 -2.3721 -3.82167 0
M  V30 38487 C 3747.81 -0.36267 -4.38603 0
M  V30 38488 H 3744.93 -0.201903 -0.708805 0
M  V30 38489 H 3747.58 -1.14607 -1.51543 0
M  V30 38490 H 3745.73 -0.35885 -3.86839 0
M  V30 38491 H 3747.4 -2.94878 -3.54746 0
M  V30 38492 H 3745.64 -2.82601 -3.29119 0
M  V30 38493 H 3746.31 -2.54167 -4.90003 0
M  V30 38494 H 3748.79 -0.796054 -4.08414 0
M  V30 38495 H 3747.66 -0.610756 -5.45492 0
M  V30 38496 H 3747.92 0.73706 -4.35913 0
M  V30 38497 N 3746.98 1.42146 -0.680615 0
M  V30 38498 C 3747.93 2.32599 0.00568415 0
M  V30 38499 C 3748.93 1.50144 0.784422 0
M  V30 38500 O 3750.13 1.66178 0.69173 0
M  V30 38501 H 3746.51 0.751717 0.0206351 0
M  V30 38502 H 3748.48 2.88174 -0.774497 0
M  V30 38503 C 3747.23 3.34782 0.93896 0
M  V30 38504 H 3746.55 3.98272 0.349155 0
M  V30 38505 H 3747.99 4.00646 1.38775 0
M  V30 38506 C 3746.45 2.67497 2.0481 0
M  V30 38507 O 3746.98 2.51132 3.13521 0
M  V30 38508 N 3745.18 2.26429 1.82149 0
M  V30 38509 H 3744.73 2.39939 0.937388 0
M  V30 38510 H 3744.69 1.81743 2.56548 0
M  V30 38511 N 3748.46 0.424336 1.5178 0
M  V30 38512 C 3749.41 -0.411299 2.2426 0
M  V30 38513 C 3750.4 -1.00092 1.25978 0
M  V30 38514 O 3751.59 -0.921211 1.51138 0
M  V30 38515 C 3748.72 -1.51911 3.0786 0
M  V30 38516 C 3747.8 -0.939526 4.13562 0
M  V30 38517 N 3748.19 -0.0879411 5.05724 0
M  V30 38518 C 3746.49 -1.20847 4.29316 0
M  V30 38519 C 3747.19 0.236178 5.8122 0
M  V30 38520 N 3746.17 -0.376887 5.42292 0
M  V30 38521 H 3749.97 0.245451 2.92873 0
M  V30 38522 H 3747.48 0.23564 1.60681 0
M  V30 38523 H 3749.48 -2.1305 3.58351 0
M  V30 38524 H 3748.14 -2.17833 2.40788 0
M  V30 38525 H 3749.15 0.277527 5.17156 0
M  V30 38526 H 3745.83 -1.86615 3.73472 0
M  V30 38527 H 3747.22 0.928358 6.65456 0
M  V30 38528 N 3749.94 -1.56833 0.15525 0
M  V30 38529 C 3751.19 -1.95562 -0.493796 0
M  V30 38530 C 3751.5 -1.04308 -1.65466 0
M  V30 38531 O 3752.71 -1.3265 -2.36888 0
M  V30 38532 C 3751.16 -3.4768 -0.929862 0
M  V30 38533 C 3750.77 -4.47533 0.204526 0
M  V30 38534 C 3752.52 -3.95259 -1.54823 0
M  V30 38535 C 3750.42 -5.9087 -0.250271 0
M  V30 38536 H 3749.35 -0.730123 -0.188245 0
M  V30 38537 H 3752 -1.81912 0.240915 0
M  V30 38538 H 3750.39 -3.56692 -1.72008 0
M  V30 38539 H 3751.56 -4.50223 0.981614 0
M  V30 38540 H 3749.87 -4.09919 0.731828 0
M  V30 38541 H 3752.47 -4.99794 -1.90027 0
M  V30 38542 H 3752.81 -3.37279 -2.44025 0
M  V30 38543 H 3753.35 -3.89199 -0.822759 0
M  V30 38544 H 3750.09 -6.52687 0.606576 0
M  V30 38545 H 3749.61 -5.91522 -0.99306 0
M  V30 38546 H 3751.29 -6.43207 -0.699532 0
M  V30 38547 N 3751.42 0.118521 -1.57154 0
M  V30 38548 C 3752.83 0.472069 -1.52459 0
M  V30 38549 C 3753.03 1.81831 -0.868321 0
M  V30 38550 O 3752.09 2.48442 -0.450861 0
M  V30 38551 C 3753.4 0.456123 -2.9722 0
M  V30 38552 C 3754.95 0.53964 -3.08313 0
M  V30 38553 C 3755.43 0.554078 -4.54636 0
M  V30 38554 N 3756.92 0.615503 -4.59092 0
M  V30 38555 C 3757.65 0.648129 -5.69725 0
M  V30 38556 N 3757.15 0.638373 -6.89853 0
M  V30 38557 N 3758.94 0.691174 -5.57834 0
M  V30 38558 H 3751.09 -0.763565 -1.98201 0
M  V30 38559 H 3753.35 -0.281715 -0.905174 0
M  V30 38560 H 3753.06 -0.465425 -3.48607 0
M  V30 38561 H 3752.93 1.28375 -3.54683 0
M  V30 38562 H 3755.32 1.45161 -2.56929 0
M  V30 38563 H 3755.4 -0.315682 -2.53845 0
M  V30 38564 H 3755.05 -0.353848 -5.06666 0
M  V30 38565 H 3754.98 1.42629 -5.06917 0
M  V30 38566 H 3757.47 0.629188 -3.72625 0
M  V30 38567 H 3757.78 0.665905 -7.69926 0
M  V30 38568 H 3756.13 0.60579 -6.92355 0
M  V30 38569 H 3759.32 0.696163 -4.62894 0
M  V30 38570 H 3759.49 0.713133 -6.44064 0
M  V30 38571 N 3752.9 1.52731 0.388715 0
M  V30 38572 C 3754.12 1.71965 1.15943 0
M  V30 38573 C 3754.55 0.437205 1.82948 0
M  V30 38574 O 3753.9 -0.607042 1.70835 0
M  V30 38575 C 3753.95 2.8702 2.18293 0
M  V30 38576 O 3753.06 2.54013 3.24886 0
M  V30 38577 H 3752.4 0.571821 0.337516 0
M  V30 38578 H 3754.93 1.99524 0.452922 0
M  V30 38579 H 3754.94 3.12523 2.62284 0
M  V30 38580 H 3753.61 3.80055 1.68911 0
M  V30 38581 H 3752.19 2.39251 2.8603 0
M  V30 38582 N 3754.37 -0.647178 1.43699 0
M  V30 38583 C 3755.62 -1.40908 1.45852 0
M  V30 38584 C 3755.95 -1.94015 0.0847108 0
M  V30 38585 O 3755.23 -1.72667 -0.89534 0
M  V30 38586 C 3755.51 -2.58611 2.50584 0
M  V30 38587 C 3755.36 -2.10958 3.97262 0
M  V30 38588 C 3756.68 -3.60819 2.51987 0
M  V30 38589 H 3753.8 -0.511017 0.531065 0
M  V30 38590 H 3756.44 -0.733173 1.75284 0
M  V30 38591 H 3754.59 -3.16274 2.25616 0
M  V30 38592 H 3756.27 -1.58249 4.33307 0
M  V30 38593 H 3754.51 -1.42277 4.09805 0
M  V30 38594 H 3755.18 -2.95625 4.66165 0
M  V30 38595 H 3757.66 -3.12927 2.74256 0
M  V30 38596 H 3756.53 -4.40718 3.27199 0
M  V30 38597 H 3756.79 -4.13817 1.55589 0
M  V30 38598 N 3755.85 -1.3033 -0.886108 0
M  V30 38599 C 3757.1 -1.20274 -1.6403 0
M  V30 38600 C 3757.45 0.240465 -1.90891 0
M  V30 38601 O 3756.75 1.16914 -1.51795 0
M  V30 38602 C 3756.94 -1.96369 -2.9862 0
M  V30 38603 C 3756.77 -3.47941 -2.84898 0
M  V30 38604 C 3755.54 -4.17297 -2.84941 0
M  V30 38605 C 3757.74 -4.43193 -2.6093 0
M  V30 38606 N 3755.72 -5.55138 -2.62098 0
M  V30 38607 C 3757.09 -5.68589 -2.47198 0
M  V30 38608 C 3759.15 -4.32801 -2.46145 0
M  V30 38609 C 3757.85 -6.8477 -2.20186 0
M  V30 38610 C 3759.87 -5.48749 -2.20518 0
M  V30 38611 C 3759.24 -6.73125 -2.07563 0
M  V30 38612 H 3755.34 -0.495168 -0.605254 0
M  V30 38613 H 3757.92 -1.64326 -1.04427 0
M  V30 38614 H 3756.09 -1.5471 -3.56258 0
M  V30 38615 H 3757.82 -1.78465 -3.63225 0
M  V30 38616 H 3754.58 -3.69119 -2.96729 0
M  V30 38617 H 3755 -6.2767 -2.53692 0
M  V30 38618 H 3759.64 -3.37323 -2.54898 0
M  V30 38619 H 3757.36 -7.80291 -2.10171 0
M  V30 38620 H 3760.95 -5.42616 -2.09903 0
M  V30 38621 H 3759.83 -7.61329 -1.8801 0
M  V30 38622 N 3757.33 1.0983 -1.13028 0
M  V30 38623 C 3758.24 2.19911 -0.81709 0
M  V30 38624 C 3759.26 1.72885 0.196639 0
M  V30 38625 O 3760.43 2.0138 0.0287048 0
M  V30 38626 C 3757.5 3.45542 -0.283101 0
M  V30 38627 C 3756.56 4.0727 -1.35755 0
M  V30 38628 C 3755.79 5.26905 -0.848948 0
M  V30 38629 O 3756.01 5.6953 0.315004 0
M  V30 38630 O 3754.95 5.79651 -1.62138 0
M  V30 38631 H 3758.77 2.49145 -1.73668 0
M  V30 38632 H 3756.36 1.18686 -0.907412 0
M  V30 38633 H 3758.24 4.21399 0.00949469 0
M  V30 38634 H 3756.92 3.1792 0.608962 0
M  V30 38635 H 3755.82 3.33069 -1.7034 0
M  V30 38636 H 3757.16 4.39109 -2.22361 0
M  V30 38637 N 3758.81 0.92314 1.27734 0
M  V30 38638 C 3760.09 0.479758 1.89625 0
M  V30 38639 C 3760.47 -1.04194 1.83594 0
M  V30 38640 O 3759.81 -1.89411 1.27811 0
M  V30 38641 C 3760.02 1.0207 3.3374 0
M  V30 38642 C 3761.37 1.07844 4.10676 0
M  V30 38643 O 3762.4 0.970003 3.42738 0
M  V30 38644 O 3761.25 1.24485 5.32133 0
M  V30 38645 H 3758.35 0.153589 0.812613 0
M  V30 38646 H 3760.89 1.01453 1.36034 0
M  V30 38647 H 3759.67 2.0646 3.324 0
M  V30 38648 H 3759.29 0.467303 3.94844 0
M  V30 38649 N 3760.29 -1.41783 0.688143 0
M  V30 38650 C 3761.22 -2.33478 0.0323609 0
M  V30 38651 C 3762.2 -1.51413 -0.775118 0
M  V30 38652 O 3763.38 -1.79974 -0.729589 0
M  V30 38653 C 3760.51 -3.35164 -0.910082 0
M  V30 38654 C 3759.47 -4.27483 -0.210237 0
M  V30 38655 C 3758.79 -5.19483 -1.26653 0
M  V30 38656 C 3760.09 -5.14153 0.918929 0
M  V30 38657 H 3761.79 -2.88564 0.798189 0
M  V30 38658 H 3759.33 -1.3875 0.385286 0
M  V30 38659 H 3761.29 -3.98231 -1.37803 0
M  V30 38660 H 3760.01 -2.78411 -1.70749 0
M  V30 38661 H 3758.67 -3.65829 0.237608 0
M  V30 38662 H 3758.32 -4.5905 -2.05627 0
M  V30 38663 H 3758.02 -5.82083 -0.803314 0
M  V30 38664 H 3759.54 -5.85427 -1.73514 0
M  V30 38665 H 3760.95 -5.7083 0.531599 0
M  V30 38666 H 3759.35 -5.85654 1.30877 0
M  V30 38667 H 3760.42 -4.51759 1.76188 0
M  V30 38668 N 3761.76 -0.432379 -1.51553 0
M  V30 38669 C 3762.69 0.372202 -2.30514 0
M  V30 38670 C 3763.68 1.02547 -1.35713 0
M  V30 38671 O 3764.86 1.03006 -1.64631 0
M  V30 38672 C 3761.99 1.47641 -3.14356 0
M  V30 38673 C 3760.94 0.9469 -4.17394 0
M  V30 38674 C 3760.27 2.14648 -4.89725 0
M  V30 38675 C 3761.57 -0.0152295 -5.22298 0
M  V30 38676 H 3763.26 -0.286732 -2.98024 0
M  V30 38677 H 3760.81 -0.13934 -1.43324 0
M  V30 38678 H 3762.76 2.04645 -3.68373 0
M  V30 38679 H 3761.49 2.16356 -2.44658 0
M  V30 38680 H 3760.15 0.39911 -3.64421 0
M  V30 38681 H 3759.79 2.81971 -4.16535 0
M  V30 38682 H 3759.49 1.79859 -5.59397 0
M  V30 38683 H 3761.02 2.72214 -5.46564 0
M  V30 38684 H 3762.43 0.464346 -5.71416 0
M  V30 38685 H 3760.83 -0.275444 -5.99468 0
M  V30 38686 H 3761.9 -0.953441 -4.75434 0
M  V30 38687 N 3763.24 1.56749 -0.163565 0
M  V30 38688 C 3764.15 2.21168 0.782422 0
M  V30 38689 C 3765.17 1.20095 1.25909 0
M  V30 38690 O 3766.34 1.5273 1.31284 0
M  V30 38691 C 3763.41 2.8337 1.99756 0
M  V30 38692 C 3762.47 3.9962 1.56852 0
M  V30 38693 C 3761.7 4.58845 2.72574 0
M  V30 38694 O 3761.93 4.16955 3.89236 0
M  V30 38695 O 3760.86 5.48843 2.47094 0
M  V30 38696 H 3764.69 3.02551 0.26397 0
M  V30 38697 H 3762.27 1.49262 0.0642637 0
M  V30 38698 H 3764.15 3.22839 2.70837 0
M  V30 38699 H 3762.83 2.04989 2.50522 0
M  V30 38700 H 3761.74 3.64834 0.827447 0
M  V30 38701 H 3763.07 4.7957 1.10786 0
M  V30 38702 N 3764.72 -0.110185 1.57214 0
M  V30 38703 C 3766 -0.847218 1.763 0
M  V30 38704 C 3766.38 -1.97655 0.741329 0
M  V30 38705 O 3765.73 -2.27308 -0.233064 0
M  V30 38706 C 3765.94 -1.35576 3.2159 0
M  V30 38707 C 3767.28 -1.80459 3.84343 0
M  V30 38708 O 3768.31 -1.45235 3.25246 0
M  V30 38709 O 3767.17 -2.45537 4.88235 0
M  V30 38710 H 3764.26 -0.40298 0.722175 0
M  V30 38711 H 3766.81 -0.0932397 1.69444 0
M  V30 38712 H 3765.58 -0.545922 3.87473 0
M  V30 38713 H 3765.2 -2.17219 3.33019 0
M  V30 38714 N 3766.2 -1.52935 -0.38061 0
M  V30 38715 C 3767.43 -1.72276 -1.1458 0
M  V30 38716 C 3767.84 -0.444896 -1.83483 0
M  V30 38717 O 3767.2 0.581214 -1.72998 0
M  V30 38718 C 3767.25 -2.87803 -2.1875 0
M  V30 38719 O 3766.97 -4.10643 -1.52655 0
M  V30 38720 C 3768.47 -3.18892 -3.07933 0
M  V30 38721 H 3765.69 -0.576584 -0.343208 0
M  V30 38722 H 3768.24 -1.99619 -0.444114 0
M  V30 38723 H 3766.39 -2.62897 -2.84542 0
M  V30 38724 H 3766.8 -4.75229 -2.2194 0
M  V30 38725 H 3768.28 -4.03171 -3.77037 0
M  V30 38726 H 3768.76 -2.33625 -3.71909 0
M  V30 38727 H 3769.36 -3.45669 -2.47777 0
M  V30 38728 N 3767.68 0.639548 -1.4404 0
M  V30 38729 C 3768.59 1.78074 -1.52731 0
M  V30 38730 C 3769.6 1.69015 -0.413497 0
M  V30 38731 O 3770.78 1.89942 -0.669625 0
M  V30 38732 C 3767.84 3.14421 -1.46083 0
M  V30 38733 C 3766.9 3.35174 -2.68247 0
M  V30 38734 C 3766.14 4.65016 -2.61907 0
M  V30 38735 O 3766.36 5.4527 -1.6744 0
M  V30 38736 O 3765.29 4.87788 -3.52627 0
M  V30 38737 H 3769.12 1.73696 -2.49125 0
M  V30 38738 H 3766.71 0.799733 -1.26193 0
M  V30 38739 H 3768.59 3.95716 -1.44868 0
M  V30 38740 H 3767.26 3.1936 -0.528292 0
M  V30 38741 H 3766.17 2.5359 -2.75032 0
M  V30 38742 H 3767.5 3.35091 -3.6052 0
M  V30 38743 N 3769.15 1.30798 0.879184 0
M  V30 38744 C 3770.38 1.22894 1.66447 0
M  V30 38745 C 3770.8 -0.207273 1.87659 0
M  V30 38746 O 3770.15 -1.13617 1.4282 0
M  V30 38747 C 3770.21 1.95987 3.03762 0
M  V30 38748 O 3769.93 3.34002 2.83504 0
M  V30 38749 C 3771.43 1.94811 3.982 0
M  V30 38750 H 3768.65 0.42504 0.519213 0
M  V30 38751 H 3771.19 1.72521 1.09804 0
M  V30 38752 H 3769.35 1.50145 3.57121 0
M  V30 38753 H 3769.76 3.71098 3.70657 0
M  V30 38754 H 3771.23 2.50482 4.91897 0
M  V30 38755 H 3771.71 0.928412 4.29275 0
M  V30 38756 H 3772.32 2.40491 3.50776 0
M  V30 38757 N 3770.63 -1.09229 1.13608 0
M  V30 38758 C 3772.04 -1.62937 0.911509 0
M  V30 38759 C 3772.4 -1.88288 -0.551537 0
M  V30 38760 O 3771.52 -1.63409 -1.41867 0
M  V30 38761 C 3772.12 -2.96008 1.64818 0
M  V30 38762 C 3770.67 -3.46533 1.46941 0
M  V30 38763 C 3769.82 -2.20913 1.67608 0
M  V30 38764 H 3772.77 -0.925646 1.28909 0
M  V30 38765 H 3772.79 -3.64058 1.10645 0
M  V30 38766 H 3772.31 -2.77525 2.71296 0
M  V30 38767 H 3770.41 -3.70137 0.427732 0
M  V30 38768 H 3770.52 -4.23837 2.23382 0
M  V30 38769 H 3768.88 -2.2967 1.10109 0
M  V30 38770 H 3769.67 -2.04947 2.75412 0
M  V30 38771 N 3772.11 -0.929901 -1.27242 0
M  V30 38772 C 3773.36 -0.567301 -1.93558 0
M  V30 38773 C 3773.67 0.896108 -1.73866 0
M  V30 38774 O 3774.88 1.36759 -2.34541 0
M  V30 38775 C 3773.34 -0.963804 -3.46755 0
M  V30 38776 C 3772.94 -2.44805 -3.75199 0
M  V30 38777 C 3774.69 -0.672561 -4.19138 0
M  V30 38778 C 3772.59 -2.78384 -5.21782 0
M  V30 38779 H 3771.52 -0.208449 -0.724614 0
M  V30 38780 H 3774.18 -1.13101 -1.445 0
M  V30 38781 H 3772.56 -0.328723 -3.94633 0
M  V30 38782 H 3773.73 -3.13122 -3.3807 0
M  V30 38783 H 3772.05 -2.71141 -3.16024 0
M  V30 38784 H 3774.64 -0.899909 -5.27073 0
M  V30 38785 H 3774.99 0.390305 -4.14466 0
M  V30 38786 H 3775.52 -1.26684 -3.77089 0
M  V30 38787 H 3772.26 -3.83588 -5.31545 0
M  V30 38788 H 3771.78 -2.14718 -5.6005 0
M  V30 38789 H 3773.46 -2.66245 -5.8968 0
M  V30 38790 N 3773.59 1.41416 -0.695653 0
M  V30 38791 C 3774.87 1.94987 -0.154681 0
M  V30 38792 C 3775.25 1.63502 1.33531 0
M  V30 38793 O 3774.59 0.942068 2.08176 0
M  V30 38794 C 3774.8 3.46138 -0.446065 0
M  V30 38795 C 3776.15 4.22951 -0.373854 0
M  V30 38796 O 3777.18 3.54157 -0.380984 0
M  V30 38797 O 3776.04 5.45478 -0.334046 0
M  V30 38798 H 3773.13 0.826864 -0.0150198 0
M  V30 38799 H 3775.68 1.51133 -0.771819 0
M  V30 38800 H 3774.45 3.62338 -1.4774 0
M  V30 38801 H 3774.07 3.97086 0.202042 0
M  V30 38802 N 3775.07 0.44041 1.51321 0
M  V30 38803 C 3776.3 -0.123613 2.0653 0
M  V30 38804 C 3776.71 -1.36195 1.30753 0
M  V30 38805 O 3776.07 -1.78752 0.367963 0
M  V30 38806 C 3776.12 -0.442739 3.58779 0
M  V30 38807 O 3775.84 0.746451 4.31694 0
M  V30 38808 C 3777.34 -1.0571 4.30512 0
M  V30 38809 H 3774.56 -0.00656287 0.670968 0
M  V30 38810 H 3777.1 0.620376 1.94863 0
M  V30 38811 H 3775.26 -1.13663 3.7035 0
M  V30 38812 H 3775.67 0.472558 5.22367 0
M  V30 38813 H 3777.15 -1.23037 5.38113 0
M  V30 38814 H 3777.62 -2.03896 3.89003 0
M  V30 38815 H 3778.23 -0.4025 4.23391 0
M  V30 38816 N 3776.55 -1.5666 0.171876 0
M  V30 38817 C 3777.77 -2.01274 -0.479185 0
M  V30 38818 C 3778.19 -1.05209 -1.56769 0
M  V30 38819 O 3777.55 -0.0530485 -1.82423 0
M  V30 38820 C 3777.6 -3.45702 -1.05699 0
M  V30 38821 O 3777.32 -4.38098 -0.0119363 0
M  V30 38822 C 3778.82 -4.0572 -1.78622 0
M  V30 38823 H 3776.04 -0.659707 -0.122587 0
M  V30 38824 H 3778.58 -2.02659 0.273769 0
M  V30 38825 H 3776.74 -3.4509 -1.76044 0
M  V30 38826 H 3777.15 -5.22663 -0.438622 0
M  V30 38827 H 3778.63 -5.08699 -2.1431 0
M  V30 38828 H 3779.1 -3.47845 -2.68143 0
M  V30 38829 H 3779.71 -4.10036 -1.12918 0
M  V30 38830 N 3778.02 0.101846 -1.57271 0
M  V30 38831 C 3779.27 0.805231 -1.8493 0
M  V30 38832 C 3779.59 1.80226 -0.760131 0
M  V30 38833 O 3780.79 2.55306 -0.923639 0
M  V30 38834 C 3779.25 1.48285 -3.27932 0
M  V30 38835 C 3778.86 0.525938 -4.44902 0
M  V30 38836 C 3780.6 2.17036 -3.64822 0
M  V30 38837 C 3778.51 1.20777 -5.78936 0
M  V30 38838 H 3777.44 0.304466 -0.689794 0
M  V30 38839 H 3780.09 0.0581015 -1.83408 0
M  V30 38840 H 3778.47 2.27721 -3.23974 0
M  V30 38841 H 3779.64 -0.236433 -4.60193 0
M  V30 38842 H 3777.96 -0.0555118 -4.16363 0
M  V30 38843 H 3780.56 2.6877 -4.62241 0
M  V30 38844 H 3780.9 2.95623 -2.93109 0
M  V30 38845 H 3781.43 1.44469 -3.70639 0
M  V30 38846 H 3778.17 0.462845 -6.53864 0
M  V30 38847 H 3777.69 1.94173 -5.67501 0
M  V30 38848 H 3779.37 1.73615 -6.23271 0
M  V30 38849 N 3779.5 1.53135 0.372494 0
M  V30 38850 C 3780.43 1.73857 1.47814 0
M  V30 38851 C 3781.41 0.58675 1.51644 0
M  V30 38852 O 3782.6 0.818525 1.69801 0
M  V30 38853 C 3779.72 1.81112 2.8621 0
M  V30 38854 C 3778.77 3.03021 3.00134 0
M  V30 38855 S 3779.6 4.62678 2.69609 0
M  V30 38856 C 3780.76 4.72772 4.10167 0
M  V30 38857 H 3780.99 2.67364 1.30014 0
M  V30 38858 H 3778.52 1.43636 0.566404 0
M  V30 38859 H 3780.48 1.85977 3.65954 0
M  V30 38860 H 3779.14 0.886685 3.01325 0
M  V30 38861 H 3778.34 3.04687 4.01475 0
M  V30 38862 H 3777.94 2.96232 2.28303 0
M  V30 38863 H 3780.23 4.52402 5.0432 0
M  V30 38864 H 3781.17 5.74818 4.1351 0
M  V30 38865 H 3781.58 4.01465 3.96845 0
M  V30 38866 N 3780.98 -0.6319 1.44377 0
M  V30 38867 C 3781.94 -1.72579 1.50828 0
M  V30 38868 C 3782.94 -1.55989 0.390406 0
M  V30 38869 O 3784.13 -1.61498 0.652998 0
M  V30 38870 C 3781.26 -3.11654 1.38146 0
M  V30 38871 H 3782.46 -1.68235 2.48268 0
M  V30 38872 H 3780.01 -0.845491 1.31458 0
M  V30 38873 H 3780.75 -3.21595 0.417962 0
M  V30 38874 H 3780.53 -3.25103 2.19204 0
M  V30 38875 H 3782.02 -3.91381 1.45639 0
M  V30 38876 N 3782.46 -1.31262 -0.872235 0
M  V30 38877 C 3783.4 -1.18721 -1.97924 0
M  V30 38878 C 3784.37 -0.0735534 -1.65937 0
M  V30 38879 O 3785.56 -0.246012 -1.89207 0
M  V30 38880 C 3782.7 -0.898176 -3.33207 0
M  V30 38881 C 3781.81 -2.09495 -3.77804 0
M  V30 38882 C 3780.95 -1.7429 -5.01793 0
M  V30 38883 C 3779.99 -2.90388 -5.38833 0
M  V30 38884 N 3779.12 -2.55393 -6.54002 0
M  V30 38885 H 3783.96 -2.13418 -2.07982 0
M  V30 38886 H 3781.5 -1.06166 -1.01819 0
M  V30 38887 H 3783.46 -0.711162 -4.11094 0
M  V30 38888 H 3782.09 0.011953 -3.22798 0
M  V30 38889 H 3781.14 -2.39281 -2.95718 0
M  V30 38890 H 3782.45 -2.96398 -4.01186 0
M  V30 38891 H 3781.61 -1.52037 -5.87341 0
M  V30 38892 H 3780.35 -0.845749 -4.80311 0
M  V30 38893 H 3779.35 -3.13292 -4.51806 0
M  V30 38894 H 3780.58 -3.80809 -5.62283 0
M  V30 38895 H 3778.52 -1.68199 -6.3407 0
M  V30 38896 H 3778.44 -3.35826 -6.77316 0
M  V30 38897 H 3779.71 -2.36529 -7.42748 0
M  V30 38898 N 3783.94 1.08625 -1.14186 0
M  V30 38899 C 3784.88 2.17579 -0.822335 0
M  V30 38900 C 3785.88 1.68229 0.198834 0
M  V30 38901 O 3787.08 1.79915 0.0551552 0
M  V30 38902 H 3783.46 0.709861 -0.248195 0
M  V30 38903 H 3785.43 2.41755 -1.7492 0
M  V30 38904 C 3784.18 3.46282 -0.313732 0
M  V30 38905 H 3783.5 3.8463 -1.09085 0
M  V30 38906 H 3784.94 4.23805 -0.128679 0
M  V30 38907 C 3783.4 3.22866 0.962232 0
M  V30 38908 O 3783.93 3.46255 2.03643 0
M  V30 38909 N 3782.14 2.76423 0.896586 0
M  V30 38910 H 3781.68 2.5759 0.0222734 0
M  V30 38911 H 3781.64 2.61135 1.75089 0
M  V30 38912 N 3785.41 0.936635 1.26747 0
M  V30 38913 C 3786.32 0.448613 2.30271 0
M  V30 38914 C 3787.34 -0.475154 1.67387 0
M  V30 38915 O 3788.52 -0.35579 1.98232 0
M  V30 38916 C 3785.58 -0.28256 3.45547 0
M  V30 38917 C 3784.64 0.677212 4.23925 0
M  V30 38918 C 3783.88 -0.0191612 5.33697 0
M  V30 38919 O 3784.1 -1.23693 5.56827 0
M  V30 38920 O 3783.03 0.657224 5.98301 0
M  V30 38921 H 3786.86 1.30842 2.74069 0
M  V30 38922 H 3784.44 0.702337 1.31862 0
M  V30 38923 H 3786.33 -0.694613 4.15636 0
M  V30 38924 H 3785 -1.11783 3.03786 0
M  V30 38925 H 3783.91 1.13912 3.56335 0
M  V30 38926 H 3785.24 1.47997 4.69423 0
M  V30 38927 N 3786.89 -1.41045 0.703143 0
M  V30 38928 C 3788.14 -2.01402 0.237674 0
M  V30 38929 C 3788.47 -1.55589 -1.16214 0
M  V30 38930 O 3787.75 -0.770409 -1.78592 0
M  V30 38931 C 3788.03 -3.58816 0.303801 0
M  V30 38932 C 3787.88 -4.14736 1.7411 0
M  V30 38933 C 3789.2 -4.38845 -0.332109 0
M  V30 38934 H 3786.32 -0.731747 0.0878372 0
M  V30 38935 H 3788.96 -1.67691 0.893294 0
M  V30 38936 H 3787.11 -3.87666 -0.254417 0
M  V30 38937 H 3788.78 -3.96732 2.35375 0
M  V30 38938 H 3787.03 -3.69492 2.27284 0
M  V30 38939 H 3787.7 -5.23897 1.73885 0
M  V30 38940 H 3790.17 -4.15853 0.143385 0
M  V30 38941 H 3789.05 -5.48306 -0.255333 0
M  V30 38942 H 3789.31 -4.18881 -1.4139 0
M  V30 38943 N 3788.37 -0.448429 -1.51086 0
M  V30 38944 C 3789.62 0.114306 -2.02177 0
M  V30 38945 C 3789.95 1.4174 -1.33192 0
M  V30 38946 O 3789.2 1.90709 -0.439134 0
M  V30 38947 C 3789.5 0.369169 -3.55488 0
M  V30 38948 C 3789.17 -0.84945 -4.42826 0
M  V30 38949 C 3787.83 -1.18362 -4.66416 0
M  V30 38950 C 3790.18 -1.66188 -4.93995 0
M  V30 38951 C 3787.51 -2.33069 -5.3842 0
M  V30 38952 C 3789.86 -2.80004 -5.67257 0
M  V30 38953 C 3788.52 -3.13861 -5.89107 0
M  V30 38954 H 3787.79 0.0418277 -0.739819 0
M  V30 38955 H 3790.44 -0.597889 -1.81927 0
M  V30 38956 H 3788.75 1.16338 -3.74129 0
M  V30 38957 H 3790.44 0.818179 -3.92564 0
M  V30 38958 H 3787.03 -0.579073 -4.2467 0
M  V30 38959 H 3791.22 -1.41691 -4.75644 0
M  V30 38960 H 3786.47 -2.59602 -5.53549 0
M  V30 38961 H 3790.65 -3.43318 -6.05893 0
M  V30 38962 H 3788.27 -4.02856 -6.44679 0
M  V30 38963 N 3789.85 1.56567 -0.180181 0
M  V30 38964 C 3791.09 1.99044 0.464834 0
M  V30 38965 C 3791.45 1.06402 1.5982 0
M  V30 38966 O 3792.65 1.38056 2.30638 0
M  V30 38967 C 3790.92 3.45164 0.927166 0
M  V30 38968 S 3792.48 4.0967 1.57212 0
M  V30 38969 H 3789.3 0.695169 0.149203 0
M  V30 38970 H 3791.9 1.93488 -0.279733 0
M  V30 38971 H 3790.61 4.10297 0.0920093 0
M  V30 38972 H 3790.14 3.54506 1.70556 0
M  V30 38973 H 3792.15 4.05449 2.86052 0
M  V30 38974 N 3791.33 -0.0935042 1.57322 0
M  V30 38975 C 3792.57 -0.797886 1.86445 0
M  V30 38976 C 3792.91 -1.78303 0.769522 0
M  V30 38977 O 3792.18 -1.93225 -0.222349 0
M  V30 38978 C 3792.46 -1.52522 3.26204 0
M  V30 38979 C 3792.32 -0.557953 4.46326 0
M  V30 38980 C 3793.64 -2.47541 3.63884 0
M  V30 38981 H 3790.75 -0.288606 0.678141 0
M  V30 38982 H 3793.4 -0.0614827 1.899 0
M  V30 38983 H 3791.55 -2.15295 3.23389 0
M  V30 38984 H 3793.22 0.0628965 4.61257 0
M  V30 38985 H 3791.46 0.128538 4.3361 0
M  V30 38986 H 3792.13 -1.10404 5.40847 0
M  V30 38987 H 3794.61 -1.94859 3.67653 0
M  V30 38988 H 3793.48 -2.95448 4.62603 0
M  V30 38989 H 3793.75 -3.31371 2.92653 0
M  V30 38990 N 3792.8 -1.5333 -0.364368 0
M  V30 38991 C 3793.74 -1.76139 -1.46655 0
M  V30 38992 C 3794.75 -0.642192 -1.49599 0
M  V30 38993 O 3795.94 -0.918479 -1.53056 0
M  V30 38994 C 3793.04 -1.82735 -2.85414 0
M  V30 38995 C 3792.21 -3.12393 -3.06152 0
M  V30 38996 C 3791.27 -3.10215 -4.25033 0
M  V30 38997 O 3790.3 -3.8401 -4.20149 0
M  V30 38998 N 3791.5 -2.3112 -5.32507 0
M  V30 38999 H 3794.26 -2.71242 -1.27467 0
M  V30 39000 H 3791.82 -1.52123 -0.5541 0
M  V30 39001 H 3793.82 -1.78754 -3.63083 0
M  V30 39002 H 3792.39 -0.94911 -2.97843 0
M  V30 39003 H 3791.61 -3.29667 -2.16133 0
M  V30 39004 H 3792.89 -3.98078 -3.16878 0
M  V30 39005 H 3792.29 -1.70678 -5.39338 0
M  V30 39006 H 3790.85 -2.32956 -6.08748 0
M  V30 39007 N 3794.28 0.624234 -1.4471 0
M  V30 39008 C 3795.69 1.20597 -1.42525 0
M  V30 39009 C 3796.04 1.9567 -0.144163 0
M  V30 39010 O 3795.17 2.02797 0.755139 0
M  V30 39011 C 3795.76 2.19361 -2.58198 0
M  V30 39012 C 3794.32 2.72946 -2.59186 0
M  V30 39013 C 3793.47 1.48061 -2.34464 0
M  V30 39014 H 3796.42 0.414505 -1.53191 0
M  V30 39015 H 3796.44 3.02092 -2.31345 0
M  V30 39016 H 3795.95 1.64693 -3.51422 0
M  V30 39017 H 3794.06 3.31598 -1.69922 0
M  V30 39018 H 3794.17 3.18515 -3.5789 0
M  V30 39019 H 3792.53 1.76436 -1.83692 0
M  V30 39020 H 3793.32 0.95286 -3.29811 0
M  V30 39021 N 3795.76 1.31723 0.865262 0
M  V30 39022 C 3796.67 1.21741 2.0054 0
M  V30 39023 C 3797.69 0.133154 1.7349 0
M  V30 39024 O 3798.86 0.351844 1.98303 0
M  V30 39025 C 3795.93 0.930104 3.33991 0
M  V30 39026 C 3794.99 2.10174 3.74333 0
M  V30 39027 C 3794.22 1.82804 5.01416 0
M  V30 39028 O 3794.44 0.765444 5.65241 0
M  V30 39029 O 3793.38 2.68614 5.38637 0
M  V30 39030 H 3797.2 2.17565 2.11895 0
M  V30 39031 H 3794.79 1.11509 0.994293 0
M  V30 39032 H 3796.67 0.785919 4.14006 0
M  V30 39033 H 3795.35 0.00194332 3.237 0
M  V30 39034 H 3794.25 2.30135 2.94939 0
M  V30 39035 H 3795.59 3.01232 3.89256 0
M  V30 39036 N 3797.24 -1.08018 1.14761 0
M  V30 39037 C 3798.19 -2.15043 0.838172 0
M  V30 39038 C 3799.16 -1.64818 -0.206002 0
M  V30 39039 O 3800.34 -1.90652 -0.0750477 0
M  V30 39040 C 3797.48 -3.43555 0.326173 0
M  V30 39041 C 3796.59 -4.07606 1.43112 0
M  V30 39042 C 3795.73 -5.23928 0.875949 0
M  V30 39043 C 3794.77 -5.79929 1.9583 0
M  V30 39044 N 3793.9 -6.8759 1.42001 0
M  V30 39045 H 3798.74 -2.40852 1.75482 0
M  V30 39046 H 3796.28 -1.18194 0.875707 0
M  V30 39047 H 3798.24 -4.17199 0.0110836 0
M  V30 39048 H 3796.87 -3.18018 -0.553574 0
M  V30 39049 H 3795.92 -3.31684 1.86252 0
M  V30 39050 H 3797.23 -4.45242 2.24857 0
M  V30 39051 H 3796.39 -6.04527 0.512999 0
M  V30 39052 H 3795.13 -4.87692 0.0275874 0
M  V30 39053 H 3794.13 -4.9798 2.33015 0
M  V30 39054 H 3795.36 -6.18222 2.81032 0
M  V30 39055 H 3793.3 -6.53306 0.593893 0
M  V30 39056 H 3793.22 -7.24073 2.1738 0
M  V30 39057 H 3794.49 -7.71911 1.08509 0
M  V30 39058 N 3798.72 -0.943344 -1.26249 0
M  V30 39059 C 3799.96 -0.590897 -1.93269 0
M  V30 39060 C 3800.29 0.873182 -1.74358 0
M  V30 39061 O 3799.56 1.62068 -1.10048 0
M  V30 39062 H 3798.14 -0.215548 -0.715226 0
M  V30 39063 H 3800.8 -1.19914 -1.53645 0
M  V30 39064 H 3799.89 -0.810528 -3.01392 0
M  V30 39065 N 3800.2 1.4067 -0.710613 0
M  V30 39066 C 3801.44 2.00579 -0.247494 0
M  V30 39067 C 3801.76 1.56614 1.16176 0
M  V30 39068 O 3801.03 0.803389 1.78669 0
M  V30 39069 H 3799.61 0.741738 -0.0885122 0
M  V30 39070 H 3802.28 1.72079 -0.915133 0
M  V30 39071 H 3801.37 3.10871 -0.276685 0
M  V30 39072 N 3801.67 0.456435 1.50846 0
M  V30 39073 C 3803.09 0.109759 1.59222 0
M  V30 39074 C 3803.29 -1.38258 1.46584 0
M  V30 39075 O 3802.35 -2.15444 1.31682 0
M  V30 39076 C 3803.66 0.646898 2.93659 0
M  V30 39077 C 3805.21 0.609024 3.07018 0
M  V30 39078 C 3805.68 1.12346 4.44007 0
M  V30 39079 N 3807.17 1.08225 4.50379 0
M  V30 39080 C 3807.91 1.45096 5.54739 0
M  V30 39081 N 3807.4 1.89345 6.66424 0
M  V30 39082 N 3809.2 1.36791 5.45201 0
M  V30 39083 H 3801.35 1.4272 1.57305 0
M  V30 39084 H 3803.61 0.589308 0.742577 0
M  V30 39085 H 3803.32 1.69177 3.08337 0
M  V30 39086 H 3803.19 0.0823198 3.7711 0
M  V30 39087 H 3805.58 -0.426906 2.91996 0
M  V30 39088 H 3805.66 1.21023 2.2536 0
M  V30 39089 H 3805.3 2.15795 4.59777 0
M  V30 39090 H 3805.23 0.498604 5.24234 0
M  V30 39091 H 3807.72 0.757532 3.70229 0
M  V30 39092 H 3808.04 2.15665 7.42097 0
M  V30 39093 H 3806.38 1.93286 6.67582 0
M  V30 39094 H 3809.57 1.02074 4.56835 0
M  V30 39095 H 3809.75 1.65853 6.26416 0
M  V30 39096 N 3803.15 -1.56469 0.188482 0
M  V30 39097 C 3804.1 -2.18783 -0.735035 0
M  V30 39098 C 3805.07 -1.13303 -1.21457 0
M  V30 39099 O 3806.25 -1.41526 -1.27965 0
M  V30 39100 C 3803.39 -2.84605 -1.95176 0
M  V30 39101 C 3802.51 -4.04593 -1.51421 0
M  V30 39102 C 3801.64 -4.58291 -2.68593 0
M  V30 39103 C 3800.68 -5.70651 -2.21412 0
M  V30 39104 N 3799.82 -6.18785 -3.31738 0
M  V30 39105 H 3804.66 -2.97349 -0.196888 0
M  V30 39106 H 3802.19 -1.46852 -0.0854435 0
M  V30 39107 H 3804.15 -3.20934 -2.66565 0
M  V30 39108 H 3802.78 -2.08614 -2.46333 0
M  V30 39109 H 3801.83 -3.73971 -0.696435 0
M  V30 39110 H 3803.15 -4.85878 -1.12801 0
M  V30 39111 H 3802.3 -4.96892 -3.48114 0
M  V30 39112 H 3801.04 -3.761 -3.10484 0
M  V30 39113 H 3800.04 -5.31586 -1.40343 0
M  V30 39114 H 3801.27 -6.54656 -1.8056 0
M  V30 39115 H 3799.22 -5.39517 -3.73172 0
M  V30 39116 H 3799.13 -6.95104 -2.97265 0
M  V30 39117 H 3800.4 -6.62038 -4.11493 0
M  V30 39118 N 3804.63 0.0851597 -1.5737 0
M  V30 39119 C 3806.04 0.638544 -1.75441 0
M  V30 39120 C 3806.39 1.78605 -0.812073 0
M  V30 39121 O 3805.52 2.16399 0.00706624 0
M  V30 39122 C 3806.11 1.16512 -3.18136 0
M  V30 39123 C 3804.67 1.66448 -3.37597 0
M  V30 39124 C 3803.82 0.578227 -2.71204 0
M  V30 39125 H 3806.77 -0.140959 -1.58073 0
M  V30 39126 H 3806.79 2.03424 -3.21557 0
M  V30 39127 H 3806.3 0.329726 -3.86697 0
M  V30 39128 H 3804.4 2.52355 -2.74131 0
M  V30 39129 H 3804.52 1.75063 -4.45971 0
M  V30 39130 H 3802.88 1.02007 -2.33381 0
M  V30 39131 H 3803.66 -0.246751 -3.42412 0
M  V30 39132 N 3806.11 1.53521 0.356231 0
M  V30 39133 C 3807.07 1.79935 1.41971 0
M  V30 39134 C 3808.07 0.670023 1.46176 0
M  V30 39135 O 3809.26 0.938265 1.46773 0
M  V30 39136 C 3806.39 1.9299 2.81012 0
M  V30 39137 H 3807.59 2.74924 1.19819 0
M  V30 39138 H 3805.14 1.44741 0.589903 0
M  V30 39139 H 3805.87 1.00101 3.08465 0
M  V30 39140 H 3805.66 2.75139 2.79358 0
M  V30 39141 H 3807.15 2.14986 3.58009 0
M  V30 39142 N 3807.59 -0.616551 1.45039 0
M  V30 39143 C 3809 -0.936336 1.29247 0
M  V30 39144 C 3809.2 -2.00079 0.238914 0
M  V30 39145 O 3808.26 -2.49771 -0.370221 0
M  V30 39146 C 3809.57 -1.38577 2.66865 0
M  V30 39147 C 3811.12 -1.50046 2.74691 0
M  V30 39148 C 3811.59 -1.98368 4.12812 0
M  V30 39149 N 3813.08 -2.05616 4.15062 0
M  V30 39150 C 3813.82 -2.44207 5.18797 0
M  V30 39151 N 3813.32 -2.81831 6.32885 0
M  V30 39152 N 3815.11 -2.44468 5.06154 0
M  V30 39153 H 3807.26 0.0871678 2.12221 0
M  V30 39154 H 3809.52 -0.0236492 0.947705 0
M  V30 39155 H 3809.23 -0.67785 3.45106 0
M  V30 39156 H 3809.1 -2.35402 2.9473 0
M  V30 39157 H 3811.49 -2.19931 1.9676 0
M  V30 39158 H 3811.57 -0.515587 2.5055 0
M  V30 39159 H 3811.21 -1.29073 4.91226 0
M  V30 39160 H 3811.14 -2.97753 4.34339 0
M  V30 39161 H 3813.64 -1.79165 3.32729 0
M  V30 39162 H 3813.95 -3.10134 7.07839 0
M  V30 39163 H 3812.29 -2.79548 6.363 0
M  V30 39164 H 3815.48 -2.14475 4.16075 0
M  V30 39165 H 3815.66 -2.74219 5.87118 0
M  V30 39166 N 3809.06 -1.3218 -0.858264 0
M  V30 39167 C 3809.99 -1.23419 -1.98217 0
M  V30 39168 C 3810.97 -0.118809 -1.69685 0
M  V30 39169 O 3812.16 -0.305376 -1.91784 0
M  V30 39170 C 3809.29 -0.952784 -3.33975 0
M  V30 39171 C 3808.24 -2.029 -3.76849 0
M  V30 39172 C 3807.57 -1.60007 -5.10198 0
M  V30 39173 C 3808.87 -3.44359 -3.92701 0
M  V30 39174 H 3810.56 -2.1745 -2.05805 0
M  V30 39175 H 3808.11 -1.04684 -0.988799 0
M  V30 39176 H 3810.06 -0.878053 -4.12151 0
M  V30 39177 H 3808.79 0.0231766 -3.26592 0
M  V30 39178 H 3807.45 -2.09383 -3.00923 0
M  V30 39179 H 3807.09 -0.611658 -4.99267 0
M  V30 39180 H 3806.79 -2.32013 -5.39855 0
M  V30 39181 H 3808.32 -1.53964 -5.9087 0
M  V30 39182 H 3809.73 -3.40486 -4.6124 0
M  V30 39183 H 3808.13 -4.14683 -4.33772 0
M  V30 39184 H 3809.2 -3.84285 -2.95724 0
M  V30 39185 N 3810.54 1.07407 -1.15332 0
M  V30 39186 C 3811.79 1.79374 -0.92238 0
M  V30 39187 C 3812.1 1.87653 0.551896 0
M  V30 39188 O 3813.31 2.56135 0.900399 0
M  V30 39189 C 3811.77 3.22336 -1.60086 0
M  V30 39190 C 3811.37 3.2226 -3.11212 0
M  V30 39191 C 3813.12 3.98915 -1.45145 0
M  V30 39192 C 3811.02 4.59871 -3.7185 0
M  V30 39193 H 3809.95 0.672256 -0.341449 0
M  V30 39194 H 3812.61 1.2056 -1.38338 0
M  V30 39195 H 3810.99 3.81339 -1.06755 0
M  V30 39196 H 3812.16 2.72904 -3.71295 0
M  V30 39197 H 3810.48 2.59177 -3.25908 0
M  V30 39198 H 3813.07 5.0062 -1.8784 0
M  V30 39199 H 3813.42 4.14385 -0.398868 0
M  V30 39200 H 3813.95 3.46406 -1.9557 0
M  V30 39201 H 3810.69 4.49606 -4.77006 0
M  V30 39202 H 3810.21 5.09467 -3.1655 0
M  V30 39203 H 3811.89 5.2884 -3.72742 0
M  V30 39204 N 3812.02 0.950026 1.25747 0
M  V30 39205 C 3813.27 0.60322 1.93621 0
M  V30 39206 C 3813.6 -0.856895 1.74273 0
M  V30 39207 O 3812.87 -1.61422 1.08505 0
M  V30 39208 C 3813.16 0.957085 3.47148 0
M  V30 39209 C 3813.01 2.47259 3.75743 0
M  V30 39210 C 3814.33 0.478831 4.37487 0
M  V30 39211 H 3811.45 0.220624 0.703203 0
M  V30 39212 H 3814.09 1.18585 1.48451 0
M  V30 39213 H 3812.24 0.461287 3.85752 0
M  V30 39214 H 3813.91 3.0418 3.46803 0
M  V30 39215 H 3812.15 2.91228 3.2151 0
M  V30 39216 H 3812.83 2.6707 4.83092 0
M  V30 39217 H 3815.3 0.904058 4.0616 0
M  V30 39218 H 3814.18 0.755168 5.4368 0
M  V30 39219 H 3814.44 -0.621226 4.37714 0
M  V30 39220 N 3813.5 -1.40291 0.718063 0
M  V30 39221 C 3814.74 -2.00842 0.258639 0
M  V30 39222 C 3815.07 -1.5694 -1.14891 0
M  V30 39223 O 3814.33 -0.781638 -1.79413 0
M  V30 39224 C 3814.63 -3.56226 0.289436 0
M  V30 39225 C 3814.29 -4.19719 1.64763 0
M  V30 39226 C 3812.95 -4.36776 2.01941 0
M  V30 39227 C 3815.31 -4.5511 2.54016 0
M  V30 39228 C 3812.63 -4.86508 3.27913 0
M  V30 39229 C 3814.99 -5.06243 3.79343 0
M  V30 39230 C 3813.65 -5.21509 4.16635 0
M  V30 39231 H 3812.92 -0.734931 0.0946426 0
M  V30 39232 H 3815.57 -1.67866 0.921581 0
M  V30 39233 H 3813.87 -3.89125 -0.457078 0
M  V30 39234 H 3815.57 -4.00912 -0.0839128 0
M  V30 39235 H 3812.16 -4.06833 1.34853 0
M  V30 39236 H 3816.34 -4.41566 2.26568 0
M  V30 39237 H 3811.6 -4.96511 3.56772 0
M  V30 39238 H 3815.77 -5.32604 4.48672 0
M  V30 39239 H 3813.4 -5.59806 5.14316 0
M  V30 39240 N 3814.98 -0.464428 -1.50602 0
M  V30 39241 C 3816.39 -0.00770867 -1.86698 0
M  V30 39242 C 3816.74 1.39492 -1.37973 0
M  V30 39243 O 3815.86 2.03286 -0.741879 0
M  V30 39244 C 3816.46 -0.00721278 -3.38799 0
M  V30 39245 C 3815.02 0.394012 -3.74332 0
M  V30 39246 C 3814.16 -0.395543 -2.74464 0
M  V30 39247 H 3817.12 -0.679021 -1.4344 0
M  V30 39248 H 3817.14 0.796431 -3.72072 0
M  V30 39249 H 3816.65 -1.02818 -3.74233 0
M  V30 39250 H 3814.75 1.41958 -3.44498 0
M  V30 39251 H 3814.86 0.0999861 -4.78996 0
M  V30 39252 H 3813.23 0.149858 -2.54259 0
M  V30 39253 H 3814.01 -1.4159 -3.12741 0
M  V30 39254 N 3816.45 1.56367 -0.196777 0
M  V30 39255 C 3817.73 1.89382 0.489255 0
M  V30 39256 C 3818.11 1.11055 1.79527 0
M  V30 39257 O 3817.46 0.212157 2.27513 0
M  V30 39258 C 3817.67 3.41776 0.706399 0
M  V30 39259 C 3819.02 4.12042 1.02501 0
M  V30 39260 O 3820.04 3.47236 0.794062 0
M  V30 39261 O 3818.9 5.26582 1.46198 0
M  V30 39262 H 3815.99 0.786612 0.255286 0
M  V30 39263 H 3818.54 1.68035 -0.237116 0
M  V30 39264 H 3817.31 3.90704 -0.21583 0
M  V30 39265 H 3816.94 3.6882 1.48517 0
M  V30 39266 N 3817.93 -0.0768128 1.57413 0
M  V30 39267 C 3818.86 -1.09223 2.0638 0
M  V30 39268 C 3819.84 -1.40673 0.956294 0
M  V30 39269 O 3821.03 -1.50388 1.22871 0
M  V30 39270 C 3818.16 -2.40708 2.50354 0
M  V30 39271 C 3817.11 -2.23622 3.64935 0
M  V30 39272 C 3816.44 -3.60446 3.94946 0
M  V30 39273 C 3817.74 -1.6616 4.95165 0
M  V30 39274 H 3819.43 -0.684775 2.91464 0
M  V30 39275 H 3816.98 -0.327949 1.40216 0
M  V30 39276 H 3818.93 -3.12031 2.83222 0
M  V30 39277 H 3817.66 -2.83424 1.62292 0
M  V30 39278 H 3816.31 -1.54741 3.32341 0
M  V30 39279 H 3815.96 -4.00723 3.04023 0
M  V30 39280 H 3815.66 -3.49855 4.72097 0
M  V30 39281 H 3817.19 -4.33208 4.30306 0
M  V30 39282 H 3818.6 -2.27344 5.26296 0
M  V30 39283 H 3817 -1.66278 5.76603 0
M  V30 39284 H 3818.07 -0.622626 4.80886 0
M  V30 39285 N 3819.41 -1.53708 -0.348084 0
M  V30 39286 C 3820.66 -1.70398 -1.08668 0
M  V30 39287 C 3820.98 -0.467486 -1.89313 0
M  V30 39288 O 3820.25 0.518572 -1.88912 0
M  V30 39289 H 3818.83 -0.628213 -0.404175 0
M  V30 39290 H 3821.49 -1.90949 -0.390457 0
M  V30 39291 H 3820.59 -2.57287 -1.76663 0
M  V30 39292 N 3820.89 0.608851 -1.45364 0
M  V30 39293 C 3822.13 1.36992 -1.49536 0
M  V30 39294 C 3822.47 1.93722 -0.136121 0
M  V30 39295 O 3821.74 1.7498 0.849246 0
M  V30 39296 C 3822.03 2.51877 -2.57352 0
M  V30 39297 C 3821.88 2.00351 -4.02715 0
M  V30 39298 C 3823.2 3.54011 -2.61465 0
M  V30 39299 H 3820.32 0.496757 -0.544427 0
M  V30 39300 H 3822.96 0.686442 -1.77167 0
M  V30 39301 H 3821.11 3.10181 -2.33923 0
M  V30 39302 H 3822.78 1.46705 -4.3735 0
M  V30 39303 H 3821.02 1.31361 -4.13433 0
M  V30 39304 H 3821.69 2.83162 -4.73839 0
M  V30 39305 H 3824.17 3.05545 -2.82456 0
M  V30 39306 H 3823.05 4.31888 -3.38769 0
M  V30 39307 H 3823.31 4.09546 -1.66506 0
M  V30 39308 N 3822.37 1.32633 0.851242 0
M  V30 39309 C 3823.78 1.11698 1.13998 0
M  V30 39310 C 3823.98 -0.100292 2.0125 0
M  V30 39311 O 3823.04 -0.78419 2.40014 0
M  V30 39312 C 3824.35 2.3982 1.81402 0
M  V30 39313 C 3825.9 2.4561 1.94022 0
M  V30 39314 C 3826.37 3.73662 2.64841 0
M  V30 39315 N 3827.87 3.74663 2.72364 0
M  V30 39316 C 3828.6 4.70449 3.27819 0
M  V30 39317 N 3828.1 5.76603 3.84058 0
M  V30 39318 N 3829.89 4.57941 3.25954 0
M  V30 39319 H 3822.04 2.10674 0.270265 0
M  V30 39320 H 3824.3 0.930291 0.182379 0
M  V30 39321 H 3824.01 3.28833 1.24747 0
M  V30 39322 H 3823.88 2.51039 2.8153 0
M  V30 39323 H 3826.27 1.57055 2.49836 0
M  V30 39324 H 3826.35 2.38342 0.928802 0
M  V30 39325 H 3826 4.62593 2.0969 0
M  V30 39326 H 3825.93 3.78202 3.6643 0
M  V30 39327 H 3828.42 2.97937 2.32469 0
M  V30 39328 H 3828.73 6.45744 4.2454 0
M  V30 39329 H 3827.07 5.80353 3.82381 0
M  V30 39330 H 3830.27 3.74174 2.81267 0
M  V30 39331 H 3830.44 5.32764 3.68872 0
M  V30 39332 N 3823.84 -1.06794 1.159 0
M  V30 39333 C 3825.09 -1.79764 0.93876 0
M  V30 39334 C 3825.42 -1.86758 -0.532457 0
M  V30 39335 O 3824.7 -1.35546 -1.3949 0
M  V30 39336 C 3824.98 -3.24523 1.56068 0
M  V30 39337 C 3824.83 -3.2564 3.10288 0
M  V30 39338 C 3826.15 -4.21941 1.25115 0
M  V30 39339 H 3823.27 -0.652601 0.342463 0
M  V30 39340 H 3825.91 -1.2493 1.43152 0
M  V30 39341 H 3824.06 -3.71347 1.14165 0
M  V30 39342 H 3825.74 -2.87015 3.61137 0
M  V30 39343 H 3823.98 -2.64437 3.43883 0
M  V30 39344 H 3824.65 -4.27737 3.4892 0
M  V30 39345 H 3827.13 -3.83534 1.61371 0
M  V30 39346 H 3826 -5.21506 1.71239 0
M  V30 39347 H 3826.26 -4.41776 0.16912 0
M  V30 39348 N 3825.32 -0.956681 -1.25241 0
M  V30 39349 C 3826.56 -0.620268 -1.94761 0
M  V30 39350 C 3826.93 0.827658 -1.73245 0
M  V30 39351 O 3828.13 1.27376 -2.36704 0
M  V30 39352 C 3826.4 -0.971608 -3.4394 0
M  V30 39353 S 3827.96 -0.748078 -4.32376 0
M  V30 39354 H 3824.78 -0.227917 -0.67348 0
M  V30 39355 H 3827.38 -1.2313 -1.51853 0
M  V30 39356 H 3826.08 -2.0225 -3.57104 0
M  V30 39357 H 3825.61 -0.350916 -3.91832 0
M  V30 39358 H 3827.63 0.380116 -4.94742 0
M  V30 39359 N 3826.8 1.39908 -0.725493 0
M  V30 39360 C 3827.71 2.34461 -0.0806299 0
M  V30 39361 C 3828.73 1.57823 0.732661 0
M  V30 39362 O 3829.9 1.90163 0.663328 0
M  V30 39363 C 3826.97 3.36794 0.822849 0
M  V30 39364 C 3826.03 4.293 -0.00161358 0
M  V30 39365 C 3825.26 5.26744 0.858837 0
M  V30 39366 O 3825.48 5.30422 2.09784 0
M  V30 39367 O 3824.42 6.01189 0.292553 0
M  V30 39368 H 3828.24 2.91246 -0.860797 0
M  V30 39369 H 3825.83 1.41272 -0.486064 0
M  V30 39370 H 3827.71 3.99525 1.34007 0
M  V30 39371 H 3826.39 2.82409 1.58199 0
M  V30 39372 H 3825.29 3.69822 -0.564137 0
M  V30 39373 H 3826.63 4.86864 -0.722761 0
M  V30 39374 N 3828.28 0.472408 1.50353 0
M  V30 39375 C 3829.23 -0.321078 2.28556 0
M  V30 39376 C 3830.2 -0.986027 1.33666 0
M  V30 39377 O 3831.38 -0.998211 1.62605 0
M  V30 39378 C 3828.52 -1.39636 3.15588 0
M  V30 39379 C 3827.63 -0.746054 4.25509 0
M  V30 39380 C 3826.77 -1.79934 4.99797 0
M  V30 39381 C 3825.81 -1.12935 6.01591 0
M  V30 39382 N 3824.94 -2.12555 6.69152 0
M  V30 39383 H 3829.78 0.352103 2.95913 0
M  V30 39384 H 3827.32 0.185487 1.45926 0
M  V30 39385 H 3829.28 -2.03146 3.644 0
M  V30 39386 H 3827.91 -2.03869 2.50275 0
M  V30 39387 H 3826.96 0.00164405 3.804 0
M  V30 39388 H 3828.27 -0.217247 4.98327 0
M  V30 39389 H 3827.43 -2.51021 5.52334 0
M  V30 39390 H 3826.17 -2.36195 4.26689 0
M  V30 39391 H 3825.17 -0.404111 5.48313 0
M  V30 39392 H 3826.4 -0.573616 6.76673 0
M  V30 39393 H 3824.34 -2.67831 5.98834 0
M  V30 39394 H 3824.26 -1.64663 7.3785 0
M  V30 39395 H 3825.53 -2.83018 7.26306 0
M  V30 39396 N 3829.76 -1.5626 0.205067 0
M  V30 39397 C 3830.69 -2.15476 -0.751353 0
M  V30 39398 C 3831.67 -1.09433 -1.20263 0
M  V30 39399 O 3832.85 -1.376 -1.28835 0
M  V30 39400 C 3829.98 -2.72172 -2.01593 0
M  V30 39401 C 3829.03 -3.90895 -1.70598 0
M  V30 39402 S 3829.86 -5.28787 -0.845279 0
M  V30 39403 C 3831.01 -5.88911 -2.11979 0
M  V30 39404 H 3831.25 -2.96264 -0.247991 0
M  V30 39405 H 3828.78 -1.54397 -0.0100537 0
M  V30 39406 H 3830.74 -3.0548 -2.74212 0
M  V30 39407 H 3829.4 -1.91408 -2.49042 0
M  V30 39408 H 3828.59 -4.29009 -2.64513 0
M  V30 39409 H 3828.19 -3.58648 -1.06054 0
M  V30 39410 H 3830.49 -6.0388 -3.07139 0
M  V30 39411 H 3831.43 -6.8529 -1.7828 0
M  V30 39412 H 3831.84 -5.176 -2.2528 0
M  V30 39413 N 3831.24 0.0684638 -1.57451 0
M  V30 39414 C 3832.2 1.06542 -2.02932 0
M  V30 39415 C 3833.2 1.31398 -0.926884 0
M  V30 39416 O 3834.39 1.27063 -1.19167 0
M  V30 39417 C 3831.52 2.40825 -2.4128 0
M  V30 39418 H 3832.71 0.673349 -2.92243 0
M  V30 39419 H 3830.27 0.31428 -1.53108 0
M  V30 39420 H 3831 2.84858 -1.55005 0
M  V30 39421 H 3830.79 2.24125 -3.21731 0
M  V30 39422 H 3832.28 3.12479 -2.77032 0
M  V30 39423 N 3832.71 1.5389 0.339928 0
M  V30 39424 C 3833.64 1.8512 1.42313 0
M  V30 39425 C 3834.62 0.706619 1.54729 0
M  V30 39426 O 3835.81 0.958864 1.68877 0
M  V30 39427 C 3832.94 2.06401 2.79313 0
M  V30 39428 C 3831.89 3.22224 2.81701 0
M  V30 39429 C 3831.22 3.28845 4.21622 0
M  V30 39430 C 3832.52 4.60251 2.46913 0
M  V30 39431 H 3834.21 2.75836 1.16426 0
M  V30 39432 H 3831.76 1.32722 0.558638 0
M  V30 39433 H 3833.71 2.26832 3.55141 0
M  V30 39434 H 3832.44 1.12419 3.06642 0
M  V30 39435 H 3831.1 3.01655 2.08327 0
M  V30 39436 H 3830.74 2.32452 4.46066 0
M  V30 39437 H 3830.44 4.06679 4.24129 0
M  V30 39438 H 3831.97 3.51491 4.99286 0
M  V30 39439 H 3833.38 4.80672 3.12453 0
M  V30 39440 H 3831.78 5.40515 2.60698 0
M  V30 39441 H 3832.85 4.63614 1.42092 0
M  V30 39442 N 3834.19 -0.601133 1.45685 0
M  V30 39443 C 3835.42 -1.38443 1.53353 0
M  V30 39444 C 3835.83 -1.8846 0.167136 0
M  V30 39445 O 3835.17 -1.63233 -0.842656 0
M  V30 39446 C 3835.23 -2.61948 2.46218 0
M  V30 39447 C 3834.9 -2.33525 3.9283 0
M  V30 39448 C 3835.9 -1.9349 4.82553 0
M  V30 39449 C 3833.58 -2.46238 4.37804 0
M  V30 39450 C 3835.57 -1.66536 6.1526 0
M  V30 39451 C 3833.26 -2.18898 5.7055 0
M  V30 39452 C 3834.26 -1.7911 6.59097 0
M  V30 39453 O 3833.95 -1.52094 7.89381 0
M  V30 39454 H 3833.68 -0.429956 0.521645 0
M  V30 39455 H 3836.23 -0.739583 1.91623 0
M  V30 39456 H 3834.46 -3.29174 2.02931 0
M  V30 39457 H 3836.15 -3.23999 2.44498 0
M  V30 39458 H 3836.92 -1.83199 4.49069 0
M  V30 39459 H 3832.8 -2.76173 3.6912 0
M  V30 39460 H 3836.34 -1.35406 6.84333 0
M  V30 39461 H 3832.24 -2.28808 6.03587 0
M  V30 39462 H 3833.01 -1.66093 8.01471 0
M  V30 39463 N 3835.67 -1.33083 -0.844196 0
M  V30 39464 C 3836.95 -1.14843 -1.58337 0
M  V30 39465 C 3837.33 0.287236 -2.09137 0
M  V30 39466 O 3836.67 1.28547 -1.88912 0
M  V30 39467 C 3836.88 -2.185 -2.72137 0
M  V30 39468 C 3838.23 -2.52379 -3.41453 0
M  V30 39469 O 3839.26 -2.17127 -2.82373 0
M  V30 39470 O 3838.12 -3.12853 -4.48091 0
M  V30 39471 H 3835.21 -0.443843 -0.697805 0
M  V30 39472 H 3837.76 -1.44648 -0.887414 0
M  V30 39473 H 3836.53 -3.14958 -2.32201 0
M  V30 39474 H 3836.15 -1.8975 -3.494 0
M  V30 39475 N 3837.15 1.06178 -1.16464 0
M  V30 39476 C 3838.39 1.79264 -0.94828 0
M  V30 39477 C 3838.73 1.87038 0.522546 0
M  V30 39478 O 3838 1.36284 1.38769 0
M  V30 39479 C 3838.28 3.2369 -1.57787 0
M  V30 39480 C 3838.14 3.23989 -3.12011 0
M  V30 39481 C 3839.46 4.21272 -1.27351 0
M  V30 39482 H 3836.58 0.650776 -0.345919 0
M  V30 39483 H 3839.22 1.24169 -1.43812 0
M  V30 39484 H 3837.37 3.70736 -1.16133 0
M  V30 39485 H 3839.04 2.85096 -3.62654 0
M  V30 39486 H 3837.28 2.62609 -3.45281 0
M  V30 39487 H 3837.95 4.2588 -3.51184 0
M  V30 39488 H 3840.43 3.82673 -1.63403 0
M  V30 39489 H 3839.31 5.2059 -1.74002 0
M  V30 39490 H 3839.57 4.41681 -0.192546 0
M  V30 39491 N 3838.63 0.96331 1.24732 0
M  V30 39492 C 3839.87 0.623722 1.9297 0
M  V30 39493 C 3840.2 -0.838362 1.75172 0
M  V30 39494 O 3839.48 -1.60262 1.10211 0
M  V30 39495 C 3839.76 0.993851 3.46114 0
M  V30 39496 C 3839.62 2.51231 3.73099 0
M  V30 39497 C 3840.93 0.525205 4.36955 0
M  V30 39498 H 3838.05 0.22807 0.700823 0
M  V30 39499 H 3840.7 1.20152 1.47185 0
M  V30 39500 H 3838.85 0.502176 3.85241 0
M  V30 39501 H 3840.52 3.07841 3.43557 0
M  V30 39502 H 3838.76 2.94621 3.18403 0
M  V30 39503 H 3839.43 2.72178 4.80232 0
M  V30 39504 H 3841.91 0.947086 4.05178 0
M  V30 39505 H 3840.78 0.812791 5.42849 0
M  V30 39506 H 3841.04 -0.574766 4.38348 0
M  V30 39507 N 3840.1 -1.39522 0.732902 0
M  V30 39508 C 3841.33 -2.0538 0.288753 0
M  V30 39509 C 3841.75 -1.54892 -1.06724 0
M  V30 39510 O 3841.11 -0.691755 -1.67584 0
M  V30 39511 C 3841.16 -3.59368 0.297801 0
M  V30 39512 O 3840.26 -4.0615 -0.715264 0
M  V30 39513 H 3839.6 -0.650807 0.131708 0
M  V30 39514 H 3842.13 -1.78596 0.998238 0
M  V30 39515 H 3842.14 -4.07755 0.141462 0
M  V30 39516 H 3840.82 -3.95478 1.28726 0
M  V30 39517 H 3839.4 -3.69182 -0.525233 0
M  V30 39518 N 3841.58 -0.480375 -1.501 0
M  V30 39519 C 3842.81 0.0688116 -2.06786 0
M  V30 39520 C 3843.22 1.3268 -1.34318 0
M  V30 39521 O 3842.58 1.77714 -0.415227 0
M  V30 39522 C 3842.63 0.347459 -3.59826 0
M  V30 39523 O 3842.35 -0.860645 -4.29563 0
M  V30 39524 C 3843.85 0.942584 -4.33163 0
M  V30 39525 H 3841.07 -0.011229 -0.670906 0
M  V30 39526 H 3843.62 -0.671822 -1.9315 0
M  V30 39527 H 3841.77 1.03804 -3.73234 0
M  V30 39528 H 3842.19 -0.610888 -5.2093 0
M  V30 39529 H 3843.66 1.08726 -5.41186 0
M  V30 39530 H 3844.14 1.93511 -3.94272 0
M  V30 39531 H 3844.74 0.290104 -4.24309 0
M  V30 39532 N 3843.06 1.56149 -0.213351 0
M  V30 39533 C 3843.99 2.22918 0.694964 0
M  V30 39534 C 3844.97 1.1982 1.20736 0
M  V30 39535 O 3846.16 1.48381 1.25286 0
M  V30 39536 C 3843.29 2.90273 1.9068 0
M  V30 39537 C 3842.24 3.99773 1.52858 0
M  V30 39538 C 3841.57 4.54383 2.81851 0
M  V30 39539 C 3842.87 5.17247 0.724738 0
M  V30 39540 H 3844.56 2.9908 0.138298 0
M  V30 39541 H 3842.11 1.43853 0.0650777 0
M  V30 39542 H 3844.06 3.35672 2.5476 0
M  V30 39543 H 3842.78 2.11545 2.48829 0
M  V30 39544 H 3841.44 3.55093 0.911274 0
M  V30 39545 H 3841.09 3.72395 3.38128 0
M  V30 39546 H 3840.79 5.2828 2.57282 0
M  V30 39547 H 3842.31 5.02495 3.46888 0
M  V30 39548 H 3843.73 5.59078 1.26905 0
M  V30 39549 H 3842.12 5.97325 0.576455 0
M  V30 39550 H 3843.19 4.84146 -0.270394 0
M  V30 39551 N 3844.54 -0.0601128 1.57485 0
M  V30 39552 C 3845.95 -0.610552 1.76435 0
M  V30 39553 C 3846.3 -1.77291 0.840385 0
M  V30 39554 O 3845.43 -2.16383 0.0273618 0
M  V30 39555 C 3846.02 -1.11436 3.19949 0
M  V30 39556 C 3844.58 -1.61056 3.40203 0
M  V30 39557 C 3843.73 -0.535007 2.7209 0
M  V30 39558 H 3846.68 0.166089 1.57828 0
M  V30 39559 H 3846.7 -1.98283 3.24753 0
M  V30 39560 H 3846.21 -0.268165 3.87172 0
M  V30 39561 H 3844.31 -2.47962 2.78111 0
M  V30 39562 H 3844.42 -1.67946 4.48699 0
M  V30 39563 H 3842.79 -0.982814 2.34974 0
M  V30 39564 H 3843.57 0.301195 3.41976 0
M  V30 39565 N 3846.02 -1.54068 -0.331762 0
M  V30 39566 C 3846.95 -1.7921 -1.42885 0
M  V30 39567 C 3847.96 -0.67378 -1.48203 0
M  V30 39568 O 3849.15 -0.950738 -1.51074 0
M  V30 39569 C 3846.25 -1.88748 -2.81474 0
M  V30 39570 C 3845.42 -3.18817 -2.99457 0
M  V30 39571 C 3844.48 -3.19161 -4.18357 0
M  V30 39572 O 3843.51 -3.92835 -4.11909 0
M  V30 39573 N 3844.71 -2.42363 -5.27485 0
M  V30 39574 H 3847.48 -2.73885 -1.21684 0
M  V30 39575 H 3845.04 -1.53264 -0.521708 0
M  V30 39576 H 3847.03 -1.86415 -3.59209 0
M  V30 39577 H 3845.6 -1.01207 -2.95763 0
M  V30 39578 H 3844.82 -3.34177 -2.09091 0
M  V30 39579 H 3846.11 -4.0471 -3.08362 0
M  V30 39580 H 3845.5 -1.8208 -5.35596 0
M  V30 39581 H 3844.06 -2.45817 -6.0367 0
M  V30 39582 N 3847.49 0.593399 -1.46002 0
M  V30 39583 C 3848.46 1.6852 -1.5535 0
M  V30 39584 C 3849.46 1.54899 -0.431627 0
M  V30 39585 O 3850.65 1.5971 -0.695587 0
M  V30 39586 C 3847.78 3.07882 -1.46361 0
M  V30 39587 H 3848.97 1.61593 -2.52641 0
M  V30 39588 H 3846.53 0.81034 -1.33653 0
M  V30 39589 H 3847.26 3.20374 -0.50308 0
M  V30 39590 H 3847.05 3.19177 -2.27746 0
M  V30 39591 H 3848.54 3.87382 -1.55965 0
M  V30 39592 N 3848.97 1.33529 0.837127 0
M  V30 39593 C 3850.22 1.25269 1.59485 0
M  V30 39594 C 3850.55 -0.180707 1.93357 0
M  V30 39595 O 3849.83 -1.12248 1.58841 0
M  V30 39596 C 3850.11 2.12969 2.90373 0
M  V30 39597 C 3849.96 3.64776 2.63171 0
M  V30 39598 C 3851.28 2.00418 3.91817 0
M  V30 39599 H 3848.4 0.456402 0.578676 0
M  V30 39600 H 3851.04 1.63646 0.965399 0
M  V30 39601 H 3849.19 1.8037 3.44091 0
M  V30 39602 H 3850.86 4.07673 2.15871 0
M  V30 39603 H 3849.11 3.86569 1.96842 0
M  V30 39604 H 3849.78 4.21487 3.56445 0
M  V30 39605 H 3852.25 2.29011 3.47409 0
M  V30 39606 H 3851.13 2.6403 4.81227 0
M  V30 39607 H 3851.39 0.976928 4.31171 0
M  V30 39608 N 3850.45 -1.05559 1.17026 0
M  V30 39609 C 3851.38 -2.12685 0.827057 0
M  V30 39610 C 3852.36 -1.61308 -0.204544 0
M  V30 39611 O 3853.55 -1.88299 -0.0869247 0
M  V30 39612 C 3850.67 -3.37897 0.233077 0
M  V30 39613 C 3849.72 -4.08092 1.23947 0
M  V30 39614 S 3850.55 -4.57122 2.78926 0
M  V30 39615 C 3851.71 -5.85586 2.20998 0
M  V30 39616 H 3851.94 -2.41469 1.73435 0
M  V30 39617 H 3849.47 -1.18105 0.994518 0
M  V30 39618 H 3851.43 -4.1037 -0.103149 0
M  V30 39619 H 3850.09 -3.07256 -0.6521 0
M  V30 39620 H 3849.29 -4.98045 0.772447 0
M  V30 39621 H 3848.89 -3.41667 1.52116 0
M  V30 39622 H 3851.18 -6.58741 1.58324 0
M  V30 39623 H 3852.12 -6.3703 3.09191 0
M  V30 39624 H 3852.53 -5.39972 1.64592 0
M  V30 39625 N 3851.93 -0.969911 -1.2422 0
M  V30 39626 C 3853.18 -0.631759 -1.91972 0
M  V30 39627 C 3853.5 0.836001 -1.7617 0
M  V30 39628 O 3852.77 1.59698 -1.13461 0
M  V30 39629 H 3851.35 -0.23067 -0.710493 0
M  V30 39630 H 3854.01 -1.23146 -1.51067 0
M  V30 39631 H 3853.11 -0.874275 -2.99604 0
M  V30 39632 N 3853.41 1.39131 -0.740291 0
M  V30 39633 C 3854.82 1.83198 -0.359898 0
M  V30 39634 C 3855.17 1.61818 1.10948 0
M  V30 39635 O 3854.29 1.11218 1.85633 0
M  V30 39636 C 3854.89 3.32576 -0.646448 0
M  V30 39637 C 3853.45 3.75042 -0.319489 0
M  V30 39638 C 3852.59 2.62068 -0.906391 0
M  V30 39639 H 3855.55 1.28048 -0.937513 0
M  V30 39640 H 3855.57 3.80416 0.0799661 0
M  V30 39641 H 3855.08 3.48105 -1.71594 0
M  V30 39642 H 3853.18 3.65097 0.743958 0
M  V30 39643 H 3853.29 4.72276 -0.805747 0
M  V30 39644 H 3851.66 2.52518 -0.332659 0
M  V30 39645 H 3852.44 2.80402 -1.98065 0
M  V30 39646 N 3854.88 0.488329 1.49844 0
M  V30 39647 C 3856.11 -0.0600573 2.07313 0
M  V30 39648 C 3856.53 -1.31208 1.34782 0
M  V30 39649 O 3855.89 -1.76817 0.400665 0
M  V30 39650 C 3855.94 -0.309595 3.59269 0
M  V30 39651 O 3855.04 -1.38681 3.88383 0
M  V30 39652 H 3854.39 0.0206064 0.66368 0
M  V30 39653 H 3856.92 0.684318 1.92817 0
M  V30 39654 H 3856.93 -0.544929 4.04345 0
M  V30 39655 H 3855.6 0.605218 4.11473 0
M  V30 39656 H 3854.18 -1.13743 3.5513 0
M  V30 39657 N 3856.36 -1.56034 0.221629 0
M  V30 39658 C 3857.59 -2.02403 -0.414307 0
M  V30 39659 C 3858 -1.10069 -1.53888 0
M  V30 39660 O 3857.34 -0.102619 -1.83413 0
M  V30 39661 C 3857.41 -3.45109 -1.00698 0
M  V30 39662 C 3857.07 -4.56997 -0.0178456 0
M  V30 39663 C 3858.07 -5.13977 0.782558 0
M  V30 39664 C 3855.75 -5.02199 0.100931 0
M  V30 39665 C 3857.75 -6.1463 1.68844 0
M  V30 39666 C 3855.43 -6.0269 1.01035 0
M  V30 39667 C 3856.43 -6.58782 1.80265 0
M  V30 39668 O 3856.12 -7.57317 2.69677 0
M  V30 39669 H 3855.85 -0.667696 -0.105633 0
M  V30 39670 H 3858.4 -2.02641 0.335541 0
M  V30 39671 H 3856.63 -3.41941 -1.80592 0
M  V30 39672 H 3858.32 -3.75126 -1.55033 0
M  V30 39673 H 3859.09 -4.79904 0.701244 0
M  V30 39674 H 3854.97 -4.58219 -0.505642 0
M  V30 39675 H 3858.51 -6.58339 2.30729 0
M  V30 39676 H 3854.41 -6.36185 1.09268 0
M  V30 39677 H 3855.18 -7.7484 2.63754 0
M  V30 39678 N 3857.84 0.0517601 -1.57515 0
M  V30 39679 C 3859.09 0.745591 -1.87844 0
M  V30 39680 C 3859.41 1.7709 -0.816349 0
M  V30 39681 O 3858.68 1.95304 0.152749 0
M  V30 39682 H 3857.26 0.27836 -0.693199 0
M  V30 39683 H 3859.92 0.0230924 -1.94886 0
M  V30 39684 H 3859.02 1.24935 -2.86003 0
M  V30 39685 N 3859.32 1.54242 0.323587 0
M  V30 39686 C 3860.57 1.72446 1.06153 0
M  V30 39687 C 3860.89 0.498149 1.88013 0
M  V30 39688 O 3860.15 -0.520099 1.88662 0
M  V30 39689 C 3860.45 2.95218 2.01447 0
M  V30 39690 C 3860.11 4.29982 1.35743 0
M  V30 39691 C 3858.78 4.6662 1.17555 0
M  V30 39692 C 3861.13 5.13617 0.885848 0
M  V30 39693 C 3858.46 5.84492 0.508571 0
M  V30 39694 C 3860.81 6.32172 0.232696 0
M  V30 39695 C 3859.47 6.67489 0.0386634 0
M  V30 39696 H 3858.74 0.631025 0.388443 0
M  V30 39697 H 3861.39 1.88481 0.338681 0
M  V30 39698 H 3859.69 2.7387 2.80183 0
M  V30 39699 H 3861.39 3.06497 2.58574 0
M  V30 39700 H 3857.98 4.01157 1.50901 0
M  V30 39701 H 3862.17 4.85828 1.01415 0
M  V30 39702 H 3857.42 6.10414 0.347041 0
M  V30 39703 H 3861.6 6.96258 -0.140717 0
M  V30 39704 H 3859.22 7.58682 -0.480185 0
M  V30 39705 N 3860.8 -0.585648 1.46314 0
M  V30 39706 C 3861.73 -1.70938 1.52686 0
M  V30 39707 C 3862.74 -1.57409 0.415475 0
M  V30 39708 O 3863.93 -1.64888 0.683686 0
M  V30 39709 C 3861.03 -3.0916 1.38827 0
M  V30 39710 C 3860.2 -3.4872 2.64033 0
M  V30 39711 C 3859.26 -4.65991 2.44415 0
M  V30 39712 O 3858.29 -4.72 3.18127 0
M  V30 39713 N 3859.49 -5.60681 1.50391 0
M  V30 39714 H 3862.26 -1.65928 2.49576 0
M  V30 39715 H 3859.82 -0.771548 1.42333 0
M  V30 39716 H 3861.81 -3.85402 1.2348 0
M  V30 39717 H 3860.38 -3.08554 0.501301 0
M  V30 39718 H 3859.6 -2.62214 2.94342 0
M  V30 39719 H 3860.89 -3.71915 3.47212 0
M  V30 39720 H 3860.29 -5.58559 0.896015 0
M  V30 39721 H 3858.84 -6.36365 1.41008 0
M  V30 39722 N 3862.28 -1.33971 -0.830033 0
M  V30 39723 C 3863.51 -1.288 -1.61537 0
M  V30 39724 C 3863.91 0.141547 -1.8867 0
M  V30 39725 O 3863.26 1.09688 -1.47358 0
M  V30 39726 C 3863.32 -2.00345 -2.985 0
M  V30 39727 C 3862.98 -3.49627 -2.94295 0
M  V30 39728 C 3863.98 -4.44667 -2.69383 0
M  V30 39729 C 3861.66 -3.91936 -3.14152 0
M  V30 39730 C 3863.66 -5.7999 -2.64368 0
M  V30 39731 C 3861.35 -5.2736 -3.08762 0
M  V30 39732 C 3862.34 -6.21199 -2.83903 0
M  V30 39733 O 3862.03 -7.54142 -2.78432 0
M  V30 39734 H 3861.76 -0.444786 -0.509059 0
M  V30 39735 H 3864.32 -1.77046 -1.04134 0
M  V30 39736 H 3862.55 -1.46703 -3.57792 0
M  V30 39737 H 3864.24 -1.88557 -3.59445 0
M  V30 39738 H 3865 -4.13302 -2.53784 0
M  V30 39739 H 3860.88 -3.19298 -3.3252 0
M  V30 39740 H 3864.43 -6.53206 -2.44884 0
M  V30 39741 H 3860.32 -5.58347 -3.23913 0
M  V30 39742 H 3861.09 -7.63795 -2.94211 0
M  V30 39743 N 3863.75 1.04937 -1.17584 0
M  V30 39744 C 3864.98 1.82192 -0.991002 0
M  V30 39745 C 3865.4 1.82491 0.455933 0
M  V30 39746 O 3864.76 1.23577 1.32659 0
M  V30 39747 C 3864.81 3.26073 -1.53976 0
M  V30 39748 O 3863.91 4.05426 -0.755243 0
M  V30 39749 H 3863.25 0.563221 -0.351679 0
M  V30 39750 H 3865.78 1.32217 -1.5614 0
M  V30 39751 H 3865.79 3.76869 -1.56313 0
M  V30 39752 H 3864.47 3.2517 -2.59301 0
M  V30 39753 H 3863.05 3.64141 -0.803487 0
M  V30 39754 N 3865.23 0.976485 1.23703 0
M  V30 39755 C 3866.64 0.680754 1.73847 0
M  V30 39756 C 3866.99 -0.803197 1.79006 0
M  V30 39757 O 3866.12 -1.6283 1.42532 0
M  V30 39758 C 3866.71 1.22904 3.15722 0
M  V30 39759 C 3865.27 0.983027 3.63337 0
M  V30 39760 C 3864.42 1.35911 2.4171 0
M  V30 39761 H 3867.37 1.15079 1.09282 0
M  V30 39762 H 3867.39 0.599554 3.75747 0
M  V30 39763 H 3866.9 2.30908 3.11934 0
M  V30 39764 H 3865 -0.0811111 3.72512 0
M  V30 39765 H 3865.12 1.63485 4.50344 0
M  V30 39766 H 3863.48 0.777541 2.42542 0
M  V30 39767 H 3864.26 2.44884 2.40597 0
M  V30 39768 N 3866.71 -1.38737 0.747659 0
M  V30 39769 C 3867.96 -1.99852 0.300587 0
M  V30 39770 C 3868.28 -1.5964 -1.11983 0
M  V30 39771 O 3867.55 -0.850478 -1.76476 0
M  V30 39772 H 3866.13 -0.73913 0.108147 0
M  V30 39773 H 3868.79 -1.69593 0.960435 0
M  V30 39774 H 3867.89 -3.10028 0.35901 0
M  V30 39775 N 3868.19 -0.496268 -1.49583 0
M  V30 39776 C 3869.12 0.321326 -2.26936 0
M  V30 39777 C 3870.13 0.934839 -1.33284 0
M  V30 39778 O 3871.32 0.81898 -1.58603 0
M  V30 39779 C 3868.42 1.46695 -3.05506 0
M  V30 39780 C 3867.59 0.961612 -4.26699 0
M  V30 39781 C 3866.65 1.98428 -4.87353 0
M  V30 39782 O 3865.68 1.55473 -5.47555 0
M  V30 39783 N 3866.88 3.31434 -4.76583 0
M  V30 39784 H 3869.65 -0.341937 -2.97743 0
M  V30 39785 H 3867.21 -0.328532 -1.58532 0
M  V30 39786 H 3869.2 2.14854 -3.42958 0
M  V30 39787 H 3867.77 2.03445 -2.37337 0
M  V30 39788 H 3866.99 0.105073 -3.9406 0
M  V30 39789 H 3868.28 0.602316 -5.05222 0
M  V30 39790 H 3867.68 3.69025 -4.28763 0
M  V30 39791 H 3866.23 3.9532 -5.18233 0
M  V30 39792 N 3869.67 1.55914 -0.2299 0
M  V30 39793 C 3871.08 1.59107 0.125319 0
M  V30 39794 C 3871.28 1.24685 1.5829 0
M  V30 39795 O 3870.34 0.986059 2.3245 0
M  V30 39796 C 3871.65 2.99976 -0.208513 0
M  V30 39797 C 3873.2 3.12633 -0.151428 0
M  V30 39798 C 3873.67 4.55694 -0.459052 0
M  V30 39799 N 3875.16 4.61391 -0.408928 0
M  V30 39800 C 3875.9 5.70035 -0.620339 0
M  V30 39801 N 3875.4 6.87008 -0.893972 0
M  V30 39802 N 3877.19 5.59381 -0.552205 0
M  V30 39803 H 3869.34 1.76563 -1.18065 0
M  V30 39804 H 3871.6 0.821087 -0.473835 0
M  V30 39805 H 3871.31 3.29844 -1.22049 0
M  V30 39806 H 3871.18 3.74229 0.472525 0
M  V30 39807 H 3873.57 2.82557 0.851199 0
M  V30 39808 H 3873.65 2.40693 -0.866066 0
M  V30 39809 H 3873.29 4.86489 -1.45916 0
M  V30 39810 H 3873.22 5.25872 0.276873 0
M  V30 39811 H 3875.72 3.77341 -0.20547 0
M  V30 39812 H 3876.03 7.65727 -1.04316 0
M  V30 39813 H 3874.37 6.88733 -0.931259 0
M  V30 39814 H 3877.56 4.66874 -0.338601 0
M  V30 39815 H 3877.74 6.43983 -0.720369 0
M  V30 39816 N 3871.14 -0.043406 1.5754 0
M  V30 39817 C 3872.39 -0.738166 1.88889 0
M  V30 39818 C 3872.72 -1.75765 0.825858 0
M  V30 39819 O 3872 -1.93834 -0.160763 0
M  V30 39820 C 3872.28 -1.42067 3.30891 0
M  V30 39821 C 3872.13 -0.415675 4.47875 0
M  V30 39822 C 3873.45 -2.35839 3.71575 0
M  V30 39823 H 3870.57 -0.266885 0.68698 0
M  V30 39824 H 3873.21 -0.00103617 1.9 0
M  V30 39825 H 3871.36 -2.04898 3.30075 0
M  V30 39826 H 3873.04 0.20961 4.60824 0
M  V30 39827 H 3871.28 0.266422 4.32981 0
M  V30 39828 H 3871.95 -0.931413 5.44085 0
M  V30 39829 H 3874.43 -1.83064 3.73667 0
M  V30 39830 H 3873.3 -2.80581 4.71768 0
M  V30 39831 H 3873.56 -3.21893 3.03047 0
M  V30 39832 N 3872.62 -1.54412 -0.315402 0
M  V30 39833 C 3873.53 -1.874 -1.41133 0
M  V30 39834 C 3874.55 -0.766707 -1.56197 0
M  V30 39835 O 3875.72 -1.06179 -1.71137 0
M  V30 39836 C 3872.79 -2.10179 -2.75728 0
M  V30 39837 C 3871.85 -3.3395 -2.6977 0
M  V30 39838 C 3871.08 -3.55633 -3.97946 0
M  V30 39839 O 3871.31 -2.80598 -4.96609 0
M  V30 39840 O 3870.24 -4.49126 -4.00711 0
M  V30 39841 H 3874.07 -2.80607 -1.16162 0
M  V30 39842 H 3871.65 -1.4042 -0.510168 0
M  V30 39843 H 3873.53 -2.26445 -3.55388 0
M  V30 39844 H 3872.21 -1.20159 -3.00572 0
M  V30 39845 H 3871.11 -3.23062 -1.88632 0
M  V30 39846 H 3872.45 -4.24053 -2.4988 0
M  V30 39847 N 3874.1 0.57788 -1.46623 0
M  V30 39848 C 3875.35 1.33591 -1.52183 0
M  V30 39849 C 3875.68 1.93706 -0.175518 0
M  V30 39850 O 3874.93 1.77256 0.829376 0
M  V30 39851 C 3875.23 2.48139 -2.57219 0
M  V30 39852 C 3874.9 2.05986 -4.01099 0
M  V30 39853 C 3873.56 1.94206 -4.4027 0
M  V30 39854 C 3875.91 1.73535 -4.91462 0
M  V30 39855 C 3873.24 1.48238 -5.67664 0
M  V30 39856 C 3875.59 1.29045 -6.19298 0
M  V30 39857 C 3874.25 1.15844 -6.57371 0
M  V30 39858 H 3873.52 0.488845 -0.556877 0
M  V30 39859 H 3876.17 0.650228 -1.80123 0
M  V30 39860 H 3874.48 3.22175 -2.22958 0
M  V30 39861 H 3876.17 3.06349 -2.58749 0
M  V30 39862 H 3872.76 2.16092 -3.70138 0
M  V30 39863 H 3876.95 1.81519 -4.61914 0
M  V30 39864 H 3872.2 1.36665 -5.9593 0
M  V30 39865 H 3876.38 1.02989 -6.88742 0
M  V30 39866 H 3874 0.800015 -7.55979 0
M  V30 39867 N 3875.58 1.34409 0.822917 0
M  V30 39868 C 3876.51 1.28631 1.94875 0
M  V30 39869 C 3877.49 0.163756 1.6931 0
M  V30 39870 O 3878.67 0.356117 1.90907 0
M  V30 39871 C 3875.8 1.041 3.31331 0
M  V30 39872 C 3874.76 2.12821 3.71337 0
M  V30 39873 C 3874.08 1.73478 5.05776 0
M  V30 39874 C 3875.38 3.54649 3.83433 0
M  V30 39875 H 3877.08 2.2283 1.99968 0
M  V30 39876 H 3874.62 1.07269 0.960696 0
M  V30 39877 H 3876.58 0.987019 4.09678 0
M  V30 39878 H 3875.3 0.0634216 3.26538 0
M  V30 39879 H 3873.96 2.17288 2.95265 0
M  V30 39880 H 3873.61 0.743814 4.9747 0
M  V30 39881 H 3873.31 2.46245 5.33514 0
M  V30 39882 H 3874.83 1.69576 5.8658 0
M  V30 39883 H 3876.25 3.52595 4.52051 0
M  V30 39884 H 3874.64 4.26038 4.22625 0
M  V30 39885 H 3875.71 3.91991 2.85432 0
M  V30 39886 N 3877.06 -1.04312 1.18139 0
M  V30 39887 C 3878.3 -1.77732 0.976679 0
M  V30 39888 C 3878.64 -1.87845 -0.492723 0
M  V30 39889 O 3877.91 -1.38474 -1.36584 0
M  V30 39890 C 3878.19 -3.21139 1.62916 0
M  V30 39891 C 3878.05 -3.18985 3.17126 0
M  V30 39892 C 3879.37 -4.19192 1.34037 0
M  V30 39893 H 3876.48 -0.64519 0.356228 0
M  V30 39894 H 3879.13 -1.21866 1.45769 0
M  V30 39895 H 3877.28 -3.68842 1.22016 0
M  V30 39896 H 3878.95 -2.7929 3.67144 0
M  V30 39897 H 3877.19 -2.57083 3.49415 0
M  V30 39898 H 3877.86 -4.20239 3.57915 0
M  V30 39899 H 3880.34 -3.80025 1.6947 0
M  V30 39900 H 3879.21 -5.17756 1.82262 0
M  V30 39901 H 3879.48 -4.41318 0.26279 0
M  V30 39902 N 3878.53 -0.983032 -1.23184 0
M  V30 39903 C 3879.48 -0.517886 -2.26761 0
M  V30 39904 C 3880.48 0.426431 -1.63945 0
M  V30 39905 O 3881.68 0.300034 -1.77482 0
M  V30 39906 H 3878.06 -0.149055 -0.73708 0
M  V30 39907 H 3880.03 -1.40312 -2.63354 0
M  V30 39908 C 3878.78 0.161509 -3.47325 0
M  V30 39909 H 3878.1 -0.556043 -3.95914 0
M  V30 39910 H 3879.54 0.450569 -4.21599 0
M  V30 39911 C 3878 1.39361 -3.06725 0
M  V30 39912 O 3878.53 2.48967 -3.15243 0
M  V30 39913 N 3876.74 1.26523 -2.61611 0
M  V30 39914 H 3876.28 0.373404 -2.54879 0
M  V30 39915 H 3876.24 2.0907 -2.34813 0
M  V30 39916 N 3880.01 1.38338 -0.755006 0
M  V30 39917 C 3881.24 2.04369 -0.32266 0
M  V30 39918 C 3881.66 1.56943 1.04949 0
M  V30 39919 O 3881.01 0.743138 1.66684 0
M  V30 39920 C 3881.06 3.59918 -0.33783 0
M  V30 39921 O 3880.78 4.05603 -1.65583 0
M  V30 39922 C 3882.29 4.43168 0.108204 0
M  V30 39923 H 3879.51 0.656732 -0.137637 0
M  V30 39924 H 3882.05 1.77001 -1.02425 0
M  V30 39925 H 3880.2 3.86117 0.315038 0
M  V30 39926 H 3880.62 5.00042 -1.58299 0
M  V30 39927 H 3882.09 5.5198 0.0464285 0
M  V30 39928 H 3882.57 4.23706 1.15629 0
M  V30 39929 H 3883.18 4.2216 -0.515845 0
M  V30 39930 N 3881.49 0.504194 1.49317 0
M  V30 39931 C 3882.74 -0.0312303 2.03376 0
M  V30 39932 C 3883.09 -1.34399 1.37676 0
M  V30 39933 O 3882.38 -1.84839 0.504483 0
M  V30 39934 C 3882.58 -0.236978 3.56613 0
M  V30 39935 C 3882.41 1.05429 4.37167 0
M  V30 39936 C 3881.18 1.60698 4.79066 0
M  V30 39937 C 3883.38 1.95838 4.75554 0
M  V30 39938 N 3881.36 2.84382 5.44059 0
M  V30 39939 C 3882.73 3.041 5.40299 0
M  V30 39940 C 3884.78 1.96477 4.57494 0
M  V30 39941 C 3883.49 4.13033 5.88894 0
M  V30 39942 C 3885.51 3.04387 5.07053 0
M  V30 39943 C 3884.87 4.11368 5.718 0
M  V30 39944 H 3880.97 0.0294316 0.781446 0
M  V30 39945 H 3883.56 0.679761 1.82448 0
M  V30 39946 H 3881.73 -0.917029 3.77419 0
M  V30 39947 H 3883.46 -0.769695 3.97313 0
M  V30 39948 H 3880.22 1.15171 4.59383 0
M  V30 39949 H 3880.64 3.47283 5.8114 0
M  V30 39950 H 3885.28 1.15073 4.06839 0
M  V30 39951 H 3883 4.95233 6.38568 0
M  V30 39952 H 3886.59 3.05905 4.94887 0
M  V30 39953 H 3885.47 4.93493 6.09454 0
M  V30 39954 N 3882.97 -1.5579 0.238166 0
M  V30 39955 C 3883.92 -2.2101 -0.665059 0
M  V30 39956 C 3884.89 -1.17109 -1.17791 0
M  V30 39957 O 3886.07 -1.45526 -1.23397 0
M  V30 39958 C 3883.21 -2.90671 -1.86023 0
M  V30 39959 C 3882.32 -4.09206 -1.38473 0
M  V30 39960 C 3881.46 -4.66605 -2.53877 0
M  V30 39961 C 3880.5 -5.77407 -2.03145 0
M  V30 39962 N 3879.63 -6.29025 -3.11884 0
M  V30 39963 H 3884.47 -2.97825 -0.102189 0
M  V30 39964 H 3882.01 -1.47049 -0.0386805 0
M  V30 39965 H 3883.97 -3.29252 -2.5622 0
M  V30 39966 H 3882.6 -2.16345 -2.39572 0
M  V30 39967 H 3881.65 -3.75997 -0.577106 0
M  V30 39968 H 3882.96 -4.89221 -0.97286 0
M  V30 39969 H 3882.12 -5.07715 -3.3213 0
M  V30 39970 H 3880.86 -3.85787 -2.98361 0
M  V30 39971 H 3879.86 -5.35782 -1.2336 0
M  V30 39972 H 3881.09 -6.60069 -1.59641 0
M  V30 39973 H 3879.03 -5.51116 -3.55818 0
M  V30 39974 H 3878.95 -7.04209 -2.75001 0
M  V30 39975 H 3880.22 -6.74794 -3.90222 0
M  V30 39976 N 3884.45 0.0350506 -1.57561 0
M  V30 39977 C 3885.67 0.742719 -1.93645 0
M  V30 39978 C 3886.1 1.68417 -0.837685 0
M  V30 39979 O 3885.45 1.80114 0.207038 0
M  V30 39980 C 3885.5 1.48105 -3.28781 0
M  V30 39981 O 3884.61 2.59392 -3.20608 0
M  V30 39982 H 3883.95 0.200181 -0.633106 0
M  V30 39983 H 3886.48 -0.00768867 -2.04599 0
M  V30 39984 H 3886.49 1.85229 -3.6353 0
M  V30 39985 H 3885.16 0.790536 -4.08318 0
M  V30 39986 H 3883.74 2.24854 -2.97481 0
M  V30 39987 N 3885.92 1.54577 0.307209 0
M  V30 39988 C 3886.87 1.85098 1.37867 0
M  V30 39989 C 3887.84 0.699376 1.50658 0
M  V30 39990 O 3889.03 0.947402 1.65617 0
M  V30 39991 C 3886.17 2.0984 2.73973 0
M  V30 39992 C 3885.28 3.37485 2.69681 0
M  V30 39993 C 3884.41 3.52103 3.9774 0
M  V30 39994 C 3883.45 4.73562 3.87821 0
M  V30 39995 N 3882.59 4.85019 5.07643 0
M  V30 39996 H 3887.43 2.765 1.11139 0
M  V30 39997 H 3884.97 1.36921 0.537672 0
M  V30 39998 H 3886.93 2.2218 3.53117 0
M  V30 39999 H 3885.56 1.21712 2.98975 0
M  V30 40000 H 3884.61 3.33799 1.82435 0
M  V30 40001 H 3885.92 4.26748 2.5824 0
M  V30 40002 H 3885.07 3.64073 4.8532 0
M  V30 40003 H 3883.81 2.60962 4.12008 0
M  V30 40004 H 3882.82 4.61631 2.98625 0
M  V30 40005 H 3884.04 5.66104 3.75104 0
M  V30 40006 H 3881.99 3.96799 5.22386 0
M  V30 40007 H 3881.91 5.68273 4.986 0
M  V30 40008 H 3883.17 5.01339 5.96892 0
M  V30 40009 N 3887.4 -0.570096 1.46927 0
M  V30 40010 C 3888.35 -1.67821 1.58445 0
M  V30 40011 C 3889.32 -1.60489 0.428081 0
M  V30 40012 O 3890.5 -1.79514 0.646477 0
M  V30 40013 C 3887.64 -3.06155 1.59258 0
M  V30 40014 C 3886.76 -3.24019 2.85719 0
M  V30 40015 C 3885.89 -4.52676 2.77953 0
M  V30 40016 C 3884.93 -4.63927 3.99297 0
M  V30 40017 N 3884.07 -5.83924 3.89843 0
M  V30 40018 H 3888.91 -1.57315 2.53093 0
M  V30 40019 H 3886.45 -0.766526 1.2555 0
M  V30 40020 H 3888.4 -3.86241 1.57714 0
M  V30 40021 H 3887.03 -3.15528 0.681326 0
M  V30 40022 H 3886.09 -2.37452 2.97188 0
M  V30 40023 H 3887.4 -3.28199 3.75615 0
M  V30 40024 H 3886.55 -5.41006 2.74586 0
M  V30 40025 H 3885.29 -4.50954 1.85719 0
M  V30 40026 H 3884.3 -3.74012 4.02983 0
M  V30 40027 H 3885.52 -4.67418 4.92643 0
M  V30 40028 H 3883.47 -5.83176 3.00403 0
M  V30 40029 H 3883.38 -5.89426 4.73406 0
M  V30 40030 H 3884.65 -6.7465 3.90471 0
M  V30 40031 N 3888.88 -1.34844 -0.815777 0
M  V30 40032 C 3890.12 -1.28958 -1.58585 0
M  V30 40033 C 3890.49 0.136736 -1.91512 0
M  V30 40034 O 3891.69 0.319856 -2.6689 0
M  V30 40035 C 3889.96 -2.16215 -2.8458 0
M  V30 40036 S 3891.52 -2.27753 -3.75065 0
M  V30 40037 H 3888.33 -0.458432 -0.543471 0
M  V30 40038 H 3890.94 -1.70135 -0.96303 0
M  V30 40039 H 3889.64 -3.18839 -2.58399 0
M  V30 40040 H 3889.17 -1.7596 -3.51854 0
M  V30 40041 H 3891.19 -1.45557 -4.74371 0
M  V30 40042 N 3890.36 1.03684 -1.1869 0
M  V30 40043 C 3891.77 1.58402 -0.98821 0
M  V30 40044 C 3892.12 1.90705 0.461074 0
M  V30 40045 O 3891.25 1.69992 1.33909 0
M  V30 40046 C 3891.84 2.87807 -1.78753 0
M  V30 40047 C 3890.4 3.39128 -1.63307 0
M  V30 40048 C 3889.55 2.12665 -1.77958 0
M  V30 40049 H 3892.5 0.863088 -1.33178 0
M  V30 40050 H 3892.52 3.58364 -1.27888 0
M  V30 40051 H 3892.03 2.64265 -2.84228 0
M  V30 40052 H 3890.13 3.67674 -0.603842 0
M  V30 40053 H 3890.25 4.12696 -2.43349 0
M  V30 40054 H 3888.61 2.24155 -1.20941 0
M  V30 40055 H 3889.39 1.91574 -2.84876 0
M  V30 40056 N 3891.84 0.989551 1.22661 0
M  V30 40057 C 3892.77 0.482033 2.23051 0
M  V30 40058 C 3893.75 -0.455858 1.56079 0
M  V30 40059 O 3894.93 -0.382181 1.84585 0
M  V30 40060 C 3892.06 -0.301599 3.37355 0
M  V30 40061 C 3891.11 0.581785 4.22513 0
M  V30 40062 S 3891.94 2.0351 4.95322 0
M  V30 40063 C 3893.09 1.26086 6.13069 0
M  V30 40064 H 3893.33 1.33272 2.65755 0
M  V30 40065 H 3890.86 0.796256 1.32284 0
M  V30 40066 H 3892.82 -0.747692 4.03633 0
M  V30 40067 H 3891.48 -1.12752 2.93165 0
M  V30 40068 H 3890.67 -0.0209871 5.03996 0
M  V30 40069 H 3890.27 0.964502 3.61349 0
M  V30 40070 H 3892.57 0.526806 6.75449 0
M  V30 40071 H 3893.51 2.05084 6.77751 0
M  V30 40072 H 3893.92 0.775622 5.59146 0
M  V30 40073 N 3893.32 -1.37936 0.762332 0
M  V30 40074 C 3894.56 -1.99522 0.321767 0
M  V30 40075 C 3894.88 -1.60818 -1.10284 0
M  V30 40076 O 3894.15 -0.869148 -1.75564 0
M  V30 40077 H 3892.73 -0.737941 0.11598 0
M  V30 40078 H 3895.4 -1.68564 0.978368 0
M  V30 40079 H 3894.49 -3.0963 0.391873 0
M  V30 40080 N 3894.79 -0.512106 -1.49048 0
M  V30 40081 C 3896.04 0.0284533 -2.0248 0
M  V30 40082 C 3896.37 1.35963 -1.39084 0
M  V30 40083 O 3895.62 1.88675 -0.519626 0
M  V30 40084 C 3895.92 0.218062 -3.56734 0
M  V30 40085 C 3895.59 -1.0365 -4.38825 0
M  V30 40086 C 3894.25 -1.38038 -4.60976 0
M  V30 40087 C 3896.6 -1.8699 -4.86502 0
M  V30 40088 C 3893.93 -2.55695 -5.2805 0
M  V30 40089 C 3896.28 -3.03811 -5.54871 0
M  V30 40090 C 3894.95 -3.38565 -5.75265 0
M  V30 40091 H 3894.22 0.0104118 -0.740927 0
M  V30 40092 H 3896.86 -0.674513 -1.79228 0
M  V30 40093 H 3895.17 1.00365 -3.78727 0
M  V30 40094 H 3896.87 0.650943 -3.95681 0
M  V30 40095 H 3893.46 -0.758669 -4.21832 0
M  V30 40096 H 3897.64 -1.61737 -4.69207 0
M  V30 40097 H 3892.9 -2.82846 -5.42041 0
M  V30 40098 H 3897.07 -3.68707 -5.90786 0
M  V30 40099 H 3894.7 -4.29836 -6.27013 0
M  V30 40100 N 3896.27 1.55662 -0.246424 0
M  V30 40101 C 3897.5 2.03784 0.385572 0
M  V30 40102 C 3897.92 1.12453 1.50784 0
M  V30 40103 O 3897.28 0.117402 1.80919 0
M  V30 40104 C 3897.33 3.49919 0.871142 0
M  V30 40105 O 3896.43 3.61718 1.98075 0
M  V30 40106 H 3895.77 0.658653 0.0840983 0
M  V30 40107 H 3898.3 2.01183 -0.372341 0
M  V30 40108 H 3898.31 3.9073 1.17448 0
M  V30 40109 H 3896.99 4.1587 0.0498866 0
M  V30 40110 H 3895.56 3.32804 1.68214 0
M  V30 40111 N 3897.75 -0.0266943 1.57577 0
M  V30 40112 C 3898.98 -0.72768 1.93361 0
M  V30 40113 C 3899.39 -1.69292 0.844791 0
M  V30 40114 O 3898.73 -1.82743 -0.18731 0
M  V30 40115 C 3898.79 -1.53756 3.24961 0
M  V30 40116 C 3898.46 -0.73683 4.51021 0
M  V30 40117 C 3899.45 -0.0360746 5.19887 0
M  V30 40118 C 3897.14 -0.690672 4.97529 0
M  V30 40119 C 3899.13 0.700115 6.33543 0
M  V30 40120 C 3896.82 0.0492614 6.1108 0
M  V30 40121 C 3897.82 0.743412 6.78942 0
M  V30 40122 O 3897.51 1.47133 7.90321 0
M  V30 40123 H 3897.24 -0.209397 0.642751 0
M  V30 40124 H 3899.79 0.0124496 2.05396 0
M  V30 40125 H 3898.02 -2.32155 3.09258 0
M  V30 40126 H 3899.71 -2.12138 3.46053 0
M  V30 40127 H 3900.48 -0.0627515 4.84959 0
M  V30 40128 H 3896.36 -1.22047 4.44551 0
M  V30 40129 H 3899.9 1.24247 6.86446 0
M  V30 40130 H 3895.8 0.077853 6.45453 0
M  V30 40131 H 3896.56 1.38525 8.06693 0
M  V30 40132 N 3899.23 -1.54738 -0.299007 0
M  V30 40133 C 3900.5 -1.64794 -1.05368 0
M  V30 40134 C 3900.88 -0.497511 -2.05154 0
M  V30 40135 O 3900.23 0.505534 -2.22838 0
M  V30 40136 C 3900.44 -3.02889 -1.73376 0
M  V30 40137 C 3901.79 -3.59771 -2.25499 0
M  V30 40138 O 3902.81 -3.05354 -1.83405 0
M  V30 40139 O 3901.67 -4.55055 -3.02634 0
M  V30 40140 H 3898.77 -0.668296 -0.487144 0
M  V30 40141 H 3901.31 -1.67082 -0.296936 0
M  V30 40142 H 3900.09 -3.78059 -1.00929 0
M  V30 40143 H 3899.71 -3.04387 -2.55801 0
M  V30 40144 N 3900.71 0.562296 -1.47228 0
M  V30 40145 C 3901.93 1.34523 -1.57198 0
M  V30 40146 C 3902.35 1.8751 -0.220336 0
M  V30 40147 O 3901.71 1.64724 0.785635 0
M  V30 40148 C 3901.76 2.51867 -2.59317 0
M  V30 40149 O 3901.48 2.01071 -3.89233 0
M  V30 40150 C 3902.98 3.44148 -2.79423 0
M  V30 40151 H 3900.2 0.410248 -0.530978 0
M  V30 40152 H 3902.74 0.681646 -1.92805 0
M  V30 40153 H 3900.9 3.14174 -2.26657 0
M  V30 40154 H 3901.31 2.7764 -4.4499 0
M  V30 40155 H 3902.79 4.22914 -3.5475 0
M  V30 40156 H 3903.26 3.97373 -1.87061 0
M  V30 40157 H 3903.87 2.87661 -3.13259 0
M  V30 40158 N 3902.18 1.35274 0.808615 0
M  V30 40159 C 3903.6 1.15269 1.10387 0
M  V30 40160 C 3903.8 -0.0362147 2.01467 0
M  V30 40161 O 3902.86 -0.707435 2.42387 0
M  V30 40162 C 3904.17 2.4547 1.7368 0
M  V30 40163 C 3905.72 2.51658 1.8611 0
M  V30 40164 C 3906.19 3.81898 2.52819 0
M  V30 40165 N 3907.68 3.83138 2.60306 0
M  V30 40166 C 3908.42 4.8064 3.12686 0
M  V30 40167 N 3907.91 5.8853 3.65519 0
M  V30 40168 N 3909.71 4.68079 3.1122 0
M  V30 40169 H 3901.86 2.11427 0.203104 0
M  V30 40170 H 3904.12 0.935623 0.15269 0
M  V30 40171 H 3903.83 3.32635 1.14222 0
M  V30 40172 H 3903.7 2.59868 2.73401 0
M  V30 40173 H 3906.09 1.64924 2.44713 0
M  V30 40174 H 3906.17 2.41176 0.852505 0
M  V30 40175 H 3905.81 4.6903 1.94867 0
M  V30 40176 H 3905.74 3.89668 3.54212 0
M  V30 40177 H 3908.23 3.05182 2.22873 0
M  V30 40178 H 3908.55 6.58924 4.03781 0
M  V30 40179 H 3906.89 5.92225 3.63724 0
M  V30 40180 H 3910.08 3.82933 2.69221 0
M  V30 40181 H 3910.26 5.4423 3.51736 0
M  V30 40182 N 3903.66 -1.03053 1.19239 0
M  V30 40183 C 3904.9 -1.7798 1.00511 0
M  V30 40184 C 3905.27 -1.86501 -0.456235 0
M  V30 40185 O 3906.47 -2.57735 -0.763273 0
M  V30 40186 C 3904.74 -3.16833 1.65383 0
M  V30 40187 S 3906.3 -4.07971 1.6157 0
M  V30 40188 H 3903.12 -0.612706 0.360711 0
M  V30 40189 H 3905.72 -1.23493 1.51558 0
M  V30 40190 H 3904.42 -3.08248 2.70945 0
M  V30 40191 H 3903.95 -3.76396 1.14408 0
M  V30 40192 H 3905.97 -4.92072 0.638732 0
M  V30 40193 N 3905.14 -0.996042 -1.22134 0
M  V30 40194 C 3906.39 -0.673668 -1.90966 0
M  V30 40195 C 3906.72 0.794623 -1.77527 0
M  V30 40196 O 3905.97 1.59056 -1.14017 0
M  V30 40197 C 3906.27 -1.02932 -3.42257 0
M  V30 40198 C 3905.94 -2.49039 -3.75886 0
M  V30 40199 C 3904.6 -2.88966 -3.84776 0
M  V30 40200 C 3906.95 -3.43726 -3.91793 0
M  V30 40201 C 3904.28 -4.22561 -4.07012 0
M  V30 40202 C 3906.63 -4.76984 -4.15535 0
M  V30 40203 C 3905.29 -5.16647 -4.22649 0
M  V30 40204 H 3904.56 -0.246512 -0.698794 0
M  V30 40205 H 3907.21 -1.25281 -1.44834 0
M  V30 40206 H 3905.52 -0.368293 -3.90065 0
M  V30 40207 H 3907.21 -0.757872 -3.93773 0
M  V30 40208 H 3903.8 -2.17093 -3.69552 0
M  V30 40209 H 3907.99 -3.14049 -3.843 0
M  V30 40210 H 3903.24 -4.52875 -4.10748 0
M  V30 40211 H 3907.42 -5.50297 -4.26786 0
M  V30 40212 H 3905.04 -6.20183 -4.39632 0
M  V30 40213 N 3906.62 1.37529 -0.769636 0
M  V30 40214 C 3907.9 1.93893 -0.257822 0
M  V30 40215 C 3908.28 1.7035 1.24676 0
M  V30 40216 O 3907.62 1.05109 2.0289 0
M  V30 40217 C 3907.83 3.43287 -0.628918 0
M  V30 40218 C 3909.18 4.20375 -0.597526 0
M  V30 40219 O 3910.21 3.51639 -0.568179 0
M  V30 40220 O 3909.06 5.42941 -0.622723 0
M  V30 40221 H 3906.16 0.824905 -0.0588289 0
M  V30 40222 H 3908.7 1.46829 -0.850845 0
M  V30 40223 H 3907.48 3.53997 -1.66739 0
M  V30 40224 H 3907.1 3.97599 -0.00872918 0
M  V30 40225 N 3908.1 0.520003 1.48774 0
M  V30 40226 C 3909.32 -0.0160696 2.07394 0
M  V30 40227 C 3909.75 -1.28319 1.37535 0
M  V30 40228 O 3909.1 -1.75928 0.43808 0
M  V30 40229 C 3909.15 -0.233319 3.59844 0
M  V30 40230 O 3908.26 -1.30411 3.91237 0
M  V30 40231 H 3907.6 0.0346794 0.663094 0
M  V30 40232 H 3910.13 0.725063 1.91322 0
M  V30 40233 H 3910.14 -0.459039 4.05409 0
M  V30 40234 H 3908.81 0.692362 4.10097 0
M  V30 40235 H 3907.39 -1.06184 3.57462 0
M  V30 40236 N 3909.57 -1.55529 0.254676 0
M  V30 40237 C 3910.8 -2.03532 -0.37182 0
M  V30 40238 C 3911.22 -1.13371 -1.50972 0
M  V30 40239 O 3910.57 -0.149672 -1.81885 0
M  V30 40240 C 3910.63 -3.50819 -0.872253 0
M  V30 40241 O 3910.35 -4.37546 0.220307 0
M  V30 40242 C 3911.85 -4.14618 -1.56865 0
M  V30 40243 H 3909.07 -0.665278 -0.0874448 0
M  V30 40244 H 3911.61 -2.00923 0.380809 0
M  V30 40245 H 3909.77 -3.53937 -1.57504 0
M  V30 40246 H 3910.18 -5.24253 -0.160954 0
M  V30 40247 H 3911.65 -5.19344 -1.87044 0
M  V30 40248 H 3912.13 -3.61569 -2.49328 0
M  V30 40249 H 3912.74 -4.15445 -0.910241 0
M  V30 40250 N 3911.05 0.0183372 -1.57589 0
M  V30 40251 C 3912.3 0.708022 -1.90039 0
M  V30 40252 C 3912.63 1.74429 -0.853716 0
M  V30 40253 O 3911.91 1.94066 0.129906 0
M  V30 40254 C 3912.19 1.36784 -3.3311 0
M  V30 40255 C 3912.04 0.344369 -4.4848 0
M  V30 40256 C 3913.36 2.29898 -3.7528 0
M  V30 40257 H 3910.48 0.255922 -0.691139 0
M  V30 40258 H 3913.12 -0.0291913 -1.89978 0
M  V30 40259 H 3911.27 1.9962 -3.33293 0
M  V30 40260 H 3912.94 -0.282897 -4.60432 0
M  V30 40261 H 3911.19 -0.335272 -4.32502 0
M  V30 40262 H 3911.86 0.844736 -5.45498 0
M  V30 40263 H 3914.33 1.77096 -3.76532 0
M  V30 40264 H 3913.21 2.7304 -4.76173 0
M  V30 40265 H 3913.47 3.17031 -3.0813 0
M  V30 40266 N 3912.53 1.54894 0.290797 0
M  V30 40267 C 3913.76 1.78663 1.04341 0
M  V30 40268 C 3914.17 0.551115 1.80577 0
M  V30 40269 O 3913.53 -0.479363 1.76092 0
M  V30 40270 C 3913.58 3.00067 2.01599 0
M  V30 40271 O 3913.3 4.18845 1.28454 0
M  V30 40272 C 3914.8 3.36303 2.88816 0
M  V30 40273 H 3912.02 0.595613 0.309008 0
M  V30 40274 H 3914.57 2.01869 0.326975 0
M  V30 40275 H 3912.72 2.79039 2.6873 0
M  V30 40276 H 3913.14 4.87361 1.93856 0
M  V30 40277 H 3914.61 4.24467 3.5289 0
M  V30 40278 H 3915.09 2.54911 3.57655 0
M  V30 40279 H 3915.69 3.59527 2.27202 0
M  V30 40280 N 3914.01 -0.55448 1.47524 0
M  V30 40281 C 3914.92 -1.68867 1.62854 0
M  V30 40282 C 3915.93 -1.66317 0.511334 0
M  V30 40283 O 3917.11 -1.85715 0.779228 0
M  V30 40284 C 3914.18 -3.05369 1.64166 0
M  V30 40285 C 3913.24 -3.18965 2.87333 0
M  V30 40286 C 3912.47 -4.48955 2.88574 0
M  V30 40287 O 3912.69 -5.34581 1.98946 0
M  V30 40288 O 3911.63 -4.66399 3.80467 0
M  V30 40289 H 3915.45 -1.58875 2.58829 0
M  V30 40290 H 3913.04 -0.724799 1.30641 0
M  V30 40291 H 3914.92 -3.86597 1.67693 0
M  V30 40292 H 3913.59 -3.15737 0.713589 0
M  V30 40293 H 3912.5 -2.37124 2.89349 0
M  V30 40294 H 3913.83 -3.13502 3.79443 0
M  V30 40295 N 3915.49 -1.35701 -0.80143 0
M  V30 40296 C 3916.43 -1.29087 -1.93493 0
M  V30 40297 C 3917.43 -0.184836 -1.68389 0
M  V30 40298 O 3918.63 -0.351128 -1.76542 0
M  V30 40299 H 3915.01 -0.401571 -0.635802 0
M  V30 40300 H 3916.98 -2.24837 -1.96191 0
M  V30 40301 C 3915.73 -1.08493 -3.3034 0
M  V30 40302 H 3915.05 -1.92842 -3.50217 0
M  V30 40303 H 3916.49 -1.07908 -4.10039 0
M  V30 40304 C 3914.95 0.210998 -3.36239 0
M  V30 40305 O 3915.48 1.20501 -3.832 0
M  V30 40306 N 3913.69 0.251549 -2.89509 0
M  V30 40307 H 3913.23 -0.55796 -2.51485 0
M  V30 40308 H 3913.19 1.11834 -2.93837 0
M  V30 40309 N 3916.96 1.02419 -1.19783 0
M  V30 40310 C 3918.24 1.73007 -0.912572 0
M  V30 40311 C 3918.62 2.02959 0.580574 0
M  V30 40312 O 3917.97 1.688 1.5401 0
M  V30 40313 C 3918.18 3.00343 -1.7775 0
M  V30 40314 C 3919.53 3.73758 -2.01469 0
M  V30 40315 O 3920.55 3.10281 -1.7494 0
M  V30 40316 O 3919.41 4.87887 -2.46228 0
M  V30 40317 H 3916.5 0.753638 -0.340527 0
M  V30 40318 H 3919.05 1.08335 -1.3062 0
M  V30 40319 H 3917.82 2.74472 -2.78892 0
M  V30 40320 H 3917.45 3.72755 -1.38346 0
M  V30 40321 N 3918.44 1.0025 1.21604 0
M  V30 40322 C 3919.69 0.679185 1.89921 0
M  V30 40323 C 3920.01 -0.793215 1.78794 0
M  V30 40324 O 3921.21 -1.22852 2.42115 0
M  V30 40325 C 3919.67 1.16433 3.40546 0
M  V30 40326 C 3919.28 2.66263 3.60288 0
M  V30 40327 C 3921.02 0.915786 4.14504 0
M  V30 40328 C 3918.93 3.08332 5.04664 0
M  V30 40329 H 3917.86 0.250342 0.711228 0
M  V30 40330 H 3920.51 1.21334 1.3766 0
M  V30 40331 H 3918.89 0.558246 3.92045 0
M  V30 40332 H 3920.06 3.323 3.19239 0
M  V30 40333 H 3918.38 2.89105 2.99678 0
M  V30 40334 H 3920.98 1.20568 5.20929 0
M  V30 40335 H 3921.32 -0.147995 4.16037 0
M  V30 40336 H 3921.85 1.48454 3.69061 0
M  V30 40337 H 3918.59 4.13926 5.08277 0
M  V30 40338 H 3918.11 2.47005 5.46579 0
M  V30 40339 H 3919.79 3.00172 5.73154 0
M  V30 40340 N 3919.92 -1.37119 0.776919 0
M  V30 40341 C 3921.34 -1.52913 0.457142 0
M  V30 40342 C 3921.54 -1.73395 -1.02647 0
M  V30 40343 O 3920.59 -1.75828 -1.81221 0
M  V30 40344 C 3921.91 -2.72251 1.27671 0
M  V30 40345 C 3923.45 -2.86115 1.26914 0
M  V30 40346 C 3923.93 -4.08442 2.07217 0
M  V30 40347 N 3925.42 -4.15565 2.04598 0
M  V30 40348 C 3926.16 -5.09264 2.63511 0
M  V30 40349 N 3925.65 -6.08487 3.31233 0
M  V30 40350 N 3927.44 -5.01786 2.53313 0
M  V30 40351 H 3919.6 -1.22077 1.73813 0
M  V30 40352 H 3921.86 -0.59484 0.738153 0
M  V30 40353 H 3921.56 -2.63597 2.32829 0
M  V30 40354 H 3921.44 -3.66073 0.909428 0
M  V30 40355 H 3923.83 -2.94237 0.225528 0
M  V30 40356 H 3923.91 -1.93237 1.6761 0
M  V30 40357 H 3923.55 -4.01082 3.11602 0
M  V30 40358 H 3923.48 -5.00444 1.639 0
M  V30 40359 H 3925.97 -3.44515 1.55299 0
M  V30 40360 H 3926.28 -6.76522 3.73547 0
M  V30 40361 H 3924.63 -6.0875 3.35333 0
M  V30 40362 H 3927.82 -4.23215 2.00017 0
M  V30 40363 H 3927.99 -5.74623 2.9952 0
M  V30 40364 N 3921.4 -0.527886 -1.48496 0
M  V30 40365 C 3922.63 0.00298957 -2.069 0
M  V30 40366 C 3923.04 1.2834 -1.38471 0
M  V30 40367 O 3922.4 1.76303 -0.471555 0
M  V30 40368 C 3922.45 0.232807 -3.6075 0
M  V30 40369 O 3922.17 -0.996871 -4.26608 0
M  V30 40370 C 3923.67 0.804299 -4.35943 0
M  V30 40371 H 3920.89 -0.0325676 -0.670209 0
M  V30 40372 H 3923.44 -0.732931 -1.90915 0
M  V30 40373 H 3921.59 0.918771 -3.76347 0
M  V30 40374 H 3922.01 -0.776309 -5.18723 0
M  V30 40375 H 3923.48 0.91454 -5.44371 0
M  V30 40376 H 3923.96 1.80869 -4.00229 0
M  V30 40377 H 3924.56 0.154966 -4.25018 0
M  V30 40378 N 3922.88 1.55391 -0.26292 0
M  V30 40379 C 3923.79 2.25696 0.640184 0
M  V30 40380 C 3924.8 1.27859 1.18017 0
M  V30 40381 O 3925.98 1.6077 1.21305 0
M  V30 40382 C 3923.04 2.955 1.81331 0
M  V30 40383 C 3922.11 4.08786 1.31121 0
M  V30 40384 C 3921.34 4.75251 2.42841 0
M  V30 40385 O 3921.56 4.40865 3.61931 0
M  V30 40386 O 3920.5 5.63446 2.11689 0
M  V30 40387 H 3924.32 3.03617 0.0710247 0
M  V30 40388 H 3921.91 1.49368 -0.0307912 0
M  V30 40389 H 3923.79 3.3941 2.49758 0
M  V30 40390 H 3922.46 2.20506 2.36978 0
M  V30 40391 H 3921.37 3.69358 0.593751 0
M  V30 40392 H 3922.7 4.85645 0.800625 0
M  V30 40393 N 3924.36 -0.00997961 1.57597 0
M  V30 40394 C 3925.27 -1.02113 2.11211 0
M  V30 40395 C 3926.28 -1.38364 1.05505 0
M  V30 40396 O 3927.46 -1.47298 1.3735 0
M  V30 40397 C 3924.52 -2.29736 2.59658 0
M  V30 40398 C 3923.58 -1.9989 3.79925 0
M  V30 40399 C 3922.82 -3.21428 4.26052 0
M  V30 40400 O 3923.04 -4.32769 3.71574 0
M  V30 40401 O 3921.97 -3.06009 5.18307 0
M  V30 40402 H 3925.8 -0.595416 2.97806 0
M  V30 40403 H 3923.38 -0.228182 1.47647 0
M  V30 40404 H 3925.27 -3.0473 2.91063 0
M  V30 40405 H 3923.94 -2.71565 1.76165 0
M  V30 40406 H 3922.85 -1.22403 3.53509 0
M  V30 40407 H 3924.18 -1.62904 4.6446 0
M  V30 40408 N 3925.83 -1.55046 -0.282578 0
M  V30 40409 C 3927.06 -1.79543 -1.03822 0
M  V30 40410 C 3927.48 -0.562196 -1.79502 0
M  V30 40411 O 3926.84 0.487915 -1.74611 0
M  V30 40412 C 3926.89 -3.01376 -1.98002 0
M  V30 40413 O 3925.99 -2.75791 -3.06616 0
M  V30 40414 H 3925.33 -0.593713 -0.297323 0
M  V30 40415 H 3927.86 -2.0217 -0.314398 0
M  V30 40416 H 3927.87 -3.29849 -2.40132 0
M  V30 40417 H 3926.55 -3.90788 -1.42328 0
M  V30 40418 H 3925.13 -2.58387 -2.68869 0
M  V30 40419 N 3927.31 0.546649 -1.47816 0
M  V30 40420 C 3928.56 1.29973 -1.5424 0
M  V30 40421 C 3928.87 1.94427 -0.213903 0
M  V30 40422 O 3930.08 2.7105 -0.156234 0
M  V30 40423 C 3928.54 2.35745 -2.71942 0
M  V30 40424 C 3928.14 1.77434 -4.11365 0
M  V30 40425 C 3929.89 3.12167 -2.87667 0
M  V30 40426 C 3927.79 2.81048 -5.20352 0
M  V30 40427 H 3926.72 0.488744 -0.574148 0
M  V30 40428 H 3929.38 0.579354 -1.74114 0
M  V30 40429 H 3927.76 3.10743 -2.45468 0
M  V30 40430 H 3928.93 1.08736 -4.47787 0
M  V30 40431 H 3927.25 1.13561 -4.00616 0
M  V30 40432 H 3929.84 3.89562 -3.66259 0
M  V30 40433 H 3930.19 3.67006 -1.965 0
M  V30 40434 H 3930.72 2.44281 -3.13961 0
M  V30 40435 H 3927.46 2.3105 -6.1343 0
M  V30 40436 H 3926.98 3.48124 -4.88436 0
M  V30 40437 H 3928.66 3.44346 -5.47754 0
M  V30 40438 N 3928.79 1.36124 0.794222 0
M  V30 40439 C 3930.02 1.33037 1.58065 0
M  V30 40440 C 3930.43 -0.0914746 1.88979 0
M  V30 40441 O 3929.77 -1.05742 1.50214 0
M  V30 40442 C 3929.83 2.08189 2.93083 0
M  V30 40443 C 3929.5 3.57307 2.84922 0
M  V30 40444 C 3930.49 4.51653 2.57499 0
M  V30 40445 C 3928.18 4.00127 3.0365 0
M  V30 40446 C 3930.17 5.86795 2.48898 0
M  V30 40447 C 3927.86 5.35361 2.94672 0
M  V30 40448 C 3928.86 6.28508 2.67333 0
M  V30 40449 O 3928.55 7.61259 2.5834 0
M  V30 40450 H 3928.28 0.458127 0.497088 0
M  V30 40451 H 3930.83 1.79745 0.994034 0
M  V30 40452 H 3929.06 1.56138 3.53777 0
M  V30 40453 H 3930.75 1.98021 3.5432 0
M  V30 40454 H 3931.52 4.19885 2.42737 0
M  V30 40455 H 3927.4 3.28002 3.23937 0
M  V30 40456 H 3930.94 6.59469 2.2748 0
M  V30 40457 H 3926.84 5.66738 3.08995 0
M  V30 40458 H 3927.6 7.71327 2.73857 0
M  V30 40459 N 3930.27 -1.01782 1.20325 0
M  V30 40460 C 3931.2 -2.10415 0.908753 0
M  V30 40461 C 3932.21 -1.62474 -0.103001 0
M  V30 40462 O 3933.4 -1.78042 0.127856 0
M  V30 40463 C 3930.5 -3.37184 0.34066 0
M  V30 40464 C 3929.67 -4.14266 1.40366 0
M  V30 40465 C 3928.73 -5.19337 0.847107 0
M  V30 40466 O 3927.76 -5.48321 1.5275 0
M  V30 40467 N 3928.96 -5.79479 -0.344096 0
M  V30 40468 H 3931.73 -2.36266 1.84387 0
M  V30 40469 H 3929.29 -1.18163 1.10675 0
M  V30 40470 H 3931.28 -4.04674 -0.0457732 0
M  V30 40471 H 3929.85 -3.08592 -0.498987 0
M  V30 40472 H 3929.07 -3.41763 1.96448 0
M  V30 40473 H 3930.36 -4.62548 2.1196 0
M  V30 40474 H 3929.76 -5.58265 -0.914165 0
M  V30 40475 H 3928.31 -6.48325 -0.672182 0
M  V30 40476 N 3931.75 -1.00894 -1.21071 0
M  V30 40477 C 3932.99 -0.702315 -1.91955 0
M  V30 40478 C 3933.35 0.753434 -1.76599 0
M  V30 40479 O 3934.55 1.17222 -2.41893 0
M  V30 40480 C 3932.82 -1.11661 -3.39509 0
M  V30 40481 S 3934.38 -0.930791 -4.28814 0
M  V30 40482 H 3931.2 -0.256277 -0.663207 0
M  V30 40483 H 3933.8 -1.29459 -1.46494 0
M  V30 40484 H 3932.5 -2.17214 -3.48204 0
M  V30 40485 H 3932.04 -0.516789 -3.89991 0
M  V30 40486 H 3934.05 0.169937 -4.95909 0
M  V30 40487 N 3933.22 1.36705 -0.78418 0
M  V30 40488 C 3934.46 2.01214 -0.359503 0
M  V30 40489 C 3934.83 1.60895 1.0477 0
M  V30 40490 O 3936.03 2.17956 1.57317 0
M  V30 40491 C 3934.3 3.53711 -0.512179 0
M  V30 40492 S 3935.86 4.38452 -0.174605 0
M  V30 40493 H 3932.68 0.697552 -0.13763 0
M  V30 40494 H 3935.28 1.66689 -1.02152 0
M  V30 40495 H 3933.98 3.80542 -1.53674 0
M  V30 40496 H 3933.51 3.9305 0.165958 0
M  V30 40497 H 3935.53 4.85485 1.02563 0
M  V30 40498 N 3934.7 0.535753 1.48214 0
M  V30 40499 C 3935.98 -0.0609033 1.95505 0
M  V30 40500 C 3936.36 -1.50718 1.47809 0
M  V30 40501 O 3935.71 -2.17281 0.70718 0
M  V30 40502 C 3935.92 0.0623223 3.48944 0
M  V30 40503 C 3937.27 -0.0940058 4.24496 0
M  V30 40504 O 3938.29 -0.0111906 3.56198 0
M  V30 40505 O 3937.15 -0.268451 5.4584 0
M  V30 40506 H 3934.24 -0.0760934 0.823492 0
M  V30 40507 H 3936.79 0.60076 1.5871 0
M  V30 40508 H 3935.56 1.06956 3.76399 0
M  V30 40509 H 3935.18 -0.63793 3.92449 0
M  V30 40510 N 3936.18 -1.5525 0.271158 0
M  V30 40511 C 3937.11 -2.25344 -0.61175 0
M  V30 40512 C 3938.09 -1.24218 -1.16206 0
M  V30 40513 O 3939.28 -1.52929 -1.19693 0
M  V30 40514 C 3936.41 -2.9715 -1.79775 0
M  V30 40515 C 3935.36 -4.05171 -1.37915 0
M  V30 40516 C 3934.69 -4.64531 -2.64793 0
M  V30 40517 C 3935.99 -5.19581 -0.532266 0
M  V30 40518 H 3937.68 -2.99388 -0.0272011 0
M  V30 40519 H 3935.23 -1.43995 -0.0116428 0
M  V30 40520 H 3937.18 -3.44896 -2.42126 0
M  V30 40521 H 3935.9 -2.20635 -2.40807 0
M  V30 40522 H 3934.56 -3.58231 -0.778855 0
M  V30 40523 H 3934.21 -3.84688 -3.24074 0
M  V30 40524 H 3933.91 -5.37465 -2.37498 0
M  V30 40525 H 3935.43 -5.15023 -3.28 0
M  V30 40526 H 3936.85 -5.63403 -1.06068 0
M  V30 40527 H 3935.25 -5.99053 -0.354365 0
M  V30 40528 H 3936.32 -4.82808 0.449895 0
M  V30 40529 N 3937.66 0.00162173 -1.576 0
M  V30 40530 C 3938.62 0.978387 -2.07269 0
M  V30 40531 C 3939.62 1.27349 -0.98178 0
M  V30 40532 O 3940.81 1.21894 -1.24449 0
M  V30 40533 C 3937.94 2.30375 -2.51277 0
M  V30 40534 H 3939.14 0.548793 -2.94836 0
M  V30 40535 H 3936.69 0.249059 -1.54303 0
M  V30 40536 H 3937.42 2.78027 -1.66948 0
M  V30 40537 H 3937.21 2.10277 -3.30947 0
M  V30 40538 H 3938.7 3.00448 -2.90036 0
M  V30 40539 N 3939.14 1.55194 0.274352 0
M  V30 40540 C 3940.55 1.66458 0.845493 0
M  V30 40541 C 3940.9 0.590716 1.87096 0
M  V30 40542 O 3940.02 -0.268028 2.14734 0
M  V30 40543 C 3940.62 3.0176 1.54033 0
M  V30 40544 C 3939.18 3.15056 2.05953 0
M  V30 40545 C 3938.32 2.6225 0.901123 0
M  V30 40546 H 3941.28 1.58619 0.050732 0
M  V30 40547 H 3941.3 2.94673 2.40724 0
M  V30 40548 H 3940.81 3.79897 0.79374 0
M  V30 40549 H 3938.91 2.41691 2.83577 0
M  V30 40550 H 3939.02 4.21599 2.27576 0
M  V30 40551 H 3937.39 2.19373 1.29412 0
M  V30 40552 H 3938.17 3.42888 0.168056 0
M  V30 40553 N 3940.61 -0.538802 1.48104 0
M  V30 40554 C 3941.52 -1.6713 1.64635 0
M  V30 40555 C 3942.54 -1.65765 0.528946 0
M  V30 40556 O 3943.72 -1.84878 0.798882 0
M  V30 40557 C 3940.78 -3.03611 1.67396 0
M  V30 40558 C 3939.84 -3.15899 2.907 0
M  V30 40559 C 3939.08 -4.45869 2.93319 0
M  V30 40560 O 3939.3 -5.3244 2.04605 0
M  V30 40561 O 3938.23 -4.62338 3.85393 0
M  V30 40562 H 3942.06 -1.56121 2.60499 0
M  V30 40563 H 3939.64 -0.710902 1.31402 0
M  V30 40564 H 3941.53 -3.84796 1.71784 0
M  V30 40565 H 3940.2 -3.14962 0.747037 0
M  V30 40566 H 3939.11 -2.34042 2.91848 0
M  V30 40567 H 3940.44 -3.0946 3.82747 0
M  V30 40568 N 3942.09 -1.36544 -0.786992 0
M  V30 40569 C 3943.06 -1.30913 -1.88134 0
M  V30 40570 C 3944.06 -0.21632 -1.59338 0
M  V30 40571 O 3945.25 -0.471251 -1.67705 0
M  V30 40572 C 3942.38 -1.02999 -3.24968 0
M  V30 40573 H 3943.57 -2.2824 -1.94542 0
M  V30 40574 H 3941.12 -1.21352 -0.985062 0
M  V30 40575 H 3941.86 -0.0614067 -3.24242 0
M  V30 40576 H 3941.64 -1.82084 -3.47258 0
M  V30 40577 H 3943.13 -1.01671 -4.05034 0
M  V30 40578 N 3943.57 1.01143 -1.20863 0
M  V30 40579 C 3944.99 1.27152 -0.964597 0
M  V30 40580 C 3945.19 1.98387 0.352827 0
M  V30 40581 O 3944.24 2.28233 1.08008 0
M  V30 40582 C 3945.56 2.10147 -2.15078 0
M  V30 40583 C 3947.1 2.23396 -2.19233 0
M  V30 40584 C 3947.58 3.09771 -3.37351 0
M  V30 40585 N 3949.07 3.17359 -3.37398 0
M  V30 40586 C 3949.8 3.84431 -4.25441 0
M  V30 40587 N 3949.3 4.53586 -5.23672 0
M  V30 40588 N 3951.09 3.81007 -4.13268 0
M  V30 40589 H 3943.24 0.53331 -2.05596 0
M  V30 40590 H 3945.51 0.298032 -0.899934 0
M  V30 40591 H 3945.21 1.65148 -3.10514 0
M  V30 40592 H 3945.09 3.10892 -2.13603 0
M  V30 40593 H 3947.47 2.67618 -1.24356 0
M  V30 40594 H 3947.56 1.22144 -2.24754 0
M  V30 40595 H 3947.2 2.66253 -4.32518 0
M  V30 40596 H 3947.13 4.11123 -3.29068 0
M  V30 40597 H 3949.62 2.68124 -2.66304 0
M  V30 40598 H 3949.93 5.02449 -5.87167 0
M  V30 40599 H 3948.28 4.52394 -5.27603 0
M  V30 40600 H 3951.47 3.26131 -3.35792 0
M  V30 40601 H 3951.64 4.33002 -4.82093 0
M  V30 40602 N 3945.05 1.01535 1.20534 0
M  V30 40603 C 3945.98 0.542697 2.22682 0
M  V30 40604 C 3946.99 -0.374239 1.5844 0
M  V30 40605 O 3948.18 -0.172787 1.77662 0
M  V30 40606 C 3945.28 -0.230109 3.38118 0
M  V30 40607 C 3944.46 0.688432 4.31948 0
M  V30 40608 C 3943.51 -0.0365761 5.26187 0
M  V30 40609 O 3942.54 0.585517 5.6618 0
M  V30 40610 N 3943.74 -1.31183 5.65483 0
M  V30 40611 H 3946.51 1.42116 2.63862 0
M  V30 40612 H 3944.07 0.892727 1.35063 0
M  V30 40613 H 3946.06 -0.724338 3.98165 0
M  V30 40614 H 3944.63 -1.00986 2.95839 0
M  V30 40615 H 3943.85 1.36299 3.69887 0
M  V30 40616 H 3945.14 1.31318 4.91562 0
M  V30 40617 H 3944.54 -1.8382 5.35002 0
M  V30 40618 H 3943.09 -1.75081 6.27845 0
M  V30 40619 N 3946.53 -1.36288 0.791419 0
M  V30 40620 C 3947.49 -2.28351 0.19711 0
M  V30 40621 C 3948.49 -1.48914 -0.606722 0
M  V30 40622 O 3949.68 -1.68875 -0.427423 0
M  V30 40623 C 3946.81 -3.33059 -0.726951 0
M  V30 40624 H 3948 -2.8242 1.0089 0
M  V30 40625 H 3945.56 -1.45886 0.560984 0
M  V30 40626 H 3946.29 -2.84149 -1.56301 0
M  V30 40627 H 3946.08 -3.91803 -0.152468 0
M  V30 40628 H 3947.57 -4.01807 -1.13758 0
M  V30 40629 N 3948.01 -0.543606 -1.47928 0
M  V30 40630 C 3949.25 -0.0124279 -2.01696 0
M  V30 40631 C 3949.57 1.34019 -1.42472 0
M  V30 40632 O 3950.77 1.96051 -1.8782 0
M  V30 40633 C 3949.23 0.0282101 -3.59889 0
M  V30 40634 C 3948.84 -1.32034 -4.28102 0
M  V30 40635 C 3950.58 0.507497 -4.21455 0
M  V30 40636 C 3948.49 -1.23955 -5.78264 0
M  V30 40637 H 3947.42 -0.000875846 -0.753999 0
M  V30 40638 H 3950.07 -0.689426 -1.70056 0
M  V30 40639 H 3948.45 0.770572 -3.8843 0
M  V30 40640 H 3949.63 -2.07934 -4.11218 0
M  V30 40641 H 3947.94 -1.73646 -3.78465 0
M  V30 40642 H 3950.54 0.586126 -5.31478 0
M  V30 40643 H 3950.88 1.51642 -3.87699 0
M  V30 40644 H 3951.41 -0.179592 -3.97394 0
M  V30 40645 H 3948.15 -2.22404 -6.16617 0
M  V30 40646 H 3947.67 -0.522134 -5.97523 0
M  V30 40647 H 3949.35 -0.935901 -6.40195 0
M  V30 40648 N 3949.48 1.55104 -0.279387 0
M  V30 40649 C 3950.9 1.59425 0.074637 0
M  V30 40650 C 3951.1 1.29658 1.54244 0
M  V30 40651 O 3950.16 1.05951 2.29196 0
M  V30 40652 C 3951.47 2.99161 -0.303843 0
M  V30 40653 C 3953.02 3.11993 -0.250813 0
M  V30 40654 C 3953.49 4.54003 -0.603795 0
M  V30 40655 N 3954.98 4.59857 -0.555509 0
M  V30 40656 C 3955.72 5.67772 -0.801378 0
M  V30 40657 N 3955.21 6.83816 -1.11209 0
M  V30 40658 N 3957.01 5.57341 -0.729888 0
M  V30 40659 H 3949.16 1.72717 -1.23622 0
M  V30 40660 H 3951.42 0.805597 -0.499718 0
M  V30 40661 H 3951.13 3.25794 -1.32481 0
M  V30 40662 H 3951 3.75542 0.353228 0
M  V30 40663 H 3953.39 2.85122 0.760875 0
M  V30 40664 H 3953.47 2.37815 -0.942202 0
M  V30 40665 H 3953.11 4.816 -1.61319 0
M  V30 40666 H 3953.04 5.26486 0.109431 0
M  V30 40667 H 3955.53 3.76496 -0.325414 0
M  V30 40668 H 3955.85 7.62021 -1.28625 0
M  V30 40669 H 3954.19 6.85421 -1.1499 0
M  V30 40670 H 3957.38 4.6556 -0.486961 0
M  V30 40671 H 3957.56 6.41366 -0.924883 0
M  V30 40672 N 3950.96 0.0067362 1.57599 0
M  V30 40673 C 3952.19 -0.691116 1.95546 0
M  V30 40674 C 3952.61 -1.66137 0.882043 0
M  V30 40675 O 3951.97 -1.806 -0.159211 0
M  V30 40676 C 3952.02 -1.39336 3.32593 0
M  V30 40677 O 3951.12 -2.508 3.27373 0
M  V30 40678 H 3950.46 -0.183325 0.638191 0
M  V30 40679 H 3952.99 0.0619317 2.04506 0
M  V30 40680 H 3953 -1.75526 3.68313 0
M  V30 40681 H 3951.68 -0.682 4.1027 0
M  V30 40682 H 3950.25 -2.16888 3.03338 0
M  V30 40683 N 3952.44 -1.55337 -0.266118 0
M  V30 40684 C 3953.37 -1.91699 -1.33318 0
M  V30 40685 C 3954.35 -0.779637 -1.51181 0
M  V30 40686 O 3955.54 -1.03835 -1.6411 0
M  V30 40687 C 3952.67 -2.19492 -2.69147 0
M  V30 40688 C 3951.62 -3.35298 -2.66007 0
M  V30 40689 C 3950.95 -3.48587 -4.05452 0
M  V30 40690 C 3952.25 -4.71508 -2.24672 0
M  V30 40691 H 3953.94 -2.81076 -1.03133 0
M  V30 40692 H 3951.49 -1.35237 -0.494678 0
M  V30 40693 H 3953.44 -2.43518 -3.43914 0
M  V30 40694 H 3952.16 -1.26921 -3.00929 0
M  V30 40695 H 3950.82 -3.11251 -1.93697 0
M  V30 40696 H 3950.47 -2.5347 -4.34467 0
M  V30 40697 H 3950.17 -4.26452 -4.04243 0
M  V30 40698 H 3951.69 -3.74912 -4.81947 0
M  V30 40699 H 3953.11 -4.95032 -2.89164 0
M  V30 40700 H 3951.5 -5.52338 -2.34612 0
M  V30 40701 H 3952.57 -4.69865 -1.19811 0
M  V30 40702 N 3953.92 0.53094 -1.48387 0
M  V30 40703 C 3955.15 1.31158 -1.60016 0
M  V30 40704 C 3955.56 1.87 -0.26006 0
M  V30 40705 O 3954.92 1.66353 0.750518 0
M  V30 40706 C 3954.97 2.4631 -2.64601 0
M  V30 40707 O 3954.69 1.9277 -3.9341 0
M  V30 40708 C 3956.19 3.38144 -2.8666 0
M  V30 40709 H 3953.41 0.398893 -0.53956 0
M  V30 40710 H 3955.95 0.640596 -1.94208 0
M  V30 40711 H 3954.11 3.09295 -2.3327 0
M  V30 40712 H 3954.52 2.68139 -4.50779 0
M  V30 40713 H 3956 4.15294 -3.63641 0
M  V30 40714 H 3956.47 3.93315 -1.95448 0
M  V30 40715 H 3957.08 2.80952 -3.1929 0
M  V30 40716 N 3955.4 1.36959 0.779739 0
M  V30 40717 C 3956.31 1.34248 1.92392 0
M  V30 40718 C 3957.32 0.243218 1.72292 0
M  V30 40719 O 3958.5 0.477245 1.95664 0
M  V30 40720 C 3955.56 1.14063 3.274 0
M  V30 40721 C 3954.62 2.33555 3.60209 0
M  V30 40722 C 3953.86 2.14322 4.88776 0
M  V30 40723 O 3954.08 1.12337 5.59229 0
M  V30 40724 O 3953.01 3.02325 5.20464 0
M  V30 40725 H 3956.84 2.306 1.97629 0
M  V30 40726 H 3954.42 1.17606 0.921365 0
M  V30 40727 H 3956.31 1.04762 4.0817 0
M  V30 40728 H 3954.98 0.2078 3.23032 0
M  V30 40729 H 3953.89 2.48426 2.79706 0
M  V30 40730 H 3955.22 3.25377 3.69311 0
M  V30 40731 N 3956.87 -1.00501 1.21398 0
M  V30 40732 C 3958.29 -1.26639 0.971327 0
M  V30 40733 C 3958.49 -1.98571 -0.342301 0
M  V30 40734 O 3957.55 -2.28803 -1.06796 0
M  V30 40735 C 3958.86 -2.09004 2.16189 0
M  V30 40736 C 3960.41 -2.2223 2.20415 0
M  V30 40737 C 3960.88 -3.07978 3.38989 0
M  V30 40738 N 3962.37 -3.15566 3.39076 0
M  V30 40739 C 3963.11 -3.8217 4.27474 0
M  V30 40740 N 3962.6 -4.50802 5.2607 0
M  V30 40741 N 3964.4 -3.7881 4.15282 0
M  V30 40742 H 3956.55 -0.522399 2.05876 0
M  V30 40743 H 3958.81 -0.293256 0.901502 0
M  V30 40744 H 3958.52 -1.63499 3.11386 0
M  V30 40745 H 3958.39 -3.09754 2.15249 0
M  V30 40746 H 3960.78 -2.66955 1.25774 0
M  V30 40747 H 3960.86 -1.2095 2.25399 0
M  V30 40748 H 3960.5 -2.63956 4.33924 0
M  V30 40749 H 3960.43 -4.09372 3.31244 0
M  V30 40750 H 3962.92 -2.66708 2.67722 0
M  V30 40751 H 3963.24 -4.99328 5.89823 0
M  V30 40752 H 3961.58 -4.49589 5.29995 0
M  V30 40753 H 3964.77 -3.24346 3.37517 0
M  V30 40754 H 3964.95 -4.30439 4.84382 0
M  V30 40755 N 3958.35 -1.02172 -1.19994 0
M  V30 40756 C 3959.28 -0.616857 -2.25205 0
M  V30 40757 C 3960.26 0.370624 -1.66013 0
M  V30 40758 O 3961.45 0.254922 -1.9252 0
M  V30 40759 C 3958.58 0.0404518 -3.47276 0
M  V30 40760 C 3957.53 -0.868553 -4.19094 0
M  V30 40761 C 3956.86 -0.0767387 -5.34645 0
M  V30 40762 C 3958.16 -2.17899 -4.74676 0
M  V30 40763 H 3959.85 -1.49636 -2.59325 0
M  V30 40764 H 3957.4 -0.720939 -1.24653 0
M  V30 40765 H 3959.35 0.335281 -4.20064 0
M  V30 40766 H 3958.07 0.954704 -3.12335 0
M  V30 40767 H 3956.73 -1.14747 -3.48179 0
M  V30 40768 H 3956.38 0.839324 -4.95948 0
M  V30 40769 H 3956.08 -0.682144 -5.83627 0
M  V30 40770 H 3957.61 0.211517 -6.10234 0
M  V30 40771 H 3959.02 -1.94618 -5.39256 0
M  V30 40772 H 3957.42 -2.73569 -5.34116 0
M  V30 40773 H 3958.49 -2.83852 -3.93136 0
M  V30 40774 N 3959.83 1.35866 -0.798635 0
M  V30 40775 C 3961.06 2.02944 -0.386953 0
M  V30 40776 C 3961.47 1.60342 1.00435 0
M  V30 40777 O 3960.81 0.792748 1.65714 0
M  V30 40778 C 3960.87 3.57467 -0.381817 0
M  V30 40779 C 3960.54 4.23305 -1.72227 0
M  V30 40780 C 3961.53 4.45546 -2.67927 0
M  V30 40781 C 3959.22 4.60588 -2.0041 0
M  V30 40782 C 3961.21 5.04162 -3.89999 0
M  V30 40783 C 3958.9 5.1892 -3.22746 0
M  V30 40784 C 3959.9 5.40648 -4.17359 0
M  V30 40785 O 3959.59 5.97753 -5.37538 0
M  V30 40786 H 3959.32 0.657669 -0.156355 0
M  V30 40787 H 3961.87 1.74634 -1.08131 0
M  V30 40788 H 3960.1 3.84935 0.369089 0
M  V30 40789 H 3961.79 4.05899 0.00645973 0
M  V30 40790 H 3962.56 4.17129 -2.47443 0
M  V30 40791 H 3958.44 4.42994 -1.27581 0
M  V30 40792 H 3961.98 5.21037 -4.6386 0
M  V30 40793 H 3957.88 5.46763 -3.43104 0
M  V30 40794 H 3958.64 6.16211 -5.38726 0
M  V30 40795 N 3961.31 0.551443 1.47638 0
M  V30 40796 C 3962.55 0.0252781 2.02784 0
M  V30 40797 C 3962.89 -1.31881 1.42552 0
M  V30 40798 O 3962.16 -1.85683 0.578987 0
M  V30 40799 C 3962.44 -0.0739418 3.60024 0
M  V30 40800 C 3962.3 1.29683 4.307 0
M  V30 40801 C 3963.62 -0.790226 4.32947 0
M  V30 40802 H 3960.74 0.0106602 0.736923 0
M  V30 40803 H 3963.38 0.71262 1.7613 0
M  V30 40804 H 3961.53 -0.659322 3.82864 0
M  V30 40805 H 3963.2 1.92497 4.19216 0
M  V30 40806 H 3961.44 1.87306 3.91279 0
M  V30 40807 H 3962.11 1.18018 5.39236 0
M  V30 40808 H 3964.59 -0.293253 4.15065 0
M  V30 40809 H 3963.47 -0.828597 5.4261 0
M  V30 40810 H 3963.73 -1.84514 4.01755 0
M  V30 40811 N 3962.79 -1.54953 0.287609 0
M  V30 40812 C 3964.03 -1.99471 -0.324932 0
M  V30 40813 C 3964.36 -1.1775 -1.55435 0
M  V30 40814 O 3963.63 -0.270101 -1.94029 0
M  V30 40815 H 3962.21 -0.736796 -0.123049 0
M  V30 40816 H 3964.87 -1.90838 0.395839 0
M  V30 40817 H 3963.96 -3.06156 -0.606211 0
M  V30 40818 N 3964.26 -0.0150939 -1.57593 0
M  V30 40819 C 3965.51 0.665249 -1.90837 0
M  V30 40820 C 3965.83 1.73468 -0.890724 0
M  V30 40821 O 3965.1 1.95776 0.0697769 0
M  V30 40822 H 3963.68 0.248708 -0.704381 0
M  V30 40823 H 3966.35 -0.0595863 -1.94809 0
M  V30 40824 H 3965.44 1.12692 -2.91044 0
M  V30 40825 N 3965.74 1.55476 0.257876 0
M  V30 40826 C 3967.15 1.67346 0.827791 0
M  V30 40827 C 3967.5 0.610527 1.86459 0
M  V30 40828 O 3966.63 -0.245237 2.15006 0
M  V30 40829 C 3967.22 3.03377 1.50824 0
M  V30 40830 C 3965.78 3.17223 2.02599 0
M  V30 40831 C 3964.93 2.63191 0.873257 0
M  V30 40832 H 3967.88 1.58664 0.0339055 0
M  V30 40833 H 3967.9 2.9721 2.37585 0
M  V30 40834 H 3967.41 3.80717 0.753402 0
M  V30 40835 H 3965.52 2.44685 2.80998 0
M  V30 40836 H 3965.63 4.23989 2.23092 0
M  V30 40837 H 3963.99 2.20733 1.27078 0
M  V30 40838 H 3964.78 3.43047 0.131679 0
M  V30 40839 N 3967.22 -0.523064 1.48667 0
M  V30 40840 C 3968.15 -1.63602 1.66603 0
M  V30 40841 C 3969.13 -1.62122 0.514831 0
M  V30 40842 O 3970.32 -1.7921 0.748169 0
M  V30 40843 C 3967.45 -3.02169 1.71204 0
M  V30 40844 C 3966.4 -3.1851 2.85894 0
M  V30 40845 C 3965.73 -4.58208 2.7559 0
M  V30 40846 C 3967.03 -3.00624 4.27109 0
M  V30 40847 H 3968.72 -1.48846 2.59779 0
M  V30 40848 H 3966.27 -0.714645 1.25015 0
M  V30 40849 H 3968.22 -3.79908 1.8234 0
M  V30 40850 H 3966.94 -3.17963 0.746122 0
M  V30 40851 H 3965.6 -2.4319 2.74325 0
M  V30 40852 H 3965.25 -4.70847 1.76952 0
M  V30 40853 H 3964.95 -4.70085 3.52553 0
M  V30 40854 H 3966.47 -5.38036 2.88703 0
M  V30 40855 H 3967.89 -3.68149 4.39476 0
M  V30 40856 H 3966.29 -3.2399 5.05124 0
M  V30 40857 H 3967.36 -1.96974 4.4309 0
M  V30 40858 N 3968.7 -1.37371 -0.772465 0
M  V30 40859 C 3969.93 -1.35732 -1.56155 0
M  V30 40860 C 3970.34 0.0574942 -1.88712 0
M  V30 40861 O 3969.7 1.01908 -1.51397 0
M  V30 40862 C 3969.75 -2.19506 -2.87227 0
M  V30 40863 O 3969.47 -3.55474 -2.56066 0
M  V30 40864 C 3970.97 -2.25838 -3.8146 0
M  V30 40865 H 3968.19 -0.464955 -0.483795 0
M  V30 40866 H 3970.74 -1.80701 -0.957471 0
M  V30 40867 H 3968.89 -1.78048 -3.4406 0
M  V30 40868 H 3969.3 -3.99379 -3.39995 0
M  V30 40869 H 3970.78 -2.88779 -4.70437 0
M  V30 40870 H 3971.26 -1.2666 -4.2054 0
M  V30 40871 H 3971.86 -2.67605 -3.30556 0
M  V30 40872 N 3970.18 0.998553 -1.21929 0
M  V30 40873 C 3971.12 2.10879 -0.981464 0
M  V30 40874 C 3972.12 1.6924 0.073498 0
M  V30 40875 O 3973.32 1.79829 -0.0784536 0
M  V30 40876 H 3969.7 0.689495 -0.300167 0
M  V30 40877 H 3971.67 2.28114 -1.92371 0
M  V30 40878 C 3970.42 3.43001 -0.569731 0
M  V30 40879 H 3969.74 3.75479 -1.37316 0
M  V30 40880 H 3971.18 4.21683 -0.442692 0
M  V30 40881 C 3969.64 3.29115 0.720087 0
M  V30 40882 O 3970.17 3.60407 1.77398 0
M  V30 40883 N 3968.38 2.82312 0.689072 0
M  V30 40884 H 3967.92 2.57046 -0.168862 0
M  V30 40885 H 3967.88 2.73403 1.55236 0
M  V30 40886 N 3971.65 1.02807 1.1945 0
M  V30 40887 C 3972.88 0.743519 1.93614 0
M  V30 40888 C 3973.3 -0.691311 1.74936 0
M  V30 40889 O 3972.66 -1.47719 1.05113 0
M  V30 40890 C 3972.71 1.09886 3.43449 0
M  V30 40891 O 3971.81 0.217051 4.11828 0
M  V30 40892 H 3971.16 0.274782 0.604476 0
M  V30 40893 H 3973.69 1.37453 1.51551 0
M  V30 40894 H 3973.7 1.05541 3.94113 0
M  V30 40895 H 3972.37 2.14419 3.56367 0
M  V30 40896 H 3970.95 0.319019 3.71533 0
M  V30 40897 N 3973.13 -1.35441 0.805829 0
M  V30 40898 C 3974.08 -2.29809 0.213672 0
M  V30 40899 C 3975.05 -1.52775 -0.651851 0
M  V30 40900 O 3976.23 -1.81217 -0.597092 0
M  V30 40901 C 3973.37 -3.39256 -0.632385 0
M  V30 40902 C 3972.49 -4.31256 0.253489 0
M  V30 40903 C 3971.62 -5.27795 -0.6005 0
M  V30 40904 C 3970.66 -6.11432 0.285819 0
M  V30 40905 N 3969.8 -7.00111 -0.528099 0
M  V30 40906 H 3974.64 -2.7986 1.02383 0
M  V30 40907 H 3972.18 -1.37737 0.516422 0
M  V30 40908 H 3974.13 -4.01378 -1.13807 0
M  V30 40909 H 3972.76 -2.90483 -1.40781 0
M  V30 40910 H 3971.82 -3.70146 0.877267 0
M  V30 40911 H 3973.13 -4.89945 0.935718 0
M  V30 40912 H 3972.28 -5.95285 -1.17134 0
M  V30 40913 H 3971.02 -4.69601 -1.3163 0
M  V30 40914 H 3970.03 -5.4289 0.868939 0
M  V30 40915 H 3971.25 -6.71705 0.999467 0
M  V30 40916 H 3969.2 -6.44406 -1.22789 0
M  V30 40917 H 3969.11 -7.55939 0.0960987 0
M  V30 40918 H 3970.38 -7.71951 -1.08224 0
M  V30 40919 N 3974.61 -0.559265 -1.47343 0
M  V30 40920 C 3975.86 -0.0359075 -2.02068 0
M  V30 40921 C 3976.18 1.31951 -1.43576 0
M  V30 40922 O 3975.45 1.86105 -0.611705 0
M  V30 40923 H 3974.03 -0.0102845 -0.746929 0
M  V30 40924 H 3976.69 -0.729739 -1.80723 0
M  V30 40925 H 3975.79 0.0506574 -3.12059 0
M  V30 40926 N 3976.09 1.54799 -0.295822 0
M  V30 40927 C 3977.02 2.20763 0.616153 0
M  V30 40928 C 3978.03 1.19873 1.10155 0
M  V30 40929 O 3979.22 1.46493 1.0199 0
M  V30 40930 C 3976.32 2.8363 1.85492 0
M  V30 40931 C 3975.5 4.10403 1.51288 0
M  V30 40932 C 3974.55 4.57123 2.60625 0
M  V30 40933 O 3973.58 5.22438 2.25936 0
M  V30 40934 N 3974.78 4.29004 3.91071 0
M  V30 40935 H 3977.55 2.99656 0.0514726 0
M  V30 40936 H 3975.11 1.61471 -0.117799 0
M  V30 40937 H 3977.1 3.1182 2.57973 0
M  V30 40938 H 3975.67 2.08608 2.32812 0
M  V30 40939 H 3974.89 3.89279 0.620931 0
M  V30 40940 H 3976.18 4.92961 1.25966 0
M  V30 40941 H 3975.58 3.76666 4.22065 0
M  V30 40942 H 3974.13 4.61915 4.59867 0
M  V30 40943 N 3977.57 0.0234513 1.57583 0
M  V30 40944 C 3978.52 -0.978342 2.11024 0
M  V30 40945 C 3979.51 -1.34066 1.03551 0
M  V30 40946 O 3980.72 -1.32355 1.21992 0
M  V30 40947 H 3977.09 -0.333255 0.674125 0
M  V30 40948 H 3979.06 -0.50225 2.94143 0
M  V30 40949 C 3977.81 -2.25353 2.64785 0
M  V30 40950 H 3977.13 -1.98347 3.47129 0
M  V30 40951 H 3978.57 -2.93672 3.05831 0
M  V30 40952 C 3977.03 -2.97941 1.57267 0
M  V30 40953 O 3977.56 -3.89833 0.969193 0
M  V30 40954 N 3975.77 -2.60176 1.29448 0
M  V30 40955 H 3975.32 -1.85529 1.78709 0
M  V30 40956 H 3975.27 -3.09054 0.57733 0
M  V30 40957 N 3979.05 -1.5561 -0.249627 0
M  V30 40958 C 3980.29 -1.79077 -0.985435 0
M  V30 40959 C 3980.65 -0.592535 -1.82628 0
M  V30 40960 O 3981.85 -0.705915 -2.59365 0
M  V30 40961 C 3980.12 -3.07266 -1.82544 0
M  V30 40962 S 3981.68 -3.51943 -2.62071 0
M  V30 40963 H 3978.5 -0.628983 -0.331514 0
M  V30 40964 H 3981.1 -1.93849 -0.253557 0
M  V30 40965 H 3979.8 -3.92545 -1.19737 0
M  V30 40966 H 3979.34 -2.95225 -2.60011 0
M  V30 40967 H 3981.35 -3.13061 -3.84977 0
M  V30 40968 N 3980.52 0.515172 -1.48942 0
M  V30 40969 C 3981.77 1.26766 -1.574 0
M  V30 40970 C 3982.09 1.93309 -0.256247 0
M  V30 40971 O 3981.36 1.82055 0.723376 0
M  V30 40972 H 3979.94 0.470873 -0.579903 0
M  V30 40973 H 3982.6 0.598282 -1.8549 0
M  V30 40974 H 3981.7 2.03912 -2.36276 0
M  V30 40975 N 3982 1.37779 0.765169 0
M  V30 40976 C 3983.23 1.3636 1.55208 0
M  V30 40977 C 3983.64 -0.0513689 1.8913 0
M  V30 40978 O 3982.98 -1.02532 1.52423 0
M  V30 40979 C 3983.04 2.14359 2.88601 0
M  V30 40980 C 3982.71 3.6327 2.77279 0
M  V30 40981 C 3983.71 4.57013 2.47861 0
M  V30 40982 C 3981.39 4.06478 2.95095 0
M  V30 40983 C 3983.38 5.91943 2.36395 0
M  V30 40984 C 3981.07 5.41491 2.8325 0
M  V30 40985 C 3982.07 6.34037 2.53941 0
M  V30 40986 O 3981.76 7.66568 2.42134 0
M  V30 40987 H 3981.49 0.468567 0.487258 0
M  V30 40988 H 3984.04 1.81813 0.955684 0
M  V30 40989 H 3982.27 1.63607 3.50385 0
M  V30 40990 H 3983.96 2.05492 3.5004 0
M  V30 40991 H 3984.73 4.2494 2.33776 0
M  V30 40992 H 3980.61 3.348 3.16907 0
M  V30 40993 H 3984.15 6.64145 2.1344 0
M  V30 40994 H 3980.05 5.73165 2.96904 0
M  V30 40995 H 3980.82 7.76962 2.57434 0
M  V30 40996 N 3983.48 -0.992073 1.22457 0
M  V30 40997 C 3984.9 -1.25602 0.984704 0
M  V30 40998 C 3985.1 -1.98923 -0.32122 0
M  V30 40999 O 3984.15 -2.29923 -1.04363 0
M  V30 41000 C 3985.46 -2.06699 2.18394 0
M  V30 41001 C 3987.01 -2.1988 2.22759 0
M  V30 41002 C 3987.49 -3.04365 3.42237 0
M  V30 41003 N 3988.98 -3.11952 3.42404 0
M  V30 41004 C 3989.71 -3.77614 4.31503 0
M  V30 41005 N 3989.21 -4.45197 5.30821 0
M  V30 41006 N 3991 -3.74384 4.19277 0
M  V30 41007 H 3983.15 -0.500534 2.06418 0
M  V30 41008 H 3985.42 -0.283678 0.904561 0
M  V30 41009 H 3985.12 -1.60187 3.13102 0
M  V30 41010 H 3985 -3.07454 2.18522 0
M  V30 41011 H 3987.38 -2.65606 1.28598 0
M  V30 41012 H 3987.46 -1.18553 2.26669 0
M  V30 41013 H 3987.11 -2.59339 4.36699 0
M  V30 41014 H 3987.04 -4.05835 3.35567 0
M  V30 41015 H 3989.53 -2.63854 2.70536 0
M  V30 41016 H 3989.84 -4.93044 5.95086 0
M  V30 41017 H 3988.19 -4.43943 5.34733 0
M  V30 41018 H 3991.38 -3.20747 3.40938 0
M  V30 41019 H 3991.55 -4.25277 4.8892 0
M  V30 41020 N 3984.96 -1.03439 -1.18904 0
M  V30 41021 C 3986.37 -0.752469 -1.40748 0
M  V30 41022 C 3986.57 0.660645 -1.90362 0
M  V30 41023 O 3985.63 1.42581 -2.08391 0
M  V30 41024 C 3986.94 -1.79325 -2.41377 0
M  V30 41025 C 3988.49 -1.81344 -2.55115 0
M  V30 41026 C 3988.97 -2.84397 -3.59002 0
M  V30 41027 N 3990.46 -2.83248 -3.66503 0
M  V30 41028 C 3991.19 -3.59639 -4.46595 0
M  V30 41029 N 3990.69 -4.45762 -5.30347 0
M  V30 41030 N 3992.48 -3.48156 -4.41298 0
M  V30 41031 H 3984.63 -1.94641 -0.850224 0
M  V30 41032 H 3986.89 -0.841816 -0.435947 0
M  V30 41033 H 3986.6 -2.80654 -2.11958 0
M  V30 41034 H 3986.47 -1.62014 -3.40634 0
M  V30 41035 H 3988.86 -0.806897 -2.83854 0
M  V30 41036 H 3988.94 -2.02731 -1.55993 0
M  V30 41037 H 3988.59 -3.85226 -3.31004 0
M  V30 41038 H 3988.52 -2.60266 -4.57787 0
M  V30 41039 H 3991.01 -2.20789 -3.06693 0
M  V30 41040 H 3991.32 -5.00776 -5.88594 0
M  V30 41041 H 3989.67 -4.49832 -5.29789 0
M  V30 41042 H 3992.86 -2.80282 -3.74913 0
M  V30 41043 H 3993.03 -4.07941 -5.03476 0
M  V30 41044 N 3986.44 1.35011 -0.813001 0
M  V30 41045 C 3987.68 2.00406 -0.402103 0
M  V30 41046 C 3988.04 1.63081 1.01334 0
M  V30 41047 O 3989.24 2.21244 1.52659 0
M  V30 41048 C 3987.51 3.52545 -0.587091 0
M  V30 41049 S 3989.07 4.37983 -0.267568 0
M  V30 41050 H 3985.89 0.694476 -0.152395 0
M  V30 41051 H 3988.49 1.64484 -1.05665 0
M  V30 41052 H 3987.19 3.77197 -1.61711 0
M  V30 41053 H 3986.73 3.93313 0.0825486 0
M  V30 41054 H 3988.74 4.87551 0.922422 0
M  V30 41055 N 3987.91 0.567071 1.47044 0
M  V30 41056 C 3989.33 0.227564 1.57969 0
M  V30 41057 C 3989.53 -1.27004 1.56436 0
M  V30 41058 O 3988.59 -2.05083 1.473 0
M  V30 41059 C 3989.9 0.862945 2.88052 0
M  V30 41060 C 3991.45 0.835085 3.01654 0
M  V30 41061 C 3991.92 1.44972 4.3445 0
M  V30 41062 N 3993.41 1.41335 4.41111 0
M  V30 41063 C 3994.15 1.85845 5.42447 0
M  V30 41064 N 3993.64 2.38257 6.50543 0
M  V30 41065 N 3995.44 1.76856 5.33553 0
M  V30 41066 H 3987.59 1.53995 1.46285 0
M  V30 41067 H 3989.85 0.642767 0.696817 0
M  V30 41068 H 3989.56 1.91583 2.94939 0
M  V30 41069 H 3989.43 0.361824 3.75461 0
M  V30 41070 H 3991.82 -0.209135 2.94358 0
M  V30 41071 H 3991.9 1.37407 2.15762 0
M  V30 41072 H 3991.54 2.49306 4.42503 0
M  V30 41073 H 3991.47 0.886094 5.19091 0
M  V30 41074 H 3993.96 1.03007 3.6359 0
M  V30 41075 H 3994.28 2.70118 7.24055 0
M  V30 41076 H 3992.62 2.42273 6.51405 0
M  V30 41077 H 3995.81 1.35679 4.48005 0
M  V30 41078 H 3995.99 2.11862 6.12388 0
M  V30 41079 N 3989.39 -1.5464 0.304027 0
M  V30 41080 C 3990.35 -2.22307 -0.557878 0
M  V30 41081 C 3991.35 -1.2101 -1.05893 0
M  V30 41082 O 3992.54 -1.45724 -0.954472 0
M  V30 41083 C 3989.68 -2.91181 -1.77274 0
M  V30 41084 H 3990.87 -2.99881 0.0333714 0
M  V30 41085 H 3988.42 -1.56204 0.0548934 0
M  V30 41086 H 3989.16 -2.17694 -2.40375 0
M  V30 41087 H 3988.94 -3.65442 -1.42108 0
M  V30 41088 H 3990.43 -3.42793 -2.38501 0
M  V30 41089 N 3990.87 -0.0318079 -1.57568 0
M  V30 41090 C 3992.09 0.659919 -1.96621 0
M  V30 41091 C 3992.52 1.64713 -0.908363 0
M  V30 41092 O 3991.88 1.8083 0.130459 0
M  V30 41093 C 3991.93 1.34027 -3.34767 0
M  V30 41094 O 3991.03 2.4556 -3.31321 0
M  V30 41095 H 3990.37 0.173149 -0.641027 0
M  V30 41096 H 3992.9 -0.094459 -2.04382 0
M  V30 41097 H 3992.91 1.69644 -3.71059 0
M  V30 41098 H 3991.59 0.616644 -4.11303 0
M  V30 41099 H 3990.16 2.12035 -3.0675 0
M  V30 41100 N 3992.35 1.55741 0.241371 0
M  V30 41101 C 3993.6 1.77479 0.966718 0
M  V30 41102 C 3993.92 0.596789 1.85643 0
M  V30 41103 O 3993.19 -0.387203 1.92035 0
M  V30 41104 H 3991.77 0.654563 0.359939 0
M  V30 41105 H 3994.43 1.93185 0.257989 0
M  V30 41106 H 3993.53 2.68846 1.58519 0
M  V30 41107 N 3993.83 -0.507266 1.49213 0
M  V30 41108 C 3995.07 -1.26365 1.58618 0
M  V30 41109 C 3995.41 -1.92324 0.269249 0
M  V30 41110 O 3994.68 -1.80415 -0.726688 0
M  V30 41111 C 3994.96 -2.3355 2.74092 0
M  V30 41112 C 3994.82 -1.72133 4.1556 0
M  V30 41113 C 3996.14 -3.35159 2.85231 0
M  V30 41114 H 3993.25 -0.458073 0.577355 0
M  V30 41115 H 3995.9 -0.562765 1.81474 0
M  V30 41116 H 3994.05 -2.9333 2.54735 0
M  V30 41117 H 3995.72 -1.16228 4.46418 0
M  V30 41118 H 3993.96 -1.02569 4.215 0
M  V30 41119 H 3994.63 -2.49847 4.9222 0
M  V30 41120 H 3997.11 -2.85362 3.02833 0
M  V30 41121 H 3995.98 -4.07525 3.67716 0
M  V30 41122 H 3996.25 -3.97103 1.94323 0
M  V30 41123 N 3995.3 -1.38182 -0.757851 0
M  V30 41124 C 3996.23 -1.37782 -1.88516 0
M  V30 41125 C 3997.22 -0.24435 -1.68336 0
M  V30 41126 O 3998.4 -0.446795 -1.8899 0
M  V30 41127 C 3995.53 -1.19789 -3.25987 0
M  V30 41128 C 3994.48 -2.30295 -3.6076 0
M  V30 41129 C 3993.81 -1.97412 -4.96923 0
M  V30 41130 C 3995.11 -3.7254 -3.66076 0
M  V30 41131 H 3996.8 -2.32117 -1.89108 0
M  V30 41132 H 3994.35 -1.1173 -0.908423 0
M  V30 41133 H 3996.3 -1.18136 -4.04502 0
M  V30 41134 H 3995.03 -0.219145 -3.25864 0
M  V30 41135 H 3993.69 -2.31128 -2.84562 0
M  V30 41136 H 3993.33 -0.980317 -4.93355 0
M  V30 41137 H 3993.03 -2.71419 -5.21158 0
M  V30 41138 H 3994.56 -1.97369 -5.77822 0
M  V30 41139 H 3995.97 -3.73761 -4.34713 0
M  V30 41140 H 3994.37 -4.45717 -4.01817 0
M  V30 41141 H 3995.44 -4.05163 -2.66404 0
M  V30 41142 N 3996.78 0.985565 -1.22981 0
M  V30 41143 C 3998.01 1.76148 -1.08533 0
M  V30 41144 C 3998.43 1.85266 0.363598 0
M  V30 41145 O 3997.78 1.3281 1.25171 0
M  V30 41146 C 3997.83 3.19098 -1.69878 0
M  V30 41147 O 3997.55 3.10462 -3.09104 0
M  V30 41148 C 3999.06 4.13107 -1.60802 0
M  V30 41149 H 3996.28 0.552963 -0.380096 0
M  V30 41150 H 3998.82 1.23857 -1.62726 0
M  V30 41151 H 3996.97 3.68434 -1.1973 0
M  V30 41152 H 3997.39 4.00413 -3.38776 0
M  V30 41153 H 3998.86 5.11134 -2.08437 0
M  V30 41154 H 3999.34 4.35539 -0.565894 0
M  V30 41155 H 3999.95 3.69673 -2.10291 0
M  V30 41156 N 3998.26 1.04068 1.18353 0
M  V30 41157 C 3999.49 0.764094 1.92274 0
M  V30 41158 C 3999.9 -0.678747 1.76177 0
M  V30 41159 O 3999.26 -1.46267 1.09143 0
M  V30 41160 C 3999.31 1.12089 3.43684 0
M  V30 41161 O 3999.03 2.50708 3.59273 0
M  V30 41162 C 4000.53 0.868802 4.34703 0
M  V30 41163 H 3997.75 0.27866 0.610401 0
M  V30 41164 H 4000.3 1.38835 1.5015 0
M  V30 41165 H 3998.45 0.541595 3.83595 0
M  V30 41166 H 3998.87 2.64365 4.53002 0
M  V30 41167 H 4000.34 1.1683 5.39495 0
M  V30 41168 H 4000.82 -0.196424 4.38761 0
M  V30 41169 H 4001.42 1.43139 4.00489 0
M  V30 41170 N 3999.74 -1.34578 0.820149 0
M  V30 41171 C 4000.96 -2.03128 0.418783 0
M  V30 41172 C 4001.39 -1.61366 -0.966576 0
M  V30 41173 O 4000.75 -0.796932 -1.62846 0
M  V30 41174 C 4000.79 -3.56747 0.525743 0
M  V30 41175 O 3999.9 -4.09877 -0.45552 0
M  V30 41176 H 3999.24 -0.641113 0.17283 0
M  V30 41177 H 4001.77 -1.71886 1.1098 0
M  V30 41178 H 4001.78 -4.0603 0.400493 0
M  V30 41179 H 4000.45 -3.8649 1.53616 0
M  V30 41180 H 3999.03 -3.71775 -0.289384 0
M  V30 41181 N 4001.22 -0.574861 -1.46742 0
M  V30 41182 C 4002.46 -0.0600332 -2.04312 0
M  V30 41183 C 4002.82 1.27268 -1.4376 0
M  V30 41184 O 4004.02 1.87627 -1.92482 0
M  V30 41185 C 4002.29 0.0129569 -3.57398 0
M  V30 41186 S 4003.85 0.471349 -4.36261 0
M  V30 41187 H 4000.67 -0.0336708 -0.710202 0
M  V30 41188 H 4003.27 -0.765587 -1.79886 0
M  V30 41189 H 4001.98 -0.961073 -3.98988 0
M  V30 41190 H 4001.51 0.741523 -3.86348 0
M  V30 41191 H 4003.52 1.72765 -4.65152 0
M  V30 41192 N 4002.69 1.54476 -0.312224 0
M  V30 41193 C 4003.94 1.99962 0.293157 0
M  V30 41194 C 4004.26 1.20208 1.53542 0
M  V30 41195 O 4003.53 0.300935 1.93575 0
M  V30 41196 H 4002.11 0.73866 0.111312 0
M  V30 41197 H 4004.78 1.90184 -0.426149 0
M  V30 41198 H 4003.87 3.07082 0.557428 0
M  V30 41199 N 4004.17 0.0401637 1.57549 0
M  V30 41200 C 4005.12 -0.955905 2.1205 0
M  V30 41201 C 4006.11 -1.3296 1.04967 0
M  V30 41202 O 4007.32 -1.31054 1.23389 0
M  V30 41203 H 4003.7 -0.326087 0.677622 0
M  V30 41204 H 4005.67 -0.471024 2.94659 0
M  V30 41205 C 4004.42 -2.22532 2.67161 0
M  V30 41206 H 4003.74 -1.94654 3.49213 0
M  V30 41207 H 4005.18 -2.90412 3.08929 0
M  V30 41208 C 4003.64 -2.96256 1.60419 0
M  V30 41209 O 4004.17 -3.88783 1.01049 0
M  V30 41210 N 4002.37 -2.58789 1.322 0
M  V30 41211 H 4001.92 -1.83623 1.80667 0
M  V30 41212 H 4001.88 -3.08424 0.610077 0
M  V30 41213 N 4005.65 -1.55866 -0.233109 0
M  V30 41214 C 4006.88 -1.82413 -0.976383 0
M  V30 41215 C 4007.29 -0.617755 -1.78407 0
M  V30 41216 O 4006.65 0.413678 -1.7775 0
M  V30 41217 C 4006.7 -3.07343 -1.90323 0
M  V30 41218 O 4006.42 -4.23324 -1.1282 0
M  V30 41219 C 4007.92 -3.46791 -2.76136 0
M  V30 41220 H 4005.14 -0.606671 -0.286689 0
M  V30 41221 H 4007.69 -2.02944 -0.251827 0
M  V30 41222 H 4005.84 -2.88821 -2.58188 0
M  V30 41223 H 4006.26 -4.9422 -1.75634 0
M  V30 41224 H 4007.73 -4.37272 -3.36893 0
M  V30 41225 H 4008.21 -2.68009 -3.47948 0
M  V30 41226 H 4008.81 -3.67711 -2.13702 0
M  V30 41227 N 4007.13 0.499346 -1.4948 0
M  V30 41228 C 4008.06 1.60931 -1.69185 0
M  V30 41229 C 4009.04 1.61282 -0.540558 0
M  V30 41230 O 4010.23 1.77997 -0.776585 0
M  V30 41231 C 4007.36 2.99407 -1.7599 0
M  V30 41232 C 4006.31 3.13921 -2.90925 0
M  V30 41233 C 4005.64 4.53765 -2.82845 0
M  V30 41234 C 4006.94 2.93791 -4.31838 0
M  V30 41235 H 4008.63 1.44695 -2.62114 0
M  V30 41236 H 4006.18 0.694665 -1.26136 0
M  V30 41237 H 4008.13 3.76959 -1.88361 0
M  V30 41238 H 4006.85 3.16736 -0.796612 0
M  V30 41239 H 4005.51 2.38795 -2.78159 0
M  V30 41240 H 4005.16 4.67972 -1.84421 0
M  V30 41241 H 4004.86 4.64417 -3.59987 0
M  V30 41242 H 4006.38 5.33375 -2.97226 0
M  V30 41243 H 4007.8 3.61111 -4.45277 0
M  V30 41244 H 4006.19 3.15913 -5.10215 0
M  V30 41245 H 4007.26 1.899 -4.46168 0
M  V30 41246 N 4008.61 1.38582 0.750513 0
M  V30 41247 C 4009.84 1.38199 1.53976 0
M  V30 41248 C 4010.25 -0.0274645 1.8878 0
M  V30 41249 O 4009.61 -0.994867 1.52999 0
M  V30 41250 C 4009.66 2.24048 2.83699 0
M  V30 41251 O 4009.38 3.59503 2.50378 0
M  V30 41252 C 4010.88 2.31878 3.77819 0
M  V30 41253 H 4008.1 0.472593 0.476337 0
M  V30 41254 H 4010.64 1.82201 0.928602 0
M  V30 41255 H 4008.8 1.835 3.41184 0
M  V30 41256 H 4009.21 4.04738 3.33598 0
M  V30 41257 H 4010.69 2.96226 4.65783 0
M  V30 41258 H 4011.16 1.33334 4.18472 0
M  V30 41259 H 4011.77 2.7283 3.26257 0
M  V30 41260 N 4010.09 -0.979029 1.23502 0
M  V30 41261 C 4011.33 -1.73557 1.07969 0
M  V30 41262 C 4011.69 -1.88268 -0.376723 0
M  V30 41263 O 4012.89 -2.60741 -0.653272 0
M  V30 41264 C 4011.16 -3.09534 1.78672 0
M  V30 41265 S 4012.72 -4.00751 1.78729 0
M  V30 41266 H 4009.54 -0.596856 0.386374 0
M  V30 41267 H 4012.14 -1.16953 1.56659 0
M  V30 41268 H 4010.84 -2.96479 2.83775 0
M  V30 41269 H 4010.38 -3.71205 1.3027 0
M  V30 41270 H 4012.39 -4.8892 0.846861 0
M  V30 41271 N 4011.56 -1.04695 -1.178 0
M  V30 41272 C 4012.79 -0.773157 -1.91588 0
M  V30 41273 C 4013.2 0.674349 -1.76774 0
M  V30 41274 O 4012.54 1.47195 -1.09905 0
M  V30 41275 C 4012.61 -1.06777 -3.43277 0
M  V30 41276 C 4012.27 -2.51045 -3.81871 0
M  V30 41277 C 4013.27 -3.49242 -3.85132 0
M  V30 41278 C 4010.95 -2.85923 -4.12981 0
M  V30 41279 C 4012.95 -4.80363 -4.18963 0
M  V30 41280 C 4010.63 -4.17249 -4.46483 0
M  V30 41281 C 4011.63 -5.14279 -4.49451 0
M  V30 41282 O 4011.32 -6.4325 -4.82166 0
M  V30 41283 H 4011.05 -0.280923 -0.614865 0
M  V30 41284 H 4013.61 -1.39943 -1.5035 0
M  V30 41285 H 4011.84 -0.384383 -3.84785 0
M  V30 41286 H 4013.52 -0.780784 -3.9832 0
M  V30 41287 H 4014.29 -3.23636 -3.61227 0
M  V30 41288 H 4010.17 -2.11065 -4.09845 0
M  V30 41289 H 4013.71 -5.56094 -4.21195 0
M  V30 41290 H 4009.61 -4.4262 -4.69849 0
M  V30 41291 H 4010.38 -6.47996 -5.00044 0
M  V30 41292 N 4013.04 1.34141 -0.827275 0
M  V30 41293 C 4013.97 2.31968 -0.267056 0
M  V30 41294 C 4014.95 1.58442 0.618878 0
M  V30 41295 O 4016.14 1.864 0.544849 0
M  V30 41296 C 4013.27 3.42618 0.568319 0
M  V30 41297 C 4012.22 4.2743 -0.220842 0
M  V30 41298 C 4011.55 5.29589 0.73755 0
M  V30 41299 C 4012.85 5.02301 -1.43146 0
M  V30 41300 H 4014.54 2.79071 -1.08441 0
M  V30 41301 H 4012.09 1.34171 -0.522903 0
M  V30 41302 H 4014.04 4.10073 0.970453 0
M  V30 41303 H 4012.76 2.94174 1.41877 0
M  V30 41304 H 4011.42 3.61583 -0.604397 0
M  V30 41305 H 4011.07 4.77406 1.58408 0
M  V30 41306 H 4010.77 5.87211 0.213712 0
M  V30 41307 H 4012.3 5.99912 1.13745 0
M  V30 41308 H 4013.71 5.62587 -1.10311 0
M  V30 41309 H 4012.11 5.69519 -1.89125 0
M  V30 41310 H 4013.18 4.31744 -2.20737 0
M  V30 41311 N 4014.52 0.582635 1.46435 0
M  V30 41312 C 4015.47 -0.150656 2.30308 0
M  V30 41313 C 4016.44 -0.88416 1.40612 0
M  V30 41314 O 4017.62 -0.874844 1.69562 0
M  V30 41315 C 4014.76 -1.15842 3.25077 0
M  V30 41316 C 4013.87 -0.428366 4.29871 0
M  V30 41317 C 4013.01 -1.42364 5.11767 0
M  V30 41318 C 4012.05 -0.679996 6.08311 0
M  V30 41319 N 4011.19 -1.62333 6.83076 0
M  V30 41320 H 4016.03 0.570634 2.92485 0
M  V30 41321 H 4013.56 0.29322 1.44148 0
M  V30 41322 H 4015.52 -1.75556 3.78465 0
M  V30 41323 H 4014.15 -1.84742 2.64708 0
M  V30 41324 H 4013.2 0.283811 3.7934 0
M  V30 41325 H 4014.51 0.152998 4.98565 0
M  V30 41326 H 4013.67 -2.09359 5.69433 0
M  V30 41327 H 4012.41 -2.03894 4.43033 0
M  V30 41328 H 4011.41 0.00372731 5.498 0
M  V30 41329 H 4012.64 -0.0700959 6.79064 0
M  V30 41330 H 4010.58 -2.22673 6.17052 0
M  V30 41331 H 4010.5 -1.09477 7.48031 0
M  V30 41332 H 4011.77 -2.28363 7.45299 0
M  V30 41333 N 4016 -1.54309 0.320412 0
M  V30 41334 C 4016.96 -2.22886 -0.534268 0
M  V30 41335 C 4017.96 -1.22126 -1.04603 0
M  V30 41336 O 4019.15 -1.46728 -0.938962 0
M  V30 41337 C 4016.28 -2.93045 -1.74176 0
M  V30 41338 H 4017.48 -2.99829 0.0651759 0
M  V30 41339 H 4015.03 -1.56137 0.0714577 0
M  V30 41340 H 4015.76 -2.20231 -2.38052 0
M  V30 41341 H 4015.55 -3.66928 -1.38224 0
M  V30 41342 H 4017.04 -3.45304 -2.34851 0
M  V30 41343 N 4017.48 -0.0485183 -1.57525 0
M  V30 41344 C 4018.7 0.635518 -1.96898 0
M  V30 41345 C 4019.12 1.64535 -0.925938 0
M  V30 41346 O 4018.48 1.82277 0.0901422 0
M  V30 41347 C 4018.53 1.32478 -3.36351 0
M  V30 41348 O 4018.25 0.355387 -4.36656 0
M  V30 41349 C 4019.75 2.09883 -3.90467 0
M  V30 41350 H 4016.97 0.173933 -0.648065 0
M  V30 41351 H 4019.51 -0.114033 -2.04182 0
M  V30 41352 H 4017.67 2.02558 -3.30226 0
M  V30 41353 H 4018.08 0.847062 -5.17615 0
M  V30 41354 H 4019.56 2.53535 -4.90331 0
M  V30 41355 H 4020.03 2.9459 -3.2575 0
M  V30 41356 H 4020.64 1.44719 -3.99921 0
M  V30 41357 N 4018.95 1.55988 0.224839 0
M  V30 41358 C 4019.92 1.9132 1.26211 0
M  V30 41359 C 4020.92 0.791497 1.39971 0
M  V30 41360 O 4022.11 1.05928 1.38293 0
M  V30 41361 C 4019.24 2.16112 2.63645 0
M  V30 41362 H 4020.43 2.8409 0.960883 0
M  V30 41363 H 4017.98 1.49219 0.465112 0
M  V30 41364 H 4018.72 1.25883 2.98871 0
M  V30 41365 H 4018.5 2.97825 2.55034 0
M  V30 41366 H 4019.99 2.44554 3.38501 0
M  V30 41367 N 4020.43 -0.491412 1.49743 0
M  V30 41368 C 4021.39 -1.57418 1.6659 0
M  V30 41369 C 4022.39 -1.51557 0.537308 0
M  V30 41370 O 4023.58 -1.54539 0.803955 0
M  V30 41371 C 4020.72 -2.97068 1.67222 0
M  V30 41372 H 4021.91 -1.43805 2.63173 0
M  V30 41373 H 4019.46 -0.716344 1.38918 0
M  V30 41374 H 4020.2 -3.16147 0.722584 0
M  V30 41375 H 4019.98 -3.0273 2.49193 0
M  V30 41376 H 4021.47 -3.75717 1.8228 0
M  V30 41377 N 4021.91 -1.38978 -0.743153 0
M  V30 41378 C 4023.15 -1.37183 -1.51527 0
M  V30 41379 C 4023.51 0.0350267 -1.91968 0
M  V30 41380 O 4024.72 0.177934 -2.6821 0
M  V30 41381 C 4022.99 -2.30996 -2.72719 0
M  V30 41382 S 4024.55 -2.47314 -3.62465 0
M  V30 41383 H 4021.36 -0.486596 -0.518407 0
M  V30 41384 H 4023.97 -1.75001 -0.871491 0
M  V30 41385 H 4022.67 -3.32088 -2.41135 0
M  V30 41386 H 4022.2 -1.94364 -3.42032 0
M  V30 41387 H 4024.22 -1.70498 -4.65988 0
M  V30 41388 N 4023.39 0.972465 -1.2402 0
M  V30 41389 C 4024.8 1.24019 -1.00456 0
M  V30 41390 C 4025 1.99409 0.289533 0
M  V30 41391 O 4024.06 2.31554 1.00692 0
M  V30 41392 C 4025.37 2.03199 -2.21655 0
M  V30 41393 C 4026.92 2.16308 -2.26229 0
M  V30 41394 C 4027.4 2.98882 -3.47036 0
M  V30 41395 N 4028.89 3.06465 -3.47323 0
M  V30 41396 C 4029.62 3.70701 -4.37456 0
M  V30 41397 N 4029.12 4.36696 -5.37837 0
M  V30 41398 N 4030.91 3.67666 -4.2518 0
M  V30 41399 H 4023.06 0.467631 -2.07188 0
M  V30 41400 H 4025.33 0.269251 -0.90896 0
M  V30 41401 H 4025.03 1.55185 -3.15611 0
M  V30 41402 H 4024.91 3.03939 -2.23386 0
M  V30 41403 H 4027.29 2.63526 -1.32807 0
M  V30 41404 H 4027.37 1.14932 -2.28527 0
M  V30 41405 H 4027.02 2.52358 -4.40769 0
M  V30 41406 H 4026.95 4.00446 -3.41981 0
M  V30 41407 H 4029.44 2.59516 -2.74699 0
M  V30 41408 H 4029.75 4.83514 -6.02855 0
M  V30 41409 H 4028.1 4.35379 -5.41729 0
M  V30 41410 H 4031.29 3.15283 -3.45998 0
M  V30 41411 H 4031.46 4.17445 -4.95624 0
M  V30 41412 N 4024.87 1.05318 1.17243 0
M  V30 41413 C 4025.83 0.659505 2.19507 0
M  V30 41414 C 4026.83 -0.289669 1.58169 0
M  V30 41415 O 4028.02 -0.0733713 1.74045 0
M  V30 41416 C 4025.15 -0.0311287 3.40886 0
M  V30 41417 H 4026.34 1.56465 2.55849 0
M  V30 41418 H 4023.9 0.847216 1.31347 0
M  V30 41419 H 4024.63 -0.949481 3.10089 0
M  V30 41420 H 4024.42 0.651259 3.86654 0
M  V30 41421 H 4025.91 -0.292629 4.16573 0
M  V30 41422 N 4026.34 -1.33701 0.834377 0
M  V30 41423 C 4027.31 -2.27608 0.269658 0
M  V30 41424 C 4028.31 -1.50769 -0.559039 0
M  V30 41425 O 4029.5 -1.70149 -0.373481 0
M  V30 41426 C 4026.63 -3.35203 -0.620623 0
M  V30 41427 H 4027.82 -2.79067 1.09824 0
M  V30 41428 H 4025.38 -1.44027 0.607113 0
M  V30 41429 H 4026.11 -2.88978 -1.47182 0
M  V30 41430 H 4025.9 -3.9209 -0.0277413 0
M  V30 41431 H 4027.39 -4.05223 -1.00917 0
M  V30 41432 N 4027.82 -0.590393 -1.46124 0
M  V30 41433 C 4028.77 0.13844 -2.30384 0
M  V30 41434 C 4029.74 0.876691 -1.41079 0
M  V30 41435 O 4030.92 0.86584 -1.70023 0
M  V30 41436 C 4028.06 1.14116 -3.25686 0
M  V30 41437 C 4027.18 0.405563 -4.30092 0
M  V30 41438 C 4026.31 1.39648 -5.12515 0
M  V30 41439 C 4025.35 0.647726 -6.08663 0
M  V30 41440 N 4024.49 1.58708 -6.83927 0
M  V30 41441 H 4029.33 -0.586137 -2.92179 0
M  V30 41442 H 4026.87 -0.30086 -1.4399 0
M  V30 41443 H 4028.82 1.73546 -3.79391 0
M  V30 41444 H 4027.45 1.83336 -2.65684 0
M  V30 41445 H 4026.51 -0.303924 -3.79184 0
M  V30 41446 H 4027.82 -0.179436 -4.98477 0
M  V30 41447 H 4026.97 2.06336 -5.70535 0
M  V30 41448 H 4025.71 2.01541 -4.44108 0
M  V30 41449 H 4024.72 -0.0328845 -5.4979 0
M  V30 41450 H 4025.94 0.0340825 -6.79091 0
M  V30 41451 H 4023.89 2.19397 -6.18224 0
M  V30 41452 H 4023.8 1.05509 -7.48601 0
M  V30 41453 H 4025.07 2.24407 -7.465 0
M  V30 41454 N 4029.3 1.54136 -0.328591 0
M  V30 41455 C 4030.23 2.27459 0.527694 0
M  V30 41456 C 4031.21 1.28446 1.11516 0
M  V30 41457 O 4032.4 1.57266 1.13935 0
M  V30 41458 C 4029.53 3.03618 1.68622 0
M  V30 41459 C 4028.48 4.1001 1.22782 0
M  V30 41460 C 4027.81 4.74038 2.4737 0
M  V30 41461 C 4029.11 5.21198 0.33906 0
M  V30 41462 H 4030.8 2.99282 -0.0839334 0
M  V30 41463 H 4028.35 1.43939 -0.0418082 0
M  V30 41464 H 4030.3 3.53644 2.29159 0
M  V30 41465 H 4029.02 2.2942 2.32452 0
M  V30 41466 H 4027.68 3.60875 0.645364 0
M  V30 41467 H 4027.33 3.96451 3.09574 0
M  V30 41468 H 4027.03 5.45909 2.17387 0
M  V30 41469 H 4028.55 5.26842 3.08659 0
M  V30 41470 H 4029.97 5.66951 0.850847 0
M  V30 41471 H 4028.37 5.99955 0.131786 0
M  V30 41472 H 4029.44 4.80806 -0.628776 0
M  V30 41473 N 4030.78 0.0568716 1.57497 0
M  V30 41474 C 4031.71 -0.944843 2.08819 0
M  V30 41475 C 4032.72 -1.2711 1.01719 0
M  V30 41476 O 4033.91 -1.2309 1.29272 0
M  V30 41477 C 4031.01 -2.26483 2.52108 0
M  V30 41478 C 4030.19 -2.11964 3.82609 0
M  V30 41479 C 4029.24 -3.27136 4.12151 0
M  V30 41480 O 4028.27 -3.02788 4.81983 0
M  V30 41481 N 4029.47 -4.51786 3.64513 0
M  V30 41482 H 4032.24 -0.506762 2.95385 0
M  V30 41483 H 4029.8 -0.12923 1.61383 0
M  V30 41484 H 4031.79 -3.0241 2.68943 0
M  V30 41485 H 4030.36 -2.61839 1.7076 0
M  V30 41486 H 4029.58 -1.20594 3.75301 0
M  V30 41487 H 4030.87 -1.99497 4.68058 0
M  V30 41488 H 4030.27 -4.74457 3.0807 0
M  V30 41489 H 4028.82 -5.24788 3.86575 0
M  V30 41490 N 4032.26 -1.56105 -0.216564 0
M  V30 41491 C 4033.53 -1.70147 -0.964844 0
M  V30 41492 C 4033.91 -0.60556 -2.02228 0
M  V30 41493 O 4033.26 0.386702 -2.25204 0
M  V30 41494 C 4033.47 -3.11654 -1.57076 0
M  V30 41495 C 4034.82 -3.71218 -2.06112 0
M  V30 41496 O 4035.84 -3.14647 -1.66961 0
M  V30 41497 O 4034.7 -4.70457 -2.78087 0
M  V30 41498 H 4031.8 -0.693179 -0.451034 0
M  V30 41499 H 4034.34 -1.68421 -0.207952 0
M  V30 41500 H 4033.11 -3.82878 -0.807473 0
M  V30 41501 H 4032.74 -3.17519 -2.39306 0
M  V30 41502 N 4033.73 0.483463 -1.50001 0
M  V30 41503 C 4034.97 1.24641 -1.62 0
M  V30 41504 C 4035.34 1.89517 -0.307792 0
M  V30 41505 O 4036.54 2.67086 -0.303106 0
M  V30 41506 C 4034.81 2.27166 -2.75918 0
M  V30 41507 S 4036.37 3.12565 -3.07975 0
M  V30 41508 H 4033.19 0.423347 -0.571226 0
M  V30 41509 H 4035.79 0.545522 -1.87735 0
M  V30 41510 H 4034.49 1.78064 -3.69759 0
M  V30 41511 H 4034.02 3.019 -2.52231 0
M  V30 41512 H 4036.04 4.28124 -2.50847 0
M  V30 41513 N 4035.21 1.39371 0.735772 0
M  V30 41514 C 4036.44 1.39824 1.52502 0
M  V30 41515 C 4036.86 -0.00744027 1.88799 0
M  V30 41516 O 4036.21 -0.978584 1.54045 0
M  V30 41517 C 4036.26 2.27044 2.81306 0
M  V30 41518 O 4035.98 3.62138 2.46551 0
M  V30 41519 C 4037.49 2.35873 3.75339 0
M  V30 41520 H 4034.71 0.477619 0.471298 0
M  V30 41521 H 4037.25 1.83176 0.909224 0
M  V30 41522 H 4035.4 1.87108 3.39219 0
M  V30 41523 H 4035.82 4.08253 3.29287 0
M  V30 41524 H 4037.29 3.0115 4.62615 0
M  V30 41525 H 4037.77 1.37765 4.17034 0
M  V30 41526 H 4038.38 2.76275 3.23345 0
M  V30 41527 N 4036.69 -0.965875 1.24534 0
M  V30 41528 C 4037.62 -2.05964 0.982543 0
M  V30 41529 C 4038.6 -1.62381 -0.0843264 0
M  V30 41530 O 4039.79 -1.88426 0.0529907 0
M  V30 41531 C 4036.91 -3.35237 0.483079 0
M  V30 41532 C 4035.96 -3.97774 1.53877 0
M  V30 41533 S 4036.79 -4.35173 3.12066 0
M  V30 41534 C 4037.95 -5.67579 2.63826 0
M  V30 41535 H 4038.18 -2.27939 1.90869 0
M  V30 41536 H 4035.71 -1.10402 1.07939 0
M  V30 41537 H 4037.67 -4.10005 0.201538 0
M  V30 41538 H 4036.33 -3.11247 -0.422389 0
M  V30 41539 H 4035.53 -4.90944 1.13976 0
M  V30 41540 H 4035.13 -3.29443 1.77041 0
M  V30 41541 H 4037.42 -6.45182 2.06752 0
M  V30 41542 H 4038.36 -6.1234 3.55592 0
M  V30 41543 H 4038.77 -5.26275 2.04193 0
M  V30 41544 N 4038.17 -1.05938 -1.16683 0
M  V30 41545 C 4039.1 -0.688192 -2.23128 0
M  V30 41546 C 4040.08 0.31762 -1.67108 0
M  V30 41547 O 4041.27 0.193544 -1.93233 0
M  V30 41548 C 4038.4 -0.070052 -3.47229 0
M  V30 41549 C 4037.35 -1.00144 -4.16119 0
M  V30 41550 C 4036.68 -0.246793 -5.3413 0
M  V30 41551 C 4037.98 -2.3289 -4.67504 0
M  V30 41552 H 4039.67 -1.57811 -2.54433 0
M  V30 41553 H 4037.22 -0.760232 -1.22297 0
M  V30 41554 H 4039.17 0.201471 -4.20918 0
M  V30 41555 H 4037.89 0.854854 -3.15214 0
M  V30 41556 H 4036.55 -1.25766 -3.44352 0
M  V30 41557 H 4036.2 0.681117 -4.98367 0
M  V30 41558 H 4035.9 -0.867475 -5.81161 0
M  V30 41559 H 4037.42 0.0172688 -6.10598 0
M  V30 41560 H 4038.84 -2.11675 -5.32791 0
M  V30 41561 H 4037.23 -2.90423 -5.25142 0
M  V30 41562 H 4038.3 -2.96216 -3.83907 0
M  V30 41563 N 4039.65 1.33256 -0.841456 0
M  V30 41564 C 4040.89 1.9799 -0.439062 0
M  V30 41565 C 4041.23 1.6649 0.999737 0
M  V30 41566 O 4040.5 0.946149 1.69936 0
M  V30 41567 C 4040.78 3.5394 -0.663199 0
M  V30 41568 C 4040.64 3.95118 -2.14946 0
M  V30 41569 C 4041.96 4.3996 -0.111017 0
M  V30 41570 H 4039.08 0.7192 -0.160999 0
M  V30 41571 H 4041.72 1.57855 -1.05745 0
M  V30 41572 H 4039.87 3.88259 -0.136833 0
M  V30 41573 H 4041.54 3.71043 -2.74089 0
M  V30 41574 H 4039.78 3.44755 -2.63299 0
M  V30 41575 H 4040.45 5.03748 -2.25703 0
M  V30 41576 H 4042.93 4.12301 -0.560971 0
M  V30 41577 H 4041.81 5.48093 -0.297512 0
M  V30 41578 H 4042.07 4.30979 0.98537 0
M  V30 41579 N 4041.13 0.598134 1.45809 0
M  V30 41580 C 4042.07 -0.138816 2.32185 0
M  V30 41581 C 4043.07 -0.869079 1.45408 0
M  V30 41582 O 4044.27 -0.785717 1.61946 0
M  V30 41583 H 4040.65 -0.0636299 0.749303 0
M  V30 41584 H 4042.62 0.608275 2.92135 0
M  V30 41585 C 4041.37 -1.12905 3.28858 0
M  V30 41586 H 4040.69 -0.576555 3.95621 0
M  V30 41587 H 4042.13 -1.6148 3.92046 0
M  V30 41588 C 4040.59 -2.19786 2.55335 0
M  V30 41589 O 4041.12 -3.27382 2.32774 0
M  V30 41590 N 4039.33 -1.94811 2.15631 0
M  V30 41591 H 4038.87 -1.07319 2.3418 0
M  V30 41592 H 4038.83 -2.6653 1.6676 0
M  V30 41593 N 4042.6 -1.5396 0.33676 0
M  V30 41594 C 4043.85 -2.00404 -0.261308 0
M  V30 41595 C 4044.17 -1.22635 -1.5161 0
M  V30 41596 O 4043.44 -0.331693 -1.93072 0
M  V30 41597 H 4042.02 -0.740337 -0.0995464 0
M  V30 41598 H 4044.68 -1.89482 0.456352 0
M  V30 41599 H 4043.78 -3.0793 -0.508503 0
M  V30 41600 N 4044.08 -0.0652232 -1.57465 0
M  V30 41601 C 4045.36 0.646033 -1.84623 0
M  V30 41602 C 4045.74 1.88192 -0.956407 0
M  V30 41603 O 4045.09 2.2849 -0.0210068 0
M  V30 41604 C 4045.3 0.989954 -3.34665 0
M  V30 41605 C 4046.64 1.36625 -4.02018 0
M  V30 41606 O 4047.67 1.08188 -3.39373 0
M  V30 41607 O 4046.53 1.89755 -5.12499 0
M  V30 41608 H 4043.62 0.320222 -0.762487 0
M  V30 41609 H 4046.17 -0.0956552 -1.6943 0
M  V30 41610 H 4044.94 0.111908 -3.9114 0
M  V30 41611 H 4044.56 1.78862 -3.55097 0
M  V30 41612 N 4045.56 1.56218 0.208282 0
M  V30 41613 C 4046.84 1.70657 0.955808 0
M  V30 41614 C 4047.22 0.616276 2.01904 0
M  V30 41615 O 4046.56 -0.374754 2.25406 0
M  V30 41616 C 4046.77 3.12482 1.55421 0
M  V30 41617 C 4048.12 3.72306 2.0414 0
M  V30 41618 O 4049.15 3.15528 1.6529 0
M  V30 41619 O 4048.01 4.71925 2.75588 0
M  V30 41620 H 4045.1 0.695561 0.447352 0
M  V30 41621 H 4047.65 1.68529 0.199017 0
M  V30 41622 H 4046.42 3.83301 0.787157 0
M  V30 41623 H 4046.04 3.18783 2.37619 0
M  V30 41624 N 4047.04 -0.475502 1.50256 0
M  V30 41625 C 4047.97 -1.58219 1.71724 0
M  V30 41626 C 4048.95 -1.60402 0.566149 0
M  V30 41627 O 4050.13 -1.76739 0.804805 0
M  V30 41628 C 4047.26 -2.9657 1.80731 0
M  V30 41629 C 4046.22 -3.09253 2.95882 0
M  V30 41630 C 4045.54 -4.49208 2.90028 0
M  V30 41631 C 4046.84 -2.86884 4.36457 0
M  V30 41632 H 4048.54 -1.40506 2.64383 0
M  V30 41633 H 4046.08 -0.67451 1.27226 0
M  V30 41634 H 4048.04 -3.73915 1.94334 0
M  V30 41635 H 4046.76 -3.15429 0.846901 0
M  V30 41636 H 4045.42 -2.3434 2.81923 0
M  V30 41637 H 4045.07 -4.64979 1.91842 0
M  V30 41638 H 4044.77 -4.58631 3.6733 0
M  V30 41639 H 4046.29 -5.28579 3.05674 0
M  V30 41640 H 4047.71 -3.53981 4.50966 0
M  V30 41641 H 4046.1 -3.07756 5.15176 0
M  V30 41642 H 4047.17 -1.82778 4.49133 0
M  V30 41643 N 4048.52 -1.39759 -0.72837 0
M  V30 41644 C 4049.76 -1.37547 -1.49026 0
M  V30 41645 C 4050.09 0.0264833 -1.94182 0
M  V30 41646 O 4049.37 0.992707 -1.67259 0
M  V30 41647 C 4049.65 -2.3537 -2.72531 0
M  V30 41648 C 4049.51 -3.84535 -2.33351 0
M  V30 41649 C 4050.82 -2.3092 -3.74652 0
M  V30 41650 H 4047.94 -0.500944 -0.540578 0
M  V30 41651 H 4050.59 -1.708 -0.832304 0
M  V30 41652 H 4048.74 -2.07143 -3.2867 0
M  V30 41653 H 4050.41 -4.23538 -1.82792 0
M  V30 41654 H 4048.65 -4.00989 -1.65501 0
M  V30 41655 H 4049.32 -4.48479 -3.21824 0
M  V30 41656 H 4051.8 -2.55894 -3.28112 0
M  V30 41657 H 4050.67 -3.01436 -4.58724 0
M  V30 41658 H 4050.93 -1.31647 -4.22044 0
M  V30 41659 N 4049.99 0.959257 -1.25044 0
M  V30 41660 C 4051.24 1.70582 -1.0968 0
M  V30 41661 C 4051.57 1.90793 0.36215 0
M  V30 41662 O 4050.85 1.47554 1.2672 0
M  V30 41663 C 4051.13 3.09153 -1.84652 0
M  V30 41664 C 4050.98 2.96381 -3.38347 0
M  V30 41665 C 4052.3 4.08963 -1.62596 0
M  V30 41666 H 4049.42 0.619118 -0.399828 0
M  V30 41667 H 4052.06 1.11535 -1.53818 0
M  V30 41668 H 4050.21 3.5956 -1.47135 0
M  V30 41669 H 4051.89 2.53335 -3.85512 0
M  V30 41670 H 4050.13 2.32402 -3.66295 0
M  V30 41671 H 4050.8 3.94585 -3.86014 0
M  V30 41672 H 4053.28 3.67448 -1.95247 0
M  V30 41673 H 4052.15 5.03971 -2.17497 0
M  V30 41674 H 4052.41 4.3846 -0.56618 0
M  V30 41675 N 4051.47 1.06556 1.16119 0
M  V30 41676 C 4052.72 0.778903 1.86054 0
M  V30 41677 C 4053.03 -0.697325 1.82748 0
M  V30 41678 O 4054.24 -1.09845 2.48287 0
M  V30 41679 C 4052.7 1.34321 3.33895 0
M  V30 41680 C 4052.3 2.84987 3.45668 0
M  V30 41681 C 4054.05 1.13422 4.09067 0
M  V30 41682 C 4051.96 3.34649 4.8761 0
M  V30 41683 H 4050.89 0.28769 0.696958 0
M  V30 41684 H 4053.54 1.2846 1.31035 0
M  V30 41685 H 4051.92 0.765276 3.88535 0
M  V30 41686 H 4053.09 3.48755 3.01175 0
M  V30 41687 H 4051.41 3.04584 2.83932 0
M  V30 41688 H 4054 1.48011 5.13806 0
M  V30 41689 H 4054.35 0.0727451 4.16236 0
M  V30 41690 H 4054.88 1.67808 3.60673 0
M  V30 41691 H 4051.62 4.40287 4.85621 0
M  V30 41692 H 4051.14 2.75631 5.32717 0
M  V30 41693 H 4052.82 3.30132 5.56437 0
M  V30 41694 N 4052.95 -1.32808 0.848511 0
M  V30 41695 C 4054.19 -1.99269 0.455096 0
M  V30 41696 C 4054.55 -1.65711 -0.969744 0
M  V30 41697 O 4055.76 -2.25213 -1.46739 0
M  V30 41698 C 4054.03 -3.50865 0.680356 0
M  V30 41699 S 4055.59 -4.3712 0.383598 0
M  V30 41700 H 4052.4 -0.690191 0.170754 0
M  V30 41701 H 4055.01 -1.61625 1.09989 0
M  V30 41702 H 4053.71 -3.72777 1.71655 0
M  V30 41703 H 4053.24 -3.93394 0.0217605 0
M  V30 41704 H 4055.26 -4.89825 -0.792832 0
M  V30 41705 N 4054.43 -0.605858 -1.45489 0
M  V30 41706 C 4055.34 0.115874 -2.34314 0
M  V30 41707 C 4056.35 0.862173 -1.51138 0
M  V30 41708 O 4057.53 0.820149 -1.83944 0
M  V30 41709 C 4054.6 1.10183 -3.28726 0
M  V30 41710 C 4053.66 0.357674 -4.27807 0
M  V30 41711 C 4052.89 1.29666 -5.17709 0
M  V30 41712 O 4053.11 2.53439 -5.11004 0
M  V30 41713 O 4052.05 0.794662 -5.96631 0
M  V30 41714 H 4055.87 -0.614034 -2.97428 0
M  V30 41715 H 4053.46 -0.366129 -1.44844 0
M  V30 41716 H 4055.34 1.66973 -3.86908 0
M  V30 41717 H 4054.01 1.81279 -2.68178 0
M  V30 41718 H 4052.92 -0.252653 -3.73246 0
M  V30 41719 H 4054.25 -0.312768 -4.91205 0
M  V30 41720 N 4055.91 1.53779 -0.34492 0
M  V30 41721 C 4057.13 2.05824 0.255192 0
M  V30 41722 C 4057.56 1.21815 1.43327 0
M  V30 41723 O 4056.91 0.232223 1.79807 0
M  V30 41724 C 4056.96 3.54751 0.646843 0
M  V30 41725 O 4056.07 3.73583 1.7467 0
M  V30 41726 H 4055.41 0.662668 0.0420402 0
M  V30 41727 H 4057.94 1.98408 -0.499533 0
M  V30 41728 H 4057.95 3.97408 0.923616 0
M  V30 41729 H 4056.62 4.15345 -0.214692 0
M  V30 41730 H 4055.2 3.42828 1.46709 0
M  V30 41731 N 4057.38 0.0735731 1.57428 0
M  V30 41732 C 4058.35 -0.878382 2.117 0
M  V30 41733 C 4059.35 -1.2252 1.04142 0
M  V30 41734 O 4060.54 -1.15818 1.30123 0
M  V30 41735 C 4057.67 -2.18124 2.61982 0
M  V30 41736 H 4058.86 -0.407498 2.97119 0
M  V30 41737 H 4056.42 -0.175156 1.55315 0
M  V30 41738 H 4057.15 -2.69745 1.80023 0
M  V30 41739 H 4056.94 -1.94248 3.40603 0
M  V30 41740 H 4058.43 -2.86268 3.0404 0
M  V30 41741 N 4058.86 -1.56326 -0.199995 0
M  V30 41742 C 4060.11 -1.7998 -0.919323 0
M  V30 41743 C 4060.43 -0.645799 -1.83996 0
M  V30 41744 O 4059.7 0.336152 -1.92994 0
M  V30 41745 H 4058.28 -0.663876 -0.342457 0
M  V30 41746 H 4060.94 -1.93801 -0.206679 0
M  V30 41747 H 4060.04 -2.72954 -1.51336 0
M  V30 41748 N 4060.34 0.467527 -1.50506 0
M  V30 41749 C 4061.57 1.24253 -1.65435 0
M  V30 41750 C 4061.98 1.85729 -0.33914 0
M  V30 41751 O 4061.34 1.69387 0.679286 0
M  V30 41752 C 4061.39 2.34866 -2.7481 0
M  V30 41753 O 4061.11 1.7591 -4.01232 0
M  V30 41754 C 4062.61 3.25681 -3.00743 0
M  V30 41755 H 4059.83 0.375649 -0.555993 0
M  V30 41756 H 4062.38 0.557649 -1.9675 0
M  V30 41757 H 4060.53 2.99123 -2.46179 0
M  V30 41758 H 4060.95 2.48779 -4.61746 0
M  V30 41759 H 4062.42 3.99497 -3.80928 0
M  V30 41760 H 4062.9 3.84672 -2.11953 0
M  V30 41761 H 4063.5 2.67157 -3.30919 0
M  V30 41762 N 4061.82 1.40143 0.720948 0
M  V30 41763 C 4062.75 1.35895 1.84568 0
M  V30 41764 C 4063.76 0.26526 1.60624 0
M  V30 41765 O 4064.95 0.525228 1.70598 0
M  V30 41766 C 4062.05 1.09069 3.20869 0
M  V30 41767 C 4061.23 2.29989 3.72054 0
M  V30 41768 C 4060.28 1.99406 4.86954 0
M  V30 41769 O 4059.31 2.72222 4.99884 0
M  V30 41770 N 4060.51 0.968746 5.7236 0
M  V30 41771 H 4063.28 2.32825 1.88713 0
M  V30 41772 H 4060.84 1.34427 0.902269 0
M  V30 41773 H 4062.83 0.866049 3.95325 0
M  V30 41774 H 4061.4 0.208243 3.11906 0
M  V30 41775 H 4060.62 2.68317 2.8879 0
M  V30 41776 H 4061.91 3.10612 4.02986 0
M  V30 41777 H 4061.31 0.365559 5.64518 0
M  V30 41778 H 4059.86 0.804 6.46822 0
M  V30 41779 N 4063.3 -0.952612 1.25551 0
M  V30 41780 C 4064.21 -2.08335 1.07859 0
M  V30 41781 C 4065.22 -1.73993 0.0151761 0
M  V30 41782 O 4066.4 -2.00233 0.216533 0
M  V30 41783 C 4063.46 -3.3953 0.701429 0
M  V30 41784 C 4062.52 -3.87727 1.843 0
M  V30 41785 C 4061.76 -5.12661 1.48374 0
M  V30 41786 O 4061.98 -5.69131 0.3803 0
M  V30 41787 O 4060.91 -5.55616 2.31462 0
M  V30 41788 H 4064.74 -2.26163 2.02692 0
M  V30 41789 H 4062.33 -1.06764 1.04508 0
M  V30 41790 H 4064.21 -4.18384 0.503304 0
M  V30 41791 H 4062.88 -3.22968 -0.217615 0
M  V30 41792 H 4061.79 -3.09869 2.096 0
M  V30 41793 H 4063.12 -4.08791 2.74136 0
M  V30 41794 N 4064.77 -1.0717 -1.15553 0
M  V30 41795 C 4066.05 -0.706916 -1.82379 0
M  V30 41796 C 4066.43 0.810813 -1.94908 0
M  V30 41797 O 4065.78 1.72453 -1.49908 0
M  V30 41798 C 4065.99 -1.41919 -3.18842 0
M  V30 41799 C 4067.34 -1.57011 -3.94503 0
M  V30 41800 O 4068.36 -1.37982 -3.28389 0
M  V30 41801 O 4067.22 -1.88306 -5.13033 0
M  V30 41802 H 4064.31 -0.251321 -0.787887 0
M  V30 41803 H 4066.86 -1.17251 -1.22679 0
M  V30 41804 H 4065.63 -2.4537 -3.0481 0
M  V30 41805 H 4065.26 -0.94425 -3.86225 0
M  V30 41806 N 4066.25 1.32356 -0.855542 0
M  V30 41807 C 4067.22 2.2715 -0.305834 0
M  V30 41808 C 4068.22 1.5164 0.534982 0
M  V30 41809 O 4069.41 1.70722 0.346364 0
M  V30 41810 C 4066.54 3.36148 0.567216 0
M  V30 41811 H 4067.73 2.77285 -1.1425 0
M  V30 41812 H 4065.28 1.43043 -0.629949 0
M  V30 41813 H 4066.02 2.91282 1.42566 0
M  V30 41814 H 4065.8 3.92085 -0.0346403 0
M  V30 41815 H 4067.29 4.06777 0.944573 0
M  V30 41816 N 4067.73 0.613565 1.45166 0
M  V30 41817 C 4068.69 -0.0919052 2.29016 0
M  V30 41818 C 4069.69 -0.789348 1.40093 0
M  V30 41819 O 4070.88 -0.636602 1.62151 0
M  V30 41820 C 4068.02 -1.14042 3.21259 0
M  V30 41821 H 4069.21 0.645368 2.92874 0
M  V30 41822 H 4066.76 0.372882 1.51787 0
M  V30 41823 H 4067.5 -1.90826 2.62213 0
M  V30 41824 H 4067.28 -0.644455 3.86768 0
M  V30 41825 H 4068.77 -1.63432 3.84291 0
M  V30 41826 N 4069.21 -1.53594 0.353071 0
M  V30 41827 C 4070.17 -2.23969 -0.486871 0
M  V30 41828 C 4071.17 -1.24317 -1.01989 0
M  V30 41829 O 4072.36 -1.48687 -0.907627 0
M  V30 41830 C 4069.49 -2.96674 -1.67921 0
M  V30 41831 H 4070.69 -2.99623 0.128759 0
M  V30 41832 H 4068.24 -1.5595 0.104561 0
M  V30 41833 H 4068.98 -2.25231 -2.33327 0
M  V30 41834 H 4068.76 -3.69778 -1.3041 0
M  V30 41835 H 4070.25 -3.50207 -2.27474 0
M  V30 41836 N 4070.69 -0.0819208 -1.57387 0
M  V30 41837 C 4071.62 0.879086 -2.1632 0
M  V30 41838 C 4072.6 1.3034 -1.09295 0
M  V30 41839 O 4073.78 1.37265 -1.37375 0
M  V30 41840 C 4070.91 2.14304 -2.73297 0
M  V30 41841 C 4069.87 1.85778 -3.85578 0
M  V30 41842 C 4069.19 3.1889 -4.29201 0
M  V30 41843 C 4070.49 1.15508 -5.09367 0
M  V30 41844 H 4072.19 0.388114 -2.96874 0
M  V30 41845 H 4069.73 0.18524 -1.42804 0
M  V30 41846 H 4071.69 2.81958 -3.13173 0
M  V30 41847 H 4070.41 2.65661 -1.89979 0
M  V30 41848 H 4069.07 1.20526 -3.46221 0
M  V30 41849 H 4068.72 3.68108 -3.42791 0
M  V30 41850 H 4068.42 3.00591 -5.04895 0
M  V30 41851 H 4069.94 3.87725 -4.71701 0
M  V30 41852 H 4071.36 1.73249 -5.46496 0
M  V30 41853 H 4069.75 1.07433 -5.90405 0
M  V30 41854 H 4070.82 0.135736 -4.8471 0
M  V30 41855 N 4072.17 1.5643 0.191702 0
M  V30 41856 C 4073.58 1.50091 0.542675 0
M  V30 41857 C 4073.78 0.782555 1.85683 0
M  V30 41858 O 4072.84 0.334476 2.50275 0
M  V30 41859 C 4074.15 2.94769 0.594274 0
M  V30 41860 C 4075.7 3.0546 0.682875 0
M  V30 41861 C 4076.17 4.51556 0.765555 0
M  V30 41862 N 4077.66 4.55721 0.828992 0
M  V30 41863 C 4078.4 5.66082 0.913191 0
M  V30 41864 N 4077.9 6.86124 0.959482 0
M  V30 41865 N 4079.69 5.54003 0.950642 0
M  V30 41866 H 4071.84 2.01547 -0.670276 0
M  V30 41867 H 4074.1 0.91733 -0.239184 0
M  V30 41868 H 4073.81 3.50398 -0.3023 0
M  V30 41869 H 4073.68 3.48308 1.44781 0
M  V30 41870 H 4076.07 2.49878 1.56988 0
M  V30 41871 H 4076.15 2.55041 -0.196924 0
M  V30 41872 H 4075.79 5.07765 -0.117111 0
M  V30 41873 H 4075.72 4.99711 1.66121 0
M  V30 41874 H 4078.22 3.69285 0.802326 0
M  V30 41875 H 4078.53 7.65981 1.02434 0
M  V30 41876 H 4076.87 6.88775 0.928102 0
M  V30 41877 H 4080.06 4.59143 0.911338 0
M  V30 41878 H 4080.24 6.40036 1.0128 0
M  V30 41879 N 4073.64 -0.459538 1.50751 0
M  V30 41880 C 4074.61 -1.53849 1.69892 0
M  V30 41881 C 4075.61 -1.50384 0.569334 0
M  V30 41882 O 4076.8 -1.52799 0.836554 0
M  V30 41883 C 4073.93 -2.93454 1.73486 0
M  V30 41884 H 4075.12 -1.38191 2.66164 0
M  V30 41885 H 4072.67 -0.686716 1.40406 0
M  V30 41886 H 4073.41 -3.14544 0.789481 0
M  V30 41887 H 4073.19 -2.97376 2.55558 0
M  V30 41888 H 4074.68 -3.71766 1.90209 0
M  V30 41889 N 4075.12 -1.40523 -0.713506 0
M  V30 41890 C 4076.37 -1.38914 -1.4734 0
M  V30 41891 C 4076.7 0.00784033 -1.94498 0
M  V30 41892 O 4075.95 0.992756 -1.6865 0
M  V30 41893 C 4076.25 -2.32686 -2.71279 0
M  V30 41894 C 4075.92 -3.79898 -2.42875 0
M  V30 41895 C 4074.58 -4.20005 -2.34838 0
M  V30 41896 C 4076.93 -4.72918 -2.19085 0
M  V30 41897 C 4074.26 -5.51165 -2.01083 0
M  V30 41898 C 4076.61 -6.04378 -1.86842 0
M  V30 41899 C 4075.27 -6.43525 -1.77289 0
M  V30 41900 H 4074.54 -0.508322 -0.539157 0
M  V30 41901 H 4077.19 -1.73192 -0.817107 0
M  V30 41902 H 4075.5 -1.91599 -3.41756 0
M  V30 41903 H 4077.19 -2.28723 -3.29374 0
M  V30 41904 H 4073.78 -3.48123 -2.50017 0
M  V30 41905 H 4077.97 -4.42749 -2.24248 0
M  V30 41906 H 4073.22 -5.80396 -1.92226 0
M  V30 41907 H 4077.4 -6.75969 -1.67448 0
M  V30 41908 H 4075.02 -7.45073 -1.509 0
M  V30 41909 N 4076.6 0.94594 -1.26054 0
M  V30 41910 C 4077.83 1.72606 -1.14082 0
M  V30 41911 C 4078.24 1.86329 0.304473 0
M  V30 41912 O 4077.6 1.36725 1.20882 0
M  V30 41913 C 4077.65 3.13532 -1.79944 0
M  V30 41914 O 4077.37 3.00471 -3.18824 0
M  V30 41915 C 4078.87 4.07782 -1.73864 0
M  V30 41916 H 4076.09 0.540591 -0.397495 0
M  V30 41917 H 4078.64 1.18617 -1.66584 0
M  V30 41918 H 4076.79 3.64438 -1.31391 0
M  V30 41919 H 4077.21 3.89433 -3.51344 0
M  V30 41920 H 4078.68 5.04244 -2.24592 0
M  V30 41921 H 4079.16 4.33518 -0.704171 0
M  V30 41922 H 4079.76 3.62795 -2.21945 0
M  V30 41923 N 4078.08 1.07781 1.14983 0
M  V30 41924 C 4078.99 0.713615 2.23483 0
M  V30 41925 C 4080 -0.277073 1.7178 0
M  V30 41926 O 4081.18 -0.122614 2.01026 0
M  V30 41927 C 4078.24 0.121603 3.46487 0
M  V30 41928 C 4077.31 1.16609 4.1316 0
M  V30 41929 C 4076.54 0.602231 5.30291 0
M  V30 41930 O 4076.76 -0.580336 5.6744 0
M  V30 41931 O 4075.7 1.34922 5.86583 0
M  V30 41932 H 4079.52 1.61857 2.56975 0
M  V30 41933 H 4077.11 0.851059 1.2279 0
M  V30 41934 H 4078.99 -0.20606 4.20896 0
M  V30 41935 H 4077.66 -0.756603 3.14734 0
M  V30 41936 H 4076.57 1.54618 3.40653 0
M  V30 41937 H 4077.9 2.01635 4.49004 0
M  V30 41938 N 4079.56 -1.31901 0.862549 0
M  V30 41939 C 4080.52 -2.26985 0.317876 0
M  V30 41940 C 4081.52 -1.51921 -0.526932 0
M  V30 41941 O 4082.71 -1.70903 -0.337306 0
M  V30 41942 C 4079.84 -3.36444 -0.549381 0
M  V30 41943 H 4081.03 -2.76675 1.15719 0
M  V30 41944 H 4078.59 -1.42707 0.637526 0
M  V30 41945 H 4079.32 -2.92034 -1.41019 0
M  V30 41946 H 4079.11 -3.92061 0.0554331 0
M  V30 41947 H 4080.6 -4.07272 -0.922987 0
M  V30 41948 N 4081.03 -0.621255 -1.44838 0
M  V30 41949 C 4081.97 0.138673 -2.27778 0
M  V30 41950 C 4082.95 0.860684 -1.37953 0
M  V30 41951 O 4084.13 0.866783 -1.67389 0
M  V30 41952 C 4081.26 1.20204 -3.16652 0
M  V30 41953 C 4080.3 0.581658 -4.22515 0
M  V30 41954 S 4081.14 -0.620821 -5.31889 0
M  V30 41955 C 4082.29 0.442803 -6.24332 0
M  V30 41956 H 4082.52 -0.564964 -2.91883 0
M  V30 41957 H 4080.06 -0.409146 -1.4888 0
M  V30 41958 H 4082.02 1.81065 -3.6841 0
M  V30 41959 H 4080.68 1.87782 -2.51787 0
M  V30 41960 H 4079.87 1.3822 -4.84676 0
M  V30 41961 H 4079.47 0.0478921 -3.73969 0
M  V30 41962 H 4081.76 1.31812 -6.64554 0
M  V30 41963 H 4082.71 -0.142986 -7.07956 0
M  V30 41964 H 4083.11 0.764269 -5.59302 0
M  V30 41965 N 4082.51 1.53405 -0.361211 0
M  V30 41966 C 4083.74 2.05609 0.230729 0
M  V30 41967 C 4084.16 1.23502 1.42803 0
M  V30 41968 O 4083.51 0.274614 1.80422 0
M  V30 41969 C 4083.56 3.55994 0.628509 0
M  V30 41970 O 4083.28 4.34989 -0.5212 0
M  V30 41971 C 4084.79 4.24439 1.2793 0
M  V30 41972 H 4082.01 0.669721 0.0414075 0
M  V30 41973 H 4084.55 1.97822 -0.518316 0
M  V30 41974 H 4082.7 3.63946 1.32747 0
M  V30 41975 H 4083.12 5.24116 -0.200576 0
M  V30 41976 H 4084.59 5.30996 1.50823 0
M  V30 41977 H 4085.07 3.77886 2.23827 0
M  V30 41978 H 4085.68 4.20729 0.621887 0
M  V30 41979 N 4083.99 0.0902663 1.57341 0
M  V30 41980 C 4085.41 -0.266386 1.57361 0
M  V30 41981 C 4085.61 -1.68756 1.10107 0
M  V30 41982 O 4084.66 -2.40302 0.775329 0
M  V30 41983 C 4085.98 -0.0592132 3.00642 0
M  V30 41984 C 4087.52 -0.127334 3.12741 0
M  V30 41985 C 4088 0.0517847 4.57971 0
M  V30 41986 N 4089.49 -0.00321028 4.632 0
M  V30 41987 C 4090.22 0.110699 5.73293 0
M  V30 41988 N 4089.72 0.279171 6.92237 0
M  V30 41989 N 4091.51 0.0523135 5.62076 0
M  V30 41990 H 4083.66 1.01887 1.86367 0
M  V30 41991 H 4085.93 0.398901 0.859989 0
M  V30 41992 H 4085.63 0.922177 3.39395 0
M  V30 41993 H 4085.51 -0.803615 3.6854 0
M  V30 41994 H 4087.89 -1.09922 2.73863 0
M  V30 41995 H 4087.98 0.648478 2.47444 0
M  V30 41996 H 4087.62 1.02052 4.97542 0
M  V30 41997 H 4087.55 -0.743661 5.21323 0
M  V30 41998 H 4090.04 -0.131079 3.77673 0
M  V30 41999 H 4090.35 0.357732 7.71972 0
M  V30 42000 H 4088.7 0.314775 6.94287 0
M  V30 42001 H 4091.89 -0.0781366 4.68035 0
M  V30 42002 H 4092.06 0.144537 6.47839 0
M  V30 42003 N 4085.47 -1.56529 -0.183403 0
M  V30 42004 C 4086.7 -1.85158 -0.916524 0
M  V30 42005 C 4087.11 -0.672094 -1.7686 0
M  V30 42006 O 4086.45 0.368268 -1.79971 0
M  V30 42007 C 4086.51 -3.08043 -1.85336 0
M  V30 42008 C 4086.18 -4.41447 -1.18209 0
M  V30 42009 C 4087.17 -5.16947 -0.553354 0
M  V30 42010 C 4084.86 -4.88184 -1.18245 0
M  V30 42011 C 4086.85 -6.37366 0.0660542 0
M  V30 42012 C 4084.54 -6.08536 -0.559209 0
M  V30 42013 C 4085.54 -6.8297 0.0639501 0
M  V30 42014 O 4085.22 -8.01041 0.677392 0
M  V30 42015 H 4084.96 -0.618718 -0.272332 0
M  V30 42016 H 4087.51 -2.045 -0.192049 0
M  V30 42017 H 4085.74 -2.84616 -2.61784 0
M  V30 42018 H 4087.43 -3.2322 -2.45528 0
M  V30 42019 H 4088.2 -4.81927 -0.545134 0
M  V30 42020 H 4084.07 -4.30196 -1.65689 0
M  V30 42021 H 4087.62 -6.95404 0.553057 0
M  V30 42022 H 4083.52 -6.43023 -0.564971 0
M  V30 42023 H 4084.28 -8.16475 0.575448 0
M  V30 42024 N 4086.95 0.451537 -1.50993 0
M  V30 42025 C 4088.17 1.22955 -1.67023 0
M  V30 42026 C 4088.6 1.846 -0.361182 0
M  V30 42027 O 4087.95 1.68179 0.677164 0
M  V30 42028 C 4088 2.29975 -2.77748 0
M  V30 42029 O 4087.11 3.35112 -2.40362 0
M  V30 42030 H 4086.45 0.360872 -0.557375 0
M  V30 42031 H 4088.98 0.535038 -1.9748 0
M  V30 42032 H 4088.99 2.74983 -3.01411 0
M  V30 42033 H 4087.66 1.84482 -3.72746 0
M  V30 42034 H 4086.24 2.95679 -2.27219 0
M  V30 42035 N 4088.42 1.409 0.706044 0
M  V30 42036 C 4089.39 1.41659 1.80181 0
M  V30 42037 C 4090.39 0.308851 1.57806 0
M  V30 42038 O 4091.58 0.568226 1.64672 0
M  V30 42039 C 4088.71 1.21771 3.1841 0
M  V30 42040 H 4089.9 2.39194 1.80904 0
M  V30 42041 H 4087.46 1.26888 0.912635 0
M  V30 42042 H 4088.19 0.250345 3.23332 0
M  V30 42043 H 4087.98 2.0202 3.36051 0
M  V30 42044 H 4089.47 1.25113 3.98418 0
M  V30 42045 N 4089.9 -0.939242 1.26554 0
M  V30 42046 C 4091.31 -1.50049 1.11096 0
M  V30 42047 C 4091.66 -1.93766 -0.308071 0
M  V30 42048 O 4090.79 -1.80095 -1.19977 0
M  V30 42049 C 4091.38 -2.72692 2.01058 0
M  V30 42050 C 4089.94 -3.25078 1.8974 0
M  V30 42051 C 4089.09 -1.97851 1.94294 0
M  V30 42052 H 4092.04 -0.754528 1.39616 0
M  V30 42053 H 4092.06 -3.47068 1.55961 0
M  V30 42054 H 4091.57 -2.40843 3.04329 0
M  V30 42055 H 4089.68 -3.61713 0.894105 0
M  V30 42056 H 4089.79 -3.92053 2.75374 0
M  V30 42057 H 4088.15 -2.13835 1.38371 0
M  V30 42058 H 4088.94 -1.6833 2.99199 0
M  V30 42059 N 4091.38 -1.08389 -1.14409 0
M  V30 42060 C 4092.79 -0.834509 -1.67011 0
M  V30 42061 C 4093.14 0.638769 -1.85511 0
M  V30 42062 O 4092.27 1.49336 -1.56614 0
M  V30 42063 C 4092.86 -1.5083 -3.03374 0
M  V30 42064 C 4091.42 -1.30616 -3.53011 0
M  V30 42065 C 4090.57 -1.57121 -2.28491 0
M  V30 42066 H 4093.52 -1.2445 -0.984772 0
M  V30 42067 H 4093.54 -0.935416 -3.68823 0
M  V30 42068 H 4093.05 -2.58055 -2.89878 0
M  V30 42069 H 4091.15 -0.254604 -3.71729 0
M  V30 42070 H 4091.27 -2.03367 -4.33796 0
M  V30 42071 H 4089.63 -0.992751 -2.34556 0
M  V30 42072 H 4090.41 -2.65551 -2.17572 0
M  V30 42073 N 4092.86 1.31442 -0.869532 0
M  V30 42074 C 4094.11 1.96334 -0.4793 0
M  V30 42075 C 4094.43 1.69074 0.971553 0
M  V30 42076 O 4093.7 1.00591 1.68102 0
M  V30 42077 H 4092.28 0.726391 -0.174254 0
M  V30 42078 H 4094.94 1.60257 -1.10922 0
M  V30 42079 H 4094.04 3.05537 -0.636681 0
M  V30 42080 N 4094.34 0.628927 1.44507 0
M  V30 42081 C 4095.61 0.063554 1.95497 0
M  V30 42082 C 4095.99 -1.41012 1.57095 0
M  V30 42083 O 4095.34 -2.12344 0.843932 0
M  V30 42084 C 4095.55 0.284112 3.47842 0
M  V30 42085 C 4096.9 0.176148 4.24234 0
M  V30 42086 O 4097.92 0.215361 3.55548 0
M  V30 42087 O 4096.78 0.0792263 5.46443 0
M  V30 42088 H 4093.88 -0.0235683 0.826664 0
M  V30 42089 H 4096.42 0.700478 1.54568 0
M  V30 42090 H 4095.19 1.30677 3.68835 0
M  V30 42091 H 4094.82 -0.387056 3.95712 0
M  V30 42092 N 4095.82 -1.53211 0.369342 0
M  V30 42093 C 4097.23 -1.86381 -0.109057 0
M  V30 42094 C 4097.58 -1.2898 -1.47847 0
M  V30 42095 O 4096.7 -0.613304 -2.07527 0
M  V30 42096 C 4097.3 -3.38181 -0.204667 0
M  V30 42097 C 4095.86 -3.71136 -0.627326 0
M  V30 42098 C 4095 -2.76401 0.223134 0
M  V30 42099 H 4097.95 -1.47405 0.587993 0
M  V30 42100 H 4097.98 -3.66363 -1.02754 0
M  V30 42101 H 4097.49 -3.7993 0.792149 0
M  V30 42102 H 4095.59 -3.34946 -1.63223 0
M  V30 42103 H 4095.7 -4.77433 -0.399327 0
M  V30 42104 H 4094.07 -2.52824 -0.308563 0
M  V30 42105 H 4094.85 -3.20983 1.21756 0
M  V30 42106 N 4097.29 -0.0986092 -1.57291 0
M  V30 42107 C 4098.7 0.429977 -1.81681 0
M  V30 42108 C 4099.06 1.67938 -1.01446 0
M  V30 42109 O 4098.18 2.1501 -0.244886 0
M  V30 42110 C 4098.78 0.786861 -3.29536 0
M  V30 42111 C 4097.33 1.26018 -3.54678 0
M  V30 42112 C 4096.48 0.258594 -2.76092 0
M  V30 42113 H 4099.43 -0.324009 -1.55357 0
M  V30 42114 H 4099.45 1.6461 -3.43051 0
M  V30 42115 H 4098.97 -0.122659 -3.87906 0
M  V30 42116 H 4097.07 2.18729 -3.01643 0
M  V30 42117 H 4097.18 1.21958 -4.63317 0
M  V30 42118 H 4095.54 0.741464 -2.43669 0
M  V30 42119 H 4096.33 -0.643667 -3.37212 0
M  V30 42120 N 4098.77 1.56624 0.175099 0
M  V30 42121 C 4099.7 1.92675 1.24134 0
M  V30 42122 C 4100.72 0.819442 1.40673 0
M  V30 42123 O 4101.91 1.09788 1.40744 0
M  V30 42124 C 4099.01 2.16105 2.61059 0
M  V30 42125 C 4098.18 3.47323 2.65868 0
M  V30 42126 C 4097.24 3.59625 3.8413 0
M  V30 42127 O 4096.26 4.32277 3.70304 0
M  V30 42128 N 4097.47 2.94194 5.0043 0
M  V30 42129 H 4100.23 2.84736 0.935167 0
M  V30 42130 H 4097.79 1.57734 0.364891 0
M  V30 42131 H 4099.78 2.21603 3.38636 0
M  V30 42132 H 4098.35 1.30445 2.84082 0
M  V30 42133 H 4097.57 3.53515 1.74415 0
M  V30 42134 H 4098.86 4.33676 2.66088 0
M  V30 42135 H 4098.26 2.35033 5.14564 0
M  V30 42136 H 4096.82 3.05294 5.75881 0
M  V30 42137 N 4100.25 -0.443523 1.5123 0
M  V30 42138 C 4101.66 -1.02359 1.56139 0
M  V30 42139 C 4102.01 -1.92462 0.381169 0
M  V30 42140 O 4101.14 -2.10478 -0.50278 0
M  V30 42141 C 4101.73 -1.86315 2.8297 0
M  V30 42142 C 4100.29 -2.39383 2.9047 0
M  V30 42143 C 4099.44 -1.18433 2.50737 0
M  V30 42144 H 4102.39 -0.225033 1.57096 0
M  V30 42145 H 4102.41 -2.71699 2.66383 0
M  V30 42146 H 4101.92 -1.20711 3.6885 0
M  V30 42147 H 4100.02 -3.0846 2.09006 0
M  V30 42148 H 4100.14 -2.72603 3.93985 0
M  V30 42149 H 4098.5 -1.52774 2.03794 0
M  V30 42150 H 4099.28 -0.544489 3.38955 0
M  V30 42151 N 4101.73 -1.41272 -0.698562 0
M  V30 42152 C 4102.64 -1.45237 -1.84237 0
M  V30 42153 C 4103.65 -0.343255 -1.70581 0
M  V30 42154 O 4104.83 -0.590511 -1.92549 0
M  V30 42155 C 4101.89 -1.32957 -3.20193 0
M  V30 42156 C 4100.96 -2.54159 -3.4598 0
M  V30 42157 C 4100.19 -2.42455 -4.75449 0
M  V30 42158 O 4100.41 -1.4475 -5.51728 0
M  V30 42159 O 4099.35 -3.32156 -5.01952 0
M  V30 42160 H 4103.17 -2.4173 -1.83848 0
M  V30 42161 H 4100.76 -1.22778 -0.85123 0
M  V30 42162 H 4102.64 -1.28381 -4.01368 0
M  V30 42163 H 4101.31 -0.395784 -3.21271 0
M  V30 42164 H 4100.22 -2.64311 -2.64746 0
M  V30 42165 H 4101.55 -3.46355 -3.49712 0
M  V30 42166 N 4103.21 0.932517 -1.27051 0
M  V30 42167 C 4104.44 1.71138 -1.15738 0
M  V30 42168 C 4104.84 1.86979 0.289036 0
M  V30 42169 O 4104.19 1.38304 1.20903 0
M  V30 42170 C 4104.25 3.13289 -1.76325 0
M  V30 42171 C 4103.91 3.20802 -3.25477 0
M  V30 42172 C 4104.91 3.03418 -4.22177 0
M  V30 42173 C 4102.59 3.43915 -3.66098 0
M  V30 42174 C 4104.59 3.09028 -5.57477 0
M  V30 42175 C 4102.28 3.49159 -5.01529 0
M  V30 42176 C 4103.27 3.31734 -5.97028 0
M  V30 42177 O 4102.96 3.36703 -7.2999 0
M  V30 42178 H 4102.69 0.542365 -0.403504 0
M  V30 42179 H 4105.25 1.17695 -1.68336 0
M  V30 42180 H 4103.48 3.68193 -1.18199 0
M  V30 42181 H 4105.17 3.73123 -1.59795 0
M  V30 42182 H 4105.93 2.85408 -3.92132 0
M  V30 42183 H 4101.81 3.56531 -2.92244 0
M  V30 42184 H 4105.36 2.95345 -6.31995 0
M  V30 42185 H 4101.25 3.66692 -5.31232 0
M  V30 42186 H 4102.02 3.5319 -7.38376 0
M  V30 42187 N 4104.68 1.08995 1.13833 0
M  V30 42188 C 4105.96 0.735841 1.81231 0
M  V30 42189 C 4106.34 -0.779703 1.96173 0
M  V30 42190 O 4105.69 -1.70046 1.52632 0
M  V30 42191 C 4105.9 1.46974 3.16543 0
M  V30 42192 C 4107.25 1.63267 3.91955 0
M  V30 42193 O 4108.27 1.43189 3.26153 0
M  V30 42194 O 4107.13 1.96444 5.09972 0
M  V30 42195 H 4104.22 0.263824 0.783789 0
M  V30 42196 H 4106.77 1.19188 1.20798 0
M  V30 42197 H 4105.54 2.50188 3.00868 0
M  V30 42198 H 4105.16 1.00558 3.84674 0
M  V30 42199 N 4106.16 -1.30979 0.87649 0
M  V30 42200 C 4107.09 -2.30817 0.352965 0
M  V30 42201 C 4108.07 -1.6063 -0.559647 0
M  V30 42202 O 4109.26 -1.88294 -0.475293 0
M  V30 42203 C 4106.39 -3.44492 -0.440767 0
M  V30 42204 C 4105.34 -4.26316 0.379328 0
M  V30 42205 C 4104.67 -5.31961 -0.540489 0
M  V30 42206 C 4105.97 -4.96642 1.6169 0
M  V30 42207 H 4107.66 -2.74854 1.18724 0
M  V30 42208 H 4105.21 -1.32137 0.572339 0
M  V30 42209 H 4107.16 -4.13393 -0.817588 0
M  V30 42210 H 4105.88 -2.99237 -1.30861 0
M  V30 42211 H 4104.54 -3.59091 0.73818 0
M  V30 42212 H 4104.19 -4.82956 -1.4058 0
M  V30 42213 H 4103.89 -5.876 0.00437462 0
M  V30 42214 H 4105.42 -6.0372 -0.914012 0
M  V30 42215 H 4106.83 -5.58105 1.31115 0
M  V30 42216 H 4105.23 -5.62107 2.10132 0
M  V30 42217 H 4106.3 -4.23254 2.36609 0
M  V30 42218 N 4107.64 -0.636582 -1.44171 0
M  V30 42219 C 4108.55 0.0661465 -2.34507 0
M  V30 42220 C 4109.57 0.82992 -1.52932 0
M  V30 42221 O 4110.74 0.780947 -1.85643 0
M  V30 42222 C 4107.81 1.03185 -3.30989 0
M  V30 42223 C 4106.87 0.266849 -4.2847 0
M  V30 42224 C 4106.1 1.18655 -5.20343 0
M  V30 42225 O 4106.32 2.42543 -5.16265 0
M  V30 42226 O 4105.26 0.667929 -5.98183 0
M  V30 42227 H 4109.08 -0.676984 -2.96058 0
M  V30 42228 H 4106.67 -0.39677 -1.44035 0
M  V30 42229 H 4108.55 1.58729 -3.90363 0
M  V30 42230 H 4107.23 1.7555 -2.71963 0
M  V30 42231 H 4106.13 -0.331767 -3.72626 0
M  V30 42232 H 4107.47 -0.41689 -4.90431 0
M  V30 42233 N 4109.12 1.53013 -0.377462 0
M  V30 42234 C 4110.05 2.29023 0.455063 0
M  V30 42235 C 4111.03 1.31928 1.07373 0
M  V30 42236 O 4112.21 1.60811 1.08874 0
M  V30 42237 C 4109.34 3.08829 1.58878 0
M  V30 42238 C 4108.3 4.13709 1.09676 0
M  V30 42239 C 4107.62 4.81668 2.32163 0
M  V30 42240 C 4108.92 5.22013 0.173073 0
M  V30 42241 H 4110.62 2.98864 -0.179105 0
M  V30 42242 H 4108.16 1.43733 -0.0875802 0
M  V30 42243 H 4110.12 3.60756 2.17792 0
M  V30 42244 H 4108.84 2.36699 2.25036 0
M  V30 42245 H 4107.5 3.62745 0.530227 0
M  V30 42246 H 4107.15 4.06099 2.96804 0
M  V30 42247 H 4106.85 5.52549 1.99909 0
M  V30 42248 H 4108.37 5.36395 2.91742 0
M  V30 42249 H 4109.79 5.69371 0.670045 0
M  V30 42250 H 4108.18 6.00071 -0.0591518 0
M  V30 42251 H 4109.25 4.78562 -0.781423 0
M  V30 42252 N 4110.6 0.106949 1.57237 0
M  V30 42253 C 4111.85 -0.553699 1.93951 0
M  V30 42254 C 4112.16 -1.68596 0.991707 0
M  V30 42255 O 4113.36 -2.40855 1.25303 0
M  V30 42256 C 4111.82 -1.03634 3.44656 0
M  V30 42257 C 4111.43 0.0668099 4.4795 0
M  V30 42258 C 4113.17 -1.66904 3.90312 0
M  V30 42259 C 4111.08 -0.431849 5.89821 0
M  V30 42260 H 4110.01 -0.210608 0.723989 0
M  V30 42261 H 4112.66 0.184862 1.82566 0
M  V30 42262 H 4111.04 -1.82895 3.51234 0
M  V30 42263 H 4112.22 0.842704 4.53029 0
M  V30 42264 H 4110.53 0.60543 4.11975 0
M  V30 42265 H 4113.13 -2.05306 4.93714 0
M  V30 42266 H 4113.47 -2.54281 3.29616 0
M  V30 42267 H 4114 -0.942051 3.86484 0
M  V30 42268 H 4110.74 0.405584 6.54244 0
M  V30 42269 H 4110.26 -1.17449 5.88189 0
M  V30 42270 H 4111.94 -0.896991 6.40752 0
M  V30 42271 N 4112.07 -1.56715 -0.166791 0
M  V30 42272 C 4113.3 -1.8639 -0.898137 0
M  V30 42273 C 4113.72 -0.692868 -1.75627 0
M  V30 42274 O 4113.07 0.337916 -1.79344 0
M  V30 42275 C 4113.13 -3.15138 -1.77116 0
M  V30 42276 O 4112.85 -4.27728 -0.94764 0
M  V30 42277 C 4114.35 -3.58191 -2.61179 0
M  V30 42278 H 4111.57 -0.618285 -0.2607 0
M  V30 42279 H 4114.11 -2.03829 -0.165525 0
M  V30 42280 H 4112.27 -2.99512 -2.45706 0
M  V30 42281 H 4112.68 -5.01224 -1.54514 0
M  V30 42282 H 4114.15 -4.51168 -3.18044 0
M  V30 42283 H 4114.63 -2.82526 -3.36268 0
M  V30 42284 H 4115.24 -3.76444 -1.97913 0
M  V30 42285 N 4113.55 0.435497 -1.51463 0
M  V30 42286 C 4114.78 1.21177 -1.68318 0
M  V30 42287 C 4115.2 1.84206 -0.380741 0
M  V30 42288 O 4114.56 1.68888 0.659288 0
M  V30 42289 C 4114.61 2.27016 -2.80172 0
M  V30 42290 O 4113.71 3.32543 -2.43903 0
M  V30 42291 H 4113.05 0.35494 -0.561171 0
M  V30 42292 H 4115.58 0.514062 -1.98037 0
M  V30 42293 H 4115.59 2.71771 -3.0431 0
M  V30 42294 H 4114.27 1.80518 -3.74681 0
M  V30 42295 H 4112.85 2.93252 -2.30343 0
M  V30 42296 N 4115.03 1.41641 0.69106 0
M  V30 42297 C 4116.27 1.42712 1.46331 0
M  V30 42298 C 4116.63 0.0362451 1.91966 0
M  V30 42299 O 4117.84 -0.0782668 2.68686 0
M  V30 42300 C 4116.11 2.40959 2.63958 0
M  V30 42301 S 4117.67 2.60597 3.53037 0
M  V30 42302 H 4114.48 0.505501 0.49999 0
M  V30 42303 H 4117.09 1.78115 0.80594 0
M  V30 42304 H 4115.79 3.40808 2.28643 0
M  V30 42305 H 4115.32 2.06924 3.34583 0
M  V30 42306 H 4117.34 1.87676 4.59339 0
M  V30 42307 N 4116.51 -0.925766 1.27543 0
M  V30 42308 C 4117.73 -1.71299 1.16924 0
M  V30 42309 C 4118.16 -1.86151 -0.27005 0
M  V30 42310 O 4117.52 -1.36295 -1.19555 0
M  V30 42311 C 4117.56 -3.0893 1.85996 0
M  V30 42312 O 4116.67 -3.95772 1.15924 0
M  V30 42313 H 4116.01 -0.524988 0.406551 0
M  V30 42314 H 4118.54 -1.1584 1.68648 0
M  V30 42315 H 4118.55 -3.59233 1.9343 0
M  V30 42316 H 4117.22 -2.97437 2.90695 0
M  V30 42317 H 4115.8 -3.54211 1.16571 0
M  V30 42318 N 4117.99 -1.09597 -1.13253 0
M  V30 42319 C 4119.21 -0.855137 -1.8895 0
M  V30 42320 C 4119.64 0.588143 -1.78669 0
M  V30 42321 O 4118.99 1.41339 -1.13547 0
M  V30 42322 C 4119.04 -1.29723 -3.36458 0
M  V30 42323 O 4118.15 -0.456789 -4.09862 0
M  V30 42324 H 4117.49 -0.309557 -0.587427 0
M  V30 42325 H 4120.02 -1.46055 -1.4328 0
M  V30 42326 H 4120.03 -1.2834 -3.87289 0
M  V30 42327 H 4118.7 -2.34832 -3.43259 0
M  V30 42328 H 4117.28 -0.535091 -3.69041 0
M  V30 42329 N 4119.46 1.30512 -0.883424 0
M  V30 42330 C 4120.41 2.30124 -0.338501 0
M  V30 42331 C 4121.41 1.60097 0.553658 0
M  V30 42332 O 4122.61 1.74583 0.438264 0
M  V30 42333 H 4118.99 0.746497 -0.0908058 0
M  V30 42334 H 4120.96 2.73544 -1.19232 0
M  V30 42335 C 4119.71 3.44989 0.433329 0
M  V30 42336 H 4119.03 3.99055 -0.243917 0
M  V30 42337 H 4120.47 4.16769 0.779734 0
M  V30 42338 C 4118.93 2.94854 1.62981 0
M  V30 42339 O 4119.46 2.94753 2.72917 0
M  V30 42340 N 4117.67 2.50886 1.46645 0
M  V30 42341 H 4117.21 2.51167 0.572091 0
M  V30 42342 H 4117.17 2.17698 2.26837 0
M  V30 42343 N 4120.94 0.644219 1.43832 0
M  V30 42344 C 4122.19 0.15419 2.02213 0
M  V30 42345 C 4122.52 -1.22548 1.5065 0
M  V30 42346 O 4121.8 -1.81624 0.695902 0
M  V30 42347 C 4122.08 0.15517 3.59766 0
M  V30 42348 C 4121.93 1.56812 4.21581 0
M  V30 42349 C 4123.25 -0.513288 4.37097 0
M  V30 42350 H 4120.37 0.0575042 0.734753 0
M  V30 42351 H 4123.01 0.823189 1.71241 0
M  V30 42352 H 4121.16 -0.4145 3.86282 0
M  V30 42353 H 4122.83 2.18768 4.06126 0
M  V30 42354 H 4121.08 2.11811 3.78575 0
M  V30 42355 H 4121.75 1.52073 5.30639 0
M  V30 42356 H 4124.22 -0.0286937 4.1609 0
M  V30 42357 H 4123.1 -0.48184 5.46781 0
M  V30 42358 H 4123.36 -1.5859 4.12676 0
M  V30 42359 N 4122.42 -1.52811 0.385571 0
M  V30 42360 C 4123.65 -2.06428 -0.200532 0
M  V30 42361 C 4124.07 -1.25572 -1.40047 0
M  V30 42362 O 4123.43 -0.279814 -1.79128 0
M  V30 42363 C 4123.48 -3.56341 -0.55256 0
M  V30 42364 O 4122.58 -3.78082 -1.64704 0
M  V30 42365 H 4121.92 -0.663549 -0.024456 0
M  V30 42366 H 4124.45 -1.97014 0.551962 0
M  V30 42367 H 4124.46 -3.99717 -0.817925 0
M  V30 42368 H 4123.14 -4.1463 0.324738 0
M  V30 42369 H 4121.71 -3.46597 -1.37568 0
M  V30 42370 N 4123.9 -0.115287 -1.57178 0
M  V30 42371 C 4125.14 0.544416 -1.95356 0
M  V30 42372 C 4125.48 1.66566 -0.998474 0
M  V30 42373 O 4124.75 1.94468 -0.0350335 0
M  V30 42374 C 4125.04 1.08061 -3.43504 0
M  V30 42375 C 4124.89 -0.0369585 -4.49785 0
M  V30 42376 C 4126.21 1.97266 -3.93414 0
M  V30 42377 H 4123.33 0.196427 -0.710342 0
M  V30 42378 H 4125.97 -0.190093 -1.89047 0
M  V30 42379 H 4124.12 1.70655 -3.49011 0
M  V30 42380 H 4125.79 -0.672097 -4.56378 0
M  V30 42381 H 4124.03 -0.700614 -4.28105 0
M  V30 42382 H 4124.7 0.379384 -5.50695 0
M  V30 42383 H 4127.18 1.44548 -3.90186 0
M  V30 42384 H 4126.06 2.31702 -4.976 0
M  V30 42385 H 4126.32 2.89776 -3.3389 0
M  V30 42386 N 4125.38 1.56801 0.158477 0
M  V30 42387 C 4126.34 1.96501 1.17983 0
M  V30 42388 C 4127.34 0.850151 1.36488 0
M  V30 42389 O 4128.53 1.11698 1.33676 0
M  V30 42390 C 4125.66 2.27099 2.54241 0
M  V30 42391 H 4126.86 2.8791 0.839527 0
M  V30 42392 H 4124.41 1.51058 0.401404 0
M  V30 42393 H 4125.14 1.38446 2.93263 0
M  V30 42394 H 4124.93 3.08374 2.42173 0
M  V30 42395 H 4126.42 2.58691 3.27824 0
M  V30 42396 N 4126.86 -0.427458 1.51692 0
M  V30 42397 C 4127.81 -1.5182 1.70102 0
M  V30 42398 C 4128.79 -1.51027 0.554934 0
M  V30 42399 O 4129.98 -1.57314 0.81126 0
M  V30 42400 C 4127.11 -2.89924 1.83845 0
M  V30 42401 C 4126.2 -2.95435 3.04268 0
M  V30 42402 N 4126.59 -2.70673 4.27282 0
M  V30 42403 C 4124.89 -3.26599 3.03725 0
M  V30 42404 C 4125.59 -2.82281 5.08618 0
M  V30 42405 N 4124.56 -3.14376 4.43473 0
M  V30 42406 H 4128.36 -1.31442 2.62869 0
M  V30 42407 H 4125.88 -0.634913 1.49474 0
M  V30 42408 H 4127.88 -3.68407 1.95146 0
M  V30 42409 H 4126.54 -3.11315 0.922654 0
M  V30 42410 H 4127.55 -2.45413 4.56062 0
M  V30 42411 H 4124.22 -3.53701 2.21815 0
M  V30 42412 H 4125.61 -2.67006 6.16569 0
M  V30 42413 N 4128.33 -1.42005 -0.683539 0
M  V30 42414 C 4129.61 -1.32494 -1.43892 0
M  V30 42415 C 4129.99 0.041833 -2.11059 0
M  V30 42416 O 4129.34 1.05682 -2.02592 0
M  V30 42417 C 4129.55 -2.48694 -2.44852 0
M  V30 42418 C 4130.9 -2.90411 -3.09753 0
M  V30 42419 O 4131.92 -2.48521 -2.55178 0
M  V30 42420 O 4130.78 -3.62887 -4.08626 0
M  V30 42421 H 4127.87 -0.522055 -0.641395 0
M  V30 42422 H 4130.42 -1.53995 -0.713 0
M  V30 42423 H 4129.19 -3.39847 -1.93958 0
M  V30 42424 H 4128.81 -2.29133 -3.24937 0
M  V30 42425 N 4129.81 0.918989 -1.28033 0
M  V30 42426 C 4130.77 2.0023 -1.11538 0
M  V30 42427 C 4131.77 1.607 -0.0566516 0
M  V30 42428 O 4132.96 1.71562 -0.30199 0
M  V30 42429 C 4130.1 3.33606 -0.70143 0
M  V30 42430 H 4131.29 2.16293 -2.07743 0
M  V30 42431 H 4128.84 1.10096 -1.10944 0
M  V30 42432 H 4129.58 3.23243 0.261625 0
M  V30 42433 H 4129.36 3.63657 -1.46616 0
M  V30 42434 H 4130.85 4.13143 -0.608517 0
M  V30 42435 N 4131.29 1.10196 1.12671 0
M  V30 42436 C 4132.51 0.865146 1.88494 0
M  V30 42437 C 4132.94 -0.578659 1.78978 0
M  V30 42438 O 4132.3 -1.40735 1.14295 0
M  V30 42439 C 4132.35 1.31505 3.35766 0
M  V30 42440 O 4131.45 0.478519 4.09614 0
M  V30 42441 H 4130.79 0.312668 0.585777 0
M  V30 42442 H 4133.32 1.46813 1.42503 0
M  V30 42443 H 4133.33 1.30392 3.86603 0
M  V30 42444 H 4132.01 2.36649 3.42009 0
M  V30 42445 H 4130.58 0.554654 3.68752 0
M  V30 42446 N 4132.77 -1.30042 0.890333 0
M  V30 42447 C 4134.02 -1.95547 0.510474 0
M  V30 42448 C 4134.34 -1.70598 -0.944532 0
M  V30 42449 O 4133.61 -1.03253 -1.6648 0
M  V30 42450 H 4132.19 -0.723527 0.185788 0
M  V30 42451 H 4134.85 -1.58472 1.13458 0
M  V30 42452 H 4133.94 -3.04485 0.685209 0
M  V30 42453 N 4134.25 -0.651838 -1.43488 0
M  V30 42454 C 4135.19 0.0406017 -2.30764 0
M  V30 42455 C 4136.16 0.816065 -1.44671 0
M  V30 42456 O 4137.35 0.792948 -1.73542 0
M  V30 42457 C 4134.49 1.002 -3.30233 0
M  V30 42458 C 4133.6 0.222781 -4.31425 0
M  V30 42459 C 4132.74 1.17785 -5.17977 0
M  V30 42460 C 4131.77 0.388988 -6.10863 0
M  V30 42461 N 4130.91 1.29558 -6.90043 0
M  V30 42462 H 4135.75 -0.709533 -2.8943 0
M  V30 42463 H 4133.29 -0.361661 -1.42585 0
M  V30 42464 H 4135.25 1.57299 -3.8641 0
M  V30 42465 H 4133.88 1.71902 -2.73221 0
M  V30 42466 H 4132.93 -0.464476 -3.77554 0
M  V30 42467 H 4134.24 -0.390695 -4.97268 0
M  V30 42468 H 4133.39 1.81952 -5.78773 0
M  V30 42469 H 4132.13 1.82524 -4.52257 0
M  V30 42470 H 4131.14 -0.26604 -5.49156 0
M  V30 42471 H 4132.36 -0.253974 -6.78625 0
M  V30 42472 H 4130.31 1.92979 -6.26973 0
M  V30 42473 H 4130.23 0.73663 -7.52403 0
M  V30 42474 H 4131.49 1.92544 -7.55346 0
M  V30 42475 N 4135.72 1.52604 -0.39367 0
M  V30 42476 C 4137.14 1.5954 -0.0438265 0
M  V30 42477 C 4137.34 1.40742 1.44201 0
M  V30 42478 O 4136.4 1.2266 2.20705 0
M  V30 42479 C 4137.71 2.96083 -0.524916 0
M  V30 42480 C 4139.26 3.09273 -0.481551 0
M  V30 42481 C 4139.73 4.48273 -0.9389 0
M  V30 42482 N 4141.22 4.54469 -0.895089 0
M  V30 42483 C 4141.96 5.60264 -1.22033 0
M  V30 42484 N 4141.45 6.73683 -1.61626 0
M  V30 42485 N 4143.25 5.50391 -1.1413 0
M  V30 42486 H 4135.4 1.63072 -1.36093 0
M  V30 42487 H 4137.66 0.76631 -0.558098 0
M  V30 42488 H 4137.37 3.15069 -1.56283 0
M  V30 42489 H 4137.24 3.77128 0.0736863 0
M  V30 42490 H 4139.63 2.89981 0.547282 0
M  V30 42491 H 4139.71 2.30171 -1.11601 0
M  V30 42492 H 4139.35 4.68307 -1.96598 0
M  V30 42493 H 4139.28 5.25848 -0.281406 0
M  V30 42494 H 4141.77 3.73045 -0.603793 0
M  V30 42495 H 4142.09 7.5038 -1.84795 0
M  V30 42496 H 4140.43 6.75003 -1.65516 0
M  V30 42497 H 4143.62 4.60665 -0.830961 0
M  V30 42498 H 4143.8 6.32738 -1.39808 0
M  V30 42499 N 4137.2 0.12362 1.57114 0
M  V30 42500 C 4138.45 -0.534048 1.95642 0
M  V30 42501 C 4138.78 -1.66034 1.00729 0
M  V30 42502 O 4138.06 -1.94447 0.0453462 0
M  V30 42503 C 4138.34 -1.06238 3.44072 0
M  V30 42504 C 4138.19 0.0608111 4.49759 0
M  V30 42505 C 4139.51 -1.95176 3.94454 0
M  V30 42506 H 4136.63 -0.192657 0.711373 0
M  V30 42507 H 4139.27 0.200116 1.88943 0
M  V30 42508 H 4137.42 -1.68802 3.49912 0
M  V30 42509 H 4139.09 0.69629 4.56015 0
M  V30 42510 H 4137.34 0.723308 4.27727 0
M  V30 42511 H 4138.01 -0.350174 5.50888 0
M  V30 42512 H 4140.48 -1.42477 3.90947 0
M  V30 42513 H 4139.36 -2.2906 4.98821 0
M  V30 42514 H 4139.62 -2.88001 3.35422 0
M  V30 42515 N 4138.68 -1.56883 -0.15016 0
M  V30 42516 C 4139.91 -1.8706 -0.877043 0
M  V30 42517 C 4140.32 -0.709458 -1.75395 0
M  V30 42518 O 4139.66 0.330011 -1.80711 0
M  V30 42519 C 4139.72 -3.11905 -1.78761 0
M  V30 42520 C 4139.39 -4.43855 -1.08818 0
M  V30 42521 C 4140.38 -5.18004 -0.443578 0
M  V30 42522 C 4138.07 -4.90582 -1.07863 0
M  V30 42523 C 4140.06 -6.37082 0.201234 0
M  V30 42524 C 4137.75 -6.09585 -0.430003 0
M  V30 42525 C 4138.75 -6.82681 0.208804 0
M  V30 42526 O 4138.44 -7.99424 0.847152 0
M  V30 42527 H 4138.17 -0.624355 -0.259146 0
M  V30 42528 H 4140.72 -2.04862 -0.148628 0
M  V30 42529 H 4138.95 -2.90104 -2.55688 0
M  V30 42530 H 4140.64 -3.28355 -2.38617 0
M  V30 42531 H 4141.41 -4.82975 -0.442787 0
M  V30 42532 H 4137.29 -4.33613 -1.56526 0
M  V30 42533 H 4140.83 -6.94075 0.700438 0
M  V30 42534 H 4136.73 -6.44077 -0.42845 0
M  V30 42535 H 4137.49 -8.1507 0.748505 0
M  V30 42536 N 4140.16 0.419408 -1.51917 0
M  V30 42537 C 4141.39 1.18755 -1.69059 0
M  V30 42538 C 4141.8 1.85027 -0.3952 0
M  V30 42539 O 4141.14 1.72273 0.637785 0
M  V30 42540 C 4141.2 2.30044 -2.76261 0
M  V30 42541 C 4140.87 1.83993 -4.18325 0
M  V30 42542 C 4141.86 1.33338 -5.02511 0
M  V30 42543 C 4139.55 1.91139 -4.64512 0
M  V30 42544 C 4141.54 0.904387 -6.30951 0
M  V30 42545 C 4139.23 1.47851 -5.92945 0
M  V30 42546 C 4140.23 0.975848 -6.75993 0
M  V30 42547 O 4139.91 0.549177 -8.02022 0
M  V30 42548 H 4139.65 0.363292 -0.570083 0
M  V30 42549 H 4142.2 0.500935 -1.99198 0
M  V30 42550 H 4140.43 3.02037 -2.41475 0
M  V30 42551 H 4142.12 2.91843 -2.82103 0
M  V30 42552 H 4142.89 1.27198 -4.68023 0
M  V30 42553 H 4138.76 2.29209 -3.9998 0
M  V30 42554 H 4142.31 0.511352 -6.95723 0
M  V30 42555 H 4138.21 1.53667 -6.26942 0
M  V30 42556 H 4138.97 0.673415 -8.15725 0
M  V30 42557 N 4141.64 1.42366 0.675998 0
M  V30 42558 C 4142.57 1.48539 1.80162 0
M  V30 42559 C 4143.55 0.342079 1.66625 0
M  V30 42560 O 4144.73 0.556222 1.86064 0
M  V30 42561 C 4141.86 1.38592 3.18449 0
M  V30 42562 C 4140.82 2.50937 3.4672 0
M  V30 42563 C 4140.14 2.26048 4.84568 0
M  V30 42564 C 4141.44 3.93249 3.43733 0
M  V30 42565 H 4143.14 2.42748 1.75254 0
M  V30 42566 H 4140.68 1.16837 0.841735 0
M  V30 42567 H 4142.64 1.41518 3.96926 0
M  V30 42568 H 4141.36 0.40876 3.24032 0
M  V30 42569 H 4140.02 2.47325 2.70603 0
M  V30 42570 H 4139.67 1.26629 4.868 0
M  V30 42571 H 4139.37 3.01343 5.04447 0
M  V30 42572 H 4140.89 2.30722 5.65331 0
M  V30 42573 H 4142.3 3.9847 4.12182 0
M  V30 42574 H 4140.7 4.68386 3.75147 0
M  V30 42575 H 4141.77 4.20005 2.42329 0
M  V30 42576 N 4143.11 -0.912187 1.28518 0
M  V30 42577 C 4144.34 -1.69521 1.18618 0
M  V30 42578 C 4144.76 -1.87071 -0.254964 0
M  V30 42579 O 4144.11 -1.39882 -1.17215 0
M  V30 42580 C 4144.17 -3.08651 1.88193 0
M  V30 42581 O 4143.89 -2.91912 3.26679 0
M  V30 42582 C 4145.39 -4.03029 1.84614 0
M  V30 42583 H 4142.61 -0.529862 0.411688 0
M  V30 42584 H 4145.15 -1.14159 1.6967 0
M  V30 42585 H 4143.31 -3.60826 1.41007 0
M  V30 42586 H 4143.72 -3.79981 3.61545 0
M  V30 42587 H 4145.19 -4.98112 2.37883 0
M  V30 42588 H 4145.67 -4.31499 0.818863 0
M  V30 42589 H 4146.28 -3.56783 2.31486 0
M  V30 42590 N 4144.59 -1.10792 -1.12085 0
M  V30 42591 C 4146.01 -0.840456 -1.35678 0
M  V30 42592 C 4146.21 0.538245 -1.94178 0
M  V30 42593 O 4145.26 1.29039 -2.17037 0
M  V30 42594 C 4146.58 -1.94313 -2.29484 0
M  V30 42595 C 4148.13 -1.97201 -2.43065 0
M  V30 42596 C 4148.6 -3.06652 -3.40189 0
M  V30 42597 N 4150.09 -3.05983 -3.47748 0
M  V30 42598 C 4150.83 -3.87313 -4.22819 0
M  V30 42599 N 4150.32 -4.78588 -5.00925 0
M  V30 42600 N 4152.12 -3.75516 -4.18263 0
M  V30 42601 H 4144.27 -1.99654 -0.724719 0
M  V30 42602 H 4146.53 -0.867836 -0.381528 0
M  V30 42603 H 4146.24 -2.93566 -1.9368 0
M  V30 42604 H 4146.11 -1.83349 -3.29641 0
M  V30 42605 H 4148.5 -0.985784 -2.78148 0
M  V30 42606 H 4148.58 -2.12241 -1.42784 0
M  V30 42607 H 4148.22 -4.05497 -3.05835 0
M  V30 42608 H 4148.15 -2.88853 -4.40309 0
M  V30 42609 H 4150.64 -2.39847 -2.92031 0
M  V30 42610 H 4150.96 -5.37195 -5.55555 0
M  V30 42611 H 4149.3 -4.82614 -5.00109 0
M  V30 42612 H 4152.49 -3.03558 -3.56329 0
M  V30 42613 H 4152.66 -4.39134 -4.76514 0
M  V30 42614 N 4146.07 1.29568 -0.897217 0
M  V30 42615 C 4147.35 1.90553 -0.441455 0
M  V30 42616 C 4147.73 1.81458 1.07872 0
M  V30 42617 O 4147.08 1.23969 1.91948 0
M  V30 42618 C 4147.29 3.35729 -0.953254 0
M  V30 42619 C 4148.63 4.12765 -0.995481 0
M  V30 42620 O 4149.66 3.44623 -0.900753 0
M  V30 42621 O 4148.52 5.34533 -1.13739 0
M  V30 42622 H 4145.61 0.815542 -0.137186 0
M  V30 42623 H 4148.16 1.38051 -0.98692 0
M  V30 42624 H 4146.93 3.36493 -1.99721 0
M  V30 42625 H 4146.55 3.95706 -0.387657 0
M  V30 42626 N 4147.55 0.659438 1.4314 0
M  V30 42627 C 4148.96 0.254444 1.84958 0
M  V30 42628 C 4149.31 -1.20028 1.55202 0
M  V30 42629 O 4148.44 -1.91695 1.0041 0
M  V30 42630 C 4149.03 0.45502 3.35731 0
M  V30 42631 C 4147.59 0.104289 3.76255 0
M  V30 42632 C 4146.74 0.754896 2.66827 0
M  V30 42633 H 4149.69 0.86268 1.33205 0
M  V30 42634 H 4149.71 -0.297587 3.79335 0
M  V30 42635 H 4149.22 1.51387 3.57356 0
M  V30 42636 H 4147.32 -0.951721 3.6024 0
M  V30 42637 H 4147.43 0.534093 4.76114 0
M  V30 42638 H 4145.8 0.187571 2.54008 0
M  V30 42639 H 4146.58 1.8169 2.91279 0
M  V30 42640 N 4149.03 -1.52393 0.401757 0
M  V30 42641 C 4150.25 -2.06149 -0.176134 0
M  V30 42642 C 4150.67 -1.27245 -1.39478 0
M  V30 42643 O 4150.03 -0.322353 -1.79631 0
M  V30 42644 C 4150.08 -3.57536 -0.533902 0
M  V30 42645 O 4149.8 -4.33454 0.636346 0
M  V30 42646 C 4151.3 -4.27682 -1.16632 0
M  V30 42647 H 4148.52 -0.670584 -0.0236365 0
M  V30 42648 H 4151.06 -1.96379 0.570583 0
M  V30 42649 H 4149.22 -3.67338 -1.23051 0
M  V30 42650 H 4149.63 -5.234 0.339465 0
M  V30 42651 H 4151.11 -5.34808 -1.36692 0
M  V30 42652 H 4151.58 -3.83688 -2.1373 0
M  V30 42653 H 4152.19 -4.2223 -0.51012 0
M  V30 42654 N 4150.5 -0.131951 -1.57047 0
M  V30 42655 C 4151.73 0.530253 -1.9999 0
M  V30 42656 C 4152.15 1.59396 -1.01185 0
M  V30 42657 O 4151.5 1.82499 -0.00660576 0
M  V30 42658 C 4151.56 1.14462 -3.429 0
M  V30 42659 O 4151.28 0.123426 -4.37926 0
M  V30 42660 C 4152.78 1.8889 -4.01043 0
M  V30 42661 H 4150 0.139336 -0.656374 0
M  V30 42662 H 4152.54 -0.222105 -2.0329 0
M  V30 42663 H 4150.7 1.84769 -3.40498 0
M  V30 42664 H 4151.11 0.571495 -5.21377 0
M  V30 42665 H 4152.58 2.27187 -5.03081 0
M  V30 42666 H 4153.06 2.76909 -3.40908 0
M  V30 42667 H 4153.67 1.23317 -4.0703 0
M  V30 42668 N 4151.98 1.5696 0.141838 0
M  V30 42669 C 4153.39 1.73025 0.701377 0
M  V30 42670 C 4153.74 0.747156 1.81417 0
M  V30 42671 O 4152.87 -0.0850754 2.16233 0
M  V30 42672 C 4153.46 3.13729 1.27905 0
M  V30 42673 C 4152.02 3.31377 1.78511 0
M  V30 42674 C 4151.17 2.68944 0.675622 0
M  V30 42675 H 4154.12 1.58478 -0.0838808 0
M  V30 42676 H 4154.14 3.14014 2.14884 0
M  V30 42677 H 4153.65 3.85257 0.46892 0
M  V30 42678 H 4151.76 2.64855 2.62074 0
M  V30 42679 H 4151.87 4.3937 1.91027 0
M  V30 42680 H 4150.23 2.29552 1.10354 0
M  V30 42681 H 4151.02 3.43079 -0.123148 0
M  V30 42682 N 4153.46 -0.411345 1.52137 0
M  V30 42683 C 4154.39 -1.50793 1.7828 0
M  V30 42684 C 4155.37 -1.57856 0.633671 0
M  V30 42685 O 4156.56 -1.73166 0.879042 0
M  V30 42686 C 4153.69 -2.88637 1.93147 0
M  V30 42687 C 4152.64 -2.96426 3.08733 0
M  V30 42688 C 4151.97 -4.36503 3.08819 0
M  V30 42689 C 4153.27 -2.68114 4.48232 0
M  V30 42690 H 4154.96 -1.29167 2.70104 0
M  V30 42691 H 4152.51 -0.619943 1.29972 0
M  V30 42692 H 4154.46 -3.65336 2.10018 0
M  V30 42693 H 4153.18 -3.11553 0.979923 0
M  V30 42694 H 4151.84 -2.22172 2.91608 0
M  V30 42695 H 4151.49 -4.56424 2.11391 0
M  V30 42696 H 4151.19 -4.42639 3.86452 0
M  V30 42697 H 4152.71 -5.15139 3.27818 0
M  V30 42698 H 4154.13 -3.34536 4.65574 0
M  V30 42699 H 4152.53 -2.85628 5.27766 0
M  V30 42700 H 4153.6 -1.63564 4.56481 0
M  V30 42701 N 4154.94 -1.42722 -0.668439 0
M  V30 42702 C 4155.9 -1.46387 -1.76362 0
M  V30 42703 C 4156.9 -0.350581 -1.56932 0
M  V30 42704 O 4158.09 -0.611686 -1.63107 0
M  V30 42705 C 4155.22 -1.3017 -3.15069 0
M  V30 42706 H 4156.42 -2.43906 -1.74498 0
M  V30 42707 H 4153.97 -1.29263 -0.878672 0
M  V30 42708 H 4154.71 -0.335982 -3.22555 0
M  V30 42709 H 4154.49 -2.10859 -3.30576 0
M  V30 42710 H 4155.98 -1.35632 -3.9496 0
M  V30 42711 N 4156.42 0.905358 -1.29 0
M  V30 42712 C 4157.83 1.1852 -1.06889 0
M  V30 42713 C 4158.03 2.00663 0.183423 0
M  V30 42714 O 4157.09 2.36566 0.882766 0
M  V30 42715 C 4158.4 1.91163 -2.32114 0
M  V30 42716 C 4159.95 2.04012 -2.37377 0
M  V30 42717 C 4160.43 2.80066 -3.62391 0
M  V30 42718 N 4161.92 2.87623 -3.6308 0
M  V30 42719 C 4162.65 3.46992 -4.56491 0
M  V30 42720 N 4162.15 4.07572 -5.60229 0
M  V30 42721 N 4163.94 3.44611 -4.44071 0
M  V30 42722 H 4156.09 0.357148 -2.09376 0
M  V30 42723 H 4158.35 0.22069 -0.921954 0
M  V30 42724 H 4158.06 1.38237 -3.23393 0
M  V30 42725 H 4157.93 2.9167 -2.39183 0
M  V30 42726 H 4160.32 2.56116 -1.4659 0
M  V30 42727 H 4160.4 1.02656 -2.34298 0
M  V30 42728 H 4160.05 2.28639 -4.53527 0
M  V30 42729 H 4159.98 3.81755 -3.62727 0
M  V30 42730 H 4162.47 2.4459 -2.8807 0
M  V30 42731 H 4162.78 4.50878 -6.27637 0
M  V30 42732 H 4161.13 4.06051 -5.64045 0
M  V30 42733 H 4164.32 2.96499 -3.62224 0
M  V30 42734 H 4164.49 3.90586 -5.17055 0
M  V30 42735 N 4157.9 1.11385 1.11495 0
M  V30 42736 C 4158.86 0.774934 2.15702 0
M  V30 42737 C 4159.86 -0.20542 1.59482 0
M  V30 42738 O 4161.05 0.0189896 1.7419 0
M  V30 42739 C 4158.18 0.149611 3.40572 0
M  V30 42740 H 4159.37 1.69807 2.47196 0
M  V30 42741 H 4156.93 0.915649 1.26671 0
M  V30 42742 H 4157.66 -0.783774 3.14686 0
M  V30 42743 H 4157.45 0.8553 3.82658 0
M  V30 42744 H 4158.94 -0.071401 4.17539 0
M  V30 42745 N 4159.37 -1.2909 0.904076 0
M  V30 42746 C 4160.34 -2.25859 0.389929 0
M  V30 42747 C 4161.34 -1.53521 -0.478333 0
M  V30 42748 O 4162.53 -1.7189 -0.282763 0
M  V30 42749 C 4159.66 -3.38022 -0.442066 0
M  V30 42750 H 4160.85 -2.72854 1.24463 0
M  V30 42751 H 4158.4 -1.40607 0.682605 0
M  V30 42752 H 4159.14 -2.96373 -1.31657 0
M  V30 42753 H 4158.92 -3.91686 0.180136 0
M  V30 42754 H 4160.41 -4.10003 -0.792949 0
M  V30 42755 N 4160.85 -0.66702 -1.42789 0
M  V30 42756 C 4162.1 -0.194992 -2.02463 0
M  V30 42757 C 4162.45 1.18265 -1.5176 0
M  V30 42758 O 4161.75 1.78087 -0.706786 0
M  V30 42759 C 4161.94 -0.160825 -3.57038 0
M  V30 42760 C 4161.77 -1.53362 -4.22741 0
M  V30 42761 C 4160.54 -2.12945 -4.58238 0
M  V30 42762 C 4162.74 -2.47477 -4.50843 0
M  V30 42763 N 4160.72 -3.43086 -5.09083 0
M  V30 42764 C 4162.09 -3.62264 -5.03155 0
M  V30 42765 C 4164.14 -2.46105 -4.32824 0
M  V30 42766 C 4162.85 -4.75923 -5.39342 0
M  V30 42767 C 4164.87 -3.58855 -4.70082 0
M  V30 42768 C 4164.24 -4.72369 -5.22539 0
M  V30 42769 H 4160.33 -0.116098 -0.773334 0
M  V30 42770 H 4162.92 -0.87832 -1.73763 0
M  V30 42771 H 4161.09 0.49189 -3.85273 0
M  V30 42772 H 4162.82 0.323359 -4.03406 0
M  V30 42773 H 4159.58 -1.65513 -4.43737 0
M  V30 42774 H 4160 -4.09719 -5.38943 0
M  V30 42775 H 4164.64 -1.59575 -3.9153 0
M  V30 42776 H 4162.36 -5.63135 -5.79573 0
M  V30 42777 H 4165.95 -3.59011 -4.57823 0
M  V30 42778 H 4164.83 -5.58169 -5.50833 0
M  V30 42779 N 4162.33 1.52178 -0.409833 0
M  V30 42780 C 4163.24 2.30771 0.422149 0
M  V30 42781 C 4164.26 1.38526 1.05293 0
M  V30 42782 O 4165.43 1.716 1.05429 0
M  V30 42783 C 4162.5 3.11438 1.5234 0
M  V30 42784 C 4161.56 4.19422 0.915606 0
M  V30 42785 C 4160.79 4.96234 1.96438 0
M  V30 42786 O 4161.01 4.73355 3.18262 0
M  V30 42787 O 4159.95 5.81058 1.57021 0
M  V30 42788 H 4163.77 3.02912 -0.218688 0
M  V30 42789 H 4161.36 1.48395 -0.17302 0
M  V30 42790 H 4163.24 3.6167 2.1627 0
M  V30 42791 H 4161.92 2.4209 2.14882 0
M  V30 42792 H 4160.82 3.73336 0.238998 0
M  V30 42793 H 4162.16 4.91065 0.334093 0
M  V30 42794 N 4163.81 0.140278 1.56974 0
M  V30 42795 C 4165.04 -0.51964 2.00268 0
M  V30 42796 C 4165.45 -1.58857 1.02029 0
M  V30 42797 O 4164.81 -1.82493 0.016284 0
M  V30 42798 C 4164.86 -1.12642 3.43502 0
M  V30 42799 O 4164.58 -0.1002 4.37985 0
M  V30 42800 C 4166.08 -1.8676 4.02039 0
M  V30 42801 H 4163.3 -0.135853 0.657103 0
M  V30 42802 H 4165.84 0.232882 2.0317 0
M  V30 42803 H 4164 -1.82961 3.41474 0
M  V30 42804 H 4164.41 -0.543837 5.21673 0
M  V30 42805 H 4165.89 -2.24516 5.04278 0
M  V30 42806 H 4166.36 -2.75097 3.42372 0
M  V30 42807 H 4166.97 -1.21156 4.07678 0
M  V30 42808 N 4165.29 -1.57033 -0.133512 0
M  V30 42809 C 4166.53 -1.84354 -0.845077 0
M  V30 42810 C 4166.86 -0.723896 -1.80204 0
M  V30 42811 O 4166.14 0.271451 -1.92596 0
M  V30 42812 C 4166.42 -3.22217 -1.60774 0
M  V30 42813 C 4166.28 -4.44762 -0.671359 0
M  V30 42814 C 4167.59 -3.57466 -2.56722 0
M  V30 42815 H 4164.71 -0.670577 -0.305771 0
M  V30 42816 H 4167.36 -1.89683 -0.109791 0
M  V30 42817 H 4165.51 -3.17805 -2.23455 0
M  V30 42818 H 4167.18 -4.61268 -0.0545112 0
M  V30 42819 H 4165.42 -4.33796 0.0181452 0
M  V30 42820 H 4166.09 -5.37862 -1.24132 0
M  V30 42821 H 4168.57 -3.62575 -2.04153 0
M  V30 42822 H 4167.44 -4.54934 -3.07125 0
M  V30 42823 H 4167.7 -2.84125 -3.38712 0
M  V30 42824 N 4166.76 0.403271 -1.52353 0
M  V30 42825 C 4168.18 0.742318 -1.41286 0
M  V30 42826 C 4168.38 1.94622 -0.52198 0
M  V30 42827 O 4167.44 2.52498 0.0100103 0
M  V30 42828 C 4168.75 0.990769 -2.83909 0
M  V30 42829 C 4170.3 1.09312 -2.93291 0
M  V30 42830 C 4170.77 1.3743 -4.36895 0
M  V30 42831 N 4172.26 1.44282 -4.40156 0
M  V30 42832 C 4173 1.67676 -5.48336 0
M  V30 42833 N 4172.49 1.88635 -6.66625 0
M  V30 42834 N 4174.29 1.69739 -5.35859 0
M  V30 42835 H 4166.44 -0.389114 -2.08805 0
M  V30 42836 H 4168.7 -0.11183 -0.941381 0
M  V30 42837 H 4168.41 0.178449 -3.51247 0
M  V30 42838 H 4168.28 1.90935 -3.25306 0
M  V30 42839 H 4170.67 1.89603 -2.2613 0
M  V30 42840 H 4170.75 0.152777 -2.55343 0
M  V30 42841 H 4170.39 0.576546 -5.04617 0
M  V30 42842 H 4170.32 2.32726 -4.72384 0
M  V30 42843 H 4172.81 1.29851 -3.5489 0
M  V30 42844 H 4173.13 2.05952 -7.44851 0
M  V30 42845 H 4171.47 1.85888 -6.6968 0
M  V30 42846 H 4174.66 1.52907 -4.42422 0
M  V30 42847 H 4174.84 1.87631 -6.20241 0
M  V30 42848 N 4168.24 1.43075 0.66086 0
M  V30 42849 C 4169.19 1.44089 1.76698 0
M  V30 42850 C 4170.18 0.310337 1.57879 0
M  V30 42851 O 4171.37 0.553576 1.68121 0
M  V30 42852 C 4168.5 1.35926 3.15244 0
M  V30 42853 C 4167.58 2.53982 3.39638 0
M  V30 42854 N 4167.97 3.7936 3.34544 0
M  V30 42855 C 4166.27 2.48542 3.70328 0
M  V30 42856 C 4166.97 4.57856 3.58808 0
M  V30 42857 N 4165.95 3.88472 3.80251 0
M  V30 42858 H 4169.75 2.38907 1.71174 0
M  V30 42859 H 4167.26 1.3762 0.86224 0
M  V30 42860 H 4169.26 1.34735 3.94528 0
M  V30 42861 H 4167.92 0.421218 3.21956 0
M  V30 42862 H 4168.93 4.11757 3.14128 0
M  V30 42863 H 4165.61 1.63386 3.84202 0
M  V30 42864 H 4167 5.66865 3.60713 0
M  V30 42865 N 4169.72 -0.898504 1.29478 0
M  V30 42866 C 4170.95 -1.68253 1.20409 0
M  V30 42867 C 4171.36 -1.8733 -0.235108 0
M  V30 42868 O 4170.72 -1.41117 -1.15724 0
M  V30 42869 C 4170.77 -3.06638 1.91456 0
M  V30 42870 O 4170.49 -2.88431 3.29756 0
M  V30 42871 C 4171.99 -4.01048 1.88878 0
M  V30 42872 H 4169.21 -0.525466 0.417285 0
M  V30 42873 H 4171.76 -1.12353 1.70872 0
M  V30 42874 H 4169.91 -3.59311 1.44826 0
M  V30 42875 H 4170.33 -3.76125 3.65555 0
M  V30 42876 H 4171.8 -4.95561 2.43152 0
M  V30 42877 H 4172.28 -4.30606 0.864583 0
M  V30 42878 H 4172.88 -3.54308 2.35257 0
M  V30 42879 N 4171.2 -1.11974 -1.10903 0
M  V30 42880 C 4172.61 -0.88722 -1.64272 0
M  V30 42881 C 4172.96 0.579427 -1.87449 0
M  V30 42882 O 4172.09 1.44278 -1.61285 0
M  V30 42883 C 4172.68 -1.60405 -2.98422 0
M  V30 42884 C 4171.24 -1.41781 -3.48676 0
M  V30 42885 C 4170.39 -1.6431 -2.23377 0
M  V30 42886 H 4173.34 -1.2752 -0.944681 0
M  V30 42887 H 4173.36 -1.05228 -3.6566 0
M  V30 42888 H 4172.87 -2.67147 -2.81521 0
M  V30 42889 H 4170.97 -0.372737 -3.70731 0
M  V30 42890 H 4171.08 -2.17065 -4.27106 0
M  V30 42891 H 4169.45 -1.06687 -2.31279 0
M  V30 42892 H 4170.23 -2.72339 -2.09013 0
M  V30 42893 N 4172.68 1.28609 -0.910909 0
M  V30 42894 C 4173.92 1.95384 -0.543395 0
M  V30 42895 C 4174.26 1.71555 0.910079 0
M  V30 42896 O 4173.53 1.0349 1.64682 0
M  V30 42897 C 4173.81 3.49927 -0.849883 0
M  V30 42898 C 4173.67 3.83169 -2.35588 0
M  V30 42899 C 4174.99 4.38753 -0.344074 0
M  V30 42900 H 4172.1 0.709654 -0.198896 0
M  V30 42901 H 4174.75 1.52027 -1.13963 0
M  V30 42902 H 4172.9 3.86988 -0.342448 0
M  V30 42903 H 4174.57 3.55993 -2.93372 0
M  V30 42904 H 4172.81 3.30314 -2.81203 0
M  V30 42905 H 4173.48 4.91076 -2.52088 0
M  V30 42906 H 4175.96 4.08748 -0.778734 0
M  V30 42907 H 4174.83 5.45746 -0.587626 0
M  V30 42908 H 4175.1 4.35596 0.755532 0
M  V30 42909 N 4174.15 0.674583 1.42433 0
M  V30 42910 C 4175.1 -0.0155442 2.32595 0
M  V30 42911 C 4176.1 -0.79078 1.4981 0
M  V30 42912 O 4177.3 -0.698769 1.65883 0
M  V30 42913 H 4173.68 -0.0238215 0.751623 0
M  V30 42914 H 4175.65 0.762274 2.88499 0
M  V30 42915 C 4174.4 -0.953143 3.34381 0
M  V30 42916 H 4173.72 -0.366035 3.98121 0
M  V30 42917 H 4175.16 -1.40472 4.00055 0
M  V30 42918 C 4173.62 -2.05942 2.66626 0
M  V30 42919 O 4174.15 -3.14583 2.49801 0
M  V30 42920 N 4172.36 -1.83107 2.25655 0
M  V30 42921 H 4171.9 -0.94755 2.3954 0
M  V30 42922 H 4171.86 -2.57316 1.80654 0
M  V30 42923 N 4175.63 -1.51958 0.417898 0
M  V30 42924 C 4176.86 -2.06807 -0.1567 0
M  V30 42925 C 4177.28 -1.28515 -1.37352 0
M  V30 42926 O 4176.64 -0.317746 -1.78494 0
M  V30 42927 C 4176.69 -3.57433 -0.47685 0
M  V30 42928 O 4175.79 -3.81491 -1.56647 0
M  V30 42929 H 4175.13 -0.663919 -0.0103756 0
M  V30 42930 H 4177.66 -1.95799 0.593627 0
M  V30 42931 H 4177.67 -4.01362 -0.732955 0
M  V30 42932 H 4176.35 -4.13848 0.412614 0
M  V30 42933 H 4174.93 -3.49437 -1.30185 0
M  V30 42934 N 4177.11 -0.1486 -1.56898 0
M  V30 42935 C 4178.36 0.496457 -1.97248 0
M  V30 42936 C 4178.71 1.62372 -1.03213 0
M  V30 42937 O 4178 1.91481 -0.0674793 0
M  V30 42938 C 4178.2 1.04789 -3.41693 0
M  V30 42939 C 4178.03 -0.0244177 -4.49693 0
M  V30 42940 C 4176.8 -0.466383 -5.03143 0
M  V30 42941 C 4179 -0.816478 -5.07778 0
M  V30 42942 N 4176.98 -1.52137 -5.9475 0
M  V30 42943 C 4178.35 -1.72192 -5.95609 0
M  V30 42944 C 4180.4 -0.864089 -4.90345 0
M  V30 42945 C 4179.11 -2.6709 -6.67874 0
M  V30 42946 C 4181.13 -1.80091 -5.63313 0
M  V30 42947 C 4180.49 -2.69387 -6.50853 0
M  V30 42948 H 4176.59 0.150428 -0.767395 0
M  V30 42949 H 4179.18 -0.243572 -1.9317 0
M  V30 42950 H 4177.35 1.75752 -3.46361 0
M  V30 42951 H 4179.08 1.6597 -3.69102 0
M  V30 42952 H 4175.84 -0.0683372 -4.73551 0
M  V30 42953 H 4176.26 -2.04867 -6.45259 0
M  V30 42954 H 4180.9 -0.187787 -4.22383 0
M  V30 42955 H 4178.62 -3.3572 -7.35063 0
M  V30 42956 H 4182.21 -1.84356 -5.51819 0
M  V30 42957 H 4181.09 -3.40697 -7.06325 0
M  V30 42958 N 4178.59 1.57102 0.125182 0
M  V30 42959 C 4179.52 2.02924 1.15517 0
M  V30 42960 C 4180.5 0.912584 1.43548 0
M  V30 42961 O 4181.68 1.18188 1.54095 0
M  V30 42962 C 4178.81 2.42833 2.48293 0
M  V30 42963 C 4177.77 3.57885 2.34738 0
M  V30 42964 C 4177.09 3.83676 3.72421 0
M  V30 42965 C 4178.39 4.89821 1.81308 0
M  V30 42966 H 4180.09 2.8922 0.774078 0
M  V30 42967 H 4177.63 1.39141 0.370911 0
M  V30 42968 H 4179.59 2.73493 3.20593 0
M  V30 42969 H 4178.31 1.535 2.8828 0
M  V30 42970 H 4176.97 3.27426 1.64888 0
M  V30 42971 H 4176.62 2.91557 4.09882 0
M  V30 42972 H 4176.32 4.61115 3.64206 0
M  V30 42973 H 4177.84 4.16781 4.46235 0
M  V30 42974 H 4179.26 5.19056 2.4342 0
M  V30 42975 H 4177.65 5.71218 1.83931 0
M  V30 42976 H 4178.72 4.78744 0.770207 0
M  V30 42977 N 4180.07 -0.395186 1.52565 0
M  V30 42978 C 4181.31 -1.13857 1.66976 0
M  V30 42979 C 4181.64 -1.90661 0.40905 0
M  V30 42980 O 4180.91 -1.87228 -0.576418 0
M  V30 42981 H 4179.49 -0.423302 0.615487 0
M  V30 42982 H 4182.15 -0.44899 1.89658 0
M  V30 42983 H 4181.24 -1.84491 2.51733 0
M  V30 42984 N 4181.54 -1.43423 -0.653263 0
M  V30 42985 C 4182.49 -1.48846 -1.78739 0
M  V30 42986 C 4183.49 -0.362064 -1.65486 0
M  V30 42987 O 4184.69 -0.536053 -1.71833 0
M  V30 42988 H 4181.07 -0.466625 -0.589716 0
M  V30 42989 H 4183.04 -2.44343 -1.71286 0
M  V30 42990 C 4181.79 -1.42855 -3.16998 0
M  V30 42991 H 4181.11 -2.28834 -3.27834 0
M  V30 42992 H 4182.55 -1.50711 -3.96311 0
M  V30 42993 C 4181.01 -0.146152 -3.36583 0
M  V30 42994 O 4181.54 0.792561 -3.93804 0
M  V30 42995 N 4179.75 -0.0563587 -2.90545 0
M  V30 42996 H 4179.29 -0.821063 -2.44165 0
M  V30 42997 H 4179.25 0.800982 -3.04026 0
M  V30 42998 N 4183.02 0.891625 -1.29953 0
M  V30 42999 C 4184.27 1.63754 -1.17761 0
M  V30 43000 C 4184.58 1.93753 0.268197 0
M  V30 43001 O 4185.79 2.66637 0.511548 0
M  V30 43002 C 4184.25 2.95104 -2.06013 0
M  V30 43003 C 4183.85 2.72671 -3.55464 0
M  V30 43004 C 4185.6 3.73051 -2.02566 0
M  V30 43005 C 4183.51 3.99797 -4.35794 0
M  V30 43006 H 4182.44 0.614342 -0.43715 0
M  V30 43007 H 4185.09 0.987666 -1.54653 0
M  V30 43008 H 4183.47 3.61348 -1.61998 0
M  V30 43009 H 4184.64 2.14969 -4.07584 0
M  V30 43010 H 4182.96 2.08108 -3.60666 0
M  V30 43011 H 4185.55 4.6732 -2.59838 0
M  V30 43012 H 4185.9 4.03923 -1.00755 0
M  V30 43013 H 4186.43 3.1366 -2.44668 0
M  V30 43014 H 4183.17 3.74087 -5.38274 0
M  V30 43015 H 4182.69 4.57028 -3.8844 0
M  V30 43016 H 4184.37 4.67875 -4.4688 0
M  V30 43017 N 4184.5 1.12561 1.10308 0
M  V30 43018 C 4185.75 0.876431 1.81663 0
M  V30 43019 C 4186.06 -0.599474 1.86187 0
M  V30 43020 O 4187.27 -0.965292 2.5376 0
M  V30 43021 C 4185.73 1.51831 3.26305 0
M  V30 43022 C 4185.33 3.0291 3.30075 0
M  V30 43023 C 4187.08 1.34946 4.0248 0
M  V30 43024 C 4184.98 3.60026 4.69186 0
M  V30 43025 H 4183.91 0.32423 0.680728 0
M  V30 43026 H 4186.57 1.35225 1.24042 0
M  V30 43027 H 4184.95 0.970154 3.83932 0
M  V30 43028 H 4186.12 3.64229 2.82265 0
M  V30 43029 H 4184.44 3.19206 2.67388 0
M  V30 43030 H 4187.03 1.75039 5.05238 0
M  V30 43031 H 4187.38 0.293281 4.15266 0
M  V30 43032 H 4187.91 1.86691 3.51271 0
M  V30 43033 H 4184.65 4.65409 4.616 0
M  V30 43034 H 4184.17 3.03482 5.17358 0
M  V30 43035 H 4185.85 3.59163 5.38155 0
M  V30 43036 N 4185.98 -1.28124 0.917717 0
M  V30 43037 C 4186.91 -2.25444 0.353567 0
M  V30 43038 C 4187.89 -1.53214 -0.544451 0
M  V30 43039 O 4189.07 -1.82095 -0.487212 0
M  V30 43040 C 4186.2 -3.35075 -0.494208 0
M  V30 43041 C 4185.25 -4.25151 0.338983 0
M  V30 43042 S 4186.08 -5.06159 1.74823 0
M  V30 43043 C 4187.24 -6.19281 0.907872 0
M  V30 43044 H 4187.47 -2.72948 1.17842 0
M  V30 43045 H 4185 -1.36625 0.71923 0
M  V30 43046 H 4186.96 -3.98692 -0.977507 0
M  V30 43047 H 4185.62 -2.8623 -1.29349 0
M  V30 43048 H 4184.81 -5.03049 -0.309442 0
M  V30 43049 H 4184.42 -3.66278 0.756083 0
M  V30 43050 H 4186.71 -6.77357 0.139312 0
M  V30 43051 H 4187.65 -6.88379 1.65953 0
M  V30 43052 H 4188.06 -5.62669 0.454293 0
M  V30 43053 N 4187.46 -0.682127 -1.42073 0
M  V30 43054 C 4188.69 -0.215752 -2.0547 0
M  V30 43055 C 4189.1 1.13502 -1.51374 0
M  V30 43056 O 4188.44 1.71767 -0.651281 0
M  V30 43057 C 4188.5 -0.0813135 -3.59408 0
M  V30 43058 C 4188.16 -1.36196 -4.36233 0
M  V30 43059 C 4189.16 -2.29699 -4.66406 0
M  V30 43060 C 4186.85 -1.6116 -4.75744 0
M  V30 43061 C 4188.84 -3.46437 -5.35033 0
M  V30 43062 C 4186.53 -2.78186 -5.4411 0
M  V30 43063 C 4187.53 -3.70648 -5.7368 0
M  V30 43064 O 4187.21 -4.85626 -6.40642 0
M  V30 43065 H 4186.95 -0.100766 -0.668448 0
M  V30 43066 H 4189.5 -0.931364 -1.8307 0
M  V30 43067 H 4187.73 0.689947 -3.80495 0
M  V30 43068 H 4189.42 0.346135 -4.04421 0
M  V30 43069 H 4190.18 -2.11666 -4.36374 0
M  V30 43070 H 4186.06 -0.900591 -4.52118 0
M  V30 43071 H 4189.61 -4.18627 -5.5803 0
M  V30 43072 H 4185.5 -2.96142 -5.73559 0
M  V30 43073 H 4186.27 -4.85266 -6.59135 0
M  V30 43074 N 4188.94 1.51735 -0.425951 0
M  V30 43075 C 4189.9 2.26037 0.379458 0
M  V30 43076 C 4190.9 1.29042 0.959417 0
M  V30 43077 O 4192.09 1.52848 0.835653 0
M  V30 43078 C 4189.22 3.04348 1.53575 0
M  V30 43079 H 4190.41 2.98668 -0.271567 0
M  V30 43080 H 4187.97 1.55273 -0.178847 0
M  V30 43081 H 4188.7 2.36107 2.22315 0
M  V30 43082 H 4188.49 3.75579 1.12619 0
M  V30 43083 H 4189.98 3.60662 2.10506 0
M  V30 43084 N 4190.41 0.156919 1.56817 0
M  V30 43085 C 4191.82 -0.362251 1.83152 0
M  V30 43086 C 4192.18 -1.64057 1.07609 0
M  V30 43087 O 4191.3 -2.13953 0.324517 0
M  V30 43088 C 4191.9 -0.664014 3.32229 0
M  V30 43089 C 4190.45 -1.12767 3.59111 0
M  V30 43090 C 4189.6 -0.155946 2.76861 0
M  V30 43091 H 4192.55 0.381446 1.54048 0
M  V30 43092 H 4192.57 -1.51764 3.48924 0
M  V30 43093 H 4192.09 0.266543 3.87184 0
M  V30 43094 H 4190.19 -2.07383 3.09553 0
M  V30 43095 H 4190.3 -1.04679 4.67525 0
M  V30 43096 H 4188.66 -0.650517 2.46253 0
M  V30 43097 H 4189.45 0.768377 3.34591 0
M  V30 43098 N 4191.89 -1.57166 -0.116849 0
M  V30 43099 C 4193.12 -1.89153 -0.838383 0
M  V30 43100 C 4193.53 -0.748392 -1.73334 0
M  V30 43101 O 4192.89 0.280687 -1.80329 0
M  V30 43102 C 4192.94 -3.20614 -1.67001 0
M  V30 43103 O 4192.66 -4.30526 -0.811082 0
M  V30 43104 C 4194.16 -3.66319 -2.49651 0
M  V30 43105 H 4191.38 -0.626266 -0.240898 0
M  V30 43106 H 4193.93 -2.04252 -0.100595 0
M  V30 43107 H 4192.08 -3.07177 -2.36053 0
M  V30 43108 H 4192.5 -5.05886 -1.3849 0
M  V30 43109 H 4193.97 -4.61058 -3.03529 0
M  V30 43110 H 4194.45 -2.93081 -3.27109 0
M  V30 43111 H 4195.05 -3.8255 -1.85837 0
M  V30 43112 N 4193.37 0.38709 -1.52772 0
M  V30 43113 C 4194.3 1.47938 -1.80656 0
M  V30 43114 C 4195.28 1.56828 -0.658705 0
M  V30 43115 O 4196.47 1.71746 -0.90648 0
M  V30 43116 C 4193.6 2.85528 -1.97714 0
M  V30 43117 C 4192.55 2.91476 -3.13409 0
M  V30 43118 C 4191.88 4.31534 -3.15725 0
M  V30 43119 C 4193.18 2.60949 -4.52441 0
M  V30 43120 H 4194.87 1.24853 -2.72125 0
M  V30 43121 H 4192.42 0.599187 -1.30942 0
M  V30 43122 H 4194.37 3.61948 -2.15804 0
M  V30 43123 H 4193.09 3.09954 -1.02936 0
M  V30 43124 H 4191.75 2.17504 -2.95106 0
M  V30 43125 H 4191.4 4.53003 -2.18626 0
M  V30 43126 H 4191.1 4.36434 -3.93445 0
M  V30 43127 H 4192.62 5.09858 -3.35972 0
M  V30 43128 H 4194.04 3.27086 -4.70837 0
M  V30 43129 H 4192.43 2.77196 -5.32243 0
M  V30 43130 H 4193.5 1.56281 -4.59025 0
M  V30 43131 N 4194.85 1.43768 0.645648 0
M  V30 43132 C 4196.09 1.46997 1.40583 0
M  V30 43133 C 4196.45 0.0955803 1.92162 0
M  V30 43134 O 4195.74 -0.88698 1.69833 0
M  V30 43135 C 4195.94 2.45364 2.59868 0
M  V30 43136 C 4195.76 3.92232 2.19964 0
M  V30 43137 C 4194.53 4.60536 2.0793 0
M  V30 43138 C 4196.73 4.81855 1.79777 0
M  V30 43139 N 4194.71 5.92293 1.61437 0
M  V30 43140 C 4196.09 6.02945 1.44422 0
M  V30 43141 C 4198.14 4.69048 1.67028 0
M  V30 43142 C 4196.84 7.12649 0.975933 0
M  V30 43143 C 4198.87 5.78763 1.21604 0
M  V30 43144 C 4198.23 6.98983 0.871904 0
M  V30 43145 H 4194.33 0.592989 0.509792 0
M  V30 43146 H 4196.91 1.79998 0.742204 0
M  V30 43147 H 4195.09 2.14377 3.23878 0
M  V30 43148 H 4196.82 2.38982 3.26603 0
M  V30 43149 H 4193.57 4.15146 2.27927 0
M  V30 43150 H 4194 6.62254 1.4053 0
M  V30 43151 H 4198.64 3.76553 1.92271 0
M  V30 43152 H 4196.36 8.04966 0.710999 0
M  V30 43153 H 4199.94 5.70875 1.12218 0
M  V30 43154 H 4198.82 7.82435 0.525787 0
M  V30 43155 N 4196.33 -0.884721 1.30424 0
M  V30 43156 C 4197.29 -1.97202 1.16807 0
M  V30 43157 C 4198.29 -1.60493 0.0992385 0
M  V30 43158 O 4199.48 -1.70701 0.34737 0
M  V30 43159 C 4196.61 -3.31629 0.789633 0
M  V30 43160 H 4197.8 -2.10709 2.13405 0
M  V30 43161 H 4195.36 -1.07115 1.13824 0
M  V30 43162 H 4196.09 -3.23823 -0.175831 0
M  V30 43163 H 4195.88 -3.59641 1.56207 0
M  V30 43164 H 4197.37 -4.11384 0.717841 0
M  V30 43165 N 4197.8 -1.13144 -1.09709 0
M  V30 43166 C 4199.22 -0.869046 -1.33865 0
M  V30 43167 C 4199.42 0.496935 -1.95276 0
M  V30 43168 O 4198.48 1.24407 -2.19725 0
M  V30 43169 C 4199.79 -1.99137 -2.25311 0
M  V30 43170 C 4201.34 -2.02312 -2.38828 0
M  V30 43171 C 4201.81 -3.13799 -3.33608 0
M  V30 43172 N 4203.3 -3.1329 -3.41179 0
M  V30 43173 C 4204.04 -3.96194 -4.14509 0
M  V30 43174 N 4203.53 -4.89105 -4.9066 0
M  V30 43175 N 4205.33 -3.84304 -4.10204 0
M  V30 43176 H 4197.48 -2.01146 -0.682207 0
M  V30 43177 H 4199.74 -0.875734 -0.363035 0
M  V30 43178 H 4199.45 -2.97608 -1.87409 0
M  V30 43179 H 4199.32 -1.903 -3.25677 0
M  V30 43180 H 4201.71 -1.04456 -2.75994 0
M  V30 43181 H 4201.79 -2.15222 -1.3825 0
M  V30 43182 H 4201.43 -4.11893 -2.97165 0
M  V30 43183 H 4201.36 -2.98127 -4.34083 0
M  V30 43184 H 4203.85 -2.45987 -2.86878 0
M  V30 43185 H 4204.17 -5.48858 -5.44035 0
M  V30 43186 H 4202.51 -4.93114 -4.89759 0
M  V30 43187 H 4205.7 -3.11048 -3.4981 0
M  V30 43188 H 4205.88 -4.49143 -4.67092 0
M  V30 43189 N 4199.28 1.27635 -0.924498 0
M  V30 43190 C 4200.22 2.25254 -0.365518 0
M  V30 43191 C 4201.19 1.535 0.536318 0
M  V30 43192 O 4202.38 1.82351 0.477548 0
M  V30 43193 C 4199.5 3.35332 0.476431 0
M  V30 43194 C 4198.55 4.24965 -0.361525 0
M  V30 43195 S 4199.38 5.05225 -1.77505 0
M  V30 43196 C 4200.54 6.1879 -0.940701 0
M  V30 43197 H 4200.77 2.72319 -1.19288 0
M  V30 43198 H 4198.31 1.36242 -0.726466 0
M  V30 43199 H 4200.26 3.99204 0.95635 0
M  V30 43200 H 4198.92 2.86912 1.27829 0
M  V30 43201 H 4198.12 5.03206 0.28276 0
M  V30 43202 H 4197.72 3.65872 -0.775497 0
M  V30 43203 H 4200.01 6.77273 -0.175232 0
M  V30 43204 H 4200.95 6.87489 -1.69601 0
M  V30 43205 H 4201.36 5.6242 -0.484126 0
M  V30 43206 N 4200.76 0.689652 1.41709 0
M  V30 43207 C 4202.01 0.215254 2.00548 0
M  V30 43208 C 4202.32 -1.19008 1.5523 0
M  V30 43209 O 4203.53 -1.76164 2.06588 0
M  V30 43210 C 4201.98 0.333951 3.58347 0
M  V30 43211 C 4201.59 1.74428 4.12649 0
M  V30 43212 C 4203.34 -0.080974 4.24423 0
M  V30 43213 C 4201.24 1.81495 5.62862 0
M  V30 43214 H 4200.17 0.0767175 0.750087 0
M  V30 43215 H 4202.82 0.856991 1.62259 0
M  V30 43216 H 4201.21 -0.375935 3.94212 0
M  V30 43217 H 4202.38 2.48245 3.88215 0
M  V30 43218 H 4200.7 2.10836 3.59078 0
M  V30 43219 H 4203.29 -0.0485304 5.34678 0
M  V30 43220 H 4203.64 -1.11873 4.00986 0
M  V30 43221 H 4204.17 0.578427 3.93572 0
M  V30 43222 H 4200.91 2.83303 5.91117 0
M  V30 43223 H 4200.43 1.12054 5.8924 0
M  V30 43224 H 4202.11 1.57514 6.27534 0
M  V30 43225 N 4202.24 -1.51507 0.433991 0
M  V30 43226 C 4203.17 -2.30554 -0.369749 0
M  V30 43227 C 4204.15 -1.35822 -1.02402 0
M  V30 43228 O 4205.33 -1.64741 -1.0283 0
M  V30 43229 C 4202.46 -3.14513 -1.47306 0
M  V30 43230 C 4201.42 -4.17495 -0.942458 0
M  V30 43231 C 4200.74 -4.89953 -2.14127 0
M  V30 43232 C 4202.04 -5.22296 0.0207876 0
M  V30 43233 H 4203.74 -2.97993 0.289903 0
M  V30 43234 H 4201.28 -1.43309 0.140866 0
M  V30 43235 H 4203.24 -3.6859 -2.04253 0
M  V30 43236 H 4201.96 -2.44888 -2.16096 0
M  V30 43237 H 4200.62 -3.64463 -0.395232 0
M  V30 43238 H 4200.27 -4.16835 -2.81528 0
M  V30 43239 H 4199.97 -5.59588 -1.79264 0
M  V30 43240 H 4201.49 -5.46853 -2.71633 0
M  V30 43241 H 4202.91 -5.71466 -0.458265 0
M  V30 43242 H 4201.3 -5.99438 0.281823 0
M  V30 43243 H 4202.37 -4.75332 0.9585 0
M  V30 43244 N 4203.72 -0.165233 -1.56731 0
M  V30 43245 C 4204.65 0.805948 -2.13494 0
M  V30 43246 C 4205.63 1.23009 -1.06337 0
M  V30 43247 O 4206.81 1.32295 -1.34277 0
M  V30 43248 C 4203.94 2.08455 -2.66954 0
M  V30 43249 C 4202.98 1.80491 -3.86426 0
M  V30 43250 S 4203.82 0.979578 -5.26464 0
M  V30 43251 C 4204.97 2.26897 -5.83325 0
M  V30 43252 H 4205.21 0.323308 -2.95537 0
M  V30 43253 H 4202.74 0.0493435 -1.54321 0
M  V30 43254 H 4204.7 2.81898 -2.98402 0
M  V30 43255 H 4203.36 2.53832 -1.85008 0
M  V30 43256 H 4202.55 2.75345 -4.22139 0
M  V30 43257 H 4202.15 1.15147 -3.55833 0
M  V30 43258 H 4204.45 3.22408 -5.95868 0
M  V30 43259 H 4205.39 1.95663 -6.8053 0
M  V30 43260 H 4205.8 2.38379 -5.11699 0
M  V30 43261 N 4205.19 1.57226 0.108512 0
M  V30 43262 C 4206.42 1.89595 0.82834 0
M  V30 43263 C 4206.84 0.757574 1.72934 0
M  V30 43264 O 4206.19 -0.27112 1.80475 0
M  V30 43265 C 4206.25 3.21495 1.65298 0
M  V30 43266 O 4205.97 4.30951 0.788239 0
M  V30 43267 C 4207.47 3.67637 2.47705 0
M  V30 43268 H 4204.69 0.627535 0.237573 0
M  V30 43269 H 4207.23 2.04303 0.0897616 0
M  V30 43270 H 4205.39 3.08425 2.34421 0
M  V30 43271 H 4205.8 5.06613 1.35805 0
M  V30 43272 H 4207.27 4.62661 3.0108 0
M  V30 43273 H 4207.75 2.94811 3.2555 0
M  V30 43274 H 4208.36 3.8353 1.83806 0
M  V30 43275 N 4206.67 -0.378982 1.52975 0
M  V30 43276 C 4207.62 -1.46332 1.74846 0
M  V30 43277 C 4208.61 -1.49186 0.602702 0
M  V30 43278 O 4209.8 -1.54653 0.860898 0
M  V30 43279 C 4206.93 -2.83929 1.92975 0
M  V30 43280 C 4206.01 -2.85605 3.13513 0
M  V30 43281 N 4206.4 -2.56942 4.35677 0
M  V30 43282 C 4204.7 -3.16771 3.13962 0
M  V30 43283 C 4205.4 -2.65957 5.17341 0
M  V30 43284 N 4204.38 -3.00108 4.53251 0
M  V30 43285 H 4208.18 -1.23013 2.66918 0
M  V30 43286 H 4205.7 -0.587038 1.51419 0
M  V30 43287 H 4207.69 -3.62012 2.06768 0
M  V30 43288 H 4206.35 -3.08222 1.02123 0
M  V30 43289 H 4207.36 -2.30779 4.63639 0
M  V30 43290 H 4204.04 -3.46465 2.32955 0
M  V30 43291 H 4205.43 -2.47255 6.24751 0
M  V30 43292 N 4208.15 -1.44108 -0.638015 0
M  V30 43293 C 4209.4 -1.46529 -1.3977 0
M  V30 43294 C 4209.73 -0.0952701 -1.94267 0
M  V30 43295 O 4208.98 0.901963 -1.73675 0
M  V30 43296 C 4209.28 -2.46739 -2.58563 0
M  V30 43297 C 4208.95 -3.92238 -2.22396 0
M  V30 43298 C 4207.61 -4.31863 -2.12245 0
M  V30 43299 C 4209.96 -4.83866 -1.93708 0
M  V30 43300 C 4207.29 -5.61049 -1.71584 0
M  V30 43301 C 4209.64 -6.13433 -1.54542 0
M  V30 43302 C 4208.3 -6.52018 -1.42928 0
M  V30 43303 H 4207.57 -0.536186 -0.511454 0
M  V30 43304 H 4210.22 -1.7728 -0.724153 0
M  V30 43305 H 4208.53 -2.09445 -3.31119 0
M  V30 43306 H 4210.22 -2.4586 -3.16786 0
M  V30 43307 H 4206.81 -3.60886 -2.31212 0
M  V30 43308 H 4211 -4.54013 -2.00464 0
M  V30 43309 H 4206.25 -5.89769 -1.6119 0
M  V30 43310 H 4210.43 -6.83895 -1.31381 0
M  V30 43311 H 4208.05 -7.52024 -1.11193 0
M  V30 43312 N 4209.63 0.877792 -1.30891 0
M  V30 43313 C 4210.88 1.6302 -1.20128 0
M  V30 43314 C 4211.2 1.92984 0.24238 0
M  V30 43315 O 4210.46 1.55444 1.18893 0
M  V30 43316 C 4210.76 2.97364 -1.98266 0
M  V30 43317 C 4210.42 2.86924 -3.4783 0
M  V30 43318 C 4209.09 2.83783 -3.88613 0
M  V30 43319 C 4211.44 2.74527 -4.4304 0
M  V30 43320 C 4208.77 2.66095 -5.22887 0
M  V30 43321 C 4211.12 2.58376 -5.77429 0
M  V30 43322 C 4209.78 2.53614 -6.17443 0
M  V30 43323 H 4209.05 0.596533 -0.439579 0
M  V30 43324 H 4211.7 1.02004 -1.62072 0
M  V30 43325 H 4210 3.62371 -1.48979 0
M  V30 43326 H 4211.7 3.54557 -1.87325 0
M  V30 43327 H 4208.29 2.90181 -3.15425 0
M  V30 43328 H 4212.47 2.76014 -4.12468 0
M  V30 43329 H 4207.73 2.60828 -5.52973 0
M  V30 43330 H 4211.9 2.47759 -6.50837 0
M  V30 43331 H 4209.53 2.39666 -7.21432 0
M  V30 43332 N 4211.11 1.13725 1.09108 0
M  V30 43333 C 4212.33 0.924676 1.85646 0
M  V30 43334 C 4212.76 -0.521426 1.80728 0
M  V30 43335 O 4212.11 -1.37028 1.18714 0
M  V30 43336 C 4212.16 1.42121 3.31412 0
M  V30 43337 O 4211.27 0.608592 4.07885 0
M  V30 43338 H 4210.61 0.331146 0.575533 0
M  V30 43339 H 4213.14 1.51272 1.3776 0
M  V30 43340 H 4213.15 1.42625 3.82259 0
M  V30 43341 H 4211.82 2.4741 3.34307 0
M  V30 43342 H 4210.4 0.671689 3.66801 0
M  V30 43343 N 4212.58 -1.27143 0.931254 0
M  V30 43344 C 4213.83 -1.93497 0.56936 0
M  V30 43345 C 4214.15 -1.73961 -0.894257 0
M  V30 43346 O 4215.35 -2.34686 -1.36509 0
M  V30 43347 C 4213.81 -3.46652 0.967493 0
M  V30 43348 C 4213.42 -3.74939 2.45204 0
M  V30 43349 C 4215.16 -4.19066 0.677021 0
M  V30 43350 C 4213.07 -5.21485 2.78939 0
M  V30 43351 H 4212 -0.724391 0.20922 0
M  V30 43352 H 4214.65 -1.4438 1.13255 0
M  V30 43353 H 4213.03 -3.94598 0.332922 0
M  V30 43354 H 4214.2 -3.37736 3.13482 0
M  V30 43355 H 4212.52 -3.15736 2.71477 0
M  V30 43356 H 4215.12 -5.26977 0.905517 0
M  V30 43357 H 4215.46 -4.14508 -0.385894 0
M  V30 43358 H 4215.99 -3.76954 1.27085 0
M  V30 43359 H 4212.73 -5.31137 3.84153 0
M  V30 43360 H 4212.25 -5.59821 2.15314 0
M  V30 43361 H 4213.93 -5.89397 2.66872 0
M  V30 43362 N 4214.06 -0.697157 -1.41342 0
M  V30 43363 C 4214.99 -0.0472267 -2.33452 0
M  V30 43364 C 4215.97 0.765462 -1.51904 0
M  V30 43365 O 4217.16 0.718114 -1.80435 0
M  V30 43366 C 4214.29 0.888722 -3.35737 0
M  V30 43367 C 4213.24 0.183013 -4.27609 0
M  V30 43368 C 4212.57 1.23343 -5.20279 0
M  V30 43369 C 4213.87 -0.951649 -5.13557 0
M  V30 43370 H 4215.56 -0.816546 -2.8805 0
M  V30 43371 H 4213.11 -0.394113 -1.38502 0
M  V30 43372 H 4215.06 1.35265 -3.99101 0
M  V30 43373 H 4213.79 1.68973 -2.79492 0
M  V30 43374 H 4212.45 -0.260897 -3.6567 0
M  V30 43375 H 4212.09 2.027 -4.6035 0
M  V30 43376 H 4211.79 0.766234 -5.82583 0
M  V30 43377 H 4213.32 1.69783 -5.8652 0
M  V30 43378 H 4214.73 -0.567935 -5.7048 0
M  V30 43379 H 4213.13 -1.34604 -5.84809 0
M  V30 43380 H 4214.2 -1.79061 -4.50628 0
M  V30 43381 N 4215.54 1.51274 -0.44202 0
M  V30 43382 C 4216.47 2.30747 0.357517 0
M  V30 43383 C 4217.45 1.36364 1.01681 0
M  V30 43384 O 4218.64 1.65284 1.01955 0
M  V30 43385 C 4215.77 3.15289 1.45636 0
M  V30 43386 C 4214.72 4.17989 0.920304 0
M  V30 43387 C 4214.05 4.91082 2.11525 0
M  V30 43388 C 4215.35 5.22277 -0.0484859 0
M  V30 43389 H 4217.04 2.97835 -0.305702 0
M  V30 43390 H 4214.59 1.43233 -0.148464 0
M  V30 43391 H 4216.54 3.69668 2.02295 0
M  V30 43392 H 4215.26 2.46031 2.14794 0
M  V30 43393 H 4213.92 3.64668 0.375898 0
M  V30 43394 H 4213.57 4.18322 2.79313 0
M  V30 43395 H 4213.27 5.6053 1.76293 0
M  V30 43396 H 4214.8 5.48286 2.68729 0
M  V30 43397 H 4216.21 5.717 0.427952 0
M  V30 43398 H 4214.61 5.9928 -0.313609 0
M  V30 43399 H 4215.68 4.74817 -0.983694 0
M  V30 43400 N 4217.02 0.173543 1.56642 0
M  V30 43401 C 4217.98 -0.74197 2.16858 0
M  V30 43402 C 4218.98 -1.15648 1.11723 0
M  V30 43403 O 4220.17 -1.07308 1.37225 0
M  V30 43404 C 4217.3 -2.01021 2.75324 0
M  V30 43405 H 4218.5 -0.217717 2.99109 0
M  V30 43406 H 4216.05 -0.0760262 1.56115 0
M  V30 43407 H 4216.79 -2.5775 1.96813 0
M  V30 43408 H 4216.57 -1.72194 3.52267 0
M  V30 43409 H 4218.06 -2.66352 3.21631 0
M  V30 43410 N 4218.5 -1.57281 -0.100172 0
M  V30 43411 C 4219.43 -1.98378 -1.14799 0
M  V30 43412 C 4220.44 -0.885626 -1.36603 0
M  V30 43413 O 4221.63 -1.16378 -1.35345 0
M  V30 43414 C 4218.73 -2.28314 -2.50451 0
M  V30 43415 C 4217.9 -3.59612 -2.48994 0
M  V30 43416 C 4216.96 -3.77543 -3.66534 0
M  V30 43417 O 4215.99 -4.49453 -3.49258 0
M  V30 43418 N 4217.19 -3.17736 -4.85823 0
M  V30 43419 H 4219.96 -2.88874 -0.79825 0
M  V30 43420 H 4217.52 -1.59296 -0.289218 0
M  V30 43421 H 4219.51 -2.37508 -3.27677 0
M  V30 43422 H 4218.08 -1.43851 -2.77535 0
M  V30 43423 H 4217.3 -3.61434 -1.5735 0
M  V30 43424 H 4218.59 -4.45877 -2.45094 0
M  V30 43425 H 4217.99 -2.59316 -5.02764 0
M  V30 43426 H 4216.54 -3.32422 -5.60659 0
M  V30 43427 N 4219.98 0.370864 -1.53174 0
M  V30 43428 C 4220.89 1.47797 -1.8219 0
M  V30 43429 C 4221.9 1.5886 -0.709898 0
M  V30 43430 O 4223.08 1.74854 -0.999403 0
M  V30 43431 C 4220.14 2.83126 -2.00102 0
M  V30 43432 C 4219.2 2.81634 -3.24007 0
M  V30 43433 C 4218.44 4.10508 -3.41055 0
M  V30 43434 O 4218.66 5.06402 -2.62512 0
M  V30 43435 O 4217.59 4.16642 -4.34389 0
M  V30 43436 H 4221.42 1.26203 -2.76236 0
M  V30 43437 H 4219 0.560459 -1.38489 0
M  V30 43438 H 4220.89 3.63321 -2.13486 0
M  V30 43439 H 4219.56 3.04708 -1.09245 0
M  V30 43440 H 4218.47 2.00156 -3.16051 0
M  V30 43441 H 4219.8 2.65005 -4.14769 0
M  V30 43442 N 4221.45 1.44444 0.630363 0
M  V30 43443 C 4222.39 1.47357 1.75552 0
M  V30 43444 C 4223.4 0.366874 1.58612 0
M  V30 43445 O 4224.59 0.632658 1.66912 0
M  V30 43446 C 4221.69 1.29255 3.13283 0
M  V30 43447 C 4220.86 2.53184 3.56674 0
M  V30 43448 C 4219.92 2.2997 4.73286 0
M  V30 43449 O 4218.95 3.03462 4.81559 0
M  V30 43450 N 4220.15 1.33078 5.6504 0
M  V30 43451 H 4222.91 2.44355 1.73524 0
M  V30 43452 H 4220.47 1.39893 0.814952 0
M  V30 43453 H 4222.47 1.11571 3.89017 0
M  V30 43454 H 4221.04 0.406181 3.0995 0
M  V30 43455 H 4220.26 2.8614 2.71141 0
M  V30 43456 H 4221.54 3.35612 3.82416 0
M  V30 43457 H 4220.94 0.723831 5.6105 0
M  V30 43458 H 4219.5 1.21373 6.404 0
M  V30 43459 N 4222.93 -0.870838 1.31355 0
M  V30 43460 C 4223.86 -1.99386 1.21522 0
M  V30 43461 C 4224.84 -1.6979 0.102612 0
M  V30 43462 O 4226.03 -1.92067 0.287062 0
M  V30 43463 C 4223.16 -3.34869 0.920872 0
M  V30 43464 C 4222.11 -3.78768 1.99295 0
M  V30 43465 C 4221.44 -5.11701 1.55132 0
M  V30 43466 C 4222.74 -3.95969 3.40596 0
M  V30 43467 H 4224.43 -2.07871 2.15476 0
M  V30 43468 H 4221.98 -0.998743 1.03736 0
M  V30 43469 H 4223.93 -4.1297 0.838684 0
M  V30 43470 H 4222.65 -3.26555 -0.0543397 0
M  V30 43471 H 4221.31 -3.02907 2.06502 0
M  V30 43472 H 4220.96 -4.99828 0.563989 0
M  V30 43473 H 4220.66 -5.42044 2.26851 0
M  V30 43474 H 4222.19 -5.92312 1.48319 0
M  V30 43475 H 4223.6 -4.64468 3.36069 0
M  V30 43476 H 4222 -4.37709 4.10525 0
M  V30 43477 H 4223.07 -2.99378 3.81446 0
M  V30 43478 N 4224.41 -1.14302 -1.08503 0
M  V30 43479 C 4225.32 -0.842699 -2.18942 0
M  V30 43480 C 4226.34 0.17645 -1.73103 0
M  V30 43481 O 4227.51 0.005201 -2.01399 0
M  V30 43482 C 4224.58 -0.323408 -3.45188 0
M  V30 43483 C 4223.64 -1.40499 -4.05658 0
M  V30 43484 C 4222.87 -0.910382 -5.25878 0
M  V30 43485 O 4223.09 0.248515 -5.69858 0
M  V30 43486 O 4222.03 -1.68892 -5.77719 0
M  V30 43487 H 4225.85 -1.76564 -2.47101 0
M  V30 43488 H 4223.44 -0.921201 -1.17619 0
M  V30 43489 H 4225.32 -0.0396851 -4.21381 0
M  V30 43490 H 4224 0.571818 -3.18609 0
M  V30 43491 H 4222.9 -1.74216 -3.31058 0
M  V30 43492 H 4224.24 -2.2747 -4.36484 0
M  V30 43493 N 4225.89 1.26648 -0.937984 0
M  V30 43494 C 4226.83 2.26494 -0.443757 0
M  V30 43495 C 4227.8 1.58557 0.494866 0
M  V30 43496 O 4228.99 1.86304 0.411774 0
M  V30 43497 C 4226.13 3.43897 0.287914 0
M  V30 43498 C 4225.24 4.26518 -0.686011 0
M  V30 43499 C 4224.38 5.31158 0.0665369 0
M  V30 43500 C 4223.42 6.05456 -0.899419 0
M  V30 43501 N 4222.55 7.01872 -0.178833 0
M  V30 43502 H 4227.39 2.68142 -1.30015 0
M  V30 43503 H 4224.93 1.31844 -0.652354 0
M  V30 43504 H 4226.89 4.1079 0.72854 0
M  V30 43505 H 4225.52 3.03171 1.10847 0
M  V30 43506 H 4224.57 3.59444 -1.24515 0
M  V30 43507 H 4225.88 4.78047 -1.42381 0
M  V30 43508 H 4225.04 6.04048 0.566596 0
M  V30 43509 H 4223.78 4.8046 0.837242 0
M  V30 43510 H 4222.78 5.31395 -1.41063 0
M  V30 43511 H 4224.01 6.58244 -1.67008 0
M  V30 43512 H 4221.95 6.53489 0.573438 0
M  V30 43513 H 4221.87 7.51138 -0.856023 0
M  V30 43514 H 4223.14 7.78922 0.300237 0
M  V30 43515 N 4227.37 0.704643 1.4097 0
M  V30 43516 C 4228.33 0.0539263 2.29137 0
M  V30 43517 C 4229.33 -0.698657 1.44829 0
M  V30 43518 O 4230.52 -0.532191 1.65872 0
M  V30 43519 C 4227.65 -0.933804 3.27861 0
M  V30 43520 H 4228.84 0.830319 2.88177 0
M  V30 43521 H 4226.4 0.468658 1.49108 0
M  V30 43522 H 4227.13 -1.73764 2.73818 0
M  V30 43523 H 4226.92 -0.397181 3.90083 0
M  V30 43524 H 4228.41 -1.38662 3.93907 0
M  V30 43525 N 4228.84 -1.51038 0.450036 0
M  V30 43526 C 4229.77 -2.30933 -0.345275 0
M  V30 43527 C 4230.76 -1.36901 -1.00956 0
M  V30 43528 O 4231.94 -1.65822 -1.01077 0
M  V30 43529 C 4229.07 -3.16057 -1.43962 0
M  V30 43530 C 4228.02 -4.18471 -0.898124 0
M  V30 43531 C 4227.35 -4.92197 -2.08918 0
M  V30 43532 C 4228.65 -5.22244 0.0761829 0
M  V30 43533 H 4230.34 -2.97669 0.321493 0
M  V30 43534 H 4227.89 -1.43152 0.156058 0
M  V30 43535 H 4229.84 -3.70736 -2.00332 0
M  V30 43536 H 4228.57 -2.47166 -2.13486 0
M  V30 43537 H 4227.23 -3.64862 -0.356553 0
M  V30 43538 H 4226.87 -4.19797 -2.77091 0
M  V30 43539 H 4226.57 -5.61457 -1.73318 0
M  V30 43540 H 4228.1 -5.49703 -2.65817 0
M  V30 43541 H 4229.51 -5.71919 -0.397628 0
M  V30 43542 H 4227.91 -5.99105 0.345386 0
M  V30 43543 H 4228.98 -4.74289 1.00886 0
M  V30 43544 N 4230.32 -0.181847 -1.56547 0
M  V30 43545 C 4231.6 0.507304 -1.88907 0
M  V30 43546 C 4231.98 1.80579 -1.09337 0
M  V30 43547 O 4231.33 2.27705 -0.190437 0
M  V30 43548 C 4231.54 0.73898 -3.41087 0
M  V30 43549 C 4232.89 1.06428 -4.11045 0
M  V30 43550 O 4233.91 0.82716 -3.46463 0
M  V30 43551 O 4232.77 1.51216 -5.25163 0
M  V30 43552 H 4229.86 0.26278 -0.78414 0
M  V30 43553 H 4232.41 -0.221071 -1.68254 0
M  V30 43554 H 4231.18 -0.178539 -3.90892 0
M  V30 43555 H 4230.8 1.52029 -3.67387 0
M  V30 43556 N 4231.8 1.57332 0.09183 0
M  V30 43557 C 4233.04 1.88081 0.800301 0
M  V30 43558 C 4233.4 0.773238 1.75741 0
M  V30 43559 O 4234.61 0.963234 2.50949 0
M  V30 43560 C 4232.88 3.2407 1.5071 0
M  V30 43561 S 4234.44 3.7652 2.2534 0
M  V30 43562 H 4231.25 0.65914 0.266562 0
M  V30 43563 H 4233.86 1.95416 0.0572749 0
M  V30 43564 H 4232.56 4.02598 0.796429 0
M  V30 43565 H 4232.09 3.19882 2.28996 0
M  V30 43566 H 4234.11 3.50198 3.51533 0
M  V30 43567 N 4233.28 -0.362736 1.53369 0
M  V30 43568 C 4234.21 -1.46467 1.76295 0
M  V30 43569 C 4235.22 -1.4953 0.643784 0
M  V30 43570 O 4236.41 -1.52958 0.920108 0
M  V30 43571 C 4233.51 -2.85219 1.83039 0
M  V30 43572 C 4232.69 -3.0582 3.12719 0
M  V30 43573 C 4231.74 -4.24702 3.10667 0
M  V30 43574 O 4230.77 -4.1974 3.84457 0
M  V30 43575 N 4231.97 -5.32261 2.31686 0
M  V30 43576 H 4234.74 -1.27178 2.71378 0
M  V30 43577 H 4232.3 -0.552481 1.52182 0
M  V30 43578 H 4234.29 -3.62892 1.7914 0
M  V30 43579 H 4232.86 -2.97742 0.952279 0
M  V30 43580 H 4232.08 -2.15782 3.29897 0
M  V30 43581 H 4233.37 -3.16454 3.98415 0
M  V30 43582 H 4232.77 -5.39156 1.71252 0
M  V30 43583 H 4231.32 -6.085 2.33604 0
M  V30 43584 N 4234.76 -1.44777 -0.622694 0
M  V30 43585 C 4236.01 -1.4728 -1.37809 0
M  V30 43586 C 4236.32 -0.112619 -1.95276 0
M  V30 43587 O 4237.52 -0.0152262 -2.71496 0
M  V30 43588 C 4235.98 -2.59329 -2.49552 0
M  V30 43589 C 4235.59 -4.01593 -1.98563 0
M  V30 43590 C 4237.33 -2.71063 -3.26688 0
M  V30 43591 C 4235.24 -5.0505 -3.07698 0
M  V30 43592 H 4234.17 -0.547985 -0.517908 0
M  V30 43593 H 4236.82 -1.7087 -0.669015 0
M  V30 43594 H 4235.2 -2.28995 -3.23074 0
M  V30 43595 H 4236.38 -4.41534 -1.3185 0
M  V30 43596 H 4234.69 -3.94176 -1.34218 0
M  V30 43597 H 4237.29 -3.45529 -4.08061 0
M  V30 43598 H 4237.63 -1.77171 -3.76718 0
M  V30 43599 H 4238.16 -3.00848 -2.6026 0
M  V30 43600 H 4234.9 -6.006 -2.62603 0
M  V30 43601 H 4234.42 -4.69693 -3.73026 0
M  V30 43602 H 4236.1 -5.29128 -3.72334 0
M  V30 43603 N 4236.23 0.863859 -1.31815 0
M  V30 43604 C 4237.46 1.64762 -1.24647 0
M  V30 43605 C 4237.87 1.88248 0.189516 0
M  V30 43606 O 4237.22 1.44519 1.13402 0
M  V30 43607 C 4237.28 3.03502 -1.92684 0
M  V30 43608 C 4236.94 3.03098 -3.42024 0
M  V30 43609 C 4237.94 2.80612 -4.37667 0
M  V30 43610 C 4235.62 3.24025 -3.83814 0
M  V30 43611 C 4237.62 2.79043 -5.73074 0
M  V30 43612 C 4235.3 3.22084 -5.19332 0
M  V30 43613 C 4236.3 2.9962 -6.13773 0
M  V30 43614 O 4235.99 2.97535 -7.46812 0
M  V30 43615 H 4235.72 0.520214 -0.431687 0
M  V30 43616 H 4238.28 1.08606 -1.74338 0
M  V30 43617 H 4236.51 3.6141 -1.3755 0
M  V30 43618 H 4238.2 3.64128 -1.79349 0
M  V30 43619 H 4238.96 2.6422 -4.06709 0
M  V30 43620 H 4234.84 3.40538 -3.10732 0
M  V30 43621 H 4238.38 2.61429 -6.46762 0
M  V30 43622 H 4234.28 3.38017 -5.49922 0
M  V30 43623 H 4235.05 3.13554 -7.5606 0
M  V30 43624 N 4237.71 1.14875 1.07895 0
M  V30 43625 C 4238.96 0.918383 1.80028 0
M  V30 43626 C 4239.28 -0.55626 1.86898 0
M  V30 43627 O 4238.55 -1.40432 1.36586 0
M  V30 43628 H 4237.13 0.336787 0.666771 0
M  V30 43629 H 4239.79 1.44834 1.30419 0
M  V30 43630 H 4238.89 1.32292 2.82675 0
M  V30 43631 N 4239.19 -1.26148 0.944687 0
M  V30 43632 C 4240.15 -2.24504 0.461587 0
M  V30 43633 C 4241.15 -1.54965 -0.429249 0
M  V30 43634 O 4242.34 -1.72702 -0.227935 0
M  V30 43635 C 4239.48 -3.39257 -0.334303 0
M  V30 43636 H 4240.67 -2.68756 1.3308 0
M  V30 43637 H 4238.22 -1.38364 0.726992 0
M  V30 43638 H 4238.96 -3.00412 -1.22161 0
M  V30 43639 H 4238.74 -3.90915 0.304657 0
M  V30 43640 H 4240.23 -4.12318 -0.662109 0
M  V30 43641 N 4240.67 -0.712109 -1.40594 0
M  V30 43642 C 4241.91 -0.254497 -2.02809 0
M  V30 43643 C 4242.27 1.12986 -1.55236 0
M  V30 43644 O 4243.47 1.68427 -2.0949 0
M  V30 43645 C 4241.74 -0.327752 -3.55894 0
M  V30 43646 S 4243.3 0.0533853 -4.38768 0
M  V30 43647 H 4240.12 -0.10121 -0.70376 0
M  V30 43648 H 4242.72 -0.933558 -1.7177 0
M  V30 43649 H 4241.43 -1.33699 -3.88011 0
M  V30 43650 H 4240.96 0.369904 -3.91657 0
M  V30 43651 H 4242.97 1.27643 -4.79501 0
M  V30 43652 N 4242.15 1.50797 -0.45804 0
M  V30 43653 C 4243.38 2.06361 0.0993573 0
M  V30 43654 C 4243.78 1.32344 1.3521 0
M  V30 43655 O 4243.13 0.382377 1.79676 0
M  V30 43656 C 4243.19 3.56461 0.466427 0
M  V30 43657 C 4242.85 4.51876 -0.682434 0
M  V30 43658 C 4243.85 4.95922 -1.56068 0
M  V30 43659 C 4241.54 4.94725 -0.869053 0
M  V30 43660 C 4243.53 5.81511 -2.61006 0
M  V30 43661 C 4241.22 5.80099 -1.92168 0
M  V30 43662 C 4242.21 6.23392 -2.79055 0
M  V30 43663 O 4241.9 7.07067 -3.82507 0
M  V30 43664 H 4241.63 0.675997 0.00210248 0
M  V30 43665 H 4244.19 1.95109 -0.642004 0
M  V30 43666 H 4242.42 3.65569 1.26079 0
M  V30 43667 H 4244.11 3.94448 0.957382 0
M  V30 43668 H 4244.87 4.63497 -1.42813 0
M  V30 43669 H 4240.75 4.60556 -0.202267 0
M  V30 43670 H 4244.3 6.15223 -3.28856 0
M  V30 43671 H 4240.19 6.11937 -2.05435 0
M  V30 43672 H 4240.96 7.2529 -3.79338 0
M  V30 43673 N 4243.63 0.190147 1.56449 0
M  V30 43674 C 4244.85 -0.458787 2.02262 0
M  V30 43675 C 4245.28 -1.5474 1.06944 0
M  V30 43676 O 4244.63 -1.81225 0.0521029 0
M  V30 43677 C 4244.68 -0.996725 3.46551 0
M  V30 43678 O 4243.79 -2.10987 3.54342 0
M  V30 43679 H 4243.13 -0.107789 0.655193 0
M  V30 43680 H 4245.66 0.299571 2.02395 0
M  V30 43681 H 4245.67 -1.31458 3.86242 0
M  V30 43682 H 4244.34 -0.199779 4.1542 0
M  V30 43683 H 4242.92 -1.80103 3.26523 0
M  V30 43684 N 4245.1 -1.57379 -0.083485 0
M  V30 43685 C 4246.35 -1.85857 -0.783594 0
M  V30 43686 C 4246.67 -0.781113 -1.79326 0
M  V30 43687 O 4247.87 -0.953372 -2.54211 0
M  V30 43688 C 4246.33 -3.2964 -1.44448 0
M  V30 43689 C 4245.94 -4.45486 -0.47398 0
M  V30 43690 C 4247.68 -3.67331 -2.12764 0
M  V30 43691 C 4245.59 -5.80306 -1.14012 0
M  V30 43692 H 4244.52 -0.693301 -0.296395 0
M  V30 43693 H 4247.17 -1.83463 -0.036693 0
M  V30 43694 H 4245.55 -3.2661 -2.23924 0
M  V30 43695 H 4246.72 -4.59886 0.290123 0
M  V30 43696 H 4245.04 -4.1627 0.104099 0
M  V30 43697 H 4247.64 -4.65346 -2.63357 0
M  V30 43698 H 4247.98 -2.96539 -2.92182 0
M  V30 43699 H 4248.51 -3.723 -1.40134 0
M  V30 43700 H 4245.25 -6.5436 -0.386504 0
M  V30 43701 H 4244.77 -5.69728 -1.87537 0
M  V30 43702 H 4246.45 -6.25255 -1.6633 0
M  V30 43703 N 4246.58 0.354597 -1.53559 0
M  V30 43704 C 4247.49 1.45856 -1.83747 0
M  V30 43705 C 4248.51 1.58098 -0.726707 0
M  V30 43706 O 4249.68 1.73784 -1.01789 0
M  V30 43707 C 4246.75 2.80987 -2.03094 0
M  V30 43708 C 4245.81 2.78182 -3.26976 0
M  V30 43709 C 4245.04 4.06868 -3.4539 0
M  V30 43710 O 4245.27 5.0359 -2.67869 0
M  V30 43711 O 4244.2 4.12011 -4.38783 0
M  V30 43712 H 4248.03 1.23266 -2.77559 0
M  V30 43713 H 4245.61 0.545739 -1.39076 0
M  V30 43714 H 4247.49 3.61036 -2.17327 0
M  V30 43715 H 4246.17 3.03532 -1.12471 0
M  V30 43716 H 4245.07 1.96793 -3.18156 0
M  V30 43717 H 4246.41 2.60591 -4.17556 0
M  V30 43718 N 4248.06 1.45105 0.615008 0
M  V30 43719 C 4249.47 1.4329 1.19687 0
M  V30 43720 C 4249.82 0.156619 1.95574 0
M  V30 43721 O 4248.95 -0.742211 2.03274 0
M  V30 43722 C 4249.54 2.5959 2.17712 0
M  V30 43723 C 4248.1 2.60918 2.71291 0
M  V30 43724 C 4247.25 2.35402 1.46565 0
M  V30 43725 H 4250.2 1.53452 0.404742 0
M  V30 43726 H 4250.22 2.33264 3.00613 0
M  V30 43727 H 4249.73 3.52464 1.62452 0
M  V30 43728 H 4247.83 1.7203 3.3051 0
M  V30 43729 H 4247.95 3.5991 3.1623 0
M  V30 43730 H 4246.31 1.84811 1.75262 0
M  V30 43731 H 4247.09 3.30411 0.93184 0
M  V30 43732 N 4249.54 -0.856857 1.32271 0
M  V30 43733 C 4250.47 -1.98086 1.2363 0
M  V30 43734 C 4251.45 -1.69672 0.120615 0
M  V30 43735 O 4252.63 -1.91751 0.307417 0
M  V30 43736 C 4249.76 -3.33873 0.956337 0
M  V30 43737 C 4248.72 -3.76633 2.03301 0
M  V30 43738 C 4248.04 -5.10027 1.6055 0
M  V30 43739 C 4249.34 -3.92335 3.44776 0
M  V30 43740 H 4251.04 -2.05574 2.17669 0
M  V30 43741 H 4248.58 -0.987684 1.04789 0
M  V30 43742 H 4250.54 -4.12057 0.882438 0
M  V30 43743 H 4249.26 -3.26594 -0.0197011 0
M  V30 43744 H 4247.92 -3.007 2.09703 0
M  V30 43745 H 4247.57 -4.99202 0.61697 0
M  V30 43746 H 4247.27 -5.39608 2.32588 0
M  V30 43747 H 4248.79 -5.90706 1.54593 0
M  V30 43748 H 4250.21 -4.60878 3.40976 0
M  V30 43749 H 4248.6 -4.3333 4.15144 0
M  V30 43750 H 4249.67 -2.95315 3.846 0
M  V30 43751 N 4251.02 -1.15446 -1.07285 0
M  V30 43752 C 4252.29 -0.840252 -1.76633 0
M  V30 43753 C 4252.67 0.664002 -2.00385 0
M  V30 43754 O 4252.02 1.60858 -1.62287 0
M  V30 43755 C 4252.23 -1.65179 -3.07436 0
M  V30 43756 C 4253.58 -1.85842 -3.8177 0
M  V30 43757 O 4254.6 -1.61961 -3.17249 0
M  V30 43758 O 4253.46 -2.25843 -4.97652 0
M  V30 43759 H 4250.56 -0.309072 -0.767074 0
M  V30 43760 H 4253.1 -1.26028 -1.13644 0
M  V30 43761 H 4251.87 -2.67304 -2.85769 0
M  V30 43762 H 4251.5 -1.22814 -3.78157 0
M  V30 43763 N 4252.49 1.25646 -0.951364 0
M  V30 43764 C 4253.42 2.28366 -0.486938 0
M  V30 43765 C 4254.4 1.6362 0.465043 0
M  V30 43766 O 4255.59 1.90745 0.364703 0
M  V30 43767 C 4252.72 3.46476 0.239168 0
M  V30 43768 C 4251.67 4.23379 -0.627237 0
M  V30 43769 C 4251 5.34208 0.22942 0
M  V30 43770 C 4252.3 4.8637 -1.90371 0
M  V30 43771 H 4253.99 2.67465 -1.34547 0
M  V30 43772 H 4251.54 1.28576 -0.648405 0
M  V30 43773 H 4253.49 4.17456 0.575178 0
M  V30 43774 H 4252.22 3.06358 1.13192 0
M  V30 43775 H 4250.88 3.54177 -0.946285 0
M  V30 43776 H 4250.52 4.9033 1.12183 0
M  V30 43777 H 4250.22 5.86575 -0.346955 0
M  V30 43778 H 4251.75 6.08022 0.560471 0
M  V30 43779 H 4253.16 5.49512 -1.63431 0
M  V30 43780 H 4251.56 5.489 -2.42547 0
M  V30 43781 H 4252.63 4.08739 -2.60883 0
M  V30 43782 N 4253.97 0.719555 1.40215 0
M  V30 43783 C 4255.38 0.332662 1.83712 0
M  V30 43784 C 4255.73 -1.13338 1.60153 0
M  V30 43785 O 4254.86 -1.87263 1.0845 0
M  V30 43786 C 4255.45 0.597006 3.33499 0
M  V30 43787 C 4254.01 0.263778 3.75475 0
M  V30 43788 C 4253.16 0.867387 2.63385 0
M  V30 43789 H 4256.11 0.918401 1.29426 0
M  V30 43790 H 4256.13 -0.13643 3.80255 0
M  V30 43791 H 4255.64 1.66408 3.50614 0
M  V30 43792 H 4253.74 -0.798075 3.63953 0
M  V30 43793 H 4253.86 0.735549 4.7342 0
M  V30 43794 H 4252.22 0.295136 2.52984 0
M  V30 43795 H 4253 1.93881 2.83311 0
M  V30 43796 N 4255.45 -1.50552 0.466031 0
M  V30 43797 C 4256.38 -2.26243 -0.366983 0
M  V30 43798 C 4257.39 -1.31373 -0.961503 0
M  V30 43799 O 4258.58 -1.56921 -0.850768 0
M  V30 43800 C 4255.68 -3.02488 -1.5282 0
M  V30 43801 C 4254.86 -4.24675 -1.04739 0
M  V30 43802 C 4253.92 -4.83256 -2.08206 0
M  V30 43803 O 4252.94 -5.44312 -1.66473 0
M  V30 43804 N 4254.14 -4.69809 -3.40969 0
M  V30 43805 H 4256.91 -2.98371 0.281879 0
M  V30 43806 H 4254.47 -1.59161 0.296525 0
M  V30 43807 H 4256.46 -3.38559 -2.2172 0
M  V30 43808 H 4255.03 -2.3319 -2.08185 0
M  V30 43809 H 4254.25 -3.93768 -0.184445 0
M  V30 43810 H 4255.54 -5.03906 -0.703984 0
M  V30 43811 H 4254.94 -4.21241 -3.77588 0
M  V30 43812 H 4253.49 -5.10163 -4.05681 0
M  V30 43813 N 4256.93 -0.198441 -1.56346 0
M  V30 43814 C 4258.18 0.439678 -1.96849 0
M  V30 43815 C 4258.49 1.62527 -1.08832 0
M  V30 43816 O 4259.7 2.3314 -1.39133 0
M  V30 43817 C 4258.15 0.833628 -3.50112 0
M  V30 43818 C 4257.76 -0.327864 -4.46799 0
M  V30 43819 C 4259.5 1.43864 -3.99379 0
M  V30 43820 C 4257.41 0.0872318 -5.91336 0
M  V30 43821 H 4256.34 0.168039 -0.735037 0
M  V30 43822 H 4258.99 -0.290989 -1.81178 0
M  V30 43823 H 4257.37 1.62106 -3.613 0
M  V30 43824 H 4258.55 -1.1054 -4.47345 0
M  V30 43825 H 4256.86 -0.844593 -4.07745 0
M  V30 43826 H 4259.46 1.76172 -5.04844 0
M  V30 43827 H 4259.8 2.34631 -3.43881 0
M  V30 43828 H 4260.34 0.715117 -3.91319 0
M  V30 43829 H 4257.07 -0.786337 -6.50766 0
M  V30 43830 H 4256.59 0.829558 -5.94036 0
M  V30 43831 H 4258.27 0.521889 -6.44892 0
M  V30 43832 N 4258.41 1.57421 0.0751377 0
M  V30 43833 C 4259.66 1.8627 0.773727 0
M  V30 43834 C 4259.97 0.790612 1.7891 0
M  V30 43835 O 4261.17 0.96684 2.53702 0
M  V30 43836 C 4259.63 3.30402 1.42698 0
M  V30 43837 C 4259.24 4.45731 0.450348 0
M  V30 43838 C 4260.98 3.68454 2.10813 0
M  V30 43839 C 4258.89 5.80903 1.10933 0
M  V30 43840 H 4257.82 0.694863 0.292714 0
M  V30 43841 H 4260.47 1.8348 0.026963 0
M  V30 43842 H 4258.85 3.27793 2.22189 0
M  V30 43843 H 4260.03 4.59725 -0.314508 0
M  V30 43844 H 4258.34 4.16209 -0.126174 0
M  V30 43845 H 4260.94 4.66736 2.60886 0
M  V30 43846 H 4261.28 2.98084 2.90605 0
M  V30 43847 H 4261.81 3.73038 1.38157 0
M  V30 43848 H 4258.55 6.54555 0.351797 0
M  V30 43849 H 4258.07 5.70715 1.84512 0
M  V30 43850 H 4259.75 6.26128 1.63011 0
M  V30 43851 N 4259.88 -0.346449 1.53745 0
M  V30 43852 C 4260.79 -1.4488 1.84518 0
M  V30 43853 C 4261.81 -1.5771 0.735082 0
M  V30 43854 O 4262.99 -1.73242 1.02709 0
M  V30 43855 C 4260.05 -2.79906 2.04581 0
M  V30 43856 C 4259.11 -2.76444 3.28447 0
M  V30 43857 C 4258.35 -4.0503 3.47543 0
M  V30 43858 O 4258.57 -5.02162 2.70536 0
M  V30 43859 O 4257.5 -4.09678 4.40962 0
M  V30 43860 H 4261.33 -1.21792 2.78209 0
M  V30 43861 H 4258.91 -0.538356 1.39363 0
M  V30 43862 H 4260.8 -3.59878 2.19239 0
M  V30 43863 H 4259.47 -3.02932 1.14079 0
M  V30 43864 H 4258.38 -1.95103 3.19195 0
M  V30 43865 H 4259.71 -2.58373 4.18932 0
M  V30 43866 N 4261.36 -1.45429 -0.607304 0
M  V30 43867 C 4262.78 -1.29841 -0.928087 0
M  V30 43868 C 4262.98 -0.251649 -1.99922 0
M  V30 43869 O 4262.03 0.35431 -2.50002 0
M  V30 43870 C 4263.35 -2.67742 -1.36875 0
M  V30 43871 C 4264.9 -2.75641 -1.48294 0
M  V30 43872 C 4265.37 -4.14067 -1.95735 0
M  V30 43873 N 4266.86 -4.16363 -2.02969 0
M  V30 43874 C 4267.6 -5.20341 -2.40899 0
M  V30 43875 N 4267.09 -6.34666 -2.77796 0
M  V30 43876 N 4268.89 -5.077 -2.4124 0
M  V30 43877 H 4261.04 -2.12161 0.100679 0
M  V30 43878 H 4263.3 -0.947836 -0.0176143 0
M  V30 43879 H 4263.01 -3.45531 -0.655862 0
M  V30 43880 H 4262.88 -2.96223 -2.3352 0
M  V30 43881 H 4265.27 -1.98156 -2.18674 0
M  V30 43882 H 4265.35 -2.50873 -0.499623 0
M  V30 43883 H 4264.99 -4.92037 -1.25943 0
M  V30 43884 H 4264.92 -4.36226 -2.94981 0
M  V30 43885 H 4267.41 -3.33863 -1.77043 0
M  V30 43886 H 4267.73 -7.098 -3.05621 0
M  V30 43887 H 4266.07 -6.38067 -2.75491 0
M  V30 43888 H 4269.26 -4.17432 -2.11821 0
M  V30 43889 H 4269.43 -5.88853 -2.70475 0
M  V30 43890 N 4262.84 0.84983 -1.32724 0
M  V30 43891 C 4263.77 1.97427 -1.24678 0
M  V30 43892 C 4264.75 1.69605 -0.129611 0
M  V30 43893 O 4265.94 1.91586 -0.317582 0
M  V30 43894 C 4263.07 3.33362 -0.97403 0
M  V30 43895 C 4262.02 3.7555 -2.05296 0
M  V30 43896 C 4261.35 5.09169 -1.63253 0
M  V30 43897 C 4262.65 3.90501 -3.46852 0
M  V30 43898 H 4264.34 2.04417 -2.18756 0
M  V30 43899 H 4261.89 0.982113 -1.05312 0
M  V30 43900 H 4263.84 4.11583 -0.904278 0
M  V30 43901 H 4262.56 3.266 0.00238075 0
M  V30 43902 H 4261.22 2.99583 -2.11295 0
M  V30 43903 H 4260.87 4.98868 -0.643436 0
M  V30 43904 H 4260.57 5.38367 -2.35446 0
M  V30 43905 H 4262.09 5.89878 -1.57723 0
M  V30 43906 H 4263.51 4.59063 -3.43416 0
M  V30 43907 H 4261.91 4.31123 -4.17437 0
M  V30 43908 H 4262.98 2.93272 -3.8616 0
M  V30 43909 N 4264.32 1.16013 1.06671 0
M  V30 43910 C 4265.27 0.831552 2.12295 0
M  V30 43911 C 4266.25 -0.187301 1.59806 0
M  V30 43912 O 4267.44 0.0129693 1.76995 0
M  V30 43913 C 4264.57 0.330181 3.41708 0
M  V30 43914 C 4263.66 1.37959 4.01034 0
M  V30 43915 N 4264.05 2.5889 4.34523 0
M  V30 43916 C 4262.35 1.23395 4.2859 0
M  V30 43917 C 4263.05 3.26206 4.81627 0
M  V30 43918 N 4262.03 2.53588 4.80826 0
M  V30 43919 H 4265.83 1.75121 2.36029 0
M  V30 43920 H 4263.34 1.04662 1.24176 0
M  V30 43921 H 4265.34 0.0764026 4.1683 0
M  V30 43922 H 4264 -0.583458 3.19415 0
M  V30 43923 H 4265.01 2.95978 4.24991 0
M  V30 43924 H 4261.69 0.380762 4.1576 0
M  V30 43925 H 4263.08 4.29411 5.16774 0
M  V30 43926 N 4265.8 -1.25139 0.958014 0
M  V30 43927 C 4267.04 -1.92566 0.613412 0
M  V30 43928 C 4267.37 -1.75365 -0.852774 0
M  V30 43929 O 4266.64 -1.11932 -1.60773 0
M  V30 43930 H 4265.22 -0.712662 0.22388 0
M  V30 43931 H 4267.88 -1.52235 1.21699 0
M  V30 43932 H 4266.97 -3.00425 0.845647 0
M  V30 43933 N 4267.27 -0.726981 -1.39831 0
M  V30 43934 C 4268.2 -0.0967348 -2.333 0
M  V30 43935 C 4269.19 0.733068 -1.53493 0
M  V30 43936 O 4270.37 0.67968 -1.81918 0
M  V30 43937 C 4267.5 0.817307 -3.37546 0
M  V30 43938 C 4266.45 0.0922695 -4.27901 0
M  V30 43939 C 4265.78 1.12279 -5.22779 0
M  V30 43940 C 4267.08 -1.06037 -5.11423 0
M  V30 43941 H 4268.77 -0.877462 -2.86253 0
M  V30 43942 H 4266.32 -0.423403 -1.37635 0
M  V30 43943 H 4268.27 1.26769 -4.0188 0
M  V30 43944 H 4267 1.63006 -2.83013 0
M  V30 43945 H 4265.66 -0.338403 -3.65035 0
M  V30 43946 H 4265.3 1.9289 -4.64546 0
M  V30 43947 H 4265 0.642487 -5.84077 0
M  V30 43948 H 4266.53 1.57304 -5.8999 0
M  V30 43949 H 4267.94 -0.688815 -5.69147 0
M  V30 43950 H 4266.34 -1.46978 -5.81823 0
M  V30 43951 H 4267.41 -1.88579 -4.46728 0
M  V30 43952 N 4268.75 1.50303 -0.474008 0
M  V30 43953 C 4269.98 2.07246 0.0798368 0
M  V30 43954 C 4270.4 1.33524 1.32488 0
M  V30 43955 O 4269.76 0.383774 1.77192 0
M  V30 43956 C 4269.81 3.58957 0.343863 0
M  V30 43957 O 4268.91 3.87042 1.42381 0
M  V30 43958 H 4268.25 0.663847 -0.0142725 0
M  V30 43959 H 4270.78 1.93461 -0.665888 0
M  V30 43960 H 4270.79 4.03806 0.583487 0
M  V30 43961 H 4269.47 4.12032 -0.565927 0
M  V30 43962 H 4268.05 3.54028 1.17126 0
M  V30 43963 N 4270.23 0.20673 1.56238 0
M  V30 43964 C 4271.19 -0.695804 2.18383 0
M  V30 43965 C 4272.19 -1.13253 1.14151 0
M  V30 43966 O 4273.38 -1.04373 1.3947 0
M  V30 43967 C 4270.52 -1.95136 2.79526 0
M  V30 43968 H 4271.71 -0.154222 2.99503 0
M  V30 43969 H 4269.26 -0.0428948 1.56241 0
M  V30 43970 H 4270 -2.53517 2.02236 0
M  V30 43971 H 4269.78 -1.64683 3.5584 0
M  V30 43972 H 4271.27 -2.5947 3.27208 0
M  V30 43973 N 4271.71 -1.57458 -0.0667882 0
M  V30 43974 C 4272.96 -1.87494 -0.764992 0
M  V30 43975 C 4273.28 -0.799137 -1.77325 0
M  V30 43976 O 4272.54 0.204319 -1.9463 0
M  V30 43977 C 4272.84 -3.24207 -1.50415 0
M  V30 43978 C 4272.5 -4.464 -0.63541 0
M  V30 43979 C 4271.17 -4.79568 -0.396017 0
M  V30 43980 C 4273.52 -5.21189 -0.0333096 0
M  V30 43981 C 4270.85 -5.84934 0.454875 0
M  V30 43982 C 4273.2 -6.27456 0.805065 0
M  V30 43983 C 4271.86 -6.59121 1.05428 0
M  V30 43984 H 4271.13 -0.68609 -0.279931 0
M  V30 43985 H 4273.78 -1.91483 -0.025643 0
M  V30 43986 H 4272.08 -3.16032 -2.31583 0
M  V30 43987 H 4273.78 -3.44683 -2.04926 0
M  V30 43988 H 4270.37 -4.20445 -0.832127 0
M  V30 43989 H 4274.55 -4.95875 -0.205365 0
M  V30 43990 H 4269.81 -6.07864 0.656652 0
M  V30 43991 H 4273.98 -6.84567 1.27833 0
M  V30 43992 H 4271.61 -7.40593 1.71538 0
M  V30 43993 N 4273.19 0.33829 -1.53926 0
M  V30 43994 C 4274.41 1.10227 -1.75684 0
M  V30 43995 C 4274.84 1.81412 -0.497119 0
M  V30 43996 O 4274.2 1.72739 0.550547 0
M  V30 43997 C 4274.24 2.08738 -2.94042 0
M  V30 43998 O 4273.35 3.16359 -2.64558 0
M  V30 43999 H 4272.69 0.318534 -0.582608 0
M  V30 44000 H 4275.22 0.387078 -2.00905 0
M  V30 44001 H 4275.23 2.51868 -3.20978 0
M  V30 44002 H 4273.9 1.56324 -3.85403 0
M  V30 44003 H 4272.48 2.78009 -2.48526 0
M  V30 44004 N 4274.67 1.45749 0.599583 0
M  V30 44005 C 4275.6 1.5788 1.72035 0
M  V30 44006 C 4276.58 0.429922 1.64577 0
M  V30 44007 O 4277.76 0.654069 1.82854 0
M  V30 44008 C 4274.89 1.55277 3.10655 0
M  V30 44009 C 4273.85 2.68963 3.32931 0
M  V30 44010 C 4273.17 2.51416 4.71905 0
M  V30 44011 C 4274.47 4.10917 3.22404 0
M  V30 44012 H 4276.17 2.51696 1.6214 0
M  V30 44013 H 4273.71 1.21134 0.778619 0
M  V30 44014 H 4275.66 1.6236 3.88867 0
M  V30 44015 H 4274.39 0.579948 3.2141 0
M  V30 44016 H 4273.05 2.61322 2.57112 0
M  V30 44017 H 4272.7 1.52255 4.79403 0
M  V30 44018 H 4272.4 3.27659 4.87764 0
M  V30 44019 H 4273.92 2.60365 5.52307 0
M  V30 44020 H 4275.33 4.19759 3.90481 0
M  V30 44021 H 4273.73 4.87613 3.49791 0
M  V30 44022 H 4274.8 4.3226 2.19725 0
M  V30 44023 N 4276.14 -0.84278 1.33173 0
M  V30 44024 C 4277.09 -1.94068 1.19673 0
M  V30 44025 C 4278.08 -1.60585 0.100616 0
M  V30 44026 O 4279.27 -1.73928 0.328324 0
M  V30 44027 C 4276.4 -3.30347 0.934118 0
M  V30 44028 C 4275.48 -3.70012 2.07249 0
M  V30 44029 N 4275.88 -3.81404 3.32212 0
M  V30 44030 C 4274.17 -3.99724 1.97831 0
M  V30 44031 C 4274.87 -4.15752 4.06848 0
M  V30 44032 N 4273.85 -4.27911 3.35251 0
M  V30 44033 H 4277.65 -2.01025 2.14397 0
M  V30 44034 H 4275.17 -1.03527 1.25124 0
M  V30 44035 H 4277.16 -4.08789 0.818339 0
M  V30 44036 H 4275.82 -3.247 -0.00462919 0
M  V30 44037 H 4276.83 -3.65413 3.67007 0
M  V30 44038 H 4273.51 -4.0231 1.11591 0
M  V30 44039 H 4274.9 -4.31935 5.14666 0
M  V30 44040 N 4277.62 -1.16577 -1.06054 0
M  V30 44041 C 4278.85 -0.973571 -1.83129 0
M  V30 44042 C 4279.27 0.473326 -1.82047 0
M  V30 44043 O 4278.63 1.33832 -1.22306 0
M  V30 44044 C 4278.68 -1.50858 -3.27527 0
M  V30 44045 O 4277.78 -0.716522 -4.06128 0
M  V30 44046 H 4277.12 -0.346289 -0.566551 0
M  V30 44047 H 4279.65 -1.54872 -1.33701 0
M  V30 44048 H 4279.66 -1.5271 -3.78343 0
M  V30 44049 H 4278.34 -2.56186 -3.2763 0
M  V30 44050 H 4276.91 -0.768704 -3.64891 0
M  V30 44051 N 4279.1 1.2463 -0.964637 0
M  V30 44052 C 4280.33 1.96391 -0.64143 0
M  V30 44053 C 4280.74 1.71793 0.792695 0
M  V30 44054 O 4280.08 0.996685 1.54311 0
M  V30 44055 C 4280.14 3.49729 -0.832479 0
M  V30 44056 C 4279.81 3.98019 -2.24566 0
M  V30 44057 C 4280.8 4.07932 -3.22315 0
M  V30 44058 C 4278.49 4.31423 -2.57253 0
M  V30 44059 C 4280.48 4.5058 -4.5084 0
M  V30 44060 C 4278.17 4.73755 -3.86005 0
M  V30 44061 C 4279.17 4.83297 -4.8261 0
M  V30 44062 O 4278.86 5.24685 -6.09065 0
M  V30 44063 H 4278.59 0.632503 -0.238572 0
M  V30 44064 H 4281.14 1.59495 -1.29423 0
M  V30 44065 H 4279.37 3.86506 -0.122513 0
M  V30 44066 H 4281.06 4.02698 -0.508821 0
M  V30 44067 H 4281.83 3.82346 -2.9839 0
M  V30 44068 H 4277.71 4.23217 -1.8278 0
M  V30 44069 H 4281.25 4.57943 -5.26245 0
M  V30 44070 H 4277.15 4.98788 -4.09732 0
M  V30 44071 H 4277.91 5.42843 -6.12587 0
M  V30 44072 N 4280.58 0.734386 1.39444 0
M  V30 44073 C 4281.8 0.290939 2.05349 0
M  V30 44074 C 4282.23 -1.06559 1.55006 0
M  V30 44075 O 4281.59 -1.6751 0.693538 0
M  V30 44076 C 4281.63 0.301626 3.59336 0
M  V30 44077 O 4280.74 -0.710941 4.06226 0
M  V30 44078 H 4280.08 0.1324 0.650666 0
M  V30 44079 H 4282.61 1.00014 1.78489 0
M  V30 44080 H 4282.62 0.145802 4.07739 0
M  V30 44081 H 4281.29 1.29147 3.9534 0
M  V30 44082 H 4279.87 -0.521304 3.69238 0
M  V30 44083 N 4282.06 -1.50049 0.481972 0
M  V30 44084 C 4283.47 -1.86677 0.0294967 0
M  V30 44085 C 4283.82 -1.39592 -1.37872 0
M  V30 44086 O 4282.94 -0.765553 -2.02406 0
M  V30 44087 C 4283.54 -3.38768 0.0467516 0
M  V30 44088 C 4282.1 -3.74766 -0.350299 0
M  V30 44089 C 4281.24 -2.73984 0.427547 0
M  V30 44090 H 4284.19 -1.42638 0.695715 0
M  V30 44091 H 4284.22 -3.72976 -0.752955 0
M  V30 44092 H 4283.73 -3.73007 1.07179 0
M  V30 44093 H 4281.83 -3.46131 -1.37928 0
M  V30 44094 H 4281.94 -4.7908 -0.0440784 0
M  V30 44095 H 4280.31 -2.54416 -0.120175 0
M  V30 44096 H 4281.09 -3.11068 1.4523 0
M  V30 44097 N 4283.53 -0.215012 -1.56126 0
M  V30 44098 C 4284.78 0.417628 -1.97738 0
M  V30 44099 C 4285.1 1.60758 -1.10371 0
M  V30 44100 O 4284.37 1.95078 -0.179296 0
M  V30 44101 H 4282.95 0.157286 -0.730254 0
M  V30 44102 H 4285.61 -0.306385 -1.92477 0
M  V30 44103 H 4284.71 0.748368 -3.02995 0
M  V30 44104 N 4285.01 1.57492 0.0584368 0
M  V30 44105 C 4285.92 2.07971 1.0856 0
M  V30 44106 C 4286.94 1.012 1.41543 0
M  V30 44107 O 4288.11 1.32756 1.51452 0
M  V30 44108 C 4285.18 2.52471 2.37612 0
M  V30 44109 C 4284.24 3.73598 2.11478 0
M  V30 44110 C 4283.47 4.15966 3.34377 0
M  V30 44111 O 4283.7 3.5809 4.4399 0
M  V30 44112 O 4282.63 5.08652 3.21803 0
M  V30 44113 H 4286.46 2.95834 0.686712 0
M  V30 44114 H 4284.04 1.46876 0.273476 0
M  V30 44115 H 4285.92 2.81555 3.13536 0
M  V30 44116 H 4284.6 1.67731 2.76854 0
M  V30 44117 H 4283.5 3.49577 1.33216 0
M  V30 44118 H 4284.84 4.59231 1.77109 0
M  V30 44119 N 4286.49 -0.330122 1.54104 0
M  V30 44120 C 4287.74 -1.06632 1.71209 0
M  V30 44121 C 4288.05 -1.89385 0.48916 0
M  V30 44122 O 4289.26 -2.66047 0.541422 0
M  V30 44123 C 4287.71 -1.94526 3.028 0
M  V30 44124 C 4287.32 -1.16917 4.32475 0
M  V30 44125 C 4289.07 -2.67922 3.29269 0
M  V30 44126 C 4286.97 -2.03918 5.55132 0
M  V30 44127 H 4285.9 -0.401811 0.638015 0
M  V30 44128 H 4288.55 -0.324965 1.806 0
M  V30 44129 H 4286.94 -2.72535 2.87299 0
M  V30 44130 H 4288.11 -0.437246 4.58721 0
M  V30 44131 H 4286.42 -0.55231 4.12721 0
M  V30 44132 H 4289.02 -3.3331 4.18101 0
M  V30 44133 H 4289.36 -3.35209 2.46861 0
M  V30 44134 H 4289.9 -1.96979 3.45607 0
M  V30 44135 H 4286.64 -1.4115 6.40123 0
M  V30 44136 H 4286.16 -2.74862 5.33115 0
M  V30 44137 H 4287.84 -2.62658 5.91287 0
M  V30 44138 N 4287.97 -1.46065 -0.591845 0
M  V30 44139 C 4288.92 -1.56293 -1.72265 0
M  V30 44140 C 4289.91 -0.431927 -1.63801 0
M  V30 44141 O 4291.12 -0.608451 -1.69404 0
M  V30 44142 H 4287.49 -0.491217 -0.569394 0
M  V30 44143 H 4289.46 -2.51388 -1.60769 0
M  V30 44144 C 4288.21 -1.56172 -3.10654 0
M  V30 44145 H 4287.53 -2.42533 -3.17833 0
M  V30 44146 H 4288.97 -1.67384 -3.89562 0
M  V30 44147 C 4287.43 -0.288777 -3.3566 0
M  V30 44148 O 4287.96 0.624823 -3.96811 0
M  V30 44149 N 4286.17 -0.179538 -2.90045 0
M  V30 44150 H 4285.72 -0.923882 -2.40462 0
M  V30 44151 H 4285.67 0.671313 -3.07149 0
M  V30 44152 N 4289.45 0.835705 -1.33618 0
M  V30 44153 C 4290.86 1.12687 -1.13021 0
M  V30 44154 C 4291.06 2.01354 0.0767981 0
M  V30 44155 O 4290.12 2.40913 0.756126 0
M  V30 44156 C 4291.43 1.78591 -2.41921 0
M  V30 44157 C 4292.98 1.91143 -2.47858 0
M  V30 44158 C 4293.45 2.60462 -3.76727 0
M  V30 44159 N 4294.95 2.67973 -3.77816 0
M  V30 44160 C 4295.68 3.22306 -4.74243 0
M  V30 44161 N 4295.18 3.77303 -5.81046 0
M  V30 44162 N 4296.97 3.20588 -4.61714 0
M  V30 44163 H 4289.12 0.24566 -2.10975 0
M  V30 44164 H 4291.38 0.171509 -0.932356 0
M  V30 44165 H 4291.09 1.20901 -3.30266 0
M  V30 44166 H 4290.96 2.78581 -2.54307 0
M  V30 44167 H 4293.35 2.47986 -1.5996 0
M  V30 44168 H 4293.43 0.900923 -2.3941 0
M  V30 44169 H 4293.08 2.04277 -4.65009 0
M  V30 44170 H 4293.01 3.61991 -3.82453 0
M  V30 44171 H 4295.5 2.28976 -3.0063 0
M  V30 44172 H 4295.81 4.16975 -6.50655 0
M  V30 44173 H 4294.15 3.75582 -5.84776 0
M  V30 44174 H 4297.35 2.76881 -3.77431 0
M  V30 44175 H 4297.52 3.62629 -5.37033 0
M  V30 44176 N 4290.92 1.17138 1.05434 0
M  V30 44177 C 4292.17 0.959675 1.78656 0
M  V30 44178 C 4292.5 -0.510626 1.87367 0
M  V30 44179 O 4291.78 -1.37899 1.37165 0
M  V30 44180 C 4292.06 1.59844 3.22679 0
M  V30 44181 C 4291.91 3.14068 3.21996 0
M  V30 44182 C 4293.23 1.30031 4.20452 0
M  V30 44183 H 4290.35 0.350055 0.64856 0
M  V30 44184 H 4292.99 1.446 1.23251 0
M  V30 44185 H 4291.14 1.18491 3.69989 0
M  V30 44186 H 4292.82 3.64462 2.82781 0
M  V30 44187 H 4291.06 3.46946 2.60405 0
M  V30 44188 H 4291.73 3.53889 4.23635 0
M  V30 44189 H 4294.21 1.65836 3.81625 0
M  V30 44190 H 4293.08 1.77314 5.19472 0
M  V30 44191 H 4293.34 0.220666 4.41549 0
M  V30 44192 N 4292.4 -1.24116 0.971232 0
M  V30 44193 C 4293.37 -2.23474 0.509103 0
M  V30 44194 C 4294.37 -1.5584 -0.396283 0
M  V30 44195 O 4295.56 -1.73147 -0.191251 0
M  V30 44196 C 4292.69 -3.3989 -0.262267 0
M  V30 44197 H 4293.88 -2.65873 1.38751 0
M  V30 44198 H 4291.43 -1.36791 0.756178 0
M  V30 44199 H 4292.17 -3.02935 -1.15762 0
M  V30 44200 H 4291.95 -3.9018 0.387507 0
M  V30 44201 H 4293.44 -4.13629 -0.574501 0
M  V30 44202 N 4293.88 -0.741771 -1.39052 0
M  V30 44203 C 4295.11 -0.301825 -2.05192 0
M  V30 44204 C 4295.53 1.05736 -1.55568 0
M  V30 44205 O 4294.89 1.6714 -0.702412 0
M  V30 44206 C 4294.94 -0.320678 -3.59171 0
M  V30 44207 O 4294.04 0.689388 -4.06597 0
M  V30 44208 H 4293.38 -0.135849 -0.649955 0
M  V30 44209 H 4295.91 -1.00959 -1.77956 0
M  V30 44210 H 4295.92 -0.167423 -4.07656 0
M  V30 44211 H 4294.6 -1.31241 -3.9465 0
M  V30 44212 H 4293.17 0.501715 -3.69509 0
M  V30 44213 N 4295.36 1.49792 -0.489923 0
M  V30 44214 C 4296.6 2.0432 0.0570143 0
M  V30 44215 C 4296.96 1.36239 1.35288 0
M  V30 44216 O 4298.16 1.81427 1.98337 0
M  V30 44217 C 4296.43 3.56738 0.217512 0
M  V30 44218 S 4297.99 4.32848 0.720294 0
M  V30 44219 H 4294.81 0.710965 0.00703673 0
M  V30 44220 H 4297.41 1.83973 -0.661364 0
M  V30 44221 H 4296.12 4.03835 -0.731115 0
M  V30 44222 H 4295.65 3.8147 0.961455 0
M  V30 44223 H 4297.66 4.545 1.99108 0
M  V30 44224 N 4296.84 0.223289 1.5601 0
M  V30 44225 C 4297.77 -0.680756 2.23356 0
M  V30 44226 C 4298.75 -1.19971 1.20586 0
M  V30 44227 O 4299.93 -1.24339 1.49176 0
M  V30 44228 C 4297.06 -1.88827 2.91482 0
M  V30 44229 C 4296.02 -1.50309 4.00738 0
M  V30 44230 C 4295.34 -2.78952 4.56169 0
M  V30 44231 C 4296.64 -0.691789 5.17698 0
M  V30 44232 H 4298.34 -0.119252 2.99162 0
M  V30 44233 H 4295.88 -0.0559167 1.43891 0
M  V30 44234 H 4297.84 -2.52617 3.37287 0
M  V30 44235 H 4296.56 -2.47477 2.13125 0
M  V30 44236 H 4295.22 -0.888645 3.55666 0
M  V30 44237 H 4294.87 -3.3575 3.74541 0
M  V30 44238 H 4294.57 -2.53913 5.29908 0
M  V30 44239 H 4296.09 -3.43682 5.04693 0
M  V30 44240 H 4297.5 -1.23343 5.59874 0
M  V30 44241 H 4295.9 -0.53841 5.9768 0
M  V30 44242 H 4296.97 0.301216 4.83964 0
M  V30 44243 N 4298.31 -1.5752 -0.0500839 0
M  V30 44244 C 4299.73 -1.54367 -0.405339 0
M  V30 44245 C 4299.93 -0.946554 -1.77884 0
M  V30 44246 O 4298.99 -0.558449 -2.46247 0
M  V30 44247 C 4300.3 -2.98923 -0.32647 0
M  V30 44248 C 4301.85 -3.10368 -0.405086 0
M  V30 44249 C 4302.32 -4.56615 -0.355894 0
M  V30 44250 N 4303.81 -4.61334 -0.415323 0
M  V30 44251 C 4304.55 -5.72004 -0.399819 0
M  V30 44252 N 4304.04 -6.91976 -0.337845 0
M  V30 44253 N 4305.84 -5.60312 -0.447993 0
M  V30 44254 H 4297.99 -1.94693 0.849013 0
M  V30 44255 H 4300.25 -0.89207 0.320803 0
M  V30 44256 H 4299.96 -3.46254 0.616548 0
M  V30 44257 H 4299.83 -3.59928 -1.12833 0
M  V30 44258 H 4302.22 -2.62997 -1.33853 0
M  V30 44259 H 4302.3 -2.52232 0.425747 0
M  V30 44260 H 4301.94 -5.04648 0.573794 0
M  V30 44261 H 4301.87 -5.12638 -1.20455 0
M  V30 44262 H 4304.36 -3.75008 -0.466588 0
M  V30 44263 H 4304.68 -7.72093 -0.330537 0
M  V30 44264 H 4303.02 -6.94334 -0.304205 0
M  V30 44265 H 4306.21 -4.65483 -0.494254 0
M  V30 44266 H 4306.39 -6.46555 -0.432442 0
M  V30 44267 N 4299.79 0.321945 -1.54277 0
M  V30 44268 C 4300.74 1.39627 -1.83774 0
M  V30 44269 C 4301.71 1.51319 -0.684968 0
M  V30 44270 O 4302.89 1.66513 -0.931556 0
M  V30 44271 C 4300.03 2.75963 -2.07217 0
M  V30 44272 C 4299.15 2.72889 -3.34896 0
M  V30 44273 C 4298.28 4.01082 -3.48291 0
M  V30 44274 C 4297.32 3.92322 -4.6984 0
M  V30 44275 N 4296.46 5.12248 -4.80153 0
M  V30 44276 H 4301.3 1.13772 -2.75427 0
M  V30 44277 H 4298.84 0.550713 -1.36402 0
M  V30 44278 H 4300.79 3.55221 -2.188 0
M  V30 44279 H 4299.42 3.00123 -1.18854 0
M  V30 44280 H 4298.48 1.85612 -3.32042 0
M  V30 44281 H 4299.79 2.623 -4.24264 0
M  V30 44282 H 4298.94 4.88772 -3.59426 0
M  V30 44283 H 4297.68 4.14479 -2.57019 0
M  V30 44284 H 4296.69 3.03016 -4.58761 0
M  V30 44285 H 4297.91 3.80489 -5.62499 0
M  V30 44286 H 4295.86 5.26148 -3.91796 0
M  V30 44287 H 4295.77 5.04 -5.63489 0
M  V30 44288 H 4297.04 6.01648 -4.9562 0
M  V30 44289 N 4301.27 1.46377 0.58409 0
M  V30 44290 C 4302.2 1.59696 1.70351 0
M  V30 44291 C 4303.18 0.447353 1.64112 0
M  V30 44292 O 4304.37 0.673426 1.8215 0
M  V30 44293 C 4301.5 1.58563 3.0899 0
M  V30 44294 C 4300.45 2.72479 3.30059 0
M  V30 44295 C 4299.78 2.56407 4.69211 0
M  V30 44296 C 4301.08 4.14313 3.18028 0
M  V30 44297 H 4302.77 2.53402 1.59461 0
M  V30 44298 H 4300.32 1.21953 0.765728 0
M  V30 44299 H 4302.27 1.66475 3.87123 0
M  V30 44300 H 4300.99 0.614005 3.20776 0
M  V30 44301 H 4299.65 2.64034 2.54326 0
M  V30 44302 H 4299.3 1.57331 4.77761 0
M  V30 44303 H 4299 3.32813 4.84261 0
M  V30 44304 H 4300.52 2.66208 5.49514 0
M  V30 44305 H 4301.94 4.23877 3.86007 0
M  V30 44306 H 4300.34 4.91295 3.446 0
M  V30 44307 H 4301.41 4.34566 2.15128 0
M  V30 44308 N 4302.75 -0.828607 1.34059 0
M  V30 44309 C 4304 -1.58136 1.25846 0
M  V30 44310 C 4304.32 -1.94231 -0.17297 0
M  V30 44311 O 4303.59 -1.61814 -1.10422 0
M  V30 44312 H 4302.17 -0.586358 0.462811 0
M  V30 44313 H 4304.83 -0.989679 1.67903 0
M  V30 44314 H 4303.93 -2.50673 1.85929 0
M  V30 44315 N 4304.23 -1.17696 -1.04812 0
M  V30 44316 C 4305.47 -0.969136 -1.78145 0
M  V30 44317 C 4305.81 0.500682 -1.87635 0
M  V30 44318 O 4305.08 1.37169 -1.37894 0
M  V30 44319 C 4305.36 -1.61553 -3.21827 0
M  V30 44320 C 4305.22 -3.15771 -3.20326 0
M  V30 44321 C 4306.54 -1.32259 -4.19757 0
M  V30 44322 H 4303.66 -0.35349 -0.646695 0
M  V30 44323 H 4306.3 -1.45252 -1.22483 0
M  V30 44324 H 4304.45 -1.20451 -3.69356 0
M  V30 44325 H 4306.12 -3.65957 -2.80844 0
M  V30 44326 H 4304.36 -3.48322 -2.58562 0
M  V30 44327 H 4305.03 -3.5613 -4.21753 0
M  V30 44328 H 4307.51 -1.67858 -3.8074 0
M  V30 44329 H 4306.39 -1.80066 -5.18524 0
M  V30 44330 H 4306.65 -0.244079 -4.41426 0
M  V30 44331 N 4305.71 1.23599 -0.977801 0
M  V30 44332 C 4307.12 1.73774 -0.682603 0
M  V30 44333 C 4307.47 1.79091 0.801291 0
M  V30 44334 O 4306.59 1.42705 1.62678 0
M  V30 44335 C 4307.19 3.15591 -1.23239 0
M  V30 44336 C 4305.75 3.63232 -0.986893 0
M  V30 44337 C 4304.89 2.41565 -1.36168 0
M  V30 44338 H 4307.84 1.09159 -1.15195 0
M  V30 44339 H 4307.87 3.75683 -0.603552 0
M  V30 44340 H 4307.38 3.11688 -2.3124 0
M  V30 44341 H 4305.48 3.7252 0.0771469 0
M  V30 44342 H 4305.59 4.50169 -1.63964 0
M  V30 44343 H 4303.96 2.42459 -0.780121 0
M  V30 44344 H 4304.74 2.40336 -2.4514 0
M  V30 44345 N 4307.18 0.749135 1.38657 0
M  V30 44346 C 4308.59 0.371556 1.82965 0
M  V30 44347 C 4308.95 -1.09915 1.62521 0
M  V30 44348 O 4308.07 -1.84921 1.12398 0
M  V30 44349 C 4308.67 0.667611 3.32157 0
M  V30 44350 C 4307.22 0.343363 3.74831 0
M  V30 44351 C 4306.37 0.92306 2.61486 0
M  V30 44352 H 4309.32 0.945647 1.27449 0
M  V30 44353 H 4309.34 -0.0557419 3.80459 0
M  V30 44354 H 4308.86 1.73807 3.47005 0
M  V30 44355 H 4306.96 -0.720695 3.65564 0
M  V30 44356 H 4307.07 0.835802 4.71753 0
M  V30 44357 H 4305.43 0.348731 2.52301 0
M  V30 44358 H 4306.22 1.99846 2.79135 0
M  V30 44359 N 4308.66 -1.4953 0.49786 0
M  V30 44360 C 4309.59 -2.31915 -0.27163 0
M  V30 44361 C 4310.57 -1.40044 -0.965496 0
M  V30 44362 O 4311.76 -1.68954 -0.957506 0
M  V30 44363 C 4308.89 -3.20477 -1.33834 0
M  V30 44364 C 4307.84 -4.21116 -0.764536 0
M  V30 44365 C 4307.17 -4.98594 -1.93153 0
M  V30 44366 C 4308.47 -5.21738 0.242292 0
M  V30 44367 H 4310.16 -2.96495 0.416031 0
M  V30 44368 H 4307.71 -1.42583 0.201521 0
M  V30 44369 H 4309.66 -3.76922 -1.88436 0
M  V30 44370 H 4308.38 -2.53833 -2.05515 0
M  V30 44371 H 4307.04 -3.65812 -0.240295 0
M  V30 44372 H 4306.69 -4.284 -2.63595 0
M  V30 44373 H 4306.39 -5.66687 -1.55368 0
M  V30 44374 H 4307.92 -5.57882 -2.48194 0
M  V30 44375 H 4309.33 -5.72895 -0.215475 0
M  V30 44376 H 4307.73 -5.97703 0.535812 0
M  V30 44377 H 4308.8 -4.70839 1.15924 0
M  V30 44378 N 4310.14 -0.23156 -1.5589 0
M  V30 44379 C 4311.56 0.123626 -1.5912 0
M  V30 44380 C 4311.76 1.58158 -1.24853 0
M  V30 44381 O 4310.81 2.32345 -0.988532 0
M  V30 44382 C 4312.12 -0.211705 -2.99954 0
M  V30 44383 C 4313.67 -0.154754 -3.12617 0
M  V30 44384 C 4314.15 -0.463901 -4.55645 0
M  V30 44385 N 4315.64 -0.413838 -4.61348 0
M  V30 44386 C 4316.37 -0.626405 -5.69968 0
M  V30 44387 N 4315.87 -0.901282 -6.86912 0
M  V30 44388 N 4317.66 -0.558157 -5.59322 0
M  V30 44389 H 4309.81 -1.18253 -1.76437 0
M  V30 44390 H 4312.08 -0.474709 -0.820582 0
M  V30 44391 H 4311.78 -1.224 -3.29714 0
M  V30 44392 H 4311.66 0.468542 -3.74279 0
M  V30 44393 H 4314.04 0.848192 -2.82648 0
M  V30 44394 H 4314.12 -0.868627 -2.406 0
M  V30 44395 H 4313.77 -1.46433 -4.86333 0
M  V30 44396 H 4313.7 0.271276 -5.25901 0
M  V30 44397 H 4316.19 -0.209485 -3.77319 0
M  V30 44398 H 4316.5 -1.05131 -7.65616 0
M  V30 44399 H 4314.85 -0.938588 -6.88633 0
M  V30 44400 H 4318.04 -0.343569 -4.66837 0
M  V30 44401 H 4318.21 -0.727222 -6.43906 0
M  V30 44402 N 4311.62 1.57545 0.0417295 0
M  V30 44403 C 4312.86 1.88967 0.736156 0
M  V30 44404 C 4313.2 0.827728 1.75677 0
M  V30 44405 O 4312.47 -0.1587 1.93851 0
M  V30 44406 C 4312.75 3.31042 1.41714 0
M  V30 44407 C 4312.61 4.47919 0.410909 0
M  V30 44408 C 4313.93 3.71826 2.35444 0
M  V30 44409 H 4311.05 0.687263 0.266154 0
M  V30 44410 H 4313.69 1.9 -0.000985749 0
M  V30 44411 H 4311.84 3.30292 2.04546 0
M  V30 44412 H 4313.51 4.60801 -0.214514 0
M  V30 44413 H 4311.75 4.32953 -0.27103 0
M  V30 44414 H 4312.42 5.44184 0.925622 0
M  V30 44415 H 4314.9 3.73861 1.82666 0
M  V30 44416 H 4313.78 4.72067 2.80079 0
M  V30 44417 H 4314.04 3.03389 3.2157 0
M  V30 44418 N 4313.1 -0.313759 1.54445 0
M  V30 44419 C 4314.34 -1.04824 1.74309 0
M  V30 44420 C 4314.7 -1.85359 0.515734 0
M  V30 44421 O 4313.99 -1.85179 -0.491878 0
M  V30 44422 C 4314.18 -1.99563 2.96495 0
M  V30 44423 C 4314.01 -1.28345 4.30996 0
M  V30 44424 C 4312.78 -1.01588 4.94983 0
M  V30 44425 C 4314.98 -0.694363 5.09591 0
M  V30 44426 N 4312.96 -0.272635 6.13294 0
M  V30 44427 C 4314.33 -0.0832316 6.19944 0
M  V30 44428 C 4316.39 -0.598147 4.94294 0
M  V30 44429 C 4315.09 0.614791 7.16668 0
M  V30 44430 C 4317.12 0.0861943 5.91337 0
M  V30 44431 C 4316.48 0.686229 7.01049 0
M  V30 44432 H 4312.58 -0.366942 0.690563 0
M  V30 44433 H 4315.16 -0.328294 1.91912 0
M  V30 44434 H 4313.33 -2.6882 2.8034 0
M  V30 44435 H 4315.07 -2.66069 3.04942 0
M  V30 44436 H 4311.82 -1.31075 4.551 0
M  V30 44437 H 4312.24 0.0851315 6.76946 0
M  V30 44438 H 4316.89 -1.04776 4.09612 0
M  V30 44439 H 4314.6 1.07621 8.00902 0
M  V30 44440 H 4318.19 0.160412 5.81579 0
M  V30 44441 H 4317.07 1.20736 7.7485 0
M  V30 44442 N 4314.57 -1.46684 -0.576319 0
M  V30 44443 C 4315.99 -1.3178 -0.900337 0
M  V30 44444 C 4316.19 -0.293999 -1.99344 0
M  V30 44445 O 4315.25 0.301201 -2.50697 0
M  V30 44446 C 4316.56 -2.70585 -1.31165 0
M  V30 44447 C 4318.11 -2.78724 -1.42414 0
M  V30 44448 C 4318.58 -4.18126 -1.86908 0
M  V30 44449 N 4320.07 -4.20574 -1.94091 0
M  V30 44450 C 4320.81 -5.25334 -2.29808 0
M  V30 44451 N 4320.3 -6.40416 -2.64271 0
M  V30 44452 N 4322.1 -5.12703 -2.30417 0
M  V30 44453 H 4314.25 -2.119 0.145659 0
M  V30 44454 H 4316.51 -0.947997 0.00249463 0
M  V30 44455 H 4316.22 -3.46844 -0.582423 0
M  V30 44456 H 4316.09 -3.0111 -2.27184 0
M  V30 44457 H 4318.48 -2.0275 -2.14421 0
M  V30 44458 H 4318.56 -2.51877 -0.446297 0
M  V30 44459 H 4318.2 -4.94598 -1.15477 0
M  V30 44460 H 4318.13 -4.42385 -2.85662 0
M  V30 44461 H 4320.62 -3.37543 -1.69921 0
M  V30 44462 H 4320.94 -7.16123 -2.90496 0
M  V30 44463 H 4319.28 -6.43767 -2.61895 0
M  V30 44464 H 4322.47 -4.21831 -2.02919 0
M  V30 44465 H 4322.65 -5.94457 -2.57924 0
M  V30 44466 N 4316.05 0.821486 -1.34497 0
M  V30 44467 C 4317 1.9214 -1.22745 0
M  V30 44468 C 4317.99 1.60405 -0.126151 0
M  V30 44469 O 4319.18 1.73384 -0.355953 0
M  V30 44470 C 4316.31 3.28819 -0.986555 0
M  V30 44471 C 4315.39 3.66668 -2.13109 0
M  V30 44472 N 4315.78 3.7607 -3.38238 0
M  V30 44473 C 4314.08 3.96526 -2.04165 0
M  V30 44474 C 4314.78 4.09227 -4.13411 0
M  V30 44475 N 4313.76 4.22523 -3.42016 0
M  V30 44476 H 4317.56 1.97589 -2.17568 0
M  V30 44477 H 4315.07 1.01523 -1.26755 0
M  V30 44478 H 4317.07 4.07436 -0.88327 0
M  V30 44479 H 4315.73 3.24666 -0.0470283 0
M  V30 44480 H 4316.74 3.59528 -3.72774 0
M  V30 44481 H 4313.42 4.00484 -1.17978 0
M  V30 44482 H 4314.81 4.23693 -5.21473 0
M  V30 44483 N 4317.53 1.1825 1.04186 0
M  V30 44484 C 4318.95 0.931925 1.29566 0
M  V30 44485 C 4319.15 -0.403201 1.97425 0
M  V30 44486 O 4318.2 -1.13782 2.25411 0
M  V30 44487 C 4319.52 2.0966 2.15553 0
M  V30 44488 C 4321.06 2.13477 2.28903 0
M  V30 44489 C 4321.54 3.29359 3.18256 0
M  V30 44490 N 4323.03 3.29212 3.25843 0
M  V30 44491 C 4323.76 4.1552 3.95134 0
M  V30 44492 N 4323.26 5.11958 4.66766 0
M  V30 44493 N 4325.05 4.03437 3.91401 0
M  V30 44494 H 4317.2 2.04172 0.58546 0
M  V30 44495 H 4319.47 0.892057 0.320839 0
M  V30 44496 H 4319.17 3.06211 1.72997 0
M  V30 44497 H 4319.05 2.05622 3.16227 0
M  V30 44498 H 4321.43 1.17505 2.70696 0
M  V30 44499 H 4321.52 2.21573 1.27824 0
M  V30 44500 H 4321.16 4.25602 2.77174 0
M  V30 44501 H 4321.09 3.18498 4.19364 0
M  V30 44502 H 4323.58 2.59394 2.74815 0
M  V30 44503 H 4323.89 5.7419 5.17229 0
M  V30 44504 H 4322.24 5.15919 4.65674 0
M  V30 44505 H 4325.43 3.27383 3.34571 0
M  V30 44506 H 4325.6 4.70917 4.45131 0
M  V30 44507 N 4319.01 -1.23079 0.984342 0
M  V30 44508 C 4319.97 -2.22922 0.532777 0
M  V30 44509 C 4320.97 -1.56252 -0.379731 0
M  V30 44510 O 4322.16 -1.7334 -0.172875 0
M  V30 44511 C 4319.29 -3.40149 -0.226202 0
M  V30 44512 H 4320.49 -2.64386 1.41563 0
M  V30 44513 H 4318.04 -1.35981 0.770644 0
M  V30 44514 H 4318.77 -3.04146 -1.12542 0
M  V30 44515 H 4318.56 -3.89748 0.428869 0
M  V30 44516 H 4320.05 -4.14215 -0.530598 0
M  V30 44517 N 4320.49 -0.756478 -1.38258 0
M  V30 44518 C 4321.9 -0.434392 -1.53575 0
M  V30 44519 C 4322.1 1.05209 -1.71852 0
M  V30 44520 O 4321.16 1.83811 -1.73118 0
M  V30 44521 C 4322.47 -1.23616 -2.74116 0
M  V30 44522 C 4324.02 -1.22652 -2.87968 0
M  V30 44523 C 4324.49 -2.01131 -4.11473 0
M  V30 44524 N 4325.99 -1.98406 -4.18556 0
M  V30 44525 C 4326.72 -2.55922 -5.13119 0
M  V30 44526 N 4326.22 -3.22163 -6.13337 0
M  V30 44527 N 4328.01 -2.45836 -5.05491 0
M  V30 44528 H 4320.16 -1.71982 -1.24644 0
M  V30 44529 H 4322.42 -0.729241 -0.605732 0
M  V30 44530 H 4322.13 -2.2889 -2.67024 0
M  V30 44531 H 4322 -0.854984 -3.67382 0
M  V30 44532 H 4324.39 -0.181823 -2.94539 0
M  V30 44533 H 4324.47 -1.64723 -1.95704 0
M  V30 44534 H 4324.12 -3.05614 -4.05663 0
M  V30 44535 H 4324.05 -1.56452 -5.02822 0
M  V30 44536 H 4326.54 -1.50168 -3.46783 0
M  V30 44537 H 4326.85 -3.63463 -6.81993 0
M  V30 44538 H 4325.19 -3.26259 -6.13661 0
M  V30 44539 H 4328.39 -1.93712 -4.26138 0
M  V30 44540 H 4328.56 -2.90956 -5.79006 0
M  V30 44541 N 4321.96 1.49264 -0.505783 0
M  V30 44542 C 4323.19 2.07369 0.0358589 0
M  V30 44543 C 4323.61 1.36304 1.29626 0
M  V30 44544 O 4322.97 0.421273 1.76338 0
M  V30 44545 C 4323.02 3.59605 0.267645 0
M  V30 44546 O 4322.12 3.89975 1.34139 0
M  V30 44547 H 4321.47 0.663394 -0.0283504 0
M  V30 44548 H 4324 1.92005 -0.706774 0
M  V30 44549 H 4324.01 4.04953 0.497703 0
M  V30 44550 H 4322.68 4.10739 -0.653198 0
M  V30 44551 H 4321.26 3.56433 1.0959 0
M  V30 44552 N 4323.44 0.239823 1.55765 0
M  V30 44553 C 4324.69 -0.387454 1.99064 0
M  V30 44554 C 4325.02 -1.58105 1.12768 0
M  V30 44555 O 4324.3 -1.93575 0.189457 0
M  V30 44556 C 4324.58 -0.804228 3.51005 0
M  V30 44557 C 4324.43 0.394264 4.48069 0
M  V30 44558 C 4325.75 -1.65379 4.07845 0
M  V30 44559 H 4322.87 -0.139359 0.723704 0
M  V30 44560 H 4325.51 0.339718 1.86938 0
M  V30 44561 H 4323.66 -1.42382 3.61469 0
M  V30 44562 H 4325.33 1.03263 4.49594 0
M  V30 44563 H 4323.58 1.03859 4.21184 0
M  V30 44564 H 4324.25 0.0594258 5.51968 0
M  V30 44565 H 4326.72 -1.13084 4.00439 0
M  V30 44566 H 4325.6 -1.91427 5.14438 0
M  V30 44567 H 4325.86 -2.62327 3.55861 0
M  V30 44568 N 4324.92 -1.57565 -0.0333739 0
M  V30 44569 C 4326.34 -1.54788 -0.388943 0
M  V30 44570 C 4326.54 -0.965368 -1.7687 0
M  V30 44571 O 4325.59 -0.584535 -2.45641 0
M  V30 44572 C 4326.91 -2.99252 -0.294747 0
M  V30 44573 C 4328.45 -3.1078 -0.372144 0
M  V30 44574 C 4328.93 -4.56967 -0.307443 0
M  V30 44575 N 4330.42 -4.61749 -0.366369 0
M  V30 44576 C 4331.15 -5.72396 -0.339128 0
M  V30 44577 N 4330.65 -6.92295 -0.264432 0
M  V30 44578 N 4332.44 -5.60756 -0.388539 0
M  V30 44579 H 4324.59 -1.93782 0.869616 0
M  V30 44580 H 4326.86 -0.888618 0.330246 0
M  V30 44581 H 4326.56 -3.4558 0.653238 0
M  V30 44582 H 4326.44 -3.61105 -1.09009 0
M  V30 44583 H 4328.82 -2.64402 -1.31056 0
M  V30 44584 H 4328.91 -2.51766 0.452475 0
M  V30 44585 H 4328.55 -5.04011 0.627287 0
M  V30 44586 H 4328.48 -5.13887 -1.15011 0
M  V30 44587 H 4330.97 -3.75482 -0.426787 0
M  V30 44588 H 4331.28 -7.724 -0.248628 0
M  V30 44589 H 4329.63 -6.94618 -0.230544 0
M  V30 44590 H 4332.82 -4.65981 -0.444855 0
M  V30 44591 H 4332.99 -6.46978 -0.363841 0
M  V30 44592 N 4326.4 0.305564 -1.54609 0
M  V30 44593 C 4327.36 1.35979 -1.84506 0
M  V30 44594 C 4328.36 1.43894 -0.71772 0
M  V30 44595 O 4329.55 1.43609 -0.986014 0
M  V30 44596 C 4326.68 2.74515 -2.02125 0
M  V30 44597 H 4327.88 1.10716 -2.78715 0
M  V30 44598 H 4325.43 0.541996 -1.46602 0
M  V30 44599 H 4326.16 3.05007 -1.10188 0
M  V30 44600 H 4325.95 2.70161 -2.84175 0
M  V30 44601 H 4327.44 3.50747 -2.26641 0
M  V30 44602 N 4327.88 1.46988 0.568532 0
M  V30 44603 C 4328.82 1.58623 1.67652 0
M  V30 44604 C 4329.79 0.429789 1.60443 0
M  V30 44605 O 4330.98 0.648387 1.79445 0
M  V30 44606 C 4328.12 1.59584 3.05985 0
M  V30 44607 C 4327.23 2.86064 3.23715 0
M  V30 44608 C 4326.37 2.78435 4.5238 0
M  V30 44609 C 4325.41 3.9979 4.63502 0
M  V30 44610 N 4324.54 3.90464 5.83508 0
M  V30 44611 H 4329.38 2.5326 1.57046 0
M  V30 44612 H 4326.92 1.25631 0.765189 0
M  V30 44613 H 4328.88 1.58125 3.86073 0
M  V30 44614 H 4327.51 0.684683 3.15455 0
M  V30 44615 H 4326.56 2.9744 2.37136 0
M  V30 44616 H 4327.87 3.75964 3.27799 0
M  V30 44617 H 4327.03 2.75161 5.40713 0
M  V30 44618 H 4325.76 1.86198 4.50757 0
M  V30 44619 H 4324.77 4.03381 3.73583 0
M  V30 44620 H 4325.99 4.9314 4.66893 0
M  V30 44621 H 4323.94 3.01023 5.82856 0
M  V30 44622 H 4323.86 4.74033 5.88922 0
M  V30 44623 H 4325.13 3.91189 6.74234 0
M  V30 44624 N 4329.35 -0.814342 1.3493 0
M  V30 44625 C 4330.28 -1.94052 1.29869 0
M  V30 44626 C 4331.27 -1.69202 0.174534 0
M  V30 44627 O 4332.45 -1.90676 0.368265 0
M  V30 44628 C 4329.58 -3.30662 1.06207 0
M  V30 44629 C 4328.53 -3.69975 2.15181 0
M  V30 44630 C 4327.86 -5.04661 1.76695 0
M  V30 44631 C 4329.16 -3.81167 3.57084 0
M  V30 44632 H 4330.85 -1.98545 2.24099 0
M  V30 44633 H 4328.4 -0.953846 1.07879 0
M  V30 44634 H 4330.35 -4.09041 1.01308 0
M  V30 44635 H 4329.08 -3.26491 0.0842123 0
M  V30 44636 H 4327.74 -2.93876 2.19163 0
M  V30 44637 H 4327.38 -4.96986 0.775475 0
M  V30 44638 H 4327.08 -5.31935 2.49637 0
M  V30 44639 H 4328.61 -5.85489 1.73307 0
M  V30 44640 H 4330.02 -4.49796 3.55466 0
M  V30 44641 H 4328.42 -4.19903 4.2872 0
M  V30 44642 H 4329.49 -2.8293 3.938 0
M  V30 44643 N 4330.83 -1.18801 -1.03557 0
M  V30 44644 C 4331.76 -0.943251 -2.136 0
M  V30 44645 C 4332.74 0.120935 -1.6967 0
M  V30 44646 O 4333.93 -0.032709 -1.94172 0
M  V30 44647 C 4331.06 -0.473776 -3.44053 0
M  V30 44648 C 4330.01 -1.47903 -4.01633 0
M  V30 44649 C 4329.34 -0.866882 -5.27626 0
M  V30 44650 C 4330.64 -2.85728 -4.37215 0
M  V30 44651 H 4332.33 -1.86356 -2.34333 0
M  V30 44652 H 4329.88 -0.897426 -1.12616 0
M  V30 44653 H 4331.83 -0.289878 -4.20402 0
M  V30 44654 H 4330.56 0.48211 -3.23022 0
M  V30 44655 H 4329.21 -1.64996 -3.27371 0
M  V30 44656 H 4328.86 0.0963502 -5.02908 0
M  V30 44657 H 4328.56 -1.53809 -5.67112 0
M  V30 44658 H 4330.09 -0.693629 -6.06647 0
M  V30 44659 H 4331.5 -2.72257 -5.04529 0
M  V30 44660 H 4329.9 -3.49579 -4.87765 0
M  V30 44661 H 4330.97 -3.38892 -3.46815 0
M  V30 44662 N 4332.31 1.22555 -0.990855 0
M  V30 44663 C 4333.54 1.95809 -0.68363 0
M  V30 44664 C 4333.96 1.72727 0.744778 0
M  V30 44665 O 4333.32 1.00521 1.50882 0
M  V30 44666 C 4333.37 3.46666 -0.992726 0
M  V30 44667 O 4332.47 4.12301 -0.0903086 0
M  V30 44668 H 4331.81 0.612639 -0.256064 0
M  V30 44669 H 4334.34 1.55706 -1.32728 0
M  V30 44670 H 4334.35 3.97172 -0.933723 0
M  V30 44671 H 4333.03 3.62792 -2.0336 0
M  V30 44672 H 4331.6 3.72338 -0.204619 0
M  V30 44673 N 4333.79 0.763799 1.37855 0
M  V30 44674 C 4334.72 0.103005 2.28968 0
M  V30 44675 C 4335.73 -0.672806 1.48247 0
M  V30 44676 O 4336.92 -0.51221 1.70993 0
M  V30 44677 C 4334.02 -0.877937 3.27331 0
M  V30 44678 C 4333.2 -0.157621 4.37116 0
M  V30 44679 C 4332.26 -1.05078 5.15602 0
M  V30 44680 O 4331.28 -0.517505 5.66843 0
M  V30 44681 N 4332.48 -2.37788 5.29563 0
M  V30 44682 H 4335.25 0.885549 2.86318 0
M  V30 44683 H 4332.81 0.61546 1.49745 0
M  V30 44684 H 4334.8 -1.4787 3.76718 0
M  V30 44685 H 4333.37 -1.5615 2.70806 0
M  V30 44686 H 4332.59 0.623971 3.8923 0
M  V30 44687 H 4333.88 0.34042 5.0766 0
M  V30 44688 H 4333.28 -2.83558 4.89501 0
M  V30 44689 H 4331.83 -2.9289 5.82288 0
M  V30 44690 N 4335.27 -1.48993 0.513692 0
M  V30 44691 C 4336.52 -2.02083 -0.0262466 0
M  V30 44692 C 4336.84 -1.3945 -1.36303 0
M  V30 44693 O 4336.11 -0.554187 -1.87898 0
M  V30 44694 H 4334.69 -0.746892 -0.0126889 0
M  V30 44695 H 4337.35 -1.82882 0.673821 0
M  V30 44696 H 4336.44 -3.11756 -0.146593 0
M  V30 44697 N 4336.75 -0.248081 -1.55635 0
M  V30 44698 C 4337.99 0.375591 -1.98579 0
M  V30 44699 C 4338.31 1.58381 -1.13756 0
M  V30 44700 O 4337.58 1.94654 -0.220634 0
M  V30 44701 H 4336.16 0.14176 -0.733426 0
M  V30 44702 H 4338.83 -0.347143 -1.91784 0
M  V30 44703 H 4337.92 0.68393 -3.04514 0
M  V30 44704 N 4338.22 1.5758 0.0250174 0
M  V30 44705 C 4339.64 1.54992 0.380729 0
M  V30 44706 C 4339.84 0.974734 1.76355 0
M  V30 44707 O 4338.9 0.597554 2.45327 0
M  V30 44708 C 4340.21 2.99404 0.278873 0
M  V30 44709 C 4341.76 3.10973 0.355658 0
M  V30 44710 C 4342.23 4.57124 0.283205 0
M  V30 44711 N 4343.72 4.61937 0.341876 0
M  V30 44712 C 4344.46 5.72568 0.308768 0
M  V30 44713 N 4343.95 6.92426 0.227715 0
M  V30 44714 N 4345.75 5.60954 0.358795 0
M  V30 44715 H 4337.9 1.93318 -0.87988 0
M  V30 44716 H 4340.16 0.886854 -0.334954 0
M  V30 44717 H 4339.87 3.45229 -0.671556 0
M  V30 44718 H 4339.74 3.61678 1.07093 0
M  V30 44719 H 4342.13 2.65093 1.29652 0
M  V30 44720 H 4342.21 2.51523 -0.465821 0
M  V30 44721 H 4341.85 5.03672 -0.654007 0
M  V30 44722 H 4341.78 5.1449 1.12284 0
M  V30 44723 H 4344.27 3.75703 0.406868 0
M  V30 44724 H 4344.59 7.72521 0.207662 0
M  V30 44725 H 4342.93 6.9473 0.193704 0
M  V30 44726 H 4346.12 4.66211 0.420137 0
M  V30 44727 H 4346.3 6.47162 0.329526 0
M  V30 44728 N 4339.7 -0.29736 1.54769 0
M  V30 44729 C 4340.66 -1.34998 1.85224 0
M  V30 44730 C 4341.66 -1.43511 0.725341 0
M  V30 44731 O 4342.85 -1.43084 0.993616 0
M  V30 44732 C 4339.99 -2.73439 2.03578 0
M  V30 44733 H 4341.18 -1.09236 2.79298 0
M  V30 44734 H 4338.73 -0.534214 1.46887 0
M  V30 44735 H 4339.47 -3.04418 1.11804 0
M  V30 44736 H 4339.25 -2.6865 2.85604 0
M  V30 44737 H 4340.74 -3.49541 2.28498 0
M  V30 44738 N 4341.18 -1.47287 -0.560729 0
M  V30 44739 C 4342.14 -1.59066 -1.65018 0
M  V30 44740 C 4343.14 -0.466024 -1.53899 0
M  V30 44741 O 4344.33 -0.73099 -1.58121 0
M  V30 44742 C 4341.46 -1.53182 -3.04545 0
M  V30 44743 H 4342.66 -2.56178 -1.55925 0
M  V30 44744 H 4340.21 -1.35425 -0.780367 0
M  V30 44745 H 4340.95 -0.57432 -3.19174 0
M  V30 44746 H 4340.73 -2.348 -3.14025 0
M  V30 44747 H 4342.22 -1.64555 -3.83812 0
M  V30 44748 N 4342.66 0.807175 -1.3536 0
M  V30 44749 C 4343.89 1.59559 -1.31714 0
M  V30 44750 C 4344.3 1.88505 0.105502 0
M  V30 44751 O 4343.66 1.48754 1.05728 0
M  V30 44752 C 4343.71 2.9272 -2.12125 0
M  V30 44753 O 4343.43 2.6503 -3.48842 0
M  V30 44754 C 4344.93 3.87084 -2.16057 0
M  V30 44755 H 4342.15 0.495471 -0.452492 0
M  V30 44756 H 4344.69 1.00315 -1.78205 0
M  V30 44757 H 4342.85 3.4848 -1.69235 0
M  V30 44758 H 4343.26 3.50049 -3.90597 0
M  V30 44759 H 4344.74 4.77634 -2.76713 0
M  V30 44760 H 4345.21 4.23627 -1.15916 0
M  V30 44761 H 4345.82 3.3726 -2.59106 0
M  V30 44762 N 4344.14 1.19348 1.02926 0
M  V30 44763 C 4345.38 1.007 1.77873 0
M  V30 44764 C 4345.74 -0.45425 1.86549 0
M  V30 44765 O 4346.94 -0.76053 2.57817 0
M  V30 44766 C 4345.21 1.6572 3.16657 0
M  V30 44767 S 4346.77 1.62005 4.07799 0
M  V30 44768 H 4343.59 0.361363 0.612322 0
M  V30 44769 H 4346.19 1.51689 1.23331 0
M  V30 44770 H 4344.89 2.71273 3.07959 0
M  V30 44771 H 4344.43 1.14809 3.76275 0
M  V30 44772 H 4346.44 0.643968 4.92004 0
M  V30 44773 N 4345.61 -1.22028 0.997341 0
M  V30 44774 C 4346.86 -1.90517 0.674365 0
M  V30 44775 C 4347.18 -1.77989 -0.796551 0
M  V30 44776 O 4346.45 -1.16991 -1.57131 0
M  V30 44777 H 4345.03 -0.705178 0.246439 0
M  V30 44778 H 4347.69 -1.48286 1.2648 0
M  V30 44779 H 4346.79 -2.97583 0.940797 0
M  V30 44780 N 4347.09 -0.771099 -1.37448 0
M  V30 44781 C 4348.04 -0.155118 -2.30278 0
M  V30 44782 C 4349.01 0.69052 -1.51066 0
M  V30 44783 O 4350.19 0.643017 -1.79638 0
M  V30 44784 C 4347.33 0.718519 -3.37537 0
M  V30 44785 C 4346.45 -0.143655 -4.31761 0
M  V30 44786 C 4345.58 0.734627 -5.26096 0
M  V30 44787 C 4344.62 -0.13012 -6.11962 0
M  V30 44788 N 4343.76 0.706102 -6.9854 0
M  V30 44789 H 4348.6 -0.952273 -2.82375 0
M  V30 44790 H 4346.14 -0.481201 -1.39007 0
M  V30 44791 H 4348.09 1.23984 -3.98351 0
M  V30 44792 H 4346.72 1.48128 -2.86806 0
M  V30 44793 H 4345.78 -0.782783 -3.72259 0
M  V30 44794 H 4347.09 -0.810726 -4.92167 0
M  V30 44795 H 4346.24 1.32246 -5.92111 0
M  V30 44796 H 4344.98 1.43538 -4.66099 0
M  V30 44797 H 4343.99 -0.730495 -5.44926 0
M  V30 44798 H 4345.21 -0.828198 -6.74031 0
M  V30 44799 H 4343.16 1.39149 -6.41072 0
M  V30 44800 H 4343.07 0.0963145 -7.55939 0
M  V30 44801 H 4344.34 1.27835 -7.68946 0
M  V30 44802 N 4348.57 1.48719 -0.521586 0
M  V30 44803 C 4349.8 2.06597 0.0117432 0
M  V30 44804 C 4350.21 1.37959 1.29475 0
M  V30 44805 O 4349.55 0.45824 1.77893 0
M  V30 44806 C 4349.61 3.58119 0.31482 0
M  V30 44807 C 4349.28 4.48575 -0.873476 0
M  V30 44808 C 4350.27 4.88857 -1.76961 0
M  V30 44809 C 4347.96 4.90594 -1.0781 0
M  V30 44810 C 4349.95 5.69917 -2.85435 0
M  V30 44811 C 4347.64 5.71426 -2.16599 0
M  V30 44812 C 4348.64 6.10995 -3.05244 0
M  V30 44813 O 4348.33 6.90207 -4.12152 0
M  V30 44814 H 4348.06 0.675478 -0.0265707 0
M  V30 44815 H 4350.61 1.9221 -0.724179 0
M  V30 44816 H 4348.84 3.70588 1.10461 0
M  V30 44817 H 4350.53 3.98153 0.789222 0
M  V30 44818 H 4351.3 4.57023 -1.62343 0
M  V30 44819 H 4347.18 4.59284 -0.397423 0
M  V30 44820 H 4350.72 6.00721 -3.54654 0
M  V30 44821 H 4346.62 6.02673 -2.31204 0
M  V30 44822 H 4347.39 7.08548 -4.09758 0
M  V30 44823 N 4350.05 0.256331 1.55501 0
M  V30 44824 C 4350.98 -0.633225 2.2475 0
M  V30 44825 C 4351.96 -1.17386 1.23104 0
M  V30 44826 O 4353.14 -1.21147 1.5178 0
M  V30 44827 C 4350.27 -1.82602 2.95421 0
M  V30 44828 C 4349.23 -1.41775 4.03836 0
M  V30 44829 C 4348.55 -2.69213 4.61983 0
M  V30 44830 C 4349.85 -0.581821 5.19049 0
M  V30 44831 H 4351.55 -0.0557681 2.99348 0
M  V30 44832 H 4349.09 -0.0253826 1.43978 0
M  V30 44833 H 4351.05 -2.45406 3.42569 0
M  V30 44834 H 4349.77 -2.42901 2.18327 0
M  V30 44835 H 4348.43 -0.813003 3.57471 0
M  V30 44836 H 4348.08 -3.2773 3.81578 0
M  V30 44837 H 4347.78 -2.42616 5.35174 0
M  V30 44838 H 4349.3 -3.32899 5.1187 0
M  V30 44839 H 4350.72 -1.11439 5.62365 0
M  V30 44840 H 4349.11 -0.411512 5.98687 0
M  V30 44841 H 4350.18 0.403804 4.83216 0
M  V30 44842 N 4351.53 -1.57591 -0.0166602 0
M  V30 44843 C 4352.77 -1.89833 -0.704955 0
M  V30 44844 C 4353.1 -0.855147 -1.74693 0
M  V30 44845 O 4352.36 0.142295 -1.95182 0
M  V30 44846 C 4352.66 -3.28828 -1.40024 0
M  V30 44847 C 4352.32 -4.48196 -0.493069 0
M  V30 44848 C 4350.98 -4.80585 -0.243246 0
M  V30 44849 C 4353.34 -5.21032 0.13252 0
M  V30 44850 C 4350.66 -5.83191 0.640737 0
M  V30 44851 C 4353.02 -6.24577 1.00428 0
M  V30 44852 C 4351.68 -6.55434 1.26344 0
M  V30 44853 H 4350.95 -0.694649 -0.257961 0
M  V30 44854 H 4353.6 -1.91467 0.0352888 0
M  V30 44855 H 4351.9 -3.2324 -2.21412 0
M  V30 44856 H 4353.6 -3.51028 -1.93856 0
M  V30 44857 H 4350.19 -4.22879 -0.697945 0
M  V30 44858 H 4354.37 -4.96277 -0.047502 0
M  V30 44859 H 4349.63 -6.05467 0.849707 0
M  V30 44860 H 4353.8 -6.80153 1.49547 0
M  V30 44861 H 4351.43 -7.34761 1.95013 0
M  V30 44862 N 4353 0.289148 -1.54925 0
M  V30 44863 C 4353.95 1.37695 -1.87464 0
M  V30 44864 C 4354.95 1.5192 -0.749438 0
M  V30 44865 O 4356.15 1.53897 -0.933585 0
M  V30 44866 H 4352.53 0.460181 -0.594758 0
M  V30 44867 H 4354.5 1.07493 -2.78366 0
M  V30 44868 C 4353.25 2.73336 -2.14902 0
M  V30 44869 H 4352.57 2.63175 -3.00963 0
M  V30 44870 H 4354.01 3.48432 -2.41602 0
M  V30 44871 C 4352.47 3.23188 -0.951361 0
M  V30 44872 O 4353 4.01306 -0.17782 0
M  V30 44873 N 4351.21 2.80662 -0.753481 0
M  V30 44874 H 4350.75 2.17251 -1.38419 0
M  V30 44875 H 4350.71 3.14366 0.046274 0
M  V30 44876 N 4354.48 1.47583 0.55291 0
M  V30 44877 C 4355.73 1.5564 1.3095 0
M  V30 44878 C 4356.08 0.217595 1.91166 0
M  V30 44879 O 4355.38 -0.777177 1.7513 0
M  V30 44880 C 4355.57 2.61394 2.43738 0
M  V30 44881 C 4355.4 4.05427 1.94574 0
M  V30 44882 C 4354.17 4.72827 1.78221 0
M  V30 44883 C 4356.37 4.92313 1.48769 0
M  V30 44884 N 4354.35 6.01361 1.23442 0
M  V30 44885 C 4355.72 6.10909 1.05784 0
M  V30 44886 C 4357.78 4.78721 1.3686 0
M  V30 44887 C 4356.48 7.17413 0.52074 0
M  V30 44888 C 4358.5 5.85325 0.845508 0
M  V30 44889 C 4357.87 7.03113 0.425612 0
M  V30 44890 H 4353.97 0.62421 0.471048 0
M  V30 44891 H 4356.55 1.84354 0.626229 0
M  V30 44892 H 4354.72 2.3454 3.09589 0
M  V30 44893 H 4356.45 2.59269 3.10744 0
M  V30 44894 H 4353.21 4.28801 2.01064 0
M  V30 44895 H 4353.63 6.69851 0.981287 0
M  V30 44896 H 4358.27 3.88018 1.67934 0
M  V30 44897 H 4355.99 8.07858 0.197631 0
M  V30 44898 H 4359.58 5.76856 0.756858 0
M  V30 44899 H 4358.46 7.84195 0.0271233 0
M  V30 44900 N 4355.96 -0.799985 1.35787 0
M  V30 44901 C 4356.92 -1.89375 1.29112 0
M  V30 44902 C 4357.92 -1.59537 0.201105 0
M  V30 44903 O 4359.11 -1.68147 0.455227 0
M  V30 44904 C 4356.25 -3.25936 0.998938 0
M  V30 44905 H 4357.44 -1.96711 2.26373 0
M  V30 44906 H 4354.99 -0.996597 1.20406 0
M  V30 44907 H 4355.73 -3.24286 0.0304641 0
M  V30 44908 H 4355.51 -3.48979 1.78762 0
M  V30 44909 H 4357 -4.05986 0.978012 0
M  V30 44910 N 4357.44 -1.19892 -1.02292 0
M  V30 44911 C 4358.68 -1.00671 -1.76049 0
M  V30 44912 C 4359.02 0.460769 -1.88655 0
M  V30 44913 O 4358.29 1.34214 -1.40773 0
M  V30 44914 C 4358.58 -1.68343 -3.18328 0
M  V30 44915 C 4358.43 -3.22494 -3.13556 0
M  V30 44916 C 4359.75 -1.41132 -4.16857 0
M  V30 44917 H 4356.87 -0.367128 -0.639051 0
M  V30 44918 H 4359.51 -1.47817 -1.19374 0
M  V30 44919 H 4357.66 -1.28259 -3.66718 0
M  V30 44920 H 4359.33 -3.71832 -2.73018 0
M  V30 44921 H 4357.57 -3.53728 -2.51115 0
M  V30 44922 H 4358.24 -3.64996 -4.14104 0
M  V30 44923 H 4360.72 -1.75896 -3.77094 0
M  V30 44924 H 4359.6 -1.91024 -5.14588 0
M  V30 44925 H 4359.86 -0.337657 -4.40809 0
M  V30 44926 N 4358.92 1.21498 -1.0038 0
M  V30 44927 C 4359.86 2.23823 -0.563193 0
M  V30 44928 C 4360.83 1.60957 0.410123 0
M  V30 44929 O 4362.02 1.88224 0.31244 0
M  V30 44930 C 4359.16 3.4494 0.105216 0
M  V30 44931 C 4358.27 4.22282 -0.911134 0
M  V30 44932 C 4357.41 5.30764 -0.215112 0
M  V30 44933 C 4356.45 5.99837 -1.21909 0
M  V30 44934 N 4355.58 6.99937 -0.550629 0
M  V30 44935 H 4360.42 2.60873 -1.44046 0
M  V30 44936 H 4357.96 1.282 -0.721324 0
M  V30 44937 H 4359.92 4.14074 0.509766 0
M  V30 44938 H 4358.55 3.08621 0.946206 0
M  V30 44939 H 4357.6 3.52338 -1.43394 0
M  V30 44940 H 4358.91 4.69828 -1.67522 0
M  V30 44941 H 4358.07 6.06203 0.245606 0
M  V30 44942 H 4356.8 4.84222 0.581384 0
M  V30 44943 H 4355.81 5.23171 -1.69033 0
M  V30 44944 H 4357.03 6.48466 -2.01665 0
M  V30 44945 H 4354.98 6.5561 0.226232 0
M  V30 44946 H 4354.9 7.45544 -1.25298 0
M  V30 44947 H 4356.17 7.79418 -0.113075 0
M  V30 44948 N 4360.39 0.778378 1.37037 0
M  V30 44949 C 4361.62 0.357301 2.03791 0
M  V30 44950 C 4362.04 -1.0227 1.58702 0
M  V30 44951 O 4361.39 -1.65399 0.771323 0
M  V30 44952 C 4361.45 0.398871 3.59293 0
M  V30 44953 O 4361.17 1.72444 4.02734 0
M  V30 44954 C 4362.67 -0.0329683 4.43288 0
M  V30 44955 H 4359.89 0.148764 0.654301 0
M  V30 44956 H 4362.43 1.05415 1.75237 0
M  V30 44957 H 4360.59 -0.249457 3.86596 0
M  V30 44958 H 4361 1.66763 4.97283 0
M  V30 44959 H 4362.47 0.0472667 5.5198 0
M  V30 44960 H 4362.95 -1.0842 4.25607 0
M  V30 44961 H 4363.56 0.587424 4.21224 0
M  V30 44962 N 4361.87 -1.4844 0.529465 0
M  V30 44963 C 4362.82 -2.29615 -0.233586 0
M  V30 44964 C 4363.79 -1.37333 -0.934277 0
M  V30 44965 O 4364.98 -1.66297 -0.935404 0
M  V30 44966 C 4362.12 -3.20689 -1.27486 0
M  V30 44967 C 4361.23 -4.28047 -0.58306 0
M  V30 44968 C 4360.36 -5.06302 -1.60722 0
M  V30 44969 C 4359.4 -6.05464 -0.898855 0
M  V30 44970 N 4358.54 -6.76779 -1.86853 0
M  V30 44971 H 4363.38 -2.94353 0.46482 0
M  V30 44972 H 4360.92 -1.45111 0.241063 0
M  V30 44973 H 4362.87 -3.7189 -1.89086 0
M  V30 44974 H 4361.5 -2.57875 -1.94165 0
M  V30 44975 H 4360.56 -3.80116 0.146871 0
M  V30 44976 H 4361.87 -4.98793 -0.0268391 0
M  V30 44977 H 4361.02 -5.61515 -2.29751 0
M  V30 44978 H 4359.76 -4.35395 -2.19733 0
M  V30 44979 H 4358.77 -5.49456 -0.194483 0
M  V30 44980 H 4359.99 -6.7837 -0.314859 0
M  V30 44981 H 4357.94 -6.08623 -2.44774 0
M  V30 44982 H 4357.85 -7.43598 -1.36373 0
M  V30 44983 H 4359.12 -7.36582 -2.55083 0
M  V30 44984 N 4363.35 -0.264574 -1.55363 0
M  V30 44985 C 4364.28 0.621297 -2.25083 0
M  V30 44986 C 4365.26 1.16732 -1.23724 0
M  V30 44987 O 4366.45 1.2034 -1.5242 0
M  V30 44988 C 4363.58 1.81033 -2.96386 0
M  V30 44989 C 4362.53 1.39631 -4.04583 0
M  V30 44990 C 4361.86 2.6676 -4.63404 0
M  V30 44991 C 4363.16 0.554287 -5.19351 0
M  V30 44992 H 4364.85 0.0398922 -2.99373 0
M  V30 44993 H 4362.4 0.0177467 -1.43989 0
M  V30 44994 H 4364.35 2.43586 -3.43866 0
M  V30 44995 H 4363.07 2.4174 -2.19612 0
M  V30 44996 H 4361.73 0.794034 -3.57898 0
M  V30 44997 H 4361.38 3.25702 -3.83311 0
M  V30 44998 H 4361.08 2.39774 -5.36453 0
M  V30 44999 H 4362.61 3.3018 -5.13628 0
M  V30 45000 H 4364.02 1.08455 -5.62948 0
M  V30 45001 H 4362.42 0.379756 -5.98897 0
M  V30 45002 H 4363.49 -0.429424 -4.82995 0
M  V30 45003 N 4364.83 1.57598 0.00830251 0
M  V30 45004 C 4365.78 2.07897 1.00238 0
M  V30 45005 C 4366.75 0.972558 1.3465 0
M  V30 45006 O 4367.93 1.24446 1.4463 0
M  V30 45007 C 4365.07 2.58017 2.29175 0
M  V30 45008 C 4364.18 3.82528 2.0074 0
M  V30 45009 C 4363.32 4.2118 3.23698 0
M  V30 45010 C 4362.36 5.38551 2.90911 0
M  V30 45011 N 4361.5 5.72536 4.06382 0
M  V30 45012 H 4366.34 2.92566 0.56651 0
M  V30 45013 H 4363.87 1.44637 0.268081 0
M  V30 45014 H 4365.83 2.85151 3.04541 0
M  V30 45015 H 4364.46 1.76234 2.70447 0
M  V30 45016 H 4363.51 3.62353 1.15779 0
M  V30 45017 H 4364.82 4.67998 1.72568 0
M  V30 45018 H 4363.98 4.49552 4.07416 0
M  V30 45019 H 4362.72 3.34403 3.55001 0
M  V30 45020 H 4361.72 5.09911 2.056 0
M  V30 45021 H 4362.95 6.26998 2.60864 0
M  V30 45022 H 4360.89 4.88717 4.37598 0
M  V30 45023 H 4360.81 6.52562 3.81706 0
M  V30 45024 H 4362.08 6.05496 4.90912 0
M  V30 45025 N 4366.31 -0.280928 1.55076 0
M  V30 45026 C 4367.24 -1.35141 1.90418 0
M  V30 45027 C 4368.22 -1.51918 0.765175 0
M  V30 45028 O 4369.4 -1.65093 1.02264 0
M  V30 45029 C 4366.53 -2.7123 2.16914 0
M  V30 45030 C 4365.49 -2.69194 3.32744 0
M  V30 45031 C 4364.81 -4.0876 3.44702 0
M  V30 45032 C 4366.11 -2.29161 4.69343 0
M  V30 45033 H 4367.81 -1.0581 2.80079 0
M  V30 45034 H 4365.35 -0.50756 1.34758 0
M  V30 45035 H 4367.31 -3.46222 2.40225 0
M  V30 45036 H 4366.03 -3.02127 1.24044 0
M  V30 45037 H 4364.69 -1.96658 3.09388 0
M  V30 45038 H 4364.34 -4.36866 2.49313 0
M  V30 45039 H 4364.04 -4.08294 4.22575 0
M  V30 45040 H 4365.56 -4.85503 3.70297 0
M  V30 45041 H 4366.98 -2.93874 4.92251 0
M  V30 45042 H 4365.37 -2.39872 5.50074 0
M  V30 45043 H 4366.44 -1.24289 4.68701 0
M  V30 45044 N 4367.79 -1.47874 -0.545076 0
M  V30 45045 C 4369.01 -1.58757 -1.32679 0
M  V30 45046 C 4369.43 -0.242205 -1.8724 0
M  V30 45047 O 4368.79 0.766357 -1.6563 0
M  V30 45048 C 4368.84 -2.62238 -2.48824 0
M  V30 45049 O 4368.56 -3.91553 -1.96515 0
M  V30 45050 C 4370.06 -2.8342 -3.40864 0
M  V30 45051 H 4367.28 -0.535729 -0.404023 0
M  V30 45052 H 4369.82 -1.93588 -0.659098 0
M  V30 45053 H 4367.98 -2.30308 -3.11507 0
M  V30 45054 H 4368.39 -4.482 -2.72428 0
M  V30 45055 H 4369.87 -3.59662 -4.18745 0
M  V30 45056 H 4370.34 -1.91686 -3.95162 0
M  V30 45057 H 4370.95 -3.16595 -2.83986 0
M  V30 45058 N 4369.26 0.792773 -1.36209 0
M  V30 45059 C 4370.67 1.36772 -1.27084 0
M  V30 45060 C 4371.03 1.9599 0.0908136 0
M  V30 45061 O 4370.15 1.92314 0.992187 0
M  V30 45062 C 4370.75 2.48658 -2.30119 0
M  V30 45063 C 4369.3 3.01977 -2.24693 0
M  V30 45064 C 4368.45 1.75032 -2.1508 0
M  V30 45065 H 4371.4 0.594687 -1.47137 0
M  V30 45066 H 4371.42 3.27585 -1.93568 0
M  V30 45067 H 4370.94 2.05528 -3.29211 0
M  V30 45068 H 4369.04 3.49536 -1.29057 0
M  V30 45069 H 4369.15 3.5902 -3.17241 0
M  V30 45070 H 4367.51 1.97132 -1.61279 0
M  V30 45071 H 4368.3 1.34035 -3.16053 0
M  V30 45072 N 4370.74 1.20433 1.01654 0
M  V30 45073 C 4371.99 1.00877 1.74662 0
M  V30 45074 C 4372.3 -0.459713 1.90121 0
M  V30 45075 O 4373.51 -0.7744 2.60222 0
M  V30 45076 C 4371.97 1.75618 3.14144 0
M  V30 45077 C 4371.57 3.26559 3.06697 0
M  V30 45078 C 4373.32 1.64429 3.91361 0
M  V30 45079 C 4371.22 3.93837 4.41187 0
M  V30 45080 H 4370.15 0.373832 0.654802 0
M  V30 45081 H 4372.81 1.44054 1.13669 0
M  V30 45082 H 4371.19 1.25227 3.75678 0
M  V30 45083 H 4372.36 3.84164 2.5447 0
M  V30 45084 H 4370.68 3.38161 2.42973 0
M  V30 45085 H 4373.27 2.12034 4.90862 0
M  V30 45086 H 4373.62 0.600507 4.11946 0
M  V30 45087 H 4374.15 2.12233 3.36455 0
M  V30 45088 H 4370.89 4.98368 4.25805 0
M  V30 45089 H 4370.41 3.41022 4.93421 0
M  V30 45090 H 4372.09 3.98092 5.10031 0
M  V30 45091 N 4372.22 -1.20963 1.01023 0
M  V30 45092 C 4373.63 -1.71903 0.728436 0
M  V30 45093 C 4373.98 -1.81153 -0.753527 0
M  V30 45094 O 4373.11 -1.46968 -1.58837 0
M  V30 45095 C 4373.7 -3.12212 1.31563 0
M  V30 45096 C 4372.26 -3.60488 1.08285 0
M  V30 45097 C 4371.41 -2.3787 1.42525 0
M  V30 45098 H 4374.36 -1.06067 1.18049 0
M  V30 45099 H 4374.38 -3.7395 0.702945 0
M  V30 45100 H 4373.89 -3.05448 2.39423 0
M  V30 45101 H 4371.99 -3.72594 0.0216474 0
M  V30 45102 H 4372.11 -4.45664 1.75842 0
M  V30 45103 H 4370.47 -2.40305 0.844131 0
M  V30 45104 H 4371.25 -2.33752 2.51426 0
M  V30 45105 N 4373.7 -0.785634 -1.36622 0
M  V30 45106 C 4374.66 -0.187428 -2.28432 0
M  V30 45107 C 4375.66 0.613029 -1.48656 0
M  V30 45108 O 4376.85 0.434578 -1.68692 0
M  V30 45109 C 4373.98 0.741063 -3.32748 0
M  V30 45110 H 4375.18 -0.996921 -2.82845 0
M  V30 45111 H 4372.73 -0.554795 -1.46122 0
M  V30 45112 H 4373.46 1.57504 -2.83484 0
M  V30 45113 H 4373.25 0.169075 -3.91735 0
M  V30 45114 H 4374.74 1.1546 -4.01321 0
M  V30 45115 N 4375.18 1.48157 -0.53733 0
M  V30 45116 C 4376.14 2.28229 0.210744 0
M  V30 45117 C 4377.14 1.35803 0.861054 0
M  V30 45118 O 4378.33 1.58625 0.719972 0
M  V30 45119 C 4375.46 3.14901 1.30576 0
M  V30 45120 H 4376.65 2.95831 -0.492363 0
M  V30 45121 H 4374.21 1.53519 -0.293532 0
M  V30 45122 H 4374.94 2.51947 2.04189 0
M  V30 45123 H 4374.73 3.82898 0.844492 0
M  V30 45124 H 4376.22 3.75283 1.83173 0
M  V30 45125 N 4376.65 0.272809 1.55221 0
M  V30 45126 C 4377.88 -0.350927 2.0441 0
M  V30 45127 C 4378.3 -1.48854 1.14996 0
M  V30 45128 O 4377.66 -1.80694 0.148093 0
M  V30 45129 C 4377.71 -0.811625 3.51347 0
M  V30 45130 O 4376.81 -1.91907 3.65028 0
M  V30 45131 H 4376.16 -0.0729068 0.659985 0
M  V30 45132 H 4378.69 0.406435 2.00522 0
M  V30 45133 H 4378.7 -1.10799 3.92667 0
M  V30 45134 H 4377.37 0.0207069 4.15895 0
M  V30 45135 H 4375.95 -1.62541 3.35611 0
M  V30 45136 N 4378.13 -1.576 5.54043e-05 0
M  V30 45137 C 4379.06 -2.05277 -1.01951 0
M  V30 45138 C 4380.08 -0.970708 -1.30695 0
M  V30 45139 O 4381.27 -1.2475 -1.2767 0
M  V30 45140 C 4378.37 -2.4378 -2.35425 0
M  V30 45141 C 4377.54 -3.74719 -2.2562 0
M  V30 45142 C 4376.6 -4.00089 -3.41782 0
M  V30 45143 O 4375.62 -4.70754 -3.19967 0
M  V30 45144 N 4376.83 -3.47989 -4.64633 0
M  V30 45145 H 4379.59 -2.93366 -0.612922 0
M  V30 45146 H 4377.15 -1.60813 -0.187327 0
M  V30 45147 H 4379.14 -2.57866 -3.11909 0
M  V30 45148 H 4377.71 -1.6121 -2.67825 0
M  V30 45149 H 4376.93 -3.70709 -1.34046 0
M  V30 45150 H 4378.22 -4.60562 -2.16241 0
M  V30 45151 H 4377.62 -2.90765 -4.85255 0
M  V30 45152 H 4376.18 -3.67405 -5.38383 0
M  V30 45153 N 4379.61 0.2727 -1.55223 0
M  V30 45154 C 4380.54 1.3413 -1.91132 0
M  V30 45155 C 4381.52 1.5151 -0.773221 0
M  V30 45156 O 4382.71 1.64549 -1.03138 0
M  V30 45157 C 4379.84 2.70076 -2.1835 0
M  V30 45158 C 4378.79 2.67425 -3.34167 0
M  V30 45159 C 4378.12 4.06926 -3.46865 0
M  V30 45160 C 4379.42 2.26669 -4.70551 0
M  V30 45161 H 4381.11 1.04324 -2.80637 0
M  V30 45162 H 4378.66 0.500407 -1.35026 0
M  V30 45163 H 4380.61 3.44943 -2.42058 0
M  V30 45164 H 4379.33 3.01465 -1.25645 0
M  V30 45165 H 4377.99 1.95015 -3.10427 0
M  V30 45166 H 4377.64 4.35538 -2.51626 0
M  V30 45167 H 4377.34 4.06047 -4.24734 0
M  V30 45168 H 4378.86 4.83532 -3.72866 0
M  V30 45169 H 4380.28 2.9126 -4.93802 0
M  V30 45170 H 4378.68 2.36952 -5.51338 0
M  V30 45171 H 4379.75 1.21802 -4.69353 0
M  V30 45172 N 4381.09 1.48161 0.537226 0
M  V30 45173 C 4382.37 1.46296 1.29834 0
M  V30 45174 C 4382.75 0.170687 2.10409 0
M  V30 45175 O 4382.09 -0.847672 2.12195 0
M  V30 45176 C 4382.3 2.72062 2.18593 0
M  V30 45177 C 4383.65 3.20096 2.78969 0
M  V30 45178 O 4384.68 2.72929 2.28885 0
M  V30 45179 O 4383.53 4.02151 3.7005 0
M  V30 45180 H 4380.63 0.583926 0.585627 0
M  V30 45181 H 4383.17 1.60386 0.554478 0
M  V30 45182 H 4381.95 3.57634 1.58789 0
M  V30 45183 H 4381.57 2.60657 3.0024 0
M  V30 45184 N 4382.57 -0.785538 1.36627 0
M  V30 45185 C 4383.5 -1.91254 1.33956 0
M  V30 45186 C 4384.48 -1.68794 0.210385 0
M  V30 45187 O 4385.66 -1.89852 0.408628 0
M  V30 45188 C 4382.79 -3.28335 1.13197 0
M  V30 45189 C 4381.75 -3.65327 2.2298 0
M  V30 45190 C 4381.07 -5.008 1.8736 0
M  V30 45191 C 4382.37 -3.73507 3.65089 0
M  V30 45192 H 4384.07 -1.93747 2.2826 0
M  V30 45193 H 4381.61 -0.930749 1.09877 0
M  V30 45194 H 4383.57 -4.068 1.09962 0
M  V30 45195 H 4382.29 -3.26239 0.153447 0
M  V30 45196 H 4380.95 -2.89161 2.25348 0
M  V30 45197 H 4380.6 -4.9523 0.880719 0
M  V30 45198 H 4380.3 -5.2652 2.60864 0
M  V30 45199 H 4381.82 -5.81681 1.85687 0
M  V30 45200 H 4383.23 -4.42155 3.64927 0
M  V30 45201 H 4381.63 -4.10715 4.37531 0
M  V30 45202 H 4382.7 -2.74513 3.99713 0
M  V30 45203 N 4384.04 -1.20971 -1.01014 0
M  V30 45204 C 4385.27 -1.05037 -1.78835 0
M  V30 45205 C 4385.69 0.395687 -1.83891 0
M  V30 45206 O 4385.05 1.28524 -1.27872 0
M  V30 45207 C 4385.1 -1.64614 -3.20834 0
M  V30 45208 O 4384.2 -0.88813 -4.02723 0
M  V30 45209 H 4383.55 -0.370007 -0.551354 0
M  V30 45210 H 4386.08 -1.60403 -1.27012 0
M  V30 45211 H 4386.09 -1.6862 -3.71526 0
M  V30 45212 H 4384.76 -2.69852 -3.16469 0
M  V30 45213 H 4383.34 -0.922775 -3.61302 0
M  V30 45214 N 4385.52 1.20426 -1.01663 0
M  V30 45215 C 4386.77 1.8942 -0.704589 0
M  V30 45216 C 4387.09 1.79234 0.768134 0
M  V30 45217 O 4386.36 1.19476 1.55249 0
M  V30 45218 H 4384.94 0.701169 -0.257627 0
M  V30 45219 H 4387.6 1.46255 -1.28823 0
M  V30 45220 H 4386.7 2.96048 -0.98802 0
M  V30 45221 N 4387 0.792868 1.36203 0
M  V30 45222 C 4388.25 0.376485 1.99885 0
M  V30 45223 C 4388.6 -1.04122 1.61791 0
M  V30 45224 O 4387.89 -1.71001 0.864253 0
M  V30 45225 C 4388.09 0.481626 3.5414 0
M  V30 45226 C 4387.92 1.908 4.07217 0
M  V30 45227 C 4386.69 2.53337 4.37205 0
M  V30 45228 C 4388.89 2.87063 4.26731 0
M  V30 45229 N 4386.87 3.87527 4.76126 0
M  V30 45230 C 4388.24 4.06094 4.68495 0
M  V30 45231 C 4390.29 2.84074 4.08908 0
M  V30 45232 C 4389 5.22549 4.94303 0
M  V30 45233 C 4391.02 3.9972 4.35864 0
M  V30 45234 C 4390.38 5.17496 4.77888 0
M  V30 45235 H 4386.48 0.185253 0.75974 0
M  V30 45236 H 4389.07 1.0312 1.6515 0
M  V30 45237 H 4387.24 -0.143018 3.88137 0
M  V30 45238 H 4388.97 0.041155 4.04679 0
M  V30 45239 H 4385.73 2.04792 4.27033 0
M  V30 45240 H 4386.15 4.56578 4.99866 0
M  V30 45241 H 4390.79 1.94178 3.75573 0
M  V30 45242 H 4388.51 6.13029 5.26518 0
M  V30 45243 H 4392.1 3.98773 4.23641 0
M  V30 45244 H 4390.98 6.05496 4.98342 0
M  V30 45245 N 4388.48 -1.4787 0.54518 0
M  V30 45246 C 4389.73 -2.02493 0.016657 0
M  V30 45247 C 4390.05 -1.42078 -1.32831 0
M  V30 45248 O 4389.31 -0.561525 -1.87471 0
M  V30 45249 C 4389.61 -3.57131 -0.138544 0
M  V30 45250 C 4389.27 -4.36407 1.134 0
M  V30 45251 C 4387.94 -4.57787 1.48272 0
M  V30 45252 C 4390.29 -4.82216 1.97781 0
M  V30 45253 C 4387.62 -5.22223 2.67394 0
M  V30 45254 C 4389.97 -5.47966 3.16096 0
M  V30 45255 C 4388.63 -5.67581 3.51295 0
M  V30 45256 H 4387.9 -0.740975 0.00609523 0
M  V30 45257 H 4390.55 -1.77681 0.714269 0
M  V30 45258 H 4388.85 -3.80869 -0.919038 0
M  V30 45259 H 4390.55 -3.97033 -0.562642 0
M  V30 45260 H 4387.14 -4.20037 0.852445 0
M  V30 45261 H 4391.32 -4.65487 1.72149 0
M  V30 45262 H 4386.58 -5.35606 2.9485 0
M  V30 45263 H 4390.75 -5.82426 3.81775 0
M  V30 45264 H 4388.38 -6.17282 4.43696 0
M  V30 45265 N 4389.96 -0.281037 -1.55074 0
M  V30 45266 C 4391.2 0.33454 -2.00022 0
M  V30 45267 C 4391.54 1.55059 -1.1692 0
M  V30 45268 O 4390.81 1.93005 -0.240714 0
M  V30 45269 C 4391.09 0.710883 -3.53013 0
M  V30 45270 C 4390.95 -0.512923 -4.46866 0
M  V30 45271 C 4392.27 1.54508 -4.12087 0
M  V30 45272 H 4389.38 0.120122 -0.727145 0
M  V30 45273 H 4392.03 -0.389162 -1.85972 0
M  V30 45274 H 4390.18 1.32748 -3.65117 0
M  V30 45275 H 4391.85 -1.15147 -4.46698 0
M  V30 45276 H 4390.09 -1.1499 -4.18282 0
M  V30 45277 H 4390.76 -0.205749 -5.51616 0
M  V30 45278 H 4393.24 1.02428 -4.03296 0
M  V30 45279 H 4392.11 1.77721 -5.19333 0
M  V30 45280 H 4392.38 2.528 -3.62691 0
M  V30 45281 N 4391.44 1.57598 -0.00841331 0
M  V30 45282 C 4392.4 2.07887 0.965169 0
M  V30 45283 C 4393.4 0.989869 1.26721 0
M  V30 45284 O 4394.59 1.25222 1.21099 0
M  V30 45285 C 4391.72 2.52739 2.2877 0
M  V30 45286 H 4392.91 2.95179 0.530009 0
M  V30 45287 H 4390.47 1.54458 0.239229 0
M  V30 45288 H 4391.2 1.68715 2.76958 0
M  V30 45289 H 4390.99 3.32279 2.08166 0
M  V30 45290 H 4392.48 2.91943 2.98595 0
M  V30 45291 N 4392.91 -0.264465 1.55365 0
M  V30 45292 C 4394.16 -0.992959 1.76025 0
M  V30 45293 C 4394.48 -1.86509 0.569165 0
M  V30 45294 O 4393.75 -1.91439 -0.415668 0
M  V30 45295 H 4392.33 -0.369616 0.649148 0
M  V30 45296 H 4394.99 -0.286639 1.92781 0
M  V30 45297 H 4394.09 -1.62493 2.66463 0
M  V30 45298 N 4394.39 -1.48444 -0.529361 0
M  V30 45299 C 4395.62 -1.59923 -1.30798 0
M  V30 45300 C 4396.03 -0.258858 -1.87421 0
M  V30 45301 O 4395.37 0.762037 -1.67149 0
M  V30 45302 C 4395.43 -2.58702 -2.49627 0
M  V30 45303 C 4395.1 -4.03752 -2.14087 0
M  V30 45304 C 4396.1 -4.91416 -1.69723 0
M  V30 45305 C 4393.78 -4.49293 -2.24591 0
M  V30 45306 C 4395.77 -6.2265 -1.36329 0
M  V30 45307 C 4393.46 -5.80547 -1.90809 0
M  V30 45308 C 4394.46 -6.67048 -1.4675 0
M  V30 45309 O 4394.15 -7.9586 -1.13412 0
M  V30 45310 H 4393.88 -0.541995 -0.404002 0
M  V30 45311 H 4396.43 -1.95002 -0.64524 0
M  V30 45312 H 4394.66 -2.18745 -3.18885 0
M  V30 45313 H 4396.35 -2.6001 -3.11689 0
M  V30 45314 H 4397.12 -4.5747 -1.61078 0
M  V30 45315 H 4393 -3.82151 -2.5784 0
M  V30 45316 H 4396.54 -6.90122 -1.01867 0
M  V30 45317 H 4392.44 -6.14029 -1.99096 0
M  V30 45318 H 4393.21 -8.08618 -1.26804 0
M  V30 45319 N 4395.87 0.778281 -1.37042 0
M  V30 45320 C 4396.82 1.91274 -1.32352 0
M  V30 45321 C 4397.81 1.68051 -0.21339 0
M  V30 45322 O 4399.02 1.75921 -0.381042 0
M  V30 45323 H 4395.39 0.628895 -0.412305 0
M  V30 45324 H 4397.36 1.92347 -2.28134 0
M  V30 45325 C 4396.11 3.28451 -1.14084 0
M  V30 45326 H 4395.44 3.46894 -1.98758 0
M  V30 45327 H 4396.88 4.08148 -1.14852 0
M  V30 45328 C 4395.33 3.36548 0.153897 0
M  V30 45329 O 4395.86 3.8519 1.1398 0
M  V30 45330 N 4394.07 2.89894 0.202373 0
M  V30 45331 H 4393.62 2.50501 -0.600564 0
M  V30 45332 H 4393.58 2.95693 1.06831 0
M  V30 45333 N 4397.35 1.21505 1.00371 0
M  V30 45334 C 4398.6 1.03101 1.73823 0
M  V30 45335 C 4398.92 -0.436274 1.90057 0
M  V30 45336 O 4398.19 -1.31461 1.45241 0
M  V30 45337 H 4396.77 0.37851 0.644003 0
M  V30 45338 H 4399.43 1.52835 1.20944 0
M  V30 45339 H 4398.52 1.50001 2.7369 0
M  V30 45340 N 4398.83 -1.19885 1.023 0
M  V30 45341 C 4400.07 -1.89044 0.714625 0
M  V30 45342 C 4400.39 -1.79638 -0.758618 0
M  V30 45343 O 4399.66 -1.20297 -1.54614 0
M  V30 45344 H 4398.24 -0.699792 0.261342 0
M  V30 45345 H 4400.91 -1.4557 1.29597 0
M  V30 45346 H 4400 -2.9552 1.00371 0
M  V30 45347 N 4400.3 -0.80008 -1.35781 0
M  V30 45348 C 4401.58 -0.300948 -1.93271 0
M  V30 45349 C 4401.96 1.20851 -1.73085 0
M  V30 45350 O 4401.31 2.00498 -1.09603 0
M  V30 45351 C 4401.52 -0.70523 -3.418 0
M  V30 45352 C 4402.87 -0.691018 -4.18939 0
M  V30 45353 O 4403.89 -0.646367 -3.50286 0
M  V30 45354 O 4402.75 -0.74351 -5.41419 0
M  V30 45355 H 4399.84 -0.0771894 -0.82339 0
M  V30 45356 H 4402.39 -0.883341 -1.44897 0
M  V30 45357 H 4401.16 -1.74583 -3.50195 0
M  V30 45358 H 4400.78 -0.0972938 -3.97481 0
M  V30 45359 N 4401.78 1.47579 -0.553014 0
M  V30 45360 C 4403.03 2.01684 -0.0252704 0
M  V30 45361 C 4403.34 1.43322 1.3311 0
M  V30 45362 O 4404.55 1.89064 1.94851 0
M  V30 45363 C 4403.01 3.599 0.00529399 0
M  V30 45364 C 4402.61 4.27252 -1.34757 0
M  V30 45365 C 4404.36 4.2177 0.480651 0
M  V30 45366 C 4402.26 5.77463 -1.27635 0
M  V30 45367 H 4401.19 0.753979 -0.00567684 0
M  V30 45368 H 4403.85 1.69614 -0.70024 0
M  V30 45369 H 4402.23 3.88913 0.745824 0
M  V30 45370 H 4403.4 4.09885 -2.10549 0
M  V30 45371 H 4401.72 3.77352 -1.76052 0
M  V30 45372 H 4404.31 5.3184 0.552273 0
M  V30 45373 H 4404.66 3.88657 1.4917 0
M  V30 45374 H 4405.19 3.97272 -0.204892 0
M  V30 45375 H 4401.93 6.15188 -2.26326 0
M  V30 45376 H 4401.45 5.97178 -0.56017 0
M  V30 45377 H 4403.13 6.39586 -0.976645 0
M  V30 45378 N 4403.26 0.289257 1.54923 0
M  V30 45379 C 4404.49 -0.325917 2.04013 0
M  V30 45380 C 4404.9 -1.48957 1.16656 0
M  V30 45381 O 4404.24 -1.82794 0.182264 0
M  V30 45382 C 4404.3 -0.855989 3.49161 0
M  V30 45383 C 4403.97 0.180858 4.56642 0
M  V30 45384 C 4404.96 1.00528 5.10088 0
M  V30 45385 C 4402.65 0.319174 5.01285 0
M  V30 45386 C 4404.64 1.95406 6.06708 0
M  V30 45387 C 4402.33 1.27142 5.97727 0
M  V30 45388 C 4403.33 2.08736 6.50322 0
M  V30 45389 O 4403.02 3.02348 7.44876 0
M  V30 45390 H 4402.75 -0.076504 0.671657 0
M  V30 45391 H 4405.3 0.423325 2.0099 0
M  V30 45392 H 4403.53 -1.65555 3.49469 0
M  V30 45393 H 4405.22 -1.38578 3.81512 0
M  V30 45394 H 4405.99 0.909227 4.76401 0
M  V30 45395 H 4401.87 -0.305946 4.59984 0
M  V30 45396 H 4405.41 2.59133 6.47685 0
M  V30 45397 H 4401.31 1.36824 6.30832 0
M  V30 45398 H 4402.07 2.97192 7.6264 0
M  V30 45399 N 4404.74 -1.57591 0.016771 0
M  V30 45400 C 4405.69 -2.05956 -0.978064 0
M  V30 45401 C 4406.67 -0.957578 -1.29303 0
M  V30 45402 O 4407.86 -1.22123 -1.2812 0
M  V30 45403 C 4404.99 -2.58014 -2.26459 0
M  V30 45404 C 4404.08 -3.7512 -1.97853 0
M  V30 45405 N 4404.47 -4.86191 -1.39469 0
M  V30 45406 C 4402.77 -3.83371 -2.2791 0
M  V30 45407 C 4403.47 -5.67507 -1.27715 0
M  V30 45408 N 4402.44 -5.14029 -1.76848 0
M  V30 45409 H 4406.25 -2.89238 -0.52142 0
M  V30 45410 H 4403.76 -1.61302 -0.18854 0
M  V30 45411 H 4405.76 -2.90948 -2.98589 0
M  V30 45412 H 4404.42 -1.76157 -2.72761 0
M  V30 45413 H 4405.43 -5.06699 -1.0713 0
M  V30 45414 H 4402.11 -3.12399 -2.76971 0
M  V30 45415 H 4403.5 -6.66794 -0.826744 0
M  V30 45416 N 4406.22 0.256222 -1.55503 0
M  V30 45417 C 4407.44 1.00759 -1.8128 0
M  V30 45418 C 4407.87 1.78522 -0.592582 0
M  V30 45419 O 4407.22 1.75414 0.458208 0
M  V30 45420 C 4407.27 1.92858 -3.04693 0
M  V30 45421 O 4406.38 3.01891 -2.80955 0
M  V30 45422 H 4405.72 0.287203 -0.598674 0
M  V30 45423 H 4408.25 0.280038 -2.02674 0
M  V30 45424 H 4408.26 2.34499 -3.33877 0
M  V30 45425 H 4406.93 1.35675 -3.93148 0
M  V30 45426 H 4405.51 2.64445 -2.62913 0
M  V30 45427 N 4407.69 1.48722 0.521481 0
M  V30 45428 C 4408.62 1.66777 1.63425 0
M  V30 45429 C 4409.61 0.516556 1.62067 0
M  V30 45430 O 4410.79 0.750076 1.7913 0
M  V30 45431 C 4407.92 1.71526 3.01987 0
M  V30 45432 C 4406.87 2.86233 3.18206 0
M  V30 45433 C 4406.2 2.76077 4.57914 0
M  V30 45434 C 4407.5 4.27429 3.00169 0
M  V30 45435 H 4409.19 2.59937 1.4857 0
M  V30 45436 H 4406.74 1.25091 0.713314 0
M  V30 45437 H 4408.69 1.82744 3.79714 0
M  V30 45438 H 4407.42 0.749505 3.17884 0
M  V30 45439 H 4406.08 2.74583 2.42898 0
M  V30 45440 H 4405.72 1.77453 4.70658 0
M  V30 45441 H 4405.42 3.53053 4.6971 0
M  V30 45442 H 4406.95 2.89275 5.37729 0
M  V30 45443 H 4408.36 4.39868 3.67681 0
M  V30 45444 H 4406.76 5.05469 3.23452 0
M  V30 45445 H 4407.83 4.433 1.96503 0
M  V30 45446 N 4409.17 -0.771003 1.37453 0
M  V30 45447 C 4410.4 -1.56524 1.3607 0
M  V30 45448 C 4410.82 -1.88029 -0.0515198 0
M  V30 45449 O 4410.18 -1.49285 -1.02877 0
M  V30 45450 C 4410.23 -2.85179 2.20693 0
M  V30 45451 O 4409.33 -3.79587 1.61206 0
M  V30 45452 H 4408.67 -0.474093 0.464899 0
M  V30 45453 H 4411.2 -0.954205 1.80986 0
M  V30 45454 H 4411.21 -3.34274 2.33933 0
M  V30 45455 H 4409.89 -2.61576 3.23343 0
M  V30 45456 H 4408.47 -3.38234 1.57011 0
M  V30 45457 N 4410.65 -1.22035 -0.997255 0
M  V30 45458 C 4412.07 -0.979371 -1.26018 0
M  V30 45459 C 4412.27 0.32965 -1.98785 0
M  V30 45460 O 4411.32 1.05337 -2.29478 0
M  V30 45461 C 4412.64 -2.17516 -2.07623 0
M  V30 45462 C 4414.18 -2.21825 -2.20823 0
M  V30 45463 C 4414.66 -3.40944 -3.05813 0
M  V30 45464 N 4416.15 -3.41078 -3.134 0
M  V30 45465 C 4416.88 -4.29899 -3.7944 0
M  V30 45466 N 4416.38 -5.28929 -4.47443 0
M  V30 45467 N 4418.17 -4.17686 -3.76158 0
M  V30 45468 H 4410.32 -2.06204 -0.50928 0
M  V30 45469 H 4412.59 -0.903351 -0.28751 0
M  V30 45470 H 4412.29 -3.1242 -1.61513 0
M  V30 45471 H 4412.17 -2.17217 -3.08378 0
M  V30 45472 H 4414.55 -1.27471 -2.66149 0
M  V30 45473 H 4414.64 -2.26165 -1.19512 0
M  V30 45474 H 4414.28 -4.35596 -2.61188 0
M  V30 45475 H 4414.21 -3.33843 -4.07254 0
M  V30 45476 H 4416.7 -2.69415 -2.64998 0
M  V30 45477 H 4417.01 -5.92991 -4.95562 0
M  V30 45478 H 4415.36 -5.32847 -4.46205 0
M  V30 45479 H 4418.55 -3.39575 -3.2219 0
M  V30 45480 H 4418.72 -4.87113 -4.27346 0
M  V30 45481 N 4412.13 1.19341 -1.02934 0
M  V30 45482 C 4413.09 2.20791 -0.615146 0
M  V30 45483 C 4414.09 1.57554 0.321478 0
M  V30 45484 O 4415.28 1.73862 0.108422 0
M  V30 45485 C 4412.41 3.40754 0.0998024 0
M  V30 45486 H 4413.61 2.5895 -1.51278 0
M  V30 45487 H 4411.16 1.33027 -0.820581 0
M  V30 45488 H 4411.89 3.08113 1.01176 0
M  V30 45489 H 4411.68 3.87887 -0.573226 0
M  V30 45490 H 4413.17 4.15899 0.376499 0
M  V30 45491 N 4413.61 0.80727 1.35355 0
M  V30 45492 C 4415.02 0.491091 1.51857 0
M  V30 45493 C 4415.22 -0.987586 1.75639 0
M  V30 45494 O 4414.28 -1.77259 1.79821 0
M  V30 45495 C 4415.59 1.33704 2.69339 0
M  V30 45496 C 4417.14 1.33256 2.83217 0
M  V30 45497 C 4417.61 2.16264 4.03725 0
M  V30 45498 N 4419.11 2.13804 4.10904 0
M  V30 45499 C 4419.84 2.7479 5.03267 0
M  V30 45500 N 4419.34 3.44705 6.00958 0
M  V30 45501 N 4421.13 2.64428 4.96019 0
M  V30 45502 H 4413.28 1.76489 1.18175 0
M  V30 45503 H 4415.54 0.75122 0.57825 0
M  V30 45504 H 4415.25 2.38643 2.58345 0
M  V30 45505 H 4415.12 0.990746 3.63956 0
M  V30 45506 H 4417.51 0.291014 2.93662 0
M  V30 45507 H 4417.59 1.71873 1.89455 0
M  V30 45508 H 4417.24 3.20459 3.94041 0
M  V30 45509 H 4417.17 1.75007 4.96669 0
M  V30 45510 H 4419.66 1.62935 3.4097 0
M  V30 45511 H 4419.97 3.88524 6.68033 0
M  V30 45512 H 4418.31 3.4881 6.0113 0
M  V30 45513 H 4421.51 2.09394 4.18654 0
M  V30 45514 H 4421.68 3.12245 5.67809 0
M  V30 45515 N 4415.08 -1.47283 0.560833 0
M  V30 45516 C 4416.5 -1.86258 0.128408 0
M  V30 45517 C 4416.85 -1.46704 -1.30279 0
M  V30 45518 O 4415.97 -0.871768 -1.98064 0
M  V30 45519 C 4416.57 -3.38044 0.226259 0
M  V30 45520 C 4415.13 -3.76096 -0.151151 0
M  V30 45521 C 4414.27 -2.71333 0.572179 0
M  V30 45522 H 4417.22 -1.38749 0.770346 0
M  V30 45523 H 4417.24 -3.76443 -0.55419 0
M  V30 45524 H 4416.76 -3.66801 1.268 0
M  V30 45525 H 4414.86 -3.52955 -1.19387 0
M  V30 45526 H 4414.97 -4.7864 0.209933 0
M  V30 45527 H 4413.33 -2.54696 0.0148548 0
M  V30 45528 H 4414.12 -3.02932 1.61515 0
M  V30 45529 N 4416.56 -0.297469 -1.54767 0
M  V30 45530 C 4417.98 0.0560262 -1.59502 0
M  V30 45531 C 4418.18 1.5272 -1.31449 0
M  V30 45532 O 4417.23 2.27943 -1.08619 0
M  V30 45533 C 4418.55 -0.338736 -2.98786 0
M  V30 45534 C 4420.1 -0.287207 -3.1168 0
M  V30 45535 C 4420.57 -0.656738 -4.53267 0
M  V30 45536 N 4422.06 -0.609139 -4.59177 0
M  V30 45537 C 4422.8 -0.867585 -5.66798 0
M  V30 45538 N 4422.29 -1.19181 -6.82472 0
M  V30 45539 N 4424.09 -0.794883 -5.56451 0
M  V30 45540 H 4416.24 -1.2563 -1.71263 0
M  V30 45541 H 4418.5 -0.509085 -0.79971 0
M  V30 45542 H 4418.21 -1.36274 -3.24226 0
M  V30 45543 H 4418.08 0.309376 -3.75929 0
M  V30 45544 H 4420.47 0.727548 -2.85991 0
M  V30 45545 H 4420.55 -0.969892 -2.367 0
M  V30 45546 H 4420.19 -1.66928 -4.79685 0
M  V30 45547 H 4420.12 0.0479798 -5.26578 0
M  V30 45548 H 4422.61 -0.369331 -3.76091 0
M  V30 45549 H 4422.93 -1.37509 -7.60468 0
M  V30 45550 H 4421.27 -1.22982 -6.84033 0
M  V30 45551 H 4424.46 -0.541261 -4.6496 0
M  V30 45552 H 4424.63 -0.99967 -6.40243 0
M  V30 45553 N 4418.04 1.5758 -0.0251282 0
M  V30 45554 C 4419.29 1.92749 0.64958 0
M  V30 45555 C 4419.64 0.901647 1.69965 0
M  V30 45556 O 4418.93 -0.0828578 1.91421 0
M  V30 45557 C 4419.13 3.32425 1.31257 0
M  V30 45558 C 4418.96 4.48501 0.328236 0
M  V30 45559 C 4417.73 5.05251 -0.0704616 0
M  V30 45560 C 4419.93 5.12616 -0.415845 0
M  V30 45561 N 4417.91 6.04847 -1.05038 0
M  V30 45562 C 4419.28 6.07276 -1.24964 0
M  V30 45563 C 4421.33 4.9561 -0.476977 0
M  V30 45564 C 4420.04 6.86759 -2.13904 0
M  V30 45565 C 4422.06 5.75699 -1.3537 0
M  V30 45566 C 4421.42 6.69971 -2.17528 0
M  V30 45567 H 4417.52 0.753239 0.210132 0
M  V30 45568 H 4420.11 1.94485 -0.0913683 0
M  V30 45569 H 4418.28 3.31515 2.02367 0
M  V30 45570 H 4420.01 3.54953 1.94398 0
M  V30 45571 H 4416.77 4.72629 0.303157 0
M  V30 45572 H 4417.19 6.59335 -1.53645 0
M  V30 45573 H 4421.83 4.22555 0.143957 0
M  V30 45574 H 4419.55 7.59122 -2.77054 0
M  V30 45575 H 4423.14 5.64574 -1.40524 0
M  V30 45576 H 4422.02 7.30863 -2.8427 0
M  V30 45577 N 4419.52 -0.247971 1.55637 0
M  V30 45578 C 4420.77 -0.976161 1.77419 0
M  V30 45579 C 4421.09 -1.85359 0.589258 0
M  V30 45580 O 4420.35 -1.90974 -0.427462 0
M  V30 45581 C 4420.65 -1.86808 3.04693 0
M  V30 45582 C 4420.31 -1.14609 4.36091 0
M  V30 45583 C 4418.98 -0.946557 4.71798 0
M  V30 45584 C 4421.33 -0.634281 5.17326 0
M  V30 45585 C 4418.66 -0.222885 5.86276 0
M  V30 45586 C 4421.01 0.0759183 6.32554 0
M  V30 45587 C 4419.67 0.286945 6.66883 0
M  V30 45588 H 4418.94 -0.357203 0.64922 0
M  V30 45589 H 4421.59 -0.246348 1.89909 0
M  V30 45590 H 4419.89 -2.66492 2.8721 0
M  V30 45591 H 4421.59 -2.43317 3.18744 0
M  V30 45592 H 4418.18 -1.31156 4.08039 0
M  V30 45593 H 4422.36 -0.775988 4.90196 0
M  V30 45594 H 4417.62 -0.0489036 6.1138 0
M  V30 45595 H 4421.79 0.480144 6.94743 0
M  V30 45596 H 4419.42 0.849655 7.55437 0
M  V30 45597 N 4421 -1.48997 -0.513587 0
M  V30 45598 C 4421.93 -1.59325 -1.63373 0
M  V30 45599 C 4422.91 -0.442871 -1.56453 0
M  V30 45600 O 4424.09 -0.656717 -1.7669 0
M  V30 45601 C 4421.22 -1.5365 -3.01843 0
M  V30 45602 C 4420.27 -2.73731 -3.27068 0
M  V30 45603 S 4421.1 -4.35539 -3.11555 0
M  V30 45604 C 4422.25 -4.32489 -4.52442 0
M  V30 45605 H 4422.49 -2.54084 -1.54365 0
M  V30 45606 H 4420.02 -1.37732 -0.6978 0
M  V30 45607 H 4421.98 -1.51063 -3.81694 0
M  V30 45608 H 4420.64 -0.602006 -3.08277 0
M  V30 45609 H 4419.83 -2.65945 -4.28123 0
M  V30 45610 H 4419.43 -2.73666 -2.54917 0
M  V30 45611 H 4421.73 -4.03433 -5.44287 0
M  V30 45612 H 4422.67 -5.33779 -4.6528 0
M  V30 45613 H 4423.08 -3.62733 -4.32533 0
M  V30 45614 N 4422.48 0.763702 -1.3786 0
M  V30 45615 C 4423.41 1.89099 -1.36982 0
M  V30 45616 C 4424.39 1.68438 -0.237212 0
M  V30 45617 O 4425.57 1.89178 -0.43878 0
M  V30 45618 C 4422.7 3.26492 -1.18406 0
M  V30 45619 C 4421.66 3.61733 -2.28764 0
M  V30 45620 C 4420.98 4.97756 -1.95304 0
M  V30 45621 C 4422.28 3.67652 -3.70985 0
M  V30 45622 H 4423.98 1.90091 -2.31313 0
M  V30 45623 H 4421.52 0.913151 -1.11344 0
M  V30 45624 H 4423.47 4.04999 -1.1642 0
M  V30 45625 H 4422.2 3.25954 -0.205329 0
M  V30 45626 H 4420.86 2.85539 -2.29919 0
M  V30 45627 H 4420.51 4.93766 -0.959394 0
M  V30 45628 H 4420.21 5.22304 -2.69208 0
M  V30 45629 H 4421.73 5.78653 -1.94918 0
M  V30 45630 H 4423.14 4.36294 -3.71915 0
M  V30 45631 H 4421.54 4.03702 -4.44009 0
M  V30 45632 H 4422.61 2.6812 -4.0403 0
M  V30 45633 N 4423.95 1.22562 0.990769 0
M  V30 45634 C 4425.19 1.06308 1.74579 0
M  V30 45635 C 4425.56 -0.394671 1.879 0
M  V30 45636 O 4426.76 -0.678123 2.60106 0
M  V30 45637 C 4425.03 1.7571 3.11224 0
M  V30 45638 S 4426.59 1.74896 4.02438 0
M  V30 45639 H 4423.41 0.380661 0.600515 0
M  V30 45640 H 4426.01 1.55536 1.18443 0
M  V30 45641 H 4424.71 2.80933 2.99173 0
M  V30 45642 H 4424.24 1.26721 3.72432 0
M  V30 45643 H 4426.26 0.800169 4.89706 0
M  V30 45644 N 4425.43 -1.18793 1.03566 0
M  V30 45645 C 4426.36 -2.24469 0.643098 0
M  V30 45646 C 4427.34 -1.66434 -0.351224 0
M  V30 45647 O 4428.53 -1.92804 -0.232437 0
M  V30 45648 C 4425.66 -3.473 7.95998e-05 0
M  V30 45649 C 4424.61 -4.18052 0.917404 0
M  V30 45650 C 4423.94 -5.34519 0.139129 0
M  V30 45651 C 4425.24 -4.72101 2.23424 0
M  V30 45652 H 4426.93 -2.57561 1.52652 0
M  V30 45653 H 4424.48 -1.23804 0.735438 0
M  V30 45654 H 4426.43 -4.20427 -0.286235 0
M  V30 45655 H 4425.15 -3.13428 -0.918188 0
M  V30 45656 H 4423.81 -3.46816 1.18802 0
M  V30 45657 H 4423.46 -4.96894 -0.781387 0
M  V30 45658 H 4423.16 -5.82791 0.750209 0
M  V30 45659 H 4424.69 -6.10439 -0.140286 0
M  V30 45660 H 4426.1 -5.36948 2.00898 0
M  V30 45661 H 4424.5 -5.30887 2.79784 0
M  V30 45662 H 4425.57 -3.89797 2.88421 0
M  V30 45663 N 4426.91 -0.814437 -1.34925 0
M  V30 45664 C 4427.84 -0.244909 -2.32212 0
M  V30 45665 C 4428.82 0.633969 -1.57844 0
M  V30 45666 O 4430.01 0.562611 -1.85872 0
M  V30 45667 C 4427.14 0.600986 -3.42061 0
M  V30 45668 C 4426.09 -0.180046 -4.27621 0
M  V30 45669 C 4425.42 0.788051 -5.28861 0
M  V30 45670 C 4426.72 -1.38347 -5.03644 0
M  V30 45671 H 4428.41 -1.05773 -2.80094 0
M  V30 45672 H 4425.96 -0.510076 -1.34663 0
M  V30 45673 H 4427.91 1.00954 -4.09129 0
M  V30 45674 H 4426.63 1.44678 -2.92807 0
M  V30 45675 H 4425.29 -0.569866 -3.62144 0
M  V30 45676 H 4424.94 1.62956 -4.75872 0
M  V30 45677 H 4424.64 0.269736 -5.86981 0
M  V30 45678 H 4426.16 1.19464 -5.98799 0
M  V30 45679 H 4427.58 -1.04938 -5.63614 0
M  V30 45680 H 4425.97 -1.83682 -5.71297 0
M  V30 45681 H 4427.04 -2.16607 -4.33831 0
M  V30 45682 N 4428.39 1.46984 -0.568636 0
M  V30 45683 C 4429.32 2.32947 0.160671 0
M  V30 45684 C 4430.3 1.44491 0.89758 0
M  V30 45685 O 4431.48 1.7333 0.875806 0
M  V30 45686 C 4428.61 3.26498 1.18391 0
M  V30 45687 C 4427.57 4.24284 0.562746 0
M  V30 45688 C 4426.89 5.07242 1.69145 0
M  V30 45689 C 4428.19 5.19988 -0.490944 0
M  V30 45690 H 4429.89 2.94173 -0.557019 0
M  V30 45691 H 4427.43 1.41459 -0.26932 0
M  V30 45692 H 4429.39 3.85483 1.70238 0
M  V30 45693 H 4428.11 2.6335 1.9317 0
M  V30 45694 H 4426.77 3.66542 0.0654875 0
M  V30 45695 H 4426.42 4.40489 2.42855 0
M  V30 45696 H 4426.12 5.73455 1.28154 0
M  V30 45697 H 4427.64 5.69088 2.21294 0
M  V30 45698 H 4429.06 5.73271 -0.0581062 0
M  V30 45699 H 4427.45 5.94466 -0.820374 0
M  V30 45700 H 4428.52 4.64772 -1.38257 0
M  V30 45701 N 4429.87 0.305673 1.54607 0
M  V30 45702 C 4430.8 -0.561402 2.26651 0
M  V30 45703 C 4431.78 -1.1341 1.26776 0
M  V30 45704 O 4432.96 -1.16257 1.55557 0
M  V30 45705 C 4430.09 -1.73111 3.01081 0
M  V30 45706 C 4429.05 -1.28855 4.08143 0
M  V30 45707 C 4428.37 -2.5438 4.70314 0
M  V30 45708 C 4429.67 -0.416395 5.20638 0
M  V30 45709 H 4431.37 0.0394954 2.99374 0
M  V30 45710 H 4428.91 0.0204356 1.43985 0
M  V30 45711 H 4430.86 -2.34383 3.50203 0
M  V30 45712 H 4429.59 -2.35832 2.25944 0
M  V30 45713 H 4428.25 -0.698865 3.59877 0
M  V30 45714 H 4427.9 -3.15425 3.91811 0
M  V30 45715 H 4427.6 -2.25467 5.42622 0
M  V30 45716 H 4429.12 -3.16446 5.22201 0
M  V30 45717 H 4430.53 -0.934918 5.65625 0
M  V30 45718 H 4428.93 -0.220836 5.99694 0
M  V30 45719 H 4430 0.557331 4.81686 0
M  V30 45720 N 4431.34 -1.57564 0.0334847 0
M  V30 45721 C 4432.57 -1.96691 -0.657826 0
M  V30 45722 C 4432.99 -0.910115 -1.64616 0
M  V30 45723 O 4432.35 0.128534 -1.80844 0
M  V30 45724 C 4432.4 -3.3491 -1.33671 0
M  V30 45725 O 4431.5 -3.31583 -2.45208 0
M  V30 45726 H 4430.84 -0.641211 -0.172467 0
M  V30 45727 H 4433.37 -2.04372 0.0966339 0
M  V30 45728 H 4433.38 -3.71239 -1.69249 0
M  V30 45729 H 4432.06 -4.11369 -0.612266 0
M  V30 45730 H 4430.64 -3.06976 -2.11708 0
M  V30 45731 N 4432.82 0.239714 -1.55766 0
M  V30 45732 C 4434.07 0.968171 -1.78197 0
M  V30 45733 C 4434.4 1.84699 -0.600003 0
M  V30 45734 O 4433.68 1.90312 0.401457 0
M  V30 45735 C 4433.96 1.82259 -3.1057 0
M  V30 45736 C 4433.81 0.971478 -4.39184 0
M  V30 45737 C 4435.13 2.80376 -3.3923 0
M  V30 45738 H 4432.25 0.350549 -0.648293 0
M  V30 45739 H 4434.89 0.238193 -1.88501 0
M  V30 45740 H 4433.04 2.44496 -3.01917 0
M  V30 45741 H 4434.71 0.367246 -4.59836 0
M  V30 45742 H 4432.96 0.276124 -4.3292 0
M  V30 45743 H 4433.63 1.60328 -5.28204 0
M  V30 45744 H 4436.1 2.28275 -3.47893 0
M  V30 45745 H 4434.98 3.37275 -4.33056 0
M  V30 45746 H 4435.24 3.57203 -2.60497 0
M  V30 45747 N 4434.3 1.49267 0.505678 0
M  V30 45748 C 4435.55 1.58204 1.25761 0
M  V30 45749 C 4435.87 0.26855 1.93142 0
M  V30 45750 O 4435.14 -0.711769 1.82512 0
M  V30 45751 H 4433.72 0.58289 0.467171 0
M  V30 45752 H 4436.38 1.85867 0.586459 0
M  V30 45753 H 4435.48 2.3757 2.02403 0
M  V30 45754 N 4435.78 -0.756381 1.38263 0
M  V30 45755 C 4437.02 -1.51767 1.34516 0
M  V30 45756 C 4437.36 -1.94089 -0.0656008 0
M  V30 45757 O 4436.63 -1.65225 -1.0262 0
M  V30 45758 C 4436.92 -2.77218 2.29831 0
M  V30 45759 C 4436.77 -2.41051 3.79756 0
M  V30 45760 C 4438.09 -3.79228 2.23325 0
M  V30 45761 H 4435.21 -0.550561 0.489951 0
M  V30 45762 H 4437.85 -0.866548 1.69089 0
M  V30 45763 H 4436 -3.32777 2.00479 0
M  V30 45764 H 4437.67 -1.91288 4.1977 0
M  V30 45765 H 4435.91 -1.73546 3.97573 0
M  V30 45766 H 4436.58 -3.30794 4.41904 0
M  V30 45767 H 4439.06 -3.33201 2.49231 0
M  V30 45768 H 4437.94 -4.64704 2.92132 0
M  V30 45769 H 4438.2 -4.24611 1.23117 0
M  V30 45770 N 4437.26 -1.23086 -0.984255 0
M  V30 45771 C 4438.5 -1.05854 -1.72161 0
M  V30 45772 C 4438.83 0.405982 -1.90727 0
M  V30 45773 O 4438.1 1.29134 -1.47314 0
M  V30 45774 H 4436.68 -0.388707 -0.637899 0
M  V30 45775 H 4439.34 -1.5474 -1.18497 0
M  V30 45776 H 4438.43 -1.54336 -2.71269 0
M  V30 45777 N 4438.73 1.18243 -1.04194 0
M  V30 45778 C 4439.98 1.87585 -0.74126 0
M  V30 45779 C 4440.3 1.81306 0.734002 0
M  V30 45780 O 4441.5 2.46023 1.14825 0
M  V30 45781 C 4439.96 3.36533 -1.27567 0
M  V30 45782 C 4439.57 3.51339 -2.77965 0
M  V30 45783 C 4441.31 4.11269 -1.05157 0
M  V30 45784 C 4439.22 4.94254 -3.24757 0
M  V30 45785 H 4438.15 0.702613 -0.27359 0
M  V30 45786 H 4440.8 1.33597 -1.25794 0
M  V30 45787 H 4439.18 3.89998 -0.686841 0
M  V30 45788 H 4440.35 3.08141 -3.42616 0
M  V30 45789 H 4438.67 2.90011 -2.98802 0
M  V30 45790 H 4441.27 5.16684 -1.3763 0
M  V30 45791 H 4441.61 4.16299 0.0111311 0
M  V30 45792 H 4442.14 3.63981 -1.60508 0
M  V30 45793 H 4438.88 4.94393 -4.30413 0
M  V30 45794 H 4438.4 5.38162 -2.64842 0
M  V30 45795 H 4440.08 5.62975 -3.18854 0
M  V30 45796 N 4440.21 0.821581 1.34491 0
M  V30 45797 C 4441.44 0.421343 2.02258 0
M  V30 45798 C 4441.85 -0.97699 1.62023 0
M  V30 45799 O 4441.19 -1.64345 0.820761 0
M  V30 45800 C 4441.26 0.442436 3.56767 0
M  V30 45801 C 4440.92 1.79387 4.20321 0
M  V30 45802 C 4441.92 2.75451 4.40934 0
M  V30 45803 C 4439.6 2.08198 4.5712 0
M  V30 45804 C 4441.6 3.985 4.9747 0
M  V30 45805 C 4439.28 3.31508 5.13367 0
M  V30 45806 C 4440.28 4.26476 5.33486 0
M  V30 45807 O 4439.97 5.47606 5.88543 0
M  V30 45808 H 4439.7 0.167496 0.654921 0
M  V30 45809 H 4442.25 1.11079 1.72773 0
M  V30 45810 H 4440.48 -0.303701 3.85506 0
M  V30 45811 H 4442.17 0.0624352 4.05852 0
M  V30 45812 H 4442.94 2.54488 4.12869 0
M  V30 45813 H 4438.82 1.35082 4.40765 0
M  V30 45814 H 4442.36 4.72636 5.13089 0
M  V30 45815 H 4438.26 3.52335 5.40861 0
M  V30 45816 H 4439.03 5.49108 6.06978 0
M  V30 45817 N 4441.69 -1.4668 0.576422 0
M  V30 45818 C 4442.62 -2.33028 -0.148315 0
M  V30 45819 C 4443.6 -1.44965 -0.889905 0
M  V30 45820 O 4444.79 -1.73792 -0.866601 0
M  V30 45821 C 4441.92 -3.27121 -1.16658 0
M  V30 45822 C 4440.87 -4.24577 -0.540237 0
M  V30 45823 C 4440.2 -5.08132 -1.66452 0
M  V30 45824 C 4441.5 -5.1972 0.518514 0
M  V30 45825 H 4443.19 -2.93873 0.572612 0
M  V30 45826 H 4440.74 -1.41314 0.276818 0
M  V30 45827 H 4442.69 -3.8638 -1.68191 0
M  V30 45828 H 4441.41 -2.6437 -1.9177 0
M  V30 45829 H 4440.07 -3.66571 -0.046048 0
M  V30 45830 H 4439.72 -4.41771 -2.40516 0
M  V30 45831 H 4439.42 -5.74126 -1.25111 0
M  V30 45832 H 4440.94 -5.70254 -2.18273 0
M  V30 45833 H 4442.36 -5.73232 0.0885074 0
M  V30 45834 H 4440.76 -5.94023 0.851888 0
M  V30 45835 H 4441.83 -4.64032 1.40719 0
M  V30 45836 N 4443.17 -0.313868 -1.54443 0
M  V30 45837 C 4444.1 0.549375 -2.26945 0
M  V30 45838 C 4445.08 1.12736 -1.27376 0
M  V30 45839 O 4446.26 1.1543 -1.56171 0
M  V30 45840 C 4443.39 1.71512 -3.01995 0
M  V30 45841 C 4442.35 1.26689 -4.0882 0
M  V30 45842 C 4441.67 2.51882 -4.71656 0
M  V30 45843 C 4442.97 0.388779 -5.20851 0
M  V30 45844 H 4444.67 -0.0553714 -2.99349 0
M  V30 45845 H 4442.21 -0.0280713 -1.43973 0
M  V30 45846 H 4444.17 2.32523 -3.51441 0
M  V30 45847 H 4442.89 2.34631 -2.27192 0
M  V30 45848 H 4441.55 0.67977 -3.60243 0
M  V30 45849 H 4441.2 3.13343 -3.93479 0
M  V30 45850 H 4440.9 2.22586 -5.4381 0
M  V30 45851 H 4442.42 3.13672 -5.23872 0
M  V30 45852 H 4443.84 0.904908 -5.66113 0
M  V30 45853 H 4442.23 0.189029 -5.99802 0
M  V30 45854 H 4443.3 -0.582868 -4.81384 0
M  V30 45855 N 4444.65 1.57544 -0.0418402 0
M  V30 45856 C 4446.06 1.80013 0.495195 0
M  V30 45857 C 4446.41 0.953259 1.71486 0
M  V30 45858 O 4445.53 0.167214 2.15753 0
M  V30 45859 C 4446.13 3.26485 0.905151 0
M  V30 45860 C 4444.69 3.49904 1.38722 0
M  V30 45861 C 4443.83 2.7498 0.357959 0
M  V30 45862 H 4446.79 1.56424 -0.267791 0
M  V30 45863 H 4446.81 3.36894 1.7687 0
M  V30 45864 H 4446.32 3.88096 0.0172646 0
M  V30 45865 H 4444.42 2.93562 2.29461 0
M  V30 45866 H 4444.53 4.58619 1.38582 0
M  V30 45867 H 4442.9 2.40837 0.828827 0
M  V30 45868 H 4443.68 3.39313 -0.52168 0
M  V30 45869 N 4446.12 -0.23145 1.55891 0
M  V30 45870 C 4447.07 -1.30642 1.92446 0
M  V30 45871 C 4448.07 -1.49034 0.805306 0
M  V30 45872 O 4449.27 -1.50326 0.99006 0
M  V30 45873 H 4445.65 -0.43779 0.611428 0
M  V30 45874 H 4447.62 -0.970874 2.82164 0
M  V30 45875 C 4446.37 -2.65172 2.24898 0
M  V30 45876 H 4445.69 -2.51824 3.10523 0
M  V30 45877 H 4447.13 -3.39225 2.54367 0
M  V30 45878 C 4445.59 -3.19435 1.07065 0
M  V30 45879 O 4446.12 -4.0037 0.326639 0
M  V30 45880 N 4444.33 -2.77672 0.857127 0
M  V30 45881 H 4443.87 -2.11964 1.46387 0
M  V30 45882 H 4443.83 -3.14321 0.0704327 0
M  V30 45883 N 4447.6 -1.49533 -0.497755 0
M  V30 45884 C 4449.02 -1.36368 -0.829218 0
M  V30 45885 C 4449.22 -0.399253 -1.97505 0
M  V30 45886 O 4448.27 0.167888 -2.51941 0
M  V30 45887 C 4449.59 -2.77158 -1.16637 0
M  V30 45888 C 4451.14 -2.85882 -1.27439 0
M  V30 45889 C 4451.61 -4.27446 -1.64482 0
M  V30 45890 N 4453.1 -4.30271 -1.71525 0
M  V30 45891 C 4453.84 -5.36777 -2.01638 0
M  V30 45892 N 4453.33 -6.53524 -2.29953 0
M  V30 45893 N 4455.13 -5.24196 -2.02916 0
M  V30 45894 H 4447.28 -2.1083 0.257778 0
M  V30 45895 H 4449.54 -0.946532 0.0527424 0
M  V30 45896 H 4449.25 -3.49444 -0.397749 0
M  V30 45897 H 4449.12 -3.12729 -2.10904 0
M  V30 45898 H 4451.51 -2.13831 -2.03373 0
M  V30 45899 H 4451.59 -2.53888 -0.312155 0
M  V30 45900 H 4451.23 -5.00024 -0.890976 0
M  V30 45901 H 4451.16 -4.56906 -2.61811 0
M  V30 45902 H 4453.65 -3.46076 -1.5179 0
M  V30 45903 H 4453.97 -7.30515 -2.52128 0
M  V30 45904 H 4452.31 -6.56745 -2.27402 0
M  V30 45905 H 4455.5 -4.31994 -1.80274 0
M  V30 45906 H 4455.67 -6.07293 -2.2605 0
M  V30 45907 O 4449.12 0.643072 -1.48145 0
M  V30 45908 H 4449.81 1.29683 -1.43882 0
M  V30 END ATOM
M  V30 BEGIN BOND
M  V30 END BOND
M  V30 END CTAB
M  END
$$$$
