drugbank_target|P51168 Amiloride-sensitive sodium channel subunit beta (DB00384; DB00594)
 OpenBabel12092119223D

  0  0  0     0  0            999 V3000
M  V30 BEGIN CTAB
M  V30 COUNTS 10080 10221 0 0 0
M  V30 BEGIN ATOM
M  V30 1 H -0.908 1.98254 -0.117106 0
M  V30 2 N 0 1.576 0 0
M  V30 3 C 0.933 2.03868 1.02534 0
M  V30 4 C 1.911 0.928543 1.3348 0
M  V30 5 O 3.095 1.19667 1.45644 0
M  V30 6 C 0.222 2.43627 2.35294 0
M  V30 7 C -0.732 3.65373 2.2001 0
M  V30 8 S 0.101 5.13292 1.52614 0
M  V30 9 C 1.257 5.56322 2.86805 0
M  V30 10 H 1.49 2.90518 0.631377 0
M  V30 11 H -0.977 1.52953 0.210867 0
M  V30 12 H 0.981 2.67203 3.11629 0
M  V30 13 H -0.358 1.57376 2.7183 0
M  V30 14 H -1.165 3.90944 3.18086 0
M  V30 15 H -1.563 3.418 1.51819 0
M  V30 16 H 0.729 5.58782 3.83104 0
M  V30 17 H 1.672 6.56266 2.65933 0
M  V30 18 H 2.08 4.83886 2.90714 0
M  V30 19 N 1.4781 -0.272755 1.55222 0
M  V30 20 C 2.4281 -1.33946 1.84506 0
M  V30 21 C 3.4121 -1.44682 0.70399 0
M  V30 22 O 4.6041 -1.48358 0.965338 0
M  V30 23 C 1.7331 -2.69968 2.12067 0
M  V30 24 C 0.8191 -2.63341 3.32434 0
M  V30 25 N 1.2101 -2.26335 4.52334 0
M  V30 26 C -0.4919 -2.94402 3.35028 0
M  V30 27 C 0.2091 -2.29705 5.34425 0
M  V30 28 N -0.8149 -2.68188 4.72838 0
M  V30 29 H 2.9871 -1.04343 2.74754 0
M  V30 30 H 0.5011 -0.481389 1.55101 0
M  V30 31 H 2.4981 -3.46916 2.31202 0
M  V30 32 H 1.1581 -3.00459 1.23103 0
M  V30 33 H 2.1691 -1.98309 4.78429 0
M  V30 34 H -1.1539 -3.29603 2.56257 0
M  V30 35 H 0.2361 -2.03653 6.40293 0
M  V30 36 N 2.9562 -1.48159 -0.537278 0
M  V30 37 C 4.2022 -1.56035 -1.29541 0
M  V30 38 C 4.5352 -0.230377 -1.92829 0
M  V30 39 O 3.8102 0.762952 -1.78911 0
M  V30 40 C 4.0932 -2.69323 -2.39034 0
M  V30 41 C 3.9462 -4.12002 -1.80485 0
M  V30 42 C 5.2652 -2.78408 -3.40847 0
M  V30 43 H 2.3842 -0.567992 -0.469632 0
M  V30 44 H 5.0262 -1.80302 -0.599277 0
M  V30 45 H 3.1762 -2.48763 -2.98412 0
M  V30 46 H 4.8482 -4.43981 -1.25215 0
M  V30 47 H 3.0912 -4.19344 -1.11055 0
M  V30 48 H 3.7622 -4.87077 -2.59731 0
M  V30 49 H 6.2382 -2.97012 -2.91416 0
M  V30 50 H 5.1142 -3.59416 -4.14863 0
M  V30 51 H 5.3752 -1.86269 -4.00944 0
M  V30 52 N 4.4343 0.785586 -1.36625 0
M  V30 53 C 5.3813 1.89838 -1.31264 0
M  V30 54 C 6.3513 1.65115 -0.180633 0
M  V30 55 O 7.5363 1.87222 -0.36777 0
M  V30 56 C 4.6763 3.26706 -1.11163 0
M  V30 57 C 3.7893 3.63476 -2.33472 0
M  V30 58 C 2.9243 4.89481 -2.06353 0
M  V30 59 C 1.9633 5.18941 -3.24602 0
M  V30 60 N 1.1003 6.36131 -2.97123 0
M  V30 61 H 5.9403 1.93756 -2.26413 0
M  V30 62 H 3.4773 0.947454 -1.12524 0
M  V30 63 H 5.4353 4.05639 -0.975337 0
M  V30 64 H 4.0653 3.222 -0.196674 0
M  V30 65 H 3.1173 2.79636 -2.57891 0
M  V30 66 H 4.4293 3.81193 -3.21704 0
M  V30 67 H 3.5833 5.76288 -1.89675 0
M  V30 68 H 2.3223 4.73841 -1.15437 0
M  V30 69 H 1.3273 4.30615 -3.41834 0
M  V30 70 H 2.5523 5.36498 -4.16349 0
M  V30 71 H 0.4983 6.21875 -2.08823 0
M  V30 72 H 0.4153 6.54198 -3.78894 0
M  V30 73 H 1.6833 7.2591 -2.84033 0
M  V30 74 N 5.9124 1.20967 1.01018 0
M  V30 75 C 6.8594 0.964281 2.09691 0
M  V30 76 C 7.8294 -0.107853 1.65749 0
M  V30 77 O 9.0144 0.0381987 1.90762 0
M  V30 78 C 6.1544 0.52943 3.41015 0
M  V30 79 C 5.2674 1.67043 3.98398 0
M  V30 80 C 4.4024 1.18525 5.17808 0
M  V30 81 C 3.4414 2.29892 5.67288 0
M  V30 82 N 2.5784 1.82546 6.77954 0
M  V30 83 H 7.4184 1.89463 2.30017 0
M  V30 84 H 4.9554 0.944289 1.1279 0
M  V30 85 H 6.9134 0.258588 4.16398 0
M  V30 86 H 5.5434 -0.363919 3.20742 0
M  V30 87 H 4.5954 2.05603 3.20049 0
M  V30 88 H 5.9074 2.50877 4.31117 0
M  V30 89 H 5.0614 0.870762 6.00419 0
M  V30 90 H 3.8004 0.316887 4.86669 0
M  V30 91 H 2.8054 2.6215 4.83278 0
M  V30 92 H 4.0304 3.17216 6.00459 0
M  V30 93 H 1.9764 0.980454 6.48632 0
M  V30 94 H 1.8934 2.59956 7.09901 0
M  V30 95 H 3.1614 1.54115 7.64113 0
M  V30 96 N 7.3905 -1.2043 1.01659 0
M  V30 97 C 8.6205 -1.93496 0.724081 0
M  V30 98 C 9.0285 -1.74998 -0.71918 0
M  V30 99 O 8.3715 -1.06118 -1.49949 0
M  V30 100 C 8.4335 -3.45886 0.97994 0
M  V30 101 C 8.0975 -3.88145 2.41232 0
M  V30 102 C 9.0945 -3.93907 3.39313 0
M  V30 103 C 6.7795 -4.20134 2.75305 0
M  V30 104 C 8.7735 -4.31069 4.6953 0
M  V30 105 C 6.4605 -4.56971 4.05735 0
M  V30 106 C 7.4585 -4.62411 5.02658 0
M  V30 107 O 7.1465 -4.98403 6.30754 0
M  V30 108 H 6.8785 -0.621824 0.265162 0
M  V30 109 H 9.4325 -1.53867 1.36066 0
M  V30 110 H 7.6625 -3.85639 0.286198 0
M  V30 111 H 9.3515 -4.0018 0.679021 0
M  V30 112 H 10.1175 -3.69357 3.14325 0
M  V30 113 H 5.9965 -4.1509 2.00551 0
M  V30 114 H 9.5405 -4.3523 5.45179 0
M  V30 115 H 5.4375 -4.80977 4.30502 0
M  V30 116 H 6.2055 -5.16395 6.35042 0
M  V30 117 N 8.8686 -0.792821 -1.36206 0
M  V30 118 C 9.7986 -0.207853 -2.32573 0
M  V30 119 C 10.7796 0.659055 -1.56813 0
M  V30 120 O 11.9646 0.592176 -1.84951 0
M  V30 121 C 9.0946 0.655449 -3.41059 0
M  V30 122 C 8.0486 -0.111842 -4.27854 0
M  V30 123 C 7.3746 0.872274 -5.27537 0
M  V30 124 C 8.6746 -1.30299 -5.05786 0
M  V30 125 H 10.3686 -1.01294 -2.81744 0
M  V30 126 H 7.9146 -0.48854 -1.3546 0
M  V30 127 H 9.8676 1.07464 -4.07467 0
M  V30 128 H 8.5916 1.49328 -2.90463 0
M  V30 129 H 7.2506 -0.512053 -3.63006 0
M  V30 130 H 6.8986 1.70523 -4.73214 0
M  V30 131 H 6.5986 0.363291 -5.86476 0
M  V30 132 H 8.1226 1.28996 -5.96818 0
M  V30 133 H 9.5366 -0.959379 -5.65216 0
M  V30 134 H 7.9336 -1.7455 -5.74154 0
M  V30 135 H 9.0036 -2.09663 -4.37229 0
M  V30 136 N 10.3467 1.47872 -0.545128 0
M  V30 137 C 11.2767 2.32661 0.197793 0
M  V30 138 C 12.2577 1.43041 0.920504 0
M  V30 139 O 13.4427 1.71912 0.90333 0
M  V30 140 C 10.5727 3.24569 1.23582 0
M  V30 141 C 9.5267 4.23333 0.630323 0
M  V30 142 C 8.8527 5.0448 1.77211 0
M  V30 143 C 10.1527 5.20704 -0.407974 0
M  V30 144 H 11.8467 2.95024 -0.510045 0
M  V30 145 H 9.3927 1.4187 -0.246731 0
M  V30 146 H 11.3457 3.8272 1.76362 0
M  V30 147 H 10.0697 2.60236 1.97344 0
M  V30 148 H 8.7287 3.6639 0.123922 0
M  V30 149 H 8.3767 4.36561 2.49847 0
M  V30 150 H 8.0767 5.71339 1.37281 0
M  V30 151 H 9.6007 5.65487 2.3034 0
M  V30 152 H 11.0147 5.7329 0.033305 0
M  V30 153 H 9.4117 5.95699 -0.725486 0
M  V30 154 H 10.4817 4.66917 -1.30828 0
M  V30 155 N 11.8248 0.280983 1.55075 0
M  V30 156 C 12.7718 -0.603937 2.22758 0
M  V30 157 C 13.7418 -1.1452 1.20309 0
M  V30 158 O 14.9268 -1.19343 1.48869 0
M  V30 159 C 12.0668 -1.77947 2.95684 0
M  V30 160 C 11.1798 -1.2715 4.12864 0
M  V30 161 C 10.3148 -2.4093 4.7342 0
M  V30 162 C 9.3538 -1.87165 5.82783 0
M  V30 163 N 8.4908 -2.94441 6.37377 0
M  V30 164 H 13.3308 -0.020124 2.97993 0
M  V30 165 H 10.8678 0.00183425 1.471 0
M  V30 166 H 12.8258 -2.47055 3.36184 0
M  V30 167 H 11.4558 -2.33522 2.22861 0
M  V30 168 H 10.5078 -0.473331 3.77444 0
M  V30 169 H 11.8198 -0.837751 4.91715 0
M  V30 170 H 10.9738 -3.18021 5.1667 0
M  V30 171 H 9.7128 -2.87623 3.93859 0
M  V30 172 H 8.7178 -1.08556 5.38976 0
M  V30 173 H 9.9428 -1.41401 6.64216 0
M  V30 174 H 7.8888 -3.40505 5.60707 0
M  V30 175 H 7.8058 -2.55501 7.11516 0
M  V30 176 H 9.0738 -3.71489 6.85285 0
M  V30 177 N 13.3029 -1.57598 0.00835791 0
M  V30 178 C 14.5509 -1.90551 -0.6734 0
M  V30 179 C 14.8719 -0.883301 -1.73847 0
M  V30 180 O 14.1419 0.0781442 -1.95744 0
M  V30 181 H 12.7219 -0.703312 -0.251717 0
M  V30 182 H 15.3839 -1.94833 0.0512592 0
M  V30 183 H 14.4799 -2.9056 -1.13935 0
M  V30 184 N 14.781 0.264519 -1.55364 0
M  V30 185 C 15.711 1.33121 -1.91836 0
M  V30 186 C 16.692 1.51101 -0.781192 0
M  V30 187 O 17.877 1.64003 -1.04003 0
M  V30 188 C 15.007 2.68921 -2.19769 0
M  V30 189 C 13.961 2.65661 -3.35571 0
M  V30 190 C 13.287 4.05093 -3.49004 0
M  V30 191 C 14.587 2.24187 -4.71739 0
M  V30 192 H 16.281 1.02844 -2.81182 0
M  V30 193 H 13.827 0.493286 -1.35287 0
M  V30 194 H 15.78 3.43663 -2.43872 0
M  V30 195 H 14.504 3.00799 -1.27231 0
M  V30 196 H 13.163 1.93377 -3.1145 0
M  V30 197 H 12.811 4.34206 -2.53917 0
M  V30 198 H 12.511 4.03804 -4.26868 0
M  V30 199 H 14.035 4.81561 -3.75408 0
M  V30 200 H 15.449 2.88654 -4.9533 0
M  V30 201 H 13.846 2.34044 -5.52579 0
M  V30 202 H 14.916 1.19327 -4.69988 0
M  V30 203 N 16.2591 1.48442 0.529413 0
M  V30 204 C 17.2091 1.59407 1.63014 0
M  V30 205 C 18.1931 0.451166 1.54445 0
M  V30 206 O 19.3851 0.702635 1.62456 0
M  V30 207 C 16.5141 1.63746 3.01732 0
M  V30 208 C 15.6001 2.83518 3.15402 0
M  V30 209 N 15.9911 4.07929 2.99045 0
M  V30 210 C 14.2891 2.80862 3.46457 0
M  V30 211 C 14.9901 4.8829 3.16146 0
M  V30 212 N 13.9661 4.21117 3.43746 0
M  V30 213 H 17.7681 2.53343 1.48978 0
M  V30 214 H 15.2821 1.44821 0.734885 0
M  V30 215 H 17.2791 1.69695 3.80801 0
M  V30 216 H 15.9391 0.709264 3.16859 0
M  V30 217 H 16.9501 4.38357 2.75796 0
M  V30 218 H 13.6271 1.97301 3.67938 0
M  V30 219 H 15.0171 5.97028 3.08232 0
M  V30 220 N 17.7372 -0.778329 1.37039 0
M  V30 221 C 19.1532 -1.07796 1.17695 0
M  V30 222 C 19.3532 -2.01498 0.00860115 0
M  V30 223 O 18.4092 -2.43901 -0.653352 0
M  V30 224 C 19.7222 -1.68178 2.49272 0
M  V30 225 C 21.2702 -1.80467 2.55735 0
M  V30 226 C 21.7452 -2.44263 3.87427 0
M  V30 227 N 23.2362 -2.51721 3.88833 0
M  V30 228 C 23.9712 -3.01919 4.87476 0
M  V30 229 N 23.4672 -3.5234 5.96513 0
M  V30 230 N 25.2602 -3.00733 4.74885 0
M  V30 231 H 17.4112 -0.156032 2.11826 0
M  V30 232 H 19.6742 -0.131844 0.938787 0
M  V30 233 H 19.3802 -1.06796 3.35093 0
M  V30 234 H 19.2542 -2.67554 2.65885 0
M  V30 235 H 21.6412 -2.40984 1.70325 0
M  V30 236 H 21.7222 -0.798656 2.43013 0
M  V30 237 H 21.3662 -1.84388 4.73248 0
M  V30 238 H 21.2962 -3.45458 3.9745 0
M  V30 239 H 23.7872 -2.1603 3.10063 0
M  V30 240 H 24.1002 -3.89027 6.67741 0
M  V30 241 H 22.4452 -3.50462 6.00168 0
M  V30 242 H 25.6362 -2.60638 3.88826 0
M  V30 243 H 25.8092 -3.39545 5.51918 0
M  V30 244 N 19.2153 -1.21501 -1.00376 0
M  V30 245 C 20.1453 -0.999478 -2.11028 0
M  V30 246 C 21.1263 0.0759671 -1.6993 0
M  V30 247 O 22.3113 -0.0841106 -1.94018 0
M  V30 248 C 19.4413 -0.564709 -3.42678 0
M  V30 249 C 18.3953 -1.58486 -3.97576 0
M  V30 250 C 17.7213 -1.00628 -5.25146 0
M  V30 251 C 19.0213 -2.97204 -4.29496 0
M  V30 252 H 20.7153 -1.92495 -2.29317 0
M  V30 253 H 18.2613 -0.92693 -1.102 0
M  V30 254 H 20.2143 -0.401091 -4.19487 0
M  V30 255 H 18.9383 0.396411 -3.24185 0
M  V30 256 H 17.5973 -1.73606 -3.22888 0
M  V30 257 H 17.2453 -0.0368439 -5.02987 0
M  V30 258 H 16.9453 -1.68771 -5.62841 0
M  V30 259 H 18.4693 -0.854015 -6.04598 0
M  V30 260 H 19.8833 -2.8552 -4.97143 0
M  V30 261 H 18.2803 -3.62372 -4.78338 0
M  V30 262 H 19.3503 -3.47956 -3.3772 0
M  V30 263 N 20.6934 1.19889 -1.02296 0
M  V30 264 C 21.6254 2.22334 -0.556787 0
M  V30 265 C 22.6384 1.58674 0.364199 0
M  V30 266 O 23.8274 1.77768 0.161533 0
M  V30 267 C 20.9274 3.38257 0.208694 0
M  V30 268 C 20.1004 4.31504 -0.71577 0
M  V30 269 C 19.1594 5.262 0.00325597 0
M  V30 270 O 18.1854 5.65798 -0.621357 0
M  V30 271 N 19.3874 5.66303 1.27599 0
M  V30 272 H 22.1524 2.62957 -1.43784 0
M  V30 273 H 19.7134 1.34495 -0.901261 0
M  V30 274 H 21.7054 3.98616 0.699111 0
M  V30 275 H 20.2754 2.96472 0.991102 0
M  V30 276 H 19.4954 3.69016 -1.38638 0
M  V30 277 H 20.7834 4.9072 -1.34428 0
M  V30 278 H 20.1814 5.36155 1.80429 0
M  V30 279 H 18.7384 6.28942 1.71102 0
M  V30 280 N 22.1715 0.800033 1.35784 0
M  V30 281 C 23.1185 0.203848 2.29898 0
M  V30 282 C 24.0885 -0.658375 1.52495 0
M  V30 283 O 25.2735 -0.604832 1.8096 0
M  V30 284 C 22.4135 -0.64688 3.38983 0
M  V30 285 C 21.5265 0.235054 4.3136 0
M  V30 286 C 20.6615 -0.623054 5.27533 0
M  V30 287 C 19.7005 0.259682 6.11549 0
M  V30 288 N 18.8375 -0.558019 6.99879 0
M  V30 289 H 23.6775 1.01186 2.80295 0
M  V30 290 H 21.2145 0.51053 1.37957 0
M  V30 291 H 23.1725 -1.15521 4.00887 0
M  V30 292 H 21.8025 -1.42021 2.89879 0
M  V30 293 H 20.8545 0.861438 3.70518 0
M  V30 294 H 22.1665 0.914768 4.9034 0
M  V30 295 H 21.3205 -1.19678 5.94779 0
M  V30 296 H 20.0595 -1.33636 4.69034 0
M  V30 297 H 19.0645 0.845726 5.43256 0
M  V30 298 H 20.2895 0.970748 6.72126 0
M  V30 299 H 18.2355 -1.25542 6.43875 0
M  V30 300 H 18.1525 0.0637872 7.55973 0
M  V30 301 H 19.4205 -1.11523 7.71481 0
M  V30 302 N 23.6496 -1.47581 0.552962 0
M  V30 303 C 24.8976 -2.02082 0.0272703 0
M  V30 304 C 25.2186 -1.4301 -1.32563 0
M  V30 305 O 24.4886 -0.603745 -1.86365 0
M  V30 306 H 23.0686 -0.746966 0.00709182 0
M  V30 307 H 25.7306 -1.81033 0.722008 0
M  V30 308 H 24.8266 -3.12034 -0.0639951 0
M  V30 309 N 25.1277 -0.289203 -1.54924 0
M  V30 310 C 26.5387 0.205791 -1.85562 0
M  V30 311 C 26.8897 1.54351 -1.2112 0
M  V30 312 O 26.0147 2.10435 -0.504601 0
M  V30 313 C 26.6097 0.380177 -3.3666 0
M  V30 314 C 25.1687 0.819395 -3.67373 0
M  V30 315 C 24.3157 -0.079159 -2.77187 0
M  V30 316 H 27.2667 -0.510577 -1.50262 0
M  V30 317 H 27.2877 1.21659 -3.60526 0
M  V30 318 H 26.7997 -0.593589 -3.83534 0
M  V30 319 H 24.9007 1.80413 -3.26009 0
M  V30 320 H 25.0137 0.646957 -4.74712 0
M  V30 321 H 23.3777 0.439565 -2.50878 0
M  V30 322 H 24.1607 -1.04906 -3.26878 0
M  V30 323 N 26.6058 1.57591 -0.0167156 0
M  V30 324 C 27.8538 1.90906 0.663285 0
M  V30 325 C 28.1748 0.892509 1.73376 0
M  V30 326 O 27.4448 -0.0677623 1.95783 0
M  V30 327 H 26.0248 0.704637 0.247983 0
M  V30 328 H 28.6868 1.94803 -0.0615909 0
M  V30 329 H 27.7828 2.9116 1.12393 0
M  V30 330 N 28.0839 -0.256276 1.55502 0
M  V30 331 C 29.3139 -1.00196 1.80677 0
M  V30 332 C 29.7219 -1.79805 0.588797 0
M  V30 333 O 29.0649 -1.78055 -0.451883 0
M  V30 334 C 29.1269 -1.99515 2.99055 0
M  V30 335 C 28.7909 -1.38688 4.35448 0
M  V30 336 C 29.7879 -0.794079 5.138 0
M  V30 337 C 27.4729 -1.40906 4.82132 0
M  V30 338 C 29.4669 -0.231562 6.36979 0
M  V30 339 C 27.1539 -0.842684 6.05262 0
M  V30 340 C 28.1519 -0.254953 6.82524 0
M  V30 341 O 27.8399 0.3027 8.0333 0
M  V30 342 H 27.5719 -0.300919 0.60533 0
M  V30 343 H 30.1259 -0.287307 2.03381 0
M  V30 344 H 28.3559 -2.74785 2.72084 0
M  V30 345 H 30.0449 -2.60349 3.11405 0
M  V30 346 H 30.8109 -0.769519 4.78856 0
M  V30 347 H 26.6899 -1.85591 4.21992 0
M  V30 348 H 30.2339 0.227816 6.97228 0
M  V30 349 H 26.1309 -0.86454 6.39684 0
M  V30 350 H 26.8989 0.193662 8.18271 0
M  V30 351 N 29.562 -1.4872 -0.521534 0
M  V30 352 C 30.79 -1.60843 -1.30142 0
M  V30 353 C 31.205 -0.271897 -1.86832 0
M  V30 354 O 30.562 0.739969 -1.66825 0
M  V30 355 C 30.613 -2.66155 -2.4463 0
M  V30 356 O 30.334 -3.94623 -1.90275 0
M  V30 357 C 31.835 -2.88795 -3.36322 0
M  V30 358 H 29.055 -0.542075 -0.395468 0
M  V30 359 H 31.599 -1.94609 -0.628285 0
M  V30 360 H 29.754 -2.35224 -3.07812 0
M  V30 361 H 30.168 -4.52468 -2.65279 0
M  V30 362 H 31.642 -3.66264 -4.12983 0
M  V30 363 H 32.119 -1.97934 -3.9207 0
M  V30 364 H 32.725 -3.21063 -2.78924 0
M  V30 365 N 31.0401 0.771051 -1.3745 0
M  V30 366 C 32.2701 1.55789 -1.35696 0
M  V30 367 C 32.6781 1.89107 0.0594523 0
M  V30 368 O 32.0211 1.51984 1.03183 0
M  V30 369 C 32.0831 2.89515 -2.13123 0
M  V30 370 C 31.7471 2.78829 -3.62082 0
M  V30 371 C 32.7441 2.49812 -4.5595 0
M  V30 372 C 30.4291 2.9683 -4.05213 0
M  V30 373 C 32.4231 2.38923 -5.90927 0
M  V30 374 C 30.1101 2.85562 -5.40276 0
M  V30 375 C 31.1081 2.56649 -6.32946 0
M  V30 376 O 30.7961 2.45408 -7.65526 0
M  V30 377 H 30.5281 0.489257 -0.466481 0
M  V30 378 H 33.0821 0.963446 -1.81403 0
M  V30 379 H 31.3121 3.51081 -1.62107 0
M  V30 380 H 33.0011 3.50915 -2.03994 0
M  V30 381 H 33.7671 2.3559 -4.23937 0
M  V30 382 H 29.6461 3.18335 -3.33442 0
M  V30 383 H 33.1901 2.16277 -6.63227 0
M  V30 384 H 29.0871 2.99351 -5.71891 0
M  V30 385 H 29.8551 2.60753 -7.75855 0
M  V30 386 N 32.5182 1.22032 0.997298 0
M  V30 387 C 33.4652 0.986467 2.08656 0
M  V30 388 C 34.4352 -0.0902671 1.65855 0
M  V30 389 O 35.6202 0.0584294 1.90711 0
M  V30 390 C 32.7602 0.565569 3.40434 0
M  V30 391 C 31.8732 1.71259 3.96604 0
M  V30 392 C 31.0082 1.24011 5.16522 0
M  V30 393 C 30.0472 2.35896 5.64818 0
M  V30 394 N 29.1842 1.89726 6.7598 0
M  V30 395 H 34.0242 1.91892 2.27994 0
M  V30 396 H 31.5612 0.956199 1.11782 0
M  V30 397 H 33.5192 0.302738 4.161 0
M  V30 398 H 32.1492 -0.329879 3.2111 0
M  V30 399 H 31.2012 2.08986 3.17851 0
M  V30 400 H 32.5132 2.55436 4.28432 0
M  V30 401 H 31.6672 0.934395 5.99461 0
M  V30 402 H 30.4062 0.368487 4.86306 0
M  V30 403 H 29.4112 2.67261 4.8047 0
M  V30 404 H 30.6362 3.23567 5.97061 0
M  V30 405 H 28.5822 1.0492 6.47555 0
M  V30 406 H 28.4992 2.67471 7.07103 0
M  V30 407 H 29.7672 1.62211 7.62435 0
M  V30 408 N 33.9963 -1.19345 1.0293 0
M  V30 409 C 34.9063 -2.26245 0.620515 0
M  V30 410 C 35.9223 -1.70486 -0.347928 0
M  V30 411 O 37.0983 -2.00347 -0.205704 0
M  V30 412 C 34.1633 -3.46693 -0.0218957 0
M  V30 413 C 33.2243 -4.17632 0.994102 0
M  V30 414 C 32.4573 -5.32329 0.382253 0
M  V30 415 O 32.6803 -5.64552 -0.814676 0
M  V30 416 O 31.6143 -5.91664 1.10531 0
M  V30 417 H 35.4403 -2.63453 1.51083 0
M  V30 418 H 33.0253 -1.26207 0.799513 0
M  V30 419 H 34.9073 -4.19683 -0.380072 0
M  V30 420 H 33.5823 -3.11333 -0.886209 0
M  V30 421 H 32.4893 -3.4676 1.40387 0
M  V30 422 H 33.8223 -4.56964 1.8288 0
M  V30 423 N 35.4744 -0.807222 -1.35358 0
M  V30 424 C 36.4044 -0.232509 -2.3234 0
M  V30 425 C 37.3854 0.642386 -1.57504 0
M  V30 426 O 38.5704 0.572526 -1.85569 0
M  V30 427 C 35.7004 0.619238 -3.41735 0
M  V30 428 C 34.6544 -0.157215 -4.27711 0
M  V30 429 C 33.9804 0.816273 -5.28433 0
M  V30 430 C 35.2804 -1.35656 -5.04376 0
M  V30 431 H 36.9744 -1.04276 -2.80654 0
M  V30 432 H 34.5204 -0.50288 -1.34934 0
M  V30 433 H 36.4734 1.03137 -4.08584 0
M  V30 434 H 35.1974 1.46239 -2.92031 0
M  V30 435 H 33.8564 -0.550525 -3.62443 0
M  V30 436 H 33.5044 1.65494 -4.74996 0
M  V30 437 H 33.2044 0.301067 -5.86828 0
M  V30 438 H 34.7284 1.22659 -5.98153 0
M  V30 439 H 36.1424 -1.01927 -5.64166 0
M  V30 440 H 34.5394 -1.8063 -5.7227 0
M  V30 441 H 35.6094 -2.14288 -4.34981 0
M  V30 442 N 36.9525 1.47285 -0.560781 0
M  V30 443 C 37.8825 2.32857 0.173105 0
M  V30 444 C 38.8635 1.44009 0.905281 0
M  V30 445 O 40.0485 1.7286 0.885046 0
M  V30 446 C 37.1785 3.25861 1.20133 0
M  V30 447 C 36.1325 4.23978 0.585388 0
M  V30 448 C 35.4585 5.06332 1.7185 0
M  V30 449 C 36.7585 5.20242 -0.463178 0
M  V30 450 H 38.4525 2.94466 -0.541307 0
M  V30 451 H 35.9985 1.41601 -0.261764 0
M  V30 452 H 37.9515 3.84569 1.72293 0
M  V30 453 H 36.6755 2.62315 1.94573 0
M  V30 454 H 35.3345 3.66501 0.085054 0
M  V30 455 H 34.9825 4.39186 2.45203 0
M  V30 456 H 34.6825 5.72762 1.31213 0
M  V30 457 H 36.2065 5.67899 2.24329 0
M  V30 458 H 37.6205 5.73293 -0.027502 0
M  V30 459 H 36.0175 5.94896 -0.788627 0
M  V30 460 H 37.0875 4.65504 -1.35773 0
M  V30 461 N 38.4306 0.297415 1.54768 0
M  V30 462 C 39.6766 -0.313376 2.00364 0
M  V30 463 C 40.0096 -1.53815 1.18553 0
M  V30 464 O 39.2846 -1.92739 0.261103 0
M  V30 465 C 39.5676 -0.673525 3.53745 0
M  V30 466 C 39.4206 0.560133 4.46299 0
M  V30 467 C 40.7396 -1.50143 4.13697 0
M  V30 468 H 37.8586 -0.112428 0.728374 0
M  V30 469 H 40.5006 0.4088 1.8555 0
M  V30 470 H 38.6506 -1.28881 3.665 0
M  V30 471 H 40.3226 1.19863 4.45455 0
M  V30 472 H 38.5656 1.19405 4.17043 0
M  V30 473 H 39.2366 0.26405 5.51368 0
M  V30 474 H 41.7126 -0.981588 4.04356 0
M  V30 475 H 40.5886 -1.72221 5.21182 0
M  V30 476 H 40.8496 -2.48952 3.65343 0
M  V30 477 N 39.9087 -1.5758 0.0250728 0
M  V30 478 C 41.1547 -1.92746 -0.649648 0
M  V30 479 C 41.5097 -0.901588 -1.69968 0
M  V30 480 O 40.8027 0.0829251 -1.9142 0
M  V30 481 C 40.9967 -3.32421 -1.31268 0
M  V30 482 C 40.8257 -4.48499 -0.328394 0
M  V30 483 C 39.5957 -5.05251 0.070284 0
M  V30 484 C 41.7937 -5.12618 0.415665 0
M  V30 485 N 39.7757 -6.04851 1.05016 0
M  V30 486 C 41.1467 -6.0728 1.24943 0
M  V30 487 C 43.2017 -4.95612 0.476803 0
M  V30 488 C 41.9047 -6.86766 2.1388 0
M  V30 489 C 43.9307 -5.75703 1.3535 0
M  V30 490 C 43.2927 -6.69978 2.17504 0
M  V30 491 H 39.3917 -0.753231 -0.210159 0
M  V30 492 H 41.9757 -1.94486 0.0912999 0
M  V30 493 H 40.1467 -3.31508 -2.02379 0
M  V30 494 H 41.8787 -3.54946 -1.94411 0
M  V30 495 H 38.6337 -4.72628 -0.303323 0
M  V30 496 H 39.0577 -6.5934 1.53622 0
M  V30 497 H 43.6997 -4.22554 -0.144105 0
M  V30 498 H 41.4177 -7.59132 2.77027 0
M  V30 499 H 45.0037 -5.64579 1.40504 0
M  V30 500 H 43.8837 -7.30873 2.84244 0
M  V30 501 N 41.3868 0.248026 -1.55636 0
M  V30 502 C 42.6168 0.992367 -1.81206 0
M  V30 503 C 43.0248 1.7949 -0.598324 0
M  V30 504 O 42.3678 1.78292 0.442434 0
M  V30 505 C 42.4298 1.97926 -3.00109 0
M  V30 506 C 42.0938 1.36377 -4.36177 0
M  V30 507 C 43.0908 0.76682 -5.14214 0
M  V30 508 C 40.7758 1.38347 -4.82872 0
M  V30 509 C 42.7698 0.197778 -6.37093 0
M  V30 510 C 40.4568 0.810574 -6.057 0
M  V30 511 C 41.4548 0.218754 -6.8265 0
M  V30 512 O 41.1428 -0.345298 -8.03158 0
M  V30 513 H 40.8748 0.297704 -0.606917 0
M  V30 514 H 43.4288 0.276517 -2.0353 0
M  V30 515 H 41.6588 2.73339 -2.73538 0
M  V30 516 H 43.3478 2.58694 -3.12781 0
M  V30 517 H 44.1138 0.744114 -4.79258 0
M  V30 518 H 39.9928 1.8335 -4.2297 0
M  V30 519 H 43.5368 -0.264788 -6.97097 0
M  V30 520 H 39.4338 0.830604 -6.40134 0
M  V30 521 H 40.2018 -0.237055 -8.18157 0
M  V30 522 N 42.8649 1.48995 0.513639 0
M  V30 523 C 44.1049 1.59452 1.27885 0
M  V30 524 C 44.4689 0.269479 1.90099 0
M  V30 525 O 45.6699 0.249139 2.67643 0
M  V30 526 C 43.9409 2.71277 2.32688 0
M  V30 527 S 45.4999 3.01604 3.18717 0
M  V30 528 H 42.3179 0.562565 0.434789 0
M  V30 529 H 44.9199 1.86595 0.583301 0
M  V30 530 H 43.6239 3.66089 1.8549 0
M  V30 531 H 43.1549 2.46086 3.06929 0
M  V30 532 H 45.1699 2.42155 4.331 0
M  V30 533 N 44.343 -0.763751 1.37857 0
M  V30 534 C 45.62 -1.51244 1.24035 0
M  V30 535 C 46 -2.10472 -0.162649 0
M  V30 536 O 45.348 -1.96206 -1.17112 0
M  V30 537 C 45.558 -2.58694 2.34261 0
M  V30 538 C 46.906 -3.25878 2.72193 0
M  V30 539 O 47.93 -2.68993 2.33497 0
M  V30 540 O 46.789 -4.2874 3.38887 0
M  V30 541 H 43.883 -0.670243 0.484462 0
M  V30 542 H 46.429 -0.800031 1.49658 0
M  V30 543 H 45.201 -2.13105 3.2818 0
M  V30 544 H 44.824 -3.37527 2.10146 0
M  V30 545 N 45.8211 -1.22559 -0.990812 0
M  V30 546 C 46.7691 -0.994798 -2.10253 0
M  V30 547 C 47.7631 0.0627798 -1.69284 0
M  V30 548 O 48.9691 -0.0898392 -1.79776 0
M  V30 549 H 45.3441 -0.304527 -0.687581 0
M  V30 550 H 47.3151 -1.93812 -2.26891 0
M  V30 551 C 46.0641 -0.591439 -3.42633 0
M  V30 552 H 45.3871 -1.3969 -3.74602 0
M  V30 553 H 46.8271 -0.469385 -4.21394 0
M  V30 554 C 45.2861 0.699232 -3.29564 0
M  V30 555 O 45.8161 1.75112 -3.61523 0
M  V30 556 N 44.0221 0.671182 -2.82743 0
M  V30 557 H 43.5691 -0.185136 -2.56934 0
M  V30 558 H 43.5271 1.53502 -2.7438 0
M  V30 559 N 47.2992 1.18797 -1.03562 0
M  V30 560 C 48.5272 1.92599 -0.755869 0
M  V30 561 C 48.9422 1.75886 0.686271 0
M  V30 562 O 48.2992 1.08517 1.46732 0
M  V30 563 C 48.3502 3.44159 -1.10619 0
M  V30 564 O 48.0712 3.60341 -2.4917 0
M  V30 565 C 49.5722 4.3507 -0.850214 0
M  V30 566 H 46.7922 0.611587 -0.276048 0
M  V30 567 H 49.3362 1.50742 -1.38192 0
M  V30 568 H 47.4912 3.83823 -0.525194 0
M  V30 569 H 47.9052 4.54128 -2.62427 0
M  V30 570 H 49.3792 5.39989 -1.14523 0
M  V30 571 H 49.8562 4.38673 0.215176 0
M  V30 572 H 50.4622 4.01097 -1.41426 0
M  V30 573 N 48.7773 0.814389 1.34928 0
M  V30 574 C 49.7253 0.218424 2.31572 0
M  V30 575 C 50.7193 -0.636128 1.57002 0
M  V30 576 O 51.9253 -0.52842 1.72069 0
M  V30 577 H 48.3003 0.0518799 0.750208 0
M  V30 578 H 50.2713 1.04852 2.79372 0
M  V30 579 C 49.0203 -0.61207 3.4227 0
M  V30 580 H 48.3433 0.0361578 3.99784 0
M  V30 581 H 49.7833 -0.995317 4.12152 0
M  V30 582 C 48.2423 -1.78087 2.85984 0
M  V30 583 O 48.7723 -2.8787 2.80168 0
M  V30 584 N 46.9783 -1.59488 2.42924 0
M  V30 585 H 46.5253 -0.701874 2.47854 0
M  V30 586 H 46.4833 -2.37846 2.05613 0
M  V30 587 N 50.2554 -1.46986 0.568584 0
M  V30 588 C 51.4834 -2.0683 0.0539956 0
M  V30 589 C 51.8984 -1.41953 -1.24478 0
M  V30 590 O 51.2554 -0.519933 -1.74937 0
M  V30 591 C 51.3064 -3.61254 -0.133362 0
M  V30 592 O 51.0274 -4.237 1.11399 0
M  V30 593 C 52.5284 -4.37992 -0.683927 0
M  V30 594 H 49.7484 -0.669058 0.0510141 0
M  V30 595 H 52.2924 -1.88824 0.785234 0
M  V30 596 H 50.4474 -3.78735 -0.81477 0
M  V30 597 H 50.8614 -5.16388 0.91888 0
M  V30 598 H 52.3354 -5.46684 -0.764263 0
M  V30 599 H 52.8124 -4.05058 -1.69778 0
M  V30 600 H 53.4184 -4.25283 -0.0378494 0
M  V30 601 N 51.7335 -0.305618 -1.54608 0
M  V30 602 C 52.6835 0.583595 -2.20405 0
M  V30 603 C 53.6675 1.09539 -1.17856 0
M  V30 604 O 54.8595 1.0354 -1.43557 0
M  V30 605 C 51.9885 1.75277 -2.95183 0
M  V30 606 C 51.0745 1.25672 -4.05052 0
M  V30 607 N 51.4655 0.478998 -5.03527 0
M  V30 608 C 49.7635 1.53704 -4.18678 0
M  V30 609 C 50.4645 0.214269 -5.81305 0
M  V30 610 N 49.4405 0.795374 -5.3775 0
M  V30 611 H 53.2425 -0.0180946 -2.93894 0
M  V30 612 H 50.7565 -0.110601 -1.62023 0
M  V30 613 H 52.7535 2.4014 -3.40791 0
M  V30 614 H 51.4135 2.35812 -2.23211 0
M  V30 615 H 52.4245 0.123473 -5.17753 0
M  V30 616 H 49.1015 2.14954 -3.57912 0
M  V30 617 H 50.4915 -0.410656 -6.70644 0
M  V30 618 N 53.2116 1.57565 -0.0334293 0
M  V30 619 C 54.4596 1.91598 0.642999 0
M  V30 620 C 54.7806 0.910847 1.7242 0
M  V30 621 O 54.0506 -0.0469931 1.95844 0
M  V30 622 H 52.6306 0.707228 0.240496 0
M  V30 623 H 55.2926 1.94726 -0.0822488 0
M  V30 624 H 54.3886 2.92336 1.09298 0
M  V30 625 N 54.6897 -0.239769 1.55765 0
M  V30 626 C 56.1007 -0.808263 1.68297 0
M  V30 627 C 56.4517 -1.85736 0.632181 0
M  V30 628 O 55.5767 -2.15277 -0.220204 0
M  V30 629 C 56.1717 -1.47284 3.05111 0
M  V30 630 C 54.7307 -1.98895 3.19559 0
M  V30 631 C 53.8777 -0.842575 2.64189 0
M  V30 632 H 56.8287 -0.0154422 1.58692 0
M  V30 633 H 56.8497 -2.34111 2.99954 0
M  V30 634 H 56.3617 -0.709053 3.81568 0
M  V30 635 H 54.4627 -2.78132 2.47938 0
M  V30 636 H 54.5757 -2.18143 4.26556 0
M  V30 637 H 52.9397 -1.24501 2.22197 0
M  V30 638 H 53.7227 -0.0917552 3.43177 0
M  V30 639 N 56.1678 -1.49265 -0.50573 0
M  V30 640 C 57.1148 -1.65585 -1.6078 0
M  V30 641 C 58.0848 -0.497396 -1.58478 0
M  V30 642 O 59.2698 -0.72385 -1.76536 0
M  V30 643 C 56.4098 -1.72408 -2.98948 0
M  V30 644 C 55.5228 -2.99525 -3.11301 0
M  V30 645 C 54.6578 -2.97356 -4.40174 0
M  V30 646 C 53.6968 -4.19074 -4.46143 0
M  V30 647 N 52.8338 -4.14841 -5.66437 0
M  V30 648 H 57.6738 -2.59688 -1.46172 0
M  V30 649 H 55.2108 -1.28761 -0.711261 0
M  V30 650 H 57.1688 -1.74344 -3.79025 0
M  V30 651 H 55.7988 -0.817753 -3.1227 0
M  V30 652 H 54.8508 -3.07222 -2.24318 0
M  V30 653 H 56.1628 -3.89518 -3.11572 0
M  V30 654 H 55.3168 -2.97829 -5.28567 0
M  V30 655 H 54.0558 -2.05133 -4.42461 0
M  V30 656 H 53.0608 -4.1885 -3.56153 0
M  V30 657 H 54.2858 -5.12483 -4.45575 0
M  V30 658 H 52.2318 -3.25453 -5.69575 0
M  V30 659 H 52.1488 -4.98564 -5.68304 0
M  V30 660 H 53.4168 -4.1941 -6.57051 0
M  V30 661 N 57.6459 0.756429 -1.3826 0
M  V30 662 C 59.0619 1.0591 -1.19395 0
M  V30 663 C 59.2619 2.01459 -0.0406567 0
M  V30 664 O 58.3179 2.44909 0.614467 0
M  V30 665 C 59.6309 1.64191 -2.51916 0
M  V30 666 C 61.1789 1.76376 -2.58574 0
M  V30 667 C 61.6539 2.38069 -3.91264 0
M  V30 668 N 63.1449 2.45503 -3.92788 0
M  V30 669 C 63.8799 2.94126 -4.92217 0
M  V30 670 N 63.3759 3.42805 -6.02043 0
M  V30 671 N 65.1689 2.9314 -4.7961 0
M  V30 672 H 57.3199 0.122313 -2.12048 0
M  V30 673 H 59.5829 0.116892 -0.940766 0
M  V30 674 H 59.2889 1.01451 -3.3675 0
M  V30 675 H 59.1629 2.6329 -2.70108 0
M  V30 676 H 61.5499 2.38244 -1.74137 0
M  V30 677 H 61.6309 0.759894 -2.44252 0
M  V30 678 H 61.2749 1.76835 -4.76121 0
M  V30 679 H 61.2049 3.39091 -4.02895 0
M  V30 680 H 63.6959 2.1107 -3.13461 0
M  V30 681 H 64.0089 3.78354 -6.73846 0
M  V30 682 H 62.3539 3.4087 -6.05667 0
M  V30 683 H 65.5449 2.54419 -3.92923 0
M  V30 684 H 65.7179 3.30721 -5.5725 0
M  V30 685 N 59.124 1.23083 0.984299 0
M  V30 686 C 60.373 1.05466 1.71929 0
M  V30 687 C 60.686 -0.409211 1.91272 0
M  V30 688 O 61.892 -0.705226 2.62181 0
M  V30 689 C 60.348 1.83874 3.09384 0
M  V30 690 C 59.956 3.34566 2.97943 0
M  V30 691 C 61.7 1.74734 3.8687 0
M  V30 692 C 59.607 4.05381 4.30605 0
M  V30 693 H 58.537 0.391039 0.644674 0
M  V30 694 H 61.188 1.47013 1.09815 0
M  V30 695 H 59.57 1.35131 3.72231 0
M  V30 696 H 60.744 3.90767 2.44209 0
M  V30 697 H 59.059 3.44476 2.33934 0
M  V30 698 H 61.656 2.24957 4.85076 0
M  V30 699 H 61.999 0.709372 4.10212 0
M  V30 700 H 62.532 2.21067 3.30717 0
M  V30 701 H 59.271 5.09467 4.1246 0
M  V30 702 H 58.791 3.53967 4.84218 0
M  V30 703 H 60.47 4.11458 4.99311 0
M  V30 704 N 60.6021 -1.18246 1.0419 0
M  V30 705 C 61.8511 -1.87588 0.741194 0
M  V30 706 C 62.1641 -1.81303 -0.734066 0
M  V30 707 O 63.3701 -2.46019 -1.14834 0
M  V30 708 C 61.8261 -3.36538 1.27555 0
M  V30 709 C 61.4341 -3.51349 2.77953 0
M  V30 710 C 63.1781 -4.11273 1.05143 0
M  V30 711 C 61.0851 -4.94265 3.2474 0
M  V30 712 H 60.0151 -0.702622 0.273565 0
M  V30 713 H 62.6661 -1.33601 1.25789 0
M  V30 714 H 61.0481 -3.9 0.686703 0
M  V30 715 H 62.2221 -3.08153 3.42605 0
M  V30 716 H 60.5371 -2.90022 2.98791 0
M  V30 717 H 63.1341 -5.16689 1.37611 0
M  V30 718 H 63.4771 -4.16298 -0.0112774 0
M  V30 719 H 64.0101 -3.63987 1.60495 0
M  V30 720 H 60.7491 -4.94408 4.30396 0
M  V30 721 H 60.2691 -5.38172 2.64823 0
M  V30 722 H 61.9481 -5.62987 3.18834 0
M  V30 723 N 62.0802 -0.821533 -1.34494 0
M  V30 724 C 63.3202 -0.414785 -2.00147 0
M  V30 725 C 63.6842 1.00299 -1.6372 0
M  V30 726 O 64.8852 1.51255 -2.22206 0
M  V30 727 C 63.1562 -0.609403 -3.52166 0
M  V30 728 S 64.7152 -0.295297 -4.37805 0
M  V30 729 H 61.5332 -0.15679 -0.693497 0
M  V30 730 H 64.1352 -1.06705 -1.63812 0
M  V30 731 H 62.8392 -1.64096 -3.76166 0
M  V30 732 H 62.3702 0.0576414 -3.93358 0
M  V30 733 H 64.3852 0.891531 -4.88125 0
M  V30 734 N 63.5583 1.46682 -0.576371 0
M  V30 735 C 64.4683 2.34032 0.163141 0
M  V30 736 C 65.4843 1.49367 0.892501 0
M  V30 737 O 66.6603 1.82252 0.857106 0
M  V30 738 C 63.7253 3.26435 1.16795 0
M  V30 739 C 62.7863 4.26998 0.443944 0
M  V30 740 C 62.0193 5.14986 1.40088 0
M  V30 741 O 62.2423 5.05785 2.637 0
M  V30 742 O 61.1763 5.94906 0.914917 0
M  V30 743 H 65.0023 2.98607 -0.55388 0
M  V30 744 H 62.5873 1.45554 -0.336821 0
M  V30 745 H 64.4693 3.83459 1.74748 0
M  V30 746 H 63.1443 2.64465 1.86655 0
M  V30 747 H 62.0513 3.7368 -0.177271 0
M  V30 748 H 63.3843 4.91736 -0.213566 0
M  V30 749 N 65.0364 0.313813 1.54444 0
M  V30 750 C 66.2844 -0.291099 1.99993 0
M  V30 751 C 66.6054 -1.53418 1.20366 0
M  V30 752 O 65.8754 -1.93544 0.302927 0
M  V30 753 H 64.4554 -0.110552 0.738774 0
M  V30 754 H 67.1174 0.428106 1.9014 0
M  V30 755 H 66.2134 -0.554268 3.07139 0
M  V30 756 N 66.5145 -1.57545 0.0417849 0
M  V30 757 C 67.9255 -1.80011 -0.495259 0
M  V30 758 C 68.2765 -0.953199 -1.71489 0
M  V30 759 O 67.4015 -0.167138 -2.15754 0
M  V30 760 C 67.9965 -3.26482 -0.905265 0
M  V30 761 C 66.5555 -3.499 -1.38734 0
M  V30 762 C 65.7025 -2.74979 -0.358056 0
M  V30 763 H 68.6535 -1.56425 0.267736 0
M  V30 764 H 68.6745 -3.36887 -1.76882 0
M  V30 765 H 68.1865 -3.88096 -0.017401 0
M  V30 766 H 66.2875 -2.93553 -2.29471 0
M  V30 767 H 66.4005 -4.58615 -1.38598 0
M  V30 768 H 64.7645 -2.40834 -0.828912 0
M  V30 769 H 65.5475 -3.39315 0.521561 0
M  V30 770 N 67.9926 0.231505 -1.5589 0
M  V30 771 C 68.9396 1.28682 -1.91598 0
M  V30 772 C 69.9096 1.47071 -0.771974 0
M  V30 773 O 71.0946 1.60802 -1.027 0
M  V30 774 C 68.2346 2.6342 -2.22944 0
M  V30 775 C 67.3476 2.52912 -3.50228 0
M  V30 776 C 66.4826 3.80106 -3.7107 0
M  V30 777 C 65.5216 3.64279 -4.91902 0
M  V30 778 N 64.6586 4.834 -5.09184 0
M  V30 779 H 69.4986 0.975305 -2.81588 0
M  V30 780 H 67.0356 0.470299 -1.39379 0
M  V30 781 H 68.9936 3.41869 -2.39126 0
M  V30 782 H 67.6236 2.92687 -1.36139 0
M  V30 783 H 66.6756 1.6595 -3.42294 0
M  V30 784 H 67.9876 2.37133 -4.38827 0
M  V30 785 H 67.1416 4.66999 -3.87295 0
M  V30 786 H 65.8806 3.98799 -2.80733 0
M  V30 787 H 64.8856 2.7577 -4.75637 0
M  V30 788 H 66.1106 3.47067 -5.83714 0
M  V30 789 H 64.0566 5.02425 -4.21788 0
M  V30 790 H 63.9736 4.70311 -5.91898 0
M  V30 791 H 65.2416 5.71747 -5.29835 0
M  V30 792 N 69.4707 1.49531 0.497807 0
M  V30 793 C 70.4177 1.66436 1.59899 0
M  V30 794 C 71.3877 0.505793 1.58212 0
M  V30 795 O 72.5727 0.733202 1.7615 0
M  V30 796 C 69.7127 1.7399 2.98029 0
M  V30 797 C 68.8257 3.01172 3.09708 0
M  V30 798 C 67.9607 2.99686 4.38591 0
M  V30 799 C 66.9997 4.21434 4.43914 0
M  V30 800 N 66.1367 4.1784 5.64229 0
M  V30 801 H 70.9767 2.60459 1.44793 0
M  V30 802 H 68.5137 1.29137 0.704423 0
M  V30 803 H 70.4717 1.76352 3.78095 0
M  V30 804 H 69.1017 0.834301 3.11832 0
M  V30 805 H 68.1537 3.08408 2.22685 0
M  V30 806 H 69.4657 3.91165 3.09502 0
M  V30 807 H 68.6197 3.00628 5.2698 0
M  V30 808 H 67.3587 2.07477 4.41367 0
M  V30 809 H 66.3637 4.20733 3.53926 0
M  V30 810 H 67.5887 5.14839 4.42851 0
M  V30 811 H 65.5347 3.28469 5.67841 0
M  V30 812 H 65.4517 5.01571 5.65652 0
M  V30 813 H 66.7197 4.22889 6.54817 0
M  V30 814 N 70.9488 -0.749086 1.3866 0
M  V30 815 C 71.8958 -1.86291 1.36251 0
M  V30 816 C 72.8658 -1.64578 0.224347 0
M  V30 817 O 74.0508 -1.86181 0.417279 0
M  V30 818 C 71.1908 -3.23644 1.19786 0
M  V30 819 C 70.3038 -3.57158 2.43027 0
M  V30 820 C 69.4388 -4.83838 2.19258 0
M  V30 821 C 68.4778 -5.10152 3.38247 0
M  V30 822 N 67.6148 -6.28029 3.13884 0
M  V30 823 H 72.4548 -1.87685 2.3147 0
M  V30 824 H 69.9918 -0.917287 1.14997 0
M  V30 825 H 71.9498 -4.0291 1.08254 0
M  V30 826 H 70.5798 -3.21566 0.282031 0
M  V30 827 H 69.6318 -2.72701 2.65214 0
M  V30 828 H 70.9438 -3.7253 3.31697 0
M  V30 829 H 70.0978 -5.71057 2.04888 0
M  V30 830 H 68.8368 -4.70614 1.2796 0
M  V30 831 H 67.8418 -4.21401 3.53131 0
M  V30 832 H 69.0668 -5.25271 4.30427 0
M  V30 833 H 67.0128 -6.1612 2.25238 0
M  V30 834 H 66.9298 -6.43922 3.96106 0
M  V30 835 H 68.1978 -7.18124 3.03179 0
M  V30 836 N 72.4269 -1.23603 -0.977757 0
M  V30 837 C 73.3899 -1.02069 -2.05218 0
M  V30 838 C 74.3899 0.0184305 -1.60789 0
M  V30 839 O 75.5799 -0.221569 -1.72785 0
M  V30 840 C 72.7119 -0.544926 -3.36517 0
M  V30 841 H 73.9049 -1.9742 -2.25755 0
M  V30 842 H 71.4579 -1.05684 -1.15155 0
M  V30 843 H 72.1929 0.412241 -3.21669 0
M  V30 844 H 71.9779 -1.2948 -3.70105 0
M  V30 845 H 73.4679 -0.414985 -4.15533 0
M  V30 846 N 73.905 1.17692 -1.04816 0
M  V30 847 C 74.838 2.20436 -0.590173 0
M  V30 848 C 75.816 1.58115 0.379244 0
M  V30 849 O 77 1.86228 0.291762 0
M  V30 850 C 74.127 3.38424 0.136817 0
M  V30 851 C 73.173 4.19176 -0.787023 0
M  V30 852 S 74.006 4.84815 -2.27409 0
M  V30 853 C 75.162 6.06195 -1.55817 0
M  V30 854 H 75.395 2.58944 -1.46067 0
M  V30 855 H 72.928 1.28246 -0.859784 0
M  V30 856 H 74.886 4.06798 0.550076 0
M  V30 857 H 73.547 2.98312 0.983299 0
M  V30 858 H 72.74 5.03499 -0.224681 0
M  V30 859 H 72.342 3.56219 -1.13947 0
M  V30 860 H 74.634 6.72078 -0.855387 0
M  V30 861 H 75.577 6.6695 -2.37873 0
M  V30 862 H 75.985 5.54701 -1.04722 0
M  V30 863 N 75.3831 0.828654 1.34056 0
M  V30 864 C 76.6291 0.429279 1.98818 0
M  V30 865 C 76.9841 -0.998011 1.64492 0
M  V30 866 O 76.2771 -1.68652 0.909228 0
M  V30 867 C 76.4711 0.575226 3.52741 0
M  V30 868 C 76.3001 2.01515 4.02022 0
M  V30 869 C 75.0701 2.64825 4.30344 0
M  V30 870 C 77.2681 2.98261 4.18981 0
M  V30 871 N 75.2501 3.99998 4.65698 0
M  V30 872 C 76.6211 4.18356 4.57578 0
M  V30 873 C 78.6761 2.94802 4.01243 0
M  V30 874 C 77.3791 5.35454 4.80293 0
M  V30 875 C 79.4051 4.11121 4.25128 0
M  V30 876 C 78.7671 5.29969 4.64018 0
M  V30 877 H 74.8661 0.205304 0.754569 0
M  V30 878 H 77.4501 1.07457 1.62361 0
M  V30 879 H 75.6211 -0.0401962 3.88379 0
M  V30 880 H 77.3531 0.148292 4.04428 0
M  V30 881 H 74.1081 2.16027 4.21461 0
M  V30 882 H 74.5321 4.69653 4.87601 0
M  V30 883 H 79.1741 2.04054 3.70299 0
M  V30 884 H 76.8921 6.26755 5.10102 0
M  V30 885 H 80.4781 4.0985 4.12934 0
M  V30 886 H 79.3581 6.18479 4.82134 0
M  V30 887 N 76.8612 -1.46375 0.584142 0
M  V30 888 C 78.1082 -2.02378 0.0702675 0
M  V30 889 C 78.4362 -1.45545 -1.29023 0
M  V30 890 O 77.6912 -0.610967 -1.85918 0
M  V30 891 C 77.9902 -3.57373 -0.0439342 0
M  V30 892 C 77.6562 -4.33252 1.24915 0
M  V30 893 C 76.3182 -4.53701 1.60341 0
M  V30 894 C 78.6702 -4.7681 2.1048 0
M  V30 895 C 75.9982 -5.1496 2.81128 0
M  V30 896 C 78.3502 -5.39404 3.30494 0
M  V30 897 C 77.0142 -5.5808 3.66201 0
M  V30 898 H 76.2842 -0.740554 0.0257127 0
M  V30 899 H 78.9312 -1.75727 0.761065 0
M  V30 900 H 77.2362 -3.83169 -0.817869 0
M  V30 901 H 78.9332 -3.98384 -0.457318 0
M  V30 902 H 75.5232 -4.17633 0.963364 0
M  V30 903 H 79.7072 -4.60766 1.84414 0
M  V30 904 H 74.9632 -5.27611 3.08928 0
M  V30 905 H 79.1372 -5.72114 3.97063 0
M  V30 906 H 76.7642 -6.05318 4.59885 0
M  V30 907 N 78.3393 -0.321999 -1.54275 0
M  V30 908 C 79.2693 0.537411 -2.27231 0
M  V30 909 C 80.2503 1.12064 -1.27968 0
M  V30 910 O 81.4353 1.14606 -1.56777 0
M  V30 911 C 78.5653 1.69919 -3.02894 0
M  V30 912 C 77.5193 1.24534 -4.09482 0
M  V30 913 C 76.8453 2.49394 -4.72977 0
M  V30 914 C 78.1453 0.361335 -5.21049 0
M  V30 915 H 79.8393 -0.0711406 -2.99315 0
M  V30 916 H 77.3853 -0.0356555 -1.43956 0
M  V30 917 H 79.3383 2.30668 -3.52662 0
M  V30 918 H 78.0623 2.33431 -2.28424 0
M  V30 919 H 76.7213 0.660782 -3.60596 0
M  V30 920 H 76.3693 3.11265 -3.95124 0
M  V30 921 H 76.0693 2.19718 -5.44975 0
M  V30 922 H 77.5933 3.10908 -5.25517 0
M  V30 923 H 79.0073 0.875072 -5.66582 0
M  V30 924 H 77.4043 0.157428 -5.99893 0
M  V30 925 H 78.4743 -0.60822 -4.8107 0
M  V30 926 N 79.8174 1.5752 -0.0501392 0
M  V30 927 C 80.7474 2.14502 0.922566 0
M  V30 928 C 81.7284 1.06642 1.3252 0
M  V30 929 O 82.9134 1.34577 1.4001 0
M  V30 930 C 80.0434 2.68916 2.19776 0
M  V30 931 C 78.9974 3.8175 1.93523 0
M  V30 932 C 78.3234 4.22677 3.27487 0
M  V30 933 C 79.6234 5.06932 1.25765 0
M  V30 934 H 81.3174 2.9603 0.447952 0
M  V30 935 H 78.8634 1.42401 0.214024 0
M  V30 936 H 80.8164 3.07419 2.88222 0
M  V30 937 H 79.5404 1.84578 2.69441 0
M  V30 938 H 78.1994 3.43718 1.27489 0
M  V30 939 H 77.8474 3.35291 3.74952 0
M  V30 940 H 77.5474 4.98725 3.1072 0
M  V30 941 H 79.0714 4.63779 3.97166 0
M  V30 942 H 80.4854 5.42888 1.84244 0
M  V30 943 H 78.8824 5.88116 1.19328 0
M  V30 944 H 79.9524 4.84337 0.233536 0
M  V30 945 N 81.2955 -0.223234 1.56011 0
M  V30 946 C 82.5235 -0.964812 1.83027 0
M  V30 947 C 82.9385 -1.78013 0.62904 0
M  V30 948 O 82.2955 -1.78008 -0.402414 0
M  V30 949 C 82.3465 -1.88373 3.08542 0
M  V30 950 O 82.0675 -1.10137 4.2403 0
M  V30 951 C 83.5685 -2.73934 3.48533 0
M  V30 952 H 80.7885 -0.282842 0.608475 0
M  V30 953 H 83.3325 -0.238971 2.03099 0
M  V30 954 H 81.4875 -2.56354 2.9045 0
M  V30 955 H 81.9015 -1.72501 4.95322 0
M  V30 956 H 83.3755 -3.34117 4.39397 0
M  V30 957 H 83.8525 -3.46244 2.70207 0
M  V30 958 H 84.4585 -2.11369 3.69057 0
M  V30 959 N 82.7736 -1.49793 -0.48987 0
M  V30 960 C 83.7036 -1.70201 -1.59856 0
M  V30 961 C 84.6846 -0.55076 -1.60937 0
M  V30 962 O 85.8696 -0.787841 -1.77501 0
M  V30 963 C 82.9996 -1.77882 -2.98287 0
M  V30 964 C 81.9536 -2.92907 -3.12073 0
M  V30 965 C 81.2796 -2.85712 -4.51965 0
M  V30 966 C 82.5796 -4.3369 -2.91051 0
M  V30 967 H 84.2736 -2.63025 -1.43032 0
M  V30 968 H 81.8196 -1.26574 -0.686664 0
M  V30 969 H 83.7726 -1.90744 -3.75759 0
M  V30 970 H 82.4966 -0.816653 -3.16225 0
M  V30 971 H 81.1556 -2.79665 -2.37029 0
M  V30 972 H 80.8036 -1.8738 -4.66795 0
M  V30 973 H 80.5036 -3.62921 -4.62128 0
M  V30 974 H 82.0276 -3.00598 -5.31482 0
M  V30 975 H 83.4416 -4.47555 -3.58284 0
M  V30 976 H 81.8386 -5.12205 -3.12675 0
M  V30 977 H 82.9086 -4.47362 -1.87071 0
M  V30 978 N 84.2517 0.741722 -1.39055 0
M  V30 979 C 85.1817 1.869 -1.39966 0
M  V30 980 C 86.1627 1.6804 -0.26392 0
M  V30 981 O 87.3477 1.88458 -0.468755 0
M  V30 982 C 84.4777 3.24572 -1.23574 0
M  V30 983 C 83.4317 3.58056 -2.34477 0
M  V30 984 C 82.7577 4.94593 -2.0318 0
M  V30 985 C 84.0577 3.61716 -3.76774 0
M  V30 986 H 85.7517 1.86395 -2.34302 0
M  V30 987 H 83.2977 0.895361 -1.1278 0
M  V30 988 H 85.2507 4.031 -1.22834 0
M  V30 989 H 83.9747 3.25587 -0.257045 0
M  V30 990 H 82.6337 2.81854 -2.34423 0
M  V30 991 H 82.2817 4.92181 -1.03765 0
M  V30 992 H 81.9817 5.17964 -2.77465 0
M  V30 993 H 83.5057 5.75486 -2.04079 0
M  V30 994 H 84.9197 4.30335 -3.78794 0
M  V30 995 H 83.3167 3.96603 -4.50362 0
M  V30 996 H 84.3867 2.61672 -4.08235 0
M  V30 997 N 85.7298 1.2412 0.971189 0
M  V30 998 C 86.9768 1.07881 1.71371 0
M  V30 999 C 87.3048 -0.382901 1.90694 0
M  V30 1000 O 86.5598 -1.29945 1.46331 0
M  V30 1001 C 86.8588 1.75983 3.11071 0
M  V30 1002 C 86.5248 3.25909 3.11599 0
M  V30 1003 C 85.1868 3.66813 3.11451 0
M  V30 1004 C 87.5388 4.21771 3.062 0
M  V30 1005 C 84.8668 5.02021 3.03631 0
M  V30 1006 C 87.2188 5.56982 2.99923 0
M  V30 1007 C 85.8828 5.97237 2.98102 0
M  V30 1008 H 85.1528 0.394764 0.62709 0
M  V30 1009 H 87.7998 1.54176 1.13587 0
M  V30 1010 H 86.1048 1.22072 3.72298 0
M  V30 1011 H 87.8018 1.60887 3.6731 0
M  V30 1012 H 84.3918 2.93353 3.12477 0
M  V30 1013 H 88.5758 3.91172 3.05447 0
M  V30 1014 H 83.8318 5.32411 3.0058 0
M  V30 1015 H 88.0058 6.30969 2.94704 0
M  V30 1016 H 85.6328 7.01967 2.91798 0
M  V30 1017 N 87.2079 -1.17134 1.05439 0
M  V30 1018 C 88.1709 -2.19439 0.661764 0
M  V30 1019 C 89.1709 -1.58199 -0.288042 0
M  V30 1020 O 90.3609 -1.74053 -0.0715803 0
M  V30 1021 C 87.4929 -3.40889 -0.0276209 0
M  V30 1022 H 88.6859 -2.55688 1.56728 0
M  V30 1023 H 86.2389 -1.31259 0.848567 0
M  V30 1024 H 86.9739 -3.10187 -0.94629 0
M  V30 1025 H 86.7589 -3.86586 0.655238 0
M  V30 1026 H 88.2489 -4.16603 -0.288342 0
M  V30 1027 N 88.686 -0.835752 -1.33615 0
M  V30 1028 C 89.649 -0.272 -2.2758 0
M  V30 1029 C 90.649 0.557487 -1.50827 0
M  V30 1030 O 91.839 0.37173 -1.70188 0
M  V30 1031 C 88.971 0.617173 -3.35267 0
M  V30 1032 H 90.164 -1.10111 -2.78954 0
M  V30 1033 H 87.717 -0.608594 -1.43965 0
M  V30 1034 H 88.452 1.46884 -2.89129 0
M  V30 1035 H 88.237 0.0237066 -3.92093 0
M  V30 1036 H 89.727 1.005 -4.05326 0
M  V30 1037 N 90.1641 1.46063 -0.591896 0
M  V30 1038 C 91.0941 2.33172 0.123673 0
M  V30 1039 C 92.0751 1.45897 0.87453 0
M  V30 1040 O 93.2601 1.74698 0.848181 0
M  V30 1041 C 90.3901 3.28336 1.13194 0
M  V30 1042 C 89.3441 4.25124 0.495324 0
M  V30 1043 C 88.6701 5.09863 1.61071 0
M  V30 1044 C 89.9701 5.19143 -0.573425 0
M  V30 1045 H 91.6641 2.93252 -0.603646 0
M  V30 1046 H 89.2101 1.41014 -0.291741 0
M  V30 1047 H 91.1631 3.88137 1.64097 0
M  V30 1048 H 89.8871 2.66383 1.88965 0
M  V30 1049 H 88.5461 3.66599 0.00729452 0
M  V30 1050 H 88.1941 4.44288 2.35832 0
M  V30 1051 H 87.8941 5.75417 1.19035 0
M  V30 1052 H 89.4181 5.72529 2.12233 0
M  V30 1053 H 90.8321 5.73106 -0.1491 0
M  V30 1054 H 89.2291 5.93089 -0.914636 0
M  V30 1055 H 90.2991 4.62519 -1.45617 0
M  V30 1056 N 91.6422 0.330177 1.54103 0
M  V30 1057 C 92.8882 -0.270806 2.00984 0
M  V30 1058 C 93.2212 -1.51265 1.21789 0
M  V30 1059 O 92.4962 -1.92142 0.301927 0
M  V30 1060 C 92.7792 -0.598339 3.55094 0
M  V30 1061 C 92.6322 0.654674 4.4501 0
M  V30 1062 C 93.9512 -1.41334 4.16789 0
M  V30 1063 H 91.0702 -0.0969531 0.730595 0
M  V30 1064 H 93.7122 0.448066 1.84641 0
M  V30 1065 H 91.8622 -1.21078 3.69151 0
M  V30 1066 H 93.5342 1.29285 4.42813 0
M  V30 1067 H 91.7772 1.28224 4.14416 0
M  V30 1068 H 92.4482 0.380944 5.50684 0
M  V30 1069 H 94.9242 -0.895597 4.06347 0
M  V30 1070 H 93.8002 -1.61127 5.24718 0
M  V30 1071 H 94.0612 -2.41146 3.70541 0
M  V30 1072 N 93.1203 -1.57491 0.0584922 0
M  V30 1073 C 94.3603 -1.94851 -0.617458 0
M  V30 1074 C 94.7243 -0.937165 -1.67575 0
M  V30 1075 O 95.9253 -1.19795 -2.40629 0
M  V30 1076 C 94.1963 -3.36955 -1.19147 0
M  V30 1077 S 95.7553 -3.96277 -1.8844 0
M  V30 1078 H 92.5733 -0.681539 -0.202547 0
M  V30 1079 H 95.1753 -1.95073 0.129176 0
M  V30 1080 H 93.8793 -4.08355 -0.409215 0
M  V30 1081 H 93.4103 -3.40245 -1.97476 0
M  V30 1082 H 95.4253 -3.82099 -3.16568 0
M  V30 1083 N 94.5984 0.214957 -1.56127 0
M  V30 1084 C 95.8444 0.935325 -1.80619 0
M  V30 1085 C 96.1994 1.81706 -0.632507 0
M  V30 1086 O 95.4924 1.87931 0.373182 0
M  V30 1087 C 95.6864 1.80314 -3.0858 0
M  V30 1088 C 95.5154 1.00691 -4.38282 0
M  V30 1089 C 94.2854 0.699211 -5.00439 0
M  V30 1090 C 96.4834 0.369057 -5.12974 0
M  V30 1091 N 94.4654 -0.117734 -6.13787 0
M  V30 1092 C 95.8364 -0.310981 -6.1922 0
M  V30 1093 C 97.8914 0.282759 -4.97096 0
M  V30 1094 C 96.5944 -1.06907 -7.11311 0
M  V30 1095 C 98.6204 -0.461881 -5.89594 0
M  V30 1096 C 97.9824 -1.13044 -6.9527 0
M  V30 1097 H 94.0814 0.322307 -0.71249 0
M  V30 1098 H 96.6654 0.205649 -1.93611 0
M  V30 1099 H 94.8364 2.50458 -2.96859 0
M  V30 1100 H 96.5684 2.46148 -3.21237 0
M  V30 1101 H 93.3234 1.01884 -4.62511 0
M  V30 1102 H 93.7474 -0.515235 -6.75037 0
M  V30 1103 H 98.3894 0.785292 -4.15443 0
M  V30 1104 H 96.1074 -1.5831 -7.92442 0
M  V30 1105 H 99.6934 -0.529746 -5.79383 0
M  V30 1106 H 98.5734 -1.69742 -7.65609 0
M  V30 1107 N 96.0765 1.50051 0.48192 0
M  V30 1108 C 97.0085 1.64263 1.59844 0
M  V30 1109 C 98.0215 0.52451 1.54119 0
M  V30 1110 O 99.2105 0.797293 1.59704 0
M  V30 1111 C 96.3105 1.60102 2.98698 0
M  V30 1112 C 95.4835 2.87767 3.29407 0
M  V30 1113 C 94.5425 2.76397 4.47762 0
M  V30 1114 O 93.5685 3.50348 4.48603 0
M  V30 1115 N 94.7705 1.89222 5.48794 0
M  V30 1116 H 97.5355 2.60566 1.48073 0
M  V30 1117 H 95.0965 1.47379 0.670149 0
M  V30 1118 H 97.0885 1.50123 3.75826 0
M  V30 1119 H 95.6585 0.715798 3.04294 0
M  V30 1120 H 94.8785 3.11954 2.40994 0
M  V30 1121 H 96.1665 3.72365 3.4673 0
M  V30 1122 H 95.5645 1.28434 5.50928 0
M  V30 1123 H 94.1215 1.85154 6.24949 0
M  V30 1124 N 97.5546 -0.734337 1.39446 0
M  V30 1125 C 98.8006 -1.49505 1.37913 0
M  V30 1126 C 99.1556 -1.92384 -0.0248416 0
M  V30 1127 O 98.4486 -1.6395 -0.991506 0
M  V30 1128 C 98.6426 -2.74711 2.28623 0
M  V30 1129 C 98.4716 -2.44075 3.777 0
M  V30 1130 C 97.2416 -2.36338 4.46623 0
M  V30 1131 C 99.4396 -2.09574 4.69663 0
M  V30 1132 N 97.4216 -1.9818 5.81032 0
M  V30 1133 C 98.7926 -1.81865 5.92727 0
M  V30 1134 C 100.848 -1.96048 4.57678 0
M  V30 1135 C 99.5506 -1.41992 7.05146 0
M  V30 1136 C 101.577 -1.57579 5.7002 0
M  V30 1137 C 100.939 -1.30754 6.92158 0
M  V30 1138 H 97.0376 -0.545896 0.55993 0
M  V30 1139 H 99.6216 -0.853373 1.75002 0
M  V30 1140 H 97.7926 -3.36657 1.93692 0
M  V30 1141 H 99.5246 -3.40916 2.18078 0
M  V30 1142 H 96.2796 -2.53456 4.00071 0
M  V30 1143 H 96.7036 -1.81691 6.52163 0
M  V30 1144 H 101.346 -2.15455 3.63784 0
M  V30 1145 H 99.0636 -1.21327 7.9894 0
M  V30 1146 H 102.65 -1.47718 5.62735 0
M  V30 1147 H 101.53 -1.01432 7.77612 0
M  V30 1148 N 99.0327 -1.24633 -0.964593 0
M  V30 1149 C 100.281 -1.08573 -1.70459 0
M  V30 1150 C 100.602 0.375655 -1.91347 0
M  V30 1151 O 99.8717 1.26779 -1.49345 0
M  V30 1152 H 98.4517 -0.398784 -0.631649 0
M  V30 1153 H 101.114 -1.56601 -1.16026 0
M  V30 1154 H 100.21 -1.58623 -2.68785 0
M  V30 1155 N 100.511 1.16574 -1.06058 0
M  V30 1156 C 101.76 1.86385 -0.770944 0
M  V30 1157 C 102.073 1.82448 0.705129 0
M  V30 1158 O 103.279 2.47815 1.10905 0
M  V30 1159 C 101.735 3.34466 -1.32893 0
M  V30 1160 C 101.343 3.46883 -2.83507 0
M  V30 1161 C 103.087 4.09548 -1.11672 0
M  V30 1162 C 100.994 4.89036 -3.32562 0
M  V30 1163 H 99.9238 0.698181 -0.284709 0
M  V30 1164 H 102.575 1.31583 -1.27899 0
M  V30 1165 H 100.957 3.88859 -0.748662 0
M  V30 1166 H 102.131 3.02663 -3.47465 0
M  V30 1167 H 100.446 2.85232 -3.03368 0
M  V30 1168 H 103.043 5.14434 -1.45814 0
M  V30 1169 H 103.386 4.16264 -0.0549535 0
M  V30 1170 H 103.919 3.61387 -1.66265 0
M  V30 1171 H 100.658 4.87499 -4.38207 0
M  V30 1172 H 100.178 5.3389 -2.73351 0
M  V30 1173 H 101.857 5.57843 -3.2775 0
M  V30 1174 N 101.989 0.842826 1.3317 0
M  V30 1175 C 103.236 0.440447 1.97652 0
M  V30 1176 C 103.564 -1.00123 1.6675 0
M  V30 1177 O 102.819 -1.7155 0.941761 0
M  V30 1178 C 103.118 0.612607 3.52111 0
M  V30 1179 C 102.784 2.02297 4.02972 0
M  V30 1180 C 101.446 2.40874 4.16573 0
M  V30 1181 C 103.798 2.94402 4.30089 0
M  V30 1182 C 101.126 3.70852 4.54627 0
M  V30 1183 C 103.478 4.23865 4.69597 0
M  V30 1184 C 102.142 4.62392 4.81404 0
M  V30 1185 H 101.412 0.161171 0.72326 0
M  V30 1186 H 104.059 1.07061 1.58777 0
M  V30 1187 H 102.364 -0.100849 3.9167 0
M  V30 1188 H 104.061 0.2815 4.00011 0
M  V30 1189 H 100.651 1.71338 3.92863 0
M  V30 1190 H 104.835 2.65835 4.19101 0
M  V30 1191 H 100.091 4.00501 4.61962 0
M  V30 1192 H 104.265 4.95306 4.89536 0
M  V30 1193 H 101.892 5.63154 5.10648 0
M  V30 1194 N 103.467 -1.45747 0.599634 0
M  V30 1195 C 104.716 -2.01502 0.0893511 0
M  V30 1196 C 105.029 -1.4748 -1.28488 0
M  V30 1197 O 106.235 -1.95161 -1.88745 0
M  V30 1198 C 104.691 -3.59735 0.109082 0
M  V30 1199 C 104.299 -4.22754 1.48267 0
M  V30 1200 C 106.043 -4.23085 -0.346374 0
M  V30 1201 C 103.95 -5.73115 1.45921 0
M  V30 1202 H 102.88 -0.753417 0.0296347 0
M  V30 1203 H 105.531 -1.67303 0.753788 0
M  V30 1204 H 103.913 -3.91087 -0.621854 0
M  V30 1205 H 105.087 -4.02987 2.23468 0
M  V30 1206 H 103.402 -3.71567 1.87955 0
M  V30 1207 H 105.999 -5.33327 -0.38298 0
M  V30 1208 H 106.342 -3.93201 -1.36743 0
M  V30 1209 H 106.875 -3.9642 0.331038 0
M  V30 1210 H 103.614 -6.07685 2.45762 0
M  V30 1211 H 103.134 -5.95097 0.749665 0
M  V30 1212 H 104.813 -6.3616 1.17941 0
M  V30 1213 N 104.945 -0.338344 -1.53925 0
M  V30 1214 C 106.361 0.0137736 -1.59594 0
M  V30 1215 C 106.561 1.49186 -1.35447 0
M  V30 1216 O 105.617 2.24987 -1.14616 0
M  V30 1217 C 106.93 -0.41773 -2.97784 0
M  V30 1218 C 108.478 -0.369633 -3.1081 0
M  V30 1219 C 108.953 -0.776524 -4.51369 0
M  V30 1220 N 110.444 -0.730506 -4.57403 0
M  V30 1221 C 111.179 -1.01736 -5.64303 0
M  V30 1222 N 110.675 -1.3721 -6.79077 0
M  V30 1223 N 112.468 -0.941942 -5.54151 0
M  V30 1224 H 104.619 -1.3012 -1.67876 0
M  V30 1225 H 106.882 -0.530082 -0.78595 0
M  V30 1226 H 106.588 -1.44811 -3.20504 0
M  V30 1227 H 106.462 0.209729 -3.76616 0
M  V30 1228 H 108.849 0.651568 -2.87817 0
M  V30 1229 H 108.93 -1.03223 -2.34049 0
M  V30 1230 H 108.574 -1.79571 -4.75096 0
M  V30 1231 H 108.504 -0.0914649 -5.26521 0
M  V30 1232 H 110.995 -0.468783 -3.74981 0
M  V30 1233 H 111.308 -1.57597 -7.5656 0
M  V30 1234 H 109.653 -1.4105 -6.80536 0
M  V30 1235 H 112.844 -0.664184 -4.63364 0
M  V30 1236 H 113.017 -1.16884 -6.37371 0
M  V30 1237 N 106.423 1.57458 -0.0668435 0
M  V30 1238 C 107.651 1.97624 0.612565 0
M  V30 1239 C 108.066 0.94502 1.63447 0
M  V30 1240 O 107.423 -0.0689276 1.8237 0
M  V30 1241 C 107.474 3.37869 1.28555 0
M  V30 1242 O 107.195 4.3704 0.304557 0
M  V30 1243 C 108.696 3.92882 2.05325 0
M  V30 1244 H 105.916 0.650045 0.166381 0
M  V30 1245 H 108.46 2.04035 -0.137782 0
M  V30 1246 H 106.615 3.3256 1.98702 0
M  V30 1247 H 107.029 5.18565 0.786779 0
M  V30 1248 H 108.503 4.93247 2.47812 0
M  V30 1249 H 108.98 3.29156 2.9078 0
M  V30 1250 H 109.586 4.01577 1.40056 0
M  V30 1251 N 107.901 -0.206675 1.56239 0
M  V30 1252 C 109.131 -0.943975 1.83773 0
M  V30 1253 C 109.539 -1.77841 0.645703 0
M  V30 1254 O 108.882 -1.79403 -0.395008 0
M  V30 1255 C 108.944 -1.899 3.05251 0
M  V30 1256 C 108.608 -1.24764 4.39639 0
M  V30 1257 C 109.605 -0.630216 5.16066 0
M  V30 1258 C 107.29 -1.25496 4.8637 0
M  V30 1259 C 109.284 -0.0287946 6.37393 0
M  V30 1260 C 106.971 -0.649698 6.07637 0
M  V30 1261 C 107.969 -0.0376845 6.8299 0
M  V30 1262 O 107.657 0.55812 8.0196 0
M  V30 1263 H 107.389 -0.281508 0.614597 0
M  V30 1264 H 109.943 -0.222458 2.04192 0
M  V30 1265 H 108.173 -2.6599 2.80689 0
M  V30 1266 H 109.862 -2.5031 3.1953 0
M  V30 1267 H 110.628 -0.616785 4.81062 0
M  V30 1268 H 106.507 -1.72072 4.27683 0
M  V30 1269 H 110.051 0.449518 6.9615 0
M  V30 1270 H 105.948 -0.660592 6.42111 0
M  V30 1271 H 106.716 0.453891 8.17241 0
M  V30 1272 N 109.379 -1.50304 -0.473955 0
M  V30 1273 C 110.309 -1.71886 -1.58042 0
M  V30 1274 C 111.29 -0.567799 -1.60344 0
M  V30 1275 O 112.475 -0.806623 -1.76656 0
M  V30 1276 C 109.605 -1.81036 -2.96384 0
M  V30 1277 C 108.559 -2.962 -3.08949 0
M  V30 1278 C 107.885 -2.9049 -4.48909 0
M  V30 1279 C 109.185 -4.36752 -2.86434 0
M  V30 1280 H 110.879 -2.64527 -1.40234 0
M  V30 1281 H 108.425 -1.27295 -0.673201 0
M  V30 1282 H 110.378 -1.94719 -3.73714 0
M  V30 1283 H 109.102 -0.850147 -3.15341 0
M  V30 1284 H 107.761 -2.82164 -2.3405 0
M  V30 1285 H 107.409 -1.92321 -4.64781 0
M  V30 1286 H 107.109 -3.67802 -4.58253 0
M  V30 1287 H 108.633 -3.06218 -5.28264 0
M  V30 1288 H 110.047 -4.5133 -3.53517 0
M  V30 1289 H 108.444 -5.15493 -3.07225 0
M  V30 1290 H 109.514 -4.49321 -1.82316 0
M  V30 1291 N 110.857 0.726932 -1.39834 0
M  V30 1292 C 112.082 1.52121 -1.40976 0
M  V30 1293 C 112.507 1.88098 -0.00826029 0
M  V30 1294 O 111.865 1.52479 0.980807 0
M  V30 1295 C 111.913 2.78021 -2.29644 0
M  V30 1296 O 111.017 3.74272 -1.73188 0
M  V30 1297 H 110.358 0.45908 -0.479731 0
M  V30 1298 H 112.888 0.896207 -1.83927 0
M  V30 1299 H 112.898 3.26671 -2.44438 0
M  V30 1300 H 111.573 2.51169 -3.31492 0
M  V30 1301 H 110.15 3.33073 -1.6768 0
M  V30 1302 N 112.336 1.25143 0.95797 0
M  V30 1303 C 113.582 1.10863 1.70531 0
M  V30 1304 C 113.937 -0.347391 1.89238 0
M  V30 1305 O 113.23 -1.25262 1.44983 0
M  V30 1306 C 113.424 1.79272 3.09187 0
M  V30 1307 C 113.253 3.31376 3.04006 0
M  V30 1308 C 112.023 4.0062 3.07948 0
M  V30 1309 C 114.221 4.27825 2.8543 0
M  V30 1310 N 112.203 5.39526 2.9289 0
M  V30 1311 C 113.574 5.53794 2.78769 0
M  V30 1312 C 115.629 4.1828 2.70085 0
M  V30 1313 C 114.332 6.7131 2.58331 0
M  V30 1314 C 116.358 5.35485 2.51017 0
M  V30 1315 C 115.72 6.60393 2.45073 0
M  V30 1316 H 111.819 0.460362 0.632132 0
M  V30 1317 H 114.403 1.58196 1.13499 0
M  V30 1318 H 112.574 1.34439 3.64391 0
M  V30 1319 H 114.306 1.57764 3.72683 0
M  V30 1320 H 111.061 3.51855 3.17009 0
M  V30 1321 H 111.485 6.12416 2.88574 0
M  V30 1322 H 116.127 3.22461 2.73457 0
M  V30 1323 H 113.845 7.67243 2.53701 0
M  V30 1324 H 117.431 5.29959 2.40073 0
M  V30 1325 H 116.311 7.49557 2.30509 0
M  V30 1326 N 113.814 -1.1601 1.06675 0
M  V30 1327 C 114.724 -2.24156 0.692179 0
M  V30 1328 C 115.74 -1.71507 -0.293513 0
M  V30 1329 O 116.916 -2.009 -0.141861 0
M  V30 1330 C 113.981 -3.46587 0.0884131 0
M  V30 1331 C 113.042 -4.14257 1.12646 0
M  V30 1332 C 112.275 -5.30844 0.551416 0
M  V30 1333 O 112.498 -5.66858 -0.634656 0
M  V30 1334 O 111.432 -5.87848 1.29298 0
M  V30 1335 H 115.258 -2.58513 1.59388 0
M  V30 1336 H 112.843 -1.23599 0.83926 0
M  V30 1337 H 114.725 -4.20679 -0.246361 0
M  V30 1338 H 113.4 -3.13994 -0.786712 0
M  V30 1339 H 112.307 -3.42118 1.51348 0
M  V30 1340 H 113.64 -4.50914 1.97325 0
M  V30 1341 N 115.292 -0.849877 -1.32721 0
M  V30 1342 C 116.538 -0.451591 -1.97708 0
M  V30 1343 C 116.871 0.989175 -1.6712 0
M  V30 1344 O 116.146 1.69334 -0.956891 0
M  V30 1345 C 116.429 -0.685598 -3.53513 0
M  V30 1346 C 116.282 -2.17444 -3.93749 0
M  V30 1347 C 117.601 -0.138874 -4.39881 0
M  V30 1348 H 114.72 -0.16555 -0.718166 0
M  V30 1349 H 117.362 -1.06742 -1.57182 0
M  V30 1350 H 115.512 -0.161416 -3.88165 0
M  V30 1351 H 117.184 -2.76433 -3.693 0
M  V30 1352 H 115.427 -2.65476 -3.43081 0
M  V30 1353 H 116.098 -2.28888 -5.02309 0
M  V30 1354 H 118.574 -0.587068 -4.11938 0
M  V30 1355 H 117.45 -0.332213 -5.47894 0
M  V30 1356 H 117.711 0.95806 -4.31594 0
M  V30 1357 N 116.77 1.45427 -0.607355 0
M  V30 1358 C 117.995 2.07124 -0.107006 0
M  V30 1359 C 118.42 1.44906 1.19933 0
M  V30 1360 O 117.778 0.541687 1.73019 0
M  V30 1361 C 117.826 3.60595 0.0194119 0
M  V30 1362 O 116.93 3.98285 1.0697 0
M  V30 1363 H 116.271 0.659868 -0.0739597 0
M  V30 1364 H 118.801 1.86683 -0.837297 0
M  V30 1365 H 118.811 4.07419 0.2177 0
M  V30 1366 H 117.486 4.05266 -0.934453 0
M  V30 1367 H 116.063 3.63133 0.847889 0
M  V30 1368 N 118.248 0.346503 1.53744 0
M  V30 1369 C 119.494 -0.249473 2.0126 0
M  V30 1370 C 119.827 -1.49965 1.23386 0
M  V30 1371 O 119.102 -1.91811 0.32229 0
M  V30 1372 C 119.385 -0.560643 3.55709 0
M  V30 1373 C 119.238 0.701836 4.44291 0
M  V30 1374 C 120.557 -1.36905 4.18264 0
M  V30 1375 H 117.676 -0.0891987 0.731582 0
M  V30 1376 H 120.318 0.467624 1.84156 0
M  V30 1377 H 118.468 -1.17156 3.70414 0
M  V30 1378 H 120.14 1.33974 4.41417 0
M  V30 1379 H 118.383 1.32612 4.13033 0
M  V30 1380 H 119.054 0.43933 5.50249 0
M  V30 1381 H 121.53 -0.852448 4.07275 0
M  V30 1382 H 120.406 -1.55553 5.26398 0
M  V30 1383 H 120.667 -2.37203 3.73078 0
M  V30 1384 N 119.726 -1.57421 0.075193 0
M  V30 1385 C 120.951 -1.98364 -0.605515 0
M  V30 1386 C 121.376 -0.953383 -1.62149 0
M  V30 1387 O 120.734 0.0806053 -1.81121 0
M  V30 1388 C 120.782 -3.38332 -1.24756 0
M  V30 1389 O 119.886 -3.37959 -2.36342 0
M  V30 1390 H 119.227 -0.645553 -0.155428 0
M  V30 1391 H 121.757 -2.04044 0.150714 0
M  V30 1392 H 121.767 -3.75591 -1.5936 0
M  V30 1393 H 120.442 -4.12846 -0.503129 0
M  V30 1394 H 119.019 -3.12474 -2.03506 0
M  V30 1395 N 121.204 0.198386 -1.56346 0
M  V30 1396 C 122.134 1.24865 -1.9731 0
M  V30 1397 C 123.115 1.47651 -0.844576 0
M  V30 1398 O 124.3 1.59444 -1.10866 0
M  V30 1399 C 121.43 2.59358 -2.30977 0
M  V30 1400 C 120.384 2.5119 -3.46537 0
M  V30 1401 C 119.71 3.89926 -3.65871 0
M  V30 1402 C 121.01 2.03977 -4.80823 0
M  V30 1403 H 122.704 0.908252 -2.85291 0
M  V30 1404 H 120.25 0.435462 -1.37258 0
M  V30 1405 H 122.203 3.33011 -2.58228 0
M  V30 1406 H 120.927 2.95132 -1.39874 0
M  V30 1407 H 119.586 1.79993 -3.19371 0
M  V30 1408 H 119.234 4.23046 -2.72105 0
M  V30 1409 H 118.934 3.85336 -4.4361 0
M  V30 1410 H 120.458 4.65205 -3.95495 0
M  V30 1411 H 121.872 2.67386 -5.07127 0
M  V30 1412 H 120.269 2.10397 -5.62008 0
M  V30 1413 H 121.339 0.992861 -4.74626 0
M  V30 1414 N 122.682 1.50554 0.465978 0
M  V30 1415 C 123.907 1.65838 1.24549 0
M  V30 1416 C 124.332 0.343486 1.84937 0
M  V30 1417 O 123.69 -0.69324 1.67523 0
M  V30 1418 C 123.738 2.75533 2.32624 0
M  V30 1419 O 122.842 2.37142 3.37398 0
M  V30 1420 H 122.183 0.553893 0.366194 0
M  V30 1421 H 124.713 1.96959 0.553927 0
M  V30 1422 H 124.723 2.98763 2.77857 0
M  V30 1423 H 123.398 3.70962 1.88043 0
M  V30 1424 H 121.975 2.24377 2.97841 0
M  V30 1425 N 124.16 -0.719506 1.40217 0
M  V30 1426 C 125.406 -1.48152 1.38488 0
M  V30 1427 C 125.739 -1.94195 -0.0141867 0
M  V30 1428 O 125.014 -1.67884 -0.982096 0
M  V30 1429 C 125.297 -2.71035 2.37091 0
M  V30 1430 C 125.15 -2.30912 3.86005 0
M  V30 1431 C 126.469 -3.73182 2.33288 0
M  V30 1432 H 123.588 -0.537395 0.504357 0
M  V30 1433 H 126.23 -0.821472 1.71324 0
M  V30 1434 H 124.38 -3.27352 2.0922 0
M  V30 1435 H 126.052 -1.80107 4.24687 0
M  V30 1436 H 124.295 -1.62958 4.02029 0
M  V30 1437 H 124.966 -3.18978 4.50508 0
M  V30 1438 H 127.442 -3.26485 2.57966 0
M  V30 1439 H 126.318 -4.56806 3.04334 0
M  V30 1440 H 126.579 -4.21202 1.34317 0
M  V30 1441 N 125.638 -1.25649 -0.95132 0
M  V30 1442 C 126.886 -1.10375 -1.69298 0
M  V30 1443 C 127.207 0.355339 -1.91735 0
M  V30 1444 O 126.477 1.25188 -1.50681 0
M  V30 1445 H 125.057 -0.405461 -0.627384 0
M  V30 1446 H 127.719 -1.57823 -1.14358 0
M  V30 1447 H 126.815 -1.61465 -2.67087 0
M  V30 1448 N 127.117 1.15442 -1.07289 0
M  V30 1449 C 128.364 1.86213 -0.795668 0
M  V30 1450 C 128.692 1.82291 0.678238 0
M  V30 1451 O 127.947 1.24057 1.51355 0
M  V30 1452 C 128.246 3.3489 -1.24834 0
M  V30 1453 C 127.912 3.59007 -2.72809 0
M  V30 1454 C 126.574 3.65298 -3.13227 0
M  V30 1455 C 128.926 3.68762 -3.68326 0
M  V30 1456 C 126.254 3.78854 -4.4798 0
M  V30 1457 C 128.606 3.83842 -5.0284 0
M  V30 1458 C 127.27 3.88378 -5.4288 0
M  V30 1459 H 126.54 0.681403 -0.291155 0
M  V30 1460 H 129.187 1.36435 -1.34379 0
M  V30 1461 H 127.492 3.8687 -0.619595 0
M  V30 1462 H 129.189 3.88052 -1.01076 0
M  V30 1463 H 125.779 3.5475 -2.40521 0
M  V30 1464 H 129.963 3.63202 -3.38227 0
M  V30 1465 H 125.219 3.80623 -4.78472 0
M  V30 1466 H 129.393 3.90332 -5.76727 0
M  V30 1467 H 127.02 3.98635 -6.47298 0
M  V30 1468 N 128.595 0.856903 1.32268 0
M  V30 1469 C 129.542 0.301172 2.28827 0
M  V30 1470 C 130.512 -0.593104 1.5515 0
M  V30 1471 O 131.697 -0.527537 1.83362 0
M  V30 1472 C 128.837 -0.502523 3.41422 0
M  V30 1473 C 127.95 0.417797 4.29975 0
M  V30 1474 C 127.085 -0.398749 5.29701 0
M  V30 1475 C 126.124 0.518827 6.09897 0
M  V30 1476 N 125.261 -0.260674 7.01616 0
M  V30 1477 H 130.101 1.12983 2.75751 0
M  V30 1478 H 127.638 0.568582 1.35667 0
M  V30 1479 H 129.596 -0.984141 4.05426 0
M  V30 1480 H 128.226 -1.29599 2.95642 0
M  V30 1481 H 127.278 1.01781 3.66531 0
M  V30 1482 H 128.59 1.12191 4.86019 0
M  V30 1483 H 127.744 -0.943435 5.9932 0
M  V30 1484 H 126.483 -1.13622 4.7428 0
M  V30 1485 H 125.488 1.07538 5.39181 0
M  V30 1486 H 126.713 1.25495 6.67404 0
M  V30 1487 H 124.659 -0.981198 6.4862 0
M  V30 1488 H 124.576 0.384364 7.55022 0
M  V30 1489 H 125.844 -0.787014 7.75517 0
M  V30 1490 N 130.073 -1.45103 0.615059 0
M  V30 1491 C 131.301 -2.06553 0.11977 0
M  V30 1492 C 131.716 -1.45842 -1.19898 0
M  V30 1493 O 131.073 -0.575325 -1.73194 0
M  V30 1494 C 131.124 -3.61495 -0.018364 0
M  V30 1495 O 130.845 -4.19942 1.24822 0
M  V30 1496 C 132.346 -4.39947 -0.544237 0
M  V30 1497 H 129.566 -0.667096 0.0722739 0
M  V30 1498 H 132.11 -1.8623 0.84491 0
M  V30 1499 H 130.265 -3.81135 -0.693865 0
M  V30 1500 H 130.679 -5.13204 1.0827 0
M  V30 1501 H 132.153 -5.48838 -0.589953 0
M  V30 1502 H 132.63 -4.10255 -1.56805 0
M  V30 1503 H 133.236 -4.25188 0.0974703 0
M  V30 1504 N 131.551 -0.354651 -1.53558 0
M  V30 1505 C 132.484 0.540273 -2.21712 0
M  V30 1506 C 133.462 1.09161 -1.2051 0
M  V30 1507 O 134.646 1.14979 -1.49372 0
M  V30 1508 C 131.773 1.74435 -2.90328 0
M  V30 1509 C 130.819 1.32146 -4.05512 0
M  V30 1510 S 131.652 0.331924 -5.3447 0
M  V30 1511 C 132.808 1.54258 -6.06593 0
M  V30 1512 H 133.041 -0.0385776 -2.97275 0
M  V30 1513 H 130.574 -0.138736 -1.53775 0
M  V30 1514 H 132.532 2.43507 -3.30476 0
M  V30 1515 H 131.193 2.29444 -2.1451 0
M  V30 1516 H 130.386 2.21952 -4.52497 0
M  V30 1517 H 129.988 0.710091 -3.67197 0
M  V30 1518 H 132.28 2.47534 -6.30661 0
M  V30 1519 H 133.223 1.11431 -6.99277 0
M  V30 1520 H 133.631 1.74367 -5.36895 0
M  V30 1521 N 133.029 1.57378 -0.0835403 0
M  V30 1522 C 134.306 1.85363 0.624507 0
M  V30 1523 C 134.686 0.978239 1.87066 0
M  V30 1524 O 134.034 0.0475908 2.2845 0
M  V30 1525 C 134.244 3.35795 0.950947 0
M  V30 1526 C 135.592 4.03581 1.31939 0
M  V30 1527 O 136.616 3.40609 1.04232 0
M  V30 1528 O 135.475 5.14672 1.83779 0
M  V30 1529 H 132.569 0.766162 0.311329 0
M  V30 1530 H 135.115 1.69307 -0.115362 0
M  V30 1531 H 133.887 3.91244 0.0663899 0
M  V30 1532 H 133.51 3.57154 1.74719 0
M  V30 1533 N 134.507 -0.190092 1.56449 0
M  V30 1534 C 135.754 -0.909705 1.80916 0
M  V30 1535 C 136.082 -1.83047 0.657583 0
M  V30 1536 O 135.337 -1.92428 -0.356356 0
M  V30 1537 C 135.636 -1.75382 3.1141 0
M  V30 1538 C 135.302 -0.983606 4.40041 0
M  V30 1539 C 133.964 -0.770967 4.74984 0
M  V30 1540 C 136.316 -0.442024 5.19322 0
M  V30 1541 C 133.644 -0.0053448 5.867 0
M  V30 1542 C 135.996 0.310412 6.31838 0
M  V30 1543 C 134.66 0.534023 6.6536 0
M  V30 1544 H 133.93 -0.332885 0.662019 0
M  V30 1545 H 136.577 -0.175762 1.90692 0
M  V30 1546 H 134.882 -2.55659 2.96893 0
M  V30 1547 H 136.579 -2.31331 3.27547 0
M  V30 1548 H 133.169 -1.15936 4.12622 0
M  V30 1549 H 137.353 -0.593693 4.92736 0
M  V30 1550 H 132.609 0.177825 6.11141 0
M  V30 1551 H 136.783 0.737419 6.92485 0
M  V30 1552 H 134.41 1.12918 7.51767 0
M  V30 1553 N 135.985 -1.50799 -0.457987 0
M  V30 1554 C 137.396 -1.55152 -1.0385 0
M  V30 1555 C 137.747 -0.362719 -1.92818 0
M  V30 1556 O 136.872 0.522915 -2.09987 0
M  V30 1557 C 137.467 -2.81173 -1.89017 0
M  V30 1558 C 136.026 -2.88164 -2.42154 0
M  V30 1559 C 135.173 -2.49591 -1.20829 0
M  V30 1560 H 138.124 -1.56874 -0.240068 0
M  V30 1561 H 138.145 -2.63769 -2.74238 0
M  V30 1562 H 137.657 -3.67677 -1.24238 0
M  V30 1563 H 135.758 -2.06042 -3.10447 0
M  V30 1564 H 135.871 -3.91356 -2.76364 0
M  V30 1565 H 134.235 -2.02322 -1.54719 0
M  V30 1566 H 135.018 -3.38418 -0.576927 0
M  V30 1567 N 137.463 0.71206 -1.40597 0
M  V30 1568 C 138.426 1.80785 -1.40888 0
M  V30 1569 C 139.426 1.57937 -0.302103 0
M  V30 1570 O 140.616 1.64913 -0.561182 0
M  V30 1571 C 137.748 3.18927 -1.20409 0
M  V30 1572 H 138.941 1.81924 -2.38419 0
M  V30 1573 H 136.494 0.91805 -1.26497 0
M  V30 1574 H 137.229 3.23436 -0.236522 0
M  V30 1575 H 137.014 3.36911 -2.00582 0
M  V30 1576 H 138.504 3.98949 -1.23408 0
M  V30 1577 N 138.941 1.26152 0.944643 0
M  V30 1578 C 140.187 1.11657 1.69294 0
M  V30 1579 C 140.52 -0.339926 1.91202 0
M  V30 1580 O 139.795 -1.24994 1.49019 0
M  V30 1581 C 140.078 1.88236 3.06984 0
M  V30 1582 C 139.931 3.41772 2.92424 0
M  V30 1583 C 141.25 1.67343 4.07043 0
M  V30 1584 H 138.369 0.407004 0.614424 0
M  V30 1585 H 141.011 1.55106 1.09737 0
M  V30 1586 H 139.161 1.51308 3.57824 0
M  V30 1587 H 140.833 3.88433 2.48832 0
M  V30 1588 H 139.076 3.68974 2.28124 0
M  V30 1589 H 139.747 3.90579 3.90067 0
M  V30 1590 H 142.223 1.99509 3.65151 0
M  V30 1591 H 141.099 2.23346 5.01406 0
M  V30 1592 H 141.36 0.617158 4.37771 0
M  V30 1593 N 140.419 -1.14872 1.07899 0
M  V30 1594 C 141.647 -1.89661 0.82683 0
M  V30 1595 C 142.062 -1.78312 -0.620519 0
M  V30 1596 O 141.419 -1.13888 -1.42604 0
M  V30 1597 C 141.47 -3.39817 1.23316 0
M  V30 1598 O 141.191 -3.50845 2.62372 0
M  V30 1599 C 142.692 -4.31615 1.0111 0
M  V30 1600 H 139.912 -0.60092 0.298557 0
M  V30 1601 H 142.456 -1.4551 1.43691 0
M  V30 1602 H 140.611 -3.8161 0.667286 0
M  V30 1603 H 141.025 -4.44076 2.79101 0
M  V30 1604 H 142.499 -5.35367 1.34486 0
M  V30 1605 H 142.976 -4.39169 -0.0522168 0
M  V30 1606 H 143.582 -3.95572 1.56215 0
M  V30 1607 N 141.898 -0.863906 -1.31812 0
M  V30 1608 C 143.147 -0.46801 -1.96195 0
M  V30 1609 C 143.46 0.983474 -1.69077 0
M  V30 1610 O 144.666 1.48523 -2.27273 0
M  V30 1611 C 143.122 -0.785995 -3.51212 0
M  V30 1612 C 142.73 -2.25383 -3.87178 0
M  V30 1613 C 144.474 -0.458274 -4.22019 0
M  V30 1614 C 142.381 -2.51455 -5.3528 0
M  V30 1615 H 141.311 -0.171283 -0.734287 0
M  V30 1616 H 143.962 -1.05597 -1.50072 0
M  V30 1617 H 142.344 -0.127359 -3.95795 0
M  V30 1618 H 143.518 -2.95502 -3.53575 0
M  V30 1619 H 141.833 -2.54698 -3.2942 0
M  V30 1620 H 144.43 -0.630369 -5.30971 0
M  V30 1621 H 144.773 0.600834 -4.11941 0
M  V30 1622 H 145.306 -1.07319 -3.8305 0
M  V30 1623 H 142.045 -3.56025 -5.50387 0
M  V30 1624 H 141.565 -1.85923 -5.70257 0
M  V30 1625 H 143.244 -2.35874 -6.02472 0
M  V30 1626 N 143.376 1.44774 -0.622745 0
M  V30 1627 C 144.616 2.04004 -0.127102 0
M  V30 1628 C 144.98 1.47862 1.22478 0
M  V30 1629 O 146.181 1.98541 1.81204 0
M  V30 1630 C 144.452 3.57247 -0.104429 0
M  V30 1631 S 146.011 4.37574 0.327814 0
M  V30 1632 H 142.829 0.708713 -0.0569776 0
M  V30 1633 H 145.431 1.77275 -0.824253 0
M  V30 1634 H 144.135 3.95616 -1.09159 0
M  V30 1635 H 143.666 3.88575 0.614236 0
M  V30 1636 H 145.681 4.70575 1.57395 0
M  V30 1637 N 144.854 0.36279 1.53368 0
M  V30 1638 C 145.802 -0.500155 2.27159 0
M  V30 1639 C 146.796 -1.08575 1.3003 0
M  V30 1640 O 148.002 -1.02927 1.47668 0
M  V30 1641 H 144.377 -0.180009 0.730138 0
M  V30 1642 H 146.348 0.14401 2.98052 0
M  V30 1643 C 145.097 -1.62937 3.07159 0
M  V30 1644 H 144.42 -1.18806 3.8174 0
M  V30 1645 H 145.86 -2.20795 3.61975 0
M  V30 1646 C 144.319 -2.57007 2.17829 0
M  V30 1647 O 144.849 -3.59752 1.78721 0
M  V30 1648 N 143.055 -2.26131 1.82518 0
M  V30 1649 H 142.602 -1.42616 2.14519 0
M  V30 1650 H 142.56 -2.89327 1.23034 0
M  V30 1651 N 146.332 -1.57332 0.0918853 0
M  V30 1652 C 147.295 -2.12708 -0.85369 0
M  V30 1653 C 148.295 -1.05561 -1.213 0
M  V30 1654 O 149.485 -1.31461 -1.14296 0
M  V30 1655 C 146.617 -2.64503 -2.15061 0
M  V30 1656 H 147.81 -2.97573 -0.3729 0
M  V30 1657 H 145.363 -1.55509 -0.157072 0
M  V30 1658 H 146.098 -1.83149 -2.67632 0
M  V30 1659 H 145.883 -3.4284 -1.90272 0
M  V30 1660 H 147.373 -3.07351 -2.82711 0
M  V30 1661 N 147.81 0.181792 -1.56548 0
M  V30 1662 C 149.035 0.920019 -1.85877 0
M  V30 1663 C 149.46 1.75494 -0.677021 0
M  V30 1664 O 148.818 1.77399 0.374056 0
M  V30 1665 C 148.866 1.78112 -3.13542 0
M  V30 1666 O 147.97 2.88152 -2.95029 0
M  V30 1667 H 147.311 0.258334 -0.611686 0
M  V30 1668 H 149.841 0.183092 -2.03779 0
M  V30 1669 H 149.851 2.18314 -3.44678 0
M  V30 1670 H 148.526 1.16777 -3.99169 0
M  V30 1671 H 147.103 2.51609 -2.75222 0
M  V30 1672 N 149.288 1.51039 0.449983 0
M  V30 1673 C 150.699 1.557 1.03026 0
M  V30 1674 C 151.05 0.372939 1.92623 0
M  V30 1675 O 150.175 -0.511771 2.10261 0
M  V30 1676 C 150.77 2.82171 1.87523 0
M  V30 1677 C 149.329 2.89444 2.40622 0
M  V30 1678 C 148.476 2.50228 1.19504 0
M  V30 1679 H 151.427 1.56999 0.231745 0
M  V30 1680 H 151.448 2.65219 2.72835 0
M  V30 1681 H 150.96 3.68331 1.22286 0
M  V30 1682 H 149.061 2.07685 3.0935 0
M  V30 1683 H 149.174 3.92816 2.74285 0
M  V30 1684 H 147.538 2.03139 1.53644 0
M  V30 1685 H 148.321 3.38719 0.558972 0
M  V30 1686 N 150.766 -0.704594 1.40972 0
M  V30 1687 C 152.013 -1.46458 1.39844 0
M  V30 1688 C 152.341 -1.94499 0.00447594 0
M  V30 1689 O 151.596 -1.69275 -0.982057 0
M  V30 1690 C 151.895 -2.698 2.34399 0
M  V30 1691 C 151.561 -2.40464 3.81429 0
M  V30 1692 C 150.223 -2.32174 4.21484 0
M  V30 1693 C 152.575 -2.16086 4.74296 0
M  V30 1694 C 149.903 -1.97589 5.52427 0
M  V30 1695 C 152.255 -1.83011 6.05549 0
M  V30 1696 C 150.919 -1.7321 6.44635 0
M  V30 1697 H 150.189 -0.535927 0.511725 0
M  V30 1698 H 152.836 -0.806124 1.73706 0
M  V30 1699 H 151.141 -3.40536 1.93759 0
M  V30 1700 H 152.838 -3.27919 2.30804 0
M  V30 1701 H 149.428 -2.47808 3.49699 0
M  V30 1702 H 153.612 -2.2144 4.4416 0
M  V30 1703 H 148.868 -1.88547 5.81601 0
M  V30 1704 H 153.042 -1.63164 6.77016 0
M  V30 1705 H 150.669 -1.46179 7.46013 0
M  V30 1706 N 152.244 -1.26651 -0.937939 0
M  V30 1707 C 153.191 -1.0849 -2.03712 0
M  V30 1708 C 154.161 0.011033 -1.66096 0
M  V30 1709 O 155.346 -0.149353 -1.90215 0
M  V30 1710 C 152.486 -0.72735 -3.37348 0
M  V30 1711 C 151.599 -1.89986 -3.87981 0
M  V30 1712 C 150.734 -1.48513 -5.10017 0
M  V30 1713 C 149.773 -2.62575 -5.5292 0
M  V30 1714 N 148.91 -2.21762 -6.66158 0
M  V30 1715 H 153.75 -2.02551 -2.18579 0
M  V30 1716 H 151.287 -1.00844 -1.07093 0
M  V30 1717 H 153.245 -0.50092 -4.14182 0
M  V30 1718 H 151.875 0.176298 -3.22318 0
M  V30 1719 H 150.927 -2.23913 -3.07518 0
M  V30 1720 H 152.239 -2.75586 -4.15757 0
M  V30 1721 H 151.393 -1.21934 -5.94321 0
M  V30 1722 H 150.132 -0.60009 -4.83994 0
M  V30 1723 H 149.137 -2.8988 -4.67172 0
M  V30 1724 H 150.362 -3.51685 -5.80943 0
M  V30 1725 H 148.308 -1.35696 -6.41812 0
M  V30 1726 H 148.225 -3.00903 -6.93537 0
M  V30 1727 H 149.493 -1.98403 -7.53828 0
M  V30 1728 N 153.722 1.14298 -1.08507 0
M  V30 1729 C 154.952 1.88945 -0.835663 0
M  V30 1730 C 155.36 1.78894 0.615928 0
M  V30 1731 O 154.703 1.1468 1.43506 0
M  V30 1732 C 154.765 3.39585 -1.17994 0
M  V30 1733 C 154.429 3.7342 -2.63451 0
M  V30 1734 C 155.426 3.73454 -3.61702 0
M  V30 1735 C 153.111 4.03368 -2.99332 0
M  V30 1736 C 155.105 4.02961 -4.93864 0
M  V30 1737 C 152.792 4.32538 -4.31687 0
M  V30 1738 C 153.79 4.32318 -5.28763 0
M  V30 1739 O 153.478 4.6078 -6.58739 0
M  V30 1740 H 153.21 0.605307 -0.300965 0
M  V30 1741 H 155.764 1.45673 -1.44806 0
M  V30 1742 H 153.994 3.83315 -0.51055 0
M  V30 1743 H 155.683 3.9554 -0.911182 0
M  V30 1744 H 156.449 3.50403 -3.35325 0
M  V30 1745 H 152.328 4.02692 -2.24411 0
M  V30 1746 H 155.872 4.02704 -5.69627 0
M  V30 1747 H 151.769 4.55059 -4.57812 0
M  V30 1748 H 152.537 4.78492 -6.64069 0
M  V30 1749 N 155.201 0.870884 1.31352 0
M  V30 1750 C 156.426 0.495957 2.01383 0
M  V30 1751 C 156.851 -0.904324 1.64935 0
M  V30 1752 O 156.209 -1.59687 0.858466 0
M  V30 1753 C 156.257 0.661433 3.54482 0
M  V30 1754 O 155.361 -0.298851 4.11316 0
M  V30 1755 H 154.702 0.197158 0.634054 0
M  V30 1756 H 157.232 1.17455 1.67527 0
M  V30 1757 H 157.242 0.555072 4.04207 0
M  V30 1758 H 155.917 1.68246 3.8035 0
M  V30 1759 H 154.494 -0.147368 3.72609 0
M  V30 1760 N 156.679 -1.44442 0.630414 0
M  V30 1761 C 157.626 -2.30678 -0.0749355 0
M  V30 1762 C 158.596 -1.4344 -0.837502 0
M  V30 1763 O 159.781 -1.72343 -0.818684 0
M  V30 1764 C 156.921 -3.28706 -1.05103 0
M  V30 1765 C 156.034 -4.31046 -0.286954 0
M  V30 1766 C 155.169 -5.16167 -1.2548 0
M  V30 1767 C 154.208 -6.10216 -0.479843 0
M  V30 1768 N 153.345 -6.88039 -1.39811 0
M  V30 1769 H 158.185 -2.90454 0.666386 0
M  V30 1770 H 155.722 -1.43107 0.340404 0
M  V30 1771 H 157.68 -3.84027 -1.63031 0
M  V30 1772 H 156.31 -2.70632 -1.75949 0
M  V30 1773 H 155.362 -3.78203 0.408243 0
M  V30 1774 H 156.674 -4.97794 0.316657 0
M  V30 1775 H 155.828 -5.76002 -1.90544 0
M  V30 1776 H 154.567 -4.49491 -1.89233 0
M  V30 1777 H 153.572 -5.49491 0.184295 0
M  V30 1778 H 154.797 -6.78928 0.152965 0
M  V30 1779 H 152.743 -6.24032 -2.02287 0
M  V30 1780 H 152.66 -7.51223 -0.848508 0
M  V30 1781 H 153.928 -7.52397 -2.03762 0
M  V30 1782 N 158.157 -0.370918 -1.53173 0
M  V30 1783 C 159.406 0.218249 -2.00516 0
M  V30 1784 C 159.719 1.49429 -1.26215 0
M  V30 1785 O 160.925 2.16239 -1.64174 0
M  V30 1786 C 159.381 0.43948 -3.57207 0
M  V30 1787 C 158.989 -0.822244 -4.4039 0
M  V30 1788 C 160.733 0.986012 -4.1289 0
M  V30 1789 C 158.64 -0.570304 -5.88644 0
M  V30 1790 H 157.57 0.0853333 -0.749156 0
M  V30 1791 H 160.221 -0.490483 -1.76823 0
M  V30 1792 H 158.603 1.20961 -3.77074 0
M  V30 1793 H 159.777 -1.59557 -4.32294 0
M  V30 1794 H 158.092 -1.29238 -3.95836 0
M  V30 1795 H 160.689 1.18991 -5.21292 0
M  V30 1796 H 161.032 1.94972 -3.6782 0
M  V30 1797 H 161.565 0.27592 -3.96842 0
M  V30 1798 H 158.304 -1.50449 -6.38001 0
M  V30 1799 H 157.824 0.164427 -5.99575 0
M  V30 1800 H 159.503 -0.19784 -6.46697 0
M  V30 1801 N 159.635 1.57281 -0.100228 0
M  V30 1802 C 160.582 2.14305 0.856858 0
M  V30 1803 C 161.552 1.06296 1.27634 0
M  V30 1804 O 162.737 1.34109 1.35718 0
M  V30 1805 C 159.877 2.73184 2.10866 0
M  V30 1806 C 158.99 3.95442 1.73925 0
M  V30 1807 C 158.125 4.42468 2.93931 0
M  V30 1808 C 157.164 5.57303 2.5314 0
M  V30 1809 N 156.301 5.99158 3.65997 0
M  V30 1810 H 161.141 2.95772 0.363726 0
M  V30 1811 H 158.678 1.46139 0.167858 0
M  V30 1812 H 160.636 3.05442 2.84185 0
M  V30 1813 H 159.266 1.94437 2.57671 0
M  V30 1814 H 158.318 3.69464 0.905554 0
M  V30 1815 H 159.63 4.78769 1.39935 0
M  V30 1816 H 158.784 4.76537 3.75496 0
M  V30 1817 H 157.523 3.58052 3.31134 0
M  V30 1818 H 156.528 5.22857 1.70003 0
M  V30 1819 H 157.753 6.43471 2.17075 0
M  V30 1820 H 155.699 5.17687 4.02909 0
M  V30 1821 H 155.616 6.77295 3.35869 0
M  V30 1822 H 156.884 6.3786 4.48057 0
M  V30 1823 N 161.113 -0.173488 1.56642 0
M  V30 1824 C 162.063 -1.21941 1.92651 0
M  V30 1825 C 163.047 -1.39912 0.794577 0
M  V30 1826 O 164.239 -1.41919 1.05773 0
M  V30 1827 C 161.368 -2.55935 2.28806 0
M  V30 1828 C 160.454 -2.41667 3.48508 0
M  V30 1829 N 160.845 -1.9711 4.65813 0
M  V30 1830 C 159.143 -2.72499 3.53072 0
M  V30 1831 C 159.844 -1.95253 5.47952 0
M  V30 1832 N 158.82 -2.37575 4.88937 0
M  V30 1833 H 162.622 -0.866581 2.80834 0
M  V30 1834 H 160.136 -0.381776 1.57849 0
M  V30 1835 H 162.133 -3.31511 2.52797 0
M  V30 1836 H 160.793 -2.92022 1.41961 0
M  V30 1837 H 161.804 -1.67481 4.90072 0
M  V30 1838 H 158.481 -3.12639 2.767 0
M  V30 1839 H 159.871 -1.6252 6.51948 0
M  V30 1840 N 162.591 -1.51276 -0.441967 0
M  V30 1841 C 163.521 -1.752 -1.54361 0
M  V30 1842 C 164.502 -0.601682 -1.59103 0
M  V30 1843 O 165.687 -0.843913 -1.74905 0
M  V30 1844 C 162.817 -1.87282 -2.92477 0
M  V30 1845 C 161.771 -3.02687 -3.02596 0
M  V30 1846 C 161.097 -2.99947 -4.42647 0
M  V30 1847 C 162.397 -4.4273 -2.77106 0
M  V30 1848 H 164.091 -2.67442 -1.34592 0
M  V30 1849 H 161.637 -1.28694 -0.646048 0
M  V30 1850 H 163.59 -2.02602 -3.695 0
M  V30 1851 H 162.314 -0.916844 -3.13467 0
M  V30 1852 H 160.973 -2.87065 -2.28012 0
M  V30 1853 H 160.621 -2.02136 -4.60597 0
M  V30 1854 H 160.321 -3.77439 -4.50348 0
M  V30 1855 H 161.845 -3.17354 -5.2165 0
M  V30 1856 H 163.259 -4.58727 -3.43864 0
M  V30 1857 H 161.656 -5.21893 -2.96222 0
M  V30 1858 H 162.726 -4.53087 -1.72744 0
M  V30 1859 N 164.069 0.697108 -1.41344 0
M  V30 1860 C 164.999 1.82353 -1.45841 0
M  V30 1861 C 165.98 1.67115 -0.317247 0
M  V30 1862 O 167.165 1.86871 -0.528474 0
M  V30 1863 C 164.295 3.20476 -1.33838 0
M  V30 1864 C 163.249 3.50415 -2.4575 0
M  V30 1865 C 162.575 4.87878 -2.18813 0
M  V30 1866 C 163.875 3.49546 -3.88091 0
M  V30 1867 H 165.569 1.78846 -2.40113 0
M  V30 1868 H 163.115 0.859028 -1.15571 0
M  V30 1869 H 165.068 3.98988 -1.35596 0
M  V30 1870 H 163.792 3.24604 -0.360498 0
M  V30 1871 H 162.451 2.74253 -2.43271 0
M  V30 1872 H 162.099 4.8863 -1.19371 0
M  V30 1873 H 161.799 5.08875 -2.93803 0
M  V30 1874 H 163.323 5.68702 -2.22284 0
M  V30 1875 H 164.737 4.18066 -3.92293 0
M  V30 1876 H 163.134 3.82075 -4.62751 0
M  V30 1877 H 164.204 2.48552 -4.16353 0
M  V30 1878 N 165.547 1.27147 0.931209 0
M  V30 1879 C 166.494 1.09568 2.03134 0
M  V30 1880 C 167.464 -0.00222433 1.661 0
M  V30 1881 O 168.649 0.159439 1.90133 0
M  V30 1882 C 165.789 0.745231 3.36957 0
M  V30 1883 C 164.902 1.92041 3.86968 0
M  V30 1884 C 164.037 1.51216 5.09222 0
M  V30 1885 C 163.076 2.65504 5.5152 0
M  V30 1886 N 162.213 2.25291 6.64972 0
M  V30 1887 H 167.053 2.03708 2.17502 0
M  V30 1888 H 164.59 1.01411 1.06556 0
M  V30 1889 H 166.548 0.522878 4.1391 0
M  V30 1890 H 165.178 -0.159202 3.22407 0
M  V30 1891 H 164.23 2.25541 3.06326 0
M  V30 1892 H 165.542 2.77787 4.1429 0
M  V30 1893 H 164.696 1.25084 5.93666 0
M  V30 1894 H 163.435 0.625749 4.83669 0
M  V30 1895 H 162.44 2.92354 4.65628 0
M  V30 1896 H 163.665 3.54761 5.7907 0
M  V30 1897 H 161.611 1.39098 6.41083 0
M  V30 1898 H 161.528 3.04577 6.91931 0
M  V30 1899 H 162.796 2.02398 7.52765 0
M  V30 1900 N 167.025 -1.13721 1.09112 0
M  V30 1901 C 168.302 -1.81155 0.737706 0
M  V30 1902 C 168.682 -1.96253 -0.777683 0
M  V30 1903 O 168.03 -1.52807 -1.69889 0
M  V30 1904 C 168.24 -3.16392 1.47299 0
M  V30 1905 C 169.588 -3.91787 1.63671 0
M  V30 1906 O 170.612 -3.26005 1.43524 0
M  V30 1907 O 169.471 -5.0977 1.96969 0
M  V30 1908 H 166.565 -0.783518 0.26463 0
M  V30 1909 H 169.111 -1.20676 1.19312 0
M  V30 1910 H 167.883 -3.0061 2.50498 0
M  V30 1911 H 167.506 -3.8457 1.00953 0
M  V30 1912 N 168.503 -0.877838 -1.30888 0
M  V30 1913 C 169.433 -0.35534 -2.3078 0
M  V30 1914 C 170.414 0.557994 -1.60687 0
M  V30 1915 O 171.599 0.473355 -1.88343 0
M  V30 1916 C 168.729 0.437221 -3.44537 0
M  V30 1917 C 167.683 -0.383715 -4.26276 0
M  V30 1918 C 167.009 0.535014 -5.32017 0
M  V30 1919 C 168.309 -1.62201 -4.96476 0
M  V30 1920 H 170.003 -1.19007 -2.74732 0
M  V30 1921 H 167.549 -0.573698 -1.32078 0
M  V30 1922 H 169.502 0.813334 -4.13477 0
M  V30 1923 H 168.226 1.30553 -2.99372 0
M  V30 1924 H 166.885 -0.741874 -3.59015 0
M  V30 1925 H 166.533 1.40083 -4.831 0
M  V30 1926 H 166.233 -0.0104211 -5.87599 0
M  V30 1927 H 167.757 0.907799 -6.03814 0
M  V30 1928 H 169.171 -1.31689 -5.5797 0
M  V30 1929 H 167.568 -2.10711 -5.61891 0
M  V30 1930 H 168.638 -2.37044 -4.23011 0
M  V30 1931 N 169.982 1.44106 -0.638065 0
M  V30 1932 C 171.259 1.95453 -0.0759321 0
M  V30 1933 C 171.639 1.57984 1.40015 0
M  V30 1934 O 170.987 0.857361 2.11806 0
M  V30 1935 C 171.197 3.47655 -0.306132 0
M  V30 1936 C 172.545 4.24114 -0.203008 0
M  V30 1937 O 173.569 3.55405 -0.237871 0
M  V30 1938 O 172.428 5.46381 -0.113827 0
M  V30 1939 H 169.522 0.826797 0.0183332 0
M  V30 1940 H 172.068 1.54122 -0.710251 0
M  V30 1941 H 170.84 3.68 -1.3301 0
M  V30 1942 H 170.463 3.95949 0.361991 0
M  V30 1943 N 171.46 0.379036 1.52974 0
M  V30 1944 C 172.37 -0.468639 2.29872 0
M  V30 1945 C 173.386 -1.08067 1.36373 0
M  V30 1946 O 174.562 -1.08871 1.69438 0
M  V30 1947 C 171.627 -1.58594 3.083 0
M  V30 1948 C 170.688 -1.00007 4.17489 0
M  V30 1949 C 169.921 -2.06413 4.92168 0
M  V30 1950 O 170.144 -3.27751 4.66835 0
M  V30 1951 O 169.078 -1.68717 5.7777 0
M  V30 1952 H 172.904 0.157508 3.03291 0
M  V30 1953 H 170.489 0.143035 1.48714 0
M  V30 1954 H 172.371 -2.23525 3.57232 0
M  V30 1955 H 171.046 -2.19724 2.37703 0
M  V30 1956 H 169.953 -0.314299 3.72777 0
M  V30 1957 H 171.286 -0.433135 4.90291 0
M  V30 1958 N 172.938 -1.57226 0.108567 0
M  V30 1959 C 173.868 -2.17778 -0.84232 0
M  V30 1960 C 174.849 -1.11487 -1.2847 0
M  V30 1961 O 176.034 -1.39681 -1.34918 0
M  V30 1962 C 173.164 -2.76888 -2.09644 0
M  V30 1963 C 172.118 -3.88669 -1.79221 0
M  V30 1964 C 171.444 -4.34541 -3.11574 0
M  V30 1965 C 172.744 -5.11251 -1.06864 0
M  V30 1966 H 174.438 -2.97489 -0.337774 0
M  V30 1967 H 171.984 -1.43097 -0.161025 0
M  V30 1968 H 173.937 -3.17904 -2.76614 0
M  V30 1969 H 172.661 -1.94451 -2.62405 0
M  V30 1970 H 171.32 -3.48213 -1.14644 0
M  V30 1971 H 170.968 -3.48977 -3.62249 0
M  V30 1972 H 170.668 -5.09914 -2.91996 0
M  V30 1973 H 172.192 -4.782 -3.7968 0
M  V30 1974 H 173.606 -5.49352 -1.63968 0
M  V30 1975 H 172.003 -5.9214 -0.974178 0
M  V30 1976 H 173.073 -4.8487 -0.0536168 0
M  V30 1977 N 174.416 0.165178 -1.56732 0
M  V30 1978 C 175.349 1.23336 -1.91998 0
M  V30 1979 C 176.327 1.42476 -0.783531 0
M  V30 1980 O 177.511 1.57384 -1.03743 0
M  V30 1981 C 174.638 2.59533 -2.17625 0
M  V30 1982 C 173.684 2.57093 -3.40302 0
M  V30 1983 S 174.517 2.05571 -4.9447 0
M  V30 1984 C 175.673 3.43532 -5.23198 0
M  V30 1985 H 175.906 0.932387 -2.82301 0
M  V30 1986 H 173.439 0.370013 -1.49901 0
M  V30 1987 H 175.397 3.37918 -2.3307 0
M  V30 1988 H 174.058 2.86827 -1.28019 0
M  V30 1989 H 173.251 3.57308 -3.55453 0
M  V30 1990 H 172.853 1.86806 -3.24005 0
M  V30 1991 H 175.145 4.39559 -5.15552 0
M  V30 1992 H 176.088 3.33251 -6.2478 0
M  V30 1993 H 176.496 3.39828 -4.50752 0
M  V30 1994 N 175.894 1.51508 0.433938 0
M  V30 1995 C 176.804 1.75917 1.5521 0
M  V30 1996 C 177.82 0.643545 1.61662 0
M  V30 1997 O 178.996 0.926183 1.7884 0
M  V30 1998 C 176.061 1.88213 2.91164 0
M  V30 1999 C 175.122 3.12074 2.94802 0
M  V30 2000 C 174.355 3.23774 4.24271 0
M  V30 2001 O 174.578 2.4133 5.16833 0
M  V30 2002 O 173.512 4.16774 4.34262 0
M  V30 2003 H 177.338 2.70777 1.37527 0
M  V30 2004 H 174.923 1.36051 0.617293 0
M  V30 2005 H 176.805 1.98267 3.71845 0
M  V30 2006 H 175.48 0.965413 3.08968 0
M  V30 2007 H 174.387 3.07497 2.13065 0
M  V30 2008 H 175.72 4.03446 2.81943 0
M  V30 2009 N 177.372 -0.689602 1.41712 0
M  V30 2010 C 178.335 -1.78521 1.43746 0
M  V30 2011 C 179.335 -1.57436 0.327191 0
M  V30 2012 O 180.525 -1.64 0.587348 0
M  V30 2013 C 177.657 -3.16971 1.25467 0
M  V30 2014 H 178.85 -1.78108 2.41283 0
M  V30 2015 H 176.403 -0.89781 1.27942 0
M  V30 2016 H 177.138 -3.23019 0.287948 0
M  V30 2017 H 176.923 -3.33678 2.05917 0
M  V30 2018 H 178.413 -3.96935 1.2974 0
M  V30 2019 N 178.85 -1.27639 -0.924453 0
M  V30 2020 C 180.096 -1.14336 -1.67497 0
M  V30 2021 C 180.429 0.309465 -1.91718 0
M  V30 2022 O 179.704 1.22608 -1.50989 0
M  V30 2023 C 179.987 -1.93096 -3.0395 0
M  V30 2024 C 179.84 -3.46381 -2.8695 0
M  V30 2025 C 181.159 -1.73798 -4.0433 0
M  V30 2026 H 178.278 -0.416728 -0.607871 0
M  V30 2027 H 180.92 -1.56832 -1.07256 0
M  V30 2028 H 179.07 -1.56982 -3.55372 0
M  V30 2029 H 180.742 -3.92343 -2.42621 0
M  V30 2030 H 178.985 -3.72557 -2.22225 0
M  V30 2031 H 179.656 -3.96735 -3.83804 0
M  V30 2032 H 182.132 -2.05293 -3.61931 0
M  V30 2033 H 181.008 -2.31294 -4.97789 0
M  V30 2034 H 181.269 -0.686725 -4.36734 0
M  V30 2035 N 180.328 1.1314 -1.09713 0
M  V30 2036 C 181.258 2.20748 -0.761102 0
M  V30 2037 C 182.239 1.68061 0.262566 0
M  V30 2038 O 183.424 1.93765 0.129977 0
M  V30 2039 C 180.554 3.46812 -0.184054 0
M  V30 2040 C 179.508 4.12606 -1.13757 0
M  V30 2041 C 178.834 5.33031 -0.422083 0
M  V30 2042 C 180.134 4.59603 -2.48118 0
M  V30 2043 H 181.828 2.49113 -1.66082 0
M  V30 2044 H 179.374 1.19734 -0.799987 0
M  V30 2045 H 181.327 4.21353 0.0631215 0
M  V30 2046 H 180.051 3.17851 0.750868 0
M  V30 2047 H 178.71 3.40036 -1.37007 0
M  V30 2048 H 178.358 5.00335 0.517072 0
M  V30 2049 H 178.058 5.77999 -1.05788 0
M  V30 2050 H 179.582 6.10325 -0.183277 0
M  V30 2051 H 180.996 5.25552 -2.29059 0
M  V30 2052 H 179.393 5.15321 -3.07514 0
M  V30 2053 H 180.463 3.73971 -3.08665 0
M  V30 2054 N 181.806 0.884767 1.30421 0
M  V30 2055 C 182.716 0.355398 2.31892 0
M  V30 2056 C 183.732 -0.542261 1.65335 0
M  V30 2057 O 184.908 -0.435432 1.96637 0
M  V30 2058 C 181.973 -0.421661 3.44126 0
M  V30 2059 C 181.034 0.505727 4.26311 0
M  V30 2060 C 180.267 -0.234343 5.33185 0
M  V30 2061 O 180.49 -1.46045 5.51386 0
M  V30 2062 O 179.424 0.415443 6.00465 0
M  V30 2063 H 183.25 1.19685 2.79122 0
M  V30 2064 H 180.835 0.648596 1.34587 0
M  V30 2065 H 182.717 -0.861641 4.12497 0
M  V30 2066 H 181.392 -1.23942 2.99032 0
M  V30 2067 H 180.299 0.994513 3.60639 0
M  V30 2068 H 181.632 1.28948 4.75009 0
M  V30 2069 N 183.284 -1.43765 0.645699 0
M  V30 2070 C 184.7 -1.56509 0.312591 0
M  V30 2071 C 184.9 -1.6307 -1.18365 0
M  V30 2072 O 183.956 -1.58167 -1.96824 0
M  V30 2073 C 185.269 -2.82968 1.01733 0
M  V30 2074 C 186.817 -2.96701 0.996865 0
M  V30 2075 C 187.292 -4.25982 1.68236 0
M  V30 2076 N 188.783 -4.32829 1.64964 0
M  V30 2077 C 189.518 -5.31613 2.14885 0
M  V30 2078 N 189.014 -6.36718 2.73061 0
M  V30 2079 N 190.807 -5.23217 2.05428 0
M  V30 2080 H 182.958 -1.3775 1.61675 0
M  V30 2081 H 185.221 -0.661067 0.679481 0
M  V30 2082 H 184.927 -2.84156 2.0724 0
M  V30 2083 H 184.801 -3.72957 0.564177 0
M  V30 2084 H 187.188 -2.95058 -0.0497719 0
M  V30 2085 H 187.269 -2.08022 1.48865 0
M  V30 2086 H 186.913 -4.28386 2.72852 0
M  V30 2087 H 186.843 -5.13545 1.16529 0
M  V30 2088 H 189.334 -3.57493 1.22503 0
M  V30 2089 H 189.647 -7.08401 3.08848 0
M  V30 2090 H 187.992 -6.37362 2.77118 0
M  V30 2091 H 191.183 -4.40019 1.59689 0
M  V30 2092 H 191.356 -6.00045 2.44643 0
M  V30 2093 N 184.763 -0.387143 -1.52771 0
M  V30 2094 C 186.012 0.19697 -2.00736 0
M  V30 2095 C 186.325 1.48082 -1.27793 0
M  V30 2096 O 187.531 2.14485 -1.66458 0
M  V30 2097 C 185.987 0.401568 -3.57653 0
M  V30 2098 C 185.595 -0.868907 -4.39493 0
M  V30 2099 C 187.339 0.942164 -4.13912 0
M  V30 2100 C 185.246 -0.632705 -5.88006 0
M  V30 2101 H 184.176 0.0773827 -0.750019 0
M  V30 2102 H 186.827 -0.50921 -1.76293 0
M  V30 2103 H 185.209 1.16954 -3.78335 0
M  V30 2104 H 186.383 -1.64133 -4.30577 0
M  V30 2105 H 184.698 -1.33429 -3.94443 0
M  V30 2106 H 187.295 1.13455 -5.22525 0
M  V30 2107 H 187.638 1.9106 -3.69867 0
M  V30 2108 H 188.171 0.233814 -3.97112 0
M  V30 2109 H 184.91 -1.57208 -6.36369 0
M  V30 2110 H 184.43 0.100825 -5.99715 0
M  V30 2111 H 186.109 -0.26642 -6.46451 0
M  V30 2112 N 186.241 1.57166 -0.116904 0
M  V30 2113 C 187.171 2.18222 0.830759 0
M  V30 2114 C 188.152 1.12167 1.27877 0
M  V30 2115 O 189.337 1.40394 1.34176 0
M  V30 2116 C 186.467 2.77996 2.08172 0
M  V30 2117 C 185.421 3.89614 1.77157 0
M  V30 2118 C 184.747 4.36187 3.09265 0
M  V30 2119 C 186.047 5.1181 1.04151 0
M  V30 2120 H 187.741 2.97664 0.321992 0
M  V30 2121 H 185.287 1.4318 0.153434 0
M  V30 2122 H 187.24 3.19366 2.74924 0
M  V30 2123 H 185.964 1.9584 2.6137 0
M  V30 2124 H 184.623 3.48816 1.12796 0
M  V30 2125 H 184.271 3.50893 3.60393 0
M  V30 2126 H 183.971 5.11455 2.89288 0
M  V30 2127 H 185.495 4.80207 3.77139 0
M  V30 2128 H 186.909 5.50214 1.61052 0
M  V30 2129 H 185.306 5.92648 0.942762 0
M  V30 2130 H 186.376 4.84892 0.0279022 0
M  V30 2131 N 187.719 -0.156864 1.56817 0
M  V30 2132 C 188.682 -1.17781 1.96622 0
M  V30 2133 C 189.682 -1.36401 0.851555 0
M  V30 2134 O 190.872 -1.33561 1.11836 0
M  V30 2135 C 188.004 -2.54008 2.27361 0
M  V30 2136 H 189.197 -0.836564 2.87996 0
M  V30 2137 H 186.75 -0.39985 1.51099 0
M  V30 2138 H 187.485 -2.9312 1.38748 0
M  V30 2139 H 187.27 -2.41856 3.08623 0
M  V30 2140 H 188.76 -3.27558 2.59029 0
M  V30 2141 N 189.197 -1.51736 -0.425897 0
M  V30 2142 C 190.608 -1.5732 -1.00536 0
M  V30 2143 C 190.959 -0.403537 -1.92005 0
M  V30 2144 O 190.084 0.478256 -2.11049 0
M  V30 2145 C 190.679 -2.85119 -1.8301 0
M  V30 2146 C 189.238 -2.93236 -2.35987 0
M  V30 2147 C 188.385 -2.52098 -1.15508 0
M  V30 2148 H 191.336 -1.57348 -0.206739 0
M  V30 2149 H 191.357 -2.69526 -2.68581 0
M  V30 2150 H 190.869 -3.7023 -1.16411 0
M  V30 2151 H 188.97 -2.12581 -3.06007 0
M  V30 2152 H 189.083 -3.9713 -2.68001 0
M  V30 2153 H 187.447 -2.05558 -1.50393 0
M  V30 2154 H 188.23 -3.39565 -0.505014 0
M  V30 2155 N 190.675 0.682077 -1.42076 0
M  V30 2156 C 191.585 1.82535 -1.47371 0
M  V30 2157 C 192.601 1.7017 -0.363079 0
M  V30 2158 O 193.777 1.91848 -0.612875 0
M  V30 2159 C 190.842 3.18624 -1.36674 0
M  V30 2160 C 189.903 3.42999 -2.58167 0
M  V30 2161 C 189.136 4.72595 -2.4797 0
M  V30 2162 O 189.359 5.50006 -1.5116 0
M  V30 2163 O 188.293 4.98054 -3.37974 0
M  V30 2164 H 192.119 1.81023 -2.43853 0
M  V30 2165 H 189.704 0.836887 -1.2376 0
M  V30 2166 H 191.586 3.99847 -1.33043 0
M  V30 2167 H 190.261 3.20789 -0.433138 0
M  V30 2168 H 189.168 2.61653 -2.67373 0
M  V30 2169 H 190.501 3.45659 -3.50401 0
M  V30 2170 N 192.153 1.28127 0.917671 0
M  V30 2171 C 193.083 1.14248 2.03641 0
M  V30 2172 C 194.064 0.0412748 1.7005 0
M  V30 2173 O 195.249 0.217566 1.92977 0
M  V30 2174 C 192.379 0.799431 3.37974 0
M  V30 2175 C 191.333 1.85497 3.85713 0
M  V30 2176 C 190.659 1.36565 5.16966 0
M  V30 2177 C 191.959 3.26085 4.08002 0
M  V30 2178 H 193.653 2.07835 2.15511 0
M  V30 2179 H 191.199 1.00064 1.03553 0
M  V30 2180 H 193.152 0.689114 4.15727 0
M  V30 2181 H 191.876 -0.172145 3.26146 0
M  V30 2182 H 190.535 1.95437 3.10161 0
M  V30 2183 H 190.183 0.383253 5.01538 0
M  V30 2184 H 189.883 2.07143 5.49878 0
M  V30 2185 H 191.407 1.26848 5.97279 0
M  V30 2186 H 192.821 3.19089 4.76293 0
M  V30 2187 H 191.218 3.94462 4.52238 0
M  V30 2188 H 192.288 3.70394 3.12948 0
M  V30 2189 N 193.631 -1.12557 1.10312 0
M  V30 2190 C 194.856 -1.88405 0.867085 0
M  V30 2191 C 195.281 -1.79038 -0.576817 0
M  V30 2192 O 194.639 -1.14439 -1.40618 0
M  V30 2193 C 194.687 -3.3563 1.31851 0
M  V30 2194 O 193.791 -4.09565 0.482734 0
M  V30 2195 H 193.132 -0.585455 0.313271 0
M  V30 2196 H 195.662 -1.42352 1.4696 0
M  V30 2197 H 195.672 -3.86469 1.3079 0
M  V30 2198 H 194.347 -3.41765 2.37001 0
M  V30 2199 H 192.924 -3.68695 0.558448 0
M  V30 2200 N 195.109 -0.891671 -1.2995 0
M  V30 2201 C 196.059 -0.334811 -2.25528 0
M  V30 2202 C 197.043 0.540553 -1.51548 0
M  V30 2203 O 198.235 0.383882 -1.72787 0
M  V30 2204 C 195.364 0.44374 -3.4042 0
M  V30 2205 C 194.45 -0.44609 -4.21747 0
M  V30 2206 N 194.841 -1.54963 -4.81477 0
M  V30 2207 C 193.139 -0.242415 -4.45341 0
M  V30 2208 C 193.84 -2.10015 -5.42465 0
M  V30 2209 N 192.816 -1.39423 -5.25416 0
M  V30 2210 H 196.618 -1.17792 -2.69262 0
M  V30 2211 H 194.132 -0.741822 -1.44467 0
M  V30 2212 H 196.129 0.859362 -4.07947 0
M  V30 2213 H 194.789 1.28421 -2.98225 0
M  V30 2214 H 195.8 -1.93244 -4.80497 0
M  V30 2215 H 192.477 0.560342 -4.13723 0
M  V30 2216 H 193.867 -3.02724 -5.9984 0
M  V30 2217 N 196.587 1.43421 -0.653314 0
M  V30 2218 C 197.55 2.29182 0.0287951 0
M  V30 2219 C 198.55 1.42213 0.750465 0
M  V30 2220 O 199.74 1.63843 0.591701 0
M  V30 2221 C 196.872 3.24278 1.05151 0
M  V30 2222 H 198.065 2.90985 -0.725786 0
M  V30 2223 H 195.618 1.50702 -0.414545 0
M  V30 2224 H 196.353 2.6737 1.83532 0
M  V30 2225 H 196.138 3.88396 0.537687 0
M  V30 2226 H 197.628 3.88647 1.52786 0
M  V30 2227 N 198.065 0.39524 1.52563 0
M  V30 2228 C 199.013 -0.451859 2.28169 0
M  V30 2229 C 200.007 -1.05792 1.32304 0
M  V30 2230 O 201.213 -0.997718 1.49818 0
M  V30 2231 H 197.588 -0.164481 0.733792 0
M  V30 2232 H 199.559 0.207199 2.9768 0
M  V30 2233 C 198.308 -1.56385 3.10546 0
M  V30 2234 H 197.631 -1.10682 3.84174 0
M  V30 2235 H 199.071 -2.13067 3.66577 0
M  V30 2236 C 197.53 -2.52328 2.23231 0
M  V30 2237 O 198.06 -3.5588 1.86312 0
M  V30 2238 N 196.266 -2.22209 1.87274 0
M  V30 2239 H 195.813 -1.38033 2.17496 0
M  V30 2240 H 195.771 -2.86652 1.29143 0
M  V30 2241 N 199.544 -1.57102 0.125237 0
M  V30 2242 C 200.507 -2.14471 -0.80838 0
M  V30 2243 C 201.507 -1.0811 -1.19033 0
M  V30 2244 O 202.697 -1.33856 -1.11482 0
M  V30 2245 C 199.829 -2.69005 -2.09402 0
M  V30 2246 H 201.022 -2.98297 -0.309696 0
M  V30 2247 H 198.575 -1.55807 -0.124051 0
M  V30 2248 H 199.31 -1.88785 -2.63687 0
M  V30 2249 H 199.095 -3.46799 -1.82957 0
M  V30 2250 H 200.585 -3.13278 -2.76128 0
M  V30 2251 N 201.022 0.148545 -1.56898 0
M  V30 2252 C 202.25 0.876389 -1.87422 0
M  V30 2253 C 202.665 1.74809 -0.713256 0
M  V30 2254 O 202.022 1.79725 0.317025 0
M  V30 2255 C 202.073 1.73438 -3.17178 0
M  V30 2256 O 201.794 0.897809 -4.28802 0
M  V30 2257 C 203.295 2.56993 -3.61205 0
M  V30 2258 H 200.515 0.253489 -0.621277 0
M  V30 2259 H 203.059 0.141798 -2.04008 0
M  V30 2260 H 201.214 2.42205 -3.0235 0
M  V30 2261 H 201.628 1.48672 -5.02988 0
M  V30 2262 H 203.102 3.12773 -4.54838 0
M  V30 2263 H 203.579 3.32958 -2.86419 0
M  V30 2264 H 204.185 1.9352 -3.78722 0
M  V30 2265 N 202.5 1.5196 0.417844 0
M  V30 2266 C 203.916 1.40569 0.755816 0
M  V30 2267 C 204.116 0.503316 1.95113 0
M  V30 2268 O 203.172 -0.0341925 2.52477 0
M  V30 2269 C 204.485 2.82947 1.01791 0
M  V30 2270 C 206.033 2.92231 1.12116 0
M  V30 2271 C 206.508 4.35559 1.41608 0
M  V30 2272 N 207.999 4.38753 1.48491 0
M  V30 2273 C 208.734 5.46705 1.7292 0
M  V30 2274 N 208.23 6.64788 1.95011 0
M  V30 2275 N 210.023 5.34209 1.74863 0
M  V30 2276 H 202.174 2.09168 -0.369098 0
M  V30 2277 H 204.437 0.942409 -0.102809 0
M  V30 2278 H 204.143 3.5106 0.212081 0
M  V30 2279 H 204.017 3.23462 1.94042 0
M  V30 2280 H 206.404 2.24304 1.9176 0
M  V30 2281 H 206.485 2.55185 0.177225 0
M  V30 2282 H 206.129 5.04042 0.624848 0
M  V30 2283 H 206.059 4.70133 2.37239 0
M  V30 2284 H 208.55 3.5363 1.33244 0
M  V30 2285 H 208.863 7.42845 2.13076 0
M  V30 2286 H 207.208 6.67869 1.92293 0
M  V30 2287 H 210.399 4.40937 1.57137 0
M  V30 2288 H 210.572 6.18415 1.93563 0
M  V30 2289 N 203.978 -0.674533 1.42435 0
M  V30 2290 C 204.926 -1.80934 1.46169 0
M  V30 2291 C 205.92 -1.66006 0.3374 0
M  V30 2292 O 207.126 -1.72611 0.510425 0
M  V30 2293 H 203.501 -0.596594 0.457798 0
M  V30 2294 H 205.472 -1.74903 2.41767 0
M  V30 2295 C 204.221 -3.19088 1.38123 0
M  V30 2296 H 203.544 -3.31203 2.23931 0
M  V30 2297 H 204.984 -3.9851 1.44797 0
M  V30 2298 C 203.443 -3.36763 0.0960517 0
M  V30 2299 O 203.973 -3.92581 -0.851073 0
M  V30 2300 N 202.179 -2.90597 0.0131186 0
M  V30 2301 H 201.726 -2.45359 0.784639 0
M  V30 2302 H 201.684 -3.028 -0.846133 0
M  V30 2303 N 205.456 -1.28612 -0.910864 0
M  V30 2304 C 206.386 -1.15326 -2.03032 0
M  V30 2305 C 207.367 -0.0502924 -1.70026 0
M  V30 2306 O 208.552 -0.227797 -1.92859 0
M  V30 2307 C 205.682 -0.817343 -3.37545 0
M  V30 2308 C 204.636 -1.8754 -3.84724 0
M  V30 2309 C 203.962 -1.39305 -5.16235 0
M  V30 2310 C 205.262 -3.28244 -4.06267 0
M  V30 2311 H 206.956 -2.08975 -2.14406 0
M  V30 2312 H 204.502 -1.00612 -1.03021 0
M  V30 2313 H 206.455 -0.711151 -4.15356 0
M  V30 2314 H 205.179 0.154846 -3.26233 0
M  V30 2315 H 203.838 -1.97079 -3.09121 0
M  V30 2316 H 203.486 -0.409846 -5.01328 0
M  V30 2317 H 203.186 -2.10057 -5.48771 0
M  V30 2318 H 204.71 -1.30014 -5.96598 0
M  V30 2319 H 206.124 -3.21611 -4.74594 0
M  V30 2320 H 204.521 -3.96855 -4.5014 0
M  V30 2321 H 205.591 -3.72048 -3.10979 0
M  V30 2322 N 206.934 1.1197 -1.10907 0
M  V30 2323 C 207.882 2.19927 -0.757303 0
M  V30 2324 C 208.876 1.67564 0.248747 0
M  V30 2325 O 210.082 1.79672 0.108605 0
M  V30 2326 H 206.457 0.716925 -0.226987 0
M  V30 2327 H 208.428 2.46847 -1.67658 0
M  V30 2328 C 207.177 3.47061 -0.210671 0
M  V30 2329 H 206.5 3.87703 -0.976049 0
M  V30 2330 H 207.94 4.24 -0.0026584 0
M  V30 2331 C 206.399 3.19864 1.05777 0
M  V30 2332 O 206.929 3.40049 2.13845 0
M  V30 2333 N 205.135 2.73636 0.978349 0
M  V30 2334 H 204.682 2.5741 0.0988246 0
M  V30 2335 H 204.64 2.55815 1.82773 0
M  V30 2336 N 208.412 0.89855 1.29475 0
M  V30 2337 C 209.659 0.523882 1.95606 0
M  V30 2338 C 209.987 -0.929608 1.70847 0
M  V30 2339 O 209.242 -1.67401 1.01367 0
M  V30 2340 C 209.541 0.761398 3.49195 0
M  V30 2341 C 209.207 2.19207 3.94029 0
M  V30 2342 C 207.869 2.58326 4.05982 0
M  V30 2343 C 210.221 3.12379 4.17216 0
M  V30 2344 C 207.549 3.898 4.38489 0
M  V30 2345 C 209.901 4.43401 4.51197 0
M  V30 2346 C 208.565 4.82394 4.61359 0
M  V30 2347 H 207.835 0.191702 0.715773 0
M  V30 2348 H 210.482 1.13699 1.54094 0
M  V30 2349 H 208.787 0.0653622 3.91745 0
M  V30 2350 H 210.484 0.450904 3.98457 0
M  V30 2351 H 207.074 1.87846 3.85242 0
M  V30 2352 H 211.258 2.83371 4.07449 0
M  V30 2353 H 206.514 4.19734 4.44559 0
M  V30 2354 H 210.688 5.15623 4.68087 0
M  V30 2355 H 208.315 5.84306 4.86303 0
M  V30 2356 N 209.89 -1.43072 0.660911 0
M  V30 2357 C 211.115 -2.06584 0.183805 0
M  V30 2358 C 211.54 -1.49257 -1.14472 0
M  V30 2359 O 210.898 -0.605528 -1.70889 0
M  V30 2360 C 210.946 -3.60418 0.114434 0
M  V30 2361 O 210.05 -4.01981 -0.921137 0
M  V30 2362 H 209.391 -0.656669 0.0983994 0
M  V30 2363 H 211.921 -1.83447 0.906006 0
M  V30 2364 H 211.931 -4.07946 -0.0663394 0
M  V30 2365 H 210.606 -4.01519 1.08422 0
M  V30 2366 H 209.183 -3.66029 -0.71253 0
M  V30 2367 N 211.368 -0.403325 -1.52352 0
M  V30 2368 C 212.617 0.175668 -2.00934 0
M  V30 2369 C 212.93 1.46718 -1.29356 0
M  V30 2370 O 214.136 2.12708 -1.68724 0
M  V30 2371 C 212.592 0.363612 -3.58058 0
M  V30 2372 C 212.2 -0.915472 -4.38547 0
M  V30 2373 C 213.944 0.89821 -4.14888 0
M  V30 2374 C 211.851 -0.695035 -5.87302 0
M  V30 2375 H 210.781 0.0694234 -0.750797 0
M  V30 2376 H 213.432 -0.527879 -1.75743 0
M  V30 2377 H 211.814 1.12935 -3.79555 0
M  V30 2378 H 212.988 -1.68691 -4.28812 0
M  V30 2379 H 211.303 -1.37606 -3.93006 0
M  V30 2380 H 213.9 1.07907 -5.23699 0
M  V30 2381 H 214.243 1.87126 -3.71873 0
M  V30 2382 H 214.776 0.191681 -3.97338 0
M  V30 2383 H 211.515 -1.63948 -6.34666 0
M  V30 2384 H 211.035 0.0372116 -5.99788 0
M  V30 2385 H 212.714 -0.33497 -6.46132 0
M  V30 2386 N 212.846 1.57033 -0.133567 0
M  V30 2387 C 214.092 1.96764 0.515326 0
M  V30 2388 C 214.447 1.01653 1.63353 0
M  V30 2389 O 213.74 0.0491374 1.91537 0
M  V30 2390 C 213.934 3.40674 1.08057 0
M  V30 2391 C 213.763 4.49696 0.0186522 0
M  V30 2392 C 212.533 5.03567 -0.418174 0
M  V30 2393 C 214.731 5.08536 -0.767809 0
M  V30 2394 N 212.713 5.9618 -1.46434 0
M  V30 2395 C 214.084 5.97231 -1.6648 0
M  V30 2396 C 216.139 4.9115 -0.817087 0
M  V30 2397 C 214.842 6.70401 -2.60681 0
M  V30 2398 C 216.868 5.65012 -1.74687 0
M  V30 2399 C 216.23 6.53403 -2.63141 0
M  V30 2400 H 212.329 0.765919 0.157771 0
M  V30 2401 H 214.913 1.93395 -0.22506 0
M  V30 2402 H 213.084 3.44662 1.79061 0
M  V30 2403 H 214.816 3.67495 1.69497 0
M  V30 2404 H 211.571 4.73594 -0.0229803 0
M  V30 2405 H 211.995 6.47191 -1.98678 0
M  V30 2406 H 216.637 4.22543 -0.147326 0
M  V30 2407 H 214.355 7.38245 -3.28664 0
M  V30 2408 H 217.941 5.53559 -1.79063 0
M  V30 2409 H 216.821 7.09556 -3.33917 0
M  V30 2410 N 214.325 -0.140222 1.56975 0
M  V30 2411 C 215.273 -1.19207 1.99731 0
M  V30 2412 C 216.267 -1.44089 0.890777 0
M  V30 2413 O 217.473 -1.44301 1.07597 0
M  V30 2414 H 213.848 -0.40142 0.635898 0
M  V30 2415 H 215.819 -0.804813 2.87342 0
M  V30 2416 C 214.568 -2.51617 2.39967 0
M  V30 2417 H 213.891 -2.33303 3.24669 0
M  V30 2418 H 215.331 -3.23827 2.73701 0
M  V30 2419 C 213.79 -3.12654 1.25496 0
M  V30 2420 O 214.32 -3.97786 0.559371 0
M  V30 2421 N 212.526 -2.72206 1.01746 0
M  V30 2422 H 212.073 -2.03074 1.58489 0
M  V30 2423 H 212.031 -3.13377 0.253461 0
M  V30 2424 N 215.803 -1.52179 -0.40978 0
M  V30 2425 C 216.753 -1.71857 -1.49831 0
M  V30 2426 C 217.737 -0.572469 -1.50372 0
M  V30 2427 O 218.929 -0.829509 -1.56359 0
M  V30 2428 C 216.058 -1.87206 -2.87765 0
M  V30 2429 C 215.144 -3.07685 -2.91875 0
M  V30 2430 N 215.535 -4.30403 -2.65683 0
M  V30 2431 C 213.833 -3.07505 -3.23043 0
M  V30 2432 C 214.534 -5.11868 -2.76344 0
M  V30 2433 N 213.51 -4.47101 -3.09195 0
M  V30 2434 H 217.312 -2.64381 -1.28375 0
M  V30 2435 H 214.826 -1.50203 -0.617479 0
M  V30 2436 H 216.823 -1.99419 -3.66111 0
M  V30 2437 H 215.483 -0.958814 -3.10221 0
M  V30 2438 H 216.494 -4.58887 -2.4009 0
M  V30 2439 H 213.171 -2.25915 -3.51096 0
M  V30 2440 H 214.561 -6.19634 -2.59814 0
M  V30 2441 N 217.281 0.66697 -1.42791 0
M  V30 2442 C 218.509 1.45505 -1.47091 0
M  V30 2443 C 218.924 1.8861 -0.0845873 0
M  V30 2444 O 218.281 1.58632 0.90234 0
M  V30 2445 C 218.332 2.69906 -2.40485 0
M  V30 2446 O 218.053 2.28608 -3.73725 0
M  V30 2447 C 219.554 3.63396 -2.53886 0
M  V30 2448 H 216.774 0.447459 -0.500022 0
M  V30 2449 H 219.318 0.818866 -1.8739 0
M  V30 2450 H 217.473 3.29696 -2.03419 0
M  V30 2451 H 217.887 3.08997 -4.23817 0
M  V30 2452 H 219.361 4.47387 -3.2334 0
M  V30 2453 H 219.838 4.09824 -1.57927 0
M  V30 2454 H 220.444 3.09495 -2.91706 0
M  V30 2455 N 218.759 1.29093 0.90403 0
M  V30 2456 C 220.17 1.15186 1.46932 0
M  V30 2457 C 220.521 -0.254587 1.94541 0
M  V30 2458 O 219.646 -1.14972 1.83332 0
M  V30 2459 C 220.241 2.08492 2.67051 0
M  V30 2460 C 218.8 1.98621 3.19729 0
M  V30 2461 C 217.947 1.9967 1.92425 0
M  V30 2462 H 220.898 1.41641 0.715789 0
M  V30 2463 H 220.919 1.65461 3.42641 0
M  V30 2464 H 220.431 3.10847 2.3237 0
M  V30 2465 H 218.532 0.993389 3.59114 0
M  V30 2466 H 218.645 2.86068 3.8432 0
M  V30 2467 H 217.009 1.44208 2.09943 0
M  V30 2468 H 217.792 3.03721 1.60026 0
M  V30 2469 N 220.237 -1.11381 1.11499 0
M  V30 2470 C 221.167 -2.19509 0.796125 0
M  V30 2471 C 222.148 -1.68458 -0.235796 0
M  V30 2472 O 223.333 -1.93947 -0.0991344 0
M  V30 2473 C 220.463 -3.46475 0.239205 0
M  V30 2474 C 219.417 -4.10744 1.20307 0
M  V30 2475 C 218.743 -5.32293 0.50683 0
M  V30 2476 C 220.043 -4.55597 2.55399 0
M  V30 2477 H 221.737 -2.46439 1.70024 0
M  V30 2478 H 219.283 -1.18446 0.818935 0
M  V30 2479 H 221.236 -4.214 0.00392006 0
M  V30 2480 H 219.96 -3.19006 -0.700206 0
M  V30 2481 H 218.619 -3.37813 1.42399 0
M  V30 2482 H 218.267 -5.01095 -0.437408 0
M  V30 2483 H 217.967 -5.76243 1.1497 0
M  V30 2484 H 219.491 -6.09956 0.280351 0
M  V30 2485 H 220.905 -5.21841 2.37391 0
M  V30 2486 H 219.302 -5.10363 3.15673 0
M  V30 2487 H 220.372 -3.69013 3.14575 0
M  V30 2488 N 221.715 -0.905404 -1.28997 0
M  V30 2489 C 222.961 -0.535039 -1.95615 0
M  V30 2490 C 223.294 0.917404 -1.71165 0
M  V30 2491 O 222.569 1.65123 -1.02785 0
M  V30 2492 C 222.852 -0.834918 -3.50287 0
M  V30 2493 C 222.705 -2.33948 -3.84172 0
M  V30 2494 C 224.024 -0.325318 -4.38896 0
M  V30 2495 H 221.143 -0.195861 -0.710498 0
M  V30 2496 H 223.785 -1.13313 -1.52513 0
M  V30 2497 H 221.935 -0.325904 -3.87131 0
M  V30 2498 H 223.607 -2.91847 -3.57243 0
M  V30 2499 H 221.85 -2.79789 -3.31513 0
M  V30 2500 H 222.521 -2.49987 -4.92149 0
M  V30 2501 H 224.997 -0.761256 -4.09077 0
M  V30 2502 H 223.873 -0.564295 -5.45992 0
M  V30 2503 H 224.134 0.774144 -4.35269 0
M  V30 2504 N 223.193 1.4272 -0.668489 0
M  V30 2505 C 224.123 2.335 -0.000100175 0
M  V30 2506 C 225.104 1.50328 0.795964 0
M  V30 2507 O 226.289 1.78949 0.754385 0
M  V30 2508 C 223.419 3.33874 0.956302 0
M  V30 2509 C 222.373 4.27152 0.269278 0
M  V30 2510 C 221.699 5.17684 1.33818 0
M  V30 2511 C 222.999 5.15373 -0.847805 0
M  V30 2512 H 224.693 2.89639 -0.758244 0
M  V30 2513 H 222.239 1.39269 -0.366079 0
M  V30 2514 H 224.192 3.9629 1.43292 0
M  V30 2515 H 222.916 2.76025 1.74579 0
M  V30 2516 H 221.575 3.66123 -0.187042 0
M  V30 2517 H 221.223 4.56165 2.1195 0
M  V30 2518 H 220.923 5.80918 0.883659 0
M  V30 2519 H 222.447 5.82974 1.81586 0
M  V30 2520 H 223.861 5.7151 -0.452681 0
M  V30 2521 H 222.258 5.87407 -1.22773 0
M  V30 2522 H 223.328 4.5415 -1.69929 0
M  V30 2523 N 224.671 0.411399 1.52136 0
M  V30 2524 C 225.92 -0.165009 2.01024 0
M  V30 2525 C 226.233 -1.4603 1.30133 0
M  V30 2526 O 227.439 -2.1181 1.69849 0
M  V30 2527 C 225.895 -0.344618 3.58246 0
M  V30 2528 C 225.503 0.938716 4.38055 0
M  V30 2529 C 227.247 -0.876195 4.15359 0
M  V30 2530 C 225.154 0.726172 5.86925 0
M  V30 2531 H 224.084 -0.0654407 0.751155 0
M  V30 2532 H 226.735 0.537192 1.75461 0
M  V30 2533 H 225.117 -1.10921 3.80148 0
M  V30 2534 H 226.291 1.70963 4.27912 0
M  V30 2535 H 224.606 1.39688 3.92271 0
M  V30 2536 H 227.203 -1.05128 5.24263 0
M  V30 2537 H 227.546 -1.85152 3.7286 0
M  V30 2538 H 228.079 -0.170607 3.97434 0
M  V30 2539 H 224.818 1.67312 6.33788 0
M  V30 2540 H 224.338 -0.00540283 5.998 0
M  V30 2541 H 226.017 0.369231 6.45946 0
M  V30 2542 N 226.149 -1.5696 0.141893 0
M  V30 2543 C 227.426 -1.87553 -0.555281 0
M  V30 2544 C 227.806 -1.04699 -1.83306 0
M  V30 2545 O 227.154 -0.132346 -2.28116 0
M  V30 2546 C 227.364 -3.39093 -0.825664 0
M  V30 2547 C 228.712 -4.08199 -1.16869 0
M  V30 2548 O 229.736 -3.44242 -0.915185 0
M  V30 2549 O 228.595 -5.21139 -1.6455 0
M  V30 2550 H 225.689 -0.777188 -0.282679 0
M  V30 2551 H 228.235 -1.68763 0.17812 0
M  V30 2552 H 227.007 -3.91221 0.0788633 0
M  V30 2553 H 226.63 -3.63393 -1.61343 0
M  V30 2554 N 227.627 0.131896 -1.57047 0
M  V30 2555 C 228.537 1.1815 -2.02676 0
M  V30 2556 C 229.553 1.46113 -0.944824 0
M  V30 2557 O 230.729 1.57485 -1.25541 0
M  V30 2558 C 227.794 2.49139 -2.41103 0
M  V30 2559 C 226.855 2.28688 -3.63318 0
M  V30 2560 C 226.088 3.53431 -3.99903 0
M  V30 2561 O 226.311 4.60223 -3.36973 0
M  V30 2562 O 225.245 3.45198 -4.93074 0
M  V30 2563 H 229.071 0.824069 -2.92306 0
M  V30 2564 H 226.656 0.341745 -1.45439 0
M  V30 2565 H 228.538 3.26338 -2.66611 0
M  V30 2566 H 227.213 2.84382 -1.54624 0
M  V30 2567 H 226.12 1.4939 -3.42977 0
M  V30 2568 H 227.453 1.98355 -4.50462 0
M  V30 2569 N 229.106 1.52395 0.401703 0
M  V30 2570 C 230.522 1.41363 0.740864 0
M  V30 2571 C 230.722 0.523982 1.94568 0
M  V30 2572 O 229.778 -0.00741204 2.52499 0
M  V30 2573 C 231.091 2.84011 0.987847 0
M  V30 2574 C 232.639 2.93404 1.09011 0
M  V30 2575 C 233.114 4.37036 1.3698 0
M  V30 2576 N 234.605 4.40304 1.43829 0
M  V30 2577 C 235.34 5.48508 1.67112 0
M  V30 2578 N 234.836 6.66819 1.87949 0
M  V30 2579 N 236.629 5.36034 1.69187 0
M  V30 2580 H 228.78 2.08765 -0.391262 0
M  V30 2581 H 231.043 0.941265 -0.112798 0
M  V30 2582 H 230.749 3.51265 0.174835 0
M  V30 2583 H 230.623 3.25502 1.906 0
M  V30 2584 H 233.01 2.26325 1.8937 0
M  V30 2585 H 233.091 2.55359 0.15015 0
M  V30 2586 H 232.735 5.04676 0.571353 0
M  V30 2587 H 232.665 4.72623 2.3224 0
M  V30 2588 H 235.156 3.55024 1.29486 0
M  V30 2589 H 235.469 7.45063 2.05185 0
M  V30 2590 H 233.814 6.6987 1.85199 0
M  V30 2591 H 237.005 4.42579 1.52451 0
M  V30 2592 H 237.178 6.20434 1.86993 0
M  V30 2593 N 230.584 -0.659388 1.43143 0
M  V30 2594 C 231.532 -1.79374 1.4808 0
M  V30 2595 C 232.526 -1.65639 0.354988 0
M  V30 2596 O 233.732 -1.7206 0.528704 0
M  V30 2597 H 230.107 -0.591705 0.4641 0
M  V30 2598 H 232.078 -1.72329 2.43609 0
M  V30 2599 C 230.827 -3.17606 1.41499 0
M  V30 2600 H 230.15 -3.28809 2.27431 0
M  V30 2601 H 231.59 -3.96951 1.49015 0
M  V30 2602 C 230.049 -3.36642 0.131765 0
M  V30 2603 O 230.579 -3.93461 -0.809386 0
M  V30 2604 N 228.785 -2.90567 0.0439396 0
M  V30 2605 H 228.332 -2.44513 0.810619 0
M  V30 2606 H 228.29 -3.03681 -0.813969 0
M  V30 2607 N 232.062 -1.29571 -0.897171 0
M  V30 2608 C 233.473 -1.15964 -1.46319 0
M  V30 2609 C 233.824 0.244267 -1.94674 0
M  V30 2610 O 232.949 1.13998 -1.83939 0
M  V30 2611 C 233.544 -2.09906 -2.65942 0
M  V30 2612 C 232.103 -2.00314 -3.18671 0
M  V30 2613 C 231.25 -2.00687 -1.91363 0
M  V30 2614 H 234.201 -1.42019 -0.708268 0
M  V30 2615 H 234.222 -1.67276 -3.41759 0
M  V30 2616 H 233.734 -3.12075 -2.30718 0
M  V30 2617 H 231.835 -1.01242 -3.58582 0
M  V30 2618 H 231.948 -2.88102 -3.82798 0
M  V30 2619 H 230.312 -1.45319 -2.09175 0
M  V30 2620 H 231.095 -3.04566 -1.58413 0
M  V30 2621 N 233.54 1.10788 -1.12088 0
M  V30 2622 C 234.49 2.15158 -0.754401 0
M  V30 2623 C 235.474 1.59026 0.244846 0
M  V30 2624 O 236.666 1.76927 0.0509097 0
M  V30 2625 C 233.795 3.42677 -0.206657 0
M  V30 2626 C 232.881 4.05751 -1.23398 0
M  V30 2627 N 233.272 4.43582 -2.43041 0
M  V30 2628 C 231.57 4.32764 -1.07848 0
M  V30 2629 C 232.271 4.93085 -3.08613 0
M  V30 2630 N 231.247 4.89664 -2.36072 0
M  V30 2631 H 235.049 2.42195 -1.6649 0
M  V30 2632 H 232.563 1.27872 -1.00112 0
M  V30 2633 H 234.56 4.16834 0.0740646 0
M  V30 2634 H 233.22 3.17101 0.698342 0
M  V30 2635 H 234.231 4.35395 -2.80449 0
M  V30 2636 H 230.908 4.16863 -0.230483 0
M  V30 2637 H 232.298 5.31933 -4.10483 0
M  V30 2638 N 235.018 0.912232 1.28515 0
M  V30 2639 C 235.968 0.370649 2.24967 0
M  V30 2640 C 236.952 -0.516375 1.52389 0
M  V30 2641 O 238.144 -0.356345 1.73376 0
M  V30 2642 C 235.273 -0.389526 3.41083 0
M  V30 2643 C 234.359 0.51313 4.20984 0
M  V30 2644 N 234.75 1.62604 4.78951 0
M  V30 2645 C 233.048 0.313235 4.44899 0
M  V30 2646 C 233.749 2.18619 5.39055 0
M  V30 2647 N 232.725 1.47765 5.23132 0
M  V30 2648 H 236.527 1.22061 2.67354 0
M  V30 2649 H 234.041 0.764712 1.43269 0
M  V30 2650 H 236.038 -0.794353 4.09262 0
M  V30 2651 H 234.698 -1.2366 3.0023 0
M  V30 2652 H 235.709 2.00864 4.77362 0
M  V30 2653 H 232.386 -0.494452 4.14562 0
M  V30 2654 H 233.776 3.12228 5.94948 0
M  V30 2655 N 236.496 -1.42363 0.676048 0
M  V30 2656 C 237.907 -1.84649 0.275948 0
M  V30 2657 C 238.258 -1.56588 -1.18214 0
M  V30 2658 O 237.383 -1.02634 -1.90513 0
M  V30 2659 C 237.978 -3.35178 0.494053 0
M  V30 2660 C 236.537 -3.76109 0.148061 0
M  V30 2661 C 235.684 -2.65931 0.785891 0
M  V30 2662 H 238.635 -1.32192 0.878121 0
M  V30 2663 H 238.656 -3.79655 -0.25343 0
M  V30 2664 H 238.168 -3.55571 1.55535 0
M  V30 2665 H 236.269 -3.61323 -0.909742 0
M  V30 2666 H 236.382 -4.7546 0.589454 0
M  V30 2667 H 234.746 -2.53773 0.217113 0
M  V30 2668 H 235.529 -2.89146 1.85067 0
M  V30 2669 N 237.974 -0.419461 -1.51915 0
M  V30 2670 C 238.907 0.445751 -2.23804 0
M  V30 2671 C 239.885 1.03951 -1.25031 0
M  V30 2672 O 241.069 1.08541 -1.54114 0
M  V30 2673 C 238.196 1.61964 -2.97465 0
M  V30 2674 C 237.242 1.14828 -4.10751 0
M  V30 2675 S 238.075 0.104938 -5.35397 0
M  V30 2676 C 239.231 1.28391 -6.1259 0
M  V30 2677 H 239.464 -0.164627 -2.96844 0
M  V30 2678 H 236.997 -0.203833 -1.53049 0
M  V30 2679 H 238.955 2.29271 -3.40507 0
M  V30 2680 H 237.616 2.20139 -2.24048 0
M  V30 2681 H 236.809 2.02561 -4.61503 0
M  V30 2682 H 236.411 0.553712 -3.69878 0
M  V30 2683 H 238.703 2.20563 -6.40592 0
M  V30 2684 H 239.646 0.816724 -7.03374 0
M  V30 2685 H 240.054 1.51439 -5.43807 0
M  V30 2686 N 239.452 1.56882 -0.150215 0
M  V30 2687 C 240.698 1.96518 0.500834 0
M  V30 2688 C 241.031 1.03527 1.64304 0
M  V30 2689 O 240.306 0.0782751 1.94342 0
M  V30 2690 C 240.589 3.45822 1.00395 0
M  V30 2691 C 240.442 4.49591 -0.136983 0
M  V30 2692 C 241.761 3.97704 1.88467 0
M  V30 2693 H 238.88 0.714535 0.18058 0
M  V30 2694 H 241.522 1.88577 -0.232091 0
M  V30 2695 H 239.672 3.5272 1.62851 0
M  V30 2696 H 241.344 4.5477 -0.77343 0
M  V30 2697 H 239.587 4.26441 -0.795652 0
M  V30 2698 H 240.258 5.51402 0.256815 0
M  V30 2699 H 242.734 3.93304 1.35834 0
M  V30 2700 H 241.61 5.0263 2.20578 0
M  V30 2701 H 241.871 3.40252 2.82279 0
M  V30 2702 N 240.93 -0.123565 1.57115 0
M  V30 2703 C 241.86 -1.15309 2.03042 0
M  V30 2704 C 242.841 -1.43454 0.914061 0
M  V30 2705 O 244.026 -1.53973 1.18347 0
M  V30 2706 C 241.156 -2.48043 2.43089 0
M  V30 2707 C 240.11 -2.3437 3.58127 0
M  V30 2708 C 239.436 -3.72026 3.84059 0
M  V30 2709 C 240.736 -1.80804 4.90007 0
M  V30 2710 H 242.43 -0.771102 2.893 0
M  V30 2711 H 239.976 -0.369479 1.39179 0
M  V30 2712 H 241.929 -3.20311 2.73823 0
M  V30 2713 H 240.653 -2.88122 1.53796 0
M  V30 2714 H 239.312 -1.64551 3.27595 0
M  V30 2715 H 238.96 -4.09582 2.91979 0
M  V30 2716 H 238.66 -3.63732 4.6149 0
M  V30 2717 H 240.184 -4.45806 4.1724 0
M  V30 2718 H 241.598 -2.42886 5.19307 0
M  V30 2719 H 239.995 -1.83343 5.71407 0
M  V30 2720 H 241.065 -0.76528 4.78823 0
M  V30 2721 N 242.408 -1.52605 -0.393616 0
M  V30 2722 C 243.685 -1.58001 -1.15304 0
M  V30 2723 C 244.065 -0.370385 -2.07825 0
M  V30 2724 O 243.413 0.641638 -2.19306 0
M  V30 2725 C 243.623 -2.91652 -1.91677 0
M  V30 2726 C 244.971 -3.4522 -2.47201 0
M  V30 2727 O 245.995 -2.93495 -2.01839 0
M  V30 2728 O 244.854 -4.35579 -3.3005 0
M  V30 2729 H 241.948 -0.637068 -0.527327 0
M  V30 2730 H 244.494 -1.64939 -0.399141 0
M  V30 2731 H 243.266 -3.71136 -1.23992 0
M  V30 2732 H 242.889 -2.88077 -2.74039 0
M  V30 2733 N 243.887 0.651787 -1.4349 0
M  V30 2734 C 244.817 1.77621 -1.51569 0
M  V30 2735 C 245.798 1.66022 -0.370253 0
M  V30 2736 O 246.983 1.85095 -0.587658 0
M  V30 2737 C 244.113 3.16056 -1.43966 0
M  V30 2738 C 243.067 3.4242 -2.56774 0
M  V30 2739 C 242.393 4.8067 -2.34223 0
M  V30 2740 C 243.693 3.37023 -3.99015 0
M  V30 2741 H 245.387 1.71117 -2.45681 0
M  V30 2742 H 242.933 0.821825 -1.18246 0
M  V30 2743 H 244.886 3.94472 -1.48221 0
M  V30 2744 H 243.61 3.23293 -0.463586 0
M  V30 2745 H 242.269 2.66375 -2.51873 0
M  V30 2746 H 241.917 4.84585 -1.34856 0
M  V30 2747 H 241.617 4.9927 -3.09844 0
M  V30 2748 H 243.141 5.61342 -2.40265 0
M  V30 2749 H 244.555 4.05374 -4.05395 0
M  V30 2750 H 242.952 3.67159 -4.74673 0
M  V30 2751 H 244.022 2.3518 -4.2405 0
M  V30 2752 N 245.365 1.30045 0.890287 0
M  V30 2753 C 246.612 1.18561 1.64163 0
M  V30 2754 C 246.94 -0.260852 1.92743 0
M  V30 2755 O 246.195 -1.20376 1.54299 0
M  V30 2756 C 246.494 1.95409 2.99249 0
M  V30 2757 C 246.16 3.45066 2.90242 0
M  V30 2758 C 244.822 3.85878 2.87492 0
M  V30 2759 C 247.174 4.4039 2.78758 0
M  V30 2760 C 244.502 5.20314 2.7109 0
M  V30 2761 C 246.854 5.74928 2.63894 0
M  V30 2762 C 245.518 6.14986 2.59516 0
M  V30 2763 H 244.788 0.433846 0.600715 0
M  V30 2764 H 247.435 1.61088 1.03552 0
M  V30 2765 H 245.74 1.45501 3.63781 0
M  V30 2766 H 247.437 1.8392 3.56334 0
M  V30 2767 H 244.027 3.12631 2.93189 0
M  V30 2768 H 248.211 4.09806 2.79952 0
M  V30 2769 H 243.467 5.50449 2.66112 0
M  V30 2770 H 247.641 6.48434 2.53981 0
M  V30 2771 H 245.268 7.19104 2.46565 0
M  V30 2772 N 246.843 -1.10192 1.12674 0
M  V30 2773 C 248.091 -1.81845 0.881861 0
M  V30 2774 C 248.412 -1.85737 -0.593867 0
M  V30 2775 O 247.682 -1.33724 -1.4316 0
M  V30 2776 H 246.262 -0.673432 0.323261 0
M  V30 2777 H 248.924 -1.33316 1.42172 0
M  V30 2778 H 248.02 -2.85288 1.2656 0
M  V30 2779 N 248.321 -0.919034 -1.28029 0
M  V30 2780 C 249.598 -0.473668 -1.89778 0
M  V30 2781 C 249.978 1.04783 -1.83259 0
M  V30 2782 O 249.326 1.8982 -1.27202 0
M  V30 2783 C 249.536 -1.00998 -3.34066 0
M  V30 2784 C 250.884 -1.06525 -4.1102 0
M  V30 2785 O 251.908 -0.958996 -3.43048 0
M  V30 2786 O 250.767 -1.22776 -5.3253 0
M  V30 2787 H 247.861 -0.15098 -0.813101 0
M  V30 2788 H 250.407 -1.01016 -1.36359 0
M  V30 2789 H 249.179 -2.05392 -3.33061 0
M  V30 2790 H 248.802 -0.454626 -3.94992 0
M  V30 2791 N 249.799 1.42003 -0.683588 0
M  V30 2792 C 250.747 2.326 0.000815408 0
M  V30 2793 C 251.741 1.50308 0.781278 0
M  V30 2794 O 252.947 1.66322 0.688251 0
M  V30 2795 H 249.322 0.751758 0.0190616 0
M  V30 2796 H 251.293 2.88011 -0.780528 0
M  V30 2797 C 250.042 3.34978 0.93195 0
M  V30 2798 H 249.365 3.98345 0.340817 0
M  V30 2799 H 250.805 4.00936 1.37936 0
M  V30 2800 C 249.264 2.67925 2.04249 0
M  V30 2801 O 249.794 2.51788 3.12995 0
M  V30 2802 N 248 2.2681 1.81675 0
M  V30 2803 H 247.547 2.40135 0.932363 0
M  V30 2804 H 247.505 1.8228 2.56167 0
M  V30 2805 N 251.277 0.427512 1.51691 0
M  V30 2806 C 252.227 -0.406604 2.24345 0
M  V30 2807 C 253.211 -0.998276 1.26187 0
M  V30 2808 O 254.403 -0.918045 1.51331 0
M  V30 2809 C 251.532 -1.51266 3.08177 0
M  V30 2810 C 250.618 -0.930868 4.13758 0
M  V30 2811 N 251.009 -0.0773552 5.05741 0
M  V30 2812 C 249.307 -1.19948 4.29568 0
M  V30 2813 C 250.008 0.248344 5.8117 0
M  V30 2814 N 248.984 -0.365535 5.4237 0
M  V30 2815 H 252.786 0.251581 2.92821 0
M  V30 2816 H 250.3 0.239003 1.60632 0
M  V30 2817 H 252.297 -2.123 3.58796 0
M  V30 2818 H 250.957 -2.17328 2.41244 0
M  V30 2819 H 251.968 0.288351 5.17097 0
M  V30 2820 H 248.645 -1.85832 3.73862 0
M  V30 2821 H 250.035 0.942286 6.6526 0
M  V30 2822 N 252.755 -1.56801 0.158532 0
M  V30 2823 C 253.703 -2.18638 -0.793729 0
M  V30 2824 C 254.697 -1.14669 -1.24689 0
M  V30 2825 O 255.903 -1.32895 -1.21403 0
M  V30 2826 H 252.278 -0.700226 -0.274204 0
M  V30 2827 H 254.249 -2.97367 -0.248095 0
M  V30 2828 C 252.998 -2.83139 -2.0181 0
M  V30 2829 H 252.321 -3.62863 -1.67841 0
M  V30 2830 H 253.761 -3.29894 -2.66357 0
M  V30 2831 C 252.22 -1.82244 -2.83353 0
M  V30 2832 O 252.75 -1.3 -3.80083 0
M  V30 2833 N 250.956 -1.51288 -2.48114 0
M  V30 2834 H 250.503 -1.93964 -1.69516 0
M  V30 2835 H 250.461 -0.840296 -3.02963 0
M  V30 2836 N 254.233 0.115231 -1.57178 0
M  V30 2837 C 255.481 0.820727 -1.84685 0
M  V30 2838 C 255.802 1.80237 -0.744279 0
M  V30 2839 O 255.072 1.94529 0.231375 0
M  V30 2840 H 253.652 0.306084 -0.681411 0
M  V30 2841 H 256.314 0.101656 -1.94635 0
M  V30 2842 H 255.41 1.36366 -2.80733 0
M  V30 2843 N 255.711 1.52812 0.385517 0
M  V30 2844 C 256.641 1.80808 1.47752 0
M  V30 2845 C 257.622 0.660318 1.5676 0
M  V30 2846 O 258.807 0.908246 1.71652 0
M  V30 2847 C 255.937 1.98008 2.85324 0
M  V30 2848 C 254.891 3.13709 2.91154 0
M  V30 2849 C 254.217 3.16169 4.31209 0
M  V30 2850 C 255.517 4.52709 2.60483 0
M  V30 2851 H 257.211 2.72253 1.24573 0
M  V30 2852 H 254.757 1.31003 0.597839 0
M  V30 2853 H 256.71 2.16176 3.61726 0
M  V30 2854 H 255.434 1.03255 3.09848 0
M  V30 2855 H 254.093 2.95329 2.17201 0
M  V30 2856 H 253.741 2.19092 4.52778 0
M  V30 2857 H 253.441 3.93894 4.36029 0
M  V30 2858 H 254.965 3.36496 5.09512 0
M  V30 2859 H 256.379 4.71173 3.26602 0
M  V30 2860 H 254.776 5.32528 2.76648 0
M  V30 2861 H 255.846 4.59186 1.55809 0
M  V30 2862 N 257.189 -0.644168 1.43834 0
M  V30 2863 C 258.417 -1.43147 1.49387 0
M  V30 2864 C 258.832 -1.88452 0.114583 0
M  V30 2865 O 258.189 -1.60047 -0.876989 0
M  V30 2866 C 258.24 -2.66046 2.44748 0
M  V30 2867 O 257.961 -2.22633 3.77314 0
M  V30 2868 C 259.462 -3.59311 2.59635 0
M  V30 2869 H 256.682 -0.439447 0.507077 0
M  V30 2870 H 259.226 -0.78895 1.88669 0
M  V30 2871 H 257.381 -3.26418 2.08638 0
M  V30 2872 H 257.795 -3.02216 4.28679 0
M  V30 2873 H 259.269 -4.42187 3.30416 0
M  V30 2874 H 259.746 -4.07259 1.64427 0
M  V30 2875 H 260.352 -3.04816 2.96593 0
M  V30 2876 N 258.668 -1.30515 -0.883378 0
M  V30 2877 C 259.893 -1.22487 -1.67367 0
M  V30 2878 C 260.318 0.208767 -1.86938 0
M  V30 2879 O 259.676 1.15015 -1.40148 0
M  V30 2880 C 259.724 -1.96041 -3.02655 0
M  V30 2881 O 258.828 -1.28859 -3.91751 0
M  V30 2882 H 258.169 -0.423573 -0.511353 0
M  V30 2883 H 260.699 -1.72362 -1.10239 0
M  V30 2884 H 260.709 -2.05124 -3.52687 0
M  V30 2885 H 259.384 -3.00307 -2.8773 0
M  V30 2886 H 257.961 -1.28141 -3.50192 0
M  V30 2887 N 260.146 1.09593 -1.13257 0
M  V30 2888 C 261.371 1.8604 -0.916732 0
M  V30 2889 C 261.796 1.80504 0.529146 0
M  V30 2890 O 261.154 1.18127 1.37534 0
M  V30 2891 C 261.202 3.32017 -1.40703 0
M  V30 2892 O 260.306 4.08141 -0.591153 0
M  V30 2893 H 259.647 0.576943 -0.328683 0
M  V30 2894 H 262.177 1.38405 -1.50682 0
M  V30 2895 H 262.187 3.82865 -1.4099 0
M  V30 2896 H 260.862 3.35361 -2.45979 0
M  V30 2897 H 259.439 3.67084 -0.656005 0
M  V30 2898 N 261.624 0.925811 1.2754 0
M  V30 2899 C 262.849 0.580924 1.99098 0
M  V30 2900 C 263.274 -0.833555 1.68622 0
M  V30 2901 O 262.632 -1.55903 0.925422 0
M  V30 2902 C 262.68 0.811186 3.51358 0
M  V30 2903 O 261.784 -0.124129 4.12213 0
M  V30 2904 H 261.125 0.223873 0.625122 0
M  V30 2905 H 263.655 1.24455 1.62395 0
M  V30 2906 H 263.665 0.72601 4.01489 0
M  V30 2907 H 262.34 1.84227 3.72872 0
M  V30 2908 H 260.917 0.0108006 3.72898 0
M  V30 2909 N 263.102 -1.41638 0.69111 0
M  V30 2910 C 264.065 -2.29178 0.0319786 0
M  V30 2911 C 265.065 -1.44153 -0.712496 0
M  V30 2912 O 266.255 -1.65354 -0.548053 0
M  V30 2913 C 263.387 -3.26952 -0.965161 0
M  V30 2914 H 264.58 -2.88959 0.802681 0
M  V30 2915 H 262.133 -1.4955 0.454356 0
M  V30 2916 H 262.868 -2.72142 -1.76378 0
M  V30 2917 H 262.653 -3.89685 -0.434522 0
M  V30 2918 H 264.143 -3.92561 -1.42428 0
M  V30 2919 N 264.58 -0.43555 -1.51462 0
M  V30 2920 C 265.805 0.132627 -2.06976 0
M  V30 2921 C 266.23 1.35848 -1.30104 0
M  V30 2922 O 265.588 1.78112 -0.338493 0
M  V30 2923 C 265.636 0.43523 -3.57964 0
M  V30 2924 O 264.74 1.52198 -3.83288 0
M  V30 2925 H 264.081 0.00265 -0.663995 0
M  V30 2926 H 266.611 -0.616369 -1.95095 0
M  V30 2927 H 266.621 0.686206 -4.02188 0
M  V30 2928 H 265.296 -0.460739 -4.1334 0
M  V30 2929 H 263.873 1.2611 -3.50928 0
M  V30 2930 N 266.058 1.56714 -0.166846 0
M  V30 2931 C 266.968 2.21331 0.777791 0
M  V30 2932 C 267.984 1.20358 1.25658 0
M  V30 2933 O 269.16 1.53005 1.30964 0
M  V30 2934 C 266.225 2.83787 1.99163 0
M  V30 2935 C 265.286 3.99947 1.56016 0
M  V30 2936 C 264.519 4.59415 2.71613 0
M  V30 2937 O 264.742 4.17769 3.88362 0
M  V30 2938 O 263.676 5.49359 2.45945 0
M  V30 2939 H 267.502 3.02605 0.257636 0
M  V30 2940 H 265.087 1.49275 0.0611393 0
M  V30 2941 H 266.969 3.23405 2.70161 0
M  V30 2942 H 265.644 2.05513 2.50092 0
M  V30 2943 H 264.551 3.65007 0.819809 0
M  V30 2944 H 265.884 4.79801 1.09782 0
M  V30 2945 N 267.536 -0.106894 1.57237 0
M  V30 2946 C 268.483 -1.13049 2.01217 0
M  V30 2947 C 269.453 -1.40471 0.886403 0
M  V30 2948 O 270.638 -1.52133 1.15153 0
M  V30 2949 C 267.778 -2.4487 2.43172 0
M  V30 2950 C 266.891 -2.24281 3.69218 0
M  V30 2951 C 266.026 -3.49417 4.00101 0
M  V30 2952 C 265.065 -3.24038 5.19294 0
M  V30 2953 N 264.202 -4.41409 5.45988 0
M  V30 2954 H 269.042 -0.748456 2.88448 0
M  V30 2955 H 266.579 -0.358054 1.42676 0
M  V30 2956 H 268.537 -3.21786 2.65537 0
M  V30 2957 H 267.167 -2.80944 1.58967 0
M  V30 2958 H 266.219 -1.38224 3.54398 0
M  V30 2959 H 267.531 -2.01512 4.56283 0
M  V30 2960 H 266.685 -4.34746 4.2318 0
M  V30 2961 H 265.424 -3.75229 3.11535 0
M  V30 2962 H 264.429 -2.37102 4.96047 0
M  V30 2963 H 265.654 -2.99584 6.09447 0
M  V30 2964 H 263.6 -4.67319 4.60379 0
M  V30 2965 H 263.517 -4.21788 6.274 0
M  V30 2966 H 264.785 -5.27836 5.73593 0
M  V30 2967 N 269.014 -1.53014 -0.377408 0
M  V30 2968 C 270.263 -1.67845 -1.11853 0
M  V30 2969 C 270.576 -0.430625 -1.90801 0
M  V30 2970 O 271.782 -0.459261 -2.67587 0
M  V30 2971 C 270.238 -2.96668 -2.03756 0
M  V30 2972 C 269.846 -4.28671 -1.30175 0
M  V30 2973 C 271.59 -3.20865 -2.77932 0
M  V30 2974 C 269.497 -5.48591 -2.20911 0
M  V30 2975 H 268.427 -0.625343 -0.421263 0
M  V30 2976 H 271.078 -1.79514 -0.380409 0
M  V30 2977 H 269.46 -2.78773 -2.8125 0
M  V30 2978 H 270.634 -4.57157 -0.578259 0
M  V30 2979 H 268.949 -4.10825 -0.679108 0
M  V30 2980 H 271.546 -4.07642 -3.46024 0
M  V30 2981 H 271.889 -2.36424 -3.4265 0
M  V30 2982 H 272.422 -3.39379 -2.07525 0
M  V30 2983 H 269.161 -6.35474 -1.6079 0
M  V30 2984 H 268.681 -5.244 -2.91144 0
M  V30 2985 H 270.36 -5.8292 -2.80736 0
M  V30 2986 N 270.492 0.636531 -1.44174 0
M  V30 2987 C 271.732 1.40781 -1.48189 0
M  V30 2988 C 272.096 1.91688 -0.10944 0
M  V30 2989 O 273.297 2.68789 -0.0242741 0
M  V30 2990 C 271.568 2.54575 -2.50851 0
M  V30 2991 S 273.127 3.4284 -2.73873 0
M  V30 2992 H 269.945 0.480345 -0.524204 0
M  V30 2993 H 272.547 0.737416 -1.81059 0
M  V30 2994 H 271.251 2.15478 -3.49281 0
M  V30 2995 H 270.782 3.26447 -2.19536 0
M  V30 2996 H 272.797 4.51846 -2.05059 0
M  V30 2997 N 271.97 1.30982 0.876444 0
M  V30 2998 C 272.918 1.18006 2.00443 0
M  V30 2999 C 273.912 0.0898871 1.69161 0
M  V30 3000 O 275.118 0.251333 1.78237 0
M  V30 3001 H 271.493 0.365196 0.65737 0
M  V30 3002 H 273.464 2.13453 2.0852 0
M  V30 3003 C 272.213 0.897521 3.35916 0
M  V30 3004 H 271.536 1.7285 3.60504 0
M  V30 3005 H 272.976 0.846874 4.15456 0
M  V30 3006 C 271.435 -0.399674 3.34521 0
M  V30 3007 O 271.965 -1.41852 3.7582 0
M  V30 3008 N 270.171 -0.413893 2.87637 0
M  V30 3009 H 269.718 0.41571 2.54224 0
M  V30 3010 H 269.676 -1.28175 2.87086 0
M  V30 3011 N 273.449 -1.08991 1.13837 0
M  V30 3012 C 274.412 -2.13925 0.822715 0
M  V30 3013 C 275.412 -1.599 -0.1699 0
M  V30 3014 O 276.602 -1.74104 0.0577251 0
M  V30 3015 C 273.734 -3.40155 0.225318 0
M  V30 3016 H 274.927 -2.43358 1.75262 0
M  V30 3017 H 272.48 -1.24603 0.943594 0
M  V30 3018 H 273.215 -3.16352 -0.713594 0
M  V30 3019 H 273 -3.80661 0.940193 0
M  V30 3020 H 274.49 -4.17594 0.0214784 0
M  V30 3021 N 274.927 -0.932562 -1.27047 0
M  V30 3022 C 275.877 -0.406392 -2.24349 0
M  V30 3023 C 276.861 0.492066 -1.53191 0
M  V30 3024 O 278.053 0.328717 -1.73921 0
M  V30 3025 C 275.182 0.335214 -3.41659 0
M  V30 3026 C 274.268 -0.58004 -4.20115 0
M  V30 3027 N 274.659 -1.70203 -4.76303 0
M  V30 3028 C 272.957 -0.383974 -4.44344 0
M  V30 3029 C 273.658 -2.27167 -5.35509 0
M  V30 3030 N 272.634 -1.56068 -5.20715 0
M  V30 3031 H 276.436 -1.26299 -2.65378 0
M  V30 3032 H 273.95 -0.787408 -1.42034 0
M  V30 3033 H 275.947 0.729142 -4.10474 0
M  V30 3034 H 274.607 1.18868 -3.0216 0
M  V30 3035 H 275.618 -2.08433 -4.74106 0
M  V30 3036 H 272.295 0.428436 -4.15296 0
M  V30 3037 H 273.685 -3.21654 -5.89905 0
M  V30 3038 N 276.405 1.4127 -0.698611 0
M  V30 3039 C 277.653 2.00782 -0.230409 0
M  V30 3040 C 277.974 1.5562 1.17505 0
M  V30 3041 O 277.244 0.78815 1.79346 0
M  V30 3042 H 275.824 0.742464 -0.0821944 0
M  V30 3043 H 278.486 1.72852 -0.90045 0
M  V30 3044 H 277.582 3.11095 -0.25021 0
M  V30 3045 N 277.883 0.443576 1.51229 0
M  V30 3046 C 279.123 -0.119889 2.04048 0
M  V30 3047 C 279.487 -1.39418 1.32009 0
M  V30 3048 O 280.688 -2.03829 1.75235 0
M  V30 3049 C 278.959 -0.327233 3.55899 0
M  V30 3050 S 280.518 -0.853208 4.30425 0
M  V30 3051 H 277.336 -0.028921 0.710412 0
M  V30 3052 H 279.938 0.604413 1.85922 0
M  V30 3053 H 278.642 0.606445 4.05895 0
M  V30 3054 H 278.173 -1.07844 3.7833 0
M  V30 3055 H 280.188 -2.13005 4.48155 0
M  V30 3056 N 279.361 -1.56624 0.175154 0
M  V30 3057 C 280.308 -2.18149 -0.753634 0
M  V30 3058 C 281.278 -1.12265 -1.22417 0
M  V30 3059 O 282.463 -1.40432 -1.29165 0
M  V30 3060 C 279.603 -2.82933 -1.97592 0
M  V30 3061 C 278.716 -4.03289 -1.5486 0
M  V30 3062 C 277.851 -4.55988 -2.72485 0
M  V30 3063 C 276.89 -5.68746 -2.26262 0
M  V30 3064 N 276.027 -6.15938 -3.36994 0
M  V30 3065 H 280.867 -2.9717 -0.222195 0
M  V30 3066 H 278.404 -1.46774 -0.0979422 0
M  V30 3067 H 280.362 -3.18653 -2.69288 0
M  V30 3068 H 278.992 -2.06509 -2.481 0
M  V30 3069 H 278.044 -3.73364 -0.728246 0
M  V30 3070 H 279.356 -4.849 -1.16933 0
M  V30 3071 H 278.51 -4.9391 -3.52332 0
M  V30 3072 H 277.249 -3.73443 -3.13674 0
M  V30 3073 H 276.254 -5.30372 -1.44863 0
M  V30 3074 H 277.479 -6.53095 -1.86127 0
M  V30 3075 H 275.425 -5.36321 -3.77751 0
M  V30 3076 H 275.342 -6.92548 -3.03172 0
M  V30 3077 H 276.61 -6.58511 -4.17114 0
M  V30 3078 N 280.839 0.0985539 -1.57292 0
M  V30 3079 C 281.772 1.15082 -1.97057 0
M  V30 3080 C 282.75 1.39025 -0.843255 0
M  V30 3081 O 283.934 1.52842 -1.10325 0
M  V30 3082 C 281.061 2.50069 -2.28437 0
M  V30 3083 C 280.107 2.42428 -3.509 0
M  V30 3084 S 280.94 1.84414 -5.02744 0
M  V30 3085 C 282.096 3.21032 -5.37298 0
M  V30 3086 H 282.329 0.811815 -2.86002 0
M  V30 3087 H 279.862 0.306102 -1.51335 0
M  V30 3088 H 281.82 3.27729 -2.47192 0
M  V30 3089 H 280.481 2.8114 -1.40069 0
M  V30 3090 H 279.674 3.41911 -3.70288 0
M  V30 3091 H 279.276 1.72896 -3.31637 0
M  V30 3092 H 281.568 4.17297 -5.33731 0
M  V30 3093 H 282.511 3.06452 -6.38352 0
M  V30 3094 H 282.919 3.20404 -4.64759 0
M  V30 3095 N 282.317 1.53212 0.369288 0
M  V30 3096 C 283.28 1.7872 1.43498 0
M  V30 3097 C 284.28 0.657554 1.46741 0
M  V30 3098 O 285.47 0.925736 1.47566 0
M  V30 3099 C 282.602 1.90591 2.82645 0
M  V30 3100 H 283.795 2.73894 1.22156 0
M  V30 3101 H 281.348 1.44233 0.602203 0
M  V30 3102 H 282.083 0.974709 3.09306 0
M  V30 3103 H 281.868 2.72751 2.8169 0
M  V30 3104 H 283.358 2.11931 3.59826 0
M  V30 3105 N 283.795 -0.628877 1.44509 0
M  V30 3106 C 284.728 -1.75367 1.46019 0
M  V30 3107 C 285.706 -1.59444 0.318787 0
M  V30 3108 O 286.89 -1.81297 0.516099 0
M  V30 3109 C 284.017 -3.12965 1.29501 0
M  V30 3110 C 283.063 -3.47532 2.47233 0
M  V30 3111 S 283.896 -3.44758 4.09758 0
M  V30 3112 C 285.052 -4.84973 3.95667 0
M  V30 3113 H 285.285 -1.7382 2.41193 0
M  V30 3114 H 282.818 -0.803686 1.31834 0
M  V30 3115 H 284.776 -3.92367 1.20658 0
M  V30 3116 H 283.437 -3.12049 0.358341 0
M  V30 3117 H 282.63 -4.47664 2.31544 0
M  V30 3118 H 282.232 -2.75598 2.52828 0
M  V30 3119 H 284.524 -5.74255 3.59496 0
M  V30 3120 H 285.467 -5.05716 4.95638 0
M  V30 3121 H 285.875 -4.59653 3.27688 0
M  V30 3122 N 285.273 -1.31445 -0.869486 0
M  V30 3123 C 286.689 -1.10113 -1.15531 0
M  V30 3124 C 286.889 0.128087 -2.01092 0
M  V30 3125 O 285.945 0.817276 -2.38908 0
M  V30 3126 C 287.258 -2.37291 -1.84698 0
M  V30 3127 C 288.806 -2.42906 -1.97397 0
M  V30 3128 C 289.281 -3.69967 -2.69979 0
M  V30 3129 N 290.772 -3.70864 -2.77514 0
M  V30 3130 C 291.507 -4.65875 -3.34287 0
M  V30 3131 N 291.003 -5.71242 -3.91988 0
M  V30 3132 N 292.796 -4.53394 -3.3225 0
M  V30 3133 H 284.947 -2.1028 -0.299347 0
M  V30 3134 H 287.21 -0.927683 -0.195214 0
M  V30 3135 H 286.916 -3.27078 -1.29278 0
M  V30 3136 H 286.79 -2.47125 -2.84972 0
M  V30 3137 H 289.177 -1.53588 -2.51982 0
M  V30 3138 H 289.258 -2.37036 -0.961643 0
M  V30 3139 H 288.902 -4.59652 -2.16062 0
M  V30 3140 H 288.832 -3.73103 -3.7162 0
M  V30 3141 H 291.323 -2.94697 -2.36563 0
M  V30 3142 H 291.636 -6.39817 -4.33421 0
M  V30 3143 H 289.981 -5.75015 -3.90362 0
M  V30 3144 H 293.172 -3.70252 -2.8641 0
M  V30 3145 H 293.345 -5.27617 -3.76197 0
M  V30 3146 N 286.751 1.08385 -1.14413 0
M  V30 3147 C 287.681 2.17321 -0.854044 0
M  V30 3148 C 288.662 1.69024 0.191049 0
M  V30 3149 O 289.847 1.94141 0.0476779 0
M  V30 3150 C 286.977 3.45719 -0.330983 0
M  V30 3151 C 285.931 4.07409 -1.31155 0
M  V30 3152 C 285.257 5.30762 -0.64778 0
M  V30 3153 C 286.557 4.48665 -2.67388 0
M  V30 3154 H 288.251 2.41845 -1.76498 0
M  V30 3155 H 285.797 1.16233 -0.850051 0
M  V30 3156 H 287.75 4.21241 -0.115645 0
M  V30 3157 H 286.474 3.2075 0.615381 0
M  V30 3158 H 285.133 3.33919 -1.51306 0
M  V30 3159 H 284.781 5.02078 0.304398 0
M  V30 3160 H 284.481 5.72992 -1.30207 0
M  V30 3161 H 286.005 6.08998 -0.441972 0
M  V30 3162 H 287.419 5.15364 -2.51143 0
M  V30 3163 H 285.816 5.01814 -3.29093 0
M  V30 3164 H 286.886 3.60543 -3.24248 0
M  V30 3165 N 288.23 0.939286 1.26551 0
M  V30 3166 C 289.47 0.5933 1.956 0
M  V30 3167 C 289.834 -0.851515 1.72085 0
M  V30 3168 O 291.035 -1.30634 2.34921 0
M  V30 3169 C 289.306 0.923996 3.45249 0
M  V30 3170 S 290.865 0.688269 4.33369 0
M  V30 3171 H 287.683 0.218591 0.676564 0
M  V30 3172 H 290.285 1.2102 1.5354 0
M  V30 3173 H 288.989 1.97297 3.59864 0
M  V30 3174 H 288.52 0.296746 3.92279 0
M  V30 3175 H 290.535 -0.448434 4.9417 0
M  V30 3176 N 289.708 -1.40897 0.706093 0
M  V30 3177 C 290.933 -2.05895 0.249435 0
M  V30 3178 C 291.358 -1.52823 -1.09666 0
M  V30 3179 O 290.716 -0.659589 -1.68876 0
M  V30 3180 C 290.764 -3.59872 0.22904 0
M  V30 3181 O 289.868 -4.04708 -0.792784 0
M  V30 3182 H 289.209 -0.653206 0.119241 0
M  V30 3183 H 291.739 -1.80471 0.96391 0
M  V30 3184 H 291.749 -4.07951 0.0634791 0
M  V30 3185 H 290.424 -3.97866 1.21141 0
M  V30 3186 H 289.001 -3.68111 -0.59572 0
M  V30 3187 N 291.186 -0.45159 -1.50991 0
M  V30 3188 C 292.116 0.342898 -2.30969 0
M  V30 3189 C 293.097 1.00815 -1.37005 0
M  V30 3190 O 294.282 1.00907 -1.65926 0
M  V30 3191 C 291.412 1.43637 -3.16205 0
M  V30 3192 C 290.366 0.893818 -4.18563 0
M  V30 3193 C 289.692 2.08411 -4.92411 0
M  V30 3194 C 290.992 -0.0815568 -5.22236 0
M  V30 3195 H 292.686 -0.324556 -2.97636 0
M  V30 3196 H 290.232 -0.157531 -1.43136 0
M  V30 3197 H 292.185 1.9995 -3.70942 0
M  V30 3198 H 290.909 2.13232 -2.47386 0
M  V30 3199 H 289.568 0.352798 -3.64898 0
M  V30 3200 H 289.216 2.76658 -4.20082 0
M  V30 3201 H 288.916 1.72741 -5.61636 0
M  V30 3202 H 290.44 2.65251 -5.49976 0
M  V30 3203 H 291.854 0.391742 -5.7196 0
M  V30 3204 H 290.251 -0.351551 -5.99069 0
M  V30 3205 H 291.321 -1.01374 -4.74185 0
M  V30 3206 N 292.664 1.56529 -0.183458 0
M  V30 3207 C 293.612 2.19873 0.758845 0
M  V30 3208 C 294.606 1.16638 1.22849 0
M  V30 3209 O 295.812 1.3481 1.19274 0
M  V30 3210 H 292.187 0.7045 0.263029 0
M  V30 3211 H 294.158 2.97724 0.200755 0
M  V30 3212 C 292.907 2.86314 1.9728 0
M  V30 3213 H 292.23 3.65487 1.62047 0
M  V30 3214 H 293.67 3.3409 2.61075 0
M  V30 3215 C 292.129 1.86729 2.80418 0
M  V30 3216 O 292.659 1.36031 3.77966 0
M  V30 3217 N 290.865 1.55216 2.45675 0
M  V30 3218 H 290.412 1.96636 1.66409 0
M  V30 3219 H 290.37 0.888388 3.01588 0
M  V30 3220 N 294.142 -0.090211 1.57342 0
M  V30 3221 C 295.558 -0.444547 1.53284 0
M  V30 3222 C 295.758 -1.80238 0.900914 0
M  V30 3223 O 294.814 -2.4759 0.495513 0
M  V30 3224 C 296.127 -0.402543 2.97993 0
M  V30 3225 C 297.675 -0.48405 3.09234 0
M  V30 3226 C 298.15 -0.472144 4.5556 0
M  V30 3227 N 299.641 -0.532757 4.60126 0
M  V30 3228 C 300.376 -0.545462 5.708 0
M  V30 3229 N 299.872 -0.514082 6.9089 0
M  V30 3230 N 301.665 -0.59064 5.58988 0
M  V30 3231 H 293.816 0.799121 1.96794 0
M  V30 3232 H 296.079 0.297965 0.899956 0
M  V30 3233 H 295.785 0.528106 3.47712 0
M  V30 3234 H 295.659 -1.21969 3.56936 0
M  V30 3235 H 298.046 -1.40512 2.595 0
M  V30 3236 H 298.127 0.361328 2.53235 0
M  V30 3237 H 297.771 0.445 5.05947 0
M  V30 3238 H 297.701 -1.3348 5.09402 0
M  V30 3239 H 300.192 -0.562006 3.73698 0
M  V30 3240 H 300.505 -0.527195 7.71 0
M  V30 3241 H 298.85 -0.481054 6.93333 0
M  V30 3242 H 302.041 -0.61272 4.64073 0
M  V30 3243 H 302.214 -0.597073 6.45243 0
M  V30 3244 N 295.62 -1.53406 -0.361157 0
M  V30 3245 C 296.848 -1.73717 -1.12383 0
M  V30 3246 C 297.263 -0.468161 -1.82904 0
M  V30 3247 O 296.62 0.559198 -1.73722 0
M  V30 3248 C 296.671 -2.90558 -2.15078 0
M  V30 3249 O 296.392 -4.12549 -1.47428 0
M  V30 3250 C 297.893 -3.22777 -3.03858 0
M  V30 3251 H 295.113 -0.580896 -0.335858 0
M  V30 3252 H 297.657 -2.00167 -0.418728 0
M  V30 3253 H 295.812 -2.66489 -2.8118 0
M  V30 3254 H 296.226 -4.78009 -2.15887 0
M  V30 3255 H 297.7 -4.07927 -3.71887 0
M  V30 3256 H 298.177 -2.38329 -3.68912 0
M  V30 3257 H 298.783 -3.48787 -2.43367 0
M  V30 3258 N 297.098 0.621204 -1.44841 0
M  V30 3259 C 298.03 1.74615 -1.48466 0
M  V30 3260 C 299.043 1.58377 -0.37691 0
M  V30 3261 O 300.232 1.66508 -0.643215 0
M  V30 3262 C 297.332 3.12459 -1.31236 0
M  V30 3263 C 296.505 3.55064 -2.55438 0
M  V30 3264 C 295.564 4.71821 -2.32963 0
M  V30 3265 O 294.59 4.79628 -3.06505 0
M  V30 3266 N 295.792 5.64186 -1.36654 0
M  V30 3267 H 298.557 1.71973 -2.45449 0
M  V30 3268 H 296.118 0.806077 -1.40407 0
M  V30 3269 H 298.11 3.88302 -1.14032 0
M  V30 3270 H 296.68 3.09686 -0.4258 0
M  V30 3271 H 295.9 2.69324 -2.87851 0
M  V30 3272 H 297.188 3.80284 -3.38026 0
M  V30 3273 H 296.586 5.6058 -0.759344 0
M  V30 3274 H 295.143 6.39618 -1.25425 0
M  V30 3275 N 298.576 1.31904 0.862503 0
M  V30 3276 C 299.816 1.23324 1.63004 0
M  V30 3277 C 300.18 -0.203724 1.90916 0
M  V30 3278 O 301.381 -0.413132 2.65606 0
M  V30 3279 C 299.652 2.06116 2.91978 0
M  V30 3280 S 301.211 2.14478 3.82812 0
M  V30 3281 H 298.029 0.439117 0.559193 0
M  V30 3282 H 300.631 1.66658 1.02202 0
M  V30 3283 H 299.335 3.09593 2.69407 0
M  V30 3284 H 298.866 1.6353 3.57801 0
M  V30 3285 H 300.881 1.28855 4.79177 0
M  V30 3286 N 300.054 -1.07777 1.14986 0
M  V30 3287 C 301.282 -1.84018 0.945773 0
M  V30 3288 C 301.697 -1.81897 -0.505863 0
M  V30 3289 O 301.054 -1.22726 -1.35072 0
M  V30 3290 C 301.105 -3.31287 1.44677 0
M  V30 3291 O 300.826 -3.33449 2.84154 0
M  V30 3292 C 302.327 -4.24311 1.28355 0
M  V30 3293 H 299.547 -0.580716 0.336169 0
M  V30 3294 H 302.091 -1.36077 1.52654 0
M  V30 3295 H 300.246 -3.76594 0.908625 0
M  V30 3296 H 300.66 -4.25427 3.06777 0
M  V30 3297 H 302.134 -5.2573 1.68261 0
M  V30 3298 H 302.611 -4.38612 0.227184 0
M  V30 3299 H 303.217 -3.84836 1.81056 0
M  V30 3300 N 301.532 -0.945985 -1.26051 0
M  V30 3301 C 302.779 -0.596118 -1.93527 0
M  V30 3302 C 303.107 0.865559 -1.74179 0
M  V30 3303 O 302.362 1.63524 -1.0751 0
M  V30 3304 C 302.661 -0.890475 -3.46129 0
M  V30 3305 C 302.327 -2.3368 -3.85622 0
M  V30 3306 C 300.989 -2.73216 -3.96114 0
M  V30 3307 C 303.341 -3.27648 -4.05334 0
M  V30 3308 C 300.669 -4.05806 -4.2372 0
M  V30 3309 C 303.021 -4.59841 -4.3443 0
M  V30 3310 C 301.685 -4.99185 -4.43137 0
M  V30 3311 H 300.955 -0.218135 -0.708165 0
M  V30 3312 H 303.602 -1.1934 -1.49768 0
M  V30 3313 H 301.907 -0.210711 -3.91233 0
M  V30 3314 H 303.604 -0.598478 -3.96509 0
M  V30 3315 H 300.194 -2.02015 -3.78005 0
M  V30 3316 H 304.378 -2.98298 -3.96651 0
M  V30 3317 H 299.634 -4.35945 -4.28675 0
M  V30 3318 H 303.808 -5.32641 -4.48628 0
M  V30 3319 H 301.435 -6.01952 -4.64282 0
M  V30 3320 N 303.011 1.40521 -0.713556 0
M  V30 3321 C 304.427 1.54839 -0.386907 0
M  V30 3322 C 304.627 1.68532 1.1045 0
M  V30 3323 O 303.683 1.67377 1.89053 0
M  V30 3324 C 304.996 2.77792 -1.15118 0
M  V30 3325 C 306.544 2.91607 -1.13729 0
M  V30 3326 C 307.019 4.1747 -1.88368 0
M  V30 3327 N 308.51 4.24466 -1.85427 0
M  V30 3328 C 309.245 5.20755 -2.40004 0
M  V30 3329 N 308.741 6.22965 -3.03129 0
M  V30 3330 N 310.534 5.1282 -2.30158 0
M  V30 3331 H 302.685 1.29879 -1.68063 0
M  V30 3332 H 304.948 0.627896 -0.710247 0
M  V30 3333 H 304.654 2.73944 -2.20561 0
M  V30 3334 H 304.528 3.6984 -0.741477 0
M  V30 3335 H 306.915 2.94959 -0.0910608 0
M  V30 3336 H 306.996 2.00682 -1.5862 0
M  V30 3337 H 306.64 4.1488 -2.9298 0
M  V30 3338 H 306.57 5.074 -1.40898 0
M  V30 3339 H 309.061 3.51241 -1.3942 0
M  V30 3340 H 309.374 6.92859 -3.42295 0
M  V30 3341 H 307.719 6.23415 -3.07212 0
M  V30 3342 H 310.91 4.31899 -1.80501 0
M  V30 3343 H 311.083 5.87689 -2.72993 0
M  V30 3344 N 304.489 0.459591 1.5075 0
M  V30 3345 C 305.437 -0.354678 2.2988 0
M  V30 3346 C 306.431 -1.00086 1.36672 0
M  V30 3347 O 307.637 -0.933277 1.53915 0
M  V30 3348 H 304.012 -0.13321 0.740107 0
M  V30 3349 H 305.983 0.333269 2.96533 0
M  V30 3350 C 304.732 -1.43073 3.169 0
M  V30 3351 H 304.055 -0.942882 3.88523 0
M  V30 3352 H 305.495 -1.97328 3.75284 0
M  V30 3353 C 303.954 -2.42633 2.33732 0
M  V30 3354 O 304.484 -3.47658 2.01238 0
M  V30 3355 N 302.69 -2.14066 1.9653 0
M  V30 3356 H 302.237 -1.28685 2.23155 0
M  V30 3357 H 302.195 -2.80917 1.41185 0
M  V30 3358 N 305.967 -1.56429 0.191757 0
M  V30 3359 C 307.214 -1.97485 -0.447891 0
M  V30 3360 C 307.542 -1.07852 -1.61859 0
M  V30 3361 O 306.797 -0.116903 -1.95351 0
M  V30 3362 C 307.096 -3.44449 -0.953384 0
M  V30 3363 C 306.762 -4.50781 0.103586 0
M  V30 3364 C 305.424 -4.79584 0.394023 0
M  V30 3365 C 307.776 -5.1471 0.819946 0
M  V30 3366 C 305.104 -5.69607 1.40585 0
M  V30 3367 C 307.456 -6.05827 1.8209 0
M  V30 3368 C 306.12 -6.32987 2.11857 0
M  V30 3369 H 305.39 -0.722648 -0.163895 0
M  V30 3370 H 308.037 -1.89322 0.28802 0
M  V30 3371 H 306.342 -3.49666 -1.76751 0
M  V30 3372 H 308.039 -3.73569 -1.45765 0
M  V30 3373 H 304.629 -4.28394 -0.132951 0
M  V30 3374 H 308.813 -4.92552 0.608789 0
M  V30 3375 H 304.069 -5.88926 1.64243 0
M  V30 3376 H 308.243 -6.54424 2.38123 0
M  V30 3377 H 305.87 -7.02544 2.90407 0
M  V30 3378 N 307.445 0.0818655 -1.57387 0
M  V30 3379 C 308.673 0.796108 -1.9097 0
M  V30 3380 C 309.088 1.71626 -0.786757 0
M  V30 3381 O 308.445 1.80908 0.240513 0
M  V30 3382 C 308.496 1.59829 -3.24248 0
M  V30 3383 O 308.217 0.715131 -4.32224 0
M  V30 3384 C 309.718 2.41442 -3.7178 0
M  V30 3385 H 306.938 0.22691 -0.631469 0
M  V30 3386 H 309.482 0.0551439 -2.04426 0
M  V30 3387 H 307.637 2.29163 -3.12351 0
M  V30 3388 H 308.051 1.27205 -5.08841 0
M  V30 3389 H 309.525 2.932 -4.67694 0
M  V30 3390 H 310.002 3.2051 -3.00283 0
M  V30 3391 H 310.608 1.77283 -3.86589 0
M  V30 3392 N 308.923 1.53595 0.353017 0
M  V30 3393 C 310.148 1.7462 1.11904 0
M  V30 3394 C 310.573 0.479721 1.8188 0
M  V30 3395 O 309.931 -0.567066 1.72204 0
M  V30 3396 C 309.979 2.92029 2.11545 0
M  V30 3397 O 309.083 2.61516 3.18878 0
M  V30 3398 H 308.424 0.579531 0.324099 0
M  V30 3399 H 310.954 2.00525 0.406301 0
M  V30 3400 H 310.964 3.18551 2.5493 0
M  V30 3401 H 309.639 3.83888 1.60008 0
M  V30 3402 H 308.216 2.45852 2.80377 0
M  V30 3403 N 310.401 -0.613514 1.45168 0
M  V30 3404 C 311.364 -1.7065 1.53007 0
M  V30 3405 C 312.364 -1.5548 0.410184 0
M  V30 3406 O 313.554 -1.60656 0.673455 0
M  V30 3407 C 310.686 -3.09875 1.42093 0
M  V30 3408 H 311.879 -1.65068 2.50385 0
M  V30 3409 H 309.432 -0.828728 1.32521 0
M  V30 3410 H 310.167 -3.21039 0.458769 0
M  V30 3411 H 309.952 -3.22293 2.23315 0
M  V30 3412 H 311.442 -3.895 1.50598 0
M  V30 3413 N 311.879 -1.3236 -0.855495 0
M  V30 3414 C 313.107 -1.2587 -1.64208 0
M  V30 3415 C 313.522 0.173457 -1.88002 0
M  V30 3416 O 312.879 1.11027 -1.44842 0
M  V30 3417 C 312.93 -2.01424 -3.00184 0
M  V30 3418 O 312.651 -3.39051 -2.77445 0
M  V30 3419 C 314.152 -2.01948 -3.94629 0
M  V30 3420 H 311.372 -0.434318 -0.511477 0
M  V30 3421 H 313.916 -1.74469 -1.0668 0
M  V30 3422 H 312.071 -1.56549 -3.5436 0
M  V30 3423 H 312.485 -3.77711 -3.63916 0
M  V30 3424 H 313.959 -2.59297 -4.87308 0
M  V30 3425 H 314.436 -1.00554 -4.27534 0
M  V30 3426 H 315.042 -2.46767 -3.4639 0
M  V30 3427 N 313.357 1.07166 -1.15556 0
M  V30 3428 C 314.289 2.14341 -0.811815 0
M  V30 3429 C 315.302 1.61835 0.177015 0
M  V30 3430 O 316.491 1.78439 -0.0464996 0
M  V30 3431 C 313.591 3.38387 -0.186481 0
M  V30 3432 C 312.764 4.20238 -1.21321 0
M  V30 3433 C 311.823 5.2266 -0.609302 0
M  V30 3434 O 310.849 5.54719 -1.27576 0
M  V30 3435 N 312.051 5.77306 0.608099 0
M  V30 3436 H 314.816 2.44431 -1.73417 0
M  V30 3437 H 312.377 1.23089 -1.0517 0
M  V30 3438 H 314.369 4.04044 0.230339 0
M  V30 3439 H 312.939 3.05994 0.639249 0
M  V30 3440 H 312.159 3.50369 -1.80652 0
M  V30 3441 H 313.447 4.71736 -1.90638 0
M  V30 3442 H 312.845 5.53513 1.1679 0
M  V30 3443 H 311.402 6.44583 0.96725 0
M  V30 3444 N 314.835 0.952656 1.25548 0
M  V30 3445 C 315.798 0.475794 2.24207 0
M  V30 3446 C 316.798 -0.419428 1.55234 0
M  V30 3447 O 317.988 -0.216994 1.72843 0
M  V30 3448 C 315.12 -0.312814 3.39462 0
M  V30 3449 H 316.313 1.34779 2.67908 0
M  V30 3450 H 313.866 0.735739 1.37901 0
M  V30 3451 H 314.601 -1.20257 3.01179 0
M  V30 3452 H 314.386 0.329404 3.90714 0
M  V30 3453 H 315.876 -0.635986 4.12729 0
M  V30 3454 N 316.313 -1.40141 0.720998 0
M  V30 3455 C 317.243 -2.33339 0.0867621 0
M  V30 3456 C 318.224 -1.53178 -0.739622 0
M  V30 3457 O 319.409 -1.81625 -0.687449 0
M  V30 3458 C 316.539 -3.37194 -0.831728 0
M  V30 3459 C 315.493 -4.27857 -0.110558 0
M  V30 3460 C 314.819 -5.22294 -1.14513 0
M  V30 3461 C 316.119 -5.11872 1.0385 0
M  V30 3462 H 317.813 -2.86626 0.865219 0
M  V30 3463 H 315.359 -1.37814 0.417516 0
M  V30 3464 H 317.312 -4.01335 -1.28485 0
M  V30 3465 H 316.036 -2.82314 -1.64214 0
M  V30 3466 H 314.695 -3.65176 0.322797 0
M  V30 3467 H 314.343 -4.63717 -1.94874 0
M  V30 3468 H 314.043 -5.83797 -0.667446 0
M  V30 3469 H 315.567 -5.89312 -1.59824 0
M  V30 3470 H 316.981 -5.69436 0.664482 0
M  V30 3471 H 315.378 -5.82445 1.4449 0
M  V30 3472 H 316.448 -4.4753 1.86668 0
M  V30 3473 N 317.792 -0.46758 -1.50504 0
M  V30 3474 C 319.02 0.0864133 -2.06719 0
M  V30 3475 C 319.435 1.33819 -1.33184 0
M  V30 3476 O 318.792 1.78061 -0.400083 0
M  V30 3477 C 318.843 0.378079 -3.59517 0
M  V30 3478 O 318.564 -0.824044 -4.3028 0
M  V30 3479 C 320.065 0.979426 -4.32345 0
M  V30 3480 H 317.285 -0.00551697 -0.670977 0
M  V30 3481 H 319.829 -0.655354 -1.93715 0
M  V30 3482 H 317.984 1.06977 -3.72337 0
M  V30 3483 H 318.398 -0.566518 -5.21432 0
M  V30 3484 H 319.872 1.1333 -5.40241 0
M  V30 3485 H 320.349 1.9686 -3.9261 0
M  V30 3486 H 320.955 0.326216 -4.24047 0
M  V30 3487 N 319.27 1.56325 -0.20005 0
M  V30 3488 C 320.18 2.22931 0.730668 0
M  V30 3489 C 321.196 1.22997 1.23076 0
M  V30 3490 O 322.372 1.55748 1.27689 0
M  V30 3491 C 319.437 2.87948 1.93098 0
M  V30 3492 C 318.498 4.03166 1.47497 0
M  V30 3493 C 317.731 4.65073 2.61807 0
M  V30 3494 O 317.954 4.25913 3.79413 0
M  V30 3495 O 316.888 5.54452 2.34237 0
M  V30 3496 H 320.714 3.03084 0.193391 0
M  V30 3497 H 318.299 1.49371 0.0294621 0
M  V30 3498 H 320.181 3.29063 2.6324 0
M  V30 3499 H 318.856 2.10771 2.45677 0
M  V30 3500 H 317.763 3.66664 0.742201 0
M  V30 3501 H 319.096 4.82022 0.995796 0
M  V30 3502 N 320.748 -0.0735177 1.57428 0
M  V30 3503 C 321.994 -0.768909 1.88307 0
M  V30 3504 C 322.349 -1.75273 0.793535 0
M  V30 3505 O 321.642 -1.90527 -0.202466 0
M  V30 3506 C 321.836 -1.51799 3.23561 0
M  V30 3507 C 321.665 -0.608217 4.45568 0
M  V30 3508 C 320.435 -0.245808 5.04702 0
M  V30 3509 C 322.633 0.0942904 5.14214 0
M  V30 3510 N 320.615 0.66987 6.10234 0
M  V30 3511 C 321.986 0.867222 6.13905 0
M  V30 3512 C 324.041 0.165943 4.97623 0
M  V30 3513 C 322.744 1.70515 6.98797 0
M  V30 3514 C 324.77 0.990837 5.83041 0
M  V30 3515 C 324.132 1.75182 6.82269 0
M  V30 3516 H 320.231 -0.25685 0.738615 0
M  V30 3517 H 322.815 -0.030499 1.94676 0
M  V30 3518 H 320.986 -2.22713 3.18203 0
M  V30 3519 H 322.718 -2.16226 3.42094 0
M  V30 3520 H 319.473 -0.598284 4.69806 0
M  V30 3521 H 319.897 1.1209 6.67656 0
M  V30 3522 H 324.539 -0.408064 4.20826 0
M  V30 3523 H 322.257 2.29013 7.7497 0
M  V30 3524 H 325.843 1.04923 5.72261 0
M  V30 3525 H 324.723 2.37983 7.47217 0
M  V30 3526 N 322.226 -1.5378 -0.344866 0
M  V30 3527 C 323.456 -1.74646 -1.10374 0
M  V30 3528 C 323.864 -0.48491 -1.8288 0
M  V30 3529 O 323.207 0.553062 -1.75177 0
M  V30 3530 C 323.269 -2.87145 -2.16306 0
M  V30 3531 C 322.933 -4.26795 -1.63386 0
M  V30 3532 C 323.93 -5.08412 -1.08688 0
M  V30 3533 C 321.615 -4.73276 -1.68272 0
M  V30 3534 C 323.609 -6.34609 -0.595792 0
M  V30 3535 C 321.296 -5.99446 -1.18776 0
M  V30 3536 C 322.294 -6.79946 -0.645215 0
M  V30 3537 O 321.982 -8.03745 -0.157626 0
M  V30 3538 H 321.714 -0.587112 -0.335075 0
M  V30 3539 H 324.268 -2.01403 -0.403252 0
M  V30 3540 H 322.498 -2.55909 -2.89909 0
M  V30 3541 H 324.187 -2.95992 -2.77747 0
M  V30 3542 H 324.953 -4.73666 -1.04236 0
M  V30 3543 H 320.832 -4.10677 -2.09442 0
M  V30 3544 H 324.376 -6.97389 -0.171654 0
M  V30 3545 H 320.273 -6.33687 -1.22928 0
M  V30 3546 H 321.041 -8.18038 -0.275037 0
M  V30 3547 N 323.704 0.605807 -1.45491 0
M  V30 3548 C 324.953 1.36086 -1.48874 0
M  V30 3549 C 325.266 1.95131 -0.135333 0
M  V30 3550 O 326.472 2.7146 -0.0468144 0
M  V30 3551 C 324.928 2.46518 -2.62215 0
M  V30 3552 C 324.536 1.93877 -4.03876 0
M  V30 3553 C 326.28 3.23512 -2.74846 0
M  V30 3554 C 324.187 3.01801 -5.08596 0
M  V30 3555 H 323.117 0.511497 -0.553974 0
M  V30 3556 H 325.768 0.649089 -1.71636 0
M  V30 3557 H 324.15 3.20388 -2.32739 0
M  V30 3558 H 325.324 1.26704 -4.43038 0
M  V30 3559 H 323.639 1.29622 -3.95711 0
M  V30 3560 H 326.236 4.04013 -3.50253 0
M  V30 3561 H 326.579 3.74631 -1.81542 0
M  V30 3562 H 327.112 2.56742 -3.03856 0
M  V30 3563 H 323.851 2.55597 -6.03614 0
M  V30 3564 H 323.371 3.67535 -4.74002 0
M  V30 3565 H 325.05 3.66152 -5.33424 0
M  V30 3566 N 325.182 1.32811 0.848464 0
M  V30 3567 C 326.112 1.24882 1.97299 0
M  V30 3568 C 327.093 0.131357 1.69592 0
M  V30 3569 O 328.278 0.319553 1.91553 0
M  V30 3570 C 325.408 0.97746 3.33261 0
M  V30 3571 C 324.362 2.05682 3.75338 0
M  V30 3572 C 323.688 1.63777 5.09 0
M  V30 3573 C 324.988 3.47254 3.90144 0
M  V30 3574 H 326.682 2.18966 2.04191 0
M  V30 3575 H 324.228 1.05413 0.981029 0
M  V30 3576 H 326.181 0.908513 4.1149 0
M  V30 3577 H 324.905 0.000980011 3.266 0
M  V30 3578 H 323.564 2.11603 2.99366 0
M  V30 3579 H 323.212 0.648569 4.98801 0
M  V30 3580 H 322.912 2.36 5.38124 0
M  V30 3581 H 324.436 1.5833 5.89715 0
M  V30 3582 H 325.85 3.43888 4.58709 0
M  V30 3583 H 324.247 4.1788 4.30693 0
M  V30 3584 H 325.317 3.86462 2.92874 0
M  V30 3585 N 326.66 -1.06551 1.16123 0
M  V30 3586 C 327.592 -2.13908 0.823171 0
M  V30 3587 C 328.605 -1.61926 -0.16843 0
M  V30 3588 O 329.794 -1.78412 0.055962 0
M  V30 3589 C 326.894 -3.38283 0.204424 0
M  V30 3590 C 326.067 -4.19589 1.23548 0
M  V30 3591 C 325.126 -5.2233 0.637011 0
M  V30 3592 O 324.152 -5.54034 1.30516 0
M  V30 3593 N 325.354 -5.77621 -0.577474 0
M  V30 3594 H 328.119 -2.43508 1.74711 0
M  V30 3595 H 325.68 -1.2253 1.05821 0
M  V30 3596 H 327.672 -4.0416 -0.208909 0
M  V30 3597 H 326.242 -3.06329 -0.623012 0
M  V30 3598 H 325.462 -3.49406 1.82507 0
M  V30 3599 H 326.75 -4.70718 1.93137 0
M  V30 3600 H 326.148 -5.54125 -1.13853 0
M  V30 3601 H 324.705 -6.45087 -0.933053 0
M  V30 3602 N 328.138 -0.959301 -1.25041 0
M  V30 3603 C 329.101 -0.487677 -2.23952 0
M  V30 3604 C 330.101 0.41119 -1.55454 0
M  V30 3605 O 331.291 0.207825 -1.72956 0
M  V30 3606 C 328.423 0.294807 -3.39623 0
M  V30 3607 H 329.616 -1.36198 -2.67189 0
M  V30 3608 H 327.169 -0.743042 -1.37508 0
M  V30 3609 H 327.904 1.18658 -3.01813 0
M  V30 3610 H 327.689 -0.35012 -3.90534 0
M  V30 3611 H 329.179 0.614089 -4.1306 0
M  V30 3612 N 329.616 1.39756 -0.72842 0
M  V30 3613 C 330.844 2.04948 -0.283528 0
M  V30 3614 C 331.259 1.54908 1.0793 0
M  V30 3615 O 330.616 0.711135 1.68075 0
M  V30 3616 C 330.667 3.60498 -0.268957 0
M  V30 3617 O 330.388 4.08695 -1.57798 0
M  V30 3618 C 331.889 4.4288 0.192912 0
M  V30 3619 H 329.109 0.659243 -0.125056 0
M  V30 3620 H 331.653 1.78927 -0.990226 0
M  V30 3621 H 329.808 3.85444 0.388801 0
M  V30 3622 H 330.222 5.02977 -1.48709 0
M  V30 3623 H 331.696 5.51791 0.151952 0
M  V30 3624 H 332.173 4.21418 1.23708 0
M  V30 3625 H 332.779 4.23069 -0.435039 0
M  V30 3626 N 331.094 0.475555 1.50254 0
M  V30 3627 C 332.042 -0.330276 2.30243 0
M  V30 3628 C 333.036 -0.986306 1.37726 0
M  V30 3629 O 334.242 -0.9169 1.54897 0
M  V30 3630 H 330.617 -0.125353 0.741479 0
M  V30 3631 H 332.588 0.364702 2.96163 0
M  V30 3632 C 331.337 -1.39704 3.18399 0
M  V30 3633 H 330.66 -0.901621 3.89501 0
M  V30 3634 H 332.1 -1.93336 3.77355 0
M  V30 3635 C 330.559 -2.4014 2.36293 0
M  V30 3636 O 331.089 -3.45504 2.04914 0
M  V30 3637 N 329.295 -2.1197 1.98789 0
M  V30 3638 H 328.842 -1.2631 2.24507 0
M  V30 3639 H 328.8 -2.79403 1.44157 0
M  V30 3640 N 332.573 -1.56217 0.208337 0
M  V30 3641 C 333.822 -1.97124 -0.427204 0
M  V30 3642 C 334.135 -1.09859 -1.61835 0
M  V30 3643 O 335.341 -1.40606 -2.32255 0
M  V30 3644 C 333.797 -3.50633 -0.811442 0
M  V30 3645 C 333.405 -4.46582 0.35615 0
M  V30 3646 C 335.149 -4.00282 -1.41332 0
M  V30 3647 C 333.056 -5.91379 -0.0497852 0
M  V30 3648 H 331.986 -0.736086 -0.163381 0
M  V30 3649 H 334.637 -1.8099 0.302456 0
M  V30 3650 H 333.019 -3.62319 -1.59815 0
M  V30 3651 H 334.193 -4.46636 1.1337 0
M  V30 3652 H 332.508 -4.07202 0.870396 0
M  V30 3653 H 335.105 -5.0595 -1.72972 0
M  V30 3654 H 335.448 -3.45359 -2.32449 0
M  V30 3655 H 335.981 -3.91764 -0.690323 0
M  V30 3656 H 332.72 -6.50255 0.827529 0
M  V30 3657 H 332.24 -5.94549 -0.791926 0
M  V30 3658 H 333.919 -6.45209 -0.481042 0
M  V30 3659 N 334.051 0.0651679 -1.57465 0
M  V30 3660 C 335.298 0.763063 -1.87573 0
M  V30 3661 C 335.626 1.77242 -0.800961 0
M  V30 3662 O 334.881 1.94651 0.202316 0
M  V30 3663 C 335.18 1.50081 -3.24362 0
M  V30 3664 C 334.846 0.630816 -4.46466 0
M  V30 3665 C 333.508 0.391082 -4.79608 0
M  V30 3666 C 335.86 0.0279465 -5.21193 0
M  V30 3667 C 333.188 -0.460894 -5.84887 0
M  V30 3668 C 335.54 -0.811522 -6.27373 0
M  V30 3669 C 334.204 -1.06106 -6.59013 0
M  V30 3670 H 333.474 0.279224 -0.686378 0
M  V30 3671 H 336.121 0.0236726 -1.91485 0
M  V30 3672 H 334.426 2.31258 -3.16271 0
M  V30 3673 H 336.123 2.04571 -3.44894 0
M  V30 3674 H 332.713 0.8278 -4.2053 0
M  V30 3675 H 336.897 0.200262 -4.95896 0
M  V30 3676 H 332.153 -0.662907 -6.07796 0
M  V30 3677 H 336.327 -1.28537 -6.84435 0
M  V30 3678 H 333.954 -1.723 -7.40417 0
M  V30 3679 N 335.529 1.53961 0.336706 0
M  V30 3680 C 336.492 1.81724 1.39675 0
M  V30 3681 C 337.492 0.688532 1.45313 0
M  V30 3682 O 338.682 0.956829 1.45569 0
M  V30 3683 C 335.814 1.96543 2.78538 0
M  V30 3684 H 337.007 2.76424 1.16318 0
M  V30 3685 H 334.56 1.45478 0.571474 0
M  V30 3686 H 335.295 1.0401 3.07168 0
M  V30 3687 H 335.08 2.78665 2.75841 0
M  V30 3688 H 336.57 2.19516 3.5525 0
M  V30 3689 N 337.007 -0.598083 1.45811 0
M  V30 3690 C 337.939 -1.72231 1.51225 0
M  V30 3691 C 338.952 -1.57757 0.402059 0
M  V30 3692 O 340.141 -1.65464 0.669624 0
M  V30 3693 C 337.241 -3.10331 1.3619 0
M  V30 3694 C 336.414 -3.50955 2.61054 0
M  V30 3695 C 335.473 -4.68055 2.40439 0
M  V30 3696 O 334.499 -4.74691 3.14097 0
M  V30 3697 N 335.701 -5.61941 1.45612 0
M  V30 3698 H 338.466 -1.68046 2.48154 0
M  V30 3699 H 336.027 -0.783637 1.41671 0
M  V30 3700 H 338.019 -3.86439 1.20195 0
M  V30 3701 H 336.589 -3.0897 0.475015 0
M  V30 3702 H 335.809 -2.64711 2.92099 0
M  V30 3703 H 337.097 -3.74858 3.44034 0
M  V30 3704 H 336.495 -5.59301 0.848431 0
M  V30 3705 H 335.052 -6.37542 1.35585 0
M  V30 3706 N 338.485 -1.33259 -0.841409 0
M  V30 3707 C 339.731 -1.24757 -1.59886 0
M  V30 3708 C 340.064 0.186913 -1.93298 0
M  V30 3709 O 339.339 1.12757 -1.5848 0
M  V30 3710 C 339.622 -2.12036 -2.91055 0
M  V30 3711 C 339.475 -3.63929 -2.6434 0
M  V30 3712 C 340.794 -1.9916 -3.92458 0
M  V30 3713 H 337.913 -0.454542 -0.580138 0
M  V30 3714 H 340.555 -1.63335 -0.970647 0
M  V30 3715 H 338.705 -1.79265 -3.44669 0
M  V30 3716 H 340.377 -4.06978 -2.17178 0
M  V30 3717 H 338.62 -3.85935 -1.98082 0
M  V30 3718 H 339.291 -4.20341 -3.57796 0
M  V30 3719 H 341.767 -2.27895 -3.48143 0
M  V30 3720 H 340.643 -2.62484 -4.82072 0
M  V30 3721 H 340.904 -0.963082 -4.31482 0
M  V30 3722 N 339.963 1.05934 -1.16686 0
M  V30 3723 C 341.374 1.60263 -0.957745 0
M  V30 3724 C 341.725 1.89789 0.49745 0
M  V30 3725 O 340.85 1.67401 1.37135 0
M  V30 3726 C 341.445 2.91172 -1.73218 0
M  V30 3727 C 340.004 3.42188 -1.56794 0
M  V30 3728 C 339.151 2.16028 -1.73859 0
M  V30 3729 H 342.102 0.888392 -1.31504 0
M  V30 3730 H 342.123 3.60744 -1.21014 0
M  V30 3731 H 341.635 2.6965 -2.79124 0
M  V30 3732 H 339.736 3.68762 -0.533437 0
M  V30 3733 H 339.849 4.17273 -2.35414 0
M  V30 3734 H 338.213 2.26426 -1.16633 0
M  V30 3735 H 338.996 1.96985 -2.81161 0
M  V30 3736 N 341.441 0.965919 1.2453 0
M  V30 3737 C 342.373 0.452465 2.2469 0
M  V30 3738 C 343.386 -0.437821 1.56802 0
M  V30 3739 O 344.575 -0.244283 1.76821 0
M  V30 3740 C 341.675 -0.366258 3.36915 0
M  V30 3741 C 340.848 0.513701 4.34373 0
M  V30 3742 C 339.907 -0.248716 5.25612 0
M  V30 3743 O 338.933 0.356745 5.68081 0
M  V30 3744 N 340.135 -1.53877 5.59734 0
M  V30 3745 H 342.9 1.31361 2.69378 0
M  V30 3746 H 340.461 0.837541 1.38553 0
M  V30 3747 H 342.453 -0.884297 3.94921 0
M  V30 3748 H 341.023 -1.12832 2.91526 0
M  V30 3749 H 340.243 1.21273 3.75082 0
M  V30 3750 H 341.531 1.11391 4.96457 0
M  V30 3751 H 340.929 -2.05243 5.27154 0
M  V30 3752 H 339.486 -2.00254 6.20275 0
M  V30 3753 N 342.919 -1.39368 0.735821 0
M  V30 3754 C 343.851 -2.2913 0.0567723 0
M  V30 3755 C 344.864 -1.46859 -0.702589 0
M  V30 3756 O 346.053 -1.69925 -0.546616 0
M  V30 3757 C 343.153 -3.25492 -0.943823 0
M  V30 3758 C 342.326 -4.36709 -0.24581 0
M  V30 3759 C 341.385 -5.13376 -1.15463 0
M  V30 3760 O 340.411 -5.65683 -0.631803 0
M  V30 3761 N 341.613 -5.24656 -2.48427 0
M  V30 3762 H 344.378 -2.88047 0.827582 0
M  V30 3763 H 341.939 -1.50957 0.585112 0
M  V30 3764 H 343.931 -3.73657 -1.55443 0
M  V30 3765 H 342.501 -2.676 -1.61583 0
M  V30 3766 H 341.721 -3.9041 0.545286 0
M  V30 3767 H 343.009 -5.08244 0.237891 0
M  V30 3768 H 342.407 -4.83679 -2.93379 0
M  V30 3769 H 340.964 -5.76258 -3.04582 0
M  V30 3770 N 344.397 -0.483516 -1.5 0
M  V30 3771 C 345.307 0.309172 -2.32554 0
M  V30 3772 C 346.323 0.984159 -1.43493 0
M  V30 3773 O 347.499 0.969399 -1.76535 0
M  V30 3774 C 344.564 1.36979 -3.18493 0
M  V30 3775 C 343.625 0.710095 -4.23387 0
M  V30 3776 C 342.858 1.72018 -5.05218 0
M  V30 3777 O 343.081 2.94813 -4.88305 0
M  V30 3778 O 342.015 1.28515 -5.8802 0
M  V30 3779 H 345.841 -0.366064 -3.01486 0
M  V30 3780 H 343.426 -0.24514 -1.47375 0
M  V30 3781 H 345.308 1.98385 -3.71781 0
M  V30 3782 H 343.983 2.02828 -2.52275 0
M  V30 3783 H 342.89 0.0567539 -3.74057 0
M  V30 3784 H 344.223 0.0943557 -4.9211 0
M  V30 3785 N 345.875 1.56104 -0.216619 0
M  V30 3786 C 346.805 2.23063 0.690296 0
M  V30 3787 C 347.786 1.20072 1.20485 0
M  V30 3788 O 348.971 1.48643 1.24976 0
M  V30 3789 C 346.101 2.90672 1.90072 0
M  V30 3790 C 345.055 4.00092 1.5202 0
M  V30 3791 C 344.381 4.54972 2.80899 0
M  V30 3792 C 345.681 5.17398 0.71391 0
M  V30 3793 H 347.375 2.99109 0.132038 0
M  V30 3794 H 344.921 1.43866 0.0620664 0
M  V30 3795 H 346.874 3.36204 2.54057 0
M  V30 3796 H 345.598 2.12066 2.48386 0
M  V30 3797 H 344.257 3.55283 0.903839 0
M  V30 3798 H 343.905 3.73102 3.37348 0
M  V30 3799 H 343.605 5.28817 2.56176 0
M  V30 3800 H 345.129 5.0322 3.45836 0
M  V30 3801 H 346.543 5.59342 1.25735 0
M  V30 3802 H 344.94 5.97444 0.563951 0
M  V30 3803 H 346.01 4.84088 -0.280527 0
M  V30 3804 N 347.353 -0.0568162 1.57498 0
M  V30 3805 C 348.599 -0.75422 1.88253 0
M  V30 3806 C 348.932 -1.76461 0.810865 0
M  V30 3807 O 348.207 -1.93691 -0.177259 0
M  V30 3808 C 348.49 -1.44878 3.2967 0
M  V30 3809 C 348.343 -0.453789 4.47505 0
M  V30 3810 C 349.662 -2.38994 3.69554 0
M  V30 3811 H 346.781 -0.272724 0.684683 0
M  V30 3812 H 349.423 -0.0172113 1.89992 0
M  V30 3813 H 347.573 -2.077 3.28318 0
M  V30 3814 H 349.245 0.170371 4.60985 0
M  V30 3815 H 347.488 0.229552 4.33192 0
M  V30 3816 H 348.159 -0.977699 5.43273 0
M  V30 3817 H 350.635 -1.86239 3.72095 0
M  V30 3818 H 349.511 -2.84587 4.69363 0
M  V30 3819 H 349.772 -3.24461 3.00296 0
M  V30 3820 N 348.832 -1.54138 -0.328536 0
M  V30 3821 C 349.742 -1.86192 -1.42723 0
M  V30 3822 C 350.758 -0.753382 -1.56844 0
M  V30 3823 O 351.934 -1.04718 -1.72035 0
M  V30 3824 C 348.999 -2.07824 -2.77507 0
M  V30 3825 C 348.06 -3.31641 -2.72603 0
M  V30 3826 C 347.293 -3.52232 -4.00959 0
M  V30 3827 O 347.516 -2.7636 -4.9898 0
M  V30 3828 O 346.45 -4.45699 -4.0452 0
M  V30 3829 H 350.276 -2.79608 -1.18547 0
M  V30 3830 H 347.861 -1.3998 -0.522104 0
M  V30 3831 H 349.743 -2.23411 -3.57303 0
M  V30 3832 H 348.418 -1.17596 -3.01584 0
M  V30 3833 H 347.325 -3.21444 -1.91376 0
M  V30 3834 H 348.658 -4.2191 -2.53481 0
M  V30 3835 N 350.31 0.590341 -1.46126 0
M  V30 3836 C 351.243 1.71434 -1.50617 0
M  V30 3837 C 352.221 1.58543 -0.360948 0
M  V30 3838 O 353.405 1.79865 -0.563985 0
M  V30 3839 C 350.532 3.09422 -1.37753 0
M  V30 3840 C 349.578 3.40854 -2.5636 0
M  V30 3841 S 350.411 3.33773 -4.18755 0
M  V30 3842 C 351.567 4.74312 -4.08386 0
M  V30 3843 H 351.8 1.67364 -2.45717 0
M  V30 3844 H 349.333 0.76845 -1.33919 0
M  V30 3845 H 351.291 3.8903 -1.31018 0
M  V30 3846 H 349.952 3.10989 -0.440949 0
M  V30 3847 H 349.145 4.41368 -2.43332 0
M  V30 3848 H 348.747 2.68798 -2.60046 0
M  V30 3849 H 351.039 5.64522 -3.74595 0
M  V30 3850 H 351.982 4.92397 -5.08872 0
M  V30 3851 H 352.39 4.50803 -3.3976 0
M  V30 3852 N 351.788 1.33704 0.83433 0
M  V30 3853 C 353.013 1.28615 1.62705 0
M  V30 3854 C 353.438 -0.139242 1.87584 0
M  V30 3855 O 352.796 -1.09734 1.4432 0
M  V30 3856 C 352.844 2.07139 2.95171 0
M  V30 3857 O 351.948 1.4331 3.86699 0
M  V30 3858 H 351.289 0.44226 0.49528 0
M  V30 3859 H 353.819 1.76335 1.03766 0
M  V30 3860 H 353.829 2.18073 3.44831 0
M  V30 3861 H 352.504 3.10779 2.76386 0
M  V30 3862 H 351.081 1.4105 3.45195 0
M  V30 3863 N 353.266 -1.05314 1.17247 0
M  V30 3864 C 354.496 -1.81707 0.983166 0
M  V30 3865 C 354.904 -1.83222 -0.471822 0
M  V30 3866 O 354.247 -1.25721 -1.3394 0
M  V30 3867 C 354.309 -3.29134 1.44606 0
M  V30 3868 C 353.973 -3.51304 2.92292 0
M  V30 3869 C 354.97 -3.4353 3.90235 0
M  V30 3870 C 352.655 -3.78306 3.30439 0
M  V30 3871 C 354.649 -3.62442 5.24323 0
M  V30 3872 C 352.336 -3.96866 4.64694 0
M  V30 3873 C 353.334 -3.88933 5.61445 0
M  V30 3874 O 353.022 -4.06976 6.93272 0
M  V30 3875 H 352.754 -0.579476 0.348114 0
M  V30 3876 H 355.308 -1.33705 1.55924 0
M  V30 3877 H 353.538 -3.78046 0.813537 0
M  V30 3878 H 355.227 -3.87049 1.22262 0
M  V30 3879 H 355.993 -3.22648 3.62109 0
M  V30 3880 H 351.872 -3.83585 2.55702 0
M  V30 3881 H 355.416 -3.56165 5.99827 0
M  V30 3882 H 351.313 -4.1724 4.92525 0
M  V30 3883 H 352.081 -4.24209 6.99992 0
M  V30 3884 N 354.744 -0.972509 -1.24016 0
M  V30 3885 C 356.155 -0.67517 -1.74064 0
M  V30 3886 C 356.506 0.808939 -1.78747 0
M  V30 3887 O 355.631 1.63286 -1.42009 0
M  V30 3888 C 356.226 -1.21889 -3.16115 0
M  V30 3889 C 354.785 -0.971358 -3.6365 0
M  V30 3890 C 353.932 -1.35134 -2.42145 0
M  V30 3891 H 356.883 -1.14727 -1.09651 0
M  V30 3892 H 356.904 -0.587489 -3.75937 0
M  V30 3893 H 356.416 -2.29906 -3.12674 0
M  V30 3894 H 354.517 0.0930686 -3.72484 0
M  V30 3895 H 354.63 -1.62039 -4.50866 0
M  V30 3896 H 352.994 -0.769751 -2.4279 0
M  V30 3897 H 353.777 -2.4411 -2.41381 0
M  V30 3898 N 356.222 1.38976 -0.743202 0
M  V30 3899 C 357.47 1.99948 -0.29417 0
M  V30 3900 C 357.791 1.59279 1.12495 0
M  V30 3901 O 357.061 0.844808 1.76748 0
M  V30 3902 H 355.641 0.739473 -0.105774 0
M  V30 3903 H 358.303 1.699 -0.954986 0
M  V30 3904 H 357.399 3.10142 -0.349056 0
M  V30 3905 N 357.7 0.491464 1.49741 0
M  V30 3906 C 358.61 -0.296835 2.32715 0
M  V30 3907 C 359.626 -0.976536 1.44013 0
M  V30 3908 O 360.802 -0.960023 1.77047 0
M  V30 3909 C 357.867 -1.35288 3.19215 0
M  V30 3910 C 356.928 -0.687632 4.23757 0
M  V30 3911 C 356.161 -1.69336 5.06123 0
M  V30 3912 O 356.384 -2.92219 4.89861 0
M  V30 3913 O 355.318 -1.25394 5.88693 0
M  V30 3914 H 359.144 0.382048 3.01287 0
M  V30 3915 H 356.729 0.252953 1.47243 0
M  V30 3916 H 358.611 -1.96411 3.72828 0
M  V30 3917 H 357.286 -2.01487 2.53347 0
M  V30 3918 H 356.193 -0.0369159 3.74082 0
M  V30 3919 H 357.526 -0.0682566 4.92153 0
M  V30 3920 N 359.178 -1.55987 0.224894 0
M  V30 3921 C 360.11 -2.17722 -0.716224 0
M  V30 3922 C 361.123 -1.14723 -1.15509 0
M  V30 3923 O 362.312 -1.41688 -1.08567 0
M  V30 3924 C 359.412 -2.74873 -1.98238 0
M  V30 3925 C 358.585 -4.03074 -1.69853 0
M  V30 3926 C 357.644 -4.44757 -2.81208 0
M  V30 3927 O 356.67 -5.11587 -2.49534 0
M  V30 3928 N 357.872 -4.10716 -4.10235 0
M  V30 3929 H 360.637 -2.99109 -0.188123 0
M  V30 3930 H 358.198 -1.6184 0.0440123 0
M  V30 3931 H 360.19 -2.99727 -2.7193 0
M  V30 3932 H 358.76 -1.9777 -2.42086 0
M  V30 3933 H 357.98 -3.86041 -0.797875 0
M  V30 3934 H 359.268 -4.86701 -1.48324 0
M  V30 3935 H 358.666 -3.57019 -4.38809 0
M  V30 3936 H 357.223 -4.40455 -4.80461 0
M  V30 3937 N 360.656 0.0484629 -1.57525 0
M  V30 3938 C 361.589 1.08755 -2.00618 0
M  V30 3939 C 362.567 1.36272 -0.887058 0
M  V30 3940 O 363.751 1.49255 -1.15131 0
M  V30 3941 C 360.878 2.42675 -2.36277 0
M  V30 3942 C 359.924 2.31142 -3.58435 0
M  V30 3943 S 360.757 1.68326 -5.08357 0
M  V30 3944 C 361.913 3.03776 -5.47239 0
M  V30 3945 H 362.146 0.720415 -2.88439 0
M  V30 3946 H 359.679 0.257801 -1.52233 0
M  V30 3947 H 361.637 3.19699 -2.57494 0
M  V30 3948 H 360.298 2.76541 -1.48942 0
M  V30 3949 H 359.491 3.29957 -3.80978 0
M  V30 3950 H 359.093 1.62258 -3.36969 0
M  V30 3951 H 361.385 4.00106 -5.46737 0
M  V30 3952 H 362.328 2.85988 -6.47778 0
M  V30 3953 H 362.736 3.05456 -4.74718 0
M  V30 3954 N 362.134 1.5431 0.320358 0
M  V30 3955 C 363.383 1.7188 1.05546 0
M  V30 3956 C 363.696 0.501143 1.89071 0
M  V30 3957 O 364.902 0.558258 2.65699 0
M  V30 3958 C 363.358 3.04025 1.92605 0
M  V30 3959 C 362.966 4.33207 1.14176 0
M  V30 3960 C 364.71 3.30959 2.65832 0
M  V30 3961 C 362.617 5.56412 2.00399 0
M  V30 3962 H 361.547 0.640547 0.397763 0
M  V30 3963 H 364.198 1.80802 0.313522 0
M  V30 3964 H 362.58 2.89019 2.7071 0
M  V30 3965 H 363.754 4.58989 0.40819 0
M  V30 3966 H 362.069 4.13062 0.526165 0
M  V30 3967 H 364.666 4.20203 3.30656 0
M  V30 3968 H 365.009 2.48979 3.33639 0
M  V30 3969 H 365.542 3.46847 1.94787 0
M  V30 3970 H 362.281 6.41004 1.37094 0
M  V30 3971 H 361.801 5.34844 2.7148 0
M  V30 3972 H 363.48 5.92938 2.58908 0
M  V30 3973 N 363.613 -0.582584 1.46437 0
M  V30 3974 C 364.543 -1.70187 1.59871 0
M  V30 3975 C 365.524 -1.64066 0.449042 0
M  V30 3976 O 366.709 -1.82081 0.6753 0
M  V30 3977 C 363.839 -3.08827 1.58881 0
M  V30 3978 C 362.793 -3.29779 2.72819 0
M  V30 3979 C 362.119 -4.68947 2.5689 0
M  V30 3980 C 363.419 -3.17601 4.1464 0
M  V30 3981 H 365.113 -1.592 2.53566 0
M  V30 3982 H 362.659 -0.764472 1.22032 0
M  V30 3983 H 364.612 -3.86951 1.66873 0
M  V30 3984 H 363.336 -3.20713 0.617306 0
M  V30 3985 H 361.995 -2.54054 2.64296 0
M  V30 3986 H 361.643 -4.77599 1.57823 0
M  V30 3987 H 361.343 -4.83919 3.33312 0
M  V30 3988 H 362.867 -5.4924 2.66773 0
M  V30 3989 H 364.281 -3.8557 4.24274 0
M  V30 3990 H 362.678 -3.44094 4.9165 0
M  V30 3991 H 363.748 -2.14681 4.34788 0
M  V30 3992 N 365.091 -1.34144 -0.827227 0
M  V30 3993 C 366.054 -1.25264 -1.91942 0
M  V30 3994 C 367.054 -0.168866 -1.59911 0
M  V30 3995 O 368.244 -0.421198 -1.69031 0
M  V30 3996 C 365.376 -0.932952 -3.27885 0
M  V30 3997 H 366.569 -2.22357 -2.0124 0
M  V30 3998 H 364.122 -1.1837 -1.0207 0
M  V30 3999 H 364.857 0.0349917 -3.24281 0
M  V30 4000 H 364.642 -1.71682 -3.52516 0
M  V30 4001 H 366.132 -0.895874 -4.07877 0
M  V30 4002 N 366.569 1.04691 -1.17803 0
M  V30 4003 C 367.809 1.79352 -0.980423 0
M  V30 4004 C 368.173 1.85853 0.481958 0
M  V30 4005 O 369.374 2.56656 0.798809 0
M  V30 4006 C 367.645 3.19088 -1.6099 0
M  V30 4007 S 369.204 4.10164 -1.55918 0
M  V30 4008 H 366.022 0.617631 -0.352211 0
M  V30 4009 H 368.624 1.25575 -1.49837 0
M  V30 4010 H 367.328 3.11962 -2.66661 0
M  V30 4011 H 366.859 3.77941 -1.09197 0
M  V30 4012 H 368.874 4.92907 -0.570685 0
M  V30 4013 N 368.047 0.979072 1.23499 0
M  V30 4014 C 368.977 0.537606 2.27227 0
M  V30 4015 C 369.958 -0.428539 1.64613 0
M  V30 4016 O 371.143 -0.322191 1.91509 0
M  V30 4017 C 368.273 -0.162052 3.46922 0
M  V30 4018 C 367.227 0.721242 4.21879 0
M  V30 4019 C 366.553 -0.110555 5.34586 0
M  V30 4020 C 367.853 2.01141 4.82016 0
M  V30 4021 H 369.547 1.40462 2.64406 0
M  V30 4022 H 367.093 0.67684 1.27102 0
M  V30 4023 H 369.046 -0.482192 4.18632 0
M  V30 4024 H 367.77 -1.06351 3.08799 0
M  V30 4025 H 366.429 1.02482 3.51984 0
M  V30 4026 H 366.077 -1.0125 4.92704 0
M  V30 4027 H 365.777 0.477325 5.85658 0
M  V30 4028 H 367.301 -0.425107 6.09118 0
M  V30 4029 H 368.715 1.75612 5.45741 0
M  V30 4030 H 367.112 2.54695 5.43369 0
M  V30 4031 H 368.182 2.69909 4.02836 0
M  V30 4032 N 369.525 -1.3858 0.750561 0
M  V30 4033 C 370.772 -2.00184 0.305373 0
M  V30 4034 C 371.1 -1.59575 -1.11203 0
M  V30 4035 O 370.355 -0.823236 -1.77542 0
M  V30 4036 C 370.654 -3.55455 0.372373 0
M  V30 4037 C 370.32 -4.15765 1.745 0
M  V30 4038 C 368.982 -4.31951 2.12065 0
M  V30 4039 C 371.334 -4.49067 2.64553 0
M  V30 4040 C 368.662 -4.78734 3.39162 0
M  V30 4041 C 371.014 -4.97265 3.91038 0
M  V30 4042 C 369.678 -5.11658 4.28676 0
M  V30 4043 H 368.948 -0.732526 0.111744 0
M  V30 4044 H 371.595 -1.65673 0.960451 0
M  V30 4045 H 369.9 -3.90084 -0.366272 0
M  V30 4046 H 371.597 -4.00999 0.00953918 0
M  V30 4047 H 368.187 -4.03579 1.44297 0
M  V30 4048 H 372.371 -4.36166 2.36796 0
M  V30 4049 H 367.627 -4.88062 3.68246 0
M  V30 4050 H 371.801 -5.22003 4.60962 0
M  V30 4051 H 369.428 -5.47668 5.27222 0
M  V30 4052 N 371.003 -0.499398 -1.49478 0
M  V30 4053 C 372.251 0.0455996 -2.02049 0
M  V30 4054 C 372.572 1.37633 -1.38138 0
M  V30 4055 O 371.842 1.8842 -0.536166 0
M  V30 4056 H 370.422 0.0198416 -0.746736 0
M  V30 4057 H 373.084 -0.656274 -1.83519 0
M  V30 4058 H 372.18 0.176445 -3.11601 0
M  V30 4059 N 372.481 1.55866 -0.233164 0
M  V30 4060 C 373.444 2.1953 0.658715 0
M  V30 4061 C 374.444 1.16053 1.11303 0
M  V30 4062 O 375.634 1.41218 1.01996 0
M  V30 4063 C 372.766 2.82791 1.90373 0
M  V30 4064 H 373.959 2.99721 0.10347 0
M  V30 4065 H 371.512 1.56291 0.0164245 0
M  V30 4066 H 372.247 2.06501 2.50056 0
M  V30 4067 H 372.032 3.58578 1.58632 0
M  V30 4068 H 373.522 3.31556 2.53891 0
M  V30 4069 N 373.959 -0.0401083 1.57549 0
M  V30 4070 C 374.869 -1.06133 2.0922 0
M  V30 4071 C 375.885 -1.40356 1.0284 0
M  V30 4072 O 377.061 -1.49897 1.34509 0
M  V30 4073 C 374.126 -2.34658 2.55218 0
M  V30 4074 C 373.187 -2.07117 3.76033 0
M  V30 4075 C 372.42 -3.29514 4.19829 0
M  V30 4076 O 372.643 -4.39794 3.63232 0
M  V30 4077 O 371.577 -3.15863 5.12362 0
M  V30 4078 H 375.403 -0.652244 2.96613 0
M  V30 4079 H 372.988 -0.256368 1.47184 0
M  V30 4080 H 374.87 -3.10239 2.85184 0
M  V30 4081 H 373.545 -2.74883 1.70941 0
M  V30 4082 H 372.452 -1.29139 3.51104 0
M  V30 4083 H 373.785 -1.71754 4.61261 0
M  V30 4084 N 375.437 -1.54477 -0.31217 0
M  V30 4085 C 376.848 -1.64344 -0.885891 0
M  V30 4086 C 377.199 -0.54485 -1.88483 0
M  V30 4087 O 376.324 0.320387 -2.14015 0
M  V30 4088 C 376.919 -2.97908 -1.61357 0
M  V30 4089 C 375.478 -3.09933 -2.13585 0
M  V30 4090 C 374.625 -2.59971 -0.964897 0
M  V30 4091 H 377.576 -1.58448 -0.0894528 0
M  V30 4092 H 377.597 -2.88706 -2.47848 0
M  V30 4093 H 377.109 -3.77845 -0.886277 0
M  V30 4094 H 375.21 -2.34694 -2.89395 0
M  V30 4095 H 375.323 -4.15916 -2.37804 0
M  V30 4096 H 373.687 -2.16147 -1.34731 0
M  V30 4097 H 374.47 -3.42376 -0.251742 0
M  V30 4098 N 376.915 0.57481 -1.46744 0
M  V30 4099 C 378.155 1.34369 -1.54027 0
M  V30 4100 C 378.519 1.91051 -0.190642 0
M  V30 4101 O 379.72 2.68444 -0.138255 0
M  V30 4102 C 377.991 2.43706 -2.61423 0
M  V30 4103 S 379.55 3.30915 -2.88167 0
M  V30 4104 H 376.368 0.45768 -0.544105 0
M  V30 4105 H 378.97 0.659959 -1.84024 0
M  V30 4106 H 377.674 2.0047 -3.58106 0
M  V30 4107 H 377.205 3.16842 -2.33184 0
M  V30 4108 H 379.22 4.42742 -2.24039 0
M  V30 4109 N 378.394 1.34581 0.820102 0
M  V30 4110 C 379.342 1.26401 1.95258 0
M  V30 4111 C 380.336 0.161553 1.68628 0
M  V30 4112 O 381.542 0.326703 1.7701 0
M  V30 4113 H 377.917 0.392749 0.64129 0
M  V30 4114 H 379.888 2.22105 1.99279 0
M  V30 4115 C 378.637 1.03919 3.31807 0
M  V30 4116 H 377.96 1.87984 3.52848 0
M  V30 4117 H 379.4 1.02232 4.11491 0
M  V30 4118 C 377.859 -0.257433 3.35915 0
M  V30 4119 O 378.389 -1.25784 3.81499 0
M  V30 4120 N 376.595 -0.291524 2.89134 0
M  V30 4121 H 376.142 0.523161 2.52232 0
M  V30 4122 H 376.1 -1.15883 2.92264 0
M  V30 4123 N 379.872 -1.04064 1.18357 0
M  V30 4124 C 381.102 -1.80654 1.00238 0
M  V30 4125 C 381.51 -1.83713 -0.452362 0
M  V30 4126 O 380.853 -1.27135 -1.32599 0
M  V30 4127 C 380.915 -3.27582 1.48088 0
M  V30 4128 C 380.579 -3.48184 2.96002 0
M  V30 4129 C 381.576 -3.39372 3.93856 0
M  V30 4130 C 379.261 -3.7478 3.34433 0
M  V30 4131 C 381.255 -3.5686 5.28138 0
M  V30 4132 C 378.942 -3.91915 4.68877 0
M  V30 4133 C 379.94 -3.82956 5.65539 0
M  V30 4134 O 379.628 -3.996 6.97549 0
M  V30 4135 H 379.36 -0.575751 0.354241 0
M  V30 4136 H 381.914 -1.32044 1.57333 0
M  V30 4137 H 380.144 -3.77161 0.853588 0
M  V30 4138 H 381.833 -3.8573 1.2636 0
M  V30 4139 H 382.599 -3.18789 3.65511 0
M  V30 4140 H 378.478 -3.80852 2.59756 0
M  V30 4141 H 382.022 -3.49783 6.03571 0
M  V30 4142 H 377.919 -4.11992 4.96923 0
M  V30 4143 H 378.687 -4.1676 7.04452 0
M  V30 4144 N 381.35 -0.985608 -1.22978 0
M  V30 4145 C 382.766 -0.695104 -1.43668 0
M  V30 4146 C 382.966 0.736866 -1.87543 0
M  V30 4147 O 382.022 1.50868 -2.02473 0
M  V30 4148 C 383.335 -1.69447 -2.48412 0
M  V30 4149 C 384.883 -1.70909 -2.62219 0
M  V30 4150 C 385.358 -2.6969 -3.70178 0
M  V30 4151 N 386.849 -2.6824 -3.77626 0
M  V30 4152 C 387.584 -3.41339 -4.60733 0
M  V30 4153 N 387.08 -4.24015 -5.4789 0
M  V30 4154 N 388.873 -3.30079 -4.54977 0
M  V30 4155 H 381.024 -1.91054 -0.928016 0
M  V30 4156 H 383.287 -0.823553 -0.469536 0
M  V30 4157 H 382.993 -2.7188 -2.23102 0
M  V30 4158 H 382.867 -1.48147 -3.46889 0
M  V30 4159 H 385.254 -0.691785 -2.86877 0
M  V30 4160 H 385.335 -1.96276 -1.6404 0
M  V30 4161 H 384.979 -3.71566 -3.46268 0
M  V30 4162 H 384.909 -2.41595 -4.67909 0
M  V30 4163 H 387.4 -2.08243 -3.15346 0
M  V30 4164 H 387.713 -4.76636 -6.08308 0
M  V30 4165 H 386.058 -4.28104 -5.47496 0
M  V30 4166 H 389.249 -2.64937 -3.85909 0
M  V30 4167 H 389.422 -3.87308 -5.19516 0
M  V30 4168 N 382.828 1.3818 -0.7579 0
M  V30 4169 C 383.776 2.32277 -0.122482 0
M  V30 4170 C 384.77 1.54238 0.700505 0
M  V30 4171 O 385.976 1.69737 0.599119 0
M  V30 4172 H 382.351 0.751712 -0.0208143 0
M  V30 4173 H 384.322 2.83469 -0.932099 0
M  V30 4174 C 383.071 3.39447 0.753076 0
M  V30 4175 H 382.394 3.99591 0.129184 0
M  V30 4176 H 383.834 4.07684 1.16489 0
M  V30 4177 C 382.293 2.78375 1.8976 0
M  V30 4178 O 382.823 2.68025 2.99208 0
M  V30 4179 N 381.029 2.36121 1.69397 0
M  V30 4180 H 380.576 2.4474 0.803762 0
M  V30 4181 H 380.534 1.95602 2.46145 0
M  V30 4182 N 384.306 0.507319 1.49211 0
M  V30 4183 C 385.553 -0.0349529 2.0247 0
M  V30 4184 C 385.881 -1.36409 1.38647 0
M  V30 4185 O 385.136 -1.88841 0.513566 0
M  V30 4186 C 385.435 -0.229513 3.56662 0
M  V30 4187 C 385.101 1.02241 4.39156 0
M  V30 4188 C 383.763 1.36557 4.61417 0
M  V30 4189 C 386.115 1.85428 4.871 0
M  V30 4190 C 383.443 2.53999 5.28868 0
M  V30 4191 C 385.795 3.02028 5.55843 0
M  V30 4192 C 384.459 3.36717 5.76349 0
M  V30 4193 H 383.729 -0.0127902 0.74089 0
M  V30 4194 H 386.376 0.668756 1.79443 0
M  V30 4195 H 384.681 -1.0158 3.78403 0
M  V30 4196 H 386.378 -0.663641 3.9547 0
M  V30 4197 H 382.968 0.745124 4.22073 0
M  V30 4198 H 387.152 1.6023 4.69723 0
M  V30 4199 H 382.408 2.81105 5.42946 0
M  V30 4200 H 386.582 3.66808 5.91967 0
M  V30 4201 H 384.209 4.27821 6.28389 0
M  V30 4202 N 385.784 -1.5574 0.241426 0
M  V30 4203 C 387.012 -2.03208 -0.389134 0
M  V30 4204 C 387.427 -1.12082 -1.51931 0
M  V30 4205 O 386.784 -0.134183 -1.82006 0
M  V30 4206 C 386.835 -3.50064 -0.902087 0
M  V30 4207 O 386.556 -4.37717 0.18305 0
M  V30 4208 C 388.057 -4.13268 -1.60389 0
M  V30 4209 H 385.277 -0.664509 -0.0931053 0
M  V30 4210 H 387.821 -2.0124 0.36369 0
M  V30 4211 H 385.976 -3.52583 -1.60511 0
M  V30 4212 H 386.39 -5.24097 -0.205579 0
M  V30 4213 H 387.864 -5.17733 -1.91458 0
M  V30 4214 H 388.341 -3.59434 -2.52397 0
M  V30 4215 H 388.947 -4.14655 -0.945576 0
M  V30 4216 N 387.262 0.0317525 -1.57568 0
M  V30 4217 C 388.487 0.738664 -1.938 0
M  V30 4218 C 388.912 1.68242 -0.841208 0
M  V30 4219 O 388.27 1.80157 0.203267 0
M  V30 4220 C 388.318 1.47417 -3.29091 0
M  V30 4221 O 387.422 2.5872 -3.2115 0
M  V30 4222 H 386.763 0.198856 -0.633524 0
M  V30 4223 H 389.293 -0.0119713 -2.04596 0
M  V30 4224 H 389.303 1.84468 -3.63917 0
M  V30 4225 H 387.978 0.781988 -4.08482 0
M  V30 4226 H 386.555 2.24231 -2.97951 0
M  V30 4227 N 388.74 1.54641 0.303973 0
M  V30 4228 C 389.989 1.7299 1.03717 0
M  V30 4229 C 390.302 0.521168 1.88529 0
M  V30 4230 O 391.508 0.586408 2.65092 0
M  V30 4231 C 389.964 3.06051 1.89369 0
M  V30 4232 C 389.572 4.34393 1.09574 0
M  V30 4233 C 391.316 3.3376 2.62306 0
M  V30 4234 C 389.223 5.58506 1.94486 0
M  V30 4235 H 388.153 0.64473 0.390947 0
M  V30 4236 H 390.804 1.81124 0.294328 0
M  V30 4237 H 389.186 2.91874 2.67629 0
M  V30 4238 H 390.36 4.59396 0.359485 0
M  V30 4239 H 388.675 4.13597 0.482324 0
M  V30 4240 H 391.272 4.23687 3.26181 0
M  V30 4241 H 391.615 2.52503 3.3098 0
M  V30 4242 H 392.148 3.48894 1.91097 0
M  V30 4243 H 388.887 6.42422 1.30287 0
M  V30 4244 H 388.407 5.37694 2.65792 0
M  V30 4245 H 390.086 5.95651 2.52605 0
M  V30 4246 N 390.218 -0.567019 1.47046 0
M  V30 4247 C 391.465 -1.32462 1.53167 0
M  V30 4248 C 391.793 -1.93571 0.189841 0
M  V30 4249 O 391.048 -1.77865 -0.816243 0
M  V30 4250 C 391.347 -2.4623 2.59047 0
M  V30 4251 C 391.013 -2.03014 4.02612 0
M  V30 4252 C 389.675 -1.90944 4.41694 0
M  V30 4253 C 392.027 -1.69895 4.92732 0
M  V30 4254 C 389.355 -1.44035 5.68745 0
M  V30 4255 C 391.707 -1.2446 6.20236 0
M  V30 4256 C 390.371 -1.10979 6.5821 0
M  V30 4257 H 389.641 -0.484713 0.560477 0
M  V30 4258 H 392.288 -0.636888 1.80599 0
M  V30 4259 H 390.593 -3.20517 2.25335 0
M  V30 4260 H 392.29 -3.04427 2.61008 0
M  V30 4261 H 388.88 -2.13348 3.71726 0
M  V30 4262 H 393.064 -1.78098 4.63244 0
M  V30 4263 H 388.32 -1.32254 5.96925 0
M  V30 4264 H 392.494 -0.978924 6.89485 0
M  V30 4265 H 390.121 -0.744078 7.5655 0
M  V30 4266 N 391.696 -1.35014 -0.812953 0
M  V30 4267 C 392.926 -1.30841 -1.59888 0
M  V30 4268 C 393.334 0.117576 -1.88834 0
M  V30 4269 O 392.677 1.07807 -1.48739 0
M  V30 4270 C 392.739 -2.0412 -2.95931 0
M  V30 4271 C 392.403 -3.53336 -2.89832 0
M  V30 4272 C 393.4 -4.48052 -2.63714 0
M  V30 4273 C 391.085 -3.95894 -3.0915 0
M  V30 4274 C 393.079 -5.833 -2.56982 0
M  V30 4275 C 390.766 -5.31239 -3.0204 0
M  V30 4276 C 391.764 -6.24754 -2.75991 0
M  V30 4277 O 391.452 -7.57617 -2.68833 0
M  V30 4278 H 391.184 -0.451215 -0.50337 0
M  V30 4279 H 393.738 -1.78354 -1.01877 0
M  V30 4280 H 391.968 -1.51235 -3.559 0
M  V30 4281 H 393.657 -1.93107 -3.57022 0
M  V30 4282 H 394.423 -4.16492 -2.48515 0
M  V30 4283 H 390.302 -3.23495 -3.28438 0
M  V30 4284 H 393.846 -6.56263 -2.36569 0
M  V30 4285 H 389.743 -5.62415 -3.16796 0
M  V30 4286 H 390.511 -7.67469 -2.84487 0
M  V30 4287 N 393.175 1.03435 -1.18907 0
M  V30 4288 C 394.586 1.58195 -0.991523 0
M  V30 4289 C 394.937 1.90801 0.457081 0
M  V30 4290 O 394.062 1.70272 1.33553 0
M  V30 4291 C 394.657 2.87432 -1.79355 0
M  V30 4292 C 393.216 3.38785 -1.64017 0
M  V30 4293 C 392.363 2.12292 -1.78402 0
M  V30 4294 H 395.314 0.860299 -1.33359 0
M  V30 4295 H 395.335 3.58096 -1.28638 0
M  V30 4296 H 394.847 2.63669 -2.84781 0
M  V30 4297 H 392.948 3.67547 -0.611536 0
M  V30 4298 H 393.061 4.12186 -2.44212 0
M  V30 4299 H 391.425 2.23901 -1.2141 0
M  V30 4300 H 392.208 1.90977 -2.85277 0
M  V30 4301 N 394.653 0.992116 1.22453 0
M  V30 4302 C 395.603 0.512969 2.22155 0
M  V30 4303 C 396.587 -0.418416 1.55364 0
M  V30 4304 O 397.779 -0.245363 1.75291 0
M  V30 4305 C 394.908 -0.171822 3.4287 0
M  V30 4306 C 393.994 0.779822 4.16869 0
M  V30 4307 N 394.385 1.92734 4.6764 0
M  V30 4308 C 392.683 0.59554 4.42006 0
M  V30 4309 C 393.384 2.52458 5.24061 0
M  V30 4310 N 392.36 1.80735 5.12675 0
M  V30 4311 H 396.162 1.38817 2.5905 0
M  V30 4312 H 393.676 0.854277 1.38115 0
M  V30 4313 H 395.673 -0.532469 4.13486 0
M  V30 4314 H 394.333 -1.04317 3.07487 0
M  V30 4315 H 395.344 2.30816 4.63621 0
M  V30 4316 H 392.021 -0.229805 4.16867 0
M  V30 4317 H 393.411 3.49433 5.73887 0
M  V30 4318 N 396.131 -1.37776 0.765217 0
M  V30 4319 C 397.361 -2.03828 0.337277 0
M  V30 4320 C 397.769 -1.57841 -1.04321 0
M  V30 4321 O 397.112 -0.752043 -1.67601 0
M  V30 4322 C 397.174 -3.58292 0.294407 0
M  V30 4323 C 396.838 -4.27384 1.61838 0
M  V30 4324 C 397.835 -4.51956 2.56967 0
M  V30 4325 C 395.52 -4.65345 1.89102 0
M  V30 4326 C 397.514 -5.13536 3.77571 0
M  V30 4327 C 395.201 -5.26647 3.09978 0
M  V30 4328 C 396.199 -5.50679 4.04032 0
M  V30 4329 O 395.887 -6.10702 5.2278 0
M  V30 4330 H 395.619 -0.661292 0.140248 0
M  V30 4331 H 398.173 -1.77222 1.03834 0
M  V30 4332 H 396.403 -3.83918 -0.462983 0
M  V30 4333 H 398.092 -4.05763 -0.105581 0
M  V30 4334 H 398.858 -4.23048 2.37183 0
M  V30 4335 H 394.737 -4.45978 1.16725 0
M  V30 4336 H 398.281 -5.3221 4.50997 0
M  V30 4337 H 394.178 -5.54979 3.29649 0
M  V30 4338 H 394.946 -6.29183 5.23517 0
M  V30 4339 N 397.609 -0.515225 -1.4894 0
M  V30 4340 C 398.857 0.0241671 -2.02086 0
M  V30 4341 C 399.178 1.3616 -1.3959 0
M  V30 4342 O 398.448 1.87841 -0.556121 0
M  V30 4343 H 397.028 0.0119203 -0.746905 0
M  V30 4344 H 399.69 -0.675702 -1.82812 0
M  V30 4345 H 398.786 0.143385 -3.1177 0
M  V30 4346 N 399.087 1.5561 -0.249682 0
M  V30 4347 C 400.035 2.22894 0.664906 0
M  V30 4348 C 401.029 1.21743 1.17792 0
M  V30 4349 O 402.235 1.39748 1.13449 0
M  V30 4350 H 398.61 0.715022 0.232912 0
M  V30 4351 H 400.581 2.98307 0.0742998 0
M  V30 4352 C 399.33 2.94424 1.84959 0
M  V30 4353 H 398.653 3.72031 1.46399 0
M  V30 4354 H 400.093 3.44862 2.4667 0
M  V30 4355 C 398.552 1.98454 2.72245 0
M  V30 4356 O 399.082 1.51939 3.71857 0
M  V30 4357 N 397.288 1.65496 2.38871 0
M  V30 4358 H 396.835 2.03517 1.57919 0
M  V30 4359 H 396.793 1.0155 2.97548 0
M  V30 4360 N 400.565 -0.0233959 1.57583 0
M  V30 4361 C 401.805 -0.71784 1.9138 0
M  V30 4362 C 402.169 -1.72216 0.848853 0
M  V30 4363 O 403.37 -2.46527 1.07134 0
M  V30 4364 C 401.641 -1.36489 3.30311 0
M  V30 4365 S 403.2 -2.0877 3.85954 0
M  V30 4366 H 400.018 -0.237676 0.670098 0
M  V30 4367 H 402.62 0.0276709 1.9548 0
M  V30 4368 H 401.324 -0.620782 4.05678 0
M  V30 4369 H 400.855 -2.14883 3.29528 0
M  V30 4370 H 402.87 -3.35988 3.65139 0
M  V30 4371 N 402.043 -1.548 -0.295768 0
M  V30 4372 C 403.273 -1.78069 -1.04762 0
M  V30 4373 C 403.681 -0.542847 -1.81245 0
M  V30 4374 O 403.024 0.497051 -1.76848 0
M  V30 4375 C 403.086 -2.93881 -2.07061 0
M  V30 4376 C 402.75 -4.31777 -1.49725 0
M  V30 4377 C 403.747 -5.11613 -0.924581 0
M  V30 4378 C 401.432 -4.78389 -1.5313 0
M  V30 4379 C 403.426 -6.36184 -0.393594 0
M  V30 4380 C 401.113 -6.02921 -0.996447 0
M  V30 4381 C 402.111 -6.81654 -0.428569 0
M  V30 4382 O 401.799 -8.0384 0.0981593 0
M  V30 4383 H 401.531 -0.597475 -0.316226 0
M  V30 4384 H 404.085 -2.02584 -0.338973 0
M  V30 4385 H 402.315 -2.65003 -2.81621 0
M  V30 4386 H 404.004 -3.04679 -2.6819 0
M  V30 4387 H 404.77 -4.76743 -0.891136 0
M  V30 4388 H 400.649 -4.17132 -1.9627 0
M  V30 4389 H 404.193 -6.97582 0.0503014 0
M  V30 4390 H 400.09 -6.37277 -1.02706 0
M  V30 4391 H 400.858 -8.18499 -0.0146455 0
M  V30 4392 N 403.521 0.559213 -1.47345 0
M  V30 4393 C 404.77 1.31281 -1.53128 0
M  V30 4394 C 405.083 1.94602 -0.197344 0
M  V30 4395 O 406.289 2.71173 -0.133154 0
M  V30 4396 C 404.745 2.38051 -2.69925 0
M  V30 4397 C 404.353 1.8093 -4.0984 0
M  V30 4398 C 406.097 3.14604 -2.84999 0
M  V30 4399 C 404.004 2.85468 -5.1794 0
M  V30 4400 H 402.934 0.493614 -0.569966 0
M  V30 4401 H 405.585 0.594155 -1.73615 0
M  V30 4402 H 403.967 3.12822 -2.42814 0
M  V30 4403 H 405.141 1.12544 -4.46845 0
M  V30 4404 H 403.456 1.16967 -3.99634 0
M  V30 4405 H 406.053 3.92666 -3.62929 0
M  V30 4406 H 406.396 3.68665 -1.93369 0
M  V30 4407 H 406.929 2.46945 -3.1187 0
M  V30 4408 H 403.668 2.36264 -6.1144 0
M  V30 4409 H 403.188 3.52269 -4.85455 0
M  V30 4410 H 404.867 3.48996 -5.44803 0
M  V30 4411 N 404.999 1.35443 0.805782 0
M  V30 4412 C 406.246 1.28761 1.56291 0
M  V30 4413 C 406.574 -0.137747 1.94012 0
M  V30 4414 O 405.829 -1.1032 1.61642 0
M  V30 4415 C 406.128 2.14045 2.86216 0
M  V30 4416 C 405.794 3.62826 2.67709 0
M  V30 4417 C 404.456 4.0338 2.6237 0
M  V30 4418 C 406.808 4.57227 2.50186 0
M  V30 4419 C 404.136 5.36501 2.37451 0
M  V30 4420 C 406.488 5.90547 2.26797 0
M  V30 4421 C 405.152 6.30245 2.1988 0
M  V30 4422 H 404.422 0.471171 0.571908 0
M  V30 4423 H 407.069 1.67347 0.930974 0
M  V30 4424 H 405.374 1.68342 3.53791 0
M  V30 4425 H 407.071 2.0621 3.43917 0
M  V30 4426 H 403.661 3.30644 2.72713 0
M  V30 4427 H 407.845 4.2678 2.53323 0
M  V30 4428 H 403.101 5.66259 2.30567 0
M  V30 4429 H 407.275 6.63274 2.12228 0
M  V30 4430 H 404.902 7.33328 2.00333 0
M  V30 4431 N 406.477 -1.02803 1.19454 0
M  V30 4432 C 407.425 -2.13213 0.929673 0
M  V30 4433 C 408.419 -1.69011 -0.114806 0
M  V30 4434 O 409.625 -1.79967 0.0345147 0
M  V30 4435 H 406 -0.69662 0.28324 0
M  V30 4436 H 407.971 -2.32744 1.86743 0
M  V30 4437 C 406.72 -3.4429 0.485797 0
M  V30 4438 H 406.043 -3.7872 1.28105 0
M  V30 4439 H 407.483 -4.22638 0.339582 0
M  V30 4440 C 405.942 -3.27258 -0.800244 0
M  V30 4441 O 406.472 -3.55967 -1.86146 0
M  V30 4442 N 404.678 -2.80545 -0.75781 0
M  V30 4443 H 404.225 -2.57382 0.106039 0
M  V30 4444 H 404.183 -2.6953 -1.61867 0
M  V30 4445 N 407.956 -0.998596 -1.21925 0
M  V30 4446 C 409.202 -0.688337 -1.91399 0
M  V30 4447 C 409.557 0.771805 -1.76241 0
M  V30 4448 O 408.85 1.55153 -1.1242 0
M  V30 4449 C 409.044 -1.03648 -3.42041 0
M  V30 4450 C 408.873 -2.52892 -3.71855 0
M  V30 4451 C 407.643 -3.19389 -3.91559 0
M  V30 4452 C 409.841 -3.5103 -3.75875 0
M  V30 4453 N 407.823 -4.5805 -4.08734 0
M  V30 4454 C 409.194 -4.75174 -3.98259 0
M  V30 4455 C 411.249 -3.45257 -3.58751 0
M  V30 4456 C 409.952 -5.94247 -4.05294 0
M  V30 4457 C 411.978 -4.63712 -3.67049 0
M  V30 4458 C 411.34 -5.86658 -3.89887 0
M  V30 4459 H 407.439 -0.303251 -0.720807 0
M  V30 4460 H 410.023 -1.27977 -1.46731 0
M  V30 4461 H 408.194 -0.473569 -3.85502 0
M  V30 4462 H 409.926 -0.681619 -3.98919 0
M  V30 4463 H 406.681 -2.69846 -3.89205 0
M  V30 4464 H 407.105 -5.29989 -4.21237 0
M  V30 4465 H 411.747 -2.51215 -3.40075 0
M  V30 4466 H 409.465 -6.88687 -4.22772 0
M  V30 4467 H 413.051 -4.6084 -3.5513 0
M  V30 4468 H 411.931 -6.76786 -3.96144 0
M  V30 4469 N 409.434 1.37368 -0.772513 0
M  V30 4470 C 410.682 1.99279 -0.336516 0
M  V30 4471 C 411.003 1.6163 1.09091 0
M  V30 4472 O 410.273 0.882109 1.74916 0
M  V30 4473 H 408.853 0.737063 -0.121435 0
M  V30 4474 H 411.515 1.67836 -0.990809 0
M  V30 4475 H 410.611 3.09332 -0.414763 0
M  V30 4476 N 410.912 0.523116 1.48665 0
M  V30 4477 C 411.845 -0.290518 2.26343 0
M  V30 4478 C 412.823 -0.950913 1.31895 0
M  V30 4479 O 414.007 -0.976662 1.61225 0
M  V30 4480 C 411.134 -1.41088 3.07915 0
M  V30 4481 C 410.18 -0.862597 4.17686 0
M  V30 4482 S 411.013 0.264135 5.34848 0
M  V30 4483 C 412.169 -0.858864 6.19979 0
M  V30 4484 H 412.402 0.368726 2.95005 0
M  V30 4485 H 409.935 0.30878 1.51281 0
M  V30 4486 H 411.893 -2.0527 3.55492 0
M  V30 4487 H 410.554 -2.04182 2.38681 0
M  V30 4488 H 409.747 -1.70287 4.74361 0
M  V30 4489 H 409.349 -0.297595 3.72814 0
M  V30 4490 H 411.641 -1.7591 6.54264 0
M  V30 4491 H 412.584 -0.330244 7.07329 0
M  V30 4492 H 412.992 -1.13617 5.52948 0
M  V30 4493 N 412.39 -1.55475 0.257931 0
M  V30 4494 C 413.618 -2.03609 -0.367559 0
M  V30 4495 C 414.033 -1.13687 -1.50734 0
M  V30 4496 O 413.39 -0.153479 -1.81853 0
M  V30 4497 C 413.441 -3.51001 -0.864908 0
M  V30 4498 O 413.162 -4.37499 0.229465 0
M  V30 4499 C 414.663 -4.14946 -1.55997 0
M  V30 4500 H 411.883 -0.665459 -0.0860521 0
M  V30 4501 H 414.427 -2.00843 0.385014 0
M  V30 4502 H 412.582 -3.54266 -1.56762 0
M  V30 4503 H 412.996 -5.24286 -0.14998 0
M  V30 4504 H 414.47 -5.19735 -1.85956 0
M  V30 4505 H 414.947 -3.6209 -2.4857 0
M  V30 4506 H 415.553 -4.15635 -0.901543 0
M  V30 4507 N 413.868 0.0150385 -1.57593 0
M  V30 4508 C 414.778 1.02791 -2.10882 0
M  V30 4509 C 415.794 1.38702 -1.0506 0
M  V30 4510 O 416.97 1.47739 -1.36877 0
M  V30 4511 C 414.035 2.30568 -2.58919 0
M  V30 4512 C 413.096 2.01108 -3.79281 0
M  V30 4513 C 412.329 3.22794 -4.25018 0
M  V30 4514 O 412.552 4.33959 -3.70183 0
M  V30 4515 O 411.486 3.07672 -5.17322 0
M  V30 4516 H 415.312 0.604973 -2.97613 0
M  V30 4517 H 412.897 0.23292 -1.47573 0
M  V30 4518 H 414.779 3.05662 -2.90084 0
M  V30 4519 H 413.454 2.72129 -1.75293 0
M  V30 4520 H 412.361 1.23537 -3.53114 0
M  V30 4521 H 413.694 1.64394 -4.63935 0
M  V30 4522 N 415.346 1.54954 0.287554 0
M  V30 4523 C 416.293 1.86834 1.35505 0
M  V30 4524 C 417.263 0.718452 1.49758 0
M  V30 4525 O 418.448 0.968358 1.644 0
M  V30 4526 C 415.588 2.13303 2.71286 0
M  V30 4527 C 414.701 3.40883 2.65373 0
M  V30 4528 C 413.836 3.57125 3.93236 0
M  V30 4529 C 412.875 4.78449 3.81776 0
M  V30 4530 N 412.012 4.91426 5.01443 0
M  V30 4531 H 416.852 2.77889 1.07619 0
M  V30 4532 H 414.389 1.37593 0.520241 0
M  V30 4533 H 416.347 2.26646 3.50267 0
M  V30 4534 H 414.977 1.25499 2.97405 0
M  V30 4535 H 414.029 3.36088 1.78182 0
M  V30 4536 H 415.341 4.29993 2.52799 0
M  V30 4537 H 414.495 3.70207 4.80658 0
M  V30 4538 H 413.234 2.66173 4.0866 0
M  V30 4539 H 412.239 4.65386 2.92738 0
M  V30 4540 H 413.464 5.70822 3.67884 0
M  V30 4541 H 411.41 4.03401 5.17304 0
M  V30 4542 H 411.327 5.74559 4.91343 0
M  V30 4543 H 412.595 5.08879 5.90477 0
M  V30 4544 N 416.824 -0.551391 1.4764 0
M  V30 4545 C 417.787 -1.64007 1.60107 0
M  V30 4546 C 418.787 -1.53601 0.47576 0
M  V30 4547 O 419.977 -1.57655 0.740988 0
M  V30 4548 C 417.109 -3.03569 1.55108 0
M  V30 4549 H 418.302 -1.543 2.57161 0
M  V30 4550 H 415.855 -0.771776 1.35917 0
M  V30 4551 H 416.59 -3.18804 0.594519 0
M  V30 4552 H 416.375 -3.12532 2.36783 0
M  V30 4553 H 417.865 -3.82762 1.66982 0
M  V30 4554 N 418.302 -1.35869 -0.798587 0
M  V30 4555 C 419.232 -1.32118 -1.92528 0
M  V30 4556 C 420.213 -0.194209 -1.68988 0
M  V30 4557 O 421.398 -0.390426 -1.90235 0
M  V30 4558 C 418.528 -1.10047 -3.29404 0
M  V30 4559 C 417.482 -2.19471 -3.67446 0
M  V30 4560 C 416.808 -1.82555 -5.02571 0
M  V30 4561 C 418.108 -3.61495 -3.76987 0
M  V30 4562 H 419.802 -2.26394 -1.95924 0
M  V30 4563 H 417.348 -1.08981 -0.94123 0
M  V30 4564 H 419.301 -1.06061 -4.07835 0
M  V30 4565 H 418.025 -0.122195 -3.26371 0
M  V30 4566 H 416.684 -2.22568 -2.91306 0
M  V30 4567 H 416.332 -0.833249 -4.9605 0
M  V30 4568 H 416.032 -2.5581 -5.28995 0
M  V30 4569 H 417.556 -1.80108 -5.83432 0
M  V30 4570 H 418.97 -3.60676 -4.4563 0
M  V30 4571 H 417.367 -4.33577 -4.14887 0
M  V30 4572 H 418.437 -3.97065 -2.78329 0
M  V30 4573 N 419.78 1.02168 -1.19998 0
M  V30 4574 C 421.191 1.57135 -1.00825 0
M  V30 4575 C 421.542 1.91276 0.436818 0
M  V30 4576 O 420.667 1.71679 1.3174 0
M  V30 4577 C 421.262 2.85514 -1.82393 0
M  V30 4578 C 419.821 3.37027 -1.67601 0
M  V30 4579 C 418.968 2.10388 -1.80644 0
M  V30 4580 H 421.919 0.846106 -1.34264 0
M  V30 4581 H 421.94 3.56711 -1.32429 0
M  V30 4582 H 421.452 2.60634 -2.87561 0
M  V30 4583 H 419.553 3.66878 -0.650485 0
M  V30 4584 H 419.666 4.09572 -2.4857 0
M  V30 4585 H 418.03 2.22601 -1.23778 0
M  V30 4586 H 418.813 1.8794 -2.87286 0
M  V30 4587 N 421.258 1.00505 1.21394 0
M  V30 4588 C 422.483 0.706367 1.95001 0
M  V30 4589 C 422.908 -0.72463 1.73582 0
M  V30 4590 O 422.266 -1.49702 1.0227 0
M  V30 4591 C 422.314 1.03299 3.45487 0
M  V30 4592 O 421.418 0.138275 4.12168 0
M  V30 4593 H 420.759 0.263175 0.609619 0
M  V30 4594 H 423.289 1.34531 1.54151 0
M  V30 4595 H 423.299 0.979872 3.96059 0
M  V30 4596 H 421.974 2.07567 3.60401 0
M  V30 4597 H 420.551 0.247928 3.72075 0
M  V30 4598 N 422.737 -1.36956 0.779787 0
M  V30 4599 C 423.7 -2.2851 0.177662 0
M  V30 4600 C 424.7 -1.48393 -0.619377 0
M  V30 4601 O 425.89 -1.68505 -0.441785 0
M  V30 4602 C 423.022 -3.32428 -0.755279 0
M  V30 4603 H 424.215 -2.83269 0.984823 0
M  V30 4604 H 421.768 -1.46358 0.548544 0
M  V30 4605 H 422.503 -2.82808 -1.58714 0
M  V30 4606 H 422.288 -3.91659 -0.185817 0
M  V30 4607 H 423.778 -4.00824 -1.17174 0
M  V30 4608 N 424.215 -0.530993 -1.48385 0
M  V30 4609 C 425.163 0.244595 -2.3131 0
M  V30 4610 C 426.157 0.93451 -1.41291 0
M  V30 4611 O 427.363 0.85878 -1.58193 0
M  V30 4612 H 423.738 0.0977472 -0.74562 0
M  V30 4613 H 425.709 -0.474369 -2.94605 0
M  V30 4614 C 424.458 1.2779 -3.23365 0
M  V30 4615 H 423.781 0.756439 -3.92579 0
M  V30 4616 H 425.221 1.79198 -3.84271 0
M  V30 4617 C 423.68 2.31205 -2.45042 0
M  V30 4618 O 424.21 3.37661 -2.17596 0
M  V30 4619 N 422.416 2.04446 -2.0652 0
M  V30 4620 H 421.963 1.17891 -2.2904 0
M  V30 4621 H 421.921 2.73861 -1.54427 0
M  V30 4622 N 425.693 1.55336 -0.266172 0
M  V30 4623 C 427.104 1.85236 0.233315 0
M  V30 4624 C 427.455 1.18816 1.56132 0
M  V30 4625 O 426.58 0.473307 2.11161 0
M  V30 4626 C 427.175 3.36059 0.430113 0
M  V30 4627 C 425.734 3.66116 0.873842 0
M  V30 4628 C 424.881 2.77274 -0.0380016 0
M  V30 4629 H 427.832 1.51004 -0.488214 0
M  V30 4630 H 427.853 3.58681 1.26998 0
M  V30 4631 H 427.365 3.84373 -0.536588 0
M  V30 4632 H 425.466 3.23295 1.85233 0
M  V30 4633 H 425.579 4.73699 0.717358 0
M  V30 4634 H 423.943 2.50198 0.476759 0
M  V30 4635 H 424.726 3.284 -1.00042 0
M  V30 4636 N 427.171 -0.0066808 1.57599 0
M  V30 4637 C 428.419 -0.691552 1.899 0
M  V30 4638 C 428.74 -1.74682 0.866672 0
M  V30 4639 O 428.01 -1.95661 -0.0968189 0
M  V30 4640 H 426.59 -0.258416 0.700878 0
M  V30 4641 H 429.252 0.0326655 1.94873 0
M  V30 4642 H 428.348 -1.16702 2.8946 0
M  V30 4643 N 428.649 -1.55105 -0.279332 0
M  V30 4644 C 429.877 -1.7943 -1.03017 0
M  V30 4645 C 430.292 -0.564456 -1.80165 0
M  V30 4646 O 429.649 0.466326 -1.76442 0
M  V30 4647 C 429.7 -3.0155 -1.99374 0
M  V30 4648 O 429.421 -4.19784 -1.25352 0
M  V30 4649 C 430.922 -3.3843 -2.86321 0
M  V30 4650 H 428.142 -0.597882 -0.304594 0
M  V30 4651 H 430.686 -2.02105 -0.312035 0
M  V30 4652 H 428.841 -2.81019 -2.66659 0
M  V30 4653 H 429.255 -4.88781 -1.90246 0
M  V30 4654 H 430.729 -4.27066 -3.49741 0
M  V30 4655 H 431.206 -2.57549 -3.5576 0
M  V30 4656 H 431.812 -3.61197 -2.24536 0
M  V30 4657 N 430.127 0.543554 -1.4793 0
M  V30 4658 C 431.037 1.67657 -1.64098 0
M  V30 4659 C 432.053 1.65934 -0.523622 0
M  V30 4660 O 433.229 1.85133 -0.792943 0
M  V30 4661 C 430.294 3.04146 -1.66421 0
M  V30 4662 C 429.355 3.16831 -2.89684 0
M  V30 4663 C 428.588 4.46809 -2.91886 0
M  V30 4664 O 428.811 5.33095 -2.02895 0
M  V30 4665 O 427.745 4.63573 -3.83906 0
M  V30 4666 H 431.571 1.56957 -2.59997 0
M  V30 4667 H 429.156 0.715116 -1.31173 0
M  V30 4668 H 431.038 3.85346 -1.70548 0
M  V30 4669 H 429.713 3.152 -0.736923 0
M  V30 4670 H 428.62 2.34977 -2.91095 0
M  V30 4671 H 429.953 3.10687 -3.81752 0
M  V30 4672 N 431.605 1.3629 0.791371 0
M  V30 4673 C 432.852 1.30412 1.54916 0
M  V30 4674 C 433.18 -0.117162 1.94147 0
M  V30 4675 O 432.435 -1.08599 1.62803 0
M  V30 4676 C 432.734 2.17068 2.8393 0
M  V30 4677 C 432.4 3.65645 2.63846 0
M  V30 4678 C 431.062 4.0614 2.58077 0
M  V30 4679 C 433.414 4.59855 2.45322 0
M  V30 4680 C 430.742 5.3899 2.31748 0
M  V30 4681 C 433.094 5.9292 2.2052 0
M  V30 4682 C 431.758 6.32542 2.13183 0
M  V30 4683 H 431.028 0.47721 0.566879 0
M  V30 4684 H 433.675 1.68325 0.913172 0
M  V30 4685 H 431.98 1.72085 3.51986 0
M  V30 4686 H 433.677 2.09846 3.4171 0
M  V30 4687 H 430.267 3.33518 2.69191 0
M  V30 4688 H 434.451 4.29443 2.48782 0
M  V30 4689 H 429.707 5.68672 2.24548 0
M  V30 4690 H 433.881 6.65487 2.05182 0
M  V30 4691 H 431.508 7.35412 1.92544 0
M  V30 4692 N 433.083 -1.0153 1.20538 0
M  V30 4693 C 434.331 -1.74803 1.01432 0
M  V30 4694 C 434.652 -1.8963 -0.454456 0
M  V30 4695 O 433.922 -1.43975 -1.32846 0
M  V30 4696 H 432.502 -0.647598 0.372324 0
M  V30 4697 H 435.164 -1.22402 1.5167 0
M  V30 4698 H 434.26 -2.75114 1.47373 0
M  V30 4699 N 434.561 -1.01147 -1.20859 0
M  V30 4700 C 435.491 -0.597663 -2.25722 0
M  V30 4701 C 436.472 0.384744 -1.65692 0
M  V30 4702 O 437.657 0.271303 -1.92296 0
M  V30 4703 C 434.787 0.0700149 -3.47229 0
M  V30 4704 C 433.741 -0.832843 -4.19819 0
M  V30 4705 C 433.067 -0.0312202 -5.34691 0
M  V30 4706 C 434.367 -2.1385 -4.76514 0
M  V30 4707 H 436.061 -1.47423 -2.60589 0
M  V30 4708 H 433.607 -0.710301 -1.25263 0
M  V30 4709 H 435.56 0.37103 -4.19763 0
M  V30 4710 H 434.284 0.981259 -3.11511 0
M  V30 4711 H 432.943 -1.11778 -3.49144 0
M  V30 4712 H 432.591 0.881515 -4.95215 0
M  V30 4713 H 432.291 -0.632434 -5.84187 0
M  V30 4714 H 433.815 0.26346 -6.10031 0
M  V30 4715 H 435.229 -1.9002 -5.40893 0
M  V30 4716 H 433.626 -2.69012 -5.36426 0
M  V30 4717 H 434.696 -2.80495 -3.95538 0
M  V30 4718 N 436.039 1.36541 -0.78704 0
M  V30 4719 C 436.986 2.30082 -0.181901 0
M  V30 4720 C 437.956 1.5186 0.672896 0
M  V30 4721 O 439.141 1.80374 0.622072 0
M  V30 4722 C 436.281 3.3835 0.679197 0
M  V30 4723 C 435.394 4.31565 -0.193882 0
M  V30 4724 C 434.529 5.26915 0.673364 0
M  V30 4725 C 433.568 6.11769 -0.201315 0
M  V30 4726 N 432.705 6.99315 0.624777 0
M  V30 4727 H 437.545 2.81248 -0.985064 0
M  V30 4728 H 435.082 1.38437 -0.497342 0
M  V30 4729 H 437.04 3.99767 1.19341 0
M  V30 4730 H 435.67 2.8851 1.44781 0
M  V30 4731 H 434.722 3.71323 -0.826044 0
M  V30 4732 H 436.034 4.91191 -0.867937 0
M  V30 4733 H 435.188 5.9361 1.25348 0
M  V30 4734 H 433.927 4.67737 1.38105 0
M  V30 4735 H 432.932 5.44039 -0.793849 0
M  V30 4736 H 434.157 6.73022 -0.906568 0
M  V30 4737 H 432.103 6.42648 1.3168 0
M  V30 4738 H 432.02 7.56 0.00835237 0
M  V30 4739 H 433.288 7.70382 1.18879 0
M  V30 4740 N 437.518 0.538854 1.48102 0
M  V30 4741 C 438.448 -0.207654 2.32575 0
M  V30 4742 C 439.429 -0.926559 1.4265 0
M  V30 4743 O 440.614 -0.91061 1.71527 0
M  V30 4744 C 437.744 -1.24957 3.24042 0
M  V30 4745 C 436.698 -0.648263 4.23062 0
M  V30 4746 C 436.024 -1.79348 5.03725 0
M  V30 4747 C 437.324 0.385897 5.20872 0
M  V30 4748 H 439.018 0.497534 2.95237 0
M  V30 4749 H 436.564 0.240715 1.41974 0
M  V30 4750 H 438.517 -1.77983 3.81969 0
M  V30 4751 H 437.241 -1.98446 2.59397 0
M  V30 4752 H 435.9 -0.139452 3.66335 0
M  V30 4753 H 435.548 -2.51696 4.35498 0
M  V30 4754 H 435.248 -1.39702 5.70751 0
M  V30 4755 H 436.772 -2.32735 5.64506 0
M  V30 4756 H 438.186 -0.057607 5.73271 0
M  V30 4757 H 436.583 0.700227 5.96001 0
M  V30 4758 H 437.653 1.28848 4.67468 0
M  V30 4759 N 438.996 -1.55193 0.274407 0
M  V30 4760 C 440.245 -1.98758 -0.343213 0
M  V30 4761 C 440.558 -1.16624 -1.5703 0
M  V30 4762 O 441.764 -1.5033 -2.26082 0
M  V30 4763 C 440.22 -3.53759 -0.661996 0
M  V30 4764 C 439.828 -4.4467 0.54524 0
M  V30 4765 C 441.572 -4.05916 -1.24228 0
M  V30 4766 C 439.479 -5.91058 0.201084 0
M  V30 4767 H 438.409 -0.742353 -0.132014 0
M  V30 4768 H 441.06 -1.79545 0.378948 0
M  V30 4769 H 439.442 -3.68772 -1.44304 0
M  V30 4770 H 440.616 -4.41426 1.32212 0
M  V30 4771 H 438.931 -4.03143 1.04232 0
M  V30 4772 H 441.528 -5.12831 -1.51357 0
M  V30 4773 H 441.871 -3.54908 -2.17592 0
M  V30 4774 H 442.404 -3.9434 -0.523542 0
M  V30 4775 H 439.143 -6.46161 1.10258 0
M  V30 4776 H 438.663 -5.97373 -0.539045 0
M  V30 4777 H 440.342 -6.46669 -0.206954 0
M  V30 4778 N 440.474 -0.00167713 -1.576 0
M  V30 4779 C 441.404 0.988091 -2.11563 0
M  V30 4780 C 442.385 1.35736 -1.02517 0
M  V30 4781 O 443.57 1.44082 -1.30208 0
M  V30 4782 C 440.7 2.27941 -2.62031 0
M  V30 4783 C 439.654 2.0517 -3.75619 0
M  V30 4784 C 438.98 3.4033 -4.12407 0
M  V30 4785 C 440.28 1.41294 -5.02825 0
M  V30 4786 H 441.974 0.538771 -2.94513 0
M  V30 4787 H 439.52 0.257712 -1.41675 0
M  V30 4788 H 441.473 2.97539 -2.9841 0
M  V30 4789 H 440.197 2.74989 -1.76205 0
M  V30 4790 H 438.856 1.37998 -3.39635 0
M  V30 4791 H 438.504 3.85085 -3.23603 0
M  V30 4792 H 438.204 3.25909 -4.88935 0
M  V30 4793 H 439.728 4.1124 -4.51347 0
M  V30 4794 H 441.142 2.00851 -5.36965 0
M  V30 4795 H 439.539 1.37356 -5.84169 0
M  V30 4796 H 440.609 0.382362 -4.8339 0
M  V30 4797 N 441.952 1.55251 0.271103 0
M  V30 4798 C 443.229 1.66664 1.02384 0
M  V30 4799 C 443.609 0.534363 2.04225 0
M  V30 4800 O 442.957 -0.465337 2.23712 0
M  V30 4801 C 443.167 3.05961 1.67895 0
M  V30 4802 C 444.515 3.63772 2.18986 0
M  V30 4803 O 445.539 3.08606 1.77878 0
M  V30 4804 O 444.398 4.60429 2.94393 0
M  V30 4805 H 441.492 0.676957 0.475035 0
M  V30 4806 H 444.038 1.67589 0.26681 0
M  V30 4807 H 442.81 3.79815 0.941071 0
M  V30 4808 H 442.433 3.08943 2.5028 0
M  V30 4809 N 443.43 -0.535701 1.48216 0
M  V30 4810 C 444.679 -1.28828 1.55197 0
M  V30 4811 C 444.992 -1.94263 0.228278 0
M  V30 4812 O 446.198 -2.70927 0.176278 0
M  V30 4813 C 444.654 -2.33727 2.73678 0
M  V30 4814 C 444.262 -1.74386 4.12666 0
M  V30 4815 C 446.006 -3.1003 2.89968 0
M  V30 4816 C 443.913 -2.77192 5.22416 0
M  V30 4817 H 442.843 -0.484484 0.577747 0
M  V30 4818 H 445.494 -0.56646 1.74538 0
M  V30 4819 H 443.876 -3.08919 2.4776 0
M  V30 4820 H 445.05 -1.05421 4.48579 0
M  V30 4821 H 443.365 -1.10595 4.01445 0
M  V30 4822 H 445.962 -3.86842 3.6913 0
M  V30 4823 H 446.305 -3.65542 1.9921 0
M  V30 4824 H 446.838 -2.41952 3.15759 0
M  V30 4825 H 443.577 -2.26507 6.15122 0
M  V30 4826 H 443.097 -3.44502 4.90998 0
M  V30 4827 H 444.776 -3.40285 5.50286 0
M  V30 4828 N 444.908 -1.36708 -0.784132 0
M  V30 4829 C 446.156 -1.30972 -1.53918 0
M  V30 4830 C 446.477 0.109086 -1.94695 0
M  V30 4831 O 445.747 1.05048 -1.65353 0
M  V30 4832 H 444.327 -0.481819 -0.570841 0
M  V30 4833 H 446.989 -1.71063 -0.934002 0
M  V30 4834 H 446.085 -1.94061 -2.44431 0
M  V30 4835 N 446.386 1.0089 -1.21074 0
M  V30 4836 C 447.318 2.09737 -0.924291 0
M  V30 4837 C 448.331 1.62546 0.0909809 0
M  V30 4838 O 449.52 1.77942 -0.141021 0
M  V30 4839 C 446.62 3.36922 -0.36559 0
M  V30 4840 C 445.793 4.13216 -1.43426 0
M  V30 4841 C 444.852 5.18696 -0.885496 0
M  V30 4842 O 443.878 5.47176 -1.56801 0
M  V30 4843 N 445.08 5.79718 0.301227 0
M  V30 4844 H 447.845 2.34895 -1.8613 0
M  V30 4845 H 445.406 1.17341 -1.11546 0
M  V30 4846 H 447.398 4.04697 0.0158407 0
M  V30 4847 H 445.968 3.08952 0.476149 0
M  V30 4848 H 445.188 3.40301 -1.9897 0
M  V30 4849 H 446.476 4.60967 -2.15376 0
M  V30 4850 H 445.874 5.58926 0.872849 0
M  V30 4851 H 444.431 6.48804 0.624211 0
M  V30 4852 N 447.864 1.01787 1.20321 0
M  V30 4853 C 448.774 0.598898 2.26827 0
M  V30 4854 C 449.79 -0.36418 1.70146 0
M  V30 4855 O 450.966 -0.224812 2.00141 0
M  V30 4856 C 448.031 -0.0549769 3.46656 0
M  V30 4857 C 447.092 0.954205 4.18561 0
M  V30 4858 C 446.325 0.331439 5.3267 0
M  V30 4859 O 446.548 -0.86851 5.63749 0
M  V30 4860 O 445.482 1.0488 5.92692 0
M  V30 4861 H 449.308 1.48562 2.64883 0
M  V30 4862 H 446.893 0.787434 1.26964 0
M  V30 4863 H 448.775 -0.420102 4.19301 0
M  V30 4864 H 447.45 -0.915876 3.10473 0
M  V30 4865 H 446.357 1.37072 3.48083 0
M  V30 4866 H 447.69 1.78511 4.58688 0
M  V30 4867 N 449.342 -1.36122 0.79427 0
M  V30 4868 C 450.619 -1.93398 0.292685 0
M  V30 4869 C 450.999 -1.72567 -1.21589 0
M  V30 4870 O 450.347 -1.08745 -2.00965 0
M  V30 4871 C 450.557 -3.42099 0.690614 0
M  V30 4872 C 451.905 -4.19231 0.673105 0
M  V30 4873 O 452.929 -3.50559 0.631389 0
M  V30 4874 O 451.788 -5.41732 0.720362 0
M  V30 4875 H 448.882 -0.823712 0.0736693 0
M  V30 4876 H 451.428 -1.45273 0.87714 0
M  V30 4877 H 450.2 -3.50938 1.73085 0
M  V30 4878 H 449.823 -3.97519 0.0803036 0
M  V30 4879 N 450.82 -0.546701 -1.47814 0
M  V30 4880 C 452.05 -0.0232519 -2.06587 0
M  V30 4881 C 452.458 1.2712 -1.40133 0
M  V30 4882 O 451.801 1.77091 -0.488305 0
M  V30 4883 C 451.863 0.254117 -3.58601 0
M  V30 4884 C 451.527 -0.949331 -4.47031 0
M  V30 4885 C 452.524 -1.85216 -4.85789 0
M  V30 4886 C 450.209 -1.16104 -4.88697 0
M  V30 4887 C 452.203 -2.95047 -5.65001 0
M  V30 4888 C 449.89 -2.26247 -5.67676 0
M  V30 4889 C 450.888 -3.1555 -6.05737 0
M  V30 4890 O 450.576 -4.23784 -6.83127 0
M  V30 4891 H 450.308 -0.0380082 -0.674931 0
M  V30 4892 H 452.862 -0.756631 -1.90956 0
M  V30 4893 H 451.092 1.04168 -3.72406 0
M  V30 4894 H 452.781 0.72167 -3.99433 0
M  V30 4895 H 453.547 -1.70061 -4.54207 0
M  V30 4896 H 449.426 -0.475159 -4.58545 0
M  V30 4897 H 452.97 -3.64778 -5.94628 0
M  V30 4898 H 448.867 -2.41379 -5.98671 0
M  V30 4899 H 449.635 -4.21701 -7.01506 0
M  V30 4900 N 452.299 1.55045 -0.282633 0
M  V30 4901 C 453.545 2.00056 0.332481 0
M  V30 4902 C 453.878 1.1708 1.54939 0
M  V30 4903 O 453.153 0.2427 1.9298 0
M  V30 4904 C 453.436 3.53086 0.70725 0
M  V30 4905 C 453.289 4.46813 -0.517521 0
M  V30 4906 C 454.608 4.12245 1.54084 0
M  V30 4907 H 451.727 0.727268 0.119373 0
M  V30 4908 H 454.369 1.85932 -0.391076 0
M  V30 4909 H 452.519 3.65253 1.32372 0
M  V30 4910 H 454.191 4.46579 -1.15607 0
M  V30 4911 H 452.434 4.18163 -1.1542 0
M  V30 4912 H 453.105 5.51595 -0.211426 0
M  V30 4913 H 455.581 4.03401 1.02013 0
M  V30 4914 H 454.457 5.19515 1.77186 0
M  V30 4915 H 454.718 3.62951 2.52427 0
M  V30 4916 N 453.777 0.010035 1.57597 0
M  V30 4917 C 455.188 -0.531426 1.78977 0
M  V30 4918 C 455.539 -1.73375 0.918454 0
M  V30 4919 O 454.664 -2.16047 0.123635 0
M  V30 4920 C 455.259 -0.97086 3.24592 0
M  V30 4921 C 453.818 -1.45756 3.47033 0
M  V30 4922 C 452.965 -0.413384 2.74201 0
M  V30 4923 H 455.916 0.236166 1.56933 0
M  V30 4924 H 455.937 -1.83633 3.33255 0
M  V30 4925 H 455.449 -0.0955893 3.87982 0
M  V30 4926 H 453.55 -2.35339 2.88871 0
M  V30 4927 H 453.663 -1.4781 4.55729 0
M  V30 4928 H 452.027 -0.877266 2.39115 0
M  V30 4929 H 452.81 0.453092 3.40297 0
M  V30 4930 N 455.255 -1.55392 -0.262866 0
M  V30 4931 C 456.502 -1.76476 -0.993109 0
M  V30 4932 C 456.83 -0.571479 -1.85915 0
M  V30 4933 O 456.085 0.445733 -1.90556 0
M  V30 4934 C 456.384 -3.02889 -1.89718 0
M  V30 4935 C 456.05 -4.34974 -1.18781 0
M  V30 4936 C 454.712 -4.7087 -0.991699 0
M  V30 4937 C 457.064 -5.16695 -0.683798 0
M  V30 4938 C 454.392 -5.86036 -0.279024 0
M  V30 4939 C 456.744 -6.32598 0.0153327 0
M  V30 4940 C 455.408 -6.67127 0.223062 0
M  V30 4941 H 454.678 -0.64577 -0.363404 0
M  V30 4942 H 457.325 -1.89664 -0.264525 0
M  V30 4943 H 455.63 -2.84644 -2.6923 0
M  V30 4944 H 457.327 -3.16399 -2.46359 0
M  V30 4945 H 453.917 -4.06765 -1.35058 0
M  V30 4946 H 458.101 -4.8943 -0.8229 0
M  V30 4947 H 453.357 -6.11306 -0.107456 0
M  V30 4948 H 457.531 -6.95171 0.413584 0
M  V30 4949 H 455.158 -7.56216 0.777265 0
M  V30 4950 N 456.733 0.527833 -1.48498 0
M  V30 4951 C 457.663 1.64136 -1.66077 0
M  V30 4952 C 458.644 1.62286 -0.509625 0
M  V30 4953 O 459.829 1.79449 -0.742413 0
M  V30 4954 C 456.959 3.02717 -1.70234 0
M  V30 4955 C 455.913 3.19426 -2.8487 0
M  V30 4956 C 455.239 4.5909 -2.74118 0
M  V30 4957 C 456.539 3.01993 -4.26142 0
M  V30 4958 H 458.233 1.4968 -2.593 0
M  V30 4959 H 455.779 0.718654 -1.24785 0
M  V30 4960 H 457.732 3.80491 -1.8112 0
M  V30 4961 H 456.456 3.18201 -0.735911 0
M  V30 4962 H 455.115 2.4407 -2.73542 0
M  V30 4963 H 454.763 4.71413 -1.7544 0
M  V30 4964 H 454.463 4.71214 -3.51042 0
M  V30 4965 H 455.987 5.3896 -2.86974 0
M  V30 4966 H 457.401 3.69558 -4.38292 0
M  V30 4967 H 455.798 3.2561 -5.04082 0
M  V30 4968 H 456.868 1.98396 -4.42456 0
M  V30 4969 N 458.211 1.37122 0.776871 0
M  V30 4970 C 459.174 1.32301 1.8716 0
M  V30 4971 C 460.174 0.228099 1.59174 0
M  V30 4972 O 461.364 0.483642 1.67352 0
M  V30 4973 C 458.496 1.054 3.24197 0
M  V30 4974 H 459.689 2.29673 1.92848 0
M  V30 4975 H 457.242 1.22077 0.97606 0
M  V30 4976 H 457.977 0.0853872 3.24188 0
M  V30 4977 H 457.762 1.84648 3.45901 0
M  V30 4978 H 459.252 1.04664 4.04271 0
M  V30 4979 N 459.689 -1.00246 1.21608 0
M  V30 4980 C 460.914 -1.78167 1.06167 0
M  V30 4981 C 461.339 -1.84138 -0.384035 0
M  V30 4982 O 460.697 -1.28683 -1.27712 0
M  V30 4983 C 460.745 -3.19786 1.66642 0
M  V30 4984 O 459.849 -4.02153 0.913613 0
M  V30 4985 H 459.19 -0.549 0.37349 0
M  V30 4986 H 461.72 -1.25994 1.61204 0
M  V30 4987 H 461.73 -3.70451 1.70969 0
M  V30 4988 H 460.405 -3.14754 2.7185 0
M  V30 4989 H 458.982 -3.60711 0.945635 0
M  V30 4990 N 461.167 -1.02423 -1.1978 0
M  V30 4991 C 462.395 -0.737456 -1.93311 0
M  V30 4992 C 462.81 0.703023 -1.75223 0
M  V30 4993 O 462.167 1.47761 -1.07112 0
M  V30 4994 C 462.218 -1.0733 -3.45199 0
M  V30 4995 O 461.939 -2.4572 -3.62702 0
M  V30 4996 C 463.44 -0.80866 -4.35862 0
M  V30 4997 H 460.66 -0.2702 -0.614193 0
M  V30 4998 H 463.204 -1.36747 -1.52054 0
M  V30 4999 H 461.359 -0.488545 -3.84307 0
M  V30 5000 H 461.773 -2.58081 -4.56612 0
M  V30 5001 H 463.247 -1.09365 -5.41057 0
M  V30 5002 H 463.724 0.257025 -4.38447 0
M  V30 5003 H 464.33 -1.37592 -4.02428 0
M  V30 5004 N 462.645 1.35699 -0.801477 0
M  V30 5005 C 463.608 2.28199 -0.213994 0
M  V30 5006 C 464.608 1.49359 0.595691 0
M  V30 5007 O 465.798 1.69186 0.414921 0
M  V30 5008 C 462.93 3.33587 0.702297 0
M  V30 5009 H 464.123 2.81666 -1.02976 0
M  V30 5010 H 461.676 1.45467 -0.571759 0
M  V30 5011 H 462.411 2.85297 1.54195 0
M  V30 5012 H 462.196 3.91906 0.123484 0
M  V30 5013 H 463.686 4.02638 1.10783 0
M  V30 5014 N 464.123 0.554532 1.47522 0
M  V30 5015 C 465.371 0.0294208 2.02079 0
M  V30 5016 C 465.692 -1.32411 1.43151 0
M  V30 5017 O 464.962 -1.863 0.605728 0
M  V30 5018 H 463.542 0.00788672 0.746958 0
M  V30 5019 H 466.204 0.723934 1.80956 0
M  V30 5020 H 465.3 -0.0606745 3.12041 0
M  V30 5021 N 465.601 -1.54893 0.290851 0
M  V30 5022 C 466.847 -2.0023 -0.321867 0
M  V30 5023 C 467.18 -1.179 -1.54316 0
M  V30 5024 O 466.455 -0.25293 -1.92848 0
M  V30 5025 C 466.738 -3.53456 -0.688515 0
M  V30 5026 C 466.591 -4.46532 0.541209 0
M  V30 5027 C 467.91 -4.13057 -1.51895 0
M  V30 5028 H 465.029 -0.727891 -0.115515 0
M  V30 5029 H 467.671 -1.85722 0.400931 0
M  V30 5030 H 465.821 -3.6595 -1.30433 0
M  V30 5031 H 467.493 -4.4596 1.17973 0
M  V30 5032 H 465.736 -4.17545 1.17636 0
M  V30 5033 H 466.407 -5.51475 0.240675 0
M  V30 5034 H 468.883 -4.03937 -0.99872 0
M  V30 5035 H 467.759 -5.20448 -1.74429 0
M  V30 5036 H 468.02 -3.64284 -2.50498 0
M  V30 5037 N 467.08 -0.0183926 -1.57589 0
M  V30 5038 C 468.496 0.337897 -1.55982 0
M  V30 5039 C 468.696 1.73604 -1.02294 0
M  V30 5040 O 467.752 2.43589 -0.664895 0
M  V30 5041 C 469.065 0.196305 -3.00059 0
M  V30 5042 C 470.613 0.269875 -3.11834 0
M  V30 5043 C 471.088 0.157197 -4.5773 0
M  V30 5044 N 472.579 0.214521 -4.62703 0
M  V30 5045 C 473.314 0.150955 -5.73201 0
M  V30 5046 N 472.81 0.0369212 -6.9279 0
M  V30 5047 N 474.603 0.204162 -5.61729 0
M  V30 5048 H 466.754 -0.93279 -1.90821 0
M  V30 5049 H 469.017 -0.359253 -0.877292 0
M  V30 5050 H 468.723 -0.766383 -3.43248 0
M  V30 5051 H 468.597 0.970908 -3.6449 0
M  V30 5052 H 470.984 1.22302 -2.68563 0
M  V30 5053 H 471.065 -0.534918 -2.50144 0
M  V30 5054 H 470.709 -0.792479 -5.01679 0
M  V30 5055 H 470.639 0.980717 -5.17387 0
M  V30 5056 H 473.13 0.303238 -3.76681 0
M  V30 5057 H 473.443 -0.00518321 -7.728 0
M  V30 5058 H 471.788 0.0022886 -6.95 0
M  V30 5059 H 474.979 0.291575 -4.67191 0
M  V30 5060 H 475.152 0.15116 -6.47824 0
M  V30 5061 N 468.558 1.5553 0.254621 0
M  V30 5062 C 469.488 1.9268 1.31897 0
M  V30 5063 C 470.469 0.790797 1.506 0
M  V30 5064 O 471.654 1.05045 1.63337 0
M  V30 5065 C 468.784 2.21477 2.67517 0
M  V30 5066 C 467.738 3.37256 2.63519 0
M  V30 5067 C 467.064 3.51576 4.02862 0
M  V30 5068 C 468.364 4.73157 2.21179 0
M  V30 5069 H 470.058 2.81832 1.01051 0
M  V30 5070 H 467.604 1.35599 0.484662 0
M  V30 5071 H 469.557 2.46055 3.42104 0
M  V30 5072 H 468.281 1.29144 2.99982 0
M  V30 5073 H 466.94 3.12675 1.9139 0
M  V30 5074 H 466.588 2.56676 4.32581 0
M  V30 5075 H 466.288 4.2943 4.01078 0
M  V30 5076 H 467.812 3.78467 4.79161 0
M  V30 5077 H 469.226 4.97158 2.85494 0
M  V30 5078 H 467.623 5.54058 2.30521 0
M  V30 5079 H 468.693 4.70739 1.16332 0
M  V30 5080 N 470.036 -0.519951 1.48776 0
M  V30 5081 C 470.969 -1.64053 1.58625 0
M  V30 5082 C 471.947 -1.5664 0.43618 0
M  V30 5083 O 473.131 -1.76969 0.649159 0
M  V30 5084 C 470.258 -3.02497 1.52359 0
M  V30 5085 C 469.304 -3.28235 2.72331 0
M  V30 5086 S 470.137 -3.13414 4.34203 0
M  V30 5087 C 471.293 -4.54287 4.30551 0
M  V30 5088 H 471.526 -1.5545 2.53422 0
M  V30 5089 H 469.059 -0.703681 1.37433 0
M  V30 5090 H 471.017 -3.82336 1.4943 0
M  V30 5091 H 469.678 -3.08531 0.588824 0
M  V30 5092 H 468.871 -4.29256 2.64113 0
M  V30 5093 H 468.473 -2.56085 2.72574 0
M  V30 5094 H 470.765 -5.46006 4.01103 0
M  V30 5095 H 471.708 -4.67558 5.31785 0
M  V30 5096 H 472.116 -4.34079 3.60881 0
M  V30 5097 N 471.514 -1.37532 -0.769588 0
M  V30 5098 C 472.444 -1.36172 -1.89682 0
M  V30 5099 C 473.425 -0.23001 -1.68538 0
M  V30 5100 O 474.61 -0.43069 -1.89364 0
M  V30 5101 C 471.74 -1.1701 -3.26995 0
M  V30 5102 C 470.694 -2.27216 -3.62708 0
M  V30 5103 C 470.02 -1.93174 -4.98586 0
M  V30 5104 C 471.32 -3.6941 -3.69234 0
M  V30 5105 H 473.014 -2.30499 -1.91078 0
M  V30 5106 H 470.56 -1.10953 -0.917902 0
M  V30 5107 H 472.513 -1.14688 -4.05493 0
M  V30 5108 H 471.237 -0.191395 -3.26039 0
M  V30 5109 H 469.896 -2.28697 -2.86519 0
M  V30 5110 H 469.544 -0.938281 -4.94171 0
M  V30 5111 H 469.244 -2.66973 -5.23449 0
M  V30 5112 H 470.768 -1.92443 -5.79481 0
M  V30 5113 H 472.182 -3.70047 -4.37879 0
M  V30 5114 H 470.579 -4.4228 -4.05597 0
M  V30 5115 H 471.649 -4.0288 -2.69844 0
M  V30 5116 N 472.992 0.995999 -1.22138 0
M  V30 5117 C 473.942 2.06988 -0.956042 0
M  V30 5118 C 474.926 1.60636 0.0921576 0
M  V30 5119 O 476.118 1.76607 -0.117958 0
M  V30 5120 C 473.247 3.39148 -0.532335 0
M  V30 5121 C 472.333 3.92142 -1.61509 0
M  V30 5122 N 472.724 4.18397 -2.84214 0
M  V30 5123 C 471.022 4.20514 -1.48606 0
M  V30 5124 C 471.723 4.61425 -3.54206 0
M  V30 5125 N 470.699 4.64934 -2.81669 0
M  V30 5126 H 474.501 2.25223 -1.88816 0
M  V30 5127 H 472.015 1.17748 -1.11845 0
M  V30 5128 H 474.012 4.15642 -0.323574 0
M  V30 5129 H 472.672 3.22314 0.392921 0
M  V30 5130 H 473.683 4.06682 -3.20671 0
M  V30 5131 H 470.36 4.12769 -0.626762 0
M  V30 5132 H 471.75 4.90387 -4.59315 0
M  V30 5133 N 474.47 1.03057 1.19235 0
M  V30 5134 C 475.38 0.622922 2.26179 0
M  V30 5135 C 476.396 -0.346113 1.70523 0
M  V30 5136 O 477.572 -0.203572 2.00369 0
M  V30 5137 C 474.637 -0.0182063 3.46695 0
M  V30 5138 C 473.698 0.998546 4.17526 0
M  V30 5139 C 472.931 0.387917 5.32288 0
M  V30 5140 O 473.154 -0.808668 5.64639 0
M  V30 5141 O 472.088 1.1116 5.91546 0
M  V30 5142 H 475.914 1.51363 2.63292 0
M  V30 5143 H 473.499 0.800856 1.26122 0
M  V30 5144 H 475.381 -0.375606 4.19723 0
M  V30 5145 H 474.056 -0.882895 3.11427 0
M  V30 5146 H 472.963 1.40756 3.4661 0
M  V30 5147 H 474.296 1.83366 4.56769 0
M  V30 5148 N 475.948 -1.35272 0.808662 0
M  V30 5149 C 476.88 -2.28507 0.178149 0
M  V30 5150 C 477.893 -1.50377 -0.623754 0
M  V30 5151 O 479.082 -1.72583 -0.455774 0
M  V30 5152 C 476.182 -3.30038 -0.769959 0
M  V30 5153 C 475.355 -4.37398 -0.0139749 0
M  V30 5154 C 474.414 -5.18775 -0.880875 0
M  V30 5155 O 473.44 -5.68236 -0.331059 0
M  V30 5156 N 474.642 -5.37087 -2.20267 0
M  V30 5157 H 477.407 -2.83255 0.979106 0
M  V30 5158 H 474.968 -1.47643 0.664308 0
M  V30 5159 H 476.96 -3.81371 -1.35418 0
M  V30 5160 H 475.53 -2.75789 -1.47171 0
M  V30 5161 H 474.75 -3.86971 0.751468 0
M  V30 5162 H 476.038 -5.06268 0.506965 0
M  V30 5163 H 475.436 -4.9855 -2.67328 0
M  V30 5164 H 473.993 -5.91593 -2.73608 0
M  V30 5165 N 477.426 -0.562348 -1.47226 0
M  V30 5166 C 478.842 -0.222492 -1.58042 0
M  V30 5167 C 479.042 1.27505 -1.56028 0
M  V30 5168 O 478.098 2.05555 -1.46641 0
M  V30 5169 C 479.411 -0.853694 -2.88327 0
M  V30 5170 C 480.959 -0.825397 -3.01921 0
M  V30 5171 C 481.434 -1.43576 -4.34914 0
M  V30 5172 N 482.925 -1.39918 -4.41562 0
M  V30 5173 C 483.66 -1.84103 -5.43041 0
M  V30 5174 N 483.156 -2.36167 -6.51304 0
M  V30 5175 N 484.949 -1.75142 -5.34118 0
M  V30 5176 H 477.1 -1.53525 -1.46778 0
M  V30 5177 H 479.363 -0.640527 -0.698877 0
M  V30 5178 H 479.069 -1.90635 -2.95552 0
M  V30 5179 H 478.943 -0.34977 -3.75575 0
M  V30 5180 H 481.33 0.218583 -2.94289 0
M  V30 5181 H 481.411 -1.36713 -2.16202 0
M  V30 5182 H 481.055 -2.47884 -4.43301 0
M  V30 5183 H 480.985 -0.869427 -5.19373 0
M  V30 5184 H 483.476 -1.0184 -3.63919 0
M  V30 5185 H 483.789 -2.67793 -7.24919 0
M  V30 5186 H 482.134 -2.40181 -6.52179 0
M  V30 5187 H 485.325 -1.34241 -4.48439 0
M  V30 5188 H 485.498 -2.09895 -6.13065 0
M  V30 5189 N 478.904 1.54736 -0.299062 0
M  V30 5190 C 480.129 2.04975 0.316254 0
M  V30 5191 C 480.554 1.17501 1.46885 0
M  V30 5192 O 479.912 0.178678 1.80417 0
M  V30 5193 C 479.96 3.52672 0.751997 0
M  V30 5194 O 479.064 3.68226 1.85697 0
M  V30 5195 H 478.405 0.661126 0.0617175 0
M  V30 5196 H 480.935 1.99805 -0.440341 0
M  V30 5197 H 480.945 3.94488 1.04133 0
M  V30 5198 H 479.62 4.158 -0.0911482 0
M  V30 5199 H 478.197 3.38316 1.56834 0
M  V30 5200 N 480.382 0.0267497 1.57577 0
M  V30 5201 C 481.612 -0.6617 1.95717 0
M  V30 5202 C 482.02 -1.66331 0.901706 0
M  V30 5203 O 481.363 -1.83273 -0.125241 0
M  V30 5204 C 481.425 -1.42649 3.29987 0
M  V30 5205 C 481.089 -0.583482 4.5326 0
M  V30 5206 C 482.086 0.140221 5.19711 0
M  V30 5207 C 479.771 -0.521581 4.99585 0
M  V30 5208 C 481.765 0.914523 6.30805 0
M  V30 5209 C 479.452 0.256428 6.10562 0
M  V30 5210 C 480.45 0.973189 6.76031 0
M  V30 5211 O 480.138 1.73845 7.84878 0
M  V30 5212 H 479.87 -0.187483 0.649481 0
M  V30 5213 H 482.424 0.0820847 2.05236 0
M  V30 5214 H 480.654 -2.21536 3.16952 0
M  V30 5215 H 482.343 -2.00282 3.53047 0
M  V30 5216 H 483.109 0.101716 4.84893 0
M  V30 5217 H 478.988 -1.06904 4.48433 0
M  V30 5218 H 482.532 1.4745 6.81839 0
M  V30 5219 H 478.429 0.296657 6.44818 0
M  V30 5220 H 479.197 1.65797 8.01532 0
M  V30 5221 N 481.861 -1.55662 -0.24637 0
M  V30 5222 C 483.272 -1.67953 -0.81539 0
M  V30 5223 C 483.623 -0.624302 -1.86002 0
M  V30 5224 O 482.748 0.229328 -2.15181 0
M  V30 5225 C 483.343 -3.04484 -1.48576 0
M  V30 5226 C 481.902 -3.18713 -2.00248 0
M  V30 5227 C 481.049 -2.6383 -0.853766 0
M  V30 5228 H 484 -1.58685 -0.0221692 0
M  V30 5229 H 484.021 -2.98959 -2.3538 0
M  V30 5230 H 483.533 -3.81264 -0.725222 0
M  V30 5231 H 481.634 -2.46757 -2.79181 0
M  V30 5232 H 481.747 -4.25628 -2.1995 0
M  V30 5233 H 480.111 -2.21667 -1.25442 0
M  V30 5234 H 480.894 -3.43135 -0.106302 0
M  V30 5235 N 483.339 0.512053 -1.4905 0
M  V30 5236 C 484.586 1.26686 -1.57978 0
M  V30 5237 C 484.914 1.92733 -0.261553 0
M  V30 5238 O 484.169 1.80772 0.749667 0
M  V30 5239 C 484.468 2.36446 -2.68008 0
M  V30 5240 C 484.134 1.87932 -4.09869 0
M  V30 5241 C 482.796 1.74419 -4.48477 0
M  V30 5242 C 485.148 1.5149 -4.98698 0
M  V30 5243 C 482.476 1.22827 -5.73699 0
M  V30 5244 C 484.828 1.01355 -6.24428 0
M  V30 5245 C 483.492 0.864735 -6.61875 0
M  V30 5246 H 482.762 0.463577 -0.578081 0
M  V30 5247 H 485.409 0.569421 -1.82838 0
M  V30 5248 H 483.714 3.11933 -2.37076 0
M  V30 5249 H 485.411 2.9453 -2.72127 0
M  V30 5250 H 482.001 1.99405 -3.79389 0
M  V30 5251 H 486.185 1.60782 -4.69535 0
M  V30 5252 H 481.441 1.10008 -6.01422 0
M  V30 5253 H 485.615 0.722351 -6.92644 0
M  V30 5254 H 483.242 0.462777 -7.5879 0
M  V30 5255 N 484.817 1.37938 0.762283 0
M  V30 5256 C 486.066 1.32989 1.51647 0
M  V30 5257 C 486.379 -0.0802922 1.95435 0
M  V30 5258 O 487.585 -0.252295 2.70325 0
M  V30 5259 C 486.041 2.33485 2.73885 0
M  V30 5260 C 485.649 3.80079 2.37157 0
M  V30 5261 C 487.393 2.37563 3.51801 0
M  V30 5262 C 485.3 4.72283 3.55954 0
M  V30 5263 H 484.23 0.494301 0.56937 0
M  V30 5264 H 486.881 1.63448 0.834083 0
M  V30 5265 H 485.263 1.96056 3.44061 0
M  V30 5266 H 486.437 4.26398 1.74704 0
M  V30 5267 H 484.752 3.79037 1.72395 0
M  V30 5268 H 487.349 3.0365 4.40114 0
M  V30 5269 H 487.692 1.39199 3.92338 0
M  V30 5270 H 488.225 2.73747 2.8863 0
M  V30 5271 H 484.964 5.7181 3.2049 0
M  V30 5272 H 484.484 4.30663 4.1748 0
M  V30 5273 H 486.163 4.89876 4.22647 0
M  V30 5274 N 486.295 -0.989507 1.22664 0
M  V30 5275 C 487.711 -1.25395 0.987331 0
M  V30 5276 C 487.911 -1.9899 -0.317056 0
M  V30 5277 O 486.967 -2.30141 -1.03882 0
M  V30 5278 C 488.28 -2.06242 2.18826 0
M  V30 5279 C 489.828 -2.19413 2.23219 0
M  V30 5280 C 490.303 -3.03648 3.42873 0
M  V30 5281 N 491.794 -3.11234 3.43056 0
M  V30 5282 C 492.529 -3.7671 4.32293 0
M  V30 5283 N 492.025 -4.44085 5.31752 0
M  V30 5284 N 493.818 -3.73505 4.2006 0
M  V30 5285 H 485.969 -0.496212 2.06522 0
M  V30 5286 H 488.232 -0.281784 0.905153 0
M  V30 5287 H 487.938 -1.59531 3.13437 0
M  V30 5288 H 487.812 -3.06996 2.19165 0
M  V30 5289 H 490.199 -2.65336 1.29154 0
M  V30 5290 H 490.28 -1.18078 2.26917 0
M  V30 5291 H 489.924 -2.58424 4.37241 0
M  V30 5292 H 489.854 -4.05132 3.36416 0
M  V30 5293 H 492.345 -2.63287 2.71088 0
M  V30 5294 H 492.658 -4.91797 5.96117 0
M  V30 5295 H 491.003 -4.42822 5.35662 0
M  V30 5296 H 494.194 -3.20033 3.41609 0
M  V30 5297 H 494.367 -4.24253 4.8981 0
M  V30 5298 N 487.773 -1.03688 -1.18687 0
M  V30 5299 C 489.05 -0.652397 -1.84399 0
M  V30 5300 C 489.43 0.868386 -1.92412 0
M  V30 5301 O 488.778 1.76832 -1.44716 0
M  V30 5302 C 488.988 -1.3238 -3.22919 0
M  V30 5303 C 490.336 -1.45216 -3.98996 0
M  V30 5304 O 491.36 -1.2816 -3.32345 0
M  V30 5305 O 490.219 -1.72975 -5.18403 0
M  V30 5306 H 487.313 -0.227793 -0.795009 0
M  V30 5307 H 489.859 -1.13553 -1.2611 0
M  V30 5308 H 488.631 -2.36202 -3.11968 0
M  V30 5309 H 488.254 -0.829039 -3.88861 0
M  V30 5310 N 489.251 1.34841 -0.815825 0
M  V30 5311 C 490.161 2.33425 -0.234462 0
M  V30 5312 C 491.177 1.62295 0.627413 0
M  V30 5313 O 492.353 1.94109 0.536987 0
M  V30 5314 C 489.418 3.41471 0.599849 0
M  V30 5315 C 488.479 4.28362 -0.283596 0
M  V30 5316 C 487.712 5.31248 0.51099 0
M  V30 5317 O 487.935 5.43056 1.7449 0
M  V30 5318 O 486.869 6.01812 -0.10297 0
M  V30 5319 H 490.695 2.84962 -1.05024 0
M  V30 5320 H 488.28 1.37774 -0.577809 0
M  V30 5321 H 490.162 4.07464 1.07475 0
M  V30 5322 H 488.837 2.9219 1.39308 0
M  V30 5323 H 487.744 3.65318 -0.805836 0
M  V30 5324 H 489.077 4.81066 -1.041 0
M  V30 5325 N 490.729 0.570148 1.46925 0
M  V30 5326 C 491.977 0.0508523 2.02036 0
M  V30 5327 C 492.298 -1.30885 1.44548 0
M  V30 5328 O 491.568 -1.85647 0.625453 0
M  V30 5329 H 490.148 0.0158088 0.746833 0
M  V30 5330 H 492.81 0.743086 1.80178 0
M  V30 5331 H 491.906 -0.027575 3.12088 0
M  V30 5332 N 492.207 -1.54576 0.307264 0
M  V30 5333 C 493.456 -1.99442 -0.300976 0
M  V30 5334 C 493.769 -1.19928 -1.5452 0
M  V30 5335 O 494.975 -1.55092 -2.22842 0
M  V30 5336 C 493.431 -3.55084 -0.586809 0
M  V30 5337 C 493.039 -4.43413 0.639438 0
M  V30 5338 C 494.783 -4.0846 -1.1559 0
M  V30 5339 C 492.69 -5.90499 0.326411 0
M  V30 5340 H 491.62 -0.744986 -0.116238 0
M  V30 5341 H 494.271 -1.787 0.416947 0
M  V30 5342 H 492.653 -3.71749 -1.36449 0
M  V30 5343 H 493.827 -4.38522 1.41545 0
M  V30 5344 H 492.142 -4.00842 1.1276 0
M  V30 5345 H 494.739 -5.15926 -1.40445 0
M  V30 5346 H 495.082 -3.59443 -2.10015 0
M  V30 5347 H 495.615 -3.95362 -0.439778 0
M  V30 5348 H 492.354 -6.43676 1.23939 0
M  V30 5349 H 491.874 -5.98382 -0.412212 0
M  V30 5350 H 493.553 -6.46962 -0.0697393 0
M  V30 5351 N 493.685 -0.035106 -1.57561 0
M  V30 5352 C 494.915 0.651312 -1.96065 0
M  V30 5353 C 495.323 1.6585 -0.910514 0
M  V30 5354 O 494.666 1.83336 0.11552 0
M  V30 5355 C 494.728 1.40897 -3.30739 0
M  V30 5356 C 494.392 0.559436 -4.53563 0
M  V30 5357 C 495.389 -0.16778 -5.19629 0
M  V30 5358 C 493.074 0.495079 -4.99854 0
M  V30 5359 C 495.068 -0.947963 -6.30311 0
M  V30 5360 C 492.755 -0.288804 -6.10417 0
M  V30 5361 C 493.753 -1.00903 -6.75505 0
M  V30 5362 O 493.441 -1.78005 -7.83945 0
M  V30 5363 H 493.173 0.184036 -0.650467 0
M  V30 5364 H 495.727 -0.0929677 -2.05189 0
M  V30 5365 H 493.957 2.19852 -3.18123 0
M  V30 5366 H 495.646 1.98407 -3.54104 0
M  V30 5367 H 496.412 -0.12743 -4.84833 0
M  V30 5368 H 492.291 1.04524 -4.48994 0
M  V30 5369 H 495.835 -1.51064 -6.81047 0
M  V30 5370 H 491.732 -0.33085 -6.44652 0
M  V30 5371 H 492.5 -1.70046 -8.00641 0
M  V30 5372 N 495.163 1.55791 0.238111 0
M  V30 5373 C 496.126 1.90239 1.27835 0
M  V30 5374 C 497.126 0.779552 1.4064 0
M  V30 5375 O 498.316 1.04747 1.3919 0
M  V30 5376 C 495.448 2.13859 2.65475 0
M  V30 5377 H 496.641 2.83262 0.985034 0
M  V30 5378 H 494.194 1.48818 0.477799 0
M  V30 5379 H 494.929 1.23334 2.99932 0
M  V30 5380 H 494.714 2.95643 2.57561 0
M  V30 5381 H 496.204 2.41664 3.40571 0
M  V30 5382 N 496.642 -0.504142 1.49319 0
M  V30 5383 C 497.575 -1.62361 1.60356 0
M  V30 5384 C 498.553 -1.56169 0.45277 0
M  V30 5385 O 499.737 -1.76271 0.667892 0
M  V30 5386 C 496.864 -3.00864 1.55559 0
M  V30 5387 C 495.91 -3.25328 2.75797 0
M  V30 5388 S 496.743 -3.08791 4.37503 0
M  V30 5389 C 497.899 -4.49695 4.35345 0
M  V30 5390 H 498.132 -1.52753 2.55056 0
M  V30 5391 H 495.665 -0.689065 1.38171 0
M  V30 5392 H 497.623 -3.8073 1.53477 0
M  V30 5393 H 496.284 -3.0789 0.621515 0
M  V30 5394 H 495.477 -4.2643 2.68651 0
M  V30 5395 H 495.079 -2.53179 2.75275 0
M  V30 5396 H 497.371 -5.41721 4.06871 0
M  V30 5397 H 498.314 -4.61891 5.36714 0
M  V30 5398 H 498.722 -4.30227 3.65465 0
M  V30 5399 N 498.12 -1.38341 -0.754957 0
M  V30 5400 C 499.345 -1.37882 -1.5493 0
M  V30 5401 C 499.77 0.0296385 -1.88077 0
M  V30 5402 O 499.128 1.01133 -1.50472 0
M  V30 5403 C 499.176 -2.23996 -2.82592 0
M  V30 5404 O 498.28 -1.65612 -3.77686 0
M  V30 5405 H 497.621 -0.470384 -0.468652 0
M  V30 5406 H 500.151 -1.82084 -0.933082 0
M  V30 5407 H 500.161 -2.37806 -3.3153 0
M  V30 5408 H 498.836 -3.26365 -2.57796 0
M  V30 5409 H 497.413 -1.60936 -3.36384 0
M  V30 5410 N 499.598 0.982988 -1.23187 0
M  V30 5411 C 500.846 1.72052 -1.06031 0
M  V30 5412 C 501.167 1.90769 0.404019 0
M  V30 5413 O 500.437 1.47446 1.28982 0
M  V30 5414 H 499.017 0.637499 -0.389363 0
M  V30 5415 H 501.679 1.18338 -1.54862 0
M  V30 5416 H 500.775 2.7111 -1.54615 0
M  V30 5417 N 501.076 1.04316 1.18135 0
M  V30 5418 C 502.304 0.768117 1.92113 0
M  V30 5419 C 502.719 -0.675057 1.76319 0
M  V30 5420 O 502.076 -1.46038 1.09449 0
M  V30 5421 C 502.127 1.12808 3.43448 0
M  V30 5422 O 501.848 2.5146 3.58747 0
M  V30 5423 C 503.349 0.8779 4.3452 0
M  V30 5424 H 500.569 0.279937 0.609817 0
M  V30 5425 H 503.113 1.39149 1.49859 0
M  V30 5426 H 501.268 0.549623 3.83481 0
M  V30 5427 H 501.682 2.65313 4.52448 0
M  V30 5428 H 503.156 1.17959 5.39249 0
M  V30 5429 H 503.633 -0.187239 4.38801 0
M  V30 5430 H 504.239 1.43977 4.00188 0
M  V30 5431 N 502.554 -1.34406 0.822964 0
M  V30 5432 C 503.464 -2.33298 0.246838 0
M  V30 5433 C 504.48 -1.62625 -0.618797 0
M  V30 5434 O 505.656 -1.94391 -0.526685 0
M  V30 5435 C 502.721 -3.41785 -0.581731 0
M  V30 5436 C 501.782 -4.28206 0.306309 0
M  V30 5437 C 501.015 -5.31512 -0.48281 0
M  V30 5438 O 501.238 -5.43973 -1.71607 0
M  V30 5439 O 500.172 -6.01749 0.134884 0
M  V30 5440 H 503.998 -2.84401 1.06534 0
M  V30 5441 H 501.583 -1.37466 0.585108 0
M  V30 5442 H 503.465 -4.08028 -1.05313 0
M  V30 5443 H 502.14 -2.92925 -1.37756 0
M  V30 5444 H 501.047 -3.64885 0.825199 0
M  V30 5445 H 502.38 -4.80507 1.06649 0
M  V30 5446 N 504.032 -0.577932 -1.46621 0
M  V30 5447 C 505.26 -0.0671642 -2.06791 0
M  V30 5448 C 505.675 1.23571 -1.42743 0
M  V30 5449 O 505.032 1.74602 -0.531062 0
M  V30 5450 C 505.083 0.110357 -3.61332 0
M  V30 5451 O 504.804 -1.14095 -4.22982 0
M  V30 5452 C 506.305 0.656025 -4.38419 0
M  V30 5453 H 503.525 -0.0552732 -0.66872 0
M  V30 5454 H 506.069 -0.797242 -1.8832 0
M  V30 5455 H 504.224 0.790637 -3.79246 0
M  V30 5456 H 504.638 -0.951742 -5.15793 0
M  V30 5457 H 506.112 0.729438 -5.47159 0
M  V30 5458 H 506.589 1.67195 -4.06131 0
M  V30 5459 H 507.195 0.0107692 -4.25299 0
M  V30 5460 N 505.51 1.54411 -0.315457 0
M  V30 5461 C 506.735 2.05299 0.294496 0
M  V30 5462 C 507.16 1.19052 1.4563 0
M  V30 5463 O 506.518 0.197804 1.80218 0
M  V30 5464 C 506.566 3.5345 0.714549 0
M  V30 5465 O 505.67 3.70175 1.81781 0
M  V30 5466 H 505.011 0.661743 0.0547019 0
M  V30 5467 H 507.541 1.99327 -0.461508 0
M  V30 5468 H 507.551 3.9557 0.999426 0
M  V30 5469 H 506.226 4.1568 -0.135244 0
M  V30 5470 H 504.803 3.3996 1.53236 0
M  V30 5471 N 506.988 0.0434614 1.5754 0
M  V30 5472 C 508.237 -0.631454 1.91561 0
M  V30 5473 C 508.55 -1.72457 0.92292 0
M  V30 5474 O 509.756 -2.45712 1.15489 0
M  V30 5475 C 508.212 -1.17447 3.40197 0
M  V30 5476 C 507.82 -0.113867 4.47855 0
M  V30 5477 C 509.564 -1.82507 3.83264 0
M  V30 5478 C 507.471 -0.669326 5.876 0
M  V30 5479 H 506.401 -0.239629 0.714908 0
M  V30 5480 H 509.052 0.111097 1.83163 0
M  V30 5481 H 507.434 -1.96909 3.43574 0
M  V30 5482 H 508.608 0.659348 4.56058 0
M  V30 5483 H 506.923 0.438821 4.14081 0
M  V30 5484 H 509.52 -2.25047 4.85034 0
M  V30 5485 H 509.863 -2.67365 3.19095 0
M  V30 5486 H 510.396 -1.09712 3.82372 0
M  V30 5487 H 507.135 0.141449 6.55347 0
M  V30 5488 H 506.655 -1.4107 5.82974 0
M  V30 5489 H 508.334 -1.15463 6.36614 0
M  V30 5490 N 508.466 -1.55915 -0.229846 0
M  V30 5491 C 509.714 -1.7819 -0.953565 0
M  V30 5492 C 510.035 -0.610504 -1.85197 0
M  V30 5493 O 509.305 0.372988 -1.92316 0
M  V30 5494 H 507.885 -0.657208 -0.355087 0
M  V30 5495 H 510.547 -1.9337 -0.243693 0
M  V30 5496 H 509.643 -2.70011 -1.56527 0
M  V30 5497 N 509.944 0.496216 -1.49584 0
M  V30 5498 C 511.19 1.25189 -1.59548 0
M  V30 5499 C 511.523 1.9212 -0.283466 0
M  V30 5500 O 510.798 1.80947 0.713324 0
M  V30 5501 C 511.081 2.31516 -2.75812 0
M  V30 5502 C 510.934 1.69054 -4.16822 0
M  V30 5503 C 512.253 3.3304 -2.87702 0
M  V30 5504 H 509.372 0.45379 -0.580727 0
M  V30 5505 H 512.014 0.549327 -1.81886 0
M  V30 5506 H 510.164 2.91438 -2.56897 0
M  V30 5507 H 511.836 1.12923 -4.47265 0
M  V30 5508 H 510.079 0.994485 -4.22247 0
M  V30 5509 H 510.75 2.462 -4.94054 0
M  V30 5510 H 513.226 2.83114 -3.04936 0
M  V30 5511 H 512.102 4.04794 -3.7072 0
M  V30 5512 H 512.363 3.95655 -1.97255 0
M  V30 5513 N 511.423 1.38739 0.74761 0
M  V30 5514 C 512.353 1.39173 1.87492 0
M  V30 5515 C 513.334 0.256794 1.6815 0
M  V30 5516 O 514.519 0.460762 1.88655 0
M  V30 5517 C 511.649 1.22197 3.25093 0
M  V30 5518 C 510.603 2.32957 3.59047 0
M  V30 5519 C 509.929 2.01082 4.95449 0
M  V30 5520 C 511.229 3.75237 3.6331 0
M  V30 5521 H 512.923 2.3351 1.87386 0
M  V30 5522 H 510.469 1.12399 0.900134 0
M  V30 5523 H 512.422 1.21124 4.03617 0
M  V30 5524 H 511.146 0.243241 3.25693 0
M  V30 5525 H 509.805 2.33226 2.82845 0
M  V30 5526 H 509.453 1.01678 4.92616 0
M  V30 5527 H 509.153 2.75267 5.19136 0
M  V30 5528 H 510.677 2.01638 5.76346 0
M  V30 5529 H 512.091 3.76966 4.31937 0
M  V30 5530 H 510.488 4.48677 3.98509 0
M  V30 5531 H 511.558 4.07122 2.634 0
M  V30 5532 N 512.901 -0.976442 1.23707 0
M  V30 5533 C 514.147 -1.72081 1.07312 0
M  V30 5534 C 514.48 -1.90275 -0.388476 0
M  V30 5535 O 513.755 -1.4579 -1.28746 0
M  V30 5536 C 514.038 -3.11675 1.80363 0
M  V30 5537 C 513.891 -3.01027 3.3422 0
M  V30 5538 C 515.21 -4.1117 1.5693 0
M  V30 5539 H 512.329 -0.624583 0.391236 0
M  V30 5540 H 514.971 -1.13649 1.52263 0
M  V30 5541 H 513.121 -3.61559 1.42153 0
M  V30 5542 H 514.793 -2.58637 3.81975 0
M  V30 5543 H 513.036 -2.3744 3.63049 0
M  V30 5544 H 513.707 -3.9988 3.80525 0
M  V30 5545 H 516.183 -3.7011 1.90151 0
M  V30 5546 H 515.059 -5.06928 2.10513 0
M  V30 5547 H 515.32 -4.392 0.505548 0
M  V30 5548 N 514.379 -1.04941 -1.1758 0
M  V30 5549 C 515.656 -0.671918 -1.83697 0
M  V30 5550 C 516.036 0.847929 -1.93322 0
M  V30 5551 O 515.384 1.75287 -1.46583 0
M  V30 5552 C 515.594 -1.35797 -3.21497 0
M  V30 5553 C 516.942 -1.4944 -3.97433 0
M  V30 5554 O 517.966 -1.31678 -3.30967 0
M  V30 5555 O 516.825 -1.78463 -5.1654 0
M  V30 5556 H 513.919 -0.236212 -0.792548 0
M  V30 5557 H 516.465 -1.14884 -1.24899 0
M  V30 5558 H 515.237 -2.39498 -3.09446 0
M  V30 5559 H 514.86 -0.870236 -3.8796 0
M  V30 5560 N 515.857 1.33968 -0.830081 0
M  V30 5561 C 516.804 2.29387 -0.255008 0
M  V30 5562 C 517.774 1.53923 0.624243 0
M  V30 5563 O 518.959 1.82262 0.564372 0
M  V30 5564 C 516.099 3.4034 0.571209 0
M  V30 5565 C 515.212 4.30729 -0.331083 0
M  V30 5566 C 514.347 5.2879 0.505389 0
M  V30 5567 C 513.386 6.10819 -0.395843 0
M  V30 5568 N 512.523 7.00948 0.401979 0
M  V30 5569 H 517.363 2.77972 -1.07404 0
M  V30 5570 H 514.9 1.36785 -0.541133 0
M  V30 5571 H 516.858 4.03361 1.06562 0
M  V30 5572 H 515.488 2.9297 1.35529 0
M  V30 5573 H 514.54 3.68507 -0.943759 0
M  V30 5574 H 515.852 4.88181 -1.02377 0
M  V30 5575 H 515.006 5.97297 1.06399 0
M  V30 5576 H 513.745 4.71894 1.23155 0
M  V30 5577 H 512.75 5.41238 -0.966529 0
M  V30 5578 H 513.975 6.69797 -1.12023 0
M  V30 5579 H 511.921 6.46512 1.11168 0
M  V30 5580 H 511.838 7.55643 -0.232167 0
M  V30 5581 H 513.106 7.73774 0.943102 0
M  V30 5582 N 517.335 0.585699 1.46312 0
M  V30 5583 C 518.265 -0.133556 2.33118 0
M  V30 5584 C 519.246 -0.880707 1.45525 0
M  V30 5585 O 520.431 -0.855579 1.74337 0
M  V30 5586 C 517.561 -1.14585 3.27853 0
M  V30 5587 C 516.515 -0.513341 4.2491 0
M  V30 5588 C 515.841 -1.63231 5.09175 0
M  V30 5589 C 517.141 0.551413 5.19381 0
M  V30 5590 H 518.835 0.59121 2.93505 0
M  V30 5591 H 516.381 0.285761 1.41136 0
M  V30 5592 H 518.334 -1.65741 3.87438 0
M  V30 5593 H 517.058 -1.90093 2.65579 0
M  V30 5594 H 515.717 -0.0228349 3.66593 0
M  V30 5595 H 515.365 -2.37713 4.43285 0
M  V30 5596 H 515.065 -1.21473 5.74907 0
M  V30 5597 H 516.589 -2.14658 5.71624 0
M  V30 5598 H 518.003 0.124804 5.73164 0
M  V30 5599 H 516.4 0.889486 5.93471 0
M  V30 5600 H 517.47 1.43655 4.63132 0
M  V30 5601 N 518.813 -1.54241 0.323641 0
M  V30 5602 C 519.745 -2.21836 -0.576311 0
M  V30 5603 C 520.758 -1.21837 -1.07979 0
M  V30 5604 O 521.947 -1.48306 -0.99336 0
M  V30 5605 C 519.047 -2.86923 -1.80356 0
M  V30 5606 C 518.22 -4.1306 -1.43875 0
M  V30 5607 C 517.279 -4.6174 -2.52353 0
M  V30 5608 O 516.305 -5.26421 -2.16494 0
M  V30 5609 N 517.507 -4.35974 -3.83284 0
M  V30 5610 H 520.272 -2.997 0.00247987 0
M  V30 5611 H 517.833 -1.61233 0.146848 0
M  V30 5612 H 519.825 -3.16414 -2.52318 0
M  V30 5613 H 518.395 -2.12765 -2.29019 0
M  V30 5614 H 517.615 -3.90334 -0.550752 0
M  V30 5615 H 518.903 -4.95148 -1.17071 0
M  V30 5616 H 518.301 -3.84203 -4.15216 0
M  V30 5617 H 516.858 -4.70119 -4.51477 0
M  V30 5618 N 520.291 -0.0518155 -1.57515 0
M  V30 5619 C 521.707 0.304735 -1.56664 0
M  V30 5620 C 521.907 1.71395 -1.05953 0
M  V30 5621 O 520.963 2.42123 -0.716414 0
M  V30 5622 C 522.276 0.132614 -3.00407 0
M  V30 5623 C 523.824 0.20367 -3.12337 0
M  V30 5624 C 524.299 0.0600706 -4.57961 0
M  V30 5625 N 525.79 0.116326 -4.63054 0
M  V30 5626 C 526.525 0.0293363 -5.73392 0
M  V30 5627 N 526.021 -0.110038 -6.92713 0
M  V30 5628 N 527.814 0.0849651 -5.62036 0
M  V30 5629 H 519.965 -0.973056 -1.888 0
M  V30 5630 H 522.228 -0.377781 -0.869474 0
M  V30 5631 H 521.934 -0.839019 -3.41546 0
M  V30 5632 H 521.808 0.893376 -3.66468 0
M  V30 5633 H 524.195 1.16578 -2.71097 0
M  V30 5634 H 524.276 -0.587857 -2.48954 0
M  V30 5635 H 523.92 -0.898715 -4.99886 0
M  V30 5636 H 523.85 0.87075 -5.19351 0
M  V30 5637 H 526.341 0.22327 -3.7724 0
M  V30 5638 H 526.654 -0.169104 -7.72615 0
M  V30 5639 H 524.999 -0.145132 -6.94848 0
M  V30 5640 H 528.19 0.192411 -4.67704 0
M  V30 5641 H 528.363 0.0137131 -6.47999 0
M  V30 5642 N 521.769 1.56035 0.221574 0
M  V30 5643 C 522.702 1.87427 1.30178 0
M  V30 5644 C 523.68 0.731658 1.45209 0
M  V30 5645 O 524.864 0.980016 1.61022 0
M  V30 5646 C 521.991 2.08127 2.67209 0
M  V30 5647 C 521.037 3.30813 2.69194 0
M  V30 5648 S 521.87 4.86738 2.23263 0
M  V30 5649 C 523.026 5.10474 3.62171 0
M  V30 5650 H 523.259 2.78756 1.03355 0
M  V30 5651 H 520.792 1.48469 0.423813 0
M  V30 5652 H 522.75 2.20736 3.46101 0
M  V30 5653 H 521.411 1.17595 2.91256 0
M  V30 5654 H 520.604 3.42341 3.6989 0
M  V30 5655 H 520.206 3.1706 1.98366 0
M  V30 5656 H 522.498 4.9937 4.5786 0
M  V30 5657 H 523.441 6.12359 3.55558 0
M  V30 5658 H 523.849 4.38208 3.55857 0
M  V30 5659 N 523.247 -0.488276 1.49845 0
M  V30 5660 C 524.495 -1.23911 1.59657 0
M  V30 5661 C 524.816 -1.92816 0.291005 0
M  V30 5662 O 524.086 -1.83328 -0.690485 0
M  V30 5663 H 522.666 -0.460357 0.588286 0
M  V30 5664 H 525.328 -0.564794 1.86537 0
M  V30 5665 H 524.424 -1.99625 2.39909 0
M  V30 5666 N 524.725 -1.39134 -0.740242 0
M  V30 5667 C 525.635 -1.39697 -1.88473 0
M  V30 5668 C 526.651 -0.292403 -1.71526 0
M  V30 5669 O 527.827 -0.533021 -1.94219 0
M  V30 5670 C 524.892 -1.23382 -3.24003 0
M  V30 5671 C 523.953 -2.43763 -3.53381 0
M  V30 5672 C 523.186 -2.28216 -4.82445 0
M  V30 5673 O 523.409 -1.28288 -5.55786 0
M  V30 5674 O 522.343 -3.1709 -5.11603 0
M  V30 5675 H 526.169 -2.36159 -1.90952 0
M  V30 5676 H 523.754 -1.20194 -0.887346 0
M  V30 5677 H 525.636 -1.16395 -4.05006 0
M  V30 5678 H 524.311 -0.300121 -3.22306 0
M  V30 5679 H 523.218 -2.56325 -2.72485 0
M  V30 5680 H 524.551 -3.35808 -3.59852 0
M  V30 5681 N 526.204 0.969867 -1.24223 0
M  V30 5682 C 527.615 1.52717 -1.07399 0
M  V30 5683 C 527.966 1.92956 0.355298 0
M  V30 5684 O 527.091 1.77112 1.2434 0
M  V30 5685 C 527.686 2.77521 -1.94339 0
M  V30 5686 C 526.245 3.29615 -1.81744 0
M  V30 5687 C 525.392 2.02537 -1.89405 0
M  V30 5688 H 528.343 0.788399 -1.37732 0
M  V30 5689 H 528.364 3.50773 -1.47439 0
M  V30 5690 H 527.876 2.48203 -2.98357 0
M  V30 5691 H 525.977 3.63789 -0.805505 0
M  V30 5692 H 526.09 3.98661 -2.65718 0
M  V30 5693 H 524.454 2.17151 -1.33108 0
M  V30 5694 H 525.237 1.75587 -2.94999 0
M  V30 5695 N 527.682 1.05563 1.17022 0
M  V30 5696 C 528.912 0.787307 1.91011 0
M  V30 5697 C 529.32 -0.661256 1.77268 0
M  V30 5698 O 528.663 -1.46379 1.10991 0
M  V30 5699 C 528.725 1.09313 3.42478 0
M  V30 5700 C 528.389 2.53863 3.80004 0
M  V30 5701 C 529.386 3.52081 3.82538 0
M  V30 5702 C 527.071 2.88969 4.10855 0
M  V30 5703 C 529.065 4.83449 4.15399 0
M  V30 5704 C 526.752 4.2054 4.43384 0
M  V30 5705 C 527.75 5.17589 4.45635 0
M  V30 5706 O 527.438 6.46799 4.77395 0
M  V30 5707 H 527.17 0.285463 0.61277 0
M  V30 5708 H 529.724 1.41051 1.49311 0
M  V30 5709 H 527.954 0.412833 3.8449 0
M  V30 5710 H 529.643 0.810224 3.97731 0
M  V30 5711 H 530.409 3.26299 3.58823 0
M  V30 5712 H 526.288 2.1409 4.08272 0
M  V30 5713 H 529.832 5.59194 4.1707 0
M  V30 5714 H 525.729 4.46083 4.66563 0
M  V30 5715 H 526.497 6.51677 4.95237 0
M  V30 5716 N 529.16 -1.33526 0.837174 0
M  V30 5717 C 530.385 -2.0258 0.444545 0
M  V30 5718 C 530.81 -1.6258 -0.946006 0
M  V30 5719 O 530.168 -0.817548 -1.6182 0
M  V30 5720 C 530.216 -3.5605 0.571006 0
M  V30 5721 O 529.32 -4.10422 -0.403431 0
M  V30 5722 H 528.661 -0.638866 0.180958 0
M  V30 5723 H 531.191 -1.70462 1.13154 0
M  V30 5724 H 531.201 -4.05488 0.452024 0
M  V30 5725 H 529.876 -3.84509 1.58512 0
M  V30 5726 H 528.453 -3.72113 -0.242147 0
M  V30 5727 N 530.638 -0.59345 -1.46 0
M  V30 5728 C 532.049 -0.169801 -1.85926 0
M  V30 5729 C 532.4 1.26984 -1.49565 0
M  V30 5730 O 531.525 1.96076 -0.915602 0
M  V30 5731 C 532.12 -0.301385 -3.37457 0
M  V30 5732 C 530.679 0.0674684 -3.7634 0
M  V30 5733 C 529.826 -0.632383 -2.69993 0
M  V30 5734 H 532.777 -0.801014 -1.37002 0
M  V30 5735 H 532.798 0.470331 -3.77582 0
M  V30 5736 H 532.31 -1.34927 -3.63891 0
M  V30 5737 H 530.411 1.11507 -3.55523 0
M  V30 5738 H 530.524 -0.316332 -4.78055 0
M  V30 5739 H 528.888 -0.0714961 -2.546 0
M  V30 5740 H 529.671 -1.68212 -2.99265 0
M  V30 5741 N 532.116 1.54067 -0.331816 0
M  V30 5742 C 533.356 2.02625 0.26876 0
M  V30 5743 C 533.72 1.21462 1.48697 0
M  V30 5744 O 534.921 1.59863 2.16096 0
M  V30 5745 C 533.192 3.52554 0.586577 0
M  V30 5746 S 534.751 4.23035 1.16563 0
M  V30 5747 H 531.569 0.706395 0.0807862 0
M  V30 5748 H 534.171 1.89844 -0.466856 0
M  V30 5749 H 532.875 4.09242 -0.308046 0
M  V30 5750 H 532.406 3.69432 1.35217 0
M  V30 5751 H 534.421 4.31382 2.45203 0
M  V30 5752 N 533.594 0.0601682 1.57485 0
M  V30 5753 C 534.822 -0.620937 1.97363 0
M  V30 5754 C 535.237 -1.63846 0.938082 0
M  V30 5755 O 534.594 -1.82339 -0.0766578 0
M  V30 5756 C 534.645 -1.29987 3.37321 0
M  V30 5757 O 534.366 -0.323081 4.36907 0
M  V30 5758 C 535.867 -2.06989 3.92008 0
M  V30 5759 H 533.087 -0.169135 0.649334 0
M  V30 5760 H 535.631 0.129132 2.04092 0
M  V30 5761 H 533.786 -2.0011 3.31715 0
M  V30 5762 H 534.2 -0.808754 5.18227 0
M  V30 5763 H 535.674 -2.49901 4.92192 0
M  V30 5764 H 536.151 -2.92173 3.2792 0
M  V30 5765 H 536.757 -1.41757 4.0098 0
M  V30 5766 N 535.072 -1.5615 -0.213296 0
M  V30 5767 C 536.318 -1.79812 -0.937849 0
M  V30 5768 C 536.651 -0.631201 -1.83656 0
M  V30 5769 O 535.926 0.369165 -1.90964 0
M  V30 5770 C 536.209 -3.13613 -1.76972 0
M  V30 5771 C 536.062 -4.40766 -0.89695 0
M  V30 5772 C 537.381 -3.43931 -2.7459 0
M  V30 5773 H 534.5 -0.654138 -0.339518 0
M  V30 5774 H 537.142 -1.88877 -0.20623 0
M  V30 5775 H 535.292 -3.06015 -2.39347 0
M  V30 5776 H 536.964 -4.60392 -0.289306 0
M  V30 5777 H 535.207 -4.33326 -0.202756 0
M  V30 5778 H 535.878 -5.30843 -1.51358 0
M  V30 5779 H 538.354 -3.5171 -2.22349 0
M  V30 5780 H 537.23 -4.38706 -3.29891 0
M  V30 5781 H 537.491 -2.6651 -3.52739 0
M  V30 5782 N 536.55 0.480323 -1.50102 0
M  V30 5783 C 537.498 1.60024 -1.68805 0
M  V30 5784 C 538.492 1.60089 -0.553888 0
M  V30 5785 O 539.698 1.64349 -0.734127 0
M  V30 5786 H 536.073 0.530841 -0.532646 0
M  V30 5787 H 538.044 1.41408 -2.62767 0
M  V30 5788 C 536.793 2.98029 -1.79092 0
M  V30 5789 H 536.116 2.98694 -2.65748 0
M  V30 5790 H 537.556 3.75871 -1.96206 0
M  V30 5791 C 536.015 3.32538 -0.540388 0
M  V30 5792 O 536.545 4.00386 0.324637 0
M  V30 5793 N 534.751 2.87873 -0.397154 0
M  V30 5794 H 534.298 2.32834 -1.1021 0
M  V30 5795 H 534.256 3.11328 0.438425 0
M  V30 5796 N 538.028 1.39524 0.732853 0
M  V30 5797 C 539.276 1.36594 1.48951 0
M  V30 5798 C 539.597 -0.0367507 1.94965 0
M  V30 5799 O 538.867 -0.988391 1.69138 0
M  V30 5800 H 537.447 0.502673 0.552566 0
M  V30 5801 H 540.109 1.74411 0.869869 0
M  V30 5802 H 539.205 2.03 2.3706 0
M  V30 5803 N 539.506 -0.963266 1.24736 0
M  V30 5804 C 540.731 -1.74699 1.11781 0
M  V30 5805 C 541.156 -1.85267 -0.325258 0
M  V30 5806 O 540.514 -1.32681 -1.23553 0
M  V30 5807 C 540.562 -3.14322 1.76731 0
M  V30 5808 O 539.666 -3.99043 1.04109 0
M  V30 5809 H 539.007 -0.53684 0.390767 0
M  V30 5810 H 541.537 -1.20801 1.65131 0
M  V30 5811 H 541.547 -3.64824 1.82668 0
M  V30 5812 H 540.222 -3.05946 2.81726 0
M  V30 5813 H 538.799 -3.5752 1.05991 0
M  V30 5814 N 540.985 -1.06182 -1.16461 0
M  V30 5815 C 541.895 -0.682671 -2.24448 0
M  V30 5816 C 542.911 0.30078 -1.71381 0
M  V30 5817 O 544.087 0.150376 -2.00838 0
M  V30 5818 C 541.152 -0.0737202 -3.46622 0
M  V30 5819 C 540.213 -1.10889 -4.14731 0
M  V30 5820 C 539.446 -0.528908 -5.31073 0
M  V30 5821 O 539.669 0.65868 -5.66584 0
M  V30 5822 O 538.603 -1.26805 -5.88391 0
M  V30 5823 H 542.429 -1.58291 -2.59187 0
M  V30 5824 H 540.014 -0.834013 -1.23954 0
M  V30 5825 H 541.896 0.264192 -4.20571 0
M  V30 5826 H 540.571 0.800015 -3.13658 0
M  V30 5827 H 539.478 -1.49896 -3.42756 0
M  V30 5828 H 540.811 -1.95412 -4.51747 0
M  V30 5829 N 542.463 1.3308 -0.844243 0
M  V30 5830 C 543.709 1.97898 -0.443206 0
M  V30 5831 C 544.042 1.66699 0.99625 0
M  V30 5832 O 543.317 0.949704 1.69738 0
M  V30 5833 C 543.6 3.53801 -0.670606 0
M  V30 5834 C 543.453 3.94667 -2.15772 0
M  V30 5835 C 544.772 4.39936 -0.120226 0
M  V30 5836 H 541.891 0.718861 -0.162504 0
M  V30 5837 H 544.533 1.57633 -1.06075 0
M  V30 5838 H 542.683 3.88229 -0.14496 0
M  V30 5839 H 544.355 3.70469 -2.74865 0
M  V30 5840 H 542.598 3.44203 -2.6402 0
M  V30 5841 H 543.269 5.03275 -2.26757 0
M  V30 5842 H 545.745 4.12183 -0.5696 0
M  V30 5843 H 544.621 5.4803 -0.308984 0
M  V30 5844 H 544.882 4.31184 0.976347 0
M  V30 5845 N 543.941 0.601185 1.45683 0
M  V30 5846 C 545.352 0.179659 1.85834 0
M  V30 5847 C 545.703 -1.26189 1.50236 0
M  V30 5848 O 544.828 -1.95587 0.925987 0
M  V30 5849 C 545.423 0.319277 3.37292 0
M  V30 5850 C 543.982 -0.0475092 3.7637 0
M  V30 5851 C 543.129 0.646692 2.69654 0
M  V30 5852 H 546.08 0.808268 1.36575 0
M  V30 5853 H 546.101 -0.4503 3.77826 0
M  V30 5854 H 545.613 1.36855 3.6317 0
M  V30 5855 H 543.714 -1.0962 3.5611 0
M  V30 5856 H 543.827 0.34168 4.7788 0
M  V30 5857 H 542.191 0.0849971 2.54558 0
M  V30 5858 H 542.974 1.69797 2.98369 0
M  V30 5859 N 545.419 -1.53889 0.339982 0
M  V30 5860 C 546.665 -2.01152 -0.258003 0
M  V30 5861 C 546.998 -1.22749 -1.50487 0
M  V30 5862 O 546.273 -0.314156 -1.91946 0
M  V30 5863 C 546.556 -3.55468 -0.575717 0
M  V30 5864 C 546.409 -4.44584 0.682996 0
M  V30 5865 C 547.728 -4.1768 -1.38677 0
M  V30 5866 H 544.847 -0.731198 -0.0922992 0
M  V30 5867 H 547.489 -1.84352 0.459814 0
M  V30 5868 H 545.639 -3.69914 -1.18725 0
M  V30 5869 H 547.311 -4.41981 1.32102 0
M  V30 5870 H 545.554 -4.13592 1.3086 0
M  V30 5871 H 546.225 -5.5043 0.416001 0
M  V30 5872 H 548.701 -4.0691 -0.869705 0
M  V30 5873 H 547.577 -5.25734 -1.57783 0
M  V30 5874 H 547.838 -3.72069 -2.38782 0
M  V30 5875 N 546.897 -0.0685191 -1.57451 0
M  V30 5876 C 547.829 0.929372 -2.09512 0
M  V30 5877 C 548.842 1.26354 -1.02657 0
M  V30 5878 O 550.031 1.2213 -1.30179 0
M  V30 5879 C 547.131 2.24612 -2.53777 0
M  V30 5880 C 546.304 2.09128 -3.84167 0
M  V30 5881 C 545.363 3.24079 -4.14559 0
M  V30 5882 O 544.389 2.99215 -4.8421 0
M  V30 5883 N 545.591 4.49077 -3.67845 0
M  V30 5884 H 548.356 0.484901 -2.95751 0
M  V30 5885 H 545.917 0.11729 -1.61475 0
M  V30 5886 H 547.909 3.00412 -2.71172 0
M  V30 5887 H 546.479 2.60569 -1.72692 0
M  V30 5888 H 545.699 1.17815 -3.76182 0
M  V30 5889 H 546.987 1.9603 -4.69521 0
M  V30 5890 H 546.385 4.72165 -3.11571 0
M  V30 5891 H 544.942 5.21915 -3.90446 0
M  V30 5892 N 548.375 1.56261 0.205012 0
M  V30 5893 C 549.323 1.94631 1.27364 0
M  V30 5894 C 550.317 0.830434 1.47649 0
M  V30 5895 O 551.523 1.01538 1.48627 0
M  V30 5896 H 547.898 0.618755 0.427371 0
M  V30 5897 H 549.869 2.83768 0.922941 0
M  V30 5898 C 548.618 2.29358 2.61324 0
M  V30 5899 H 547.941 3.14744 2.46528 0
M  V30 5900 H 549.381 2.60076 3.34868 0
M  V30 5901 C 547.84 1.12461 3.17575 0
M  V30 5902 O 548.37 0.394407 3.99759 0
M  V30 5903 N 546.576 0.904036 2.7618 0
M  V30 5904 H 546.123 1.49956 2.09454 0
M  V30 5905 H 546.081 0.123662 3.14157 0
M  V30 5906 N 549.853 -0.472356 1.50355 0
M  V30 5907 C 551.1 -1.22453 1.61281 0
M  V30 5908 C 551.428 -1.91972 0.31256 0
M  V30 5909 O 550.683 -1.82696 -0.701475 0
M  V30 5910 C 550.982 -2.29257 2.74182 0
M  V30 5911 C 550.648 -1.76999 4.14708 0
M  V30 5912 C 549.31 -1.62467 4.52944 0
M  V30 5913 C 551.662 -1.38215 5.0254 0
M  V30 5914 C 548.99 -1.07574 5.76754 0
M  V30 5915 C 551.342 -0.847638 6.26895 0
M  V30 5916 C 550.006 -0.688946 6.63935 0
M  V30 5917 H 549.276 -0.448087 0.590168 0
M  V30 5918 H 551.923 -0.520744 1.84284 0
M  V30 5919 H 550.228 -3.05538 2.45263 0
M  V30 5920 H 551.925 -2.87212 2.7984 0
M  V30 5921 H 548.515 -1.89276 3.84542 0
M  V30 5922 H 552.699 -1.48276 4.73633 0
M  V30 5923 H 547.955 -0.940237 6.04127 0
M  V30 5924 H 552.129 -0.538455 6.94315 0
M  V30 5925 H 549.756 -0.261435 7.5975 0
M  V30 5926 N 551.331 -1.39911 -0.725443 0
M  V30 5927 C 552.561 -1.40744 -1.51244 0
M  V30 5928 C 552.969 -0.00275403 -1.892 0
M  V30 5929 O 552.312 0.981299 -1.55294 0
M  V30 5930 C 552.374 -2.22527 -2.82351 0
M  V30 5931 C 552.038 -3.71053 -2.66774 0
M  V30 5932 C 553.035 -4.63916 -2.34686 0
M  V30 5933 C 550.72 -4.14753 -2.83347 0
M  V30 5934 C 552.714 -5.98463 -2.19366 0
M  V30 5935 C 550.401 -5.49372 -2.67644 0
M  V30 5936 C 551.399 -6.41042 -2.357 0
M  V30 5937 O 551.087 -7.73181 -2.20107 0
M  V30 5938 H 550.819 -0.482314 -0.473655 0
M  V30 5939 H 553.373 -1.84472 -0.903284 0
M  V30 5940 H 551.603 -1.73563 -3.45562 0
M  V30 5941 H 553.292 -2.15421 -3.44018 0
M  V30 5942 H 554.058 -4.31453 -2.21525 0
M  V30 5943 H 549.937 -3.43728 -3.072 0
M  V30 5944 H 553.481 -6.69979 -1.94354 0
M  V30 5945 H 549.378 -5.81424 -2.80387 0
M  V30 5946 H 550.146 -7.84008 -2.35103 0
M  V30 5947 N 552.809 0.956637 -1.25245 0
M  V30 5948 C 554.034 1.74104 -1.12706 0
M  V30 5949 C 554.459 1.85436 0.315429 0
M  V30 5950 O 553.817 1.33334 1.22848 0
M  V30 5951 C 553.865 3.1338 -1.78396 0
M  V30 5952 O 552.969 3.98485 -1.06224 0
M  V30 5953 H 552.31 0.53476 -0.393609 0
M  V30 5954 H 554.84 1.19924 -1.65769 0
M  V30 5955 H 554.85 3.6385 -1.846 0
M  V30 5956 H 553.525 3.04448 -2.83345 0
M  V30 5957 H 552.102 3.56952 -1.07886 0
M  V30 5958 N 554.287 1.06798 1.15896 0
M  V30 5959 C 555.564 0.701057 1.82605 0
M  V30 5960 C 555.944 -0.817066 1.94646 0
M  V30 5961 O 555.292 -1.72933 1.49353 0
M  V30 5962 C 555.502 1.40895 3.19296 0
M  V30 5963 C 556.85 1.55744 3.95005 0
M  V30 5964 O 557.874 1.36927 3.28831 0
M  V30 5965 O 556.733 1.86658 5.13635 0
M  V30 5966 H 553.827 0.248791 0.78869 0
M  V30 5967 H 556.373 1.16857 1.23055 0
M  V30 5968 H 555.145 2.4439 3.05596 0
M  V30 5969 H 554.768 0.931847 3.86526 0
M  V30 5970 N 555.766 -1.3263 0.851289 0
M  V30 5971 C 556.996 -2.01271 0.466222 0
M  V30 5972 C 557.404 -1.64156 -0.940714 0
M  V30 5973 O 556.747 -0.857109 -1.62479 0
M  V30 5974 C 556.809 -3.55695 0.521672 0
M  V30 5975 C 556.473 -4.16227 1.88691 0
M  V30 5976 C 557.47 -4.34699 2.85189 0
M  V30 5977 C 555.155 -4.52377 2.18313 0
M  V30 5978 C 557.149 -4.88484 4.09465 0
M  V30 5979 C 554.836 -5.05868 3.42843 0
M  V30 5980 C 555.834 -5.23869 4.38235 0
M  V30 5981 O 555.522 -5.76218 5.6056 0
M  V30 5982 H 555.254 -0.651034 0.18202 0
M  V30 5983 H 557.808 -1.7026 1.14894 0
M  V30 5984 H 556.038 -3.86086 -0.217888 0
M  V30 5985 H 557.727 -4.05613 0.152682 0
M  V30 5986 H 558.493 -4.07107 2.63607 0
M  V30 5987 H 554.372 -4.37652 1.44851 0
M  V30 5988 H 557.916 -5.02451 4.83931 0
M  V30 5989 H 553.813 -5.32891 3.64277 0
M  V30 5990 H 554.581 -5.94616 5.62471 0
M  V30 5991 N 557.244 -0.608902 -1.45362 0
M  V30 5992 C 558.192 0.121639 -2.32282 0
M  V30 5993 C 559.186 0.858301 -1.46046 0
M  V30 5994 O 560.392 0.773718 -1.62523 0
M  V30 5995 H 556.767 0.058086 -0.749753 0
M  V30 5996 H 558.738 -0.629866 -2.91677 0
M  V30 5997 C 557.487 1.1047 -3.29684 0
M  V30 5998 H 556.81 0.547278 -3.96036 0
M  V30 5999 H 558.25 1.58576 -3.9323 0
M  V30 6000 C 556.709 2.17891 -2.56954 0
M  V30 6001 O 557.239 3.25652 -2.35189 0
M  V30 6002 N 555.445 1.93211 -2.17066 0
M  V30 6003 H 554.992 1.05584 -2.34967 0
M  V30 6004 H 554.95 2.6529 -1.68727 0
M  V30 6005 N 558.722 1.53707 -0.348139 0
M  V30 6006 C 559.95 2.05406 0.248224 0
M  V30 6007 C 560.365 1.22282 1.43849 0
M  V30 6008 O 559.722 0.259244 1.80649 0
M  V30 6009 C 559.773 3.55446 0.658793 0
M  V30 6010 O 559.494 4.35417 -0.484149 0
M  V30 6011 C 560.995 4.23335 1.31539 0
M  V30 6012 H 558.215 0.669344 0.0471075 0
M  V30 6013 H 560.759 1.98257 -0.501456 0
M  V30 6014 H 558.914 3.62803 1.35841 0
M  V30 6015 H 559.328 5.24268 -0.155949 0
M  V30 6016 H 560.802 5.29692 1.55338 0
M  V30 6017 H 561.279 3.75967 2.27036 0
M  V30 6018 H 561.885 4.20184 0.657683 0
M  V30 6019 N 560.2 0.0768682 1.57412 0
M  V30 6020 C 561.428 -0.59997 1.9801 0
M  V30 6021 C 561.843 -1.62842 0.955408 0
M  V30 6022 O 561.2 -1.8241 -0.057314 0
M  V30 6023 C 561.251 -1.26401 3.38681 0
M  V30 6024 O 560.972 -0.276723 4.37225 0
M  V30 6025 C 562.473 -2.0282 3.94182 0
M  V30 6026 H 559.693 -0.162239 0.651091 0
M  V30 6027 H 562.237 0.150771 2.03943 0
M  V30 6028 H 560.392 -1.96581 3.33819 0
M  V30 6029 H 560.806 -0.753744 5.19056 0
M  V30 6030 H 562.28 -2.44667 4.94815 0
M  V30 6031 H 562.757 -2.88678 3.31001 0
M  V30 6032 H 563.363 -1.37496 4.02461 0
M  V30 6033 N 561.678 -1.56367 -0.196722 0
M  V30 6034 C 562.908 -1.84371 -0.932254 0
M  V30 6035 C 563.316 -0.657013 -1.77426 0
M  V30 6036 O 562.659 0.383576 -1.79651 0
M  V30 6037 C 562.721 -3.06454 -1.87952 0
M  V30 6038 C 562.385 -4.40425 -1.21962 0
M  V30 6039 C 563.382 -5.16457 -0.597343 0
M  V30 6040 C 561.067 -4.8716 -1.22396 0
M  V30 6041 C 563.061 -6.37399 0.0117913 0
M  V30 6042 C 560.748 -6.08038 -0.610995 0
M  V30 6043 C 561.746 -6.83 0.00580487 0
M  V30 6044 O 561.434 -8.01589 0.609173 0
M  V30 6045 H 561.166 -0.616377 -0.277589 0
M  V30 6046 H 563.72 -2.04329 -0.209452 0
M  V30 6047 H 561.95 -2.82377 -2.64197 0
M  V30 6048 H 563.639 -3.21118 -2.48271 0
M  V30 6049 H 564.405 -4.81445 -0.586142 0
M  V30 6050 H 560.284 -4.2877 -1.69345 0
M  V30 6051 H 563.828 -6.9585 0.493836 0
M  V30 6052 H 559.725 -6.42519 -0.619693 0
M  V30 6053 H 560.493 -8.16935 0.505919 0
M  V30 6054 N 563.156 0.464375 -1.50603 0
M  V30 6055 C 564.381 1.24372 -1.65971 0
M  V30 6056 C 564.806 1.84901 -0.345453 0
M  V30 6057 O 564.164 1.67596 0.691457 0
M  V30 6058 C 564.212 2.32331 -2.7578 0
M  V30 6059 O 563.316 3.37146 -2.375 0
M  V30 6060 H 562.657 0.365604 -0.554283 0
M  V30 6061 H 565.187 0.55183 -1.97018 0
M  V30 6062 H 565.197 2.77539 -2.99059 0
M  V30 6063 H 563.872 1.87648 -3.71162 0
M  V30 6064 H 562.449 2.97602 -2.24694 0
M  V30 6065 N 564.634 1.40294 0.718013 0
M  V30 6066 C 565.883 1.37746 1.4734 0
M  V30 6067 C 566.196 -0.0180754 1.95592 0
M  V30 6068 O 567.402 -0.166166 2.70991 0
M  V30 6069 C 565.858 2.4208 2.66318 0
M  V30 6070 C 565.466 3.87432 2.24945 0
M  V30 6071 C 567.21 2.48635 3.44065 0
M  V30 6072 C 565.117 4.83368 3.40748 0
M  V30 6073 H 564.047 0.512165 0.553356 0
M  V30 6074 H 566.698 1.66019 0.781661 0
M  V30 6075 H 565.08 2.06903 3.3765 0
M  V30 6076 H 566.254 4.3174 1.6105 0
M  V30 6077 H 564.569 3.8433 1.60249 0
M  V30 6078 H 567.166 3.17499 4.30231 0
M  V30 6079 H 567.509 1.51611 3.87711 0
M  V30 6080 H 568.042 2.82791 2.79775 0
M  V30 6081 H 564.781 5.81716 3.02136 0
M  V30 6082 H 564.301 4.43726 4.03568 0
M  V30 6083 H 565.98 5.03074 4.06848 0
M  V30 6084 N 566.112 -0.949982 1.2575 0
M  V30 6085 C 567.044 -2.05088 1.02331 0
M  V30 6086 C 568.057 -1.62795 -0.0133247 0
M  V30 6087 O 569.246 -1.77067 0.225759 0
M  V30 6088 C 566.346 -3.34794 0.525924 0
M  V30 6089 C 565.519 -4.05903 1.62978 0
M  V30 6090 C 564.578 -5.1388 1.13196 0
M  V30 6091 O 563.604 -5.39072 1.82729 0
M  V30 6092 N 564.806 -5.80495 -0.0242926 0
M  V30 6093 H 567.571 -2.25747 1.97125 0
M  V30 6094 H 565.132 -1.11886 1.17018 0
M  V30 6095 H 567.124 -4.04312 0.177263 0
M  V30 6096 H 565.694 -3.10872 -0.328202 0
M  V30 6097 H 564.914 -3.3042 2.1498 0
M  V30 6098 H 566.202 -4.50166 2.37124 0
M  V30 6099 H 565.6 -5.62454 -0.605184 0
M  V30 6100 H 564.157 -6.51043 -0.313947 0
M  V30 6101 N 567.59 -1.07411 -1.15328 0
M  V30 6102 C 568.553 -0.698914 -2.18284 0
M  V30 6103 C 569.553 0.261149 -1.58665 0
M  V30 6104 O 570.743 0.0420277 -1.74149 0
M  V30 6105 C 567.875 -0.0302427 -3.40887 0
M  V30 6106 H 569.068 -1.61045 -2.52991 0
M  V30 6107 H 566.621 -0.870724 -1.298 0
M  V30 6108 H 567.356 0.893505 -3.11748 0
M  V30 6109 H 567.141 -0.720759 -3.85419 0
M  V30 6110 H 568.631 0.21759 -4.17033 0
M  V30 6111 N 569.068 1.32177 -0.85831 0
M  V30 6112 C 570.308 1.98927 -0.469822 0
M  V30 6113 C 570.672 1.66423 0.95746 0
M  V30 6114 O 571.873 2.26293 1.45069 0
M  V30 6115 C 570.144 3.50352 -0.706288 0
M  V30 6116 S 571.703 4.36824 -0.415918 0
M  V30 6117 H 568.521 0.688909 -0.175855 0
M  V30 6118 H 571.123 1.60807 -1.11181 0
M  V30 6119 H 569.827 3.71497 -1.74407 0
M  V30 6120 H 569.358 3.93367 -0.0508568 0
M  V30 6121 H 571.373 4.90398 0.756581 0
M  V30 6122 N 570.547 0.616602 1.45037 0
M  V30 6123 C 571.477 -0.0840787 2.33349 0
M  V30 6124 C 572.458 -0.849641 1.4736 0
M  V30 6125 O 573.643 -0.818407 1.76113 0
M  V30 6126 C 570.773 -1.07604 3.3021 0
M  V30 6127 C 569.727 -0.423096 4.25904 0
M  V30 6128 C 569.053 -1.52394 5.12523 0
M  V30 6129 C 570.353 0.661457 5.18095 0
M  V30 6130 H 572.047 0.653333 2.92185 0
M  V30 6131 H 569.593 0.315634 1.40498 0
M  V30 6132 H 571.546 -1.57485 3.90866 0
M  V30 6133 H 570.27 -1.84416 2.69552 0
M  V30 6134 H 568.929 0.05493 3.66559 0
M  V30 6135 H 568.577 -2.28257 4.48227 0
M  V30 6136 H 568.277 -1.09251 5.77354 0
M  V30 6137 H 569.801 -2.02485 5.76049 0
M  V30 6138 H 571.215 0.246353 5.7277 0
M  V30 6139 H 569.612 1.01517 5.91451 0
M  V30 6140 H 570.682 1.53446 4.59981 0
M  V30 6141 N 572.025 -1.5352 0.356285 0
M  V30 6142 C 573.441 -1.59599 0.00485267 0
M  V30 6143 C 573.641 -1.37179 -1.47595 0
M  V30 6144 O 572.697 -1.17234 -2.23635 0
M  V30 6145 C 574.01 -2.97277 0.452454 0
M  V30 6146 C 575.558 -3.10357 0.405881 0
M  V30 6147 C 576.033 -4.50432 0.829148 0
M  V30 6148 N 577.524 -4.5652 0.783838 0
M  V30 6149 C 578.259 -5.63077 1.08315 0
M  V30 6150 N 577.755 -6.77429 1.45126 0
M  V30 6151 N 579.548 -5.53014 1.00655 0
M  V30 6152 H 571.699 -1.66346 1.32071 0
M  V30 6153 H 573.962 -0.77971 0.539218 0
M  V30 6154 H 573.668 -3.18792 1.48542 0
M  V30 6155 H 573.542 -3.76836 -0.165762 0
M  V30 6156 H 575.929 -2.88558 -0.617934 0
M  V30 6157 H 576.01 -2.32828 1.05947 0
M  V30 6158 H 575.654 -4.72968 1.85103 0
M  V30 6159 H 575.584 -5.26378 0.152906 0
M  V30 6160 H 578.075 -3.74408 0.512513 0
M  V30 6161 H 578.388 -7.54669 1.66415 0
M  V30 6162 H 576.733 -6.78844 1.48983 0
M  V30 6163 H 579.924 -4.62557 0.718215 0
M  V30 6164 H 580.097 -6.35964 1.24315 0
M  V30 6165 N 573.503 -0.0852151 -1.57369 0
M  V30 6166 C 574.728 0.592872 -1.98746 0
M  V30 6167 C 575.153 1.61538 -0.963689 0
M  V30 6168 O 574.511 1.81168 0.069071 0
M  V30 6169 C 574.559 1.22599 -3.39119 0
M  V30 6170 O 573.663 2.34185 -3.39457 0
M  V30 6171 H 573.004 0.151314 -0.646529 0
M  V30 6172 H 575.534 -0.163703 -2.03944 0
M  V30 6173 H 575.544 1.56965 -3.76598 0
M  V30 6174 H 574.219 0.476831 -4.13158 0
M  V30 6175 H 572.796 2.01512 -3.13763 0
M  V30 6176 N 574.981 1.5647 0.188427 0
M  V30 6177 C 576.221 1.82803 0.914469 0
M  V30 6178 C 576.585 0.663681 1.80165 0
M  V30 6179 O 577.786 0.807059 2.56398 0
M  V30 6180 C 576.057 3.14187 1.70357 0
M  V30 6181 S 577.616 3.61947 2.48072 0
M  V30 6182 H 574.434 0.641497 0.306599 0
M  V30 6183 H 577.036 1.94694 0.177361 0
M  V30 6184 H 575.74 3.96937 1.04255 0
M  V30 6185 H 575.271 3.05192 2.48237 0
M  V30 6186 H 577.286 3.27913 3.72407 0
M  V30 6187 N 576.459 -0.456382 1.50847 0
M  V30 6188 C 577.706 -1.20736 1.62571 0
M  V30 6189 C 578.034 -1.9163 0.332904 0
M  V30 6190 O 577.289 -1.8343 -0.682058 0
M  V30 6191 C 577.588 -2.26336 2.76599 0
M  V30 6192 C 577.254 -1.7259 4.16562 0
M  V30 6193 C 575.916 -1.57654 4.54641 0
M  V30 6194 C 578.268 -1.32877 5.03977 0
M  V30 6195 C 575.596 -1.0145 5.77862 0
M  V30 6196 C 577.948 -0.7811 6.27759 0
M  V30 6197 C 576.612 -0.618488 6.64628 0
M  V30 6198 H 575.882 -0.441803 0.594888 0
M  V30 6199 H 578.529 -0.501169 1.84826 0
M  V30 6200 H 576.834 -3.0292 2.48489 0
M  V30 6201 H 578.531 -2.84227 2.82871 0
M  V30 6202 H 575.121 -1.85187 3.86528 0
M  V30 6203 H 579.305 -1.43245 4.75179 0
M  V30 6204 H 574.561 -0.876109 6.0509 0
M  V30 6205 H 578.735 -0.464783 6.94847 0
M  V30 6206 H 576.362 -0.180838 7.59985 0
M  V30 6207 N 577.937 -1.40673 -0.710563 0
M  V30 6208 C 578.869 -1.37256 -1.83558 0
M  V30 6209 C 579.882 -0.277133 -1.60424 0
M  V30 6210 O 581.071 -0.537831 -1.70205 0
M  V30 6211 C 578.171 -1.1144 -3.20054 0
M  V30 6212 C 577.344 -2.32734 -3.70342 0
M  V30 6213 C 576.403 -2.03002 -4.85465 0
M  V30 6214 O 575.429 -2.75912 -4.97857 0
M  V30 6215 N 576.631 -1.01105 -5.71627 0
M  V30 6216 H 579.396 -2.34215 -1.86985 0
M  V30 6217 H 576.957 -1.35091 -0.892301 0
M  V30 6218 H 578.949 -0.895265 -3.94673 0
M  V30 6219 H 577.519 -0.231307 -3.11743 0
M  V30 6220 H 576.739 -2.70446 -2.86798 0
M  V30 6221 H 578.027 -3.13584 -4.00678 0
M  V30 6222 H 577.425 -0.407303 -5.64232 0
M  V30 6223 H 575.982 -0.85182 -6.4621 0
M  V30 6224 N 579.415 0.9433 -1.26252 0
M  V30 6225 C 580.692 1.66639 -1.02424 0
M  V30 6226 C 581.072 2.06335 0.446006 0
M  V30 6227 O 580.42 1.78551 1.42589 0
M  V30 6228 C 580.63 2.88019 -1.97094 0
M  V30 6229 C 581.978 3.59718 -2.25584 0
M  V30 6230 O 583.002 2.9812 -1.94943 0
M  V30 6231 O 581.861 4.7066 -2.77743 0
M  V30 6232 H 578.955 0.729643 -0.389294 0
M  V30 6233 H 581.501 0.995218 -1.37454 0
M  V30 6234 H 580.273 2.5556 -2.96319 0
M  V30 6235 H 579.896 3.62863 -1.62532 0
M  V30 6236 N 580.893 1.08022 1.14757 0
M  V30 6237 C 581.843 0.676345 2.17737 0
M  V30 6238 C 582.827 -0.302018 1.5804 0
M  V30 6239 O 584.019 -0.11466 1.76628 0
M  V30 6240 C 581.148 0.082984 3.432 0
M  V30 6241 C 580.234 1.0869 4.09936 0
M  V30 6242 N 580.625 2.26891 4.52055 0
M  V30 6243 C 578.923 0.921768 4.36371 0
M  V30 6244 C 579.624 2.90636 5.0389 0
M  V30 6245 N 578.6 2.18266 4.97856 0
M  V30 6246 H 582.402 1.5765 2.4804 0
M  V30 6247 H 579.916 0.954374 1.31398 0
M  V30 6248 H 581.913 -0.224289 4.16296 0
M  V30 6249 H 580.573 -0.812206 3.14378 0
M  V30 6250 H 581.584 2.6457 4.45223 0
M  V30 6251 H 578.261 0.0800499 4.17423 0
M  V30 6252 H 579.651 3.9104 5.46386 0
M  V30 6253 N 582.371 -1.3172 0.865308 0
M  V30 6254 C 583.304 -2.26687 0.262376 0
M  V30 6255 C 584.282 -1.50894 -0.605787 0
M  V30 6256 O 585.466 -1.79982 -0.56024 0
M  V30 6257 C 582.593 -3.3281 -0.628915 0
M  V30 6258 C 581.639 -4.26172 0.167278 0
M  V30 6259 S 582.472 -5.12797 1.54272 0
M  V30 6260 C 583.628 -6.22438 0.657427 0
M  V30 6261 H 583.861 -2.77478 1.0674 0
M  V30 6262 H 581.394 -1.39414 0.663555 0
M  V30 6263 H 583.352 -3.94426 -1.13747 0
M  V30 6264 H 582.013 -2.80782 -1.40785 0
M  V30 6265 H 581.206 -5.01392 -0.51203 0
M  V30 6266 H 580.808 -3.69029 0.607777 0
M  V30 6267 H 583.1 -6.77368 -0.133925 0
M  V30 6268 H 584.043 -6.9451 1.38061 0
M  V30 6269 H 584.451 -5.64043 0.227044 0
M  V30 6270 N 583.85 -0.624285 -1.44708 0
M  V30 6271 C 585.099 -0.123539 -2.01321 0
M  V30 6272 C 585.412 1.25966 -1.49639 0
M  V30 6273 O 586.618 1.85405 -1.98336 0
M  V30 6274 C 585.074 -0.170124 -3.59498 0
M  V30 6275 C 584.682 -1.55421 -4.20176 0
M  V30 6276 C 586.426 0.274513 -4.23611 0
M  V30 6277 C 584.332 -1.55628 -5.70556 0
M  V30 6278 H 583.263 -0.0424183 -0.752806 0
M  V30 6279 H 585.913 -0.782076 -1.65999 0
M  V30 6280 H 584.296 0.555385 -3.92086 0
M  V30 6281 H 585.47 -2.30276 -3.99136 0
M  V30 6282 H 583.784 -1.94235 -3.68323 0
M  V30 6283 H 586.382 0.292402 -5.339 0
M  V30 6284 H 586.725 1.3005 -3.95465 0
M  V30 6285 H 587.258 -0.398275 -3.95801 0
M  V30 6286 H 583.997 -2.56041 -6.03426 0
M  V30 6287 H 583.517 -0.850563 -5.93739 0
M  V30 6288 H 585.196 -1.28721 -6.34066 0
M  V30 6289 N 585.328 1.53329 -0.364422 0
M  V30 6290 C 586.744 1.59594 -0.0133165 0
M  V30 6291 C 586.944 1.37959 1.46865 0
M  V30 6292 O 586 1.18418 2.2301 0
M  V30 6293 C 587.313 2.97032 -0.468213 0
M  V30 6294 C 588.861 3.10138 -0.422334 0
M  V30 6295 C 589.336 4.49986 -0.853024 0
M  V30 6296 N 590.827 4.56098 -0.808037 0
M  V30 6297 C 591.562 5.62495 -1.11299 0
M  V30 6298 N 591.058 6.7665 -1.48717 0
M  V30 6299 N 592.851 5.52473 -1.03586 0
M  V30 6300 H 585.002 1.65644 -1.32951 0
M  V30 6301 H 587.265 0.77684 -0.543345 0
M  V30 6302 H 586.971 3.18 -1.5023 0
M  V30 6303 H 586.845 3.76918 0.145775 0
M  V30 6304 H 589.232 2.88881 0.602622 0
M  V30 6305 H 589.313 2.32263 -1.0718 0
M  V30 6306 H 588.957 4.7198 -1.87609 0
M  V30 6307 H 588.887 5.26289 -0.180819 0
M  V30 6308 H 591.378 3.74131 -0.532361 0
M  V30 6309 H 591.691 7.53776 -1.70415 0
M  V30 6310 H 590.036 6.78044 -1.52581 0
M  V30 6311 H 593.227 4.6217 -0.742736 0
M  V30 6312 H 593.4 6.35295 -1.27686 0
M  V30 6313 N 586.806 0.0935595 1.57322 0
M  V30 6314 C 587.754 -0.883457 2.15169 0
M  V30 6315 C 588.748 -1.29324 1.09415 0
M  V30 6316 O 589.954 -1.26795 1.27762 0
M  V30 6317 H 586.329 -0.302923 0.688289 0
M  V30 6318 H 588.3 -0.370845 2.96087 0
M  V30 6319 C 587.049 -2.13345 2.74552 0
M  V30 6320 H 586.372 -1.82702 3.55612 0
M  V30 6321 H 587.812 -2.7977 3.18598 0
M  V30 6322 C 586.271 -2.90646 1.70371 0
M  V30 6323 O 586.801 -3.85133 1.14173 0
M  V30 6324 N 585.007 -2.54157 1.40899 0
M  V30 6325 H 584.554 -1.77391 1.86789 0
M  V30 6326 H 584.512 -3.06178 0.714301 0
M  V30 6327 N 588.284 -1.56567 -0.180126 0
M  V30 6328 C 589.524 -1.83285 -0.904761 0
M  V30 6329 C 589.888 -0.673226 -1.7981 0
M  V30 6330 O 591.089 -0.820645 -2.55967 0
M  V30 6331 C 589.36 -3.15086 -1.68688 0
M  V30 6332 S 590.919 -3.63258 -2.46149 0
M  V30 6333 H 587.737 -0.643114 -0.303193 0
M  V30 6334 H 590.339 -1.94785 -0.167034 0
M  V30 6335 H 589.043 -3.97484 -1.02148 0
M  V30 6336 H 588.574 -3.06504 -2.46615 0
M  V30 6337 H 590.589 -3.29884 -3.70663 0
M  V30 6338 N 589.762 0.448376 -1.51087 0
M  V30 6339 C 590.71 1.56407 -1.72161 0
M  V30 6340 C 591.704 1.58878 -0.587721 0
M  V30 6341 O 592.91 1.62755 -0.768822 0
M  V30 6342 H 589.285 0.519423 -0.543786 0
M  V30 6343 H 591.256 1.35803 -2.65707 0
M  V30 6344 C 590.005 2.94163 -1.85373 0
M  V30 6345 H 589.328 2.9299 -2.72024 0
M  V30 6346 H 590.768 3.71625 -2.04135 0
M  V30 6347 C 589.227 3.31317 -0.610803 0
M  V30 6348 O 589.757 4.00985 0.239636 0
M  V30 6349 N 587.963 2.86966 -0.458127 0
M  V30 6350 H 587.51 2.30443 -1.15124 0
M  V30 6351 H 587.468 3.12188 0.372289 0
M  V30 6352 N 591.24 1.41047 0.703093 0
M  V30 6353 C 592.48 1.41461 1.4754 0
M  V30 6354 C 592.844 0.0199013 1.9199 0
M  V30 6355 O 594.045 -0.101138 2.6861 0
M  V30 6356 C 592.316 2.38703 2.66 0
M  V30 6357 S 593.875 2.57582 3.55242 0
M  V30 6358 H 590.693 0.501226 0.504275 0
M  V30 6359 H 593.295 1.77422 0.821074 0
M  V30 6360 H 591.999 3.3885 2.31536 0
M  V30 6361 H 591.53 2.04069 3.36333 0
M  V30 6362 H 593.545 1.83758 4.6092 0
M  V30 6363 N 592.718 -0.936591 1.26751 0
M  V30 6364 C 593.966 -1.67998 1.12343 0
M  V30 6365 C 594.287 -1.92137 -0.332938 0
M  V30 6366 O 593.557 -1.52132 -1.23421 0
M  V30 6367 H 592.137 -0.622609 0.412756 0
M  V30 6368 H 594.799 -1.12509 1.59147 0
M  V30 6369 H 593.895 -2.65185 1.64571 0
M  V30 6370 N 594.196 -1.08629 -1.14182 0
M  V30 6371 C 595.146 -0.687882 -2.17376 0
M  V30 6372 C 596.13 0.293632 -1.58198 0
M  V30 6373 O 597.322 0.105292 -1.76687 0
M  V30 6374 C 594.451 -0.101184 -3.43151 0
M  V30 6375 C 593.537 -1.10862 -4.09354 0
M  V30 6376 N 593.928 -2.29285 -4.50846 0
M  V30 6377 C 592.226 -0.944897 -4.35876 0
M  V30 6378 C 592.927 -2.93305 -5.02342 0
M  V30 6379 N 591.903 -2.20903 -4.96692 0
M  V30 6380 H 595.705 -1.58963 -2.472 0
M  V30 6381 H 593.219 -0.961329 -1.3089 0
M  V30 6382 H 595.216 0.202209 -4.16409 0
M  V30 6383 H 593.876 0.795522 -3.14804 0
M  V30 6384 H 594.887 -2.66927 -4.43813 0
M  V30 6385 H 591.564 -0.102186 -4.17375 0
M  V30 6386 H 592.954 -3.93932 -5.44304 0
M  V30 6387 N 595.674 1.31259 -0.872281 0
M  V30 6388 C 596.904 2.00504 -0.498183 0
M  V30 6389 C 597.312 1.65632 0.914479 0
M  V30 6390 O 596.655 0.882849 1.61095 0
M  V30 6391 C 596.717 3.5482 -0.578194 0
M  V30 6392 C 596.381 4.13172 -1.95289 0
M  V30 6393 C 597.378 4.30107 -2.92069 0
M  V30 6394 C 595.063 4.48846 -2.25483 0
M  V30 6395 C 597.057 4.81908 -4.17185 0
M  V30 6396 C 594.744 5.00349 -3.50847 0
M  V30 6397 C 595.742 5.16831 -4.46514 0
M  V30 6398 O 595.43 5.67228 -5.69656 0
M  V30 6399 H 595.162 0.648055 -0.192354 0
M  V30 6400 H 597.716 1.6841 -1.17589 0
M  V30 6401 H 595.946 3.86383 0.156438 0
M  V30 6402 H 597.635 4.05318 -0.217192 0
M  V30 6403 H 598.401 4.02862 -2.7005 0
M  V30 6404 H 594.28 4.35292 -1.51795 0
M  V30 6405 H 597.824 4.94688 -4.91863 0
M  V30 6406 H 593.721 5.27028 -3.72708 0
M  V30 6407 H 594.489 5.85592 -5.7186 0
M  V30 6408 N 597.152 0.631951 1.44375 0
M  V30 6409 C 598.082 -0.0593243 2.33425 0
M  V30 6410 C 599.063 -0.833964 1.48253 0
M  V30 6411 O 600.248 -0.799682 1.76971 0
M  V30 6412 C 597.378 -1.04096 3.31333 0
M  V30 6413 C 596.332 -0.377899 4.26328 0
M  V30 6414 C 595.658 -1.4695 5.14111 0
M  V30 6415 C 596.958 0.716371 5.17364 0
M  V30 6416 H 598.652 0.684287 2.91475 0
M  V30 6417 H 596.198 0.330518 1.40156 0
M  V30 6418 H 598.151 -1.53331 3.92514 0
M  V30 6419 H 596.875 -1.81547 2.71493 0
M  V30 6420 H 595.534 0.0938054 3.6648 0
M  V30 6421 H 595.182 -2.2349 4.50623 0
M  V30 6422 H 594.882 -1.03121 5.78481 0
M  V30 6423 H 596.406 -1.96363 5.78164 0
M  V30 6424 H 597.82 0.307089 5.72477 0
M  V30 6425 H 596.217 1.07784 5.90341 0
M  V30 6426 H 597.287 1.58316 4.58327 0
M  V30 6427 N 598.631 -1.53133 0.372548 0
M  V30 6428 C 599.861 -2.05476 -0.215202 0
M  V30 6429 C 600.269 -1.24534 -1.42436 0
M  V30 6430 O 599.612 -0.280771 -1.81542 0
M  V30 6431 C 599.674 -3.53276 -0.666068 0
M  V30 6432 C 599.338 -4.54998 0.427342 0
M  V30 6433 C 600.335 -5.03911 1.27944 0
M  V30 6434 C 598.02 -4.98828 0.589579 0
M  V30 6435 C 600.014 -5.95263 2.27905 0
M  V30 6436 C 597.701 -5.89984 1.59255 0
M  V30 6437 C 598.699 -6.38093 2.43571 0
M  V30 6438 O 598.387 -7.27451 3.42156 0
M  V30 6439 H 598.119 -0.67481 -0.040099 0
M  V30 6440 H 600.673 -1.98409 0.531312 0
M  V30 6441 H 598.903 -3.57904 -1.4643 0
M  V30 6442 H 600.592 -3.88442 -1.1776 0
M  V30 6443 H 601.358 -4.70792 1.16532 0
M  V30 6444 H 597.237 -4.60965 -0.0569456 0
M  V30 6445 H 600.781 -6.32736 2.93753 0
M  V30 6446 H 596.678 -6.22518 1.70711 0
M  V30 6447 H 597.446 -7.45467 3.37967 0
M  V30 6448 N 600.109 -0.101901 -1.5727 0
M  V30 6449 C 601.52 0.426173 -1.81771 0
M  V30 6450 C 601.871 1.67725 -1.01797 0
M  V30 6451 O 600.996 2.14958 -0.249386 0
M  V30 6452 C 601.591 0.779962 -3.297 0
M  V30 6453 C 600.15 1.25275 -3.54941 0
M  V30 6454 C 599.297 0.252814 -2.76145 0
M  V30 6455 H 602.248 -0.32726 -1.55289 0
M  V30 6456 H 602.269 1.63891 -3.43395 0
M  V30 6457 H 601.781 -0.130778 -3.8788 0
M  V30 6458 H 599.882 2.18097 -3.021 0
M  V30 6459 H 599.995 1.20988 -4.63572 0
M  V30 6460 H 598.359 0.736362 -2.43823 0
M  V30 6461 H 599.142 -0.650724 -3.37076 0
M  V30 6462 N 601.587 1.56661 0.17182 0
M  V30 6463 C 602.517 1.99401 1.21498 0
M  V30 6464 C 603.498 0.869516 1.46197 0
M  V30 6465 O 604.683 1.13556 1.57539 0
M  V30 6466 C 601.813 2.35346 2.55401 0
M  V30 6467 C 600.767 3.5075 2.45272 0
M  V30 6468 C 600.093 3.72437 3.8366 0
M  V30 6469 C 601.393 4.84216 1.95787 0
M  V30 6470 H 603.087 2.86792 0.859699 0
M  V30 6471 H 600.633 1.37977 0.412103 0
M  V30 6472 H 602.586 2.63843 3.2858 0
M  V30 6473 H 601.31 1.44864 2.92715 0
M  V30 6474 H 599.969 3.2238 1.74547 0
M  V30 6475 H 599.617 2.79246 4.18367 0
M  V30 6476 H 599.317 4.50087 3.77751 0
M  V30 6477 H 600.841 4.03334 4.58426 0
M  V30 6478 H 602.255 5.11592 2.5874 0
M  V30 6479 H 600.652 5.65498 2.00827 0
M  V30 6480 H 601.722 4.76243 0.912159 0
M  V30 6481 N 603.065 -0.440357 1.51323 0
M  V30 6482 C 604.476 -1.02032 1.56353 0
M  V30 6483 C 604.827 -1.92382 0.385197 0
M  V30 6484 O 603.952 -2.10583 -0.498373 0
M  V30 6485 C 604.547 -1.85723 2.83359 0
M  V30 6486 C 603.106 -2.38774 2.90971 0
M  V30 6487 C 602.253 -1.17908 2.50984 0
M  V30 6488 H 605.204 -0.221744 1.57143 0
M  V30 6489 H 605.225 -2.71141 2.66951 0
M  V30 6490 H 604.737 -1.19939 3.69102 0
M  V30 6491 H 602.838 -3.08021 2.09651 0
M  V30 6492 H 602.951 -2.71778 3.94555 0
M  V30 6493 H 601.315 -1.52347 2.04114 0
M  V30 6494 H 602.098 -0.537393 3.39068 0
M  V30 6495 N 604.543 -1.41418 -0.695603 0
M  V30 6496 C 605.959 -1.23887 -1.00619 0
M  V30 6497 C 606.159 -0.128206 -2.01092 0
M  V30 6498 O 605.215 0.507408 -2.47349 0
M  V30 6499 C 606.528 -2.58816 -1.53083 0
M  V30 6500 C 608.076 -2.65998 -1.64967 0
M  V30 6501 C 608.551 -4.01244 -2.20833 0
M  V30 6502 N 610.042 -4.0309 -2.28194 0
M  V30 6503 C 610.777 -5.04539 -2.72448 0
M  V30 6504 N 610.273 -6.16378 -3.16306 0
M  V30 6505 N 612.066 -4.91901 -2.72011 0
M  V30 6506 H 604.217 -2.12379 -0.0300061 0
M  V30 6507 H 606.48 -0.944958 -0.0758797 0
M  V30 6508 H 606.186 -3.40842 -0.867147 0
M  V30 6509 H 606.06 -2.81299 -2.51298 0
M  V30 6510 H 608.447 -1.84331 -2.30448 0
M  V30 6511 H 608.528 -2.47325 -0.652982 0
M  V30 6512 H 608.172 -4.83359 -1.55968 0
M  V30 6513 H 608.102 -4.17257 -3.21254 0
M  V30 6514 H 610.593 -3.22341 -1.97242 0
M  V30 6515 H 610.906 -6.89658 -3.487 0
M  V30 6516 H 609.251 -6.19914 -3.14215 0
M  V30 6517 H 612.442 -4.03613 -2.37095 0
M  V30 6518 H 612.615 -5.71102 -3.06181 0
M  V30 6519 N 606.021 0.929856 -1.27246 0
M  V30 6520 C 607.269 1.674 -1.13233 0
M  V30 6521 C 607.59 1.92311 0.322744 0
M  V30 6522 O 606.86 1.52784 1.22612 0
M  V30 6523 H 605.44 0.620411 -0.416052 0
M  V30 6524 H 608.102 1.11663 -1.59741 0
M  V30 6525 H 607.198 2.64308 -1.65975 0
M  V30 6526 N 607.499 1.09233 1.13605 0
M  V30 6527 C 608.409 0.741939 2.22559 0
M  V30 6528 C 609.425 -0.255236 1.72118 0
M  V30 6529 O 610.601 -0.0970747 2.01166 0
M  V30 6530 C 607.666 0.165595 3.46304 0
M  V30 6531 C 606.727 1.21846 4.11645 0
M  V30 6532 C 605.96 0.669526 5.29484 0
M  V30 6533 O 606.183 -0.508228 5.68131 0
M  V30 6534 O 605.117 1.42361 5.84822 0
M  V30 6535 H 608.943 1.65107 2.54899 0
M  V30 6536 H 606.528 0.866584 1.21699 0
M  V30 6537 H 608.41 -0.152592 4.21124 0
M  V30 6538 H 607.085 -0.716573 3.15669 0
M  V30 6539 H 605.992 1.58931 3.38662 0
M  V30 6540 H 607.325 2.07321 4.46407 0
M  V30 6541 N 608.977 -1.30795 0.87923 0
M  V30 6542 C 609.924 -2.28282 0.339968 0
M  V30 6543 C 610.894 -1.56134 -0.566685 0
M  V30 6544 O 612.079 -1.84231 -0.496338 0
M  V30 6545 C 609.219 -3.42225 -0.444501 0
M  V30 6546 C 608.332 -4.29204 0.490717 0
M  V30 6547 C 607.467 -5.30302 -0.308784 0
M  V30 6548 C 606.506 -6.08929 0.622272 0
M  V30 6549 N 605.643 -7.01957 -0.14155 0
M  V30 6550 H 610.483 -2.73794 1.17647 0
M  V30 6551 H 608.02 -1.34682 0.591527 0
M  V30 6552 H 609.978 -4.07038 -0.915186 0
M  V30 6553 H 608.608 -2.97799 -1.24562 0
M  V30 6554 H 607.66 -3.6475 1.07988 0
M  V30 6555 H 608.972 -4.84045 1.20425 0
M  V30 6556 H 608.126 -6.00835 -0.841575 0
M  V30 6557 H 606.865 -4.7614 -1.05556 0
M  V30 6558 H 605.87 -5.37278 1.16674 0
M  V30 6559 H 607.095 -6.65178 1.36804 0
M  V30 6560 H 605.041 -6.50192 -0.870966 0
M  V30 6561 H 604.958 -7.54261 0.51246 0
M  V30 6562 H 606.226 -7.76741 -0.655271 0
M  V30 6563 N 610.455 -0.639598 -1.44038 0
M  V30 6564 C 611.685 -0.154586 -2.06021 0
M  V30 6565 C 612.093 1.17951 -1.47933 0
M  V30 6566 O 611.436 1.73627 -0.59994 0
M  V30 6567 C 611.498 0.0255459 -3.59491 0
M  V30 6568 C 611.162 -1.2317 -4.40089 0
M  V30 6569 C 612.159 -2.15735 -4.73027 0
M  V30 6570 C 609.844 -1.46949 -4.80324 0
M  V30 6571 C 611.838 -3.30382 -5.45093 0
M  V30 6572 C 609.525 -2.61891 -5.52138 0
M  V30 6573 C 610.523 -3.53433 -5.84443 0
M  V30 6574 O 610.211 -4.6637 -6.54793 0
M  V30 6575 H 609.943 -0.0808543 -0.671147 0
M  V30 6576 H 612.497 -0.876541 -1.85758 0
M  V30 6577 H 610.727 0.802733 -3.78276 0
M  V30 6578 H 612.416 0.466184 -4.03214 0
M  V30 6579 H 613.182 -1.98602 -4.42473 0
M  V30 6580 H 609.061 -0.765815 -4.54595 0
M  V30 6581 H 612.605 -4.01856 -5.70226 0
M  V30 6582 H 608.502 -2.78964 -5.82108 0
M  V30 6583 H 609.27 -4.6546 -6.73267 0
M  V30 6584 N 611.933 1.52934 -0.380664 0
M  V30 6585 C 613.173 2.03378 0.204161 0
M  V30 6586 C 613.537 1.26132 1.44758 0
M  V30 6587 O 614.738 1.66657 2.109 0
M  V30 6588 C 613.009 3.54241 0.474118 0
M  V30 6589 S 614.568 4.26529 1.03046 0
M  V30 6590 H 611.386 0.708608 0.0582719 0
M  V30 6591 H 613.988 1.88263 -0.527017 0
M  V30 6592 H 612.692 4.08055 -0.438088 0
M  V30 6593 H 612.223 3.73547 1.23396 0
M  V30 6594 H 614.238 4.38964 2.31354 0
M  V30 6595 N 613.412 0.11024 1.57214 0
M  V30 6596 C 614.36 -0.860586 2.16094 0
M  V30 6597 C 615.354 -1.28156 1.1078 0
M  V30 6598 O 616.56 -1.25433 1.29099 0
M  V30 6599 H 612.935 -0.295606 0.691463 0
M  V30 6600 H 614.906 -0.33942 2.96463 0
M  V30 6601 C 613.655 -2.10421 2.768 0
M  V30 6602 H 612.978 -1.7892 3.5753 0
M  V30 6603 H 614.418 -2.76375 3.21547 0
M  V30 6604 C 612.877 -2.88823 1.73444 0
M  V30 6605 O 613.407 -3.839 1.18251 0
M  V30 6606 N 611.613 -2.52649 1.43586 0
M  V30 6607 H 611.16 -1.754 1.8866 0
M  V30 6608 H 611.118 -3.05403 0.746735 0
M  V30 6609 N 614.89 -1.56749 -0.16351 0
M  V30 6610 C 615.838 -1.97939 -1.22159 0
M  V30 6611 C 616.832 -0.869288 -1.45395 0
M  V30 6612 O 618.038 -1.05443 -1.45883 0
M  V30 6613 H 614.413 -0.629869 -0.410815 0
M  V30 6614 H 616.384 -2.86115 -0.847381 0
M  V30 6615 C 615.133 -2.36206 -2.55151 0
M  V30 6616 H 614.456 -3.2117 -2.38097 0
M  V30 6617 H 615.896 -2.68863 -3.27854 0
M  V30 6618 C 614.355 -1.20841 -3.14482 0
M  V30 6619 O 614.885 -0.500258 -3.98573 0
M  V30 6620 N 613.091 -0.976943 -2.73686 0
M  V30 6621 H 612.638 -1.55457 -2.05404 0
M  V30 6622 H 612.596 -0.206912 -3.13718 0
M  V30 6623 N 616.368 0.432326 -1.51554 0
M  V30 6624 C 617.784 0.769195 -1.39841 0
M  V30 6625 C 617.984 1.95584 -0.484675 0
M  V30 6626 O 617.04 2.52433 0.0582829 0
M  V30 6627 C 618.353 1.04487 -2.81963 0
M  V30 6628 C 619.901 1.149 -2.91148 0
M  V30 6629 C 620.376 1.45758 -4.34187 0
M  V30 6630 N 621.867 1.52671 -4.37317 0
M  V30 6631 C 622.602 1.78129 -5.4503 0
M  V30 6632 N 622.098 2.01345 -6.62897 0
M  V30 6633 N 623.891 1.79953 -5.32516 0
M  V30 6634 H 616.042 -0.349122 -2.09511 0
M  V30 6635 H 618.305 -0.0938113 -0.943347 0
M  V30 6636 H 618.011 0.24557 -3.50842 0
M  V30 6637 H 617.885 1.97119 -3.21596 0
M  V30 6638 H 620.272 1.93891 -2.22464 0
M  V30 6639 H 620.353 0.201568 -2.55005 0
M  V30 6640 H 619.997 0.672917 -5.03423 0
M  V30 6641 H 619.927 2.41715 -4.67848 0
M  V30 6642 H 622.418 1.36612 -3.52343 0
M  V30 6643 H 622.731 2.20155 -7.40778 0
M  V30 6644 H 621.076 1.98657 -6.66003 0
M  V30 6645 H 624.267 1.61337 -4.39418 0
M  V30 6646 H 624.44 1.99455 -6.1654 0
M  V30 6647 N 617.846 1.41785 0.688094 0
M  V30 6648 C 619.123 1.32031 1.44316 0
M  V30 6649 C 619.503 -0.0486079 2.11044 0
M  V30 6650 O 618.851 -1.06332 2.02252 0
M  V30 6651 C 619.061 2.47906 2.45649 0
M  V30 6652 C 620.409 2.89415 3.10683 0
M  V30 6653 O 621.433 2.477 2.55975 0
M  V30 6654 O 620.292 3.61573 4.09789 0
M  V30 6655 H 617.386 0.519994 0.643067 0
M  V30 6656 H 619.932 1.53765 0.71794 0
M  V30 6657 H 618.704 3.39222 1.95048 0
M  V30 6658 H 618.327 2.28089 3.25671 0
M  V30 6659 N 619.324 -0.923095 1.27737 0
M  V30 6660 C 620.571 -1.67127 1.14345 0
M  V30 6661 C 620.899 -1.92017 -0.30982 0
M  V30 6662 O 620.154 -1.51185 -1.24264 0
M  V30 6663 C 620.453 -3.04125 1.8773 0
M  V30 6664 C 620.119 -2.98929 3.37568 0
M  V30 6665 C 618.781 -2.9722 3.78436 0
M  V30 6666 C 621.133 -2.89875 4.33154 0
M  V30 6667 C 618.461 -2.84244 5.13247 0
M  V30 6668 C 620.813 -2.7844 5.68026 0
M  V30 6669 C 619.477 -2.75083 6.08182 0
M  V30 6670 H 618.747 -0.611562 0.418417 0
M  V30 6671 H 621.394 -1.07618 1.584 0
M  V30 6672 H 619.699 -3.67366 1.36196 0
M  V30 6673 H 621.396 -3.609 1.74792 0
M  V30 6674 H 617.986 -3.0105 3.05069 0
M  V30 6675 H 622.17 -2.9029 4.02548 0
M  V30 6676 H 617.426 -2.80034 5.43499 0
M  V30 6677 H 621.6 -2.70401 6.4176 0
M  V30 6678 H 619.227 -2.64786 7.12596 0
M  V30 6679 N 620.802 -1.09834 -1.13024 0
M  V30 6680 C 622.213 -0.855651 -1.65938 0
M  V30 6681 C 622.564 0.615159 -1.86307 0
M  V30 6682 O 621.689 1.47335 -1.58497 0
M  V30 6683 C 622.284 -1.5467 -3.01434 0
M  V30 6684 C 620.843 -1.35088 -3.51323 0
M  V30 6685 C 619.99 -1.6001 -2.26478 0
M  V30 6686 H 622.941 -1.25691 -0.968889 0
M  V30 6687 H 622.962 -0.982179 -3.67605 0
M  V30 6688 H 622.474 -2.61715 -2.86578 0
M  V30 6689 H 620.575 -0.30179 -3.71376 0
M  V30 6690 H 620.688 -2.0886 -4.31178 0
M  V30 6691 H 619.052 -1.02246 -2.33276 0
M  V30 6692 H 619.835 -2.68293 -2.14182 0
M  V30 6693 N 622.28 1.30327 -0.886154 0
M  V30 6694 C 623.557 1.90922 -0.425217 0
M  V30 6695 C 623.937 1.80533 1.09413 0
M  V30 6696 O 623.285 1.2233 1.92996 0
M  V30 6697 C 623.495 3.36529 -0.924638 0
M  V30 6698 C 624.843 4.13598 -0.960305 0
M  V30 6699 O 625.867 3.45377 -0.871382 0
M  V30 6700 O 624.726 5.35482 -1.09184 0
M  V30 6701 H 621.82 0.81668 -0.130238 0
M  V30 6702 H 624.366 1.38886 -0.975132 0
M  V30 6703 H 623.138 3.38181 -1.96849 0
M  V30 6704 H 622.761 3.96021 -0.353955 0
M  V30 6705 N 623.758 0.647228 1.43697 0
M  V30 6706 C 625.004 0.167001 2.02713 0
M  V30 6707 C 625.359 -1.20351 1.50111 0
M  V30 6708 O 624.652 -1.79047 0.682113 0
M  V30 6709 C 624.846 0.111481 3.57226 0
M  V30 6710 C 624.675 1.47507 4.2482 0
M  V30 6711 C 623.445 2.06594 4.61137 0
M  V30 6712 C 625.643 2.41224 4.54219 0
M  V30 6713 N 623.625 3.3602 5.13774 0
M  V30 6714 C 624.996 3.55278 5.08112 0
M  V30 6715 C 627.051 2.40102 4.36183 0
M  V30 6716 C 625.754 4.68426 5.45866 0
M  V30 6717 C 627.78 3.52326 4.74995 0
M  V30 6718 C 627.142 4.65104 5.29015 0
M  V30 6719 H 623.241 0.105402 0.774864 0
M  V30 6720 H 625.825 0.854229 1.7496 0
M  V30 6721 H 623.996 -0.545073 3.84556 0
M  V30 6722 H 625.728 -0.379063 4.02921 0
M  V30 6723 H 622.483 1.59366 4.45981 0
M  V30 6724 H 622.907 4.02233 5.44552 0
M  V30 6725 H 627.549 1.54151 3.93697 0
M  V30 6726 H 625.267 5.55074 5.87298 0
M  V30 6727 H 628.853 3.52652 4.6274 0
M  V30 6728 H 627.733 5.50506 5.58492 0
M  V30 6729 N 625.236 -1.5273 0.388769 0
M  V30 6730 C 626.199 -2.25043 -0.434544 0
M  V30 6731 C 627.199 -1.26661 -0.990644 0
M  V30 6732 O 628.389 -1.50762 -0.872731 0
M  V30 6733 C 625.521 -3.00507 -1.60961 0
M  V30 6734 H 626.714 -2.99242 0.198549 0
M  V30 6735 H 624.267 -1.55664 0.140875 0
M  V30 6736 H 625.002 -2.30607 -2.28015 0
M  V30 6737 H 624.787 -3.72716 -1.21757 0
M  V30 6738 H 626.277 -3.55413 -2.19251 0
M  V30 6739 N 626.714 -0.118576 -1.57153 0
M  V30 6740 C 627.664 0.842924 -2.11846 0
M  V30 6741 C 628.648 1.22845 -1.03914 0
M  V30 6742 O 629.84 1.19961 -1.30148 0
M  V30 6743 C 626.969 2.09312 -2.72109 0
M  V30 6744 C 626.055 1.73198 -3.87122 0
M  V30 6745 N 626.446 1.07758 -4.94188 0
M  V30 6746 C 624.744 2.02659 -3.97298 0
M  V30 6747 C 625.445 0.907741 -5.74574 0
M  V30 6748 N 624.421 1.4326 -5.24383 0
M  V30 6749 H 628.223 0.333416 -2.92003 0
M  V30 6750 H 625.737 0.0839073 -1.62183 0
M  V30 6751 H 627.734 2.79162 -3.09635 0
M  V30 6752 H 626.394 2.60807 -1.93416 0
M  V30 6753 H 627.405 0.741613 -5.12563 0
M  V30 6754 H 624.082 2.56204 -3.29645 0
M  V30 6755 H 625.472 0.394112 -6.70743 0
M  V30 6756 N 628.193 1.56834 0.155195 0
M  V30 6757 C 629.433 1.84701 0.875488 0
M  V30 6758 C 629.797 0.701747 1.78716 0
M  V30 6759 O 630.998 0.861263 2.54629 0
M  V30 6760 C 629.269 3.1773 1.63654 0
M  V30 6761 S 630.828 3.67128 2.40338 0
M  V30 6762 H 627.646 0.647856 0.292923 0
M  V30 6763 H 630.248 1.95026 0.136024 0
M  V30 6764 H 628.952 3.99059 0.958117 0
M  V30 6765 H 628.483 3.10388 2.41708 0
M  V30 6766 H 630.498 3.35739 3.65368 0
M  V30 6767 N 629.671 -0.424282 1.51781 0
M  V30 6768 C 630.901 -1.19297 1.68677 0
M  V30 6769 C 631.309 -1.85152 0.389258 0
M  V30 6770 O 630.652 -1.72067 -0.643311 0
M  V30 6771 C 630.714 -2.30929 2.75521 0
M  V30 6772 C 630.378 -1.85335 4.17732 0
M  V30 6773 C 631.375 -1.34951 5.0208 0
M  V30 6774 C 629.06 -1.92629 4.63896 0
M  V30 6775 C 631.054 -0.924636 6.30658 0
M  V30 6776 C 628.741 -1.49754 5.92467 0
M  V30 6777 C 629.739 -0.997543 6.75676 0
M  V30 6778 O 629.427 -0.57492 8.01842 0
M  V30 6779 H 629.159 -0.36512 0.568914 0
M  V30 6780 H 631.713 -0.507327 1.99036 0
M  V30 6781 H 629.943 -3.02811 2.40505 0
M  V30 6782 H 631.632 -2.92748 2.81165 0
M  V30 6783 H 632.398 -1.287 4.67612 0
M  V30 6784 H 628.277 -2.30491 3.99243 0
M  V30 6785 H 631.821 -0.533682 6.95556 0
M  V30 6786 H 627.718 -1.55679 6.26446 0
M  V30 6787 H 628.486 -0.699597 8.15505 0
M  V30 6788 N 631.149 -1.42148 -0.680565 0
M  V30 6789 C 632.374 -1.45901 -1.47403 0
M  V30 6790 C 632.799 -0.0700985 -1.87969 0
M  V30 6791 O 632.157 0.930145 -1.55621 0
M  V30 6792 C 632.205 -2.38661 -2.70321 0
M  V30 6793 O 631.309 -1.85399 -3.68376 0
M  V30 6794 H 630.65 -0.494565 -0.443059 0
M  V30 6795 H 633.18 -1.86774 -0.835251 0
M  V30 6796 H 633.19 -2.55046 -3.18458 0
M  V30 6797 H 631.865 -3.39571 -2.40134 0
M  V30 6798 H 630.442 -1.78541 -3.2738 0
M  V30 6799 N 632.627 0.916307 -1.28225 0
M  V30 6800 C 633.904 1.64429 -1.05936 0
M  V30 6801 C 634.284 2.07234 0.402139 0
M  V30 6802 O 633.632 1.81535 1.3877 0
M  V30 6803 C 633.842 2.83773 -2.03159 0
M  V30 6804 C 635.19 3.54852 -2.33164 0
M  V30 6805 O 636.214 2.93918 -2.01223 0
M  V30 6806 O 635.073 4.64663 -2.87664 0
M  V30 6807 H 632.167 0.721221 -0.404683 0
M  V30 6808 H 634.713 0.965838 -1.39534 0
M  V30 6809 H 633.485 2.49217 -3.01673 0
M  V30 6810 H 633.108 3.59333 -1.70192 0
M  V30 6811 N 634.105 1.10431 1.1244 0
M  V30 6812 C 635.035 0.775143 2.20258 0
M  V30 6813 C 636.016 -0.25186 1.68225 0
M  V30 6814 O 637.201 -0.117637 1.93843 0
M  V30 6815 C 634.331 0.206133 3.46688 0
M  V30 6816 C 633.285 1.16382 4.11873 0
M  V30 6817 C 632.611 0.456014 5.32752 0
M  V30 6818 C 633.911 2.5104 4.58013 0
M  V30 6819 H 635.605 1.67665 2.4805 0
M  V30 6820 H 633.151 0.807595 1.19222 0
M  V30 6821 H 635.104 -0.036291 4.21384 0
M  V30 6822 H 633.828 -0.730614 3.18323 0
M  V30 6823 H 632.487 1.39169 3.39157 0
M  V30 6824 H 632.135 -0.485203 5.00654 0
M  V30 6825 H 631.835 1.09466 5.77314 0
M  V30 6826 H 633.359 0.222135 6.10196 0
M  V30 6827 H 634.773 2.32401 5.24083 0
M  V30 6828 H 633.17 3.10789 5.13352 0
M  V30 6829 H 634.24 3.11039 3.71998 0
M  V30 6830 N 635.583 -1.29855 0.893053 0
M  V30 6831 C 636.515 -2.26911 0.32311 0
M  V30 6832 C 637.528 -1.54039 -0.526858 0
M  V30 6833 O 638.717 -1.75132 -0.345095 0
M  V30 6834 C 635.817 -3.34266 -0.558509 0
M  V30 6835 C 634.99 -4.36601 0.264222 0
M  V30 6836 C 634.049 -5.23326 -0.549171 0
M  V30 6837 O 633.075 -5.69192 0.0309883 0
M  V30 6838 N 634.277 -5.50008 -1.85664 0
M  V30 6839 H 637.042 -2.76455 1.15726 0
M  V30 6840 H 634.603 -1.4312 0.756859 0
M  V30 6841 H 636.595 -3.89211 -1.1089 0
M  V30 6842 H 635.165 -2.8459 -1.29334 0
M  V30 6843 H 634.385 -3.81409 0.996046 0
M  V30 6844 H 635.673 -5.02019 0.827906 0
M  V30 6845 H 635.071 -5.14542 -2.35081 0
M  V30 6846 H 633.628 -6.07796 -2.35431 0
M  V30 6847 N 637.061 -0.65484 -1.43351 0
M  V30 6848 C 637.994 0.0855537 -2.2804 0
M  V30 6849 C 638.972 0.828301 -1.39921 0
M  V30 6850 O 640.156 0.827539 -1.69364 0
M  V30 6851 C 637.283 1.12792 -3.19368 0
M  V30 6852 C 636.329 0.483037 -4.23756 0
M  V30 6853 S 637.162 -0.744605 -5.30298 0
M  V30 6854 C 638.318 0.297187 -6.25194 0
M  V30 6855 H 638.551 -0.632831 -2.90487 0
M  V30 6856 H 636.084 -0.44373 -1.47886 0
M  V30 6857 H 638.042 1.7243 -3.72529 0
M  V30 6858 H 636.703 1.81863 -2.56095 0
M  V30 6859 H 635.896 1.26888 -4.87766 0
M  V30 6860 H 635.498 -0.0392713 -3.73979 0
M  V30 6861 H 637.79 1.1629 -6.67445 0
M  V30 6862 H 638.733 -0.30793 -7.0743 0
M  V30 6863 H 639.141 0.633721 -5.60932 0
M  V30 6864 N 638.539 1.52521 -0.396863 0
M  V30 6865 C 639.764 2.06571 0.185258 0
M  V30 6866 C 640.189 1.26605 1.39115 0
M  V30 6867 O 639.547 0.293055 1.78916 0
M  V30 6868 C 639.595 3.5674 0.526189 0
M  V30 6869 O 638.699 3.7929 1.61903 0
M  V30 6870 H 638.04 0.663712 0.0195474 0
M  V30 6871 H 640.57 1.966 -0.566519 0
M  V30 6872 H 640.58 4.00311 0.788338 0
M  V30 6873 H 639.255 4.14379 -0.355397 0
M  V30 6874 H 637.832 3.47605 1.35 0
M  V30 6875 N 640.017 0.126909 1.57088 0
M  V30 6876 C 641.263 -0.529952 1.95753 0
M  V30 6877 C 641.596 -1.65823 1.01077 0
M  V30 6878 O 640.871 -1.94437 0.0494162 0
M  V30 6879 C 641.154 -1.05517 3.44294 0
M  V30 6880 C 641.007 0.0702253 4.49745 0
M  V30 6881 C 642.326 -1.9435 3.94862 0
M  V30 6882 H 639.445 -0.191168 0.711775 0
M  V30 6883 H 642.087 0.204071 1.88901 0
M  V30 6884 H 640.237 -1.68069 3.50264 0
M  V30 6885 H 641.909 0.705834 4.55868 0
M  V30 6886 H 640.152 0.732259 4.27575 0
M  V30 6887 H 640.823 -0.338642 5.5096 0
M  V30 6888 H 643.299 -1.41658 3.91244 0
M  V30 6889 H 642.175 -2.28015 4.993 0
M  V30 6890 H 642.436 -2.87299 3.36024 0
M  V30 6891 N 641.495 -1.56914 -0.146875 0
M  V30 6892 C 642.458 -1.97368 -1.16526 0
M  V30 6893 C 643.458 -0.860223 -1.35856 0
M  V30 6894 O 644.648 -1.12684 -1.32846 0
M  V30 6895 C 641.78 -2.28974 -2.52555 0
M  V30 6896 H 642.973 -2.88523 -0.818209 0
M  V30 6897 H 640.526 -1.5135 -0.390221 0
M  V30 6898 H 641.261 -1.40611 -2.92231 0
M  V30 6899 H 641.046 -3.10157 -2.39886 0
M  V30 6900 H 642.536 -2.61109 -3.25902 0
M  V30 6901 N 642.974 0.416227 -1.52004 0
M  V30 6902 C 643.906 1.52552 -1.71058 0
M  V30 6903 C 644.919 1.51693 -0.59102 0
M  V30 6904 O 646.108 1.56087 -0.865973 0
M  V30 6905 C 643.208 2.91455 -1.72937 0
M  V30 6906 C 642.381 3.16584 -3.01816 0
M  V30 6907 C 641.44 4.35322 -2.95603 0
M  V30 6908 O 640.466 4.32947 -3.6952 0
M  V30 6909 N 641.668 5.40049 -2.12903 0
M  V30 6910 H 644.433 1.36604 -2.66757 0
M  V30 6911 H 641.994 0.60544 -1.50153 0
M  V30 6912 H 643.986 3.68944 -1.66321 0
M  V30 6913 H 642.556 3.00895 -0.847418 0
M  V30 6914 H 641.776 2.27203 -3.22137 0
M  V30 6915 H 643.064 3.30213 -3.87088 0
M  V30 6916 H 642.462 5.44823 -1.52265 0
M  V30 6917 H 641.019 6.16308 -2.1215 0
M  V30 6918 N 644.452 1.42507 0.673017 0
M  V30 6919 C 645.868 1.25472 0.986355 0
M  V30 6920 C 646.068 0.160181 2.00862 0
M  V30 6921 O 645.124 -0.467993 2.48125 0
M  V30 6922 C 646.437 2.61219 1.48947 0
M  V30 6923 C 647.985 2.68589 1.60715 0
M  V30 6924 C 648.46 4.04707 2.14422 0
M  V30 6925 N 649.951 4.0667 2.21752 0
M  V30 6926 C 650.686 5.0881 2.64386 0
M  V30 6927 N 650.182 6.21332 3.0646 0
M  V30 6928 N 651.975 4.96166 2.64151 0
M  V30 6929 H 644.126 2.124 -0.00378532 0
M  V30 6930 H 646.389 0.946046 0.0608367 0
M  V30 6931 H 646.095 3.42179 0.812812 0
M  V30 6932 H 645.969 2.85261 2.46791 0
M  V30 6933 H 648.356 1.87974 2.27486 0
M  V30 6934 H 648.437 2.48333 0.613552 0
M  V30 6935 H 648.081 4.8578 1.48258 0
M  V30 6936 H 648.011 4.22315 3.14575 0
M  V30 6937 H 650.502 3.25438 1.92089 0
M  V30 6938 H 650.815 6.95118 3.37684 0
M  V30 6939 H 649.16 6.24835 3.04313 0
M  V30 6940 H 652.351 4.07334 2.30644 0
M  V30 6941 H 652.524 5.759 2.97057 0
M  V30 6942 N 645.93 -0.909495 1.28709 0
M  V30 6943 C 646.84 -2.04558 1.14861 0
M  V30 6944 C 647.856 -1.73842 0.0741621 0
M  V30 6945 O 649.032 -1.99383 0.2843 0
M  V30 6946 C 646.097 -3.36957 0.816148 0
M  V30 6947 C 645.158 -3.81255 1.97341 0
M  V30 6948 C 644.391 -5.07335 1.65671 0
M  V30 6949 O 644.614 -5.67514 0.573053 0
M  V30 6950 O 643.548 -5.47449 2.50167 0
M  V30 6951 H 647.374 -2.19161 2.10243 0
M  V30 6952 H 644.959 -1.03159 1.08068 0
M  V30 6953 H 646.841 -4.16436 0.644873 0
M  V30 6954 H 645.516 -3.2352 -0.107983 0
M  V30 6955 H 644.423 -3.02584 2.19986 0
M  V30 6956 H 645.756 -3.99261 2.87839 0
M  V30 6957 N 647.408 -1.11026 -1.11852 0
M  V30 6958 C 648.636 -0.878818 -1.87308 0
M  V30 6959 C 649.051 0.57111 -1.79955 0
M  V30 6960 O 648.408 1.39409 -1.17777 0
M  V30 6961 C 648.459 -1.3264 -3.36287 0
M  V30 6962 O 648.18 -2.71948 -3.43476 0
M  V30 6963 C 649.681 -1.12974 -4.28663 0
M  V30 6964 H 646.901 -0.315015 -0.592458 0
M  V30 6965 H 649.445 -1.47649 -1.41492 0
M  V30 6966 H 647.6 -0.772269 -3.79625 0
M  V30 6967 H 648.014 -2.91241 -4.3621 0
M  V30 6968 H 649.488 -1.49198 -5.31454 0
M  V30 6969 H 649.965 -0.0689127 -4.39146 0
M  V30 6970 H 650.571 -1.67064 -3.91113 0
M  V30 6971 N 648.886 1.2938 -0.899927 0
M  V30 6972 C 650.126 1.97332 -0.532871 0
M  V30 6973 C 650.49 1.69385 0.904029 0
M  V30 6974 O 651.691 2.30793 1.37797 0
M  V30 6975 C 649.962 3.47927 -0.817393 0
M  V30 6976 S 651.521 4.3528 -0.55468 0
M  V30 6977 H 648.339 0.682966 -0.197683 0
M  V30 6978 H 650.941 1.57189 -1.16241 0
M  V30 6979 H 649.645 3.65761 -1.86138 0
M  V30 6980 H 649.176 3.93006 -0.175978 0
M  V30 6981 H 651.191 4.92557 0.600182 0
M  V30 6982 N 650.364 0.662433 1.43002 0
M  V30 6983 C 651.613 0.176873 2.00923 0
M  V30 6984 C 651.926 -1.21954 1.52927 0
M  V30 6985 O 653.132 -1.80081 2.03182 0
M  V30 6986 C 651.588 0.265379 3.5892 0
M  V30 6987 C 651.196 1.66507 4.15908 0
M  V30 6988 C 652.94 -0.162103 4.2419 0
M  V30 6989 C 650.847 1.707 5.66229 0
M  V30 6990 H 649.777 0.0623627 0.751417 0
M  V30 6991 H 652.428 0.825813 1.63868 0
M  V30 6992 H 650.81 -0.451235 3.93421 0
M  V30 6993 H 651.984 2.40777 3.92891 0
M  V30 6994 H 650.299 2.03932 3.63044 0
M  V30 6995 H 652.896 -0.150745 5.34487 0
M  V30 6996 H 653.239 -1.19519 3.98774 0
M  V30 6997 H 653.772 0.503075 3.94606 0
M  V30 6998 H 650.511 2.7195 5.96426 0
M  V30 6999 H 650.031 1.00768 5.91275 0
M  V30 7000 H 651.71 1.45487 6.3043 0
M  V30 7001 N 651.842 -1.52309 0.404946 0
M  V30 7002 C 653.09 -2.01368 -0.17186 0
M  V30 7003 C 653.411 -1.29261 -1.46002 0
M  V30 7004 O 652.681 -0.41729 -1.91404 0
M  V30 7005 H 651.261 -0.744034 -0.0664993 0
M  V30 7006 H 653.923 -1.87263 0.540228 0
M  V30 7007 H 653.019 -3.09888 -0.370957 0
M  V30 7008 N 653.32 -0.135238 -1.57019 0
M  V30 7009 C 654.253 0.846618 -2.11914 0
M  V30 7010 C 655.231 1.25019 -1.03966 0
M  V30 7011 O 656.415 1.34838 -1.31723 0
M  V30 7012 C 653.542 2.1352 -2.6292 0
M  V30 7013 C 652.588 1.87846 -3.82905 0
M  V30 7014 S 653.421 1.08005 -5.24495 0
M  V30 7015 C 654.577 2.38008 -5.78881 0
M  V30 7016 H 654.81 0.379752 -2.94865 0
M  V30 7017 H 652.343 0.0788387 -1.54199 0
M  V30 7018 H 654.301 2.87551 -2.92958 0
M  V30 7019 H 652.962 2.57323 -1.80121 0
M  V30 7020 H 652.155 2.83365 -4.16797 0
M  V30 7021 H 651.757 1.21929 -3.53567 0
M  V30 7022 H 654.049 3.33742 -5.89595 0
M  V30 7023 H 654.992 2.08638 -6.76665 0
M  V30 7024 H 655.4 2.48119 -5.07048 0
M  V30 7025 N 654.798 1.5699 0.138552 0
M  V30 7026 C 656.038 1.85619 0.855849 0
M  V30 7027 C 656.402 0.720663 1.77962 0
M  V30 7028 O 657.603 0.888221 2.53701 0
M  V30 7029 C 655.874 3.19447 1.60275 0
M  V30 7030 S 657.433 3.69656 2.36431 0
M  V30 7031 H 654.251 0.650926 0.286035 0
M  V30 7032 H 656.853 1.9516 0.115331 0
M  V30 7033 H 655.557 4.00053 0.915737 0
M  V30 7034 H 655.088 3.12935 2.38402 0
M  V30 7035 H 657.103 3.39595 3.61787 0
M  V30 7036 N 656.276 -0.40816 1.52223 0
M  V30 7037 C 657.223 -1.49737 1.75635 0
M  V30 7038 C 658.193 -1.5493 0.598824 0
M  V30 7039 O 659.378 -1.71487 0.83648 0
M  V30 7040 C 656.518 -2.87174 1.91376 0
M  V30 7041 C 655.631 -2.91283 3.19027 0
M  V30 7042 C 654.766 -4.20026 3.25195 0
M  V30 7043 C 653.805 -4.18113 4.47044 0
M  V30 7044 N 652.942 -5.38429 4.50598 0
M  V30 7045 H 657.782 -1.29075 2.68596 0
M  V30 7046 H 655.319 -0.626518 1.33091 0
M  V30 7047 H 657.277 -3.66959 1.98486 0
M  V30 7048 H 655.907 -3.06329 1.01795 0
M  V30 7049 H 654.959 -2.03984 3.21084 0
M  V30 7050 H 656.271 -2.85734 4.08849 0
M  V30 7051 H 655.425 -5.08204 3.31382 0
M  V30 7052 H 654.164 -4.28271 2.33313 0
M  V30 7053 H 653.169 -3.28325 4.41002 0
M  V30 7054 H 654.394 -4.11507 5.40221 0
M  V30 7055 H 652.34 -5.4734 3.616 0
M  V30 7056 H 652.257 -5.34879 5.34266 0
M  V30 7057 H 653.525 -6.28557 4.61016 0
M  V30 7058 N 657.755 -1.42862 -0.66545 0
M  V30 7059 C 658.665 -1.49491 -1.80803 0
M  V30 7060 C 659.681 -0.382914 -1.69734 0
M  V30 7061 O 660.857 -0.635223 -1.9112 0
M  V30 7062 C 657.922 -1.40383 -3.17007 0
M  V30 7063 C 656.983 -2.62152 -3.39963 0
M  V30 7064 C 656.216 -2.53469 -4.69669 0
M  V30 7065 O 656.439 -1.57568 -5.48205 0
M  V30 7066 O 655.373 -3.43763 -4.94075 0
M  V30 7067 H 659.199 -2.45949 -1.78165 0
M  V30 7068 H 656.784 -1.24728 -0.822387 0
M  V30 7069 H 658.666 -1.377 -3.98267 0
M  V30 7070 H 657.341 -0.470546 -3.20262 0
M  V30 7071 H 656.248 -2.70409 -2.58515 0
M  V30 7072 H 657.581 -3.54411 -3.41546 0
M  V30 7073 N 659.233 0.902656 -1.29189 0
M  V30 7074 C 660.458 1.69167 -1.19989 0
M  V30 7075 C 660.883 1.86607 0.236495 0
M  V30 7076 O 660.241 1.38425 1.17082 0
M  V30 7077 C 660.289 3.05532 -1.91527 0
M  V30 7078 O 659.393 3.93621 -1.2303 0
M  V30 7079 H 658.734 0.517584 -0.415936 0
M  V30 7080 H 661.264 1.12785 -1.70706 0
M  V30 7081 H 661.274 3.55693 -1.99866 0
M  V30 7082 H 659.949 2.92156 -2.96003 0
M  V30 7083 H 658.526 3.52055 -1.22928 0
M  V30 7084 N 660.711 1.11618 1.11262 0
M  V30 7085 C 661.951 0.876154 1.8467 0
M  V30 7086 C 662.315 -0.587551 1.82789 0
M  V30 7087 O 663.516 -0.944411 2.51663 0
M  V30 7088 C 661.787 1.42461 3.2778 0
M  V30 7089 S 663.346 1.32185 4.18417 0
M  V30 7090 H 660.164 0.31628 0.636779 0
M  V30 7091 H 662.766 1.42404 1.33946 0
M  V30 7092 H 661.47 2.48367 3.26714 0
M  V30 7093 H 661.001 0.873844 3.83572 0
M  V30 7094 H 663.016 0.287607 4.95366 0
M  V30 7095 N 662.189 -1.289 0.906776 0
M  V30 7096 C 663.137 -2.29477 0.379873 0
M  V30 7097 C 664.131 -1.61068 -0.524747 0
M  V30 7098 O 665.337 -1.75344 -0.406765 0
M  V30 7099 H 661.712 -0.744742 0.10423 0
M  V30 7100 H 663.683 -2.71353 1.24137 0
M  V30 7101 C 662.432 -3.45713 -0.371154 0
M  V30 7102 H 661.755 -3.98551 0.315716 0
M  V30 7103 H 663.195 -4.18105 -0.704581 0
M  V30 7104 C 661.654 -2.9774 -1.57646 0
M  V30 7105 O 662.184 -2.99618 -2.67567 0
M  V30 7106 N 660.39 -2.53485 -1.42105 0
M  V30 7107 H 659.937 -2.52156 -0.526783 0
M  V30 7108 H 659.895 -2.21747 -2.22881 0
M  V30 7109 N 663.667 -0.670007 -1.42649 0
M  V30 7110 C 664.944 -0.119451 -1.95235 0
M  V30 7111 C 665.324 1.36461 -1.61064 0
M  V30 7112 O 664.672 2.09843 -0.904329 0
M  V30 7113 C 664.882 -0.383498 -3.46887 0
M  V30 7114 C 666.23 -0.297431 -4.23557 0
M  V30 7115 O 667.254 -0.31698 -3.54787 0
M  V30 7116 O 666.113 -0.235507 -5.45992 0
M  V30 7117 H 663.207 -8.85474e-05 -0.827 0
M  V30 7118 H 665.753 -0.744406 -1.52501 0
M  V30 7119 H 664.525 -1.41174 -3.64946 0
M  V30 7120 H 664.148 0.273702 -3.96657 0
M  V30 7121 N 665.145 1.52092 -0.413018 0
M  V30 7122 C 666.373 2.06274 0.160881 0
M  V30 7123 C 666.788 1.28273 1.38533 0
M  V30 7124 O 666.145 0.33563 1.79387 0
M  V30 7125 C 666.196 3.57921 0.507443 0
M  V30 7126 O 665.917 4.32971 -0.668388 0
M  V30 7127 C 667.418 4.28533 1.13465 0
M  V30 7128 H 664.638 0.67074 0.0186759 0
M  V30 7129 H 667.182 1.95951 -0.585092 0
M  V30 7130 H 665.337 3.68238 1.20331 0
M  V30 7131 H 665.751 5.23135 -0.378169 0
M  V30 7132 H 667.225 5.35804 1.32732 0
M  V30 7133 H 667.702 3.85258 2.10886 0
M  V30 7134 H 668.308 4.22595 0.478876 0
M  V30 7135 N 666.623 0.143563 1.56945 0
M  V30 7136 C 667.555 -0.828353 2.13708 0
M  V30 7137 C 668.568 -1.21313 1.08568 0
M  V30 7138 O 669.757 -1.1578 1.35857 0
M  V30 7139 C 666.857 -2.12248 2.64204 0
M  V30 7140 C 666.03 -1.90561 3.93707 0
M  V30 7141 C 665.089 -3.03931 4.29549 0
M  V30 7142 O 664.115 -2.75772 4.97934 0
M  V30 7143 N 665.317 -4.31016 3.88852 0
M  V30 7144 H 668.082 -0.343242 2.97728 0
M  V30 7145 H 665.643 -0.0401152 1.6185 0
M  V30 7146 H 667.635 -2.87132 2.85197 0
M  V30 7147 H 666.205 -2.52033 1.84928 0
M  V30 7148 H 665.425 -0.997327 3.81375 0
M  V30 7149 H 666.713 -1.73405 4.78339 0
M  V30 7150 H 666.111 -4.56762 3.33743 0
M  V30 7151 H 664.668 -5.02691 4.14903 0
M  V30 7152 N 668.101 -1.57061 -0.130224 0
M  V30 7153 C 669.331 -1.88159 -0.853217 0
M  V30 7154 C 669.739 -0.731675 -1.7448 0
M  V30 7155 O 669.082 0.307035 -1.81116 0
M  V30 7156 C 669.144 -3.1415 -1.74785 0
M  V30 7157 C 668.808 -4.45202 -1.03173 0
M  V30 7158 C 669.805 -5.18526 -0.377759 0
M  V30 7159 C 667.49 -4.91912 -1.01624 0
M  V30 7160 C 669.484 -6.36775 0.282123 0
M  V30 7161 C 667.171 -6.10082 -0.352555 0
M  V30 7162 C 668.169 -6.82361 0.295483 0
M  V30 7163 O 667.857 -7.98284 0.948606 0
M  V30 7164 H 667.589 -0.627596 -0.251197 0
M  V30 7165 H 670.143 -2.05034 -0.1226 0
M  V30 7166 H 668.373 -2.93328 -2.51983 0
M  V30 7167 H 670.062 -3.31359 -2.34427 0
M  V30 7168 H 670.828 -4.83498 -0.381417 0
M  V30 7169 H 666.707 -4.35566 -1.51007 0
M  V30 7170 H 670.251 -6.93129 0.788525 0
M  V30 7171 H 666.148 -6.44569 -0.346621 0
M  V30 7172 H 666.916 -8.14054 0.851954 0
M  V30 7173 N 669.579 0.400081 -1.52437 0
M  V30 7174 C 670.526 1.48803 -1.76426 0
M  V30 7175 C 671.496 1.5461 -0.607032 0
M  V30 7176 O 672.681 1.71041 -0.845563 0
M  V30 7177 C 669.821 2.86156 -1.92896 0
M  V30 7178 C 668.934 2.89587 -3.20567 0
M  V30 7179 C 668.069 4.18296 -3.27417 0
M  V30 7180 C 667.108 4.15736 -4.49255 0
M  V30 7181 N 666.245 5.36032 -4.53447 0
M  V30 7182 H 671.085 1.27649 -2.69276 0
M  V30 7183 H 668.622 0.619451 -1.33421 0
M  V30 7184 H 670.58 3.65901 -2.00429 0
M  V30 7185 H 669.21 3.05785 -1.03418 0
M  V30 7186 H 668.262 2.02278 -3.22161 0
M  V30 7187 H 669.574 2.83562 -4.10358 0
M  V30 7188 H 668.728 5.06439 -3.34072 0
M  V30 7189 H 667.467 4.27028 -2.35581 0
M  V30 7190 H 666.472 3.25982 -4.42737 0
M  V30 7191 H 667.697 4.08636 -5.42396 0
M  V30 7192 H 665.643 5.45415 -3.64498 0
M  V30 7193 H 665.56 5.32038 -5.37096 0
M  V30 7194 H 666.828 6.26104 -4.64343 0
M  V30 7195 N 671.057 1.43213 0.657864 0
M  V30 7196 C 671.99 1.42456 1.78273 0
M  V30 7197 C 672.968 0.286598 1.60054 0
M  V30 7198 O 674.152 0.479467 1.823 0
M  V30 7199 C 671.279 1.23169 3.15511 0
M  V30 7200 C 670.325 2.40181 3.52442 0
M  V30 7201 S 671.158 4.02729 3.52944 0
M  V30 7202 C 672.314 3.85816 4.92846 0
M  V30 7203 H 672.547 2.37642 1.78644 0
M  V30 7204 H 670.08 1.30188 0.830084 0
M  V30 7205 H 672.038 1.12728 3.94719 0
M  V30 7206 H 670.699 0.295398 3.12708 0
M  V30 7207 H 669.892 2.22478 4.52239 0
M  V30 7208 H 669.494 2.47224 2.80636 0
M  V30 7209 H 671.786 3.47853 5.81381 0
M  V30 7210 H 672.729 4.85348 5.15599 0
M  V30 7211 H 673.137 3.18361 4.66162 0
M  V30 7212 N 672.536 -0.895792 1.29666 0
M  V30 7213 C 673.764 -1.68001 1.20761 0
M  V30 7214 C 674.179 -1.87379 -0.231187 0
M  V30 7215 O 673.536 -1.41359 -1.15429 0
M  V30 7216 C 673.587 -3.06236 1.92098 0
M  V30 7217 O 673.308 -2.8774 3.30359 0
M  V30 7218 C 674.809 -4.00652 1.89717 0
M  V30 7219 H 672.029 -0.524591 0.418384 0
M  V30 7220 H 674.573 -1.11995 1.71106 0
M  V30 7221 H 672.728 -3.59007 1.45578 0
M  V30 7222 H 673.142 -3.75359 3.66342 0
M  V30 7223 H 674.616 -4.95051 2.44189 0
M  V30 7224 H 675.093 -4.30424 0.873595 0
M  V30 7225 H 675.699 -3.53815 2.35998 0
M  V30 7226 N 674.014 -1.12206 -1.10668 0
M  V30 7227 C 675.263 -0.870595 -1.81944 0
M  V30 7228 C 675.576 0.605447 -1.85994 0
M  V30 7229 O 676.782 0.973433 -2.53449 0
M  V30 7230 C 675.238 -1.50783 -3.26791 0
M  V30 7231 C 674.846 -3.01849 -3.31046 0
M  V30 7232 C 676.59 -1.33653 -4.02911 0
M  V30 7233 C 674.497 -3.58518 -4.70339 0
M  V30 7234 H 673.427 -0.322043 -0.681765 0
M  V30 7235 H 676.078 -1.34827 -1.24475 0
M  V30 7236 H 674.46 -0.957825 -3.84242 0
M  V30 7237 H 675.634 -3.63321 -2.83433 0
M  V30 7238 H 673.949 -3.18346 -2.68411 0
M  V30 7239 H 676.546 -1.73416 -5.05797 0
M  V30 7240 H 676.889 -0.279949 -4.15358 0
M  V30 7241 H 677.422 -1.85562 -3.51868 0
M  V30 7242 H 674.161 -4.63925 -4.63091 0
M  V30 7243 H 673.681 -3.01819 -5.18329 0
M  V30 7244 H 675.36 -3.57434 -5.39305 0
M  V30 7245 N 675.492 1.28418 -0.913599 0
M  V30 7246 C 676.717 1.99643 -0.561899 0
M  V30 7247 C 677.142 1.67819 0.849608 0
M  V30 7248 O 676.5 0.910503 1.56779 0
M  V30 7249 C 676.548 3.52116 -0.777622 0
M  V30 7250 O 675.652 4.12076 0.163457 0
M  V30 7251 H 674.993 0.627229 -0.217898 0
M  V30 7252 H 677.523 1.63575 -1.229 0
M  V30 7253 H 677.533 4.02163 -0.687666 0
M  V30 7254 H 676.208 3.74613 -1.8066 0
M  V30 7255 H 674.785 3.72892 0.0247827 0
M  V30 7256 N 676.97 0.677563 1.42291 0
M  V30 7257 C 677.903 -0.0492638 2.28147 0
M  V30 7258 C 678.881 -0.805936 1.41221 0
M  V30 7259 O 680.065 -0.80049 1.70659 0
M  V30 7260 C 677.192 -1.07697 3.21122 0
M  V30 7261 C 676.238 -0.41556 4.24471 0
M  V30 7262 S 677.071 0.828876 5.29046 0
M  V30 7263 C 678.227 -0.197687 6.25588 0
M  V30 7264 H 678.46 0.678965 2.89443 0
M  V30 7265 H 675.993 0.467201 1.47162 0
M  V30 7266 H 677.951 -1.66482 3.75225 0
M  V30 7267 H 676.612 -1.77766 2.58956 0
M  V30 7268 H 675.805 -1.19112 4.89723 0
M  V30 7269 H 675.407 0.0987632 3.7387 0
M  V30 7270 H 677.699 -1.05656 6.69211 0
M  V30 7271 H 678.642 0.420437 7.06851 0
M  V30 7272 H 679.05 -0.544401 5.61869 0
M  V30 7273 N 678.448 -1.51871 0.421078 0
M  V30 7274 C 679.411 -2.25914 -0.386712 0
M  V30 7275 C 680.411 -1.28733 -0.963555 0
M  V30 7276 O 681.601 -1.52579 -0.840556 0
M  V30 7277 C 678.733 -3.03853 -1.54551 0
M  V30 7278 H 679.926 -2.98754 0.261978 0
M  V30 7279 H 677.479 -1.5533 0.173862 0
M  V30 7280 H 678.214 -2.35392 -2.23072 0
M  V30 7281 H 677.999 -3.75215 -1.13824 0
M  V30 7282 H 679.489 -3.59984 -2.11663 0
M  V30 7283 N 679.926 -0.151884 -1.56866 0
M  V30 7284 C 681.203 0.543328 -1.87902 0
M  V30 7285 C 681.583 1.82636 -1.05864 0
M  V30 7286 O 680.931 2.28028 -0.146868 0
M  V30 7287 C 681.141 0.804056 -3.39611 0
M  V30 7288 C 682.489 1.14267 -4.08935 0
M  V30 7289 O 683.513 0.893248 -3.44818 0
M  V30 7290 O 682.372 1.61229 -5.22176 0
M  V30 7291 H 679.466 0.277724 -0.778973 0
M  V30 7292 H 682.012 -0.188862 -1.68646 0
M  V30 7293 H 680.784 -0.103772 -3.91162 0
M  V30 7294 H 680.407 1.59025 -3.64413 0
M  V30 7295 N 681.404 1.57128 0.121893 0
M  V30 7296 C 682.65 1.85853 0.826451 0
M  V30 7297 C 683.005 0.739262 1.77631 0
M  V30 7298 O 682.298 -0.260959 1.89815 0
M  V30 7299 C 682.492 3.1874 1.61677 0
M  V30 7300 C 682.321 4.43487 0.744944 0
M  V30 7301 C 681.091 5.03707 0.400891 0
M  V30 7302 C 683.289 5.1426 0.0638779 0
M  V30 7303 N 681.271 6.12006 -0.481902 0
M  V30 7304 C 682.642 6.16281 -0.678033 0
M  V30 7305 C 684.697 4.97898 -0.0128424 0
M  V30 7306 C 683.4 7.0371 -1.48946 0
M  V30 7307 C 685.426 5.85812 -0.81108 0
M  V30 7308 C 684.788 6.87333 -1.54119 0
M  V30 7309 H 680.887 0.730367 0.279442 0
M  V30 7310 H 683.471 1.9449 0.0903486 0
M  V30 7311 H 681.642 3.11204 2.32393 0
M  V30 7312 H 683.374 3.35283 2.26644 0
M  V30 7313 H 680.129 4.67744 0.742469 0
M  V30 7314 H 680.553 6.70787 -0.915063 0
M  V30 7315 H 685.195 4.19372 0.537278 0
M  V30 7316 H 682.913 7.81646 -2.05074 0
M  V30 7317 H 686.499 5.75217 -0.872764 0
M  V30 7318 H 685.379 7.54182 -2.14893 0
M  V30 7319 N 682.882 -0.391992 1.52647 0
M  V30 7320 C 684.293 -0.970064 1.5952 0
M  V30 7321 C 684.644 -1.91059 0.446207 0
M  V30 7322 O 683.769 -2.12062 -0.431125 0
M  V30 7323 C 684.364 -1.76614 2.89125 0
M  V30 7324 C 682.923 -2.29396 2.9842 0
M  V30 7325 C 682.07 -1.09864 2.54608 0
M  V30 7326 H 685.021 -0.171638 1.57769 0
M  V30 7327 H 685.042 -2.62511 2.75442 0
M  V30 7328 H 684.554 -1.08135 3.72731 0
M  V30 7329 H 682.655 -3.01196 2.19344 0
M  V30 7330 H 682.768 -2.59088 4.03002 0
M  V30 7331 H 681.132 -1.45777 2.08857 0
M  V30 7332 H 681.915 -0.429249 3.40606 0
M  V30 7333 N 684.36 -1.4356 -0.65026 0
M  V30 7334 C 685.585 -1.48995 -1.44275 0
M  V30 7335 C 686.01 -0.109954 -1.87778 0
M  V30 7336 O 685.368 0.896926 -1.57559 0
M  V30 7337 C 685.416 -2.44341 -2.65198 0
M  V30 7338 O 684.52 -1.93172 -3.6436 0
M  V30 7339 H 683.861 -0.503852 -0.432469 0
M  V30 7340 H 686.391 -1.88504 -0.795446 0
M  V30 7341 H 686.401 -2.61743 -3.12977 0
M  V30 7342 H 685.076 -3.44588 -2.32877 0
M  V30 7343 H 683.653 -1.85445 -3.23519 0
M  V30 7344 N 685.838 0.888903 -1.30139 0
M  V30 7345 C 686.748 2.02705 -1.18101 0
M  V30 7346 C 687.764 1.73702 -0.101809 0
M  V30 7347 O 688.94 1.98906 -0.315984 0
M  V30 7348 C 686.005 3.35616 -0.869651 0
M  V30 7349 C 685.066 3.78067 -2.03381 0
M  V30 7350 C 684.299 5.04635 -1.73721 0
M  V30 7351 O 684.522 5.66531 -0.663267 0
M  V30 7352 O 683.456 5.43399 -2.58845 0
M  V30 7353 H 687.282 2.15788 -2.13704 0
M  V30 7354 H 684.867 1.01426 -1.09695 0
M  V30 7355 H 686.749 4.15358 -0.711043 0
M  V30 7356 H 685.424 3.23651 0.0565002 0
M  V30 7357 H 684.331 2.99046 -2.24772 0
M  V30 7358 H 685.664 3.94631 -2.94155 0
M  V30 7359 N 687.317 1.12792 1.10072 0
M  V30 7360 C 688.28 0.802264 2.14701 0
M  V30 7361 C 689.28 -0.18515 1.59731 0
M  V30 7362 O 690.47 0.041109 1.74151 0
M  V30 7363 C 687.602 0.19285 3.40354 0
M  V30 7364 H 688.795 1.72932 2.45019 0
M  V30 7365 H 686.348 0.931662 1.25498 0
M  V30 7366 H 687.083 -0.743748 3.15656 0
M  V30 7367 H 686.868 0.903827 3.81541 0
M  V30 7368 H 688.358 -0.0183704 4.17596 0
M  V30 7369 N 688.795 -1.27931 0.920396 0
M  V30 7370 C 690.02 -1.99343 0.572478 0
M  V30 7371 C 690.445 -1.68267 -0.840696 0
M  V30 7372 O 689.803 -0.918805 -1.56294 0
M  V30 7373 C 689.851 -3.51698 0.796284 0
M  V30 7374 O 688.955 -4.12157 -0.141602 0
M  V30 7375 H 688.296 -0.626065 0.221221 0
M  V30 7376 H 690.826 -1.62921 1.23765 0
M  V30 7377 H 690.836 -4.01793 0.708984 0
M  V30 7378 H 689.511 -3.73649 1.82644 0
M  V30 7379 H 688.088 -3.729 -0.005007 0
M  V30 7380 N 690.273 -0.685099 -1.4193 0
M  V30 7381 C 691.183 -0.013404 -2.34596 0
M  V30 7382 C 692.199 0.777589 -1.55658 0
M  V30 7383 O 693.375 0.717553 -1.88184 0
M  V30 7384 C 690.44 0.919031 -3.34297 0
M  V30 7385 C 689.501 0.121417 -4.29128 0
M  V30 7386 C 688.734 1.00944 -5.24067 0
M  V30 7387 O 688.957 2.24898 -5.24192 0
M  V30 7388 O 687.891 0.464724 -6.00103 0
M  V30 7389 H 691.717 -0.776978 -2.93593 0
M  V30 7390 H 689.302 -0.445379 -1.42607 0
M  V30 7391 H 691.184 1.45402 -3.9552 0
M  V30 7392 H 689.859 1.66228 -2.77759 0
M  V30 7393 H 688.766 -0.45792 -3.71287 0
M  V30 7394 H 690.099 -0.582937 -4.88736 0
M  V30 7395 N 691.751 1.51645 -0.429126 0
M  V30 7396 C 693.028 1.94579 0.199614 0
M  V30 7397 C 693.408 1.3673 1.60836 0
M  V30 7398 O 692.756 0.551062 2.21756 0
M  V30 7399 C 692.966 3.48506 0.185685 0
M  V30 7400 C 694.314 4.22756 0.395282 0
M  V30 7401 O 695.338 3.55219 0.264165 0
M  V30 7402 O 694.197 5.42555 0.655475 0
M  V30 7403 H 691.291 0.816007 0.134393 0
M  V30 7404 H 693.837 1.62577 -0.486513 0
M  V30 7405 H 692.609 3.83045 -0.799508 0
M  V30 7406 H 692.232 3.86927 0.91507 0
M  V30 7407 N 693.229 0.160201 1.56784 0
M  V30 7408 C 694.475 -0.481855 1.9761 0
M  V30 7409 C 694.83 -1.61605 1.04411 0
M  V30 7410 O 694.123 -1.91426 0.0816402 0
M  V30 7411 C 694.317 -1.02259 3.42459 0
M  V30 7412 C 694.146 0.0576781 4.49663 0
M  V30 7413 C 692.916 0.503585 5.02784 0
M  V30 7414 C 695.114 0.854013 5.0716 0
M  V30 7415 N 693.096 1.56532 5.93608 0
M  V30 7416 C 694.467 1.76593 5.94319 0
M  V30 7417 C 696.522 0.900333 4.89692 0
M  V30 7418 C 695.225 2.72023 6.6588 0
M  V30 7419 C 697.251 1.84252 5.61965 0
M  V30 7420 C 696.613 2.74194 6.48843 0
M  V30 7421 H 692.712 -0.144748 0.768487 0
M  V30 7422 H 695.296 0.257853 1.92985 0
M  V30 7423 H 693.467 -1.73186 3.47651 0
M  V30 7424 H 695.199 -1.63235 3.70319 0
M  V30 7425 H 691.954 0.103361 4.73487 0
M  V30 7426 H 692.378 2.09634 6.43726 0
M  V30 7427 H 697.02 0.219023 4.22232 0
M  V30 7428 H 694.738 3.41147 7.3256 0
M  V30 7429 H 698.324 1.88433 5.5044 0
M  V30 7430 H 697.204 3.45912 7.03786 0
M  V30 7431 N 694.707 -1.5719 -0.113559 0
M  V30 7432 C 695.956 -1.84325 -0.818984 0
M  V30 7433 C 696.269 -0.746685 -1.80787 0
M  V30 7434 O 697.475 -0.904596 -2.55987 0
M  V30 7435 C 695.931 -3.26818 -1.50724 0
M  V30 7436 C 695.539 -4.44498 -0.559065 0
M  V30 7437 C 697.283 -3.63196 -2.19748 0
M  V30 7438 C 695.19 -5.7802 -1.25086 0
M  V30 7439 H 694.12 -0.687507 -0.309596 0
M  V30 7440 H 696.771 -1.8336 -0.0717621 0
M  V30 7441 H 695.153 -3.22269 -2.30128 0
M  V30 7442 H 696.327 -4.60356 0.202146 0
M  V30 7443 H 694.642 -4.16393 0.024495 0
M  V30 7444 H 697.239 -4.60226 -2.72206 0
M  V30 7445 H 697.582 -2.90899 -2.97798 0
M  V30 7446 H 698.115 -3.69553 -1.47226 0
M  V30 7447 H 694.854 -6.53501 -0.511539 0
M  V30 7448 H 694.374 -5.66038 -1.98395 0
M  V30 7449 H 696.053 -6.2196 -1.78253 0
M  V30 7450 N 696.185 0.383891 -1.52853 0
M  V30 7451 C 697.432 1.12842 -1.68146 0
M  V30 7452 C 697.76 1.89823 -0.423954 0
M  V30 7453 O 697.015 1.86475 0.593765 0
M  V30 7454 C 697.314 2.12881 -2.87082 0
M  V30 7455 C 696.98 1.52519 -4.24322 0
M  V30 7456 C 695.642 1.35783 -4.61645 0
M  V30 7457 C 697.994 1.0868 -5.09743 0
M  V30 7458 C 695.322 0.737643 -5.82044 0
M  V30 7459 C 697.674 0.480699 -6.30771 0
M  V30 7460 C 696.338 0.300681 -6.66822 0
M  V30 7461 H 695.608 0.412917 -0.615289 0
M  V30 7462 H 698.255 0.412416 -1.87006 0
M  V30 7463 H 696.56 2.90719 -2.62659 0
M  V30 7464 H 698.257 2.70408 -2.96109 0
M  V30 7465 H 694.847 1.66534 -3.94923 0
M  V30 7466 H 699.031 1.2041 -4.81472 0
M  V30 7467 H 694.287 0.586415 -6.08581 0
M  V30 7468 H 698.461 0.132733 -6.96273 0
M  V30 7469 H 696.088 -0.181966 -7.59982 0
M  V30 7470 N 697.663 1.43903 0.642637 0
M  V30 7471 C 698.613 1.46321 1.74854 0
M  V30 7472 C 699.597 0.330361 1.57472 0
M  V30 7473 O 700.789 0.574881 1.67404 0
M  V30 7474 C 697.918 1.39919 3.13493 0
M  V30 7475 C 697.004 2.58274 3.36385 0
M  V30 7476 N 697.395 3.83578 3.29699 0
M  V30 7477 C 695.693 2.53224 3.67142 0
M  V30 7478 C 696.394 4.62375 3.52965 0
M  V30 7479 N 695.37 3.93269 3.75287 0
M  V30 7480 H 699.172 2.41062 1.68126 0
M  V30 7481 H 696.686 1.38704 0.844693 0
M  V30 7482 H 698.683 1.39735 3.92785 0
M  V30 7483 H 697.343 0.46207 3.21395 0
M  V30 7484 H 698.354 4.15713 3.08874 0
M  V30 7485 H 695.031 1.68252 3.82096 0
M  V30 7486 H 696.421 5.714 3.53485 0
M  V30 7487 N 699.141 -0.881989 1.30609 0
M  V30 7488 C 700.387 -1.63647 1.19781 0
M  V30 7489 C 700.72 -1.92632 -0.246265 0
M  V30 7490 O 699.995 -1.54938 -1.17577 0
M  V30 7491 C 700.278 -2.97437 2.02985 0
M  V30 7492 C 700.131 -2.75406 3.55628 0
M  V30 7493 C 701.45 -3.98397 1.86997 0
M  V30 7494 H 698.569 -0.593841 0.436488 0
M  V30 7495 H 701.211 -1.02041 1.60273 0
M  V30 7496 H 699.361 -3.50018 1.68581 0
M  V30 7497 H 701.033 -2.2959 4.00107 0
M  V30 7498 H 699.276 -2.09856 3.79662 0
M  V30 7499 H 699.947 -3.70552 4.09139 0
M  V30 7500 H 702.423 -3.54986 2.17081 0
M  V30 7501 H 701.299 -4.89916 2.47536 0
M  V30 7502 H 701.56 -4.3424 0.829943 0
M  V30 7503 N 700.619 -1.13374 -1.09472 0
M  V30 7504 C 701.549 -0.833268 -2.18126 0
M  V30 7505 C 702.53 0.207169 -1.68834 0
M  V30 7506 O 703.715 0.0662012 -1.94087 0
M  V30 7507 C 700.845 -0.297979 -3.46019 0
M  V30 7508 C 699.799 -1.27261 -4.08642 0
M  V30 7509 C 699.125 -0.597104 -5.31356 0
M  V30 7510 C 700.425 -2.63095 -4.51197 0
M  V30 7511 H 702.119 -1.74182 -2.43518 0
M  V30 7512 H 699.665 -0.838921 -1.17039 0
M  V30 7513 H 701.618 -0.0754444 -4.21332 0
M  V30 7514 H 700.342 0.645959 -3.20148 0
M  V30 7515 H 699.001 -1.48113 -3.35348 0
M  V30 7516 H 698.649 0.352293 -5.01765 0
M  V30 7517 H 698.349 -1.24734 -5.74208 0
M  V30 7518 H 699.873 -0.38384 -6.09392 0
M  V30 7519 H 701.287 -2.46214 -5.17737 0
M  V30 7520 H 699.684 -3.2429 -5.04932 0
M  V30 7521 H 700.754 -3.20793 -3.6362 0
M  V30 7522 N 702.098 1.27442 -0.927168 0
M  V30 7523 C 703.323 1.99036 -0.583042 0
M  V30 7524 C 703.748 1.68711 0.83176 0
M  V30 7525 O 703.106 0.927081 1.55804 0
M  V30 7526 C 703.154 3.51271 -0.814925 0
M  V30 7527 O 702.258 4.12226 0.119742 0
M  V30 7528 H 701.599 0.624883 -0.224538 0
M  V30 7529 H 704.129 1.62263 -1.24628 0
M  V30 7530 H 704.139 4.01411 -0.730282 0
M  V30 7531 H 702.814 3.72676 -1.84623 0
M  V30 7532 H 701.391 3.72897 -0.0147688 0
M  V30 7533 N 703.576 0.692616 1.41565 0
M  V30 7534 C 704.508 -0.0137132 2.29196 0
M  V30 7535 C 705.521 -0.747417 1.44629 0
M  V30 7536 O 706.71 -0.598611 1.68163 0
M  V30 7537 C 703.81 -1.04347 3.22436 0
M  V30 7538 C 702.983 -0.379985 4.35746 0
M  V30 7539 C 702.042 -1.31195 5.09583 0
M  V30 7540 O 701.068 -0.805455 5.63472 0
M  V30 7541 N 702.27 -2.64443 5.16769 0
M  V30 7542 H 705.035 0.738614 2.90456 0
M  V30 7543 H 702.596 0.538415 1.52685 0
M  V30 7544 H 704.588 -1.6686 3.687 0
M  V30 7545 H 703.158 -1.69736 2.62504 0
M  V30 7546 H 702.378 0.424975 3.91903 0
M  V30 7547 H 703.666 0.0814904 5.08735 0
M  V30 7548 H 703.064 -3.08114 4.74428 0
M  V30 7549 H 701.621 -3.22159 5.66619 0
M  V30 7550 N 705.054 -1.51416 0.437162 0
M  V30 7551 C 705.964 -2.31493 -0.380537 0
M  V30 7552 C 706.98 -1.40399 -1.02782 0
M  V30 7553 O 708.156 -1.73471 -1.02323 0
M  V30 7554 C 705.221 -3.1413 -1.46709 0
M  V30 7555 C 704.282 -4.21003 -0.839953 0
M  V30 7556 C 703.515 -4.9969 -1.87473 0
M  V30 7557 O 703.738 -4.79008 -3.09689 0
M  V30 7558 O 702.672 -5.8379 -1.46536 0
M  V30 7559 H 706.498 -3.02469 0.273183 0
M  V30 7560 H 704.083 -1.48059 0.199706 0
M  V30 7561 H 705.965 -3.65505 -2.09724 0
M  V30 7562 H 704.64 -2.45919 -2.10489 0
M  V30 7563 H 703.547 -3.73706 -0.171752 0
M  V30 7564 H 704.88 -4.91587 -0.245638 0
M  V30 7565 N 706.532 -0.168513 -1.56696 0
M  V30 7566 C 707.948 0.187686 -1.58493 0
M  V30 7567 C 708.148 1.63063 -1.18375 0
M  V30 7568 O 707.204 2.36142 -0.894042 0
M  V30 7569 C 708.517 -0.0905858 -3.00564 0
M  V30 7570 C 710.065 -0.028575 -3.12987 0
M  V30 7571 C 710.54 -0.279799 -4.57145 0
M  V30 7572 N 712.031 -0.227476 -4.62641 0
M  V30 7573 C 712.766 -0.396073 -5.7203 0
M  V30 7574 N 712.262 -0.623572 -6.89988 0
M  V30 7575 N 714.055 -0.332173 -5.61118 0
M  V30 7576 H 706.206 -1.11042 -1.81062 0
M  V30 7577 H 708.469 -0.441235 -0.839056 0
M  V30 7578 H 708.175 -1.09006 -3.34381 0
M  V30 7579 H 708.049 0.619078 -3.72085 0
M  V30 7580 H 710.436 0.961471 -2.78998 0
M  V30 7581 H 710.517 -0.770905 -2.43907 0
M  V30 7582 H 710.161 -1.26704 -4.91842 0
M  V30 7583 H 710.091 0.48311 -5.24379 0
M  V30 7584 H 712.582 -0.0571723 -3.77857 0
M  V30 7585 H 712.895 -0.741745 -7.69232 0
M  V30 7586 H 711.24 -0.660153 -6.91858 0
M  V30 7587 H 714.431 -0.155051 -4.67843 0
M  V30 7588 H 714.604 -0.466994 -6.46315 0
M  V30 7589 N 708.01 1.57248 0.105221 0
M  V30 7590 C 709.287 1.76566 0.841647 0
M  V30 7591 C 709.667 0.747566 1.9742 0
M  V30 7592 O 709.015 -0.225886 2.27381 0
M  V30 7593 C 709.225 3.22016 1.3456 0
M  V30 7594 C 710.573 3.84911 1.79244 0
M  V30 7595 O 711.597 3.25703 1.44207 0
M  V30 7596 O 710.456 4.89008 2.43995 0
M  V30 7597 H 707.55 0.723443 0.400698 0
M  V30 7598 H 710.096 1.69472 0.0878893 0
M  V30 7599 H 708.868 3.87644 0.533685 0
M  V30 7600 H 708.491 3.33703 2.16167 0
M  V30 7601 N 709.488 -0.375779 1.53054 0
M  V30 7602 C 710.42 -1.47963 1.75042 0
M  V30 7603 C 711.433 -1.50073 0.631031 0
M  V30 7604 O 712.622 -1.53736 0.907052 0
M  V30 7605 C 709.722 -2.86767 1.80604 0
M  V30 7606 C 708.895 -3.08471 3.10104 0
M  V30 7607 C 707.954 -4.27332 3.07041 0
M  V30 7608 O 706.98 -4.22998 3.80869 0
M  V30 7609 N 708.182 -5.34214 2.27147 0
M  V30 7610 H 710.947 -1.29484 2.70285 0
M  V30 7611 H 708.508 -0.565416 1.51706 0
M  V30 7612 H 710.5 -3.64404 1.76045 0
M  V30 7613 H 709.07 -2.98542 0.926897 0
M  V30 7614 H 708.29 -2.18583 3.28048 0
M  V30 7615 H 709.578 -3.19834 3.95706 0
M  V30 7616 H 708.976 -5.40594 1.66656 0
M  V30 7617 H 707.533 -6.10467 2.28415 0
M  V30 7618 N 710.966 -1.44241 -0.634997 0
M  V30 7619 C 712.191 -1.50516 -1.42687 0
M  V30 7620 C 712.616 -0.129864 -1.87651 0
M  V30 7621 O 711.974 0.880164 -1.58502 0
M  V30 7622 C 712.022 -2.4714 -2.62591 0
M  V30 7623 O 711.126 -1.97025 -3.62291 0
M  V30 7624 H 710.467 -0.50841 -0.427101 0
M  V30 7625 H 712.997 -1.89337 -0.775408 0
M  V30 7626 H 713.007 -2.65048 -3.10183 0
M  V30 7627 H 711.682 -3.47039 -2.29209 0
M  V30 7628 H 710.259 -1.88866 -3.21534 0
M  V30 7629 N 712.444 0.87505 -1.31075 0
M  V30 7630 C 713.672 1.66058 -1.23419 0
M  V30 7631 C 714.087 1.87723 0.201347 0
M  V30 7632 O 713.444 1.43178 1.13165 0
M  V30 7633 C 713.495 3.03142 -1.96945 0
M  V30 7634 O 713.216 2.82448 -3.34895 0
M  V30 7635 C 714.717 3.97583 -1.96067 0
M  V30 7636 H 711.937 0.517868 -0.426677 0
M  V30 7637 H 714.481 1.09258 -1.72867 0
M  V30 7638 H 712.636 3.56645 -1.51271 0
M  V30 7639 H 713.05 3.69483 -3.72267 0
M  V30 7640 H 714.524 4.91104 -2.52034 0
M  V30 7641 H 715.001 4.2898 -0.941961 0
M  V30 7642 H 715.607 3.50015 -2.41597 0
M  V30 7643 N 713.922 1.13953 1.08869 0
M  V30 7644 C 714.87 0.817664 2.17754 0
M  V30 7645 C 715.864 -0.202444 1.68186 0
M  V30 7646 O 717.07 -0.0590159 1.79903 0
M  V30 7647 H 713.445 0.246671 0.710392 0
M  V30 7648 H 715.416 1.74401 2.4213 0
M  V30 7649 C 714.165 0.3063 3.46348 0
M  V30 7650 H 713.488 1.08259 3.84864 0
M  V30 7651 H 714.928 0.119584 4.23831 0
M  V30 7652 C 713.387 -0.969158 3.22659 0
M  V30 7653 O 713.917 -2.04386 3.45817 0
M  V30 7654 N 712.123 -0.902516 2.7623 0
M  V30 7655 H 711.67 -0.027801 2.57585 0
M  V30 7656 H 711.628 -1.75649 2.60758 0
M  V30 7657 N 715.4 -1.26948 0.933913 0
M  V30 7658 C 716.649 -1.93378 0.573409 0
M  V30 7659 C 716.962 -1.74148 -0.890614 0
M  V30 7660 O 718.168 -2.34971 -1.36017 0
M  V30 7661 C 716.624 -3.46449 0.974747 0
M  V30 7662 C 716.232 -3.74425 2.45988 0
M  V30 7663 C 717.976 -4.18924 0.685791 0
M  V30 7664 C 715.883 -5.209 2.8003 0
M  V30 7665 H 714.813 -0.723952 0.210736 0
M  V30 7666 H 717.464 -1.44143 1.13557 0
M  V30 7667 H 715.846 -3.94528 0.341181 0
M  V30 7668 H 717.02 -3.37079 3.14188 0
M  V30 7669 H 715.335 -3.15167 2.72138 0
M  V30 7670 H 717.932 -5.26786 0.916546 0
M  V30 7671 H 718.275 -4.14587 -0.377217 0
M  V30 7672 H 718.808 -3.76687 1.27874 0
M  V30 7673 H 715.547 -5.30332 3.85264 0
M  V30 7674 H 715.067 -5.59369 2.16485 0
M  V30 7675 H 716.746 -5.88837 2.68105 0
M  V30 7676 N 716.879 -0.700114 -1.41195 0
M  V30 7677 C 718.107 -0.242179 -2.05478 0
M  V30 7678 C 718.522 1.11029 -1.52702 0
M  V30 7679 O 717.879 1.69473 -0.677127 0
M  V30 7680 C 717.93 -0.196271 -3.60967 0
M  V30 7681 O 717.651 -1.49532 -4.11791 0
M  V30 7682 C 719.152 0.282102 -4.42401 0
M  V30 7683 H 716.372 -0.111749 -0.661629 0
M  V30 7684 H 718.916 -0.953975 -1.80885 0
M  V30 7685 H 717.071 0.46638 -3.84582 0
M  V30 7686 H 717.485 -1.38545 -5.05871 0
M  V30 7687 H 718.959 0.263093 -5.51373 0
M  V30 7688 H 719.436 1.32174 -4.1884 0
M  V30 7689 H 720.042 -0.349712 -4.2386 0
M  V30 7690 N 718.357 1.51182 -0.445186 0
M  V30 7691 C 719.287 2.30821 0.352686 0
M  V30 7692 C 720.268 1.36576 1.01395 0
M  V30 7693 O 721.453 1.65497 1.01609 0
M  V30 7694 C 718.583 3.15593 1.44976 0
M  V30 7695 C 717.537 4.1818 0.911553 0
M  V30 7696 C 716.863 4.91523 2.10497 0
M  V30 7697 C 718.163 5.22266 -0.059418 0
M  V30 7698 H 719.857 2.97771 -0.311936 0
M  V30 7699 H 717.403 1.43201 -0.151461 0
M  V30 7700 H 719.356 3.70091 2.01521 0
M  V30 7701 H 718.08 2.4648 2.14278 0
M  V30 7702 H 716.739 3.64746 0.368264 0
M  V30 7703 H 716.387 4.18906 2.78437 0
M  V30 7704 H 716.087 5.60898 1.7512 0
M  V30 7705 H 717.611 5.48847 2.6758 0
M  V30 7706 H 719.025 5.71789 0.415985 0
M  V30 7707 H 717.422 5.99213 -0.326152 0
M  V30 7708 H 718.492 4.7461 -0.993631 0
M  V30 7709 N 719.835 0.176821 1.56605 0
M  V30 7710 C 721.06 -0.47599 2.01864 0
M  V30 7711 C 721.485 -1.55645 1.05623 0
M  V30 7712 O 720.843 -1.81263 0.0366729 0
M  V30 7713 C 720.891 -1.02619 3.4569 0
M  V30 7714 O 719.995 -2.13996 3.52533 0
M  V30 7715 H 719.336 -0.113363 0.654251 0
M  V30 7716 H 721.866 0.28233 2.02643 0
M  V30 7717 H 721.876 -1.34742 3.85109 0
M  V30 7718 H 720.551 -0.235138 4.15235 0
M  V30 7719 H 719.128 -1.82876 3.24978 0
M  V30 7720 N 721.313 -1.57302 -0.09688 0
M  V30 7721 C 722.729 -1.53094 -0.451041 0
M  V30 7722 C 722.929 -0.893265 -1.80618 0
M  V30 7723 O 721.985 -0.485013 -2.47798 0
M  V30 7724 C 723.298 -2.9782 -0.415172 0
M  V30 7725 C 724.846 -3.09026 -0.497155 0
M  V30 7726 C 725.321 -4.55356 -0.491452 0
M  V30 7727 N 726.812 -4.59896 -0.552258 0
M  V30 7728 C 727.547 -5.70563 -0.569654 0
M  V30 7729 N 727.043 -6.90666 -0.543365 0
M  V30 7730 N 728.836 -5.58733 -0.614331 0
M  V30 7731 H 720.987 -1.97131 0.790771 0
M  V30 7732 H 723.25 -0.901211 0.294147 0
M  V30 7733 H 722.956 -3.47933 0.513362 0
M  V30 7734 H 722.83 -3.56416 -1.23481 0
M  V30 7735 H 725.217 -2.58902 -1.41611 0
M  V30 7736 H 725.298 -2.53386 0.35059 0
M  V30 7737 H 724.942 -5.06131 0.423549 0
M  V30 7738 H 724.872 -5.08832 -1.35639 0
M  V30 7739 H 727.363 -3.73456 -0.577842 0
M  V30 7740 H 727.676 -7.70769 -0.559873 0
M  V30 7741 H 726.021 -6.93123 -0.510441 0
M  V30 7742 H 729.212 -4.63809 -0.632387 0
M  V30 7743 H 729.385 -6.44984 -0.62442 0
M  V30 7744 N 722.791 0.367657 -1.53252 0
M  V30 7745 C 723.738 1.45028 -1.79543 0
M  V30 7746 C 724.708 1.53288 -0.63969 0
M  V30 7747 O 725.893 1.69209 -0.881653 0
M  V30 7748 C 723.033 2.82 -1.98923 0
M  V30 7749 C 722.146 2.82722 -3.26638 0
M  V30 7750 C 721.281 4.11257 -3.36216 0
M  V30 7751 C 720.32 4.06113 -4.57972 0
M  V30 7752 N 719.457 5.26293 -4.64715 0
M  V30 7753 H 724.297 1.21908 -2.71923 0
M  V30 7754 H 721.834 0.591011 -1.34705 0
M  V30 7755 H 723.792 3.61568 -2.08146 0
M  V30 7756 H 722.422 3.03523 -1.09881 0
M  V30 7757 H 721.474 1.95399 -3.26379 0
M  V30 7758 H 722.786 2.74794 -4.16281 0
M  V30 7759 H 721.94 4.99239 -3.44739 0
M  V30 7760 H 720.679 4.21935 -2.44586 0
M  V30 7761 H 719.684 3.16517 -4.49552 0
M  V30 7762 H 720.909 3.97039 -5.50942 0
M  V30 7763 H 718.855 5.37561 -3.75985 0
M  V30 7764 H 718.772 5.20526 -5.4826 0
M  V30 7765 H 720.04 6.16113 -4.77519 0
M  V30 7766 N 724.269 1.44576 0.627338 0
M  V30 7767 C 725.517 1.47267 1.38408 0
M  V30 7768 C 725.838 0.107971 1.94701 0
M  V30 7769 O 725.108 -0.860206 1.76004 0
M  V30 7770 H 723.688 0.542276 0.513756 0
M  V30 7771 H 726.35 1.80383 0.738099 0
M  V30 7772 H 725.446 2.20025 2.21349 0
M  V30 7773 N 725.747 -0.868086 1.31537 0
M  V30 7774 C 726.996 -1.61607 1.20689 0
M  V30 7775 C 727.309 -1.94204 -0.233275 0
M  V30 7776 O 728.515 -2.67515 -0.463465 0
M  V30 7777 C 726.971 -2.91348 2.11292 0
M  V30 7778 C 726.579 -2.66227 3.60315 0
M  V30 7779 C 728.323 -3.69344 2.09249 0
M  V30 7780 C 726.23 -3.91887 4.42921 0
M  V30 7781 H 725.16 -0.606373 0.448138 0
M  V30 7782 H 727.811 -0.959666 1.56405 0
M  V30 7783 H 726.193 -3.58374 1.68477 0
M  V30 7784 H 727.367 -2.07597 4.11388 0
M  V30 7785 H 725.682 -2.01582 3.64354 0
M  V30 7786 H 728.279 -4.62567 2.68209 0
M  V30 7787 H 728.622 -4.02044 1.0801 0
M  V30 7788 H 729.155 -3.09205 2.50274 0
M  V30 7789 H 725.894 -3.64336 5.44922 0
M  V30 7790 H 725.414 -4.49961 3.96605 0
M  V30 7791 H 727.093 -4.59754 4.55231 0
M  V30 7792 N 727.225 -1.14528 -1.08264 0
M  V30 7793 C 728.471 -0.91576 -1.80947 0
M  V30 7794 C 728.804 0.55623 -1.86064 0
M  V30 7795 O 728.079 1.41207 -1.33756 0
M  V30 7796 C 728.362 -1.51917 -3.26486 0
M  V30 7797 C 728.215 -3.06111 -3.2957 0
M  V30 7798 C 729.534 -1.19724 -4.23502 0
M  V30 7799 H 726.653 -0.334113 -0.656915 0
M  V30 7800 H 729.295 -1.41547 -1.26746 0
M  V30 7801 H 727.445 -1.0942 -3.72773 0
M  V30 7802 H 729.117 -3.57448 -2.91597 0
M  V30 7803 H 727.36 -3.40483 -2.688 0
M  V30 7804 H 728.031 -3.43438 -4.32151 0
M  V30 7805 H 730.507 -1.56467 -3.85561 0
M  V30 7806 H 729.383 -1.64575 -5.23647 0
M  V30 7807 H 729.644 -0.112771 -4.41956 0
M  V30 7808 N 728.703 1.26451 -0.940633 0
M  V30 7809 C 729.65 2.264 -0.448497 0
M  V30 7810 C 730.62 1.5866 0.491546 0
M  V30 7811 O 731.805 1.86389 0.407874 0
M  V30 7812 C 728.945 3.43956 0.280715 0
M  V30 7813 C 728.058 4.26374 -0.694937 0
M  V30 7814 C 727.193 5.31171 0.0554186 0
M  V30 7815 C 726.232 6.05266 -0.912091 0
M  V30 7816 N 725.369 7.01833 -0.193524 0
M  V30 7817 H 730.209 2.67869 -1.30576 0
M  V30 7818 H 727.746 1.31707 -0.655112 0
M  V30 7819 H 729.704 4.10941 0.71994 0
M  V30 7820 H 728.334 3.03403 1.10212 0
M  V30 7821 H 727.386 3.59183 -1.25267 0
M  V30 7822 H 728.698 4.77748 -1.43382 0
M  V30 7823 H 727.852 6.04166 0.553951 0
M  V30 7824 H 726.591 4.80634 0.827183 0
M  V30 7825 H 725.596 5.31099 -1.42175 0
M  V30 7826 H 726.821 6.57893 -1.68385 0
M  V30 7827 H 724.767 6.53607 0.559758 0
M  V30 7828 H 724.684 7.50957 -0.871744 0
M  V30 7829 H 725.952 7.78983 0.283932 0
M  V30 7830 N 730.181 0.707592 1.40822 0
M  V30 7831 C 731.111 0.0644925 2.33411 0
M  V30 7832 C 732.092 -0.754205 1.52466 0
M  V30 7833 O 733.277 -0.704749 1.80961 0
M  V30 7834 C 730.407 -0.863865 3.36385 0
M  V30 7835 C 729.361 -0.15138 4.27732 0
M  V30 7836 C 728.687 -1.19491 5.21177 0
M  V30 7837 C 729.987 0.989607 5.12839 0
M  V30 7838 H 731.681 0.837829 2.87438 0
M  V30 7839 H 729.227 0.404346 1.38207 0
M  V30 7840 H 731.18 -1.32309 4.0009 0
M  V30 7841 H 729.904 -1.66901 2.80734 0
M  V30 7842 H 728.563 0.287937 3.65467 0
M  V30 7843 H 728.211 -1.9929 4.61836 0
M  V30 7844 H 727.911 -0.723123 5.83134 0
M  V30 7845 H 729.435 -1.6544 5.8776 0
M  V30 7846 H 730.849 0.610114 5.70044 0
M  V30 7847 H 729.246 1.38926 5.83798 0
M  V30 7848 H 730.316 1.82389 4.49291 0
M  V30 7849 N 731.66 -1.50943 0.453197 0
M  V30 7850 C 732.608 -2.29728 -0.364419 0
M  V30 7851 C 733.602 -1.36246 -1.00664 0
M  V30 7852 O 734.808 -1.53518 -0.939794 0
M  V30 7853 H 731.183 -0.739536 -0.136347 0
M  V30 7854 H 733.154 -2.96672 0.320696 0
M  V30 7855 C 731.903 -3.1629 -1.44415 0
M  V30 7856 H 731.226 -3.88119 -0.959343 0
M  V30 7857 H 732.666 -3.74444 -1.98917 0
M  V30 7858 C 731.125 -2.32702 -2.43622 0
M  V30 7859 O 731.655 -1.99763 -3.48508 0
M  V30 7860 N 729.861 -1.95621 -2.14897 0
M  V30 7861 H 729.408 -2.22607 -1.29629 0
M  V30 7862 H 729.366 -1.39993 -2.81513 0
M  V30 7863 N 733.138 -0.185124 -1.56509 0
M  V30 7864 C 734.387 0.456421 -1.96468 0
M  V30 7865 C 734.7 1.63448 -1.07444 0
M  V30 7866 O 735.906 2.34316 -1.37143 0
M  V30 7867 C 734.362 0.863404 -3.4939 0
M  V30 7868 C 733.97 -0.289815 -4.47062 0
M  V30 7869 C 735.714 1.47259 -3.98139 0
M  V30 7870 C 733.621 0.137571 -5.9124 0
M  V30 7871 H 732.551 0.17429 -0.733579 0
M  V30 7872 H 735.202 -0.275554 -1.81419 0
M  V30 7873 H 733.584 1.65176 -3.59907 0
M  V30 7874 H 734.758 -1.06728 -4.4827 0
M  V30 7875 H 733.073 -0.809851 -4.08449 0
M  V30 7876 H 735.67 1.80463 -5.03326 0
M  V30 7877 H 736.013 2.3755 -3.41871 0
M  V30 7878 H 736.546 0.748405 -3.90696 0
M  V30 7879 H 733.285 -0.730907 -6.51412 0
M  V30 7880 H 732.805 0.8801 -5.93308 0
M  V30 7881 H 734.484 0.576771 -6.44424 0
M  V30 7882 N 734.616 1.57351 0.0885366 0
M  V30 7883 C 735.846 1.90355 0.80303 0
M  V30 7884 C 736.254 0.777678 1.72478 0
M  V30 7885 O 735.597 -0.258908 1.81866 0
M  V30 7886 C 735.659 3.18674 1.66395 0
M  V30 7887 C 735.323 4.4778 0.913327 0
M  V30 7888 C 736.32 5.19345 0.240148 0
M  V30 7889 C 734.005 4.94434 0.885462 0
M  V30 7890 C 735.999 6.35803 -0.450854 0
M  V30 7891 C 733.686 6.10802 0.190679 0
M  V30 7892 C 734.684 6.81337 -0.476295 0
M  V30 7893 O 734.372 7.95488 -1.15992 0
M  V30 7894 H 734.104 0.634035 0.234469 0
M  V30 7895 H 736.658 2.05287 0.0681959 0
M  V30 7896 H 734.888 2.99906 2.44117 0
M  V30 7897 H 736.577 3.37458 2.2556 0
M  V30 7898 H 737.343 4.84339 0.253092 0
M  V30 7899 H 733.222 4.39417 1.39406 0
M  V30 7900 H 736.766 6.90795 -0.972019 0
M  V30 7901 H 732.663 6.45261 0.175603 0
M  V30 7902 H 733.431 8.11509 -1.06749 0
M  V30 7903 N 736.094 -0.359525 1.53444 0
M  V30 7904 C 737.341 -1.10152 1.6992 0
M  V30 7905 C 737.669 -1.89125 0.4541 0
M  V30 7906 O 736.924 -1.87396 -0.564023 0
M  V30 7907 C 737.223 -2.08287 2.90433 0
M  V30 7908 C 736.889 -1.45749 4.26694 0
M  V30 7909 C 735.551 -1.28421 4.63747 0
M  V30 7910 C 737.903 -1.00557 5.11408 0
M  V30 7911 C 735.231 -0.644951 5.83144 0
M  V30 7912 C 737.583 -0.380288 6.31456 0
M  V30 7913 C 736.247 -0.194557 6.67216 0
M  V30 7914 H 735.517 -0.403076 0.621781 0
M  V30 7915 H 738.164 -0.382612 1.87639 0
M  V30 7916 H 736.469 -2.86503 2.67251 0
M  V30 7917 H 738.166 -2.65662 3.00374 0
M  V30 7918 H 734.756 -1.6023 3.97523 0
M  V30 7919 H 738.94 -1.12735 4.83326 0
M  V30 7920 H 734.196 -0.48952 6.09437 0
M  V30 7921 H 738.37 -0.0219455 6.96397 0
M  V30 7922 H 735.997 0.30285 7.59597 0
M  V30 7923 N 737.572 -1.44907 -0.619662 0
M  V30 7924 C 738.504 -1.48652 -1.74457 0
M  V30 7925 C 739.517 -0.378596 -1.58337 0
M  V30 7926 O 740.706 -0.644987 -1.6644 0
M  V30 7927 C 737.806 -1.31568 -3.12319 0
M  V30 7928 C 736.979 -2.55816 -3.54792 0
M  V30 7929 C 736.038 -2.33465 -4.71573 0
M  V30 7930 O 735.064 -3.07015 -4.79302 0
M  V30 7931 N 736.266 -1.37254 -5.6404 0
M  V30 7932 H 739.031 -2.45632 -1.71712 0
M  V30 7933 H 736.592 -1.40492 -0.804582 0
M  V30 7934 H 738.584 -1.14445 -3.88181 0
M  V30 7935 H 737.154 -0.429095 -3.09641 0
M  V30 7936 H 736.374 -2.88137 -2.69018 0
M  V30 7937 H 737.662 -3.38431 -3.79924 0
M  V30 7938 H 737.06 -0.765309 -5.60499 0
M  V30 7939 H 735.617 -1.26106 -6.39485 0
M  V30 7940 N 739.05 0.861098 -1.31996 0
M  V30 7941 C 739.96 2.00154 -1.22374 0
M  V30 7942 C 740.976 1.73447 -0.138631 0
M  V30 7943 O 742.152 1.98191 -0.358104 0
M  V30 7944 C 739.217 3.33696 -0.940645 0
M  V30 7945 C 738.278 3.73668 -2.11355 0
M  V30 7946 C 737.511 5.00837 -1.84386 0
M  V30 7947 O 737.734 5.64996 -0.783287 0
M  V30 7948 O 736.668 5.37787 -2.70313 0
M  V30 7949 H 740.494 2.11207 -2.18233 0
M  V30 7950 H 738.079 0.990768 -1.11822 0
M  V30 7951 H 739.961 4.13756 -0.798987 0
M  V30 7952 H 738.636 3.23698 -0.0121636 0
M  V30 7953 H 737.543 2.94211 -2.31065 0
M  V30 7954 H 738.876 3.88303 -3.02459 0
M  V30 7955 N 740.528 1.15101 1.07655 0
M  V30 7956 C 741.775 0.923974 1.80191 0
M  V30 7957 C 742.103 -0.549065 1.86589 0
M  V30 7958 O 741.358 -1.42307 1.3434 0
M  V30 7959 C 741.657 1.47954 3.25337 0
M  V30 7960 C 741.323 2.97253 3.39044 0
M  V30 7961 C 739.985 3.38012 3.42493 0
M  V30 7962 C 742.337 3.93219 3.42094 0
M  V30 7963 C 739.665 4.73384 3.4659 0
M  V30 7964 C 742.017 5.28458 3.47728 0
M  V30 7965 C 740.681 5.68717 3.49453 0
M  V30 7966 H 739.951 0.338106 0.659367 0
M  V30 7967 H 742.598 1.43594 1.26701 0
M  V30 7968 H 740.903 0.888691 3.81588 0
M  V30 7969 H 742.6 1.27972 3.80032 0
M  V30 7970 H 739.19 2.64746 3.37057 0
M  V30 7971 H 743.374 3.62805 3.38654 0
M  V30 7972 H 738.63 5.03925 3.46222 0
M  V30 7973 H 742.804 6.02618 3.49034 0
M  V30 7974 H 740.431 6.73596 3.5238 0
M  V30 7975 N 742.006 -1.2595 0.947325 0
M  V30 7976 C 742.954 -2.28152 0.452687 0
M  V30 7977 C 743.948 -1.62655 -0.473239 0
M  V30 7978 O 745.154 -1.76549 -0.350774 0
M  V30 7979 H 741.529 -0.741049 0.12787 0
M  V30 7980 H 743.5 -2.67267 1.32707 0
M  V30 7981 C 742.249 -3.46719 -0.26098 0
M  V30 7982 H 741.572 -3.97345 0.442352 0
M  V30 7983 H 743.012 -4.20135 -0.571208 0
M  V30 7984 C 741.471 -3.02605 -1.48094 0
M  V30 7985 O 742.001 -3.07979 -2.57899 0
M  V30 7986 N 740.207 -2.57877 -1.33969 0
M  V30 7987 H 739.754 -2.53704 -0.446295 0
M  V30 7988 H 739.712 -2.28725 -2.15713 0
M  V30 7989 N 743.484 -0.715051 -1.40445 0
M  V30 7990 C 744.714 -0.263576 -2.04912 0
M  V30 7991 C 745.122 1.09943 -1.53978 0
M  V30 7992 O 744.465 1.70203 -0.691133 0
M  V30 7993 C 744.527 -0.165048 -3.59121 0
M  V30 7994 C 744.191 -1.46325 -4.32941 0
M  V30 7995 C 745.188 -2.40506 -4.60926 0
M  V30 7996 C 742.873 -1.72203 -4.7186 0
M  V30 7997 C 744.867 -3.58812 -5.26814 0
M  V30 7998 C 742.554 -2.9079 -5.3748 0
M  V30 7999 C 743.552 -3.83917 -5.64887 0
M  V30 8000 O 743.24 -5.00424 -6.29151 0
M  V30 8001 H 742.972 -0.116317 -0.665918 0
M  V30 8002 H 745.526 -0.973774 -1.8085 0
M  V30 8003 H 743.756 0.601088 -3.82 0
M  V30 8004 H 745.445 0.251794 -4.05118 0
M  V30 8005 H 746.211 -2.21778 -4.31323 0
M  V30 8006 H 742.09 -1.00571 -4.49896 0
M  V30 8007 H 745.634 -4.31517 -5.48123 0
M  V30 8008 H 741.531 -3.09428 -5.66502 0
M  V30 8009 H 742.299 -5.00494 -6.47648 0
M  V30 8010 N 744.962 1.50701 -0.461195 0
M  V30 8011 C 746.378 1.59187 -0.114786 0
M  V30 8012 C 746.578 1.4702 1.37794 0
M  V30 8013 O 745.634 1.32361 2.15027 0
M  V30 8014 C 746.947 2.93453 -0.656167 0
M  V30 8015 C 748.495 3.06824 -0.618715 0
M  V30 8016 C 748.97 4.4365 -1.13747 0
M  V30 8017 N 750.461 4.50035 -1.09646 0
M  V30 8018 C 751.196 5.54278 -1.46846 0
M  V30 8019 N 750.692 6.65822 -1.91448 0
M  V30 8020 N 752.485 5.44767 -1.38512 0
M  V30 8021 H 744.636 1.56853 -1.43216 0
M  V30 8022 H 746.899 0.740712 -0.59165 0
M  V30 8023 H 746.605 3.07802 -1.7015 0
M  V30 8024 H 746.479 3.77082 -0.0942261 0
M  V30 8025 H 748.866 2.92129 0.417685 0
M  V30 8026 H 748.947 2.24976 -1.21734 0
M  V30 8027 H 748.591 4.59093 -2.17245 0
M  V30 8028 H 748.521 5.24074 -0.515153 0
M  V30 8029 H 751.012 3.69988 -0.769217 0
M  V30 8030 H 751.325 7.41413 -2.18007 0
M  V30 8031 H 749.67 6.66968 -1.95393 0
M  V30 8032 H 752.861 4.56511 -1.03516 0
M  V30 8033 H 753.034 6.25889 -1.6783 0
M  V30 8034 N 746.441 0.193421 1.56409 0
M  V30 8035 C 747.669 -0.451438 2.01915 0
M  V30 8036 C 748.084 -1.55306 1.07357 0
M  V30 8037 O 747.441 -1.82333 0.0781512 0
M  V30 8038 C 747.492 -1.00931 3.47124 0
M  V30 8039 O 747.213 0.0483623 4.38073 0
M  V30 8040 C 748.714 -1.73021 4.0814 0
M  V30 8041 H 745.934 -0.113495 0.661332 0
M  V30 8042 H 748.478 0.301636 2.02263 0
M  V30 8043 H 746.633 -1.71277 3.47481 0
M  V30 8044 H 747.047 -0.366644 5.23217 0
M  V30 8045 H 748.521 -2.07289 5.11601 0
M  V30 8046 H 748.998 -2.6333 3.51502 0
M  V30 8047 H 749.604 -1.07264 4.11551 0
M  V30 8048 N 747.919 -1.57396 -0.0801906 0
M  V30 8049 C 749.168 -1.8602 -0.779702 0
M  V30 8050 C 749.481 -0.784864 -1.79163 0
M  V30 8051 O 750.687 -0.958691 -2.54011 0
M  V30 8052 C 749.143 -3.29942 -1.43758 0
M  V30 8053 C 748.751 -4.45584 -0.464654 0
M  V30 8054 C 750.495 -3.67775 -2.11995 0
M  V30 8055 C 748.402 -5.80544 -1.12797 0
M  V30 8056 H 747.332 -0.69392 -0.294943 0
M  V30 8057 H 749.983 -1.83471 -0.0328527 0
M  V30 8058 H 748.365 -3.27078 -2.2324 0
M  V30 8059 H 749.539 -4.59824 0.299749 0
M  V30 8060 H 747.854 -4.16247 0.112813 0
M  V30 8061 H 750.451 -4.65896 -2.62383 0
M  V30 8062 H 750.794 -2.9715 -2.91561 0
M  V30 8063 H 751.327 -3.72593 -1.39354 0
M  V30 8064 H 748.066 -6.54439 -0.372807 0
M  V30 8065 H 747.586 -5.70119 -1.86344 0
M  V30 8066 H 749.265 -6.25602 -1.6502 0
M  V30 8067 N 749.397 0.351382 -1.53633 0
M  V30 8068 C 750.307 1.45471 -1.84052 0
M  V30 8069 C 751.323 1.57945 -0.730015 0
M  V30 8070 O 752.499 1.73571 -1.02153 0
M  V30 8071 C 749.564 2.80562 -2.03681 0
M  V30 8072 C 748.625 2.77497 -3.27558 0
M  V30 8073 C 747.858 4.06144 -3.46241 0
M  V30 8074 O 748.081 5.03028 -2.68922 0
M  V30 8075 O 747.015 4.11092 -4.39645 0
M  V30 8076 H 750.841 1.22684 -2.77817 0
M  V30 8077 H 748.426 0.542827 -1.3919 0
M  V30 8078 H 750.308 3.6058 -2.18082 0
M  V30 8079 H 748.983 3.03296 -1.13106 0
M  V30 8080 H 747.89 1.96126 -3.18568 0
M  V30 8081 H 749.223 2.59716 -4.18101 0
M  V30 8082 N 750.875 1.45233 0.611969 0
M  V30 8083 C 751.785 1.56098 1.7513 0
M  V30 8084 C 752.801 0.445646 1.68196 0
M  V30 8085 O 753.977 0.705718 1.88631 0
M  V30 8086 C 751.042 1.52052 3.11579 0
M  V30 8087 C 750.103 2.74589 3.29999 0
M  V30 8088 C 749.336 2.70726 4.59938 0
M  V30 8089 O 749.559 1.77806 5.41979 0
M  V30 8090 O 748.493 3.61864 4.80976 0
M  V30 8091 H 752.319 2.52392 1.68914 0
M  V30 8092 H 749.904 1.27695 0.775528 0
M  V30 8093 H 751.786 1.52387 3.92882 0
M  V30 8094 H 750.461 0.589085 3.18295 0
M  V30 8095 H 749.368 2.79817 2.48301 0
M  V30 8096 H 750.701 3.66843 3.28157 0
M  V30 8097 N 752.353 -0.854086 1.3245 0
M  V30 8098 C 753.578 -1.64597 1.26185 0
M  V30 8099 C 754.003 -1.87357 -0.167074 0
M  V30 8100 O 753.361 -1.42675 -1.11864 0
M  V30 8101 C 753.409 -2.98213 2.02734 0
M  V30 8102 O 752.513 -3.88784 1.37554 0
M  V30 8103 H 751.854 -0.50179 0.434859 0
M  V30 8104 H 754.384 -1.06372 1.74775 0
M  V30 8105 H 754.394 -3.4803 2.1293 0
M  V30 8106 H 753.069 -2.80969 3.06642 0
M  V30 8107 H 751.646 -3.4725 1.3591 0
M  V30 8108 N 753.831 -1.1567 -1.07043 0
M  V30 8109 C 754.794 -0.858906 -2.12498 0
M  V30 8110 C 755.794 0.142735 -1.60165 0
M  V30 8111 O 756.984 -0.0872678 -1.73981 0
M  V30 8112 C 754.116 -0.283021 -3.39723 0
M  V30 8113 H 755.309 -1.79368 -2.40348 0
M  V30 8114 H 752.862 -0.964608 -1.22984 0
M  V30 8115 H 753.597 0.659796 -3.17517 0
M  V30 8116 H 753.382 -1.00467 -3.7901 0
M  V30 8117 H 754.872 -0.0923543 -4.17498 0
M  V30 8118 N 755.309 1.25446 -0.953992 0
M  V30 8119 C 756.272 2.24156 -0.478179 0
M  V30 8120 C 757.272 1.55278 0.417776 0
M  V30 8121 O 758.462 1.72866 0.215155 0
M  V30 8122 C 755.594 3.39495 0.309202 0
M  V30 8123 H 756.787 2.67764 -1.35064 0
M  V30 8124 H 754.34 1.37822 -0.737206 0
M  V30 8125 H 755.075 3.01307 1.19936 0
M  V30 8126 H 754.86 3.90679 -0.333562 0
M  V30 8127 H 756.35 4.12796 0.631594 0
M  V30 8128 N 756.787 0.722489 1.40064 0
M  V30 8129 C 757.735 0.063329 2.32514 0
M  V30 8130 C 758.729 -0.73953 1.52405 0
M  V30 8131 O 759.935 -0.642122 1.68157 0
M  V30 8132 H 756.31 0.00167692 0.751998 0
M  V30 8133 H 758.281 0.859656 2.85749 0
M  V30 8134 C 757.03 -0.839219 3.3742 0
M  V30 8135 H 756.353 -0.230836 3.99133 0
M  V30 8136 H 757.793 -1.26827 4.04587 0
M  V30 8137 C 756.252 -1.96783 2.73456 0
M  V30 8138 O 756.782 -3.05933 2.60323 0
M  V30 8139 N 754.988 -1.75351 2.31734 0
M  V30 8140 H 754.535 -0.865787 2.42615 0
M  V30 8141 H 754.493 -2.51043 1.89275 0
M  V30 8142 N 758.265 -1.50454 0.469181 0
M  V30 8143 C 759.213 -2.30101 -0.340033 0
M  V30 8144 C 760.207 -1.37306 -0.992135 0
M  V30 8145 O 761.413 -1.54506 -0.923458 0
M  V30 8146 H 757.788 -0.740941 -0.128495 0
M  V30 8147 H 759.759 -2.96315 0.352144 0
M  V30 8148 C 758.508 -3.17804 -1.41052 0
M  V30 8149 H 757.831 -3.89115 -0.918124 0
M  V30 8150 H 759.271 -3.76533 -1.94934 0
M  V30 8151 C 757.73 -2.35272 -2.4114 0
M  V30 8152 O 758.26 -2.03448 -3.4637 0
M  V30 8153 N 756.466 -1.97889 -2.1281 0
M  V30 8154 H 756.013 -2.2397 -1.27261 0
M  V30 8155 H 755.971 -1.42971 -2.80012 0
M  V30 8156 N 759.743 -0.201713 -1.56304 0
M  V30 8157 C 760.992 0.435557 -1.96941 0
M  V30 8158 C 761.305 1.62299 -1.09172 0
M  V30 8159 O 762.511 2.32849 -1.3962 0
M  V30 8160 C 760.967 0.826298 -3.50286 0
M  V30 8161 C 760.575 -0.337216 -4.46729 0
M  V30 8162 C 762.319 1.43028 -3.99679 0
M  V30 8163 C 760.226 0.0748539 -5.91353 0
M  V30 8164 H 759.156 0.1665 -0.735387 0
M  V30 8165 H 761.807 -0.294781 -1.81117 0
M  V30 8166 H 760.189 1.61349 -3.61639 0
M  V30 8167 H 761.363 -1.11476 -4.47113 0
M  V30 8168 H 759.678 -0.853126 -4.07567 0
M  V30 8169 H 762.275 1.75115 -5.05212 0
M  V30 8170 H 762.618 2.33911 -3.44371 0
M  V30 8171 H 763.151 0.706924 -3.91468 0
M  V30 8172 H 759.89 -0.799957 -6.506 0
M  V30 8173 H 759.41 0.817122 -5.94208 0
M  V30 8174 H 761.089 0.508389 -6.45 0
M  V30 8175 N 761.222 1.57436 0.0718424 0
M  V30 8176 C 762.468 1.87525 0.772149 0
M  V30 8177 C 762.801 0.79399 1.77227 0
M  V30 8178 O 762.076 -0.195733 1.93513 0
M  V30 8179 C 762.359 3.28272 1.48018 0
M  V30 8180 C 762.212 4.47052 0.49647 0
M  V30 8181 C 763.531 3.67256 2.42509 0
M  V30 8182 H 760.65 0.682049 0.279245 0
M  V30 8183 H 763.292 1.89967 0.03534 0
M  V30 8184 H 761.442 3.26321 2.10824 0
M  V30 8185 H 763.114 4.61127 -0.126375 0
M  V30 8186 H 761.357 4.33392 -0.188205 0
M  V30 8187 H 762.028 5.42315 1.02949 0
M  V30 8188 H 764.504 3.70301 1.89781 0
M  V30 8189 H 763.38 4.66626 2.89053 0
M  V30 8190 H 763.641 2.97186 3.27312 0
M  V30 8191 N 762.7 -0.34323 1.53817 0
M  V30 8192 C 763.946 -1.08137 1.72273 0
M  V30 8193 C 764.301 -1.86311 0.480201 0
M  V30 8194 O 763.594 -1.84204 -0.527192 0
M  V30 8195 C 763.788 -2.05195 2.92626 0
M  V30 8196 C 763.617 -1.36561 4.28464 0
M  V30 8197 C 762.387 -1.11033 4.9295 0
M  V30 8198 C 764.585 -0.791663 5.0817 0
M  V30 8199 N 762.567 -0.389839 6.12661 0
M  V30 8200 C 763.938 -0.201742 6.19672 0
M  V30 8201 C 765.993 -0.692541 4.9306 0
M  V30 8202 C 764.696 0.477661 7.17712 0
M  V30 8203 C 766.722 -0.0268775 5.91394 0
M  V30 8204 C 766.084 0.552072 7.02233 0
M  V30 8205 H 762.183 -0.380078 0.683421 0
M  V30 8206 H 764.767 -0.364925 1.9125 0
M  V30 8207 H 762.938 -2.74131 2.75149 0
M  V30 8208 H 764.67 -2.7185 2.99799 0
M  V30 8209 H 761.425 -1.39752 4.52511 0
M  V30 8210 H 761.849 -0.0443076 6.76986 0
M  V30 8211 H 766.491 -1.12589 4.07534 0
M  V30 8212 H 764.209 0.922895 8.02813 0
M  V30 8213 H 767.795 0.0491921 5.81779 0
M  V30 8214 H 766.675 1.05899 7.77017 0
M  V30 8215 N 764.178 -1.45556 -0.604258 0
M  V30 8216 C 765.108 -1.57327 -1.72541 0
M  V30 8217 C 766.089 -0.424637 -1.64714 0
M  V30 8218 O 767.274 -0.648196 -1.83063 0
M  V30 8219 C 764.404 -1.54279 -3.11152 0
M  V30 8220 C 763.358 -2.67893 -3.33792 0
M  V30 8221 C 762.684 -2.499 -4.72709 0
M  V30 8222 C 763.984 -4.0988 -3.23722 0
M  V30 8223 H 765.678 -2.51175 -1.62947 0
M  V30 8224 H 763.224 -1.20884 -0.782504 0
M  V30 8225 H 765.177 -1.6111 -3.89386 0
M  V30 8226 H 763.901 -0.569627 -3.21594 0
M  V30 8227 H 762.56 -2.60495 -2.57949 0
M  V30 8228 H 762.208 -1.50715 -4.79889 0
M  V30 8229 H 761.908 -3.26091 -4.88813 0
M  V30 8230 H 763.432 -2.5859 -5.5314 0
M  V30 8231 H 764.846 -4.18503 -3.91826 0
M  V30 8232 H 763.243 -4.86487 -3.51355 0
M  V30 8233 H 764.313 -4.31553 -2.21111 0
M  V30 8234 N 765.656 0.84705 -1.32902 0
M  V30 8235 C 766.586 1.97166 -1.25091 0
M  V30 8236 C 767.567 1.69578 -0.133161 0
M  V30 8237 O 768.752 1.91519 -0.321591 0
M  V30 8238 C 765.882 3.33157 -0.981006 0
M  V30 8239 C 764.836 3.75119 -2.06082 0
M  V30 8240 C 764.162 5.08826 -1.64318 0
M  V30 8241 C 765.462 3.89774 -3.47669 0
M  V30 8242 H 767.156 2.03958 -2.19184 0
M  V30 8243 H 764.702 0.979907 -1.05517 0
M  V30 8244 H 766.655 4.11393 -0.912891 0
M  V30 8245 H 765.379 3.266 -0.00445559 0
M  V30 8246 H 764.038 2.9914 -2.11921 0
M  V30 8247 H 763.686 4.98732 -0.653876 0
M  V30 8248 H 763.386 5.37873 -2.36572 0
M  V30 8249 H 764.91 5.89546 -1.58958 0
M  V30 8250 H 766.324 4.58343 -3.44376 0
M  V30 8251 H 764.721 4.30248 -4.18338 0
M  V30 8252 H 765.791 2.92463 -3.86773 0
M  V30 8253 N 767.134 1.16236 1.06428 0
M  V30 8254 C 768.359 0.967688 1.83441 0
M  V30 8255 C 768.784 -0.479167 1.81894 0
M  V30 8256 O 768.142 -1.34224 1.21875 0
M  V30 8257 C 768.19 1.49806 3.2801 0
M  V30 8258 O 767.294 0.703481 4.06356 0
M  V30 8259 H 766.635 0.344468 0.56766 0
M  V30 8260 H 769.165 1.54442 1.34197 0
M  V30 8261 H 769.175 1.51495 3.78831 0
M  V30 8262 H 767.85 2.55133 3.2845 0
M  V30 8263 H 766.427 0.756986 3.65136 0
M  V30 8264 N 768.612 -1.24939 0.960631 0
M  V30 8265 C 769.56 -2.27659 0.47686 0
M  V30 8266 C 770.554 -1.63148 -0.455961 0
M  V30 8267 O 771.76 -1.76911 -0.332029 0
M  V30 8268 H 768.135 -0.739651 0.135723 0
M  V30 8269 H 770.106 -2.65844 1.35534 0
M  V30 8270 C 768.855 -3.46976 -0.224191 0
M  V30 8271 H 768.178 -3.96854 0.484471 0
M  V30 8272 H 769.618 -4.20717 -0.526615 0
M  V30 8273 C 768.077 -3.04159 -1.44876 0
M  V30 8274 O 768.607 -3.10697 -2.54618 0
M  V30 8275 N 766.813 -2.59284 -1.31226 0
M  V30 8276 H 766.36 -2.54164 -0.419361 0
M  V30 8277 H 766.318 -2.31 -2.13275 0
M  V30 8278 N 770.09 -0.729906 -1.39679 0
M  V30 8279 C 771.02 -0.101618 -2.33279 0
M  V30 8280 C 772.001 0.729854 -1.53646 0
M  V30 8281 O 773.186 0.67587 -1.82059 0
M  V30 8282 C 770.316 0.81024 -3.37716 0
M  V30 8283 C 769.27 0.0833126 -4.27919 0
M  V30 8284 C 768.596 1.11185 -5.23012 0
M  V30 8285 C 769.896 -1.07107 -5.112 0
M  V30 8286 H 771.59 -0.883452 -2.86069 0
M  V30 8287 H 769.136 -0.426283 -1.37546 0
M  V30 8288 H 771.089 1.25927 -4.02145 0
M  V30 8289 H 769.813 1.62413 -2.83354 0
M  V30 8290 H 768.472 -0.346043 -3.64963 0
M  V30 8291 H 768.12 1.91917 -4.64948 0
M  V30 8292 H 767.82 0.63026 -5.8421 0
M  V30 8293 H 769.344 1.56068 -5.90318 0
M  V30 8294 H 770.758 -0.700726 -5.69002 0
M  V30 8295 H 769.155 -1.48196 -5.81514 0
M  V30 8296 H 770.225 -1.89513 -4.46332 0
M  V30 8297 N 771.568 1.50203 -0.477153 0
M  V30 8298 C 772.816 2.01959 0.0755889 0
M  V30 8299 C 773.137 1.3608 1.39668 0
M  V30 8300 O 772.407 0.508136 1.89195 0
M  V30 8301 H 770.987 0.74636 0.0309248 0
M  V30 8302 H 773.649 1.84473 -0.628959 0
M  V30 8303 H 772.745 3.11305 0.222683 0
M  V30 8304 N 773.046 0.209999 1.56195 0
M  V30 8305 C 774.294 -0.423974 1.97603 0
M  V30 8306 C 774.615 -1.61112 1.09854 0
M  V30 8307 O 773.885 -1.95134 0.173032 0
M  V30 8308 H 772.465 -0.159629 0.729745 0
M  V30 8309 H 775.127 0.300205 1.92574 0
M  V30 8310 H 774.223 -0.75809 3.02753 0
M  V30 8311 N 774.524 -1.57472 -0.0634922 0
M  V30 8312 C 775.456 -2.00999 -1.10145 0
M  V30 8313 C 776.469 -0.917219 -1.34503 0
M  V30 8314 O 777.658 -1.19501 -1.32596 0
M  V30 8315 C 774.758 -2.34089 -2.45063 0
M  V30 8316 C 773.931 -3.65317 -2.40546 0
M  V30 8317 C 772.99 -3.85982 -3.57637 0
M  V30 8318 O 772.016 -4.5747 -3.38689 0
M  V30 8319 N 773.218 -3.28971 -4.78287 0
M  V30 8320 H 775.983 -2.90656 -0.730714 0
M  V30 8321 H 773.544 -1.59926 -0.252017 0
M  V30 8322 H 775.536 -2.4508 -3.22053 0
M  V30 8323 H 774.106 -1.50279 -2.74107 0
M  V30 8324 H 773.326 -3.65003 -1.48885 0
M  V30 8325 H 774.614 -4.51468 -2.34636 0
M  V30 8326 H 774.012 -2.70962 -4.96584 0
M  V30 8327 H 772.569 -3.45398 -5.5276 0
M  V30 8328 N 776.003 0.335068 -1.53997 0
M  V30 8329 C 777.25 1.07435 -1.71651 0
M  V30 8330 C 777.578 1.88378 -0.48413 0
M  V30 8331 O 776.833 1.8827 0.534139 0
M  V30 8332 C 777.132 2.0364 -2.9371 0
M  V30 8333 C 776.798 1.38942 -4.28959 0
M  V30 8334 C 775.46 1.21027 -4.65732 0
M  V30 8335 C 777.812 0.924083 -5.12943 0
M  V30 8336 C 775.14 0.552097 -5.84097 0
M  V30 8337 C 777.492 0.27978 -6.31981 0
M  V30 8338 C 776.156 0.0883843 -6.67441 0
M  V30 8339 H 775.426 0.393133 -0.628114 0
M  V30 8340 H 778.073 0.352712 -1.88224 0
M  V30 8341 H 776.378 2.82215 -2.71775 0
M  V30 8342 H 778.075 2.6085 -3.04562 0
M  V30 8343 H 774.665 1.53885 -4.00022 0
M  V30 8344 H 778.849 1.05032 -4.85059 0
M  V30 8345 H 774.105 0.392502 -6.10139 0
M  V30 8346 H 778.279 -0.0888479 -6.96343 0
M  V30 8347 H 775.906 -0.423657 -7.59019 0
M  V30 8348 N 777.481 1.45874 0.596531 0
M  V30 8349 C 778.729 1.5017 1.35253 0
M  V30 8350 C 779.05 0.149246 1.94428 0
M  V30 8351 O 778.32 -0.82268 1.77789 0
M  V30 8352 H 776.9 0.553052 0.502138 0
M  V30 8353 H 779.562 1.81908 0.699671 0
M  V30 8354 H 778.658 2.24671 2.16632 0
M  V30 8355 N 778.959 -0.83999 1.33349 0
M  V30 8356 C 780.206 -1.59517 1.24742 0
M  V30 8357 C 780.534 -1.93598 -0.187077 0
M  V30 8358 O 779.789 -1.58782 -1.14398 0
M  V30 8359 C 780.088 -2.91571 2.06691 0
M  V30 8360 C 779.754 -2.76856 3.55895 0
M  V30 8361 C 778.416 -2.72551 3.96572 0
M  V30 8362 C 780.768 -2.61741 4.50712 0
M  V30 8363 C 778.096 -2.51028 5.30285 0
M  V30 8364 C 780.448 -2.41752 5.84584 0
M  V30 8365 C 779.112 -2.35848 6.24445 0
M  V30 8366 H 778.382 -0.583714 0.456463 0
M  V30 8367 H 781.029 -0.973261 1.64924 0
M  V30 8368 H 779.334 -3.57961 1.59284 0
M  V30 8369 H 781.031 -3.49053 1.9739 0
M  V30 8370 H 777.621 -2.81039 3.23597 0
M  V30 8371 H 781.805 -2.64102 4.20195 0
M  V30 8372 H 777.061 -2.44903 5.60208 0
M  V30 8373 H 781.235 -2.2904 6.57658 0
M  V30 8374 H 778.862 -2.18931 7.27993 0
M  V30 8375 N 780.437 -1.16799 -1.0581 0
M  V30 8376 C 781.683 -0.963929 -1.79109 0
M  V30 8377 C 782.038 0.502569 -1.8572 0
M  V30 8378 O 781.331 1.36813 -1.34137 0
M  V30 8379 C 781.525 -1.53111 -3.22942 0
M  V30 8380 C 781.354 -3.05123 -3.30348 0
M  V30 8381 C 780.124 -3.73804 -3.39998 0
M  V30 8382 C 782.322 -4.02777 -3.19805 0
M  V30 8383 N 780.304 -5.1348 -3.36469 0
M  V30 8384 C 781.675 -5.28866 -3.23576 0
M  V30 8385 C 783.73 -3.94533 -3.03724 0
M  V30 8386 C 782.433 -6.47669 -3.12918 0
M  V30 8387 C 784.459 -5.12913 -2.94405 0
M  V30 8388 C 783.821 -6.37884 -2.98803 0
M  V30 8389 H 779.92 -0.406555 -0.66801 0
M  V30 8390 H 782.504 -1.48277 -1.26183 0
M  V30 8391 H 780.675 -1.03869 -3.74254 0
M  V30 8392 H 782.407 -1.2643 -3.84444 0
M  V30 8393 H 779.162 -3.24457 -3.44999 0
M  V30 8394 H 779.586 -5.86477 -3.38191 0
M  V30 8395 H 784.228 -2.98763 -2.99166 0
M  V30 8396 H 781.946 -7.43656 -3.16231 0
M  V30 8397 H 785.532 -5.08309 -2.83042 0
M  V30 8398 H 784.412 -7.27946 -2.91657 0
M  V30 8399 N 781.915 1.24427 -0.967243 0
M  V30 8400 C 782.848 2.23885 -0.441683 0
M  V30 8401 C 783.826 1.55231 0.483963 0
M  V30 8402 O 785.01 1.83865 0.415445 0
M  V30 8403 C 782.137 3.36755 0.362458 0
M  V30 8404 C 781.183 4.23495 -0.505407 0
M  V30 8405 S 782.016 4.98916 -1.94534 0
M  V30 8406 C 783.172 6.15245 -1.14997 0
M  V30 8407 H 783.405 2.68118 -1.28453 0
M  V30 8408 H 780.938 1.337 -0.772243 0
M  V30 8409 H 782.896 4.02218 0.820445 0
M  V30 8410 H 781.557 2.91081 1.18027 0
M  V30 8411 H 780.75 5.03876 0.111979 0
M  V30 8412 H 780.352 3.63032 -0.899104 0
M  V30 8413 H 782.644 6.7629 -0.404769 0
M  V30 8414 H 783.587 6.81343 -1.92814 0
M  V30 8415 H 783.995 5.60455 -0.674543 0
M  V30 8416 N 783.393 0.737304 1.3929 0
M  V30 8417 C 784.641 0.285691 2.00071 0
M  V30 8418 C 784.962 -1.13169 1.58801 0
M  V30 8419 O 784.232 -1.77104 0.837308 0
M  V30 8420 H 782.812 0.102638 0.739915 0
M  V30 8421 H 785.474 0.947775 1.70303 0
M  V30 8422 H 784.57 0.335906 3.10287 0
M  V30 8423 N 784.871 -1.49948 0.485112 0
M  V30 8424 C 786.119 -2.01996 -0.0648775 0
M  V30 8425 C 786.44 -1.36819 -1.38945 0
M  V30 8426 O 785.71 -0.518163 -1.88923 0
M  V30 8427 H 784.29 -0.746513 -0.0269662 0
M  V30 8428 H 786.952 -1.84136 0.638733 0
M  V30 8429 H 786.048 -3.11418 -0.20617 0
M  V30 8430 N 786.349 -0.21828 -1.56081 0
M  V30 8431 C 787.574 0.422302 -2.03055 0
M  V30 8432 C 787.999 1.5279 -1.09713 0
M  V30 8433 O 787.357 1.81102 -0.0847187 0
M  V30 8434 C 787.405 0.934177 -3.48289 0
M  V30 8435 O 786.509 2.04574 -3.58083 0
M  V30 8436 H 785.85 0.0959764 -0.657027 0
M  V30 8437 H 788.38 -0.335958 -2.01823 0
M  V30 8438 H 788.39 1.24484 -3.88546 0
M  V30 8439 H 787.065 0.124963 -4.15712 0
M  V30 8440 H 785.642 1.74196 -3.29712 0
M  V30 8441 N 787.827 1.57504 0.0551401 0
M  V30 8442 C 789.073 1.88334 0.752216 0
M  V30 8443 C 789.406 0.812742 1.76375 0
M  V30 8444 O 788.681 -0.175198 1.93709 0
M  V30 8445 C 788.964 3.29824 1.44528 0
M  V30 8446 C 788.817 4.47553 0.449026 0
M  V30 8447 C 790.136 3.69808 2.38601 0
M  V30 8448 H 787.255 0.684973 0.271995 0
M  V30 8449 H 789.897 1.89994 0.0151895 0
M  V30 8450 H 788.047 3.28539 2.07351 0
M  V30 8451 H 789.719 4.60967 -0.175277 0
M  V30 8452 H 787.962 4.33168 -0.234162 0
M  V30 8453 H 788.633 5.43376 0.971917 0
M  V30 8454 H 791.109 3.72293 1.85842 0
M  V30 8455 H 789.985 4.69665 2.84088 0
M  V30 8456 H 790.246 3.00641 3.24141 0
M  V30 8457 N 789.305 -0.326896 1.54172 0
M  V30 8458 C 790.235 -1.40741 1.86317 0
M  V30 8459 C 791.216 -1.54125 0.719684 0
M  V30 8460 O 792.401 -1.6806 0.973117 0
M  V30 8461 C 789.531 -2.77557 2.08757 0
M  V30 8462 C 788.485 -2.78965 3.24596 0
M  V30 8463 C 787.811 -4.18824 3.32401 0
M  V30 8464 C 789.111 -2.4301 4.62324 0
M  V30 8465 H 790.805 -1.14088 2.76811 0
M  V30 8466 H 788.351 -0.547389 1.3319 0
M  V30 8467 H 790.304 -3.53209 2.29829 0
M  V30 8468 H 789.028 -3.0568 1.15009 0
M  V30 8469 H 787.687 -2.05767 3.03406 0
M  V30 8470 H 787.335 -4.44083 2.36218 0
M  V30 8471 H 787.035 -4.20673 4.10253 0
M  V30 8472 H 788.559 -4.96294 3.55703 0
M  V30 8473 H 789.973 -3.08375 4.83299 0
M  V30 8474 H 788.37 -2.56116 5.42701 0
M  V30 8475 H 789.44 -1.38165 4.64799 0
M  V30 8476 N 790.784 -1.46188 -0.588786 0
M  V30 8477 C 792.024 -1.52738 -1.35833 0
M  V30 8478 C 792.388 -0.172403 -1.91224 0
M  V30 8479 O 793.589 -0.112633 -2.68564 0
M  V30 8480 C 791.86 -2.59085 -2.4619 0
M  V30 8481 S 793.419 -2.84997 -3.3365 0
M  V30 8482 H 790.237 -0.539713 -0.462851 0
M  V30 8483 H 792.839 -1.83386 -0.677489 0
M  V30 8484 H 791.543 -3.56177 -2.03878 0
M  V30 8485 H 791.074 -2.3015 -3.19053 0
M  V30 8486 H 793.089 -2.19804 -4.4486 0
M  V30 8487 N 792.262 0.832906 -1.33792 0
M  V30 8488 C 793.192 1.95828 -1.27176 0
M  V30 8489 C 794.173 1.69427 -0.15114 0
M  V30 8490 O 795.358 1.91167 -0.341886 0
M  V30 8491 C 792.488 3.32098 -1.01629 0
M  V30 8492 C 791.442 3.72912 -2.10049 0
M  V30 8493 C 790.768 5.07054 -1.69706 0
M  V30 8494 C 792.068 3.86064 -3.51783 0
M  V30 8495 H 793.762 2.01622 -2.21334 0
M  V30 8496 H 791.308 0.96866 -1.0655 0
M  V30 8497 H 793.261 4.10402 -0.956474 0
M  V30 8498 H 791.985 3.26577 -0.0390956 0
M  V30 8499 H 790.644 2.96876 -2.15082 0
M  V30 8500 H 790.292 4.9801 -0.706737 0
M  V30 8501 H 789.992 5.35333 -2.42264 0
M  V30 8502 H 791.516 5.87827 -1.65202 0
M  V30 8503 H 792.93 4.54665 -3.49218 0
M  V30 8504 H 791.327 4.25787 -4.22878 0
M  V30 8505 H 792.397 2.88344 -3.89854 0
M  V30 8506 N 793.74 1.17359 1.05189 0
M  V30 8507 C 794.989 0.956412 1.77583 0
M  V30 8508 C 795.302 -0.516018 1.88671 0
M  V30 8509 O 796.508 -0.851401 2.57805 0
M  V30 8510 C 794.964 1.66203 3.19225 0
M  V30 8511 C 794.572 3.17299 3.16267 0
M  V30 8512 C 796.316 1.52725 3.96075 0
M  V30 8513 C 794.223 3.8055 4.52698 0
M  V30 8514 H 793.153 0.354204 0.665624 0
M  V30 8515 H 795.804 1.40612 1.17901 0
M  V30 8516 H 794.186 1.14006 3.79234 0
M  V30 8517 H 795.36 3.76431 2.65776 0
M  V30 8518 H 793.675 3.3079 2.52917 0
M  V30 8519 H 796.272 1.97351 4.96947 0
M  V30 8520 H 796.615 0.477803 4.13549 0
M  V30 8521 H 797.148 2.02139 3.42614 0
M  V30 8522 H 793.887 4.85492 4.4043 0
M  V30 8523 H 793.407 3.26206 5.03339 0
M  V30 8524 H 795.086 3.82757 5.21638 0
M  V30 8525 N 795.218 -1.23913 0.973828 0
M  V30 8526 C 796.128 -2.28838 0.516735 0
M  V30 8527 C 797.144 -1.68723 -0.425282 0
M  V30 8528 O 798.32 -1.99201 -0.296819 0
M  V30 8529 C 795.385 -3.46233 -0.179914 0
M  V30 8530 C 794.446 -4.21729 0.80269 0
M  V30 8531 C 793.679 -5.33518 0.139191 0
M  V30 8532 O 793.902 -5.60252 -1.07118 0
M  V30 8533 O 792.836 -5.96088 0.834447 0
M  V30 8534 H 796.662 -2.70067 1.38916 0
M  V30 8535 H 794.247 -1.2972 0.74115 0
M  V30 8536 H 796.129 -4.17514 -0.570991 0
M  V30 8537 H 794.804 -3.06969 -1.02721 0
M  V30 8538 H 793.711 -3.52799 1.24434 0
M  V30 8539 H 795.044 -4.64825 1.61859 0
M  V30 8540 N 796.696 -0.74468 -1.38897 0
M  V30 8541 C 797.943 -0.296884 -2.00312 0
M  V30 8542 C 798.271 1.11878 -1.59102 0
M  V30 8543 O 797.526 1.7789 -0.815702 0
M  V30 8544 C 797.825 -0.357302 -3.55609 0
M  V30 8545 C 797.491 -1.72736 -4.16501 0
M  V30 8546 C 796.153 -2.10232 -4.32846 0
M  V30 8547 C 798.505 -2.62647 -4.50184 0
M  V30 8548 C 795.833 -3.3713 -4.80167 0
M  V30 8549 C 798.185 -3.88926 -4.98918 0
M  V30 8550 C 796.849 -4.26503 -5.1347 0
M  V30 8551 H 796.119 -0.108638 -0.732993 0
M  V30 8552 H 798.766 -0.953419 -1.66079 0
M  V30 8553 H 797.071 0.382805 -3.89925 0
M  V30 8554 H 798.768 0.0074596 -4.00999 0
M  V30 8555 H 795.358 -1.42585 -4.04187 0
M  V30 8556 H 799.542 -2.34945 -4.37166 0
M  V30 8557 H 794.798 -3.66174 -4.89619 0
M  V30 8558 H 798.972 -4.58745 -5.23952 0
M  V30 8559 H 796.599 -5.24896 -5.49898 0
M  V30 8560 N 798.174 1.49689 -0.493057 0
M  V30 8561 C 799.422 2.02027 0.0541642 0
M  V30 8562 C 799.743 1.37554 1.38217 0
M  V30 8563 O 799.013 0.528174 1.88646 0
M  V30 8564 H 797.593 0.746646 0.0230069 0
M  V30 8565 H 800.255 1.83795 -0.648489 0
M  V30 8566 H 799.351 3.11523 0.189652 0
M  V30 8567 N 799.652 0.226554 1.55963 0
M  V30 8568 C 800.562 -0.692725 2.24139 0
M  V30 8569 C 801.578 -1.20971 1.25068 0
M  V30 8570 O 802.754 -1.25027 1.57893 0
M  V30 8571 C 799.819 -1.88183 2.91184 0
M  V30 8572 C 798.88 -1.40633 4.05612 0
M  V30 8573 C 798.113 -2.53875 4.6945 0
M  V30 8574 O 798.336 -3.72129 4.32292 0
M  V30 8575 O 797.27 -2.24792 5.58348 0
M  V30 8576 H 801.096 -0.141921 3.03368 0
M  V30 8577 H 798.681 -0.0041049 1.49399 0
M  V30 8578 H 800.563 -2.57617 3.33484 0
M  V30 8579 H 799.238 -2.42064 2.14911 0
M  V30 8580 H 798.145 -0.67986 3.67871 0
M  V30 8581 H 799.478 -0.913838 4.83642 0
M  V30 8582 N 801.13 -1.57531 -0.0467866 0
M  V30 8583 C 802.379 -1.87632 -0.740069 0
M  V30 8584 C 802.692 -0.822691 -1.77457 0
M  V30 8585 O 803.898 -1.01235 -2.5192 0
M  V30 8586 C 802.354 -3.32917 -1.36727 0
M  V30 8587 C 801.962 -4.46469 -0.370035 0
M  V30 8588 C 803.706 -3.72189 -2.04146 0
M  V30 8589 C 801.613 -5.82806 -1.00457 0
M  V30 8590 H 800.543 -0.70002 -0.280158 0
M  V30 8591 H 803.194 -1.83499 0.00607151 0
M  V30 8592 H 801.576 -3.31739 -2.16252 0
M  V30 8593 H 802.75 -4.59085 0.397217 0
M  V30 8594 H 801.065 -4.15914 0.201079 0
M  V30 8595 H 803.662 -4.71357 -2.52441 0
M  V30 8596 H 804.005 -3.03268 -2.85192 0
M  V30 8597 H 804.538 -3.75465 -1.3142 0
M  V30 8598 H 801.277 -6.55083 -0.233907 0
M  V30 8599 H 800.797 -5.73944 -1.74209 0
M  V30 8600 H 802.476 -6.28961 -1.51713 0
M  V30 8601 N 802.608 0.318715 -1.54344 0
M  V30 8602 C 803.857 1.05363 -1.71993 0
M  V30 8603 C 804.17 1.89018 -0.503155 0
M  V30 8604 O 805.376 2.65639 -0.561085 0
M  V30 8605 C 803.832 1.92281 -3.0423 0
M  V30 8606 C 803.44 1.13715 -4.33328 0
M  V30 8607 C 805.184 2.65479 -3.31242 0
M  V30 8608 C 803.091 1.99806 -5.56625 0
M  V30 8609 H 802.021 0.397081 -0.64097 0
M  V30 8610 H 804.672 0.311598 -1.80835 0
M  V30 8611 H 803.054 2.70402 -2.89307 0
M  V30 8612 H 804.228 0.403305 -4.59032 0
M  V30 8613 H 802.543 0.521769 -4.13118 0
M  V30 8614 H 805.14 3.30209 -4.20555 0
M  V30 8615 H 805.483 3.33374 -2.49334 0
M  V30 8616 H 806.016 1.94417 -3.47054 0
M  V30 8617 H 802.755 1.36411 -6.41149 0
M  V30 8618 H 802.275 2.70911 -5.35133 0
M  V30 8619 H 803.954 2.58277 -5.93213 0
M  V30 8620 N 804.086 1.46499 0.581025 0
M  V30 8621 C 805.335 1.51162 1.3354 0
M  V30 8622 C 805.648 0.168433 1.94873 0
M  V30 8623 O 806.854 0.092883 2.71341 0
M  V30 8624 C 805.31 2.66362 2.42032 0
M  V30 8625 C 804.918 4.07109 1.86994 0
M  V30 8626 C 806.662 2.80297 3.188 0
M  V30 8627 C 804.569 5.13645 2.93125 0
M  V30 8628 H 803.499 0.562576 0.502021 0
M  V30 8629 H 806.15 1.72713 0.619863 0
M  V30 8630 H 804.532 2.38143 3.16392 0
M  V30 8631 H 805.706 4.45125 1.19166 0
M  V30 8632 H 804.021 3.97854 1.22887 0
M  V30 8633 H 806.618 3.5706 3.9801 0
M  V30 8634 H 806.961 1.87875 3.71495 0
M  V30 8635 H 807.494 3.0817 2.51547 0
M  V30 8636 H 804.233 6.07866 2.45315 0
M  V30 8637 H 803.753 4.80172 3.59437 0
M  V30 8638 H 805.432 5.39562 3.57046 0
M  V30 8639 N 805.565 -0.825799 1.34232 0
M  V30 8640 C 806.842 -1.56741 1.17011 0
M  V30 8641 C 807.222 -2.09512 -0.258425 0
M  V30 8642 O 806.57 -1.90664 -1.25935 0
M  V30 8643 C 806.78 -2.69104 2.22225 0
M  V30 8644 C 808.128 -3.37947 2.57055 0
M  V30 8645 O 809.152 -2.79358 2.20992 0
M  V30 8646 O 808.011 -4.43743 3.1899 0
M  V30 8647 H 805.105 -0.69163 0.453405 0
M  V30 8648 H 807.651 -0.867422 1.45856 0
M  V30 8649 H 806.423 -2.27844 3.18124 0
M  V30 8650 H 806.046 -3.46756 1.94541 0
M  V30 8651 N 807.043 -1.17915 -1.04565 0
M  V30 8652 C 808.29 -0.971424 -1.77678 0
M  V30 8653 C 808.618 0.499401 -1.87979 0
M  V30 8654 O 807.873 1.38695 -1.38066 0
M  V30 8655 C 808.172 -1.56528 -3.213 0
M  V30 8656 C 807.838 -3.06138 -3.31044 0
M  V30 8657 C 806.5 -3.46974 -3.33411 0
M  V30 8658 C 808.852 -4.02151 -3.31548 0
M  V30 8659 C 806.18 -4.82406 -3.33918 0
M  V30 8660 C 808.532 -5.37492 -3.33595 0
M  V30 8661 C 807.196 -5.77782 -3.34251 0
M  V30 8662 H 806.466 -0.355469 -0.650171 0
M  V30 8663 H 809.113 -1.46902 -1.22849 0
M  V30 8664 H 807.418 -0.98955 -3.79098 0
M  V30 8665 H 809.115 -1.38003 -3.76505 0
M  V30 8666 H 805.705 -2.73589 -3.29919 0
M  V30 8667 H 809.889 -3.71656 -3.28916 0
M  V30 8668 H 805.145 -5.12927 -3.3274 0
M  V30 8669 H 809.319 -6.1166 -3.32934 0
M  V30 8670 H 806.946 -6.82702 -3.34397 0
M  V30 8671 N 808.521 1.23394 -0.980386 0
M  V30 8672 C 809.767 1.92094 -0.650223 0
M  V30 8673 C 810.1 1.76309 0.814173 0
M  V30 8674 O 809.375 1.12406 1.5873 0
M  V30 8675 C 809.658 3.44713 -1.04139 0
M  V30 8676 C 809.511 3.69606 -2.56342 0
M  V30 8677 C 810.83 4.36191 -0.585296 0
M  V30 8678 H 807.949 0.697618 -0.237695 0
M  V30 8679 H 810.591 1.45517 -1.22167 0
M  V30 8680 H 808.741 3.84513 -0.55515 0
M  V30 8681 H 810.413 3.39288 -3.1254 0
M  V30 8682 H 808.656 3.14318 -2.98976 0
M  V30 8683 H 809.327 4.76441 -2.78762 0
M  V30 8684 H 811.803 4.03836 -1.00276 0
M  V30 8685 H 810.679 5.41679 -0.887428 0
M  V30 8686 H 810.94 4.39097 0.51438 0
M  V30 8687 N 809.999 0.752036 1.385 0
M  V30 8688 C 811.245 0.316909 2.00916 0
M  V30 8689 C 811.6 -1.08884 1.58625 0
M  V30 8690 O 810.893 -1.73494 0.813047 0
M  V30 8691 C 811.087 0.376155 3.55415 0
M  V30 8692 C 810.916 1.78612 4.12708 0
M  V30 8693 C 809.686 2.4023 4.44542 0
M  V30 8694 C 811.884 2.74253 4.35075 0
M  V30 8695 N 809.866 3.73204 4.87434 0
M  V30 8696 C 811.237 3.9199 4.80358 0
M  V30 8697 C 813.292 2.71795 4.17171 0
M  V30 8698 C 811.995 5.07627 5.09615 0
M  V30 8699 C 814.021 3.86589 4.47552 0
M  V30 8700 C 813.383 5.03064 4.93058 0
M  V30 8701 H 809.482 0.16259 0.764911 0
M  V30 8702 H 812.066 0.981657 1.68142 0
M  V30 8703 H 810.237 -0.258317 3.8754 0
M  V30 8704 H 811.969 -0.0791421 4.04623 0
M  V30 8705 H 808.724 1.92009 4.32931 0
M  V30 8706 H 809.148 4.41519 5.13215 0
M  V30 8707 H 813.79 1.82929 3.81178 0
M  V30 8708 H 811.508 5.97109 5.44506 0
M  V30 8709 H 815.094 3.86005 4.35306 0
M  V30 8710 H 813.974 5.90417 5.16118 0
M  V30 8711 N 811.477 -1.49425 0.500989 0
M  V30 8712 C 812.726 -2.01649 -0.04538 0
M  V30 8713 C 813.039 -1.38572 -1.38047 0
M  V30 8714 O 814.245 -1.82124 -2.01353 0
M  V30 8715 C 812.701 -3.5966 -0.131337 0
M  V30 8716 C 812.309 -4.3171 1.19711 0
M  V30 8717 C 814.053 -4.19828 -0.628071 0
M  V30 8718 C 811.96 -5.81579 1.07332 0
M  V30 8719 H 810.89 -0.753715 -0.0207329 0
M  V30 8720 H 813.541 -1.71962 0.640407 0
M  V30 8721 H 811.923 -3.86063 -0.881574 0
M  V30 8722 H 813.097 -4.17008 1.96064 0
M  V30 8723 H 811.412 -3.83286 1.62729 0
M  V30 8724 H 814.009 -5.2958 -0.738198 0
M  V30 8725 H 814.352 -3.83194 -1.6269 0
M  V30 8726 H 814.885 -3.97746 0.0656314 0
M  V30 8727 H 811.624 -6.22738 2.04642 0
M  V30 8728 H 811.144 -5.98774 0.350679 0
M  V30 8729 H 812.823 -6.42614 0.752047 0
M  V30 8730 N 812.955 -0.234822 -1.55841 0
M  V30 8731 C 814.183 0.397745 -2.03041 0
M  V30 8732 C 814.598 1.52405 -1.11437 0
M  V30 8733 O 813.955 1.82061 -0.126466 0
M  V30 8734 C 814.006 0.916919 -3.49678 0
M  V30 8735 O 813.727 -0.164493 -4.37791 0
M  V30 8736 C 815.228 1.62139 -4.12584 0
M  V30 8737 H 812.448 0.0959214 -0.664108 0
M  V30 8738 H 814.992 -0.355156 -2.01392 0
M  V30 8739 H 813.147 1.62004 -3.519 0
M  V30 8740 H 813.561 0.227794 -5.24005 0
M  V30 8741 H 815.035 1.93651 -5.16917 0
M  V30 8742 H 815.512 2.53918 -3.58361 0
M  V30 8743 H 816.118 0.963145 -4.14251 0
M  V30 8744 N 814.433 1.57553 0.0384317 0
M  V30 8745 C 815.682 1.88022 0.730108 0
M  V30 8746 C 815.995 0.83209 1.77019 0
M  V30 8747 O 817.201 1.0257 2.51379 0
M  V30 8748 C 815.657 3.33637 1.3496 0
M  V30 8749 C 815.265 4.46659 0.346352 0
M  V30 8750 C 817.009 3.73266 2.02169 0
M  V30 8751 C 814.916 5.8333 0.973652 0
M  V30 8752 H 813.846 0.701496 0.276442 0
M  V30 8753 H 816.497 1.83493 -0.0158028 0
M  V30 8754 H 814.879 3.32882 2.1449 0
M  V30 8755 H 816.053 4.58868 -0.421558 0
M  V30 8756 H 814.368 4.15802 -0.223133 0
M  V30 8757 H 816.965 4.72689 2.49938 0
M  V30 8758 H 817.308 3.04776 2.8358 0
M  V30 8759 H 817.841 3.76156 1.29427 0
M  V30 8760 H 814.58 6.55197 0.199163 0
M  V30 8761 H 814.1 5.7486 1.71162 0
M  V30 8762 H 815.779 6.29757 1.48376 0
M  V30 8763 N 815.911 -0.310526 1.54511 0
M  V30 8764 C 817.16 -1.0445 1.72549 0
M  V30 8765 C 817.473 -1.88748 0.513172 0
M  V30 8766 O 818.679 -2.65338 0.575165 0
M  V30 8767 C 817.135 -1.90665 3.05246 0
M  V30 8768 C 816.743 -1.11415 4.33925 0
M  V30 8769 C 818.487 -2.63719 3.32645 0
M  V30 8770 C 816.394 -1.96852 5.57677 0
M  V30 8771 H 815.324 -0.393676 0.643067 0
M  V30 8772 H 817.975 -0.302003 1.80998 0
M  V30 8773 H 816.357 -2.68864 2.90737 0
M  V30 8774 H 817.531 -0.378956 4.59239 0
M  V30 8775 H 815.846 -0.499853 4.13389 0
M  V30 8776 H 818.443 -3.27974 4.223 0
M  V30 8777 H 818.786 -3.32047 2.51098 0
M  V30 8778 H 819.319 -1.92574 3.48081 0
M  V30 8779 H 816.058 -1.33009 6.41864 0
M  V30 8780 H 815.578 -2.68069 5.36562 0
M  V30 8781 H 817.257 -2.55127 5.94575 0
M  V30 8782 N 817.389 -1.46805 -0.573248 0
M  V30 8783 C 818.336 -1.58084 -1.68161 0
M  V30 8784 C 819.306 -0.424636 -1.6058 0
M  V30 8785 O 820.491 -0.642623 -1.79652 0
M  V30 8786 C 817.631 -1.58601 -3.06496 0
M  V30 8787 C 816.744 -2.85023 -3.24632 0
M  V30 8788 C 815.879 -2.76981 -4.53271 0
M  V30 8789 C 814.918 -3.983 -4.64783 0
M  V30 8790 N 814.055 -3.88589 -5.84759 0
M  V30 8791 H 818.895 -2.52755 -1.57858 0
M  V30 8792 H 816.432 -1.25385 -0.769218 0
M  V30 8793 H 818.39 -1.56885 -3.86579 0
M  V30 8794 H 817.02 -0.674553 -3.15673 0
M  V30 8795 H 816.072 -2.96678 -2.38089 0
M  V30 8796 H 817.384 -3.7491 -3.29004 0
M  V30 8797 H 816.538 -2.73424 -5.41594 0
M  V30 8798 H 815.277 -1.84751 -4.51352 0
M  V30 8799 H 814.282 -4.02179 -3.74876 0
M  V30 8800 H 815.507 -4.91639 -4.68474 0
M  V30 8801 H 813.453 -2.99151 -5.83819 0
M  V30 8802 H 813.37 -4.7214 -5.90441 0
M  V30 8803 H 814.638 -3.89022 -6.75486 0
M  V30 8804 N 818.867 0.818669 -1.34668 0
M  V30 8805 C 819.797 1.94468 -1.29245 0
M  V30 8806 C 820.778 1.69257 -0.169101 0
M  V30 8807 O 821.963 1.90794 -0.362143 0
M  V30 8808 C 819.093 3.31001 -1.05145 0
M  V30 8809 C 818.047 3.70663 -2.13992 0
M  V30 8810 C 817.373 5.05226 -1.75074 0
M  V30 8811 C 818.673 3.82312 -3.55858 0
M  V30 8812 H 820.367 1.99263 -2.2346 0
M  V30 8813 H 817.913 0.957304 -1.07572 0
M  V30 8814 H 819.866 4.09364 -0.999949 0
M  V30 8815 H 818.59 3.26517 -0.0737312 0
M  V30 8816 H 817.249 2.94578 -2.18219 0
M  V30 8817 H 816.897 4.97233 -0.759518 0
M  V30 8818 H 816.597 5.32734 -2.47928 0
M  V30 8819 H 818.121 5.86042 -1.71427 0
M  V30 8820 H 819.535 4.50935 -3.5402 0
M  V30 8821 H 817.932 4.21278 -4.2737 0
M  V30 8822 H 819.002 2.84193 -3.9289 0
M  V30 8823 N 820.346 1.18468 1.03938 0
M  V30 8824 C 821.592 0.982286 1.77423 0
M  V30 8825 C 821.925 -0.48679 1.88 0
M  V30 8826 O 821.2 -1.36146 1.38905 0
M  V30 8827 C 821.483 1.63929 3.20623 0
M  V30 8828 C 821.336 3.18132 3.17982 0
M  V30 8829 C 822.655 1.3536 4.18767 0
M  V30 8830 H 819.774 0.358264 0.644062 0
M  V30 8831 H 822.416 1.46154 1.21405 0
M  V30 8832 H 820.566 1.2318 3.68455 0
M  V30 8833 H 822.238 3.68024 2.78129 0
M  V30 8834 H 820.481 3.50225 2.55978 0
M  V30 8835 H 821.152 3.5924 4.19107 0
M  V30 8836 H 823.628 1.70669 3.79488 0
M  V30 8837 H 822.504 1.83896 5.17178 0
M  V30 8838 H 822.765 0.276722 4.41233 0
M  V30 8839 N 821.824 -1.22873 0.986916 0
M  V30 8840 C 822.787 -2.2281 0.537442 0
M  V30 8841 C 823.787 -1.56331 -0.37646 0
M  V30 8842 O 824.977 -1.73376 -0.169247 0
M  V30 8843 C 822.109 -3.40195 -0.219082 0
M  V30 8844 H 823.302 -2.64089 1.42116 0
M  V30 8845 H 820.855 -1.35819 0.773488 0
M  V30 8846 H 821.59 -3.04381 -1.11905 0
M  V30 8847 H 821.375 -3.89657 0.437026 0
M  V30 8848 H 822.865 -4.14326 -0.521926 0
M  V30 8849 N 823.302 -0.75937 -1.38099 0
M  V30 8850 C 824.232 -0.151077 -2.33011 0
M  V30 8851 C 825.213 0.697099 -1.5516 0
M  V30 8852 O 826.398 0.637101 -1.83452 0
M  V30 8853 C 823.528 0.738423 -3.39359 0
M  V30 8854 C 822.482 -0.0074741 -4.27999 0
M  V30 8855 C 821.808 1.00066 -5.25253 0
M  V30 8856 C 823.108 -1.17926 -5.08813 0
M  V30 8857 H 824.802 -0.943933 -2.84131 0
M  V30 8858 H 822.348 -0.455362 -1.36611 0
M  V30 8859 H 824.301 1.17369 -4.04725 0
M  V30 8860 H 823.025 1.56366 -2.86735 0
M  V30 8861 H 821.684 -0.423379 -3.64147 0
M  V30 8862 H 821.332 1.82012 -4.68914 0
M  V30 8863 H 821.032 0.506199 -5.85416 0
M  V30 8864 H 822.556 1.43512 -5.93495 0
M  V30 8865 H 823.97 -0.821262 -5.67387 0
M  V30 8866 H 822.367 -1.60497 -5.78239 0
M  V30 8867 H 823.437 -1.98938 -4.42212 0
M  V30 8868 N 824.78 1.49157 -0.508906 0
M  V30 8869 C 825.743 2.27784 0.25434 0
M  V30 8870 C 826.743 1.34132 0.88686 0
M  V30 8871 O 827.933 1.5722 0.750168 0
M  V30 8872 C 825.065 3.12347 1.36573 0
M  V30 8873 H 826.258 2.96718 -0.435714 0
M  V30 8874 H 823.811 1.54052 -0.264128 0
M  V30 8875 H 824.546 2.47997 2.08969 0
M  V30 8876 H 824.331 3.81213 0.917543 0
M  V30 8877 H 825.821 3.71712 1.90315 0
M  V30 8878 N 826.258 0.243083 1.55714 0
M  V30 8879 C 827.205 -0.658078 2.21219 0
M  V30 8880 C 828.175 -1.1742 1.17481 0
M  V30 8881 O 829.36 -1.22937 1.45915 0
M  V30 8882 C 826.5 -1.85104 2.91257 0
M  V30 8883 C 825.613 -1.3718 4.09641 0
M  V30 8884 C 824.748 -2.52403 4.67404 0
M  V30 8885 C 823.787 -2.01321 5.78045 0
M  V30 8886 N 822.924 -3.09896 6.30007 0
M  V30 8887 H 827.764 -0.0927854 2.97856 0
M  V30 8888 H 825.301 -0.0340375 1.47061 0
M  V30 8889 H 827.259 -2.55179 3.3006 0
M  V30 8890 H 825.889 -2.38887 2.17101 0
M  V30 8891 H 824.941 -0.565232 3.76177 0
M  V30 8892 H 826.253 -0.957409 4.89525 0
M  V30 8893 H 825.407 -3.30525 5.08761 0
M  V30 8894 H 824.146 -2.97142 3.86728 0
M  V30 8895 H 823.151 -1.21667 5.36169 0
M  V30 8896 H 824.376 -1.57556 6.6057 0
M  V30 8897 H 822.322 -3.54077 5.52237 0
M  V30 8898 H 822.239 -2.72776 7.05074 0
M  V30 8899 H 823.507 -3.8809 6.76023 0
M  V30 8900 N 827.736 -1.57571 -0.0300757 0
M  V30 8901 C 828.961 -1.93879 -0.736601 0
M  V30 8902 C 829.386 -0.842998 -1.68152 0
M  V30 8903 O 828.744 0.20135 -1.80178 0
M  V30 8904 C 828.792 -3.29247 -1.47066 0
M  V30 8905 O 827.896 -3.21426 -2.58378 0
M  V30 8906 H 827.237 -0.633735 -0.198181 0
M  V30 8907 H 829.767 -2.04595 0.0141485 0
M  V30 8908 H 829.777 -3.64113 -1.84081 0
M  V30 8909 H 828.452 -4.08565 -0.77764 0
M  V30 8910 H 827.029 -2.98189 -2.23914 0
M  V30 8911 N 829.214 0.302327 -1.54673 0
M  V30 8912 C 830.144 1.37759 -1.88533 0
M  V30 8913 C 831.125 1.52961 -0.744113 0
M  V30 8914 O 832.31 1.6649 -0.999731 0
M  V30 8915 C 829.44 2.74201 -2.13146 0
M  V30 8916 C 828.394 2.73765 -3.28993 0
M  V30 8917 C 827.72 4.13483 -3.39022 0
M  V30 8918 C 829.02 2.35624 -4.66132 0
M  V30 8919 H 830.714 1.0967 -2.78591 0
M  V30 8920 H 828.26 0.52613 -1.34044 0
M  V30 8921 H 830.213 3.49508 -2.35419 0
M  V30 8922 H 828.937 3.03812 -1.19858 0
M  V30 8923 H 827.596 2.00914 -3.06642 0
M  V30 8924 H 827.244 4.40269 -2.43253 0
M  V30 8925 H 826.944 4.14093 -4.16894 0
M  V30 8926 H 828.468 4.90572 -3.63553 0
M  V30 8927 H 829.882 3.00647 -4.88143 0
M  V30 8928 H 828.279 2.47449 -5.46707 0
M  V30 8929 H 829.349 1.30753 -4.66939 0
M  V30 8930 N 830.692 1.47107 0.565454 0
M  V30 8931 C 832.108 1.32443 0.890566 0
M  V30 8932 C 832.308 0.308735 1.99121 0
M  V30 8933 O 831.364 -0.28265 2.50913 0
M  V30 8934 C 832.677 2.71548 1.2916 0
M  V30 8935 C 834.225 2.7977 1.40349 0
M  V30 8936 C 834.7 4.19497 1.83811 0
M  V30 8937 N 836.191 4.21998 1.90975 0
M  V30 8938 C 836.926 5.2702 2.25916 0
M  V30 8939 N 836.422 6.42353 2.59527 0
M  V30 8940 N 838.215 5.14393 2.26619 0
M  V30 8941 H 830.366 2.11786 -0.161328 0
M  V30 8942 H 832.629 0.947952 -0.00950631 0
M  V30 8943 H 832.335 3.47265 0.556753 0
M  V30 8944 H 832.209 3.02782 2.24951 0
M  V30 8945 H 834.596 2.0433 2.12916 0
M  V30 8946 H 834.677 2.522 0.427655 0
M  V30 8947 H 834.321 4.95439 1.11816 0
M  V30 8948 H 834.251 4.44486 2.82382 0
M  V30 8949 H 836.742 3.38791 1.6742 0
M  V30 8950 H 837.055 7.18252 2.85191 0
M  V30 8951 H 835.4 6.45687 2.57126 0
M  V30 8952 H 838.591 4.2332 1.99794 0
M  V30 8953 H 838.764 5.96349 2.5352 0
M  V30 8954 N 832.17 -0.811516 1.35101 0
M  V30 8955 C 833.102 -1.93102 1.23468 0
M  V30 8956 C 834.115 -1.62021 0.159095 0
M  V30 8957 O 835.304 -1.73682 0.411945 0
M  V30 8958 C 832.404 -3.27345 0.877404 0
M  V30 8959 C 831.577 -3.86368 2.05033 0
M  V30 8960 C 830.636 -4.99009 1.66963 0
M  V30 8961 O 829.662 -5.16698 2.38772 0
M  V30 8962 N 830.864 -5.7749 0.590394 0
M  V30 8963 H 833.629 -2.0361 2.19916 0
M  V30 8964 H 831.19 -0.988687 1.28205 0
M  V30 8965 H 833.182 -4.00163 0.604298 0
M  V30 8966 H 831.752 -3.126 0.00275267 0
M  V30 8967 H 830.972 -3.05804 2.48752 0
M  V30 8968 H 832.26 -4.22533 2.83449 0
M  V30 8969 H 831.658 -5.657 -0.00633259 0
M  V30 8970 H 830.215 -6.50708 0.377055 0
M  V30 8971 N 833.648 -1.19017 -1.03309 0
M  V30 8972 C 835.064 -0.941483 -1.28873 0
M  V30 8973 C 835.264 0.388587 -1.97718 0
M  V30 8974 O 834.32 1.12111 -2.26246 0
M  V30 8975 C 835.633 -2.11249 -2.13996 0
M  V30 8976 C 837.181 -2.15164 -2.27318 0
M  V30 8977 C 837.656 -3.31704 -3.15811 0
M  V30 8978 N 839.147 -3.31613 -3.23399 0
M  V30 8979 C 839.882 -4.18431 -3.9205 0
M  V30 8980 N 839.378 -5.15397 -4.62966 0
M  V30 8981 N 841.171 -4.06321 -3.88406 0
M  V30 8982 H 833.322 -2.04599 -0.570343 0
M  V30 8983 H 835.585 -0.894406 -0.314232 0
M  V30 8984 H 835.291 -3.07482 -1.70727 0
M  V30 8985 H 835.165 -2.07955 -3.14697 0
M  V30 8986 H 837.552 -1.19504 -2.6982 0
M  V30 8987 H 837.633 -2.22513 -1.26182 0
M  V30 8988 H 837.277 -4.2764 -2.74019 0
M  V30 8989 H 837.207 -3.21592 -4.16997 0
M  V30 8990 H 839.698 -2.6142 -2.72888 0
M  V30 8991 H 840.011 -5.78 -5.12968 0
M  V30 8992 H 838.356 -5.19349 -4.61846 0
M  V30 8993 H 841.547 -3.29849 -3.3214 0
M  V30 8994 H 841.72 -4.74196 -4.41635 0
M  V30 8995 N 835.127 1.22348 -0.993418 0
M  V30 8996 C 836.543 1.43222 -0.704238 0
M  V30 8997 C 836.743 1.88009 0.724909 0
M  V30 8998 O 835.799 2.03429 1.49575 0
M  V30 8999 C 837.112 2.47328 -1.71025 0
M  V30 9000 C 838.66 2.61126 -1.72576 0
M  V30 9001 C 839.135 3.68453 -2.72041 0
M  V30 9002 N 840.626 3.75911 -2.70639 0
M  V30 9003 C 841.361 4.58551 -3.44266 0
M  V30 9004 N 840.857 5.45179 -4.27495 0
M  V30 9005 N 842.65 4.52866 -3.32969 0
M  V30 9006 H 834.801 0.915832 -1.91641 0
M  V30 9007 H 837.064 0.464283 -0.826526 0
M  V30 9008 H 836.77 2.21366 -2.73295 0
M  V30 9009 H 836.644 3.45939 -1.50353 0
M  V30 9010 H 839.031 2.86431 -0.710037 0
M  V30 9011 H 839.112 1.62787 -1.97317 0
M  V30 9012 H 838.756 3.43895 -3.73763 0
M  V30 9013 H 838.686 4.66362 -2.4457 0
M  V30 9014 H 841.177 3.14014 -2.10247 0
M  V30 9015 H 841.49 6.0526 -4.80499 0
M  V30 9016 H 839.835 5.44759 -4.31582 0
M  V30 9017 H 843.026 3.84215 -2.67389 0
M  V30 9018 H 843.199 5.17039 -3.90608 0
M  V30 9019 N 836.605 0.766683 1.37694 0
M  V30 9020 C 837.568 0.155849 2.2867 0
M  V30 9021 C 838.568 -0.633509 1.47795 0
M  V30 9022 O 839.758 -0.457844 1.68076 0
M  V30 9023 C 836.89 -0.786965 3.31692 0
M  V30 9024 H 838.083 0.957748 2.84196 0
M  V30 9025 H 835.636 0.534554 1.46875 0
M  V30 9026 H 836.371 -1.61406 2.8128 0
M  V30 9027 H 836.156 -0.223182 3.91464 0
M  V30 9028 H 837.646 -1.20994 3.99688 0
M  V30 9029 N 838.083 -1.48885 0.516809 0
M  V30 9030 C 839.015 -2.27357 -0.290061 0
M  V30 9031 C 840.028 -1.34558 -0.916406 0
M  V30 9032 O 841.217 -1.59715 -0.797073 0
M  V30 9033 C 838.317 -3.07496 -1.42476 0
M  V30 9034 C 837.49 -4.27982 -0.902793 0
M  V30 9035 C 836.549 -4.90038 -1.91701 0
M  V30 9036 O 835.575 -5.49643 -1.47922 0
M  V30 9037 N 836.777 -4.811 -3.24843 0
M  V30 9038 H 839.542 -2.97244 0.382884 0
M  V30 9039 H 837.103 -1.58064 0.35032 0
M  V30 9040 H 839.095 -3.45882 -2.10113 0
M  V30 9041 H 837.665 -2.40115 -2.00159 0
M  V30 9042 H 836.885 -3.94167 -0.0508272 0
M  V30 9043 H 838.173 -5.06003 -0.532723 0
M  V30 9044 H 837.571 -4.33801 -3.63088 0
M  V30 9045 H 836.128 -5.23625 -3.8815 0
M  V30 9046 N 839.561 -0.251338 -1.55583 0
M  V30 9047 C 840.524 0.63305 -2.20284 0
M  V30 9048 C 841.524 1.09941 -1.17344 0
M  V30 9049 O 842.714 1.00341 -1.42399 0
M  V30 9050 C 839.846 1.8706 -2.84993 0
M  V30 9051 H 841.039 0.0684846 -2.99822 0
M  V30 9052 H 838.592 -0.00181653 -1.563 0
M  V30 9053 H 839.327 2.47629 -2.09405 0
M  V30 9054 H 839.112 1.54436 -3.60405 0
M  V30 9055 H 840.602 2.50004 -3.34496 0
M  V30 9056 N 841.039 1.57585 0.0217189 0
M  V30 9057 C 842.264 1.94267 0.726309 0
M  V30 9058 C 842.689 0.851904 1.67703 0
M  V30 9059 O 842.047 -0.191792 1.80283 0
M  V30 9060 C 842.095 3.30023 1.45318 0
M  V30 9061 O 841.199 3.22791 2.5667 0
M  V30 9062 H 840.54 0.634777 0.194818 0
M  V30 9063 H 843.07 2.04585 -0.0249985 0
M  V30 9064 H 843.08 3.65084 1.82147 0
M  V30 9065 H 841.755 4.08972 0.755962 0
M  V30 9066 H 840.332 2.99373 2.2233 0
M  V30 9067 N 842.517 -0.29412 1.54831 0
M  V30 9068 C 843.747 -1.04572 1.7818 0
M  V30 9069 C 844.155 -1.81187 0.544776 0
M  V30 9070 O 843.498 -1.769 -0.495169 0
M  V30 9071 C 843.56 -2.06748 2.94101 0
M  V30 9072 C 843.224 -1.49265 4.31936 0
M  V30 9073 C 844.221 -0.919136 5.11711 0
M  V30 9074 C 841.906 -1.52621 4.78552 0
M  V30 9075 C 843.9 -0.386824 6.36225 0
M  V30 9076 C 841.587 -0.990031 6.03027 0
M  V30 9077 C 842.585 -0.421315 6.81699 0
M  V30 9078 O 842.273 0.106713 8.03829 0
M  V30 9079 H 842.005 -0.31559 0.597812 0
M  V30 9080 H 844.559 -0.336817 2.0262 0
M  V30 9081 H 842.789 -2.81339 2.65303 0
M  V30 9082 H 844.478 -2.67865 3.04964 0
M  V30 9083 H 845.244 -0.886062 4.76837 0
M  V30 9084 H 841.123 -1.95826 4.17341 0
M  V30 9085 H 844.667 0.0577248 6.97576 0
M  V30 9086 H 840.564 -1.02027 6.37386 0
M  V30 9087 H 841.332 -0.00593526 8.185 0
M  V30 9088 N 843.995 -1.47404 -0.557645 0
M  V30 9089 C 844.958 -1.59411 -1.64684 0
M  V30 9090 C 845.958 -0.469244 -1.53801 0
M  V30 9091 O 847.148 -0.734298 -1.57967 0
M  V30 9092 C 844.28 -1.5382 -3.04224 0
M  V30 9093 H 845.473 -2.56504 -1.55389 0
M  V30 9094 H 843.026 -1.35588 -0.777531 0
M  V30 9095 H 843.761 -0.581 -3.19053 0
M  V30 9096 H 843.546 -2.35456 -3.13533 0
M  V30 9097 H 845.036 -1.65358 -3.83466 0
M  V30 9098 N 845.473 0.80434 -1.35529 0
M  V30 9099 C 846.721 1.55845 -1.28673 0
M  V30 9100 C 847.042 1.94511 0.137976 0
M  V30 9101 O 846.312 1.63775 1.07492 0
M  V30 9102 H 844.892 0.577931 -0.473291 0
M  V30 9103 H 847.554 0.959293 -1.69657 0
M  V30 9104 H 846.65 2.47285 -1.90411 0
M  V30 9105 N 846.951 1.19563 1.02676 0
M  V30 9106 C 848.362 1.00158 1.57561 0
M  V30 9107 C 848.713 -0.444922 1.91089 0
M  V30 9108 O 847.838 -1.32466 1.71119 0
M  V30 9109 C 848.433 1.81181 2.86284 0
M  V30 9110 C 846.992 1.66171 3.37734 0
M  V30 9111 C 846.139 1.7975 2.11152 0
M  V30 9112 H 849.09 1.33904 0.85179 0
M  V30 9113 H 849.111 1.30916 3.57269 0
M  V30 9114 H 848.623 2.86454 2.6185 0
M  V30 9115 H 846.724 0.634927 3.6715 0
M  V30 9116 H 846.837 2.46832 4.10622 0
M  V30 9117 H 845.201 1.22833 2.23123 0
M  V30 9118 H 845.984 2.86487 1.89157 0
M  V30 9119 N 848.429 -1.21819 0.999893 0
M  V30 9120 C 849.84 -1.72517 0.713775 0
M  V30 9121 C 850.191 -1.80505 -0.768922 0
M  V30 9122 O 849.316 -1.45611 -1.60083 0
M  V30 9123 C 849.911 -3.13321 1.28901 0
M  V30 9124 C 848.47 -3.61396 1.05212 0
M  V30 9125 C 847.617 -2.39074 1.40494 0
M  V30 9126 H 850.568 -1.07068 1.17141 0
M  V30 9127 H 850.589 -3.74535 0.671084 0
M  V30 9128 H 850.101 -3.07475 2.36814 0
M  V30 9129 H 848.202 -3.72599 -0.0100732 0
M  V30 9130 H 848.315 -4.47145 1.72042 0
M  V30 9131 H 846.679 -2.41015 0.823642 0
M  V30 9132 H 847.462 -2.35884 2.49427 0
M  V30 9133 N 849.908 -0.773975 -1.37286 0
M  V30 9134 C 851.319 -0.404433 -1.82267 0
M  V30 9135 C 851.67 1.06971 -1.64474 0
M  V30 9136 O 850.795 1.82867 -1.15708 0
M  V30 9137 C 851.39 -0.727298 -3.30902 0
M  V30 9138 C 849.949 -0.410784 -3.74152 0
M  V30 9139 C 849.096 -0.969983 -2.59782 0
M  V30 9140 H 852.047 -0.968437 -1.25726 0
M  V30 9141 H 852.068 -0.0127575 -3.80498 0
M  V30 9142 H 851.58 -1.80026 -3.4382 0
M  V30 9143 H 849.681 0.65477 -3.66802 0
M  V30 9144 H 849.794 -0.920592 -4.70172 0
M  V30 9145 H 848.158 -0.394094 -2.51633 0
M  V30 9146 H 848.941 -2.04839 -2.75492 0
M  V30 9147 N 851.386 1.48609 -0.524698 0
M  V30 9148 C 852.614 2.06899 0.00742946 0
M  V30 9149 C 853.029 1.38196 1.28637 0
M  V30 9150 O 852.386 0.467771 1.76403 0
M  V30 9151 C 852.437 3.60699 0.240548 0
M  V30 9152 O 852.158 4.26821 -0.987715 0
M  V30 9153 C 853.659 4.35769 0.813652 0
M  V30 9154 H 850.879 0.670278 -0.0311294 0
M  V30 9155 H 853.423 1.91071 -0.728832 0
M  V30 9156 H 851.578 3.76149 0.926845 0
M  V30 9157 H 851.992 5.18889 -0.765175 0
M  V30 9158 H 853.466 5.44174 0.926219 0
M  V30 9159 H 853.943 3.9984 1.81728 0
M  V30 9160 H 854.549 4.24983 0.164086 0
M  V30 9161 N 852.864 0.259585 1.55447 0
M  V30 9162 C 854.11 -0.362143 1.9954 0
M  V30 9163 C 854.443 -1.5666 1.14767 0
M  V30 9164 O 853.718 -1.93319 0.214025 0
M  V30 9165 C 854.001 -0.759588 3.51998 0
M  V30 9166 C 853.854 0.451134 4.47532 0
M  V30 9167 C 855.173 -1.60186 4.09913 0
M  V30 9168 H 852.292 -0.130157 0.725416 0
M  V30 9169 H 854.934 0.363431 1.86492 0
M  V30 9170 H 853.084 -1.3778 3.63248 0
M  V30 9171 H 854.756 1.08965 4.48246 0
M  V30 9172 H 852.999 1.092 4.19831 0
M  V30 9173 H 853.67 0.129518 5.51848 0
M  V30 9174 H 856.146 -1.0799 4.01842 0
M  V30 9175 H 855.022 -1.84879 5.16828 0
M  V30 9176 H 855.283 -2.57787 3.59163 0
M  V30 9177 N 854.342 -1.57594 -0.0133615 0
M  V30 9178 C 855.305 -2.06534 -0.993799 0
M  V30 9179 C 856.305 -0.972267 -1.28077 0
M  V30 9180 O 857.495 -1.23537 -1.22818 0
M  V30 9181 C 854.627 -2.49554 -2.3224 0
M  V30 9182 H 855.82 -2.94419 -0.570741 0
M  V30 9183 H 853.373 -1.54113 -0.260546 0
M  V30 9184 H 854.108 -1.64872 -2.79263 0
M  V30 9185 H 853.893 -3.29371 -2.12737 0
M  V30 9186 H 855.383 -2.8779 -3.026 0
M  V30 9187 N 855.82 0.285905 -1.54985 0
M  V30 9188 C 856.73 1.37534 -1.90057 0
M  V30 9189 C 857.746 1.54707 -0.796348 0
M  V30 9190 O 858.922 1.69082 -1.09423 0
M  V30 9191 C 855.987 2.7167 -2.15398 0
M  V30 9192 C 855.048 2.63354 -3.39033 0
M  V30 9193 C 854.281 3.91093 -3.63155 0
M  V30 9194 O 854.504 4.91169 -2.90015 0
M  V30 9195 O 853.438 3.92075 -4.56685 0
M  V30 9196 H 857.264 1.10791 -2.8277 0
M  V30 9197 H 854.849 0.483303 -1.41367 0
M  V30 9198 H 856.731 3.51006 -2.33179 0
M  V30 9199 H 855.406 2.98226 -1.25868 0
M  V30 9200 H 854.313 1.82438 -3.26599 0
M  V30 9201 H 855.646 2.41749 -4.2874 0
M  V30 9202 N 857.298 1.47698 0.54982 0
M  V30 9203 C 858.228 1.63622 1.66583 0
M  V30 9204 C 859.209 0.485477 1.63025 0
M  V30 9205 O 860.394 0.715692 1.80531 0
M  V30 9206 C 857.524 1.65721 3.05211 0
M  V30 9207 C 856.478 2.80097 3.2362 0
M  V30 9208 C 855.804 2.67272 4.63109 0
M  V30 9209 C 857.104 4.21612 3.08286 0
M  V30 9210 H 858.798 2.57049 1.53512 0
M  V30 9211 H 856.344 1.23705 0.737099 0
M  V30 9212 H 858.297 1.75451 3.83138 0
M  V30 9213 H 857.021 0.688593 3.19258 0
M  V30 9214 H 855.68 2.69889 2.48104 0
M  V30 9215 H 855.328 1.68422 4.73965 0
M  V30 9216 H 855.028 3.44008 4.76374 0
M  V30 9217 H 856.552 2.78942 5.43161 0
M  V30 9218 H 857.966 4.32758 3.76024 0
M  V30 9219 H 856.363 4.99193 3.33057 0
M  V30 9220 H 857.433 4.39462 2.04942 0
M  V30 9221 N 858.776 -0.797141 1.35954 0
M  V30 9222 C 860.022 -1.55698 1.29946 0
M  V30 9223 C 860.355 -1.93808 -0.123259 0
M  V30 9224 O 859.63 -1.62102 -1.07486 0
M  V30 9225 C 859.913 -2.83926 2.2149 0
M  V30 9226 C 859.766 -2.52232 3.72423 0
M  V30 9227 C 861.085 -3.85698 2.11955 0
M  V30 9228 H 858.204 -0.56488 0.47337 0
M  V30 9229 H 860.846 -0.916421 1.66438 0
M  V30 9230 H 858.996 -3.38588 1.905 0
M  V30 9231 H 860.668 -2.0368 4.13899 0
M  V30 9232 H 858.911 -1.85286 3.92239 0
M  V30 9233 H 859.582 -3.43782 4.31877 0
M  V30 9234 H 862.058 -3.40462 2.39218 0
M  V30 9235 H 860.934 -4.73182 2.78191 0
M  V30 9236 H 861.195 -4.28083 1.10442 0
M  V30 9237 N 860.254 -1.20106 -1.0204 0
M  V30 9238 C 861.164 -0.962051 -2.13967 0
M  V30 9239 C 862.18 0.0808053 -1.73812 0
M  V30 9240 O 863.356 -0.105774 -2.01122 0
M  V30 9241 C 860.421 -0.513108 -3.42882 0
M  V30 9242 C 859.482 -1.62636 -3.97301 0
M  V30 9243 C 858.715 -1.19875 -5.20063 0
M  V30 9244 O 858.938 -0.0658423 -5.70362 0
M  V30 9245 O 857.872 -2.00467 -5.67536 0
M  V30 9246 H 861.698 -1.8991 -2.36998 0
M  V30 9247 H 859.283 -0.984608 -1.12365 0
M  V30 9248 H 861.165 -0.271797 -4.20523 0
M  V30 9249 H 859.84 0.395402 -3.21276 0
M  V30 9250 H 858.747 -1.92192 -3.20957 0
M  V30 9251 H 860.08 -2.51174 -4.23288 0
M  V30 9252 N 861.732 1.21287 -1.00634 0
M  V30 9253 C 862.695 2.21927 -0.572821 0
M  V30 9254 C 863.695 1.5691 0.351541 0
M  V30 9255 O 864.885 1.73623 0.141643 0
M  V30 9256 C 862.017 3.40501 0.164932 0
M  V30 9257 H 863.21 2.61795 -1.463 0
M  V30 9258 H 860.763 1.34571 -0.794998 0
M  V30 9259 H 861.498 3.06123 1.07049 0
M  V30 9260 H 861.283 3.88912 -0.498962 0
M  V30 9261 H 862.773 4.15103 0.455945 0
M  V30 9262 N 863.21 0.781244 1.36873 0
M  V30 9263 C 864.16 0.147313 2.27524 0
M  V30 9264 C 865.144 -0.663928 1.46563 0
M  V30 9265 O 866.336 -0.525343 1.69024 0
M  V30 9266 C 863.465 -0.723511 3.35589 0
M  V30 9267 C 862.551 0.0960763 4.23991 0
M  V30 9268 N 862.942 1.14649 4.92635 0
M  V30 9269 C 861.24 -0.126397 4.45821 0
M  V30 9270 C 861.941 1.64474 5.57964 0
M  V30 9271 N 860.917 0.955316 5.3514 0
M  V30 9272 H 864.719 0.951406 2.78075 0
M  V30 9273 H 862.233 0.619913 1.50103 0
M  V30 9274 H 864.23 -1.19351 3.99451 0
M  V30 9275 H 862.89 -1.52624 2.86594 0
M  V30 9276 H 863.901 1.5288 4.94821 0
M  V30 9277 H 860.578 -0.900284 4.07678 0
M  V30 9278 H 861.968 2.52124 6.22803 0
M  V30 9279 N 864.689 -1.48329 0.532571 0
M  V30 9280 C 865.917 -2.069 0.00354299 0
M  V30 9281 C 866.332 -1.38876 -1.27902 0
M  V30 9282 O 865.689 -0.477119 -1.76153 0
M  V30 9283 C 865.74 -3.60821 -0.221416 0
M  V30 9284 O 865.461 -4.26291 1.01034 0
M  V30 9285 C 866.962 -4.36194 -0.790531 0
M  V30 9286 H 864.182 -0.670103 0.0346836 0
M  V30 9287 H 866.726 -1.90682 0.738955 0
M  V30 9288 H 864.881 -3.76636 -0.906884 0
M  V30 9289 H 865.295 -5.18475 0.792683 0
M  V30 9290 H 866.769 -5.44657 -0.897347 0
M  V30 9291 H 867.246 -4.00798 -1.79605 0
M  V30 9292 H 867.852 -4.25064 -0.141546 0
M  V30 9293 N 866.167 -0.267825 -1.55308 0
M  V30 9294 C 867.115 0.638848 -2.23655 0
M  V30 9295 C 868.109 1.16363 -1.2311 0
M  V30 9296 O 869.315 1.1181 -1.41062 0
M  V30 9297 H 865.69 0.224551 -0.717691 0
M  V30 9298 H 867.661 0.0394809 -2.98374 0
M  V30 9299 C 866.41 1.8151 -2.96562 0
M  V30 9300 H 865.733 1.42048 -3.73715 0
M  V30 9301 H 867.173 2.42629 -3.47717 0
M  V30 9302 C 865.632 2.69911 -2.01618 0
M  V30 9303 O 866.162 3.70058 -1.56268 0
M  V30 9304 N 864.368 2.36924 -1.68272 0
M  V30 9305 H 863.915 1.55533 -2.05347 0
M  V30 9306 H 863.873 2.96343 -1.05016 0
M  V30 9307 N 867.645 1.57599 0.00500368 0
M  V30 9308 C 868.892 1.90349 0.690895 0
M  V30 9309 C 869.22 0.868045 1.74055 0
M  V30 9310 O 868.475 -0.127855 1.95282 0
M  V30 9311 C 868.774 3.29855 1.37588 0
M  V30 9312 C 868.44 4.48548 0.459906 0
M  V30 9313 C 867.102 4.80752 0.207693 0
M  V30 9314 C 869.454 5.20919 -0.171054 0
M  V30 9315 C 866.782 5.82701 -0.683855 0
M  V30 9316 C 869.134 6.23818 -1.05045 0
M  V30 9317 C 867.798 6.54481 -1.31189 0
M  V30 9318 H 867.068 0.696538 0.252816 0
M  V30 9319 H 869.715 1.91436 -0.0494495 0
M  V30 9320 H 868.02 3.24869 2.19015 0
M  V30 9321 H 869.717 3.52452 1.91255 0
M  V30 9322 H 866.307 4.23384 0.666648 0
M  V30 9323 H 870.491 4.96299 0.0107942 0
M  V30 9324 H 865.747 6.04822 -0.894467 0
M  V30 9325 H 869.921 6.79029 -1.54574 0
M  V30 9326 H 867.548 7.33299 -2.00442 0
M  V30 9327 N 869.123 -0.277682 1.55134 0
M  V30 9328 C 870.371 -1.00791 1.75173 0
M  V30 9329 C 870.692 -1.86987 0.553266 0
M  V30 9330 O 869.962 -1.91079 -0.43195 0
M  V30 9331 H 868.542 -0.375129 0.645978 0
M  V30 9332 H 871.204 -0.303041 1.9253 0
M  V30 9333 H 870.3 -1.64756 2.6507 0
M  V30 9334 N 870.601 -1.47988 -0.541979 0
M  V30 9335 C 871.848 -1.55393 -1.29843 0
M  V30 9336 C 872.176 -0.222668 -1.93221 0
M  V30 9337 O 871.431 0.785936 -1.79225 0
M  V30 9338 C 871.73 -2.63189 -2.41798 0
M  V30 9339 C 871.396 -4.05999 -1.96151 0
M  V30 9340 C 870.058 -4.44872 -1.83419 0
M  V30 9341 C 872.41 -4.95545 -1.61507 0
M  V30 9342 C 869.738 -5.71108 -1.34361 0
M  V30 9343 C 872.09 -6.22259 -1.13915 0
M  V30 9344 C 870.754 -6.59998 -0.997911 0
M  V30 9345 H 870.024 -0.568623 -0.47513 0
M  V30 9346 H 872.671 -1.81654 -0.606142 0
M  V30 9347 H 870.976 -2.30743 -3.16647 0
M  V30 9348 H 872.673 -2.66138 -2.99953 0
M  V30 9349 H 869.263 -3.75294 -2.07008 0
M  V30 9350 H 873.447 -4.662 -1.70209 0
M  V30 9351 H 868.703 -5.99083 -1.22103 0
M  V30 9352 H 872.877 -6.91048 -0.861755 0
M  V30 9353 H 870.504 -7.57704 -0.615561 0
M  V30 9354 N 872.079 0.78992 -1.36375 0
M  V30 9355 C 873.011 1.91113 -1.26524 0
M  V30 9356 C 874.024 1.61747 -0.184851 0
M  V30 9357 O 875.213 1.73004 -0.439524 0
M  V30 9358 C 872.313 3.25908 -0.92937 0
M  V30 9359 C 871.486 3.83057 -2.11154 0
M  V30 9360 C 870.545 4.96289 -1.74881 0
M  V30 9361 O 869.571 5.12834 -2.46962 0
M  V30 9362 N 870.773 5.76478 -0.682193 0
M  V30 9363 H 873.538 2.00085 -2.23128 0
M  V30 9364 H 871.099 0.968165 -1.29762 0
M  V30 9365 H 873.091 3.99151 -0.667884 0
M  V30 9366 H 871.661 3.12556 -0.0524843 0
M  V30 9367 H 870.881 3.01808 -2.53586 0
M  V30 9368 H 872.169 4.1797 -2.90135 0
M  V30 9369 H 871.567 5.65638 -0.0836661 0
M  V30 9370 H 870.124 6.50026 -0.480529 0
M  V30 9371 N 873.557 1.20646 1.01402 0
M  V30 9372 C 874.968 1.01823 1.56489 0
M  V30 9373 C 875.319 -0.42463 1.9155 0
M  V30 9374 O 874.444 -1.30644 1.72514 0
M  V30 9375 C 875.039 1.84208 2.84347 0
M  V30 9376 C 873.598 1.69743 3.35953 0
M  V30 9377 C 872.745 1.8198 2.09233 0
M  V30 9378 H 875.696 1.348 0.837539 0
M  V30 9379 H 875.717 1.34698 3.55861 0
M  V30 9380 H 875.229 2.89215 2.58798 0
M  V30 9381 H 873.33 0.673833 3.66456 0
M  V30 9382 H 873.443 2.51173 4.07981 0
M  V30 9383 H 871.807 1.25193 2.21808 0
M  V30 9384 H 872.59 2.88477 1.86107 0
M  V30 9385 N 875.035 -1.20752 1.01276 0
M  V30 9386 C 876.312 -1.85676 0.615112 0
M  V30 9387 C 876.692 -1.90623 -0.906976 0
M  V30 9388 O 876.04 -1.41124 -1.79712 0
M  V30 9389 C 876.25 -3.2552 1.25847 0
M  V30 9390 C 877.598 -4.0184 1.37148 0
M  V30 9391 O 878.622 -3.3486 1.21438 0
M  V30 9392 O 877.481 -5.21783 1.62495 0
M  V30 9393 H 874.575 -0.799437 0.211729 0
M  V30 9394 H 877.121 -1.28372 1.10989 0
M  V30 9395 H 875.893 -3.16664 2.29869 0
M  V30 9396 H 875.516 -3.90452 0.750524 0
M  V30 9397 N 876.513 -0.788492 -1.36457 0
M  V30 9398 C 877.741 -0.372365 -2.03522 0
M  V30 9399 C 878.156 1.01093 -1.59454 0
M  V30 9400 O 877.513 1.64824 -0.783535 0
M  V30 9401 C 877.564 -0.425435 -3.58988 0
M  V30 9402 O 877.285 -1.75418 -4.01448 0
M  V30 9403 C 878.786 0.000180167 -4.433 0
M  V30 9404 H 876.006 -0.1536 -0.653183 0
M  V30 9405 H 878.55 -1.06708 -1.74452 0
M  V30 9406 H 876.705 0.220856 -3.8677 0
M  V30 9407 H 877.119 -1.70437 -4.96036 0
M  V30 9408 H 878.593 -0.0880919 -5.5193 0
M  V30 9409 H 879.07 1.05269 -4.26398 0
M  V30 9410 H 879.676 -0.618563 -4.20778 0
M  V30 9411 N 877.991 1.48044 -0.54043 0
M  V30 9412 C 878.954 2.28273 0.205966 0
M  V30 9413 C 879.954 1.35983 0.858209 0
M  V30 9414 O 881.144 1.58776 0.716651 0
M  V30 9415 C 878.276 3.15174 1.29917 0
M  V30 9416 H 879.469 2.95727 -0.498555 0
M  V30 9417 H 877.022 1.53457 -0.296745 0
M  V30 9418 H 877.757 2.52374 2.03661 0
M  V30 9419 H 877.542 3.83074 0.836475 0
M  V30 9420 H 879.032 3.75666 1.82387 0
M  V30 9421 N 879.47 0.276058 1.55163 0
M  V30 9422 C 880.881 -0.221516 1.85381 0
M  V30 9423 C 881.232 -1.55372 1.19808 0
M  V30 9424 O 880.357 -2.10855 0.486742 0
M  V30 9425 C 880.952 -0.408706 3.36326 0
M  V30 9426 C 879.511 -0.850512 3.66665 0
M  V30 9427 C 878.658 0.055656 2.77244 0
M  V30 9428 H 881.609 0.497819 1.5069 0
M  V30 9429 H 881.63 -1.24711 3.59482 0
M  V30 9430 H 881.142 0.561052 3.84023 0
M  V30 9431 H 879.243 -1.83171 3.24468 0
M  V30 9432 H 879.356 -0.687181 4.74146 0
M  V30 9433 H 877.72 -0.460819 2.50497 0
M  V30 9434 H 878.503 1.02131 3.27756 0
M  V30 9435 N 880.948 -1.576 0.00335426 0
M  V30 9436 C 882.364 -1.55653 -0.352766 0
M  V30 9437 C 882.564 -1.00632 -1.74572 0
M  V30 9438 O 881.62 -0.641621 -2.44212 0
M  V30 9439 C 882.933 -2.99858 -0.224929 0
M  V30 9440 C 884.481 -3.11563 -0.299619 0
M  V30 9441 C 884.956 -4.57559 -0.200868 0
M  V30 9442 N 886.447 -4.62477 -0.258663 0
M  V30 9443 C 887.182 -5.73031 -0.205644 0
M  V30 9444 N 886.678 -6.92723 -0.103027 0
M  V30 9445 N 888.471 -5.61509 -0.257754 0
M  V30 9446 H 880.622 -1.91703 0.914539 0
M  V30 9447 H 882.885 -0.88068 0.350865 0
M  V30 9448 H 882.591 -3.43964 0.733595 0
M  V30 9449 H 882.465 -3.63547 -1.00564 0
M  V30 9450 H 884.852 -2.67384 -1.24859 0
M  V30 9451 H 884.933 -2.50644 0.511025 0
M  V30 9452 H 884.577 -5.02413 0.744572 0
M  V30 9453 H 884.507 -5.16428 -1.03004 0
M  V30 9454 H 886.998 -3.76375 -0.339168 0
M  V30 9455 H 887.311 -7.7277 -0.0685593 0
M  V30 9456 H 885.656 -6.94966 -0.0686069 0
M  V30 9457 H 888.847 -4.66892 -0.336142 0
M  V30 9458 H 889.02 -6.4765 -0.21297 0
M  V30 9459 N 882.426 0.269451 -1.5528 0
M  V30 9460 C 883.651 1.02299 -1.80415 0
M  V30 9461 C 884.076 1.7902 -0.577363 0
M  V30 9462 O 883.434 1.75018 0.473125 0
M  V30 9463 C 883.482 1.95445 -3.0304 0
M  V30 9464 O 882.586 3.04271 -2.78375 0
M  V30 9465 H 881.927 0.292289 -0.596207 0
M  V30 9466 H 884.457 0.297282 -2.02429 0
M  V30 9467 H 884.467 2.37333 -3.31869 0
M  V30 9468 H 883.142 1.39017 -3.91978 0
M  V30 9469 H 881.719 2.66673 -2.60653 0
M  V30 9470 N 883.904 1.48273 0.534124 0
M  V30 9471 C 885.315 1.49667 1.1161 0
M  V30 9472 C 885.666 0.264139 1.94414 0
M  V30 9473 O 884.791 -0.629084 2.07054 0
M  V30 9474 C 885.386 2.71191 2.03079 0
M  V30 9475 C 883.945 2.7547 2.56502 0
M  V30 9476 C 883.092 2.43119 1.33373 0
M  V30 9477 H 886.043 1.55449 0.319578 0
M  V30 9478 H 886.064 2.49473 2.87304 0
M  V30 9479 H 885.576 3.60879 1.42785 0
M  V30 9480 H 883.677 1.89979 3.20529 0
M  V30 9481 H 883.79 3.76787 2.95919 0
M  V30 9482 H 882.154 1.94187 1.64813 0
M  V30 9483 H 882.937 3.35044 0.748375 0
M  V30 9484 N 885.382 -0.782676 1.36792 0
M  V30 9485 C 886.33 -1.91698 1.31737 0
M  V30 9486 C 887.324 -1.68118 0.207994 0
M  V30 9487 O 888.53 -1.76042 0.375393 0
M  V30 9488 H 884.905 -0.630215 0.410284 0
M  V30 9489 H 886.876 -1.93078 2.27516 0
M  V30 9490 C 885.625 -3.28816 1.13029 0
M  V30 9491 H 884.948 -3.4753 1.97643 0
M  V30 9492 H 886.388 -4.08515 1.13541 0
M  V30 9493 C 884.847 -3.36497 -0.1647 0
M  V30 9494 O 885.377 -3.84822 -1.15216 0
M  V30 9495 N 883.583 -2.89828 -0.211678 0
M  V30 9496 H 883.13 -2.50693 0.59252 0
M  V30 9497 H 883.088 -2.95349 -1.07779 0
M  V30 9498 N 886.86 -1.21182 -1.00761 0
M  V30 9499 C 888.088 -1.05335 -1.78079 0
M  V30 9500 C 888.503 0.396988 -1.84579 0
M  V30 9501 O 887.86 1.27548 -1.30529 0
M  V30 9502 C 887.911 -1.64089 -3.22113 0
M  V30 9503 O 887.632 -3.03448 -3.15992 0
M  V30 9504 C 889.133 -1.53318 -4.15943 0
M  V30 9505 H 886.353 -0.37005 -0.559736 0
M  V30 9506 H 888.897 -1.60463 -1.26775 0
M  V30 9507 H 887.052 -1.13059 -3.70535 0
M  V30 9508 H 887.466 -3.31492 -4.06465 0
M  V30 9509 H 888.94 -1.99174 -5.14814 0
M  V30 9510 H 889.417 -0.487166 -4.3649 0
M  V30 9511 H 890.023 -2.03582 -3.73409 0
M  V30 9512 N 888.338 1.20213 -1.01915 0
M  V30 9513 C 889.586 1.89272 -0.708552 0
M  V30 9514 C 889.907 1.79394 0.76438 0
M  V30 9515 O 889.177 1.198 1.54999 0
M  V30 9516 H 887.757 0.700628 -0.259094 0
M  V30 9517 H 890.419 1.45985 -1.29129 0
M  V30 9518 H 889.515 2.95841 -0.994215 0
M  V30 9519 N 889.816 0.795718 1.36037 0
M  V30 9520 C 891.227 0.433379 1.816 0
M  V30 9521 C 891.578 -1.04341 1.66155 0
M  V30 9522 O 890.703 -1.81004 1.18603 0
M  V30 9523 C 891.298 0.77985 3.29703 0
M  V30 9524 C 889.857 0.470256 3.73451 0
M  V30 9525 C 889.004 1.01119 2.58206 0
M  V30 9526 H 891.955 0.988317 1.24169 0
M  V30 9527 H 891.976 0.0732898 3.80429 0
M  V30 9528 H 891.488 1.85473 3.40913 0
M  V30 9529 H 889.589 -0.596332 3.67797 0
M  V30 9530 H 889.702 0.995276 4.68648 0
M  V30 9531 H 888.066 0.434077 2.50974 0
M  V30 9532 H 888.849 2.09196 2.72198 0
M  V30 9533 N 891.294 -1.47756 0.548274 0
M  V30 9534 C 892.524 -2.06584 0.0254503 0
M  V30 9535 C 892.932 -1.40268 -1.26971 0
M  V30 9536 O 892.275 -0.49019 -1.77039 0
M  V30 9537 C 892.337 -3.58628 -0.250301 0
M  V30 9538 C 892.001 -4.4693 0.954087 0
M  V30 9539 C 892.998 -4.85592 1.85733 0
M  V30 9540 C 890.683 -4.88573 1.16624 0
M  V30 9541 C 892.677 -5.64686 2.95648 0
M  V30 9542 C 890.364 -5.67435 2.2685 0
M  V30 9543 C 891.362 -6.05401 3.16194 0
M  V30 9544 O 891.05 -6.82676 4.24511 0
M  V30 9545 H 890.782 -0.67489 0.0387264 0
M  V30 9546 H 893.336 -1.90876 0.758663 0
M  V30 9547 H 891.566 -3.72516 -1.03771 0
M  V30 9548 H 893.255 -3.9951 -0.717419 0
M  V30 9549 H 894.021 -4.54026 1.70544 0
M  V30 9550 H 889.9 -4.58494 0.480039 0
M  V30 9551 H 893.444 -5.9424 3.65411 0
M  V30 9552 H 889.341 -5.98413 2.42016 0
M  V30 9553 H 890.109 -7.01057 4.22447 0
M  V30 9554 N 892.772 -0.284283 -1.55015 0
M  V30 9555 C 894.183 0.211681 -1.85496 0
M  V30 9556 C 894.534 1.54735 -1.2063 0
M  V30 9557 O 893.659 2.10594 -0.497918 0
M  V30 9558 C 894.254 0.390864 -3.36538 0
M  V30 9559 C 892.813 0.831055 -3.67111 0
M  V30 9560 C 891.96 -0.0703581 -2.77211 0
M  V30 9561 H 894.911 -0.505803 -1.50424 0
M  V30 9562 H 894.932 1.22803 -3.60138 0
M  V30 9563 H 894.444 -0.581409 -3.8372 0
M  V30 9564 H 892.545 1.81447 -3.25434 0
M  V30 9565 H 892.658 0.662026 -4.74504 0
M  V30 9566 H 891.022 0.447528 -2.50737 0
M  V30 9567 H 891.805 -1.03868 -3.2721 0
M  V30 9568 N 894.251 1.57596 -0.0117121 0
M  V30 9569 C 895.476 1.95764 0.684938 0
M  V30 9570 C 895.901 0.887285 1.65858 0
M  V30 9571 O 895.259 -0.153508 1.80649 0
M  V30 9572 C 895.307 3.33031 1.38285 0
M  V30 9573 O 894.411 3.28163 2.49765 0
M  V30 9574 H 893.752 0.638767 0.181309 0
M  V30 9575 H 896.282 2.04486 -0.0683883 0
M  V30 9576 H 896.292 3.68866 1.74362 0
M  V30 9577 H 894.967 4.10483 0.669043 0
M  V30 9578 H 893.544 3.04021 2.15929 0
M  V30 9579 N 895.729 -0.261212 1.5542 0
M  V30 9580 C 896.639 -1.34493 1.92221 0
M  V30 9581 C 897.655 -1.53421 0.82086 0
M  V30 9582 O 898.831 -1.6732 1.12099 0
M  V30 9583 C 895.896 -2.68209 2.19692 0
M  V30 9584 C 894.957 -2.57927 3.43179 0
M  V30 9585 C 894.19 -3.85266 3.69331 0
M  V30 9586 O 894.413 -4.86493 2.97793 0
M  V30 9587 O 893.347 -3.8476 4.62865 0
M  V30 9588 H 897.173 -1.06278 2.84497 0
M  V30 9589 H 894.758 -0.460752 1.42118 0
M  V30 9590 H 896.64 -3.47252 2.38734 0
M  V30 9591 H 895.315 -2.96186 1.30597 0
M  V30 9592 H 894.222 -1.77219 3.2946 0
M  V30 9593 H 895.555 -2.34898 4.32532 0
M  V30 9594 N 897.207 -1.48554 -0.526253 0
M  V30 9595 C 898.139 -1.59446 -1.6465 0
M  V30 9596 C 899.152 -0.478525 -1.55608 0
M  V30 9597 O 900.341 -0.74953 -1.62001 0
M  V30 9598 C 897.441 -1.51164 -3.03319 0
M  V30 9599 C 896.614 -2.77861 -3.37805 0
M  V30 9600 C 895.673 -2.62982 -4.5577 0
M  V30 9601 O 894.699 -3.36876 -4.58806 0
M  V30 9602 N 895.901 -1.72847 -5.5417 0
M  V30 9603 H 898.666 -2.56055 -1.55743 0
M  V30 9604 H 896.227 -1.45325 -0.713606 0
M  V30 9605 H 898.219 -1.389 -3.80117 0
M  V30 9606 H 896.789 -0.625147 -3.06285 0
M  V30 9607 H 896.009 -3.04663 -2.50149 0
M  V30 9608 H 897.297 -3.61908 -3.57632 0
M  V30 9609 H 896.695 -1.12022 -5.54498 0
M  V30 9610 H 895.252 -1.6652 -6.3017 0
M  V30 9611 N 898.685 0.775411 -1.37205 0
M  V30 9612 C 899.648 1.8702 -1.325 0
M  V30 9613 C 900.648 1.5915 -0.229793 0
M  V30 9614 O 901.838 1.673 -0.485423 0
M  V30 9615 C 898.97 3.24085 -1.05745 0
M  V30 9616 H 900.163 1.92604 -2.29878 0
M  V30 9617 H 897.716 0.97476 -1.22181 0
M  V30 9618 H 898.451 3.24178 -0.0888371 0
M  V30 9619 H 898.236 3.45705 -1.85016 0
M  V30 9620 H 899.726 4.0416 -1.05094 0
M  V30 9621 N 900.163 1.21714 1.00117 0
M  V30 9622 C 901.093 1.00397 2.10815 0
M  V30 9623 C 902.074 -0.0723502 1.69946 0
M  V30 9624 O 903.259 0.0882398 1.93999 0
M  V30 9625 C 900.389 0.572001 3.42557 0
M  V30 9626 C 899.343 1.59331 3.97237 0
M  V30 9627 C 898.669 1.01746 5.2493 0
M  V30 9628 C 899.969 2.98117 4.28863 0
M  V30 9629 H 901.663 1.92983 2.28906 0
M  V30 9630 H 899.209 0.929273 1.10002 0
M  V30 9631 H 901.162 0.410018 4.19401 0
M  V30 9632 H 899.886 -0.38951 3.24269 0
M  V30 9633 H 898.545 1.74293 3.22518 0
M  V30 9634 H 898.193 0.0475491 5.02978 0
M  V30 9635 H 897.893 1.69969 5.62481 0
M  V30 9636 H 899.417 0.866881 6.04415 0
M  V30 9637 H 900.831 2.86578 4.96534 0
M  V30 9638 H 899.228 3.63389 4.77565 0
M  V30 9639 H 900.298 3.48674 3.36979 0
M  V30 9640 N 901.641 -1.19671 1.02551 0
M  V30 9641 C 903.052 -1.70964 0.750208 0
M  V30 9642 C 903.403 -1.82095 -0.730461 0
M  V30 9643 O 902.528 -1.48974 -1.56958 0
M  V30 9644 C 903.123 -3.10516 1.35518 0
M  V30 9645 C 901.682 -3.59083 1.12854 0
M  V30 9646 C 900.829 -2.36041 1.45534 0
M  V30 9647 H 903.78 -1.04559 1.19386 0
M  V30 9648 H 903.801 -3.73028 0.750378 0
M  V30 9649 H 903.313 -3.02383 2.43282 0
M  V30 9650 H 901.414 -3.72536 0.0689627 0
M  V30 9651 H 901.527 -4.43395 1.81488 0
M  V30 9652 H 899.891 -2.39214 0.87458 0
M  V30 9653 H 900.674 -2.3054 2.54374 0
M  V30 9654 N 903.119 -0.802921 -1.35613 0
M  V30 9655 C 904.368 -0.378087 -1.98125 0
M  V30 9656 C 904.681 1.05953 -1.64418 0
M  V30 9657 O 905.887 1.58729 -2.20266 0
M  V30 9658 C 904.343 -0.625077 -3.5443 0
M  V30 9659 C 903.951 -2.07499 -3.97049 0
M  V30 9660 C 905.695 -0.265419 -4.23669 0
M  V30 9661 C 903.602 -2.26793 -5.46186 0
M  V30 9662 H 902.532 -0.137633 -0.741332 0
M  V30 9663 H 905.183 -0.986461 -1.54729 0
M  V30 9664 H 903.565 0.0531975 -3.95964 0
M  V30 9665 H 904.739 -2.79077 -3.66678 0
M  V30 9666 H 903.054 -2.39417 -3.40688 0
M  V30 9667 H 905.651 -0.387669 -5.33293 0
M  V30 9668 H 905.994 0.787994 -4.08774 0
M  V30 9669 H 906.527 -0.897464 -3.87544 0
M  V30 9670 H 903.266 -3.30566 -5.66045 0
M  V30 9671 H 902.786 -1.59735 -5.78139 0
M  V30 9672 H 904.465 -2.08165 -6.12598 0
M  V30 9673 N 904.597 1.47463 -0.556102 0
M  V30 9674 C 906.008 1.86298 -0.122429 0
M  V30 9675 C 906.359 1.46285 1.30749 0
M  V30 9676 O 905.484 0.865405 1.98342 0
M  V30 9677 C 906.079 3.38115 -0.215407 0
M  V30 9678 C 904.638 3.76046 0.163223 0
M  V30 9679 C 903.785 2.71515 -0.563466 0
M  V30 9680 H 906.736 1.38996 -0.765888 0
M  V30 9681 H 906.757 3.76263 0.566271 0
M  V30 9682 H 906.269 3.67207 -1.25622 0
M  V30 9683 H 904.37 3.5257 1.20519 0
M  V30 9684 H 904.483 4.78705 -0.194568 0
M  V30 9685 H 902.847 2.54699 -0.00667879 0
M  V30 9686 H 903.63 3.03449 -1.60542 0
M  V30 9687 N 906.075 0.2925 1.54862 0
M  V30 9688 C 907.323 -0.318633 1.99572 0
M  V30 9689 C 907.644 -1.55062 1.1824 0
M  V30 9690 O 906.914 -1.93943 0.276226 0
M  V30 9691 H 905.494 -0.120722 0.737181 0
M  V30 9692 H 908.156 0.401862 1.90712 0
M  V30 9693 H 907.252 -0.596542 3.06346 0
M  V30 9694 N 907.553 -1.57587 0.0200696 0
M  V30 9695 C 908.781 -1.95718 -0.670964 0
M  V30 9696 C 909.196 -0.896081 -1.6618 0
M  V30 9697 O 908.553 0.123037 -1.82085 0
M  V30 9698 C 908.604 -3.33904 -1.38529 0
M  V30 9699 O 908.325 -4.35943 -0.434167 0
M  V30 9700 C 909.826 -3.86614 -2.16898 0
M  V30 9701 H 907.046 -0.644819 -0.185606 0
M  V30 9702 H 909.59 -2.04354 0.0771495 0
M  V30 9703 H 907.745 -3.26515 -2.08487 0
M  V30 9704 H 908.159 -5.16001 -0.940378 0
M  V30 9705 H 909.633 -4.85673 -2.62346 0
M  V30 9706 H 910.11 -3.20379 -3.00423 0
M  V30 9707 H 910.716 -3.97243 -1.51916 0
M  V30 9708 N 909.032 0.252966 -1.55557 0
M  V30 9709 C 910.443 0.822503 -1.67606 0
M  V30 9710 C 910.794 1.86265 -0.616411 0
M  V30 9711 O 909.919 2.15082 0.238447 0
M  V30 9712 C 910.514 1.49866 -3.03852 0
M  V30 9713 C 909.073 2.01597 -3.17861 0
M  V30 9714 C 908.22 0.864943 -2.63465 0
M  V30 9715 H 911.171 0.0288958 -1.58674 0
M  V30 9716 H 911.192 2.36646 -2.97958 0
M  V30 9717 H 910.704 0.741378 -3.80953 0
M  V30 9718 H 908.805 2.80224 -2.45571 0
M  V30 9719 H 908.918 2.21752 -4.24692 0
M  V30 9720 H 907.282 1.2638 -2.21134 0
M  V30 9721 H 908.065 0.120847 -3.43087 0
M  V30 9722 N 910.51 1.48831 0.518367 0
M  V30 9723 C 911.921 1.50842 1.10016 0
M  V30 9724 C 912.272 0.284744 1.94123 0
M  V30 9725 O 911.397 -0.607088 2.0771 0
M  V30 9726 C 911.992 2.73329 2.00191 0
M  V30 9727 C 910.551 2.78175 2.53566 0
M  V30 9728 C 909.698 2.4452 1.30786 0
M  V30 9729 H 912.649 1.55779 0.303073 0
M  V30 9730 H 912.67 2.52506 2.84642 0
M  V30 9731 H 912.182 3.62374 1.3895 0
M  V30 9732 H 910.283 1.93368 3.18496 0
M  V30 9733 H 910.396 3.79905 2.91906 0
M  V30 9734 H 908.76 1.95924 1.62744 0
M  V30 9735 H 909.543 3.35819 0.712797 0
M  V30 9736 N 911.988 -0.768124 1.37614 0
M  V30 9737 C 913.399 -1.34462 1.29525 0
M  V30 9738 C 913.75 -1.96121 -0.0555168 0
M  V30 9739 O 912.875 -1.94069 -0.957406 0
M  V30 9740 C 913.47 -2.44475 2.34558 0
M  V30 9741 C 912.029 -2.97883 2.30093 0
M  V30 9742 C 911.176 -1.71131 2.18196 0
M  V30 9743 H 914.127 -0.568103 1.48183 0
M  V30 9744 H 914.148 -3.24047 1.99434 0
M  V30 9745 H 913.66 -1.99568 3.32858 0
M  V30 9746 H 911.761 -3.47156 1.35328 0
M  V30 9747 H 911.874 -3.53251 3.23652 0
M  V30 9748 H 910.238 -1.94197 1.64802 0
M  V30 9749 H 911.021 -1.28323 3.18415 0
M  V30 9750 N 913.466 -1.22244 -0.994698 0
M  V30 9751 C 914.414 -0.988118 -2.10568 0
M  V30 9752 C 915.408 0.0681541 -1.69263 0
M  V30 9753 O 916.614 -0.0841311 -1.79803 0
M  V30 9754 H 912.989 -0.302343 -0.688544 0
M  V30 9755 H 914.96 -1.93091 -2.27505 0
M  V30 9756 C 913.709 -0.580557 -3.42819 0
M  V30 9757 H 913.032 -1.385 -3.75044 0
M  V30 9758 H 914.472 -0.456004 -4.21541 0
M  V30 9759 C 912.931 0.709692 -3.2934 0
M  V30 9760 O 913.461 1.76259 -3.60965 0
M  V30 9761 N 911.667 0.680155 -2.82528 0
M  V30 9762 H 911.214 -0.176977 -2.56991 0
M  V30 9763 H 911.172 1.54372 -2.73892 0
M  V30 9764 N 914.944 1.19125 -1.03184 0
M  V30 9765 C 916.174 1.92558 -0.748663 0
M  V30 9766 C 916.582 1.759 0.696837 0
M  V30 9767 O 915.925 1.08019 1.48585 0
M  V30 9768 C 915.987 3.4461 -1.02391 0
M  V30 9769 C 915.651 3.85041 -2.46155 0
M  V30 9770 C 916.648 3.89554 -3.44302 0
M  V30 9771 C 914.333 4.16594 -2.80633 0
M  V30 9772 C 916.327 4.25055 -4.74981 0
M  V30 9773 C 914.014 4.51767 -4.11521 0
M  V30 9774 C 915.012 4.55972 -5.08506 0
M  V30 9775 O 914.7 4.9033 -6.37049 0
M  V30 9776 H 914.432 0.618397 -0.273059 0
M  V30 9777 H 916.986 1.52122 -1.38015 0
M  V30 9778 H 915.216 3.85244 -0.335284 0
M  V30 9779 H 916.905 3.99283 -0.729927 0
M  V30 9780 H 917.671 3.65324 -3.19003 0
M  V30 9781 H 913.55 4.12503 -2.05821 0
M  V30 9782 H 917.094 4.28252 -5.50678 0
M  V30 9783 H 912.991 4.75455 -4.36592 0
M  V30 9784 H 913.759 5.08266 -6.41566 0
M  V30 9785 N 916.422 0.810101 1.35185 0
M  V30 9786 C 917.699 0.315235 1.93043 0
M  V30 9787 C 918.079 -1.19567 1.73974 0
M  V30 9788 O 917.427 -1.99682 1.11083 0
M  V30 9789 C 917.637 0.730492 3.41269 0
M  V30 9790 C 918.985 0.721985 4.18417 0
M  V30 9791 O 920.009 0.672258 3.49799 0
M  V30 9792 O 918.868 0.783535 5.40854 0
M  V30 9793 H 915.962 0.0832774 0.822796 0
M  V30 9794 H 918.508 0.894034 1.4424 0
M  V30 9795 H 917.28 1.77169 3.48894 0
M  V30 9796 H 916.903 0.12669 3.97398 0
M  V30 9797 N 917.9 -1.47166 0.563914 0
M  V30 9798 C 919.125 -2.0735 0.0454698 0
M  V30 9799 C 919.55 -1.41281 -1.24182 0
M  V30 9800 O 918.908 -0.490084 -1.7455 0
M  V30 9801 C 918.956 -3.60378 -0.126453 0
M  V30 9802 O 918.06 -3.94934 -1.18746 0
M  V30 9803 H 917.401 -0.661773 0.0543377 0
M  V30 9804 H 919.931 -1.89086 0.781508 0
M  V30 9805 H 919.941 -4.06593 -0.338554 0
M  V30 9806 H 918.616 -4.07862 0.81373 0
M  V30 9807 H 917.193 -3.60455 -0.955318 0
M  V30 9808 N 919.378 -0.300708 -1.54705 0
M  V30 9809 C 920.308 0.568675 -2.26469 0
M  V30 9810 C 921.289 1.13817 -1.26411 0
M  V30 9811 O 922.474 1.16756 -1.55183 0
M  V30 9812 C 919.604 1.74077 -3.00524 0
M  V30 9813 C 918.558 1.30165 -4.07727 0
M  V30 9814 C 917.884 2.55888 -4.69495 0
M  V30 9815 C 919.184 0.433106 -5.20501 0
M  V30 9816 H 920.878 -0.0298851 -2.99385 0
M  V30 9817 H 918.424 -0.0158135 -1.43991 0
M  V30 9818 H 920.377 2.35506 -3.49449 0
M  V30 9819 H 919.101 2.36556 -2.25186 0
M  V30 9820 H 917.76 0.710414 -3.59651 0
M  V30 9821 H 917.408 3.16681 -3.90797 0
M  V30 9822 H 917.108 2.27207 -5.41895 0
M  V30 9823 H 918.632 3.18121 -5.21183 0
M  V30 9824 H 920.046 0.95307 -5.65322 0
M  V30 9825 H 918.443 0.240085 -5.9962 0
M  V30 9826 H 919.513 -0.541866 -4.81863 0
M  V30 9827 N 920.856 1.57574 -0.0284266 0
M  V30 9828 C 922.272 1.56194 0.327958 0
M  V30 9829 C 922.472 1.03397 1.72949 0
M  V30 9830 O 921.528 0.680392 2.4316 0
M  V30 9831 C 922.841 3.00177 0.177196 0
M  V30 9832 C 924.389 3.12 0.250014 0
M  V30 9833 C 924.864 4.57821 0.128049 0
M  V30 9834 N 926.355 4.6283 0.185054 0
M  V30 9835 C 927.09 5.73286 0.114454 0
M  V30 9836 N 926.586 6.928 -0.00719225 0
M  V30 9837 N 928.379 5.61848 0.16839 0
M  V30 9838 H 920.53 1.90224 -0.944921 0
M  V30 9839 H 922.793 0.874987 -0.364832 0
M  V30 9840 H 922.499 3.42753 -0.788224 0
M  V30 9841 H 922.373 3.65101 0.94768 0
M  V30 9842 H 924.76 2.69337 1.20589 0
M  V30 9843 H 924.841 2.49799 -0.550835 0
M  V30 9844 H 924.485 5.01165 -0.824407 0
M  V30 9845 H 924.415 5.18001 0.947753 0
M  V30 9846 H 926.906 3.76867 0.279247 0
M  V30 9847 H 927.219 7.72781 -0.0543903 0
M  V30 9848 H 925.564 6.94987 -0.0419648 0
M  V30 9849 H 928.755 4.67367 0.261821 0
M  V30 9850 H 928.928 6.47907 0.109908 0
M  V30 9851 N 922.334 -0.244713 1.55689 0
M  V30 9852 C 923.264 -1.30667 1.93516 0
M  V30 9853 C 924.245 -1.50094 0.800371 0
M  V30 9854 O 925.43 -1.62665 1.06083 0
M  V30 9855 C 922.56 -2.66101 2.23176 0
M  V30 9856 C 921.514 -2.61366 3.38927 0
M  V30 9857 C 920.84 -4.00616 3.54134 0
M  V30 9858 C 922.14 -2.18161 4.74555 0
M  V30 9859 H 923.834 -0.992546 2.82469 0
M  V30 9860 H 921.38 -0.476018 1.35905 0
M  V30 9861 H 923.333 -3.4053 2.48228 0
M  V30 9862 H 922.057 -2.99154 1.31051 0
M  V30 9863 H 920.716 -1.89395 3.13887 0
M  V30 9864 H 920.364 -4.30938 2.59426 0
M  V30 9865 H 920.064 -3.98335 4.31975 0
M  V30 9866 H 921.588 -4.76741 3.8151 0
M  V30 9867 H 923.002 -2.82323 4.98965 0
M  V30 9868 H 921.399 -2.26988 5.55515 0
M  V30 9869 H 922.469 -1.13333 4.7147 0
M  V30 9870 N 923.813 -1.49104 -0.510467 0
M  V30 9871 C 924.745 -1.61183 -1.6295 0
M  V30 9872 C 925.758 -0.495003 -1.55092 0
M  V30 9873 O 926.947 -0.766671 -1.61197 0
M  V30 9874 C 924.047 -1.54373 -3.01699 0
M  V30 9875 C 923.22 -2.81428 -3.34838 0
M  V30 9876 C 922.279 -2.67802 -4.52956 0
M  V30 9877 O 921.305 -3.41723 -4.55208 0
M  V30 9878 N 922.507 -1.78715 -5.52305 0
M  V30 9879 H 925.272 -2.57693 -1.53018 0
M  V30 9880 H 922.833 -1.46073 -0.698152 0
M  V30 9881 H 924.825 -1.42924 -3.78622 0
M  V30 9882 H 923.395 -0.657597 -3.05605 0
M  V30 9883 H 922.615 -3.07299 -2.46903 0
M  V30 9884 H 923.903 -3.6568 -3.53773 0
M  V30 9885 H 923.301 -1.17897 -5.53278 0
M  V30 9886 H 921.858 -1.73194 -6.28369 0
M  V30 9887 N 925.291 0.760815 -1.38019 0
M  V30 9888 C 926.702 1.33773 -1.30237 0
M  V30 9889 C 927.053 1.96148 0.0451153 0
M  V30 9890 O 926.178 1.94574 0.9471 0
M  V30 9891 C 926.773 2.43227 -2.35851 0
M  V30 9892 C 925.332 2.96659 -2.31669 0
M  V30 9893 C 924.479 1.69972 -2.191 0
M  V30 9894 H 927.43 0.560237 -1.48482 0
M  V30 9895 H 927.451 3.22985 -2.01149 0
M  V30 9896 H 926.963 1.978 -3.33911 0
M  V30 9897 H 925.064 3.46433 -1.37167 0
M  V30 9898 H 925.177 3.51529 -3.25521 0
M  V30 9899 H 923.541 1.9332 -1.65829 0
M  V30 9900 H 924.324 1.26633 -3.19091 0
M  V30 9901 N 926.769 1.22769 0.988202 0
M  V30 9902 C 927.699 1.02627 2.09738 0
M  V30 9903 C 928.68 -0.0543211 1.70013 0
M  V30 9904 O 929.865 0.108811 1.93895 0
M  V30 9905 C 926.995 0.608302 3.41931 0
M  V30 9906 C 925.949 1.63536 3.95525 0
M  V30 9907 C 925.275 1.07308 5.23822 0
M  V30 9908 C 926.575 3.02649 4.25677 0
M  V30 9909 H 928.269 1.954 2.26847 0
M  V30 9910 H 925.815 0.940888 1.09011 0
M  V30 9911 H 927.768 0.454478 4.18942 0
M  V30 9912 H 926.492 -0.355095 3.24664 0
M  V30 9913 H 925.151 1.77704 3.20651 0
M  V30 9914 H 924.799 0.100894 5.02899 0
M  V30 9915 H 924.499 1.75925 5.60646 0
M  V30 9916 H 926.023 0.930938 6.03462 0
M  V30 9917 H 927.437 2.91828 4.93467 0
M  V30 9918 H 925.834 3.68434 4.73684 0
M  V30 9919 H 926.904 3.52228 3.33262 0
M  V30 9920 N 928.247 -1.18576 1.03814 0
M  V30 9921 C 929.524 -1.8433 0.654358 0
M  V30 9922 C 929.904 -1.92504 -0.866338 0
M  V30 9923 O 929.252 -1.44904 -1.76678 0
M  V30 9924 C 929.462 -3.22778 1.32723 0
M  V30 9925 C 930.81 -3.98841 1.45641 0
M  V30 9926 O 931.834 -3.32209 1.28514 0
M  V30 9927 O 930.693 -5.18219 1.73526 0
M  V30 9928 H 927.787 -0.794766 0.228638 0
M  V30 9929 H 930.333 -1.25989 1.13687 0
M  V30 9930 H 929.105 -3.11717 2.36534 0
M  V30 9931 H 928.728 -3.88772 0.833176 0
M  V30 9932 N 929.725 -0.817259 -1.34754 0
M  V30 9933 C 930.971 -0.403244 -1.98751 0
M  V30 9934 C 931.304 1.02963 -1.64658 0
M  V30 9935 O 930.579 1.71617 -0.915314 0
M  V30 9936 C 930.862 -0.599188 -3.5508 0
M  V30 9937 C 930.715 -2.07777 -3.98934 0
M  V30 9938 C 932.034 -0.0315656 -4.40089 0
M  V30 9939 H 929.153 -0.147988 -0.721989 0
M  V30 9940 H 931.795 -1.02877 -1.59738 0
M  V30 9941 H 929.945 -0.0667116 -3.88443 0
M  V30 9942 H 931.617 -2.67345 -3.75931 0
M  V30 9943 H 929.86 -2.57031 -3.49453 0
M  V30 9944 H 930.531 -2.16571 -5.07741 0
M  V30 9945 H 933.007 -0.48644 -4.13247 0
M  V30 9946 H 931.883 -0.198507 -5.48541 0
M  V30 9947 H 932.144 1.06302 -4.2913 0
M  V30 9948 N 931.203 1.46865 -0.571711 0
M  V30 9949 C 932.452 2.01636 -0.050881 0
M  V30 9950 C 932.765 1.45001 1.31279 0
M  V30 9951 O 933.971 1.91523 1.92435 0
M  V30 9952 C 932.427 3.59877 -0.0404114 0
M  V30 9953 C 932.035 4.25506 -1.40172 0
M  V30 9954 C 933.779 4.22346 0.42705 0
M  V30 9955 C 931.686 5.75795 -1.34958 0
M  V30 9956 H 930.616 0.753846 -0.0152514 0
M  V30 9957 H 933.267 1.68711 -0.721723 0
M  V30 9958 H 931.649 3.89829 0.696374 0
M  V30 9959 H 932.823 4.07178 -2.15737 0
M  V30 9960 H 931.138 3.75086 -1.8083 0
M  V30 9961 H 933.735 5.32499 0.484688 0
M  V30 9962 H 934.078 3.9052 1.44222 0
M  V30 9963 H 934.611 3.9698 -0.255326 0
M  V30 9964 H 931.35 6.12265 -2.3412 0
M  V30 9965 H 930.87 5.96419 -0.635962 0
M  V30 9966 H 932.549 6.38294 -1.05779 0
M  V30 9967 N 932.681 0.308908 1.54543 0
M  V30 9968 C 933.591 -0.572939 2.27496 0
M  V30 9969 C 934.607 -1.14171 1.31305 0
M  V30 9970 O 935.783 -1.16481 1.64299 0
M  V30 9971 C 932.848 -1.72483 3.0075 0
M  V30 9972 C 931.909 -1.18934 4.12496 0
M  V30 9973 C 931.142 -2.28634 4.82247 0
M  V30 9974 O 931.365 -3.48691 4.5141 0
M  V30 9975 O 930.299 -1.94879 5.69478 0
M  V30 9976 H 934.125 0.0190877 3.03694 0
M  V30 9977 H 931.71 0.0750943 1.49211 0
M  V30 9978 H 933.592 -2.39578 3.46671 0
M  V30 9979 H 932.267 -2.30332 2.2744 0
M  V30 9980 H 931.174 -0.483904 3.70957 0
M  V30 9981 H 932.507 -0.656185 4.87806 0
M  V30 9982 N 934.159 -1.57557 0.0367827 0
M  V30 9983 C 935.384 -1.96828 -0.653707 0
M  V30 9984 C 935.809 -0.913559 -1.64425 0
M  V30 9985 O 935.167 0.124749 -1.8087 0
M  V30 9986 C 935.215 -3.35189 -1.32969 0
M  V30 9987 O 934.319 -3.32095 -2.44513 0
M  V30 9988 H 933.66 -0.64157 -0.171124 0
M  V30 9989 H 936.19 -2.04351 0.100912 0
M  V30 9990 H 936.2 -3.71593 -1.68472 0
M  V30 9991 H 934.875 -4.11496 -0.603654 0
M  V30 9992 H 933.452 -3.07418 -2.11065 0
M  V30 9993 N 935.637 0.236453 -1.55816 0
M  V30 9994 C 936.914 0.986463 -1.68903 0
M  V30 9995 C 937.294 2.02984 -0.579722 0
M  V30 9996 O 936.642 2.24693 0.415389 0
M  V30 9997 C 936.852 1.61038 -3.09625 0
M  V30 9998 C 938.2 2.10829 -3.6856 0
M  V30 9999 O 939.224 1.7096 -3.12492 0
M  V30 10000 O 938.083 2.84064 -4.66873 0
M  V30 10001 H 935.177 0.459837 -0.687371 0
M  V30 10002 H 937.723 0.229412 -1.68142 0
M  V30 10003 H 936.495 0.856232 -3.81817 0
M  V30 10004 H 936.118 2.43336 -3.14441 0
M  V30 10005 N 937.115 1.49373 0.502552 0
M  V30 10006 C 938.34 1.62752 1.28556 0
M  V30 10007 C 938.765 0.298285 1.8572 0
M  V30 10008 O 938.123 -0.733885 1.65782 0
M  V30 10009 C 938.171 2.69778 2.39274 0
M  V30 10010 O 937.275 2.28843 3.43081 0
M  V30 10011 H 936.616 0.544799 0.379592 0
M  V30 10012 H 939.146 1.9555 0.601792 0
M  V30 10013 H 939.156 2.91899 2.8506 0
M  V30 10014 H 937.831 3.66266 1.97033 0
M  V30 10015 H 936.408 2.17047 3.03224 0
M  V30 10016 N 938.594 -0.753485 1.38421 0
M  V30 10017 C 939.504 -1.89797 1.37892 0
M  V30 10018 C 940.52 -1.71797 0.276023 0
M  V30 10019 O 941.696 -1.94718 0.514464 0
M  V30 10020 C 938.761 -3.25166 1.20284 0
M  V30 10021 C 937.822 -3.55691 2.4038 0
M  V30 10022 C 937.055 -4.84601 2.23602 0
M  V30 10023 O 937.278 -5.56985 1.22979 0
M  V30 10024 O 936.212 -5.14605 3.12194 0
M  V30 10025 H 940.038 -1.93197 2.34326 0
M  V30 10026 H 937.623 -0.898775 1.19342 0
M  V30 10027 H 939.505 -4.06099 1.12525 0
M  V30 10028 H 938.18 -3.22577 0.269352 0
M  V30 10029 H 937.087 -2.74919 2.53714 0
M  V30 10030 H 938.42 -3.6304 3.32359 0
M  V30 10031 N 940.072 -1.23292 -0.981677 0
M  V30 10032 C 941.32 -1.06214 -1.71939 0
M  V30 10033 C 941.641 0.401989 -1.90812 0
M  V30 10034 O 940.911 1.28825 -1.47584 0
M  V30 10035 H 939.491 -0.390042 -0.637084 0
M  V30 10036 H 942.153 -1.54988 -1.18173 0
M  V30 10037 H 941.249 -1.54904 -2.70945 0
M  V30 10038 N 941.55 1.18024 -1.04442 0
M  V30 10039 C 942.827 1.8398 -0.664125 0
M  V30 10040 C 943.207 1.92961 0.856116 0
M  V30 10041 O 942.555 1.45839 1.75907 0
M  V30 10042 C 942.765 3.22069 -1.34433 0
M  V30 10043 C 944.113 3.98063 -1.47754 0
M  V30 10044 O 945.137 3.31523 -1.30274 0
M  V30 10045 O 943.996 5.17291 -1.76272 0
M  V30 10046 H 941.09 0.793543 -0.23285 0
M  V30 10047 H 943.636 1.25385 -1.14354 0
M  V30 10048 H 942.408 3.10458 -2.38184 0
M  V30 10049 H 942.031 3.88325 -0.853782 0
M  V30 10050 N 943.028 0.824394 1.34319 0
M  V30 10051 C 943.991 0.252696 2.27803 0
M  V30 10052 C 944.991 -0.570254 1.50349 0
M  V30 10053 O 946.181 -0.386145 1.69866 0
M  V30 10054 C 943.313 -0.645575 3.34731 0
M  V30 10055 H 944.506 1.07742 2.79878 0
M  V30 10056 H 942.059 0.596367 1.44475 0
M  V30 10057 H 942.794 -1.4933 2.87873 0
M  V30 10058 H 942.579 -0.0569478 3.92059 0
M  V30 10059 H 944.069 -1.03933 4.0446 0
M  V30 10060 N 944.506 -1.46559 0.579492 0
M  V30 10061 C 945.755 -2.01606 0.0615735 0
M  V30 10062 C 946.068 -1.45695 -1.30508 0
M  V30 10063 O 947.274 -1.92541 -1.91416 0
M  V30 10064 C 945.73 -3.59851 0.059496 0
M  V30 10065 C 945.338 -4.24757 1.42427 0
M  V30 10066 C 947.082 -4.22567 -0.404646 0
M  V30 10067 C 944.989 -5.75072 1.38009 0
M  V30 10068 H 943.919 -0.753754 0.0192491 0
M  V30 10069 H 946.57 -1.68326 0.73066 0
M  V30 10070 H 944.952 -3.90193 -0.675691 0
M  V30 10071 H 946.126 -4.06029 2.17893 0
M  V30 10072 H 944.441 -3.74121 1.82817 0
M  V30 10073 H 947.038 -5.32748 -0.456441 0
M  V30 10074 H 947.381 -3.91279 -1.42149 0
M  V30 10075 H 947.914 -3.96839 0.276376 0
M  V30 10076 H 944.653 -6.11014 2.37364 0
M  V30 10077 H 944.173 -5.96073 0.667583 0
M  V30 10078 H 945.852 -6.37724 1.09163 0
M  V30 10079 O 946.023 -0.459225 -1.54833 0
M  V30 10080 H 946.714 0.0690813 -1.93577 0
M  V30 END ATOM
M  V30 BEGIN BOND
M  V30 END BOND
M  V30 END CTAB
M  END
$$$$
