drugbank_target|Q99062 Granulocyte colony-stimulating factor receptor (DB00019; DB00099; DB05249; DB13144; DB13200)
 OpenBabel12092119403D

  0  0  0     0  0            999 V3000
M  V30 BEGIN CTAB
M  V30 COUNTS 12856 13058 0 0 0
M  V30 BEGIN ATOM
M  V30 1 H -0.908 1.98254 -0.117106 0
M  V30 2 N 0 1.576 0 0
M  V30 3 C 0.933 2.03868 1.02534 0
M  V30 4 C 1.911 0.928543 1.3348 0
M  V30 5 O 3.095 1.19667 1.45644 0
M  V30 6 C 0.222 2.43627 2.35294 0
M  V30 7 C -0.732 3.65373 2.2001 0
M  V30 8 S 0.101 5.13292 1.52614 0
M  V30 9 C 1.257 5.56322 2.86805 0
M  V30 10 H 1.49 2.90518 0.631377 0
M  V30 11 H -0.977 1.52953 0.210867 0
M  V30 12 H 0.981 2.67203 3.11629 0
M  V30 13 H -0.358 1.57376 2.7183 0
M  V30 14 H -1.165 3.90944 3.18086 0
M  V30 15 H -1.563 3.418 1.51819 0
M  V30 16 H 0.729 5.58782 3.83104 0
M  V30 17 H 1.672 6.56266 2.65933 0
M  V30 18 H 2.08 4.83886 2.90714 0
M  V30 19 N 1.4781 -0.272755 1.55222 0
M  V30 20 C 2.4411 -1.32041 1.87344 0
M  V30 21 C 3.4411 -1.42342 0.74803 0
M  V30 22 O 4.6311 -1.41488 1.0162 0
M  V30 23 C 1.7631 -2.70173 2.07893 0
M  V30 24 H 2.9561 -1.04789 2.80997 0
M  V30 25 H 0.5091 -0.51083 1.47717 0
M  V30 26 H 1.2441 -3.02605 1.16622 0
M  V30 27 H 1.0291 -2.64082 2.89833 0
M  V30 28 H 2.5191 -3.45869 2.34017 0
M  V30 29 N 2.9562 -1.48159 -0.537278 0
M  V30 30 C 4.3722 -1.34118 -0.865129 0
M  V30 31 C 4.5722 -0.346678 -1.98495 0
M  V30 32 O 3.6282 0.234715 -2.51407 0
M  V30 33 C 4.9412 -2.73963 -1.23954 0
M  V30 34 C 6.4892 -2.82397 -1.34984 0
M  V30 35 C 6.9642 -4.22928 -1.75772 0
M  V30 36 N 8.4552 -4.25566 -1.82887 0
M  V30 37 C 9.1902 -5.31235 -2.15817 0
M  V30 38 N 8.6862 -6.47189 -2.47222 0
M  V30 39 N 10.4792 -5.18624 -2.16761 0
M  V30 40 H 2.6302 -2.1144 0.201715 0
M  V30 41 H 4.8932 -0.947598 0.0275949 0
M  V30 42 H 4.5992 -3.48264 -0.490381 0
M  V30 43 H 4.4732 -3.0702 -2.19132 0
M  V30 44 H 6.8602 -2.08356 -2.08978 0
M  V30 45 H 6.9412 -2.5297 -0.379448 0
M  V30 46 H 6.5852 -4.97482 -1.02341 0
M  V30 47 H 6.5152 -4.49794 -2.73848 0
M  V30 48 H 9.0062 -3.41924 -1.60924 0
M  V30 49 H 9.3192 -7.23564 -2.71433 0
M  V30 50 H 7.6642 -6.50476 -2.44757 0
M  V30 51 H 10.8552 -4.27056 -1.91679 0
M  V30 52 H 11.0282 -6.01078 -2.42093 0
M  V30 53 N 4.4343 0.785586 -1.36625 0
M  V30 54 C 5.3643 1.91259 -1.33949 0
M  V30 55 C 6.3453 1.68795 -0.210325 0
M  V30 56 O 7.5303 1.89854 -0.408561 0
M  V30 57 C 4.6603 3.28339 -1.13186 0
M  V30 58 C 3.6143 3.65335 -2.22967 0
M  V30 59 C 2.9403 5.00806 -1.87342 0
M  V30 60 C 4.2403 3.7352 -3.65075 0
M  V30 61 H 5.9343 1.93755 -2.28253 0
M  V30 62 H 3.4803 0.930788 -1.09874 0
M  V30 63 H 5.4333 4.06804 -1.09948 0
M  V30 64 H 4.1573 3.2624 -0.153332 0
M  V30 65 H 2.8163 2.89169 -2.25337 0
M  V30 66 H 2.4643 4.95233 -0.880545 0
M  V30 67 H 2.1643 5.26529 -2.60846 0
M  V30 68 H 3.6883 5.81687 -1.85667 0
M  V30 69 H 5.1023 4.42168 -3.64911 0
M  V30 70 H 3.4993 4.10731 -4.37516 0
M  V30 71 H 4.5693 2.74527 -3.99703 0
M  V30 72 N 5.9124 1.20967 1.01018 0
M  V30 73 C 7.1604 1.02172 1.74371 0
M  V30 74 C 7.4814 -0.446414 1.89821 0
M  V30 75 O 6.7514 -1.32234 1.44537 0
M  V30 76 H 5.3314 0.375066 0.646014 0
M  V30 77 H 7.9934 1.52187 1.21758 0
M  V30 78 H 7.0894 1.48538 2.74487 0
M  V30 79 N 7.3905 -1.2043 1.01659 0
M  V30 80 C 8.3385 -2.25249 0.580143 0
M  V30 81 C 9.3325 -1.65057 -0.381115 0
M  V30 82 O 10.5385 -1.78241 -0.251039 0
M  V30 83 H 6.9135 -0.732695 0.169299 0
M  V30 84 H 8.8845 -2.59389 1.47512 0
M  V30 85 C 7.6335 -3.47638 -0.065788 0
M  V30 86 H 6.9565 -3.94233 0.664874 0
M  V30 87 H 8.3965 -4.2268 -0.334282 0
M  V30 88 C 6.8555 -3.10447 -1.3086 0
M  V30 89 O 7.3855 -3.21981 -2.4019 0
M  V30 90 N 5.5915 -2.64996 -1.1927 0
M  V30 91 H 5.1385 -2.55811 -0.303064 0
M  V30 92 H 5.0965 -2.40482 -2.02523 0
M  V30 93 N 8.8686 -0.792821 -1.36206 0
M  V30 94 C 10.1086 -0.372238 -2.00982 0
M  V30 95 C 10.4726 1.03749 -1.61555 0
M  V30 96 O 11.6736 1.55934 -2.18948 0
M  V30 97 C 9.9446 -0.534566 -3.5338 0
M  V30 98 S 11.5036 -0.202365 -4.38333 0
M  V30 99 H 8.3216 -0.142044 -0.696667 0
M  V30 100 H 10.9236 -1.03206 -1.66039 0
M  V30 101 H 9.6276 -1.5608 -3.79562 0
M  V30 102 H 9.1586 0.141065 -3.93147 0
M  V30 103 H 11.1736 0.994869 -4.86124 0
M  V30 104 N 10.3467 1.47872 -0.545128 0
M  V30 105 C 11.5717 2.07391 -0.0190611 0
M  V30 106 C 11.9967 1.39688 1.25971 0
M  V30 107 O 11.3547 0.467816 1.7516 0
M  V30 108 C 11.4027 3.60188 0.172335 0
M  V30 109 O 10.5067 3.9339 1.23766 0
M  V30 110 H 9.8477 0.662411 -0.0459059 0
M  V30 111 H 12.3777 1.90066 -0.757365 0
M  V30 112 H 12.3877 4.06129 0.390305 0
M  V30 113 H 11.0627 4.08865 -0.761725 0
M  V30 114 H 9.6397 3.5921 1.00114 0
M  V30 115 N 11.8248 0.280983 1.55075 0
M  V30 116 C 12.7548 -0.597469 2.25727 0
M  V30 117 C 13.7358 -1.15417 1.24952 0
M  V30 118 O 14.9208 -1.18722 1.53684 0
M  V30 119 C 12.0508 -1.7789 2.98283 0
M  V30 120 C 11.0048 -1.35347 4.06036 0
M  V30 121 C 10.3308 -2.61846 4.66198 0
M  V30 122 C 11.6308 -0.499354 5.19907 0
M  V30 123 H 13.3248 -0.00824265 2.99399 0
M  V30 124 H 10.8708 -0.0025244 1.44 0
M  V30 125 H 12.8238 -2.39937 3.46422 0
M  V30 126 H 11.5478 -2.39405 2.22155 0
M  V30 127 H 10.2068 -0.756156 3.58717 0
M  V30 128 H 9.8548 -3.21632 3.86732 0
M  V30 129 H 9.5548 -2.3409 5.38958 0
M  V30 130 H 11.0788 -3.24732 5.1709 0
M  V30 131 H 12.4928 -1.02498 5.64063 0
M  V30 132 H 10.8898 -0.316424 5.99265 0
M  V30 133 H 11.9598 0.480459 4.82514 0
M  V30 134 N 13.3029 -1.57598 0.00835791 0
M  V30 135 C 14.5309 -1.95214 -0.68549 0
M  V30 136 C 14.9459 -0.883706 -1.66841 0
M  V30 137 O 14.3029 0.136565 -1.81988 0
M  V30 138 C 14.3539 -3.32865 -1.41007 0
M  V30 139 O 14.0749 -4.35609 -0.466552 0
M  V30 140 C 15.5759 -3.84991 -2.19765 0
M  V30 141 H 12.7959 -0.643422 -0.190392 0
M  V30 142 H 15.3399 -2.04406 0.0619607 0
M  V30 143 H 13.4949 -3.24956 -2.10908 0
M  V30 144 H 13.9089 -5.15288 -0.978699 0
M  V30 145 H 15.3829 -4.8371 -2.65948 0
M  V30 146 H 15.8599 -3.18137 -3.02796 0
M  V30 147 H 16.4659 -3.96103 -1.54864 0
M  V30 148 N 14.781 0.264519 -1.55364 0
M  V30 149 C 16.027 0.992314 -1.77552 0
M  V30 150 C 16.382 1.83626 -0.574379 0
M  V30 151 O 15.675 1.86648 0.432782 0
M  V30 152 C 15.869 1.9004 -3.02687 0
M  V30 153 C 15.698 1.14583 -4.34857 0
M  V30 154 C 14.468 0.858068 -4.97961 0
M  V30 155 C 16.666 0.532069 -5.1154 0
M  V30 156 N 14.648 0.0775974 -6.13851 0
M  V30 157 C 16.019 -0.113823 -6.19896 0
M  V30 158 C 18.074 0.440763 -4.95945 0
M  V30 159 C 16.777 -0.842231 -7.14352 0
M  V30 160 C 18.803 -0.274072 -5.90765 0
M  V30 161 C 18.165 -0.90867 -6.98515 0
M  V30 162 H 14.264 0.344811 -0.701875 0
M  V30 163 H 16.848 0.267141 -1.92859 0
M  V30 164 H 15.019 2.59775 -2.88741 0
M  V30 165 H 16.751 2.56243 -3.13243 0
M  V30 166 H 13.506 1.16547 -4.59036 0
M  V30 167 H 13.93 -0.300216 -6.76334 0
M  V30 168 H 18.572 0.917064 -4.12735 0
M  V30 169 H 16.29 -1.33019 -7.97077 0
M  V30 170 H 19.876 -0.345151 -5.80775 0
M  V30 171 H 18.756 -1.45299 -7.70622 0
M  V30 172 N 16.2591 1.48442 0.529413 0
M  V30 173 C 17.2221 1.62524 1.61612 0
M  V30 174 C 18.2221 0.498509 1.52877 0
M  V30 175 O 19.4121 0.76431 1.56537 0
M  V30 176 C 16.5441 1.59597 3.01233 0
M  V30 177 H 17.7371 2.59423 1.50465 0
M  V30 178 H 15.2901 1.37047 0.751514 0
M  V30 179 H 16.0251 0.641781 3.17886 0
M  V30 180 H 15.8101 2.41397 3.08982 0
M  V30 181 H 17.3001 1.72646 3.80241 0
M  V30 182 N 17.7372 -0.778329 1.37039 0
M  V30 183 C 18.7002 -1.87301 1.32102 0
M  V30 184 C 19.7002 -1.59198 0.226405 0
M  V30 185 O 20.8902 -1.67403 0.481861 0
M  V30 186 C 18.0222 -3.24309 1.05055 0
M  V30 187 H 19.2152 -1.93093 2.29467 0
M  V30 188 H 16.7682 -0.977358 1.21973 0
M  V30 189 H 17.5032 -3.24196 0.0819373 0
M  V30 190 H 17.2882 -3.46098 1.84279 0
M  V30 191 H 18.7782 -4.04382 1.04234 0
M  V30 192 N 19.2153 -1.21501 -1.00376 0
M  V30 193 C 20.1453 -0.999478 -2.11028 0
M  V30 194 C 21.1263 0.0759671 -1.6993 0
M  V30 195 O 22.3113 -0.0841106 -1.94018 0
M  V30 196 C 19.4413 -0.564709 -3.42678 0
M  V30 197 C 18.3953 -1.58486 -3.97576 0
M  V30 198 C 17.7213 -1.00628 -5.25146 0
M  V30 199 C 19.0213 -2.97204 -4.29496 0
M  V30 200 H 20.7153 -1.92495 -2.29317 0
M  V30 201 H 18.2613 -0.92693 -1.102 0
M  V30 202 H 20.2143 -0.401091 -4.19487 0
M  V30 203 H 18.9383 0.396411 -3.24185 0
M  V30 204 H 17.5973 -1.73606 -3.22888 0
M  V30 205 H 17.2453 -0.0368439 -5.02987 0
M  V30 206 H 16.9453 -1.68771 -5.62841 0
M  V30 207 H 18.4693 -0.854015 -6.04598 0
M  V30 208 H 19.8833 -2.8552 -4.97143 0
M  V30 209 H 18.2803 -3.62372 -4.78338 0
M  V30 210 H 19.3503 -3.47956 -3.3772 0
M  V30 211 N 20.6934 1.19889 -1.02296 0
M  V30 212 C 21.9424 1.88743 -0.711257 0
M  V30 213 C 22.2554 1.80112 0.762817 0
M  V30 214 O 23.4614 2.44161 1.18733 0
M  V30 215 C 21.9174 3.38525 -1.22185 0
M  V30 216 C 21.5254 3.55727 -2.72328 0
M  V30 217 C 23.2694 4.12893 -0.985864 0
M  V30 218 C 21.1764 4.99369 -3.16835 0
M  V30 219 H 20.1064 0.706885 -0.262353 0
M  V30 220 H 22.7574 1.35586 -1.23648 0
M  V30 221 H 21.1394 3.91044 -0.624571 0
M  V30 222 H 22.3134 3.13564 -3.3766 0
M  V30 223 H 20.6284 2.94739 -2.9414 0
M  V30 224 H 23.2254 5.18813 -1.29374 0
M  V30 225 H 23.5684 4.16228 0.0775055 0
M  V30 226 H 24.1014 3.66494 -1.54684 0
M  V30 227 H 20.8404 5.01193 -4.22476 0
M  V30 228 H 20.3604 5.42317 -2.56228 0
M  V30 229 H 22.0394 5.67988 -3.09837 0
M  V30 230 N 22.1715 0.800033 1.35784 0
M  V30 231 C 23.4205 0.37387 1.98205 0
M  V30 232 C 23.7335 -1.06302 1.64193 0
M  V30 233 O 24.9395 -1.59198 2.19928 0
M  V30 234 C 23.3955 0.617532 3.54562 0
M  V30 235 C 23.0035 2.06654 3.9749 0
M  V30 236 C 24.7475 0.256401 4.23725 0
M  V30 237 C 22.6545 2.2563 5.46667 0
M  V30 238 H 21.5845 0.136055 0.741623 0
M  V30 239 H 24.2355 0.983166 1.54939 0
M  V30 240 H 22.6175 -0.0616248 3.95952 0
M  V30 241 H 23.7915 2.78296 3.67271 0
M  V30 242 H 22.1065 2.38691 3.41197 0
M  V30 243 H 24.7035 0.376318 5.33374 0
M  V30 244 H 25.0465 -0.796692 4.08606 0
M  V30 245 H 25.5795 0.889214 3.87734 0
M  V30 246 H 22.3185 3.2936 5.66747 0
M  V30 247 H 21.8385 1.58504 5.78478 0
M  V30 248 H 23.5175 2.06861 6.1304 0
M  V30 249 N 23.6496 -1.47581 0.552962 0
M  V30 250 C 24.5796 -2.32762 -0.185451 0
M  V30 251 C 25.5606 -1.43527 -0.912905 0
M  V30 252 O 26.7456 -1.72388 -0.894201 0
M  V30 253 C 23.8756 -3.25219 -1.21859 0
M  V30 254 C 22.8296 -4.23661 -0.607864 0
M  V30 255 C 22.1556 -5.05413 -1.74533 0
M  V30 256 C 23.4556 -5.20481 0.435582 0
M  V30 257 H 25.1496 -2.94749 0.525684 0
M  V30 258 H 22.6956 -1.41738 0.254251 0
M  V30 259 H 24.6486 -3.8365 -1.7433 0
M  V30 260 H 23.3726 -2.61279 -1.95961 0
M  V30 261 H 22.0316 -3.66451 -0.104489 0
M  V30 262 H 21.6796 -4.3788 -2.47529 0
M  V30 263 H 21.3796 -5.72059 -1.34249 0
M  V30 264 H 22.9036 -5.66701 -2.27338 0
M  V30 265 H 24.3176 -5.733 -0.00290157 0
M  V30 266 H 22.7146 -5.95305 0.757067 0
M  V30 267 H 23.7846 -4.66217 1.33303 0
M  V30 268 N 25.1277 -0.289203 -1.54924 0
M  V30 269 C 26.0577 0.58549 -2.2604 0
M  V30 270 C 27.0387 1.14753 -1.25562 0
M  V30 271 O 28.2237 1.17906 -1.54311 0
M  V30 272 C 25.3537 1.76305 -2.99222 0
M  V30 273 C 24.3077 1.33191 -4.06748 0
M  V30 274 C 23.6337 2.5937 -4.6758 0
M  V30 275 C 24.9337 0.471775 -5.20165 0
M  V30 276 H 26.6277 -0.00763532 -2.99399 0
M  V30 277 H 24.1737 -0.00511229 -1.43999 0
M  V30 278 H 26.1267 2.38097 -3.47689 0
M  V30 279 H 24.8507 2.38223 -2.23422 0
M  V30 280 H 23.5097 0.737121 -3.59113 0
M  V30 281 H 23.1577 3.19576 -3.88433 0
M  V30 282 H 22.8577 2.31228 -5.40192 0
M  V30 283 H 24.3817 3.21985 -5.18804 0
M  V30 284 H 25.7957 0.995056 -5.64599 0
M  V30 285 H 24.1927 0.284639 -5.99425 0
M  V30 286 H 25.2627 -0.506041 -4.82252 0
M  V30 287 N 26.6058 1.57591 -0.0167156 0
M  V30 288 C 27.5358 2.12496 0.967858 0
M  V30 289 C 28.5168 1.03807 1.34752 0
M  V30 290 O 29.7018 1.31577 1.42833 0
M  V30 291 C 26.8318 2.64194 2.25431 0
M  V30 292 C 25.7858 3.77559 2.01576 0
M  V30 293 C 25.1118 4.15636 3.36379 0
M  V30 294 C 26.4118 5.04151 1.36489 0
M  V30 295 H 28.1058 2.95013 0.510643 0
M  V30 296 H 25.6518 1.41915 0.244181 0
M  V30 297 H 27.6048 3.01236 2.94678 0
M  V30 298 H 26.3288 1.78821 2.73296 0
M  V30 299 H 24.9878 3.40937 1.34751 0
M  V30 300 H 24.6358 3.27263 3.81979 0
M  V30 301 H 24.3358 4.92022 3.21229 0
M  V30 302 H 25.8598 4.5525 4.06915 0
M  V30 303 H 27.2738 5.38857 1.95718 0
M  V30 304 H 25.6708 5.85453 1.31776 0
M  V30 305 H 26.7408 4.83733 0.336219 0
M  V30 306 N 28.0839 -0.256276 1.55502 0
M  V30 307 C 29.4949 -0.826068 1.67431 0
M  V30 308 C 29.8459 -1.86396 0.612446 0
M  V30 309 O 28.9709 -2.15031 -0.243025 0
M  V30 310 C 29.5659 -1.50512 3.03532 0
M  V30 311 C 28.1249 -2.02273 3.17431 0
M  V30 312 C 27.2719 -0.870548 2.63281 0
M  V30 313 H 30.2229 -0.0322728 1.58667 0
M  V30 314 H 30.2439 -2.37279 2.97454 0
M  V30 315 H 29.7559 -0.749484 3.80794 0
M  V30 316 H 27.8569 -2.80746 2.44974 0
M  V30 317 H 27.9699 -2.22655 4.24219 0
M  V30 318 H 26.3339 -1.26851 2.20864 0
M  V30 319 H 27.1169 -0.128149 3.43061 0
M  V30 320 N 29.562 -1.4872 -0.521534 0
M  V30 321 C 30.81 -1.56857 -1.27437 0
M  V30 322 C 31.131 -0.247982 -1.93417 0
M  V30 323 O 30.401 0.731151 -1.81744 0
M  V30 324 H 28.981 -0.577885 -0.473347 0
M  V30 325 H 31.643 -1.85233 -0.606205 0
M  V30 326 H 30.739 -2.35402 -2.0492 0
M  V30 327 N 31.0401 0.771051 -1.3745 0
M  V30 328 C 32.2651 1.56529 -1.36065 0
M  V30 329 C 32.6901 1.88029 0.0515859 0
M  V30 330 O 32.0481 1.49282 1.02882 0
M  V30 331 C 32.0961 2.85187 -2.20683 0
M  V30 332 O 31.2001 3.79593 -1.61193 0
M  V30 333 H 30.5411 0.47411 -0.464883 0
M  V30 334 H 33.0711 0.954269 -1.80983 0
M  V30 335 H 33.0811 3.34283 -2.33921 0
M  V30 336 H 31.7561 2.61588 -3.23334 0
M  V30 337 H 30.3331 3.38239 -1.56999 0
M  V30 338 N 32.5182 1.22032 0.997298 0
M  V30 339 C 33.4482 1.01065 2.10495 0
M  V30 340 C 34.4292 -0.0669542 1.69968 0
M  V30 341 O 35.6142 0.0943987 1.9397 0
M  V30 342 C 32.7442 0.582874 3.42374 0
M  V30 343 C 31.6982 1.60592 3.96729 0
M  V30 344 C 31.0242 1.03412 5.24605 0
M  V30 345 C 32.3242 2.99478 4.27914 0
M  V30 346 H 34.0182 1.93708 2.28292 0
M  V30 347 H 31.5642 0.932761 1.09707 0
M  V30 348 H 33.5172 0.423332 4.19268 0
M  V30 349 H 32.2412 -0.379213 3.24391 0
M  V30 350 H 30.9002 1.75316 3.21963 0
M  V30 351 H 30.5482 0.063518 5.0296 0
M  V30 352 H 30.2482 1.71754 5.61938 0
M  V30 353 H 31.7722 0.886066 6.04137 0
M  V30 354 H 33.1862 2.88153 4.95622 0
M  V30 355 H 31.5832 3.64903 4.76409 0
M  V30 356 H 32.6532 3.49742 3.3587 0
M  V30 357 N 33.9963 -1.19345 1.0293 0
M  V30 358 C 34.9063 -2.26245 0.620515 0
M  V30 359 C 35.9223 -1.70486 -0.347928 0
M  V30 360 O 37.0983 -2.00347 -0.205704 0
M  V30 361 C 34.1633 -3.46693 -0.0218957 0
M  V30 362 C 33.2243 -4.17632 0.994102 0
M  V30 363 C 32.4573 -5.32329 0.382253 0
M  V30 364 O 32.6803 -5.64552 -0.814676 0
M  V30 365 O 31.6143 -5.91664 1.10531 0
M  V30 366 H 35.4403 -2.63453 1.51083 0
M  V30 367 H 33.0253 -1.26207 0.799513 0
M  V30 368 H 34.9073 -4.19683 -0.380072 0
M  V30 369 H 33.5823 -3.11333 -0.886209 0
M  V30 370 H 32.4893 -3.4676 1.40387 0
M  V30 371 H 33.8223 -4.56964 1.8288 0
M  V30 372 N 35.4744 -0.807222 -1.35358 0
M  V30 373 C 36.3844 -0.219594 -2.3357 0
M  V30 374 C 37.4004 0.637734 -1.61892 0
M  V30 375 O 38.5764 0.549336 -1.93763 0
M  V30 376 C 35.6414 0.62158 -3.41083 0
M  V30 377 C 34.7024 -0.256315 -4.28534 0
M  V30 378 C 33.9354 0.544807 -5.30912 0
M  V30 379 O 34.1584 1.77944 -5.41934 0
M  V30 380 O 33.0924 -0.0646478 -6.01865 0
M  V30 381 H 36.9184 -1.03208 -2.85625 0
M  V30 382 H 34.5034 -0.569025 -1.38139 0
M  V30 383 H 36.3854 1.10067 -4.06772 0
M  V30 384 H 35.0604 1.41165 -2.91297 0
M  V30 385 H 33.9674 -0.782559 -3.65823 0
M  V30 386 H 35.3004 -1.01034 -4.81719 0
M  V30 387 N 36.9525 1.47285 -0.560781 0
M  V30 388 C 38.1925 2.0436 -0.0404627 0
M  V30 389 C 38.5565 1.42534 1.28639 0
M  V30 390 O 39.7575 1.90677 1.89462 0
M  V30 391 C 38.0285 3.57369 0.0471856 0
M  V30 392 S 39.5875 4.3579 0.513109 0
M  V30 393 H 36.4055 0.710492 -0.0268674 0
M  V30 394 H 39.0075 1.80611 -0.748323 0
M  V30 395 H 37.7115 3.9989 -0.922817 0
M  V30 396 H 37.2425 3.8562 0.778491 0
M  V30 397 H 39.2575 4.63476 1.77212 0
M  V30 398 N 38.4306 0.297415 1.54768 0
M  V30 399 C 39.6786 -0.312295 1.99673 0
M  V30 400 C 39.9996 -1.54686 1.18732 0
M  V30 401 O 39.2696 -1.93854 0.282382 0
M  V30 402 H 37.8496 -0.118381 0.73756 0
M  V30 403 H 40.5116 0.407915 1.90583 0
M  V30 404 H 39.6076 -0.586813 3.06534 0
M  V30 405 N 39.9087 -1.5758 0.0250728 0
M  V30 406 C 40.8587 -2.06468 -0.967201 0
M  V30 407 C 41.8427 -0.964376 -1.28797 0
M  V30 408 O 43.0347 -1.22797 -1.27475 0
M  V30 409 C 40.1637 -2.59203 -2.25097 0
M  V30 410 C 39.2497 -3.76157 -1.95874 0
M  V30 411 N 39.6407 -4.86919 -1.36905 0
M  V30 412 C 37.9387 -3.84566 -2.25887 0
M  V30 413 C 38.6397 -5.68172 -1.24724 0
M  V30 414 N 37.6157 -5.14953 -1.74138 0
M  V30 415 H 41.4177 -2.89508 -0.506176 0
M  V30 416 H 38.9317 -1.61399 -0.18004 0
M  V30 417 H 40.9287 -2.92517 -2.97052 0
M  V30 418 H 39.5887 -1.77592 -2.71829 0
M  V30 419 H 40.5997 -5.07256 -1.04459 0
M  V30 420 H 37.2767 -3.13854 -2.75321 0
M  V30 421 H 38.6667 -6.67221 -0.791605 0
M  V30 422 N 41.3868 0.248026 -1.55636 0
M  V30 423 C 42.6358 0.974134 -1.76617 0
M  V30 424 C 42.9488 1.86528 -0.588796 0
M  V30 425 O 44.1548 2.62805 -0.681594 0
M  V30 426 C 42.6108 1.78213 -3.12679 0
M  V30 427 C 42.2188 0.93843 -4.38061 0
M  V30 428 C 43.9628 2.50104 -3.42999 0
M  V30 429 C 41.8698 1.74225 -5.65155 0
M  V30 430 H 40.7998 0.36745 -0.658405 0
M  V30 431 H 43.4508 0.22884 -1.82067 0
M  V30 432 H 41.8328 2.56933 -3.01333 0
M  V30 433 H 43.0068 0.193635 -4.60393 0
M  V30 434 H 41.3218 0.332905 -4.15067 0
M  V30 435 H 43.9188 3.10694 -4.3517 0
M  V30 436 H 44.2618 3.21662 -2.64271 0
M  V30 437 H 44.7948 1.78395 -3.55556 0
M  V30 438 H 41.5338 1.07043 -6.46701 0
M  V30 439 H 41.0538 2.46235 -5.46926 0
M  V30 440 H 42.7328 2.30967 -6.0437 0
M  V30 441 N 42.8649 1.48995 0.513639 0
M  V30 442 C 44.0899 1.61792 1.29762 0
M  V30 443 C 44.5149 0.284475 1.85936 0
M  V30 444 O 43.8729 -0.746185 1.65232 0
M  V30 445 C 43.9209 2.67993 2.41272 0
M  V30 446 O 43.0249 2.26287 3.44772 0
M  V30 447 H 42.3659 0.541963 0.38363 0
M  V30 448 H 44.8959 1.95097 0.616307 0
M  V30 449 H 44.9059 2.89772 2.87221 0
M  V30 450 H 43.5809 3.64791 1.9975 0
M  V30 451 H 42.1579 2.14788 3.04829 0
M  V30 452 N 44.343 -0.763751 1.37857 0
M  V30 453 C 45.589 -1.52483 1.33704 0
M  V30 454 C 45.922 -1.94051 -0.0759612 0
M  V30 455 O 45.197 -1.64675 -1.03501 0
M  V30 456 C 45.48 -2.78441 2.28348 0
M  V30 457 C 45.333 -2.43075 3.78463 0
M  V30 458 C 46.652 -3.80415 2.21298 0
M  V30 459 H 43.771 -0.553169 0.487005 0
M  V30 460 H 46.413 -0.875562 1.68624 0
M  V30 461 H 44.563 -3.33842 1.987 0
M  V30 462 H 46.235 -1.93527 4.18742 0
M  V30 463 H 44.478 -1.75666 3.96641 0
M  V30 464 H 45.149 -3.33149 4.40132 0
M  V30 465 H 47.625 -3.34527 2.47449 0
M  V30 466 H 46.501 -4.66257 2.89647 0
M  V30 467 H 46.762 -4.25262 1.20849 0
M  V30 468 N 45.8211 -1.22559 -0.990812 0
M  V30 469 C 47.0461 -1.07862 -1.77145 0
M  V30 470 C 47.4711 0.366447 -1.84496 0
M  V30 471 O 46.8291 1.26478 -1.29896 0
M  V30 472 C 46.8771 -1.69686 -3.18181 0
M  V30 473 O 45.9811 -0.951946 -4.01263 0
M  V30 474 H 45.3221 -0.378712 -0.545411 0
M  V30 475 H 47.8521 -1.62399 -1.2445 0
M  V30 476 H 47.8621 -1.74496 -3.68802 0
M  V30 477 H 46.5371 -2.74841 -3.12146 0
M  V30 478 H 45.1141 -0.980011 -3.59792 0
M  V30 479 N 47.2992 1.18797 -1.03562 0
M  V30 480 C 48.2622 2.20464 -0.626769 0
M  V30 481 C 49.2622 1.57721 0.313173 0
M  V30 482 O 50.4522 1.73917 0.0992615 0
M  V30 483 C 47.5842 3.40802 0.0818498 0
M  V30 484 H 48.7772 2.58149 -1.5264 0
M  V30 485 H 46.3302 1.32593 -0.827578 0
M  V30 486 H 47.0652 3.08642 0.995518 0
M  V30 487 H 46.8502 3.8758 -0.593652 0
M  V30 488 H 48.3402 4.16092 0.354584 0
M  V30 489 N 48.7773 0.814389 1.34928 0
M  V30 490 C 50.1883 0.458364 1.80986 0
M  V30 491 C 50.5393 -1.02042 1.67577 0
M  V30 492 O 49.6643 -1.79352 1.21086 0
M  V30 493 C 50.2593 0.825212 3.28597 0
M  V30 494 C 48.8183 0.521677 3.72767 0
M  V30 495 C 47.9653 1.04668 2.56788 0
M  V30 496 H 50.9163 1.00533 1.22795 0
M  V30 497 H 50.9373 0.12571 3.80292 0
M  V30 498 H 50.4493 1.90154 3.38324 0
M  V30 499 H 48.5503 -0.545589 3.68584 0
M  V30 500 H 48.6633 1.05977 4.67232 0
M  V30 501 H 47.0273 0.468622 2.50352 0
M  V30 502 H 47.8103 2.12927 2.6929 0
M  V30 503 N 50.2554 -1.46986 0.568584 0
M  V30 504 C 51.5044 -2.01646 0.0465894 0
M  V30 505 C 51.8174 -1.44721 -1.31587 0
M  V30 506 O 53.0234 -1.91113 -1.92842 0
M  V30 507 C 51.4794 -3.59885 0.032752 0
M  V30 508 C 51.0874 -4.25804 1.39266 0
M  V30 509 C 52.8314 -4.22255 -0.436038 0
M  V30 510 C 50.7384 -5.76081 1.33732 0
M  V30 511 H 49.6684 -0.753876 0.013647 0
M  V30 512 H 52.3194 -1.68864 0.718131 0
M  V30 513 H 50.7014 -3.8968 -0.704669 0
M  V30 514 H 51.8754 -4.07637 2.1487 0
M  V30 515 H 50.1904 -3.7547 1.80032 0
M  V30 516 H 52.7874 -5.32394 -0.49602 0
M  V30 517 H 53.1304 -3.90212 -1.45053 0
M  V30 518 H 53.6634 -3.97033 0.246877 0
M  V30 519 H 50.4024 -6.12761 2.32817 0
M  V30 520 H 49.9224 -5.96553 0.623267 0
M  V30 521 H 51.6014 -6.38518 1.0442 0
M  V30 522 N 51.7335 -0.305618 -1.54608 0
M  V30 523 C 52.9795 0.302746 -2.00528 0
M  V30 524 C 53.3125 1.53184 -1.19367 0
M  V30 525 O 52.5875 1.92598 -0.271321 0
M  V30 526 C 52.8705 0.654756 -3.54097 0
M  V30 527 C 52.7235 -0.583793 -4.45995 0
M  V30 528 C 54.0425 1.47947 -4.14487 0
M  V30 529 H 51.1615 0.108564 -0.72896 0
M  V30 530 H 53.8035 -0.418634 -1.85331 0
M  V30 531 H 51.9535 1.26935 -3.67178 0
M  V30 532 H 53.6255 -1.22224 -4.44814 0
M  V30 533 H 51.8685 -1.21615 -4.16404 0
M  V30 534 H 52.5395 -0.293287 -5.5122 0
M  V30 535 H 55.0155 0.96013 -4.04871 0
M  V30 536 H 53.8915 1.69454 -5.22088 0
M  V30 537 H 54.1525 2.47011 -3.66658 0
M  V30 538 N 53.2116 1.57565 -0.0334293 0
M  V30 539 C 54.1616 2.06978 0.956237 0
M  V30 540 C 55.1456 0.971193 1.28283 0
M  V30 541 O 56.3376 1.23471 1.26822 0
M  V30 542 C 53.4666 2.60393 2.23719 0
M  V30 543 C 52.5526 3.7719 1.93877 0
M  V30 544 N 52.9436 4.87639 1.34321 0
M  V30 545 C 51.2416 3.85758 2.23845 0
M  V30 546 C 51.9426 5.68825 1.21709 0
M  V30 547 N 50.9186 5.1587 1.71404 0
M  V30 548 H 54.7206 2.89773 0.490815 0
M  V30 549 H 52.2346 1.61492 0.171478 0
M  V30 550 H 54.2316 2.94088 2.95496 0
M  V30 551 H 52.8916 1.79031 2.70884 0
M  V30 552 H 53.9026 5.07803 1.01767 0
M  V30 553 H 50.5796 3.1531 2.73653 0
M  V30 554 H 51.9696 6.67631 0.75621 0
M  V30 555 N 54.6897 -0.239769 1.55765 0
M  V30 556 C 55.6197 -1.30052 1.9393 0
M  V30 557 C 56.6007 -1.49839 0.805132 0
M  V30 558 O 57.7857 -1.62328 1.06599 0
M  V30 559 C 54.9157 -2.65391 2.2402 0
M  V30 560 C 53.8697 -2.60289 3.39755 0
M  V30 561 C 53.1957 -3.99489 3.55405 0
M  V30 562 C 54.4957 -2.16654 4.75246 0
M  V30 563 H 56.1897 -0.983573 2.82783 0
M  V30 564 H 53.7357 -0.471701 1.36055 0
M  V30 565 H 55.6887 -3.3974 2.49308 0
M  V30 566 H 54.4127 -2.98736 1.32 0
M  V30 567 H 53.0717 -1.88398 3.14487 0
M  V30 568 H 52.7197 -4.30112 2.60793 0
M  V30 569 H 52.4197 -3.96962 4.33238 0
M  V30 570 H 53.9437 -4.75528 3.83022 0
M  V30 571 H 55.3577 -2.80737 4.99859 0
M  V30 572 H 53.7547 -2.25223 5.56232 0
M  V30 573 H 54.8247 -1.11835 4.71827 0
M  V30 574 N 56.1678 -1.49265 -0.50573 0
M  V30 575 C 57.4158 -1.582 -1.25766 0
M  V30 576 C 57.7368 -0.268482 -1.93143 0
M  V30 577 O 57.0068 0.711833 -1.8251 0
M  V30 578 H 55.5868 -0.582873 -0.467191 0
M  V30 579 H 58.2488 -1.85865 -0.586525 0
M  V30 580 H 57.3448 -2.37563 -2.02412 0
M  V30 581 N 57.6459 0.756429 -1.3826 0
M  V30 582 C 58.9229 1.50584 -1.24835 0
M  V30 583 C 59.3029 2.10556 0.151485 0
M  V30 584 O 58.6509 1.96825 1.1607 0
M  V30 585 C 58.8609 2.57448 -2.3563 0
M  V30 586 C 60.2089 3.24429 -2.73917 0
M  V30 587 O 61.2329 2.67751 -2.34921 0
M  V30 588 O 60.0919 4.26937 -3.41156 0
M  V30 589 H 57.1859 0.667664 -0.48801 0
M  V30 590 H 59.7319 0.792083 -1.5008 0
M  V30 591 H 58.5039 2.11362 -3.29305 0
M  V30 592 H 58.1269 3.36408 -2.11933 0
M  V30 593 N 59.124 1.23083 0.984299 0
M  V30 594 C 60.535 1.05609 1.5396 0
M  V30 595 C 60.886 -0.377793 1.92528 0
M  V30 596 O 60.011 -1.26398 1.75649 0
M  V30 597 C 60.606 1.91087 2.7977 0
M  V30 598 C 59.165 1.77885 3.31713 0
M  V30 599 C 58.312 1.87028 2.04733 0
M  V30 600 H 61.263 1.36802 0.804419 0
M  V30 601 H 61.284 1.43336 3.5247 0
M  V30 602 H 60.796 2.9544 2.51668 0
M  V30 603 H 58.897 0.762995 3.64704 0
M  V30 604 H 59.01 2.61047 4.01735 0
M  V30 605 H 57.374 1.30565 2.18689 0
M  V30 606 H 58.157 2.92929 1.79017 0
M  V30 607 N 60.6021 -1.18246 1.0419 0
M  V30 608 C 61.8511 -1.87588 0.741194 0
M  V30 609 C 62.1641 -1.81303 -0.734066 0
M  V30 610 O 63.3701 -2.46019 -1.14834 0
M  V30 611 C 61.8261 -3.36538 1.27555 0
M  V30 612 C 61.4341 -3.51349 2.77953 0
M  V30 613 C 63.1781 -4.11273 1.05143 0
M  V30 614 C 61.0851 -4.94265 3.2474 0
M  V30 615 H 60.0151 -0.702622 0.273565 0
M  V30 616 H 62.6661 -1.33601 1.25789 0
M  V30 617 H 61.0481 -3.9 0.686703 0
M  V30 618 H 62.2221 -3.08153 3.42605 0
M  V30 619 H 60.5371 -2.90022 2.98791 0
M  V30 620 H 63.1341 -5.16689 1.37611 0
M  V30 621 H 63.4771 -4.16298 -0.0112774 0
M  V30 622 H 64.0101 -3.63987 1.60495 0
M  V30 623 H 60.7491 -4.94408 4.30396 0
M  V30 624 H 60.2691 -5.38172 2.64823 0
M  V30 625 H 61.9481 -5.62987 3.18834 0
M  V30 626 N 62.0802 -0.821533 -1.34494 0
M  V30 627 C 63.3082 -0.421884 -2.02553 0
M  V30 628 C 63.7232 0.971745 -1.61872 0
M  V30 629 O 63.0802 1.62864 -0.823496 0
M  V30 630 C 63.1312 -0.51285 -3.57844 0
M  V30 631 O 62.8522 -1.85155 -3.97051 0
M  V30 632 C 64.3532 -0.107921 -4.43169 0
M  V30 633 H 61.5732 -0.169482 -0.649243 0
M  V30 634 H 64.1172 -1.1093 -1.71798 0
M  V30 635 H 62.2722 0.126474 -3.87193 0
M  V30 636 H 62.6862 -1.82482 -4.91732 0
M  V30 637 H 64.1602 -0.222657 -5.51551 0
M  V30 638 H 64.6372 0.948401 -4.28838 0
M  V30 639 H 65.2432 -0.720989 -4.19144 0
M  V30 640 N 63.5583 1.46682 -0.576371 0
M  V30 641 C 64.5213 2.28707 0.150239 0
M  V30 642 C 65.5213 1.38035 0.824794 0
M  V30 643 O 66.7113 1.60476 0.677719 0
M  V30 644 C 63.8433 3.18248 1.22192 0
M  V30 645 H 65.0363 2.94423 -0.570521 0
M  V30 646 H 62.5893 1.52688 -0.334078 0
M  V30 647 H 63.3243 2.57265 1.97447 0
M  V30 648 H 63.1093 3.85 0.742812 0
M  V30 649 H 64.5993 3.80001 1.73172 0
M  V30 650 N 65.0364 0.313813 1.54444 0
M  V30 651 C 66.2614 -0.296681 2.05267 0
M  V30 652 C 66.6864 -1.45757 1.18897 0
M  V30 653 O 66.0444 -1.80239 0.195886 0
M  V30 654 C 66.0924 -0.71831 3.53373 0
M  V30 655 O 65.1964 -1.82175 3.69981 0
M  V30 656 H 64.5374 -0.0554061 0.661684 0
M  V30 657 H 67.0674 0.459387 1.99376 0
M  V30 658 H 67.0774 -1.00364 3.95463 0
M  V30 659 H 65.7524 0.130821 4.15694 0
M  V30 660 H 64.3294 -1.53598 3.39797 0
M  V30 661 N 66.5145 -1.57545 0.0417849 0
M  V30 662 C 67.7545 -1.94185 -0.63809 0
M  V30 663 C 68.1185 -0.919339 -1.68559 0
M  V30 664 O 69.3195 -1.17236 -2.41886 0
M  V30 665 C 67.5905 -3.35672 -1.22714 0
M  V30 666 S 69.1495 -3.94256 -1.92633 0
M  V30 667 H 65.9675 -0.679353 -0.209764 0
M  V30 668 H 68.5695 -1.95199 0.108479 0
M  V30 669 H 67.2735 -4.07898 -0.452503 0
M  V30 670 H 66.8045 -3.38132 -2.01073 0
M  V30 671 H 68.8195 -3.7872 -3.20602 0
M  V30 672 N 67.9926 0.231505 -1.5589 0
M  V30 673 C 69.2416 0.955346 -1.7764 0
M  V30 674 C 69.5546 1.85893 -0.608546 0
M  V30 675 O 70.7606 2.62067 -0.70943 0
M  V30 676 C 69.2166 1.74886 -3.14552 0
M  V30 677 C 68.8246 0.891915 -4.39032 0
M  V30 678 C 70.5686 2.46452 -3.45633 0
M  V30 679 C 68.4756 1.68221 -5.66971 0
M  V30 680 H 67.4056 0.360446 -0.662265 0
M  V30 681 H 70.0566 0.209516 -1.823 0
M  V30 682 H 68.4386 2.53723 -3.04041 0
M  V30 683 H 69.6126 0.144793 -4.60572 0
M  V30 684 H 67.9276 0.288863 -4.15397 0
M  V30 685 H 70.5246 3.06061 -4.38441 0
M  V30 686 H 70.8676 3.18841 -2.67668 0
M  V30 687 H 71.4006 1.74613 -3.57428 0
M  V30 688 H 68.1396 1.00178 -6.478 0
M  V30 689 H 67.6596 2.4042 -5.49507 0
M  V30 690 H 69.3386 2.24544 -6.06786 0
M  V30 691 N 69.4707 1.49531 0.497807 0
M  V30 692 C 70.7197 1.58426 1.24837 0
M  V30 693 C 71.0327 0.277643 1.93619 0
M  V30 694 O 72.2387 0.24517 2.70391 0
M  V30 695 C 70.6947 2.79538 2.26686 0
M  V30 696 C 70.3027 4.16971 1.63828 0
M  V30 697 C 72.0467 2.97764 3.0255 0
M  V30 698 C 69.9537 5.29301 2.63807 0
M  V30 699 H 68.8837 0.58989 0.469623 0
M  V30 700 H 71.5347 1.75923 0.521857 0
M  V30 701 H 69.9167 2.55542 3.02514 0
M  V30 702 H 71.0907 4.51116 0.939711 0
M  V30 703 H 69.4057 4.04129 1.00342 0
M  V30 704 H 72.0027 3.78856 3.77323 0
M  V30 705 H 72.3457 2.08448 3.60354 0
M  V30 706 H 72.8787 3.21815 2.33838 0
M  V30 707 H 69.6177 6.20687 2.10779 0
M  V30 708 H 69.1377 4.99606 3.31894 0
M  V30 709 H 70.8167 5.58768 3.2617 0
M  V30 710 N 70.9488 -0.749086 1.3866 0
M  V30 711 C 71.8958 -1.86291 1.36251 0
M  V30 712 C 72.8658 -1.64578 0.224347 0
M  V30 713 O 74.0508 -1.86181 0.417279 0
M  V30 714 C 71.1908 -3.23644 1.19786 0
M  V30 715 C 70.3038 -3.57158 2.43027 0
M  V30 716 C 69.4388 -4.83838 2.19258 0
M  V30 717 C 68.4778 -5.10152 3.38247 0
M  V30 718 N 67.6148 -6.28029 3.13884 0
M  V30 719 H 72.4548 -1.87685 2.3147 0
M  V30 720 H 69.9918 -0.917287 1.14997 0
M  V30 721 H 71.9498 -4.0291 1.08254 0
M  V30 722 H 70.5798 -3.21566 0.282031 0
M  V30 723 H 69.6318 -2.72701 2.65214 0
M  V30 724 H 70.9438 -3.7253 3.31697 0
M  V30 725 H 70.0978 -5.71057 2.04888 0
M  V30 726 H 68.8368 -4.70614 1.2796 0
M  V30 727 H 67.8418 -4.21401 3.53131 0
M  V30 728 H 69.0668 -5.25271 4.30427 0
M  V30 729 H 67.0128 -6.1612 2.25238 0
M  V30 730 H 66.9298 -6.43922 3.96106 0
M  V30 731 H 68.1978 -7.18124 3.03179 0
M  V30 732 N 72.4269 -1.23603 -0.977757 0
M  V30 733 C 73.3589 -0.977369 -2.07317 0
M  V30 734 C 74.3719 0.0495845 -1.62724 0
M  V30 735 O 75.5609 -0.186261 -1.77526 0
M  V30 736 C 72.6609 -0.451216 -3.35883 0
M  V30 737 C 71.8339 -1.53896 -4.09432 0
M  V30 738 C 70.8929 -1.01721 -5.16274 0
M  V30 739 O 69.9189 -1.70676 -5.43009 0
M  V30 740 N 71.1209 0.153594 -5.80297 0
M  V30 741 H 73.8859 -1.92047 -2.30082 0
M  V30 742 H 71.4469 -1.14497 -1.14465 0
M  V30 743 H 73.4389 -0.0871574 -4.04606 0
M  V30 744 H 72.0089 0.397368 -3.10064 0
M  V30 745 H 71.2289 -2.07566 -3.35127 0
M  V30 746 H 72.5169 -2.27037 -4.55337 0
M  V30 747 H 71.9149 0.730323 -5.60966 0
M  V30 748 H 70.4719 0.458892 -6.50183 0
M  V30 749 N 73.905 1.17692 -1.04816 0
M  V30 750 C 74.853 2.23632 -0.63966 0
M  V30 751 C 75.847 1.6601 0.337219 0
M  V30 752 O 77.053 1.78844 0.203693 0
M  V30 753 H 73.428 0.727949 -0.188665 0
M  V30 754 H 75.399 2.55387 -1.54337 0
M  V30 755 C 74.148 3.4769 -0.0264051 0
M  V30 756 H 73.471 3.92331 -0.769164 0
M  V30 757 H 74.911 4.23418 0.222098 0
M  V30 758 C 73.37 3.13807 1.22584 0
M  V30 759 O 73.9 3.28236 2.31569 0
M  V30 760 N 72.106 2.68065 1.12202 0
M  V30 761 H 71.653 2.56525 0.235133 0
M  V30 762 H 71.611 2.45767 1.96076 0
M  V30 763 N 75.3831 0.828654 1.34056 0
M  V30 764 C 76.6231 0.425394 1.99924 0
M  V30 765 C 76.9871 -0.994294 1.64249 0
M  V30 766 O 78.1881 -1.50074 2.23005 0
M  V30 767 C 76.4591 0.628071 3.51838 0
M  V30 768 S 78.0181 0.318511 4.37642 0
M  V30 769 H 74.8361 0.160465 0.692656 0
M  V30 770 H 77.4381 1.07572 1.63244 0
M  V30 771 H 76.1421 1.66089 3.7529 0
M  V30 772 H 75.6731 -0.0367799 3.93383 0
M  V30 773 H 77.6881 -0.865632 4.88591 0
M  V30 774 N 76.8612 -1.46375 0.584142 0
M  V30 775 C 78.0862 -2.07268 0.0740405 0
M  V30 776 C 78.5112 -1.42979 -1.22223 0
M  V30 777 O 77.8692 -0.514092 -1.73859 0
M  V30 778 C 77.9172 -3.60518 -0.0767769 0
M  V30 779 O 77.0212 -3.96533 -1.13292 0
M  V30 780 H 76.3622 -0.660961 0.0634524 0
M  V30 781 H 78.8922 -1.87991 0.807492 0
M  V30 782 H 78.9022 -4.07021 -0.282489 0
M  V30 783 H 77.5772 -4.06702 0.86986 0
M  V30 784 H 76.1542 -3.61738 -0.905553 0
M  V30 785 N 78.3393 -0.321999 -1.54275 0
M  V30 786 C 79.2893 0.560185 -2.21011 0
M  V30 787 C 80.2733 1.08283 -1.19011 0
M  V30 788 O 81.4653 1.02011 -1.44647 0
M  V30 789 C 78.5943 1.72137 -2.97025 0
M  V30 790 C 77.6803 1.21369 -4.06363 0
M  V30 791 N 78.0713 0.425566 -5.04007 0
M  V30 792 C 76.3693 1.49255 -4.20284 0
M  V30 793 C 77.0703 0.152601 -5.815 0
M  V30 794 N 76.0463 0.738294 -5.38563 0
M  V30 795 H 79.8483 -0.049265 -2.93859 0
M  V30 796 H 77.3623 -0.127779 -1.61897 0
M  V30 797 H 79.3593 2.36512 -3.43319 0
M  V30 798 H 78.0193 2.33431 -2.25699 0
M  V30 799 H 79.0303 0.068551 -5.17855 0
M  V30 800 H 75.7073 2.11145 -3.60172 0
M  V30 801 H 77.0973 -0.481764 -6.70171 0
M  V30 802 N 79.8174 1.5752 -0.0501392 0
M  V30 803 C 80.7474 2.14502 0.922566 0
M  V30 804 C 81.7284 1.06642 1.3252 0
M  V30 805 O 82.9134 1.34577 1.4001 0
M  V30 806 C 80.0434 2.68916 2.19776 0
M  V30 807 C 78.9974 3.8175 1.93523 0
M  V30 808 C 78.3234 4.22677 3.27487 0
M  V30 809 C 79.6234 5.06932 1.25765 0
M  V30 810 H 81.3174 2.9603 0.447952 0
M  V30 811 H 78.8634 1.42401 0.214024 0
M  V30 812 H 80.8164 3.07419 2.88222 0
M  V30 813 H 79.5404 1.84578 2.69441 0
M  V30 814 H 78.1994 3.43718 1.27489 0
M  V30 815 H 77.8474 3.35291 3.74952 0
M  V30 816 H 77.5474 4.98725 3.1072 0
M  V30 817 H 79.0714 4.63779 3.97166 0
M  V30 818 H 80.4854 5.42888 1.84244 0
M  V30 819 H 78.8824 5.88116 1.19328 0
M  V30 820 H 79.9524 4.84337 0.233536 0
M  V30 821 N 81.2955 -0.223234 1.56011 0
M  V30 822 C 82.5725 -0.972108 1.69733 0
M  V30 823 C 82.9525 -2.02485 0.59691 0
M  V30 824 O 82.3005 -2.25037 -0.396324 0
M  V30 825 C 82.5105 -1.58407 3.10979 0
M  V30 826 C 83.8585 -2.07696 3.70334 0
M  V30 827 O 84.8825 -1.68304 3.1393 0
M  V30 828 O 83.7415 -2.80096 4.69264 0
M  V30 829 H 80.8355 -0.453993 0.691245 0
M  V30 830 H 83.3815 -0.215149 1.68331 0
M  V30 831 H 82.1535 -0.823831 3.82529 0
M  V30 832 H 81.7765 -2.40661 3.16493 0
M  V30 833 N 82.7736 -1.49793 -0.48987 0
M  V30 834 C 84.1846 -1.52914 -1.07118 0
M  V30 835 C 84.5356 -0.321738 -1.93544 0
M  V30 836 O 83.6606 0.567338 -2.08831 0
M  V30 837 C 84.2556 -2.771 -1.94938 0
M  V30 838 C 82.8146 -2.82963 -2.48212 0
M  V30 839 C 81.9616 -2.46972 -1.26096 0
M  V30 840 H 84.9126 -1.56329 -0.273289 0
M  V30 841 H 84.9336 -2.57892 -2.79771 0
M  V30 842 H 84.4456 -3.64959 -1.32009 0
M  V30 843 H 82.5466 -1.99411 -3.14748 0
M  V30 844 H 82.6596 -3.85406 -2.84603 0
M  V30 845 H 81.0236 -1.98994 -1.58976 0
M  V30 846 H 81.8066 -3.37118 -0.648581 0
M  V30 847 N 84.2517 0.741722 -1.39055 0
M  V30 848 C 85.1617 1.88621 -1.39496 0
M  V30 849 C 86.1777 1.71557 -0.290578 0
M  V30 850 O 87.3537 1.94275 -0.530954 0
M  V30 851 C 84.4187 3.24134 -1.23037 0
M  V30 852 C 83.4797 3.5364 -2.43387 0
M  V30 853 C 82.7127 4.82687 -2.27703 0
M  V30 854 O 82.9357 5.55922 -1.27696 0
M  V30 855 O 81.8697 5.1194 -3.16545 0
M  V30 856 H 85.6957 1.91203 -2.35956 0
M  V30 857 H 83.2807 0.888625 -1.20099 0
M  V30 858 H 85.1627 4.0513 -1.15964 0
M  V30 859 H 83.8377 3.22337 -0.296691 0
M  V30 860 H 82.7447 2.72758 -2.56035 0
M  V30 861 H 84.0777 3.60209 -3.35425 0
M  V30 862 N 85.7298 1.2412 0.971189 0
M  V30 863 C 87.1408 1.07236 1.52831 0
M  V30 864 C 87.4918 -0.357352 1.92918 0
M  V30 865 O 86.6168 -1.24528 1.76979 0
M  V30 866 C 87.2118 1.94043 2.77728 0
M  V30 867 C 85.7708 1.81394 3.29808 0
M  V30 868 C 84.9178 1.89189 2.02738 0
M  V30 869 H 87.8688 1.37648 0.789864 0
M  V30 870 H 87.8898 1.47066 3.5093 0
M  V30 871 H 87.4018 2.98093 2.4852 0
M  V30 872 H 85.5028 0.801634 3.63874 0
M  V30 873 H 85.6158 2.65294 3.98944 0
M  V30 874 H 83.9798 1.32877 2.17292 0
M  V30 875 H 84.7628 2.94812 1.759 0
M  V30 876 N 87.2079 -1.17134 1.05439 0
M  V30 877 C 88.1399 -2.2078 0.615539 0
M  V30 878 C 89.1529 -1.59584 -0.322001 0
M  V30 879 O 90.3419 -1.78133 -0.114344 0
M  V30 880 C 87.4419 -3.38691 -0.118938 0
M  V30 881 C 86.6149 -4.29454 0.829924 0
M  V30 882 C 85.6739 -5.26024 0.136258 0
M  V30 883 O 84.6999 -5.63952 0.77115 0
M  V30 884 N 85.9019 -5.69487 -1.1254 0
M  V30 885 H 88.6669 -2.59052 1.50705 0
M  V30 886 H 86.2279 -1.32058 0.936603 0
M  V30 887 H 88.2199 -4.00329 -0.593179 0
M  V30 888 H 86.7899 -2.98996 -0.91215 0
M  V30 889 H 86.0099 -3.65211 1.48373 0
M  V30 890 H 87.2979 -4.86984 1.47392 0
M  V30 891 H 86.6959 -5.4075 -1.6615 0
M  V30 892 H 85.2529 -6.33257 -1.54366 0
M  V30 893 N 88.686 -0.835752 -1.33615 0
M  V30 894 C 89.935 -0.426289 -1.97144 0
M  V30 895 C 90.248 1.01912 -1.66953 0
M  V30 896 O 91.454 1.53311 -2.24072 0
M  V30 897 C 89.91 -0.711321 -3.52801 0
M  V30 898 C 89.518 -2.1712 -3.91871 0
M  V30 899 C 91.262 -0.368654 -4.22896 0
M  V30 900 C 89.169 -2.40044 -5.40493 0
M  V30 901 H 88.099 -0.15567 -0.737755 0
M  V30 902 H 90.75 -1.0239 -1.52278 0
M  V30 903 H 89.132 -0.0433766 -3.95976 0
M  V30 904 H 90.306 -2.87936 -3.59763 0
M  V30 905 H 88.621 -2.47654 -3.34749 0
M  V30 906 H 91.218 -0.517601 -5.32189 0
M  V30 907 H 91.561 0.688078 -4.10574 0
M  V30 908 H 92.094 -0.991702 -3.8524 0
M  V30 909 H 88.833 -3.44271 -5.57815 0
M  V30 910 H 88.353 -1.73785 -5.74072 0
M  V30 911 H 90.032 -2.23042 -6.0734 0
M  V30 912 N 90.1641 1.46063 -0.591896 0
M  V30 913 C 91.0941 2.33172 0.123673 0
M  V30 914 C 92.0751 1.45897 0.87453 0
M  V30 915 O 93.2601 1.74698 0.848181 0
M  V30 916 C 90.3901 3.28336 1.13194 0
M  V30 917 C 89.3441 4.25124 0.495324 0
M  V30 918 C 88.6701 5.09863 1.61071 0
M  V30 919 C 89.9701 5.19143 -0.573425 0
M  V30 920 H 91.6641 2.93252 -0.603646 0
M  V30 921 H 89.2101 1.41014 -0.291741 0
M  V30 922 H 91.1631 3.88137 1.64097 0
M  V30 923 H 89.8871 2.66383 1.88965 0
M  V30 924 H 88.5461 3.66599 0.00729452 0
M  V30 925 H 88.1941 4.44288 2.35832 0
M  V30 926 H 87.8941 5.75417 1.19035 0
M  V30 927 H 89.4181 5.72529 2.12233 0
M  V30 928 H 90.8321 5.73106 -0.1491 0
M  V30 929 H 89.2291 5.93089 -0.914636 0
M  V30 930 H 90.2991 4.62519 -1.45617 0
M  V30 931 N 91.6422 0.330177 1.54103 0
M  V30 932 C 92.8882 -0.263542 2.01685 0
M  V30 933 C 93.2432 -1.49258 1.21408 0
M  V30 934 O 92.5362 -1.89395 0.289852 0
M  V30 935 C 92.7302 -0.643134 3.51566 0
M  V30 936 C 92.5592 0.547571 4.46354 0
M  V30 937 C 91.3292 1.04873 4.94297 0
M  V30 938 C 93.5272 1.40184 4.94826 0
M  V30 939 N 91.5092 2.20316 5.73005 0
M  V30 940 C 92.8802 2.40335 5.71524 0
M  V30 941 C 94.9352 1.42884 4.76958 0
M  V30 942 C 93.6382 3.42998 6.32254 0
M  V30 943 C 95.6642 2.44421 5.38528 0
M  V30 944 C 95.0262 3.43298 6.15082 0
M  V30 945 H 91.1252 -0.0601026 0.779687 0
M  V30 946 H 93.7092 0.466714 1.89023 0
M  V30 947 H 91.8802 -1.34251 3.6446 0
M  V30 948 H 93.6122 -1.21889 3.85908 0
M  V30 949 H 90.3672 0.618956 4.69538 0
M  V30 950 H 90.7912 2.78565 6.17034 0
M  V30 951 H 95.4332 0.678049 4.17328 0
M  V30 952 H 93.1512 4.1898 6.91 0
M  V30 953 H 96.7372 2.4732 5.26616 0
M  V30 954 H 95.6172 4.20579 6.61878 0
M  V30 955 N 93.1203 -1.57491 0.0584922 0
M  V30 956 C 94.5363 -1.56792 -0.298091 0
M  V30 957 C 94.7363 -1.06679 -1.70944 0
M  V30 958 O 93.7923 -0.726672 -2.41818 0
M  V30 959 C 95.1053 -3.00461 -0.119879 0
M  V30 960 C 96.6533 -3.1242 -0.190428 0
M  V30 961 C 97.1283 -4.57982 -0.0406567 0
M  V30 962 N 98.6193 -4.63099 -0.0966958 0
M  V30 963 C 99.3543 -5.734 -0.00502943 0
M  V30 964 N 98.8503 -6.9266 0.139402 0
M  V30 965 N 100.643 -5.62067 -0.0611391 0
M  V30 966 H 92.7943 -1.88386 0.98105 0
M  V30 967 H 95.0573 -0.867865 0.381463 0
M  V30 968 H 94.7633 -3.41187 0.85349 0
M  V30 969 H 94.6373 -3.66843 -0.877833 0
M  V30 970 H 97.0243 -2.71589 -1.15427 0
M  V30 971 H 97.1053 -2.48702 0.598405 0
M  V30 972 H 96.7493 -4.995 0.919897 0
M  V30 973 H 96.6793 -5.19715 -0.848727 0
M  V30 974 H 99.1703 -3.77331 -0.207277 0
M  V30 975 H 99.4833 -7.72536 0.201855 0
M  V30 976 H 97.8283 -6.94781 0.174586 0
M  V30 977 H 101.019 -4.67782 -0.172583 0
M  V30 978 H 101.192 -6.47999 0.0137562 0
M  V30 979 N 94.5984 0.214957 -1.56127 0
M  V30 980 C 95.5284 1.2695 -1.95974 0
M  V30 981 C 96.5094 1.48539 -0.828868 0
M  V30 982 O 97.6944 1.60611 -1.09168 0
M  V30 983 C 94.8244 2.61794 -2.28214 0
M  V30 984 C 93.7784 2.54851 -3.43853 0
M  V30 985 C 93.1044 3.93785 -3.61715 0
M  V30 986 C 94.4044 2.09065 -4.78632 0
M  V30 987 H 96.0984 0.93846 -2.84312 0
M  V30 988 H 93.6444 0.449996 -1.36788 0
M  V30 989 H 95.5974 3.35731 -2.54682 0
M  V30 990 H 94.3214 2.96599 -1.36736 0
M  V30 991 H 92.9804 1.8337 -3.17444 0
M  V30 992 H 92.6284 4.25908 -2.67602 0
M  V30 993 H 92.3284 3.90019 -4.39498 0
M  V30 994 H 93.8524 4.69374 -3.90539 0
M  V30 995 H 95.2664 2.7275 -5.04262 0
M  V30 996 H 93.6634 2.16346 -5.59745 0
M  V30 997 H 94.7334 1.04315 -4.73547 0
M  V30 998 N 96.0765 1.50051 0.48192 0
M  V30 999 C 97.3245 1.60181 1.23234 0
M  V30 1000 C 97.6455 0.299176 1.92691 0
M  V30 1001 O 96.9155 -0.682708 1.83619 0
M  V30 1002 H 95.4955 0.590232 0.457859 0
M  V30 1003 H 98.1575 1.86775 0.556881 0
M  V30 1004 H 97.2535 2.40753 1.98607 0
M  V30 1005 N 97.5546 -0.734337 1.39446 0
M  V30 1006 C 98.5176 -1.83004 1.37994 0
M  V30 1007 C 99.5176 -1.58397 0.276938 0
M  V30 1008 O 100.708 -1.65785 0.534875 0
M  V30 1009 C 97.8396 -3.20802 1.1532 0
M  V30 1010 H 99.0326 -1.85694 2.35494 0
M  V30 1011 H 96.5856 -0.938059 1.25021 0
M  V30 1012 H 97.3206 -3.23772 0.185036 0
M  V30 1013 H 97.1056 -3.4006 1.95197 0
M  V30 1014 H 98.5956 -4.00862 1.17046 0
M  V30 1015 N 99.0327 -1.24633 -0.964593 0
M  V30 1016 C 99.9427 -1.05859 -2.09359 0
M  V30 1017 C 100.959 0.00148855 -1.74 0
M  V30 1018 O 102.135 -0.197346 -2.00431 0
M  V30 1019 C 99.1997 -0.668879 -3.40187 0
M  V30 1020 C 98.2607 -1.80578 -3.89474 0
M  V30 1021 C 97.4937 -1.43457 -5.14058 0
M  V30 1022 O 97.7167 -0.325775 -5.69469 0
M  V30 1023 O 96.6507 -2.2613 -5.57807 0
M  V30 1024 H 100.477 -2.00516 -2.28094 0
M  V30 1025 H 98.0617 -1.03481 -1.0776 0
M  V30 1026 H 99.9437 -0.463211 -4.18846 0
M  V30 1027 H 98.6187 0.248536 -3.22744 0
M  V30 1028 H 97.5257 -2.06623 -3.11862 0
M  V30 1029 H 98.8587 -2.70208 -4.11398 0
M  V30 1030 N 100.511 1.16574 -1.06058 0
M  V30 1031 C 101.441 2.23057 -0.690488 0
M  V30 1032 C 102.422 1.67141 0.315901 0
M  V30 1033 O 103.607 1.93253 0.191556 0
M  V30 1034 C 100.737 3.47222 -0.073625 0
M  V30 1035 C 99.6908 4.16016 -1.00573 0
M  V30 1036 C 99.0168 5.34104 -0.252289 0
M  V30 1037 C 100.317 4.67264 -2.33371 0
M  V30 1038 H 102.011 2.54271 -1.58072 0
M  V30 1039 H 99.5568 1.22218 -0.76149 0
M  V30 1040 H 101.51 4.20939 0.19714 0
M  V30 1041 H 100.234 3.15302 0.85161 0
M  V30 1042 H 98.8928 3.44223 -1.2612 0
M  V30 1043 H 98.5408 4.98437 0.675988 0
M  V30 1044 H 98.2408 5.81072 -0.873455 0
M  V30 1045 H 99.7648 6.10599 0.0109857 0
M  V30 1046 H 101.179 5.32573 -2.12223 0
M  V30 1047 H 99.5758 5.24843 -2.90963 0
M  V30 1048 H 100.646 3.83602 -2.96611 0
M  V30 1049 N 101.989 0.842826 1.3317 0
M  V30 1050 C 102.921 0.236245 2.27979 0
M  V30 1051 C 103.934 -0.585282 1.51915 0
M  V30 1052 O 105.123 -0.411705 1.73687 0
M  V30 1053 C 102.223 -0.685717 3.3189 0
M  V30 1054 C 101.396 0.0973448 4.37292 0
M  V30 1055 C 100.455 -0.748565 5.20848 0
M  V30 1056 O 99.4809 -0.186339 5.68895 0
M  V30 1057 N 100.683 -2.06527 5.42519 0
M  V30 1058 H 103.448 1.05088 2.80672 0
M  V30 1059 H 101.009 0.701667 1.45905 0
M  V30 1060 H 103.001 -1.25669 3.84694 0
M  V30 1061 H 101.571 -1.40105 2.79445 0
M  V30 1062 H 100.791 0.849706 3.84933 0
M  V30 1063 H 102.079 0.635643 5.04814 0
M  V30 1064 H 101.477 -2.54554 5.05192 0
M  V30 1065 H 100.034 -2.58464 5.98364 0
M  V30 1066 N 103.467 -1.45747 0.599634 0
M  V30 1067 C 104.878 -1.85853 0.177681 0
M  V30 1068 C 105.229 -1.50102 -1.26348 0
M  V30 1069 O 104.354 -0.923905 -1.95686 0
M  V30 1070 C 104.949 -3.37326 0.315688 0
M  V30 1071 C 103.508 -3.76365 -0.0515144 0
M  V30 1072 C 102.655 -2.69722 0.643822 0
M  V30 1073 H 105.606 -1.36661 0.806814 0
M  V30 1074 H 105.627 -3.77778 -0.454321 0
M  V30 1075 H 105.139 -3.63315 1.36468 0
M  V30 1076 H 103.24 -3.55993 -1.09999 0
M  V30 1077 H 103.353 -4.77916 0.336594 0
M  V30 1078 H 101.717 -2.54567 0.0822881 0
M  V30 1079 H 102.5 -2.98549 1.6948 0
M  V30 1080 N 104.945 -0.338344 -1.53925 0
M  V30 1081 C 106.193 0.259245 -2.0043 0
M  V30 1082 C 106.514 1.51484 -1.22791 0
M  V30 1083 O 105.784 1.93037 -0.33368 0
M  V30 1084 H 104.364 0.0987845 -0.740439 0
M  V30 1085 H 107.026 -0.458302 -1.89435 0
M  V30 1086 H 106.122 0.505334 -3.07982 0
M  V30 1087 N 106.423 1.57458 -0.0668435 0
M  V30 1088 C 107.671 1.92919 0.602214 0
M  V30 1089 C 107.992 0.947215 1.70449 0
M  V30 1090 O 107.262 -0.00544117 1.95899 0
M  V30 1091 H 105.842 0.71217 0.22544 0
M  V30 1092 H 108.504 1.94508 -0.123535 0
M  V30 1093 H 107.6 2.94589 1.03073 0
M  V30 1094 N 107.901 -0.206675 1.56239 0
M  V30 1095 C 109.317 -0.557025 1.49564 0
M  V30 1096 C 109.517 -1.86424 0.764735 0
M  V30 1097 O 108.573 -2.50584 0.310491 0
M  V30 1098 C 109.886 -0.622478 2.94186 0
M  V30 1099 C 111.434 -0.712099 3.04792 0
M  V30 1100 C 111.909 -0.808767 4.50803 0
M  V30 1101 N 113.4 -0.8726 4.54907 0
M  V30 1102 C 114.135 -0.967365 5.65181 0
M  V30 1103 N 113.631 -1.02515 6.85173 0
M  V30 1104 N 115.424 -1.00366 5.53067 0
M  V30 1105 H 107.575 0.650943 2.02179 0
M  V30 1106 H 109.838 0.230387 0.919579 0
M  V30 1107 H 109.544 0.268727 3.50672 0
M  V30 1108 H 109.418 -1.4811 3.46905 0
M  V30 1109 H 111.805 -1.59374 2.48363 0
M  V30 1110 H 111.886 0.172489 2.55218 0
M  V30 1111 H 111.53 0.0684754 5.07854 0
M  V30 1112 H 111.46 -1.70899 4.98098 0
M  V30 1113 H 113.951 -0.837657 3.68499 0
M  V30 1114 H 114.264 -1.09765 7.64965 0
M  V30 1115 H 112.609 -0.994026 6.87855 0
M  V30 1116 H 115.8 -0.95527 4.58249 0
M  V30 1117 H 115.973 -1.07405 6.39037 0
M  V30 1118 N 109.379 -1.50304 -0.473955 0
M  V30 1119 C 110.311 -1.65109 -1.58971 0
M  V30 1120 C 111.324 -0.532676 -1.53839 0
M  V30 1121 O 112.513 -0.805751 -1.59279 0
M  V30 1122 C 109.613 -1.61684 -2.97845 0
M  V30 1123 C 108.786 -2.8951 -3.27876 0
M  V30 1124 C 107.845 -2.78768 -4.4629 0
M  V30 1125 O 106.871 -3.52722 -4.46739 0
M  V30 1126 N 108.073 -1.9213 -5.47783 0
M  V30 1127 H 110.838 -2.61347 -1.46689 0
M  V30 1128 H 108.399 -1.47732 -0.662324 0
M  V30 1129 H 110.391 -1.52114 -3.75024 0
M  V30 1130 H 108.961 -0.731925 -3.03911 0
M  V30 1131 H 108.181 -3.13228 -2.39336 0
M  V30 1132 H 109.469 -3.74199 -3.4475 0
M  V30 1133 H 108.867 -1.31353 -5.50239 0
M  V30 1134 H 107.424 -1.88466 -6.23958 0
M  V30 1135 N 110.857 0.726932 -1.39834 0
M  V30 1136 C 111.789 1.85147 -1.35104 0
M  V30 1137 C 112.802 1.60736 -0.258392 0
M  V30 1138 O 113.991 1.70821 -0.517931 0
M  V30 1139 C 111.091 3.21332 -1.07697 0
M  V30 1140 C 110.264 3.73033 -2.28396 0
M  V30 1141 C 109.323 4.87802 -1.97322 0
M  V30 1142 O 108.349 5.01043 -2.70083 0
M  V30 1143 N 109.551 5.72768 -0.944273 0
M  V30 1144 H 112.316 1.89706 -2.32017 0
M  V30 1145 H 109.877 0.908006 -1.3404 0
M  V30 1146 H 111.869 3.95691 -0.849144 0
M  V30 1147 H 110.439 3.11992 -0.194909 0
M  V30 1148 H 109.659 2.89934 -2.6708 0
M  V30 1149 H 110.947 4.0431 -3.08887 0
M  V30 1150 H 110.345 5.64669 -0.341427 0
M  V30 1151 H 108.902 6.4716 -0.776346 0
M  V30 1152 N 112.336 1.25143 0.95797 0
M  V30 1153 C 113.752 1.01892 1.22842 0
M  V30 1154 C 113.952 -0.266311 1.99732 0
M  V30 1155 O 113.008 -0.979913 2.3271 0
M  V30 1156 C 114.321 2.24004 2.00606 0
M  V30 1157 C 115.869 2.28731 2.13662 0
M  V30 1158 C 116.344 3.5049 2.94823 0
M  V30 1159 N 117.835 3.50866 3.02403 0
M  V30 1160 C 118.57 4.4174 3.65586 0
M  V30 1161 N 118.066 5.42882 4.30408 0
M  V30 1162 N 119.859 4.29429 3.62694 0
M  V30 1163 H 112.01 2.07718 0.443493 0
M  V30 1164 H 114.273 0.912031 0.258657 0
M  V30 1165 H 113.979 3.17395 1.51503 0
M  V30 1166 H 113.853 2.26907 3.01319 0
M  V30 1167 H 116.24 1.35865 2.61963 0
M  V30 1168 H 116.321 2.29848 1.12265 0
M  V30 1169 H 115.965 4.43676 2.47213 0
M  V30 1170 H 115.895 3.46617 3.96439 0
M  V30 1171 H 118.386 2.777 2.56302 0
M  V30 1172 H 118.699 6.0844 4.76467 0
M  V30 1173 H 117.044 5.46758 4.29047 0
M  V30 1174 H 120.235 3.49643 3.11236 0
M  V30 1175 H 120.408 5.00448 4.1165 0
M  V30 1176 N 113.814 -1.1601 1.06675 0
M  V30 1177 C 114.744 -2.22688 0.702307 0
M  V30 1178 C 115.725 -1.67306 -0.307032 0
M  V30 1179 O 116.91 -1.93352 -0.181305 0
M  V30 1180 C 114.04 -3.47178 0.092038 0
M  V30 1181 C 112.994 -4.15477 1.02777 0
M  V30 1182 C 112.32 -5.33963 0.28061 0
M  V30 1183 C 113.62 -4.66019 2.35846 0
M  V30 1184 H 115.314 -2.53429 1.59419 0
M  V30 1185 H 112.86 -1.21813 0.767961 0
M  V30 1186 H 114.813 -4.21037 -0.174814 0
M  V30 1187 H 113.537 -3.15749 -0.834877 0
M  V30 1188 H 112.196 -3.43549 1.27944 0
M  V30 1189 H 111.844 -4.98788 -0.649545 0
M  V30 1190 H 111.544 -5.806 0.904258 0
M  V30 1191 H 113.068 -6.10596 0.021396 0
M  V30 1192 H 114.482 -5.3144 2.15045 0
M  V30 1193 H 112.879 -5.23293 2.93743 0
M  V30 1194 H 113.949 -3.82023 2.98641 0
M  V30 1195 N 115.292 -0.849877 -1.32721 0
M  V30 1196 C 116.517 -0.463856 -2.02146 0
M  V30 1197 C 116.942 0.930449 -1.63476 0
M  V30 1198 O 116.3 1.61033 -0.832952 0
M  V30 1199 C 116.348 -0.604955 -3.55489 0
M  V30 1200 O 115.452 0.36425 -4.10788 0
M  V30 1201 H 114.793 -0.187046 -0.637111 0
M  V30 1202 H 117.323 -1.14775 -1.69375 0
M  V30 1203 H 117.333 -0.490696 -4.05038 0
M  V30 1204 H 116.008 -1.62174 -3.82978 0
M  V30 1205 H 114.585 0.206628 -3.72327 0
M  V30 1206 N 116.77 1.45427 -0.607355 0
M  V30 1207 C 118.047 1.9557 -0.0344566 0
M  V30 1208 C 118.427 1.54979 1.43334 0
M  V30 1209 O 117.775 0.812241 2.13576 0
M  V30 1210 C 117.985 3.48226 -0.232321 0
M  V30 1211 C 119.333 4.2445 -0.113001 0
M  V30 1212 O 120.357 3.55829 -0.162431 0
M  V30 1213 O 119.216 5.465 0.00209442 0
M  V30 1214 H 116.31 0.826222 0.0358667 0
M  V30 1215 H 118.856 1.55594 -0.6774 0
M  V30 1216 H 117.628 3.70739 -1.25174 0
M  V30 1217 H 117.251 3.95092 0.445896 0
M  V30 1218 N 118.248 0.346503 1.53744 0
M  V30 1219 C 119.496 -0.248612 2.00565 0
M  V30 1220 C 119.817 -1.5083 1.23593 0
M  V30 1221 O 119.087 -1.92858 0.343912 0
M  V30 1222 H 117.667 -0.0948564 0.740953 0
M  V30 1223 H 120.329 0.468341 1.89189 0
M  V30 1224 H 119.425 -0.488994 3.08245 0
M  V30 1225 N 119.726 -1.57421 0.075193 0
M  V30 1226 C 120.954 -1.97946 -0.602076 0
M  V30 1227 C 121.369 -0.953674 -1.62943 0
M  V30 1228 O 120.726 0.0592551 -1.82404 0
M  V30 1229 C 120.777 -3.38546 -1.26762 0
M  V30 1230 O 120.498 -4.37195 -0.281376 0
M  V30 1231 C 121.999 -3.93966 -2.03239 0
M  V30 1232 H 119.219 -0.650918 -0.162931 0
M  V30 1233 H 121.763 -2.03959 0.148601 0
M  V30 1234 H 119.918 -3.33609 -1.96936 0
M  V30 1235 H 120.332 -5.18975 -0.759267 0
M  V30 1236 H 121.806 -4.94555 -2.45193 0
M  V30 1237 H 122.283 -3.30693 -2.8903 0
M  V30 1238 H 122.889 -4.02315 -1.37924 0
M  V30 1239 N 121.204 0.198386 -1.56346 0
M  V30 1240 C 122.136 1.26987 -1.90806 0
M  V30 1241 C 123.149 1.41877 -0.798419 0
M  V30 1242 O 124.338 1.42362 -1.07682 0
M  V30 1243 C 121.438 2.64246 -2.12196 0
M  V30 1244 C 120.611 2.71007 -3.43328 0
M  V30 1245 C 119.67 3.89439 -3.5387 0
M  V30 1246 O 118.696 3.76695 -4.26719 0
M  V30 1247 N 119.898 5.04752 -2.86715 0
M  V30 1248 H 122.663 0.977433 -2.83313 0
M  V30 1249 H 120.224 0.388322 -1.57174 0
M  V30 1250 H 122.216 3.41896 -2.1654 0
M  V30 1251 H 120.786 2.85992 -1.26204 0
M  V30 1252 H 120.006 1.79657 -3.50881 0
M  V30 1253 H 121.294 2.72512 -4.29668 0
M  V30 1254 H 120.692 5.18004 -2.2735 0
M  V30 1255 H 119.249 5.8036 -2.96691 0
M  V30 1256 N 122.682 1.50554 0.465978 0
M  V30 1257 C 123.592 1.72585 1.58907 0
M  V30 1258 C 124.608 0.60911 1.6299 0
M  V30 1259 O 125.784 0.88804 1.80765 0
M  V30 1260 C 122.849 1.81995 2.95091 0
M  V30 1261 C 121.91 3.05751 3.01355 0
M  V30 1262 C 121.143 3.14702 4.31043 0
M  V30 1263 O 121.366 2.30313 5.21835 0
M  V30 1264 O 120.3 4.07468 4.43005 0
M  V30 1265 H 124.126 2.67799 1.43239 0
M  V30 1266 H 121.711 1.34711 0.646013 0
M  V30 1267 H 123.593 1.90335 3.75966 0
M  V30 1268 H 122.268 0.899659 3.10947 0
M  V30 1269 H 121.175 3.02908 2.19539 0
M  V30 1270 H 122.508 3.97375 2.90437 0
M  V30 1271 N 124.16 -0.719506 1.40217 0
M  V30 1272 C 125.385 -1.51371 1.4178 0
M  V30 1273 C 125.81 -1.88091 0.0182355 0
M  V30 1274 O 125.168 -1.52997 -0.972707 0
M  V30 1275 C 125.216 -2.768 2.31115 0
M  V30 1276 O 124.32 -3.73349 1.7517 0
M  V30 1277 H 123.661 -0.456529 0.482159 0
M  V30 1278 H 126.191 -0.88644 1.844 0
M  V30 1279 H 126.201 -3.25371 2.46167 0
M  V30 1280 H 124.876 -2.49407 3.3282 0
M  V30 1281 H 123.453 -3.32179 1.69444 0
M  V30 1282 N 125.638 -1.25649 -0.95132 0
M  V30 1283 C 126.887 -1.09988 -1.69073 0
M  V30 1284 C 127.2 0.358355 -1.92289 0
M  V30 1285 O 128.406 0.635466 -2.63958 0
M  V30 1286 C 126.862 -1.92012 -3.044 0
M  V30 1287 C 126.47 -3.42347 -2.88968 0
M  V30 1288 C 128.214 -1.8493 -3.82101 0
M  V30 1289 C 126.121 -4.16655 -4.19705 0
M  V30 1290 H 125.051 -0.407993 -0.63408 0
M  V30 1291 H 127.702 -1.49873 -1.05879 0
M  V30 1292 H 126.084 -1.44952 -3.68517 0
M  V30 1293 H 127.258 -3.97104 -2.33762 0
M  V30 1294 H 125.573 -3.50557 -2.24719 0
M  V30 1295 H 128.17 -2.37739 -4.78941 0
M  V30 1296 H 128.513 -0.817883 -4.08187 0
M  V30 1297 H 129.046 -2.29758 -3.2474 0
M  V30 1298 H 125.785 -5.20224 -3.98807 0
M  V30 1299 H 125.305 -3.66681 -4.74663 0
M  V30 1300 H 126.984 -4.24551 -4.88227 0
M  V30 1301 N 127.117 1.15442 -1.07289 0
M  V30 1302 C 128.366 1.85557 -0.790669 0
M  V30 1303 C 128.679 1.83186 0.685739 0
M  V30 1304 O 129.885 2.48977 1.0827 0
M  V30 1305 C 128.341 3.33038 -1.36433 0
M  V30 1306 C 127.949 3.43856 -2.8717 0
M  V30 1307 C 129.693 4.0834 -1.1601 0
M  V30 1308 C 127.6 4.85482 -3.3773 0
M  V30 1309 H 126.53 0.695122 -0.292098 0
M  V30 1310 H 129.181 1.30219 -1.29287 0
M  V30 1311 H 127.563 3.88043 -0.789864 0
M  V30 1312 H 128.737 2.98961 -3.50655 0
M  V30 1313 H 127.052 2.81998 -3.06376 0
M  V30 1314 H 129.649 5.12859 -1.51262 0
M  V30 1315 H 129.992 4.16182 -0.0991007 0
M  V30 1316 H 130.525 3.59603 -1.70089 0
M  V30 1317 H 127.264 4.82823 -4.43353 0
M  V30 1318 H 126.784 5.30961 -2.78999 0
M  V30 1319 H 128.463 5.54335 -3.33648 0
M  V30 1320 N 128.595 0.856903 1.32268 0
M  V30 1321 C 129.823 0.475439 2.01363 0
M  V30 1322 C 130.238 -0.928486 1.64392 0
M  V30 1323 O 129.595 -1.60624 0.866387 0
M  V30 1324 C 129.646 0.607545 3.56358 0
M  V30 1325 O 129.367 1.95617 3.92002 0
M  V30 1326 C 130.868 0.225382 4.42727 0
M  V30 1327 H 128.088 0.186636 0.644521 0
M  V30 1328 H 130.632 1.15446 1.68797 0
M  V30 1329 H 128.787 -0.0237719 3.87393 0
M  V30 1330 H 129.201 1.95455 4.86721 0
M  V30 1331 H 130.675 0.368813 5.50767 0
M  V30 1332 H 131.152 -0.834369 4.31202 0
M  V30 1333 H 131.758 0.831864 4.17085 0
M  V30 1334 N 130.073 -1.45103 0.615059 0
M  V30 1335 C 131.003 -2.33339 -0.0865619 0
M  V30 1336 C 131.984 -1.4727 -0.851209 0
M  V30 1337 O 133.169 -1.76026 -0.820281 0
M  V30 1338 C 130.299 -3.30095 -1.07956 0
M  V30 1339 C 129.253 -4.25858 -0.427628 0
M  V30 1340 C 128.579 -5.12361 -1.5294 0
M  V30 1341 C 129.879 -5.18165 0.655944 0
M  V30 1342 H 131.573 -2.92254 0.650224 0
M  V30 1343 H 129.119 -1.40532 0.314138 0
M  V30 1344 H 131.072 -3.90698 -1.57901 0
M  V30 1345 H 129.796 -2.69355 -1.84703 0
M  V30 1346 H 128.455 -3.66564 0.0510292 0
M  V30 1347 H 128.103 -4.47984 -2.28734 0
M  V30 1348 H 127.803 -5.77238 -1.09865 0
M  V30 1349 H 129.327 -5.75833 -2.03098 0
M  V30 1350 H 130.741 -5.72796 0.240257 0
M  V30 1351 H 129.138 -5.91559 1.00888 0
M  V30 1352 H 130.208 -4.60144 1.52957 0
M  V30 1353 N 131.551 -0.354651 -1.53558 0
M  V30 1354 C 132.962 0.126902 -1.86268 0
M  V30 1355 C 133.313 1.49075 -1.27558 0
M  V30 1356 O 132.438 2.08105 -0.5934 0
M  V30 1357 C 133.033 0.237046 -3.3797 0
M  V30 1358 C 131.592 0.662842 -3.70518 0
M  V30 1359 C 130.739 -0.196652 -2.76602 0
M  V30 1360 H 133.69 -0.573849 -1.47962 0
M  V30 1361 H 133.711 1.06259 -3.65362 0
M  V30 1362 H 133.223 -0.755725 -3.80671 0
M  V30 1363 H 131.324 1.66424 -3.33367 0
M  V30 1364 H 131.437 0.445034 -4.77029 0
M  V30 1365 H 129.801 0.332763 -2.52517 0
M  V30 1366 H 130.584 -1.18676 -3.22135 0
M  V30 1367 N 133.029 1.57378 -0.0835403 0
M  V30 1368 C 133.979 2.09916 0.889905 0
M  V30 1369 C 134.963 1.01151 1.25129 0
M  V30 1370 O 136.155 1.27443 1.2283 0
M  V30 1371 C 133.284 2.67379 2.15322 0
M  V30 1372 C 132.37 3.83167 1.81779 0
M  V30 1373 N 132.761 4.91665 1.18739 0
M  V30 1374 C 131.059 3.92685 2.11459 0
M  V30 1375 C 131.76 5.72409 1.0355 0
M  V30 1376 N 130.736 5.21062 1.54906 0
M  V30 1377 H 134.538 2.91188 0.398378 0
M  V30 1378 H 132.052 1.61956 0.120013 0
M  V30 1379 H 134.049 3.0334 2.8599 0
M  V30 1380 H 132.709 1.87558 2.65051 0
M  V30 1381 H 133.72 5.10784 0.855604 0
M  V30 1382 H 130.397 3.23856 2.63483 0
M  V30 1383 H 131.787 6.69699 0.543425 0
M  V30 1384 N 134.507 -0.190092 1.56449 0
M  V30 1385 C 135.437 -1.23816 1.97969 0
M  V30 1386 C 136.418 -1.47201 0.852395 0
M  V30 1387 O 137.603 -1.58854 1.1171 0
M  V30 1388 C 134.733 -2.5813 2.3235 0
M  V30 1389 C 133.687 -2.49348 3.47864 0
M  V30 1390 C 133.013 -3.8798 3.67934 0
M  V30 1391 C 134.313 -2.01424 4.81898 0
M  V30 1392 H 136.007 -0.89311 2.85769 0
M  V30 1393 H 133.553 -0.428177 1.37487 0
M  V30 1394 H 135.506 -3.31637 2.59991 0
M  V30 1395 H 134.23 -2.94386 1.41438 0
M  V30 1396 H 132.889 -1.78297 3.20321 0
M  V30 1397 H 132.537 -4.21597 2.74344 0
M  V30 1398 H 132.237 -3.82978 4.45648 0
M  V30 1399 H 133.761 -4.63101 3.97957 0
M  V30 1400 H 135.175 -2.64693 5.08538 0
M  V30 1401 H 133.572 -2.07413 5.63116 0
M  V30 1402 H 134.642 -0.967677 4.75146 0
M  V30 1403 N 135.985 -1.50799 -0.457987 0
M  V30 1404 C 136.933 -1.71162 -1.575 0
M  V30 1405 C 137.927 -0.577592 -1.59249 0
M  V30 1406 O 139.133 -0.758443 -1.63241 0
M  V30 1407 H 135.508 -0.540468 -0.522875 0
M  V30 1408 H 137.479 -2.64837 -1.37492 0
M  V30 1409 C 136.228 -1.83496 -2.95338 0
M  V30 1410 H 135.551 -2.70153 -2.94716 0
M  V30 1411 H 136.991 -2.01765 -3.72917 0
M  V30 1412 C 135.45 -0.589694 -3.31699 0
M  V30 1413 O 135.98 0.265163 -4.00824 0
M  V30 1414 N 134.186 -0.439845 -2.87252 0
M  V30 1415 H 133.733 -1.13655 -2.31172 0
M  V30 1416 H 133.691 0.392159 -3.11945 0
M  V30 1417 N 137.463 0.71206 -1.40597 0
M  V30 1418 C 138.413 1.81783 -1.37619 0
M  V30 1419 C 139.397 1.58896 -0.253162 0
M  V30 1420 O 140.589 1.70009 -0.492547 0
M  V30 1421 C 137.718 3.19944 -1.24462 0
M  V30 1422 C 136.804 3.48582 -2.4156 0
M  V30 1423 N 137.195 3.48016 -3.67041 0
M  V30 1424 C 135.493 3.79056 -2.35016 0
M  V30 1425 C 136.194 3.75096 -4.44609 0
M  V30 1426 N 135.17 3.94022 -3.74497 0
M  V30 1427 H 138.972 1.79683 -2.32575 0
M  V30 1428 H 136.486 0.91134 -1.34419 0
M  V30 1429 H 138.483 3.99133 -1.20411 0
M  V30 1430 H 137.143 3.23267 -0.304762 0
M  V30 1431 H 138.154 3.28782 -4.00153 0
M  V30 1432 H 134.831 3.89848 -1.49415 0
M  V30 1433 H 136.221 3.80934 -5.53479 0
M  V30 1434 N 138.941 1.26152 0.944643 0
M  V30 1435 C 140.169 1.14259 1.72489 0
M  V30 1436 C 140.584 -0.302555 1.8636 0
M  V30 1437 O 139.941 -1.20741 1.36849 0
M  V30 1438 C 139.992 1.80266 3.13347 0
M  V30 1439 O 139.713 3.19133 3.00143 0
M  V30 1440 C 141.214 1.74283 4.07603 0
M  V30 1441 H 138.434 0.398051 0.540181 0
M  V30 1442 H 140.978 1.66706 1.18446 0
M  V30 1443 H 139.133 1.31766 3.64303 0
M  V30 1444 H 139.547 3.51744 3.89071 0
M  V30 1445 H 141.021 2.25111 5.04013 0
M  V30 1446 H 141.498 0.708631 4.33446 0
M  V30 1447 H 142.104 2.22319 3.62567 0
M  V30 1448 N 140.419 -1.14872 1.07899 0
M  V30 1449 C 141.351 -2.19425 0.662231 0
M  V30 1450 C 142.364 -1.60231 -0.288079 0
M  V30 1451 O 143.553 -1.78336 -0.076534 0
M  V30 1452 C 140.653 -3.38867 -0.0470695 0
M  V30 1453 C 139.826 -4.27597 0.920831 0
M  V30 1454 C 138.885 -5.25616 0.247805 0
M  V30 1455 O 137.911 -5.62189 0.890599 0
M  V30 1456 N 139.113 -5.71746 -1.00435 0
M  V30 1457 H 141.878 -2.55797 1.56166 0
M  V30 1458 H 139.439 -1.30042 0.964404 0
M  V30 1459 H 141.431 -4.01497 -0.50813 0
M  V30 1460 H 140.001 -3.00864 -0.848523 0
M  V30 1461 H 139.221 -3.61982 1.56087 0
M  V30 1462 H 140.509 -4.83748 1.57688 0
M  V30 1463 H 139.907 -5.44153 -1.54642 0
M  V30 1464 H 138.464 -6.36389 -1.40899 0
M  V30 1465 N 141.898 -0.863906 -1.31812 0
M  V30 1466 C 142.861 -0.320212 -2.26952 0
M  V30 1467 C 143.861 0.525369 -1.51975 0
M  V30 1468 O 145.051 0.335547 -1.70938 0
M  V30 1469 C 142.183 0.545919 -3.365 0
M  V30 1470 H 143.376 -1.16004 -2.76556 0
M  V30 1471 H 140.929 -0.638995 -1.42641 0
M  V30 1472 H 141.664 1.40718 -2.92179 0
M  V30 1473 H 141.449 -0.0594674 -3.92055 0
M  V30 1474 H 142.939 0.918796 -4.07367 0
M  V30 1475 N 143.376 1.44774 -0.622745 0
M  V30 1476 C 144.623 2.02121 -0.1239 0
M  V30 1477 C 144.951 1.48915 1.25118 0
M  V30 1478 O 144.206 0.660045 1.84233 0
M  V30 1479 C 144.505 3.57364 -0.0508323 0
M  V30 1480 C 144.171 4.29787 -1.36358 0
M  V30 1481 C 142.833 4.4929 -1.72314 0
M  V30 1482 C 145.185 4.71062 -2.23048 0
M  V30 1483 C 142.513 5.07325 -2.94682 0
M  V30 1484 C 144.865 5.30452 -3.44679 0
M  V30 1485 C 143.529 5.48175 -3.80868 0
M  V30 1486 H 142.799 0.739612 -0.0453381 0
M  V30 1487 H 145.446 1.73648 -0.807389 0
M  V30 1488 H 143.751 3.85202 0.715991 0
M  V30 1489 H 145.448 3.99456 0.351533 0
M  V30 1490 H 142.038 4.14932 -1.07375 0
M  V30 1491 H 146.222 4.55715 -1.96565 0
M  V30 1492 H 141.478 5.19235 -3.22809 0
M  V30 1493 H 145.652 5.61385 -4.12092 0
M  V30 1494 H 143.279 5.92912 -4.75773 0
M  V30 1495 N 144.854 0.36279 1.53368 0
M  V30 1496 C 145.784 -0.476976 2.28576 0
M  V30 1497 C 146.765 -1.08631 1.30894 0
M  V30 1498 O 147.95 -1.10409 1.59761 0
M  V30 1499 C 145.08 -1.61828 3.07293 0
M  V30 1500 C 144.034 -1.13633 4.1264 0
M  V30 1501 C 143.36 -2.36766 4.79423 0
M  V30 1502 C 144.66 -0.223061 5.21823 0
M  V30 1503 H 146.354 0.150474 2.99022 0
M  V30 1504 H 143.9 0.0738103 1.43811 0
M  V30 1505 H 145.853 -2.21237 3.58653 0
M  V30 1506 H 144.577 -2.27292 2.34533 0
M  V30 1507 H 143.236 -0.564945 3.62221 0
M  V30 1508 H 142.884 -3.0068 4.03238 0
M  V30 1509 H 142.584 -2.05192 5.50609 0
M  V30 1510 H 144.108 -2.96865 5.33576 0
M  V30 1511 H 145.522 -0.724545 5.68703 0
M  V30 1512 H 143.919 0.001678 6.001 0
M  V30 1513 H 144.989 0.735553 4.79289 0
M  V30 1514 N 146.332 -1.57332 0.0918853 0
M  V30 1515 C 147.557 -1.98995 -0.584442 0
M  V30 1516 C 147.982 -0.970528 -1.61128 0
M  V30 1517 O 147.34 0.0613904 -1.81196 0
M  V30 1518 C 147.388 -3.39636 -1.21161 0
M  V30 1519 O 146.492 -3.40447 -2.32744 0
M  V30 1520 H 145.833 -0.647165 -0.148572 0
M  V30 1521 H 148.363 -2.03873 0.172347 0
M  V30 1522 H 148.373 -3.7726 -1.55367 0
M  V30 1523 H 147.048 -4.13356 -0.459313 0
M  V30 1524 H 145.625 -3.14614 -2.0018 0
M  V30 1525 N 147.81 0.181792 -1.56548 0
M  V30 1526 C 149.05 0.906711 -1.83189 0
M  V30 1527 C 149.414 1.79882 -0.671312 0
M  V30 1528 O 150.615 2.56054 -0.81792 0
M  V30 1529 C 148.886 1.69023 -3.14906 0
M  V30 1530 S 150.445 2.46535 -3.62996 0
M  V30 1531 H 147.263 0.303877 -0.642791 0
M  V30 1532 H 149.865 0.169107 -1.94767 0
M  V30 1533 H 148.569 1.02571 -3.97376 0
M  V30 1534 H 148.1 2.46941 -3.06241 0
M  V30 1535 H 150.115 3.71014 -3.29489 0
M  V30 1536 N 149.288 1.51039 0.449983 0
M  V30 1537 C 150.528 1.64732 1.21007 0
M  V30 1538 C 150.892 0.349865 1.88785 0
M  V30 1539 O 152.093 0.362431 2.66345 0
M  V30 1540 C 150.364 2.80902 2.20973 0
M  V30 1541 S 151.923 3.14851 3.05638 0
M  V30 1542 H 148.741 0.5805 0.410538 0
M  V30 1543 H 151.343 1.88901 0.503634 0
M  V30 1544 H 150.047 3.73627 1.69796 0
M  V30 1545 H 149.578 2.58882 2.96215 0
M  V30 1546 H 151.593 2.60306 4.22439 0
M  V30 1547 N 150.766 -0.704594 1.40972 0
M  V30 1548 C 151.696 -1.83124 1.44872 0
M  V30 1549 C 152.677 -1.67281 0.30838 0
M  V30 1550 O 153.862 -1.87149 0.518556 0
M  V30 1551 C 150.992 -3.21181 1.32136 0
M  V30 1552 C 149.946 -3.51714 2.43888 0
M  V30 1553 C 149.272 -4.89032 2.16222 0
M  V30 1554 C 150.572 -3.516 3.86232 0
M  V30 1555 H 152.266 -1.80117 2.39161 0
M  V30 1556 H 149.812 -0.865145 1.15114 0
M  V30 1557 H 151.765 -3.99702 1.33479 0
M  V30 1558 H 150.489 -3.24791 0.343279 0
M  V30 1559 H 149.148 -2.75539 2.41813 0
M  V30 1560 H 148.796 -4.89256 1.16778 0
M  V30 1561 H 148.496 -5.10426 2.911 0
M  V30 1562 H 150.02 -5.69873 2.19265 0
M  V30 1563 H 151.434 -4.2014 3.9007 0
M  V30 1564 H 149.831 -3.84523 4.60719 0
M  V30 1565 H 150.901 -2.50757 4.15029 0
M  V30 1566 N 152.244 -1.26651 -0.937939 0
M  V30 1567 C 153.192 -1.08308 -2.05845 0
M  V30 1568 C 154.186 -0.0090757 -1.69398 0
M  V30 1569 O 155.392 -0.166007 -1.79233 0
M  V30 1570 H 151.767 -0.333416 -0.674046 0
M  V30 1571 H 153.738 -2.03261 -2.18467 0
M  V30 1572 C 152.487 -0.736229 -3.39816 0
M  V30 1573 H 151.81 -1.55453 -3.6834 0
M  V30 1574 H 153.25 -0.64769 -4.19024 0
M  V30 1575 C 151.709 0.558824 -3.32233 0
M  V30 1576 O 152.239 1.59621 -3.68624 0
M  V30 1577 N 150.445 0.550657 -2.85335 0
M  V30 1578 H 149.992 -0.293943 -2.55917 0
M  V30 1579 H 149.95 1.41726 -2.80644 0
M  V30 1580 N 153.722 1.14298 -1.08507 0
M  V30 1581 C 154.968 1.85854 -0.826438 0
M  V30 1582 C 155.323 1.81413 0.640878 0
M  V30 1583 O 154.616 1.23463 1.46518 0
M  V30 1584 C 154.81 3.33547 -1.28379 0
M  V30 1585 C 154.639 3.52369 -2.79403 0
M  V30 1586 C 153.409 3.67159 -3.47164 0
M  V30 1587 C 155.607 3.49203 -3.77573 0
M  V30 1588 N 153.589 3.74149 -4.86709 0
M  V30 1589 C 154.96 3.6245 -5.03021 0
M  V30 1590 C 157.015 3.32547 -3.70563 0
M  V30 1591 C 155.718 3.60761 -6.2229 0
M  V30 1592 C 157.744 3.32162 -4.89308 0
M  V30 1593 C 157.106 3.45949 -6.13595 0
M  V30 1594 H 153.205 0.696705 -0.355143 0
M  V30 1595 H 155.789 1.36981 -1.38362 0
M  V30 1596 H 153.96 3.81008 -0.754166 0
M  V30 1597 H 155.692 3.92867 -0.971469 0
M  V30 1598 H 152.447 3.68433 -2.9758 0
M  V30 1599 H 152.871 3.81359 -5.5937 0
M  V30 1600 H 157.513 3.20797 -2.75407 0
M  V30 1601 H 155.231 3.71286 -7.17755 0
M  V30 1602 H 158.817 3.20485 -4.85573 0
M  V30 1603 H 157.697 3.456 -7.03939 0
M  V30 1604 N 155.201 0.870884 1.31352 0
M  V30 1605 C 156.449 0.48132 1.96285 0
M  V30 1606 C 156.77 -0.969813 1.69173 0
M  V30 1607 O 156.04 -1.67998 1.00764 0
M  V30 1608 H 154.62 0.175002 0.726212 0
M  V30 1609 H 157.282 1.11087 1.60143 0
M  V30 1610 H 156.378 0.639825 3.05471 0
M  V30 1611 N 156.679 -1.44442 0.630414 0
M  V30 1612 C 157.627 -2.32437 -0.0871428 0
M  V30 1613 C 158.621 -1.47304 -0.836525 0
M  V30 1614 O 159.827 -1.63653 -0.749506 0
M  V30 1615 H 156.202 -0.750533 -0.0469495 0
M  V30 1616 H 158.173 -2.90709 0.673096 0
M  V30 1617 C 156.922 -3.31288 -1.05563 0
M  V30 1618 H 156.245 -3.96805 -0.488426 0
M  V30 1619 H 157.685 -3.9554 -1.52721 0
M  V30 1620 C 156.144 -2.6016 -2.14052 0
M  V30 1621 O 156.674 -2.39997 -3.22124 0
M  V30 1622 N 154.88 -2.19911 -1.89967 0
M  V30 1623 H 154.427 -2.36509 -1.02085 0
M  V30 1624 H 154.385 -1.72646 -2.62756 0
M  V30 1625 N 158.157 -0.370918 -1.53173 0
M  V30 1626 C 159.382 0.220293 -2.06227 0
M  V30 1627 C 159.807 1.41243 -1.24225 0
M  V30 1628 O 159.165 1.79387 -0.262645 0
M  V30 1629 C 159.213 0.586663 -3.55796 0
M  V30 1630 O 158.317 1.68317 -3.76488 0
M  V30 1631 H 157.658 0.0308099 -0.663285 0
M  V30 1632 H 160.188 -0.533068 -1.97534 0
M  V30 1633 H 160.198 0.85617 -3.98916 0
M  V30 1634 H 158.873 -0.285013 -4.14922 0
M  V30 1635 H 157.45 1.40881 -3.45264 0
M  V30 1636 N 159.635 1.57281 -0.100228 0
M  V30 1637 C 160.565 2.17328 0.853857 0
M  V30 1638 C 161.546 1.10804 1.2906 0
M  V30 1639 O 162.731 1.38963 1.35657 0
M  V30 1640 C 159.861 2.75772 2.11109 0
M  V30 1641 C 158.815 3.87713 1.81279 0
M  V30 1642 C 158.141 4.32882 3.13874 0
M  V30 1643 C 159.441 5.10677 1.09574 0
M  V30 1644 H 161.135 2.97305 0.353545 0
M  V30 1645 H 158.681 1.43009 0.168612 0
M  V30 1646 H 160.634 3.16433 2.78296 0
M  V30 1647 H 159.358 1.93057 2.63432 0
M  V30 1648 H 158.017 3.476 1.16489 0
M  V30 1649 H 157.665 3.47051 3.64095 0
M  V30 1650 H 157.365 5.08358 2.94696 0
M  V30 1651 H 158.889 4.7618 3.82211 0
M  V30 1652 H 160.303 5.48474 1.66879 0
M  V30 1653 H 158.7 5.91615 1.00557 0
M  V30 1654 H 159.77 4.84835 0.0793299 0
M  V30 1655 N 161.113 -0.173488 1.56642 0
M  V30 1656 C 162.045 -1.23935 1.92802 0
M  V30 1657 C 163.058 -1.40589 0.820889 0
M  V30 1658 O 164.247 -1.40631 1.09933 0
M  V30 1659 C 161.347 -2.60837 2.16373 0
M  V30 1660 C 160.52 -2.6551 3.47596 0
M  V30 1661 C 159.579 -3.8376 3.60021 0
M  V30 1662 O 158.605 -3.69859 4.32658 0
M  V30 1663 N 159.807 -5.00127 2.94709 0
M  V30 1664 H 162.572 -0.932236 2.84832 0
M  V30 1665 H 160.133 -0.363268 1.57772 0
M  V30 1666 H 162.125 -3.38407 2.21952 0
M  V30 1667 H 160.695 -2.83948 1.30738 0
M  V30 1668 H 159.915 -1.74052 3.53694 0
M  V30 1669 H 161.203 -2.65641 4.33949 0
M  V30 1670 H 160.601 -5.14322 2.35563 0
M  V30 1671 H 159.158 -5.75567 3.05886 0
M  V30 1672 N 162.591 -1.51276 -0.441967 0
M  V30 1673 C 163.84 -1.6295 -1.18871 0
M  V30 1674 C 164.153 -0.349312 -1.92456 0
M  V30 1675 O 165.359 -0.345355 -2.69295 0
M  V30 1676 C 163.815 -2.87759 -2.16155 0
M  V30 1677 C 163.423 -4.22764 -1.48239 0
M  V30 1678 C 165.167 -3.08788 -2.91291 0
M  V30 1679 C 163.074 -5.38728 -2.4398 0
M  V30 1680 H 162.004 -0.606913 -0.447406 0
M  V30 1681 H 164.655 -1.77739 -0.456205 0
M  V30 1682 H 163.037 -2.66593 -2.92821 0
M  V30 1683 H 164.211 -4.54293 -0.771635 0
M  V30 1684 H 162.526 -4.07575 -0.852741 0
M  V30 1685 H 165.123 -3.92599 -3.63002 0
M  V30 1686 H 165.466 -2.21679 -3.5237 0
M  V30 1687 H 165.999 -3.30272 -2.21733 0
M  V30 1688 H 162.738 -6.28082 -1.87598 0
M  V30 1689 H 162.258 -5.1158 -3.13123 0
M  V30 1690 H 163.937 -5.70489 -3.05207 0
M  V30 1691 N 164.069 0.697108 -1.41344 0
M  V30 1692 C 164.999 1.82353 -1.45841 0
M  V30 1693 C 165.98 1.67115 -0.317247 0
M  V30 1694 O 167.165 1.86871 -0.528474 0
M  V30 1695 C 164.295 3.20476 -1.33838 0
M  V30 1696 C 163.249 3.50415 -2.4575 0
M  V30 1697 C 162.575 4.87878 -2.18813 0
M  V30 1698 C 163.875 3.49546 -3.88091 0
M  V30 1699 H 165.569 1.78846 -2.40113 0
M  V30 1700 H 163.115 0.859028 -1.15571 0
M  V30 1701 H 165.068 3.98988 -1.35596 0
M  V30 1702 H 163.792 3.24604 -0.360498 0
M  V30 1703 H 162.451 2.74253 -2.43271 0
M  V30 1704 H 162.099 4.8863 -1.19371 0
M  V30 1705 H 161.799 5.08875 -2.93803 0
M  V30 1706 H 163.323 5.68702 -2.22284 0
M  V30 1707 H 164.737 4.18066 -3.92293 0
M  V30 1708 H 163.134 3.82075 -4.62751 0
M  V30 1709 H 164.204 2.48552 -4.16353 0
M  V30 1710 N 165.547 1.27147 0.931209 0
M  V30 1711 C 166.824 1.0401 1.65654 0
M  V30 1712 C 167.204 -0.426297 2.06751 0
M  V30 1713 O 166.552 -1.40879 1.79904 0
M  V30 1714 C 166.762 1.99834 2.86125 0
M  V30 1715 C 168.11 2.29007 3.57549 0
M  V30 1716 O 169.134 1.97779 2.96246 0
M  V30 1717 O 167.993 2.82222 4.67989 0
M  V30 1718 H 165.087 0.396239 0.725895 0
M  V30 1719 H 167.633 1.38397 0.982056 0
M  V30 1720 H 166.405 2.98744 2.52721 0
M  V30 1721 H 166.028 1.65987 3.61295 0
M  V30 1722 N 167.025 -1.13721 1.09112 0
M  V30 1723 C 167.957 -2.1871 0.685467 0
M  V30 1724 C 168.97 -1.60527 -0.271068 0
M  V30 1725 O 170.159 -1.78407 -0.0576148 0
M  V30 1726 C 167.259 -3.38898 -0.0111255 0
M  V30 1727 C 166.432 -4.26597 0.966131 0
M  V30 1728 C 165.491 -5.25324 0.303539 0
M  V30 1729 O 164.517 -5.61213 0.950177 0
M  V30 1730 N 165.719 -5.72779 -0.943651 0
M  V30 1731 H 168.484 -2.54126 1.58871 0
M  V30 1732 H 166.045 -1.29012 0.978143 0
M  V30 1733 H 168.037 -4.02014 -0.465517 0
M  V30 1734 H 166.607 -3.01747 -0.816565 0
M  V30 1735 H 165.827 -3.60306 1.59917 0
M  V30 1736 H 167.115 -4.82048 1.6281 0
M  V30 1737 H 166.513 -5.45762 -1.48862 0
M  V30 1738 H 165.07 -6.37847 -1.34142 0
M  V30 1739 N 168.503 -0.877838 -1.30888 0
M  V30 1740 C 169.749 -0.493426 -1.96706 0
M  V30 1741 C 170.082 0.953504 -1.6918 0
M  V30 1742 O 169.357 1.67266 -0.992594 0
M  V30 1743 C 169.64 -0.760429 -3.51979 0
M  V30 1744 C 169.493 -2.25747 -3.89048 0
M  V30 1745 C 170.812 -0.232148 -4.39487 0
M  V30 1746 H 167.931 -0.180746 -0.714493 0
M  V30 1747 H 170.573 -1.10052 -1.54882 0
M  V30 1748 H 168.723 -0.243715 -3.87735 0
M  V30 1749 H 170.395 -2.84204 -3.63354 0
M  V30 1750 H 168.638 -2.72694 -3.37373 0
M  V30 1751 H 169.309 -2.39491 -4.97341 0
M  V30 1752 H 171.785 -0.674314 -4.106 0
M  V30 1753 H 170.661 -0.448355 -5.47066 0
M  V30 1754 H 170.922 0.866297 -4.33529 0
M  V30 1755 N 169.982 1.44106 -0.638065 0
M  V30 1756 C 170.892 2.34513 0.0637334 0
M  V30 1757 C 171.908 1.53018 0.828346 0
M  V30 1758 O 173.084 1.85723 0.779036 0
M  V30 1759 C 170.149 3.31095 1.02844 0
M  V30 1760 C 169.21 4.28497 0.26244 0
M  V30 1761 C 168.443 5.20465 1.1812 0
M  V30 1762 O 168.666 5.16514 2.42011 0
M  V30 1763 O 167.6 5.98251 0.661774 0
M  V30 1764 H 171.426 2.95989 -0.68003 0
M  V30 1765 H 169.011 1.43994 -0.398252 0
M  V30 1766 H 170.893 3.90526 1.58327 0
M  V30 1767 H 169.568 2.72144 1.7527 0
M  V30 1768 H 168.475 3.72592 -0.335602 0
M  V30 1769 H 169.808 4.90388 -0.421936 0
M  V30 1770 N 171.46 0.379036 1.52974 0
M  V30 1771 C 172.39 -0.452706 2.29069 0
M  V30 1772 C 173.371 -1.07237 1.32039 0
M  V30 1773 O 174.556 -1.08708 1.60923 0
M  V30 1774 C 171.686 -1.5856 3.08992 0
M  V30 1775 C 170.64 -1.0925 4.13822 0
M  V30 1776 C 169.966 -2.31668 4.81907 0
M  V30 1777 C 171.266 -0.167702 5.22031 0
M  V30 1778 H 172.96 0.182181 2.98845 0
M  V30 1779 H 170.506 0.0890592 1.43724 0
M  V30 1780 H 172.459 -2.1742 3.6098 0
M  V30 1781 H 171.183 -2.24792 2.36931 0
M  V30 1782 H 169.842 -0.526494 3.628 0
M  V30 1783 H 169.49 -2.96386 4.06404 0
M  V30 1784 H 169.19 -1.9934 5.52754 0
M  V30 1785 H 170.714 -2.91189 5.36695 0
M  V30 1786 H 172.128 -0.664186 5.6944 0
M  V30 1787 H 170.525 0.0653265 6.00064 0
M  V30 1788 H 171.595 0.786347 4.78482 0
M  V30 1789 N 172.938 -1.57226 0.108567 0
M  V30 1790 C 174.354 -1.5766 -0.248058 0
M  V30 1791 C 174.554 -1.12063 -1.67464 0
M  V30 1792 O 173.61 -0.803236 -2.39383 0
M  V30 1793 C 174.923 -3.0069 -0.0242287 0
M  V30 1794 C 176.471 -3.12868 -0.0909372 0
M  V30 1795 C 176.946 -4.57879 0.105067 0
M  V30 1796 N 178.437 -4.63172 0.0506846 0
M  V30 1797 C 179.172 -5.73126 0.177396 0
M  V30 1798 N 178.668 -6.91866 0.359696 0
M  V30 1799 N 180.461 -5.61977 0.117709 0
M  V30 1800 H 172.612 -1.85169 1.04049 0
M  V30 1801 H 174.875 -0.85529 0.40888 0
M  V30 1802 H 174.581 -3.38299 0.961604 0
M  V30 1803 H 174.455 -3.6945 -0.76068 0
M  V30 1804 H 176.842 -2.75124 -1.06729 0
M  V30 1805 H 176.923 -2.46672 0.677225 0
M  V30 1806 H 176.567 -4.96321 1.07834 0
M  V30 1807 H 176.497 -5.22153 -0.682954 0
M  V30 1808 H 178.988 -3.778 -0.0871266 0
M  V30 1809 H 179.301 -7.71503 0.447529 0
M  V30 1810 H 177.646 -6.93874 0.395536 0
M  V30 1811 H 180.837 -4.68094 -0.0236741 0
M  V30 1812 H 181.01 -6.47627 0.219905 0
M  V30 1813 N 174.416 0.165178 -1.56732 0
M  V30 1814 C 175.379 1.18822 -1.95995 0
M  V30 1815 C 176.379 1.3685 -0.84431 0
M  V30 1816 O 177.569 1.34152 -1.11126 0
M  V30 1817 C 174.701 2.5521 -2.26011 0
M  V30 1818 H 175.894 0.851825 -2.87548 0
M  V30 1819 H 173.447 0.407857 -1.50885 0
M  V30 1820 H 174.182 2.93852 -1.37191 0
M  V30 1821 H 173.967 2.43489 -3.07336 0
M  V30 1822 H 175.457 3.28927 -2.57288 0
M  V30 1823 N 175.894 1.51508 0.433938 0
M  V30 1824 C 177.142 1.6402 1.18075 0
M  V30 1825 C 177.463 0.360328 1.91642 0
M  V30 1826 O 176.733 -0.623945 1.85698 0
M  V30 1827 H 175.313 0.6045 0.43885 0
M  V30 1828 H 177.975 1.88452 0.497178 0
M  V30 1829 H 177.071 2.46949 1.90847 0
M  V30 1830 N 177.372 -0.689602 1.41712 0
M  V30 1831 C 178.602 -1.47613 1.44548 0
M  V30 1832 C 179.01 -1.89132 0.0509034 0
M  V30 1833 O 178.353 -1.57741 -0.94146 0
M  V30 1834 C 178.415 -2.76596 2.2964 0
M  V30 1835 C 178.079 -2.57245 3.77722 0
M  V30 1836 C 179.076 -2.22804 4.69739 0
M  V30 1837 C 176.761 -2.727 4.2183 0
M  V30 1838 C 178.755 -2.04064 6.03851 0
M  V30 1839 C 176.442 -2.53576 5.56006 0
M  V30 1840 C 177.44 -2.1931 6.46832 0
M  V30 1841 O 177.128 -2.00359 7.78532 0
M  V30 1842 H 176.86 -0.461227 0.494212 0
M  V30 1843 H 179.414 -0.856045 1.86711 0
M  V30 1844 H 177.644 -3.41033 1.82301 0
M  V30 1845 H 179.333 -3.38424 2.24107 0
M  V30 1846 H 180.099 -2.10473 4.36951 0
M  V30 1847 H 175.978 -2.98353 3.51435 0
M  V30 1848 H 179.522 -1.77241 6.74708 0
M  V30 1849 H 175.419 -2.65499 5.88371 0
M  V30 1850 H 176.187 -2.15075 7.89737 0
M  V30 1851 N 178.85 -1.27639 -0.924453 0
M  V30 1852 C 180.261 -1.12834 -1.48746 0
M  V30 1853 C 180.612 0.285505 -1.94112 0
M  V30 1854 O 179.737 1.17874 -1.81479 0
M  V30 1855 C 180.332 -2.04217 -2.70334 0
M  V30 1856 C 178.891 -1.93509 -3.22848 0
M  V30 1857 C 178.038 -1.96583 -1.95577 0
M  V30 1858 H 180.989 -1.40484 -0.738233 0
M  V30 1859 H 181.01 -1.59989 -3.4523 0
M  V30 1860 H 180.522 -3.07111 -2.37285 0
M  V30 1861 H 178.623 -0.936131 -3.60649 0
M  V30 1862 H 178.736 -2.79917 -3.88823 0
M  V30 1863 H 177.1 -1.4085 -2.12211 0
M  V30 1864 H 177.883 -3.01137 -1.64837 0
M  V30 1865 N 180.328 1.1314 -1.09713 0
M  V30 1866 C 181.739 1.66029 -0.853885 0
M  V30 1867 C 182.09 1.86241 0.617142 0
M  V30 1868 O 181.215 1.5834 1.47503 0
M  V30 1869 C 181.81 3.01599 -1.5435 0
M  V30 1870 C 180.369 3.51467 -1.34714 0
M  V30 1871 C 179.516 2.26648 -1.59769 0
M  V30 1872 H 182.467 0.970226 -1.25588 0
M  V30 1873 H 182.488 3.67709 -0.978267 0
M  V30 1874 H 182 2.86856 -2.6141 0
M  V30 1875 H 180.101 3.71408 -0.297838 0
M  V30 1876 H 180.214 4.314 -2.08401 0
M  V30 1877 H 178.578 2.33385 -1.01998 0
M  V30 1878 H 179.361 2.14467 -2.68065 0
M  V30 1879 N 181.806 0.884767 1.30421 0
M  V30 1880 C 182.769 0.356277 2.26414 0
M  V30 1881 C 183.769 -0.501124 1.52792 0
M  V30 1882 O 184.959 -0.30831 1.7145 0
M  V30 1883 C 182.091 -0.492316 3.37326 0
M  V30 1884 H 183.284 1.20389 2.74675 0
M  V30 1885 H 180.837 0.661607 1.41607 0
M  V30 1886 H 181.572 -1.36052 2.94381 0
M  V30 1887 H 181.357 0.121832 3.91911 0
M  V30 1888 H 182.847 -0.853871 4.08777 0
M  V30 1889 N 183.284 -1.43765 0.645699 0
M  V30 1890 C 184.533 -2.01116 0.153412 0
M  V30 1891 C 184.846 -1.51493 -1.23731 0
M  V30 1892 O 186.052 -2.01067 -1.8244 0
M  V30 1893 C 184.508 -3.59206 0.223473 0
M  V30 1894 C 184.116 -4.17823 1.61642 0
M  V30 1895 C 185.86 -4.23972 -0.211597 0
M  V30 1896 C 183.767 -5.68183 1.64081 0
M  V30 1897 H 182.697 -0.752093 0.0535891 0
M  V30 1898 H 185.348 -1.6482 0.806633 0
M  V30 1899 H 183.73 -3.92867 -0.497118 0
M  V30 1900 H 184.904 -3.95674 2.36176 0
M  V30 1901 H 183.219 -3.65399 1.99681 0
M  V30 1902 H 185.816 -5.34275 -0.213112 0
M  V30 1903 H 186.159 -3.97352 -1.24165 0
M  V30 1904 H 186.692 -3.95166 0.456988 0
M  V30 1905 H 183.431 -5.99559 2.64971 0
M  V30 1906 H 182.951 -5.9241 0.938611 0
M  V30 1907 H 184.63 -6.32085 1.3812 0
M  V30 1908 N 184.763 -0.387143 -1.52771 0
M  V30 1909 C 186.174 0.0873634 -1.86495 0
M  V30 1910 C 186.525 1.46336 -1.30691 0
M  V30 1911 O 185.65 2.068 -0.637409 0
M  V30 1912 C 186.245 0.165305 -3.38396 0
M  V30 1913 C 184.804 0.584101 -3.7184 0
M  V30 1914 C 183.951 -0.255279 -2.76122 0
M  V30 1915 H 186.902 -0.605104 -1.46711 0
M  V30 1916 H 186.923 0.984848 -3.67534 0
M  V30 1917 H 186.435 -0.836301 -3.78982 0
M  V30 1918 H 184.536 1.59315 -3.36823 0
M  V30 1919 H 184.649 0.343749 -4.77865 0
M  V30 1920 H 183.013 0.279126 -2.53166 0
M  V30 1921 H 183.796 -1.25482 -3.19545 0
M  V30 1922 N 186.241 1.57166 -0.116904 0
M  V30 1923 C 187.191 2.11756 0.845178 0
M  V30 1924 C 188.175 1.03783 1.22955 0
M  V30 1925 O 189.367 1.3002 1.20099 0
M  V30 1926 C 186.496 2.71886 2.09602 0
M  V30 1927 C 185.582 3.86937 1.7361 0
M  V30 1928 N 185.973 4.94073 1.08284 0
M  V30 1929 C 184.271 3.97082 2.03082 0
M  V30 1930 C 184.972 5.74477 0.913855 0
M  V30 1931 N 183.948 5.2423 1.43818 0
M  V30 1932 H 187.75 2.91967 0.336523 0
M  V30 1933 H 185.264 1.62174 0.0856332 0
M  V30 1934 H 187.261 3.09338 2.79492 0
M  V30 1935 H 185.921 1.93138 2.61013 0
M  V30 1936 H 186.932 5.12483 0.747067 0
M  V30 1937 H 183.609 3.29372 2.56554 0
M  V30 1938 H 184.999 6.70701 0.40125 0
M  V30 1939 N 187.719 -0.156864 1.56817 0
M  V30 1940 C 188.667 -1.21319 1.98455 0
M  V30 1941 C 189.661 -1.45025 0.875444 0
M  V30 1942 O 190.867 -1.45435 1.0606 0
M  V30 1943 H 187.242 -0.408142 0.631605 0
M  V30 1944 H 189.213 -0.835244 2.86472 0
M  V30 1945 C 187.962 -2.54148 2.37285 0
M  V30 1946 H 187.285 -2.36733 3.22176 0
M  V30 1947 H 188.725 -3.26712 2.70251 0
M  V30 1948 C 187.184 -3.13967 1.22173 0
M  V30 1949 O 187.714 -3.98357 0.517149 0
M  V30 1950 N 185.92 -2.7327 0.988536 0
M  V30 1951 H 185.467 -2.04744 1.56326 0
M  V30 1952 H 185.425 -3.13628 0.220209 0
M  V30 1953 N 189.197 -1.51736 -0.425897 0
M  V30 1954 C 190.127 -1.76827 -1.52494 0
M  V30 1955 C 191.108 -0.618524 -1.58456 0
M  V30 1956 O 192.293 -0.862416 -1.74 0
M  V30 1957 C 189.423 -1.90374 -2.90474 0
M  V30 1958 C 188.377 -3.0588 -2.99369 0
M  V30 1959 C 187.703 -3.04625 -4.3944 0
M  V30 1960 C 189.003 -4.45644 -2.72394 0
M  V30 1961 H 190.697 -2.68855 -1.31748 0
M  V30 1962 H 188.243 -1.29372 -0.632362 0
M  V30 1963 H 190.196 -2.0651 -3.6733 0
M  V30 1964 H 188.92 -0.95004 -3.12477 0
M  V30 1965 H 187.579 -2.89467 -2.24954 0
M  V30 1966 H 187.227 -2.0701 -4.58428 0
M  V30 1967 H 186.927 -3.82195 -4.46319 0
M  V30 1968 H 188.451 -3.22869 -5.18255 0
M  V30 1969 H 189.865 -4.62348 -3.38979 0
M  V30 1970 H 188.262 -5.25006 -2.9067 0
M  V30 1971 H 189.332 -4.54893 -1.67929 0
M  V30 1972 N 190.675 0.682077 -1.42076 0
M  V30 1973 C 191.9 1.47558 -1.45744 0
M  V30 1974 C 192.325 1.87977 -0.0680981 0
M  V30 1975 O 191.683 1.55522 0.9318 0
M  V30 1976 C 191.731 2.70575 -2.38373 0
M  V30 1977 O 190.835 3.68573 -1.85007 0
M  V30 1978 H 190.176 0.443585 -0.494093 0
M  V30 1979 H 192.706 0.837238 -1.86686 0
M  V30 1980 H 192.716 3.18729 -2.54707 0
M  V30 1981 H 191.391 2.40495 -3.39315 0
M  V30 1982 H 189.968 3.2757 -1.78192 0
M  V30 1983 N 192.153 1.28127 0.917671 0
M  V30 1984 C 193.393 1.163 1.68088 0
M  V30 1985 C 193.757 -0.284515 1.8988 0
M  V30 1986 O 194.958 -0.525413 2.63615 0
M  V30 1987 C 193.229 1.93546 3.00457 0
M  V30 1988 S 194.788 1.98048 3.91564 0
M  V30 1989 H 191.606 0.415005 0.577315 0
M  V30 1990 H 194.208 1.62173 1.09179 0
M  V30 1991 H 192.912 2.97888 2.82295 0
M  V30 1992 H 192.443 1.48207 3.64415 0
M  V30 1993 H 194.458 1.08415 4.84211 0
M  V30 1994 N 193.631 -1.12557 1.10312 0
M  V30 1995 C 194.561 -2.20341 0.772798 0
M  V30 1996 C 195.542 -1.68198 -0.25365 0
M  V30 1997 O 196.727 -1.93831 -0.119699 0
M  V30 1998 C 193.857 -3.46709 0.202443 0
M  V30 1999 C 192.811 -4.11996 1.15943 0
M  V30 2000 C 192.137 -5.328 0.450345 0
M  V30 2001 C 193.437 -4.5828 2.50552 0
M  V30 2002 H 195.131 -2.48229 1.674 0
M  V30 2003 H 192.677 -1.19308 0.806326 0
M  V30 2004 H 194.63 -4.2138 -0.0407752 0
M  V30 2005 H 193.354 -3.18245 -0.734001 0
M  V30 2006 H 192.013 -3.39305 1.38808 0
M  V30 2007 H 191.661 -5.00602 -0.490531 0
M  V30 2008 H 191.361 -5.7743 1.08851 0
M  V30 2009 H 192.885 -6.10219 0.215642 0
M  V30 2010 H 194.299 -5.2433 2.31843 0
M  V30 2011 H 192.696 -5.13683 3.10242 0
M  V30 2012 H 193.766 -3.72329 3.10643 0
M  V30 2013 N 195.109 -0.891671 -1.2995 0
M  V30 2014 C 196.042 -0.307994 -2.26112 0
M  V30 2015 C 197.02 0.575262 -1.52084 0
M  V30 2016 O 198.204 0.523864 -1.81074 0
M  V30 2017 C 195.331 0.561734 -3.34009 0
M  V30 2018 C 194.377 -0.253107 -4.25748 0
M  V30 2019 S 195.21 -1.64572 -5.09584 0
M  V30 2020 C 196.366 -0.782699 -6.20987 0
M  V30 2021 H 196.599 -1.12309 -2.75271 0
M  V30 2022 H 194.132 -0.691509 -1.38049 0
M  V30 2023 H 196.09 1.05777 -3.96638 0
M  V30 2024 H 194.751 1.35099 -2.83561 0
M  V30 2025 H 193.944 0.410908 -5.02322 0
M  V30 2026 H 193.546 -0.682004 -3.67729 0
M  V30 2027 H 195.838 -0.00257476 -6.775 0
M  V30 2028 H 196.781 -1.52026 -6.91588 0
M  V30 2029 H 197.189 -0.340638 -5.63471 0
M  V30 2030 N 196.587 1.43421 -0.653314 0
M  V30 2031 C 197.535 2.32546 0.0501531 0
M  V30 2032 C 198.529 1.48617 0.812985 0
M  V30 2033 O 199.735 1.64825 0.723375 0
M  V30 2034 H 196.11 0.751185 0.0350032 0
M  V30 2035 H 198.081 2.89602 -0.719261 0
M  V30 2036 C 196.83 3.32925 1.00279 0
M  V30 2037 H 196.153 3.97532 0.425236 0
M  V30 2038 H 197.593 3.9792 1.46409 0
M  V30 2039 C 196.052 2.63532 2.09886 0
M  V30 2040 O 196.582 2.45092 3.18265 0
M  V30 2041 N 194.788 2.22905 1.86445 0
M  V30 2042 H 194.335 2.38103 0.98309 0
M  V30 2043 H 194.293 1.76805 2.59976 0
M  V30 2044 N 198.065 0.39524 1.52563 0
M  V30 2045 C 198.995 -0.428384 2.29537 0
M  V30 2046 C 199.976 -1.05831 1.33169 0
M  V30 2047 O 201.161 -1.06995 1.62067 0
M  V30 2048 C 198.291 -1.55274 3.10656 0
M  V30 2049 C 197.245 -1.04855 4.14957 0
M  V30 2050 C 196.571 -2.26543 4.84337 0
M  V30 2051 C 197.871 -0.112324 5.22179 0
M  V30 2052 H 199.565 0.213867 2.98635 0
M  V30 2053 H 197.111 0.104298 1.43622 0
M  V30 2054 H 199.064 -2.1358 3.63265 0
M  V30 2055 H 197.788 -2.22266 2.39302 0
M  V30 2056 H 196.447 -0.487985 3.63338 0
M  V30 2057 H 196.095 -2.92059 4.09525 0
M  V30 2058 H 195.795 -1.93466 5.54837 0
M  V30 2059 H 197.319 -2.85481 5.39753 0
M  V30 2060 H 198.733 -0.603752 5.70112 0
M  V30 2061 H 197.13 0.128968 5.99961 0
M  V30 2062 H 198.2 0.837052 4.77621 0
M  V30 2063 N 199.544 -1.57102 0.125237 0
M  V30 2064 C 200.772 -1.99761 -0.538797 0
M  V30 2065 C 201.187 -1.00503 -1.59827 0
M  V30 2066 O 200.544 0.00119474 -1.825 0
M  V30 2067 C 200.595 -3.42408 -1.15927 0
M  V30 2068 O 200.316 -4.37869 -0.142143 0
M  V30 2069 C 201.817 -4.00232 -1.90602 0
M  V30 2070 H 199.037 -0.655772 -0.14214 0
M  V30 2071 H 201.581 -2.03383 0.213413 0
M  V30 2072 H 199.736 -3.39706 -1.86223 0
M  V30 2073 H 200.15 -5.21128 -0.593775 0
M  V30 2074 H 201.624 -5.02105 -2.29335 0
M  V30 2075 H 202.101 -3.39721 -2.78363 0
M  V30 2076 H 202.707 -4.06499 -1.25055 0
M  V30 2077 N 201.022 0.148545 -1.56898 0
M  V30 2078 C 202.25 0.876389 -1.87422 0
M  V30 2079 C 202.665 1.74809 -0.713256 0
M  V30 2080 O 202.022 1.79725 0.317025 0
M  V30 2081 C 202.073 1.73438 -3.17178 0
M  V30 2082 O 201.794 0.897809 -4.28802 0
M  V30 2083 C 203.295 2.56993 -3.61205 0
M  V30 2084 H 200.515 0.253489 -0.621277 0
M  V30 2085 H 203.059 0.141798 -2.04008 0
M  V30 2086 H 201.214 2.42205 -3.0235 0
M  V30 2087 H 201.628 1.48672 -5.02988 0
M  V30 2088 H 203.102 3.12773 -4.54838 0
M  V30 2089 H 203.579 3.32958 -2.86419 0
M  V30 2090 H 204.185 1.9352 -3.78722 0
M  V30 2091 N 202.5 1.5196 0.417844 0
M  V30 2092 C 203.725 1.69717 1.1921 0
M  V30 2093 C 204.15 0.402148 1.83751 0
M  V30 2094 O 203.508 -0.639593 1.69643 0
M  V30 2095 C 203.556 2.82794 2.2374 0
M  V30 2096 O 202.66 2.47756 3.29683 0
M  V30 2097 H 202.001 0.565263 0.348387 0
M  V30 2098 H 204.531 1.98621 0.490985 0
M  V30 2099 H 204.541 3.07452 2.68212 0
M  V30 2100 H 203.216 3.76756 1.76146 0
M  V30 2101 H 201.793 2.33739 2.90552 0
M  V30 2102 N 203.978 -0.674533 1.42435 0
M  V30 2103 C 205.203 -1.46784 1.46524 0
M  V30 2104 C 205.628 -1.87938 0.078066 0
M  V30 2105 O 204.986 -1.56014 -0.92354 0
M  V30 2106 C 205.034 -2.69307 2.39805 0
M  V30 2107 O 204.138 -3.67587 1.86959 0
M  V30 2108 H 203.479 -0.440959 0.496439 0
M  V30 2109 H 206.009 -0.827326 1.87127 0
M  V30 2110 H 206.019 -3.17374 2.56393 0
M  V30 2111 H 204.694 -2.38692 3.40586 0
M  V30 2112 H 203.271 -3.2662 1.79927 0
M  V30 2113 N 205.456 -1.28612 -0.910864 0
M  V30 2114 C 206.386 -1.15326 -2.03032 0
M  V30 2115 C 207.367 -0.0502924 -1.70026 0
M  V30 2116 O 208.552 -0.227797 -1.92859 0
M  V30 2117 C 205.682 -0.817343 -3.37545 0
M  V30 2118 C 204.636 -1.8754 -3.84724 0
M  V30 2119 C 203.962 -1.39305 -5.16235 0
M  V30 2120 C 205.262 -3.28244 -4.06267 0
M  V30 2121 H 206.956 -2.08975 -2.14406 0
M  V30 2122 H 204.502 -1.00612 -1.03021 0
M  V30 2123 H 206.455 -0.711151 -4.15356 0
M  V30 2124 H 205.179 0.154846 -3.26233 0
M  V30 2125 H 203.838 -1.97079 -3.09121 0
M  V30 2126 H 203.486 -0.409846 -5.01328 0
M  V30 2127 H 203.186 -2.10057 -5.48771 0
M  V30 2128 H 204.71 -1.30014 -5.96598 0
M  V30 2129 H 206.124 -3.21611 -4.74594 0
M  V30 2130 H 204.521 -3.96855 -4.5014 0
M  V30 2131 H 205.591 -3.72048 -3.10979 0
M  V30 2132 N 206.934 1.1197 -1.10907 0
M  V30 2133 C 208.183 1.82947 -0.849302 0
M  V30 2134 C 208.496 1.85275 0.627112 0
M  V30 2135 O 209.702 2.52296 1.00295 0
M  V30 2136 C 208.158 3.28529 -1.46959 0
M  V30 2137 C 207.766 3.34546 -2.97965 0
M  V30 2138 C 209.51 4.04443 -1.28942 0
M  V30 2139 C 207.417 4.74491 -3.53004 0
M  V30 2140 H 206.347 0.685477 -0.314065 0
M  V30 2141 H 208.998 1.2604 -1.33365 0
M  V30 2142 H 207.38 3.85333 -0.912917 0
M  V30 2143 H 208.554 2.87654 -3.59989 0
M  V30 2144 H 206.869 2.72108 -3.15192 0
M  V30 2145 H 209.466 5.07787 -1.67502 0
M  V30 2146 H 209.809 4.15656 -0.231456 0
M  V30 2147 H 210.342 3.5401 -1.81443 0
M  V30 2148 H 207.081 4.68474 -4.58489 0
M  V30 2149 H 206.601 5.21816 -2.9575 0
M  V30 2150 H 208.28 5.4344 -3.51115 0
M  V30 2151 N 208.412 0.89855 1.29475 0
M  V30 2152 C 209.652 0.530771 1.97388 0
M  V30 2153 C 210.016 -0.905832 1.69289 0
M  V30 2154 O 211.217 -1.38042 2.30646 0
M  V30 2155 C 209.488 0.81369 3.48014 0
M  V30 2156 S 211.047 0.550048 4.35339 0
M  V30 2157 H 207.865 0.196956 0.683176 0
M  V30 2158 H 210.467 1.16074 1.57312 0
M  V30 2159 H 209.171 1.85749 3.65958 0
M  V30 2160 H 208.702 0.171795 3.93025 0
M  V30 2161 H 210.717 -0.605423 4.92493 0
M  V30 2162 N 209.89 -1.43072 0.660911 0
M  V30 2163 C 210.822 -2.29108 -0.0647641 0
M  V30 2164 C 211.835 -1.42928 -0.779448 0
M  V30 2165 O 213.024 -1.66788 -0.635921 0
M  V30 2166 C 210.124 -3.20032 -1.11503 0
M  V30 2167 C 209.297 -4.34792 -0.476955 0
M  V30 2168 C 208.356 -5.06534 -1.42513 0
M  V30 2169 O 207.382 -5.61538 -0.930771 0
M  V30 2170 N 208.584 -5.1075 -2.75889 0
M  V30 2171 H 211.349 -2.92029 0.673731 0
M  V30 2172 H 208.91 -1.53846 0.50427 0
M  V30 2173 H 210.902 -3.64892 -1.75032 0
M  V30 2174 H 209.472 -2.58658 -1.75541 0
M  V30 2175 H 208.692 -3.92752 0.337572 0
M  V30 2176 H 209.98 -5.0879 -0.0318525 0
M  V30 2177 H 209.378 -4.67447 -3.18606 0
M  V30 2178 H 207.935 -5.59302 -3.347 0
M  V30 2179 N 211.368 -0.403325 -1.52352 0
M  V30 2180 C 212.614 0.167015 -2.02713 0
M  V30 2181 C 212.969 1.43296 -1.28391 0
M  V30 2182 O 212.262 1.87796 -0.379885 0
M  V30 2183 C 212.456 0.474665 -3.54234 0
M  V30 2184 C 212.285 -0.759909 -4.43233 0
M  V30 2185 C 211.055 -1.28338 -4.88731 0
M  V30 2186 C 213.253 -1.63634 -4.87574 0
M  V30 2187 N 211.235 -2.47404 -5.6184 0
M  V30 2188 C 212.606 -2.67329 -5.59406 0
M  V30 2189 C 214.661 -1.65478 -4.69597 0
M  V30 2190 C 213.364 -3.72773 -6.15169 0
M  V30 2191 C 215.39 -2.69837 -5.26253 0
M  V30 2192 C 214.752 -3.72253 -5.98002 0
M  V30 2193 H 210.851 0.0228343 -0.781667 0
M  V30 2194 H 213.435 -0.556368 -1.86581 0
M  V30 2195 H 211.606 1.16709 -3.7045 0
M  V30 2196 H 213.338 1.03338 -3.91284 0
M  V30 2197 H 210.093 -0.842273 -4.6605 0
M  V30 2198 H 210.517 -3.07688 -6.0304 0
M  V30 2199 H 215.159 -0.876389 -4.13617 0
M  V30 2200 H 212.877 -4.51471 -6.70223 0
M  V30 2201 H 216.463 -2.72164 -5.14216 0
M  V30 2202 H 215.343 -4.51679 -6.41058 0
M  V30 2203 N 212.846 1.57033 -0.133567 0
M  V30 2204 C 213.756 2.19632 0.824564 0
M  V30 2205 C 214.772 1.17666 1.28182 0
M  V30 2206 O 215.948 1.50193 1.3418 0
M  V30 2207 C 213.013 2.79499 2.05137 0
M  V30 2208 C 212.074 3.96548 1.64464 0
M  V30 2209 C 211.307 4.5355 2.81297 0
M  V30 2210 O 211.53 4.09438 3.97136 0
M  V30 2211 O 210.464 5.44018 2.57542 0
M  V30 2212 H 214.29 3.01991 0.321766 0
M  V30 2213 H 211.875 1.49112 0.0927889 0
M  V30 2214 H 213.757 3.17602 2.7696 0
M  V30 2215 H 212.432 2.00162 2.54395 0
M  V30 2216 H 211.339 3.63186 0.897048 0
M  V30 2217 H 212.672 4.77364 1.19934 0
M  V30 2218 N 214.325 -0.140222 1.56975 0
M  V30 2219 C 215.736 -0.699596 1.73097 0
M  V30 2220 C 216.087 -1.8134 0.749022 0
M  V30 2221 O 215.212 -2.16241 -0.0828503 0
M  V30 2222 C 215.807 -1.27582 3.1386 0
M  V30 2223 C 214.366 -1.78169 3.31561 0
M  V30 2224 C 213.513 -0.672855 2.69013 0
M  V30 2225 H 216.464 0.0855115 1.58469 0
M  V30 2226 H 216.485 -2.14561 3.14235 0
M  V30 2227 H 215.997 -0.464955 3.85305 0
M  V30 2228 H 214.098 -2.61801 2.65124 0
M  V30 2229 H 214.211 -1.90574 4.39566 0
M  V30 2230 H 212.575 -1.10118 2.29665 0
M  V30 2231 H 213.358 0.126679 3.43066 0
M  V30 2232 N 215.803 -1.52179 -0.40978 0
M  V30 2233 C 217.051 -1.65878 -1.15451 0
M  V30 2234 C 217.372 -0.390771 -1.91044 0
M  V30 2235 O 216.642 0.594323 -1.86667 0
M  V30 2236 H 215.222 -0.611405 -0.429177 0
M  V30 2237 H 217.884 -1.89219 -0.467134 0
M  V30 2238 H 216.98 -2.49954 -1.86894 0
M  V30 2239 N 217.281 0.66697 -1.42791 0
M  V30 2240 C 218.692 1.2478 -1.38877 0
M  V30 2241 C 219.043 1.96012 -0.0859426 0
M  V30 2242 O 218.168 2.00463 0.815081 0
M  V30 2243 C 218.763 2.26938 -2.51564 0
M  V30 2244 C 217.322 2.80529 -2.50959 0
M  V30 2245 C 216.469 1.54965 -2.29959 0
M  V30 2246 H 219.42 0.459853 -1.51892 0
M  V30 2247 H 219.441 3.08834 -2.22265 0
M  V30 2248 H 218.953 1.75065 -3.46372 0
M  V30 2249 H 217.054 3.36502 -1.59991 0
M  V30 2250 H 217.167 3.29012 -3.48265 0
M  V30 2251 H 215.531 1.81817 -1.78366 0
M  V30 2252 H 216.314 1.05047 -3.26833 0
M  V30 2253 N 218.759 1.29093 0.90403 0
M  V30 2254 C 219.669 1.15727 2.0407 0
M  V30 2255 C 220.685 0.0815308 1.73809 0
M  V30 2256 O 221.861 0.292749 1.99261 0
M  V30 2257 C 218.926 0.830424 3.36608 0
M  V30 2258 C 217.987 1.98955 3.80415 0
M  V30 2259 C 217.22 1.6782 5.06628 0
M  V30 2260 O 217.443 0.597105 5.67266 0
M  V30 2261 O 216.377 2.52486 5.46383 0
M  V30 2262 H 220.203 2.11171 2.18267 0
M  V30 2263 H 217.788 1.08504 1.027 0
M  V30 2264 H 219.67 0.662521 4.16159 0
M  V30 2265 H 218.345 -0.0942678 3.23563 0
M  V30 2266 H 217.252 2.21267 3.01648 0
M  V30 2267 H 218.585 2.89529 3.98037 0
M  V30 2268 N 220.237 -1.11381 1.11499 0
M  V30 2269 C 221.465 -1.86934 0.88675 0
M  V30 2270 C 221.88 -1.80195 -0.563476 0
M  V30 2271 O 221.237 -1.18367 -1.38908 0
M  V30 2272 C 221.288 -3.35722 1.34064 0
M  V30 2273 O 221.009 -3.4232 2.73401 0
M  V30 2274 C 222.51 -4.2818 1.14791 0
M  V30 2275 H 219.73 -0.591117 0.317523 0
M  V30 2276 H 222.274 -1.40865 1.48248 0
M  V30 2277 H 220.429 -3.79294 0.788355 0
M  V30 2278 H 220.843 -4.34971 2.93087 0
M  V30 2279 H 222.317 -5.30817 1.5145 0
M  V30 2280 H 222.794 -4.39113 0.0875279 0
M  V30 2281 H 223.4 -3.90402 1.68721 0
M  V30 2282 N 221.715 -0.905404 -1.28997 0
M  V30 2283 C 222.665 -0.358713 -2.25161 0
M  V30 2284 C 223.649 0.524449 -1.52113 0
M  V30 2285 O 224.841 0.365534 -1.73184 0
M  V30 2286 C 221.97 0.407609 -3.40872 0
M  V30 2287 C 221.056 -0.490797 -4.21251 0
M  V30 2288 N 221.447 -1.60061 -4.79806 0
M  V30 2289 C 219.745 -0.289636 -4.45059 0
M  V30 2290 C 220.446 -2.15757 -5.40207 0
M  V30 2291 N 219.422 -1.44988 -5.23908 0
M  V30 2292 H 223.224 -1.20642 -2.67998 0
M  V30 2293 H 220.738 -0.757103 -1.43672 0
M  V30 2294 H 222.735 0.816046 -4.08835 0
M  V30 2295 H 221.395 1.25251 -2.9957 0
M  V30 2296 H 222.406 -1.98329 -4.7842 0
M  V30 2297 H 219.083 0.51643 -4.14294 0
M  V30 2298 H 220.473 -3.09069 -5.96595 0
M  V30 2299 N 223.193 1.4272 -0.668489 0
M  V30 2300 C 224.123 2.335 -0.000100175 0
M  V30 2301 C 225.104 1.50328 0.795964 0
M  V30 2302 O 226.289 1.78949 0.754385 0
M  V30 2303 C 223.419 3.33874 0.956302 0
M  V30 2304 C 222.373 4.27152 0.269278 0
M  V30 2305 C 221.699 5.17684 1.33818 0
M  V30 2306 C 222.999 5.15373 -0.847805 0
M  V30 2307 H 224.693 2.89639 -0.758244 0
M  V30 2308 H 222.239 1.39269 -0.366079 0
M  V30 2309 H 224.192 3.9629 1.43292 0
M  V30 2310 H 222.916 2.76025 1.74579 0
M  V30 2311 H 221.575 3.66123 -0.187042 0
M  V30 2312 H 221.223 4.56165 2.1195 0
M  V30 2313 H 220.923 5.80918 0.883659 0
M  V30 2314 H 222.447 5.82974 1.81586 0
M  V30 2315 H 223.861 5.7151 -0.452681 0
M  V30 2316 H 222.258 5.87407 -1.22773 0
M  V30 2317 H 223.328 4.5415 -1.69929 0
M  V30 2318 N 224.671 0.411399 1.52136 0
M  V30 2319 C 226.082 -0.0576826 1.86611 0
M  V30 2320 C 226.433 -1.44238 1.33003 0
M  V30 2321 O 225.558 -2.05759 0.670228 0
M  V30 2322 C 226.153 -0.111448 3.38617 0
M  V30 2323 C 224.712 -0.52487 3.72723 0
M  V30 2324 C 223.859 0.299176 2.75681 0
M  V30 2325 H 226.81 0.628368 1.4573 0
M  V30 2326 H 226.831 -0.926252 3.69054 0
M  V30 2327 H 226.343 0.896488 3.77604 0
M  V30 2328 H 224.444 -1.53936 3.39315 0
M  V30 2329 H 224.557 -0.267681 4.78352 0
M  V30 2330 H 222.921 -0.238814 2.53578 0
M  V30 2331 H 223.704 1.3055 3.17508 0
M  V30 2332 N 226.149 -1.5696 0.141893 0
M  V30 2333 C 227.377 -2.00322 -0.517579 0
M  V30 2334 C 227.792 -1.02193 -1.58752 0
M  V30 2335 O 227.149 -0.0181619 -1.82491 0
M  V30 2336 C 227.2 -3.43618 -1.12289 0
M  V30 2337 O 226.921 -4.37995 -0.0956929 0
M  V30 2338 C 228.422 -4.02231 -1.86347 0
M  V30 2339 H 225.642 -0.657243 -0.135177 0
M  V30 2340 H 228.186 -2.03146 0.234973 0
M  V30 2341 H 226.341 -3.41662 -1.82609 0
M  V30 2342 H 226.755 -5.21729 -0.538469 0
M  V30 2343 H 228.229 -5.04509 -2.23997 0
M  V30 2344 H 228.706 -3.42655 -2.74744 0
M  V30 2345 H 229.312 -4.07802 -1.20737 0
M  V30 2346 N 227.627 0.131896 -1.57047 0
M  V30 2347 C 228.852 0.860418 -1.8871 0
M  V30 2348 C 229.277 1.73251 -0.73251 0
M  V30 2349 O 228.635 1.785 0.317429 0
M  V30 2350 C 228.683 1.68047 -3.19049 0
M  V30 2351 O 227.787 2.7862 -3.04047 0
M  V30 2352 H 227.128 0.238743 -0.619595 0
M  V30 2353 H 229.658 0.118169 -2.04258 0
M  V30 2354 H 229.668 2.07238 -3.51449 0
M  V30 2355 H 228.343 1.04018 -4.02682 0
M  V30 2356 H 226.92 2.42726 -2.83088 0
M  V30 2357 N 229.106 1.52395 0.401703 0
M  V30 2358 C 230.353 1.66817 1.14796 0
M  V30 2359 C 230.681 0.401772 1.90305 0
M  V30 2360 O 229.936 -0.615487 1.85769 0
M  V30 2361 C 230.235 2.84578 2.16217 0
M  V30 2362 C 229.901 4.22513 1.5746 0
M  V30 2363 C 228.563 4.60029 1.41161 0
M  V30 2364 C 230.915 5.0844 1.14622 0
M  V30 2365 C 228.243 5.81144 0.80552 0
M  V30 2366 C 230.595 6.30167 0.55428 0
M  V30 2367 C 229.259 6.66426 0.378482 0
M  V30 2368 H 228.529 0.610428 0.420069 0
M  V30 2369 H 231.176 1.86512 0.434212 0
M  V30 2370 H 229.481 2.59248 2.93764 0
M  V30 2371 H 231.178 2.92933 2.73845 0
M  V30 2372 H 227.768 3.92953 1.71132 0
M  V30 2373 H 231.952 4.80034 1.26021 0
M  V30 2374 H 227.208 6.07855 0.657399 0
M  V30 2375 H 231.382 6.96071 0.213983 0
M  V30 2376 H 229.009 7.60143 -0.0932606 0
M  V30 2377 N 230.584 -0.659388 1.43143 0
M  V30 2378 C 231.812 -1.44723 1.47861 0
M  V30 2379 C 232.227 -1.88563 0.0945886 0
M  V30 2380 O 231.584 -1.59108 -0.893915 0
M  V30 2381 C 231.635 -2.68627 2.41913 0
M  V30 2382 O 231.356 -2.26623 3.74932 0
M  V30 2383 C 232.857 -3.62045 2.55809 0
M  V30 2384 H 230.077 -0.444801 0.502387 0
M  V30 2385 H 232.621 -0.808916 1.87821 0
M  V30 2386 H 230.776 -3.28613 2.05164 0
M  V30 2387 H 231.19 -3.06745 4.2545 0
M  V30 2388 H 232.664 -4.45666 3.25708 0
M  V30 2389 H 233.141 -4.08981 1.60099 0
M  V30 2390 H 233.747 -3.07944 2.93344 0
M  V30 2391 N 232.062 -1.29571 -0.897171 0
M  V30 2392 C 232.992 -1.17473 -2.01798 0
M  V30 2393 C 233.973 -0.068323 -1.69963 0
M  V30 2394 O 235.158 -0.248239 -1.92607 0
M  V30 2395 C 232.288 -0.853099 -3.36659 0
M  V30 2396 C 231.242 -1.9161 -3.82713 0
M  V30 2397 C 230.568 -1.44773 -5.14728 0
M  V30 2398 C 231.868 -3.32535 -4.02763 0
M  V30 2399 H 233.562 -2.11237 -2.12177 0
M  V30 2400 H 231.108 -1.01699 -1.01948 0
M  V30 2401 H 233.061 -0.755165 -4.14578 0
M  V30 2402 H 231.785 0.120236 -3.26379 0
M  V30 2403 H 230.444 -2.00346 -3.07013 0
M  V30 2404 H 230.092 -0.462995 -5.00865 0
M  V30 2405 H 229.792 -2.15865 -5.46513 0
M  V30 2406 H 231.316 -1.36334 -5.95185 0
M  V30 2407 H 232.73 -3.26626 -4.71156 0
M  V30 2408 H 231.127 -4.01607 -4.45905 0
M  V30 2409 H 232.197 -3.75326 -3.07016 0
M  V30 2410 N 233.54 1.10788 -1.12088 0
M  V30 2411 C 234.487 2.17025 -0.785407 0
M  V30 2412 C 235.457 1.64265 0.246191 0
M  V30 2413 O 236.642 1.90412 0.121584 0
M  V30 2414 C 233.782 3.44249 -0.242177 0
M  V30 2415 C 232.895 4.1098 -1.33115 0
M  V30 2416 C 232.03 5.25911 -0.747741 0
M  V30 2417 C 231.069 5.84538 -1.81609 0
M  V30 2418 N 230.206 6.90853 -1.25167 0
M  V30 2419 H 235.046 2.45066 -1.69548 0
M  V30 2420 H 232.583 1.20297 -0.846582 0
M  V30 2421 H 234.541 4.17101 0.0908026 0
M  V30 2422 H 233.171 3.16571 0.631072 0
M  V30 2423 H 232.223 3.36133 -1.78097 0
M  V30 2424 H 233.535 4.50601 -2.13917 0
M  V30 2425 H 232.689 6.056 -0.365216 0
M  V30 2426 H 231.428 4.87614 0.0915188 0
M  V30 2427 H 230.433 5.03522 -2.20785 0
M  V30 2428 H 231.658 6.249 -2.6585 0
M  V30 2429 H 229.604 6.54562 -0.434174 0
M  V30 2430 H 229.521 7.29166 -1.99633 0
M  V30 2431 H 230.789 7.7433 -0.896259 0
M  V30 2432 N 235.018 0.912232 1.28515 0
M  V30 2433 C 236.243 0.559774 1.99703 0
M  V30 2434 C 236.668 -0.851393 1.67729 0
M  V30 2435 O 236.026 -1.56875 0.908834 0
M  V30 2436 C 236.074 0.773874 3.52198 0
M  V30 2437 O 235.178 -0.167842 4.12058 0
M  V30 2438 H 234.519 0.21723 0.627461 0
M  V30 2439 H 237.049 1.22725 1.63706 0
M  V30 2440 H 237.059 0.683386 4.02236 0
M  V30 2441 H 235.734 1.80261 3.74805 0
M  V30 2442 H 234.311 -0.0287509 3.72889 0
M  V30 2443 N 236.496 -1.42363 0.676048 0
M  V30 2444 C 237.743 -2.01522 0.19883 0
M  V30 2445 C 238.071 -1.53456 -1.19505 0
M  V30 2446 O 237.326 -0.727967 -1.81657 0
M  V30 2447 C 237.625 -3.56929 0.183431 0
M  V30 2448 C 237.291 -4.24431 1.52215 0
M  V30 2449 C 235.953 -4.42585 1.8887 0
M  V30 2450 C 238.305 -4.62459 2.40377 0
M  V30 2451 C 235.633 -4.96039 3.13309 0
M  V30 2452 C 237.985 -5.17294 3.64129 0
M  V30 2453 C 236.649 -5.33661 4.00951 0
M  V30 2454 H 235.919 -0.737419 0.0727571 0
M  V30 2455 H 238.566 -1.70531 0.871281 0
M  V30 2456 H 236.871 -3.87594 -0.572532 0
M  V30 2457 H 238.568 -4.00486 -0.203035 0
M  V30 2458 H 235.158 -4.10661 1.22701 0
M  V30 2459 H 239.342 -4.48105 2.13343 0
M  V30 2460 H 234.598 -5.06896 3.41857 0
M  V30 2461 H 238.772 -5.45704 4.32644 0
M  V30 2462 H 236.399 -5.74845 4.9745 0
M  V30 2463 N 237.974 -0.419461 -1.51915 0
M  V30 2464 C 238.921 0.400927 -2.27291 0
M  V30 2465 C 239.891 1.03224 -1.30131 0
M  V30 2466 O 241.076 1.05455 -1.59009 0
M  V30 2467 C 238.216 1.50603 -3.10504 0
M  V30 2468 C 237.329 0.89462 -4.22635 0
M  V30 2469 C 236.464 1.97328 -4.93189 0
M  V30 2470 C 235.503 1.33935 -5.97267 0
M  V30 2471 N 234.64 2.3586 -6.61298 0
M  V30 2472 H 239.48 -0.248251 -2.96964 0
M  V30 2473 H 237.017 -0.134266 -1.46486 0
M  V30 2474 H 238.975 2.15783 -3.57062 0
M  V30 2475 H 237.605 2.12509 -2.42981 0
M  V30 2476 H 236.657 0.131583 -3.80172 0
M  V30 2477 H 237.969 0.391641 -4.9726 0
M  V30 2478 H 237.123 2.70211 -5.43204 0
M  V30 2479 H 235.862 2.50994 -4.18155 0
M  V30 2480 H 234.867 0.595896 -5.46561 0
M  V30 2481 H 236.092 0.810252 -6.74249 0
M  V30 2482 H 234.038 2.88639 -5.89087 0
M  V30 2483 H 233.955 1.90403 -7.3163 0
M  V30 2484 H 235.223 3.08282 -7.15949 0
M  V30 2485 N 239.452 1.56882 -0.150215 0
M  V30 2486 C 240.677 2.01027 0.510184 0
M  V30 2487 C 241.102 1.02966 1.57415 0
M  V30 2488 O 240.46 0.00590158 1.81299 0
M  V30 2489 C 240.508 3.43899 1.08472 0
M  V30 2490 O 239.612 3.4885 2.19948 0
M  V30 2491 H 238.953 0.652233 0.124451 0
M  V30 2492 H 241.483 2.03093 -0.247894 0
M  V30 2493 H 241.493 3.82766 1.41259 0
M  V30 2494 H 240.168 4.14776 0.305582 0
M  V30 2495 H 238.745 3.21827 1.88366 0
M  V30 2496 N 240.93 -0.123565 1.57115 0
M  V30 2497 C 242.346 -0.476961 1.52306 0
M  V30 2498 C 242.546 -1.82109 0.86248 0
M  V30 2499 O 241.602 -2.48586 0.442884 0
M  V30 2500 C 242.915 -0.465661 2.97073 0
M  V30 2501 C 244.463 -0.549534 3.08138 0
M  V30 2502 C 244.938 -0.568669 4.54456 0
M  V30 2503 N 246.429 -0.630237 4.58892 0
M  V30 2504 C 247.164 -0.666415 5.69514 0
M  V30 2505 N 246.66 -0.660514 6.89644 0
M  V30 2506 N 248.453 -0.709077 5.5761 0
M  V30 2507 H 240.604 0.757198 1.98445 0
M  V30 2508 H 242.867 0.278808 0.906074 0
M  V30 2509 H 242.573 0.454232 3.48754 0
M  V30 2510 H 242.447 -1.29513 3.54269 0
M  V30 2511 H 244.834 -1.45985 2.56461 0
M  V30 2512 H 244.915 0.307532 2.53945 0
M  V30 2513 H 244.559 0.337581 5.06777 0
M  V30 2514 H 244.489 -1.44256 5.06456 0
M  V30 2515 H 246.98 -0.641146 3.72421 0
M  V30 2516 H 247.293 -0.690616 7.69708 0
M  V30 2517 H 245.638 -0.628012 6.92157 0
M  V30 2518 H 248.829 -0.711019 4.62668 0
M  V30 2519 H 249.002 -0.733804 6.43832 0
M  V30 2520 N 242.408 -1.52605 -0.393616 0
M  V30 2521 C 243.656 -1.67093 -1.13685 0
M  V30 2522 C 243.977 -0.411011 -1.90619 0
M  V30 2523 O 243.247 0.574491 -1.87287 0
M  V30 2524 H 241.827 -0.615923 -0.422668 0
M  V30 2525 H 244.489 -1.89704 -0.447039 0
M  V30 2526 H 243.585 -2.51922 -1.84232 0
M  V30 2527 N 243.887 0.651787 -1.4349 0
M  V30 2528 C 244.835 1.78586 -1.49029 0
M  V30 2529 C 245.829 1.65448 -0.363767 0
M  V30 2530 O 247.035 1.71777 -0.537821 0
M  V30 2531 H 243.41 0.589236 -0.467231 0
M  V30 2532 H 245.381 1.71035 -2.44519 0
M  V30 2533 C 244.13 3.16851 -1.43181 0
M  V30 2534 H 243.453 3.27598 -2.29171 0
M  V30 2535 H 244.893 3.96156 -1.51118 0
M  V30 2536 C 243.352 3.36568 -0.149616 0
M  V30 2537 O 243.882 3.93885 0.788509 0
M  V30 2538 N 242.088 2.90539 -0.0593484 0
M  V30 2539 H 241.635 2.4408 -0.823575 0
M  V30 2540 H 241.593 3.04108 0.797853 0
M  V30 2541 N 245.365 1.30045 0.890287 0
M  V30 2542 C 246.605 1.19839 1.65584 0
M  V30 2543 C 246.969 -0.244175 1.90441 0
M  V30 2544 O 248.17 -0.469378 2.6467 0
M  V30 2545 C 246.441 1.99876 2.96284 0
M  V30 2546 S 248 2.06309 3.87275 0
M  V30 2547 H 244.818 0.427157 0.568382 0
M  V30 2548 H 247.42 1.64453 1.05715 0
M  V30 2549 H 246.124 3.03809 2.75913 0
M  V30 2550 H 245.655 1.55903 3.61189 0
M  V30 2551 H 247.67 1.18661 4.81803 0
M  V30 2552 N 246.843 -1.10192 1.12674 0
M  V30 2553 C 247.775 -2.16418 0.754701 0
M  V30 2554 C 248.788 -1.61309 -0.21986 0
M  V30 2555 O 249.977 -1.785 -0.000826841 0
M  V30 2556 C 247.077 -3.38762 0.096698 0
M  V30 2557 C 246.25 -4.23307 1.10136 0
M  V30 2558 C 245.309 -5.24092 0.470513 0
M  V30 2559 O 244.335 -5.57906 1.12824 0
M  V30 2560 N 245.537 -5.75491 -0.760948 0
M  V30 2561 H 248.302 -2.48943 1.66875 0
M  V30 2562 H 245.863 -1.25834 1.01869 0
M  V30 2563 H 247.855 -4.03291 -0.337384 0
M  V30 2564 H 246.425 -3.04192 -0.720153 0
M  V30 2565 H 245.645 -3.55036 1.71299 0
M  V30 2566 H 246.933 -4.76624 1.78064 0
M  V30 2567 H 246.331 -5.50222 -1.31424 0
M  V30 2568 H 244.888 -6.41792 -1.13781 0
M  V30 2569 N 248.321 -0.919034 -1.28029 0
M  V30 2570 C 249.549 -0.570971 -1.98866 0
M  V30 2571 C 249.964 0.848996 -1.68634 0
M  V30 2572 O 249.321 1.56307 -0.942036 0
M  V30 2573 C 249.372 -0.776876 -3.53054 0
M  V30 2574 O 249.093 -2.14097 -3.82222 0
M  V30 2575 C 250.594 -0.436356 -4.41147 0
M  V30 2576 H 247.814 -0.217175 -0.634883 0
M  V30 2577 H 250.358 -1.23368 -1.63097 0
M  V30 2578 H 248.513 -0.161085 -3.87065 0
M  V30 2579 H 248.927 -2.18455 -4.76841 0
M  V30 2580 H 250.401 -0.63117 -5.4838 0
M  V30 2581 H 250.878 0.627686 -4.34692 0
M  V30 2582 H 251.484 -1.02991 -4.12641 0
M  V30 2583 N 249.799 1.42003 -0.683588 0
M  V30 2584 C 250.731 2.29183 0.0283068 0
M  V30 2585 C 251.744 1.4415 0.756611 0
M  V30 2586 O 252.933 1.67779 0.609306 0
M  V30 2587 C 250.033 3.21765 1.06398 0
M  V30 2588 C 249.206 4.35496 0.407723 0
M  V30 2589 C 248.265 5.08737 1.34437 0
M  V30 2590 O 247.291 5.62948 0.841318 0
M  V30 2591 N 248.493 5.15075 2.67728 0
M  V30 2592 H 251.258 2.9092 -0.720105 0
M  V30 2593 H 248.819 1.53025 -0.528682 0
M  V30 2594 H 250.811 3.6763 1.69204 0
M  V30 2595 H 249.381 2.61418 1.71404 0
M  V30 2596 H 248.601 3.92165 -0.400012 0
M  V30 2597 H 249.889 5.08776 -0.0490956 0
M  V30 2598 H 249.287 4.72457 3.11129 0
M  V30 2599 H 247.844 5.64556 3.2576 0
M  V30 2600 N 251.277 0.427512 1.51691 0
M  V30 2601 C 252.525 -0.141948 2.01601 0
M  V30 2602 C 252.846 -1.44067 1.31414 0
M  V30 2603 O 252.116 -1.90763 0.445658 0
M  V30 2604 H 250.696 -0.0554468 0.744939 0
M  V30 2605 H 253.358 0.567968 1.86441 0
M  V30 2606 H 252.454 -0.324913 3.10404 0
M  V30 2607 N 252.755 -1.56801 0.158532 0
M  V30 2608 C 254.032 -1.88131 -0.535357 0
M  V30 2609 C 254.412 -1.06638 -1.82186 0
M  V30 2610 O 253.76 -0.156533 -2.27963 0
M  V30 2611 C 253.97 -3.39949 -0.789653 0
M  V30 2612 C 255.318 -4.09416 -1.12533 0
M  V30 2613 O 256.342 -3.45194 -0.878622 0
M  V30 2614 O 255.201 -5.22855 -1.59014 0
M  V30 2615 H 252.295 -0.780143 -0.27442 0
M  V30 2616 H 254.841 -1.68564 0.19601 0
M  V30 2617 H 253.613 -3.91115 0.120353 0
M  V30 2618 H 253.236 -3.65084 -1.57479 0
M  V30 2619 N 254.233 0.115231 -1.57178 0
M  V30 2620 C 255.458 0.840354 -1.89612 0
M  V30 2621 C 255.883 1.72464 -0.750845 0
M  V30 2622 O 255.241 1.78826 0.298478 0
M  V30 2623 C 255.289 1.64654 -3.20814 0
M  V30 2624 O 254.393 2.7538 -3.06985 0
M  V30 2625 H 253.734 0.232158 -0.622092 0
M  V30 2626 H 256.264 0.0964977 -2.04372 0
M  V30 2627 H 256.274 2.03499 -3.53627 0
M  V30 2628 H 254.949 0.997416 -4.03763 0
M  V30 2629 H 253.526 2.3971 -2.85646 0
M  V30 2630 N 255.711 1.52812 0.385517 0
M  V30 2631 C 256.96 1.67249 1.12741 0
M  V30 2632 C 257.273 0.4205 1.91027 0
M  V30 2633 O 258.479 0.445064 2.67827 0
M  V30 2634 C 256.935 2.95583 2.05326 0
M  V30 2635 C 256.543 4.27974 1.32447 0
M  V30 2636 C 258.287 3.19386 2.7963 0
M  V30 2637 C 256.194 5.47412 2.23818 0
M  V30 2638 H 255.124 0.6231 0.424573 0
M  V30 2639 H 257.775 1.79309 0.389924 0
M  V30 2640 H 256.157 2.77277 2.82725 0
M  V30 2641 H 257.331 4.56844 0.602495 0
M  V30 2642 H 255.646 4.10459 0.700885 0
M  V30 2643 H 258.243 4.05801 3.48181 0
M  V30 2644 H 258.586 2.34604 3.43899 0
M  V30 2645 H 259.119 3.38274 2.09322 0
M  V30 2646 H 255.858 6.34612 1.64157 0
M  V30 2647 H 255.378 5.22849 2.93921 0
M  V30 2648 H 257.057 5.81423 2.83824 0
M  V30 2649 N 257.189 -0.644168 1.43834 0
M  V30 2650 C 258.119 -1.76814 1.52509 0
M  V30 2651 C 259.1 -1.65823 0.379052 0
M  V30 2652 O 260.285 -1.84781 0.597466 0
M  V30 2653 C 257.415 -3.15288 1.4564 0
M  V30 2654 C 256.369 -3.41053 2.58586 0
M  V30 2655 C 255.695 -4.79421 2.36769 0
M  V30 2656 C 256.995 -3.34902 4.00797 0
M  V30 2657 H 258.689 -1.69812 2.46586 0
M  V30 2658 H 256.235 -0.815542 1.1868 0
M  V30 2659 H 258.188 -3.93681 1.50311 0
M  V30 2660 H 256.912 -3.23043 0.480725 0
M  V30 2661 H 255.571 -2.65035 2.53282 0
M  V30 2662 H 255.219 -4.83863 1.37424 0
M  V30 2663 H 254.919 -4.9762 3.12487 0
M  V30 2664 H 256.443 -5.6006 2.43238 0
M  V30 2665 H 257.857 -4.03218 4.07539 0
M  V30 2666 H 256.254 -3.64637 4.76613 0
M  V30 2667 H 257.324 -2.32928 4.25291 0
M  V30 2668 N 258.668 -1.30515 -0.883378 0
M  V30 2669 C 259.945 -1.10086 -1.6168 0
M  V30 2670 C 260.325 0.349269 -2.08191 0
M  V30 2671 O 259.673 1.34105 -1.85008 0
M  V30 2672 C 259.883 -2.10315 -2.78511 0
M  V30 2673 C 261.231 -2.42119 -3.48803 0
M  V30 2674 O 262.255 -2.08638 -2.88702 0
M  V30 2675 O 261.114 -2.99396 -4.57192 0
M  V30 2676 H 258.208 -0.422907 -0.710689 0
M  V30 2677 H 260.754 -1.41947 -0.930015 0
M  V30 2678 H 259.526 -3.07917 -2.41459 0
M  V30 2679 H 259.149 -1.79282 -3.54886 0
M  V30 2680 N 260.146 1.09593 -1.13257 0
M  V30 2681 C 261.386 1.83349 -0.903472 0
M  V30 2682 C 261.75 1.83641 0.560351 0
M  V30 2683 O 262.951 2.53037 0.906947 0
M  V30 2684 C 261.222 3.25629 -1.47311 0
M  V30 2685 S 262.781 4.16408 -1.38382 0
M  V30 2686 H 259.599 0.632014 -0.325699 0
M  V30 2687 H 262.201 1.31817 -1.44376 0
M  V30 2688 H 260.905 3.22991 -2.53189 0
M  V30 2689 H 260.436 3.82233 -0.930689 0
M  V30 2690 H 262.451 4.94884 -0.361113 0
M  V30 2691 N 261.624 0.925811 1.2754 0
M  V30 2692 C 262.87 0.566092 1.94739 0
M  V30 2693 C 263.203 -0.890057 1.72603 0
M  V30 2694 O 262.478 -1.63467 1.05399 0
M  V30 2695 C 262.761 0.89054 3.48915 0
M  V30 2696 C 262.614 2.4003 3.80402 0
M  V30 2697 C 263.933 0.395101 4.38323 0
M  V30 2698 H 261.052 0.20714 0.707292 0
M  V30 2699 H 263.694 1.15725 1.50691 0
M  V30 2700 H 261.844 0.387452 3.86563 0
M  V30 2701 H 263.516 2.97494 3.52555 0
M  V30 2702 H 261.759 2.85028 3.2702 0
M  V30 2703 H 262.43 2.57785 4.8811 0
M  V30 2704 H 264.906 0.826241 4.07814 0
M  V30 2705 H 263.782 0.651086 5.45025 0
M  V30 2706 H 264.043 -0.704798 4.36446 0
M  V30 2707 N 263.102 -1.41638 0.69111 0
M  V30 2708 C 264.513 -1.84346 0.295517 0
M  V30 2709 C 264.864 -1.57833 -1.16547 0
M  V30 2710 O 263.989 -1.04648 -1.89414 0
M  V30 2711 C 264.584 -3.34636 0.529575 0
M  V30 2712 C 263.143 -3.7593 0.187944 0
M  V30 2713 C 262.29 -2.65082 0.814052 0
M  V30 2714 H 265.241 -1.31253 0.892092 0
M  V30 2715 H 265.262 -3.79903 -0.213148 0
M  V30 2716 H 264.774 -3.53901 1.59297 0
M  V30 2717 H 262.875 -3.62268 -0.871367 0
M  V30 2718 H 262.988 -4.74808 0.63985 0
M  V30 2719 H 261.352 -2.53528 0.244017 0
M  V30 2720 H 262.135 -2.87167 1.88123 0
M  V30 2721 N 264.58 -0.43555 -1.51462 0
M  V30 2722 C 265.527 0.376797 -2.27703 0
M  V30 2723 C 266.497 1.01838 -1.31219 0
M  V30 2724 O 267.682 1.03762 -1.60119 0
M  V30 2725 C 264.822 1.47301 -3.12084 0
M  V30 2726 C 263.935 0.849744 -4.2356 0
M  V30 2727 C 263.07 1.92086 -4.95254 0
M  V30 2728 C 262.109 1.27593 -5.98654 0
M  V30 2729 N 261.246 2.28833 -6.63762 0
M  V30 2730 H 266.086 -0.279734 -2.96684 0
M  V30 2731 H 263.623 -0.149795 -1.46335 0
M  V30 2732 H 265.581 2.11984 -3.59331 0
M  V30 2733 H 264.211 2.0992 -2.45221 0
M  V30 2734 H 263.263 0.0912529 -3.80291 0
M  V30 2735 H 264.575 0.338878 -4.97648 0
M  V30 2736 H 263.729 2.64435 -5.46039 0
M  V30 2737 H 262.468 2.46545 -4.20793 0
M  V30 2738 H 261.473 0.537893 -5.47162 0
M  V30 2739 H 262.698 0.738693 -6.7507 0
M  V30 2740 H 260.644 2.82375 -5.92115 0
M  V30 2741 H 260.561 1.82632 -7.33608 0
M  V30 2742 H 261.829 3.00671 -7.19178 0
M  V30 2743 N 266.058 1.56714 -0.166846 0
M  V30 2744 C 267.335 1.88412 0.525373 0
M  V30 2745 C 267.715 1.07602 1.81618 0
M  V30 2746 O 267.063 0.168621 2.27877 0
M  V30 2747 C 267.273 3.40363 0.771613 0
M  V30 2748 C 268.621 4.10007 1.1036 0
M  V30 2749 O 269.645 3.45655 0.860304 0
M  V30 2750 O 268.504 5.2369 1.56239 0
M  V30 2751 H 265.598 0.781587 0.270278 0
M  V30 2752 H 268.144 1.68458 -0.204946 0
M  V30 2753 H 266.916 3.91046 -0.141093 0
M  V30 2754 H 266.539 3.65914 1.55541 0
M  V30 2755 N 267.536 -0.106894 1.57237 0
M  V30 2756 C 268.784 -0.810921 1.85117 0
M  V30 2757 C 269.105 -1.7984 0.753827 0
M  V30 2758 O 268.375 -1.94649 -0.221056 0
M  V30 2759 H 266.955 -0.302466 0.683025 0
M  V30 2760 H 269.617 -0.0913324 1.94686 0
M  V30 2761 H 268.713 -1.34875 2.81452 0
M  V30 2762 N 269.014 -1.53014 -0.377408 0
M  V30 2763 C 269.946 -1.74884 -1.48149 0
M  V30 2764 C 270.959 -0.629433 -1.5014 0
M  V30 2765 O 272.148 -0.905416 -1.53833 0
M  V30 2766 C 269.248 -1.80299 -2.86959 0
M  V30 2767 C 268.421 -3.09776 -3.08801 0
M  V30 2768 C 267.48 -3.06586 -4.27658 0
M  V30 2769 O 266.506 -3.80419 -4.23403 0
M  V30 2770 N 267.708 -2.26578 -5.34455 0
M  V30 2771 H 270.473 -2.70147 -1.29771 0
M  V30 2772 H 268.034 -1.51646 -0.56703 0
M  V30 2773 H 270.026 -1.75657 -3.64591 0
M  V30 2774 H 268.596 -0.92372 -2.98641 0
M  V30 2775 H 267.816 -3.27815 -2.18931 0
M  V30 2776 H 269.104 -3.95366 -3.20255 0
M  V30 2777 H 268.502 -1.66081 -5.40771 0
M  V30 2778 H 267.059 -2.27766 -6.10709 0
M  V30 2779 N 270.492 0.636531 -1.44174 0
M  V30 2780 C 271.717 1.42847 -1.50364 0
M  V30 2781 C 272.142 1.87665 -0.127867 0
M  V30 2782 O 271.5 1.58408 0.88185 0
M  V30 2783 C 271.548 2.62854 -2.4686 0
M  V30 2784 O 270.652 3.62501 -1.9664 0
M  V30 2785 H 269.993 0.427642 -0.507955 0
M  V30 2786 H 272.523 0.777422 -1.89255 0
M  V30 2787 H 272.533 3.10465 -2.64718 0
M  V30 2788 H 271.208 2.29578 -3.46795 0
M  V30 2789 H 269.785 3.21735 -1.88523 0
M  V30 2790 N 271.97 1.30982 0.876444 0
M  V30 2791 C 272.92 1.14688 1.97055 0
M  V30 2792 C 273.904 0.0596593 1.60789 0
M  V30 2793 O 275.096 0.283892 1.74708 0
M  V30 2794 C 272.225 0.849627 3.3262 0
M  V30 2795 C 271.311 1.97752 3.75173 0
M  V30 2796 N 271.702 3.22384 3.89746 0
M  V30 2797 C 270 1.8758 4.04635 0
M  V30 2798 C 270.701 3.96121 4.25985 0
M  V30 2799 N 269.677 3.24237 4.36315 0
M  V30 2800 H 273.479 2.09204 2.06424 0
M  V30 2801 H 270.993 1.22445 1.06682 0
M  V30 2802 H 272.99 0.713895 4.10742 0
M  V30 2803 H 271.65 -0.087376 3.24582 0
M  V30 2804 H 272.661 3.57575 3.74647 0
M  V30 2805 H 269.338 1.01303 4.05024 0
M  V30 2806 H 270.728 5.03491 4.44911 0
M  V30 2807 N 273.449 -1.08991 1.13837 0
M  V30 2808 C 274.689 -1.82867 0.913183 0
M  V30 2809 C 275.053 -1.83936 -0.550604 0
M  V30 2810 O 276.254 -2.53515 -0.893515 0
M  V30 2811 C 274.525 -3.24843 1.49036 0
M  V30 2812 S 276.084 -4.15669 1.40588 0
M  V30 2813 H 272.902 -0.630278 0.329046 0
M  V30 2814 H 275.504 -1.31049 1.45073 0
M  V30 2815 H 274.208 -3.21644 2.54899 0
M  V30 2816 H 273.739 -3.81734 0.950947 0
M  V30 2817 H 275.754 -4.94686 0.387353 0
M  V30 2818 N 274.927 -0.932562 -1.27047 0
M  V30 2819 C 276.167 -0.582919 -1.95912 0
M  V30 2820 C 276.531 0.860629 -1.71631 0
M  V30 2821 O 277.732 1.31878 -2.34225 0
M  V30 2822 C 276.003 -0.905673 -3.45734 0
M  V30 2823 S 277.562 -0.665277 -4.33727 0
M  V30 2824 H 274.38 -0.215 -0.677714 0
M  V30 2825 H 276.982 -1.20204 -1.54179 0
M  V30 2826 H 275.686 -1.95386 -3.60905 0
M  V30 2827 H 275.217 -0.275939 -3.92431 0
M  V30 2828 H 277.232 0.474635 -4.93925 0
M  V30 2829 N 276.405 1.4127 -0.698611 0
M  V30 2830 C 277.654 2.00408 -0.227949 0
M  V30 2831 C 277.967 1.55981 1.18023 0
M  V30 2832 O 279.173 2.07699 1.74852 0
M  V30 2833 C 277.629 3.58129 -0.356636 0
M  V30 2834 C 277.237 4.11536 -1.77037 0
M  V30 2835 C 278.981 4.24466 0.0540969 0
M  V30 2836 C 276.888 5.61701 -1.85055 0
M  V30 2837 H 275.818 0.749586 -0.0814657 0
M  V30 2838 H 278.469 1.61713 -0.867249 0
M  V30 2839 H 276.851 3.94442 0.350965 0
M  V30 2840 H 278.025 3.86636 -2.50698 0
M  V30 2841 H 276.34 3.57736 -2.13105 0
M  V30 2842 H 278.937 5.34698 0.0146723 0
M  V30 2843 H 279.28 4.01687 1.09332 0
M  V30 2844 H 279.813 3.93198 -0.603337 0
M  V30 2845 H 276.552 5.89312 -2.8704 0
M  V30 2846 H 276.072 5.88519 -1.15783 0
M  V30 2847 H 277.751 6.26524 -1.61484 0
M  V30 2848 N 277.883 0.443576 1.51229 0
M  V30 2849 C 279.294 -0.0180867 1.86691 0
M  V30 2850 C 279.645 -1.41384 1.36033 0
M  V30 2851 O 278.77 -2.04291 0.713722 0
M  V30 2852 C 279.365 -0.039597 3.38777 0
M  V30 2853 C 277.924 -0.445692 3.73752 0
M  V30 2854 C 277.071 0.357584 2.74985 0
M  V30 2855 H 280.022 0.659138 1.44364 0
M  V30 2856 H 280.043 -0.847761 3.70936 0
M  V30 2857 H 279.555 0.976382 3.75617 0
M  V30 2858 H 277.656 -1.46704 3.42503 0
M  V30 2859 H 277.769 -0.166155 4.78812 0
M  V30 2860 H 276.133 -0.184973 2.54027 0
M  V30 2861 H 276.916 1.37256 3.14668 0
M  V30 2862 N 279.361 -1.56624 0.175154 0
M  V30 2863 C 280.777 -1.58571 -0.180966 0
M  V30 2864 C 280.977 -1.19065 -1.6256 0
M  V30 2865 O 280.033 -0.904044 -2.35761 0
M  V30 2866 C 281.346 -3.00522 0.103326 0
M  V30 2867 C 282.894 -3.12972 0.0418426 0
M  V30 2868 C 283.369 -4.57022 0.299175 0
M  V30 2869 N 284.86 -4.62541 0.247086 0
M  V30 2870 C 285.595 -5.71857 0.420318 0
M  V30 2871 N 285.091 -6.89717 0.652816 0
M  V30 2872 N 286.884 -5.60972 0.355957 0
M  V30 2873 H 279.035 -1.80589 1.11809 0
M  V30 2874 H 281.298 -0.837178 0.444788 0
M  V30 2875 H 281.004 -3.33916 1.10422 0
M  V30 2876 H 280.878 -3.72344 -0.603299 0
M  V30 2877 H 283.265 -2.79403 -0.949636 0
M  V30 2878 H 283.346 -2.43578 0.781238 0
M  V30 2879 H 282.99 -4.913 1.28788 0
M  V30 2880 H 282.92 -5.24579 -0.460876 0
M  V30 2881 H 285.411 -3.77829 0.0731895 0
M  V30 2882 H 285.724 -7.68911 0.774347 0
M  V30 2883 H 284.069 -6.91572 0.689476 0
M  V30 2884 H 287.26 -4.67773 0.174882 0
M  V30 2885 H 287.433 -6.46111 0.494388 0
M  V30 2886 N 280.839 0.0985539 -1.57292 0
M  V30 2887 C 281.786 1.11981 -2.01814 0
M  V30 2888 C 282.756 1.39999 -0.89384 0
M  V30 2889 O 283.941 1.5152 -1.15958 0
M  V30 2890 C 281.081 2.43577 -2.44467 0
M  V30 2891 C 280.194 2.2232 -3.70402 0
M  V30 2892 C 279.329 3.4729 -4.01949 0
M  V30 2893 C 278.368 3.2128 -5.21005 0
M  V30 2894 N 277.505 4.38507 -5.48321 0
M  V30 2895 H 282.345 0.733149 -2.88841 0
M  V30 2896 H 279.882 0.350482 -1.42864 0
M  V30 2897 H 281.84 3.20373 -2.6724 0
M  V30 2898 H 280.47 2.80097 -1.60455 0
M  V30 2899 H 279.522 1.36343 -3.55126 0
M  V30 2900 H 280.834 1.99089 -4.57345 0
M  V30 2901 H 279.988 4.32495 -4.25479 0
M  V30 2902 H 278.727 3.73572 -3.13521 0
M  V30 2903 H 277.732 2.34468 -4.97298 0
M  V30 2904 H 278.957 2.96348 -6.11028 0
M  V30 2905 H 276.903 4.64871 -4.62851 0
M  V30 2906 H 276.82 4.18455 -6.29628 0
M  V30 2907 H 278.088 5.24787 -5.76385 0
M  V30 2908 N 282.317 1.53212 0.369288 0
M  V30 2909 C 283.267 1.75769 1.45222 0
M  V30 2910 C 284.251 0.612136 1.48801 0
M  V30 2911 O 285.443 0.870674 1.54105 0
M  V30 2912 C 282.572 1.94769 2.82701 0
M  V30 2913 C 281.658 3.15315 2.83615 0
M  V30 2914 N 282.049 4.37295 2.54178 0
M  V30 2915 C 280.347 3.15962 3.14776 0
M  V30 2916 C 281.048 5.19015 2.62675 0
M  V30 2917 N 280.024 4.55142 2.97232 0
M  V30 2918 H 283.826 2.67691 1.2132 0
M  V30 2919 H 281.34 1.51787 0.577438 0
M  V30 2920 H 283.337 2.09056 3.60696 0
M  V30 2921 H 281.997 1.04073 3.07569 0
M  V30 2922 H 283.008 4.65091 2.27839 0
M  V30 2923 H 279.685 2.35144 3.44983 0
M  V30 2924 H 281.075 6.26305 2.43294 0
M  V30 2925 N 283.795 -0.628877 1.44509 0
M  V30 2926 C 284.725 -1.75187 1.54376 0
M  V30 2927 C 285.706 -1.65411 0.396618 0
M  V30 2928 O 286.891 -1.84137 0.617031 0
M  V30 2929 C 284.021 -3.13725 1.48976 0
M  V30 2930 C 282.975 -3.38291 2.62189 0
M  V30 2931 C 282.301 -4.76883 2.41841 0
M  V30 2932 C 283.601 -3.30632 4.04326 0
M  V30 2933 H 285.295 -1.67187 2.48373 0
M  V30 2934 H 282.841 -0.802909 1.19538 0
M  V30 2935 H 284.794 -3.92064 1.54478 0
M  V30 2936 H 283.518 -3.22515 0.514961 0
M  V30 2937 H 282.177 -2.62334 2.56079 0
M  V30 2938 H 281.825 -4.82378 1.42548 0
M  V30 2939 H 281.525 -4.94278 3.17747 0
M  V30 2940 H 283.049 -5.57449 2.49165 0
M  V30 2941 H 284.463 -3.98873 4.11793 0
M  V30 2942 H 282.86 -3.59561 4.80454 0
M  V30 2943 H 283.93 -2.28404 4.27738 0
M  V30 2944 N 285.273 -1.31445 -0.869486 0
M  V30 2945 C 286.203 -1.21727 -1.99261 0
M  V30 2946 C 287.184 -0.104359 -1.6978 0
M  V30 2947 O 288.369 -0.289038 -1.92037 0
M  V30 2948 C 285.499 -0.924317 -3.34774 0
M  V30 2949 C 284.453 -1.99685 -3.78563 0
M  V30 2950 C 283.779 -1.55658 -5.11541 0
M  V30 2951 C 285.079 -3.41003 -3.95619 0
M  V30 2952 H 286.773 -2.1569 -2.07649 0
M  V30 2953 H 284.319 -1.03839 -0.997675 0
M  V30 2954 H 286.272 -0.842934 -4.12883 0
M  V30 2955 H 284.996 0.0509793 -3.2656 0
M  V30 2956 H 283.655 -2.06813 -3.02694 0
M  V30 2957 H 283.303 -0.569132 -4.9977 0
M  V30 2958 H 283.003 -2.27409 -5.41811 0
M  V30 2959 H 284.527 -1.48928 -5.92159 0
M  V30 2960 H 285.941 -3.36547 -4.64122 0
M  V30 2961 H 284.338 -4.10975 -4.37286 0
M  V30 2962 H 285.408 -3.81754 -2.98985 0
M  V30 2963 N 286.751 1.08385 -1.14413 0
M  V30 2964 C 287.681 2.17321 -0.854044 0
M  V30 2965 C 288.662 1.69024 0.191049 0
M  V30 2966 O 289.847 1.94141 0.0476779 0
M  V30 2967 C 286.977 3.45719 -0.330983 0
M  V30 2968 C 285.931 4.07409 -1.31155 0
M  V30 2969 C 285.257 5.30762 -0.64778 0
M  V30 2970 C 286.557 4.48665 -2.67388 0
M  V30 2971 H 288.251 2.41845 -1.76498 0
M  V30 2972 H 285.797 1.16233 -0.850051 0
M  V30 2973 H 287.75 4.21241 -0.115645 0
M  V30 2974 H 286.474 3.2075 0.615381 0
M  V30 2975 H 285.133 3.33919 -1.51306 0
M  V30 2976 H 284.781 5.02078 0.304398 0
M  V30 2977 H 284.481 5.72992 -1.30207 0
M  V30 2978 H 286.005 6.08998 -0.441972 0
M  V30 2979 H 287.419 5.15364 -2.51143 0
M  V30 2980 H 285.816 5.01814 -3.29093 0
M  V30 2981 H 286.886 3.60543 -3.24248 0
M  V30 2982 N 288.23 0.939286 1.26551 0
M  V30 2983 C 289.46 0.601663 1.97645 0
M  V30 2984 C 289.868 -0.827206 1.70159 0
M  V30 2985 O 289.211 -1.56291 0.965338 0
M  V30 2986 C 289.273 0.761725 3.51337 0
M  V30 2987 C 288.937 2.16487 4.0247 0
M  V30 2988 C 289.934 3.14016 4.14355 0
M  V30 2989 C 287.619 2.48494 4.36527 0
M  V30 2990 C 289.613 4.41654 4.59587 0
M  V30 2991 C 287.3 3.76364 4.81449 0
M  V30 2992 C 288.298 4.72758 4.92939 0
M  V30 2993 O 287.986 5.98352 5.36871 0
M  V30 2994 H 287.718 0.225758 0.637189 0
M  V30 2995 H 290.272 1.26178 1.62075 0
M  V30 2996 H 288.502 0.0444808 3.86674 0
M  V30 2997 H 290.191 0.427442 4.03643 0
M  V30 2998 H 290.957 2.90613 3.8829 0
M  V30 2999 H 286.836 1.74202 4.26819 0
M  V30 3000 H 290.38 5.16896 4.68471 0
M  V30 3001 H 286.277 3.99582 5.06956 0
M  V30 3002 H 287.045 6.01507 5.55096 0
M  V30 3003 N 289.708 -1.40897 0.706093 0
M  V30 3004 C 290.64 -2.29199 0.00815776 0
M  V30 3005 C 291.653 -1.45336 -0.733582 0
M  V30 3006 O 292.842 -1.68727 -0.582537 0
M  V30 3007 C 289.942 -3.23417 -1.01265 0
M  V30 3008 C 289.115 -4.36089 -0.338387 0
M  V30 3009 C 288.174 -5.10811 -1.26326 0
M  V30 3010 O 287.2 -5.64215 -0.751651 0
M  V30 3011 N 288.402 -5.19269 -2.595 0
M  V30 3012 H 291.167 -2.89738 0.766297 0
M  V30 3013 H 288.728 -1.52164 0.55296 0
M  V30 3014 H 290.72 -3.70276 -1.63334 0
M  V30 3015 H 289.29 -2.64112 -1.67223 0
M  V30 3016 H 288.51 -3.91479 0.462352 0
M  V30 3017 H 289.798 -5.08634 0.130031 0
M  V30 3018 H 289.196 -4.77347 -3.03573 0
M  V30 3019 H 287.753 -5.69667 -3.16737 0
M  V30 3020 N 291.186 -0.45159 -1.50991 0
M  V30 3021 C 292.134 0.366864 -2.29689 0
M  V30 3022 C 293.128 1.00809 -1.36139 0
M  V30 3023 O 294.334 0.941427 -1.53418 0
M  V30 3024 H 290.709 0.137133 -0.739391 0
M  V30 3025 H 292.68 -0.317538 -2.96706 0
M  V30 3026 C 291.429 1.44751 -3.16137 0
M  V30 3027 H 290.752 0.963473 -3.88017 0
M  V30 3028 H 292.192 1.99315 -3.74232 0
M  V30 3029 C 290.651 2.43869 -2.32442 0
M  V30 3030 O 291.181 3.4872 -1.99392 0
M  V30 3031 N 289.387 2.15105 -1.95392 0
M  V30 3032 H 288.934 1.29866 -2.22469 0
M  V30 3033 H 288.892 2.81661 -1.39693 0
M  V30 3034 N 292.664 1.56529 -0.183458 0
M  V30 3035 C 293.597 2.14417 0.781052 0
M  V30 3036 C 294.575 1.07761 1.21763 0
M  V30 3037 O 295.759 1.35807 1.30724 0
M  V30 3038 C 292.886 2.69361 2.05335 0
M  V30 3039 C 291.932 3.885 1.75982 0
M  V30 3040 S 292.765 5.27568 0.918256 0
M  V30 3041 C 293.921 5.85926 2.20095 0
M  V30 3042 H 294.154 2.95893 0.2889 0
M  V30 3043 H 291.687 1.54368 0.0313844 0
M  V30 3044 H 293.645 3.01662 2.78406 0
M  V30 3045 H 292.306 1.87949 2.51663 0
M  V30 3046 H 291.499 4.25314 2.70415 0
M  V30 3047 H 291.101 3.57149 1.10999 0
M  V30 3048 H 293.393 5.99579 3.15453 0
M  V30 3049 H 294.336 6.82761 1.87731 0
M  V30 3050 H 294.744 5.14438 2.32409 0
M  V30 3051 N 294.142 -0.090211 1.57342 0
M  V30 3052 C 295.39 -0.791241 1.85967 0
M  V30 3053 C 295.711 -1.7903 0.772859 0
M  V30 3054 O 294.981 -1.94872 -0.200398 0
M  V30 3055 H 293.561 -0.295205 0.686195 0
M  V30 3056 H 296.223 -0.0706782 1.94772 0
M  V30 3057 H 295.319 -1.31882 2.82867 0
M  V30 3058 N 295.62 -1.53406 -0.361157 0
M  V30 3059 C 296.869 -1.69022 -1.10066 0
M  V30 3060 C 297.182 -0.450838 -1.90333 0
M  V30 3061 O 298.388 -0.487617 -2.67085 0
M  V30 3062 C 296.844 -2.98812 -2.00598 0
M  V30 3063 C 296.452 -4.30027 -1.25621 0
M  V30 3064 C 298.196 -3.23795 -2.74513 0
M  V30 3065 C 296.103 -5.50903 -2.1508 0
M  V30 3066 H 295.033 -0.629776 -0.414606 0
M  V30 3067 H 297.684 -1.79907 -0.361348 0
M  V30 3068 H 296.066 -2.8174 -2.78278 0
M  V30 3069 H 297.24 -4.57745 -0.529739 0
M  V30 3070 H 295.555 -4.11522 -0.635496 0
M  V30 3071 H 298.152 -4.11289 -3.41681 0
M  V30 3072 H 298.495 -2.40045 -3.40123 0
M  V30 3073 H 299.028 -3.41561 -2.03914 0
M  V30 3074 H 295.767 -6.37143 -1.54041 0
M  V30 3075 H 295.287 -5.27459 -2.85565 0
M  V30 3076 H 296.966 -5.85865 -2.74538 0
M  V30 3077 N 297.098 0.621204 -1.44841 0
M  V30 3078 C 298.344 1.38073 -1.49357 0
M  V30 3079 C 298.699 1.91973 -0.128115 0
M  V30 3080 O 297.992 1.71311 0.858087 0
M  V30 3081 C 298.186 2.55675 -2.4973 0
M  V30 3082 C 298.015 2.13289 -3.95901 0
M  V30 3083 C 296.785 2.001 -4.63991 0
M  V30 3084 C 298.983 1.7159 -4.84831 0
M  V30 3085 N 296.965 1.51381 -5.94943 0
M  V30 3086 C 298.336 1.34188 -6.05304 0
M  V30 3087 C 300.391 1.59059 -4.7181 0
M  V30 3088 C 299.094 0.855085 -7.14199 0
M  V30 3089 C 301.12 1.11784 -5.8074 0
M  V30 3090 C 300.482 0.753385 -7.0036 0
M  V30 3091 H 296.581 0.499675 -0.601539 0
M  V30 3092 H 299.165 0.711609 -1.8123 0
M  V30 3093 H 297.336 3.20201 -2.19832 0
M  V30 3094 H 299.068 3.22509 -2.4448 0
M  V30 3095 H 295.823 2.20863 -4.18947 0
M  V30 3096 H 296.247 1.29293 -6.64539 0
M  V30 3097 H 300.889 1.85865 -3.79755 0
M  V30 3098 H 298.607 0.574552 -8.06055 0
M  V30 3099 H 302.193 1.02533 -5.72694 0
M  V30 3100 H 301.073 0.393183 -7.83214 0
M  V30 3101 N 298.576 1.31904 0.862503 0
M  V30 3102 C 299.822 1.22197 1.61851 0
M  V30 3103 C 300.155 -0.217641 1.92977 0
M  V30 3104 O 299.43 -1.15264 1.56666 0
M  V30 3105 C 299.713 2.07378 2.94391 0
M  V30 3106 C 299.566 3.59678 2.70096 0
M  V30 3107 C 300.885 1.92891 3.95577 0
M  V30 3108 H 298.004 0.445255 0.587296 0
M  V30 3109 H 300.646 1.6177 0.99651 0
M  V30 3110 H 298.796 1.73758 3.47477 0
M  V30 3111 H 300.468 4.03472 2.23625 0
M  V30 3112 H 298.711 3.82735 2.04197 0
M  V30 3113 H 299.382 4.14595 3.64438 0
M  V30 3114 H 301.858 2.22327 3.51724 0
M  V30 3115 H 300.734 2.54781 4.86187 0
M  V30 3116 H 300.995 0.894315 4.3296 0
M  V30 3117 N 300.054 -1.07777 1.14986 0
M  V30 3118 C 300.986 -2.14769 0.800436 0
M  V30 3119 C 301.999 -1.61739 -0.185595 0
M  V30 3120 O 303.188 -1.78462 0.0370358 0
M  V30 3121 C 300.288 -3.38481 0.168533 0
M  V30 3122 C 299.461 -4.20876 1.1909 0
M  V30 3123 C 298.52 -5.22976 0.581575 0
M  V30 3124 O 297.546 -5.55388 1.24633 0
M  V30 3125 N 298.748 -5.76976 -0.638706 0
M  V30 3126 H 301.513 -2.45348 1.72118 0
M  V30 3127 H 299.074 -1.23645 1.04515 0
M  V30 3128 H 301.066 -4.03916 -0.251764 0
M  V30 3129 H 299.636 -3.05651 -0.655467 0
M  V30 3130 H 298.856 -3.51322 1.78791 0
M  V30 3131 H 300.144 -4.7274 1.88133 0
M  V30 3132 H 299.542 -5.52886 -1.19723 0
M  V30 3133 H 298.099 -6.44061 -1.00142 0
M  V30 3134 N 301.532 -0.945985 -1.26051 0
M  V30 3135 C 302.495 -0.463897 -2.24456 0
M  V30 3136 C 303.495 0.427655 -1.55009 0
M  V30 3137 O 304.685 0.226157 -1.72726 0
M  V30 3138 C 301.817 0.330812 -3.39291 0
M  V30 3139 H 303.01 -1.33357 -2.68619 0
M  V30 3140 H 300.563 -0.728416 -1.38289 0
M  V30 3141 H 301.298 1.21852 -3.00537 0
M  V30 3142 H 301.083 -0.308679 -3.90883 0
M  V30 3143 H 302.573 0.657865 -4.12386 0
M  V30 3144 N 303.011 1.40521 -0.713556 0
M  V30 3145 C 303.921 2.34522 -0.0606667 0
M  V30 3146 C 304.937 1.57193 0.74607 0
M  V30 3147 O 306.113 1.89591 0.679493 0
M  V30 3148 C 303.178 3.36081 0.851491 0
M  V30 3149 C 302.239 4.29286 0.0349339 0
M  V30 3150 C 301.472 5.25994 0.903649 0
M  V30 3151 O 301.695 5.28616 2.14292 0
M  V30 3152 O 300.629 6.00918 0.343723 0
M  V30 3153 H 304.455 2.91968 -0.835972 0
M  V30 3154 H 302.04 1.41681 -0.47402 0
M  V30 3155 H 303.922 3.98369 1.37404 0
M  V30 3156 H 302.597 2.81052 1.60598 0
M  V30 3157 H 301.504 3.70289 -0.532633 0
M  V30 3158 H 302.837 4.87462 -0.681287 0
M  V30 3159 N 304.489 0.459591 1.5075 0
M  V30 3160 C 305.437 -0.354678 2.2988 0
M  V30 3161 C 306.431 -1.00086 1.36672 0
M  V30 3162 O 307.637 -0.933277 1.53915 0
M  V30 3163 H 304.012 -0.13321 0.740107 0
M  V30 3164 H 305.983 0.333269 2.96533 0
M  V30 3165 C 304.732 -1.43073 3.169 0
M  V30 3166 H 304.055 -0.942882 3.88523 0
M  V30 3167 H 305.495 -1.97328 3.75284 0
M  V30 3168 C 303.954 -2.42633 2.33732 0
M  V30 3169 O 304.484 -3.47658 2.01238 0
M  V30 3170 N 302.69 -2.14066 1.9653 0
M  V30 3171 H 302.237 -1.28685 2.23155 0
M  V30 3172 H 302.195 -2.80917 1.41185 0
M  V30 3173 N 305.967 -1.56429 0.191757 0
M  V30 3174 C 306.93 -2.17707 -0.716688 0
M  V30 3175 C 307.93 -1.13061 -1.14341 0
M  V30 3176 O 309.12 -1.38464 -1.05704 0
M  V30 3177 C 306.252 -2.77644 -1.97804 0
M  V30 3178 H 307.445 -2.99342 -0.1829 0
M  V30 3179 H 304.998 -1.56193 -0.0578566 0
M  V30 3180 H 305.733 -1.99799 -2.55443 0
M  V30 3181 H 305.518 -3.54246 -1.68083 0
M  V30 3182 H 307.008 -3.24708 -2.62592 0
M  V30 3183 N 307.445 0.0818655 -1.57387 0
M  V30 3184 C 308.375 1.09885 -2.06028 0
M  V30 3185 C 309.356 1.4098 -0.951774 0
M  V30 3186 O 310.541 1.50781 -1.22387 0
M  V30 3187 C 307.671 2.4151 -2.4958 0
M  V30 3188 C 306.625 2.24792 -3.64215 0
M  V30 3189 C 305.951 3.61712 -3.93787 0
M  V30 3190 C 307.251 1.67749 -4.94629 0
M  V30 3191 H 308.945 0.694128 -2.91243 0
M  V30 3192 H 306.491 0.332448 -1.4011 0
M  V30 3193 H 308.444 3.12939 -2.82219 0
M  V30 3194 H 307.168 2.83943 -1.61381 0
M  V30 3195 H 305.827 1.55807 -3.31843 0
M  V30 3196 H 305.475 4.01697 -3.02735 0
M  V30 3197 H 305.175 3.51368 -4.70971 0
M  V30 3198 H 306.699 4.34587 -4.28913 0
M  V30 3199 H 308.113 2.29032 -5.25564 0
M  V30 3200 H 306.51 1.68128 -5.76067 0
M  V30 3201 H 307.58 0.638059 -4.80684 0
M  V30 3202 N 308.923 1.53595 0.353017 0
M  V30 3203 C 310.171 1.70049 1.09215 0
M  V30 3204 C 310.492 0.461406 1.89463 0
M  V30 3205 O 309.762 -0.524633 1.88744 0
M  V30 3206 H 308.342 0.626912 0.40619 0
M  V30 3207 H 311.004 1.90822 0.396585 0
M  V30 3208 H 310.1 2.56718 1.77488 0
M  V30 3209 N 310.401 -0.613514 1.45168 0
M  V30 3210 C 311.629 -1.39946 1.5239 0
M  V30 3211 C 312.044 -1.88167 0.154531 0
M  V30 3212 O 311.401 -1.61872 -0.842843 0
M  V30 3213 C 311.452 -2.60795 2.50337 0
M  V30 3214 O 311.173 -2.1458 3.81952 0
M  V30 3215 C 312.674 -3.53723 2.67198 0
M  V30 3216 H 309.894 -0.428593 0.516284 0
M  V30 3217 H 312.438 -0.748753 1.903 0
M  V30 3218 H 310.593 -3.21919 2.15515 0
M  V30 3219 H 311.007 -2.93055 4.34993 0
M  V30 3220 H 312.481 -4.35079 3.39721 0
M  V30 3221 H 312.958 -4.0368 1.73029 0
M  V30 3222 H 313.564 -2.98456 3.02992 0
M  V30 3223 N 311.879 -1.3236 -0.855495 0
M  V30 3224 C 313.104 -1.2601 -1.64731 0
M  V30 3225 C 313.529 0.169068 -1.87339 0
M  V30 3226 O 312.887 1.12016 -1.42556 0
M  V30 3227 C 312.935 -2.02417 -2.98429 0
M  V30 3228 O 312.039 -1.3714 -3.8893 0
M  V30 3229 H 311.38 -0.434325 -0.502253 0
M  V30 3230 H 313.91 -1.74661 -1.06558 0
M  V30 3231 H 313.92 -2.12559 -3.48257 0
M  V30 3232 H 312.595 -3.06343 -2.81295 0
M  V30 3233 H 311.172 -1.3554 -3.47395 0
M  V30 3234 N 313.357 1.07166 -1.15556 0
M  V30 3235 C 314.29 2.13808 -0.797593 0
M  V30 3236 C 315.268 1.6101 0.226812 0
M  V30 3237 O 316.452 1.88161 0.112932 0
M  V30 3238 C 313.579 3.38187 -0.186371 0
M  V30 3239 C 312.625 4.09766 -1.18297 0
M  V30 3240 S 313.458 4.60932 -2.72584 0
M  V30 3241 C 314.614 5.88583 -2.12886 0
M  V30 3242 H 314.847 2.43843 -1.70083 0
M  V30 3243 H 312.38 1.19467 -0.978106 0
M  V30 3244 H 314.338 4.10189 0.159837 0
M  V30 3245 H 312.999 3.06326 0.694489 0
M  V30 3246 H 312.192 4.99065 -0.703562 0
M  V30 3247 H 311.794 3.43736 -1.47381 0
M  V30 3248 H 314.086 6.60866 -1.49208 0
M  V30 3249 H 315.029 6.41241 -3.0036 0
M  V30 3250 H 315.437 5.42194 -1.57116 0
M  V30 3251 N 314.835 0.952656 1.25548 0
M  V30 3252 C 316.06 0.623025 1.97821 0
M  V30 3253 C 316.485 -0.7976 1.70352 0
M  V30 3254 O 315.843 -1.53905 0.958283 0
M  V30 3255 C 315.891 0.885532 3.49558 0
M  V30 3256 O 314.995 -0.0366641 4.12384 0
M  V30 3257 H 314.336 0.237082 0.620232 0
M  V30 3258 H 316.866 1.27871 1.59719 0
M  V30 3259 H 316.876 0.811009 3.99858 0
M  V30 3260 H 315.551 1.92094 3.6888 0
M  V30 3261 H 314.128 0.0898954 3.72792 0
M  V30 3262 N 316.313 -1.40141 0.720998 0
M  V30 3263 C 317.724 -1.83678 0.334553 0
M  V30 3264 C 318.075 -1.6027 -1.13173 0
M  V30 3265 O 317.2 -1.08643 -1.87152 0
M  V30 3266 C 317.795 -3.33437 0.600437 0
M  V30 3267 C 316.354 -3.75447 0.267642 0
M  V30 3268 C 315.501 -2.63296 0.870097 0
M  V30 3269 H 318.452 -1.29331 0.919732 0
M  V30 3270 H 318.473 -3.80269 -0.132517 0
M  V30 3271 H 317.985 -3.50442 1.66768 0
M  V30 3272 H 316.086 -3.64035 -0.794329 0
M  V30 3273 H 316.199 -4.73344 0.74042 0
M  V30 3274 H 314.563 -2.52954 0.297739 0
M  V30 3275 H 315.346 -2.83112 1.94172 0
M  V30 3276 N 317.792 -0.46758 -1.50504 0
M  V30 3277 C 318.724 0.364655 -2.26281 0
M  V30 3278 C 319.737 0.960151 -1.31472 0
M  V30 3279 O 320.926 0.849153 -1.57008 0
M  V30 3280 C 318.026 1.52509 -3.02645 0
M  V30 3281 C 317.199 1.04302 -4.24782 0
M  V30 3282 C 316.258 2.07709 -4.8347 0
M  V30 3283 O 315.284 1.65913 -5.44483 0
M  V30 3284 N 316.486 3.40485 -4.70159 0
M  V30 3285 H 319.251 -0.28495 -2.98342 0
M  V30 3286 H 316.812 -0.298163 -1.59131 0
M  V30 3287 H 318.804 2.21371 -3.38787 0
M  V30 3288 H 317.374 2.07945 -2.33404 0
M  V30 3289 H 316.594 0.180393 -3.93787 0
M  V30 3290 H 317.882 0.698798 -5.03978 0
M  V30 3291 H 317.28 3.77155 -4.21629 0
M  V30 3292 H 315.837 4.05156 -5.1058 0
M  V30 3293 N 319.27 1.56325 -0.20005 0
M  V30 3294 C 320.2 2.22318 0.713916 0
M  V30 3295 C 321.181 1.18788 1.21752 0
M  V30 3296 O 322.366 1.47309 1.26545 0
M  V30 3297 C 319.496 2.88639 1.93144 0
M  V30 3298 C 318.45 3.98457 1.56255 0
M  V30 3299 C 317.776 4.51967 2.85709 0
M  V30 3300 C 319.076 5.16612 0.768747 0
M  V30 3301 H 320.77 2.98952 0.163755 0
M  V30 3302 H 318.316 1.43792 0.0773219 0
M  V30 3303 H 320.269 3.33491 2.57608 0
M  V30 3304 H 318.993 2.09419 2.50621 0
M  V30 3305 H 317.652 3.54305 0.941471 0
M  V30 3306 H 317.3 3.69503 3.41287 0
M  V30 3307 H 317 5.26071 2.6177 0
M  V30 3308 H 318.524 4.99523 3.51154 0
M  V30 3309 H 319.938 5.57977 1.3166 0
M  V30 3310 H 318.335 5.96812 0.627286 0
M  V30 3311 H 319.405 4.84358 -0.229168 0
M  V30 3312 N 320.748 -0.0735177 1.57428 0
M  V30 3313 C 321.988 -0.778363 1.89 0
M  V30 3314 C 322.352 -1.7483 0.793634 0
M  V30 3315 O 323.553 -2.49811 0.992367 0
M  V30 3316 C 321.824 -1.46929 3.25802 0
M  V30 3317 S 323.383 -2.20943 3.79117 0
M  V30 3318 H 320.201 -0.258874 0.662197 0
M  V30 3319 H 322.803 -0.0345338 1.95469 0
M  V30 3320 H 321.507 -0.749532 4.03497 0
M  V30 3321 H 321.038 -2.25258 3.22525 0
M  V30 3322 H 323.053 -3.47435 3.54265 0
M  V30 3323 N 322.226 -1.5378 -0.344866 0
M  V30 3324 C 323.156 -1.84662 -1.42906 0
M  V30 3325 C 324.137 -0.701648 -1.54955 0
M  V30 3326 O 325.322 -0.953438 -1.69184 0
M  V30 3327 C 322.452 -2.05503 -2.79974 0
M  V30 3328 C 321.406 -3.21318 -2.82734 0
M  V30 3329 C 320.732 -3.2749 -4.22675 0
M  V30 3330 C 322.032 -4.59456 -2.48389 0
M  V30 3331 H 323.726 -2.75461 -1.17311 0
M  V30 3332 H 321.272 -1.32542 -0.562896 0
M  V30 3333 H 323.225 -2.25691 -3.55867 0
M  V30 3334 H 321.949 -1.11434 -3.07002 0
M  V30 3335 H 320.608 -3.00984 -2.09294 0
M  V30 3336 H 320.256 -2.31019 -4.4681 0
M  V30 3337 H 319.956 -4.05316 -4.25433 0
M  V30 3338 H 321.48 -3.49887 -5.00412 0
M  V30 3339 H 322.894 -4.79667 -3.13995 0
M  V30 3340 H 321.291 -5.39675 -2.62432 0
M  V30 3341 H 322.361 -4.63155 -1.4358 0
M  V30 3342 N 323.704 0.605807 -1.45491 0
M  V30 3343 C 324.981 1.36522 -1.40075 0
M  V30 3344 C 325.361 2.10976 -0.0722744 0
M  V30 3345 O 324.709 2.08007 0.945808 0
M  V30 3346 C 324.919 2.31056 -2.61561 0
M  V30 3347 C 326.267 2.93608 -3.06724 0
M  V30 3348 O 327.291 2.41376 -2.61946 0
M  V30 3349 O 326.15 3.88421 -3.84437 0
M  V30 3350 H 323.244 0.612248 -0.555951 0
M  V30 3351 H 325.79 0.628747 -1.57623 0
M  V30 3352 H 324.562 1.75311 -3.49831 0
M  V30 3353 H 324.185 3.12081 -2.46356 0
M  V30 3354 N 325.182 1.32811 0.848464 0
M  V30 3355 C 326.593 1.21315 1.41914 0
M  V30 3356 C 326.944 -0.171847 1.95446 0
M  V30 3357 O 326.069 -1.07093 1.88043 0
M  V30 3358 C 326.664 2.19631 2.57968 0
M  V30 3359 C 325.223 2.12003 3.11017 0
M  V30 3360 C 324.37 2.07651 1.83783 0
M  V30 3361 H 327.321 1.44549 0.655071 0
M  V30 3362 H 327.342 1.79845 3.35315 0
M  V30 3363 H 326.854 3.20423 2.18976 0
M  V30 3364 H 324.955 1.14481 3.54577 0
M  V30 3365 H 325.068 3.02111 3.71841 0
M  V30 3366 H 323.432 1.52983 2.03638 0
M  V30 3367 H 324.215 3.10235 1.47 0
M  V30 3368 N 326.66 -1.06551 1.16123 0
M  V30 3369 C 327.593 -2.13382 0.80892 0
M  V30 3370 C 328.571 -1.61128 -0.21827 0
M  V30 3371 O 329.755 -1.88219 -0.102952 0
M  V30 3372 C 326.882 -3.38083 0.204303 0
M  V30 3373 C 325.928 -4.09133 1.20469 0
M  V30 3374 S 326.761 -4.5948 2.75024 0
M  V30 3375 C 327.917 -5.87446 2.16005 0
M  V30 3376 H 328.15 -2.42937 1.71373 0
M  V30 3377 H 325.683 -1.18947 0.984428 0
M  V30 3378 H 327.641 -4.10268 -0.138081 0
M  V30 3379 H 326.302 -3.0669 -0.678234 0
M  V30 3380 H 325.495 -4.98685 0.730019 0
M  V30 3381 H 325.097 -3.4295 1.49202 0
M  V30 3382 H 327.389 -6.60065 1.5271 0
M  V30 3383 H 328.332 -6.39639 3.03756 0
M  V30 3384 H 328.74 -5.41354 1.59989 0
M  V30 3385 N 328.138 -0.959301 -1.25041 0
M  V30 3386 C 329.415 -0.533805 -1.88175 0
M  V30 3387 C 329.795 0.988994 -1.865 0
M  V30 3388 O 329.143 1.85677 -1.33177 0
M  V30 3389 C 329.353 -1.11575 -3.30684 0
M  V30 3390 C 330.701 -1.19548 -4.07423 0
M  V30 3391 O 331.725 -1.06765 -3.39823 0
M  V30 3392 O 330.584 -1.39656 -5.28354 0
M  V30 3393 H 327.678 -0.176772 -0.807887 0
M  V30 3394 H 330.224 -1.05303 -1.33076 0
M  V30 3395 H 328.996 -2.15884 -3.26358 0
M  V30 3396 H 328.619 -0.580059 -3.93346 0
M  V30 3397 N 329.616 1.39756 -0.72842 0
M  V30 3398 C 330.862 2.00942 -0.273892 0
M  V30 3399 C 331.195 1.57656 1.13394 0
M  V30 3400 O 330.47 0.802434 1.77176 0
M  V30 3401 C 330.753 3.58211 -0.368346 0
M  V30 3402 C 330.606 4.11534 -1.81548 0
M  V30 3403 C 331.925 4.39372 0.253054 0
M  V30 3404 H 329.044 0.730047 -0.100996 0
M  V30 3405 H 331.686 1.66056 -0.923337 0
M  V30 3406 H 329.836 3.88061 0.184588 0
M  V30 3407 H 331.508 3.92431 -2.42478 0
M  V30 3408 H 329.751 3.65341 -2.33898 0
M  V30 3409 H 330.422 5.20682 -1.83288 0
M  V30 3410 H 332.898 4.15527 -0.218224 0
M  V30 3411 H 331.774 5.48677 0.156585 0
M  V30 3412 H 332.035 4.21358 1.33826 0
M  V30 3413 N 331.094 0.475555 1.50254 0
M  V30 3414 C 332.34 -0.0780073 2.0265 0
M  V30 3415 C 332.673 -1.38968 1.35652 0
M  V30 3416 O 331.948 -1.8839 0.483691 0
M  V30 3417 C 332.231 -0.257161 3.59181 0
M  V30 3418 C 332.084 1.07585 4.36744 0
M  V30 3419 C 333.403 -1.00965 4.28362 0
M  V30 3420 H 330.522 -0.0268758 0.73651 0
M  V30 3421 H 333.164 0.622015 1.7953 0
M  V30 3422 H 331.314 -0.853412 3.79011 0
M  V30 3423 H 332.986 1.70902 4.28474 0
M  V30 3424 H 331.229 1.6714 4.00308 0
M  V30 3425 H 331.9 0.904088 5.44546 0
M  V30 3426 H 334.376 -0.504214 4.13034 0
M  V30 3427 H 333.252 -1.10381 5.37687 0
M  V30 3428 H 333.513 -2.04731 3.91839 0
M  V30 3429 N 332.573 -1.56217 0.208337 0
M  V30 3430 C 333.52 -2.19699 -0.707192 0
M  V30 3431 C 334.49 -1.14836 -1.20008 0
M  V30 3432 O 335.675 -1.4314 -1.26157 0
M  V30 3433 C 332.815 -2.87061 -1.91546 0
M  V30 3434 C 331.928 -4.06483 -1.46271 0
M  V30 3435 C 331.063 -4.61665 -2.62752 0
M  V30 3436 C 330.102 -5.73417 -2.14147 0
M  V30 3437 N 329.239 -6.22948 -3.23853 0
M  V30 3438 H 334.079 -2.97575 -0.159111 0
M  V30 3439 H 331.616 -1.46948 -0.0667874 0
M  V30 3440 H 333.574 -3.24294 -2.62468 0
M  V30 3441 H 332.204 -2.11725 -2.43664 0
M  V30 3442 H 331.256 -3.74825 -0.648886 0
M  V30 3443 H 332.568 -4.87271 -1.06622 0
M  V30 3444 H 331.722 -5.01272 -3.41776 0
M  V30 3445 H 330.461 -3.80013 -3.05682 0
M  V30 3446 H 329.466 -5.33326 -1.33581 0
M  V30 3447 H 330.691 -6.56897 -1.72232 0
M  V30 3448 H 328.637 -5.44213 -3.6629 0
M  V30 3449 H 328.554 -6.98823 -2.88414 0
M  V30 3450 H 329.822 -6.6721 -4.03052 0
M  V30 3451 N 334.051 0.0651679 -1.57465 0
M  V30 3452 C 334.981 1.07693 -2.07182 0
M  V30 3453 C 335.962 1.39962 -0.966673 0
M  V30 3454 O 337.147 1.49475 -1.2398 0
M  V30 3455 C 334.277 2.3885 -2.52127 0
M  V30 3456 C 333.231 2.20917 -3.66579 0
M  V30 3457 C 332.557 3.57515 -3.97601 0
M  V30 3458 C 333.857 1.62493 -4.9638 0
M  V30 3459 H 335.551 0.663199 -2.91962 0
M  V30 3460 H 333.097 0.317569 -1.40455 0
M  V30 3461 H 335.05 3.09928 -2.85522 0
M  V30 3462 H 333.774 2.82215 -1.64384 0
M  V30 3463 H 332.433 1.52279 -3.33477 0
M  V30 3464 H 332.081 3.98463 -3.06979 0
M  V30 3465 H 331.781 3.46353 -4.74672 0
M  V30 3466 H 333.305 4.30013 -4.33499 0
M  V30 3467 H 334.719 2.23445 -5.27963 0
M  V30 3468 H 333.116 1.62009 -5.77818 0
M  V30 3469 H 334.186 0.587041 -4.81333 0
M  V30 3470 N 335.529 1.53961 0.336706 0
M  V30 3471 C 336.439 1.85432 1.43708 0
M  V30 3472 C 337.455 0.745053 1.57242 0
M  V30 3473 O 338.631 1.03804 1.72588 0
M  V30 3474 C 335.696 2.06349 2.78605 0
M  V30 3475 C 334.757 3.30191 2.74358 0
M  V30 3476 C 333.99 3.50101 4.02822 0
M  V30 3477 O 334.213 2.7371 5.00439 0
M  V30 3478 O 333.147 4.43547 4.06878 0
M  V30 3479 H 336.973 2.78975 1.20028 0
M  V30 3480 H 334.558 1.39701 0.52952 0
M  V30 3481 H 336.44 2.21513 3.58483 0
M  V30 3482 H 335.115 1.15995 3.02203 0
M  V30 3483 H 334.022 3.20425 1.93078 0
M  V30 3484 H 335.355 4.2056 2.55715 0
M  V30 3485 N 337.007 -0.598083 1.45811 0
M  V30 3486 C 338.418 -1.18011 1.44673 0
M  V30 3487 C 338.769 -1.95378 0.179364 0
M  V30 3488 O 337.894 -2.04124 -0.718509 0
M  V30 3489 C 338.489 -2.14677 2.62105 0
M  V30 3490 C 337.048 -2.68236 2.64057 0
M  V30 3491 C 336.195 -1.43816 2.37091 0
M  V30 3492 H 339.146 -0.38686 1.53913 0
M  V30 3493 H 339.167 -2.97878 2.36746 0
M  V30 3494 H 338.679 -1.5834 3.5433 0
M  V30 3495 H 336.78 -3.28486 1.75864 0
M  V30 3496 H 336.893 -3.12021 3.63566 0
M  V30 3497 H 335.257 -1.731 1.86838 0
M  V30 3498 H 336.04 -0.893333 3.31473 0
M  V30 3499 N 338.485 -1.33259 -0.841409 0
M  V30 3500 C 339.896 -1.22066 -1.41269 0
M  V30 3501 C 340.247 0.161479 -1.95534 0
M  V30 3502 O 339.372 1.06094 -1.88608 0
M  V30 3503 C 339.967 -2.20996 -2.568 0
M  V30 3504 C 338.526 -2.13649 -3.09888 0
M  V30 3505 C 337.673 -2.08623 -1.82679 0
M  V30 3506 H 340.624 -1.44895 -0.647395 0
M  V30 3507 H 340.645 -1.81621 -3.34356 0
M  V30 3508 H 340.157 -3.2158 -2.17274 0
M  V30 3509 H 338.258 -1.16359 -3.53965 0
M  V30 3510 H 338.371 -3.04079 -3.70234 0
M  V30 3511 H 336.735 -1.54061 -2.02824 0
M  V30 3512 H 337.518 -3.1101 -1.45353 0
M  V30 3513 N 339.963 1.05934 -1.16686 0
M  V30 3514 C 340.896 2.1295 -0.820225 0
M  V30 3515 C 341.874 1.61242 0.209722 0
M  V30 3516 O 343.058 1.88271 0.0929688 0
M  V30 3517 C 340.185 3.3797 -0.22223 0
M  V30 3518 C 339.231 4.08488 -1.22637 0
M  V30 3519 S 340.064 4.58015 -2.77457 0
M  V30 3520 C 341.22 5.86292 -2.19117 0
M  V30 3521 H 341.453 2.42025 -1.72659 0
M  V30 3522 H 338.986 1.18423 -0.990722 0
M  V30 3523 H 340.944 4.10335 0.116322 0
M  V30 3524 H 339.605 3.07045 0.66196 0
M  V30 3525 H 338.798 4.98291 -0.756455 0
M  V30 3526 H 338.4 3.42154 -1.51019 0
M  V30 3527 H 340.692 6.59246 -1.56209 0
M  V30 3528 H 341.635 6.38019 -3.07144 0
M  V30 3529 H 342.043 5.40497 -1.62858 0
M  V30 3530 N 341.441 0.965919 1.2453 0
M  V30 3531 C 342.371 0.513476 2.27784 0
M  V30 3532 C 343.352 -0.445974 1.6415 0
M  V30 3533 O 344.537 -0.342485 1.91156 0
M  V30 3534 C 341.667 -0.198839 3.4673 0
M  V30 3535 C 340.621 0.676456 4.2262 0
M  V30 3536 C 339.947 -0.167248 5.34438 0
M  V30 3537 C 341.247 1.96017 4.84123 0
M  V30 3538 H 342.941 1.3765 2.65881 0
M  V30 3539 H 340.487 0.663321 1.27813 0
M  V30 3540 H 342.44 -0.526567 4.18097 0
M  V30 3541 H 341.164 -1.0962 3.07654 0
M  V30 3542 H 339.823 0.98743 3.53052 0
M  V30 3543 H 339.471 -1.0647 4.91603 0
M  V30 3544 H 339.171 0.415181 5.86131 0
M  V30 3545 H 340.695 -0.489688 6.08633 0
M  V30 3546 H 342.109 1.69814 5.47573 0
M  V30 3547 H 340.506 2.48918 5.4604 0
M  V30 3548 H 341.576 2.65622 4.05676 0
M  V30 3549 N 342.919 -1.39368 0.735821 0
M  V30 3550 C 344.335 -1.54204 0.411492 0
M  V30 3551 C 344.535 -1.70268 -1.07755 0
M  V30 3552 O 343.591 -1.70364 -1.86366 0
M  V30 3553 C 344.904 -2.75925 1.19523 0
M  V30 3554 C 346.452 -2.89761 1.18354 0
M  V30 3555 C 346.927 -4.14421 1.94986 0
M  V30 3556 N 348.418 -4.21462 1.92156 0
M  V30 3557 C 349.153 -5.16871 2.48258 0
M  V30 3558 N 348.649 -6.18063 3.13001 0
M  V30 3559 N 350.442 -5.09093 2.38287 0
M  V30 3560 H 342.593 -1.27189 1.70108 0
M  V30 3561 H 344.856 -0.616517 0.720147 0
M  V30 3562 H 344.562 -2.70401 2.24892 0
M  V30 3563 H 344.436 -3.68614 0.800222 0
M  V30 3564 H 346.823 -2.94777 0.137975 0
M  V30 3565 H 346.904 -1.98133 1.61793 0
M  V30 3566 H 346.548 -4.10166 2.99543 0
M  V30 3567 H 346.478 -5.05095 1.48953 0
M  V30 3568 H 348.969 -3.48979 1.44991 0
M  V30 3569 H 349.282 -6.87326 3.53275 0
M  V30 3570 H 347.627 -6.18448 3.17091 0
M  V30 3571 H 350.818 -4.28973 1.8735 0
M  V30 3572 H 350.991 -5.83272 2.82308 0
M  V30 3573 N 344.397 -0.483516 -1.5 0
M  V30 3574 C 345.625 0.0644831 -2.06799 0
M  V30 3575 C 346.04 1.32399 -1.34596 0
M  V30 3576 O 345.397 1.77626 -0.418946 0
M  V30 3577 C 345.448 0.339927 -3.59898 0
M  V30 3578 O 345.169 -0.869635 -4.29382 0
M  V30 3579 C 346.67 0.933515 -4.33359 0
M  V30 3580 H 343.89 -0.0126333 -0.670881 0
M  V30 3581 H 346.434 -0.675864 -1.93009 0
M  V30 3582 H 344.589 1.03022 -3.7345 0
M  V30 3583 H 345.003 -0.62179 -5.20801 0
M  V30 3584 H 346.477 1.07593 -5.41413 0
M  V30 3585 H 346.954 1.92685 -3.94676 0
M  V30 3586 H 347.56 0.281221 -4.24369 0
M  V30 3587 N 345.875 1.56104 -0.216619 0
M  V30 3588 C 346.808 2.16026 0.735395 0
M  V30 3589 C 347.786 1.1032 1.1945 0
M  V30 3590 O 348.97 1.38549 1.27814 0
M  V30 3591 C 346.097 2.73656 1.99575 0
M  V30 3592 C 345.143 3.92146 1.67702 0
M  V30 3593 S 345.976 5.29397 0.806145 0
M  V30 3594 C 347.132 5.90463 2.07617 0
M  V30 3595 H 347.365 2.96439 0.226072 0
M  V30 3596 H 344.898 1.544 -0.00136639 0
M  V30 3597 H 346.856 3.075 2.71945 0
M  V30 3598 H 345.517 1.93245 2.47619 0
M  V30 3599 H 344.71 4.30954 2.61332 0
M  V30 3600 H 344.312 3.59423 1.03398 0
M  V30 3601 H 346.604 6.06136 3.02664 0
M  V30 3602 H 347.547 6.86589 1.73207 0
M  V30 3603 H 347.955 5.19252 2.21445 0
M  V30 3604 N 347.353 -0.0568162 1.57498 0
M  V30 3605 C 348.63 -0.786954 1.79071 0
M  V30 3606 C 349.01 -1.95028 0.80792 0
M  V30 3607 O 348.358 -2.27968 -0.155858 0
M  V30 3608 C 348.568 -1.24594 3.26002 0
M  V30 3609 C 349.916 -1.67323 3.90241 0
M  V30 3610 O 350.94 -1.34124 3.29984 0
M  V30 3611 O 349.799 -2.28842 4.9628 0
M  V30 3612 H 346.893 -0.378262 0.735423 0
M  V30 3613 H 349.439 -0.035734 1.69662 0
M  V30 3614 H 348.211 -0.41423 3.89101 0
M  V30 3615 H 347.834 -2.05803 3.40192 0
M  V30 3616 N 348.832 -1.54138 -0.328536 0
M  V30 3617 C 350.243 -1.63395 -0.903272 0
M  V30 3618 C 350.594 -0.524828 -1.8905 0
M  V30 3619 O 349.719 0.343068 -2.13663 0
M  V30 3620 C 350.314 -2.9618 -1.64507 0
M  V30 3621 C 348.873 -3.0765 -2.1686 0
M  V30 3622 C 348.02 -2.58933 -0.992416 0
M  V30 3623 H 350.971 -1.58344 -0.106253 0
M  V30 3624 H 350.992 -2.86061 -2.50897 0
M  V30 3625 H 350.504 -3.76884 -0.926302 0
M  V30 3626 H 348.605 -2.31611 -2.91868 0
M  V30 3627 H 348.718 -4.1337 -2.42202 0
M  V30 3628 H 347.082 -2.14706 -1.37016 0
M  V30 3629 H 347.865 -3.42089 -0.288041 0
M  V30 3630 N 350.31 0.590341 -1.46126 0
M  V30 3631 C 351.535 1.37991 -1.54833 0
M  V30 3632 C 351.96 1.87163 -0.187506 0
M  V30 3633 O 351.318 1.61133 0.831008 0
M  V30 3634 C 351.366 2.54867 -2.55098 0
M  V30 3635 O 350.47 3.56061 -2.08073 0
M  V30 3636 H 349.811 0.411265 -0.521303 0
M  V30 3637 H 352.341 0.716819 -1.91632 0
M  V30 3638 H 352.351 3.01886 -2.74461 0
M  V30 3639 H 351.026 2.18429 -3.53923 0
M  V30 3640 H 349.603 3.15574 -1.98664 0
M  V30 3641 N 351.788 1.33704 0.83433 0
M  V30 3642 C 353.199 1.22813 1.4062 0
M  V30 3643 C 353.55 -0.151107 1.95617 0
M  V30 3644 O 352.675 -1.05092 1.89168 0
M  V30 3645 C 353.27 2.22355 2.55624 0
M  V30 3646 C 351.829 2.1529 3.08751 0
M  V30 3647 C 350.976 2.09589 1.8157 0
M  V30 3648 H 353.927 1.45236 0.639702 0
M  V30 3649 H 353.948 1.83391 3.33389 0
M  V30 3650 H 353.46 3.22728 2.15566 0
M  V30 3651 H 351.561 1.18235 3.53343 0
M  V30 3652 H 351.674 3.06038 3.68616 0
M  V30 3653 H 350.038 1.55134 2.02004 0
M  V30 3654 H 350.821 3.11777 1.43701 0
M  V30 3655 N 353.266 -1.05314 1.17247 0
M  V30 3656 C 354.176 -2.16538 0.90268 0
M  V30 3657 C 355.192 -1.73523 -0.128707 0
M  V30 3658 O 356.368 -2.01337 0.0502701 0
M  V30 3659 C 353.433 -3.44167 0.418356 0
M  V30 3660 C 352.494 -4.01635 1.51618 0
M  V30 3661 C 351.727 -5.23171 1.05487 0
M  V30 3662 O 351.95 -5.70327 -0.0914715 0
M  V30 3663 O 350.884 -5.72848 1.8474 0
M  V30 3664 H 354.71 -2.42145 1.83302 0
M  V30 3665 H 352.295 -1.15037 0.953246 0
M  V30 3666 H 354.177 -4.21112 0.155726 0
M  V30 3667 H 352.852 -3.20063 -0.48385 0
M  V30 3668 H 351.759 -3.26135 1.83268 0
M  V30 3669 H 353.092 -4.30053 2.39405 0
M  V30 3670 N 354.744 -0.972509 -1.24016 0
M  V30 3671 C 355.707 -0.511403 -2.23422 0
M  V30 3672 C 356.707 0.394679 -1.55881 0
M  V30 3673 O 357.897 0.189469 -1.73167 0
M  V30 3674 C 355.029 0.258769 -3.39916 0
M  V30 3675 H 356.222 -1.39024 -2.6573 0
M  V30 3676 H 353.775 -0.757585 -1.36713 0
M  V30 3677 H 354.51 1.1545 -3.03054 0
M  V30 3678 H 354.295 -0.391522 -3.9014 0
M  V30 3679 H 355.785 0.570244 -4.13688 0
M  V30 3680 N 356.222 1.38976 -0.743202 0
M  V30 3681 C 357.185 2.28901 -0.117014 0
M  V30 3682 C 358.185 1.46698 0.658503 0
M  V30 3683 O 359.375 1.67274 0.486305 0
M  V30 3684 C 356.507 3.30309 0.84315 0
M  V30 3685 H 357.7 2.8578 -0.909373 0
M  V30 3686 H 355.253 1.47761 -0.509547 0
M  V30 3687 H 355.988 2.785 1.66157 0
M  V30 3688 H 355.773 3.91029 0.289594 0
M  V30 3689 H 357.263 3.97577 1.2776 0
M  V30 3690 N 357.7 0.491464 1.49741 0
M  V30 3691 C 359.111 0.0413169 1.86654 0
M  V30 3692 C 359.462 -1.36985 1.40462 0
M  V30 3693 O 358.587 -2.01917 0.778354 0
M  V30 3694 C 359.182 0.0682023 3.38731 0
M  V30 3695 C 357.741 -0.32656 3.74981 0
M  V30 3696 C 356.888 0.444888 2.73708 0
M  V30 3697 H 359.839 0.704733 1.42194 0
M  V30 3698 H 359.86 -0.729322 3.73445 0
M  V30 3699 H 359.372 1.09539 3.72321 0
M  V30 3700 H 357.473 -1.35734 3.46997 0
M  V30 3701 H 357.586 -0.013741 4.79098 0
M  V30 3702 H 355.95 -0.104062 2.54487 0
M  V30 3703 H 356.733 1.47197 3.10142 0
M  V30 3704 N 359.178 -1.55987 0.224894 0
M  V30 3705 C 360.589 -1.84553 -0.282345 0
M  V30 3706 C 360.94 -1.14634 -1.59227 0
M  V30 3707 O 360.065 -0.417155 -2.12341 0
M  V30 3708 C 360.66 -3.348 -0.519062 0
M  V30 3709 C 359.219 -3.63671 -0.970604 0
M  V30 3710 C 358.366 -2.77277 -0.0355261 0
M  V30 3711 H 361.317 -1.52245 0.448006 0
M  V30 3712 H 361.338 -3.55187 -1.36463 0
M  V30 3713 H 360.85 -3.8566 0.43449 0
M  V30 3714 H 358.951 -3.1827 -1.9374 0
M  V30 3715 H 359.064 -4.71631 -0.842698 0
M  V30 3716 H 357.428 -2.48846 -0.542927 0
M  V30 3717 H 358.211 -3.30937 0.913003 0
M  V30 3718 N 360.656 0.0484629 -1.57525 0
M  V30 3719 C 361.588 1.08222 -2.02041 0
M  V30 3720 C 362.601 1.33621 -0.930012 0
M  V30 3721 O 363.79 1.3145 -1.20761 0
M  V30 3722 C 360.89 2.42818 -2.36416 0
M  V30 3723 C 360.063 2.37049 -3.67596 0
M  V30 3724 C 359.122 3.53937 -3.89378 0
M  V30 3725 O 358.148 3.34308 -4.60681 0
M  V30 3726 N 359.35 4.75126 -3.3352 0
M  V30 3727 H 362.115 0.702946 -2.9134 0
M  V30 3728 H 359.676 0.236745 -1.6016 0
M  V30 3729 H 361.668 3.197 -2.48141 0
M  V30 3730 H 360.238 2.72661 -1.52888 0
M  V30 3731 H 359.458 1.45395 -3.66407 0
M  V30 3732 H 360.746 2.30318 -4.53686 0
M  V30 3733 H 360.144 4.93976 -2.75688 0
M  V30 3734 H 358.701 5.49439 -3.50656 0
M  V30 3735 N 362.134 1.5431 0.320358 0
M  V30 3736 C 363.097 1.83195 1.3774 0
M  V30 3737 C 364.097 0.703906 1.44575 0
M  V30 3738 O 365.287 0.972214 1.44546 0
M  V30 3739 C 362.419 1.99487 2.76438 0
M  V30 3740 H 363.612 2.77642 1.1338 0
M  V30 3741 H 361.165 1.46076 0.556012 0
M  V30 3742 H 361.9 1.07262 3.06048 0
M  V30 3743 H 361.685 2.81575 2.7287 0
M  V30 3744 H 363.175 2.23271 3.52902 0
M  V30 3745 N 363.613 -0.582584 1.46437 0
M  V30 3746 C 364.861 -1.33814 1.51453 0
M  V30 3747 C 365.182 -1.94277 0.167792 0
M  V30 3748 O 364.452 -1.78566 -0.805677 0
M  V30 3749 H 363.032 -0.496838 0.557818 0
M  V30 3750 H 365.694 -0.682281 1.82568 0
M  V30 3751 H 364.79 -2.14479 2.26728 0
M  V30 3752 N 365.091 -1.34144 -0.827227 0
M  V30 3753 C 366.331 -1.27603 -1.59677 0
M  V30 3754 C 366.695 0.153035 -1.91389 0
M  V30 3755 O 367.896 0.342566 -2.66608 0
M  V30 3756 C 366.167 -2.13784 -2.86411 0
M  V30 3757 S 367.726 -2.24552 -3.76991 0
M  V30 3758 H 364.544 -0.453789 -0.547354 0
M  V30 3759 H 367.146 -1.69309 -0.977479 0
M  V30 3760 H 365.85 -3.16627 -2.61104 0
M  V30 3761 H 365.381 -1.72959 -3.5334 0
M  V30 3762 H 367.396 -1.41514 -4.75593 0
M  V30 3763 N 366.569 1.04691 -1.17803 0
M  V30 3764 C 367.499 2.14494 -0.92275 0
M  V30 3765 C 368.48 1.69546 0.137179 0
M  V30 3766 O 369.665 1.94195 -0.0141108 0
M  V30 3767 C 366.795 3.44491 -0.440803 0
M  V30 3768 C 365.749 4.03031 -1.4405 0
M  V30 3769 C 365.075 5.28432 -0.81631 0
M  V30 3770 C 366.375 4.39932 -2.81527 0
M  V30 3771 H 368.069 2.36107 -1.84103 0
M  V30 3772 H 365.615 1.1347 -0.886599 0
M  V30 3773 H 367.568 4.2066 -0.249602 0
M  V30 3774 H 366.292 3.22546 0.513025 0
M  V30 3775 H 364.951 3.28937 -1.61853 0
M  V30 3776 H 364.599 5.02792 0.144511 0
M  V30 3777 H 364.299 5.68559 -1.48371 0
M  V30 3778 H 365.823 6.07284 -0.635496 0
M  V30 3779 H 367.237 5.07113 -2.67412 0
M  V30 3780 H 365.634 4.9109 -3.44892 0
M  V30 3781 H 366.704 3.50045 -3.35554 0
M  V30 3782 N 368.047 0.979072 1.23499 0
M  V30 3783 C 368.979 0.476271 2.24197 0
M  V30 3784 C 369.992 -0.421166 1.57258 0
M  V30 3785 O 371.181 -0.225515 1.7707 0
M  V30 3786 C 368.281 -0.330503 3.37285 0
M  V30 3787 C 367.454 0.559744 4.33804 0
M  V30 3788 C 366.513 -0.192954 5.25846 0
M  V30 3789 O 365.539 0.416978 5.67671 0
M  V30 3790 N 366.741 -1.47932 5.61334 0
M  V30 3791 H 369.506 1.34211 2.67969 0
M  V30 3792 H 367.067 0.852189 1.37657 0
M  V30 3793 H 369.059 -0.842361 3.95836 0
M  V30 3794 H 367.629 -1.09734 2.92707 0
M  V30 3795 H 366.849 1.25245 3.73775 0
M  V30 3796 H 368.137 1.1665 4.95248 0
M  V30 3797 H 367.535 -1.9964 5.29302 0
M  V30 3798 H 366.092 -1.93664 6.22364 0
M  V30 3799 N 369.525 -1.3858 0.750561 0
M  V30 3800 C 370.455 -2.33102 0.136237 0
M  V30 3801 C 371.436 -1.54713 -0.706965 0
M  V30 3802 O 372.621 -1.83043 -0.648769 0
M  V30 3803 C 369.751 -3.38882 -0.760017 0
M  V30 3804 C 368.705 -4.27995 -0.0197785 0
M  V30 3805 C 368.031 -5.24605 -1.03408 0
M  V30 3806 C 369.331 -5.09554 1.14684 0
M  V30 3807 H 371.025 -2.84726 0.925822 0
M  V30 3808 H 368.571 -1.36898 0.446654 0
M  V30 3809 H 370.524 -4.0397 -1.19943 0
M  V30 3810 H 369.248 -2.85734 -1.58189 0
M  V30 3811 H 367.907 -3.64409 0.400184 0
M  V30 3812 H 367.555 -4.67746 -1.84994 0
M  V30 3813 H 367.255 -5.85081 -0.543464 0
M  V30 3814 H 368.779 -5.9257 -1.47288 0
M  V30 3815 H 370.193 -5.67899 0.785118 0
M  V30 3816 H 368.59 -5.7925 1.56812 0
M  V30 3817 H 369.66 -4.4347 1.96118 0
M  V30 3818 N 371.003 -0.499398 -1.49478 0
M  V30 3819 C 372.243 0.0440751 -2.04352 0
M  V30 3820 C 372.607 1.34423 -1.37093 0
M  V30 3821 O 373.808 1.97184 -1.82679 0
M  V30 3822 C 372.079 0.194918 -3.56868 0
M  V30 3823 S 373.638 0.69287 -4.33295 0
M  V30 3824 H 370.456 0.00253458 -0.710995 0
M  V30 3825 H 373.058 -0.673 -1.83551 0
M  V30 3826 H 371.762 -0.756672 -4.03364 0
M  V30 3827 H 371.293 0.93728 -3.82071 0
M  V30 3828 H 373.308 1.96226 -4.55752 0
M  V30 3829 N 372.481 1.55866 -0.233164 0
M  V30 3830 C 373.727 1.99643 0.389148 0
M  V30 3831 C 374.082 1.11836 1.56558 0
M  V30 3832 O 373.375 0.170848 1.90837 0
M  V30 3833 C 373.569 3.46856 0.861724 0
M  V30 3834 C 373.398 4.48904 -0.267376 0
M  V30 3835 C 372.168 4.99888 -0.737577 0
M  V30 3836 C 374.366 5.02624 -1.08966 0
M  V30 3837 N 372.348 5.8566 -1.84052 0
M  V30 3838 C 373.719 5.85434 -2.04125 0
M  V30 3839 C 375.774 4.84959 -1.12779 0
M  V30 3840 C 374.477 6.52466 -3.02789 0
M  V30 3841 C 376.503 5.52759 -2.10266 0
M  V30 3842 C 375.865 6.35346 -3.04162 0
M  V30 3843 H 371.964 0.774402 0.108742 0
M  V30 3844 H 374.548 1.91572 -0.347596 0
M  V30 3845 H 372.719 3.55352 1.5678 0
M  V30 3846 H 374.451 3.77531 1.45783 0
M  V30 3847 H 371.206 4.7249 -0.324122 0
M  V30 3848 H 371.63 6.33246 -2.39434 0
M  V30 3849 H 376.272 4.20751 -0.415749 0
M  V30 3850 H 373.99 7.15849 -3.74948 0
M  V30 3851 H 377.576 5.41051 -2.13905 0
M  V30 3852 H 376.456 6.86883 -3.78366 0
M  V30 3853 N 373.959 -0.0401083 1.57549 0
M  V30 3854 C 374.869 -1.06133 2.0922 0
M  V30 3855 C 375.885 -1.40356 1.0284 0
M  V30 3856 O 377.061 -1.49897 1.34509 0
M  V30 3857 C 374.126 -2.34658 2.55218 0
M  V30 3858 C 373.187 -2.07117 3.76033 0
M  V30 3859 C 372.42 -3.29514 4.19829 0
M  V30 3860 O 372.643 -4.39794 3.63232 0
M  V30 3861 O 371.577 -3.15863 5.12362 0
M  V30 3862 H 375.403 -0.652244 2.96613 0
M  V30 3863 H 372.988 -0.256368 1.47184 0
M  V30 3864 H 374.87 -3.10239 2.85184 0
M  V30 3865 H 373.545 -2.74883 1.70941 0
M  V30 3866 H 372.452 -1.29139 3.51104 0
M  V30 3867 H 373.785 -1.71754 4.61261 0
M  V30 3868 N 375.437 -1.54477 -0.31217 0
M  V30 3869 C 376.848 -1.64344 -0.885891 0
M  V30 3870 C 377.199 -0.54485 -1.88483 0
M  V30 3871 O 376.324 0.320387 -2.14015 0
M  V30 3872 C 376.919 -2.97908 -1.61357 0
M  V30 3873 C 375.478 -3.09933 -2.13585 0
M  V30 3874 C 374.625 -2.59971 -0.964897 0
M  V30 3875 H 377.576 -1.58448 -0.0894528 0
M  V30 3876 H 377.597 -2.88706 -2.47848 0
M  V30 3877 H 377.109 -3.77845 -0.886277 0
M  V30 3878 H 375.21 -2.34694 -2.89395 0
M  V30 3879 H 375.323 -4.15916 -2.37804 0
M  V30 3880 H 373.687 -2.16147 -1.34731 0
M  V30 3881 H 374.47 -3.42376 -0.251742 0
M  V30 3882 N 376.915 0.57481 -1.46744 0
M  V30 3883 C 378.161 1.33251 -1.53674 0
M  V30 3884 C 378.516 1.91468 -0.189125 0
M  V30 3885 O 377.809 1.73954 0.803151 0
M  V30 3886 C 378.003 2.476 -2.57738 0
M  V30 3887 C 377.832 2.00586 -4.02487 0
M  V30 3888 C 376.602 1.85237 -4.70123 0
M  V30 3889 C 378.8 1.56078 -4.90045 0
M  V30 3890 N 376.782 1.32377 -5.99458 0
M  V30 3891 C 378.153 1.14863 -6.09267 0
M  V30 3892 C 380.208 1.43968 -4.76632 0
M  V30 3893 C 378.911 0.627435 -7.16558 0
M  V30 3894 C 380.937 0.932512 -5.84002 0
M  V30 3895 C 380.299 0.53019 -7.02402 0
M  V30 3896 H 376.398 0.480284 -0.617131 0
M  V30 3897 H 378.982 0.653592 -1.83402 0
M  V30 3898 H 377.153 3.13045 -2.29907 0
M  V30 3899 H 378.885 3.14567 -2.54616 0
M  V30 3900 H 375.64 2.07423 -4.25761 0
M  V30 3901 H 376.064 1.08085 -6.68316 0
M  V30 3902 H 380.706 1.73689 -3.85476 0
M  V30 3903 H 378.424 0.317821 -8.07475 0
M  V30 3904 H 382.01 0.842611 -5.75666 0
M  V30 3905 H 380.89 0.14381 -7.84068 0
M  V30 3906 N 378.394 1.34581 0.820102 0
M  V30 3907 C 379.326 1.22236 1.93884 0
M  V30 3908 C 380.339 0.148776 1.62119 0
M  V30 3909 O 381.528 0.400877 1.7394 0
M  V30 3910 C 378.628 0.856542 3.27897 0
M  V30 3911 C 377.801 2.02569 3.87666 0
M  V30 3912 C 376.86 1.63782 5.00062 0
M  V30 3913 O 375.886 2.35477 5.18208 0
M  V30 3914 N 377.088 0.553611 5.77854 0
M  V30 3915 H 379.853 2.18615 2.05006 0
M  V30 3916 H 377.414 1.27573 0.99683 0
M  V30 3917 H 379.406 0.578806 4.0054 0
M  V30 3918 H 377.976 -0.0171518 3.12595 0
M  V30 3919 H 377.196 2.468 3.07382 0
M  V30 3920 H 378.484 2.80752 4.24329 0
M  V30 3921 H 377.882 -0.0423528 5.65684 0
M  V30 3922 H 376.439 0.335614 6.50935 0
M  V30 3923 N 379.872 -1.04064 1.18357 0
M  V30 3924 C 381.283 -1.58719 0.98312 0
M  V30 3925 C 381.634 -1.90556 -0.467193 0
M  V30 3926 O 380.759 -1.69561 -1.34454 0
M  V30 3927 C 381.354 -2.88379 1.77828 0
M  V30 3928 C 379.913 -3.3965 1.62218 0
M  V30 3929 C 379.06 -2.13235 1.77274 0
M  V30 3930 H 382.011 -0.867359 1.32901 0
M  V30 3931 H 382.032 -3.58773 1.26737 0
M  V30 3932 H 381.544 -2.65176 2.83379 0
M  V30 3933 H 379.645 -3.67866 0.592036 0
M  V30 3934 H 379.758 -4.13475 2.42023 0
M  V30 3935 H 378.122 -2.24542 1.20221 0
M  V30 3936 H 378.905 -1.92487 2.8426 0
M  V30 3937 N 381.35 -0.985608 -1.22978 0
M  V30 3938 C 382.598 -0.656087 -1.91154 0
M  V30 3939 C 382.919 0.813561 -1.77218 0
M  V30 3940 O 382.189 1.58244 -1.1548 0
M  V30 3941 H 380.769 -0.239674 -0.707506 0
M  V30 3942 H 383.431 -1.25054 -1.49491 0
M  V30 3943 H 382.527 -0.912253 -2.9847 0
M  V30 3944 N 382.828 1.3818 -0.7579 0
M  V30 3945 C 383.758 2.33027 -0.148597 0
M  V30 3946 C 384.739 1.55085 0.69875 0
M  V30 3947 O 385.924 1.83384 0.639053 0
M  V30 3948 C 383.054 3.3928 0.742034 0
M  V30 3949 C 382.008 4.28 -0.00291946 0
M  V30 3950 C 381.334 5.25146 1.00625 0
M  V30 3951 C 382.634 5.08938 -1.17385 0
M  V30 3952 H 384.328 2.84231 -0.940909 0
M  V30 3953 H 381.874 1.36659 -0.453908 0
M  V30 3954 H 383.827 4.046 1.17799 0
M  V30 3955 H 382.551 2.86569 1.56671 0
M  V30 3956 H 381.21 3.64192 -0.419504 0
M  V30 3957 H 380.858 4.68721 1.8251 0
M  V30 3958 H 380.558 5.85361 0.512428 0
M  V30 3959 H 382.082 5.93342 1.44143 0
M  V30 3960 H 383.496 5.67474 -0.815224 0
M  V30 3961 H 381.893 5.7841 -1.59882 0
M  V30 3962 H 382.963 4.42424 -1.98468 0
M  V30 3963 N 384.306 0.507319 1.49211 0
M  V30 3964 C 385.256 -0.287112 2.26185 0
M  V30 3965 C 386.24 -0.929983 1.31302 0
M  V30 3966 O 387.432 -0.836538 1.55984 0
M  V30 3967 C 384.561 -1.34718 3.15763 0
M  V30 3968 C 383.647 -0.710235 4.18111 0
M  V30 3969 N 384.038 0.190836 5.0544 0
M  V30 3970 C 382.336 -0.97009 4.35322 0
M  V30 3971 C 383.037 0.55606 5.79036 0
M  V30 3972 N 382.013 -0.0775232 5.43545 0
M  V30 3973 H 385.815 0.406445 2.91076 0
M  V30 3974 H 383.329 0.323814 1.59139 0
M  V30 3975 H 385.326 -1.92982 3.69545 0
M  V30 3976 H 383.986 -2.04235 2.52424 0
M  V30 3977 H 384.997 0.562047 5.14841 0
M  V30 3978 H 381.674 -1.65753 3.83187 0
M  V30 3979 H 383.064 1.2936 6.5933 0
M  V30 3980 N 385.784 -1.5574 0.241426 0
M  V30 3981 C 387.033 -1.97986 -0.385295 0
M  V30 3982 C 387.346 -1.13267 -1.59468 0
M  V30 3983 O 388.552 -1.45501 -2.2922 0
M  V30 3984 C 387.008 -3.52275 -0.736884 0
M  V30 3985 C 386.616 -4.45726 0.450796 0
M  V30 3986 C 388.36 -4.03189 -1.3281 0
M  V30 3987 C 386.267 -5.91352 0.0756662 0
M  V30 3988 H 385.197 -0.739386 -0.147731 0
M  V30 3989 H 387.848 -1.80308 0.340779 0
M  V30 3990 H 386.23 -3.65628 -1.52094 0
M  V30 3991 H 387.404 -4.44131 1.22819 0
M  V30 3992 H 385.719 -4.05264 0.956573 0
M  V30 3993 H 388.316 -5.09505 -1.62201 0
M  V30 3994 H 388.659 -3.50212 -2.25071 0
M  V30 3995 H 389.192 -3.93141 -0.607069 0
M  V30 3996 H 385.931 -6.48354 0.965272 0
M  V30 3997 H 385.451 -5.96095 -0.665635 0
M  V30 3998 H 387.13 -6.46084 -0.344075 0
M  V30 3999 N 387.262 0.0317525 -1.57568 0
M  V30 4000 C 388.21 1.05165 -2.07468 0
M  V30 4001 C 389.204 1.3761 -0.98792 0
M  V30 4002 O 390.41 1.36546 -1.17282 0
M  V30 4003 H 386.785 0.35666 -0.66204 0
M  V30 4004 H 388.756 0.604958 -2.92203 0
M  V30 4005 C 387.505 2.34488 -2.56731 0
M  V30 4006 H 386.828 2.10383 -3.39969 0
M  V30 4007 H 388.268 3.04203 -2.95358 0
M  V30 4008 C 386.727 3.03266 -1.46736 0
M  V30 4009 O 387.257 3.92988 -0.832069 0
M  V30 4010 N 385.463 2.6455 -1.20256 0
M  V30 4011 H 385.01 1.91674 -1.72102 0
M  V30 4012 H 384.968 3.10886 -0.468737 0
M  V30 4013 N 388.74 1.54641 0.303973 0
M  V30 4014 C 389.672 1.81754 1.39636 0
M  V30 4015 C 390.685 0.70035 1.46966 0
M  V30 4016 O 391.874 0.97778 1.49338 0
M  V30 4017 C 388.974 1.93785 2.7803 0
M  V30 4018 C 388.147 3.24156 2.93669 0
M  V30 4019 C 387.206 3.26641 4.12544 0
M  V30 4020 O 386.232 4.00187 4.04771 0
M  V30 4021 N 387.434 2.5182 5.23036 0
M  V30 4022 H 390.199 2.76031 1.16734 0
M  V30 4023 H 387.76 1.54178 0.494033 0
M  V30 4024 H 389.752 1.92852 3.55795 0
M  V30 4025 H 388.322 1.06515 2.93893 0
M  V30 4026 H 387.542 3.37887 2.03042 0
M  V30 4027 H 388.83 4.10195 3.01027 0
M  V30 4028 H 388.228 1.91692 5.32232 0
M  V30 4029 H 386.785 2.56644 5.99147 0
M  V30 4030 N 390.218 -0.567019 1.47046 0
M  V30 4031 C 391.165 -1.67489 1.58796 0
M  V30 4032 C 392.135 -1.60399 0.43144 0
M  V30 4033 O 393.32 -1.79378 0.650233 0
M  V30 4034 C 390.46 -3.05821 1.59899 0
M  V30 4035 C 389.573 -3.2342 2.86397 0
M  V30 4036 C 388.708 -4.52093 2.789 0
M  V30 4037 C 387.747 -4.6309 4.00267 0
M  V30 4038 N 386.884 -5.83106 3.91064 0
M  V30 4039 H 391.724 -1.56785 2.53422 0
M  V30 4040 H 389.261 -0.763896 1.2571 0
M  V30 4041 H 391.219 -3.8591 1.58522 0
M  V30 4042 H 389.849 -3.15384 0.687929 0
M  V30 4043 H 388.901 -2.3683 2.97684 0
M  V30 4044 H 390.213 -3.27412 3.76301 0
M  V30 4045 H 389.367 -5.4043 2.75718 0
M  V30 4046 H 388.106 -4.50565 1.86662 0
M  V30 4047 H 387.111 -3.73168 4.03765 0
M  V30 4048 H 388.336 -4.66386 4.93621 0
M  V30 4049 H 386.282 -5.82546 3.01623 0
M  V30 4050 H 386.199 -5.88434 4.74638 0
M  V30 4051 H 387.467 -6.73831 3.91882 0
M  V30 4052 N 391.696 -1.35014 -0.812953 0
M  V30 4053 C 392.936 -1.29289 -1.58315 0
M  V30 4054 C 393.3 0.132727 -1.91541 0
M  V30 4055 O 394.501 0.314269 -2.66957 0
M  V30 4056 C 392.772 -2.1681 -2.84127 0
M  V30 4057 S 394.331 -2.28538 -3.74588 0
M  V30 4058 H 391.149 -0.459569 -0.542511 0
M  V30 4059 H 393.751 -1.70336 -0.959467 0
M  V30 4060 H 392.455 -3.19379 -2.57731 0
M  V30 4061 H 391.986 -1.76697 -3.51485 0
M  V30 4062 H 394.001 -1.4655 -4.74065 0
M  V30 4063 N 393.175 1.03435 -1.18907 0
M  V30 4064 C 394.085 2.15075 -0.937015 0
M  V30 4065 C 395.101 1.73706 0.101085 0
M  V30 4066 O 396.277 2.01232 -0.0822948 0
M  V30 4067 C 393.342 3.43458 -0.473057 0
M  V30 4068 C 392.403 3.99172 -1.57989 0
M  V30 4069 C 391.636 5.21427 -1.13797 0
M  V30 4070 O 391.859 5.704 0.000725941 0
M  V30 4071 O 390.793 5.69837 -1.9383 0
M  V30 4072 H 394.619 2.39198 -1.87131 0
M  V30 4073 H 392.204 1.13506 -0.971427 0
M  V30 4074 H 394.086 4.20811 -0.222702 0
M  V30 4075 H 392.761 3.20793 0.432869 0
M  V30 4076 H 391.668 3.23178 -1.88433 0
M  V30 4077 H 393.001 4.2619 -2.46217 0
M  V30 4078 N 394.653 0.992116 1.22453 0
M  V30 4079 C 395.583 0.561677 2.26644 0
M  V30 4080 C 396.564 -0.411055 1.65059 0
M  V30 4081 O 397.749 -0.301861 1.9184 0
M  V30 4082 C 394.879 -0.125247 3.47074 0
M  V30 4083 C 393.833 0.765948 4.21091 0
M  V30 4084 C 393.159 -0.0538484 5.34673 0
M  V30 4085 C 394.459 2.06242 4.79856 0
M  V30 4086 H 396.153 1.43259 2.62902 0
M  V30 4087 H 393.699 0.690283 1.26377 0
M  V30 4088 H 395.652 -0.437764 4.1912 0
M  V30 4089 H 394.376 -1.03069 3.0991 0
M  V30 4090 H 393.035 1.0621 3.50878 0
M  V30 4091 H 392.683 -0.960188 4.9375 0
M  V30 4092 H 392.383 0.539415 5.85119 0
M  V30 4093 H 393.907 -0.360477 6.09535 0
M  V30 4094 H 395.321 1.8139 5.43848 0
M  V30 4095 H 393.718 2.60444 5.40638 0
M  V30 4096 H 394.788 2.74167 3.99951 0
M  V30 4097 N 396.131 -1.37776 0.765217 0
M  V30 4098 C 397.547 -1.53297 0.444108 0
M  V30 4099 C 397.747 -1.72515 -1.04119 0
M  V30 4100 O 396.803 -1.74278 -1.82711 0
M  V30 4101 C 398.116 -2.73328 1.25349 0
M  V30 4102 C 399.664 -2.87185 1.24473 0
M  V30 4103 C 400.139 -4.10191 2.03733 0
M  V30 4104 N 401.63 -4.17291 2.01053 0
M  V30 4105 C 402.365 -5.11488 2.59166 0
M  V30 4106 N 401.861 -6.11285 3.26041 0
M  V30 4107 N 403.654 -5.03924 2.49032 0
M  V30 4108 H 395.805 -1.23552 1.72768 0
M  V30 4109 H 398.068 -0.601103 0.733062 0
M  V30 4110 H 397.774 -2.6557 2.30577 0
M  V30 4111 H 397.648 -3.66834 0.87823 0
M  V30 4112 H 400.035 -2.94418 0.20047 0
M  V30 4113 H 400.116 -1.94657 1.65959 0
M  V30 4114 H 399.76 -4.0372 3.08176 0
M  V30 4115 H 399.69 -5.01821 1.59633 0
M  V30 4116 H 402.181 -3.45825 1.5236 0
M  V30 4117 H 402.494 -6.79678 3.67774 0
M  V30 4118 H 400.839 -6.11583 3.30138 0
M  V30 4119 H 404.03 -4.24902 1.96407 0
M  V30 4120 H 404.203 -5.77152 2.94617 0
M  V30 4121 N 397.609 -0.515225 -1.4894 0
M  V30 4122 C 398.559 0.275113 -2.26334 0
M  V30 4123 C 399.543 0.923007 -1.31793 0
M  V30 4124 O 400.735 0.828254 -1.56426 0
M  V30 4125 C 397.864 1.33041 -3.16473 0
M  V30 4126 C 396.95 0.688051 -4.18481 0
M  V30 4127 N 397.341 -0.217638 -5.05332 0
M  V30 4128 C 395.639 0.94699 -4.3583 0
M  V30 4129 C 396.34 -0.58676 -5.78733 0
M  V30 4130 N 395.316 0.0486966 -5.43578 0
M  V30 4131 H 399.118 -0.421876 -2.90856 0
M  V30 4132 H 396.632 -0.332249 -1.58965 0
M  V30 4133 H 398.629 1.9102 -3.70563 0
M  V30 4134 H 397.289 2.02894 -2.53504 0
M  V30 4135 H 398.3 -0.589343 -5.14536 0
M  V30 4136 H 394.977 1.63719 -3.8406 0
M  V30 4137 H 396.367 -1.32855 -6.58634 0
M  V30 4138 N 399.087 1.5561 -0.249682 0
M  V30 4139 C 400.034 2.21496 0.648694 0
M  V30 4140 C 401.004 1.17977 1.16921 0
M  V30 4141 O 402.189 1.46434 1.22318 0
M  V30 4142 C 399.329 2.92039 1.83868 0
M  V30 4143 C 398.442 4.10219 1.35442 0
M  V30 4144 C 397.577 4.6847 2.50419 0
M  V30 4145 C 396.616 5.78893 1.98869 0
M  V30 4146 N 395.753 6.31315 3.07223 0
M  V30 4147 H 400.593 2.97892 0.0801582 0
M  V30 4148 H 398.13 1.47074 0.0278031 0
M  V30 4149 H 400.088 3.31138 2.53778 0
M  V30 4150 H 398.718 2.18111 2.37965 0
M  V30 4151 H 397.77 3.76413 0.54928 0
M  V30 4152 H 399.082 4.89927 0.936649 0
M  V30 4153 H 398.236 5.10158 3.28366 0
M  V30 4154 H 396.975 3.87984 2.95499 0
M  V30 4155 H 395.98 5.3668 1.19393 0
M  V30 4156 H 397.205 6.61232 1.54755 0
M  V30 4157 H 395.151 5.53733 3.51732 0
M  V30 4158 H 395.068 7.06224 2.69784 0
M  V30 4159 H 396.336 6.77662 3.8522 0
M  V30 4160 N 400.565 -0.0233959 1.57583 0
M  V30 4161 C 401.976 -0.56927 1.77809 0
M  V30 4162 C 402.327 -1.75284 0.881472 0
M  V30 4163 O 401.452 -2.1626 0.0777805 0
M  V30 4164 C 402.047 -1.03949 3.22459 0
M  V30 4165 C 400.606 -1.53084 3.43864 0
M  V30 4166 C 399.753 -0.471454 2.73263 0
M  V30 4167 H 402.704 0.202825 1.57399 0
M  V30 4168 H 402.725 -1.90661 3.29285 0
M  V30 4169 H 402.237 -0.177865 3.87692 0
M  V30 4170 H 400.338 -2.41414 2.83814 0
M  V30 4171 H 400.451 -1.57443 4.52491 0
M  V30 4172 H 398.815 -0.927788 2.37201 0
M  V30 4173 H 399.598 0.380808 3.41181 0
M  V30 4174 N 402.043 -1.548 -0.295768 0
M  V30 4175 C 402.975 -1.82492 -1.3867 0
M  V30 4176 C 403.988 -0.708134 -1.46592 0
M  V30 4177 O 405.177 -0.985686 -1.48817 0
M  V30 4178 C 402.277 -1.95256 -2.76999 0
M  V30 4179 C 401.45 -3.25709 -2.91946 0
M  V30 4180 C 400.509 -3.28824 -4.10806 0
M  V30 4181 O 399.535 -4.02328 -4.02643 0
M  V30 4182 N 400.737 -2.5459 -5.21694 0
M  V30 4183 H 403.502 -2.76646 -1.15269 0
M  V30 4184 H 401.063 -1.54438 -0.485849 0
M  V30 4185 H 403.055 -1.94736 -3.54768 0
M  V30 4186 H 401.625 -1.08072 -2.93324 0
M  V30 4187 H 400.845 -3.38959 -2.01247 0
M  V30 4188 H 402.133 -4.11786 -2.98847 0
M  V30 4189 H 401.531 -1.94512 -5.31208 0
M  V30 4190 H 400.088 -2.59818 -5.97778 0
M  V30 4191 N 403.521 0.559213 -1.47345 0
M  V30 4192 C 404.937 0.884943 -1.32819 0
M  V30 4193 C 405.137 1.98988 -0.317173 0
M  V30 4194 O 404.193 2.51031 0.272011 0
M  V30 4195 C 405.506 1.28007 -2.72093 0
M  V30 4196 C 407.054 1.39161 -2.80363 0
M  V30 4197 C 407.529 1.82031 -4.20272 0
M  V30 4198 N 409.02 1.89185 -4.22804 0
M  V30 4199 C 409.755 2.2368 -5.27973 0
M  V30 4200 N 409.251 2.56802 -6.43447 0
M  V30 4201 N 411.044 2.24436 -5.15349 0
M  V30 4202 H 403.195 -0.170304 -2.11716 0
M  V30 4203 H 405.458 -0.0135247 -0.947904 0
M  V30 4204 H 405.164 0.542027 -3.47498 0
M  V30 4205 H 405.038 2.23665 -3.03733 0
M  V30 4206 H 407.425 2.12048 -2.05231 0
M  V30 4207 H 407.506 0.41696 -2.52379 0
M  V30 4208 H 407.15 1.09715 -4.95908 0
M  V30 4209 H 407.08 2.80495 -4.45679 0
M  V30 4210 H 409.571 1.65982 -3.39497 0
M  V30 4211 H 409.884 2.82144 -7.19454 0
M  V30 4212 H 408.229 2.54387 -6.46771 0
M  V30 4213 H 411.42 1.97998 -4.24163 0
M  V30 4214 H 411.593 2.50989 -5.97418 0
M  V30 4215 N 404.999 1.35443 0.805782 0
M  V30 4216 C 406.247 1.28507 1.55982 0
M  V30 4217 C 406.568 -0.140046 1.94496 0
M  V30 4218 O 405.838 -1.07666 1.63661 0
M  V30 4219 H 404.418 0.472676 0.578434 0
M  V30 4220 H 407.08 1.69555 0.961098 0
M  V30 4221 H 406.176 1.90148 2.47488 0
M  V30 4222 N 406.477 -1.02803 1.19454 0
M  V30 4223 C 407.387 -2.14575 0.948408 0
M  V30 4224 C 408.403 -1.73757 -0.091871 0
M  V30 4225 O 409.579 -2.01185 0.0929654 0
M  V30 4226 C 406.644 -3.43202 0.491265 0
M  V30 4227 C 405.705 -3.98328 1.60103 0
M  V30 4228 C 404.938 -5.20816 1.16561 0
M  V30 4229 O 405.161 -5.70392 0.0295238 0
M  V30 4230 O 404.095 -5.68801 1.96849 0
M  V30 4231 H 407.921 -2.38202 1.88397 0
M  V30 4232 H 405.506 -1.12989 0.977433 0
M  V30 4233 H 407.388 -4.20687 0.245015 0
M  V30 4234 H 406.063 -3.21018 -0.415851 0
M  V30 4235 H 404.97 -3.22174 1.90144 0
M  V30 4236 H 406.303 -4.24879 2.48473 0
M  V30 4237 N 407.956 -0.998596 -1.21925 0
M  V30 4238 C 408.919 -0.558679 -2.22287 0
M  V30 4239 C 409.919 0.361525 -1.56683 0
M  V30 4240 O 411.109 0.152695 -1.73529 0
M  V30 4241 C 408.241 0.18661 -3.40389 0
M  V30 4242 H 409.434 -1.4463 -2.62721 0
M  V30 4243 H 406.987 -0.786413 -1.35075 0
M  V30 4244 H 407.722 1.08996 -3.05435 0
M  V30 4245 H 407.507 -0.474188 -3.89222 0
M  V30 4246 H 408.997 0.482367 -4.14805 0
M  V30 4247 N 409.434 1.37368 -0.772513 0
M  V30 4248 C 410.659 2.0447 -0.347386 0
M  V30 4249 C 411.084 1.57882 1.0225 0
M  V30 4250 O 410.442 0.73941 1.65537 0
M  V30 4251 C 410.49 3.58369 -0.400479 0
M  V30 4252 O 409.594 4.0803 0.598789 0
M  V30 4253 H 408.935 0.646773 -0.15027 0
M  V30 4254 H 411.465 1.75667 -1.04892 0
M  V30 4255 H 411.475 4.07183 -0.258045 0
M  V30 4256 H 410.15 3.91633 -1.39986 0
M  V30 4257 H 408.727 3.70534 0.419411 0
M  V30 4258 N 410.912 0.523116 1.48665 0
M  V30 4259 C 412.158 -0.00540031 2.03399 0
M  V30 4260 C 412.513 -1.3264 1.39372 0
M  V30 4261 O 411.806 -1.84184 0.527916 0
M  V30 4262 C 412 -0.191671 3.56886 0
M  V30 4263 C 411.829 1.10972 4.35793 0
M  V30 4264 C 410.599 1.66769 4.76987 0
M  V30 4265 C 412.797 2.01861 4.73029 0
M  V30 4266 N 410.779 2.91268 5.40404 0
M  V30 4267 C 412.15 3.10937 5.36394 0
M  V30 4268 C 414.205 2.02271 4.54962 0
M  V30 4269 C 412.908 4.20478 5.83601 0
M  V30 4270 C 414.934 3.10802 5.03146 0
M  V30 4271 C 414.296 4.18597 5.6653 0
M  V30 4272 H 410.395 0.0393531 0.781009 0
M  V30 4273 H 412.979 0.702876 1.8157 0
M  V30 4274 H 411.15 -0.869025 3.78553 0
M  V30 4275 H 412.882 -0.719177 3.98259 0
M  V30 4276 H 409.637 1.20996 4.57883 0
M  V30 4277 H 410.061 3.54635 5.76683 0
M  V30 4278 H 414.703 1.2023 4.05345 0
M  V30 4279 H 412.421 5.03303 6.32228 0
M  V30 4280 H 416.007 3.12166 4.90962 0
M  V30 4281 H 414.887 5.01193 6.03138 0
M  V30 4282 N 412.39 -1.55475 0.257931 0
M  V30 4283 C 413.353 -2.20551 -0.623706 0
M  V30 4284 C 414.353 -1.17809 -1.09443 0
M  V30 4285 O 415.543 -1.42823 -0.997362 0
M  V30 4286 C 412.675 -2.85784 -1.8585 0
M  V30 4287 H 413.868 -2.99848 -0.0557743 0
M  V30 4288 H 411.421 -1.56298 0.0084422 0
M  V30 4289 H 412.156 -2.10453 -2.46739 0
M  V30 4290 H 411.941 -3.61057 -1.52907 0
M  V30 4291 H 413.431 -3.35553 -2.48584 0
M  V30 4292 N 413.868 0.0150385 -1.57593 0
M  V30 4293 C 414.798 1.01047 -2.10503 0
M  V30 4294 C 415.779 1.36816 -1.01071 0
M  V30 4295 O 416.964 1.45455 -1.28672 0
M  V30 4296 C 414.094 2.30708 -2.59598 0
M  V30 4297 C 413.048 2.09142 -3.73421 0
M  V30 4298 C 412.374 3.44685 -4.08774 0
M  V30 4299 C 413.674 1.46619 -5.01298 0
M  V30 4300 H 415.368 0.569978 -2.93925 0
M  V30 4301 H 412.914 0.272724 -1.41394 0
M  V30 4302 H 414.867 3.00687 -2.95238 0
M  V30 4303 H 413.591 2.76843 -1.73279 0
M  V30 4304 H 412.25 1.41592 -3.38153 0
M  V30 4305 H 411.898 3.88495 -3.195 0
M  V30 4306 H 411.598 3.31077 -4.8545 0
M  V30 4307 H 413.122 4.16004 -4.4696 0
M  V30 4308 H 414.536 2.06535 -5.34805 0
M  V30 4309 H 412.933 1.43544 -5.82679 0
M  V30 4310 H 414.003 0.433611 -4.82957 0
M  V30 4311 N 415.346 1.54954 0.287554 0
M  V30 4312 C 416.592 1.75132 1.02257 0
M  V30 4313 C 416.925 0.542858 1.86458 0
M  V30 4314 O 416.2 -0.459856 1.88986 0
M  V30 4315 C 416.483 3.04812 1.91733 0
M  V30 4316 C 416.336 4.35985 1.10622 0
M  V30 4317 C 417.655 3.30438 2.90687 0
M  V30 4318 H 414.774 0.637194 0.370341 0
M  V30 4319 H 417.416 1.87678 0.296111 0
M  V30 4320 H 415.566 2.94247 2.53675 0
M  V30 4321 H 417.238 4.58487 0.508636 0
M  V30 4322 H 415.481 4.31865 0.409271 0
M  V30 4323 H 416.152 5.23017 1.76513 0
M  V30 4324 H 418.628 3.40701 2.38877 0
M  V30 4325 H 417.504 4.22467 3.50447 0
M  V30 4326 H 417.765 2.49377 3.65053 0
M  V30 4327 N 416.824 -0.551391 1.4764 0
M  V30 4328 C 418.072 -1.30572 1.54258 0
M  V30 4329 C 418.393 -1.93877 0.208963 0
M  V30 4330 O 417.663 -1.80234 -0.767619 0
M  V30 4331 H 416.243 -0.484894 0.568231 0
M  V30 4332 H 418.905 -0.643402 1.83974 0
M  V30 4333 H 418.001 -2.09621 2.31226 0
M  V30 4334 N 418.302 -1.35869 -0.798587 0
M  V30 4335 C 419.713 -1.26498 -1.37314 0
M  V30 4336 C 420.064 0.0991899 -1.95949 0
M  V30 4337 O 419.189 1.0004 -1.91888 0
M  V30 4338 C 419.784 -2.29054 -2.49639 0
M  V30 4339 C 418.343 -2.234 -3.02935 0
M  V30 4340 C 417.49 -2.14329 -1.75949 0
M  V30 4341 H 420.441 -1.46881 -0.600971 0
M  V30 4342 H 420.462 -1.92166 -3.28409 0
M  V30 4343 H 419.974 -3.2833 -2.06933 0
M  V30 4344 H 418.075 -1.27562 -3.50084 0
M  V30 4345 H 418.188 -3.15703 -3.60372 0
M  V30 4346 H 416.552 -1.60435 -1.9782 0
M  V30 4347 H 417.335 -3.15477 -1.35384 0
M  V30 4348 N 419.78 1.02168 -1.19998 0
M  V30 4349 C 420.71 2.12488 -0.96804 0
M  V30 4350 C 421.691 1.69799 0.101185 0
M  V30 4351 O 422.876 1.94121 -0.0552993 0
M  V30 4352 C 420.006 3.43479 -0.513776 0
M  V30 4353 C 418.96 3.99884 -1.52566 0
M  V30 4354 C 418.286 5.26582 -0.928214 0
M  V30 4355 C 419.586 4.33861 -2.90795 0
M  V30 4356 H 421.28 2.32149 -1.89069 0
M  V30 4357 H 418.826 1.11564 -0.910468 0
M  V30 4358 H 420.779 4.20036 -0.338774 0
M  V30 4359 H 419.503 3.23561 0.444493 0
M  V30 4360 H 418.162 3.25429 -1.68794 0
M  V30 4361 H 417.81 5.02986 0.0378289 0
M  V30 4362 H 417.51 5.65284 -1.60397 0
M  V30 4363 H 419.034 6.05799 -0.764167 0
M  V30 4364 H 420.448 5.01327 -2.78109 0
M  V30 4365 H 418.845 4.83664 -3.55231 0
M  V30 4366 H 419.915 3.42848 -3.42904 0
M  V30 4367 N 421.258 1.00505 1.21394 0
M  V30 4368 C 422.669 0.721082 1.72213 0
M  V30 4369 C 423.02 -0.761263 1.80829 0
M  V30 4370 O 422.145 -1.59464 1.46288 0
M  V30 4371 C 422.74 1.30228 3.12772 0
M  V30 4372 C 421.299 1.06743 3.60947 0
M  V30 4373 C 420.446 1.41507 2.38477 0
M  V30 4374 H 423.397 1.17594 1.06571 0
M  V30 4375 H 423.418 0.686955 3.74247 0
M  V30 4376 H 422.93 2.38115 3.06468 0
M  V30 4377 H 421.031 0.00572162 3.726 0
M  V30 4378 H 421.144 1.73936 4.46411 0
M  V30 4379 H 419.508 0.833852 2.40664 0
M  V30 4380 H 420.291 2.50424 2.34824 0
M  V30 4381 N 422.737 -1.36956 0.779787 0
M  V30 4382 C 423.667 -2.32761 0.185651 0
M  V30 4383 C 424.648 -1.56177 -0.673989 0
M  V30 4384 O 425.833 -1.84378 -0.609797 0
M  V30 4385 C 422.963 -3.40418 -0.687964 0
M  V30 4386 C 421.917 -4.27941 0.0710102 0
M  V30 4387 C 421.243 -5.26681 -0.922573 0
M  V30 4388 C 422.543 -5.07006 1.25467 0
M  V30 4389 H 424.237 -2.82698 0.986008 0
M  V30 4390 H 421.783 -1.3592 0.475592 0
M  V30 4391 H 423.736 -4.06423 -1.11348 0
M  V30 4392 H 422.46 -2.89025 -1.52093 0
M  V30 4393 H 421.119 -3.63478 0.47739 0
M  V30 4394 H 420.767 -4.71565 -1.7503 0
M  V30 4395 H 420.467 -5.86103 -0.419237 0
M  V30 4396 H 421.991 -5.9556 -1.34686 0
M  V30 4397 H 423.405 -5.66105 0.905401 0
M  V30 4398 H 421.802 -5.75793 1.69063 0
M  V30 4399 H 422.872 -4.3921 2.05481 0
M  V30 4400 N 424.215 -0.530993 -1.48385 0
M  V30 4401 C 425.125 0.23503 -2.3342 0
M  V30 4402 C 426.141 0.93801 -1.46552 0
M  V30 4403 O 427.317 0.912745 -1.7953 0
M  V30 4404 C 424.382 1.26778 -3.22689 0
M  V30 4405 C 423.443 0.575038 -4.25431 0
M  V30 4406 C 422.676 1.55858 -5.10435 0
M  V30 4407 O 422.899 2.79129 -4.97437 0
M  V30 4408 O 421.833 1.09742 -5.91811 0
M  V30 4409 H 425.659 -0.461794 -3.00169 0
M  V30 4410 H 423.244 -0.291903 -1.46521 0
M  V30 4411 H 425.126 1.86457 -3.77904 0
M  V30 4412 H 423.801 1.94699 -2.586 0
M  V30 4413 H 422.708 -0.0622782 -3.74048 0
M  V30 4414 H 424.041 -0.062253 -4.92161 0
M  V30 4415 N 425.693 1.55336 -0.266172 0
M  V30 4416 C 426.656 2.20878 0.612001 0
M  V30 4417 C 427.656 1.18388 1.08816 0
M  V30 4418 O 428.846 1.4335 0.989774 0
M  V30 4419 C 425.978 2.86765 1.84332 0
M  V30 4420 H 427.171 2.99873 0.0398718 0
M  V30 4421 H 424.724 1.56291 -0.0167309 0
M  V30 4422 H 425.459 2.11759 2.45619 0
M  V30 4423 H 425.244 3.61862 1.5099 0
M  V30 4424 H 426.734 3.36867 2.46801 0
M  V30 4425 N 427.171 -0.0066808 1.57599 0
M  V30 4426 C 428.101 -0.999296 2.11036 0
M  V30 4427 C 429.082 -1.36278 1.01795 0
M  V30 4428 O 430.267 -1.4477 1.29442 0
M  V30 4429 C 427.397 -2.29328 2.60818 0
M  V30 4430 C 426.351 -2.07159 3.74525 0
M  V30 4431 C 425.677 -3.42512 4.10596 0
M  V30 4432 C 426.977 -1.43959 5.02069 0
M  V30 4433 H 428.671 -0.554382 2.94223 0
M  V30 4434 H 426.217 -0.265221 1.41536 0
M  V30 4435 H 428.17 -2.99117 2.96828 0
M  V30 4436 H 426.894 -2.7592 1.74745 0
M  V30 4437 H 425.553 -1.39797 3.38899 0
M  V30 4438 H 425.201 -3.86795 3.21556 0
M  V30 4439 H 424.901 -3.28498 4.87199 0
M  V30 4440 H 426.425 -4.13628 4.4916 0
M  V30 4441 H 427.839 -2.03696 5.35893 0
M  V30 4442 H 426.236 -1.40452 5.83432 0
M  V30 4443 H 427.306 -0.407992 4.83181 0
M  V30 4444 N 428.649 -1.55105 -0.279332 0
M  V30 4445 C 429.581 -1.83952 -1.36727 0
M  V30 4446 C 430.594 -0.723642 -1.45833 0
M  V30 4447 O 431.783 -1.00141 -1.47763 0
M  V30 4448 C 428.883 -1.98183 -2.74912 0
M  V30 4449 C 428.056 -3.28787 -2.88475 0
M  V30 4450 C 427.115 -3.33162 -4.07295 0
M  V30 4451 O 426.141 -4.06576 -3.98353 0
M  V30 4452 N 427.343 -2.60109 -5.18964 0
M  V30 4453 H 430.108 -2.77853 -1.12328 0
M  V30 4454 H 427.669 -1.54945 -0.469442 0
M  V30 4455 H 429.661 -1.98488 -3.52682 0
M  V30 4456 H 428.231 -1.11177 -2.92162 0
M  V30 4457 H 427.451 -3.41075 -1.97641 0
M  V30 4458 H 428.739 -4.14933 -2.94463 0
M  V30 4459 H 428.137 -2.00136 -5.29115 0
M  V30 4460 H 426.694 -2.66143 -5.94988 0
M  V30 4461 N 430.127 0.543554 -1.4793 0
M  V30 4462 C 431.357 1.32324 -1.58663 0
M  V30 4463 C 431.765 1.8766 -0.240896 0
M  V30 4464 O 431.108 1.66411 0.778011 0
M  V30 4465 C 431.17 2.52094 -2.56299 0
M  V30 4466 C 430.834 2.17944 -4.01683 0
M  V30 4467 C 431.831 1.74422 -4.89768 0
M  V30 4468 C 429.516 2.28884 -4.47121 0
M  V30 4469 C 431.51 1.42287 -6.21316 0
M  V30 4470 C 429.197 1.96361 -5.78693 0
M  V30 4471 C 430.195 1.53132 -6.65612 0
M  V30 4472 O 429.883 1.21029 -7.94737 0
M  V30 4473 H 429.615 0.409174 -0.538101 0
M  V30 4474 H 432.169 0.663887 -1.94375 0
M  V30 4475 H 430.399 3.20965 -2.15681 0
M  V30 4476 H 432.088 3.14165 -2.57012 0
M  V30 4477 H 432.854 1.65452 -4.55907 0
M  V30 4478 H 428.733 2.61488 -3.79664 0
M  V30 4479 H 432.277 1.08472 -6.89115 0
M  V30 4480 H 428.174 2.04967 -6.12094 0
M  V30 4481 H 428.942 1.34543 -8.07366 0
M  V30 4482 N 431.605 1.3629 0.791371 0
M  V30 4483 C 432.515 1.32606 1.93527 0
M  V30 4484 C 433.531 0.228541 1.72493 0
M  V30 4485 O 434.707 0.460571 1.96063 0
M  V30 4486 C 431.772 1.11271 3.28359 0
M  V30 4487 C 430.833 2.3048 3.62185 0
M  V30 4488 C 430.066 2.10154 4.90583 0
M  V30 4489 O 430.289 1.07572 5.60165 0
M  V30 4490 O 429.223 2.97884 5.23019 0
M  V30 4491 H 433.049 2.28909 1.99585 0
M  V30 4492 H 430.634 1.16818 0.931344 0
M  V30 4493 H 432.516 1.01283 4.09047 0
M  V30 4494 H 431.191 0.180292 3.23198 0
M  V30 4495 H 430.098 2.46036 2.81811 0
M  V30 4496 H 431.431 3.22221 3.72068 0
M  V30 4497 N 433.083 -1.0153 1.20538 0
M  V30 4498 C 434.013 -2.11972 0.979295 0
M  V30 4499 C 434.994 -1.6985 -0.0921787 0
M  V30 4500 O 436.179 -1.94089 0.0655932 0
M  V30 4501 C 433.309 -3.43201 0.531984 0
M  V30 4502 C 432.263 -3.9907 1.54685 0
M  V30 4503 C 431.589 -5.26082 0.956127 0
M  V30 4504 C 432.889 -4.32313 2.93092 0
M  V30 4505 H 434.583 -2.31143 1.90298 0
M  V30 4506 H 432.129 -1.11079 0.916372 0
M  V30 4507 H 434.082 -4.1985 0.361044 0
M  V30 4508 H 432.806 -3.23792 -0.427327 0
M  V30 4509 H 431.465 -3.2453 1.70517 0
M  V30 4510 H 431.113 -5.02999 -0.0111538 0
M  V30 4511 H 430.813 -5.64426 1.63393 0
M  V30 4512 H 432.337 -6.05386 0.796284 0
M  V30 4513 H 433.751 -4.99845 2.80763 0
M  V30 4514 H 432.148 -4.81774 3.57791 0
M  V30 4515 H 433.218 -3.41025 3.44717 0
M  V30 4516 N 434.561 -1.01147 -1.20859 0
M  V30 4517 C 435.801 -0.706331 -1.91808 0
M  V30 4518 C 436.165 0.749736 -1.76757 0
M  V30 4519 O 437.366 1.16716 -2.42138 0
M  V30 4520 C 435.637 -1.12371 -3.39275 0
M  V30 4521 S 437.196 -0.939764 -4.28619 0
M  V30 4522 H 434.014 -0.257665 -0.662669 0
M  V30 4523 H 436.616 -1.29766 -1.46223 0
M  V30 4524 H 435.32 -2.17943 -3.47749 0
M  V30 4525 H 434.851 -0.524952 -3.89882 0
M  V30 4526 H 436.866 0.159556 -4.95943 0
M  V30 4527 N 436.039 1.36541 -0.78704 0
M  V30 4528 C 437.287 1.98911 -0.357633 0
M  V30 4529 C 437.608 1.62778 1.07371 0
M  V30 4530 O 436.878 0.900612 1.73971 0
M  V30 4531 H 435.458 0.735734 -0.129246 0
M  V30 4532 H 438.12 1.66776 -1.00855 0
M  V30 4533 H 437.216 3.08874 -0.447549 0
M  V30 4534 N 437.518 0.538854 1.48102 0
M  V30 4535 C 438.448 -0.207654 2.32575 0
M  V30 4536 C 439.429 -0.926559 1.4265 0
M  V30 4537 O 440.614 -0.91061 1.71527 0
M  V30 4538 C 437.744 -1.24957 3.24042 0
M  V30 4539 C 436.698 -0.648263 4.23062 0
M  V30 4540 C 436.024 -1.79348 5.03725 0
M  V30 4541 C 437.324 0.385897 5.20872 0
M  V30 4542 H 439.018 0.497534 2.95237 0
M  V30 4543 H 436.564 0.240715 1.41974 0
M  V30 4544 H 438.517 -1.77983 3.81969 0
M  V30 4545 H 437.241 -1.98446 2.59397 0
M  V30 4546 H 435.9 -0.139452 3.66335 0
M  V30 4547 H 435.548 -2.51696 4.35498 0
M  V30 4548 H 435.248 -1.39702 5.70751 0
M  V30 4549 H 436.772 -2.32735 5.64506 0
M  V30 4550 H 438.186 -0.057607 5.73271 0
M  V30 4551 H 436.583 0.700227 5.96001 0
M  V30 4552 H 437.653 1.28848 4.67468 0
M  V30 4553 N 438.996 -1.55193 0.274407 0
M  V30 4554 C 439.926 -2.25471 -0.607032 0
M  V30 4555 C 440.907 -1.24461 -1.15946 0
M  V30 4556 O 442.092 -1.53179 -1.19373 0
M  V30 4557 C 439.222 -2.97526 -1.79153 0
M  V30 4558 C 438.176 -4.05459 -1.37067 0
M  V30 4559 C 437.502 -4.65084 -2.6382 0
M  V30 4560 C 438.802 -5.19691 -0.521389 0
M  V30 4561 H 440.496 -2.99393 -0.0209343 0
M  V30 4562 H 438.042 -1.43997 -0.00862866 0
M  V30 4563 H 439.995 -3.45402 -2.41404 0
M  V30 4564 H 438.719 -2.21138 -2.40344 0
M  V30 4565 H 437.378 -3.58393 -0.771355 0
M  V30 4566 H 437.026 -3.85365 -3.23268 0
M  V30 4567 H 436.726 -5.37961 -2.36372 0
M  V30 4568 H 438.25 -5.15708 -3.26921 0
M  V30 4569 H 439.664 -5.63623 -1.04889 0
M  V30 4570 H 438.061 -5.99126 -0.341825 0
M  V30 4571 H 439.131 -4.82713 0.46 0
M  V30 4572 N 440.474 -0.00167713 -1.576 0
M  V30 4573 C 441.885 0.54091 -1.78693 0
M  V30 4574 C 442.236 1.7386 -0.909247 0
M  V30 4575 O 441.361 2.16109 -0.112176 0
M  V30 4576 C 441.956 0.98806 -3.24072 0
M  V30 4577 C 440.515 1.47594 -3.46256 0
M  V30 4578 C 439.662 0.42792 -2.73978 0
M  V30 4579 H 442.613 -0.22784 -1.57056 0
M  V30 4580 H 442.634 1.85398 -3.32277 0
M  V30 4581 H 442.146 0.116164 -3.87926 0
M  V30 4582 H 440.247 2.36868 -2.87618 0
M  V30 4583 H 440.36 1.50225 -4.54939 0
M  V30 4584 H 438.724 0.889934 -2.38647 0
M  V30 4585 H 439.507 -0.435038 -3.40532 0
M  V30 4586 N 441.952 1.55251 0.271103 0
M  V30 4587 C 442.915 1.87484 1.31842 0
M  V30 4588 C 443.915 0.749545 1.42262 0
M  V30 4589 O 445.105 1.01771 1.4138 0
M  V30 4590 C 442.237 2.0818 2.69951 0
M  V30 4591 H 443.43 2.81108 1.0449 0
M  V30 4592 H 440.983 1.47771 0.509258 0
M  V30 4593 H 441.718 1.16944 3.02481 0
M  V30 4594 H 441.503 2.90114 2.63774 0
M  V30 4595 H 442.993 2.34385 3.4562 0
M  V30 4596 N 443.43 -0.535701 1.48216 0
M  V30 4597 C 444.658 -1.31671 1.59594 0
M  V30 4598 C 445.073 -1.87083 0.254056 0
M  V30 4599 O 444.43 -1.66112 -0.755854 0
M  V30 4600 C 444.481 -2.47158 2.63809 0
M  V30 4601 O 444.202 -1.94032 3.92789 0
M  V30 4602 C 445.703 -3.39062 2.85573 0
M  V30 4603 H 442.923 -0.400623 0.538277 0
M  V30 4604 H 445.467 -0.646827 1.94001 0
M  V30 4605 H 443.622 -3.10043 2.32276 0
M  V30 4606 H 444.036 -2.69585 4.49916 0
M  V30 4607 H 445.51 -4.16459 3.62306 0
M  V30 4608 H 445.987 -3.93941 1.94184 0
M  V30 4609 H 446.593 -2.81975 3.18387 0
M  V30 4610 N 444.908 -1.36708 -0.784132 0
M  V30 4611 C 445.871 -1.31307 -1.87859 0
M  V30 4612 C 446.871 -0.219654 -1.59293 0
M  V30 4613 O 448.061 -0.47476 -1.67606 0
M  V30 4614 C 445.193 -1.03679 -3.24751 0
M  V30 4615 H 446.386 -2.28647 -1.94064 0
M  V30 4616 H 443.939 -1.21558 -0.98252 0
M  V30 4617 H 444.674 -0.0681936 -3.24228 0
M  V30 4618 H 444.459 -1.82811 -3.46876 0
M  V30 4619 H 445.949 -1.02518 -4.04821 0
M  V30 4620 N 446.386 1.0089 -1.21074 0
M  V30 4621 C 447.616 1.77933 -1.04993 0
M  V30 4622 C 448.024 1.84847 0.403495 0
M  V30 4623 O 447.367 1.30606 1.29181 0
M  V30 4624 C 447.429 3.23541 -1.56722 0
M  V30 4625 C 447.093 3.40214 -3.05129 0
M  V30 4626 C 448.09 3.2881 -4.02716 0
M  V30 4627 C 445.775 3.65781 -3.44252 0
M  V30 4628 C 447.769 3.42732 -5.37414 0
M  V30 4629 C 445.456 3.79346 -4.79103 0
M  V30 4630 C 446.454 3.67827 -5.75493 0
M  V30 4631 O 446.142 3.80965 -7.07899 0
M  V30 4632 H 445.874 0.566157 -0.369381 0
M  V30 4633 H 448.428 1.27826 -1.60779 0
M  V30 4634 H 446.658 3.74766 -0.953285 0
M  V30 4635 H 448.347 3.82245 -1.36543 0
M  V30 4636 H 449.113 3.08986 -3.73835 0
M  V30 4637 H 444.992 3.73831 -2.69762 0
M  V30 4638 H 448.536 3.33658 -6.12632 0
M  V30 4639 H 444.433 3.98672 -5.07672 0
M  V30 4640 H 445.201 3.97937 -7.15254 0
M  V30 4641 N 447.864 1.01787 1.20321 0
M  V30 4642 C 449.092 0.727194 1.937 0
M  V30 4643 C 449.507 -0.712305 1.74848 0
M  V30 4644 O 448.864 -1.48327 1.06327 0
M  V30 4645 C 448.915 1.05497 3.45764 0
M  V30 4646 O 448.636 2.43794 3.64 0
M  V30 4647 C 450.137 0.785534 4.36285 0
M  V30 4648 H 447.357 0.266939 0.615617 0
M  V30 4649 H 449.901 1.35939 1.52777 0
M  V30 4650 H 448.056 0.468158 3.84561 0
M  V30 4651 H 448.47 2.55656 4.57974 0
M  V30 4652 H 449.944 1.06495 5.4163 0
M  V30 4653 H 450.421 -0.280273 4.38305 0
M  V30 4654 H 451.027 1.35456 4.03152 0
M  V30 4655 N 449.342 -1.36122 0.79427 0
M  V30 4656 C 450.272 -2.32551 0.210328 0
M  V30 4657 C 451.253 -1.56884 -0.657386 0
M  V30 4658 O 452.438 -1.85014 -0.590207 0
M  V30 4659 C 449.568 -3.41128 -0.651819 0
M  V30 4660 C 448.522 -4.27842 0.116395 0
M  V30 4661 C 447.848 -5.2763 -0.86666 0
M  V30 4662 C 449.148 -5.05647 1.30837 0
M  V30 4663 H 450.842 -2.81636 1.01594 0
M  V30 4664 H 448.388 -1.35407 0.489981 0
M  V30 4665 H 450.341 -4.07581 -1.07031 0
M  V30 4666 H 449.065 -2.90622 -1.49019 0
M  V30 4667 H 447.724 -3.62952 0.515915 0
M  V30 4668 H 447.372 -4.73395 -1.70019 0
M  V30 4669 H 447.072 -5.86514 -0.35705 0
M  V30 4670 H 448.596 -5.96955 -1.28361 0
M  V30 4671 H 450.01 -5.65113 0.965393 0
M  V30 4672 H 448.407 -5.73967 1.75161 0
M  V30 4673 H 449.477 -4.37006 2.10128 0
M  V30 4674 N 450.82 -0.546701 -1.47814 0
M  V30 4675 C 451.752 0.244196 -2.27895 0
M  V30 4676 C 452.765 0.88911 -1.36377 0
M  V30 4677 O 453.954 0.764733 -1.61289 0
M  V30 4678 C 451.054 1.36252 -3.10304 0
M  V30 4679 C 450.227 0.816382 -4.29714 0
M  V30 4680 C 449.286 1.81789 -4.93801 0
M  V30 4681 O 448.312 1.36818 -5.52512 0
M  V30 4682 N 449.514 3.15085 -4.87547 0
M  V30 4683 H 452.279 -0.442694 -2.96412 0
M  V30 4684 H 449.84 -0.382095 -1.57327 0
M  V30 4685 H 451.832 2.03102 -3.50045 0
M  V30 4686 H 450.402 1.95281 -2.44099 0
M  V30 4687 H 449.622 -0.0285981 -3.9419 0
M  V30 4688 H 450.91 0.430668 -5.06974 0
M  V30 4689 H 450.308 3.54275 -4.41028 0
M  V30 4690 H 448.865 3.77522 -5.31339 0
M  V30 4691 N 452.299 1.55045 -0.282633 0
M  V30 4692 C 453.548 1.98938 0.332667 0
M  V30 4693 C 453.861 1.17455 1.56409 0
M  V30 4694 O 455.067 1.51527 2.25282 0
M  V30 4695 C 453.523 3.54105 0.643226 0
M  V30 4696 C 453.131 4.44374 -0.568814 0
M  V30 4697 C 454.875 4.06569 1.22074 0
M  V30 4698 C 452.782 5.90943 -0.232426 0
M  V30 4699 H 451.712 0.743043 0.128075 0
M  V30 4700 H 454.363 1.79341 -0.388464 0
M  V30 4701 H 452.745 3.69532 1.42346 0
M  V30 4702 H 453.919 4.40718 -1.34551 0
M  V30 4703 H 452.234 4.02585 -1.06369 0
M  V30 4704 H 454.831 5.13626 1.48635 0
M  V30 4705 H 455.174 3.56057 2.15707 0
M  V30 4706 H 455.707 3.94612 0.502621 0
M  V30 4707 H 452.446 6.45567 -1.13683 0
M  V30 4708 H 451.966 5.9765 0.507357 0
M  V30 4709 H 453.645 6.4677 0.172657 0
M  V30 4710 N 453.777 0.010035 1.57597 0
M  V30 4711 C 455.193 -0.346164 1.55801 0
M  V30 4712 C 455.393 -1.74144 1.01371 0
M  V30 4713 O 454.449 -2.43938 0.651968 0
M  V30 4714 C 455.762 -0.212216 2.9995 0
M  V30 4715 C 457.31 -0.286409 3.11687 0
M  V30 4716 C 457.785 -0.18147 4.5764 0
M  V30 4717 N 459.276 -0.239056 4.62583 0
M  V30 4718 C 460.011 -0.181351 5.73113 0
M  V30 4719 N 459.507 -0.073661 6.92761 0
M  V30 4720 N 461.3 -0.233949 5.61613 0
M  V30 4721 H 453.451 0.922657 1.91313 0
M  V30 4722 H 455.714 0.354595 0.879185 0
M  V30 4723 H 455.42 0.748169 3.4365 0
M  V30 4724 H 455.294 -0.990224 3.6397 0
M  V30 4725 H 457.681 -1.23724 2.67911 0
M  V30 4726 H 457.762 0.521645 2.50425 0
M  V30 4727 H 457.406 0.765863 5.02093 0
M  V30 4728 H 457.336 -1.00814 5.1686 0
M  V30 4729 H 459.827 -0.32321 3.76515 0
M  V30 4730 H 460.14 -0.0358003 7.72792 0
M  V30 4731 H 458.485 -0.0391461 6.94989 0
M  V30 4732 H 461.676 -0.316347 4.6703 0
M  V30 4733 H 461.849 -0.185514 6.47734 0
M  V30 4734 N 455.255 -1.55392 -0.262866 0
M  V30 4735 C 456.495 -1.78231 -1.00064 0
M  V30 4736 C 456.859 -0.576966 -1.83126 0
M  V30 4737 O 458.06 -0.683809 -2.59957 0
M  V30 4738 C 456.331 -3.05701 -1.85153 0
M  V30 4739 S 457.89 -3.49699 -2.65058 0
M  V30 4740 H 454.708 -0.626138 -0.336856 0
M  V30 4741 H 457.31 -1.93626 -0.27005 0
M  V30 4742 H 456.014 -3.91511 -1.23074 0
M  V30 4743 H 455.545 -2.93 -2.62515 0
M  V30 4744 H 457.56 -3.09772 -3.87629 0
M  V30 4745 N 456.733 0.527833 -1.48498 0
M  V30 4746 C 457.982 1.28003 -1.55878 0
M  V30 4747 C 458.295 1.9414 -0.238577 0
M  V30 4748 O 459.501 2.7083 -0.190643 0
M  V30 4749 C 457.957 2.32272 -2.74914 0
M  V30 4750 C 457.565 1.72196 -4.13585 0
M  V30 4751 C 459.309 3.08488 -2.91608 0
M  V30 4752 C 457.216 2.74417 -5.23879 0
M  V30 4753 H 456.146 0.481413 -0.580308 0
M  V30 4754 H 458.797 0.557195 -1.74836 0
M  V30 4755 H 457.179 3.07601 -2.49395 0
M  V30 4756 H 458.353 1.03041 -4.49132 0
M  V30 4757 H 456.668 1.08464 -4.02025 0
M  V30 4758 H 459.265 3.84879 -3.71177 0
M  V30 4759 H 459.608 3.64481 -2.01145 0
M  V30 4760 H 460.141 2.40274 -3.17038 0
M  V30 4761 H 456.88 2.23242 -6.16314 0
M  V30 4762 H 456.4 3.41893 -4.92818 0
M  V30 4763 H 458.079 3.37362 -5.52083 0
M  V30 4764 N 458.211 1.37122 0.776871 0
M  V30 4765 C 459.627 1.1781 1.07671 0
M  V30 4766 C 459.827 0.0107454 2.01497 0
M  V30 4767 O 458.883 -0.650756 2.4397 0
M  V30 4768 C 460.196 2.49451 1.67913 0
M  V30 4769 C 461.744 2.55927 1.80195 0
M  V30 4770 C 462.219 3.87686 2.43851 0
M  V30 4771 N 463.71 3.891 2.51307 0
M  V30 4772 C 464.445 4.87797 3.014 0
M  V30 4773 N 463.941 5.96888 3.51705 0
M  V30 4774 N 465.734 4.75205 3.00227 0
M  V30 4775 H 457.885 2.11843 0.153778 0
M  V30 4776 H 460.148 0.938927 0.130844 0
M  V30 4777 H 459.854 3.35207 1.06439 0
M  V30 4778 H 459.728 2.66169 2.67271 0
M  V30 4779 H 462.115 1.70582 2.40803 0
M  V30 4780 H 462.196 2.43097 0.796069 0
M  V30 4781 H 461.84 4.73444 1.83884 0
M  V30 4782 H 461.77 3.97817 3.45035 0
M  V30 4783 H 464.261 3.10293 2.157 0
M  V30 4784 H 464.574 6.68155 3.88316 0
M  V30 4785 H 462.919 6.0054 3.49824 0
M  V30 4786 H 466.11 3.89103 2.60224 0
M  V30 4787 H 466.283 5.52279 3.38957 0
M  V30 4788 N 459.689 -1.00246 1.21608 0
M  V30 4789 C 460.935 -1.74417 1.04643 0
M  V30 4790 C 461.29 -1.87862 -0.415387 0
M  V30 4791 O 460.583 -1.40373 -1.30407 0
M  V30 4792 C 460.777 -3.15448 1.68009 0
M  V30 4793 C 460.606 -3.15755 3.20201 0
M  V30 4794 C 459.376 -3.2219 3.89258 0
M  V30 4795 C 461.574 -3.00668 4.17257 0
M  V30 4796 N 459.556 -3.1215 5.28617 0
M  V30 4797 C 460.927 -2.98553 5.43384 0
M  V30 4798 C 462.982 -2.84989 4.08272 0
M  V30 4799 C 461.685 -2.82364 6.61561 0
M  V30 4800 C 463.711 -2.70158 5.26088 0
M  V30 4801 C 463.073 -2.68721 6.51128 0
M  V30 4802 H 459.172 -0.648317 0.437274 0
M  V30 4803 H 461.756 -1.19129 1.54001 0
M  V30 4804 H 459.927 -3.69001 1.21215 0
M  V30 4805 H 461.659 -3.78128 1.44226 0
M  V30 4806 H 458.414 -3.29488 3.40198 0
M  V30 4807 H 458.838 -3.10465 6.01615 0
M  V30 4808 H 463.48 -2.84904 3.12393 0
M  V30 4809 H 461.198 -2.81196 7.57598 0
M  V30 4810 H 464.784 -2.59022 5.20959 0
M  V30 4811 H 463.664 -2.57382 7.40759 0
M  V30 4812 N 461.167 -1.02423 -1.1978 0
M  V30 4813 C 462.578 -0.748389 -1.71044 0
M  V30 4814 C 462.929 0.732398 -1.82017 0
M  V30 4815 O 462.054 1.57116 -1.48807 0
M  V30 4816 C 462.649 -1.35187 -3.1066 0
M  V30 4817 C 461.208 -1.12472 -3.59203 0
M  V30 4818 C 460.355 -1.45283 -2.36195 0
M  V30 4819 H 463.306 -1.19275 -1.04686 0
M  V30 4820 H 463.327 -0.746408 -3.73107 0
M  V30 4821 H 462.839 -2.4296 -3.02642 0
M  V30 4822 H 460.94 -0.0649983 -3.72543 0
M  V30 4823 H 461.053 -1.81016 -4.43588 0
M  V30 4824 H 459.417 -0.872034 -2.39307 0
M  V30 4825 H 460.2 -2.54129 -2.30811 0
M  V30 4826 N 462.645 1.35699 -0.801477 0
M  V30 4827 C 463.575 2.32436 -0.222658 0
M  V30 4828 C 464.556 1.5723 0.649057 0
M  V30 4829 O 465.741 1.85324 0.580387 0
M  V30 4830 C 462.871 3.41469 0.633719 0
M  V30 4831 C 461.825 4.27774 -0.139083 0
M  V30 4832 C 461.151 5.28082 0.838666 0
M  V30 4833 C 462.451 5.04946 -1.33517 0
M  V30 4834 H 464.145 2.81094 -1.03086 0
M  V30 4835 H 461.691 1.35146 -0.497155 0
M  V30 4836 H 463.644 4.08143 1.04868 0
M  V30 4837 H 462.368 2.91408 1.47475 0
M  V30 4838 H 461.027 3.62673 -0.535156 0
M  V30 4839 H 460.675 4.7429 1.67506 0
M  V30 4840 H 460.375 5.86695 0.32594 0
M  V30 4841 H 461.899 5.97628 1.25194 0
M  V30 4842 H 463.313 5.64593 -0.995349 0
M  V30 4843 H 461.71 5.7303 -1.78202 0
M  V30 4844 H 462.78 4.35886 -2.12442 0
M  V30 4845 N 464.123 0.554532 1.47522 0
M  V30 4846 C 465.534 0.120446 1.86311 0
M  V30 4847 C 465.885 -1.30904 1.46145 0
M  V30 4848 O 465.01 -1.98434 0.863294 0
M  V30 4849 C 465.605 0.211808 3.38137 0
M  V30 4850 C 464.164 -0.167224 3.76028 0
M  V30 4851 C 463.311 0.560576 2.71575 0
M  V30 4852 H 466.262 0.764408 1.39077 0
M  V30 4853 H 466.283 -0.570275 3.76202 0
M  V30 4854 H 465.795 1.25232 3.6734 0
M  V30 4855 H 463.896 -1.20894 3.52442 0
M  V30 4856 H 464.009 0.189473 4.78725 0
M  V30 4857 H 462.373 0.00396836 2.547 0
M  V30 4858 H 463.156 1.60219 3.0362 0
M  V30 4859 N 465.601 -1.54893 0.290851 0
M  V30 4860 C 466.849 -1.99538 -0.320756 0
M  V30 4861 C 467.17 -1.18075 -1.55188 0
M  V30 4862 O 466.44 -0.274162 -1.93972 0
M  V30 4863 H 465.02 -0.737052 -0.121507 0
M  V30 4864 H 467.682 -1.90755 0.399832 0
M  V30 4865 H 466.778 -3.06282 -0.599802 0
M  V30 4866 N 467.08 -0.0183926 -1.57589 0
M  V30 4867 C 468.03 0.975944 -2.06057 0
M  V30 4868 C 469.014 1.29204 -0.958908 0
M  V30 4869 O 470.206 1.27995 -1.22255 0
M  V30 4870 C 467.335 2.26194 -2.58247 0
M  V30 4871 C 466.421 1.97467 -3.75323 0
M  V30 4872 N 466.812 1.38968 -4.86335 0
M  V30 4873 C 465.11 2.27515 -3.83605 0
M  V30 4874 C 465.811 1.27131 -5.67638 0
M  V30 4875 N 464.787 1.76319 -5.14211 0
M  V30 4876 H 468.589 0.518444 -2.89291 0
M  V30 4877 H 466.103 0.18688 -1.61321 0
M  V30 4878 H 468.1 2.98289 -2.91255 0
M  V30 4879 H 466.76 2.7258 -1.76438 0
M  V30 4880 H 467.771 1.06608 -5.06809 0
M  V30 4881 H 464.448 2.76649 -3.12684 0
M  V30 4882 H 465.838 0.819882 -6.66879 0
M  V30 4883 N 468.558 1.5553 0.254621 0
M  V30 4884 C 469.804 1.7818 0.980989 0
M  V30 4885 C 470.159 0.586059 1.83257 0
M  V30 4886 O 469.452 -0.420889 1.8692 0
M  V30 4887 C 469.646 3.03891 1.88109 0
M  V30 4888 C 469.475 4.35578 1.11812 0
M  V30 4889 C 468.245 4.98497 0.826343 0
M  V30 4890 C 470.443 5.11869 0.499486 0
M  V30 4891 N 468.425 6.13888 0.0385095 0
M  V30 4892 C 469.796 6.1981 -0.153292 0
M  V30 4893 C 471.851 4.96216 0.409175 0
M  V30 4894 C 470.554 7.13801 -0.8877 0
M  V30 4895 C 472.58 5.90578 -0.311683 0
M  V30 4896 C 471.942 6.97922 -0.953129 0
M  V30 4897 H 468.041 0.704057 0.340335 0
M  V30 4898 H 470.625 1.93025 0.254855 0
M  V30 4899 H 468.796 2.90389 2.57932 0
M  V30 4900 H 470.528 3.14869 2.54244 0
M  V30 4901 H 467.283 4.59769 1.13621 0
M  V30 4902 H 467.707 6.76129 -0.343275 0
M  V30 4903 H 472.349 4.1331 0.890765 0
M  V30 4904 H 470.067 7.96214 -1.38092 0
M  V30 4905 H 473.653 5.80544 -0.382125 0
M  V30 4906 H 472.533 7.69681 -1.50203 0
M  V30 4907 N 470.036 -0.519951 1.48776 0
M  V30 4908 C 471.261 -1.30447 1.6124 0
M  V30 4909 C 471.686 -1.86055 0.276591 0
M  V30 4910 O 471.044 -1.64915 -0.753183 0
M  V30 4911 C 471.092 -2.42406 2.66967 0
M  V30 4912 O 470.196 -3.45728 2.24824 0
M  V30 4913 H 469.537 -0.385924 0.540332 0
M  V30 4914 H 472.067 -0.624572 1.94834 0
M  V30 4915 H 472.077 -2.88447 2.88552 0
M  V30 4916 H 470.752 -2.01294 3.63941 0
M  V30 4917 H 469.329 -3.05737 2.13494 0
M  V30 4918 N 471.514 -1.37532 -0.769588 0
M  V30 4919 C 472.791 -1.23392 -1.51768 0
M  V30 4920 C 473.171 0.17157 -2.10402 0
M  V30 4921 O 472.519 1.17943 -1.95708 0
M  V30 4922 C 472.729 -2.33163 -2.59685 0
M  V30 4923 C 474.077 -2.70809 -3.27028 0
M  V30 4924 O 475.101 -2.32355 -2.69981 0
M  V30 4925 O 473.96 -3.37066 -4.30173 0
M  V30 4926 H 471.054 -0.481617 -0.67229 0
M  V30 4927 H 473.6 -1.49318 -0.806368 0
M  V30 4928 H 472.372 -3.27273 -2.14494 0
M  V30 4929 H 471.995 -2.08713 -3.38415 0
M  V30 4930 N 472.992 0.995999 -1.22138 0
M  V30 4931 C 474.238 1.7386 -1.05567 0
M  V30 4932 C 474.593 1.8808 0.405418 0
M  V30 4933 O 473.886 1.41062 1.29661 0
M  V30 4934 C 474.08 3.14553 -1.6968 0
M  V30 4935 C 473.909 3.14053 -3.21871 0
M  V30 4936 C 472.679 3.20121 -3.90961 0
M  V30 4937 C 474.877 2.98451 -4.18845 0
M  V30 4938 N 472.859 3.09342 -5.30265 0
M  V30 4939 C 474.23 2.95667 -5.4496 0
M  V30 4940 C 476.285 2.8282 -4.09777 0
M  V30 4941 C 474.988 2.78852 -6.63049 0
M  V30 4942 C 477.014 2.67364 -5.27513 0
M  V30 4943 C 476.376 2.65264 -6.52544 0
M  V30 4944 H 472.475 0.645989 -0.440706 0
M  V30 4945 H 475.059 1.1831 -1.54631 0
M  V30 4946 H 473.23 3.68353 -1.2317 0
M  V30 4947 H 474.962 3.77358 -1.4623 0
M  V30 4948 H 471.717 3.27679 -3.4194 0
M  V30 4949 H 472.141 3.0727 -6.03253 0
M  V30 4950 H 476.783 2.83243 -3.139 0
M  V30 4951 H 474.501 2.77175 -7.59078 0
M  V30 4952 H 478.087 2.56256 -5.22326 0
M  V30 4953 H 476.967 2.5345 -7.42114 0
M  V30 4954 N 474.47 1.03057 1.19235 0
M  V30 4955 C 475.695 0.74757 1.93458 0
M  V30 4956 C 476.12 -0.687648 1.7508 0
M  V30 4957 O 475.478 -1.47499 1.05422 0
M  V30 4958 C 475.526 1.10604 3.43219 0
M  V30 4959 O 474.63 0.225671 4.11782 0
M  V30 4960 H 473.971 0.276047 0.603899 0
M  V30 4961 H 476.501 1.3777 1.51263 0
M  V30 4962 H 476.511 1.06366 3.93891 0
M  V30 4963 H 475.186 2.15165 3.55917 0
M  V30 4964 H 473.763 0.326795 3.71465 0
M  V30 4965 N 475.948 -1.35272 0.808662 0
M  V30 4966 C 477.359 -1.81179 0.450688 0
M  V30 4967 C 477.71 -1.67143 -1.02751 0
M  V30 4968 O 476.835 -1.20325 -1.79864 0
M  V30 4969 C 477.43 -3.28943 0.811275 0
M  V30 4970 C 475.989 -3.72985 0.505871 0
M  V30 4971 C 475.136 -2.57229 1.03578 0
M  V30 4972 H 478.087 -1.2322 1.00012 0
M  V30 4973 H 478.108 -3.80342 0.109588 0
M  V30 4974 H 477.62 -3.39127 1.88718 0
M  V30 4975 H 475.721 -3.68349 -0.561209 0
M  V30 4976 H 475.834 -4.67677 1.03995 0
M  V30 4977 H 474.198 -2.50548 0.458005 0
M  V30 4978 H 474.981 -2.7019 2.11784 0
M  V30 4979 N 477.426 -0.562348 -1.47226 0
M  V30 4980 C 478.651 -0.0432632 -2.07355 0
M  V30 4981 C 479.076 1.24332 -1.41149 0
M  V30 4982 O 478.434 1.74603 -0.488226 0
M  V30 4983 C 478.482 0.130288 -3.60365 0
M  V30 4984 O 477.586 1.19166 -3.94808 0
M  V30 4985 H 476.927 -0.0536334 -0.66183 0
M  V30 4986 H 479.457 -0.779495 -1.89169 0
M  V30 4987 H 479.467 0.342881 -4.06557 0
M  V30 4988 H 478.142 -0.809389 -4.07948 0
M  V30 4989 H 476.719 0.959153 -3.60354 0
M  V30 4990 N 478.904 1.54736 -0.299062 0
M  V30 4991 C 479.834 2.26409 0.571085 0
M  V30 4992 C 480.815 1.2629 1.13951 0
M  V30 4993 O 482 1.55059 1.16921 0
M  V30 4994 C 479.13 3.00338 1.74396 0
M  V30 4995 C 478.084 4.07588 1.30599 0
M  V30 4996 C 477.41 4.69222 2.56387 0
M  V30 4997 C 478.71 5.20455 0.438645 0
M  V30 4998 H 480.404 2.99388 -0.0266991 0
M  V30 4999 H 477.95 1.43993 -0.0142812 0
M  V30 5000 H 479.903 3.49198 2.35878 0
M  V30 5001 H 478.627 2.24934 2.36796 0
M  V30 5002 H 477.286 3.59575 0.71424 0
M  V30 5003 H 476.934 3.9046 3.17097 0
M  V30 5004 H 476.634 5.41653 2.27784 0
M  V30 5005 H 478.158 5.20844 3.18675 0
M  V30 5006 H 479.572 5.65221 0.959085 0
M  V30 5007 H 477.969 5.99594 0.246466 0
M  V30 5008 H 479.039 4.8192 -0.536738 0
M  V30 5009 N 480.382 0.0267497 1.57577 0
M  V30 5010 C 481.292 -0.971633 2.13533 0
M  V30 5011 C 482.308 -1.35868 1.08701 0
M  V30 5012 O 483.484 -1.44058 1.40746 0
M  V30 5013 C 480.549 -2.23622 2.64941 0
M  V30 5014 C 479.61 -1.90982 3.8448 0
M  V30 5015 C 478.843 -3.11411 4.33427 0
M  V30 5016 O 479.066 -4.23992 3.81558 0
M  V30 5017 O 478 -2.93848 5.25297 0
M  V30 5018 H 481.826 -0.525853 2.99113 0
M  V30 5019 H 479.411 -0.193712 1.48139 0
M  V30 5020 H 481.293 -2.97864 2.98086 0
M  V30 5021 H 479.968 -2.67386 1.82446 0
M  V30 5022 H 478.875 -1.14132 3.56265 0
M  V30 5023 H 480.208 -1.52036 4.6813 0
M  V30 5024 N 481.861 -1.55662 -0.24637 0
M  V30 5025 C 482.791 -1.93377 -1.30873 0
M  V30 5026 C 483.772 -0.798773 -1.50179 0
M  V30 5027 O 484.957 -1.0591 -1.62778 0
M  V30 5028 C 482.087 -2.22893 -2.66338 0
M  V30 5029 C 481.041 -3.38649 -2.61727 0
M  V30 5030 C 480.367 -3.53708 -4.00992 0
M  V30 5031 C 481.667 -4.74323 -2.18666 0
M  V30 5032 H 483.361 -2.82363 -0.995552 0
M  V30 5033 H 480.907 -1.35854 -0.477464 0
M  V30 5034 H 482.86 -2.47866 -3.40794 0
M  V30 5035 H 481.584 -1.30733 -2.99293 0
M  V30 5036 H 480.243 -3.13685 -1.89729 0
M  V30 5037 H 479.891 -2.58967 -4.31214 0
M  V30 5038 H 479.591 -4.31551 -3.98795 0
M  V30 5039 H 481.115 -3.81003 -4.77147 0
M  V30 5040 H 482.529 -4.98665 -2.82854 0
M  V30 5041 H 480.926 -5.55273 -2.27579 0
M  V30 5042 H 481.996 -4.71349 -1.13834 0
M  V30 5043 N 483.339 0.512053 -1.4905 0
M  V30 5044 C 484.755 0.84224 -1.35567 0
M  V30 5045 C 484.955 1.97878 -0.380319 0
M  V30 5046 O 484.011 2.51769 0.19201 0
M  V30 5047 C 485.324 1.19286 -2.76028 0
M  V30 5048 C 486.872 1.30171 -2.84648 0
M  V30 5049 C 487.347 1.68568 -4.25851 0
M  V30 5050 N 488.838 1.75638 -4.28609 0
M  V30 5051 C 489.573 2.06769 -5.34821 0
M  V30 5052 N 489.069 2.36201 -6.51292 0
M  V30 5053 N 490.862 2.07927 -5.22229 0
M  V30 5054 H 483.013 -0.237574 -2.11067 0
M  V30 5055 H 485.276 -0.0436747 -0.946993 0
M  V30 5056 H 484.982 0.431199 -3.49047 0
M  V30 5057 H 484.856 2.13889 -3.10695 0
M  V30 5058 H 487.243 2.05411 -2.11873 0
M  V30 5059 H 487.324 0.336457 -2.53578 0
M  V30 5060 H 486.968 0.938824 -4.99148 0
M  V30 5061 H 486.898 2.66174 -4.54377 0
M  V30 5062 H 489.389 1.55097 -3.44606 0
M  V30 5063 H 489.702 2.59112 -7.28066 0
M  V30 5064 H 488.047 2.33681 -6.54536 0
M  V30 5065 H 491.238 1.84403 -4.30248 0
M  V30 5066 H 491.411 2.31856 -6.05101 0
M  V30 5067 N 484.817 1.37938 0.762283 0
M  V30 5068 C 486.045 1.36883 1.55147 0
M  V30 5069 C 486.46 -0.0435348 1.8875 0
M  V30 5070 O 485.817 -1.00786 1.52146 0
M  V30 5071 C 485.868 2.21624 2.85596 0
M  V30 5072 O 485.589 3.57358 2.5343 0
M  V30 5073 C 487.09 2.28653 3.7978 0
M  V30 5074 H 484.31 0.468521 0.480343 0
M  V30 5075 H 486.854 1.81404 0.944079 0
M  V30 5076 H 485.009 1.80588 3.42734 0
M  V30 5077 H 485.423 4.01883 3.37032 0
M  V30 5078 H 486.897 2.9225 4.68288 0
M  V30 5079 H 487.374 1.29767 4.19592 0
M  V30 5080 H 487.98 2.70043 3.28568 0
M  V30 5081 N 486.295 -0.989507 1.22664 0
M  V30 5082 C 487.523 -1.76496 1.07967 0
M  V30 5083 C 487.938 -1.85148 -0.369543 0
M  V30 5084 O 487.295 -1.32408 -1.25596 0
M  V30 5085 C 487.346 -3.19642 1.68853 0
M  V30 5086 O 487.067 -3.11453 3.08105 0
M  V30 5087 C 488.568 -4.13621 1.59475 0
M  V30 5088 H 485.788 -0.55418 0.378319 0
M  V30 5089 H 488.332 -1.24378 1.62328 0
M  V30 5090 H 486.487 -3.68816 1.18547 0
M  V30 5091 H 486.901 -4.01499 3.37489 0
M  V30 5092 H 488.375 -5.11801 2.06795 0
M  V30 5093 H 488.852 -4.35718 0.55191 0
M  V30 5094 H 489.458 -3.70346 2.09103 0
M  V30 5095 N 487.773 -1.03688 -1.18687 0
M  V30 5096 C 488.683 -0.634908 -2.25845 0
M  V30 5097 C 489.699 0.337065 -1.70704 0
M  V30 5098 O 490.875 0.192943 -2.00474 0
M  V30 5099 C 487.94 -0.000180054 -3.467 0
M  V30 5100 C 487.001 -1.02067 -4.1699 0
M  V30 5101 C 486.234 -0.41614 -5.32075 0
M  V30 5102 O 486.457 0.778712 -5.65059 0
M  V30 5103 O 485.391 -1.14296 -5.90948 0
M  V30 5104 H 489.217 -1.52757 -2.62486 0
M  V30 5105 H 486.802 -0.807533 -1.25695 0
M  V30 5106 H 488.684 0.353342 -4.19916 0
M  V30 5107 H 487.359 0.866367 -3.11891 0
M  V30 5108 H 486.266 -1.42592 -3.45859 0
M  V30 5109 H 487.599 -1.85786 -4.5579 0
M  V30 5110 N 489.251 1.34841 -0.815825 0
M  V30 5111 C 490.667 1.51543 -0.500697 0
M  V30 5112 C 490.867 1.76261 0.976444 0
M  V30 5113 O 489.923 1.8094 1.76117 0
M  V30 5114 C 491.236 2.68487 -1.35407 0
M  V30 5115 C 492.784 2.82368 -1.35046 0
M  V30 5116 C 493.259 4.02347 -2.18816 0
M  V30 5117 N 494.75 4.09542 -2.16402 0
M  V30 5118 C 495.485 5.01517 -2.77971 0
M  V30 5119 N 494.981 5.98763 -3.48503 0
M  V30 5120 N 496.774 4.94334 -2.67563 0
M  V30 5121 H 488.925 1.17055 -1.77234 0
M  V30 5122 H 491.188 0.573481 -0.754866 0
M  V30 5123 H 490.894 2.56829 -2.40274 0
M  V30 5124 H 490.768 3.63321 -1.01377 0
M  V30 5125 H 493.155 2.93471 -0.309604 0
M  V30 5126 H 493.236 1.88363 -1.73069 0
M  V30 5127 H 492.88 3.92004 -3.22948 0
M  V30 5128 H 492.81 4.95551 -1.78148 0
M  V30 5129 H 495.301 3.39932 -1.65091 0
M  V30 5130 H 495.614 6.6556 -3.92747 0
M  V30 5131 H 493.959 5.98909 -3.52609 0
M  V30 5132 H 497.15 4.1732 -2.12041 0
M  V30 5133 H 497.323 5.6582 -3.15834 0
M  V30 5134 N 490.729 0.570148 1.46925 0
M  V30 5135 C 491.692 -0.159933 2.28641 0
M  V30 5136 C 492.692 -0.830638 1.37685 0
M  V30 5137 O 493.882 -0.684516 1.60187 0
M  V30 5138 C 491.014 -1.2354 3.17727 0
M  V30 5139 H 492.207 0.558035 2.94662 0
M  V30 5140 H 489.76 0.327603 1.52828 0
M  V30 5141 H 490.495 -1.98535 2.56426 0
M  V30 5142 H 490.28 -0.759125 3.84681 0
M  V30 5143 H 491.77 -1.74782 3.79264 0
M  V30 5144 N 492.207 -1.54576 0.307264 0
M  V30 5145 C 493.618 -1.8579 -0.184121 0
M  V30 5146 C 493.969 -1.22914 -1.52927 0
M  V30 5147 O 493.094 -0.529126 -2.09831 0
M  V30 5148 C 493.689 -3.37081 -0.340862 0
M  V30 5149 C 492.248 -3.68304 -0.776465 0
M  V30 5150 C 491.395 -2.77076 0.111503 0
M  V30 5151 H 494.346 -1.49656 0.528078 0
M  V30 5152 H 494.367 -3.61922 -1.17443 0
M  V30 5153 H 493.879 -3.82815 0.638309 0
M  V30 5154 H 491.98 -3.28092 -1.76596 0
M  V30 5155 H 492.093 -4.75434 -0.591512 0
M  V30 5156 H 490.457 -2.51374 -0.410256 0
M  V30 5157 H 491.24 -3.25632 1.08714 0
M  V30 5158 N 493.685 -0.035106 -1.57561 0
M  V30 5159 C 494.913 0.652258 -1.9635 0
M  V30 5160 C 495.328 1.65317 -0.911897 0
M  V30 5161 O 494.685 1.82194 0.105657 0
M  V30 5162 C 494.736 1.35337 -3.35211 0
M  V30 5163 O 494.457 0.392548 -4.36338 0
M  V30 5164 C 495.958 2.13199 -3.88666 0
M  V30 5165 H 493.178 0.179444 -0.646561 0
M  V30 5166 H 495.722 -0.0966459 -2.04271 0
M  V30 5167 H 493.877 2.05362 -3.28489 0
M  V30 5168 H 494.291 0.891097 -5.16875 0
M  V30 5169 H 495.765 2.577 -4.88154 0
M  V30 5170 H 496.242 2.97353 -3.23231 0
M  V30 5171 H 496.848 1.48118 -3.98674 0
M  V30 5172 N 495.163 1.55791 0.238111 0
M  V30 5173 C 496.409 1.78297 0.966337 0
M  V30 5174 C 496.742 0.601903 1.84637 0
M  V30 5175 O 496.017 -0.399499 1.90353 0
M  V30 5176 C 496.3 3.10758 1.81939 0
M  V30 5177 C 496.153 4.39283 0.966958 0
M  V30 5178 C 497.472 3.39519 2.80027 0
M  V30 5179 H 494.591 0.648654 0.349882 0
M  V30 5180 H 497.233 1.88525 0.236253 0
M  V30 5181 H 495.383 3.02168 2.44185 0
M  V30 5182 H 497.055 4.59873 0.362514 0
M  V30 5183 H 495.298 4.32948 0.271669 0
M  V30 5184 H 495.969 5.28368 1.59784 0
M  V30 5185 H 498.445 3.48128 2.27917 0
M  V30 5186 H 497.321 4.33402 3.36829 0
M  V30 5187 H 497.582 2.60864 3.56934 0
M  V30 5188 N 496.642 -0.504142 1.49319 0
M  V30 5189 C 498.058 -0.835039 1.36012 0
M  V30 5190 C 498.258 -1.97674 0.390808 0
M  V30 5191 O 497.314 -2.51867 -0.178655 0
M  V30 5192 C 498.627 -1.17821 2.76656 0
M  V30 5193 C 500.175 -1.2866 2.85334 0
M  V30 5194 C 500.65 -1.66307 4.26739 0
M  V30 5195 N 502.141 -1.73362 4.29534 0
M  V30 5196 C 502.876 -2.0393 5.35911 0
M  V30 5197 N 502.372 -2.32744 6.52535 0
M  V30 5198 N 504.165 -2.05155 5.23324 0
M  V30 5199 H 496.316 0.248764 2.10938 0
M  V30 5200 H 498.579 0.0486962 0.946748 0
M  V30 5201 H 498.285 -0.412682 3.4927 0
M  V30 5202 H 498.159 -2.12239 3.11825 0
M  V30 5203 H 500.546 -2.04285 2.1296 0
M  V30 5204 H 500.627 -0.323004 2.53752 0
M  V30 5205 H 500.271 -0.91234 4.99639 0
M  V30 5206 H 500.201 -2.63761 4.55782 0
M  V30 5207 H 502.692 -1.53268 3.45424 0
M  V30 5208 H 503.005 -2.55248 7.2943 0
M  V30 5209 H 501.35 -2.30207 6.55767 0
M  V30 5210 H 504.541 -1.82119 4.3122 0
M  V30 5211 H 504.714 -2.28644 6.06322 0
M  V30 5212 N 498.12 -1.38341 -0.754957 0
M  V30 5213 C 499.05 -1.38176 -1.88227 0
M  V30 5214 C 500.031 -0.247873 -1.68284 0
M  V30 5215 O 501.216 -0.45075 -1.88896 0
M  V30 5216 C 498.346 -1.20471 -3.25736 0
M  V30 5217 C 497.3 -2.3105 -3.60278 0
M  V30 5218 C 496.626 -1.98452 -4.96509 0
M  V30 5219 C 497.926 -3.73305 -3.65295 0
M  V30 5220 H 499.62 -2.32512 -1.88622 0
M  V30 5221 H 497.166 -1.1192 -0.906082 0
M  V30 5222 H 499.119 -1.18982 -4.04254 0
M  V30 5223 H 497.843 -0.225965 -3.25817 0
M  V30 5224 H 496.502 -2.31723 -2.84078 0
M  V30 5225 H 496.15 -0.990641 -4.93148 0
M  V30 5226 H 495.85 -2.7251 -5.20588 0
M  V30 5227 H 497.374 -1.98578 -5.77407 0
M  V30 5228 H 498.788 -3.7467 -4.3393 0
M  V30 5229 H 497.185 -4.46557 -4.00883 0
M  V30 5230 H 498.255 -4.05719 -2.65556 0
M  V30 5231 N 499.598 0.982988 -1.23187 0
M  V30 5232 C 500.875 1.69814 -0.970707 0
M  V30 5233 C 501.255 2.04811 0.511424 0
M  V30 5234 O 500.603 1.73924 1.48198 0
M  V30 5235 C 500.813 2.94143 -1.87831 0
M  V30 5236 C 502.161 3.66712 -2.14026 0
M  V30 5237 O 503.185 3.04171 -1.8536 0
M  V30 5238 O 502.044 4.79258 -2.62629 0
M  V30 5239 H 499.138 0.741659 -0.365884 0
M  V30 5240 H 501.684 1.03844 -1.34218 0
M  V30 5241 H 500.456 2.64858 -2.88038 0
M  V30 5242 H 500.079 3.6785 -1.50905 0
M  V30 5243 N 501.076 1.04316 1.18135 0
M  V30 5244 C 502.304 0.768117 1.92113 0
M  V30 5245 C 502.719 -0.675057 1.76319 0
M  V30 5246 O 502.076 -1.46038 1.09449 0
M  V30 5247 C 502.127 1.12808 3.43448 0
M  V30 5248 O 501.848 2.5146 3.58747 0
M  V30 5249 C 503.349 0.8779 4.3452 0
M  V30 5250 H 500.569 0.279937 0.609817 0
M  V30 5251 H 503.113 1.39149 1.49859 0
M  V30 5252 H 501.268 0.549623 3.83481 0
M  V30 5253 H 501.682 2.65313 4.52448 0
M  V30 5254 H 503.156 1.17959 5.39249 0
M  V30 5255 H 503.633 -0.187239 4.38801 0
M  V30 5256 H 504.239 1.43977 4.00188 0
M  V30 5257 N 502.554 -1.34406 0.822964 0
M  V30 5258 C 503.8 -1.98999 0.420847 0
M  V30 5259 C 504.155 -1.64067 -1.00498 0
M  V30 5260 O 503.448 -0.902071 -1.69036 0
M  V30 5261 C 503.642 -3.52981 0.560268 0
M  V30 5262 C 503.471 -4.02873 1.99809 0
M  V30 5263 C 502.241 -4.31463 2.62998 0
M  V30 5264 C 504.439 -4.20241 2.96483 0
M  V30 5265 N 502.421 -4.6739 3.9802 0
M  V30 5266 C 503.792 -4.59348 4.16413 0
M  V30 5267 C 505.847 -4.02489 2.93098 0
M  V30 5268 C 504.55 -4.82559 5.33413 0
M  V30 5269 C 506.576 -4.26866 4.09315 0
M  V30 5270 C 505.938 -4.6626 5.27997 0
M  V30 5271 H 502.037 -0.755432 0.202104 0
M  V30 5272 H 504.621 -1.62815 1.06767 0
M  V30 5273 H 502.792 -3.88359 -0.0566596 0
M  V30 5274 H 504.524 -4.04487 0.131146 0
M  V30 5275 H 501.279 -4.22373 2.14238 0
M  V30 5276 H 501.703 -4.89588 4.67582 0
M  V30 5277 H 506.345 -3.71161 2.02483 0
M  V30 5278 H 504.063 -5.12754 6.24587 0
M  V30 5279 H 507.649 -4.14667 4.08096 0
M  V30 5280 H 506.529 -4.84752 6.16429 0
M  V30 5281 N 504.032 -0.577932 -1.46621 0
M  V30 5282 C 505.278 -0.0700937 -2.03279 0
M  V30 5283 C 505.633 1.27376 -1.44198 0
M  V30 5284 O 504.926 1.82097 -0.595911 0
M  V30 5285 C 505.12 0.0590832 -3.57351 0
M  V30 5286 C 504.949 -1.2707 -4.31374 0
M  V30 5287 C 503.719 -1.84357 -4.70469 0
M  V30 5288 C 505.917 -2.19278 -4.65211 0
M  V30 5289 N 503.899 -3.11124 -5.29221 0
M  V30 5290 C 505.27 -3.30631 -5.24484 0
M  V30 5291 C 507.325 -2.19018 -4.47142 0
M  V30 5292 C 506.028 -4.41849 -5.67593 0
M  V30 5293 C 508.054 -3.29262 -4.91264 0
M  V30 5294 C 507.416 -4.39335 -5.50604 0
M  V30 5295 H 503.515 -0.0683127 -0.779011 0
M  V30 5296 H 506.099 -0.76978 -1.78836 0
M  V30 5297 H 504.27 0.727929 -3.81518 0
M  V30 5298 H 506.002 0.57087 -4.00653 0
M  V30 5299 H 502.757 -1.37906 -4.53077 0
M  V30 5300 H 503.181 -3.75794 -5.63123 0
M  V30 5301 H 507.823 -1.35191 -4.00604 0
M  V30 5302 H 505.541 -5.26421 -6.13112 0
M  V30 5303 H 509.127 -3.30172 -4.79038 0
M  V30 5304 H 508.007 -5.23233 -5.84121 0
M  V30 5305 N 505.51 1.54411 -0.315457 0
M  V30 5306 C 506.926 1.59556 0.037464 0
M  V30 5307 C 507.126 1.33217 1.5118 0
M  V30 5308 O 506.182 1.11264 2.26664 0
M  V30 5309 C 507.495 2.98372 -0.373477 0
M  V30 5310 C 509.043 3.11324 -0.323452 0
M  V30 5311 C 509.518 4.52472 -0.709433 0
M  V30 5312 N 511.009 4.58437 -0.662524 0
M  V30 5313 C 511.744 5.65751 -0.933474 0
M  V30 5314 N 511.24 6.81039 -1.27114 0
M  V30 5315 N 513.033 5.55489 -0.859573 0
M  V30 5316 H 505.184 1.6979 -1.27614 0
M  V30 5317 H 507.447 0.793732 -0.518356 0
M  V30 5318 H 507.153 3.22618 -1.40037 0
M  V30 5319 H 507.027 3.76264 0.265615 0
M  V30 5320 H 509.414 2.86818 0.694223 0
M  V30 5321 H 509.495 2.35555 -0.997367 0
M  V30 5322 H 509.139 4.7771 -1.72498 0
M  V30 5323 H 509.069 5.26598 -0.0132923 0
M  V30 5324 H 511.56 3.75636 -0.413065 0
M  V30 5325 H 511.873 7.58816 -1.46348 0
M  V30 5326 H 510.218 6.82555 -1.30932 0
M  V30 5327 H 513.409 4.64299 -0.595324 0
M  V30 5328 H 513.582 6.39036 -1.0741 0
M  V30 5329 N 506.988 0.0434614 1.5754 0
M  V30 5330 C 507.92 -0.962586 2.08007 0
M  V30 5331 C 508.933 -1.27972 1.00634 0
M  V30 5332 O 510.122 -1.24186 1.28219 0
M  V30 5333 C 507.222 -2.28621 2.50171 0
M  V30 5334 C 506.395 -2.15214 3.80791 0
M  V30 5335 C 505.454 -3.30633 4.09351 0
M  V30 5336 O 504.48 -3.0688 4.79388 0
M  V30 5337 N 505.682 -4.54873 3.60654 0
M  V30 5338 H 508.447 -0.531891 2.94942 0
M  V30 5339 H 506.008 -0.142965 1.61268 0
M  V30 5340 H 508 -3.04689 2.66359 0
M  V30 5341 H 506.57 -2.63283 1.68525 0
M  V30 5342 H 505.79 -1.23785 3.74261 0
M  V30 5343 H 507.078 -2.03475 4.66343 0
M  V30 5344 H 506.476 -4.77063 3.04019 0
M  V30 5345 H 505.033 -5.2806 3.82094 0
M  V30 5346 N 508.466 -1.55915 -0.229846 0
M  V30 5347 C 509.882 -1.48721 -0.579166 0
M  V30 5348 C 510.082 -0.736976 -1.87539 0
M  V30 5349 O 509.138 -0.273258 -2.51017 0
M  V30 5350 C 510.451 -2.9323 -0.666082 0
M  V30 5351 C 511.999 -3.03701 -0.757267 0
M  V30 5352 C 512.474 -4.49552 -0.8756 0
M  V30 5353 N 513.965 -4.53561 -0.940035 0
M  V30 5354 C 514.7 -5.63683 -1.05116 0
M  V30 5355 N 514.196 -6.83576 -1.12675 0
M  V30 5356 N 515.989 -5.51516 -1.08565 0
M  V30 5357 H 508.14 -2.03123 0.620857 0
M  V30 5358 H 510.403 -0.922898 0.21671 0
M  V30 5359 H 510.109 -3.51032 0.21664 0
M  V30 5360 H 509.983 -3.44668 -1.53243 0
M  V30 5361 H 512.37 -2.45969 -1.63043 0
M  V30 5362 H 512.451 -2.55446 0.134583 0
M  V30 5363 H 512.095 -5.079 -0.00692351 0
M  V30 5364 H 512.025 -4.95506 -1.78274 0
M  V30 5365 H 514.516 -3.67215 -0.892269 0
M  V30 5366 H 514.829 -7.63251 -1.21109 0
M  V30 5367 H 513.174 -6.86303 -1.09603 0
M  V30 5368 H 516.365 -4.5678 -1.02319 0
M  V30 5369 H 516.538 -6.37372 -1.1688 0
M  V30 5370 N 509.944 0.496216 -1.49584 0
M  V30 5371 C 510.876 1.61404 -1.62731 0
M  V30 5372 C 511.889 1.54613 -0.50978 0
M  V30 5373 O 513.078 1.60458 -0.782017 0
M  V30 5374 C 510.178 3.00212 -1.57245 0
M  V30 5375 C 509.351 3.32138 -2.84611 0
M  V30 5376 C 508.41 4.5038 -2.72112 0
M  V30 5377 O 507.436 4.51926 -3.46051 0
M  V30 5378 N 508.638 5.50575 -1.83977 0
M  V30 5379 H 511.403 1.50552 -2.59141 0
M  V30 5380 H 508.964 0.684182 -1.46733 0
M  V30 5381 H 510.956 3.77241 -1.4653 0
M  V30 5382 H 509.526 3.04964 -0.686729 0
M  V30 5383 H 508.746 2.4396 -3.09641 0
M  V30 5384 H 510.034 3.50268 -3.69039 0
M  V30 5385 H 509.432 5.52128 -1.23171 0
M  V30 5386 H 507.989 6.26687 -1.79182 0
M  V30 5387 N 511.423 1.38739 0.74761 0
M  V30 5388 C 512.353 1.39173 1.87492 0
M  V30 5389 C 513.334 0.256794 1.6815 0
M  V30 5390 O 514.519 0.460762 1.88655 0
M  V30 5391 C 511.649 1.22197 3.25093 0
M  V30 5392 C 510.603 2.32957 3.59047 0
M  V30 5393 C 509.929 2.01082 4.95449 0
M  V30 5394 C 511.229 3.75237 3.6331 0
M  V30 5395 H 512.923 2.3351 1.87386 0
M  V30 5396 H 510.469 1.12399 0.900134 0
M  V30 5397 H 512.422 1.21124 4.03617 0
M  V30 5398 H 511.146 0.243241 3.25693 0
M  V30 5399 H 509.805 2.33226 2.82845 0
M  V30 5400 H 509.453 1.01678 4.92616 0
M  V30 5401 H 509.153 2.75267 5.19136 0
M  V30 5402 H 510.677 2.01638 5.76346 0
M  V30 5403 H 512.091 3.76966 4.31937 0
M  V30 5404 H 510.488 4.48677 3.98509 0
M  V30 5405 H 511.558 4.07122 2.634 0
M  V30 5406 N 512.901 -0.976442 1.23707 0
M  V30 5407 C 514.178 -1.69296 0.979699 0
M  V30 5408 C 514.558 -2.0508 -0.500555 0
M  V30 5409 O 513.906 -1.74708 -1.47273 0
M  V30 5410 C 514.116 -2.93143 1.89389 0
M  V30 5411 C 515.464 -3.65572 2.15968 0
M  V30 5412 O 516.488 -3.03184 1.86971 0
M  V30 5413 O 515.347 -4.77859 2.65167 0
M  V30 5414 H 512.441 -0.739708 0.369812 0
M  V30 5415 H 514.987 -1.03131 1.34767 0
M  V30 5416 H 513.759 -2.63327 2.89439 0
M  V30 5417 H 513.382 -3.67044 1.52854 0
M  V30 5418 N 514.379 -1.04941 -1.1758 0
M  V30 5419 C 515.79 -0.784501 -1.69418 0
M  V30 5420 C 516.141 0.693625 -1.8353 0
M  V30 5421 O 515.266 1.53925 -1.52106 0
M  V30 5422 C 515.861 -1.41746 -3.07723 0
M  V30 5423 C 514.42 -1.20066 -3.56737 0
M  V30 5424 C 513.567 -1.5026 -2.33061 0
M  V30 5425 H 516.518 -1.21469 -1.02133 0
M  V30 5426 H 516.539 -0.825381 -3.7144 0
M  V30 5427 H 516.051 -2.49325 -2.9742 0
M  V30 5428 H 514.152 -0.144006 -3.72322 0
M  V30 5429 H 514.265 -1.90384 -4.39648 0
M  V30 5430 H 512.629 -0.922598 -2.37403 0
M  V30 5431 H 513.412 -2.58967 -2.25368 0
M  V30 5432 N 515.857 1.33968 -0.830081 0
M  V30 5433 C 517.273 1.51003 -0.516742 0
M  V30 5434 C 517.473 1.77286 0.957694 0
M  V30 5435 O 516.529 1.82797 1.74188 0
M  V30 5436 C 517.842 2.67036 -1.38247 0
M  V30 5437 C 519.39 2.80919 -1.38034 0
M  V30 5438 C 519.865 4.00004 -2.23071 0
M  V30 5439 N 521.356 4.07224 -2.20733 0
M  V30 5440 C 522.091 4.98541 -2.83275 0
M  V30 5441 N 521.587 5.95033 -3.54835 0
M  V30 5442 N 523.38 4.91469 -2.72791 0
M  V30 5443 H 515.531 1.15168 -1.78466 0
M  V30 5444 H 517.794 0.565443 -0.760906 0
M  V30 5445 H 517.5 2.54266 -2.42985 0
M  V30 5446 H 517.374 3.62226 -1.05225 0
M  V30 5447 H 519.761 2.93127 -0.340713 0
M  V30 5448 H 519.842 1.86517 -1.75057 0
M  V30 5449 H 519.486 3.88557 -3.27087 0
M  V30 5450 H 519.416 4.93634 -1.83394 0
M  V30 5451 H 521.907 3.38162 -1.68687 0
M  V30 5452 H 522.22 6.61357 -3.99784 0
M  V30 5453 H 520.565 5.95135 -3.58942 0
M  V30 5454 H 523.756 4.15048 -2.16456 0
M  V30 5455 H 523.929 5.62439 -3.21818 0
M  V30 5456 N 517.335 0.585699 1.46312 0
M  V30 5457 C 518.563 0.0781299 2.06752 0
M  V30 5458 C 518.978 -1.22812 1.43396 0
M  V30 5459 O 518.335 -1.74318 0.540314 0
M  V30 5460 C 518.386 -0.0911927 3.61385 0
M  V30 5461 O 518.107 1.16336 4.22371 0
M  V30 5462 C 519.608 -0.632765 4.38761 0
M  V30 5463 H 516.828 0.0588188 0.668417 0
M  V30 5464 H 519.372 0.807218 1.87894 0
M  V30 5465 H 517.527 -0.770514 3.7966 0
M  V30 5466 H 517.941 0.979082 5.15281 0
M  V30 5467 H 519.415 -0.70041 5.47538 0
M  V30 5468 H 519.892 -1.65039 4.07012 0
M  V30 5469 H 520.498 0.0117856 4.25298 0
M  V30 5470 N 518.813 -1.54241 0.323641 0
M  V30 5471 C 520.059 -2.00867 -0.279323 0
M  V30 5472 C 520.392 -1.21146 -1.5178 0
M  V30 5473 O 519.667 -0.29378 -1.92269 0
M  V30 5474 C 519.95 -3.54837 -0.613387 0
M  V30 5475 C 519.803 -4.45284 0.635803 0
M  V30 5476 C 521.122 -4.16186 -1.43099 0
M  V30 5477 H 518.241 -0.730177 -0.100049 0
M  V30 5478 H 520.883 -1.84829 0.440235 0
M  V30 5479 H 519.033 -3.68634 -1.22641 0
M  V30 5480 H 520.705 -4.43357 1.27406 0
M  V30 5481 H 518.948 -4.14956 1.26466 0
M  V30 5482 H 519.619 -5.5084 0.357597 0
M  V30 5483 H 522.095 -4.05964 -0.912814 0
M  V30 5484 H 520.971 -5.24031 -1.6335 0
M  V30 5485 H 521.232 -3.69516 -2.42715 0
M  V30 5486 N 520.291 -0.0518155 -1.57515 0
M  V30 5487 C 521.223 0.951542 -2.08515 0
M  V30 5488 C 522.236 1.27436 -1.01311 0
M  V30 5489 O 523.425 1.23504 -1.28876 0
M  V30 5490 C 520.525 2.27291 -2.5138 0
M  V30 5491 C 519.698 2.13191 -3.81927 0
M  V30 5492 C 518.757 3.28458 -4.11098 0
M  V30 5493 O 517.783 3.04334 -4.81009 0
M  V30 5494 N 518.985 4.52954 -3.63061 0
M  V30 5495 H 521.75 0.516242 -2.9522 0
M  V30 5496 H 519.311 0.13441 -1.61341 0
M  V30 5497 H 521.303 3.03272 -2.67971 0
M  V30 5498 H 519.873 2.62386 -1.69919 0
M  V30 5499 H 519.093 1.21798 -3.74912 0
M  V30 5500 H 520.381 2.00999 -4.67415 0
M  V30 5501 H 519.779 4.75444 -3.06545 0
M  V30 5502 H 518.336 5.26026 -3.84889 0
M  V30 5503 N 521.769 1.56035 0.221574 0
M  V30 5504 C 522.699 1.95434 1.2778 0
M  V30 5505 C 523.68 0.822564 1.48889 0
M  V30 5506 O 524.865 1.08486 1.61072 0
M  V30 5507 C 521.995 2.27102 2.62759 0
M  V30 5508 C 520.949 3.4277 2.56306 0
M  V30 5509 C 520.275 3.60043 3.95314 0
M  V30 5510 C 521.575 4.77742 2.11093 0
M  V30 5511 H 523.269 2.83912 0.950504 0
M  V30 5512 H 520.815 1.36596 0.455791 0
M  V30 5513 H 522.768 2.53256 3.36807 0
M  V30 5514 H 521.492 1.35478 2.97176 0
M  V30 5515 H 520.151 3.16664 1.84715 0
M  V30 5516 H 519.799 2.65794 4.27039 0
M  V30 5517 H 519.499 4.37841 3.91879 0
M  V30 5518 H 521.023 3.88545 4.71025 0
M  V30 5519 H 522.437 5.03102 2.74885 0
M  V30 5520 H 520.834 5.58823 2.18716 0
M  V30 5521 H 521.904 4.731 1.06321 0
M  V30 5522 N 523.247 -0.488276 1.49845 0
M  V30 5523 C 524.494 -1.24157 1.59973 0
M  V30 5524 C 524.822 -1.92293 0.292182 0
M  V30 5525 O 524.077 -1.81942 -0.720813 0
M  V30 5526 C 524.376 -2.32152 2.71735 0
M  V30 5527 C 524.042 -1.81387 4.12807 0
M  V30 5528 C 522.704 -1.67262 4.51195 0
M  V30 5529 C 525.056 -1.43537 5.01045 0
M  V30 5530 C 522.384 -1.13685 5.7558 0
M  V30 5531 C 524.736 -0.914081 6.25961 0
M  V30 5532 C 523.4 -0.759327 6.63167 0
M  V30 5533 H 522.67 -0.454322 0.585383 0
M  V30 5534 H 525.317 -0.540261 1.83721 0
M  V30 5535 H 523.622 -3.08122 2.42008 0
M  V30 5536 H 525.319 -2.90164 2.76778 0
M  V30 5537 H 521.909 -1.93344 3.82513 0
M  V30 5538 H 526.093 -1.53292 4.72033 0
M  V30 5539 H 521.349 -1.00426 6.03096 0
M  V30 5540 H 525.523 -0.612066 6.93705 0
M  V30 5541 H 523.15 -0.342002 7.5943 0
M  V30 5542 N 524.725 -1.39134 -0.740242 0
M  V30 5543 C 525.971 -1.37278 -1.50088 0
M  V30 5544 C 526.326 0.0329967 -1.92372 0
M  V30 5545 O 525.619 0.998447 -1.63529 0
M  V30 5546 C 525.813 -2.27457 -2.75678 0
M  V30 5547 C 525.642 -3.76662 -2.45674 0
M  V30 5548 C 524.412 -4.45617 -2.38229 0
M  V30 5549 C 526.61 -4.6877 -2.11563 0
M  V30 5550 N 524.592 -5.80187 -2.00641 0
M  V30 5551 C 525.963 -5.91951 -1.84376 0
M  V30 5552 C 528.018 -4.56843 -1.97987 0
M  V30 5553 C 526.721 -7.04538 -1.4498 0
M  V30 5554 C 528.747 -5.69347 -1.59994 0
M  V30 5555 C 528.109 -6.91597 -1.33687 0
M  V30 5556 H 524.208 -0.557611 -0.548265 0
M  V30 5557 H 526.792 -1.74638 -0.860784 0
M  V30 5558 H 524.963 -1.92263 -3.37475 0
M  V30 5559 H 526.695 -2.16631 -3.41838 0
M  V30 5560 H 523.45 -3.98993 -2.5515 0
M  V30 5561 H 523.874 -6.51387 -1.84454 0
M  V30 5562 H 528.516 -3.62868 -2.16995 0
M  V30 5563 H 526.234 -7.98419 -1.24712 0
M  V30 5564 H 529.82 -5.62104 -1.50102 0
M  V30 5565 H 528.7 -7.77176 -1.04728 0
M  V30 5566 N 526.204 0.969867 -1.24223 0
M  V30 5567 C 527.151 2.06407 -1.0327 0
M  V30 5568 C 528.121 1.66014 0.0533 0
M  V30 5569 O 529.306 1.90533 -0.100896 0
M  V30 5570 C 526.446 3.3909 -0.641262 0
M  V30 5571 C 525.559 3.9269 -1.80051 0
M  V30 5572 C 524.694 5.13631 -1.35486 0
M  V30 5573 C 523.733 5.59423 -2.48419 0
M  V30 5574 N 522.87 6.71586 -2.04737 0
M  V30 5575 H 527.71 2.23663 -1.96923 0
M  V30 5576 H 525.247 1.09624 -0.980862 0
M  V30 5577 H 527.205 4.15323 -0.395351 0
M  V30 5578 H 525.835 3.21765 0.258269 0
M  V30 5579 H 524.887 3.13116 -2.16014 0
M  V30 5580 H 526.199 4.22636 -2.64916 0
M  V30 5581 H 525.353 5.97231 -1.0677 0
M  V30 5582 H 524.092 4.85364 -0.476722 0
M  V30 5583 H 523.097 4.74398 -2.77897 0
M  V30 5584 H 524.322 5.89705 -3.36786 0
M  V30 5585 H 522.268 6.45058 -1.19318 0
M  V30 5586 H 522.185 7.0097 -2.83156 0
M  V30 5587 H 523.453 7.58633 -1.79154 0
M  V30 5588 N 527.682 1.05563 1.17022 0
M  V30 5589 C 529.093 0.793475 1.69 0
M  V30 5590 C 529.444 -0.683882 1.83895 0
M  V30 5591 O 528.569 -1.53116 1.5292 0
M  V30 5592 C 529.164 1.43376 3.06967 0
M  V30 5593 C 527.723 1.21956 3.56095 0
M  V30 5594 C 526.87 1.51494 2.3226 0
M  V30 5595 H 529.821 1.22008 1.01487 0
M  V30 5596 H 529.842 0.845068 3.70997 0
M  V30 5597 H 529.354 2.50899 2.96093 0
M  V30 5598 H 527.455 0.163749 3.7224 0
M  V30 5599 H 527.568 1.92713 4.38633 0
M  V30 5600 H 525.932 0.935175 2.3691 0
M  V30 5601 H 526.715 2.60159 2.23992 0
M  V30 5602 N 529.16 -1.33526 0.837174 0
M  V30 5603 C 530.406 -1.9813 0.432704 0
M  V30 5604 C 530.739 -1.66168 -1.00508 0
M  V30 5605 O 530.014 -0.94069 -1.70239 0
M  V30 5606 C 530.297 -3.54151 0.651834 0
M  V30 5607 C 530.15 -3.95806 2.13676 0
M  V30 5608 C 531.469 -4.39993 0.0968937 0
M  V30 5609 H 528.588 -0.719713 0.15869 0
M  V30 5610 H 531.23 -1.58193 1.05237 0
M  V30 5611 H 529.38 -3.88301 0.124369 0
M  V30 5612 H 531.052 -3.71921 2.72896 0
M  V30 5613 H 529.295 -3.45599 2.62191 0
M  V30 5614 H 529.966 -5.0447 2.24084 0
M  V30 5615 H 532.442 -4.12479 0.547733 0
M  V30 5616 H 531.318 -5.48186 0.279917 0
M  V30 5617 H 531.579 -4.3066 -0.9992 0
M  V30 5618 N 530.638 -0.59345 -1.46 0
M  V30 5619 C 532.049 -0.169801 -1.85926 0
M  V30 5620 C 532.4 1.26984 -1.49565 0
M  V30 5621 O 531.525 1.96076 -0.915602 0
M  V30 5622 C 532.12 -0.301385 -3.37457 0
M  V30 5623 C 530.679 0.0674684 -3.7634 0
M  V30 5624 C 529.826 -0.632383 -2.69993 0
M  V30 5625 H 532.777 -0.801014 -1.37002 0
M  V30 5626 H 532.798 0.470331 -3.77582 0
M  V30 5627 H 532.31 -1.34927 -3.63891 0
M  V30 5628 H 530.411 1.11507 -3.55523 0
M  V30 5629 H 530.524 -0.316332 -4.78055 0
M  V30 5630 H 528.888 -0.0714961 -2.546 0
M  V30 5631 H 529.671 -1.68212 -2.99265 0
M  V30 5632 N 532.116 1.54067 -0.331816 0
M  V30 5633 C 533.046 2.27569 0.522932 0
M  V30 5634 C 534.027 1.28679 1.11247 0
M  V30 5635 O 535.212 1.57504 1.13605 0
M  V30 5636 C 532.342 3.0397 1.67987 0
M  V30 5637 C 531.296 4.10267 1.21924 0
M  V30 5638 C 530.622 4.74555 2.46377 0
M  V30 5639 C 531.922 5.21268 0.32815 0
M  V30 5640 H 533.616 2.99264 -0.0901977 0
M  V30 5641 H 531.162 1.4393 -0.044821 0
M  V30 5642 H 533.115 3.54123 2.28418 0
M  V30 5643 H 531.839 2.29906 2.31971 0
M  V30 5644 H 530.498 3.61009 0.637809 0
M  V30 5645 H 530.146 3.97098 3.08743 0
M  V30 5646 H 529.846 5.46363 2.16243 0
M  V30 5647 H 531.37 5.27487 3.07555 0
M  V30 5648 H 532.784 5.67128 0.838978 0
M  V30 5649 H 531.181 5.99982 0.119228 0
M  V30 5650 H 532.251 4.80673 -0.638839 0
M  V30 5651 N 533.594 0.0601682 1.57485 0
M  V30 5652 C 534.504 -0.926121 2.15546 0
M  V30 5653 C 535.52 -1.33532 1.11558 0
M  V30 5654 O 536.696 -1.4104 1.4377 0
M  V30 5655 C 533.761 -2.17952 2.69625 0
M  V30 5656 C 532.822 -1.82783 3.88444 0
M  V30 5657 C 532.055 -3.02148 4.39935 0
M  V30 5658 O 532.278 -4.15803 3.90466 0
M  V30 5659 O 531.212 -2.82639 5.31412 0
M  V30 5660 H 535.038 -0.462289 3.00161 0
M  V30 5661 H 532.623 -0.162246 1.48516 0
M  V30 5662 H 534.505 -2.91474 3.04337 0
M  V30 5663 H 533.18 -2.63456 1.88077 0
M  V30 5664 H 532.087 -1.06549 3.58606 0
M  V30 5665 H 533.42 -1.42072 4.7125 0
M  V30 5666 N 535.072 -1.5615 -0.213296 0
M  V30 5667 C 535.982 -1.96265 -1.28519 0
M  V30 5668 C 536.998 -0.86765 -1.50824 0
M  V30 5669 O 538.174 -1.17191 -1.63793 0
M  V30 5670 C 535.239 -2.27836 -2.61327 0
M  V30 5671 C 534.3 -3.50949 -2.47252 0
M  V30 5672 C 533.533 -3.81004 -3.73727 0
M  V30 5673 O 533.756 -3.12612 -4.77106 0
M  V30 5674 O 532.69 -4.74477 -3.70344 0
M  V30 5675 H 536.516 -2.87631 -0.974795 0
M  V30 5676 H 534.101 -1.43467 -0.416832 0
M  V30 5677 H 535.983 -2.49299 -3.39747 0
M  V30 5678 H 534.658 -1.39643 -2.9203 0
M  V30 5679 H 533.565 -3.34754 -1.67004 0
M  V30 5680 H 534.898 -4.39551 -2.21486 0
M  V30 5681 N 536.55 0.480323 -1.50102 0
M  V30 5682 C 537.827 1.24159 -1.51142 0
M  V30 5683 C 538.207 2.09605 -0.250818 0
M  V30 5684 O 537.555 2.15274 0.766118 0
M  V30 5685 C 537.765 2.08057 -2.80202 0
M  V30 5686 C 539.113 2.66556 -3.30504 0
M  V30 5687 O 540.137 2.18308 -2.81461 0
M  V30 5688 O 538.996 3.54442 -4.15973 0
M  V30 5689 H 536.09 0.562928 -0.605839 0
M  V30 5690 H 538.636 0.492899 -1.62384 0
M  V30 5691 H 537.408 1.45032 -3.6343 0
M  V30 5692 H 537.031 2.90079 -2.71919 0
M  V30 5693 N 538.028 1.39524 0.732853 0
M  V30 5694 C 539.253 1.40329 1.52717 0
M  V30 5695 C 539.678 0.000286574 1.881 0
M  V30 5696 O 539.036 -0.987262 1.52062 0
M  V30 5697 C 539.084 2.28464 2.78992 0
M  V30 5698 O 538.188 1.716 3.75003 0
M  V30 5699 H 537.529 0.47778 0.461109 0
M  V30 5700 H 540.059 1.83546 0.903996 0
M  V30 5701 H 540.069 2.43051 3.27705 0
M  V30 5702 H 538.744 3.30425 2.52572 0
M  V30 5703 H 537.321 1.66267 3.33781 0
M  V30 5704 N 539.506 -0.963266 1.24736 0
M  V30 5705 C 540.754 -1.70343 1.08755 0
M  V30 5706 C 541.075 -1.91387 -0.373619 0
M  V30 5707 O 540.345 -1.4948 -1.2662 0
M  V30 5708 H 538.925 -0.631224 0.399456 0
M  V30 5709 H 541.587 -1.15859 1.56725 0
M  V30 5710 H 540.683 -2.68616 1.58909 0
M  V30 5711 N 540.985 -1.06182 -1.16461 0
M  V30 5712 C 542.401 -0.785065 -1.38956 0
M  V30 5713 C 542.601 0.616103 -1.9185 0
M  V30 5714 O 541.657 1.37686 -2.11657 0
M  V30 5715 C 542.97 -1.84902 -2.37132 0
M  V30 5716 C 544.518 -1.8724 -2.50819 0
M  V30 5717 C 544.993 -2.92686 -3.52277 0
M  V30 5718 N 546.484 -2.91712 -3.59803 0
M  V30 5719 C 547.219 -3.69949 -4.38093 0
M  V30 5720 N 546.715 -4.58 -5.19815 0
M  V30 5721 N 548.508 -3.58346 -4.33064 0
M  V30 5722 H 540.659 -1.96569 -0.804634 0
M  V30 5723 H 542.922 -0.851747 -0.416211 0
M  V30 5724 H 542.628 -2.85518 -2.0536 0
M  V30 5725 H 542.502 -1.69908 -3.36766 0
M  V30 5726 H 544.889 -0.872827 -2.81897 0
M  V30 5727 H 544.97 -2.06311 -1.51226 0
M  V30 5728 H 544.614 -3.92835 -3.21937 0
M  V30 5729 H 544.544 -2.70864 -4.51598 0
M  V30 5730 H 547.035 -2.27876 -3.01464 0
M  V30 5731 H 547.348 -5.14357 -5.76764 0
M  V30 5732 H 545.693 -4.62056 -5.19162 0
M  V30 5733 H 548.884 -2.88943 -3.68279 0
M  V30 5734 H 549.057 -4.19563 -4.93833 0
M  V30 5735 N 542.463 1.3308 -0.844243 0
M  V30 5736 C 543.712 1.96868 -0.438833 0
M  V30 5737 C 544.025 1.67599 1.00846 0
M  V30 5738 O 545.231 2.25043 1.51881 0
M  V30 5739 C 543.687 3.5234 -0.73377 0
M  V30 5740 C 543.295 3.90481 -2.1961 0
M  V30 5741 C 545.039 4.22653 -0.395574 0
M  V30 5742 C 542.946 5.38954 -2.43481 0
M  V30 5743 H 541.876 0.736749 -0.160364 0
M  V30 5744 H 544.527 1.51623 -1.03358 0
M  V30 5745 H 542.909 3.95941 -0.068589 0
M  V30 5746 H 544.083 3.57922 -2.90221 0
M  V30 5747 H 542.398 3.33165 -2.4978 0
M  V30 5748 H 544.995 5.31848 -0.551477 0
M  V30 5749 H 545.338 4.11004 0.661921 0
M  V30 5750 H 545.871 3.84601 -1.01621 0
M  V30 5751 H 542.61 5.55612 -3.47816 0
M  V30 5752 H 542.13 5.72954 -1.77437 0
M  V30 5753 H 543.809 6.05907 -2.26905 0
M  V30 5754 N 543.941 0.601185 1.45683 0
M  V30 5755 C 544.873 -0.159446 2.28645 0
M  V30 5756 C 545.886 -0.837882 1.39583 0
M  V30 5757 O 547.075 -0.704344 1.64016 0
M  V30 5758 C 544.175 -1.24641 3.15147 0
M  V30 5759 C 543.348 -0.656334 4.32448 0
M  V30 5760 C 542.407 -1.63337 5.00208 0
M  V30 5761 O 541.433 -1.16217 5.57209 0
M  V30 5762 N 542.635 -2.96773 4.98905 0
M  V30 5763 H 545.4 0.5524 2.94565 0
M  V30 5764 H 542.961 0.440223 1.558 0
M  V30 5765 H 544.953 -1.8997 3.57342 0
M  V30 5766 H 543.523 -1.86087 2.51178 0
M  V30 5767 H 542.743 0.174879 3.93812 0
M  V30 5768 H 544.031 -0.242211 5.08223 0
M  V30 5769 H 543.429 -3.37662 4.53873 0
M  V30 5770 H 541.986 -3.57541 5.44984 0
M  V30 5771 N 545.419 -1.53889 0.339982 0
M  V30 5772 C 546.667 -2.00458 -0.257112 0
M  V30 5773 C 546.988 -1.22953 -1.51353 0
M  V30 5774 O 546.258 -0.335734 -1.93002 0
M  V30 5775 H 544.838 -0.740544 -0.0979965 0
M  V30 5776 H 547.5 -1.89386 0.460317 0
M  V30 5777 H 546.596 -3.08035 -0.502057 0
M  V30 5778 N 546.897 -0.0685191 -1.57451 0
M  V30 5779 C 548.127 0.609577 -1.97402 0
M  V30 5780 C 548.535 1.63882 -0.945489 0
M  V30 5781 O 547.878 1.8354 0.0766052 0
M  V30 5782 C 547.94 1.3385 -3.33653 0
M  V30 5783 C 547.604 0.463103 -4.54648 0
M  V30 5784 C 548.601 -0.277964 -5.19156 0
M  V30 5785 C 546.286 0.388941 -5.00792 0
M  V30 5786 C 548.28 -1.08145 -6.28159 0
M  V30 5787 C 545.967 -0.418217 -6.09667 0
M  V30 5788 C 546.965 -1.15208 -6.73213 0
M  V30 5789 O 546.653 -1.94594 -7.79993 0
M  V30 5790 H 546.385 0.170197 -0.654224 0
M  V30 5791 H 548.939 -0.13647 -2.04946 0
M  V30 5792 H 547.169 2.13055 -3.22714 0
M  V30 5793 H 548.858 1.90851 -3.58233 0
M  V30 5794 H 549.624 -0.230241 -4.84453 0
M  V30 5795 H 545.503 0.949769 -4.5111 0
M  V30 5796 H 549.047 -1.65476 -6.7769 0
M  V30 5797 H 544.944 -0.467515 -6.43805 0
M  V30 5798 H 545.712 -1.8699 -7.96854 0
M  V30 5799 N 548.375 1.56261 0.205012 0
M  V30 5800 C 549.621 1.80306 0.9283 0
M  V30 5801 C 549.954 0.640932 1.83319 0
M  V30 5802 O 549.229 -0.359032 1.91158 0
M  V30 5803 C 549.512 3.14547 1.75306 0
M  V30 5804 C 549.365 4.41236 0.873562 0
M  V30 5805 C 550.684 3.45382 2.72762 0
M  V30 5806 H 547.803 0.655929 0.336044 0
M  V30 5807 H 550.445 1.88984 0.196211 0
M  V30 5808 H 548.595 3.0728 2.37721 0
M  V30 5809 H 550.267 4.60539 0.264887 0
M  V30 5810 H 548.51 4.33427 0.179773 0
M  V30 5811 H 549.181 5.31639 1.48541 0
M  V30 5812 H 551.657 3.52884 2.20481 0
M  V30 5813 H 550.533 4.40449 3.2756 0
M  V30 5814 H 550.794 2.68377 3.51321 0
M  V30 5815 N 549.853 -0.472356 1.50355 0
M  V30 5816 C 551.099 -1.22634 1.6152 0
M  V30 5817 C 551.432 -1.91645 0.313995 0
M  V30 5818 O 550.707 -1.82059 -0.684446 0
M  V30 5819 C 550.99 -2.27099 2.7946 0
M  V30 5820 C 550.843 -1.62402 4.19459 0
M  V30 5821 C 552.162 -3.28421 2.92964 0
M  V30 5822 H 549.281 -0.444494 0.587873 0
M  V30 5823 H 551.923 -0.520321 1.82737 0
M  V30 5824 H 550.073 -2.87314 2.61501 0
M  V30 5825 H 551.745 -1.05793 4.49005 0
M  V30 5826 H 549.988 -0.927184 4.23776 0
M  V30 5827 H 550.659 -2.38309 4.97909 0
M  V30 5828 H 553.135 -2.78227 3.09401 0
M  V30 5829 H 552.011 -3.98845 3.77113 0
M  V30 5830 H 552.272 -3.92467 2.03525 0
M  V30 5831 N 551.331 -1.39911 -0.725443 0
M  V30 5832 C 552.556 -1.41137 -1.5197 0
M  V30 5833 C 552.981 -0.010262 -1.88097 0
M  V30 5834 O 552.339 0.979184 -1.52583 0
M  V30 5835 C 552.387 -2.2994 -2.77777 0
M  V30 5836 O 551.491 -1.73586 -3.74088 0
M  V30 5837 H 550.832 -0.480219 -0.458569 0
M  V30 5838 H 553.362 -1.84023 -0.894249 0
M  V30 5839 H 553.372 -2.44785 -3.26411 0
M  V30 5840 H 552.047 -3.31759 -2.50816 0
M  V30 5841 H 550.624 -1.68035 -3.32894 0
M  V30 5842 N 552.809 0.956637 -1.25245 0
M  V30 5843 C 554.055 1.70413 -1.11044 0
M  V30 5844 C 554.41 1.89275 0.345377 0
M  V30 5845 O 553.703 1.45116 1.25107 0
M  V30 5846 C 553.897 3.08996 -1.79601 0
M  V30 5847 C 553.726 3.03654 -3.317 0
M  V30 5848 C 552.496 3.07521 -4.00947 0
M  V30 5849 C 554.694 2.84975 -4.28128 0
M  V30 5850 N 552.676 2.92316 -5.39838 0
M  V30 5851 C 554.047 2.7818 -5.5409 0
M  V30 5852 C 556.102 2.6964 -4.18568 0
M  V30 5853 C 554.805 2.57616 -6.71585 0
M  V30 5854 C 556.831 2.50447 -5.35752 0
M  V30 5855 C 556.193 2.4437 -6.60653 0
M  V30 5856 H 552.292 0.631642 -0.461035 0
M  V30 5857 H 554.876 1.13331 -1.58317 0
M  V30 5858 H 553.047 3.64248 -1.34826 0
M  V30 5859 H 554.779 3.72515 -1.58161 0
M  V30 5860 H 551.534 3.16635 -3.52192 0
M  V30 5861 H 551.958 2.87923 -6.12723 0
M  V30 5862 H 556.6 2.73113 -3.22752 0
M  V30 5863 H 554.318 2.52885 -7.67512 0
M  V30 5864 H 557.904 2.39509 -5.30214 0
M  V30 5865 H 556.784 2.29712 -7.49801 0
M  V30 5866 N 554.287 1.06798 1.15896 0
M  V30 5867 C 555.703 0.792423 1.38538 0
M  V30 5868 C 555.903 -0.60592 1.92174 0
M  V30 5869 O 554.959 -1.36561 2.12385 0
M  V30 5870 C 556.272 1.86157 2.36149 0
M  V30 5871 C 557.82 1.88567 2.49823 0
M  V30 5872 C 558.295 2.9455 3.5072 0
M  V30 5873 N 559.786 2.93616 3.58251 0
M  V30 5874 C 560.521 3.72267 4.36125 0
M  V30 5875 N 560.017 4.60751 5.17379 0
M  V30 5876 N 561.81 3.60637 4.31158 0
M  V30 5877 H 553.961 1.96993 0.794198 0
M  V30 5878 H 556.224 0.853942 0.411688 0
M  V30 5879 H 555.93 2.86603 2.03843 0
M  V30 5880 H 555.804 1.71692 3.3586 0
M  V30 5881 H 558.191 0.887765 2.8143 0
M  V30 5882 H 558.272 2.0711 1.5013 0
M  V30 5883 H 557.916 3.94537 3.19849 0
M  V30 5884 H 557.846 2.73255 4.50155 0
M  V30 5885 H 560.337 2.29472 3.00252 0
M  V30 5886 H 560.65 5.17408 5.74028 0
M  V30 5887 H 558.995 4.64803 5.16704 0
M  V30 5888 H 562.186 2.90892 3.66742 0
M  V30 5889 H 562.359 4.22176 4.91601 0
M  V30 5890 N 555.766 -1.3263 0.851289 0
M  V30 5891 C 557.177 -1.79653 0.5081 0
M  V30 5892 C 557.528 -1.70327 -0.973815 0
M  V30 5893 O 556.653 -1.25986 -1.75944 0
M  V30 5894 C 557.248 -3.26196 0.915515 0
M  V30 5895 C 555.807 -3.71187 0.624277 0
M  V30 5896 C 554.954 -2.53804 1.11709 0
M  V30 5897 H 557.905 -1.19976 1.03882 0
M  V30 5898 H 557.926 -3.79801 0.230535 0
M  V30 5899 H 557.438 -3.32952 1.99411 0
M  V30 5900 H 555.539 -3.69948 -0.443737 0
M  V30 5901 H 555.652 -4.64132 1.18821 0
M  V30 5902 H 554.016 -2.48964 0.537484 0
M  V30 5903 H 554.799 -2.63315 2.20272 0
M  V30 5904 N 557.244 -0.608902 -1.45362 0
M  V30 5905 C 558.469 -0.10921 -2.07112 0
M  V30 5906 C 558.894 1.19779 -1.45033 0
M  V30 5907 O 558.252 1.72961 -0.543527 0
M  V30 5908 C 558.3 0.0155745 -3.60597 0
M  V30 5909 O 557.404 1.06546 -3.98399 0
M  V30 5910 H 556.745 -0.0746619 -0.659789 0
M  V30 5911 H 559.275 -0.839283 -1.86594 0
M  V30 5912 H 559.285 0.213364 -4.07442 0
M  V30 5913 H 557.96 -0.938765 -4.05167 0
M  V30 5914 H 556.537 0.844024 -3.63223 0
M  V30 5915 N 558.722 1.53707 -0.348139 0
M  V30 5916 C 559.97 2.00591 0.246478 0
M  V30 5917 C 560.291 1.23753 1.50699 0
M  V30 5918 O 559.561 0.345964 1.92821 0
M  V30 5919 H 558.141 0.741053 0.0940679 0
M  V30 5920 H 560.803 1.89139 -0.470354 0
M  V30 5921 H 559.899 3.08297 0.485714 0
M  V30 5922 N 560.2 0.0768682 1.57412 0
M  V30 5923 C 561.132 -0.918248 2.10002 0
M  V30 5924 C 562.145 -1.25808 1.03325 0
M  V30 5925 O 563.334 -1.21438 1.30824 0
M  V30 5926 C 560.434 -2.23263 2.54964 0
M  V30 5927 C 559.607 -2.07088 3.8527 0
M  V30 5928 C 558.666 -3.21876 4.16272 0
M  V30 5929 O 557.692 -2.96643 4.8579 0
M  V30 5930 N 558.894 -4.4712 3.70221 0
M  V30 5931 H 561.659 -0.469209 2.96004 0
M  V30 5932 H 559.22 -0.108725 1.61535 0
M  V30 5933 H 561.212 -2.9897 2.72762 0
M  V30 5934 H 559.782 -2.59649 1.74072 0
M  V30 5935 H 559.002 -1.15818 3.76802 0
M  V30 5936 H 560.29 -1.93537 4.70554 0
M  V30 5937 H 559.688 -4.70506 3.1407 0
M  V30 5938 H 558.245 -5.19837 3.93209 0
M  V30 5939 N 561.678 -1.56367 -0.196722 0
M  V30 5940 C 562.641 -1.93561 -1.22746 0
M  V30 5941 C 563.641 -0.816566 -1.38524 0
M  V30 5942 O 564.831 -1.084 -1.36363 0
M  V30 5943 C 561.963 -2.20823 -2.59712 0
M  V30 5944 H 563.156 -2.85774 -0.909586 0
M  V30 5945 H 560.709 -1.50032 -0.438174 0
M  V30 5946 H 561.444 -1.31243 -2.96557 0
M  V30 5947 H 561.229 -3.02368 -2.49632 0
M  V30 5948 H 562.719 -2.50608 -3.34044 0
M  V30 5949 N 563.156 0.464375 -1.50603 0
M  V30 5950 C 564.404 1.21356 -1.61608 0
M  V30 5951 C 564.725 1.92329 -0.321643 0
M  V30 5952 O 563.995 1.84403 0.661232 0
M  V30 5953 H 562.575 0.45094 -0.595535 0
M  V30 5954 H 565.237 0.535046 -1.87412 0
M  V30 5955 H 564.333 1.95783 -2.43054 0
M  V30 5956 N 564.634 1.40294 0.718013 0
M  V30 5957 C 565.597 1.4012 1.81381 0
M  V30 5958 C 566.597 0.295405 1.58063 0
M  V30 5959 O 567.787 0.554187 1.6515 0
M  V30 5960 C 564.919 1.19056 3.19435 0
M  V30 5961 H 566.112 2.37645 1.82933 0
M  V30 5962 H 563.665 1.26107 0.923405 0
M  V30 5963 H 564.4 0.222809 3.23534 0
M  V30 5964 H 564.185 1.99152 3.37758 0
M  V30 5965 H 565.675 1.21716 3.99468 0
M  V30 5966 N 566.112 -0.949982 1.2575 0
M  V30 5967 C 567.361 -1.68956 1.10168 0
M  V30 5968 C 567.674 -1.92327 -0.356309 0
M  V30 5969 O 568.88 -2.64026 -0.632657 0
M  V30 5970 C 567.336 -3.04196 1.92336 0
M  V30 5971 C 566.944 -2.88603 3.42655 0
M  V30 5972 C 568.688 -3.81904 1.85336 0
M  V30 5973 C 566.595 -4.19262 4.17101 0
M  V30 5974 H 565.525 -0.633645 0.408668 0
M  V30 5975 H 568.176 -1.05719 1.49986 0
M  V30 5976 H 566.558 -3.68363 1.45344 0
M  V30 5977 H 567.732 -2.3334 3.97353 0
M  V30 5978 H 566.047 -2.24345 3.50796 0
M  V30 5979 H 568.644 -4.78688 2.38248 0
M  V30 5980 H 568.987 -4.08099 0.822226 0
M  V30 5981 H 569.52 -3.24495 2.30104 0
M  V30 5982 H 566.259 -3.98254 5.20648 0
M  V30 5983 H 565.779 -4.74273 3.67186 0
M  V30 5984 H 567.458 -4.87775 4.25071 0
M  V30 5985 N 567.59 -1.07411 -1.15328 0
M  V30 5986 C 568.52 -0.716472 -2.22236 0
M  V30 5987 C 569.501 0.296373 -1.67498 0
M  V30 5988 O 570.686 0.168989 -1.93463 0
M  V30 5989 C 567.816 -0.114142 -3.47112 0
M  V30 5990 C 566.77 -1.05421 -4.14814 0
M  V30 5991 C 566.096 -0.314604 -5.33774 0
M  V30 5992 C 567.396 -2.38808 -4.64508 0
M  V30 5993 H 569.09 -1.61029 -2.52408 0
M  V30 5994 H 566.636 -0.775702 -1.21321 0
M  V30 5995 H 568.589 0.148001 -4.2114 0
M  V30 5996 H 567.313 0.814755 -3.16274 0
M  V30 5997 H 565.972 -1.30128 -3.42728 0
M  V30 5998 H 565.62 0.617772 -4.99192 0
M  V30 5999 H 565.32 -0.941209 -5.80013 0
M  V30 6000 H 566.844 -0.0602747 -6.1057 0
M  V30 6001 H 568.258 -2.18424 -5.3006 0
M  V30 6002 H 566.655 -2.97069 -5.21412 0
M  V30 6003 H 567.725 -3.01067 -3.80114 0
M  V30 6004 N 569.068 1.32177 -0.85831 0
M  V30 6005 C 570.479 1.79381 -0.517621 0
M  V30 6006 C 570.83 1.70841 0.964769 0
M  V30 6007 O 569.955 1.26917 1.75274 0
M  V30 6008 C 570.55 3.25706 -0.932801 0
M  V30 6009 C 569.109 3.70851 -0.643953 0
M  V30 6010 C 568.256 2.53208 -1.13054 0
M  V30 6011 H 571.207 1.19424 -1.04516 0
M  V30 6012 H 571.228 3.79673 -0.250674 0
M  V30 6013 H 570.74 3.31889 -2.01174 0
M  V30 6014 H 568.841 3.70178 0.424112 0
M  V30 6015 H 568.954 4.63495 -1.21281 0
M  V30 6016 H 567.318 2.48676 -0.550679 0
M  V30 6017 H 568.101 2.62143 -2.21666 0
M  V30 6018 N 570.547 0.616602 1.45037 0
M  V30 6019 C 571.477 -0.0840787 2.33349 0
M  V30 6020 C 572.458 -0.849641 1.4736 0
M  V30 6021 O 573.643 -0.818407 1.76113 0
M  V30 6022 C 570.773 -1.07604 3.3021 0
M  V30 6023 C 569.727 -0.423096 4.25904 0
M  V30 6024 C 569.053 -1.52394 5.12523 0
M  V30 6025 C 570.353 0.661457 5.18095 0
M  V30 6026 H 572.047 0.653333 2.92185 0
M  V30 6027 H 569.593 0.315634 1.40498 0
M  V30 6028 H 571.546 -1.57485 3.90866 0
M  V30 6029 H 570.27 -1.84416 2.69552 0
M  V30 6030 H 568.929 0.05493 3.66559 0
M  V30 6031 H 568.577 -2.28257 4.48227 0
M  V30 6032 H 568.277 -1.09251 5.77354 0
M  V30 6033 H 569.801 -2.02485 5.76049 0
M  V30 6034 H 571.215 0.246353 5.7277 0
M  V30 6035 H 569.612 1.01517 5.91451 0
M  V30 6036 H 570.682 1.53446 4.59981 0
M  V30 6037 N 572.025 -1.5352 0.356285 0
M  V30 6038 C 573.265 -2.03027 -0.23649 0
M  V30 6039 C 573.629 -1.23813 -1.46746 0
M  V30 6040 O 574.83 -1.63281 -2.13525 0
M  V30 6041 C 573.101 -3.53442 -0.530415 0
M  V30 6042 S 574.66 -4.24836 -1.09819 0
M  V30 6043 H 571.478 -0.707591 -0.0695378 0
M  V30 6044 H 574.08 -1.89077 0.496999 0
M  V30 6045 H 572.784 -4.087 0.373114 0
M  V30 6046 H 572.315 -3.71536 -1.29323 0
M  V30 6047 H 574.33 -4.35228 -2.38309 0
M  V30 6048 N 573.503 -0.0852151 -1.57369 0
M  V30 6049 C 574.451 0.894856 -2.14698 0
M  V30 6050 C 575.445 1.29903 -1.08727 0
M  V30 6051 O 576.651 1.27471 -1.27088 0
M  V30 6052 H 573.026 0.306569 -0.686673 0
M  V30 6053 H 574.997 0.386542 -2.95886 0
M  V30 6054 C 573.746 2.14798 -2.73417 0
M  V30 6055 H 573.069 1.84585 -3.54638 0
M  V30 6056 H 574.509 2.81456 -3.1711 0
M  V30 6057 C 572.968 2.91546 -1.68828 0
M  V30 6058 O 573.498 3.85733 -1.12129 0
M  V30 6059 N 571.704 2.54901 -1.39549 0
M  V30 6060 H 571.251 1.7838 -1.85845 0
M  V30 6061 H 571.209 3.06553 -0.698054 0
M  V30 6062 N 574.981 1.5647 0.188427 0
M  V30 6063 C 576.209 1.85131 0.923803 0
M  V30 6064 C 576.624 0.668537 1.76567 0
M  V30 6065 O 575.981 -0.362662 1.7886 0
M  V30 6066 C 576.032 3.12661 1.81453 0
M  V30 6067 O 575.753 4.26378 1.00665 0
M  V30 6068 C 577.254 3.54548 2.66103 0
M  V30 6069 H 574.474 0.614624 0.269218 0
M  V30 6070 H 577.018 2.03581 0.193671 0
M  V30 6071 H 575.173 2.96088 2.49821 0
M  V30 6072 H 575.587 4.99041 1.61425 0
M  V30 6073 H 577.061 4.4673 3.24247 0
M  V30 6074 H 577.538 2.77853 3.40139 0
M  V30 6075 H 578.144 3.73674 2.03096 0
M  V30 6076 N 576.459 -0.456382 1.50847 0
M  V30 6077 C 577.687 -1.23026 1.66349 0
M  V30 6078 C 578.102 -1.85473 0.352868 0
M  V30 6079 O 577.459 -1.69885 -0.666739 0
M  V30 6080 C 577.51 -2.32827 2.76539 0
M  V30 6081 O 577.231 -1.72938 4.02522 0
M  V30 6082 C 578.732 -3.23448 3.03144 0
M  V30 6083 H 575.952 -0.371527 0.558756 0
M  V30 6084 H 578.496 -0.543082 1.97157 0
M  V30 6085 H 576.651 -2.97294 2.48384 0
M  V30 6086 H 577.065 -2.45357 4.63573 0
M  V30 6087 H 578.539 -3.96669 3.83872 0
M  V30 6088 H 579.016 -3.83094 2.14793 0
M  V30 6089 H 579.622 -2.64702 3.32886 0
M  V30 6090 N 577.937 -1.40673 -0.710563 0
M  V30 6091 C 578.847 -1.43663 -1.85467 0
M  V30 6092 C 579.863 -0.328721 -1.70867 0
M  V30 6093 O 581.039 -0.574098 -1.93044 0
M  V30 6094 C 578.104 -1.30226 -3.21313 0
M  V30 6095 C 577.165 -2.51204 -3.48131 0
M  V30 6096 C 576.398 -2.38398 -4.77495 0
M  V30 6097 O 576.621 -1.40048 -5.5294 0
M  V30 6098 O 575.555 -3.2787 -5.04762 0
M  V30 6099 H 579.381 -2.40156 -1.859 0
M  V30 6100 H 576.966 -1.22049 -0.861652 0
M  V30 6101 H 578.848 -1.2496 -4.02446 0
M  V30 6102 H 577.523 -0.368419 -3.21597 0
M  V30 6103 H 576.43 -2.62048 -2.66987 0
M  V30 6104 H 577.763 -3.43366 -3.52648 0
M  V30 6105 N 579.415 0.9433 -1.26252 0
M  V30 6106 C 580.345 2.05902 -1.10122 0
M  V30 6107 C 581.326 1.70099 -0.00700552 0
M  V30 6108 O 582.511 1.93377 -0.178641 0
M  V30 6109 C 579.641 3.39516 -0.731175 0
M  V30 6110 C 578.595 3.89372 -1.77688 0
M  V30 6111 C 577.921 5.19613 -1.26122 0
M  V30 6112 C 579.221 4.14489 -3.17799 0
M  V30 6113 H 580.915 2.19655 -2.03451 0
M  V30 6114 H 578.461 1.05548 -0.979576 0
M  V30 6115 H 580.414 4.17031 -0.605215 0
M  V30 6116 H 579.138 3.25733 0.23782 0
M  V30 6117 H 577.797 3.14036 -1.89148 0
M  V30 6118 H 577.445 5.02208 -0.282128 0
M  V30 6119 H 577.145 5.53939 -1.96023 0
M  V30 6120 H 578.669 5.99713 -1.14789 0
M  V30 6121 H 580.083 4.82625 -3.09428 0
M  V30 6122 H 578.48 4.60094 -3.85271 0
M  V30 6123 H 579.55 3.20347 -3.64014 0
M  V30 6124 N 580.893 1.08022 1.14757 0
M  V30 6125 C 582.118 0.82895 1.90114 0
M  V30 6126 C 582.543 -0.612772 1.77839 0
M  V30 6127 O 581.901 -1.42895 1.11583 0
M  V30 6128 C 581.949 1.25062 3.38219 0
M  V30 6129 O 581.053 0.400119 4.10454 0
M  V30 6130 H 580.394 0.301412 0.591648 0
M  V30 6131 H 582.924 1.44062 1.45284 0
M  V30 6132 H 582.934 1.22977 3.89025 0
M  V30 6133 H 581.609 2.30067 3.46471 0
M  V30 6134 H 580.186 0.484052 3.69745 0
M  V30 6135 N 582.371 -1.3172 0.865308 0
M  V30 6136 C 583.611 -1.98675 0.480365 0
M  V30 6137 C 583.975 -1.66929 -0.948621 0
M  V30 6138 O 585.176 -2.27059 -1.43867 0
M  V30 6139 C 583.447 -3.49972 0.724858 0
M  V30 6140 S 585.006 -4.36598 0.439078 0
M  V30 6141 H 581.824 -0.687967 0.179506 0
M  V30 6142 H 584.426 -1.60215 1.12033 0
M  V30 6143 H 583.13 -3.70567 1.76375 0
M  V30 6144 H 582.661 -3.93335 0.0717173 0
M  V30 6145 H 584.676 -4.90792 -0.730564 0
M  V30 6146 N 583.85 -0.624285 -1.44708 0
M  V30 6147 C 585.077 -0.132919 -2.06473 0
M  V30 6148 C 585.493 1.18967 -1.46602 0
M  V30 6149 O 584.85 1.72824 -0.586341 0
M  V30 6150 C 584.901 -0.00465418 -3.615 0
M  V30 6151 O 584.622 -1.27494 -4.19138 0
M  V30 6152 C 586.123 0.516213 -4.40284 0
M  V30 6153 H 583.343 -0.0765201 -0.666623 0
M  V30 6154 H 585.887 -0.856751 -1.85688 0
M  V30 6155 H 584.042 0.669583 -3.8157 0
M  V30 6156 H 584.456 -1.11536 -5.12504 0
M  V30 6157 H 585.93 0.554994 -5.49203 0
M  V30 6158 H 586.407 1.5419 -4.11245 0
M  V30 6159 H 587.013 -0.124542 -4.25118 0
M  V30 6160 N 585.328 1.53329 -0.364422 0
M  V30 6161 C 586.575 2.01239 0.225634 0
M  V30 6162 C 586.903 1.25172 1.48869 0
M  V30 6163 O 586.158 0.333289 1.92841 0
M  V30 6164 C 586.457 3.52911 0.564661 0
M  V30 6165 C 586.123 4.46837 -0.603936 0
M  V30 6166 C 584.785 4.72234 -0.924585 0
M  V30 6167 C 587.137 5.02409 -1.38691 0
M  V30 6168 C 584.465 5.50454 -2.0302 0
M  V30 6169 C 586.817 5.81836 -2.48293 0
M  V30 6170 C 585.481 6.0552 -2.80894 0
M  V30 6171 H 584.751 0.736386 0.0825654 0
M  V30 6172 H 587.398 1.84948 -0.496645 0
M  V30 6173 H 585.703 3.67144 1.36794 0
M  V30 6174 H 587.4 3.87455 1.03344 0
M  V30 6175 H 583.99 4.27217 -0.343983 0
M  V30 6176 H 588.174 4.82735 -1.15243 0
M  V30 6177 H 583.43 5.67024 -2.28678 0
M  V30 6178 H 587.604 6.23905 -3.0938 0
M  V30 6179 H 585.231 6.65916 -3.66688 0
M  V30 6180 N 586.806 0.0935595 1.57322 0
M  V30 6181 C 587.756 -0.876521 2.10478 0
M  V30 6182 C 588.74 -1.24482 1.01946 0
M  V30 6183 O 589.932 -1.22016 1.28223 0
M  V30 6184 C 587.061 -2.13615 2.68745 0
M  V30 6185 C 586.147 -1.79335 3.84317 0
M  V30 6186 N 586.538 -1.15606 4.92411 0
M  V30 6187 C 584.836 -2.08954 3.94023 0
M  V30 6188 C 585.537 -0.999036 5.73057 0
M  V30 6189 N 584.513 -1.51585 5.22037 0
M  V30 6190 H 588.315 -0.379829 2.91435 0
M  V30 6191 H 585.829 -0.109699 1.62029 0
M  V30 6192 H 587.826 -2.84053 3.05155 0
M  V30 6193 H 586.486 -2.63851 1.89242 0
M  V30 6194 H 587.497 -0.823063 5.11318 0
M  V30 6195 H 584.174 -2.61416 3.25527 0
M  V30 6196 H 585.564 -0.500772 6.70031 0
M  V30 6197 N 588.284 -1.56567 -0.180126 0
M  V30 6198 C 589.214 -1.98753 -1.22553 0
M  V30 6199 C 590.195 -0.86175 -1.46656 0
M  V30 6200 O 591.38 -1.12719 -1.58139 0
M  V30 6201 C 588.51 -2.33988 -2.56645 0
M  V30 6202 C 587.464 -3.49445 -2.47128 0
M  V30 6203 C 586.79 -3.70397 -3.8563 0
M  V30 6204 C 588.09 -4.83171 -1.98352 0
M  V30 6205 H 589.784 -2.86332 -0.874896 0
M  V30 6206 H 587.33 -1.37757 -0.419414 0
M  V30 6207 H 589.283 -2.62097 -3.29974 0
M  V30 6208 H 588.007 -1.43309 -2.93479 0
M  V30 6209 H 586.666 -3.2145 -1.76254 0
M  V30 6210 H 586.314 -2.77023 -4.19842 0
M  V30 6211 H 586.014 -4.48077 -3.80132 0
M  V30 6212 H 587.538 -4.00897 -4.60558 0
M  V30 6213 H 588.952 -5.10213 -2.61449 0
M  V30 6214 H 587.349 -5.64425 -2.03823 0
M  V30 6215 H 588.419 -4.75753 -0.937402 0
M  V30 6216 N 589.762 0.448376 -1.51087 0
M  V30 6217 C 591.173 1.0286 -1.5581 0
M  V30 6218 C 591.524 1.92583 -0.374989 0
M  V30 6219 O 590.649 2.10316 0.509533 0
M  V30 6220 C 591.244 1.87223 -2.8237 0
M  V30 6221 C 589.803 2.40314 -2.897 0
M  V30 6222 C 588.95 1.19238 -2.50355 0
M  V30 6223 H 591.901 0.230075 -1.57023 0
M  V30 6224 H 591.922 2.72553 -2.6551 0
M  V30 6225 H 591.434 1.21894 -3.68461 0
M  V30 6226 H 589.535 3.09129 -2.08014 0
M  V30 6227 H 589.648 2.73866 -3.93108 0
M  V30 6228 H 588.012 1.53428 -2.03303 0
M  V30 6229 H 588.795 0.555367 -3.38778 0
M  V30 6230 N 591.24 1.41047 0.703093 0
M  V30 6231 C 592.465 1.43537 1.49706 0
M  V30 6232 C 592.89 0.0401853 1.88057 0
M  V30 6233 O 592.248 -0.954785 1.54122 0
M  V30 6234 C 592.296 2.3433 2.74084 0
M  V30 6235 O 591.4 1.79515 3.71279 0
M  V30 6236 H 590.741 0.487454 0.450871 0
M  V30 6237 H 593.271 1.85422 0.86486 0
M  V30 6238 H 593.281 2.49947 3.22476 0
M  V30 6239 H 591.956 3.35708 2.45506 0
M  V30 6240 H 590.533 1.7331 3.30179 0
M  V30 6241 N 592.718 -0.936591 1.26751 0
M  V30 6242 C 593.628 -2.06949 1.10496 0
M  V30 6243 C 594.644 -1.7396 0.037271 0
M  V30 6244 O 595.82 -1.99941 0.241944 0
M  V30 6245 C 592.885 -3.38612 0.744491 0
M  V30 6246 C 591.946 -3.85355 1.89209 0
M  V30 6247 C 591.179 -5.10735 1.54873 0
M  V30 6248 O 591.402 -5.68602 0.452546 0
M  V30 6249 O 590.336 -5.52632 2.38499 0
M  V30 6250 H 594.162 -2.23571 2.05547 0
M  V30 6251 H 591.747 -1.05428 1.05855 0
M  V30 6252 H 593.629 -4.17711 0.556396 0
M  V30 6253 H 592.304 -3.23218 -0.176582 0
M  V30 6254 H 591.211 -3.07182 2.13518 0
M  V30 6255 H 592.544 -4.05277 2.79305 0
M  V30 6256 N 594.196 -1.08629 -1.14182 0
M  V30 6257 C 595.159 -0.722027 -2.1753 0
M  V30 6258 C 596.159 0.244305 -1.58933 0
M  V30 6259 O 597.349 0.0235545 -1.74184 0
M  V30 6260 C 594.481 -0.0663966 -3.40835 0
M  V30 6261 H 595.674 -1.63719 -2.51269 0
M  V30 6262 H 593.227 -0.884442 -1.28869 0
M  V30 6263 H 593.962 0.860389 -3.12678 0
M  V30 6264 H 593.747 -0.761598 -3.84632 0
M  V30 6265 H 595.237 0.173346 -4.1724 0
M  V30 6266 N 595.674 1.31259 -0.872281 0
M  V30 6267 C 596.606 2.27396 -0.28697 0
M  V30 6268 C 597.619 1.53181 0.551297 0
M  V30 6269 O 598.808 1.74561 0.372914 0
M  V30 6270 C 595.908 3.33335 0.611617 0
M  V30 6271 C 595.081 4.36966 -0.194729 0
M  V30 6272 C 594.14 5.22387 0.632358 0
M  V30 6273 O 593.166 5.69169 0.0595691 0
M  V30 6274 N 594.368 5.46985 1.94391 0
M  V30 6275 H 597.133 2.78261 -1.11314 0
M  V30 6276 H 594.694 1.44306 -0.733994 0
M  V30 6277 H 596.686 3.87398 1.17068 0
M  V30 6278 H 595.256 2.82496 1.33846 0
M  V30 6279 H 594.476 3.82945 -0.935241 0
M  V30 6280 H 595.764 5.03273 -0.747935 0
M  V30 6281 H 595.162 5.10737 2.43237 0
M  V30 6282 H 593.719 6.03973 2.45071 0
M  V30 6283 N 597.152 0.631951 1.44375 0
M  V30 6284 C 598.062 -0.073674 2.34484 0
M  V30 6285 C 599.078 -0.834825 1.52665 0
M  V30 6286 O 600.254 -0.786902 1.85391 0
M  V30 6287 C 597.319 -1.04247 3.30656 0
M  V30 6288 C 596.38 -0.280602 4.28382 0
M  V30 6289 C 595.613 -1.20325 5.19959 0
M  V30 6290 O 595.836 -2.44199 5.15484 0
M  V30 6291 O 594.77 -0.687128 5.97965 0
M  V30 6292 H 598.596 0.667477 2.96274 0
M  V30 6293 H 596.181 0.392144 1.44162 0
M  V30 6294 H 598.063 -1.59981 3.89851 0
M  V30 6295 H 596.738 -1.76422 2.71398 0
M  V30 6296 H 595.645 0.319804 3.72731 0
M  V30 6297 H 596.978 0.401144 4.90563 0
M  V30 6298 N 598.631 -1.53133 0.372548 0
M  V30 6299 C 599.877 -2.01654 -0.215277 0
M  V30 6300 C 600.21 -1.25914 -1.47849 0
M  V30 6301 O 599.485 -0.3548 -1.91237 0
M  V30 6302 C 599.768 -3.56609 -0.500187 0
M  V30 6303 C 599.621 -4.43036 0.777145 0
M  V30 6304 C 600.94 -4.20528 -1.29786 0
M  V30 6305 H 598.059 -0.732991 -0.0767686 0
M  V30 6306 H 600.701 -1.83335 0.498814 0
M  V30 6307 H 598.851 -3.7235 -1.10852 0
M  V30 6308 H 600.523 -4.39079 1.41447 0
M  V30 6309 H 598.766 -4.10723 1.39604 0
M  V30 6310 H 599.437 -5.49424 0.532662 0
M  V30 6311 H 601.913 -4.08663 -0.783198 0
M  V30 6312 H 600.789 -5.28962 -1.46596 0
M  V30 6313 H 601.05 -3.77051 -2.30836 0
M  V30 6314 N 600.109 -0.101901 -1.5727 0
M  V30 6315 C 601.072 0.840129 -2.13247 0
M  V30 6316 C 602.072 1.20625 -1.06331 0
M  V30 6317 O 603.262 1.13456 -1.32186 0
M  V30 6318 C 600.394 2.13372 -2.65867 0
M  V30 6319 H 601.587 0.353945 -2.97804 0
M  V30 6320 H 599.14 0.147167 -1.55606 0
M  V30 6321 H 599.875 2.66461 -1.84849 0
M  V30 6322 H 599.66 1.88085 -3.44044 0
M  V30 6323 H 601.15 2.80748 -3.09145 0
M  V30 6324 N 601.587 1.56661 0.17182 0
M  V30 6325 C 602.517 1.99401 1.21498 0
M  V30 6326 C 603.498 0.869516 1.46197 0
M  V30 6327 O 604.683 1.13556 1.57539 0
M  V30 6328 C 601.813 2.35346 2.55401 0
M  V30 6329 C 600.767 3.5075 2.45272 0
M  V30 6330 C 600.093 3.72437 3.8366 0
M  V30 6331 C 601.393 4.84216 1.95787 0
M  V30 6332 H 603.087 2.86792 0.859699 0
M  V30 6333 H 600.633 1.37977 0.412103 0
M  V30 6334 H 602.586 2.63843 3.2858 0
M  V30 6335 H 601.31 1.44864 2.92715 0
M  V30 6336 H 599.969 3.2238 1.74547 0
M  V30 6337 H 599.617 2.79246 4.18367 0
M  V30 6338 H 599.317 4.50087 3.77751 0
M  V30 6339 H 600.841 4.03334 4.58426 0
M  V30 6340 H 602.255 5.11592 2.5874 0
M  V30 6341 H 600.652 5.65498 2.00827 0
M  V30 6342 H 601.722 4.76243 0.912159 0
M  V30 6343 N 603.065 -0.440357 1.51323 0
M  V30 6344 C 604.311 -1.19181 1.64085 0
M  V30 6345 C 604.644 -1.90936 0.354575 0
M  V30 6346 O 603.919 -1.8347 -0.645675 0
M  V30 6347 C 604.202 -2.2112 2.84215 0
M  V30 6348 C 604.055 -1.53468 4.22809 0
M  V30 6349 C 605.374 -3.22133 2.99864 0
M  V30 6350 H 602.493 -0.431924 0.597169 0
M  V30 6351 H 605.135 -0.481443 1.83799 0
M  V30 6352 H 603.285 -2.81703 2.67537 0
M  V30 6353 H 604.957 -0.962455 4.51148 0
M  V30 6354 H 603.2 -0.837086 4.25647 0
M  V30 6355 H 603.871 -2.27694 5.02852 0
M  V30 6356 H 606.347 -2.71601 3.15233 0
M  V30 6357 H 605.223 -3.90756 3.85488 0
M  V30 6358 H 605.484 -3.88061 2.11804 0
M  V30 6359 N 604.543 -1.41418 -0.695603 0
M  V30 6360 C 605.506 -1.42988 -1.79129 0
M  V30 6361 C 606.506 -0.320514 -1.57573 0
M  V30 6362 O 607.696 -0.58039 -1.64247 0
M  V30 6363 C 604.828 -1.24122 -3.175 0
M  V30 6364 H 606.021 -2.40526 -1.7913 0
M  V30 6365 H 603.574 -1.2756 -0.903225 0
M  V30 6366 H 604.309 -0.274253 -3.23138 0
M  V30 6367 H 604.094 -2.045 -3.34547 0
M  V30 6368 H 605.584 -1.28056 -3.97481 0
M  V30 6369 N 606.021 0.929856 -1.27246 0
M  V30 6370 C 607.251 1.70895 -1.16096 0
M  V30 6371 C 607.659 1.87039 0.285122 0
M  V30 6372 O 607.002 1.38557 1.20614 0
M  V30 6373 C 607.064 3.12919 -1.7698 0
M  V30 6374 C 606.728 3.2012 -3.26148 0
M  V30 6375 C 607.725 3.02533 -4.22812 0
M  V30 6376 C 605.41 3.43148 -3.66817 0
M  V30 6377 C 607.404 3.07861 -5.58122 0
M  V30 6378 C 605.091 3.48109 -5.02258 0
M  V30 6379 C 606.089 3.30483 -5.97721 0
M  V30 6380 O 605.777 3.35175 -7.30694 0
M  V30 6381 H 605.509 0.54152 -0.404639 0
M  V30 6382 H 608.063 1.17342 -1.68582 0
M  V30 6383 H 606.293 3.67945 -1.18969 0
M  V30 6384 H 607.982 3.72787 -1.60576 0
M  V30 6385 H 608.748 2.84586 -3.92728 0
M  V30 6386 H 604.627 3.55918 -2.9299 0
M  V30 6387 H 608.171 2.94021 -6.32612 0
M  V30 6388 H 604.068 3.65579 -5.31998 0
M  V30 6389 H 604.836 3.51644 -7.39114 0
M  V30 6390 N 607.499 1.09233 1.13605 0
M  V30 6391 C 608.447 0.724572 2.21027 0
M  V30 6392 C 609.441 -0.273595 1.67176 0
M  V30 6393 O 610.647 -0.135266 1.79491 0
M  V30 6394 H 607.022 0.216319 0.720215 0
M  V30 6395 H 608.993 1.63975 2.49309 0
M  V30 6396 C 607.742 0.159126 3.47336 0
M  V30 6397 H 607.065 0.918387 3.89109 0
M  V30 6398 H 608.505 -0.0602851 4.23957 0
M  V30 6399 C 606.964 -1.10514 3.18258 0
M  V30 6400 O 607.494 -2.18869 3.36837 0
M  V30 6401 N 605.7 -1.01886 2.72154 0
M  V30 6402 H 605.247 -0.137027 2.57235 0
M  V30 6403 H 605.205 -1.8655 2.53074 0
M  V30 6404 N 608.977 -1.30795 0.87923 0
M  V30 6405 C 610.202 -2.01063 0.508769 0
M  V30 6406 C 610.627 -1.65508 -0.893803 0
M  V30 6407 O 609.985 -0.868616 -1.59138 0
M  V30 6408 C 610.033 -3.54054 0.683991 0
M  V30 6409 O 609.137 -4.11498 -0.272654 0
M  V30 6410 H 608.478 -0.632786 0.201191 0
M  V30 6411 H 611.008 -1.66776 1.18519 0
M  V30 6412 H 611.018 -4.03845 0.580798 0
M  V30 6413 H 609.693 -3.79271 1.70665 0
M  V30 6414 H 608.27 -3.72695 -0.12364 0
M  V30 6415 N 610.455 -0.639598 -1.44038 0
M  V30 6416 C 611.418 0.0506628 -2.29144 0
M  V30 6417 C 612.418 0.764001 -1.41491 0
M  V30 6418 O 613.608 0.607309 -1.63271 0
M  V30 6419 C 610.74 1.0824 -3.2326 0
M  V30 6420 H 611.933 -0.697987 -2.91664 0
M  V30 6421 H 609.486 -0.400146 -1.51091 0
M  V30 6422 H 610.221 1.86075 -2.65606 0
M  V30 6423 H 610.006 0.574725 -3.87865 0
M  V30 6424 H 611.496 1.56487 -3.87171 0
M  V30 6425 N 611.933 1.52934 -0.380664 0
M  V30 6426 C 613.181 2.01069 0.203874 0
M  V30 6427 C 613.502 1.26922 1.4804 0
M  V30 6428 O 612.772 0.386787 1.92044 0
M  V30 6429 H 611.352 0.742882 0.0783279 0
M  V30 6430 H 614.014 1.88099 -0.510368 0
M  V30 6431 H 613.11 3.09258 0.42021 0
M  V30 6432 N 613.412 0.11024 1.57214 0
M  V30 6433 C 614.64 -0.557834 1.99238 0
M  V30 6434 C 615.055 -1.60778 0.989734 0
M  V30 6435 O 614.412 -1.82491 -0.0186092 0
M  V30 6436 C 614.463 -1.19189 3.41286 0
M  V30 6437 O 614.184 -0.183919 4.37714 0
M  V30 6438 C 615.685 -1.94413 3.98395 0
M  V30 6439 H 612.905 -0.148392 0.654386 0
M  V30 6440 H 615.449 0.193996 2.03578 0
M  V30 6441 H 613.604 -1.89456 3.37913 0
M  V30 6442 H 614.018 -0.643475 5.20538 0
M  V30 6443 H 615.492 -2.34116 4.99894 0
M  V30 6444 H 615.969 -2.81592 3.3705 0
M  V30 6445 H 616.575 -1.28928 4.05287 0
M  V30 6446 N 614.89 -1.56749 -0.16351 0
M  V30 6447 C 616.115 -1.86938 -0.898264 0
M  V30 6448 C 616.54 -0.697456 -1.74692 0
M  V30 6449 O 615.898 0.353327 -1.77824 0
M  V30 6450 C 615.946 -3.15599 -1.74441 0
M  V30 6451 O 615.05 -2.98371 -2.8469 0
M  V30 6452 H 614.391 -0.614659 -0.251178 0
M  V30 6453 H 616.921 -2.03979 -0.159298 0
M  V30 6454 H 616.931 -3.47202 -2.14277 0
M  V30 6455 H 615.606 -4.00505 -1.1211 0
M  V30 6456 H 614.183 -2.7814 -2.4838 0
M  V30 6457 N 616.368 0.432326 -1.51554 0
M  V30 6458 C 617.784 0.769195 -1.39841 0
M  V30 6459 C 617.984 1.95584 -0.484675 0
M  V30 6460 O 617.04 2.52433 0.0582829 0
M  V30 6461 C 618.353 1.04487 -2.81963 0
M  V30 6462 C 619.901 1.149 -2.91148 0
M  V30 6463 C 620.376 1.45758 -4.34187 0
M  V30 6464 N 621.867 1.52671 -4.37317 0
M  V30 6465 C 622.602 1.78129 -5.4503 0
M  V30 6466 N 622.098 2.01345 -6.62897 0
M  V30 6467 N 623.891 1.79953 -5.32516 0
M  V30 6468 H 616.042 -0.349122 -2.09511 0
M  V30 6469 H 618.305 -0.0938113 -0.943347 0
M  V30 6470 H 618.011 0.24557 -3.50842 0
M  V30 6471 H 617.885 1.97119 -3.21596 0
M  V30 6472 H 620.272 1.93891 -2.22464 0
M  V30 6473 H 620.353 0.201568 -2.55005 0
M  V30 6474 H 619.997 0.672917 -5.03423 0
M  V30 6475 H 619.927 2.41715 -4.67848 0
M  V30 6476 H 622.418 1.36612 -3.52343 0
M  V30 6477 H 622.731 2.20155 -7.40778 0
M  V30 6478 H 621.076 1.98657 -6.66003 0
M  V30 6479 H 624.267 1.61337 -4.39418 0
M  V30 6480 H 624.44 1.99455 -6.1654 0
M  V30 6481 N 617.846 1.41785 0.688094 0
M  V30 6482 C 619.257 1.3701 1.26828 0
M  V30 6483 C 619.608 0.056835 1.96118 0
M  V30 6484 O 618.733 -0.84475 1.99231 0
M  V30 6485 C 619.328 2.48168 2.30648 0
M  V30 6486 C 617.887 2.46766 2.84224 0
M  V30 6487 C 617.034 2.27633 1.58361 0
M  V30 6488 H 619.985 1.51192 0.482351 0
M  V30 6489 H 620.006 2.17655 3.121 0
M  V30 6490 H 619.518 3.43735 1.80188 0
M  V30 6491 H 617.619 1.54978 3.3884 0
M  V30 6492 H 617.732 3.43342 3.34145 0
M  V30 6493 H 616.096 1.75648 1.84445 0
M  V30 6494 H 616.879 3.25238 1.09887 0
M  V30 6495 N 619.324 -0.923095 1.27737 0
M  V30 6496 C 620.552 -1.70525 1.17171 0
M  V30 6497 C 620.967 -1.86847 -0.270881 0
M  V30 6498 O 620.324 -1.38879 -1.18401 0
M  V30 6499 C 620.375 -3.10242 1.85559 0
M  V30 6500 O 620.096 -2.94683 3.24182 0
M  V30 6501 C 621.597 -4.04586 1.81176 0
M  V30 6502 H 618.817 -0.533347 0.407163 0
M  V30 6503 H 621.361 -1.15599 1.68692 0
M  V30 6504 H 619.516 -3.62014 1.3793 0
M  V30 6505 H 619.93 -3.83045 3.58297 0
M  V30 6506 H 621.404 -5.00119 2.33633 0
M  V30 6507 H 621.881 -4.3218 0.782099 0
M  V30 6508 H 622.487 -3.58741 2.2844 0
M  V30 6509 N 620.802 -1.09834 -1.13024 0
M  V30 6510 C 622.213 -0.855651 -1.65938 0
M  V30 6511 C 622.564 0.615159 -1.86307 0
M  V30 6512 O 621.689 1.47335 -1.58497 0
M  V30 6513 C 622.284 -1.5467 -3.01434 0
M  V30 6514 C 620.843 -1.35088 -3.51323 0
M  V30 6515 C 619.99 -1.6001 -2.26478 0
M  V30 6516 H 622.941 -1.25691 -0.968889 0
M  V30 6517 H 622.962 -0.982179 -3.67605 0
M  V30 6518 H 622.474 -2.61715 -2.86578 0
M  V30 6519 H 620.575 -0.30179 -3.71376 0
M  V30 6520 H 620.688 -2.0886 -4.31178 0
M  V30 6521 H 619.052 -1.02246 -2.33276 0
M  V30 6522 H 619.835 -2.68293 -2.14182 0
M  V30 6523 N 622.28 1.30327 -0.886154 0
M  V30 6524 C 623.526 1.96388 -0.505941 0
M  V30 6525 C 623.859 1.69784 0.942712 0
M  V30 6526 O 623.134 1.00322 1.6663 0
M  V30 6527 C 623.417 3.51488 -0.782826 0
M  V30 6528 C 623.27 3.87603 -2.28219 0
M  V30 6529 C 624.589 4.39331 -0.260128 0
M  V30 6530 H 621.708 0.713327 -0.185292 0
M  V30 6531 H 624.35 1.54178 -1.11036 0
M  V30 6532 H 622.5 3.87572 -0.268399 0
M  V30 6533 H 624.172 3.61537 -2.86512 0
M  V30 6534 H 622.415 3.3563 -2.74837 0
M  V30 6535 H 623.086 4.95806 -2.42653 0
M  V30 6536 H 625.562 4.10162 -0.700444 0
M  V30 6537 H 624.438 5.46769 -0.483179 0
M  V30 6538 H 624.699 4.34072 0.838674 0
M  V30 6539 N 623.758 0.647228 1.43697 0
M  V30 6540 C 625.004 0.158422 2.0218 0
M  V30 6541 C 625.337 -1.22233 1.50907 0
M  V30 6542 O 624.612 -1.81478 0.699702 0
M  V30 6543 C 624.895 0.1627 3.59732 0
M  V30 6544 C 624.748 1.57694 4.21251 0
M  V30 6545 C 626.067 -0.504138 4.37203 0
M  V30 6546 H 623.186 0.059042 0.734631 0
M  V30 6547 H 625.828 0.826772 1.71069 0
M  V30 6548 H 623.978 -0.406414 3.86368 0
M  V30 6549 H 625.65 2.19618 4.05667 0
M  V30 6550 H 623.893 2.12603 3.7813 0
M  V30 6551 H 624.564 1.53183 5.3032 0
M  V30 6552 H 627.04 -0.0199841 4.16095 0
M  V30 6553 H 625.916 -0.470394 5.46881 0
M  V30 6554 H 626.177 -1.57726 4.13007 0
M  V30 6555 N 625.236 -1.5273 0.388769 0
M  V30 6556 C 626.483 -2.01573 -0.19359 0
M  V30 6557 C 626.811 -1.27525 -1.46859 0
M  V30 6558 O 626.066 -0.363926 -1.92286 0
M  V30 6559 C 626.365 -3.53765 -0.508445 0
M  V30 6560 C 626.031 -4.4582 0.674947 0
M  V30 6561 C 624.693 -4.70703 0.999596 0
M  V30 6562 C 627.045 -5.00138 1.46666 0
M  V30 6563 C 624.373 -5.47155 2.11751 0
M  V30 6564 C 626.725 -5.77812 2.57518 0
M  V30 6565 C 625.389 -6.00975 2.90492 0
M  V30 6566 H 624.659 -0.737606 -0.0708397 0
M  V30 6567 H 627.306 -1.84134 0.526006 0
M  V30 6568 H 625.611 -3.69274 -1.30936 0
M  V30 6569 H 627.308 -3.8905 -0.971664 0
M  V30 6570 H 623.898 -4.26616 0.411906 0
M  V30 6571 H 628.082 -4.8084 1.22909 0
M  V30 6572 H 623.338 -5.63314 2.3767 0
M  V30 6573 H 627.512 -6.18904 3.19267 0
M  V30 6574 H 625.139 -6.59998 3.77236 0
M  V30 6575 N 626.714 -0.118576 -1.57153 0
M  V30 6576 C 627.939 0.550582 -1.99958 0
M  V30 6577 C 628.364 1.59458 -0.997736 0
M  V30 6578 O 627.722 1.81274 0.0306269 0
M  V30 6579 C 627.77 1.15379 -3.41643 0
M  V30 6580 O 626.874 2.26932 -3.44348 0
M  V30 6581 H 626.215 0.137567 -0.649593 0
M  V30 6582 H 628.745 -0.206926 -2.03551 0
M  V30 6583 H 628.755 1.48942 -3.79843 0
M  V30 6584 H 627.43 0.389087 -4.14076 0
M  V30 6585 H 626.007 1.94812 -3.17967 0
M  V30 6586 N 628.193 1.56834 0.155195 0
M  V30 6587 C 629.103 2.009 1.21146 0
M  V30 6588 C 630.119 0.923029 1.475 0
M  V30 6589 O 631.295 1.23189 1.59331 0
M  V30 6590 C 628.36 2.37378 2.52691 0
M  V30 6591 C 627.421 3.59883 2.34057 0
M  V30 6592 C 626.654 3.94612 3.59329 0
M  V30 6593 O 626.877 3.30104 4.65175 0
M  V30 6594 O 625.811 4.87895 3.52479 0
M  V30 6595 H 629.637 2.9105 0.867371 0
M  V30 6596 H 627.222 1.44916 0.363298 0
M  V30 6597 H 629.104 2.61737 3.3026 0
M  V30 6598 H 627.779 1.50385 2.86646 0
M  V30 6599 H 626.686 3.40722 1.54465 0
M  V30 6600 H 628.019 4.47468 2.0502 0
M  V30 6601 N 629.671 -0.424282 1.51781 0
M  V30 6602 C 630.896 -1.19928 1.6921 0
M  V30 6603 C 631.321 -1.8392 0.394355 0
M  V30 6604 O 630.679 -1.69371 -0.646778 0
M  V30 6605 C 630.727 -2.24937 2.81843 0
M  V30 6606 O 629.831 -3.3073 2.46356 0
M  V30 6607 H 629.172 -0.35078 0.563781 0
M  V30 6608 H 631.702 -0.499401 1.98412 0
M  V30 6609 H 631.712 -2.69512 3.06312 0
M  V30 6610 H 630.387 -1.77742 3.76006 0
M  V30 6611 H 628.964 -2.9154 2.32505 0
M  V30 6612 N 631.149 -1.42148 -0.680565 0
M  V30 6613 C 632.565 -1.24947 -0.992995 0
M  V30 6614 C 632.765 -0.149527 -2.00944 0
M  V30 6615 O 631.821 0.481145 -2.47873 0
M  V30 6616 C 633.134 -2.60426 -1.5033 0
M  V30 6617 C 634.682 -2.67733 -1.62137 0
M  V30 6618 C 635.157 -4.03564 -2.16565 0
M  V30 6619 N 636.648 -4.05488 -2.23905 0
M  V30 6620 C 637.383 -5.07401 -2.67081 0
M  V30 6621 N 636.879 -6.19698 -3.09751 0
M  V30 6622 N 638.672 -4.94758 -2.66778 0
M  V30 6623 H 630.823 -2.12399 -0.0074788 0
M  V30 6624 H 633.086 -0.94571 -0.0658529 0
M  V30 6625 H 632.792 -3.41743 -0.830947 0
M  V30 6626 H 632.666 -2.83949 -2.483 0
M  V30 6627 H 635.053 -1.86765 -2.2848 0
M  V30 6628 H 635.134 -2.48004 -0.626713 0
M  V30 6629 H 634.778 -4.84987 -1.50833 0
M  V30 6630 H 634.708 -4.20641 -3.1681 0
M  V30 6631 H 637.199 -3.24415 -1.93812 0
M  V30 6632 H 637.512 -6.93318 -3.41365 0
M  V30 6633 H 635.857 -6.23212 -3.07623 0
M  V30 6634 H 639.048 -4.06105 -2.32801 0
M  V30 6635 H 639.221 -5.74317 -3.00107 0
M  V30 6636 N 632.627 0.916307 -1.28225 0
M  V30 6637 C 633.875 1.6619 -1.15002 0
M  V30 6638 C 634.196 1.92642 0.302329 0
M  V30 6639 O 633.466 1.54076 1.20985 0
M  V30 6640 H 632.046 0.615964 -0.422608 0
M  V30 6641 H 634.708 1.09963 -1.60917 0
M  V30 6642 H 633.804 2.62533 -1.68769 0
M  V30 6643 N 634.105 1.10431 1.1244 0
M  V30 6644 C 635.516 0.864439 1.65482 0
M  V30 6645 C 635.867 -0.60527 1.8663 0
M  V30 6646 O 634.992 -1.46492 1.59276 0
M  V30 6647 C 635.587 1.56267 3.0061 0
M  V30 6648 C 634.146 1.3695 3.50602 0
M  V30 6649 C 633.293 1.61209 2.25626 0
M  V30 6650 H 636.244 1.26203 0.962209 0
M  V30 6651 H 636.265 1.00166 3.67079 0
M  V30 6652 H 635.777 2.63231 2.85186 0
M  V30 6653 H 633.878 0.321481 3.71211 0
M  V30 6654 H 633.991 2.11143 4.30064 0
M  V30 6655 H 632.355 1.03482 2.32731 0
M  V30 6656 H 633.138 2.69425 2.12756 0
M  V30 6657 N 635.583 -1.29855 0.893053 0
M  V30 6658 C 636.546 -2.26183 0.370687 0
M  V30 6659 C 637.546 -1.53108 -0.491385 0
M  V30 6660 O 638.736 -1.71643 -0.297386 0
M  V30 6661 C 635.868 -3.37633 -0.470827 0
M  V30 6662 H 637.061 -2.73903 1.22135 0
M  V30 6663 H 634.614 -1.41183 0.67061 0
M  V30 6664 H 635.349 -2.95241 -1.34175 0
M  V30 6665 H 635.134 -3.91825 0.146784 0
M  V30 6666 H 636.624 -4.09313 -0.827825 0
M  V30 6667 N 637.061 -0.65484 -1.43351 0
M  V30 6668 C 637.991 0.0221809 -2.33489 0
M  V30 6669 C 638.972 0.810272 -1.49561 0
M  V30 6670 O 640.157 0.771426 -1.78221 0
M  V30 6671 C 637.287 0.988117 -3.32947 0
M  V30 6672 C 636.241 0.310026 -4.26876 0
M  V30 6673 C 635.567 1.38752 -5.16384 0
M  V30 6674 C 636.867 -0.798589 -5.16159 0
M  V30 6675 H 638.561 -0.730571 -2.9035 0
M  V30 6676 H 636.107 -0.352773 -1.39612 0
M  V30 6677 H 638.06 1.47067 -3.94904 0
M  V30 6678 H 636.784 1.77205 -2.74346 0
M  V30 6679 H 635.443 -0.152097 -3.66284 0
M  V30 6680 H 635.091 2.16293 -4.54121 0
M  V30 6681 H 634.791 0.939051 -5.80048 0
M  V30 6682 H 636.315 1.87141 -5.81215 0
M  V30 6683 H 637.729 -0.398126 -5.71916 0
M  V30 6684 H 636.126 -1.17163 -5.88552 0
M  V30 6685 H 637.196 -1.65588 -4.55751 0
M  V30 6686 N 638.539 1.52521 -0.396863 0
M  V30 6687 C 639.767 2.06091 0.18275 0
M  V30 6688 C 640.182 1.26796 1.39886 0
M  V30 6689 O 639.539 0.316585 1.79733 0
M  V30 6690 C 639.59 3.57362 0.545377 0
M  V30 6691 O 639.311 4.33656 -0.622428 0
M  V30 6692 C 640.812 4.27305 1.18004 0
M  V30 6693 H 638.032 0.670504 0.025789 0
M  V30 6694 H 640.576 1.96561 -0.564276 0
M  V30 6695 H 638.731 3.66941 1.2423 0
M  V30 6696 H 639.145 5.23507 -0.322662 0
M  V30 6697 H 640.619 5.34366 1.38408 0
M  V30 6698 H 641.096 3.83 2.1496 0
M  V30 6699 H 641.702 4.22064 0.523671 0
M  V30 6700 N 640.017 0.126909 1.57088 0
M  V30 6701 C 641.433 -0.229641 1.57939 0
M  V30 6702 C 641.633 -1.66145 1.1401 0
M  V30 6703 O 640.689 -2.3843 0.831119 0
M  V30 6704 C 642.002 0.0108648 3.00698 0
M  V30 6705 C 643.55 -0.054418 3.12953 0
M  V30 6706 C 644.025 0.158497 4.57726 0
M  V30 6707 N 645.516 0.104735 4.63082 0
M  V30 6708 C 646.251 0.24427 5.72879 0
M  V30 6709 N 645.747 0.440415 6.91399 0
M  V30 6710 N 647.54 0.183286 5.61801 0
M  V30 6711 H 639.691 1.06203 1.83942 0
M  V30 6712 H 641.954 0.418834 0.85046 0
M  V30 6713 H 641.66 1.00102 3.37154 0
M  V30 6714 H 641.534 -0.717512 3.70313 0
M  V30 6715 H 643.921 -1.0351 2.7635 0
M  V30 6716 H 644.002 0.705967 2.45865 0
M  V30 6717 H 643.646 1.13619 4.95028 0
M  V30 6718 H 643.576 -0.62197 5.22914 0
M  V30 6719 H 646.067 -0.0430298 3.77876 0
M  V30 6720 H 646.38 0.537536 7.70928 0
M  V30 6721 H 644.725 0.476488 6.93365 0
M  V30 6722 H 647.916 0.0309561 4.6809 0
M  V30 6723 H 648.089 0.295471 6.47326 0
M  V30 6724 N 641.495 -1.56914 -0.146875 0
M  V30 6725 C 642.425 -2.01308 -1.1831 0
M  V30 6726 C 643.406 -0.892664 -1.44795 0
M  V30 6727 O 644.591 -1.16048 -1.55713 0
M  V30 6728 C 641.721 -2.3938 -2.51624 0
M  V30 6729 C 640.675 -3.54608 -2.3966 0
M  V30 6730 C 640.001 -3.78493 -3.77686 0
M  V30 6731 C 641.301 -4.87269 -1.88058 0
M  V30 6732 H 642.995 -2.88123 -0.813964 0
M  V30 6733 H 640.541 -1.38615 -0.3901 0
M  V30 6734 H 642.494 -2.69037 -3.24341 0
M  V30 6735 H 641.218 -1.49502 -2.90373 0
M  V30 6736 H 639.877 -3.25116 -1.69396 0
M  V30 6737 H 639.525 -2.85866 -4.13871 0
M  V30 6738 H 639.225 -4.56039 -3.70543 0
M  V30 6739 H 640.749 -4.10576 -4.51951 0
M  V30 6740 H 642.163 -5.15644 -2.50568 0
M  V30 6741 H 640.56 -5.68622 -1.91805 0
M  V30 6742 H 641.63 -4.77634 -0.836277 0
M  V30 6743 N 642.974 0.416227 -1.52004 0
M  V30 6744 C 643.924 1.50558 -1.7122 0
M  V30 6745 C 644.908 1.50613 -0.56609 0
M  V30 6746 O 646.1 1.56709 -0.822874 0
M  V30 6747 C 643.229 2.88556 -1.85984 0
M  V30 6748 C 642.315 2.93177 -3.06445 0
M  V30 6749 N 642.706 2.67505 -4.29272 0
M  V30 6750 C 641.004 3.24343 -3.06133 0
M  V30 6751 C 641.705 2.78511 -5.10692 0
M  V30 6752 N 640.681 3.11087 -4.45787 0
M  V30 6753 H 644.483 1.29494 -2.63834 0
M  V30 6754 H 641.997 0.62384 -1.4994 0
M  V30 6755 H 643.994 3.66954 -1.97865 0
M  V30 6756 H 642.654 3.10624 -0.945654 0
M  V30 6757 H 643.665 2.42033 -4.57865 0
M  V30 6758 H 640.342 3.52051 -2.24425 0
M  V30 6759 H 641.732 2.62438 -6.18527 0
M  V30 6760 N 644.452 1.42507 0.673017 0
M  V30 6761 C 645.415 1.4582 1.76831 0
M  V30 6762 C 646.415 0.345542 1.57043 0
M  V30 6763 O 647.605 0.606447 1.63303 0
M  V30 6764 C 644.737 1.29158 3.15485 0
M  V30 6765 H 645.93 2.43345 1.7528 0
M  V30 6766 H 643.483 1.28981 0.882817 0
M  V30 6767 H 644.218 0.325626 3.22661 0
M  V30 6768 H 644.003 2.09797 3.31252 0
M  V30 6769 H 645.493 1.34363 3.95394 0
M  V30 6770 N 645.93 -0.909495 1.28709 0
M  V30 6771 C 646.863 -2.01388 1.07323 0
M  V30 6772 C 647.841 -1.62596 -0.0119757 0
M  V30 6773 O 649.025 -1.88003 0.136796 0
M  V30 6774 C 646.152 -3.32755 0.631797 0
M  V30 6775 C 645.198 -3.90532 1.71428 0
M  V30 6776 S 646.031 -4.20853 3.31124 0
M  V30 6777 C 647.187 -5.55276 2.88825 0
M  V30 6778 H 647.42 -2.19219 2.00824 0
M  V30 6779 H 644.953 -1.05489 1.12745 0
M  V30 6780 H 646.911 -4.08702 0.38381 0
M  V30 6781 H 645.572 -3.12818 -0.283451 0
M  V30 6782 H 644.765 -4.85385 1.35712 0
M  V30 6783 H 644.367 -3.21237 1.91528 0
M  V30 6784 H 646.659 -6.35341 2.3526 0
M  V30 6785 H 647.602 -5.95907 3.82492 0
M  V30 6786 H 648.01 -5.16666 2.27412 0
M  V30 6787 N 647.408 -1.11026 -1.11852 0
M  V30 6788 C 648.371 -0.768006 -2.1595 0
M  V30 6789 C 649.371 0.210538 -1.59416 0
M  V30 6790 O 650.561 -0.0133978 -1.74195 0
M  V30 6791 C 647.693 -0.138678 -3.40618 0
M  V30 6792 H 648.886 -1.69012 -2.4774 0
M  V30 6793 H 646.439 -0.911578 -1.26964 0
M  V30 6794 H 647.174 0.793872 -3.14433 0
M  V30 6795 H 646.959 -0.843012 -3.8293 0
M  V30 6796 H 648.449 0.0848039 -4.17514 0
M  V30 6797 N 648.886 1.2938 -0.899927 0
M  V30 6798 C 650.302 1.48052 -0.596059 0
M  V30 6799 C 650.502 1.82114 0.862372 0
M  V30 6800 O 649.558 1.91774 1.64253 0
M  V30 6801 C 650.871 2.59332 -1.52208 0
M  V30 6802 C 652.419 2.73208 -1.5273 0
M  V30 6803 C 652.894 3.87617 -2.43961 0
M  V30 6804 N 654.385 3.9495 -2.42009 0
M  V30 6805 C 655.12 4.82824 -3.09303 0
M  V30 6806 N 654.616 5.75387 -3.85877 0
M  V30 6807 N 656.409 4.76317 -2.98459 0
M  V30 6808 H 648.56 1.05546 -1.8432 0
M  V30 6809 H 650.823 0.524314 -0.78981 0
M  V30 6810 H 650.529 2.41029 -2.56121 0
M  V30 6811 H 650.403 3.56139 -1.24278 0
M  V30 6812 H 652.79 2.90908 -0.495614 0
M  V30 6813 H 652.871 1.76975 -1.84698 0
M  V30 6814 H 652.515 3.70672 -3.47224 0
M  V30 6815 H 652.445 4.83218 -2.09303 0
M  V30 6816 H 654.936 3.28744 -1.86375 0
M  V30 6817 H 655.249 6.39235 -4.34279 0
M  V30 6818 H 653.594 5.75272 -3.89984 0
M  V30 6819 H 656.785 4.0299 -2.38152 0
M  V30 6820 H 656.958 5.44589 -3.51179 0
M  V30 6821 N 650.364 0.662433 1.43002 0
M  V30 6822 C 651.641 0.109096 1.95296 0
M  V30 6823 C 652.021 -1.37313 1.60338 0
M  V30 6824 O 651.369 -2.1032 0.893187 0
M  V30 6825 C 651.579 0.365096 3.47085 0
M  V30 6826 C 652.927 0.274964 4.23709 0
M  V30 6827 O 653.951 0.29816 3.5495 0
M  V30 6828 O 652.81 0.206549 5.4611 0
M  V30 6829 H 649.904 -0.00429724 0.826989 0
M  V30 6830 H 652.45 0.736308 1.52894 0
M  V30 6831 H 651.222 1.39237 3.65689 0
M  V30 6832 H 650.845 -0.294733 3.96506 0
M  V30 6833 N 651.842 -1.52309 0.404946 0
M  V30 6834 C 653.253 -1.86585 -0.0655926 0
M  V30 6835 C 653.604 -1.3239 -1.44801 0
M  V30 6836 O 652.729 -0.6615 -2.06042 0
M  V30 6837 C 653.324 -3.38566 -0.125801 0
M  V30 6838 C 651.883 -3.72497 -0.540666 0
M  V30 6839 C 651.03 -2.75806 0.287487 0
M  V30 6840 H 653.981 -1.45995 0.622185 0
M  V30 6841 H 654.002 -3.68658 -0.941888 0
M  V30 6842 H 653.514 -3.77981 0.880473 0
M  V30 6843 H 651.615 -3.38659 -1.55373 0
M  V30 6844 H 651.728 -4.78234 -0.287956 0
M  V30 6845 H 650.092 -2.53474 -0.249561 0
M  V30 6846 H 650.875 -3.18059 1.29203 0
M  V30 6847 N 653.32 -0.135238 -1.57019 0
M  V30 6848 C 654.27 0.820408 -2.12728 0
M  V30 6849 C 655.254 1.21735 -1.05211 0
M  V30 6850 O 656.446 1.18574 -1.31413 0
M  V30 6851 C 653.575 2.06414 -2.74314 0
M  V30 6852 C 652.661 1.69083 -3.88937 0
M  V30 6853 N 653.052 1.0251 -4.95303 0
M  V30 6854 C 651.35 1.98434 -3.99425 0
M  V30 6855 C 652.051 0.846749 -5.75504 0
M  V30 6856 N 651.027 1.3769 -5.25873 0
M  V30 6857 H 654.829 0.302426 -2.9234 0
M  V30 6858 H 652.343 0.0667009 -1.62263 0
M  V30 6859 H 654.34 2.75863 -3.12579 0
M  V30 6860 H 653 2.58741 -1.96171 0
M  V30 6861 H 654.011 0.687207 -5.1332 0
M  V30 6862 H 650.688 2.52693 -3.32344 0
M  V30 6863 H 652.078 0.322949 -6.71123 0
M  V30 6864 N 654.798 1.5699 0.138552 0
M  V30 6865 C 656.023 1.88344 0.86841 0
M  V30 6866 C 656.448 0.725159 1.7356 0
M  V30 6867 O 655.806 -0.324992 1.78363 0
M  V30 6868 C 655.854 3.18334 1.69398 0
M  V30 6869 O 654.958 3.02863 2.79907 0
M  V30 6870 H 654.299 0.618577 0.241367 0
M  V30 6871 H 656.829 2.04207 0.126826 0
M  V30 6872 H 656.839 3.50567 2.08726 0
M  V30 6873 H 655.514 4.02238 1.05725 0
M  V30 6874 H 654.091 2.82056 2.43924 0
M  V30 6875 N 656.276 -0.40816 1.52223 0
M  V30 6876 C 657.206 -1.5042 1.78595 0
M  V30 6877 C 658.187 -1.57723 0.636974 0
M  V30 6878 O 659.372 -1.72982 0.882664 0
M  V30 6879 C 656.502 -2.88232 1.93751 0
M  V30 6880 C 655.456 -2.95779 3.09352 0
M  V30 6881 C 654.782 -4.35855 3.09732 0
M  V30 6882 C 656.082 -2.67175 4.48793 0
M  V30 6883 H 657.776 -1.28601 2.70374 0
M  V30 6884 H 655.322 -0.617221 1.30101 0
M  V30 6885 H 657.275 -3.64895 2.10783 0
M  V30 6886 H 655.999 -3.11347 0.986443 0
M  V30 6887 H 654.658 -2.21561 2.92072 0
M  V30 6888 H 654.306 -4.55981 2.12346 0
M  V30 6889 H 654.006 -4.41829 3.87377 0
M  V30 6890 H 655.53 -5.14451 3.28895 0
M  V30 6891 H 656.944 -3.3356 4.66273 0
M  V30 6892 H 655.341 -2.84523 5.28362 0
M  V30 6893 H 656.411 -1.62609 4.56822 0
M  V30 6894 N 657.755 -1.42862 -0.66545 0
M  V30 6895 C 659.001 -1.4504 -1.426 0
M  V30 6896 C 659.356 -0.0690217 -1.92276 0
M  V30 6897 O 658.649 0.91036 -1.68591 0
M  V30 6898 C 658.843 -2.4175 -2.63233 0
M  V30 6899 C 658.672 -3.89155 -2.25362 0
M  V30 6900 C 657.442 -4.57619 -2.14273 0
M  V30 6901 C 659.64 -4.79326 -1.86417 0
M  V30 6902 N 657.622 -5.90006 -1.69604 0
M  V30 6903 C 658.993 -6.00892 -1.52738 0
M  V30 6904 C 661.048 -4.66696 -1.73492 0
M  V30 6905 C 659.751 -7.11232 -1.0743 0
M  V30 6906 C 661.777 -5.77027 -1.29589 0
M  V30 6907 C 661.139 -6.97712 -0.968393 0
M  V30 6908 H 657.238 -0.585889 -0.517936 0
M  V30 6909 H 659.822 -1.78956 -0.767002 0
M  V30 6910 H 657.993 -2.09881 -3.26809 0
M  V30 6911 H 659.725 -2.34447 -3.29874 0
M  V30 6912 H 656.48 -4.11957 -2.33641 0
M  V30 6913 H 656.904 -6.60249 -1.49666 0
M  V30 6914 H 661.546 -3.7386 -1.97455 0
M  V30 6915 H 659.264 -8.03907 -0.822147 0
M  V30 6916 H 662.85 -5.6927 -1.20095 0
M  V30 6917 H 661.73 -7.81634 -0.63384 0
M  V30 6918 N 659.233 0.902656 -1.29189 0
M  V30 6919 C 660.479 1.65532 -1.17163 0
M  V30 6920 C 660.812 1.92216 0.276879 0
M  V30 6921 O 660.087 1.53048 1.20027 0
M  V30 6922 C 660.37 3.00629 -1.98228 0
M  V30 6923 C 660.223 2.81029 -3.51202 0
M  V30 6924 C 661.542 4.01321 -1.80635 0
M  V30 6925 H 658.661 0.60071 -0.426985 0
M  V30 6926 H 661.303 1.04578 -1.5863 0
M  V30 6927 H 659.453 3.52656 -1.62991 0
M  V30 6928 H 661.125 2.35927 -3.96404 0
M  V30 6929 H 659.368 2.1587 -3.76275 0
M  V30 6930 H 660.039 3.77014 -4.03192 0
M  V30 6931 H 662.515 3.58394 -2.11406 0
M  V30 6932 H 661.391 4.93792 -2.3971 0
M  V30 6933 H 661.652 4.35505 -0.760754 0
M  V30 6934 N 660.711 1.11618 1.11262 0
M  V30 6935 C 661.959 0.864469 1.82678 0
M  V30 6936 C 662.28 -0.611564 1.85162 0
M  V30 6937 O 661.55 -1.44429 1.32352 0
M  V30 6938 H 660.13 0.316821 0.676486 0
M  V30 6939 H 662.792 1.40894 1.34666 0
M  V30 6940 H 661.888 1.23832 2.86482 0
M  V30 6941 N 662.189 -1.289 0.906776 0
M  V30 6942 C 663.435 -1.95919 0.546551 0
M  V30 6943 C 663.79 -1.70126 -0.8986 0
M  V30 6944 O 663.083 -1.00775 -1.62957 0
M  V30 6945 C 663.277 -3.48704 0.783617 0
M  V30 6946 C 663.106 -3.8935 2.25026 0
M  V30 6947 C 661.876 -4.13864 2.89905 0
M  V30 6948 C 664.074 -4.00535 3.22608 0
M  V30 6949 N 662.056 -4.41131 4.26939 0
M  V30 6950 C 663.427 -4.31936 4.44783 0
M  V30 6951 C 665.482 -3.83035 3.18102 0
M  V30 6952 C 664.185 -4.47659 5.63022 0
M  V30 6953 C 666.211 -3.99971 4.35634 0
M  V30 6954 C 665.573 -4.31738 5.5658 0
M  V30 6955 H 661.672 -0.74105 0.249737 0
M  V30 6956 H 664.256 -1.55696 1.16906 0
M  V30 6957 H 662.427 -3.87933 0.190437 0
M  V30 6958 H 664.159 -4.02835 0.38812 0
M  V30 6959 H 660.914 -4.07893 2.40666 0
M  V30 6960 H 661.338 -4.5886 4.97771 0
M  V30 6961 H 665.98 -3.57533 2.25677 0
M  V30 6962 H 663.698 -4.71995 6.55932 0
M  V30 6963 H 667.284 -3.87874 4.33641 0
M  V30 6964 H 666.164 -4.44568 6.4601 0
M  V30 6965 N 663.667 -0.670007 -1.42649 0
M  V30 6966 C 664.577 0.0114788 -2.34597 0
M  V30 6967 C 665.593 0.794055 -1.54825 0
M  V30 6968 O 666.769 0.737472 -1.87412 0
M  V30 6969 C 663.834 0.954436 -3.33304 0
M  V30 6970 C 662.895 0.166925 -4.28975 0
M  V30 6971 C 662.128 1.06497 -5.22967 0
M  V30 6972 O 662.351 2.30446 -5.21777 0
M  V30 6973 O 661.285 0.528347 -5.99577 0
M  V30 6974 H 665.111 -0.745794 -2.944 0
M  V30 6975 H 662.696 -0.430228 -1.43071 0
M  V30 6976 H 664.578 1.49589 -3.93956 0
M  V30 6977 H 663.253 1.69164 -2.7598 0
M  V30 6978 H 662.16 -0.418515 -3.71752 0
M  V30 6979 H 663.493 -0.531067 -4.89327 0
M  V30 6980 N 665.145 1.52092 -0.413018 0
M  V30 6981 C 666.556 1.86617 0.0556967 0
M  V30 6982 C 666.907 1.33156 1.44097 0
M  V30 6983 O 666.032 0.672417 2.05688 0
M  V30 6984 C 666.627 3.38628 0.107844 0
M  V30 6985 C 665.186 3.72778 0.520904 0
M  V30 6986 C 664.333 2.75649 -0.302109 0
M  V30 6987 H 667.284 1.45663 -0.629919 0
M  V30 6988 H 667.305 3.69152 0.922324 0
M  V30 6989 H 666.817 3.77508 -0.900506 0
M  V30 6990 H 664.918 3.39478 1.53575 0
M  V30 6991 H 665.031 4.7838 0.262591 0
M  V30 6992 H 663.395 2.53603 0.236115 0
M  V30 6993 H 664.178 3.17369 -1.30888 0
M  V30 6994 N 666.623 0.143563 1.56945 0
M  V30 6995 C 668.034 -0.37783 1.82837 0
M  V30 6996 C 668.385 -1.64967 1.06209 0
M  V30 6997 O 667.51 -2.14221 0.306291 0
M  V30 6998 C 668.105 -0.692274 3.31652 0
M  V30 6999 C 666.664 -1.1582 3.58138 0
M  V30 7000 C 665.811 -0.17951 2.76718 0
M  V30 7001 H 668.762 0.368317 1.54367 0
M  V30 7002 H 668.783 -1.54729 3.47619 0
M  V30 7003 H 668.295 0.233572 3.87397 0
M  V30 7004 H 666.396 -2.10011 3.07776 0
M  V30 7005 H 666.509 -1.08655 4.66616 0
M  V30 7006 H 664.873 -0.671458 2.4569 0
M  V30 7007 H 665.656 0.739865 3.35233 0
M  V30 7008 N 668.101 -1.57061 -0.130224 0
M  V30 7009 C 669.049 -2.00486 -1.17933 0
M  V30 7010 C 670.043 -0.899933 -1.43519 0
M  V30 7011 O 671.249 -1.08514 -1.43613 0
M  V30 7012 H 667.624 -0.638441 -0.397363 0
M  V30 7013 H 669.595 -2.87848 -0.786501 0
M  V30 7014 C 668.344 -2.41565 -2.50084 0
M  V30 7015 H 667.667 -3.26148 -2.31231 0
M  V30 7016 H 669.107 -2.75757 -3.22078 0
M  V30 7017 C 667.566 -1.27485 -3.11848 0
M  V30 7018 O 668.096 -0.584688 -3.97422 0
M  V30 7019 N 666.302 -1.03478 -2.71552 0
M  V30 7020 H 665.849 -1.59779 -2.02061 0
M  V30 7021 H 665.807 -0.27341 -3.13209 0
M  V30 7022 N 669.579 0.400081 -1.52437 0
M  V30 7023 C 670.99 0.97851 -1.59003 0
M  V30 7024 C 671.341 1.91293 -0.436068 0
M  V30 7025 O 670.466 2.1183 0.442365 0
M  V30 7026 C 671.061 1.78145 -2.88184 0
M  V30 7027 C 669.62 2.30976 -2.97199 0
M  V30 7028 C 668.767 1.11212 -2.54022 0
M  V30 7029 H 671.718 0.180002 -1.57676 0
M  V30 7030 H 671.739 2.63968 -2.74046 0
M  V30 7031 H 671.251 1.1011 -3.72152 0
M  V30 7032 H 669.352 3.02355 -2.17744 0
M  V30 7033 H 669.465 2.61221 -4.01622 0
M  V30 7034 H 667.829 1.46882 -2.08081 0
M  V30 7035 H 668.612 0.447307 -3.40373 0
M  V30 7036 N 671.057 1.43213 0.657864 0
M  V30 7037 C 672.303 1.45795 1.41829 0
M  V30 7038 C 672.658 0.0792176 1.92237 0
M  V30 7039 O 671.951 -0.901406 1.69072 0
M  V30 7040 C 672.145 2.43143 2.61947 0
M  V30 7041 C 671.974 3.90345 2.23295 0
M  V30 7042 C 670.744 4.58749 2.11843 0
M  V30 7043 C 672.942 4.80308 1.83873 0
M  V30 7044 N 670.924 5.90898 1.66473 0
M  V30 7045 C 672.295 6.01693 1.49549 0
M  V30 7046 C 674.35 4.67609 1.71015 0
M  V30 7047 C 673.053 7.11792 1.03657 0
M  V30 7048 C 675.079 5.77707 1.26527 0
M  V30 7049 C 674.441 6.98215 0.931379 0
M  V30 7050 H 670.54 0.588628 0.514822 0
M  V30 7051 H 673.124 1.7936 0.7575 0
M  V30 7052 H 671.295 2.11612 3.25692 0
M  V30 7053 H 673.027 2.36193 3.28626 0
M  V30 7054 H 669.782 4.1319 2.31453 0
M  V30 7055 H 670.206 6.61034 1.46163 0
M  V30 7056 H 674.848 3.74902 1.95469 0
M  V30 7057 H 672.566 8.04332 0.779502 0
M  V30 7058 H 676.152 5.69899 1.17074 0
M  V30 7059 H 675.032 7.81959 0.592379 0
M  V30 7060 N 672.536 -0.895792 1.29666 0
M  V30 7061 C 673.947 -1.46195 1.1612 0
M  V30 7062 C 674.298 -1.94699 -0.242195 0
M  V30 7063 O 673.423 -1.8406 -1.13802 0
M  V30 7064 C 674.018 -2.65718 2.10189 0
M  V30 7065 C 672.577 -3.18458 2.00653 0
M  V30 7066 C 671.724 -1.91149 2.00891 0
M  V30 7067 H 674.675 -0.706756 1.42094 0
M  V30 7068 H 674.696 -3.4158 1.6764 0
M  V30 7069 H 674.208 -2.30386 3.12321 0
M  V30 7070 H 672.309 -3.58474 1.01623 0
M  V30 7071 H 672.422 -3.82491 2.88509 0
M  V30 7072 H 670.786 -2.09021 1.45542 0
M  V30 7073 H 671.569 -1.58089 3.04734 0
M  V30 7074 N 674.014 -1.12206 -1.10668 0
M  V30 7075 C 674.946 -0.74552 -2.16736 0
M  V30 7076 C 675.959 0.226696 -1.61214 0
M  V30 7077 O 677.148 0.0083936 -1.78498 0
M  V30 7078 C 674.248 -0.0823368 -3.388 0
M  V30 7079 C 673.421 -1.08341 -4.2377 0
M  V30 7080 C 672.48 -0.448292 -5.24287 0
M  V30 7081 O 671.506 -1.10458 -5.58379 0
M  V30 7082 N 672.708 0.785336 -5.75163 0
M  V30 7083 H 675.473 -1.65818 -2.49649 0
M  V30 7084 H 673.034 -1.01335 -1.26265 0
M  V30 7085 H 675.026 0.354476 -4.03145 0
M  V30 7086 H 673.596 0.733041 -3.03884 0
M  V30 7087 H 672.816 -1.69792 -3.55759 0
M  V30 7088 H 674.104 -1.76042 -4.77375 0
M  V30 7089 H 673.502 1.33755 -5.4966 0
M  V30 7090 H 672.059 1.16501 -6.41304 0
M  V30 7091 N 675.492 1.28418 -0.913599 0
M  V30 7092 C 676.74 1.94596 -0.545594 0
M  V30 7093 C 677.061 1.7227 0.913668 0
M  V30 7094 O 676.331 1.06233 1.64595 0
M  V30 7095 H 674.911 0.720065 -0.198783 0
M  V30 7096 H 677.573 1.56404 -1.16292 0
M  V30 7097 H 676.669 3.03202 -0.739911 0
M  V30 7098 N 676.97 0.677563 1.42291 0
M  V30 7099 C 678.2 0.209155 2.05539 0
M  V30 7100 C 678.608 -1.13987 1.51009 0
M  V30 7101 O 677.951 -1.71976 0.645764 0
M  V30 7102 C 678.013 0.0697758 3.59432 0
M  V30 7103 C 677.677 1.34795 4.36668 0
M  V30 7104 C 678.674 2.28201 4.67141 0
M  V30 7105 C 676.359 1.59632 4.76259 0
M  V30 7106 C 678.353 3.44718 5.36142 0
M  V30 7107 C 676.04 2.76437 5.45 0
M  V30 7108 C 677.038 3.68805 5.74867 0
M  V30 7109 O 676.726 4.83567 6.42198 0
M  V30 7110 H 676.458 0.0986202 0.668768 0
M  V30 7111 H 679.012 0.925483 1.83368 0
M  V30 7112 H 677.242 -0.702157 3.80272 0
M  V30 7113 H 678.931 -0.359115 4.04308 0
M  V30 7114 H 679.697 2.10264 4.37052 0
M  V30 7115 H 675.576 0.886073 4.52404 0
M  V30 7116 H 679.12 4.16833 5.59371 0
M  V30 7117 H 675.017 2.94299 5.74507 0
M  V30 7118 H 675.785 4.83147 6.6069 0
M  V30 7119 N 678.448 -1.51871 0.421078 0
M  V30 7120 C 679.694 -2.02237 -0.151014 0
M  V30 7121 C 680.027 -1.30554 -1.43768 0
M  V30 7122 O 679.302 -0.41546 -1.90011 0
M  V30 7123 C 679.585 -3.5802 -0.386482 0
M  V30 7124 C 679.438 -4.40339 0.9177 0
M  V30 7125 C 680.757 -4.24444 -1.16342 0
M  V30 7126 H 677.876 -0.735062 -0.0534102 0
M  V30 7127 H 680.518 -1.81656 0.556888 0
M  V30 7128 H 678.668 -3.75688 -0.989494 0
M  V30 7129 H 680.34 -4.34357 1.55344 0
M  V30 7130 H 678.583 -4.06073 1.526 0
M  V30 7131 H 679.254 -5.47451 0.707187 0
M  V30 7132 H 681.73 -4.10948 -0.652788 0
M  V30 7133 H 680.606 -5.33358 -1.29693 0
M  V30 7134 H 680.867 -3.84204 -2.18724 0
M  V30 7135 N 679.926 -0.151884 -1.56866 0
M  V30 7136 C 681.175 0.497992 -1.95456 0
M  V30 7137 C 681.488 1.6569 -1.03953 0
M  V30 7138 O 682.694 2.37173 -1.32142 0
M  V30 7139 C 681.15 0.93732 -3.4748 0
M  V30 7140 C 680.758 -0.194921 -4.47576 0
M  V30 7141 C 682.502 1.55671 -3.94926 0
M  V30 7142 C 680.409 0.26295 -5.90815 0
M  V30 7143 H 679.339 0.189811 -0.729717 0
M  V30 7144 H 681.99 -0.237011 -1.81963 0
M  V30 7145 H 680.372 1.72773 -3.56322 0
M  V30 7146 H 681.546 -0.971951 -4.50433 0
M  V30 7147 H 679.861 -0.72303 -4.10075 0
M  V30 7148 H 682.458 1.91099 -4.99385 0
M  V30 7149 H 682.801 2.44748 -3.36755 0
M  V30 7150 H 683.334 0.831109 -3.89021 0
M  V30 7151 H 680.073 -0.592568 -6.52816 0
M  V30 7152 H 679.593 1.00575 -5.91308 0
M  V30 7153 H 681.272 0.713333 -6.43056 0
M  V30 7154 N 681.404 1.57128 0.121893 0
M  V30 7155 C 682.314 2.03425 1.16857 0
M  V30 7156 C 683.33 0.954108 1.45509 0
M  V30 7157 O 684.506 1.26541 1.56682 0
M  V30 7158 C 681.571 2.42685 2.47599 0
M  V30 7159 C 680.632 3.64767 2.2637 0
M  V30 7160 C 679.865 4.02145 3.50878 0
M  V30 7161 O 680.088 3.39897 4.58068 0
M  V30 7162 O 679.022 4.95262 3.42051 0
M  V30 7163 H 682.848 2.92825 0.80544 0
M  V30 7164 H 680.433 1.45654 0.332477 0
M  V30 7165 H 682.315 2.68684 3.24634 0
M  V30 7166 H 680.99 1.56432 2.83392 0
M  V30 7167 H 679.897 3.43922 1.47203 0
M  V30 7168 H 681.23 4.51716 1.95482 0
M  V30 7169 N 682.882 -0.391992 1.52647 0
M  V30 7170 C 684.128 -1.13563 1.68745 0
M  V30 7171 C 684.483 -1.87745 0.420685 0
M  V30 7172 O 683.776 -1.82434 -0.585529 0
M  V30 7173 C 683.97 -2.14401 2.85949 0
M  V30 7174 C 683.799 -1.50124 4.23902 0
M  V30 7175 C 682.569 -1.2666 4.89168 0
M  V30 7176 C 684.767 -0.952933 5.05395 0
M  V30 7177 N 682.749 -0.584555 6.11111 0
M  V30 7178 C 684.12 -0.398784 6.18716 0
M  V30 7179 C 686.175 -0.849053 4.90607 0
M  V30 7180 C 684.878 0.249084 7.18869 0
M  V30 7181 C 686.904 -0.215011 5.91009 0
M  V30 7182 C 686.266 0.328382 7.03634 0
M  V30 7183 H 682.365 -0.401628 0.670984 0
M  V30 7184 H 684.949 -0.425585 1.89992 0
M  V30 7185 H 683.12 -2.82746 2.66288 0
M  V30 7186 H 684.852 -2.8125 2.90999 0
M  V30 7187 H 681.607 -1.54078 4.47836 0
M  V30 7188 H 682.031 -0.259663 6.76502 0
M  V30 7189 H 686.673 -1.25497 4.03745 0
M  V30 7190 H 684.391 0.667019 8.05342 0
M  V30 7191 H 687.977 -0.135921 5.81641 0
M  V30 7192 H 686.857 0.811257 7.79992 0
M  V30 7193 N 684.36 -1.4356 -0.65026 0
M  V30 7194 C 685.608 -1.45046 -1.40734 0
M  V30 7195 C 685.929 -0.0769822 -1.94848 0
M  V30 7196 O 685.199 0.888098 -1.74613 0
M  V30 7197 H 683.779 -0.534034 -0.522318 0
M  V30 7198 H 686.441 -1.79186 -0.766703 0
M  V30 7199 H 685.537 -2.16476 -2.24822 0
M  V30 7200 N 685.838 0.888903 -1.30139 0
M  V30 7201 C 686.768 2.01046 -1.18755 0
M  V30 7202 C 687.749 1.69916 -0.0791438 0
M  V30 7203 O 688.934 1.92445 -0.260498 0
M  V30 7204 C 686.064 3.36109 -0.874518 0
M  V30 7205 C 685.018 3.81486 -1.94043 0
M  V30 7206 C 684.344 5.13796 -1.48047 0
M  V30 7207 C 685.644 4.00637 -3.35093 0
M  V30 7208 H 687.338 2.10828 -2.12584 0
M  V30 7209 H 684.884 1.01298 -1.02346 0
M  V30 7210 H 686.837 4.14089 -0.781548 0
M  V30 7211 H 685.561 3.26449 0.0994519 0
M  V30 7212 H 684.22 3.05731 -2.02297 0
M  V30 7213 H 683.868 5.0056 -0.494878 0
M  V30 7214 H 683.568 5.45127 -2.19341 0
M  V30 7215 H 685.092 5.94305 -1.40121 0
M  V30 7216 H 686.506 4.69067 -3.2962 0
M  V30 7217 H 684.903 4.43339 -4.04438 0
M  V30 7218 H 685.973 3.0462 -3.77273 0
M  V30 7219 N 687.317 1.12792 1.10072 0
M  V30 7220 C 688.565 0.883796 1.81751 0
M  V30 7221 C 688.886 -0.591891 1.858 0
M  V30 7222 O 688.156 -1.43017 1.33876 0
M  V30 7223 H 686.736 0.323978 0.673088 0
M  V30 7224 H 689.398 1.42314 1.33164 0
M  V30 7225 H 688.494 1.26863 2.85153 0
M  V30 7226 N 688.795 -1.27931 0.920396 0
M  V30 7227 C 690.206 -1.76707 0.602616 0
M  V30 7228 C 690.557 -1.75249 -0.882159 0
M  V30 7229 O 689.682 -1.35135 -1.69019 0
M  V30 7230 C 690.277 -3.20884 1.08714 0
M  V30 7231 C 688.836 -3.67356 0.820157 0
M  V30 7232 C 687.983 -2.47525 1.25006 0
M  V30 7233 H 690.934 -1.14301 1.10095 0
M  V30 7234 H 690.955 -3.78045 0.431535 0
M  V30 7235 H 690.467 -3.21913 2.1678 0
M  V30 7236 H 688.568 -3.7178 -0.247012 0
M  V30 7237 H 688.681 -4.57181 1.43257 0
M  V30 7238 H 687.045 -2.45765 0.668698 0
M  V30 7239 H 687.828 -2.51269 2.3392 0
M  V30 7240 N 690.273 -0.685099 -1.4193 0
M  V30 7241 C 691.684 -0.287699 -1.8447 0
M  V30 7242 C 692.035 1.17215 -1.57338 0
M  V30 7243 O 691.16 1.89856 -1.03845 0
M  V30 7244 C 691.755 -0.515385 -3.34857 0
M  V30 7245 C 690.314 -0.172006 -3.76007 0
M  V30 7246 C 689.461 -0.802808 -2.65425 0
M  V30 7247 H 692.412 -0.88652 -1.3163 0
M  V30 7248 H 692.433 0.229251 -3.79809 0
M  V30 7249 H 691.945 -1.57796 -3.54573 0
M  V30 7250 H 690.046 0.886716 -3.61895 0
M  V30 7251 H 690.159 -0.619717 -4.75075 0
M  V30 7252 H 688.523 -0.233267 -2.5363 0
M  V30 7253 H 689.306 -1.86904 -2.87961 0
M  V30 7254 N 691.751 1.51645 -0.429126 0
M  V30 7255 C 692.976 2.06917 0.141399 0
M  V30 7256 C 693.401 1.29527 1.36398 0
M  V30 7257 O 692.759 0.33094 1.78254 0
M  V30 7258 C 692.807 3.57776 0.4504 0
M  V30 7259 O 691.911 3.82639 1.53821 0
M  V30 7260 H 691.252 0.663978 0.0054647 0
M  V30 7261 H 693.782 1.95355 -0.608093 0
M  V30 7262 H 693.792 4.01894 0.703249 0
M  V30 7263 H 692.467 4.13532 -0.443213 0
M  V30 7264 H 691.044 3.5039 1.27597 0
M  V30 7265 N 693.229 0.160201 1.56784 0
M  V30 7266 C 694.192 -0.760405 2.16219 0
M  V30 7267 C 695.192 -1.16595 1.10735 0
M  V30 7268 O 696.382 -1.08472 1.36306 0
M  V30 7269 C 693.514 -2.03358 2.73603 0
M  V30 7270 H 694.707 -0.243173 2.98912 0
M  V30 7271 H 692.26 -0.0893139 1.56045 0
M  V30 7272 H 692.995 -2.59416 1.94612 0
M  V30 7273 H 692.78 -1.75186 3.50788 0
M  V30 7274 H 694.27 -2.69081 3.19351 0
M  V30 7275 N 694.707 -1.5719 -0.113559 0
M  V30 7276 C 695.932 -1.89702 -0.838336 0
M  V30 7277 C 696.357 -0.752679 -1.72384 0
M  V30 7278 O 695.715 0.296575 -1.78858 0
M  V30 7279 C 695.763 -3.20989 -1.64312 0
M  V30 7280 O 694.867 -3.07278 -2.75053 0
M  V30 7281 H 694.208 -0.622339 -0.231496 0
M  V30 7282 H 696.738 -2.04382 -0.0943228 0
M  V30 7283 H 696.748 -3.53843 -2.03123 0
M  V30 7284 H 695.423 -4.03869 -0.993119 0
M  V30 7285 H 694 -2.85901 -2.39406 0
M  V30 7286 N 696.185 0.383891 -1.52853 0
M  V30 7287 C 697.133 1.48965 -1.7864 0
M  V30 7288 C 698.127 1.56242 -0.654577 0
M  V30 7289 O 699.333 1.59347 -0.83716 0
M  V30 7290 H 695.708 0.495892 -0.565328 0
M  V30 7291 H 697.679 1.24411 -2.71228 0
M  V30 7292 C 696.428 2.86036 -1.97683 0
M  V30 7293 H 695.751 2.81188 -2.84206 0
M  V30 7294 H 697.191 3.62632 -2.19713 0
M  V30 7295 C 695.65 3.28428 -0.750776 0
M  V30 7296 O 696.18 4.0164 0.0693491 0
M  V30 7297 N 694.386 2.84765 -0.579427 0
M  V30 7298 H 693.933 2.25353 -1.24795 0
M  V30 7299 H 693.891 3.13486 0.239544 0
M  V30 7300 N 697.663 1.43903 0.642637 0
M  V30 7301 C 698.888 1.49758 1.43483 0
M  V30 7302 C 699.313 0.119911 1.87717 0
M  V30 7303 O 698.671 -0.888558 1.58033 0
M  V30 7304 C 698.719 2.45744 2.63898 0
M  V30 7305 O 697.823 1.95101 3.63331 0
M  V30 7306 H 697.164 0.506138 0.429791 0
M  V30 7307 H 699.694 1.88923 0.785438 0
M  V30 7308 H 699.704 2.63399 3.11584 0
M  V30 7309 H 698.379 3.45818 2.31046 0
M  V30 7310 H 696.956 1.87158 3.22531 0
M  V30 7311 N 699.141 -0.881989 1.30609 0
M  V30 7312 C 700.089 -2.00942 1.17155 0
M  V30 7313 C 701.083 -1.69198 0.0827154 0
M  V30 7314 O 702.289 -1.78342 0.243775 0
M  V30 7315 H 698.664 -0.658913 0.362406 0
M  V30 7316 H 700.635 -2.09423 2.12567 0
M  V30 7317 C 699.384 -3.36294 0.883273 0
M  V30 7318 H 698.707 -3.61233 1.7132 0
M  V30 7319 H 700.147 -4.15812 0.829255 0
M  V30 7320 C 698.606 -3.34348 -0.413851 0
M  V30 7321 O 699.136 -3.75216 -1.43444 0
M  V30 7322 N 697.342 -2.87459 -0.426082 0
M  V30 7323 H 696.889 -2.54397 0.40493 0
M  V30 7324 H 696.847 -2.8654 -1.29391 0
M  V30 7325 N 700.619 -1.13374 -1.09472 0
M  V30 7326 C 701.566 -0.810682 -2.16094 0
M  V30 7327 C 702.536 0.227003 -1.64541 0
M  V30 7328 O 703.721 0.0993538 -1.90541 0
M  V30 7329 C 700.861 -0.282336 -3.43943 0
M  V30 7330 C 699.974 -1.37902 -4.09398 0
M  V30 7331 C 699.109 -0.809066 -5.25002 0
M  V30 7332 C 698.148 -1.88419 -5.82379 0
M  V30 7333 N 697.285 -1.33221 -6.89345 0
M  V30 7334 H 702.125 -1.72397 -2.43071 0
M  V30 7335 H 699.662 -0.860564 -1.19301 0
M  V30 7336 H 701.62 0.0421189 -4.17179 0
M  V30 7337 H 700.25 0.594083 -3.17286 0
M  V30 7338 H 699.302 -1.82008 -3.34032 0
M  V30 7339 H 700.614 -2.19161 -4.48074 0
M  V30 7340 H 699.768 -0.435867 -6.05132 0
M  V30 7341 H 698.507 0.0346058 -4.87688 0
M  V30 7342 H 697.512 -2.26646 -5.00911 0
M  V30 7343 H 698.737 -2.73125 -6.21755 0
M  V30 7344 H 696.683 -0.510535 -6.5401 0
M  V30 7345 H 696.6 -2.08129 -7.26786 0
M  V30 7346 H 697.868 -0.986565 -7.73232 0
M  V30 7347 N 702.098 1.27442 -0.927168 0
M  V30 7348 C 703.326 1.98498 -0.583622 0
M  V30 7349 C 703.741 1.69171 0.838241 0
M  V30 7350 O 703.098 0.951969 1.55704 0
M  V30 7351 C 703.149 3.52552 -0.799341 0
M  V30 7352 O 702.87 3.80851 -2.16527 0
M  V30 7353 C 704.371 4.4086 -0.464436 0
M  V30 7354 H 701.591 0.633487 -0.221213 0
M  V30 7355 H 704.135 1.62308 -1.24404 0
M  V30 7356 H 702.29 3.86955 -0.185728 0
M  V30 7357 H 702.704 4.75441 -2.21487 0
M  V30 7358 H 704.178 5.47967 -0.666075 0
M  V30 7359 H 704.655 4.35082 0.599995 0
M  V30 7360 H 705.261 4.11977 -1.05617 0
M  V30 7361 N 703.576 0.692616 1.41565 0
M  V30 7362 C 704.822 0.231408 2.02079 0
M  V30 7363 C 705.177 -1.15514 1.53864 0
M  V30 7364 O 704.47 -1.76786 0.73873 0
M  V30 7365 C 704.664 0.225073 3.56691 0
M  V30 7366 C 704.493 1.60947 4.19912 0
M  V30 7367 C 703.263 2.2116 4.54331 0
M  V30 7368 C 705.461 2.55553 4.46315 0
M  V30 7369 N 703.443 3.52195 5.02824 0
M  V30 7370 C 704.814 3.71263 4.96552 0
M  V30 7371 C 706.869 2.53857 4.28323 0
M  V30 7372 C 705.572 4.85555 5.30687 0
M  V30 7373 C 707.598 3.67259 4.63546 0
M  V30 7374 C 706.96 4.81699 5.13951 0
M  V30 7375 H 703.059 0.130001 0.771119 0
M  V30 7376 H 705.643 0.909459 1.72154 0
M  V30 7377 H 703.814 -0.422453 3.86096 0
M  V30 7378 H 705.546 -0.250685 4.03923 0
M  V30 7379 H 702.301 1.73474 4.40685 0
M  V30 7380 H 702.725 4.19354 5.3148 0
M  V30 7381 H 707.367 1.66598 3.88594 0
M  V30 7382 H 705.085 5.73477 5.69341 0
M  V30 7383 H 708.671 3.67195 4.51286 0
M  V30 7384 H 707.551 5.67995 5.40695 0
M  V30 7385 N 705.054 -1.51416 0.437162 0
M  V30 7386 C 706.47 -1.59349 0.0894459 0
M  V30 7387 C 706.67 -1.44809 -1.40116 0
M  V30 7388 O 705.726 -1.28924 -2.17106 0
M  V30 7389 C 707.039 -2.9446 0.609398 0
M  V30 7390 C 708.587 -3.07769 0.569824 0
M  V30 7391 C 709.062 -4.45404 1.06675 0
M  V30 7392 N 710.553 -4.51723 1.02473 0
M  V30 7393 C 711.288 -5.56544 1.3801 0
M  V30 7394 N 710.784 -6.68784 1.80831 0
M  V30 7395 N 712.577 -5.46901 1.29828 0
M  V30 7396 H 704.728 -1.59112 1.40703 0
M  V30 7397 H 706.991 -0.750031 0.579791 0
M  V30 7398 H 706.697 -3.1047 1.65231 0
M  V30 7399 H 706.571 -3.77184 0.0342236 0
M  V30 7400 H 708.958 -2.91428 -0.464107 0
M  V30 7401 H 709.039 -2.26885 1.1814 0
M  V30 7402 H 708.683 -4.62492 2.09914 0
M  V30 7403 H 708.613 -5.24827 0.431712 0
M  V30 7404 H 711.104 -3.71165 0.710258 0
M  V30 7405 H 711.417 -7.44787 2.06185 0
M  V30 7406 H 709.762 -6.69992 1.84757 0
M  V30 7407 H 712.953 -4.581 0.962397 0
M  V30 7408 H 713.126 -6.2848 1.57851 0
M  V30 7409 N 706.532 -0.168513 -1.56696 0
M  V30 7410 C 707.465 0.801477 -2.13662 0
M  V30 7411 C 708.443 1.22786 -1.06594 0
M  V30 7412 O 709.627 1.32014 -1.34554 0
M  V30 7413 C 706.754 2.07896 -2.6739 0
M  V30 7414 C 705.8 1.79681 -3.86803 0
M  V30 7415 S 706.633 0.968556 -5.26668 0
M  V30 7416 C 707.789 2.25676 -5.83799 0
M  V30 7417 H 708.022 0.317121 -2.95604 0
M  V30 7418 H 705.555 0.0461132 -1.54331 0
M  V30 7419 H 707.513 2.81272 -2.98992 0
M  V30 7420 H 706.174 2.53445 -1.85539 0
M  V30 7421 H 705.367 2.74461 -4.22714 0
M  V30 7422 H 704.969 1.14402 -3.56073 0
M  V30 7423 H 707.261 3.2116 -5.96542 0
M  V30 7424 H 708.204 1.94238 -6.80939 0
M  V30 7425 H 708.612 2.37308 -5.12197 0
M  V30 7426 N 708.01 1.57248 0.105221 0
M  V30 7427 C 708.92 2.04653 1.14693 0
M  V30 7428 C 709.936 0.969488 1.44489 0
M  V30 7429 O 711.112 1.28196 1.55331 0
M  V30 7430 C 708.177 2.45297 2.45011 0
M  V30 7431 C 707.238 3.67148 2.22489 0
M  V30 7432 C 706.471 4.05844 3.46592 0
M  V30 7433 O 706.694 3.44736 4.54437 0
M  V30 7434 O 705.628 4.98862 3.36779 0
M  V30 7435 H 709.454 2.93663 0.774336 0
M  V30 7436 H 707.039 1.45998 0.31701 0
M  V30 7437 H 708.921 2.72112 3.21766 0
M  V30 7438 H 707.596 1.59429 2.81717 0
M  V30 7439 H 706.503 3.45463 1.43547 0
M  V30 7440 H 707.836 4.53764 1.9068 0
M  V30 7441 N 709.488 -0.375779 1.53054 0
M  V30 7442 C 710.42 -1.47963 1.75042 0
M  V30 7443 C 711.433 -1.50073 0.631031 0
M  V30 7444 O 712.622 -1.53736 0.907052 0
M  V30 7445 C 709.722 -2.86767 1.80604 0
M  V30 7446 C 708.895 -3.08471 3.10104 0
M  V30 7447 C 707.954 -4.27332 3.07041 0
M  V30 7448 O 706.98 -4.22998 3.80869 0
M  V30 7449 N 708.182 -5.34214 2.27147 0
M  V30 7450 H 710.947 -1.29484 2.70285 0
M  V30 7451 H 708.508 -0.565416 1.51706 0
M  V30 7452 H 710.5 -3.64404 1.76045 0
M  V30 7453 H 709.07 -2.98542 0.926897 0
M  V30 7454 H 708.29 -2.18583 3.28048 0
M  V30 7455 H 709.578 -3.19834 3.95706 0
M  V30 7456 H 708.976 -5.40594 1.66656 0
M  V30 7457 H 707.533 -6.10467 2.28415 0
M  V30 7458 N 710.966 -1.44241 -0.634997 0
M  V30 7459 C 711.914 -1.51103 -1.76835 0
M  V30 7460 C 712.908 -0.383051 -1.65012 0
M  V30 7461 O 714.114 -0.557832 -1.71138 0
M  V30 7462 H 710.489 -0.474076 -0.583743 0
M  V30 7463 H 712.46 -2.46499 -1.68169 0
M  V30 7464 C 711.209 -1.4687 -3.15158 0
M  V30 7465 H 710.532 -2.32979 -3.24901 0
M  V30 7466 H 711.972 -1.55731 -3.94365 0
M  V30 7467 C 710.431 -0.188884 -3.3637 0
M  V30 7468 O 710.961 0.742487 -3.94778 0
M  V30 7469 N 709.167 -0.0932516 -2.9045 0
M  V30 7470 H 708.714 -0.852004 -2.43102 0
M  V30 7471 H 708.672 0.762308 -3.05018 0
M  V30 7472 N 712.444 0.87505 -1.31075 0
M  V30 7473 C 713.692 1.62447 -1.20231 0
M  V30 7474 C 714.013 1.93506 0.240888 0
M  V30 7475 O 713.283 1.57847 1.16022 0
M  V30 7476 H 711.863 0.602207 -0.441991 0
M  V30 7477 H 714.525 1.04788 -1.64334 0
M  V30 7478 H 713.621 2.57031 -1.77036 0
M  V30 7479 N 713.922 1.13953 1.08869 0
M  V30 7480 C 715.338 0.878924 1.33218 0
M  V30 7481 C 715.538 -0.482478 1.95638 0
M  V30 7482 O 714.594 -1.22778 2.2064 0
M  V30 7483 C 715.907 2.00798 2.23832 0
M  V30 7484 C 717.455 2.04073 2.37325 0
M  V30 7485 C 717.93 3.16258 3.31278 0
M  V30 7486 N 719.421 3.15805 3.38853 0
M  V30 7487 C 720.156 3.99249 4.11567 0
M  V30 7488 N 719.652 4.92721 4.87029 0
M  V30 7489 N 721.445 3.87327 4.0735 0
M  V30 7490 H 713.596 2.01645 0.66731 0
M  V30 7491 H 715.859 0.878395 0.356547 0
M  V30 7492 H 715.565 2.98986 1.85203 0
M  V30 7493 H 715.439 1.92704 3.24261 0
M  V30 7494 H 717.826 1.06495 2.75214 0
M  V30 7495 H 717.907 2.16239 1.36654 0
M  V30 7496 H 717.551 4.14079 2.9411 0
M  V30 7497 H 717.481 3.0133 4.31866 0
M  V30 7498 H 719.972 2.48102 2.8505 0
M  V30 7499 H 720.285 5.52867 5.39961 0
M  V30 7500 H 718.63 4.96723 4.86098 0
M  V30 7501 H 721.821 3.13627 3.475 0
M  V30 7502 H 721.994 4.52585 4.63757 0
M  V30 7503 N 715.4 -1.26948 0.933913 0
M  V30 7504 C 716.363 -2.24889 0.442457 0
M  V30 7505 C 717.363 -1.54594 -0.442426 0
M  V30 7506 O 718.553 -1.72502 -0.242629 0
M  V30 7507 C 715.685 -3.3896 -0.363173 0
M  V30 7508 H 716.878 -2.69879 1.30787 0
M  V30 7509 H 714.431 -1.38978 0.715187 0
M  V30 7510 H 715.166 -2.99361 -1.24714 0
M  V30 7511 H 714.951 -3.9116 0.271366 0
M  V30 7512 H 716.441 -4.11739 -0.697186 0
M  V30 7513 N 716.879 -0.700114 -1.41195 0
M  V30 7514 C 718.107 -0.242179 -2.05478 0
M  V30 7515 C 718.522 1.11029 -1.52702 0
M  V30 7516 O 717.879 1.69473 -0.677127 0
M  V30 7517 C 717.93 -0.196271 -3.60967 0
M  V30 7518 O 717.651 -1.49532 -4.11791 0
M  V30 7519 C 719.152 0.282102 -4.42401 0
M  V30 7520 H 716.372 -0.111749 -0.661629 0
M  V30 7521 H 718.916 -0.953975 -1.80885 0
M  V30 7522 H 717.071 0.46638 -3.84582 0
M  V30 7523 H 717.485 -1.38545 -5.05871 0
M  V30 7524 H 718.959 0.263093 -5.51373 0
M  V30 7525 H 719.436 1.32174 -4.1884 0
M  V30 7526 H 720.042 -0.349712 -4.2386 0
M  V30 7527 N 718.357 1.51182 -0.445186 0
M  V30 7528 C 719.605 2.01753 0.11841 0
M  V30 7529 C 719.926 1.33087 1.42523 0
M  V30 7530 O 719.196 0.467891 1.9023 0
M  V30 7531 H 717.776 0.745536 0.0467492 0
M  V30 7532 H 720.438 1.85765 -0.589688 0
M  V30 7533 H 719.534 3.10762 0.288665 0
M  V30 7534 N 719.835 0.176821 1.56605 0
M  V30 7535 C 721.082 -0.466715 1.97048 0
M  V30 7536 C 721.41 -1.6288 1.06302 0
M  V30 7537 O 720.665 -1.95453 0.0982571 0
M  V30 7538 C 720.964 -0.986208 3.43524 0
M  V30 7539 C 720.63 0.0605667 4.50859 0
M  V30 7540 C 719.292 0.348242 4.79938 0
M  V30 7541 C 721.644 0.770794 5.15469 0
M  V30 7542 C 718.972 1.35144 5.70923 0
M  V30 7543 C 721.324 1.76301 6.07537 0
M  V30 7544 C 719.988 2.05808 6.3498 0
M  V30 7545 H 719.258 -0.170783 0.721051 0
M  V30 7546 H 721.905 0.269942 1.89588 0
M  V30 7547 H 720.21 -1.80079 3.47964 0
M  V30 7548 H 721.907 -1.49323 3.72161 0
M  V30 7549 H 718.497 -0.173823 4.28247 0
M  V30 7550 H 722.681 0.56176 4.9311 0
M  V30 7551 H 717.937 1.58616 5.90467 0
M  V30 7552 H 722.111 2.31868 6.56666 0
M  V30 7553 H 719.738 2.8369 7.05283 0
M  V30 7554 N 721.313 -1.57302 -0.09688 0
M  V30 7555 C 722.243 -2.0497 -1.11846 0
M  V30 7556 C 723.224 -0.938278 -1.41882 0
M  V30 7557 O 724.409 -1.20943 -1.51942 0
M  V30 7558 C 721.539 -2.47264 -2.43881 0
M  V30 7559 C 720.493 -3.62053 -2.28257 0
M  V30 7560 C 719.819 -3.90318 -3.65453 0
M  V30 7561 C 721.119 -4.93005 -1.72461 0
M  V30 7562 H 722.813 -2.90567 -0.721888 0
M  V30 7563 H 720.359 -1.39786 -0.345803 0
M  V30 7564 H 722.312 -2.7922 -3.15617 0
M  V30 7565 H 721.036 -1.58664 -2.8547 0
M  V30 7566 H 719.695 -3.30341 -1.58967 0
M  V30 7567 H 719.343 -2.98889 -4.04567 0
M  V30 7568 H 719.043 -4.67597 -3.55846 0
M  V30 7569 H 720.567 -4.24747 -4.3866 0
M  V30 7570 H 721.981 -5.23354 -2.34036 0
M  V30 7571 H 720.378 -5.74436 -1.73618 0
M  V30 7572 H 721.448 -4.80053 -0.683898 0
M  V30 7573 N 722.791 0.367657 -1.53252 0
M  V30 7574 C 723.721 1.45632 -1.8252 0
M  V30 7575 C 724.702 1.55979 -0.678568 0
M  V30 7576 O 725.887 1.70581 -0.928217 0
M  V30 7577 C 723.017 2.82994 -2.01325 0
M  V30 7578 C 721.971 2.87473 -3.17086 0
M  V30 7579 C 721.297 4.2749 -3.21179 0
M  V30 7580 C 722.597 2.55182 -4.55719 0
M  V30 7581 H 724.291 1.21387 -2.73689 0
M  V30 7582 H 721.837 0.58251 -1.31692 0
M  V30 7583 H 723.79 3.59179 -2.20383 0
M  V30 7584 H 722.514 3.08622 -1.06864 0
M  V30 7585 H 721.173 2.13739 -2.97844 0
M  V30 7586 H 720.821 4.5019 -2.24361 0
M  V30 7587 H 720.521 4.31403 -3.98955 0
M  V30 7588 H 722.045 5.0555 -3.42419 0
M  V30 7589 H 723.459 3.21081 -4.74953 0
M  V30 7590 H 721.856 2.70414 -5.3572 0
M  V30 7591 H 722.926 1.5044 -4.60973 0
M  V30 7592 N 724.269 1.44576 0.627338 0
M  V30 7593 C 725.216 1.51734 1.73912 0
M  V30 7594 C 726.186 0.364745 1.62046 0
M  V30 7595 O 727.371 0.575503 1.81914 0
M  V30 7596 C 724.511 1.47116 3.12171 0
M  V30 7597 C 723.624 2.72778 3.34986 0
M  V30 7598 C 722.759 2.59968 4.63239 0
M  V30 7599 C 721.798 3.80776 4.79245 0
M  V30 7600 N 720.935 3.66618 5.98778 0
M  V30 7601 H 725.775 2.46722 1.6713 0
M  V30 7602 H 723.312 1.22444 0.815224 0
M  V30 7603 H 725.27 1.42429 3.92135 0
M  V30 7604 H 723.9 0.556928 3.17959 0
M  V30 7605 H 722.952 2.87637 2.48936 0
M  V30 7606 H 724.264 3.62441 3.42692 0
M  V30 7607 H 723.418 2.53135 5.51369 0
M  V30 7608 H 722.157 1.67872 4.57898 0
M  V30 7609 H 721.162 3.87989 3.89544 0
M  V30 7610 H 722.387 4.73913 4.86398 0
M  V30 7611 H 720.333 2.77277 5.9452 0
M  V30 7612 H 720.25 4.499 6.07557 0
M  V30 7613 H 721.518 3.63684 6.89459 0
M  V30 7614 N 725.747 -0.868086 1.31537 0
M  V30 7615 C 726.657 -2.00801 1.21311 0
M  V30 7616 C 727.673 -1.73518 0.129431 0
M  V30 7617 O 728.849 -1.98378 0.347588 0
M  V30 7618 C 725.914 -3.3419 0.922935 0
M  V30 7619 C 724.975 -3.74783 2.0937 0
M  V30 7620 C 724.208 -5.01807 1.81728 0
M  V30 7621 O 724.431 -5.65404 0.753313 0
M  V30 7622 O 723.365 -5.39213 2.67457 0
M  V30 7623 H 727.191 -2.12361 2.17109 0
M  V30 7624 H 724.776 -0.996684 1.11295 0
M  V30 7625 H 726.658 -4.14174 0.777033 0
M  V30 7626 H 725.333 -3.237 -0.00500301 0
M  V30 7627 H 724.24 -2.95432 2.29501 0
M  V30 7628 H 725.573 -3.89902 3.00396 0
M  V30 7629 N 727.225 -1.14528 -1.08264 0
M  V30 7630 C 728.173 -0.829201 -2.17318 0
M  V30 7631 C 729.167 0.193521 -1.68291 0
M  V30 7632 O 730.373 0.0494744 -1.79932 0
M  V30 7633 H 726.748 -0.250435 -0.709074 0
M  V30 7634 H 728.719 -1.75683 -2.41201 0
M  V30 7635 C 727.468 -0.324663 -3.46181 0
M  V30 7636 H 726.791 -1.10299 -3.84284 0
M  V30 7637 H 728.231 -0.142059 -4.23762 0
M  V30 7638 C 726.69 0.952033 -3.23169 0
M  V30 7639 O 727.22 2.02549 -3.46896 0
M  V30 7640 N 725.426 0.887854 -2.76705 0
M  V30 7641 H 724.973 0.0141402 -2.57596 0
M  V30 7642 H 724.931 1.74263 -2.61686 0
M  V30 7643 N 728.703 1.26451 -0.940633 0
M  V30 7644 C 729.952 1.93071 -0.583656 0
M  V30 7645 C 730.265 1.74618 0.881366 0
M  V30 7646 O 731.471 2.35689 1.34769 0
M  V30 7647 C 729.927 3.45927 -0.993106 0
M  V30 7648 C 729.535 3.73115 -2.4797 0
M  V30 7649 C 731.279 4.18554 -0.707998 0
M  V30 7650 C 729.186 5.19408 -2.82788 0
M  V30 7651 H 728.116 0.722824 -0.214572 0
M  V30 7652 H 730.767 1.43538 -1.1432 0
M  V30 7653 H 729.149 3.94341 -0.362099 0
M  V30 7654 H 730.323 3.35408 -3.15971 0
M  V30 7655 H 728.638 3.13719 -2.73805 0
M  V30 7656 H 731.235 5.26293 -0.94447 0
M  V30 7657 H 731.578 4.14782 0.355225 0
M  V30 7658 H 732.111 3.76003 -1.2987 0
M  V30 7659 H 728.85 5.28281 -3.88071 0
M  V30 7660 H 728.37 5.58214 -2.19449 0
M  V30 7661 H 730.049 5.87407 -2.71224 0
M  V30 7662 N 730.181 0.707592 1.40822 0
M  V30 7663 C 731.597 0.38034 1.55002 0
M  V30 7664 C 731.797 -1.11163 1.68062 0
M  V30 7665 O 730.853 -1.89761 1.66574 0
M  V30 7666 C 732.166 1.1394 2.78277 0
M  V30 7667 C 733.714 1.12492 2.92087 0
M  V30 7668 C 734.189 1.86597 4.18265 0
M  V30 7669 N 735.68 1.83626 4.25248 0
M  V30 7670 C 736.415 2.37794 5.21768 0
M  V30 7671 N 735.911 3.00485 6.24244 0
M  V30 7672 N 737.704 2.27982 5.13791 0
M  V30 7673 H 729.855 1.67511 1.3059 0
M  V30 7674 H 732.118 0.707579 0.630901 0
M  V30 7675 H 731.824 2.19398 2.74877 0
M  V30 7676 H 731.698 0.725793 3.70151 0
M  V30 7677 H 734.085 0.0785564 2.94995 0
M  V30 7678 H 734.166 1.57768 2.01353 0
M  V30 7679 H 733.81 2.91219 4.16118 0
M  V30 7680 H 733.74 1.38746 5.07993 0
M  V30 7681 H 736.231 1.3793 3.51829 0
M  V30 7682 H 736.544 3.39355 6.94304 0
M  V30 7683 H 734.889 3.04567 6.24711 0
M  V30 7684 H 738.08 1.78669 4.3266 0
M  V30 7685 H 738.253 2.70499 5.88841 0
M  V30 7686 N 731.66 -1.50943 0.453197 0
M  V30 7687 C 733.071 -1.86699 -0.00619892 0
M  V30 7688 C 733.422 -1.3693 -1.40515 0
M  V30 7689 O 732.547 -0.726715 -2.03833 0
M  V30 7690 C 733.142 -3.38795 -0.018025 0
M  V30 7691 C 731.701 -3.74028 -0.421885 0
M  V30 7692 C 730.848 -2.74752 0.375087 0
M  V30 7693 H 733.799 -1.43942 0.668317 0
M  V30 7694 H 733.82 -3.71468 -0.824125 0
M  V30 7695 H 733.332 -3.74988 1.00028 0
M  V30 7696 H 731.433 -3.43431 -1.44521 0
M  V30 7697 H 731.546 -4.78908 -0.135664 0
M  V30 7698 H 729.91 -2.5414 -0.168794 0
M  V30 7699 H 730.693 -3.13787 1.39256 0
M  V30 7700 N 733.138 -0.185124 -1.56509 0
M  V30 7701 C 734.385 0.456258 -1.97293 0
M  V30 7702 C 734.713 1.62314 -1.07165 0
M  V30 7703 O 733.968 1.95398 -0.108621 0
M  V30 7704 C 734.267 0.967977 -3.44042 0
M  V30 7705 C 733.933 -0.084476 -4.50821 0
M  V30 7706 C 732.595 -0.373689 -4.79747 0
M  V30 7707 C 734.947 -0.79812 -5.15053 0
M  V30 7708 C 732.275 -1.3817 -5.70198 0
M  V30 7709 C 734.627 -1.79521 -6.06593 0
M  V30 7710 C 733.291 -2.09172 -6.3388 0
M  V30 7711 H 732.561 0.166957 -0.721946 0
M  V30 7712 H 735.208 -0.279992 -1.89442 0
M  V30 7713 H 733.513 1.78231 -3.48914 0
M  V30 7714 H 735.21 1.47347 -3.72948 0
M  V30 7715 H 731.8 0.15111 -4.28334 0
M  V30 7716 H 735.984 -0.587903 -4.92806 0
M  V30 7717 H 731.24 -1.61745 -5.89617 0
M  V30 7718 H 735.414 -2.35347 -6.55427 0
M  V30 7719 H 733.041 -2.87427 -7.03768 0
M  V30 7720 N 734.616 1.57351 0.0885366 0
M  V30 7721 C 735.548 1.99221 1.13329 0
M  V30 7722 C 736.561 0.895705 1.35945 0
M  V30 7723 O 737.75 1.17376 1.34481 0
M  V30 7724 C 734.85 2.3016 2.48756 0
M  V30 7725 C 734.023 3.61444 2.46327 0
M  V30 7726 C 733.082 3.80244 3.63732 0
M  V30 7727 O 732.108 4.52024 3.45924 0
M  V30 7728 N 733.31 3.2132 4.8346 0
M  V30 7729 H 736.075 2.89456 0.776862 0
M  V30 7730 H 733.636 1.59505 0.277428 0
M  V30 7731 H 735.628 2.39925 3.25911 0
M  V30 7732 H 734.198 1.459 2.76464 0
M  V30 7733 H 733.418 3.62588 1.54673 0
M  V30 7734 H 734.706 4.47678 2.41789 0
M  V30 7735 H 734.104 2.63028 5.00832 0
M  V30 7736 H 732.661 3.3656 5.58185 0
M  V30 7737 N 736.094 -0.359525 1.53444 0
M  V30 7738 C 737.024 -1.44662 1.8329 0
M  V30 7739 C 738.005 -1.55617 0.68683 0
M  V30 7740 O 739.19 -1.70086 0.93725 0
M  V30 7741 C 736.32 -2.81923 2.02822 0
M  V30 7742 C 735.274 -2.85787 3.18606 0
M  V30 7743 C 734.6 -4.25781 3.23442 0
M  V30 7744 C 735.9 -2.52762 4.57065 0
M  V30 7745 H 737.594 -1.19934 2.74329 0
M  V30 7746 H 735.14 -0.575517 1.31999 0
M  V30 7747 H 737.093 -3.58005 2.22285 0
M  V30 7748 H 735.817 -3.08051 1.085 0
M  V30 7749 H 734.476 -2.12157 2.98973 0
M  V30 7750 H 734.124 -4.48994 2.26745 0
M  V30 7751 H 733.824 -4.29281 4.01238 0
M  V30 7752 H 735.348 -5.03727 3.45096 0
M  V30 7753 H 736.762 -3.18557 4.76649 0
M  V30 7754 H 735.159 -2.67569 5.37147 0
M  V30 7755 H 736.229 -1.47993 4.61764 0
M  V30 7756 N 737.572 -1.44907 -0.619662 0
M  V30 7757 C 738.802 -1.51575 -1.40387 0
M  V30 7758 C 739.21 -0.14309 -1.88658 0
M  V30 7759 O 738.553 0.863403 -1.62145 0
M  V30 7760 C 738.615 -2.42858 -2.65067 0
M  V30 7761 C 738.279 -3.8982 -2.38515 0
M  V30 7762 C 739.276 -4.80047 -1.99627 0
M  V30 7763 C 736.961 -4.34628 -2.51801 0
M  V30 7764 C 738.955 -6.13086 -1.74369 0
M  V30 7765 C 736.642 -5.67712 -2.26156 0
M  V30 7766 C 737.64 -6.56759 -1.875 0
M  V30 7767 O 737.328 -7.87377 -1.62148 0
M  V30 7768 H 737.06 -0.51612 -0.436573 0
M  V30 7769 H 739.614 -1.90664 -0.763959 0
M  V30 7770 H 737.844 -1.98717 -3.31735 0
M  V30 7771 H 739.533 -2.40346 -3.27091 0
M  V30 7772 H 740.299 -4.46697 -1.8891 0
M  V30 7773 H 736.178 -3.65568 -2.80857 0
M  V30 7774 H 739.722 -6.8255 -1.44122 0
M  V30 7775 H 735.619 -6.0062 -2.36486 0
M  V30 7776 H 736.387 -7.99288 -1.763 0
M  V30 7777 N 739.05 0.861098 -1.31996 0
M  V30 7778 C 739.96 2.00154 -1.22374 0
M  V30 7779 C 740.976 1.73447 -0.138631 0
M  V30 7780 O 742.152 1.98191 -0.358104 0
M  V30 7781 C 739.217 3.33696 -0.940645 0
M  V30 7782 C 738.278 3.73668 -2.11355 0
M  V30 7783 C 737.511 5.00837 -1.84386 0
M  V30 7784 O 737.734 5.64996 -0.783287 0
M  V30 7785 O 736.668 5.37787 -2.70313 0
M  V30 7786 H 740.494 2.11207 -2.18233 0
M  V30 7787 H 738.079 0.990768 -1.11822 0
M  V30 7788 H 739.961 4.13756 -0.798987 0
M  V30 7789 H 738.636 3.23698 -0.0121636 0
M  V30 7790 H 737.543 2.94211 -2.31065 0
M  V30 7791 H 738.876 3.88303 -3.02459 0
M  V30 7792 N 740.528 1.15101 1.07655 0
M  V30 7793 C 741.777 0.918528 1.79572 0
M  V30 7794 C 742.09 -0.555922 1.87534 0
M  V30 7795 O 743.296 -0.905893 2.55941 0
M  V30 7796 C 741.752 1.59394 3.22679 0
M  V30 7797 C 741.36 3.1052 3.22927 0
M  V30 7798 C 743.104 1.44289 3.99225 0
M  V30 7799 C 741.011 3.70862 4.60668 0
M  V30 7800 H 739.941 0.340006 0.672987 0
M  V30 7801 H 742.592 1.38079 1.20857 0
M  V30 7802 H 740.974 1.05936 3.81567 0
M  V30 7803 H 742.148 3.70708 2.737 0
M  V30 7804 H 740.463 3.25351 2.59876 0
M  V30 7805 H 743.06 1.86766 5.01022 0
M  V30 7806 H 743.403 0.389975 4.14469 0
M  V30 7807 H 743.936 1.94826 3.46825 0
M  V30 7808 H 740.675 4.7604 4.50628 0
M  V30 7809 H 740.195 3.15456 5.10145 0
M  V30 7810 H 741.874 3.71607 5.29639 0
M  V30 7811 N 742.006 -1.2595 0.947325 0
M  V30 7812 C 743.255 -1.92759 0.593887 0
M  V30 7813 C 743.568 -1.75083 -0.872093 0
M  V30 7814 O 744.774 -2.36401 -1.33518 0
M  V30 7815 C 743.23 -3.45395 1.01144 0
M  V30 7816 C 742.838 -3.71795 2.49946 0
M  V30 7817 C 744.582 -4.18173 0.730185 0
M  V30 7818 C 742.489 -5.17901 2.85539 0
M  V30 7819 H 741.419 -0.721676 0.218403 0
M  V30 7820 H 744.07 -1.4293 1.15079 0
M  V30 7821 H 742.452 -3.94143 0.383007 0
M  V30 7822 H 743.626 -3.33728 3.17746 0
M  V30 7823 H 741.941 -3.12263 2.75465 0
M  V30 7824 H 744.538 -5.25784 0.972367 0
M  V30 7825 H 744.881 -4.14964 -0.333223 0
M  V30 7826 H 745.414 -3.75309 1.31862 0
M  V30 7827 H 742.153 -5.26216 3.90867 0
M  V30 7828 H 741.673 -5.57042 2.22406 0
M  V30 7829 H 743.352 -5.8596 2.74336 0
M  V30 7830 N 743.484 -0.715051 -1.40445 0
M  V30 7831 C 744.73 -0.254705 -2.01194 0
M  V30 7832 C 745.063 1.14894 -1.56567 0
M  V30 7833 O 744.338 1.77933 -0.785491 0
M  V30 7834 C 744.621 -0.334148 -3.58546 0
M  V30 7835 C 744.474 -1.77613 -4.13248 0
M  V30 7836 C 745.793 0.294968 -4.3911 0
M  V30 7837 H 742.912 -0.094025 -0.730978 0
M  V30 7838 H 745.554 -0.907449 -1.66929 0
M  V30 7839 H 743.704 0.221609 -3.87867 0
M  V30 7840 H 745.376 -2.38723 -3.94727 0
M  V30 7841 H 743.619 -2.30402 -3.67556 0
M  V30 7842 H 744.29 -1.78311 -5.22407 0
M  V30 7843 H 746.766 -0.178563 -4.15717 0
M  V30 7844 H 745.642 0.208934 -5.48502 0
M  V30 7845 H 745.903 1.37841 -4.20062 0
M  V30 7846 N 744.962 1.50701 -0.461195 0
M  V30 7847 C 746.19 2.06681 0.0951756 0
M  V30 7848 C 746.605 1.32615 1.34382 0
M  V30 7849 O 745.962 0.392531 1.78229 0
M  V30 7850 C 746.013 3.59354 0.393316 0
M  V30 7851 O 745.734 4.30626 -0.805797 0
M  V30 7852 C 747.235 4.31926 0.997744 0
M  V30 7853 H 744.455 0.670995 -0.00267259 0
M  V30 7854 H 746.999 1.93991 -0.647137 0
M  V30 7855 H 745.154 3.7188 1.08555 0
M  V30 7856 H 745.568 5.21667 -0.544409 0
M  V30 7857 H 747.042 5.39756 1.15619 0
M  V30 7858 H 747.519 3.91772 1.98523 0
M  V30 7859 H 748.125 4.23905 0.344188 0
M  V30 7860 N 746.441 0.193421 1.56409 0
M  V30 7861 C 747.852 -0.319471 1.83946 0
M  V30 7862 C 748.203 -1.61505 1.11403 0
M  V30 7863 O 747.328 -2.13139 0.374289 0
M  V30 7864 C 747.923 -0.586411 3.33686 0
M  V30 7865 C 746.482 -1.04368 3.61641 0
M  V30 7866 C 745.629 -0.0913834 2.77149 0
M  V30 7867 H 748.58 0.417242 1.53117 0
M  V30 7868 H 748.601 -1.43591 3.52366 0
M  V30 7869 H 748.113 0.356701 3.86457 0
M  V30 7870 H 746.214 -2.00113 3.14302 0
M  V30 7871 H 746.327 -0.937549 4.69837 0
M  V30 7872 H 744.691 -0.592954 2.47702 0
M  V30 7873 H 745.474 0.846142 3.32709 0
M  V30 7874 N 747.919 -1.57396 -0.0801906 0
M  V30 7875 C 748.849 -2.06145 -1.09665 0
M  V30 7876 C 749.83 -0.953273 -1.40878 0
M  V30 7877 O 751.015 -1.22548 -1.50651 0
M  V30 7878 C 748.145 -2.49836 -2.41245 0
M  V30 7879 C 747.099 -3.64454 -2.24405 0
M  V30 7880 C 746.425 -3.94172 -3.61293 0
M  V30 7881 C 747.725 -4.94807 -1.67223 0
M  V30 7882 H 749.419 -2.91316 -0.691028 0
M  V30 7883 H 746.965 -1.40145 -0.330957 0
M  V30 7884 H 748.918 -2.82552 -3.12638 0
M  V30 7885 H 747.642 -1.61683 -2.83771 0
M  V30 7886 H 746.301 -3.32008 -1.55454 0
M  V30 7887 H 745.949 -3.03163 -4.01374 0
M  V30 7888 H 745.649 -4.71345 -3.50867 0
M  V30 7889 H 747.173 -4.29376 -4.3413 0
M  V30 7890 H 748.587 -5.25807 -2.28472 0
M  V30 7891 H 746.984 -5.76245 -1.67515 0
M  V30 7892 H 748.054 -4.80751 -0.632944 0
M  V30 7893 N 749.397 0.351382 -1.53633 0
M  V30 7894 C 750.627 1.11113 -1.74176 0
M  V30 7895 C 751.035 1.83084 -0.477154 0
M  V30 7896 O 750.378 1.74941 0.560483 0
M  V30 7897 C 750.44 2.17521 -2.86225 0
M  V30 7898 C 750.104 1.65193 -4.26099 0
M  V30 7899 C 751.101 1.10842 -5.07947 0
M  V30 7900 C 748.786 1.70277 -4.72558 0
M  V30 7901 C 750.78 0.622689 -6.34351 0
M  V30 7902 C 748.467 1.21316 -5.98937 0
M  V30 7903 C 749.465 0.674033 -6.79666 0
M  V30 7904 O 749.153 0.191696 -8.03671 0
M  V30 7905 H 748.885 0.33756 -0.585687 0
M  V30 7906 H 751.439 0.411786 -2.0123 0
M  V30 7907 H 749.669 2.90991 -2.54678 0
M  V30 7908 H 751.358 2.78999 -2.94812 0
M  V30 7909 H 752.124 1.06243 -4.7322 0
M  V30 7910 H 748.003 2.11181 -4.09785 0
M  V30 7911 H 751.547 0.201216 -6.9731 0
M  V30 7912 H 747.444 1.25613 -6.3316 0
M  V30 7913 H 748.212 0.309712 -8.17914 0
M  V30 7914 N 750.875 1.45233 0.611969 0
M  V30 7915 C 751.807 1.49575 1.73666 0
M  V30 7916 C 752.82 0.386987 1.58134 0
M  V30 7917 O 754.009 0.653804 1.66095 0
M  V30 7918 C 751.109 1.33223 3.11617 0
M  V30 7919 C 750.282 2.57694 3.5343 0
M  V30 7920 C 749.341 2.35962 4.70328 0
M  V30 7921 O 748.367 3.09553 4.77667 0
M  V30 7922 N 749.569 1.40243 5.63305 0
M  V30 7923 H 752.334 2.46539 1.70407 0
M  V30 7924 H 749.895 1.40917 0.79712 0
M  V30 7925 H 751.887 1.16502 3.87569 0
M  V30 7926 H 750.457 0.44551 3.09409 0
M  V30 7927 H 749.677 2.8956 2.67486 0
M  V30 7928 H 750.965 3.40441 3.78124 0
M  V30 7929 H 750.363 0.795023 5.60086 0
M  V30 7930 H 748.92 1.29496 6.38807 0
M  V30 7931 N 752.353 -0.854086 1.3245 0
M  V30 7932 C 753.63 -1.59188 1.1366 0
M  V30 7933 C 754.01 -2.08917 -0.302807 0
M  V30 7934 O 753.358 -1.8795 -1.29951 0
M  V30 7935 C 753.568 -2.73757 2.16467 0
M  V30 7936 C 754.916 -3.43323 2.49829 0
M  V30 7937 O 755.94 -2.83983 2.15017 0
M  V30 7938 O 754.799 -4.50409 3.09506 0
M  V30 7939 H 751.893 -0.701092 0.438633 0
M  V30 7940 H 754.439 -0.898165 1.43983 0
M  V30 7941 H 753.211 -2.3454 3.1322 0
M  V30 7942 H 752.834 -3.50804 1.87142 0
M  V30 7943 N 753.831 -1.1567 -1.07043 0
M  V30 7944 C 755.059 -0.957471 -1.83412 0
M  V30 7945 C 755.474 0.494271 -1.82215 0
M  V30 7946 O 754.831 1.34288 -1.23584 0
M  V30 7947 C 754.882 -1.46784 -3.30359 0
M  V30 7948 O 754.603 -2.86271 -3.31633 0
M  V30 7949 C 756.104 -1.31054 -4.23485 0
M  V30 7950 H 753.324 -0.33986 -0.578564 0
M  V30 7951 H 755.868 -1.53518 -1.35102 0
M  V30 7952 H 754.023 -0.932586 -3.76007 0
M  V30 7953 H 754.437 -3.0948 -4.23465 0
M  V30 7954 H 755.911 -1.71605 -5.24648 0
M  V30 7955 H 756.388 -0.255107 -4.38458 0
M  V30 7956 H 756.994 -1.83503 -3.83676 0
M  V30 7957 N 755.309 1.25446 -0.953992 0
M  V30 7958 C 756.242 2.24341 -0.417912 0
M  V30 7959 C 757.22 1.54709 0.5004 0
M  V30 7960 O 758.404 1.83414 0.434923 0
M  V30 7961 C 755.531 3.36352 0.398155 0
M  V30 7962 C 754.577 4.24007 -0.460461 0
M  V30 7963 S 755.41 5.00951 -1.89231 0
M  V30 7964 C 756.566 6.1643 -1.08465 0
M  V30 7965 H 756.799 2.69465 -1.25602 0
M  V30 7966 H 754.332 1.34512 -0.758018 0
M  V30 7967 H 756.29 4.01325 0.863059 0
M  V30 7968 H 754.951 2.89813 1.21108 0
M  V30 7969 H 754.144 5.03728 0.165415 0
M  V30 7970 H 753.746 3.63965 -0.860549 0
M  V30 7971 H 756.038 6.76681 -0.333017 0
M  V30 7972 H 756.981 6.8335 -1.85577 0
M  V30 7973 H 757.389 5.61139 -0.615062 0
M  V30 7974 N 756.787 0.722489 1.40064 0
M  V30 7975 C 758.035 0.264455 2.00362 0
M  V30 7976 C 758.356 -1.14847 1.57592 0
M  V30 7977 O 757.626 -1.77982 0.818477 0
M  V30 7978 H 756.206 0.0947846 0.740962 0
M  V30 7979 H 758.868 0.929659 1.71299 0
M  V30 7980 H 757.964 0.302977 3.10626 0
M  V30 7981 N 758.265 -1.50454 0.469181 0
M  V30 7982 C 759.676 -1.86695 0.0136034 0
M  V30 7983 C 760.027 -1.38413 -1.39055 0
M  V30 7984 O 759.152 -0.748294 -2.03051 0
M  V30 7985 C 759.747 -3.38795 0.0179098 0
M  V30 7986 C 758.306 -3.74455 -0.382191 0
M  V30 7987 C 757.453 -2.74338 0.404207 0
M  V30 7988 H 760.404 -1.43225 0.683547 0
M  V30 7989 H 760.425 -3.72321 -0.78468 0
M  V30 7990 H 759.937 -3.73906 1.04 0
M  V30 7991 H 758.038 -3.44944 -1.4087 0
M  V30 7992 H 758.151 -4.79025 -0.084862 0
M  V30 7993 H 756.515 -2.54305 -0.141829 0
M  V30 7994 H 757.298 -3.12293 1.42577 0
M  V30 7995 N 759.743 -0.201713 -1.56304 0
M  V30 7996 C 760.968 0.443815 -2.02596 0
M  V30 7997 C 761.393 1.53945 -1.08086 0
M  V30 7998 O 760.751 1.81182 -0.0655056 0
M  V30 7999 C 760.799 0.971066 -3.47279 0
M  V30 8000 O 759.903 2.0836 -3.55893 0
M  V30 8001 H 759.244 0.10294 -0.655972 0
M  V30 8002 H 761.774 -0.314533 -2.02168 0
M  V30 8003 H 761.784 1.28598 -3.87204 0
M  V30 8004 H 760.459 0.169048 -4.15556 0
M  V30 8005 H 759.036 1.77683 -3.27846 0
M  V30 8006 N 761.222 1.57436 0.0718424 0
M  V30 8007 C 762.154 2.00412 1.1121 0
M  V30 8008 C 763.167 0.910074 1.34987 0
M  V30 8009 O 764.356 1.18796 1.33228 0
M  V30 8010 C 761.456 2.32786 2.46301 0
M  V30 8011 C 760.629 3.64036 2.4248 0
M  V30 8012 C 759.688 3.8408 3.59679 0
M  V30 8013 O 758.714 4.55667 3.4111 0
M  V30 8014 N 759.916 3.2643 4.80025 0
M  V30 8015 H 762.681 2.90264 0.746118 0
M  V30 8016 H 760.242 1.59791 0.260495 0
M  V30 8017 H 762.234 2.43368 3.23348 0
M  V30 8018 H 760.804 1.48824 2.74901 0
M  V30 8019 H 760.024 3.64208 1.50818 0
M  V30 8020 H 761.312 4.50217 2.37027 0
M  V30 8021 H 760.71 2.68325 4.98014 0
M  V30 8022 H 759.267 3.42461 5.54584 0
M  V30 8023 N 762.7 -0.34323 1.53817 0
M  V30 8024 C 763.65 -1.42217 1.78208 0
M  V30 8025 C 764.634 -1.4774 0.637304 0
M  V30 8026 O 765.826 -1.52605 0.896705 0
M  V30 8027 C 762.955 -2.79354 1.9954 0
M  V30 8028 C 762.041 -2.78222 3.20084 0
M  V30 8029 N 762.432 -2.46719 4.41547 0
M  V30 8030 C 760.73 -3.09368 3.21259 0
M  V30 8031 C 761.431 -2.53828 5.23399 0
M  V30 8032 N 760.407 -2.89464 4.60121 0
M  V30 8033 H 764.209 -1.16759 2.69712 0
M  V30 8034 H 761.723 -0.551592 1.52746 0
M  V30 8035 H 763.72 -3.57095 2.15148 0
M  V30 8036 H 762.38 -3.05759 1.09278 0
M  V30 8037 H 763.391 -2.19912 4.68891 0
M  V30 8038 H 760.068 -3.40942 2.40966 0
M  V30 8039 H 761.458 -2.32629 6.30344 0
M  V30 8040 N 764.178 -1.45556 -0.604258 0
M  V30 8041 C 765.424 -1.49968 -1.36519 0
M  V30 8042 C 765.757 -0.142236 -1.93678 0
M  V30 8043 O 765.032 0.843717 -1.75247 0
M  V30 8044 C 765.315 -2.58146 -2.51063 0
M  V30 8045 C 765.168 -4.03346 -1.99078 0
M  V30 8046 C 766.487 -2.62581 -3.53184 0
M  V30 8047 H 763.606 -0.545993 -0.495036 0
M  V30 8048 H 766.248 -1.77382 -0.680845 0
M  V30 8049 H 764.398 -2.34901 -3.09441 0
M  V30 8050 H 766.07 -4.37811 -1.45323 0
M  V30 8051 H 764.313 -4.13845 -1.30055 0
M  V30 8052 H 764.984 -4.74731 -2.81664 0
M  V30 8053 H 767.46 -2.83419 -3.04652 0
M  V30 8054 H 766.336 -3.40131 -4.30816 0
M  V30 8055 H 766.597 -1.67798 -4.09019 0
M  V30 8056 N 765.656 0.84705 -1.32902 0
M  V30 8057 C 766.886 1.63166 -1.26729 0
M  V30 8058 C 767.294 1.88474 0.165595 0
M  V30 8059 O 766.637 1.45947 1.11558 0
M  V30 8060 C 766.699 3.0103 -1.96522 0
M  V30 8061 C 766.363 2.9873 -3.45846 0
M  V30 8062 C 767.36 2.75032 -4.41196 0
M  V30 8063 C 765.045 3.19125 -3.87898 0
M  V30 8064 C 767.039 2.71743 -5.76571 0
M  V30 8065 C 764.726 3.15462 -5.2338 0
M  V30 8066 C 765.724 2.91801 -6.17528 0
M  V30 8067 O 765.412 2.88027 -7.5053 0
M  V30 8068 H 765.144 0.51469 -0.438258 0
M  V30 8069 H 767.698 1.06383 -1.75704 0
M  V30 8070 H 765.928 3.59634 -1.42128 0
M  V30 8071 H 767.617 3.61821 -1.83958 0
M  V30 8072 H 768.383 2.59034 -4.10032 0
M  V30 8073 H 764.262 3.36565 -3.15032 0
M  V30 8074 H 767.806 2.53194 -6.5003 0
M  V30 8075 H 763.703 3.31006 -5.54171 0
M  V30 8076 H 764.471 3.03927 -7.59981 0
M  V30 8077 N 767.134 1.16236 1.06428 0
M  V30 8078 C 768.097 0.870163 2.1204 0
M  V30 8079 C 769.097 -0.134239 1.60239 0
M  V30 8080 O 770.287 0.0964932 1.73933 0
M  V30 8081 C 767.419 0.301033 3.39568 0
M  V30 8082 H 768.612 1.8064 2.39394 0
M  V30 8083 H 766.165 0.971116 1.2247 0
M  V30 8084 H 766.9 -0.642948 3.17863 0
M  V30 8085 H 766.685 1.02475 3.78472 0
M  V30 8086 H 768.175 0.114494 4.17443 0
M  V30 8087 N 768.612 -1.24939 0.960631 0
M  V30 8088 C 769.842 -1.96595 0.635123 0
M  V30 8089 C 770.25 -1.71538 -0.798206 0
M  V30 8090 O 769.593 -0.991727 -1.5463 0
M  V30 8091 C 769.655 -3.49994 0.821248 0
M  V30 8092 C 769.319 -3.98738 2.23287 0
M  V30 8093 C 770.316 -4.08965 3.21004 0
M  V30 8094 C 768.001 -4.32247 2.55867 0
M  V30 8095 C 769.995 -4.52025 4.49391 0
M  V30 8096 C 767.682 -4.74991 3.84482 0
M  V30 8097 C 768.68 -4.84844 4.81056 0
M  V30 8098 O 768.368 -5.26638 6.07378 0
M  V30 8099 H 768.1 -0.633265 0.23654 0
M  V30 8100 H 770.654 -1.5991 1.28911 0
M  V30 8101 H 768.884 -3.86543 0.110105 0
M  V30 8102 H 770.573 -4.02859 0.495892 0
M  V30 8103 H 771.339 -3.83302 2.97161 0
M  V30 8104 H 767.218 -4.23801 1.81421 0
M  V30 8105 H 770.762 -4.5963 5.24773 0
M  V30 8106 H 766.659 -5.00101 4.08129 0
M  V30 8107 H 767.427 -5.44807 6.10842 0
M  V30 8108 N 770.09 -0.729906 -1.39679 0
M  V30 8109 C 771.315 -0.284345 -2.05442 0
M  V30 8110 C 771.74 1.07056 -1.54663 0
M  V30 8111 O 771.098 1.67732 -0.688157 0
M  V30 8112 C 771.146 -0.290089 -3.59431 0
M  V30 8113 O 770.25 0.723978 -4.05995 0
M  V30 8114 H 769.591 -0.130311 -0.651088 0
M  V30 8115 H 772.121 -0.994403 -1.78809 0
M  V30 8116 H 772.131 -0.132712 -4.07784 0
M  V30 8117 H 770.806 -1.27877 -3.95753 0
M  V30 8118 H 769.383 0.533154 -3.69069 0
M  V30 8119 N 771.568 1.50203 -0.477153 0
M  V30 8120 C 772.5 2.26508 0.350239 0
M  V30 8121 C 773.513 1.32081 0.95176 0
M  V30 8122 O 774.702 1.57546 0.839139 0
M  V30 8123 C 771.802 3.0361 1.50579 0
M  V30 8124 C 770.975 4.25438 1.01595 0
M  V30 8125 C 770.034 4.84783 2.04626 0
M  V30 8126 O 769.06 5.45528 1.62442 0
M  V30 8127 N 770.262 4.72318 3.37485 0
M  V30 8128 H 773.027 2.98155 -0.30394 0
M  V30 8129 H 770.588 1.58938 -0.308289 0
M  V30 8130 H 772.58 3.4019 2.1921 0
M  V30 8131 H 771.15 2.34724 2.06455 0
M  V30 8132 H 770.37 3.93894 0.155316 0
M  V30 8133 H 771.658 5.04413 0.666694 0
M  V30 8134 H 771.056 4.24022 3.74462 0
M  V30 8135 H 769.613 5.13149 4.01897 0
M  V30 8136 N 773.046 0.209999 1.56195 0
M  V30 8137 C 773.956 -0.716459 2.23392 0
M  V30 8138 C 774.972 -1.22291 1.23778 0
M  V30 8139 O 776.148 -1.26694 1.56558 0
M  V30 8140 C 773.213 -1.91261 2.89172 0
M  V30 8141 C 772.274 -1.44927 4.04097 0
M  V30 8142 C 771.507 -2.5884 4.66731 0
M  V30 8143 O 771.73 -3.76693 4.2832 0
M  V30 8144 O 770.664 -2.30701 5.55932 0
M  V30 8145 H 774.49 -0.174089 3.03201 0
M  V30 8146 H 772.075 -0.0199505 1.49387 0
M  V30 8147 H 773.957 -2.6114 3.30733 0
M  V30 8148 H 772.632 -2.4433 2.12331 0
M  V30 8149 H 771.539 -0.718839 3.67129 0
M  V30 8150 H 772.872 -0.965084 4.82646 0
M  V30 8151 N 774.524 -1.57472 -0.0634922 0
M  V30 8152 C 775.457 -1.99571 -1.10664 0
M  V30 8153 C 776.435 -0.874015 -1.37112 0
M  V30 8154 O 777.619 -1.13702 -1.50347 0
M  V30 8155 C 774.746 -2.3395 -2.44918 0
M  V30 8156 C 773.792 -3.56213 -2.34551 0
M  V30 8157 S 774.625 -5.06727 -1.73169 0
M  V30 8158 C 775.781 -5.44316 -3.08984 0
M  V30 8159 H 776.014 -2.87739 -0.747905 0
M  V30 8160 H 773.547 -1.5198 -0.272316 0
M  V30 8161 H 775.505 -2.54431 -3.22141 0
M  V30 8162 H 774.166 -1.46297 -2.7795 0
M  V30 8163 H 773.359 -3.77812 -3.33578 0
M  V30 8164 H 772.961 -3.35406 -1.65466 0
M  V30 8165 H 775.253 -5.42894 -4.05305 0
M  V30 8166 H 776.196 -6.4502 -2.92156 0
M  V30 8167 H 776.604 -4.71781 -3.09972 0
M  V30 8168 N 776.003 0.335068 -1.53997 0
M  V30 8169 C 776.966 1.39481 -1.81872 0
M  V30 8170 C 777.966 1.4524 -0.690078 0
M  V30 8171 O 779.156 1.45467 -0.958377 0
M  V30 8172 C 776.288 2.78329 -1.9684 0
M  V30 8173 H 777.481 1.16024 -2.76547 0
M  V30 8174 H 775.034 0.569926 -1.45539 0
M  V30 8175 H 775.769 3.07058 -1.04337 0
M  V30 8176 H 775.554 2.75544 -2.78958 0
M  V30 8177 H 777.044 3.55016 -2.19894 0
M  V30 8178 N 777.481 1.45874 0.596531 0
M  V30 8179 C 778.892 1.44798 1.17857 0
M  V30 8180 C 779.243 0.181443 1.95359 0
M  V30 8181 O 778.368 -0.716336 2.042 0
M  V30 8182 C 778.963 2.62333 2.14398 0
M  V30 8183 C 777.522 2.64342 2.67955 0
M  V30 8184 C 776.669 2.37244 1.43564 0
M  V30 8185 H 779.62 1.53954 0.385222 0
M  V30 8186 H 779.641 2.37063 2.97626 0
M  V30 8187 H 779.153 3.54499 1.57963 0
M  V30 8188 H 777.254 1.76213 3.28298 0
M  V30 8189 H 777.367 3.63897 3.11634 0
M  V30 8190 H 775.731 1.87022 1.72901 0
M  V30 8191 H 776.514 3.31568 0.889805 0
M  V30 8192 N 778.959 -0.83999 1.33349 0
M  V30 8193 C 780.184 -1.63249 1.27924 0
M  V30 8194 C 780.609 -1.87523 -0.147193 0
M  V30 8195 O 779.967 -1.43853 -1.10345 0
M  V30 8196 C 780.015 -2.96046 2.05886 0
M  V30 8197 O 779.119 -3.87303 1.4167 0
M  V30 8198 H 778.46 -0.49715 0.440157 0
M  V30 8199 H 780.99 -1.04512 1.75893 0
M  V30 8200 H 781 -3.45752 2.16609 0
M  V30 8201 H 779.675 -2.77701 3.09605 0
M  V30 8202 H 778.252 -3.45789 1.39585 0
M  V30 8203 N 780.437 -1.16799 -1.0581 0
M  V30 8204 C 781.387 -0.847231 -2.11674 0
M  V30 8205 C 782.371 0.175476 -1.5994 0
M  V30 8206 O 783.563 -0.0260602 -1.76981 0
M  V30 8207 C 780.692 -0.355446 -3.41455 0
M  V30 8208 C 779.778 -1.40922 -4.00002 0
M  V30 8209 N 780.169 -2.62096 -4.32596 0
M  V30 8210 C 778.467 -1.26562 -4.27666 0
M  V30 8211 C 779.168 -3.29759 -4.79201 0
M  V30 8212 N 778.144 -2.57138 -4.78938 0
M  V30 8213 H 781.946 -1.76862 -2.34727 0
M  V30 8214 H 779.46 -1.05577 -1.23399 0
M  V30 8215 H 781.457 -0.107231 -4.16762 0
M  V30 8216 H 780.117 0.559817 -3.19838 0
M  V30 8217 H 781.128 -2.99113 -4.22791 0
M  V30 8218 H 777.805 -0.411503 -4.15467 0
M  V30 8219 H 779.195 -4.33222 -5.13584 0
M  V30 8220 N 781.915 1.24427 -0.967243 0
M  V30 8221 C 782.878 2.23637 -0.501927 0
M  V30 8222 C 783.878 1.55712 0.401283 0
M  V30 8223 O 785.068 1.73085 0.196808 0
M  V30 8224 C 782.2 3.39804 0.273176 0
M  V30 8225 H 783.393 2.66317 -1.37897 0
M  V30 8226 H 780.946 1.37033 -0.751783 0
M  V30 8227 H 781.681 3.02562 1.16733 0
M  V30 8228 H 781.466 3.90303 -0.37498 0
M  V30 8229 H 782.956 4.13443 0.587776 0
M  V30 8230 N 783.393 0.737304 1.3929 0
M  V30 8231 C 784.804 0.355966 1.83275 0
M  V30 8232 C 785.155 -1.11295 1.6158 0
M  V30 8233 O 784.28 -1.85871 1.10819 0
M  V30 8234 C 784.875 0.63931 3.32713 0
M  V30 8235 C 783.434 0.31144 3.75109 0
M  V30 8236 C 782.581 0.900765 2.62262 0
M  V30 8237 H 785.532 0.934763 1.28249 0
M  V30 8238 H 785.553 -0.0881293 3.80398 0
M  V30 8239 H 785.065 1.70847 3.48472 0
M  V30 8240 H 783.166 -0.751791 3.64937 0
M  V30 8241 H 783.279 0.795611 4.72448 0
M  V30 8242 H 781.643 0.327239 2.52589 0
M  V30 8243 H 782.426 1.97463 2.80826 0
M  V30 8244 N 784.871 -1.49948 0.485112 0
M  V30 8245 C 785.781 -2.32587 -0.306697 0
M  V30 8246 C 786.797 -1.43598 -0.982632 0
M  V30 8247 O 787.973 -1.76638 -0.967519 0
M  V30 8248 C 785.038 -3.18638 -1.3664 0
M  V30 8249 C 784.099 -4.23462 -0.705589 0
M  V30 8250 C 783.332 -5.05401 -1.7148 0
M  V30 8251 O 783.555 -4.88618 -2.94293 0
M  V30 8252 O 782.489 -5.88157 -1.27889 0
M  V30 8253 H 786.315 -3.01447 0.369272 0
M  V30 8254 H 783.9 -1.47349 0.246709 0
M  V30 8255 H 785.782 -3.71992 -1.9799 0
M  V30 8256 H 784.457 -2.52491 -2.02559 0
M  V30 8257 H 783.364 -3.74063 -0.0527733 0
M  V30 8258 H 784.697 -4.92119 -0.0891187 0
M  V30 8259 N 786.349 -0.21828 -1.56081 0
M  V30 8260 C 787.279 0.687922 -2.23136 0
M  V30 8261 C 788.26 1.20357 -1.202 0
M  V30 8262 O 789.445 1.24817 -1.48776 0
M  V30 8263 C 786.575 1.89762 -2.90874 0
M  V30 8264 C 785.529 1.51595 -4.00254 0
M  V30 8265 C 784.855 2.80415 -4.55271 0
M  V30 8266 C 786.155 0.708404 -5.17474 0
M  V30 8267 H 787.849 0.128854 -2.99123 0
M  V30 8268 H 785.395 0.0605354 -1.43873 0
M  V30 8269 H 787.348 2.53699 -3.36474 0
M  V30 8270 H 786.072 2.4816 -2.1233 0
M  V30 8271 H 784.731 0.900058 -3.55379 0
M  V30 8272 H 784.379 3.36951 -3.73461 0
M  V30 8273 H 784.079 2.55613 -5.2909 0
M  V30 8274 H 785.603 3.453 -5.03587 0
M  V30 8275 H 787.017 1.2514 -5.59476 0
M  V30 8276 H 785.414 0.557593 -5.97504 0
M  V30 8277 H 786.484 -0.285679 -4.84058 0
M  V30 8278 N 787.827 1.57504 0.0551401 0
M  V30 8279 C 788.777 2.0128 1.071 0
M  V30 8280 C 789.761 0.897592 1.33537 0
M  V30 8281 O 790.953 1.16151 1.33558 0
M  V30 8282 C 788.082 2.47414 2.37994 0
M  V30 8283 C 787.168 3.65703 2.14761 0
M  V30 8284 N 787.559 4.79323 1.61504 0
M  V30 8285 C 785.857 3.72574 2.45162 0
M  V30 8286 C 786.558 5.61089 1.53472 0
M  V30 8287 N 785.534 5.05426 2.00114 0
M  V30 8288 H 789.336 2.86558 0.652829 0
M  V30 8289 H 786.85 1.60274 0.26193 0
M  V30 8290 H 788.847 2.77023 3.11551 0
M  V30 8291 H 787.507 1.6353 2.80514 0
M  V30 8292 H 788.518 5.01284 1.30134 0
M  V30 8293 H 785.195 2.99439 2.90934 0
M  V30 8294 H 786.585 6.62328 1.13008 0
M  V30 8295 N 789.305 -0.326896 1.54172 0
M  V30 8296 C 790.235 -1.40741 1.86317 0
M  V30 8297 C 791.216 -1.54125 0.719684 0
M  V30 8298 O 792.401 -1.6806 0.973117 0
M  V30 8299 C 789.531 -2.77557 2.08757 0
M  V30 8300 C 788.485 -2.78965 3.24596 0
M  V30 8301 C 787.811 -4.18824 3.32401 0
M  V30 8302 C 789.111 -2.4301 4.62324 0
M  V30 8303 H 790.805 -1.14088 2.76811 0
M  V30 8304 H 788.351 -0.547389 1.3319 0
M  V30 8305 H 790.304 -3.53209 2.29829 0
M  V30 8306 H 789.028 -3.0568 1.15009 0
M  V30 8307 H 787.687 -2.05767 3.03406 0
M  V30 8308 H 787.335 -4.44083 2.36218 0
M  V30 8309 H 787.035 -4.20673 4.10253 0
M  V30 8310 H 788.559 -4.96294 3.55703 0
M  V30 8311 H 789.973 -3.08375 4.83299 0
M  V30 8312 H 788.37 -2.56116 5.42701 0
M  V30 8313 H 789.44 -1.38165 4.64799 0
M  V30 8314 N 790.784 -1.46188 -0.588786 0
M  V30 8315 C 791.731 -1.56292 -1.69828 0
M  V30 8316 C 792.701 -0.407581 -1.61022 0
M  V30 8317 O 793.886 -0.623532 -1.80324 0
M  V30 8318 C 791.026 -1.55341 -3.08161 0
M  V30 8319 C 790.139 -2.81564 -3.27636 0
M  V30 8320 C 789.274 -2.72158 -4.56183 0
M  V30 8321 C 788.313 -3.93348 -4.68981 0
M  V30 8322 N 787.45 -3.82365 -5.88848 0
M  V30 8323 H 792.29 -2.51066 -1.6053 0
M  V30 8324 H 789.827 -1.24562 -0.782474 0
M  V30 8325 H 791.785 -1.52776 -3.88221 0
M  V30 8326 H 790.415 -0.641034 -3.16371 0
M  V30 8327 H 789.467 -2.94136 -2.41223 0
M  V30 8328 H 790.779 -3.714 -3.32962 0
M  V30 8329 H 789.933 -2.67665 -5.44464 0
M  V30 8330 H 788.672 -1.79953 -4.53286 0
M  V30 8331 H 787.677 -3.98181 -3.7912 0
M  V30 8332 H 788.902 -4.86643 -4.73662 0
M  V30 8333 H 786.848 -2.92942 -5.86959 0
M  V30 8334 H 786.765 -4.65851 -5.95415 0
M  V30 8335 H 788.033 -3.81836 -6.79575 0
M  V30 8336 N 792.262 0.832906 -1.33792 0
M  V30 8337 C 793.212 1.93178 -1.21105 0
M  V30 8338 C 794.196 1.60506 -0.112491 0
M  V30 8339 O 795.388 1.73681 -0.341179 0
M  V30 8340 C 792.517 3.29647 -0.958526 0
M  V30 8341 C 791.603 3.68469 -2.0998 0
M  V30 8342 N 791.994 3.78936 -3.35024 0
M  V30 8343 C 790.292 3.98249 -2.00782 0
M  V30 8344 C 790.993 4.12731 -4.09912 0
M  V30 8345 N 789.969 4.25419 -3.38407 0
M  V30 8346 H 793.771 1.99434 -2.15878 0
M  V30 8347 H 791.285 1.02598 -1.25886 0
M  V30 8348 H 793.282 4.08173 -0.848552 0
M  V30 8349 H 791.942 3.24694 -0.019387 0
M  V30 8350 H 792.953 3.62688 -3.69699 0
M  V30 8351 H 789.63 4.01474 -1.14564 0
M  V30 8352 H 791.02 4.28117 -5.17847 0
M  V30 8353 N 793.74 1.17359 1.05189 0
M  V30 8354 C 794.989 0.956412 1.77583 0
M  V30 8355 C 795.302 -0.516018 1.88671 0
M  V30 8356 O 796.508 -0.851401 2.57805 0
M  V30 8357 C 794.964 1.66203 3.19225 0
M  V30 8358 C 794.572 3.17299 3.16267 0
M  V30 8359 C 796.316 1.52725 3.96075 0
M  V30 8360 C 794.223 3.8055 4.52698 0
M  V30 8361 H 793.153 0.354204 0.665624 0
M  V30 8362 H 795.804 1.40612 1.17901 0
M  V30 8363 H 794.186 1.14006 3.79234 0
M  V30 8364 H 795.36 3.76431 2.65776 0
M  V30 8365 H 793.675 3.3079 2.52917 0
M  V30 8366 H 796.272 1.97351 4.96947 0
M  V30 8367 H 796.615 0.477803 4.13549 0
M  V30 8368 H 797.148 2.02139 3.42614 0
M  V30 8369 H 793.887 4.85492 4.4043 0
M  V30 8370 H 793.407 3.26206 5.03339 0
M  V30 8371 H 795.086 3.82757 5.21638 0
M  V30 8372 N 795.218 -1.23913 0.973828 0
M  V30 8373 C 796.466 -1.91771 0.637817 0
M  V30 8374 C 796.787 -1.76434 -0.830435 0
M  V30 8375 O 796.057 -1.13965 -1.59339 0
M  V30 8376 H 794.637 -0.709761 0.232912 0
M  V30 8377 H 797.299 -1.50677 1.23622 0
M  V30 8378 H 796.395 -2.99327 0.883731 0
M  V30 8379 N 796.696 -0.74468 -1.38897 0
M  V30 8380 C 797.643 -0.111064 -2.30533 0
M  V30 8381 C 798.613 0.719276 -1.49719 0
M  V30 8382 O 799.798 0.677244 -1.78376 0
M  V30 8383 C 796.938 0.78292 -3.36102 0
M  V30 8384 C 796.051 -0.0610817 -4.31957 0
M  V30 8385 C 795.186 0.835075 -5.24595 0
M  V30 8386 C 794.225 -0.0130974 -6.12099 0
M  V30 8387 N 793.362 0.839525 -6.97063 0
M  V30 8388 H 798.202 -0.898113 -2.84144 0
M  V30 8389 H 795.739 -0.454537 -1.39901 0
M  V30 8390 H 797.697 1.31578 -3.95908 0
M  V30 8391 H 796.327 1.53585 -2.83922 0
M  V30 8392 H 795.379 -0.711469 -3.73687 0
M  V30 8393 H 796.691 -0.716482 -4.93627 0
M  V30 8394 H 795.845 1.43542 -5.89475 0
M  V30 8395 H 794.584 1.52423 -4.63269 0
M  V30 8396 H 793.589 -0.626179 -5.46223 0
M  V30 8397 H 794.814 -0.699181 -6.75491 0
M  V30 8398 H 792.76 1.5138 -6.38295 0
M  V30 8399 H 792.677 0.240823 -7.55616 0
M  V30 8400 H 793.945 1.42513 -7.66362 0
M  V30 8401 N 798.174 1.49689 -0.493057 0
M  V30 8402 C 799.402 2.06836 0.0513141 0
M  V30 8403 C 799.817 1.35436 1.31539 0
M  V30 8404 O 799.174 0.430248 1.77356 0
M  V30 8405 C 799.225 3.60107 0.317003 0
M  V30 8406 O 798.946 4.2882 -0.896957 0
M  V30 8407 C 800.447 4.33945 0.905902 0
M  V30 8408 H 797.667 0.670787 -0.0169048 0
M  V30 8409 H 800.211 1.92574 -0.688139 0
M  V30 8410 H 798.366 3.74099 1.00642 0
M  V30 8411 H 798.78 5.20395 -0.654939 0
M  V30 8412 H 800.254 5.42087 1.04144 0
M  V30 8413 H 800.731 3.95895 1.90168 0
M  V30 8414 H 801.337 4.2454 0.254195 0
M  V30 8415 N 799.652 0.226554 1.55963 0
M  V30 8416 C 800.898 -0.397608 1.99476 0
M  V30 8417 C 801.253 -1.57031 1.11172 0
M  V30 8418 O 800.546 -1.90907 0.162757 0
M  V30 8419 C 800.74 -0.87642 3.46488 0
M  V30 8420 C 800.569 0.248344 4.49014 0
M  V30 8421 C 799.339 0.71638 5.00196 0
M  V30 8422 C 801.537 1.06835 5.03081 0
M  V30 8423 N 799.519 1.81568 5.86435 0
M  V30 8424 C 800.89 2.01641 5.86294 0
M  V30 8425 C 802.945 1.10722 4.85433 0
M  V30 8426 C 801.648 3.0002 6.53743 0
M  V30 8427 C 803.674 2.07921 5.53645 0
M  V30 8428 C 803.036 3.01466 6.3663 0
M  V30 8429 H 799.135 -0.112024 0.773935 0
M  V30 8430 H 801.719 0.339472 1.91718 0
M  V30 8431 H 799.89 -1.58285 3.54684 0
M  V30 8432 H 801.622 -1.47382 3.76909 0
M  V30 8433 H 798.377 0.30409 4.72623 0
M  V30 8434 H 798.801 2.36748 6.34255 0
M  V30 8435 H 803.443 0.397909 4.20923 0
M  V30 8436 H 801.161 3.71911 7.17432 0
M  V30 8437 H 804.747 2.11609 5.41953 0
M  V30 8438 H 803.627 3.75451 6.88481 0
M  V30 8439 N 801.13 -1.57531 -0.0467866 0
M  V30 8440 C 802.093 -2.04379 -1.03738 0
M  V30 8441 C 803.093 -0.944881 -1.3011 0
M  V30 8442 O 804.283 -1.20904 -1.25411 0
M  V30 8443 C 801.415 -2.44572 -2.37482 0
M  V30 8444 H 802.608 -2.93142 -0.633063 0
M  V30 8445 H 800.161 -1.53526 -0.293177 0
M  V30 8446 H 800.896 -1.58911 -2.82697 0
M  V30 8447 H 800.681 -3.24785 -2.19675 0
M  V30 8448 H 802.171 -2.81307 -3.08636 0
M  V30 8449 N 802.608 0.318715 -1.54344 0
M  V30 8450 C 803.54 1.41364 -1.80413 0
M  V30 8451 C 804.553 1.47627 -0.686294 0
M  V30 8452 O 805.742 1.50264 -0.963486 0
M  V30 8453 C 802.842 2.79867 -1.91123 0
M  V30 8454 C 802.015 2.96749 -3.21339 0
M  V30 8455 C 801.074 4.15642 -3.22689 0
M  V30 8456 O 800.1 4.08571 -3.96306 0
M  V30 8457 N 801.302 5.25416 -2.46817 0
M  V30 8458 H 804.067 1.19363 -2.74905 0
M  V30 8459 H 801.628 0.508722 -1.537 0
M  V30 8460 H 803.62 3.57619 -1.89448 0
M  V30 8461 H 802.19 2.94896 -1.03706 0
M  V30 8462 H 801.41 2.06257 -3.35934 0
M  V30 8463 H 802.698 3.04927 -4.07304 0
M  V30 8464 H 802.096 5.34037 -1.86605 0
M  V30 8465 H 800.653 6.01569 -2.50915 0
M  V30 8466 N 804.086 1.46499 0.581025 0
M  V30 8467 C 805.016 1.60052 1.70017 0
M  V30 8468 C 805.997 0.450788 1.64018 0
M  V30 8469 O 807.182 0.677237 1.82009 0
M  V30 8470 C 804.312 1.5921 3.08658 0
M  V30 8471 C 803.266 2.73169 3.29488 0
M  V30 8472 C 802.592 2.57389 4.68674 0
M  V30 8473 C 803.892 4.14978 3.1716 0
M  V30 8474 H 805.586 2.53735 1.5893 0
M  V30 8475 H 803.132 1.22113 0.763173 0
M  V30 8476 H 805.085 1.67285 3.86773 0
M  V30 8477 H 803.809 0.620718 3.20647 0
M  V30 8478 H 802.468 2.64566 2.53773 0
M  V30 8479 H 802.116 1.58331 4.77431 0
M  V30 8480 H 801.816 3.33826 4.83564 0
M  V30 8481 H 803.34 2.67358 5.48956 0
M  V30 8482 H 804.754 4.24684 3.85119 0
M  V30 8483 H 803.151 4.92016 3.4357 0
M  V30 8484 H 804.221 4.35016 2.14218 0
M  V30 8485 N 805.565 -0.825799 1.34232 0
M  V30 8486 C 806.475 -1.9684 1.27638 0
M  V30 8487 C 807.491 -1.73018 0.184569 0
M  V30 8488 O 808.667 -1.97172 0.410525 0
M  V30 8489 C 805.732 -3.31084 1.02879 0
M  V30 8490 C 804.793 -3.67933 2.21188 0
M  V30 8491 C 804.026 -4.95772 1.976 0
M  V30 8492 O 804.249 -5.62721 0.93281 0
M  V30 8493 O 803.183 -5.30431 2.84477 0
M  V30 8494 H 807.009 -2.05346 2.23756 0
M  V30 8495 H 804.594 -0.960772 1.1441 0
M  V30 8496 H 806.476 -4.11492 0.908406 0
M  V30 8497 H 805.151 -3.23552 0.0979821 0
M  V30 8498 H 804.058 -2.87981 2.38784 0
M  V30 8499 H 805.391 -3.80147 3.12648 0
M  V30 8500 N 807.043 -1.17915 -1.04565 0
M  V30 8501 C 808.289 -0.982872 -1.78076 0
M  V30 8502 C 808.644 0.482843 -1.86243 0
M  V30 8503 O 807.937 1.35383 -1.3558 0
M  V30 8504 C 808.131 -1.56528 -3.213 0
M  V30 8505 C 807.96 -3.0861 -3.27093 0
M  V30 8506 C 806.73 -3.77389 -3.36014 0
M  V30 8507 C 808.928 -4.06146 -3.15515 0
M  V30 8508 N 806.91 -5.1702 -3.31004 0
M  V30 8509 C 808.281 -5.32268 -3.17948 0
M  V30 8510 C 810.336 -3.97732 -2.99522 0
M  V30 8511 C 809.039 -6.50951 -3.06031 0
M  V30 8512 C 811.065 -5.16007 -2.88948 0
M  V30 8513 C 810.427 -6.41018 -2.9202 0
M  V30 8514 H 806.526 -0.413617 -0.66366 0
M  V30 8515 H 809.11 -1.49607 -1.24603 0
M  V30 8516 H 807.281 -1.07833 -3.73131 0
M  V30 8517 H 809.013 -1.30501 -3.83082 0
M  V30 8518 H 805.768 -3.28098 -3.41538 0
M  V30 8519 H 806.192 -5.90031 -3.31952 0
M  V30 8520 H 810.834 -3.01919 -2.95981 0
M  V30 8521 H 808.552 -7.46968 -3.08326 0
M  V30 8522 H 812.138 -5.11283 -2.77635 0
M  V30 8523 H 811.018 -7.30999 -2.83919 0
M  V30 8524 N 808.521 1.23394 -0.980386 0
M  V30 8525 C 809.767 1.92094 -0.650223 0
M  V30 8526 C 810.1 1.76309 0.814173 0
M  V30 8527 O 809.375 1.12406 1.5873 0
M  V30 8528 C 809.658 3.44713 -1.04139 0
M  V30 8529 C 809.511 3.69606 -2.56342 0
M  V30 8530 C 810.83 4.36191 -0.585296 0
M  V30 8531 H 807.949 0.697618 -0.237695 0
M  V30 8532 H 810.591 1.45517 -1.22167 0
M  V30 8533 H 808.741 3.84513 -0.55515 0
M  V30 8534 H 810.413 3.39288 -3.1254 0
M  V30 8535 H 808.656 3.14318 -2.98976 0
M  V30 8536 H 809.327 4.76441 -2.78762 0
M  V30 8537 H 811.803 4.03836 -1.00276 0
M  V30 8538 H 810.679 5.41679 -0.887428 0
M  V30 8539 H 810.94 4.39097 0.51438 0
M  V30 8540 N 809.999 0.752036 1.385 0
M  V30 8541 C 811.41 0.375385 1.82887 0
M  V30 8542 C 811.761 -1.09575 1.62751 0
M  V30 8543 O 810.886 -1.84685 1.12785 0
M  V30 8544 C 811.481 0.674563 3.32017 0
M  V30 8545 C 810.04 0.351208 3.74758 0
M  V30 8546 C 809.187 0.928531 2.61292 0
M  V30 8547 H 812.138 0.948313 1.27251 0
M  V30 8548 H 812.159 -0.0477781 3.8047 0
M  V30 8549 H 811.671 1.74533 3.46641 0
M  V30 8550 H 809.772 -0.713042 3.65714 0
M  V30 8551 H 809.885 0.845675 4.71577 0
M  V30 8552 H 808.249 0.354012 2.52228 0
M  V30 8553 H 809.032 2.0043 2.78716 0
M  V30 8554 N 811.477 -1.49425 0.500989 0
M  V30 8555 C 812.387 -2.32899 -0.282011 0
M  V30 8556 C 813.403 -1.44632 -0.967346 0
M  V30 8557 O 814.579 -1.77654 -0.94873 0
M  V30 8558 C 811.644 -3.20069 -1.33253 0
M  V30 8559 C 810.705 -4.24186 -0.660636 0
M  V30 8560 C 809.938 -5.07191 -1.6611 0
M  V30 8561 O 810.161 -4.91712 -2.89094 0
M  V30 8562 O 809.095 -5.8948 -1.21643 0
M  V30 8563 H 812.921 -3.01038 0.401224 0
M  V30 8564 H 810.506 -1.47079 0.262323 0
M  V30 8565 H 812.388 -3.74071 -1.94033 0
M  V30 8566 H 811.063 -2.54625 -1.9987 0
M  V30 8567 H 809.97 -3.74098 -0.0130959 0
M  V30 8568 H 811.303 -4.92186 -0.0369179 0
M  V30 8569 N 812.955 -0.234822 -1.55841 0
M  V30 8570 C 814.366 0.270588 -1.84729 0
M  V30 8571 C 814.717 1.58494 -1.15646 0
M  V30 8572 O 813.842 2.12071 -0.430667 0
M  V30 8573 C 814.437 0.497733 -3.35124 0
M  V30 8574 C 812.996 0.947428 -3.64281 0
M  V30 8575 C 812.143 0.01787 -2.77294 0
M  V30 8576 H 815.094 -0.457691 -1.51957 0
M  V30 8577 H 815.115 1.34199 -3.56049 0
M  V30 8578 H 814.627 -0.459037 -3.85376 0
M  V30 8579 H 812.728 1.91709 -3.19497 0
M  V30 8580 H 812.841 0.812651 -4.72158 0
M  V30 8581 H 811.205 0.527071 -2.49187 0
M  V30 8582 H 811.988 -0.934056 -3.30349 0
M  V30 8583 N 814.433 1.57553 0.0384317 0
M  V30 8584 C 815.844 1.77258 0.586211 0
M  V30 8585 C 816.195 0.864706 1.76117 0
M  V30 8586 O 815.32 0.057141 2.16325 0
M  V30 8587 C 815.915 3.21453 1.07021 0
M  V30 8588 C 814.474 3.42387 1.56358 0
M  V30 8589 C 813.621 2.72801 0.497508 0
M  V30 8590 H 816.572 1.57585 -0.187796 0
M  V30 8591 H 816.593 3.27451 1.93794 0
M  V30 8592 H 816.105 3.87505 0.214851 0
M  V30 8593 H 814.206 2.81497 2.44111 0
M  V30 8594 H 814.319 4.50968 1.61754 0
M  V30 8595 H 812.683 2.36305 0.95038 0
M  V30 8596 H 813.466 3.41529 -0.348234 0
M  V30 8597 N 815.911 -0.310526 1.54511 0
M  V30 8598 C 816.821 -1.4054 1.87844 0
M  V30 8599 C 817.837 -1.55954 0.771635 0
M  V30 8600 O 819.013 -1.70801 1.06719 0
M  V30 8601 C 816.078 -2.75063 2.11048 0
M  V30 8602 C 815.139 -2.68715 3.348 0
M  V30 8603 C 814.372 -3.96821 3.56887 0
M  V30 8604 O 814.595 -4.95721 2.82165 0
M  V30 8605 O 813.529 -3.99291 4.50389 0
M  V30 8606 H 817.355 -1.15275 2.80972 0
M  V30 8607 H 814.94 -0.505732 1.4058 0
M  V30 8608 H 816.822 -3.54671 2.27566 0
M  V30 8609 H 815.497 -3.00191 1.21108 0
M  V30 8610 H 814.404 -1.87611 3.23655 0
M  V30 8611 H 815.737 -2.4854 4.2484 0
M  V30 8612 N 817.389 -1.46805 -0.573248 0
M  V30 8613 C 818.319 -1.60951 -1.69165 0
M  V30 8614 C 819.3 -0.45948 -1.63777 0
M  V30 8615 O 820.485 -0.68688 -1.81647 0
M  V30 8616 C 817.615 -1.60844 -3.07809 0
M  V30 8617 C 816.569 -2.74913 -3.28035 0
M  V30 8618 C 815.895 -2.59871 -4.67302 0
M  V30 8619 C 817.195 -4.16654 -3.14955 0
M  V30 8620 H 818.889 -2.54574 -1.57582 0
M  V30 8621 H 816.435 -1.22516 -0.756686 0
M  V30 8622 H 818.388 -1.69334 -3.85881 0
M  V30 8623 H 817.112 -0.637714 -3.20314 0
M  V30 8624 H 815.771 -2.65908 -2.52366 0
M  V30 8625 H 815.419 -1.60861 -4.76585 0
M  V30 8626 H 815.119 -3.36386 -4.81786 0
M  V30 8627 H 816.643 -2.70265 -5.4753 0
M  V30 8628 H 818.057 -4.26721 -3.82861 0
M  V30 8629 H 816.454 -4.93831 -3.40956 0
M  V30 8630 H 817.524 -4.36146 -2.11908 0
M  V30 8631 N 818.867 0.818669 -1.34668 0
M  V30 8632 C 820.115 1.57201 -1.27013 0
M  V30 8633 C 820.436 1.94354 0.158599 0
M  V30 8634 O 819.706 1.62626 1.09223 0
M  V30 8635 H 818.286 0.582919 -0.467135 0
M  V30 8636 H 820.948 0.977234 -1.6863 0
M  V30 8637 H 820.044 2.49291 -1.87778 0
M  V30 8638 N 820.346 1.18468 1.03938 0
M  V30 8639 C 821.293 0.912859 2.1198 0
M  V30 8640 C 822.263 -0.14824 1.65437 0
M  V30 8641 O 823.448 -0.008331 1.90798 0
M  V30 8642 C 820.588 0.446114 3.42204 0
M  V30 8643 C 819.701 1.57278 4.02353 0
M  V30 8644 C 818.836 1.05863 5.20544 0
M  V30 8645 C 817.875 2.1599 5.72726 0
M  V30 8646 N 817.012 1.65959 6.82204 0
M  V30 8647 H 821.852 1.83798 2.34569 0
M  V30 8648 H 819.389 0.916504 1.15059 0
M  V30 8649 H 821.347 0.15697 4.16905 0
M  V30 8650 H 819.977 -0.442025 3.19759 0
M  V30 8651 H 819.029 1.97737 3.24968 0
M  V30 8652 H 820.341 2.40289 4.37107 0
M  V30 8653 H 819.495 0.724087 6.02364 0
M  V30 8654 H 818.234 0.198116 4.87297 0
M  V30 8655 H 817.239 2.50287 4.89527 0
M  V30 8656 H 818.464 3.02479 6.08016 0
M  V30 8657 H 816.41 0.82199 6.5083 0
M  V30 8658 H 816.327 2.42567 7.16029 0
M  V30 8659 H 817.595 1.35436 7.67644 0
M  V30 8660 N 821.824 -1.22873 0.986916 0
M  V30 8661 C 823.049 -1.96028 0.677341 0
M  V30 8662 C 823.474 -1.72487 -0.750319 0
M  V30 8663 O 822.832 -1.00036 -1.51203 0
M  V30 8664 C 822.88 -3.46983 0.981593 0
M  V30 8665 O 821.984 -4.12328 0.0770729 0
M  V30 8666 H 821.325 -0.613458 0.254096 0
M  V30 8667 H 823.855 -1.56132 1.32227 0
M  V30 8668 H 823.865 -3.9747 0.920969 0
M  V30 8669 H 822.54 -3.63442 2.02194 0
M  V30 8670 H 821.117 -3.72402 0.192666 0
M  V30 8671 N 823.302 -0.75937 -1.38099 0
M  V30 8672 C 824.713 -0.385078 -1.82686 0
M  V30 8673 C 825.064 1.0871 -1.6333 0
M  V30 8674 O 824.189 1.84084 -1.13762 0
M  V30 8675 C 824.784 -0.692161 -3.31654 0
M  V30 8676 C 823.343 -0.371077 -3.74566 0
M  V30 8677 C 822.49 -0.942375 -2.60796 0
M  V30 8678 H 825.441 -0.955048 -1.26746 0
M  V30 8679 H 825.462 0.0276001 -3.8049 0
M  V30 8680 H 824.974 -1.76369 -3.4571 0
M  V30 8681 H 823.075 0.693637 -3.66087 0
M  V30 8682 H 823.188 -0.870672 -4.71122 0
M  V30 8683 H 821.552 -0.367383 -2.52036 0
M  V30 8684 H 822.335 -2.01905 -2.77649 0
M  V30 8685 N 824.78 1.49157 -0.508906 0
M  V30 8686 C 825.71 2.32109 0.254469 0
M  V30 8687 C 826.691 1.40754 0.955111 0
M  V30 8688 O 827.876 1.69658 0.944983 0
M  V30 8689 C 825.006 3.21458 1.3146 0
M  V30 8690 C 823.96 4.2167 0.733368 0
M  V30 8691 C 823.286 5.00009 1.8946 0
M  V30 8692 C 824.586 5.21544 -0.280875 0
M  V30 8693 H 826.28 2.9618 -0.43795 0
M  V30 8694 H 823.826 1.4243 -0.212062 0
M  V30 8695 H 825.779 3.78305 1.85643 0
M  V30 8696 H 824.503 2.55346 2.03632 0
M  V30 8697 H 823.162 3.65979 0.213231 0
M  V30 8698 H 822.81 4.30338 2.60419 0
M  V30 8699 H 822.51 5.67821 1.51173 0
M  V30 8700 H 824.034 5.59702 2.44061 0
M  V30 8701 H 825.448 5.73039 0.173095 0
M  V30 8702 H 823.845 5.97291 -0.580006 0
M  V30 8703 H 824.915 4.69969 -1.19404 0
M  V30 8704 N 826.258 0.243083 1.55714 0
M  V30 8705 C 827.486 -0.386971 2.03249 0
M  V30 8706 C 827.901 -1.51812 1.12243 0
M  V30 8707 O 827.258 -1.81992 0.136119 0
M  V30 8708 C 827.309 -0.898361 3.5016 0
M  V30 8709 O 827.03 0.187708 4.37698 0
M  V30 8710 C 828.531 -1.59949 4.13438 0
M  V30 8711 H 825.751 -0.0923981 0.664608 0
M  V30 8712 H 828.295 0.365832 2.01201 0
M  V30 8713 H 826.45 -1.60136 3.52754 0
M  V30 8714 H 826.864 -0.200001 5.24119 0
M  V30 8715 H 828.338 -1.90907 5.17937 0
M  V30 8716 H 828.815 -2.52014 3.59702 0
M  V30 8717 H 829.421 -0.941163 4.14756 0
M  V30 8718 N 827.736 -1.57571 -0.0300757 0
M  V30 8719 C 828.686 -2.02958 -1.03885 0
M  V30 8720 C 829.67 -0.918723 -1.32092 0
M  V30 8721 O 830.862 -1.18262 -1.31694 0
M  V30 8722 C 827.991 -2.51169 -2.34028 0
M  V30 8723 C 827.077 -3.69073 -2.08915 0
M  V30 8724 N 827.468 -4.81831 -1.53858 0
M  V30 8725 C 825.766 -3.76427 -2.39204 0
M  V30 8726 C 826.467 -5.6346 -1.44526 0
M  V30 8727 N 825.443 -5.08545 -1.92048 0
M  V30 8728 H 829.245 -2.8756 -0.607157 0
M  V30 8729 H 826.759 -1.6067 -0.236399 0
M  V30 8730 H 828.756 -2.81944 -3.07104 0
M  V30 8731 H 827.416 -1.67972 -2.77876 0
M  V30 8732 H 828.427 -5.03291 -1.22142 0
M  V30 8733 H 825.104 -3.04029 -2.86134 0
M  V30 8734 H 826.494 -6.64042 -1.02456 0
M  V30 8735 N 829.214 0.302327 -1.54673 0
M  V30 8736 C 830.444 1.05516 -1.77623 0
M  V30 8737 C 830.852 1.81474 -0.535159 0
M  V30 8738 O 830.195 1.76635 0.504543 0
M  V30 8739 C 830.257 2.08305 -2.93001 0
M  V30 8740 C 829.921 1.51554 -4.31139 0
M  V30 8741 C 830.918 0.946261 -5.11216 0
M  V30 8742 C 828.603 1.55157 -4.77736 0
M  V30 8743 C 830.597 0.420559 -6.36011 0
M  V30 8744 C 828.284 1.022 -6.02494 0
M  V30 8745 C 829.282 0.457461 -6.81466 0
M  V30 8746 O 828.97 -0.064083 -8.03874 0
M  V30 8747 H 828.702 0.318756 -0.59613 0
M  V30 8748 H 831.256 0.347558 -2.02438 0
M  V30 8749 H 829.486 2.82742 -2.63807 0
M  V30 8750 H 831.175 2.69479 -3.03539 0
M  V30 8751 H 831.941 0.911338 -4.76361 0
M  V30 8752 H 827.82 1.98037 -4.16296 0
M  V30 8753 H 831.364 -0.0207298 -6.97597 0
M  V30 8754 H 827.261 1.05406 -6.36836 0
M  V30 8755 H 828.029 0.0493422 -8.18485 0
M  V30 8756 N 830.692 1.47107 0.565454 0
M  V30 8757 C 831.92 1.56909 1.3486 0
M  V30 8758 C 832.335 0.216312 1.87557 0
M  V30 8759 O 831.692 -0.789168 1.64555 0
M  V30 8760 C 831.743 2.58776 2.52423 0
M  V30 8761 O 831.464 3.888 2.01906 0
M  V30 8762 C 832.965 2.78683 3.44747 0
M  V30 8763 H 830.185 0.530096 0.411387 0
M  V30 8764 H 832.729 1.92658 0.685782 0
M  V30 8765 H 830.884 2.25983 3.1466 0
M  V30 8766 H 831.298 4.44393 2.78595 0
M  V30 8767 H 832.772 3.53842 4.23674 0
M  V30 8768 H 833.249 1.86208 3.97773 0
M  V30 8769 H 833.855 3.12641 2.88333 0
M  V30 8770 N 832.17 -0.811516 1.35101 0
M  V30 8771 C 833.419 -1.56343 1.27435 0
M  V30 8772 C 833.732 -1.95019 -0.150696 0
M  V30 8773 O 834.938 -2.6924 -0.349586 0
M  V30 8774 C 833.394 -2.82124 2.23459 0
M  V30 8775 C 833.002 -2.50706 3.71283 0
M  V30 8776 C 834.746 -3.60137 2.24726 0
M  V30 8777 C 832.653 -3.72748 4.59143 0
M  V30 8778 H 831.583 -0.58682 0.473453 0
M  V30 8779 H 834.234 -0.892465 1.60335 0
M  V30 8780 H 832.616 -3.50905 1.83525 0
M  V30 8781 H 833.79 -1.89962 4.19823 0
M  V30 8782 H 832.105 -1.85947 3.72576 0
M  V30 8783 H 834.702 -4.50775 2.87587 0
M  V30 8784 H 835.045 -3.97101 1.24965 0
M  V30 8785 H 835.578 -2.98311 2.63164 0
M  V30 8786 H 832.317 -3.40896 5.59884 0
M  V30 8787 H 831.837 -4.32735 4.15332 0
M  V30 8788 H 833.516 -4.40033 4.74321 0
M  V30 8789 N 833.648 -1.19017 -1.03309 0
M  V30 8790 C 834.895 -0.990214 -1.76638 0
M  V30 8791 C 835.223 0.479435 -1.88498 0
M  V30 8792 O 834.478 1.37223 -1.39529 0
M  V30 8793 C 834.777 -1.59927 -3.19622 0
M  V30 8794 C 834.443 -3.09632 -3.27779 0
M  V30 8795 C 833.105 -3.50491 -3.29712 0
M  V30 8796 C 835.457 -4.05644 -3.27264 0
M  V30 8797 C 832.785 -4.85921 -3.28782 0
M  V30 8798 C 835.137 -5.41 -3.27875 0
M  V30 8799 C 833.801 -5.81295 -3.28104 0
M  V30 8800 H 833.071 -0.362345 -0.646364 0
M  V30 8801 H 835.718 -1.48197 -1.21284 0
M  V30 8802 H 834.023 -1.0297 -3.78027 0
M  V30 8803 H 835.72 -1.41989 -3.7502 0
M  V30 8804 H 832.31 -2.77073 -3.26999 0
M  V30 8805 H 836.494 -3.75124 -3.24955 0
M  V30 8806 H 831.75 -5.16427 -3.27281 0
M  V30 8807 H 835.924 -6.15157 -3.26428 0
M  V30 8808 H 833.551 -6.86211 -3.27138 0
M  V30 8809 N 835.127 1.22348 -0.993418 0
M  V30 8810 C 836.373 1.91689 -0.680217 0
M  V30 8811 C 836.728 1.75912 0.779269 0
M  V30 8812 O 836.021 1.11761 1.55628 0
M  V30 8813 C 836.215 3.42477 -1.02197 0
M  V30 8814 C 836.044 3.72923 -2.51313 0
M  V30 8815 C 834.814 3.9291 -3.17726 0
M  V30 8816 C 837.012 3.7736 -3.49434 0
M  V30 8817 N 834.994 4.10672 -4.56313 0
M  V30 8818 C 836.365 4.00269 -4.73481 0
M  V30 8819 C 838.42 3.60211 -3.43733 0
M  V30 8820 C 837.123 4.0781 -5.92523 0
M  V30 8821 C 839.149 3.69011 -4.62152 0
M  V30 8822 C 838.511 3.92371 -5.85 0
M  V30 8823 H 834.61 0.722086 -0.300193 0
M  V30 8824 H 837.194 1.47273 -1.27353 0
M  V30 8825 H 835.365 3.85699 -0.457223 0
M  V30 8826 H 837.097 3.99204 -0.664702 0
M  V30 8827 H 833.852 3.90345 -2.68193 0
M  V30 8828 H 834.276 4.2348 -5.28199 0
M  V30 8829 H 838.918 3.41137 -2.49771 0
M  V30 8830 H 836.636 4.25688 -6.86888 0
M  V30 8831 H 840.222 3.5708 -4.59331 0
M  V30 8832 H 839.102 3.9901 -6.75101 0
M  V30 8833 N 836.605 0.766683 1.37694 0
M  V30 8834 C 837.833 0.339939 2.04088 0
M  V30 8835 C 838.248 -1.03617 1.57826 0
M  V30 8836 O 837.605 -1.6605 0.757214 0
M  V30 8837 C 837.656 0.368269 3.59619 0
M  V30 8838 O 837.377 1.69009 4.04188 0
M  V30 8839 C 838.878 -0.0707053 4.43244 0
M  V30 8840 H 836.098 0.143189 0.655544 0
M  V30 8841 H 838.642 1.03919 1.76128 0
M  V30 8842 H 836.797 -0.282359 3.8637 0
M  V30 8843 H 837.211 1.62523 4.98685 0
M  V30 8844 H 838.685 0.000273538 5.52 0
M  V30 8845 H 839.162 -1.1204 4.24669 0
M  V30 8846 H 839.768 0.551543 4.21709 0
M  V30 8847 N 838.083 -1.48885 0.516809 0
M  V30 8848 C 839.031 -2.31066 -0.266656 0
M  V30 8849 C 840.025 -1.40393 -0.94795 0
M  V30 8850 O 841.231 -1.57366 -0.873836 0
M  V30 8851 H 837.606 -0.744654 -0.104858 0
M  V30 8852 H 839.577 -2.95045 0.446236 0
M  V30 8853 C 838.326 -3.22131 -1.3087 0
M  V30 8854 H 837.649 -3.91839 -0.793865 0
M  V30 8855 H 839.089 -3.82544 -1.82856 0
M  V30 8856 C 837.548 -2.42825 -2.33533 0
M  V30 8857 O 838.078 -2.14364 -3.39722 0
M  V30 8858 N 836.284 -2.04559 -2.06407 0
M  V30 8859 H 835.831 -2.27905 -1.20071 0
M  V30 8860 H 835.789 -1.51807 -2.75322 0
M  V30 8861 N 839.561 -0.251338 -1.55583 0
M  V30 8862 C 840.524 0.63305 -2.20284 0
M  V30 8863 C 841.524 1.09941 -1.17344 0
M  V30 8864 O 842.714 1.00341 -1.42399 0
M  V30 8865 C 839.846 1.8706 -2.84993 0
M  V30 8866 H 841.039 0.0684846 -2.99822 0
M  V30 8867 H 838.592 -0.00181653 -1.563 0
M  V30 8868 H 839.327 2.47629 -2.09405 0
M  V30 8869 H 839.112 1.54436 -3.60405 0
M  V30 8870 H 840.602 2.50004 -3.34496 0
M  V30 8871 N 841.039 1.57585 0.0217189 0
M  V30 8872 C 841.971 2.03849 1.04777 0
M  V30 8873 C 842.984 0.952558 1.32023 0
M  V30 8874 O 844.173 1.22974 1.29381 0
M  V30 8875 C 841.273 2.40504 2.3877 0
M  V30 8876 C 840.446 3.71566 2.30775 0
M  V30 8877 C 839.505 3.95329 3.47277 0
M  V30 8878 O 838.531 4.66289 3.26441 0
M  V30 8879 N 839.733 3.41536 4.69397 0
M  V30 8880 H 842.498 2.92491 0.653395 0
M  V30 8881 H 840.059 1.60538 0.209527 0
M  V30 8882 H 842.051 2.53532 3.15442 0
M  V30 8883 H 840.621 1.57494 2.70027 0
M  V30 8884 H 839.841 3.68822 1.39155 0
M  V30 8885 H 841.129 4.5753 2.22584 0
M  V30 8886 H 840.527 2.84033 4.89226 0
M  V30 8887 H 839.084 3.59932 5.43408 0
M  V30 8888 N 842.517 -0.29412 1.54831 0
M  V30 8889 C 843.465 -1.38296 1.87021 0
M  V30 8890 C 844.459 -1.5216 0.744557 0
M  V30 8891 O 845.665 -1.54196 0.92864 0
M  V30 8892 H 842.04 -0.462088 0.593278 0
M  V30 8893 H 844.011 -1.08386 2.7802 0
M  V30 8894 C 842.76 -2.74024 2.14023 0
M  V30 8895 H 842.083 -2.6414 3.00117 0
M  V30 8896 H 843.523 -3.49205 2.40482 0
M  V30 8897 C 841.982 -3.23492 0.940982 0
M  V30 8898 O 842.512 -4.01361 0.164937 0
M  V30 8899 N 840.718 -2.80902 0.744467 0
M  V30 8900 H 840.265 -2.17694 1.37721 0
M  V30 8901 H 840.223 -3.14349 -0.0563652 0
M  V30 8902 N 843.995 -1.47404 -0.557645 0
M  V30 8903 C 844.927 -1.55917 -1.67995 0
M  V30 8904 C 845.94 -0.445411 -1.56588 0
M  V30 8905 O 847.129 -0.714999 -1.63554 0
M  V30 8906 C 844.229 -1.44697 -3.06457 0
M  V30 8907 C 843.402 -2.70633 -3.43622 0
M  V30 8908 C 842.461 -2.53256 -4.61246 0
M  V30 8909 O 841.487 -3.27068 -4.65849 0
M  V30 8910 N 842.689 -1.61053 -5.57711 0
M  V30 8911 H 845.454 -2.52694 -1.61139 0
M  V30 8912 H 843.015 -1.43778 -0.744271 0
M  V30 8913 H 845.007 -1.30806 -3.82978 0
M  V30 8914 H 843.577 -0.560039 -3.07542 0
M  V30 8915 H 842.797 -2.99288 -2.56555 0
M  V30 8916 H 844.085 -3.5424 -3.65228 0
M  V30 8917 H 843.483 -1.00235 -5.56749 0
M  V30 8918 H 842.04 -1.53115 -6.33561 0
M  V30 8919 N 845.473 0.80434 -1.35529 0
M  V30 8920 C 846.698 1.598 -1.32207 0
M  V30 8921 C 847.123 1.87848 0.0974226 0
M  V30 8922 O 846.481 1.46728 1.06492 0
M  V30 8923 C 846.529 2.90483 -2.13663 0
M  V30 8924 O 845.633 3.83411 -1.51888 0
M  V30 8925 H 844.974 0.485305 -0.453183 0
M  V30 8926 H 847.504 0.998119 -1.78602 0
M  V30 8927 H 847.514 3.39888 -2.257 0
M  V30 8928 H 846.189 2.69395 -3.16859 0
M  V30 8929 H 844.766 3.41967 -1.48704 0
M  V30 8930 N 846.951 1.19563 1.02676 0
M  V30 8931 C 848.198 0.999568 1.7611 0
M  V30 8932 C 848.526 -0.469432 1.8875 0
M  V30 8933 O 847.781 -1.36481 1.40255 0
M  V30 8934 C 848.08 1.61619 3.18769 0
M  V30 8935 C 847.746 3.11366 3.26132 0
M  V30 8936 C 846.408 3.52234 3.27848 0
M  V30 8937 C 848.76 4.07374 3.25109 0
M  V30 8938 C 846.088 4.87658 3.26201 0
M  V30 8939 C 848.44 5.42731 3.25002 0
M  V30 8940 C 847.104 5.83027 3.25017 0
M  V30 8941 H 846.374 0.365768 0.644434 0
M  V30 8942 H 849.021 1.48838 1.20497 0
M  V30 8943 H 847.326 1.04974 3.77476 0
M  V30 8944 H 849.023 1.43975 3.74262 0
M  V30 8945 H 845.613 2.78804 3.25525 0
M  V30 8946 H 849.797 3.76842 3.22961 0
M  V30 8947 H 845.053 5.18156 3.24537 0
M  V30 8948 H 849.227 6.16879 3.23161 0
M  V30 8949 H 846.854 6.87936 3.23494 0
M  V30 8950 N 848.429 -1.21819 0.999893 0
M  V30 8951 C 849.654 -1.95298 0.698094 0
M  V30 8952 C 850.079 -1.73273 -0.731982 0
M  V30 8953 O 849.437 -1.01634 -1.50134 0
M  V30 8954 C 849.485 -3.45922 1.01834 0
M  V30 8955 O 848.589 -4.12223 0.120801 0
M  V30 8956 H 847.93 -0.610729 0.260588 0
M  V30 8957 H 850.46 -1.5472 1.33876 0
M  V30 8958 H 850.47 -3.96471 0.963074 0
M  V30 8959 H 849.145 -3.61278 2.06037 0
M  V30 8960 H 847.722 -3.72177 0.232153 0
M  V30 8961 N 849.908 -0.773975 -1.37286 0
M  V30 8962 C 850.871 -0.167974 -2.28584 0
M  V30 8963 C 851.871 0.625662 -1.48129 0
M  V30 8964 O 853.061 0.448924 -1.68316 0
M  V30 8965 C 850.193 0.769364 -3.32105 0
M  V30 8966 H 851.386 -0.972806 -2.83684 0
M  V30 8967 H 848.939 -0.542335 -1.46589 0
M  V30 8968 H 849.674 1.59912 -2.82132 0
M  V30 8969 H 849.459 0.202419 -3.91577 0
M  V30 8970 H 850.949 1.18872 -4.00324 0
M  V30 8971 N 851.386 1.48609 -0.524698 0
M  V30 8972 C 852.635 2.01696 0.0132937 0
M  V30 8973 C 852.948 1.40751 1.35825 0
M  V30 8974 O 854.154 1.85304 1.9843 0
M  V30 8975 C 852.61 3.59824 0.0741012 0
M  V30 8976 C 852.218 4.2975 -1.26564 0
M  V30 8977 C 853.962 4.20774 0.5612 0
M  V30 8978 C 851.869 5.79798 -1.16571 0
M  V30 8979 H 850.799 0.753949 0.00873931 0
M  V30 8980 H 853.45 1.70922 -0.667684 0
M  V30 8981 H 851.832 3.87416 0.820043 0
M  V30 8982 H 853.006 4.13836 -2.02674 0
M  V30 8983 H 851.321 3.80649 -1.68806 0
M  V30 8984 H 853.918 5.30687 0.653853 0
M  V30 8985 H 854.261 3.85734 1.56573 0
M  V30 8986 H 854.794 3.97591 -0.128901 0
M  V30 8987 H 851.533 6.19403 -2.14523 0
M  V30 8988 H 851.053 5.9814 -0.445894 0
M  V30 8989 H 852.732 6.41337 -0.854186 0
M  V30 8990 N 852.864 0.259585 1.55447 0
M  V30 8991 C 853.794 -0.62852 2.24882 0
M  V30 8992 C 854.775 -1.17128 1.23349 0
M  V30 8993 O 855.96 -1.20829 1.52033 0
M  V30 8994 C 853.09 -1.81983 2.95803 0
M  V30 8995 C 852.044 -1.40929 4.04132 0
M  V30 8996 C 851.37 -2.68246 4.62545 0
M  V30 8997 C 852.67 -0.570956 5.1917 0
M  V30 8998 H 854.364 -0.0495021 2.99359 0
M  V30 8999 H 851.91 -0.0223688 1.43983 0
M  V30 9000 H 853.863 -2.44689 3.43082 0
M  V30 9001 H 852.587 -2.42444 2.18835 0
M  V30 9002 H 851.246 -0.805519 3.57641 0
M  V30 9003 H 850.894 -3.26931 3.82263 0
M  V30 9004 H 850.594 -2.41495 5.35681 0
M  V30 9005 H 852.118 -3.31827 5.12565 0
M  V30 9006 H 853.532 -1.10262 5.62597 0
M  V30 9007 H 851.929 -0.398979 5.98772 0
M  V30 9008 H 852.999 0.413918 4.8313 0
M  V30 9009 N 854.342 -1.57594 -0.0133615 0
M  V30 9010 C 855.29 -2.08682 -1.02736 0
M  V30 9011 C 856.284 -1.00391 -1.36448 0
M  V30 9012 O 857.49 -1.18868 -1.35168 0
M  V30 9013 H 853.865 -0.666158 -0.34891 0
M  V30 9014 H 855.836 -2.9289 -0.570815 0
M  V30 9015 C 854.585 -2.5945 -2.31476 0
M  V30 9016 H 853.908 -3.42401 -2.06401 0
M  V30 9017 H 855.348 -2.98888 -3.00735 0
M  V30 9018 C 853.807 -1.50266 -3.01533 0
M  V30 9019 O 854.337 -0.877875 -3.9199 0
M  V30 9020 N 852.543 -1.23336 -2.63129 0
M  V30 9021 H 852.09 -1.74327 -1.89652 0
M  V30 9022 H 852.048 -0.504987 -3.10318 0
M  V30 9023 N 855.82 0.285905 -1.54985 0
M  V30 9024 C 856.783 1.33625 -1.86218 0
M  V30 9025 C 857.783 1.42971 -0.735936 0
M  V30 9026 O 858.973 1.42345 -1.00417 0
M  V30 9027 C 856.105 2.71926 -2.05595 0
M  V30 9028 H 857.298 1.07167 -2.80099 0
M  V30 9029 H 854.851 0.523335 -1.47278 0
M  V30 9030 H 855.586 3.03583 -1.14053 0
M  V30 9031 H 855.371 2.6653 -2.87583 0
M  V30 9032 H 856.861 3.47841 -2.31077 0
M  V30 9033 N 857.298 1.47698 0.54982 0
M  V30 9034 C 858.523 1.58579 1.33669 0
M  V30 9035 C 858.948 0.239049 1.86575 0
M  V30 9036 O 858.306 -0.786256 1.63364 0
M  V30 9037 C 858.354 2.62029 2.47736 0
M  V30 9038 O 857.458 2.17813 3.50188 0
M  V30 9039 H 856.799 0.532447 0.396732 0
M  V30 9040 H 859.329 1.93536 0.6637 0
M  V30 9041 H 859.339 2.82682 2.94202 0
M  V30 9042 H 858.014 3.59812 2.08586 0
M  V30 9043 H 856.591 2.07291 3.09976 0
M  V30 9044 N 858.776 -0.797141 1.35954 0
M  V30 9045 C 860.001 -1.59097 1.33053 0
M  V30 9046 C 860.426 -1.87897 -0.0874592 0
M  V30 9047 O 859.784 -1.47291 -1.05712 0
M  V30 9048 C 859.832 -2.89346 2.152 0
M  V30 9049 O 858.936 -3.826 1.5392 0
M  V30 9050 H 858.277 -0.482895 0.45575 0
M  V30 9051 H 860.807 -0.988633 1.79129 0
M  V30 9052 H 860.817 -3.38686 2.27499 0
M  V30 9053 H 859.492 -2.6771 3.18283 0
M  V30 9054 H 858.069 -3.41174 1.50516 0
M  V30 9055 N 860.254 -1.20106 -1.0204 0
M  V30 9056 C 861.67 -0.955099 -1.27867 0
M  V30 9057 C 861.87 0.367595 -1.98119 0
M  V30 9058 O 860.926 1.09705 -2.27423 0
M  V30 9059 C 862.239 -2.13507 -2.11744 0
M  V30 9060 C 863.787 -2.17563 -2.25023 0
M  V30 9061 C 864.262 -3.35035 -3.12275 0
M  V30 9062 N 865.753 -3.35024 -3.19864 0
M  V30 9063 C 866.488 -4.22566 -3.8759 0
M  V30 9064 N 865.984 -5.20278 -4.57474 0
M  V30 9065 N 867.777 -4.10418 -3.84075 0
M  V30 9066 H 859.928 -2.05193 -0.54861 0
M  V30 9067 H 862.191 -0.897689 -0.304728 0
M  V30 9068 H 861.897 -3.09275 -1.67456 0
M  V30 9069 H 861.771 -2.11281 -3.12474 0
M  V30 9070 H 864.158 -1.22359 -2.68537 0
M  V30 9071 H 864.239 -2.23838 -1.23815 0
M  V30 9072 H 863.883 -4.30522 -2.69468 0
M  V30 9073 H 863.813 -3.25996 -4.13563 0
M  V30 9074 H 866.304 -2.64299 -2.701 0
M  V30 9075 H 866.617 -5.83408 -5.06809 0
M  V30 9076 H 864.962 -5.24219 -4.56311 0
M  V30 9077 H 868.153 -3.33353 -3.28623 0
M  V30 9078 H 868.326 -4.78854 -4.36581 0
M  V30 9079 N 861.732 1.21287 -1.00634 0
M  V30 9080 C 862.98 1.90013 -0.688438 0
M  V30 9081 C 863.301 1.78573 0.783365 0
M  V30 9082 O 862.571 1.1815 1.56261 0
M  V30 9083 H 861.151 0.703336 -0.251648 0
M  V30 9084 H 863.813 1.47346 -1.27574 0
M  V30 9085 H 862.909 2.96879 -0.962781 0
M  V30 9086 N 863.21 0.781244 1.36873 0
M  V30 9087 C 864.457 0.349889 1.99454 0
M  V30 9088 C 864.785 -1.07621 1.62013 0
M  V30 9089 O 864.04 -1.75665 0.86258 0
M  V30 9090 C 864.339 0.45146 3.54537 0
M  V30 9091 C 864.005 1.83718 4.11775 0
M  V30 9092 C 862.667 2.21634 4.2712 0
M  V30 9093 C 865.019 2.7449 4.43063 0
M  V30 9094 C 862.347 3.49742 4.7106 0
M  V30 9095 C 864.699 4.02017 4.88431 0
M  V30 9096 C 863.363 4.39967 5.01982 0
M  V30 9097 H 862.633 0.128033 0.729855 0
M  V30 9098 H 865.28 0.997117 1.63493 0
M  V30 9099 H 863.585 -0.279288 3.90803 0
M  V30 9100 H 865.282 0.0988609 4.00878 0
M  V30 9101 H 861.872 1.53251 4.00265 0
M  V30 9102 H 866.056 2.46453 4.30783 0
M  V30 9103 H 861.312 3.79026 4.79738 0
M  V30 9104 H 865.486 4.72475 5.11605 0
M  V30 9105 H 863.113 5.39291 5.35788 0
M  V30 9106 N 864.689 -1.48329 0.532571 0
M  V30 9107 C 865.935 -2.028 -0.000583219 0
M  V30 9108 C 866.268 -1.40858 -1.33688 0
M  V30 9109 O 865.543 -0.555261 -1.86406 0
M  V30 9110 C 865.826 -3.59901 -0.119846 0
M  V30 9111 C 865.679 -4.32318 1.2418 0
M  V30 9112 C 866.998 -4.31904 -0.845372 0
M  V30 9113 H 864.117 -0.736999 0.00126205 0
M  V30 9114 H 866.759 -1.77024 0.690102 0
M  V30 9115 H 864.909 -3.81993 -0.708092 0
M  V30 9116 H 866.581 -4.21637 1.87136 0
M  V30 9117 H 864.824 -3.93635 1.82301 0
M  V30 9118 H 865.495 -5.40697 1.11132 0
M  V30 9119 H 867.971 -4.14658 -0.346159 0
M  V30 9120 H 866.847 -5.41509 -0.897723 0
M  V30 9121 H 867.108 -3.99369 -1.89622 0
M  V30 9122 N 866.167 -0.267825 -1.55308 0
M  V30 9123 C 867.097 0.616585 -2.25212 0
M  V30 9124 C 868.078 1.16472 -1.23969 0
M  V30 9125 O 869.263 1.20021 -1.52672 0
M  V30 9126 C 866.393 1.80412 -2.96764 0
M  V30 9127 C 865.347 1.38784 -4.04874 0
M  V30 9128 C 864.673 2.65789 -4.63961 0
M  V30 9129 C 865.973 0.543415 -5.19465 0
M  V30 9130 H 867.667 0.0336257 -2.99381 0
M  V30 9131 H 865.213 0.0147328 -1.43992 0
M  V30 9132 H 867.166 2.42866 -3.44375 0
M  V30 9133 H 865.89 2.4128 -2.20118 0
M  V30 9134 H 864.549 0.786541 -3.58063 0
M  V30 9135 H 864.197 3.24899 -3.83992 0
M  V30 9136 H 863.897 2.38651 -5.36954 0
M  V30 9137 H 865.421 3.29104 -5.14318 0
M  V30 9138 H 866.835 1.07277 -5.63174 0
M  V30 9139 H 865.232 0.367219 -5.98975 0
M  V30 9140 H 866.302 -0.439534 -4.82904 0
M  V30 9141 N 867.645 1.57599 0.00500368 0
M  V30 9142 C 868.595 2.04585 1.00643 0
M  V30 9143 C 869.579 0.939622 1.30614 0
M  V30 9144 O 870.771 1.20342 1.29796 0
M  V30 9145 C 867.9 2.5486 2.30002 0
M  V30 9146 C 866.986 3.7235 2.03017 0
M  V30 9147 N 867.377 4.84218 1.46173 0
M  V30 9148 C 865.675 3.80185 2.33185 0
M  V30 9149 C 866.376 5.65688 1.35544 0
M  V30 9150 N 865.352 5.11536 1.83933 0
M  V30 9151 H 869.154 2.8849 0.561332 0
M  V30 9152 H 866.668 1.61026 0.210808 0
M  V30 9153 H 868.665 2.86794 3.0258 0
M  V30 9154 H 867.325 1.72372 2.75169 0
M  V30 9155 H 868.336 5.0517 1.1412 0
M  V30 9156 H 865.013 3.08543 2.81261 0
M  V30 9157 H 866.403 6.65588 0.918791 0
M  V30 9158 N 869.123 -0.277682 1.55134 0
M  V30 9159 C 870.371 -1.00791 1.75173 0
M  V30 9160 C 870.692 -1.86987 0.553266 0
M  V30 9161 O 869.962 -1.91079 -0.43195 0
M  V30 9162 H 868.542 -0.375129 0.645978 0
M  V30 9163 H 871.204 -0.303041 1.9253 0
M  V30 9164 H 870.3 -1.64756 2.6507 0
M  V30 9165 N 870.601 -1.47988 -0.541979 0
M  V30 9166 C 871.531 -1.64503 -1.65713 0
M  V30 9167 C 872.512 -0.494116 -1.62765 0
M  V30 9168 O 873.697 -0.725256 -1.80149 0
M  V30 9169 C 870.827 -1.67337 -3.04328 0
M  V30 9170 C 869.781 -2.81809 -3.2213 0
M  V30 9171 C 869.107 -2.69724 -4.61685 0
M  V30 9172 C 870.407 -4.23241 -3.06046 0
M  V30 9173 H 872.101 -2.5786 -1.52147 0
M  V30 9174 H 869.647 -1.24094 -0.730529 0
M  V30 9175 H 871.6 -1.77481 -3.82202 0
M  V30 9176 H 870.324 -0.705514 -3.18889 0
M  V30 9177 H 868.983 -2.71201 -2.46669 0
M  V30 9178 H 868.631 -1.70934 -4.73065 0
M  V30 9179 H 868.331 -3.4653 -4.74543 0
M  V30 9180 H 869.855 -2.81818 -5.41674 0
M  V30 9181 H 871.269 -4.34746 -3.73723 0
M  V30 9182 H 869.666 -5.00952 -3.30405 0
M  V30 9183 H 870.736 -4.40543 -2.02609 0
M  V30 9184 N 872.079 0.78992 -1.36375 0
M  V30 9185 C 872.989 1.93386 -1.32812 0
M  V30 9186 C 874.005 1.72468 -0.230377 0
M  V30 9187 O 875.181 1.96014 -0.462657 0
M  V30 9188 C 872.246 3.2824 -1.11621 0
M  V30 9189 C 871.307 3.61939 -2.30865 0
M  V30 9190 C 870.54 4.90359 -2.10675 0
M  V30 9191 O 870.763 5.6005 -1.08168 0
M  V30 9192 O 869.697 5.22702 -2.9844 0
M  V30 9193 H 873.523 1.99342 -2.29121 0
M  V30 9194 H 871.108 0.9301 -1.16917 0
M  V30 9195 H 872.99 4.08939 -1.01719 0
M  V30 9196 H 871.665 3.23178 -0.183732 0
M  V30 9197 H 870.572 2.81549 -2.46335 0
M  V30 9198 H 871.905 3.71725 -3.22617 0
M  V30 9199 N 873.557 1.20646 1.01402 0
M  V30 9200 C 874.968 1.01823 1.56489 0
M  V30 9201 C 875.319 -0.42463 1.9155 0
M  V30 9202 O 874.444 -1.30644 1.72514 0
M  V30 9203 C 875.039 1.84208 2.84347 0
M  V30 9204 C 873.598 1.69743 3.35953 0
M  V30 9205 C 872.745 1.8198 2.09233 0
M  V30 9206 H 875.696 1.348 0.837539 0
M  V30 9207 H 875.717 1.34698 3.55861 0
M  V30 9208 H 875.229 2.89215 2.58798 0
M  V30 9209 H 873.33 0.673833 3.66456 0
M  V30 9210 H 873.443 2.51173 4.07981 0
M  V30 9211 H 871.807 1.25193 2.21808 0
M  V30 9212 H 872.59 2.88477 1.86107 0
M  V30 9213 N 875.035 -1.20752 1.01276 0
M  V30 9214 C 875.998 -2.2162 0.584583 0
M  V30 9215 C 876.998 -1.57094 -0.343215 0
M  V30 9216 O 878.188 -1.73696 -0.132433 0
M  V30 9217 C 875.32 -3.40583 -0.146872 0
M  V30 9218 H 876.513 -2.61015 1.47686 0
M  V30 9219 H 874.066 -1.34148 0.802123 0
M  V30 9220 H 874.801 -3.06686 -1.05424 0
M  V30 9221 H 874.586 -3.88642 0.51958 0
M  V30 9222 H 876.076 -4.15339 -0.433924 0
M  V30 9223 N 876.513 -0.788492 -1.36457 0
M  V30 9224 C 877.738 -0.371224 -2.04051 0
M  V30 9225 C 878.163 1.004 -1.59064 0
M  V30 9226 O 877.521 1.64663 -0.758679 0
M  V30 9227 C 877.569 -0.442275 -3.57877 0
M  V30 9228 O 876.673 0.55113 -4.08701 0
M  V30 9229 H 876.014 -0.157808 -0.644975 0
M  V30 9230 H 878.544 -1.06935 -1.74431 0
M  V30 9231 H 878.554 -0.305548 -4.06854 0
M  V30 9232 H 877.229 -1.44547 -3.89973 0
M  V30 9233 H 875.806 0.37614 -3.70998 0
M  V30 9234 N 877.991 1.48044 -0.54043 0
M  V30 9235 C 878.921 2.32597 0.205178 0
M  V30 9236 C 879.902 1.42748 0.925041 0
M  V30 9237 O 881.087 1.71624 0.908784 0
M  V30 9238 C 878.217 3.24175 1.24612 0
M  V30 9239 C 877.171 4.23131 0.64376 0
M  V30 9240 C 876.497 5.03915 1.78812 0
M  V30 9241 C 877.797 5.20831 -0.39144 0
M  V30 9242 H 879.491 2.95184 -0.500676 0
M  V30 9243 H 877.037 1.41948 -0.242225 0
M  V30 9244 H 878.99 3.82158 1.77576 0
M  V30 9245 H 877.714 2.59608 1.98169 0
M  V30 9246 H 876.373 3.66349 0.135554 0
M  V30 9247 H 876.021 4.35765 2.51232 0
M  V30 9248 H 875.721 5.709 1.39094 0
M  V30 9249 H 877.245 5.64753 2.32134 0
M  V30 9250 H 878.659 5.73277 0.0515064 0
M  V30 9251 H 877.056 5.95926 -0.706569 0
M  V30 9252 H 878.126 4.6733 -1.29345 0
M  V30 9253 N 879.47 0.276058 1.55163 0
M  V30 9254 C 880.7 -0.343274 2.03728 0
M  V30 9255 C 881.108 -1.49945 1.15383 0
M  V30 9256 O 880.451 -1.82942 0.166696 0
M  V30 9257 C 880.513 -0.885683 3.48419 0
M  V30 9258 C 880.177 0.141976 4.56779 0
M  V30 9259 C 881.174 0.961816 5.10926 0
M  V30 9260 C 878.859 0.276487 5.01538 0
M  V30 9261 C 880.853 1.90234 6.0835 0
M  V30 9262 C 878.54 1.22049 5.98788 0
M  V30 9263 C 879.538 2.03192 6.52075 0
M  V30 9264 O 879.226 2.95996 7.47423 0
M  V30 9265 H 878.958 -0.0822192 0.670981 0
M  V30 9266 H 881.512 0.406199 2.01343 0
M  V30 9267 H 879.742 -1.68524 3.48047 0
M  V30 9268 H 881.431 -1.4182 3.80318 0
M  V30 9269 H 882.197 0.868637 4.77158 0
M  V30 9270 H 878.076 -0.345095 4.59707 0
M  V30 9271 H 881.62 2.5361 6.49867 0
M  V30 9272 H 877.517 1.31448 6.31974 0
M  V30 9273 H 878.285 2.90688 7.65142 0
M  V30 9274 N 880.948 -1.576 0.00335426 0
M  V30 9275 C 881.898 -2.05116 -0.995562 0
M  V30 9276 C 882.882 -0.946535 -1.30113 0
M  V30 9277 O 884.074 -1.21028 -1.29156 0
M  V30 9278 C 881.203 -2.56077 -2.28648 0
M  V30 9279 C 880.289 -3.73422 -2.0104 0
M  V30 9280 N 880.68 -4.84986 -1.43603 0
M  V30 9281 C 878.978 -3.81416 -2.31166 0
M  V30 9282 C 879.679 -5.66399 -1.32542 0
M  V30 9283 N 878.655 -5.12505 -1.81218 0
M  V30 9284 H 882.457 -2.88783 -0.546025 0
M  V30 9285 H 879.971 -1.61135 -0.202265 0
M  V30 9286 H 881.968 -2.88395 -3.01055 0
M  V30 9287 H 880.628 -1.73829 -2.74251 0
M  V30 9288 H 881.639 -5.05768 -1.11439 0
M  V30 9289 H 878.316 -3.1003 -2.7962 0
M  V30 9290 H 879.706 -6.66066 -0.88348 0
M  V30 9291 N 882.426 0.269451 -1.5528 0
M  V30 9292 C 883.675 0.998381 -1.75258 0
M  V30 9293 C 883.988 1.87321 -0.563034 0
M  V30 9294 O 885.194 2.63719 -0.645313 0
M  V30 9295 C 883.65 1.82505 -3.10193 0
M  V30 9296 C 883.258 0.99871 -4.36726 0
M  V30 9297 C 885.002 2.54807 -3.3952 0
M  V30 9298 C 882.909 1.81997 -5.627 0
M  V30 9299 H 881.839 0.376488 -0.653278 0
M  V30 9300 H 884.49 0.253909 -1.81735 0
M  V30 9301 H 882.872 2.61061 -2.97763 0
M  V30 9302 H 884.046 0.257064 -4.60082 0
M  V30 9303 H 882.361 0.390074 -4.14569 0
M  V30 9304 H 884.958 3.16662 -4.30847 0
M  V30 9305 H 885.301 3.25273 -2.59813 0
M  V30 9306 H 885.834 1.83278 -3.53064 0
M  V30 9307 H 882.573 1.15945 -6.45164 0
M  V30 9308 H 882.093 2.53749 -5.43481 0
M  V30 9309 H 883.772 2.39274 -6.0113 0
M  V30 9310 N 883.904 1.48273 0.534124 0
M  V30 9311 C 884.854 1.58889 1.63519 0
M  V30 9312 C 885.838 0.44626 1.54588 0
M  V30 9313 O 887.03 0.697474 1.62679 0
M  V30 9314 C 884.159 1.62787 3.0225 0
M  V30 9315 C 883.245 2.82515 3.16301 0
M  V30 9316 N 883.636 4.06977 3.00338 0
M  V30 9317 C 881.934 2.7976 3.47347 0
M  V30 9318 C 882.635 4.87283 3.17694 0
M  V30 9319 N 881.611 4.20024 3.45081 0
M  V30 9320 H 885.413 2.52869 1.49781 0
M  V30 9321 H 882.927 1.44587 0.739479 0
M  V30 9322 H 884.924 1.68486 3.81337 0
M  V30 9323 H 883.584 0.699201 3.17082 0
M  V30 9324 H 884.595 4.37479 2.77186 0
M  V30 9325 H 881.272 1.96132 3.68563 0
M  V30 9326 H 882.662 5.96047 3.10126 0
M  V30 9327 N 885.382 -0.782676 1.36792 0
M  V30 9328 C 886.312 -1.90973 1.34356 0
M  V30 9329 C 887.293 -1.6875 0.213917 0
M  V30 9330 O 888.478 -1.89766 0.412601 0
M  V30 9331 C 885.608 -3.28097 1.13884 0
M  V30 9332 C 884.562 -3.6486 2.23744 0
M  V30 9333 C 883.888 -5.00406 1.88408 0
M  V30 9334 C 885.188 -3.72742 3.6587 0
M  V30 9335 H 886.882 -1.93268 2.28665 0
M  V30 9336 H 884.428 -0.928447 1.10072 0
M  V30 9337 H 886.381 -4.06569 1.10813 0
M  V30 9338 H 885.105 -3.26206 0.160275 0
M  V30 9339 H 883.764 -2.88689 2.25952 0
M  V30 9340 H 883.412 -4.95044 0.891083 0
M  V30 9341 H 883.112 -5.25973 2.61966 0
M  V30 9342 H 884.636 -5.81291 1.86905 0
M  V30 9343 H 886.05 -4.4139 3.65852 0
M  V30 9344 H 884.447 -4.09798 4.38389 0
M  V30 9345 H 885.517 -2.73676 4.00287 0
M  V30 9346 N 886.86 -1.21182 -1.00761 0
M  V30 9347 C 887.793 -0.912033 -2.09182 0
M  V30 9348 C 888.771 0.139421 -1.62001 0
M  V30 9349 O 889.955 0.0110272 -1.88497 0
M  V30 9350 C 887.082 -0.368957 -3.36684 0
M  V30 9351 C 886.128 -1.4028 -4.0277 0
M  V30 9352 S 886.961 -2.97108 -4.45519 0
M  V30 9353 C 888.117 -2.444 -5.76211 0
M  V30 9354 H 888.35 -1.83019 -2.34289 0
M  V30 9355 H 885.883 -1.04127 -1.14004 0
M  V30 9356 H 887.841 -0.0621883 -4.10453 0
M  V30 9357 H 886.502 0.527841 -3.09633 0
M  V30 9358 H 885.695 -0.97238 -4.94531 0
M  V30 9359 H 885.297 -1.65752 -3.35265 0
M  V30 9360 H 887.589 -1.84723 -6.51831 0
M  V30 9361 H 888.532 -3.34593 -6.24062 0
M  V30 9362 H 888.94 -1.86203 -5.32906 0
M  V30 9363 N 888.338 1.20213 -1.01915 0
M  V30 9364 C 889.301 2.21307 -0.596327 0
M  V30 9365 C 890.301 1.57274 0.334879 0
M  V30 9366 O 891.491 1.73764 0.12322 0
M  V30 9367 C 888.623 3.40657 0.128808 0
M  V30 9368 H 889.816 2.60228 -1.49068 0
M  V30 9369 H 887.369 1.33721 -0.809226 0
M  V30 9370 H 888.104 3.07241 1.03796 0
M  V30 9371 H 887.889 3.88361 -0.540183 0
M  V30 9372 H 889.379 4.15564 0.411892 0
M  V30 9373 N 889.816 0.795718 1.36037 0
M  V30 9374 C 890.779 0.204318 2.28287 0
M  V30 9375 C 891.779 -0.602017 1.49105 0
M  V30 9376 O 892.969 -0.422089 1.69009 0
M  V30 9377 C 890.101 -0.716431 3.33287 0
M  V30 9378 H 891.294 1.01781 2.821 0
M  V30 9379 H 888.847 0.565588 1.45708 0
M  V30 9380 H 889.582 -1.55403 2.84641 0
M  V30 9381 H 889.367 -0.140096 3.9185 0
M  V30 9382 H 890.857 -1.12488 4.02164 0
M  V30 9383 N 891.294 -1.47756 0.548274 0
M  V30 9384 C 892.519 -2.07387 0.023475 0
M  V30 9385 C 892.944 -1.39956 -1.25674 0
M  V30 9386 O 892.302 -0.471543 -1.7506 0
M  V30 9387 C 892.35 -3.60224 -0.164669 0
M  V30 9388 O 891.454 -3.93653 -1.22928 0
M  V30 9389 H 890.795 -0.662312 0.0473156 0
M  V30 9390 H 893.325 -1.89905 0.761409 0
M  V30 9391 H 893.335 -4.06211 -0.38166 0
M  V30 9392 H 892.01 -4.08702 0.770425 0
M  V30 9393 H 890.587 -3.59422 -0.993495 0
M  V30 9394 N 892.772 -0.284283 -1.55015 0
M  V30 9395 C 893.704 0.63258 -2.20298 0
M  V30 9396 C 894.717 1.11045 -1.1905 0
M  V30 9397 O 895.906 1.03078 -1.4573 0
M  V30 9398 C 893.006 1.87599 -2.82241 0
M  V30 9399 C 892.179 1.5434 -4.09265 0
M  V30 9400 C 891.238 2.64023 -4.55169 0
M  V30 9401 O 890.264 2.29821 -5.20741 0
M  V30 9402 N 891.466 3.94255 -4.26079 0
M  V30 9403 H 894.231 0.0737928 -2.99609 0
M  V30 9404 H 891.792 -0.105767 -1.61554 0
M  V30 9405 H 893.784 2.60289 -3.0989 0
M  V30 9406 H 892.354 2.3436 -2.06868 0
M  V30 9407 H 891.574 0.649912 -3.88806 0
M  V30 9408 H 892.862 1.29634 -4.92009 0
M  V30 9409 H 892.26 4.24859 -3.73512 0
M  V30 9410 H 890.817 4.63295 -4.58477 0
M  V30 9411 N 894.251 1.57596 -0.0117121 0
M  V30 9412 C 895.214 2.08089 0.960816 0
M  V30 9413 C 896.214 0.992519 1.26514 0
M  V30 9414 O 897.404 1.25475 1.20837 0
M  V30 9415 C 894.536 2.53217 2.28241 0
M  V30 9416 H 895.729 2.9529 0.523829 0
M  V30 9417 H 893.282 1.54508 0.235995 0
M  V30 9418 H 894.017 1.69294 2.76604 0
M  V30 9419 H 893.802 3.32714 2.0747 0
M  V30 9420 H 895.292 2.92568 2.97983 0
M  V30 9421 N 895.729 -0.261212 1.5542 0
M  V30 9422 C 896.977 -0.989272 1.76232 0
M  V30 9423 C 897.298 -1.86389 0.573067 0
M  V30 9424 O 896.568 -1.91526 -0.41166 0
M  V30 9425 H 895.148 -0.368256 0.64992 0
M  V30 9426 H 897.81 -0.282603 1.9284 0
M  V30 9427 H 896.906 -1.61935 2.66802 0
M  V30 9428 N 897.207 -1.48554 -0.526253 0
M  V30 9429 C 898.17 -1.62868 -1.61266 0
M  V30 9430 C 899.17 -0.501762 -1.52771 0
M  V30 9431 O 900.36 -0.76764 -1.56374 0
M  V30 9432 C 897.492 -1.60238 -3.00893 0
M  V30 9433 H 898.685 -2.59742 -1.49913 0
M  V30 9434 H 896.238 -1.37207 -0.748595 0
M  V30 9435 H 896.973 -0.648545 -3.17749 0
M  V30 9436 H 896.758 -2.42054 -3.08468 0
M  V30 9437 H 898.248 -1.73455 -3.79872 0
M  V30 9438 N 898.685 0.775411 -1.37205 0
M  V30 9439 C 899.913 1.56446 -1.35397 0
M  V30 9440 C 900.328 1.887 0.0615437 0
M  V30 9441 O 899.685 1.51178 1.02233 0
M  V30 9442 C 899.736 2.87697 -2.18889 0
M  V30 9443 O 899.457 2.56828 -3.54924 0
M  V30 9444 C 900.958 3.81944 -2.25019 0
M  V30 9445 H 898.178 0.484792 -0.463916 0
M  V30 9446 H 900.722 0.961346 -1.80495 0
M  V30 9447 H 898.877 3.44442 -1.7731 0
M  V30 9448 H 899.291 3.40851 -3.98649 0
M  V30 9449 H 900.765 4.71055 -2.87769 0
M  V30 9450 H 901.242 4.20811 -1.25757 0
M  V30 9451 H 901.848 3.3113 -2.66895 0
M  V30 9452 N 900.163 1.21714 1.00117 0
M  V30 9453 C 901.111 0.976937 2.11089 0
M  V30 9454 C 902.105 -0.0771295 1.69224 0
M  V30 9455 O 903.311 0.0745945 1.79845 0
M  V30 9456 H 899.686 0.298687 0.690138 0
M  V30 9457 H 901.657 1.91881 2.28526 0
M  V30 9458 C 900.406 0.562369 3.43122 0
M  V30 9459 H 899.729 1.36509 3.75773 0
M  V30 9460 H 901.169 0.433642 4.21777 0
M  V30 9461 C 899.628 -0.727148 3.28959 0
M  V30 9462 O 900.158 -1.78171 3.60025 0
M  V30 9463 N 898.364 -0.695129 2.82164 0
M  V30 9464 H 897.911 0.163346 2.57082 0
M  V30 9465 H 897.869 -1.55822 2.73069 0
M  V30 9466 N 901.641 -1.19671 1.02551 0
M  V30 9467 C 902.866 -1.93774 0.739363 0
M  V30 9468 C 903.291 -1.74787 -0.695064 0
M  V30 9469 O 902.649 -1.04796 -1.47944 0
M  V30 9470 C 902.697 -3.43684 1.09149 0
M  V30 9471 O 901.801 -4.11874 0.208213 0
M  V30 9472 H 901.142 -0.605064 0.273484 0
M  V30 9473 H 903.672 -1.51846 1.37128 0
M  V30 9474 H 903.682 -3.94339 1.04695 0
M  V30 9475 H 902.357 -3.56826 2.13654 0
M  V30 9476 H 900.934 -3.716 0.311045 0
M  V30 9477 N 903.119 -0.802921 -1.35613 0
M  V30 9478 C 904.347 -0.39393 -2.03115 0
M  V30 9479 C 904.762 0.993961 -1.60517 0
M  V30 9480 O 904.119 1.63984 -0.800973 0
M  V30 9481 C 904.17 -0.463486 -3.58516 0
M  V30 9482 O 903.891 -1.79666 -3.99565 0
M  V30 9483 C 905.392 -0.0468377 -4.43275 0
M  V30 9484 H 902.612 -0.160519 -0.651517 0
M  V30 9485 H 905.156 -1.08552 -1.73311 0
M  V30 9486 H 903.311 0.179821 -3.86982 0
M  V30 9487 H 903.725 -1.75688 -4.942 0
M  V30 9488 H 905.199 -0.146626 -5.51805 0
M  V30 9489 H 905.676 1.00741 -4.2749 0
M  V30 9490 H 906.282 -0.663158 -4.20098 0
M  V30 9491 N 904.597 1.47463 -0.556102 0
M  V30 9492 C 905.843 2.02775 -0.0316806 0
M  V30 9493 C 906.176 1.42967 1.3143 0
M  V30 9494 O 905.451 0.584847 1.85499 0
M  V30 9495 C 905.734 3.60046 0.0625742 0
M  V30 9496 C 905.587 4.30288 -1.31043 0
M  V30 9497 C 906.906 4.33195 0.776553 0
M  V30 9498 H 904.025 0.736886 -0.0129869 0
M  V30 9499 H 906.667 1.75904 -0.718177 0
M  V30 9500 H 904.817 3.83071 0.647231 0
M  V30 9501 H 906.489 4.18607 -1.9382 0
M  V30 9502 H 904.732 3.90685 -1.8854 0
M  V30 9503 H 905.403 5.38861 -1.1972 0
M  V30 9504 H 907.879 4.15156 0.280147 0
M  V30 9505 H 906.755 5.42869 0.81146 0
M  V30 9506 H 907.016 4.02336 1.83244 0
M  V30 9507 N 906.075 0.2925 1.54862 0
M  V30 9508 C 907.005 -0.580677 2.26165 0
M  V30 9509 C 907.986 -1.14485 1.25806 0
M  V30 9510 O 909.171 -1.17577 1.54562 0
M  V30 9511 C 906.301 -1.75668 2.99596 0
M  V30 9512 C 905.255 -1.32325 4.07031 0
M  V30 9513 C 904.581 -2.58374 4.68131 0
M  V30 9514 C 905.881 -0.460703 5.20264 0
M  V30 9515 H 907.575 0.0140075 2.99397 0
M  V30 9516 H 905.121 0.00817706 1.43998 0
M  V30 9517 H 907.074 -2.37356 3.48195 0
M  V30 9518 H 905.798 -2.37747 2.23928 0
M  V30 9519 H 904.457 -0.729477 3.59269 0
M  V30 9520 H 904.105 -3.18749 3.89112 0
M  V30 9521 H 903.805 -2.30078 5.40683 0
M  V30 9522 H 905.329 -3.2088 5.19489 0
M  V30 9523 H 906.743 -0.983037 5.64809 0
M  V30 9524 H 905.14 -0.271881 5.99484 0
M  V30 9525 H 906.21 0.516304 4.82143 0
M  V30 9526 N 907.553 -1.57587 0.0200696 0
M  V30 9527 C 908.781 -1.95718 -0.670964 0
M  V30 9528 C 909.196 -0.896081 -1.6618 0
M  V30 9529 O 908.553 0.123037 -1.82085 0
M  V30 9530 C 908.604 -3.33904 -1.38529 0
M  V30 9531 O 908.325 -4.35943 -0.434167 0
M  V30 9532 C 909.826 -3.86614 -2.16898 0
M  V30 9533 H 907.046 -0.644819 -0.185606 0
M  V30 9534 H 909.59 -2.04354 0.0771495 0
M  V30 9535 H 907.745 -3.26515 -2.08487 0
M  V30 9536 H 908.159 -5.16001 -0.940378 0
M  V30 9537 H 909.633 -4.85673 -2.62346 0
M  V30 9538 H 910.11 -3.20379 -3.00423 0
M  V30 9539 H 910.716 -3.97243 -1.51916 0
M  V30 9540 N 909.032 0.252966 -1.55557 0
M  V30 9541 C 909.962 1.31691 -1.9282 0
M  V30 9542 C 910.943 1.50516 -0.7924 0
M  V30 9543 O 912.128 1.63225 -1.05219 0
M  V30 9544 C 909.258 2.67281 -2.21762 0
M  V30 9545 C 908.212 2.6316 -3.37536 0
M  V30 9546 C 907.538 4.02488 -3.52005 0
M  V30 9547 C 908.838 2.20675 -4.73392 0
M  V30 9548 H 910.532 1.00751 -2.81939 0
M  V30 9549 H 908.078 0.483219 -1.3565 0
M  V30 9550 H 910.031 3.41842 -2.46419 0
M  V30 9551 H 908.755 2.99845 -1.29463 0
M  V30 9552 H 907.414 1.91057 -3.12878 0
M  V30 9553 H 907.062 4.32307 -2.57137 0
M  V30 9554 H 906.762 4.00621 -4.29857 0
M  V30 9555 H 908.286 4.78758 -3.78977 0
M  V30 9556 H 909.7 2.84965 -4.97461 0
M  V30 9557 H 908.097 2.29931 -5.54303 0
M  V30 9558 H 909.167 1.15831 -4.70862 0
M  V30 9559 N 910.51 1.48831 0.518367 0
M  V30 9560 C 911.443 1.588 1.63884 0
M  V30 9561 C 912.421 0.437847 1.56594 0
M  V30 9562 O 913.605 0.651042 1.769 0
M  V30 9563 C 910.732 1.52681 3.02335 0
M  V30 9564 C 909.778 2.7268 3.27945 0
M  V30 9565 S 910.611 4.34536 3.12951 0
M  V30 9566 C 911.767 4.31034 4.53828 0
M  V30 9567 H 912 2.53587 1.5518 0
M  V30 9568 H 909.533 1.37507 0.702218 0
M  V30 9569 H 911.491 1.49837 3.82177 0
M  V30 9570 H 910.152 0.592107 3.08469 0
M  V30 9571 H 909.345 2.64569 4.28974 0
M  V30 9572 H 908.947 2.72847 2.55794 0
M  V30 9573 H 911.239 4.01683 5.45579 0
M  V30 9574 H 912.182 5.32282 4.66991 0
M  V30 9575 H 912.59 3.61343 4.33695 0
M  V30 9576 N 911.988 -0.768124 1.37614 0
M  V30 9577 C 913.216 -1.55726 1.36224 0
M  V30 9578 C 913.631 -1.8873 -0.0515357 0
M  V30 9579 O 912.988 -1.51718 -1.0143 0
M  V30 9580 C 913.039 -2.86533 2.20412 0
M  V30 9581 O 912.76 -2.54942 3.56281 0
M  V30 9582 C 914.261 -3.80745 2.27041 0
M  V30 9583 H 911.481 -0.482325 0.46648 0
M  V30 9584 H 914.025 -0.95176 1.81002 0
M  V30 9585 H 912.18 -3.43496 1.79134 0
M  V30 9586 H 912.594 -3.38732 4.00451 0
M  V30 9587 H 914.068 -4.69523 2.90263 0
M  V30 9588 H 914.545 -4.20138 1.27987 0
M  V30 9589 H 915.151 -3.2971 2.68647 0
M  V30 9590 N 913.466 -1.22244 -0.994698 0
M  V30 9591 C 914.396 -1.01513 -2.10279 0
M  V30 9592 C 915.377 0.0633365 -1.69982 0
M  V30 9593 O 916.562 -0.0985268 -1.9395 0
M  V30 9594 C 913.692 -0.59016 -3.42249 0
M  V30 9595 C 912.646 -1.61436 -3.96387 0
M  V30 9596 C 911.972 -1.04528 -5.24383 0
M  V30 9597 C 913.272 -3.00388 -4.27276 0
M  V30 9598 H 914.966 -1.94194 -2.2788 0
M  V30 9599 H 912.512 -0.935094 -1.09508 0
M  V30 9600 H 914.465 -0.432254 -4.19177 0
M  V30 9601 H 913.189 0.372308 -3.24471 0
M  V30 9602 H 911.848 -1.76001 -3.21589 0
M  V30 9603 H 911.496 -0.0742225 -5.02945 0
M  V30 9604 H 911.196 -1.72949 -5.61571 0
M  V30 9605 H 912.72 -0.898922 -6.03947 0
M  V30 9606 H 914.134 -2.89207 -4.95007 0
M  V30 9607 H 912.531 -3.65916 -4.75631 0
M  V30 9608 H 913.601 -3.50456 -3.35125 0
M  V30 9609 N 914.944 1.19125 -1.03184 0
M  V30 9610 C 916.172 1.92838 -0.74975 0
M  V30 9611 C 916.587 1.75667 0.691851 0
M  V30 9612 O 915.944 1.0805 1.47076 0
M  V30 9613 C 915.995 3.44509 -1.09525 0
M  V30 9614 O 915.716 3.6113 -2.48025 0
M  V30 9615 C 917.217 4.35338 -0.836397 0
M  V30 9616 H 914.437 0.61246 -0.274105 0
M  V30 9617 H 916.981 1.5118 -1.37712 0
M  V30 9618 H 915.136 3.83988 -0.513006 0
M  V30 9619 H 915.55 4.54959 -2.60984 0
M  V30 9620 H 917.024 5.4035 -1.12808 0
M  V30 9621 H 917.501 4.38602 0.229102 0
M  V30 9622 H 918.107 4.01544 -1.40152 0
M  V30 9623 N 916.422 0.810101 1.35185 0
M  V30 9624 C 917.833 0.452616 1.81131 0
M  V30 9625 C 918.184 -1.02573 1.67252 0
M  V30 9626 O 917.309 -1.79735 1.20516 0
M  V30 9627 C 917.904 0.814775 3.28857 0
M  V30 9628 C 916.463 0.509839 3.72931 0
M  V30 9629 C 915.61 1.03852 2.57119 0
M  V30 9630 H 918.561 1.00143 1.23114 0
M  V30 9631 H 918.582 0.113635 3.8033 0
M  V30 9632 H 918.094 1.89078 3.38926 0
M  V30 9633 H 916.195 -0.557289 3.68409 0
M  V30 9634 H 916.308 1.04493 4.67566 0
M  V30 9635 H 914.672 0.460671 2.50499 0
M  V30 9636 H 915.455 2.12071 2.69964 0
M  V30 9637 N 917.9 -1.47166 0.563914 0
M  V30 9638 C 918.81 -2.33885 -0.182977 0
M  V30 9639 C 919.826 -1.48605 -0.905132 0
M  V30 9640 O 921.002 -1.81518 -0.872527 0
M  V30 9641 C 918.067 -3.25433 -1.19558 0
M  V30 9642 C 917.128 -4.26607 -0.480129 0
M  V30 9643 C 916.361 -5.1378 -1.44449 0
M  V30 9644 O 916.584 -5.03531 -2.67979 0
M  V30 9645 O 915.518 -5.94109 -0.965321 0
M  V30 9646 H 919.344 -2.99065 0.528544 0
M  V30 9647 H 916.929 -1.45834 0.324468 0
M  V30 9648 H 918.811 -3.81964 -1.77993 0
M  V30 9649 H 917.486 -2.62873 -1.8889 0
M  V30 9650 H 916.393 -3.73817 0.145583 0
M  V30 9651 H 917.726 -4.919 0.171868 0
M  V30 9652 N 919.378 -0.300708 -1.54705 0
M  V30 9653 C 920.626 0.308044 -1.99739 0
M  V30 9654 C 920.947 1.54433 -1.19061 0
M  V30 9655 O 920.217 1.93794 -0.286507 0
M  V30 9656 H 918.797 0.116811 -0.73781 0
M  V30 9657 H 921.459 -0.41197 -1.90496 0
M  V30 9658 H 920.555 0.580287 -3.06658 0
M  V30 9659 N 920.856 1.57574 -0.0284266 0
M  V30 9660 C 922.081 1.96479 0.664137 0
M  V30 9661 C 922.506 0.904826 1.64908 0
M  V30 9662 O 921.864 -0.134339 1.80802 0
M  V30 9663 C 921.912 3.34479 1.34745 0
M  V30 9664 O 921.016 3.30794 2.46271 0
M  V30 9665 H 920.357 0.640654 0.174524 0
M  V30 9666 H 922.887 2.04402 -0.0900729 0
M  V30 9667 H 922.897 3.70694 1.7044 0
M  V30 9668 H 921.572 4.1117 0.625468 0
M  V30 9669 H 920.149 3.06294 2.12693 0
M  V30 9670 N 922.334 -0.244713 1.55689 0
M  V30 9671 C 923.244 -1.32447 1.93636 0
M  V30 9672 C 924.26 -1.52541 0.837086 0
M  V30 9673 O 925.436 -1.66121 1.13867 0
M  V30 9674 C 922.501 -2.65864 2.22525 0
M  V30 9675 C 921.562 -2.54273 3.45896 0
M  V30 9676 C 920.795 -3.81327 3.73397 0
M  V30 9677 O 921.018 -4.83307 3.02936 0
M  V30 9678 O 919.952 -3.79829 4.66919 0
M  V30 9679 H 923.778 -1.03255 2.85608 0
M  V30 9680 H 921.363 -0.445652 1.42598 0
M  V30 9681 H 923.245 -3.447 2.42404 0
M  V30 9682 H 921.92 -2.94784 1.33731 0
M  V30 9683 H 920.827 -1.73715 3.31321 0
M  V30 9684 H 922.16 -2.30297 4.34999 0
M  V30 9685 N 923.813 -1.49104 -0.510467 0
M  V30 9686 C 924.743 -1.67981 -1.62187 0
M  V30 9687 C 925.724 -0.528529 -1.6168 0
M  V30 9688 O 926.909 -0.763305 -1.7857 0
M  V30 9689 C 924.039 -1.73755 -3.0071 0
M  V30 9690 C 922.993 -2.88579 -3.1608 0
M  V30 9691 C 922.319 -2.79457 -4.5586 0
M  V30 9692 C 923.619 -4.29638 -2.97 0
M  V30 9693 H 925.313 -2.61029 -1.46643 0
M  V30 9694 H 922.859 -1.25615 -0.704042 0
M  V30 9695 H 924.812 -1.85548 -3.78352 0
M  V30 9696 H 923.536 -0.772996 -3.17321 0
M  V30 9697 H 922.195 -2.76372 -2.40861 0
M  V30 9698 H 921.843 -1.80929 -4.69333 0
M  V30 9699 H 921.543 -3.56518 -4.67086 0
M  V30 9700 H 923.067 -2.93245 -5.35574 0
M  V30 9701 H 924.481 -4.42575 -3.64418 0
M  V30 9702 H 922.878 -5.07847 -3.19704 0
M  V30 9703 H 923.948 -4.44741 -1.93219 0
M  V30 9704 N 925.291 0.760815 -1.38019 0
M  V30 9705 C 926.241 1.86487 -1.31174 0
M  V30 9706 C 927.225 1.59684 -0.197414 0
M  V30 9707 O 928.417 1.71628 -0.432764 0
M  V30 9708 C 925.546 3.24103 -1.13192 0
M  V30 9709 C 924.632 3.5682 -2.29216 0
M  V30 9710 N 925.023 3.60644 -3.5464 0
M  V30 9711 C 923.321 3.87047 -2.2161 0
M  V30 9712 C 924.022 3.90423 -4.31214 0
M  V30 9713 N 922.998 4.06883 -3.60482 0
M  V30 9714 H 926.8 1.87711 -2.26146 0
M  V30 9715 H 924.314 0.957811 -1.31148 0
M  V30 9716 H 926.311 4.03101 -1.06372 0
M  V30 9717 H 924.971 3.24135 -0.191473 0
M  V30 9718 H 925.982 3.42581 -3.88405 0
M  V30 9719 H 922.659 3.94837 -1.35684 0
M  V30 9720 H 924.049 4.00065 -5.39812 0
M  V30 9721 N 926.769 1.22769 0.988202 0
M  V30 9722 C 928.018 1.0492 1.72263 0
M  V30 9723 C 928.331 -0.415282 1.91141 0
M  V30 9724 O 929.537 -0.713547 2.61956 0
M  V30 9725 C 927.993 1.82891 3.09966 0
M  V30 9726 C 927.601 3.33618 2.99003 0
M  V30 9727 C 929.345 1.73505 3.87423 0
M  V30 9728 C 927.252 4.04012 4.3189 0
M  V30 9729 H 926.182 0.38899 0.645912 0
M  V30 9730 H 928.833 1.46664 1.10281 0
M  V30 9731 H 927.215 1.33948 3.72658 0
M  V30 9732 H 928.389 3.8999 2.45448 0
M  V30 9733 H 926.704 3.43732 2.35027 0
M  V30 9734 H 929.301 2.23416 4.85787 0
M  V30 9735 H 929.644 0.696344 4.10435 0
M  V30 9736 H 930.177 2.20016 3.31418 0
M  V30 9737 H 926.916 5.08155 4.14075 0
M  V30 9738 H 926.436 3.52428 4.8534 0
M  V30 9739 H 928.115 4.0987 5.00615 0
M  V30 9740 N 928.247 -1.18576 1.03814 0
M  V30 9741 C 929.496 -1.87822 0.735235 0
M  V30 9742 C 929.809 -1.81069 -0.739819 0
M  V30 9743 O 931.015 -2.45654 -1.15614 0
M  V30 9744 C 929.471 -3.36941 1.26486 0
M  V30 9745 C 929.079 -3.5223 2.76836 0
M  V30 9746 C 930.823 -4.11604 1.03836 0
M  V30 9747 C 928.73 -4.95294 3.23169 0
M  V30 9748 H 927.66 -0.703487 0.271333 0
M  V30 9749 H 930.311 -1.34 1.25365 0
M  V30 9750 H 928.693 -3.90217 0.674318 0
M  V30 9751 H 929.867 -3.09239 3.41625 0
M  V30 9752 H 928.182 -2.90969 2.97869 0
M  V30 9753 H 930.779 -5.17123 1.3597 0
M  V30 9754 H 931.122 -4.16293 -0.0244945 0
M  V30 9755 H 931.655 -3.64494 1.59338 0
M  V30 9756 H 928.394 -4.95772 4.28824 0
M  V30 9757 H 927.914 -5.3901 2.63113 0
M  V30 9758 H 929.593 -5.63996 3.17045 0
M  V30 9759 N 929.725 -0.817259 -1.34754 0
M  V30 9760 C 930.655 -0.249769 -2.3216 0
M  V30 9761 C 931.636 0.630663 -1.57977 0
M  V30 9762 O 932.821 0.558719 -1.85989 0
M  V30 9763 C 929.951 0.593825 -3.42186 0
M  V30 9764 C 928.905 -0.188997 -4.27583 0
M  V30 9765 C 928.231 0.776979 -5.29025 0
M  V30 9766 C 929.531 -1.39401 -5.03354 0
M  V30 9767 H 931.225 -1.06359 -2.79872 0
M  V30 9768 H 928.771 -0.512894 -1.34556 0
M  V30 9769 H 930.724 1.00097 -4.09339 0
M  V30 9770 H 929.448 1.44064 -2.93109 0
M  V30 9771 H 928.107 -0.577445 -3.62024 0
M  V30 9772 H 927.755 1.61959 -4.76212 0
M  V30 9773 H 927.455 0.257448 -5.87036 0
M  V30 9774 H 928.979 1.18211 -5.99048 0
M  V30 9775 H 930.393 -1.06117 -5.63393 0
M  V30 9776 H 928.79 -1.84878 -5.70912 0
M  V30 9777 H 929.86 -2.17515 -4.33377 0
M  V30 9778 N 931.203 1.46865 -0.571711 0
M  V30 9779 C 932.451 2.0203 -0.0530022 0
M  V30 9780 C 932.772 1.44687 1.30731 0
M  V30 9781 O 932.042 0.627429 1.85581 0
M  V30 9782 H 930.622 0.746815 -0.0166035 0
M  V30 9783 H 933.284 1.80099 -0.745003 0
M  V30 9784 H 932.38 3.12091 0.0242538 0
M  V30 9785 N 932.681 0.308908 1.54543 0
M  V30 9786 C 933.611 -0.556657 2.26768 0
M  V30 9787 C 934.592 -1.13145 1.27013 0
M  V30 9788 O 935.777 -1.15931 1.558 0
M  V30 9789 C 932.907 -1.72481 3.01443 0
M  V30 9790 C 931.861 -1.28001 4.08411 0
M  V30 9791 C 931.187 -2.53395 4.70845 0
M  V30 9792 C 932.487 -0.405497 5.20724 0
M  V30 9793 H 934.181 0.0457618 2.99365 0
M  V30 9794 H 931.727 0.0234495 1.43981 0
M  V30 9795 H 933.68 -2.3365 3.50693 0
M  V30 9796 H 932.404 -2.35359 2.26437 0
M  V30 9797 H 931.063 -0.69133 3.60022 0
M  V30 9798 H 930.711 -3.14604 3.92471 0
M  V30 9799 H 930.411 -2.2433 5.43093 0
M  V30 9800 H 931.935 -3.15352 5.22863 0
M  V30 9801 H 933.349 -0.923076 5.6582 0
M  V30 9802 H 931.746 -0.208282 5.99738 0
M  V30 9803 H 932.816 0.567412 4.81569 0
M  V30 9804 N 934.159 -1.57557 0.0367827 0
M  V30 9805 C 935.406 -1.92114 -0.640185 0
M  V30 9806 C 935.734 -0.913887 -1.71693 0
M  V30 9807 O 934.989 0.0760343 -1.95552 0
M  V30 9808 C 935.288 -3.33387 -1.28794 0
M  V30 9809 C 934.954 -4.4961 -0.340819 0
M  V30 9810 C 933.616 -4.81133 -0.0801574 0
M  V30 9811 C 935.968 -5.20283 0.309106 0
M  V30 9812 C 933.296 -5.80683 0.838107 0
M  V30 9813 C 935.648 -6.20813 1.21547 0
M  V30 9814 C 934.312 -6.50773 1.48495 0
M  V30 9815 H 933.582 -0.702996 -0.23426 0
M  V30 9816 H 936.229 -1.91238 0.100188 0
M  V30 9817 H 934.534 -3.30561 -2.10324 0
M  V30 9818 H 936.231 -3.57399 -1.81843 0
M  V30 9819 H 932.821 -4.25002 -0.554161 0
M  V30 9820 H 937.005 -4.96153 0.120794 0
M  V30 9821 H 932.261 -6.02238 1.05451 0
M  V30 9822 H 936.435 -6.74692 1.72522 0
M  V30 9823 H 934.062 -7.27727 2.19814 0
M  V30 9824 N 935.637 0.236453 -1.55816 0
M  V30 9825 C 936.885 0.96111 -1.77784 0
M  V30 9826 C 937.206 1.85454 -0.602648 0
M  V30 9827 O 936.476 1.92157 0.381137 0
M  V30 9828 H 935.056 0.35787 -0.655697 0
M  V30 9829 H 937.718 0.251888 -1.93265 0
M  V30 9830 H 936.814 1.5767 -2.69345 0
M  V30 9831 N 937.115 1.49373 0.502552 0
M  V30 9832 C 938.045 1.68839 1.61294 0
M  V30 9833 C 939.026 0.537096 1.61398 0
M  V30 9834 O 940.211 0.772764 1.78163 0
M  V30 9835 C 937.341 1.75347 2.99784 0
M  V30 9836 C 936.295 2.90251 3.14545 0
M  V30 9837 C 935.621 2.8187 4.54371 0
M  V30 9838 C 936.921 4.31207 2.94717 0
M  V30 9839 H 938.615 2.61803 1.45257 0
M  V30 9840 H 936.161 1.25987 0.697371 0
M  V30 9841 H 938.114 1.87552 3.77362 0
M  V30 9842 H 936.838 0.789814 3.16906 0
M  V30 9843 H 935.497 2.77646 2.39392 0
M  V30 9844 H 935.145 1.83416 4.68367 0
M  V30 9845 H 934.845 3.5899 4.65188 0
M  V30 9846 H 936.369 2.96081 5.34012 0
M  V30 9847 H 937.783 4.44501 3.62065 0
M  V30 9848 H 936.18 5.09536 3.17007 0
M  V30 9849 H 937.25 4.45759 1.90857 0
M  V30 9850 N 938.594 -0.753485 1.38421 0
M  V30 9851 C 939.524 -1.8808 1.38377 0
M  V30 9852 C 940.505 -1.68258 0.249664 0
M  V30 9853 O 941.69 -1.88848 0.45276 0
M  V30 9854 C 938.82 -3.25608 1.20818 0
M  V30 9855 C 937.774 -3.60032 2.31433 0
M  V30 9856 C 937.1 -4.96297 1.9898 0
M  V30 9857 C 938.4 -3.64898 3.73694 0
M  V30 9858 H 940.094 -1.88375 2.32713 0
M  V30 9859 H 937.64 -0.90489 1.12017 0
M  V30 9860 H 939.593 -4.04127 1.19412 0
M  V30 9861 H 938.317 -3.25793 0.229433 0
M  V30 9862 H 936.976 -2.83831 2.32025 0
M  V30 9863 H 936.624 -4.93043 0.995889 0
M  V30 9864 H 936.324 -5.20298 2.73063 0
M  V30 9865 H 937.848 -5.77196 1.99193 0
M  V30 9866 H 939.262 -4.33531 3.75132 0
M  V30 9867 H 937.659 -4.00407 4.46983 0
M  V30 9868 H 938.729 -2.65124 4.06002 0
M  V30 9869 N 940.072 -1.23292 -0.981677 0
M  V30 9870 C 941.002 -1.03738 -2.09191 0
M  V30 9871 C 941.983 0.0453041 -1.7004 0
M  V30 9872 O 943.168 -0.119092 -1.93834 0
M  V30 9873 C 940.298 -0.626426 -3.41604 0
M  V30 9874 C 939.252 -1.65631 -3.94652 0
M  V30 9875 C 938.578 -1.10084 -5.23245 0
M  V30 9876 C 939.878 -3.04903 -4.24066 0
M  V30 9877 H 941.572 -1.966 -2.25807 0
M  V30 9878 H 939.118 -0.946656 -1.0851 0
M  V30 9879 H 941.071 -0.476689 -4.18695 0
M  V30 9880 H 939.795 0.337873 -3.24848 0
M  V30 9881 H 938.454 -1.79402 -3.19704 0
M  V30 9882 H 938.102 -0.127562 -5.02838 0
M  V30 9883 H 937.802 -1.78896 -5.59705 0
M  V30 9884 H 939.326 -0.962928 -6.02959 0
M  V30 9885 H 940.74 -2.94441 -4.91912 0
M  V30 9886 H 939.137 -3.70941 -4.71724 0
M  V30 9887 H 940.207 -3.53991 -3.31389 0
M  V30 9888 N 941.55 1.18024 -1.04442 0
M  V30 9889 C 942.48 2.23988 -0.659683 0
M  V30 9890 C 943.461 1.6669 0.338904 0
M  V30 9891 O 944.646 1.92971 0.21817 0
M  V30 9892 C 941.776 3.4729 -0.0257672 0
M  V30 9893 C 940.73 4.17362 -0.948299 0
M  V30 9894 C 940.056 5.34401 -0.17866 0
M  V30 9895 C 941.356 4.70435 -2.26909 0
M  V30 9896 H 943.05 2.56425 -1.54553 0
M  V30 9897 H 940.596 1.23256 -0.744575 0
M  V30 9898 H 942.549 4.20627 0.255131 0
M  V30 9899 H 941.273 3.14098 0.894981 0
M  V30 9900 H 939.932 3.45928 -1.21364 0
M  V30 9901 H 939.58 4.97458 0.744614 0
M  V30 9902 H 939.28 5.8222 -0.793294 0
M  V30 9903 H 940.804 6.10526 0.0951315 0
M  V30 9904 H 942.218 5.35447 -2.04864 0
M  V30 9905 H 940.615 5.28803 -2.83703 0
M  V30 9906 H 941.685 3.87653 -2.91296 0
M  V30 9907 N 943.028 0.824394 1.34319 0
M  V30 9908 C 943.958 0.262077 2.32025 0
M  V30 9909 C 944.939 -0.622277 1.58309 0
M  V30 9910 O 946.124 -0.548848 1.86283 0
M  V30 9911 C 943.254 -0.57567 3.42496 0
M  V30 9912 C 942.208 0.21167 4.27476 0
M  V30 9913 C 941.534 -0.748913 5.29429 0
M  V30 9914 C 942.834 1.42068 5.02607 0
M  V30 9915 H 944.528 1.07842 2.79304 0
M  V30 9916 H 942.074 0.520022 1.34282 0
M  V30 9917 H 944.027 -0.979251 4.09864 0
M  V30 9918 H 942.751 -1.42508 2.93869 0
M  V30 9919 H 941.41 0.596636 3.61712 0
M  V30 9920 H 941.058 -1.59432 4.77064 0
M  V30 9921 H 940.758 -0.226313 5.87164 0
M  V30 9922 H 942.282 -1.15032 5.99667 0
M  V30 9923 H 943.696 1.09103 5.62823 0
M  V30 9924 H 942.093 1.87903 5.69923 0
M  V30 9925 H 943.163 2.1981 4.32217 0
M  V30 9926 N 944.506 -1.46559 0.579492 0
M  V30 9927 C 945.734 -2.06784 0.0693648 0
M  V30 9928 C 946.149 -1.42875 -1.23419 0
M  V30 9929 O 945.506 -0.532919 -1.74546 0
M  V30 9930 C 945.557 -3.61343 -0.106511 0
M  V30 9931 O 945.278 -4.22861 1.14545 0
M  V30 9932 C 946.779 -4.38489 -0.651359 0
M  V30 9933 H 943.999 -0.66866 0.0559848 0
M  V30 9934 H 946.543 -1.88235 0.799245 0
M  V30 9935 H 944.698 -3.7933 -0.786601 0
M  V30 9936 H 945.112 -5.15691 0.95723 0
M  V30 9937 H 946.586 -5.47237 -0.723615 0
M  V30 9938 H 947.063 -4.06309 -1.66763 0
M  V30 9939 H 947.669 -4.253 -0.0062433 0
M  V30 9940 N 945.984 -0.3171 -1.54377 0
M  V30 9941 C 947.224 0.288083 -2.0236 0
M  V30 9942 C 947.588 1.4985 -1.20038 0
M  V30 9943 O 948.789 2.17611 -1.57794 0
M  V30 9944 C 947.06 0.620192 -3.51978 0
M  V30 9945 S 948.619 1.20595 -4.21903 0
M  V30 9946 H 945.437 0.0875231 -0.705592 0
M  V30 9947 H 948.039 -0.448719 -1.90281 0
M  V30 9948 H 946.743 -0.268982 -4.09518 0
M  V30 9949 H 946.274 1.38736 -3.68125 0
M  V30 9950 H 948.289 2.49308 -4.29022 0
M  V30 9951 N 947.462 1.57535 -0.0451378 0
M  V30 9952 C 948.392 2.14208 0.929372 0
M  V30 9953 C 949.373 1.06221 1.32858 0
M  V30 9954 O 950.558 1.34132 1.40436 0
M  V30 9955 C 947.688 2.68217 2.20629 0
M  V30 9956 C 946.642 3.81134 1.94734 0
M  V30 9957 C 945.968 4.21636 3.28828 0
M  V30 9958 C 947.268 5.06531 1.27374 0
M  V30 9959 H 948.962 2.95886 0.457348 0
M  V30 9960 H 946.508 1.42332 0.218544 0
M  V30 9961 H 948.461 3.06502 2.89196 0
M  V30 9962 H 947.185 1.83722 2.70026 0
M  V30 9963 H 945.844 3.43312 1.28579 0
M  V30 9964 H 945.492 3.34099 3.76014 0
M  V30 9965 H 945.192 4.97736 3.12302 0
M  V30 9966 H 946.716 4.62516 3.98637 0
M  V30 9967 H 948.13 5.423 1.85967 0
M  V30 9968 H 946.527 5.87735 1.21194 0
M  V30 9969 H 947.597 4.84261 0.248913 0
M  V30 9970 N 948.94 -0.228186 1.55939 0
M  V30 9971 C 950.18 -0.960695 1.80416 0
M  V30 9972 C 950.544 -1.81795 0.617615 0
M  V30 9973 O 951.745 -2.58369 0.741545 0
M  V30 9974 C 950.016 -1.78298 3.09749 0
M  V30 9975 S 951.575 -2.57203 3.55517 0
M  V30 9976 H 948.393 -0.322825 0.633486 0
M  V30 9977 H 950.995 -0.226852 1.94179 0
M  V30 9978 H 949.699 -1.14323 3.94155 0
M  V30 9979 H 949.23 -2.55924 2.98775 0
M  V30 9980 H 951.245 -3.80632 3.1833 0
M  V30 9981 N 950.418 -1.49637 -0.494624 0
M  V30 9982 C 951.666 -1.5913 -1.24587 0
M  V30 9983 C 951.987 -0.282828 -1.92938 0
M  V30 9984 O 951.257 0.69825 -1.83034 0
M  V30 9985 H 949.837 -0.586329 -0.462847 0
M  V30 9986 H 952.499 -1.86296 -0.572696 0
M  V30 9987 H 951.595 -2.3906 -2.00641 0
M  V30 9988 N 951.896 0.746133 -1.38819 0
M  V30 9989 C 953.124 1.53539 -1.38685 0
M  V30 9990 C 953.539 1.88788 0.0215039 0
M  V30 9991 O 952.896 1.53312 0.990031 0
M  V30 9992 C 952.947 2.8299 -2.24942 0
M  V30 9993 O 952.668 2.49242 -3.60292 0
M  V30 9994 C 954.169 3.77085 -2.3307 0
M  V30 9995 H 951.389 0.474842 -0.474095 0
M  V30 9996 H 953.933 0.922844 -1.82493 0
M  V30 9997 H 952.088 3.40603 -1.84576 0
M  V30 9998 H 952.502 3.32319 -4.05789 0
M  V30 9999 H 953.976 4.64845 -2.97696 0
M  V30 10000 H 954.453 4.18049 -1.34655 0
M  V30 10001 H 955.059 3.25394 -2.73859 0
M  V30 10002 N 953.375 1.23811 0.975125 0
M  V30 10003 C 954.338 1.02505 2.05001 0
M  V30 10004 C 955.338 -0.0150084 1.60793 0
M  V30 10005 O 956.528 0.225246 1.72738 0
M  V30 10006 C 953.66 0.552087 3.364 0
M  V30 10007 H 954.853 1.979 2.25335 0
M  V30 10008 H 952.406 1.05929 1.1493 0
M  V30 10009 H 953.141 -0.405394 3.21756 0
M  V30 10010 H 952.926 1.30267 3.69828 0
M  V30 10011 H 954.416 0.423828 4.15444 0
M  V30 10012 N 954.853 -1.17469 1.05066 0
M  V30 10013 C 956.099 -1.88225 0.7709 0
M  V30 10014 C 956.454 -1.7943 -0.694452 0
M  V30 10015 O 955.747 -1.19059 -1.50118 0
M  V30 10016 C 955.941 -3.37211 1.18421 0
M  V30 10017 C 955.77 -3.60508 2.68819 0
M  V30 10018 C 954.54 -3.77303 3.36111 0
M  V30 10019 C 956.738 -3.60258 3.6704 0
M  V30 10020 N 954.72 -3.88433 4.75387 0
M  V30 10021 C 956.091 -3.77223 4.92039 0
M  V30 10022 C 958.146 -3.43401 3.60527 0
M  V30 10023 C 956.849 -3.79075 6.11305 0
M  V30 10024 C 958.875 -3.46541 4.79232 0
M  V30 10025 C 958.237 -3.64013 6.03054 0
M  V30 10026 H 954.336 -0.706941 0.334303 0
M  V30 10027 H 956.92 -1.41029 1.34235 0
M  V30 10028 H 955.091 -3.83079 0.640724 0
M  V30 10029 H 956.823 -3.95578 0.854411 0
M  V30 10030 H 953.578 -3.77105 2.86512 0
M  V30 10031 H 954.002 -3.97797 5.47802 0
M  V30 10032 H 958.644 -3.28831 2.65762 0
M  V30 10033 H 956.362 -3.92431 7.06416 0
M  V30 10034 H 959.948 -3.34758 4.75845 0
M  V30 10035 H 958.828 -3.66345 6.93369 0
M  V30 10036 N 956.331 -0.831506 -1.3388 0
M  V30 10037 C 957.261 -0.274378 -2.31882 0
M  V30 10038 C 958.242 0.613872 -1.58637 0
M  V30 10039 O 959.427 0.538961 -1.86571 0
M  V30 10040 C 956.557 0.557498 -3.42796 0
M  V30 10041 C 955.511 -0.234337 -4.27358 0
M  V30 10042 C 954.837 0.720825 -5.29819 0
M  V30 10043 C 956.137 -1.44732 -5.01847 0
M  V30 10044 H 957.831 -1.09322 -2.78728 0
M  V30 10045 H 955.377 -0.527136 -1.34005 0
M  V30 10046 H 957.33 0.957501 -4.10378 0
M  V30 10047 H 956.054 1.40947 -2.94621 0
M  V30 10048 H 954.713 -0.61581 -3.61391 0
M  V30 10049 H 954.361 1.569 -4.77903 0
M  V30 10050 H 954.061 0.195171 -5.87276 0
M  V30 10051 H 955.585 1.1185 -6.00268 0
M  V30 10052 H 956.999 -1.12087 -5.62236 0
M  V30 10053 H 955.396 -1.90923 -5.68919 0
M  V30 10054 H 956.466 -2.22099 -4.31045 0
M  V30 10055 N 957.809 1.4625 -0.587256 0
M  V30 10056 C 959.049 2.04254 -0.0773169 0
M  V30 10057 C 959.413 1.44831 1.26047 0
M  V30 10058 O 960.614 1.94063 1.85992 0
M  V30 10059 C 958.885 3.57396 -0.0172813 0
M  V30 10060 S 960.444 4.36644 0.434422 0
M  V30 10061 H 957.262 0.709892 -0.0396783 0
M  V30 10062 H 959.864 1.79232 -0.780779 0
M  V30 10063 H 958.568 3.98161 -0.994795 0
M  V30 10064 H 958.099 3.86962 0.70881 0
M  V30 10065 H 960.114 4.66597 1.68824 0
M  V30 10066 N 959.287 0.325282 1.54207 0
M  V30 10067 C 960.527 -0.277347 2.0251 0
M  V30 10068 C 960.891 -1.49211 1.20831 0
M  V30 10069 O 962.092 -2.16771 1.58945 0
M  V30 10070 C 960.363 -0.601517 3.52302 0
M  V30 10071 S 961.922 -1.18356 4.22537 0
M  V30 10072 H 958.74 -0.08378 0.706047 0
M  V30 10073 H 961.342 0.458804 1.9004 0
M  V30 10074 H 960.046 0.290696 4.09369 0
M  V30 10075 H 959.577 -1.36782 3.68855 0
M  V30 10076 H 961.592 -2.47029 4.30338 0
M  V30 10077 N 960.765 -1.57509 0.0534917 0
M  V30 10078 C 961.99 -1.97511 -0.632794 0
M  V30 10079 C 962.415 -0.930947 -1.63447 0
M  V30 10080 O 961.773 0.105558 -1.80992 0
M  V30 10081 C 961.821 -3.3658 -1.29407 0
M  V30 10082 O 960.925 -3.3467 -2.40977 0
M  V30 10083 H 960.266 -0.643349 -0.16431 0
M  V30 10084 H 962.796 -2.04232 0.12258 0
M  V30 10085 H 962.806 -3.73359 -1.64521 0
M  V30 10086 H 961.481 -4.12113 -0.559976 0
M  V30 10087 H 960.058 -3.09639 -2.07793 0
M  V30 10088 N 962.243 0.219913 -1.56058 0
M  V30 10089 C 963.654 0.786766 -1.69313 0
M  V30 10090 C 964.005 1.84916 -0.655782 0
M  V30 10091 O 963.13 2.1554 0.192772 0
M  V30 10092 C 963.725 1.43387 -3.06962 0
M  V30 10093 C 962.284 1.94809 -3.22066 0
M  V30 10094 C 961.431 0.808863 -2.65241 0
M  V30 10095 H 964.382 -0.00476777 -1.58699 0
M  V30 10096 H 964.403 2.30272 -3.02911 0
M  V30 10097 H 963.915 0.660405 -3.8244 0
M  V30 10098 H 962.016 2.74952 -2.5146 0
M  V30 10099 H 962.129 2.12694 -4.293 0
M  V30 10100 H 960.493 1.21661 -2.23765 0
M  V30 10101 H 961.276 0.0480458 -3.43266 0
M  V30 10102 N 963.721 1.49897 0.486681 0
M  V30 10103 C 964.669 1.68125 1.60738 0
M  V30 10104 C 965.663 0.547097 1.60322 0
M  V30 10105 O 966.869 0.727153 1.64659 0
M  V30 10106 H 963.244 0.530391 0.533094 0
M  V30 10107 H 965.215 2.62165 1.42521 0
M  V30 10108 C 963.964 1.77827 2.98786 0
M  V30 10109 H 963.287 2.6448 2.99818 0
M  V30 10110 H 964.727 1.94611 3.76699 0
M  V30 10111 C 963.186 0.526287 3.32764 0
M  V30 10112 O 963.716 -0.341607 4.00245 0
M  V30 10113 N 961.922 0.384947 2.88039 0
M  V30 10114 H 961.469 1.09222 2.33299 0
M  V30 10115 H 961.427 -0.451618 3.11139 0
M  V30 10116 N 965.199 -0.738761 1.39212 0
M  V30 10117 C 966.615 -1.04381 1.20734 0
M  V30 10118 C 966.815 -2.01391 0.0663082 0
M  V30 10119 O 965.871 -2.45672 -0.583229 0
M  V30 10120 C 967.184 -1.6097 2.53987 0
M  V30 10121 C 968.732 -1.73069 2.60799 0
M  V30 10122 C 969.207 -2.33067 3.94264 0
M  V30 10123 N 970.698 -2.40481 3.95883 0
M  V30 10124 C 971.433 -2.87834 4.95923 0
M  V30 10125 N 970.929 -3.35111 6.0636 0
M  V30 10126 N 972.722 -2.87009 4.83304 0
M  V30 10127 H 964.873 -0.0952996 2.12186 0
M  V30 10128 H 967.136 -0.104902 0.942178 0
M  V30 10129 H 966.842 -0.971548 3.38015 0
M  V30 10130 H 966.716 -2.59829 2.73439 0
M  V30 10131 H 969.103 -2.36007 1.77157 0
M  V30 10132 H 969.184 -0.728728 2.452 0
M  V30 10133 H 968.828 -1.70758 4.78335 0
M  V30 10134 H 968.758 -3.33933 4.07181 0
M  V30 10135 H 971.249 -2.07061 3.16123 0
M  V30 10136 H 971.562 -3.69742 6.78609 0
M  V30 10137 H 969.907 -3.33129 6.09959 0
M  V30 10138 H 973.098 -2.49395 3.96131 0
M  V30 10139 H 973.271 -3.23598 5.61416 0
M  V30 10140 N 966.677 -1.24326 -0.968545 0
M  V30 10141 C 967.624 -1.0349 -2.06297 0
M  V30 10142 C 968.594 0.0515333 -1.6602 0
M  V30 10143 O 969.779 -0.102924 -1.90522 0
M  V30 10144 C 966.919 -0.64487 -3.39021 0
M  V30 10145 C 966.032 -1.80469 -3.92498 0
M  V30 10146 C 965.167 -1.36032 -5.13487 0
M  V30 10147 C 964.206 -2.49014 -5.59159 0
M  V30 10148 N 963.343 -2.05451 -6.71367 0
M  V30 10149 H 968.183 -1.97161 -2.23454 0
M  V30 10150 H 965.72 -0.982028 -1.0952 0
M  V30 10151 H 967.678 -0.399771 -4.1528 0
M  V30 10152 H 966.308 0.254845 -3.21792 0
M  V30 10153 H 965.36 -2.16348 -3.12886 0
M  V30 10154 H 966.672 -2.65365 -4.22354 0
M  V30 10155 H 965.826 -1.07405 -5.97117 0
M  V30 10156 H 964.565 -0.481887 -4.85313 0
M  V30 10157 H 963.57 -2.78402 -4.74102 0
M  V30 10158 H 964.795 -3.37413 -5.89346 0
M  V30 10159 H 962.741 -1.20004 -6.4493 0
M  V30 10160 H 962.658 -2.83901 -7.00668 0
M  V30 10161 H 963.926 -1.79962 -7.58442 0
M  V30 10162 N 968.156 1.1691 -1.05688 0
M  V30 10163 C 969.104 2.2315 -0.656262 0
M  V30 10164 C 970.098 1.66256 0.324873 0
M  V30 10165 O 971.304 1.7899 0.190397 0
M  V30 10166 H 967.679 0.726527 -0.19407 0
M  V30 10167 H 969.65 2.54233 -1.56231 0
M  V30 10168 C 968.399 3.47661 -0.0522431 0
M  V30 10169 H 967.722 3.91749 -0.798299 0
M  V30 10170 H 969.162 4.23571 0.190626 0
M  V30 10171 C 967.621 3.14709 1.20248 0
M  V30 10172 O 968.151 3.29947 2.29124 0
M  V30 10173 N 966.357 2.68892 1.10207 0
M  V30 10174 H 965.904 2.56692 0.216063 0
M  V30 10175 H 965.862 2.47218 1.94244 0
M  V30 10176 N 969.634 0.838594 1.33437 0
M  V30 10177 C 971.045 0.490934 1.8013 0
M  V30 10178 C 971.396 -0.990024 1.6939 0
M  V30 10179 O 970.521 -1.77139 1.24302 0
M  V30 10180 C 971.116 0.884347 3.27055 0
M  V30 10181 C 969.675 0.588829 3.71766 0
M  V30 10182 C 968.822 1.09282 2.54858 0
M  V30 10183 H 971.773 1.02732 1.20962 0
M  V30 10184 H 971.794 0.194283 3.80004 0
M  V30 10185 H 971.306 1.96225 3.34839 0
M  V30 10186 H 969.407 -0.479018 3.69508 0
M  V30 10187 H 969.52 1.14387 4.65245 0
M  V30 10188 H 967.884 0.513702 2.49466 0
M  V30 10189 H 968.667 2.1775 2.65405 0
M  V30 10190 N 971.112 -1.45937 0.595003 0
M  V30 10191 C 972.042 -2.33198 -0.11871 0
M  V30 10192 C 973.023 -1.46083 -0.871423 0
M  V30 10193 O 974.208 -1.74879 -0.844461 0
M  V30 10194 C 971.338 -3.28576 -1.12495 0
M  V30 10195 C 970.292 -4.25229 -0.486275 0
M  V30 10196 C 969.618 -5.10204 -1.59986 0
M  V30 10197 C 970.918 -5.19019 0.584473 0
M  V30 10198 H 972.612 -2.93122 0.609886 0
M  V30 10199 H 970.158 -1.40951 0.294742 0
M  V30 10200 H 972.111 -3.88485 -1.6327 0
M  V30 10201 H 970.835 -2.66784 -1.88398 0
M  V30 10202 H 969.494 -3.666 0.000507962 0
M  V30 10203 H 969.142 -4.44789 -2.34886 0
M  V30 10204 H 968.842 -5.75669 -1.1781 0
M  V30 10205 H 970.366 -5.7298 -2.11014 0
M  V30 10206 H 971.78 -5.73073 0.161297 0
M  V30 10207 H 970.177 -5.92893 0.927256 0
M  V30 10208 H 971.247 -4.62208 1.46601 0
M  V30 10209 N 972.59 -0.333456 -1.54032 0
M  V30 10210 C 973.836 0.259248 -2.01741 0
M  V30 10211 C 974.191 1.48999 -1.21725 0
M  V30 10212 O 973.484 1.89333 -0.293882 0
M  V30 10213 C 973.678 0.63565 -3.51702 0
M  V30 10214 C 973.507 -0.55707 -4.46236 0
M  V30 10215 C 972.277 -1.05925 -4.94073 0
M  V30 10216 C 974.475 -1.41237 -4.94527 0
M  V30 10217 N 972.457 -2.21535 -5.72534 0
M  V30 10218 C 973.828 -2.41551 -5.71011 0
M  V30 10219 C 975.883 -1.43899 -4.76652 0
M  V30 10220 C 974.586 -3.44342 -6.31523 0
M  V30 10221 C 976.612 -2.45567 -5.38006 0
M  V30 10222 C 975.974 -3.44606 -6.1435 0
M  V30 10223 H 972.073 0.0584431 -0.779813 0
M  V30 10224 H 974.657 -0.470736 -1.88924 0
M  V30 10225 H 972.828 1.33475 -3.64745 0
M  V30 10226 H 974.56 1.21067 -3.86167 0
M  V30 10227 H 971.315 -0.628947 -4.69405 0
M  V30 10228 H 971.739 -2.79878 -6.16439 0
M  V30 10229 H 976.381 -0.686929 -4.17182 0
M  V30 10230 H 974.099 -4.20449 -6.90107 0
M  V30 10231 H 977.685 -2.4844 -5.26088 0
M  V30 10232 H 976.565 -4.21987 -6.60982 0
M  V30 10233 N 974.068 1.57479 -0.061844 0
M  V30 10234 C 975.479 1.80627 0.472295 0
M  V30 10235 C 975.83 0.97496 1.70261 0
M  V30 10236 O 974.955 0.1946 2.15523 0
M  V30 10237 C 975.55 3.27608 0.863616 0
M  V30 10238 C 974.109 3.51638 1.34267 0
M  V30 10239 C 973.256 2.75412 0.323009 0
M  V30 10240 H 976.207 1.56072 -0.287634 0
M  V30 10241 H 976.228 3.39113 1.72577 0
M  V30 10242 H 975.74 3.88087 -0.0320226 0
M  V30 10243 H 973.841 2.96452 2.25714 0
M  V30 10244 H 973.954 4.60342 1.32747 0
M  V30 10245 H 972.318 2.4187 0.798175 0
M  V30 10246 H 973.101 3.38623 -0.564729 0
M  V30 10247 N 975.546 -0.211634 1.56173 0
M  V30 10248 C 976.771 -0.955324 1.84088 0
M  V30 10249 C 977.196 -1.76754 0.643407 0
M  V30 10250 O 976.554 -1.76653 -0.407842 0
M  V30 10251 C 976.602 -1.84063 3.10085 0
M  V30 10252 O 975.706 -2.9373 2.89476 0
M  V30 10253 H 975.047 -0.26996 0.606645 0
M  V30 10254 H 977.577 -0.221947 2.03393 0
M  V30 10255 H 977.587 -2.24852 3.40449 0
M  V30 10256 H 976.262 -1.24373 3.96868 0
M  V30 10257 H 974.839 -2.56816 2.7037 0
M  V30 10258 N 977.024 -1.50153 -0.478725 0
M  V30 10259 C 978.27 -1.60998 -1.23318 0
M  V30 10260 C 978.603 -0.305868 -1.91776 0
M  V30 10261 O 977.878 0.692158 -1.81767 0
M  V30 10262 C 978.161 -2.78495 -2.28282 0
M  V30 10263 C 978.014 -4.18767 -1.64178 0
M  V30 10264 C 979.333 -2.91569 -3.2966 0
M  V30 10265 H 976.452 -0.585983 -0.446982 0
M  V30 10266 H 979.094 -1.82514 -0.528063 0
M  V30 10267 H 977.244 -2.60281 -2.8842 0
M  V30 10268 H 978.916 -4.48552 -1.07696 0
M  V30 10269 H 977.159 -4.23379 -0.94514 0
M  V30 10270 H 977.83 -4.96894 -2.40417 0
M  V30 10271 H 980.306 -3.08219 -2.79536 0
M  V30 10272 H 979.182 -3.75419 -4.0044 0
M  V30 10273 H 979.443 -2.01859 -3.93326 0
M  V30 10274 N 978.502 0.731368 -1.39602 0
M  V30 10275 C 979.913 1.30981 -1.33045 0
M  V30 10276 C 980.264 1.962 0.00349918 0
M  V30 10277 O 979.389 1.96539 0.905615 0
M  V30 10278 C 979.984 2.3817 -2.40958 0
M  V30 10279 C 978.543 2.91678 -2.3791 0
M  V30 10280 C 977.69 1.65286 -2.22656 0
M  V30 10281 H 980.641 0.528615 -1.49637 0
M  V30 10282 H 980.662 3.18645 -2.07955 0
M  V30 10283 H 980.174 1.90673 -3.38032 0
M  V30 10284 H 978.275 3.43446 -1.44485 0
M  V30 10285 H 978.388 3.44545 -3.32904 0
M  V30 10286 H 976.752 1.89759 -1.69893 0
M  V30 10287 H 977.535 1.19836 -3.21705 0
M  V30 10288 N 979.98 1.24838 0.961938 0
M  V30 10289 C 981.257 0.99939 1.68141 0
M  V30 10290 C 981.637 -0.476588 2.0565 0
M  V30 10291 O 980.985 -1.45224 1.76415 0
M  V30 10292 C 981.195 1.92797 2.90913 0
M  V30 10293 C 982.543 2.20219 3.63027 0
M  V30 10294 O 983.567 1.90496 3.00981 0
M  V30 10295 O 982.426 2.70725 4.74731 0
M  V30 10296 H 979.52 0.37842 0.735342 0
M  V30 10297 H 982.066 1.35961 1.01551 0
M  V30 10298 H 980.838 2.92492 2.59931 0
M  V30 10299 H 980.461 1.57127 3.65235 0
M  V30 10300 N 981.458 -1.16348 1.06306 0
M  V30 10301 C 982.869 -1.68491 0.80422 0
M  V30 10302 C 983.22 -1.84327 -0.672159 0
M  V30 10303 O 982.345 -1.53892 -1.52139 0
M  V30 10304 C 982.94 -3.06048 1.45328 0
M  V30 10305 C 981.499 -3.55311 1.24221 0
M  V30 10306 C 980.646 -2.31291 1.5297 0
M  V30 10307 H 983.597 -1.00708 1.22652 0
M  V30 10308 H 983.618 -3.70451 0.868674 0
M  V30 10309 H 983.13 -2.9449 2.52779 0
M  V30 10310 H 981.231 -3.72128 0.187447 0
M  V30 10311 H 981.344 -4.37397 1.95502 0
M  V30 10312 H 979.708 -2.3631 0.950241 0
M  V30 10313 H 980.491 -2.22331 2.6158 0
M  V30 10314 N 982.937 -0.845659 -1.3299 0
M  V30 10315 C 983.9 -0.288905 -2.27372 0
M  V30 10316 C 984.9 0.546263 -1.51237 0
M  V30 10317 O 986.09 0.359072 -1.70459 0
M  V30 10318 C 983.222 0.59224 -3.35716 0
M  V30 10319 H 984.415 -1.12181 -2.78128 0
M  V30 10320 H 981.968 -0.619276 -1.43508 0
M  V30 10321 H 982.703 1.44732 -2.90212 0
M  V30 10322 H 982.488 -0.00543255 -3.921 0
M  V30 10323 H 983.978 0.974848 -4.06062 0
M  V30 10324 N 984.415 1.45619 -0.602734 0
M  V30 10325 C 985.365 2.27568 0.140264 0
M  V30 10326 C 986.349 1.3704 0.84314 0
M  V30 10327 O 987.541 1.61067 0.733931 0
M  V30 10328 C 984.67 3.23812 1.14019 0
M  V30 10329 C 983.756 4.21828 0.438406 0
M  V30 10330 N 984.147 5.03148 -0.517245 0
M  V30 10331 C 982.445 4.40684 0.686588 0
M  V30 10332 C 983.146 5.74229 -0.929291 0
M  V30 10333 N 982.122 5.42909 -0.274086 0
M  V30 10334 H 985.924 2.87839 -0.5938 0
M  V30 10335 H 983.438 1.56712 -0.426033 0
M  V30 10336 H 985.435 3.8125 1.68684 0
M  V30 10337 H 984.095 2.65102 1.87486 0
M  V30 10338 H 985.106 5.1013 -0.893758 0
M  V30 10339 H 981.783 3.93102 1.4063 0
M  V30 10340 H 983.173 6.49586 -1.7172 0
M  V30 10341 N 985.893 0.34162 1.53853 0
M  V30 10342 C 987.118 -0.259608 2.05769 0
M  V30 10343 C 987.543 -1.43588 1.21507 0
M  V30 10344 O 986.901 -1.79856 0.228364 0
M  V30 10345 C 986.949 -0.654455 3.54611 0
M  V30 10346 O 986.053 -1.75472 3.73207 0
M  V30 10347 H 985.394 -0.0434621 0.662576 0
M  V30 10348 H 987.924 0.495274 1.98515 0
M  V30 10349 H 987.934 -0.932142 3.97209 0
M  V30 10350 H 986.609 0.205779 4.15391 0
M  V30 10351 H 985.186 -1.47444 3.42512 0
M  V30 10352 N 987.371 -1.57444 0.0701946 0
M  V30 10353 C 988.596 -1.98171 -0.61181 0
M  V30 10354 C 989.021 -0.94823 -1.62451 0
M  V30 10355 O 988.379 0.0863553 -1.81094 0
M  V30 10356 C 988.427 -3.37934 -1.2583 0
M  V30 10357 O 987.531 -3.37207 -2.37414 0
M  V30 10358 H 986.872 -0.645056 -0.157477 0
M  V30 10359 H 989.402 -2.04091 0.144235 0
M  V30 10360 H 989.412 -3.75083 -1.60552 0
M  V30 10361 H 988.087 -4.12684 -0.516234 0
M  V30 10362 H 986.664 -3.11826 -2.04497 0
M  V30 10363 N 988.849 0.203349 -1.56283 0
M  V30 10364 C 989.779 1.2549 -1.96912 0
M  V30 10365 C 990.76 1.47919 -0.839884 0
M  V30 10366 O 991.945 1.59795 -1.10359 0
M  V30 10367 C 989.075 2.6009 -2.30153 0
M  V30 10368 C 988.029 2.52289 -3.45738 0
M  V30 10369 C 987.355 3.91086 -3.64632 0
M  V30 10370 C 988.655 2.05503 -4.80173 0
M  V30 10371 H 990.349 0.917306 -2.85002 0
M  V30 10372 H 987.895 0.439818 -1.37119 0
M  V30 10373 H 989.848 3.33829 -2.5717 0
M  V30 10374 H 988.572 2.95574 -1.38937 0
M  V30 10375 H 987.231 1.81006 -3.18798 0
M  V30 10376 H 986.879 4.23908 -2.7076 0
M  V30 10377 H 986.579 3.86742 -4.42385 0
M  V30 10378 H 988.103 4.66459 -3.94016 0
M  V30 10379 H 989.517 2.68995 -5.06275 0
M  V30 10380 H 987.914 2.1218 -5.61337 0
M  V30 10381 H 988.984 1.00793 -4.74309 0
M  V30 10382 N 990.327 1.50405 0.470755 0
M  V30 10383 C 991.575 1.61092 1.2204 0
M  V30 10384 C 991.896 0.313487 1.92464 0
M  V30 10385 O 991.166 -0.669043 1.84121 0
M  V30 10386 H 989.746 0.593618 0.45346 0
M  V30 10387 H 992.408 1.87184 0.542985 0
M  V30 10388 H 991.504 2.42222 1.96812 0
M  V30 10389 N 991.805 -0.723954 1.39988 0
M  V30 10390 C 993.03 -1.5182 1.41299 0
M  V30 10391 C 993.455 -1.88096 0.0122636 0
M  V30 10392 O 992.813 -1.52687 -0.977559 0
M  V30 10393 C 992.861 -2.77532 2.30235 0
M  V30 10394 O 991.965 -3.73903 1.73984 0
M  V30 10395 H 991.306 -0.458058 0.480707 0
M  V30 10396 H 993.836 -0.892291 1.84118 0
M  V30 10397 H 993.846 -3.2615 2.45132 0
M  V30 10398 H 992.521 -2.50462 3.32026 0
M  V30 10399 H 991.098 -3.32715 1.68389 0
M  V30 10400 N 993.283 -1.25346 -0.955304 0
M  V30 10401 C 994.529 -1.11226 -1.70295 0
M  V30 10402 C 994.884 0.343362 -1.89311 0
M  V30 10403 O 994.177 1.24953 -1.45249 0
M  V30 10404 C 994.371 -1.7993 -3.08804 0
M  V30 10405 C 994.2 -3.32023 -3.033 0
M  V30 10406 C 992.97 -4.01274 -3.07094 0
M  V30 10407 C 995.168 -4.28431 -2.84519 0
M  V30 10408 N 993.15 -5.40149 -2.91741 0
M  V30 10409 C 994.521 -5.54386 -2.7759 0
M  V30 10410 C 996.576 -4.18854 -2.69194 0
M  V30 10411 C 995.279 -6.71859 -2.56902 0
M  V30 10412 C 997.305 -5.36018 -2.49876 0
M  V30 10413 C 996.667 -6.60913 -2.43667 0
M  V30 10414 H 992.766 -0.461707 -0.631151 0
M  V30 10415 H 995.35 -1.58437 -1.13162 0
M  V30 10416 H 993.521 -1.35214 -3.64104 0
M  V30 10417 H 995.253 -1.58557 -3.72346 0
M  V30 10418 H 992.008 -3.52529 -3.1626 0
M  V30 10419 H 992.432 -6.13029 -2.8727 0
M  V30 10420 H 997.074 -3.23043 -2.7277 0
M  V30 10421 H 994.792 -7.67781 -2.52068 0
M  V30 10422 H 998.378 -5.30468 -2.38944 0
M  V30 10423 H 997.258 -7.50045 -2.28914 0
M  V30 10424 N 994.761 1.15782 -1.06922 0
M  V30 10425 C 996.007 1.86741 -0.790922 0
M  V30 10426 C 996.34 1.81863 0.681149 0
M  V30 10427 O 995.615 1.23871 1.49954 0
M  V30 10428 C 995.898 3.36038 -1.29422 0
M  V30 10429 C 995.751 3.49573 -2.83052 0
M  V30 10430 C 997.07 4.30647 -0.907239 0
M  V30 10431 H 994.189 0.678064 -0.288787 0
M  V30 10432 H 996.831 1.36054 -1.32624 0
M  V30 10433 H 994.981 3.79336 -0.838843 0
M  V30 10434 H 996.653 3.1517 -3.36847 0
M  V30 10435 H 994.896 2.91275 -3.21467 0
M  V30 10436 H 995.567 4.5445 -3.13335 0
M  V30 10437 H 998.043 3.95286 -1.29956 0
M  V30 10438 H 996.919 5.33604 -1.28679 0
M  V30 10439 H 997.18 4.41703 0.187251 0
M  V30 10440 N 996.239 0.8527 1.3254 0
M  V30 10441 C 997.65 0.510012 1.79599 0
M  V30 10442 C 998.001 -0.972002 1.70431 0
M  V30 10443 O 997.126 -1.7581 1.26173 0
M  V30 10444 C 997.721 0.918986 3.26098 0
M  V30 10445 C 996.28 0.628227 3.7112 0
M  V30 10446 C 995.427 1.11979 2.53685 0
M  V30 10447 H 998.378 1.04009 1.19866 0
M  V30 10448 H 998.399 0.234577 3.79776 0
M  V30 10449 H 997.911 1.99765 3.32739 0
M  V30 10450 H 996.012 -0.4398 3.69995 0
M  V30 10451 H 996.125 1.19315 4.64005 0
M  V30 10452 H 994.489 0.540133 2.48907 0
M  V30 10453 H 995.272 2.20552 2.63081 0
M  V30 10454 N 997.718 -1.45297 0.610449 0
M  V30 10455 C 998.946 -2.0659 0.113211 0
M  V30 10456 C 999.361 -1.4546 -1.20361 0
M  V30 10457 O 998.718 -0.569823 -1.73376 0
M  V30 10458 C 998.769 -3.61488 -0.0298411 0
M  V30 10459 O 998.49 -4.20336 1.23488 0
M  V30 10460 C 999.991 -4.39772 -0.558202 0
M  V30 10461 H 997.211 -0.667322 0.0701555 0
M  V30 10462 H 999.755 -1.86497 0.838993 0
M  V30 10463 H 997.91 -3.80913 -0.705963 0
M  V30 10464 H 998.324 -5.13545 1.0664 0
M  V30 10465 H 999.798 -5.48648 -0.607375 0
M  V30 10466 H 1000.27 -4.09755 -1.58107 0
M  V30 10467 H 1000.88 -4.25217 0.0839704 0
M  V30 10468 N 999.196 -0.349774 -1.5367 0
M  V30 10469 C 1000.44 0.245862 -2.00196 0
M  V30 10470 C 1000.76 1.51154 -1.24144 0
M  V30 10471 O 1001.96 2.18481 -1.61178 0
M  V30 10472 C 1000.42 0.488665 -3.56567 0
M  V30 10473 C 1000.03 -0.761475 -4.41481 0
M  V30 10474 C 1001.77 1.04282 -4.11492 0
M  V30 10475 C 999.679 -0.489128 -5.89374 0
M  V30 10476 H 998.609 0.0956493 -0.747909 0
M  V30 10477 H 1001.26 -0.466068 -1.77483 0
M  V30 10478 H 999.642 1.26145 -3.75371 0
M  V30 10479 H 1000.82 -1.53585 -4.34452 0
M  V30 10480 H 999.131 -1.23771 -3.9758 0
M  V30 10481 H 1001.73 1.26164 -5.19603 0
M  V30 10482 H 1002.07 2.00023 -3.65098 0
M  V30 10483 H 1002.6 0.330582 -3.96424 0
M  V30 10484 H 999.343 -1.41643 -6.40014 0
M  V30 10485 H 998.863 0.247039 -5.99291 0
M  V30 10486 H 1000.54 -0.1087 -6.46909 0
M  V30 10487 N 1000.67 1.57404 -0.0785433 0
M  V30 10488 C 1001.61 2.08724 0.922464 0
M  V30 10489 C 1002.58 0.993912 1.28686 0
M  V30 10490 O 1003.77 1.26776 1.39499 0
M  V30 10491 C 1000.9 2.55051 2.2286 0
M  V30 10492 C 999.942 3.75884 2.01528 0
M  V30 10493 S 1000.77 5.2026 1.26844 0
M  V30 10494 C 1001.93 5.69924 2.58723 0
M  V30 10495 H 1002.16 2.93304 0.485807 0
M  V30 10496 H 999.697 1.53814 0.134377 0
M  V30 10497 H 1001.65 2.82402 2.97926 0
M  V30 10498 H 1000.32 1.70727 2.63649 0
M  V30 10499 H 999.509 4.06311 2.98207 0
M  V30 10500 H 999.111 3.48941 1.34596 0
M  V30 10501 H 1001.4 5.7718 3.5478 0
M  V30 10502 H 1002.35 6.68704 2.32897 0
M  V30 10503 H 1002.75 4.97773 2.66237 0
M  V30 10504 N 1002.15 -0.195058 1.56388 0
M  V30 10505 C 1003.06 -1.26219 1.97752 0
M  V30 10506 C 1004.08 -1.49801 0.885192 0
M  V30 10507 O 1005.25 -1.62415 1.19094 0
M  V30 10508 C 1002.32 -2.5865 2.3087 0
M  V30 10509 C 1001.38 -2.4314 3.5381 0
M  V30 10510 C 1000.61 -3.69255 3.85339 0
M  V30 10511 O 1000.84 -4.73425 3.18159 0
M  V30 10512 O 999.77 -3.64782 4.78767 0
M  V30 10513 H 1003.6 -0.941161 2.88749 0
M  V30 10514 H 1001.18 -0.40006 1.43944 0
M  V30 10515 H 1003.06 -3.36814 2.53247 0
M  V30 10516 H 1001.74 -2.9038 1.43042 0
M  V30 10517 H 1000.64 -1.63086 3.3668 0
M  V30 10518 H 1001.98 -2.16341 4.42105 0
M  V30 10519 N 1003.63 -1.50653 -0.462772 0
M  V30 10520 C 1004.54 -1.72923 -1.58539 0
M  V30 10521 C 1005.56 -0.612577 -1.6286 0
M  V30 10522 O 1006.73 -0.891885 -1.80575 0
M  V30 10523 C 1003.8 -1.82623 -2.94703 0
M  V30 10524 C 1002.86 -3.06392 -3.00704 0
M  V30 10525 C 1002.09 -3.15618 -4.30373 0
M  V30 10526 O 1002.31 -2.31423 -5.21344 0
M  V30 10527 O 1001.25 -4.0841 -4.42136 0
M  V30 10528 H 1005.07 -2.68103 -1.42669 0
M  V30 10529 H 1002.66 -1.34848 -0.643144 0
M  V30 10530 H 1004.54 -1.91134 -3.7556 0
M  V30 10531 H 1003.22 -0.906275 -3.10754 0
M  V30 10532 H 1002.12 -3.03375 -2.18894 0
M  V30 10533 H 1003.46 -3.97992 -2.89591 0
M  V30 10534 N 1005.11 0.71652 -1.4037 0
M  V30 10535 C 1006.39 1.46947 -1.29097 0
M  V30 10536 C 1006.77 2.10903 0.0911182 0
M  V30 10537 O 1006.11 2.00068 1.10385 0
M  V30 10538 C 1006.32 2.50594 -2.42907 0
M  V30 10539 C 1007.67 3.16451 -2.83097 0
M  V30 10540 O 1008.7 2.60913 -2.42493 0
M  V30 10541 O 1007.55 4.16991 -3.53244 0
M  V30 10542 H 1004.65 0.653413 -0.506932 0
M  V30 10543 H 1007.19 0.748774 -1.52287 0
M  V30 10544 H 1005.97 2.01843 -3.35224 0
M  V30 10545 H 1005.59 3.302 -2.21481 0
M  V30 10546 N 1006.59 1.25851 0.948643 0
M  V30 10547 C 1007.55 1.0683 2.0278 0
M  V30 10548 C 1008.55 0.0191016 1.60789 0
M  V30 10549 O 1009.74 0.261836 1.72221 0
M  V30 10550 C 1006.87 0.623318 3.35153 0
M  V30 10551 H 1008.06 2.02635 2.21086 0
M  V30 10552 H 1005.62 1.08343 1.12657 0
M  V30 10553 H 1006.35 -0.337053 3.22544 0
M  V30 10554 H 1006.14 1.38082 3.66982 0
M  V30 10555 H 1007.63 0.511854 4.14451 0
M  V30 10556 N 1008.06 -1.15214 1.07534 0
M  V30 10557 C 1009.31 -1.86043 0.799629 0
M  V30 10558 C 1009.64 -1.82435 -0.674356 0
M  V30 10559 O 1008.89 -1.24379 -1.51091 0
M  V30 10560 C 1009.19 -3.34623 1.25547 0
M  V30 10561 C 1008.86 -3.58425 2.73573 0
M  V30 10562 C 1007.52 -3.6463 3.14004 0
M  V30 10563 C 1009.87 -3.67977 3.6911 0
M  V30 10564 C 1007.2 -3.779 4.48786 0
M  V30 10565 C 1009.55 -3.82771 5.03656 0
M  V30 10566 C 1008.22 -3.87222 5.43705 0
M  V30 10567 H 1007.49 -0.680781 0.292605 0
M  V30 10568 H 1010.13 -1.36149 1.34669 0
M  V30 10569 H 1008.44 -3.86737 0.627828 0
M  V30 10570 H 1010.14 -3.87836 1.01901 0
M  V30 10571 H 1006.73 -3.54238 2.41275 0
M  V30 10572 H 1010.91 -3.62482 3.39 0
M  V30 10573 H 1006.17 -3.79604 4.79281 0
M  V30 10574 H 1010.34 -3.89104 5.77556 0
M  V30 10575 H 1007.97 -3.97256 6.48145 0
M  V30 10576 N 1009.54 -0.859717 -1.32086 0
M  V30 10577 C 1010.47 -0.265258 -2.2766 0
M  V30 10578 C 1011.49 0.565889 -1.52648 0
M  V30 10579 O 1012.68 0.389554 -1.74197 0
M  V30 10580 C 1009.78 0.643397 -3.32737 0
M  V30 10581 C 1008.95 -0.153024 -4.37132 0
M  V30 10582 C 1008.01 0.682176 -5.21759 0
M  V30 10583 O 1007.03 0.113878 -5.69086 0
M  V30 10584 N 1008.24 1.99602 -5.45105 0
M  V30 10585 H 1011 -1.08653 -2.79311 0
M  V30 10586 H 1008.56 -0.720191 -1.45 0
M  V30 10587 H 1010.55 1.20759 -3.86263 0
M  V30 10588 H 1009.12 1.36535 -2.81206 0
M  V30 10589 H 1008.34 -0.898657 -3.8382 0
M  V30 10590 H 1009.63 -0.699877 -5.03963 0
M  V30 10591 H 1009.03 2.481 -5.08393 0
M  V30 10592 H 1007.59 2.50823 -6.01607 0
M  V30 10593 N 1011.02 1.44971 -0.618145 0
M  V30 10594 C 1011.95 2.33357 0.0815955 0
M  V30 10595 C 1012.93 1.47451 0.848072 0
M  V30 10596 O 1014.12 1.762 0.816532 0
M  V30 10597 C 1011.25 3.30324 1.07253 0
M  V30 10598 C 1010.2 4.25948 0.418563 0
M  V30 10599 C 1009.53 5.12685 1.51849 0
M  V30 10600 C 1010.83 5.18024 -0.66697 0
M  V30 10601 H 1012.52 2.92115 -0.656442 0
M  V30 10602 H 1010.07 1.40465 -0.317129 0
M  V30 10603 H 1012.02 3.91033 1.57069 0
M  V30 10604 H 1010.74 2.69748 1.8413 0
M  V30 10605 H 1009.4 3.66553 -0.0588308 0
M  V30 10606 H 1009.05 4.4847 2.2778 0
M  V30 10607 H 1008.75 5.7747 1.08637 0
M  V30 10608 H 1010.27 5.76264 2.01871 0
M  V30 10609 H 1011.69 5.72744 -0.252448 0
M  V30 10610 H 1010.09 5.91343 -1.02146 0
M  V30 10611 H 1011.16 4.59817 -1.53936 0
M  V30 10612 N 1012.5 0.357919 1.53482 0
M  V30 10613 C 1013.91 -0.122938 1.86295 0
M  V30 10614 C 1014.26 -1.48803 1.27875 0
M  V30 10615 O 1013.39 -2.07978 0.597828 0
M  V30 10616 C 1013.98 -0.229853 3.38019 0
M  V30 10617 C 1012.54 -0.654955 3.70658 0
M  V30 10618 C 1011.69 0.202539 2.76559 0
M  V30 10619 H 1014.64 0.576997 1.47839 0
M  V30 10620 H 1014.66 -1.05481 3.65587 0
M  V30 10621 H 1014.17 0.763825 3.80509 0
M  V30 10622 H 1012.27 -1.65714 3.33721 0
M  V30 10623 H 1012.38 -0.43488 4.77122 0
M  V30 10624 H 1010.75 -0.327388 2.52587 0
M  V30 10625 H 1011.53 1.19361 3.21882 0
M  V30 10626 N 1013.98 -1.5736 0.0868897 0
M  V30 10627 C 1015.22 -1.9367 -0.577598 0
M  V30 10628 C 1015.55 -0.968844 -1.69229 0
M  V30 10629 O 1014.82 -0.0195061 -1.9589 0
M  V30 10630 H 1013.4 -0.714983 -0.216353 0
M  V30 10631 H 1016.06 -1.94335 0.148294 0
M  V30 10632 H 1015.15 -2.95877 -0.993128 0
M  V30 10633 N 1015.45 0.186762 -1.56489 0
M  V30 10634 C 1016.38 1.23395 -1.98232 0
M  V30 10635 C 1017.37 1.4702 -0.855526 0
M  V30 10636 O 1018.55 1.58616 -1.12048 0
M  V30 10637 C 1015.68 2.57635 -2.32898 0
M  V30 10638 C 1014.63 2.48607 -3.48394 0
M  V30 10639 C 1013.96 3.87196 -3.68759 0
M  V30 10640 C 1015.26 2.00398 -4.82325 0
M  V30 10641 H 1016.95 0.887026 -2.85958 0
M  V30 10642 H 1014.5 0.42525 -1.37578 0
M  V30 10643 H 1016.45 3.31082 -2.60696 0
M  V30 10644 H 1015.18 2.94084 -1.42064 0
M  V30 10645 H 1013.84 1.77615 -3.207 0
M  V30 10646 H 1013.48 4.21012 -2.75241 0
M  V30 10647 H 1013.18 3.82029 -4.46462 0
M  V30 10648 H 1014.71 4.62253 -3.98941 0
M  V30 10649 H 1016.12 2.6361 -5.091 0
M  V30 10650 H 1014.52 2.06214 -5.63556 0
M  V30 10651 H 1015.59 0.957562 -4.75351 0
M  V30 10652 N 1016.93 1.50896 0.454776 0
M  V30 10653 C 1018.18 1.62378 1.20324 0
M  V30 10654 C 1018.5 0.333883 1.9212 0
M  V30 10655 O 1017.77 -0.649477 1.8482 0
M  V30 10656 H 1016.35 0.598395 0.447139 0
M  V30 10657 H 1019.01 1.87749 0.523102 0
M  V30 10658 H 1018.11 2.44296 1.94232 0
M  V30 10659 N 1018.41 -0.709066 1.40748 0
M  V30 10660 C 1019.64 -1.49808 1.42707 0
M  V30 10661 C 1020.05 -1.88778 0.0285574 0
M  V30 10662 O 1019.41 -1.55883 -0.949035 0
M  V30 10663 C 1019.46 -2.76926 2.32366 0
M  V30 10664 O 1019.18 -2.39602 3.66773 0
M  V30 10665 C 1020.68 -3.70773 2.42986 0
M  V30 10666 H 1017.9 -0.462106 0.486517 0
M  V30 10667 H 1020.45 -0.874135 1.84876 0
M  V30 10668 H 1018.6 -3.3559 1.93541 0
M  V30 10669 H 1019.02 -3.21443 4.14457 0
M  V30 10670 H 1020.49 -4.56789 3.09916 0
M  V30 10671 H 1020.97 -4.14332 1.45691 0
M  V30 10672 H 1021.57 -3.18019 2.8239 0
M  V30 10673 N 1019.89 -1.26353 -0.941956 0
M  V30 10674 C 1021.3 -1.10774 -1.50287 0
M  V30 10675 C 1021.65 0.312229 -1.937 0
M  V30 10676 O 1020.78 1.20364 -1.79838 0
M  V30 10677 C 1021.37 -2.00473 -2.73123 0
M  V30 10678 C 1019.93 -1.89042 -3.25485 0
M  V30 10679 C 1019.08 -1.93869 -1.98267 0
M  V30 10680 H 1022.03 -1.39454 -0.757523 0
M  V30 10681 H 1022.05 -1.55216 -3.47402 0
M  V30 10682 H 1021.56 -3.03812 -2.41495 0
M  V30 10683 H 1019.66 -0.886341 -3.61904 0
M  V30 10684 H 1019.78 -2.74533 -3.92643 0
M  V30 10685 H 1018.14 -1.37912 -2.14132 0
M  V30 10686 H 1018.92 -2.98837 -1.68972 0
M  V30 10687 N 1021.37 1.14642 -1.08144 0
M  V30 10688 C 1022.78 1.6719 -0.830923 0
M  V30 10689 C 1023.13 1.85373 0.642749 0
M  V30 10690 O 1022.25 1.56293 1.49671 0
M  V30 10691 C 1022.85 3.03697 -1.50179 0
M  V30 10692 C 1021.41 3.5329 -1.29858 0
M  V30 10693 C 1020.56 2.28828 -1.5663 0
M  V30 10694 H 1023.51 0.987441 -1.24239 0
M  V30 10695 H 1023.53 3.69023 -0.9275 0
M  V30 10696 H 1023.04 2.90431 -2.57432 0
M  V30 10697 H 1021.14 3.71783 -0.246626 0
M  V30 10698 H 1021.25 4.34231 -2.02436 0
M  V30 10699 H 1019.62 2.34769 -0.987716 0
M  V30 10700 H 1020.4 2.18141 -2.65084 0
M  V30 10701 N 1022.85 0.866709 1.31628 0
M  V30 10702 C 1024.09 0.472185 1.96095 0
M  V30 10703 C 1024.41 -0.979873 1.69286 0
M  V30 10704 O 1025.61 -1.48039 2.27589 0
M  V30 10705 C 1024.07 0.793468 3.51044 0
M  V30 10706 C 1023.68 2.26206 3.86697 0
M  V30 10707 C 1025.42 0.467255 4.21921 0
M  V30 10708 C 1023.33 2.52593 5.34743 0
M  V30 10709 H 1022.26 0.172846 0.733921 0
M  V30 10710 H 1024.91 1.05916 1.49847 0
M  V30 10711 H 1023.29 0.135783 3.95767 0
M  V30 10712 H 1024.47 2.96254 3.52945 0
M  V30 10713 H 1022.78 2.55399 3.28877 0
M  V30 10714 H 1025.38 0.641669 5.30836 0
M  V30 10715 H 1025.72 -0.592065 4.12068 0
M  V30 10716 H 1026.25 1.08134 3.82821 0
M  V30 10717 H 1022.99 3.57196 5.49628 0
M  V30 10718 H 1022.51 1.87136 5.6986 0
M  V30 10719 H 1024.19 2.37156 6.01968 0
M  V30 10720 N 1024.32 -1.44642 0.625825 0
M  V30 10721 C 1025.55 -2.06458 0.135116 0
M  V30 10722 C 1025.97 -1.46729 -1.18811 0
M  V30 10723 O 1025.32 -0.58818 -1.72762 0
M  V30 10724 C 1025.37 -3.61499 0.00850114 0
M  V30 10725 O 1025.1 -4.19002 1.2794 0
M  V30 10726 C 1026.6 -4.40339 -0.511527 0
M  V30 10727 H 1023.82 -0.666541 0.0772294 0
M  V30 10728 H 1026.36 -1.85597 0.858726 0
M  V30 10729 H 1024.52 -3.81641 -0.665522 0
M  V30 10730 H 1024.93 -5.12385 1.12081 0
M  V30 10731 H 1026.4 -5.49262 -0.549149 0
M  V30 10732 H 1026.88 -4.11409 -1.53752 0
M  V30 10733 H 1027.49 -4.25104 0.129066 0
M  V30 10734 N 1025.8 -0.366053 -1.5329 0
M  V30 10735 C 1026.75 0.480205 -2.25749 0
M  V30 10736 C 1027.72 1.07713 -1.2644 0
M  V30 10737 O 1028.9 1.10953 -1.55222 0
M  V30 10738 C 1026.04 1.61374 -3.05045 0
M  V30 10739 C 1025.16 1.04194 -4.19246 0
M  V30 10740 C 1024.29 2.14462 -4.85983 0
M  V30 10741 C 1023.33 1.5475 -5.92215 0
M  V30 10742 N 1022.47 2.58852 -6.52641 0
M  V30 10743 H 1027.31 -0.144199 -2.97651 0
M  V30 10744 H 1024.84 -0.0829321 -1.46866 0
M  V30 10745 H 1026.8 2.28144 -3.49294 0
M  V30 10746 H 1025.43 2.2088 -2.35397 0
M  V30 10747 H 1024.48 0.264514 -3.79479 0
M  V30 10748 H 1025.8 0.565379 -4.95585 0
M  V30 10749 H 1024.95 2.89051 -5.33418 0
M  V30 10750 H 1023.69 2.6547 -4.09117 0
M  V30 10751 H 1022.69 0.786759 -5.44142 0
M  V30 10752 H 1023.92 1.04566 -6.71001 0
M  V30 10753 H 1021.87 3.09073 -5.78627 0
M  V30 10754 H 1021.78 2.15884 -7.24521 0
M  V30 10755 H 1023.05 3.33142 -7.04724 0
M  V30 10756 N 1027.28 1.57312 -0.0952337 0
M  V30 10757 C 1028.21 2.17056 0.860753 0
M  V30 10758 C 1029.19 1.10394 1.29411 0
M  V30 10759 O 1030.38 1.38532 1.36098 0
M  V30 10760 C 1027.51 2.751 2.11984 0
M  V30 10761 C 1026.46 3.87136 1.8251 0
M  V30 10762 C 1025.79 4.31883 3.15247 0
M  V30 10763 C 1027.09 5.10326 1.11194 0
M  V30 10764 H 1028.78 2.97192 0.362983 0
M  V30 10765 H 1026.33 1.42955 0.173151 0
M  V30 10766 H 1028.28 3.15547 2.79299 0
M  V30 10767 H 1027 1.92219 2.64044 0
M  V30 10768 H 1025.66 3.47229 1.17592 0
M  V30 10769 H 1025.31 3.45893 3.65195 0
M  V30 10770 H 1025.01 5.0742 2.96309 0
M  V30 10771 H 1026.53 4.74964 3.83721 0
M  V30 10772 H 1027.95 5.47942 1.6862 0
M  V30 10773 H 1026.34 5.91293 1.02435 0
M  V30 10774 H 1027.41 4.84807 0.0947227 0
M  V30 10775 N 1028.76 -0.17846 1.56586 0
M  V30 10776 C 1029.99 -0.911996 1.85715 0
M  V30 10777 C 1030.4 -1.76138 0.679766 0
M  V30 10778 O 1029.76 -1.79088 -0.351266 0
M  V30 10779 C 1029.81 -1.79459 3.1381 0
M  V30 10780 O 1029.53 -0.979476 4.2701 0
M  V30 10781 C 1031.03 -2.6384 3.56235 0
M  V30 10782 H 1028.25 -0.265299 0.616326 0
M  V30 10783 H 1030.79 -0.180704 2.037 0
M  V30 10784 H 1028.95 -2.4793 2.97673 0
M  V30 10785 H 1029.36 -1.58244 5.00059 0
M  V30 10786 H 1030.84 -3.21396 4.48786 0
M  V30 10787 H 1031.31 -3.38363 2.80013 0
M  V30 10788 H 1031.92 -2.00712 3.7496 0
M  V30 10789 N 1030.24 -1.51135 -0.446768 0
M  V30 10790 C 1031.48 -1.63578 -1.19875 0
M  V30 10791 C 1031.81 -0.346478 -1.91084 0
M  V30 10792 O 1031.09 0.653447 -1.83195 0
M  V30 10793 C 1031.37 -2.83275 -2.22323 0
M  V30 10794 C 1031.23 -4.22155 -1.55259 0
M  V30 10795 C 1032.54 -2.98496 -3.23401 0
M  V30 10796 H 1029.66 -0.595333 -0.434452 0
M  V30 10797 H 1032.31 -1.83593 -0.48923 0
M  V30 10798 H 1030.46 -2.6634 -2.82834 0
M  V30 10799 H 1032.13 -4.50736 -0.981571 0
M  V30 10800 H 1030.37 -4.25288 -0.855122 0
M  V30 10801 H 1031.04 -5.01882 -2.29823 0
M  V30 10802 H 1033.52 -3.14079 -2.72935 0
M  V30 10803 H 1032.39 -3.83828 -3.92386 0
M  V30 10804 H 1032.65 -2.10157 -3.88956 0
M  V30 10805 N 1031.71 0.701592 -1.41122 0
M  V30 10806 C 1032.64 1.82815 -1.45262 0
M  V30 10807 C 1033.62 1.67215 -0.311939 0
M  V30 10808 O 1034.81 1.87038 -0.522538 0
M  V30 10809 C 1031.94 3.20899 -1.32819 0
M  V30 10810 C 1030.89 3.51194 -2.44636 0
M  V30 10811 C 1030.22 4.8857 -2.17263 0
M  V30 10812 C 1031.52 3.50777 -3.86979 0
M  V30 10813 H 1033.21 1.79608 -2.39544 0
M  V30 10814 H 1030.76 0.862693 -1.15298 0
M  V30 10815 H 1032.71 3.99417 -1.34329 0
M  V30 10816 H 1031.44 3.24717 -0.350191 0
M  V30 10817 H 1030.1 2.75024 -2.42399 0
M  V30 10818 H 1029.74 4.89007 -1.17819 0
M  V30 10819 H 1029.44 5.09805 -2.92186 0
M  V30 10820 H 1030.97 5.69405 -2.20478 0
M  V30 10821 H 1032.38 4.19309 -3.90964 0
M  V30 10822 H 1030.78 3.83542 -4.61536 0
M  V30 10823 H 1031.85 2.49873 -4.15562 0
M  V30 10824 N 1033.19 1.2685 0.935242 0
M  V30 10825 C 1034.1 1.10716 2.06831 0
M  V30 10826 C 1035.12 0.0391222 1.73956 0
M  V30 10827 O 1036.29 0.244071 1.99916 0
M  V30 10828 C 1033.36 0.748093 3.38533 0
M  V30 10829 C 1032.42 1.89619 3.85153 0
M  V30 10830 C 1031.65 1.55416 5.1057 0
M  V30 10831 O 1031.88 0.458596 5.68553 0
M  V30 10832 O 1030.81 2.39087 5.52378 0
M  V30 10833 H 1034.64 2.05785 2.23352 0
M  V30 10834 H 1032.22 1.05967 1.05315 0
M  V30 10835 H 1034.1 0.560841 4.17651 0
M  V30 10836 H 1032.78 -0.173142 3.23237 0
M  V30 10837 H 1031.68 2.13845 3.06954 0
M  V30 10838 H 1033.02 2.79737 4.04979 0
M  V30 10839 N 1034.67 -1.14067 1.0875 0
M  V30 10840 C 1035.58 -2.22871 0.732498 0
M  V30 10841 C 1036.6 -1.72008 -0.26253 0
M  V30 10842 O 1037.77 -2.01123 -0.105601 0
M  V30 10843 C 1034.84 -3.46371 0.150913 0
M  V30 10844 C 1033.9 -4.12158 1.201 0
M  V30 10845 C 1033.13 -5.29763 0.647075 0
M  V30 10846 O 1033.35 -5.67911 -0.532307 0
M  V30 10847 O 1032.29 -5.8542 1.3988 0
M  V30 10848 H 1036.11 -2.55596 1.64025 0
M  V30 10849 H 1033.7 -1.22065 0.861417 0
M  V30 10850 H 1035.58 -4.21055 -0.170442 0
M  V30 10851 H 1034.26 -3.15362 -0.729948 0
M  V30 10852 H 1033.16 -3.39332 1.57494 0
M  V30 10853 H 1034.5 -4.47282 2.05426 0
M  V30 10854 N 1036.15 -0.873678 -1.31166 0
M  V30 10855 C 1037.43 -0.40698 -1.91319 0
M  V30 10856 C 1037.81 1.1113 -1.79481 0
M  V30 10857 O 1037.15 1.94155 -1.20483 0
M  V30 10858 C 1037.36 -0.892484 -3.37396 0
M  V30 10859 C 1038.71 -0.920795 -4.14496 0
M  V30 10860 O 1039.74 -0.838386 -3.46193 0
M  V30 10861 O 1038.59 -1.04069 -5.365 0
M  V30 10862 H 1035.69 -0.122439 -0.817886 0
M  V30 10863 H 1038.23 -0.961835 -1.3981 0
M  V30 10864 H 1037.01 -1.93613 -3.40044 0
M  V30 10865 H 1036.63 -0.31615 -3.96341 0
M  V30 10866 N 1037.63 1.44308 -0.633487 0
M  V30 10867 C 1038.54 2.34492 0.0711787 0
M  V30 10868 C 1039.55 1.52754 0.8332 0
M  V30 10869 O 1040.73 1.85475 0.784929 0
M  V30 10870 C 1037.79 3.30767 1.03895 0
M  V30 10871 C 1036.85 4.28412 0.276043 0
M  V30 10872 C 1036.09 5.20087 1.19772 0
M  V30 10873 O 1036.31 5.15743 2.4365 0
M  V30 10874 O 1035.24 5.98038 0.680764 0
M  V30 10875 H 1039.07 2.96203 -0.67063 0
M  V30 10876 H 1036.66 1.4412 -0.393678 0
M  V30 10877 H 1038.54 3.90021 1.59566 0
M  V30 10878 H 1037.21 2.71586 1.76133 0
M  V30 10879 H 1036.12 3.72696 -0.32377 0
M  V30 10880 H 1037.45 4.9052 -0.406364 0
M  V30 10881 N 1039.1 0.374177 1.53094 0
M  V30 10882 C 1040.05 -0.468226 2.26001 0
M  V30 10883 C 1041.02 -1.07041 1.27009 0
M  V30 10884 O 1042.21 -1.10129 1.55809 0
M  V30 10885 C 1039.35 -1.59754 3.05896 0
M  V30 10886 C 1038.46 -1.01969 4.19793 0
M  V30 10887 C 1037.59 -2.11882 4.87113 0
M  V30 10888 C 1036.63 -1.51607 5.93028 0
M  V30 10889 N 1035.77 -2.55388 6.54004 0
M  V30 10890 H 1040.61 0.159983 2.9757 0
M  V30 10891 H 1038.15 0.0907196 1.4682 0
M  V30 10892 H 1040.11 -2.26288 3.50499 0
M  V30 10893 H 1038.74 -2.19628 2.36565 0
M  V30 10894 H 1037.79 -0.244386 3.79614 0
M  V30 10895 H 1039.1 -0.539089 4.95878 0
M  V30 10896 H 1038.25 -2.86218 5.34943 0
M  V30 10897 H 1036.99 -2.63297 4.10519 0
M  V30 10898 H 1036 -0.757891 5.44551 0
M  V30 10899 H 1037.22 -1.01006 6.71546 0
M  V30 10900 H 1035.17 -3.06 5.80258 0
M  V30 10901 H 1035.09 -2.12039 7.25655 0
M  V30 10902 H 1036.35 -3.294 7.06481 0
M  V30 10903 N 1040.58 -1.57259 0.103575 0
M  V30 10904 C 1041.53 -2.14487 -0.852295 0
M  V30 10905 C 1042.5 -1.06567 -1.27407 0
M  V30 10906 O 1043.68 -1.34398 -1.35432 0
M  V30 10907 C 1040.82 -2.73632 -2.10284 0
M  V30 10908 C 1039.94 -3.95811 -1.73083 0
M  V30 10909 C 1039.07 -4.43093 -2.92988 0
M  V30 10910 C 1038.11 -5.5784 -2.51953 0
M  V30 10911 N 1037.25 -5.99936 -3.64721 0
M  V30 10912 H 1042.09 -2.95849 -0.35743 0
M  V30 10913 H 1039.63 -1.46175 -0.164748 0
M  V30 10914 H 1041.58 -3.06046 -2.83534 0
M  V30 10915 H 1040.21 -1.94985 -2.57256 0
M  V30 10916 H 1039.27 -3.69656 -0.897688 0
M  V30 10917 H 1040.58 -4.79066 -1.38916 0
M  V30 10918 H 1039.73 -4.77335 -3.74481 0
M  V30 10919 H 1038.47 -3.58756 -3.30372 0
M  V30 10920 H 1037.48 -5.23217 -1.6889 0
M  V30 10921 H 1038.7 -6.43932 -2.15705 0
M  V30 10922 H 1036.65 -5.18543 -4.01807 0
M  V30 10923 H 1036.56 -6.78008 -3.34427 0
M  V30 10924 H 1037.83 -6.38812 -4.46699 0
M  V30 10925 N 1042.06 0.170153 -1.56679 0
M  V30 10926 C 1043.47 0.732502 -1.7173 0
M  V30 10927 C 1043.82 1.82736 -0.71428 0
M  V30 10928 O 1042.95 2.16044 0.124102 0
M  V30 10929 C 1043.54 1.33548 -3.11368 0
M  V30 10930 C 1042.1 1.84464 -3.281 0
M  V30 10931 C 1041.25 0.724069 -2.6768 0
M  V30 10932 H 1044.2 -0.0552543 -1.58604 0
M  V30 10933 H 1044.22 2.20519 -3.10083 0
M  V30 10934 H 1043.73 0.5384 -3.84347 0
M  V30 10935 H 1041.83 2.66813 -2.6008 0
M  V30 10936 H 1041.95 1.98928 -4.35849 0
M  V30 10937 H 1040.31 1.14481 -2.27522 0
M  V30 10938 H 1041.09 -0.0611861 -3.43245 0
M  V30 10939 N 1043.54 1.5137 0.438746 0
M  V30 10940 C 1044.78 1.64211 1.19006 0
M  V30 10941 C 1045.12 0.356607 1.90898 0
M  V30 10942 O 1044.39 -0.643722 1.83539 0
M  V30 10943 C 1044.68 2.8445 2.20817 0
M  V30 10944 C 1044.53 4.22972 1.53018 0
M  V30 10945 C 1045.85 3.00207 3.21813 0
M  V30 10946 H 1042.97 0.597628 0.431288 0
M  V30 10947 H 1045.61 1.8385 0.479487 0
M  V30 10948 H 1043.76 2.67836 2.81418 0
M  V30 10949 H 1045.43 4.5125 0.957654 0
M  V30 10950 H 1043.67 4.25736 0.832556 0
M  V30 10951 H 1044.34 5.03094 2.27158 0
M  V30 10952 H 1046.82 3.15522 2.71266 0
M  V30 10953 H 1045.7 3.85904 3.90345 0
M  V30 10954 H 1045.96 2.12216 3.87836 0
M  V30 10955 N 1045.02 -0.694098 1.41492 0
M  V30 10956 C 1046.43 -1.27407 1.36471 0
M  V30 10957 C 1046.78 -1.9614 0.0485209 0
M  V30 10958 O 1045.9 -1.98871 -0.853188 0
M  V30 10959 C 1046.5 -2.31698 2.47188 0
M  V30 10960 C 1045.06 -2.85268 2.45559 0
M  V30 10961 C 1044.2 -1.59325 2.2696 0
M  V30 10962 H 1047.16 -0.488756 1.50986 0
M  V30 10963 H 1047.18 -3.1302 2.1633 0
M  V30 10964 H 1046.69 -1.81644 3.42968 0
M  V30 10965 H 1044.79 -3.39494 1.5354 0
M  V30 10966 H 1044.9 -3.35598 3.41922 0
M  V30 10967 H 1043.27 -1.85188 1.74864 0
M  V30 10968 H 1044.05 -1.11265 3.24769 0
M  V30 10969 N 1046.49 -1.27344 -0.928501 0
M  V30 10970 C 1047.74 -1.14813 -1.67897 0
M  V30 10971 C 1048.1 0.303129 -1.89997 0
M  V30 10972 O 1047.39 1.21844 -1.47867 0
M  V30 10973 C 1047.58 -1.86439 -3.04918 0
M  V30 10974 C 1047.41 -3.38381 -2.96189 0
M  V30 10975 C 1046.18 -4.07698 -2.98514 0
M  V30 10976 C 1048.38 -4.3437 -2.75367 0
M  V30 10977 N 1046.36 -5.46215 -2.80218 0
M  V30 10978 C 1047.73 -5.60149 -2.65768 0
M  V30 10979 C 1049.79 -4.2447 -2.60249 0
M  V30 10980 C 1048.49 -6.77157 -2.42593 0
M  V30 10981 C 1050.52 -5.41198 -2.3845 0
M  V30 10982 C 1049.88 -6.65933 -2.29593 0
M  V30 10983 H 1045.98 -0.47499 -0.621215 0
M  V30 10984 H 1048.56 -1.60802 -1.09776 0
M  V30 10985 H 1046.73 -1.42907 -3.61154 0
M  V30 10986 H 1048.46 -1.6642 -3.68899 0
M  V30 10987 H 1045.22 -3.59158 -3.08711 0
M  V30 10988 H 1045.64 -6.18985 -2.74203 0
M  V30 10989 H 1050.29 -3.28756 -2.65856 0
M  V30 10990 H 1048 -7.72955 -2.35725 0
M  V30 10991 H 1051.59 -5.35417 -2.27639 0
M  V30 10992 H 1050.47 -7.54732 -2.12952 0
M  V30 10993 N 1047.97 1.13488 -1.09353 0
M  V30 10994 C 1048.88 2.2248 -0.744307 0
M  V30 10995 C 1049.9 1.72145 0.253404 0
M  V30 10996 O 1051.07 2.01176 0.0949339 0
M  V30 10997 C 1048.14 3.46286 -0.16928 0
M  V30 10998 C 1047.2 4.11516 -1.22284 0
M  V30 10999 C 1046.43 5.29412 -0.675161 0
M  V30 11000 O 1046.66 5.68185 0.502182 0
M  V30 11001 O 1045.59 5.8467 -1.42983 0
M  V30 11002 H 1049.42 2.54723 -1.65378 0
M  V30 11003 H 1047 1.21607 -0.867879 0
M  V30 11004 H 1048.88 4.2114 0.14811 0
M  V30 11005 H 1047.56 3.15745 0.713214 0
M  V30 11006 H 1046.47 3.38492 -1.59292 0
M  V30 11007 H 1047.8 4.46186 -2.07796 0
M  V30 11008 N 1049.45 0.880621 1.30701 0
M  V30 11009 C 1050.68 0.510909 2.01009 0
M  V30 11010 C 1051.1 -0.892041 1.65603 0
M  V30 11011 O 1050.46 -1.59045 0.870309 0
M  V30 11012 C 1050.51 0.687759 3.53981 0
M  V30 11013 O 1049.61 -0.268275 4.11526 0
M  V30 11014 H 1048.95 0.201864 0.632572 0
M  V30 11015 H 1051.48 1.18697 1.6665 0
M  V30 11016 H 1051.49 0.585095 4.03783 0
M  V30 11017 H 1050.17 1.71068 3.79089 0
M  V30 11018 H 1048.74 -0.119673 3.72708 0
M  V30 11019 N 1050.93 -1.4397 0.641131 0
M  V30 11020 C 1051.88 -2.2786 -0.079879 0
M  V30 11021 C 1052.86 -1.39227 -0.80651 0
M  V30 11022 O 1054.06 -1.62956 -0.690969 0
M  V30 11023 C 1051.18 -3.26722 -1.05394 0
M  V30 11024 C 1050.27 -4.22842 -0.326411 0
M  V30 11025 N 1050.66 -5.016 0.650464 0
M  V30 11026 C 1048.96 -4.42349 -0.569507 0
M  V30 11027 C 1049.66 -5.71563 1.08121 0
M  V30 11028 N 1048.64 -5.41991 0.417932 0
M  V30 11029 H 1052.44 -2.86163 0.669906 0
M  V30 11030 H 1049.95 -1.55528 0.467433 0
M  V30 11031 H 1051.95 -3.85588 -1.58517 0
M  V30 11032 H 1050.61 -2.69979 -1.80392 0
M  V30 11033 H 1051.62 -5.07581 1.0287 0
M  V30 11034 H 1048.3 -3.96693 -1.30159 0
M  V30 11035 H 1049.69 -6.44805 1.88883 0
M  V30 11036 N 1052.41 -0.382291 -1.52893 0
M  V30 11037 C 1053.36 0.471187 -2.27778 0
M  V30 11038 C 1054.35 1.0691 -1.31402 0
M  V30 11039 O 1055.56 1.01038 -1.48967 0
M  V30 11040 H 1051.93 0.170696 -0.732371 0
M  V30 11041 H 1053.9 -0.181954 -2.97845 0
M  V30 11042 C 1052.65 1.59012 -3.09209 0
M  V30 11043 H 1051.97 1.13935 -3.83222 0
M  V30 11044 H 1053.41 2.16167 -3.64757 0
M  V30 11045 C 1051.87 2.54212 -2.21084 0
M  V30 11046 O 1052.4 3.57447 -1.83288 0
M  V30 11047 N 1050.61 2.23789 -1.85383 0
M  V30 11048 H 1050.16 1.39872 -2.16318 0
M  V30 11049 H 1050.11 2.87737 -1.26708 0
M  V30 11050 N 1053.89 1.57202 -0.111913 0
M  V30 11051 C 1055.11 1.99723 0.559054 0
M  V30 11052 C 1055.54 0.990968 1.59879 0
M  V30 11053 O 1054.89 -0.038311 1.8126 0
M  V30 11054 C 1054.94 3.41151 1.16826 0
M  V30 11055 O 1054.05 3.43383 2.2839 0
M  V30 11056 H 1053.39 0.649004 0.140319 0
M  V30 11057 H 1055.92 2.03637 -0.198295 0
M  V30 11058 H 1055.93 3.79208 1.50551 0
M  V30 11059 H 1054.6 4.13907 0.406637 0
M  V30 11060 H 1053.18 3.17138 1.96158 0
M  V30 11061 N 1055.36 -0.161842 1.56767 0
M  V30 11062 C 1056.59 -0.896274 1.87034 0
M  V30 11063 C 1057.01 -1.74617 0.699314 0
M  V30 11064 O 1056.37 -1.77861 -0.351435 0
M  V30 11065 C 1056.42 -1.74105 3.15784 0
M  V30 11066 O 1055.52 -2.84372 2.98674 0
M  V30 11067 H 1054.86 -0.250523 0.614926 0
M  V30 11068 H 1057.39 -0.157127 2.03996 0
M  V30 11069 H 1057.4 -2.13907 3.4743 0
M  V30 11070 H 1056.08 -1.11684 4.00624 0
M  V30 11071 H 1054.66 -2.48084 2.78404 0
M  V30 11072 N 1056.84 -1.516 -0.430713 0
M  V30 11073 C 1057.75 -1.76247 -1.54836 0
M  V30 11074 C 1058.77 -0.646985 -1.61524 0
M  V30 11075 O 1059.94 -0.929987 -1.78643 0
M  V30 11076 C 1057.01 -1.88833 -2.90763 0
M  V30 11077 C 1056.07 -3.12701 -2.94137 0
M  V30 11078 C 1055.3 -3.24676 -4.23581 0
M  V30 11079 O 1055.53 -2.42429 -5.16318 0
M  V30 11080 O 1054.46 -4.17697 -4.33374 0
M  V30 11081 H 1058.29 -2.71069 -1.3695 0
M  V30 11082 H 1055.87 -1.36182 -0.614396 0
M  V30 11083 H 1057.75 -1.99057 -3.71422 0
M  V30 11084 H 1056.43 -0.971987 -3.08762 0
M  V30 11085 H 1055.33 -3.0795 -2.1241 0
M  V30 11086 H 1056.67 -4.04045 -2.81084 0
M  V30 11087 N 1058.32 0.686584 -1.41858 0
M  V30 11088 C 1059.55 1.47519 -1.45072 0
M  V30 11089 C 1059.96 1.88709 -0.0585868 0
M  V30 11090 O 1059.32 1.57373 0.924116 0
M  V30 11091 C 1059.37 2.73195 -2.36742 0
M  V30 11092 O 1059.09 2.33736 -3.70539 0
M  V30 11093 C 1060.59 3.66861 -2.48854 0
M  V30 11094 H 1057.81 0.454307 -0.493808 0
M  V30 11095 H 1060.36 0.844612 -1.86243 0
M  V30 11096 H 1058.51 3.32468 -1.98856 0
M  V30 11097 H 1058.93 3.14809 -4.19518 0
M  V30 11098 H 1060.4 4.51801 -3.17143 0
M  V30 11099 H 1060.88 4.11961 -1.52265 0
M  V30 11100 H 1061.48 3.13486 -2.87414 0
M  V30 11101 N 1059.8 1.27835 0.921735 0
M  V30 11102 C 1061.04 1.15766 1.68457 0
M  V30 11103 C 1061.4 -0.290542 1.89789 0
M  V30 11104 O 1062.6 -0.53378 2.63447 0
M  V30 11105 C 1060.87 1.92591 3.0107 0
M  V30 11106 S 1062.43 1.96804 3.92191 0
M  V30 11107 H 1059.25 0.413169 0.578629 0
M  V30 11108 H 1061.85 1.61826 1.09693 0
M  V30 11109 H 1060.56 2.96991 2.8324 0
M  V30 11110 H 1060.09 1.47049 3.64884 0
M  V30 11111 H 1062.1 1.06877 4.84553 0
M  V30 11112 N 1061.28 -1.12907 1.09954 0
M  V30 11113 C 1062.52 -1.83941 0.837255 0
M  V30 11114 C 1062.84 -1.84234 -0.638984 0
M  V30 11115 O 1062.11 -1.30193 -1.46378 0
M  V30 11116 H 1060.69 -0.681115 0.306743 0
M  V30 11117 H 1063.36 -1.36743 1.38879 0
M  V30 11118 H 1062.45 -2.88289 1.19565 0
M  V30 11119 N 1062.75 -0.88754 -1.30232 0
M  V30 11120 C 1063.68 -0.372481 -2.3051 0
M  V30 11121 C 1064.66 0.546037 -1.61098 0
M  V30 11122 O 1065.85 0.459345 -1.88689 0
M  V30 11123 C 1062.98 0.411605 -3.44852 0
M  V30 11124 C 1061.93 -0.415383 -4.2598 0
M  V30 11125 C 1061.26 0.495463 -5.324 0
M  V30 11126 C 1062.56 -1.65886 -4.95257 0
M  V30 11127 H 1064.25 -1.21045 -2.7384 0
M  V30 11128 H 1061.8 -0.583498 -1.31648 0
M  V30 11129 H 1063.75 0.782584 -4.1407 0
M  V30 11130 H 1062.48 1.28325 -3.00334 0
M  V30 11131 H 1061.14 -0.768534 -3.58454 0
M  V30 11132 H 1060.78 1.36489 -4.84128 0
M  V30 11133 H 1060.48 -0.0540885 -5.87575 0
M  V30 11134 H 1062.01 0.862901 -6.04472 0
M  V30 11135 H 1063.42 -1.35832 -5.56976 0
M  V30 11136 H 1061.82 -2.14881 -5.60309 0
M  V30 11137 H 1062.89 -2.40181 -4.21237 0
M  V30 11138 N 1064.23 1.43628 -0.648757 0
M  V30 11139 C 1065.64 1.85142 -0.24066 0
M  V30 11140 C 1065.99 1.54304 1.21181 0
M  V30 11141 O 1065.12 0.989792 1.92437 0
M  V30 11142 C 1065.71 3.3606 -0.429999 0
M  V30 11143 C 1064.27 3.76323 -0.0762588 0
M  V30 11144 C 1063.42 2.67382 -0.734999 0
M  V30 11145 H 1066.37 1.33844 -0.852734 0
M  V30 11146 H 1066.39 3.79102 0.325836 0
M  V30 11147 H 1065.9 3.58474 -1.48721 0
M  V30 11148 H 1064.01 3.59521 0.978529 0
M  V30 11149 H 1064.12 4.76498 -0.498612 0
M  V30 11150 H 1062.48 2.54141 -0.168644 0
M  V30 11151 H 1063.27 2.92625 -1.79515 0
M  V30 11152 N 1065.71 0.390394 1.52688 0
M  V30 11153 C 1066.94 -0.191485 2.06012 0
M  V30 11154 C 1067.35 -1.40422 1.26202 0
M  V30 11155 O 1066.71 -1.79866 0.308963 0
M  V30 11156 C 1066.76 -0.560521 3.57128 0
M  V30 11157 O 1066.48 0.60404 4.33916 0
M  V30 11158 C 1067.98 -1.19814 4.26801 0
M  V30 11159 H 1065.2 -0.0286311 0.670389 0
M  V30 11160 H 1067.75 0.555939 1.96798 0
M  V30 11161 H 1065.9 -1.25784 3.66411 0
M  V30 11162 H 1066.32 0.300467 5.23639 0
M  V30 11163 H 1067.79 -1.40672 5.33775 0
M  V30 11164 H 1068.27 -2.16582 3.82085 0
M  V30 11165 H 1068.87 -0.541558 4.21838 0
M  V30 11166 N 1067.19 -1.57141 0.120249 0
M  V30 11167 C 1068.12 -2.18398 -0.826112 0
M  V30 11168 C 1069.1 -1.12439 -1.27638 0
M  V30 11169 O 1070.28 -1.40679 -1.33877 0
M  V30 11170 C 1067.41 -2.78438 -2.0758 0
M  V30 11171 C 1066.37 -3.89991 -1.76327 0
M  V30 11172 C 1065.69 -4.36844 -3.08336 0
M  V30 11173 C 1066.99 -5.12031 -1.03062 0
M  V30 11174 H 1068.69 -2.97731 -0.315656 0
M  V30 11175 H 1066.23 -1.43213 -0.150387 0
M  V30 11176 H 1068.19 -3.19951 -2.74243 0
M  V30 11177 H 1066.91 -1.96396 -2.60953 0
M  V30 11178 H 1065.57 -3.49055 -1.12053 0
M  V30 11179 H 1065.22 -3.51659 -3.59646 0
M  V30 11180 H 1064.92 -5.1207 -2.88199 0
M  V30 11181 H 1066.44 -4.81009 -3.76116 0
M  V30 11182 H 1067.86 -5.50555 -1.59881 0
M  V30 11183 H 1066.25 -5.92848 -0.930146 0
M  V30 11184 H 1067.32 -4.84897 -0.017582 0
M  V30 11185 N 1068.67 0.153526 -1.5685 0
M  V30 11186 C 1069.91 0.868517 -1.83261 0
M  V30 11187 C 1070.25 1.81112 -0.700857 0
M  V30 11188 O 1069.52 1.92235 0.295989 0
M  V30 11189 C 1069.8 1.6487 -3.2014 0
M  V30 11190 C 1069.66 0.728021 -4.43869 0
M  V30 11191 C 1070.98 2.61259 -3.54163 0
M  V30 11192 H 1068.09 0.314297 -0.666623 0
M  V30 11193 H 1070.74 0.133971 -1.89527 0
M  V30 11194 H 1068.89 2.2749 -3.1493 0
M  V30 11195 H 1070.56 0.113328 -4.61161 0
M  V30 11196 H 1068.8 0.0371744 -4.33784 0
M  V30 11197 H 1069.47 1.30981 -5.36235 0
M  V30 11198 H 1071.95 2.0876 -3.59942 0
M  V30 11199 H 1070.82 3.12902 -4.50981 0
M  V30 11200 H 1071.09 3.42307 -2.79782 0
M  V30 11201 N 1070.14 1.51827 0.422667 0
M  V30 11202 C 1071.08 1.70409 1.53275 0
M  V30 11203 C 1072.09 0.584584 1.51942 0
M  V30 11204 O 1073.28 0.859349 1.56453 0
M  V30 11205 C 1070.38 1.717 2.92185 0
M  V30 11206 C 1069.55 3.00472 3.17861 0
M  V30 11207 C 1068.61 2.93755 4.36571 0
M  V30 11208 O 1067.64 3.67682 4.3451 0
M  V30 11209 N 1068.84 2.10612 5.40946 0
M  V30 11210 H 1071.6 2.66176 1.37734 0
M  V30 11211 H 1069.16 1.49895 0.611799 0
M  V30 11212 H 1071.16 1.64756 3.69645 0
M  V30 11213 H 1069.73 0.834655 3.01251 0
M  V30 11214 H 1068.95 3.21171 2.28567 0
M  V30 11215 H 1070.23 3.85684 3.31851 0
M  V30 11216 H 1069.63 1.49954 5.45463 0
M  V30 11217 H 1068.19 2.09535 6.17202 0
M  V30 11218 N 1071.62 -0.679052 1.4222 0
M  V30 11219 C 1072.85 -1.46747 1.45852 0
M  V30 11220 C 1073.27 -1.88675 0.0685937 0
M  V30 11221 O 1072.62 -1.57861 -0.915757 0
M  V30 11222 C 1072.67 -2.71935 2.38188 0
M  V30 11223 O 1072.39 -2.31768 3.71773 0
M  V30 11224 C 1073.9 -3.65536 2.50796 0
M  V30 11225 H 1071.12 -0.451682 0.49621 0
M  V30 11226 H 1073.66 -0.834723 1.86689 0
M  V30 11227 H 1071.81 -3.31409 2.00616 0
M  V30 11228 H 1072.23 -3.12579 4.21182 0
M  V30 11229 H 1073.7 -4.50113 3.19535 0
M  V30 11230 H 1074.18 -4.11148 1.54447 0
M  V30 11231 H 1074.79 -3.11957 2.89072 0
M  V30 11232 N 1073.1 -1.28322 -0.914942 0
M  V30 11233 C 1074.33 -1.18083 -1.69529 0
M  V30 11234 C 1074.74 0.263274 -1.87359 0
M  V30 11235 O 1074.08 1.18988 -1.39955 0
M  V30 11236 C 1074.14 -1.8062 -3.10832 0
M  V30 11237 C 1073.81 -3.29861 -3.16292 0
M  V30 11238 C 1074.8 -4.26313 -2.97578 0
M  V30 11239 C 1072.49 -3.70797 -3.38843 0
M  V30 11240 C 1074.48 -5.61677 -3.01326 0
M  V30 11241 C 1072.17 -5.06287 -3.42223 0
M  V30 11242 C 1073.17 -6.01537 -3.23485 0
M  V30 11243 O 1072.86 -7.34556 -3.26624 0
M  V30 11244 H 1072.59 -0.410931 -0.53676 0
M  V30 11245 H 1075.14 -1.6994 -1.15367 0
M  V30 11246 H 1073.37 -1.23255 -3.66531 0
M  V30 11247 H 1075.06 -1.64915 -3.70888 0
M  V30 11248 H 1075.83 -3.96023 -2.79984 0
M  V30 11249 H 1071.71 -2.97124 -3.52475 0
M  V30 11250 H 1075.25 -6.36 -2.86618 0
M  V30 11251 H 1071.15 -5.36228 -3.59346 0
M  V30 11252 H 1071.92 -7.43167 -3.42994 0
M  V30 11253 N 1074.58 1.12322 -1.10551 0
M  V30 11254 C 1075.82 1.8413 -0.849932 0
M  V30 11255 C 1076.16 1.83938 0.622946 0
M  V30 11256 O 1075.43 1.28579 1.45937 0
M  V30 11257 C 1075.72 3.31751 -1.40048 0
M  V30 11258 C 1075.57 3.40391 -2.9403 0
M  V30 11259 C 1076.89 4.27543 -1.04379 0
M  V30 11260 H 1074.01 0.668533 -0.310213 0
M  V30 11261 H 1076.65 1.31766 -1.36886 0
M  V30 11262 H 1074.8 3.76475 -0.959102 0
M  V30 11263 H 1076.47 3.04294 -3.46703 0
M  V30 11264 H 1074.71 2.809 -3.30571 0
M  V30 11265 H 1075.38 4.44252 -3.27635 0
M  V30 11266 H 1077.86 3.90951 -1.42466 0
M  V30 11267 H 1076.74 5.2924 -1.4559 0
M  V30 11268 H 1077 4.42075 0.0466316 0
M  V30 11269 N 1076.06 0.894434 1.2976 0
M  V30 11270 C 1076.99 0.3847 2.30309 0
M  V30 11271 C 1077.97 -0.537486 1.61385 0
M  V30 11272 O 1079.15 -0.449332 1.8893 0
M  V30 11273 C 1076.28 -0.393311 3.45066 0
M  V30 11274 C 1075.24 0.437968 4.25753 0
M  V30 11275 C 1074.56 -0.467221 5.32655 0
M  V30 11276 C 1075.86 1.6851 4.9437 0
M  V30 11277 H 1077.56 1.22496 2.73194 0
M  V30 11278 H 1075.1 0.590471 1.31337 0
M  V30 11279 H 1077.06 -0.760614 4.14479 0
M  V30 11280 H 1075.78 -1.2673 3.0101 0
M  V30 11281 H 1074.44 0.787533 3.58041 0
M  V30 11282 H 1074.09 -1.33919 4.84845 0
M  V30 11283 H 1073.79 0.0852482 5.87538 0
M  V30 11284 H 1075.31 -0.830833 6.04921 0
M  V30 11285 H 1076.72 1.38784 5.56248 0
M  V30 11286 H 1075.12 2.17849 5.59162 0
M  V30 11287 H 1076.19 2.42412 4.19958 0
M  V30 11288 N 1077.53 -1.43282 0.656365 0
M  V30 11289 C 1078.47 -2.29087 -0.0720378 0
M  V30 11290 C 1079.48 -1.4268 -0.783982 0
M  V30 11291 O 1080.67 -1.66585 -0.641213 0
M  V30 11292 C 1077.77 -3.19676 -1.12519 0
M  V30 11293 C 1076.94 -4.34638 -0.490756 0
M  V30 11294 C 1076 -5.06079 -1.44121 0
M  V30 11295 O 1075.03 -5.6124 -0.948595 0
M  V30 11296 N 1076.23 -5.09872 -2.77509 0
M  V30 11297 H 1078.99 -2.92241 0.664456 0
M  V30 11298 H 1076.55 -1.54006 0.499383 0
M  V30 11299 H 1078.55 -3.64334 -1.76189 0
M  V30 11300 H 1077.12 -2.581 -1.76362 0
M  V30 11301 H 1076.34 -3.92857 0.3251 0
M  V30 11302 H 1077.62 -5.08777 -0.0480061 0
M  V30 11303 H 1077.02 -4.66433 -3.20088 0
M  V30 11304 H 1075.58 -5.58237 -3.36474 0
M  V30 11305 N 1079.01 -0.398486 -1.52479 0
M  V30 11306 C 1080.26 0.180394 -2.01293 0
M  V30 11307 C 1080.58 1.46548 -1.28641 0
M  V30 11308 O 1079.85 1.91579 -0.409173 0
M  V30 11309 H 1078.43 0.0696528 -0.743746 0
M  V30 11310 H 1081.09 -0.532285 -1.87491 0
M  V30 11311 H 1080.19 0.38409 -3.09728 0
M  V30 11312 N 1080.49 1.57075 -0.12858 0
M  V30 11313 C 1081.77 1.87075 0.571162 0
M  V30 11314 C 1082.15 1.03141 1.84188 0
M  V30 11315 O 1081.5 0.113001 2.2822 0
M  V30 11316 C 1081.71 3.3838 0.854383 0
M  V30 11317 C 1083.05 4.07194 1.20326 0
M  V30 11318 O 1084.08 3.43454 0.944338 0
M  V30 11319 O 1082.94 5.19725 1.68963 0
M  V30 11320 H 1080.03 0.774764 0.289258 0
M  V30 11321 H 1082.58 1.68908 -0.163806 0
M  V30 11322 H 1081.35 3.91273 -0.0456925 0
M  V30 11323 H 1080.97 3.62012 1.64418 0
M  V30 11324 N 1081.97 -0.145205 1.5693 0
M  V30 11325 C 1083.38 -0.705089 1.72874 0
M  V30 11326 C 1083.73 -1.81577 0.743261 0
M  V30 11327 O 1082.86 -2.16214 -0.0897153 0
M  V30 11328 C 1083.45 -1.28578 3.13454 0
M  V30 11329 C 1082.01 -1.79221 3.30994 0
M  V30 11330 C 1081.16 -0.681392 2.68798 0
M  V30 11331 H 1084.11 0.0804798 1.58496 0
M  V30 11332 H 1084.13 -2.15558 3.13552 0
M  V30 11333 H 1083.64 -0.477186 3.85155 0
M  V30 11334 H 1081.74 -2.62642 2.64292 0
M  V30 11335 H 1081.86 -1.91969 4.38959 0
M  V30 11336 H 1080.22 -1.10847 2.29314 0
M  V30 11337 H 1081 0.115786 3.43105 0
M  V30 11338 N 1083.45 -1.52049 -0.414609 0
M  V30 11339 C 1084.86 -1.40729 -0.752822 0
M  V30 11340 C 1085.06 -0.507468 -1.95005 0
M  V30 11341 O 1084.12 0.0288189 -2.52484 0
M  V30 11342 C 1085.43 -2.83163 -1.01189 0
M  V30 11343 C 1086.98 -2.92469 -1.11494 0
M  V30 11344 C 1087.46 -4.35859 -1.4068 0
M  V30 11345 N 1088.95 -4.39069 -1.47557 0
M  V30 11346 C 1089.68 -5.47072 -1.71756 0
M  V30 11347 N 1089.18 -6.65201 -1.93595 0
M  V30 11348 N 1090.97 -5.3458 -1.73726 0
M  V30 11349 H 1083.12 -2.09089 0.373549 0
M  V30 11350 H 1085.38 -0.942188 0.104814 0
M  V30 11351 H 1085.09 -3.51104 -0.204609 0
M  V30 11352 H 1084.96 -3.23874 -1.93353 0
M  V30 11353 H 1087.35 -2.24711 -1.91282 0
M  V30 11354 H 1087.43 -2.55222 -0.171794 0
M  V30 11355 H 1087.08 -5.04174 -0.614119 0
M  V30 11356 H 1087.01 -4.70637 -2.36238 0
M  V30 11357 H 1089.5 -3.53913 -1.32491 0
M  V30 11358 H 1089.81 -7.43297 -2.11495 0
M  V30 11359 H 1088.16 -6.68276 -1.90871 0
M  V30 11360 H 1091.35 -4.41271 -1.56198 0
M  V30 11361 H 1091.52 -6.18826 -1.92246 0
M  V30 11362 N 1084.93 0.6715 -1.42579 0
M  V30 11363 C 1085.89 1.76676 -1.46008 0
M  V30 11364 C 1086.89 1.57007 -0.347213 0
M  V30 11365 O 1088.08 1.63238 -0.608185 0
M  V30 11366 C 1085.21 3.15348 -1.29494 0
M  V30 11367 H 1086.4 1.75021 -2.43531 0
M  V30 11368 H 1083.96 0.881444 -1.29075 0
M  V30 11369 H 1084.69 3.22626 -0.32906 0
M  V30 11370 H 1084.48 3.31028 -2.10149 0
M  V30 11371 H 1085.97 3.95251 -1.34784 0
M  V30 11372 N 1086.4 1.28806 0.908124 0
M  V30 11373 C 1087.65 1.1646 1.66027 0
M  V30 11374 C 1087.98 -0.285025 1.92097 0
M  V30 11375 O 1087.26 -1.20675 1.52538 0
M  V30 11376 C 1087.54 1.96951 3.01467 0
M  V30 11377 C 1087.39 3.50007 2.82515 0
M  V30 11378 C 1088.71 1.78932 4.02084 0
M  V30 11379 H 1085.83 0.424435 0.602515 0
M  V30 11380 H 1088.47 1.58185 1.0525 0
M  V30 11381 H 1086.62 1.61495 3.53344 0
M  V30 11382 H 1088.3 3.95401 2.37605 0
M  V30 11383 H 1086.54 3.75356 2.17463 0
M  V30 11384 H 1087.21 4.01591 3.7872 0
M  V30 11385 H 1089.69 2.09885 3.59287 0
M  V30 11386 H 1088.56 2.37615 4.94803 0
M  V30 11387 H 1088.82 0.742286 4.35824 0
M  V30 11388 N 1087.88 -1.11734 1.11145 0
M  V30 11389 C 1089.11 -1.87755 0.881062 0
M  V30 11390 C 1089.53 -1.79461 -0.563496 0
M  V30 11391 O 1088.89 -1.15481 -1.39763 0
M  V30 11392 C 1088.94 -3.34641 1.34342 0
M  V30 11393 O 1088.04 -4.09195 0.513157 0
M  V30 11394 H 1087.38 -0.583111 0.317613 0
M  V30 11395 H 1089.91 -1.41256 1.48013 0
M  V30 11396 H 1089.92 -3.85486 1.33658 0
M  V30 11397 H 1088.6 -3.39994 2.39534 0
M  V30 11398 H 1087.17 -3.68269 0.585833 0
M  V30 11399 N 1089.36 -0.901303 -1.29284 0
M  V30 11400 C 1090.59 -0.543511 -1.99634 0
M  V30 11401 C 1091 0.872154 -1.67448 0
M  V30 11402 O 1090.36 1.57591 -0.920406 0
M  V30 11403 C 1090.41 -0.728148 -3.54091 0
M  V30 11404 O 1090.13 -2.08809 -3.85137 0
M  V30 11405 C 1091.63 -0.375519 -4.41707 0
M  V30 11406 H 1088.85 -0.208405 -0.637815 0
M  V30 11407 H 1091.4 -1.21109 -1.64781 0
M  V30 11408 H 1089.55 -0.107728 -3.8725 0
M  V30 11409 H 1089.97 -2.11863 -4.79807 0
M  V30 11410 H 1091.44 -0.555538 -5.49197 0
M  V30 11411 H 1091.92 0.687532 -4.33785 0
M  V30 11412 H 1092.52 -0.972949 -4.14021 0
M  V30 11413 N 1090.84 1.42931 -0.663954 0
M  V30 11414 C 1091.77 2.29122 0.0598878 0
M  V30 11415 C 1092.78 1.43094 0.776404 0
M  V30 11416 O 1093.97 1.66923 0.63237 0
M  V30 11417 C 1091.07 3.20268 1.10822 0
M  V30 11418 C 1090.24 4.34892 0.4677 0
M  V30 11419 C 1089.3 5.06836 1.41435 0
M  V30 11420 O 1088.33 5.61735 0.918818 0
M  V30 11421 N 1089.53 5.11336 2.74801 0
M  V30 11422 H 1092.3 2.91885 -0.679945 0
M  V30 11423 H 1089.86 1.53739 -0.507543 0
M  V30 11424 H 1091.85 3.65264 1.74255 0
M  V30 11425 H 1090.42 2.59031 1.7499 0
M  V30 11426 H 1089.64 3.92679 -0.34593 0
M  V30 11427 H 1090.93 5.08796 0.0210237 0
M  V30 11428 H 1090.33 4.68124 3.1761 0
M  V30 11429 H 1088.88 5.60013 3.33509 0
M  V30 11430 N 1092.32 0.406567 1.52266 0
M  V30 11431 C 1093.73 -0.063607 1.86592 0
M  V30 11432 C 1094.08 -1.4466 1.32544 0
M  V30 11433 O 1093.2 -2.05971 0.663692 0
M  V30 11434 C 1093.8 -0.122198 3.3858 0
M  V30 11435 C 1092.36 -0.536701 3.72554 0
M  V30 11436 C 1091.5 0.290422 2.75775 0
M  V30 11437 H 1094.45 0.623738 1.45929 0
M  V30 11438 H 1094.48 -0.937964 3.68758 0
M  V30 11439 H 1093.99 0.884495 3.77887 0
M  V30 11440 H 1092.09 -1.55013 3.38824 0
M  V30 11441 H 1092.2 -0.282867 4.78264 0
M  V30 11442 H 1090.57 -0.246864 2.53501 0
M  V30 11443 H 1091.35 1.29541 3.17921 0
M  V30 11444 N 1093.79 -1.57004 0.136909 0
M  V30 11445 C 1094.73 -2.13355 -0.837405 0
M  V30 11446 C 1095.74 -1.08053 -1.21772 0
M  V30 11447 O 1096.93 -1.35365 -1.16355 0
M  V30 11448 C 1094.03 -2.63302 -2.13366 0
M  V30 11449 C 1093.2 -3.92896 -1.92228 0
M  V30 11450 C 1092.26 -4.28257 -3.05749 0
M  V30 11451 O 1091.29 -4.96761 -2.7788 0
M  V30 11452 N 1092.49 -3.87021 -4.3266 0
M  V30 11453 H 1095.25 -2.9758 -0.35586 0
M  V30 11454 H 1092.81 -1.61832 -0.0469758 0
M  V30 11455 H 1094.81 -2.83977 -2.88339 0
M  V30 11456 H 1093.38 -1.83858 -2.52814 0
M  V30 11457 H 1092.6 -3.80949 -1.01349 0
M  V30 11458 H 1093.88 -4.776 -1.75431 0
M  V30 11459 H 1093.28 -3.31804 -4.58173 0
M  V30 11460 H 1091.84 -4.12768 -5.04446 0
M  V30 11461 N 1095.27 0.136881 -1.57004 0
M  V30 11462 C 1096.5 0.866405 -1.88436 0
M  V30 11463 C 1096.92 1.73483 -0.727006 0
M  V30 11464 O 1096.28 1.78398 0.323094 0
M  V30 11465 C 1096.33 1.69059 -3.18514 0
M  V30 11466 O 1095.43 2.79584 -3.03161 0
M  V30 11467 H 1094.77 0.240709 -0.618834 0
M  V30 11468 H 1097.3 0.124653 -2.0422 0
M  V30 11469 H 1097.31 2.08353 -3.50789 0
M  V30 11470 H 1095.99 1.05296 -4.0235 0
M  V30 11471 H 1094.57 2.43623 -2.82315 0
M  V30 11472 N 1096.75 1.52266 0.40654 0
M  V30 11473 C 1097.68 1.72025 1.51459 0
M  V30 11474 C 1098.7 0.600667 1.51314 0
M  V30 11475 O 1099.88 0.875894 1.55532 0
M  V30 11476 C 1096.98 1.7479 2.90348 0
M  V30 11477 C 1096.16 3.03826 3.14656 0
M  V30 11478 C 1095.22 2.98369 4.33431 0
M  V30 11479 O 1094.24 3.7227 4.30586 0
M  V30 11480 N 1095.44 2.16338 5.38682 0
M  V30 11481 H 1098.21 2.67622 1.34903 0
M  V30 11482 H 1095.77 1.50536 0.595867 0
M  V30 11483 H 1097.76 1.68667 3.67877 0
M  V30 11484 H 1096.33 0.86656 3.00349 0
M  V30 11485 H 1095.55 3.23577 2.25148 0
M  V30 11486 H 1096.84 3.89182 3.27742 0
M  V30 11487 H 1096.24 1.55731 5.43842 0
M  V30 11488 H 1094.8 2.1607 6.14945 0
M  V30 11489 N 1098.23 -0.663929 1.42933 0
M  V30 11490 C 1099.45 -1.45691 1.47611 0
M  V30 11491 C 1099.88 -1.87875 0.0920305 0
M  V30 11492 O 1099.24 -1.56696 -0.91192 0
M  V30 11493 C 1099.28 -2.67517 2.41799 0
M  V30 11494 O 1098.39 -3.66187 1.89686 0
M  V30 11495 H 1097.73 -0.437257 0.499702 0
M  V30 11496 H 1100.26 -0.813397 1.87737 0
M  V30 11497 H 1100.27 -3.1546 2.58745 0
M  V30 11498 H 1098.94 -2.36155 3.4235 0
M  V30 11499 H 1097.52 -3.25274 1.82349 0
M  V30 11500 N 1099.71 -1.29285 -0.901281 0
M  V30 11501 C 1100.95 -1.16934 -1.64836 0
M  V30 11502 C 1101.28 0.279826 -1.92982 0
M  V30 11503 O 1100.55 1.19179 -1.55478 0
M  V30 11504 H 1099.13 -0.429768 -0.61099 0
M  V30 11505 H 1101.79 -1.62189 -1.08077 0
M  V30 11506 H 1100.88 -1.71821 -2.60545 0
M  V30 11507 N 1101.18 1.11143 -1.11736 0
M  V30 11508 C 1102.41 1.86745 -0.890727 0
M  V30 11509 C 1102.83 1.80315 0.55964 0
M  V30 11510 O 1102.18 1.18663 1.38656 0
M  V30 11511 C 1102.24 3.35436 -1.34779 0
M  V30 11512 O 1101.96 3.41738 -2.74129 0
M  V30 11513 C 1103.46 4.27935 -1.15702 0
M  V30 11514 H 1100.68 0.59044 -0.318781 0
M  V30 11515 H 1103.22 1.40549 -1.48547 0
M  V30 11516 H 1101.38 3.79125 -0.796425 0
M  V30 11517 H 1101.79 4.34347 -2.94012 0
M  V30 11518 H 1103.26 5.30494 -1.52579 0
M  V30 11519 H 1103.74 4.39093 -0.0968735 0
M  V30 11520 H 1104.35 3.90042 -1.69551 0
M  V30 11521 N 1102.66 0.908147 1.28804 0
M  V30 11522 C 1103.89 0.553431 1.9988 0
M  V30 11523 C 1104.31 -0.856714 1.67458 0
M  V30 11524 O 1103.67 -1.57163 0.903849 0
M  V30 11525 C 1103.72 0.762688 3.52442 0
M  V30 11526 O 1102.82 -0.180924 4.12003 0
M  V30 11527 H 1102.16 0.215237 0.628147 0
M  V30 11528 H 1104.69 1.22205 1.64095 0
M  V30 11529 H 1104.7 0.670612 4.02451 0
M  V30 11530 H 1103.38 1.79071 3.75375 0
M  V30 11531 H 1101.96 -0.0405897 3.72878 0
M  V30 11532 N 1104.14 -1.42577 0.671525 0
M  V30 11533 C 1105.42 -1.95222 0.121529 0
M  V30 11534 C 1105.8 -1.61209 -1.36289 0
M  V30 11535 O 1105.15 -0.906561 -2.09747 0
M  V30 11536 C 1105.36 -3.46846 0.387189 0
M  V30 11537 C 1106.7 -4.23525 0.301938 0
M  V30 11538 O 1107.73 -3.54753 0.320755 0
M  V30 11539 O 1106.59 -5.45967 0.241317 0
M  V30 11540 H 1103.68 -0.826999 0.000968615 0
M  V30 11541 H 1106.23 -1.52422 0.746029 0
M  V30 11542 H 1105 -3.64795 1.41563 0
M  V30 11543 H 1104.62 -3.96686 -0.26948 0
M  V30 11544 N 1105.62 -0.414636 -1.52048 0
M  V30 11545 C 1106.55 0.443601 -2.24866 0
M  V30 11546 C 1107.56 1.00556 -1.28032 0
M  V30 11547 O 1108.75 0.903566 -1.53941 0
M  V30 11548 C 1105.85 1.63004 -2.97124 0
M  V30 11549 C 1105.03 1.191 -4.20873 0
M  V30 11550 C 1104.08 2.24497 -4.75907 0
M  V30 11551 O 1103.11 1.84861 -5.38345 0
M  V30 11552 N 1104.31 3.56727 -4.57959 0
M  V30 11553 H 1107.08 -0.180393 -2.99157 0
M  V30 11554 H 1104.64 -0.242305 -1.60077 0
M  V30 11555 H 1106.63 2.33089 -3.30835 0
M  V30 11556 H 1105.2 2.15984 -2.25986 0
M  V30 11557 H 1104.42 0.318059 -3.92915 0
M  V30 11558 H 1105.71 0.874699 -5.01225 0
M  V30 11559 H 1105.11 3.91675 -4.08175 0
M  V30 11560 H 1103.66 4.22772 -4.96092 0
M  V30 11561 N 1107.1 1.56929 -0.145233 0
M  V30 11562 C 1108.34 1.96358 0.50707 0
M  V30 11563 C 1108.68 1.03005 1.64632 0
M  V30 11564 O 1107.95 0.0721045 1.94366 0
M  V30 11565 C 1108.23 3.45502 1.01492 0
M  V30 11566 C 1108.09 4.49633 -0.122708 0
M  V30 11567 C 1109.41 3.97103 1.89729 0
M  V30 11568 H 1106.52 0.713958 0.182848 0
M  V30 11569 H 1109.17 1.8865 -0.226102 0
M  V30 11570 H 1107.32 3.52202 1.6397 0
M  V30 11571 H 1108.99 4.55013 -0.758988 0
M  V30 11572 H 1107.23 4.26691 -0.782109 0
M  V30 11573 H 1107.9 5.51318 0.27432 0
M  V30 11574 H 1110.38 3.92871 1.37082 0
M  V30 11575 H 1109.25 5.01927 2.22173 0
M  V30 11576 H 1109.52 3.39354 2.83357 0
M  V30 11577 N 1108.58 -0.128553 1.57075 0
M  V30 11578 C 1109.51 -1.15953 2.02675 0
M  V30 11579 C 1110.49 -1.43743 0.909501 0
M  V30 11580 O 1111.67 -1.54348 1.17857 0
M  V30 11581 C 1108.8 -2.48813 2.423 0
M  V30 11582 C 1107.76 -2.35506 3.57381 0
M  V30 11583 C 1107.08 -3.73243 3.82875 0
M  V30 11584 C 1108.38 -1.82359 4.89431 0
M  V30 11585 H 1110.08 -0.780283 2.89054 0
M  V30 11586 H 1107.62 -0.373896 1.39061 0
M  V30 11587 H 1109.57 -3.21179 2.72804 0
M  V30 11588 H 1108.3 -2.88609 1.52881 0
M  V30 11589 H 1106.96 -1.6559 3.27071 0
M  V30 11590 H 1106.61 -4.10507 2.90677 0
M  V30 11591 H 1106.31 -3.65195 4.60333 0
M  V30 11592 H 1107.83 -4.47128 4.15823 0
M  V30 11593 H 1109.24 -2.44533 5.18533 0
M  V30 11594 H 1107.64 -1.85156 5.70822 0
M  V30 11595 H 1108.71 -0.780478 4.78578 0
M  V30 11596 N 1110.05 -1.5248 -0.398459 0
M  V30 11597 C 1111.28 -1.70677 -1.16417 0
M  V30 11598 C 1111.69 -0.420629 -1.84465 0
M  V30 11599 O 1111.03 0.614013 -1.73135 0
M  V30 11600 C 1111.1 -2.79401 -2.2622 0
M  V30 11601 C 1110.76 -4.20817 -1.78218 0
M  V30 11602 C 1111.76 -5.04298 -1.26409 0
M  V30 11603 C 1109.44 -4.67098 -1.84728 0
M  V30 11604 C 1111.44 -6.32136 -0.817461 0
M  V30 11605 C 1109.12 -5.94923 -1.39676 0
M  V30 11606 C 1110.12 -6.77272 -0.882716 0
M  V30 11607 O 1109.81 -8.02702 -0.438739 0
M  V30 11608 H 1109.54 -0.57503 -0.355411 0
M  V30 11609 H 1112.1 -1.99868 -0.473471 0
M  V30 11610 H 1110.33 -2.4561 -2.98685 0
M  V30 11611 H 1112.01 -2.86093 -2.87933 0
M  V30 11612 H 1112.78 -4.6973 -1.20744 0
M  V30 11613 H 1108.66 -4.03097 -2.23682 0
M  V30 11614 H 1112.2 -6.96361 -0.415548 0
M  V30 11615 H 1108.1 -6.28998 -1.45024 0
M  V30 11616 H 1108.87 -8.16575 -0.561079 0
M  V30 11617 N 1111.53 0.65634 -1.43283 0
M  V30 11618 C 1112.78 1.41347 -1.44449 0
M  V30 11619 C 1113.1 1.94879 -0.0687217 0
M  V30 11620 O 1112.37 1.74235 0.895492 0
M  V30 11621 H 1110.95 0.524578 -0.531815 0
M  V30 11622 H 1113.61 0.774292 -1.7886 0
M  V30 11623 H 1112.71 2.25737 -2.15521 0
M  V30 11624 N 1113.01 1.29761 0.894412 0
M  V30 11625 C 1113.94 1.1115 2.00445 0
M  V30 11626 C 1114.95 0.0574655 1.62699 0
M  V30 11627 O 1116.14 0.302528 1.75918 0
M  V30 11628 C 1113.24 0.670984 3.32191 0
M  V30 11629 C 1112.42 1.80471 3.98433 0
M  V30 11630 C 1111.48 1.35431 5.08473 0
M  V30 11631 O 1110.5 2.05994 5.30618 0
M  V30 11632 N 1111.7 0.22811 5.80052 0
M  V30 11633 H 1114.47 2.06753 2.16964 0
M  V30 11634 H 1112.03 1.21772 1.06692 0
M  V30 11635 H 1114.02 0.352877 4.03159 0
M  V30 11636 H 1112.59 -0.192735 3.12005 0
M  V30 11637 H 1111.81 2.29142 3.20761 0
M  V30 11638 H 1113.1 2.56471 4.39431 0
M  V30 11639 H 1112.5 -0.360076 5.64553 0
M  V30 11640 H 1111.05 -0.0305985 6.51793 0
M  V30 11641 N 1114.49 -1.10549 1.12324 0
M  V30 11642 C 1115.42 -2.18911 0.812416 0
M  V30 11643 C 1116.4 -1.68628 -0.22327 0
M  V30 11644 O 1117.58 -1.94015 -0.0847184 0
M  V30 11645 C 1114.71 -3.46288 0.264947 0
M  V30 11646 C 1113.67 -4.09838 1.23356 0
M  V30 11647 C 1112.99 -5.31901 0.546374 0
M  V30 11648 C 1114.29 -4.53686 2.58778 0
M  V30 11649 H 1115.99 -2.45169 1.71851 0
M  V30 11650 H 1113.53 -1.17834 0.827715 0
M  V30 11651 H 1115.49 -4.21385 0.0352364 0
M  V30 11652 H 1114.21 -3.19517 -0.676479 0
M  V30 11653 H 1112.87 -3.36746 1.44906 0
M  V30 11654 H 1112.52 -5.01406 -0.400157 0
M  V30 11655 H 1112.22 -5.75372 1.19249 0
M  V30 11656 H 1113.74 -6.09731 0.325673 0
M  V30 11657 H 1115.16 -5.20063 2.41263 0
M  V30 11658 H 1113.55 -5.08003 3.19457 0
M  V30 11659 H 1114.62 -3.66665 3.17309 0
M  V30 11660 N 1115.97 -0.914965 -1.28321 0
M  V30 11661 C 1116.9 -0.421292 -2.29668 0
M  V30 11662 C 1117.88 0.511743 -1.6222 0
M  V30 11663 O 1119.06 0.419218 -1.89621 0
M  V30 11664 C 1116.19 0.338364 -3.45648 0
M  V30 11665 C 1115.15 -0.505646 -4.25003 0
M  V30 11666 C 1114.47 0.382421 -5.33331 0
M  V30 11667 C 1115.77 -1.76354 -4.91626 0
M  V30 11668 H 1117.47 -1.26826 -2.71211 0
M  V30 11669 H 1115.01 -0.611291 -1.30381 0
M  V30 11670 H 1116.96 0.694578 -4.15636 0
M  V30 11671 H 1115.69 1.21925 -3.02988 0
M  V30 11672 H 1114.35 -0.844395 -3.56743 0
M  V30 11673 H 1114 1.26189 -4.86914 0
M  V30 11674 H 1113.7 -0.17871 -5.87328 0
M  V30 11675 H 1115.22 0.73449 -6.06166 0
M  V30 11676 H 1116.63 -1.47616 -5.5397 0
M  V30 11677 H 1115.03 -2.26717 -5.55625 0
M  V30 11678 H 1116.1 -2.49063 -4.16048 0
M  V30 11679 N 1117.44 1.42219 -0.679077 0
M  V30 11680 C 1118.69 2.01081 -0.202718 0
M  V30 11681 C 1119.01 1.53986 1.19639 0
M  V30 11682 O 1118.28 0.763359 1.80415 0
M  V30 11683 H 1116.86 0.743526 -0.0719547 0
M  V30 11684 H 1119.52 1.74077 -0.876544 0
M  V30 11685 H 1118.62 3.11411 -0.207314 0
M  V30 11686 N 1118.92 0.422693 1.51826 0
M  V30 11687 C 1120.15 -0.15017 2.06856 0
M  V30 11688 C 1120.57 -1.36946 1.28948 0
M  V30 11689 O 1119.93 -1.78393 0.32338 0
M  V30 11690 C 1119.98 -0.465563 3.57582 0
M  V30 11691 O 1119.08 -1.55442 3.81984 0
M  V30 11692 H 1118.42 -0.00827931 0.663948 0
M  V30 11693 H 1120.95 0.599806 1.95611 0
M  V30 11694 H 1120.96 -0.720279 4.01592 0
M  V30 11695 H 1119.64 0.425679 4.13716 0
M  V30 11696 H 1118.21 -1.29081 3.49846 0
M  V30 11697 N 1120.4 -1.5685 0.153553 0
M  V30 11698 C 1121.81 -1.83074 -0.36618 0
M  V30 11699 C 1122.16 -1.07257 -1.64288 0
M  V30 11700 O 1121.29 -0.319925 -2.14022 0
M  V30 11701 C 1121.88 -3.32086 -0.671142 0
M  V30 11702 C 1120.44 -3.58868 -1.13537 0
M  V30 11703 C 1119.59 -2.76827 -0.161887 0
M  V30 11704 H 1122.54 -1.54129 0.378139 0
M  V30 11705 H 1122.56 -3.48598 -1.52512 0
M  V30 11706 H 1122.07 -3.8724 0.258234 0
M  V30 11707 H 1120.17 -3.09107 -2.08047 0
M  V30 11708 H 1120.29 -4.67299 -1.05682 0
M  V30 11709 H 1118.65 -2.46112 -0.6558 0
M  V30 11710 H 1119.43 -3.34755 0.761195 0
M  V30 11711 N 1121.88 0.120221 -1.57141 0
M  V30 11712 C 1123.11 0.842441 -1.88972 0
M  V30 11713 C 1123.52 1.73494 -0.744671 0
M  V30 11714 O 1122.88 1.80268 0.284557 0
M  V30 11715 C 1122.93 1.67688 -3.20254 0
M  V30 11716 O 1122.65 0.820319 -4.30351 0
M  V30 11717 C 1124.15 2.50436 -3.65782 0
M  V30 11718 H 1121.37 0.242241 -0.625748 0
M  V30 11719 H 1123.91 0.104978 -2.0423 0
M  V30 11720 H 1122.07 2.36712 -3.0667 0
M  V30 11721 H 1122.48 1.39575 -5.05588 0
M  V30 11722 H 1123.96 3.04518 -4.60405 0
M  V30 11723 H 1124.43 3.27737 -2.92378 0
M  V30 11724 H 1125.04 1.86657 -3.82151 0
M  V30 11725 N 1123.36 1.52689 0.390367 0
M  V30 11726 C 1124.58 1.71839 1.16129 0
M  V30 11727 C 1125.01 0.435226 1.82996 0
M  V30 11728 O 1124.36 -0.60889 1.70769 0
M  V30 11729 C 1124.41 2.86784 2.18603 0
M  V30 11730 O 1123.52 2.53662 3.25161 0
M  V30 11731 H 1122.86 0.571455 0.338135 0
M  V30 11732 H 1125.39 1.99475 0.45508 0
M  V30 11733 H 1125.4 3.12239 2.62622 0
M  V30 11734 H 1124.07 3.79872 1.69322 0
M  V30 11735 H 1122.65 2.38942 2.86289 0
M  V30 11736 N 1124.83 -0.648732 1.43629 0
M  V30 11737 C 1126.25 -1.23001 1.40455 0
M  V30 11738 C 1126.6 -1.95886 0.110897 0
M  V30 11739 O 1125.72 -2.01485 -0.789487 0
M  V30 11740 C 1126.32 -2.23716 2.54434 0
M  V30 11741 C 1124.88 -2.77311 2.54511 0
M  V30 11742 C 1124.02 -1.52024 2.31914 0
M  V30 11743 H 1126.97 -0.440473 1.52465 0
M  V30 11744 H 1126.99 -3.05979 2.26179 0
M  V30 11745 H 1126.51 -1.7064 3.48574 0
M  V30 11746 H 1124.61 -3.34437 1.64263 0
M  V30 11747 H 1124.72 -3.2455 3.52426 0
M  V30 11748 H 1123.08 -1.79531 1.80667 0
M  V30 11749 H 1123.87 -1.00876 3.28145 0
M  V30 11750 N 1126.31 -1.30234 -0.887518 0
M  V30 11751 C 1127.56 -1.18675 -1.63587 0
M  V30 11752 C 1127.88 0.259342 -1.93268 0
M  V30 11753 O 1127.15 1.17523 -1.56733 0
M  V30 11754 H 1125.73 -0.436224 -0.606397 0
M  V30 11755 H 1128.39 -1.63326 -1.06351 0
M  V30 11756 H 1127.49 -1.74575 -2.58708 0
M  V30 11757 N 1127.79 1.09952 -1.12909 0
M  V30 11758 C 1129.2 1.63516 -0.901087 0
M  V30 11759 C 1129.55 1.87932 0.563547 0
M  V30 11760 O 1128.68 1.625 1.42908 0
M  V30 11761 C 1129.27 2.97054 -1.62924 0
M  V30 11762 C 1127.83 3.47464 -1.44725 0
M  V30 11763 C 1126.98 2.21979 -1.66194 0
M  V30 11764 H 1129.93 0.933858 -1.28315 0
M  V30 11765 H 1129.95 3.64757 -1.08318 0
M  V30 11766 H 1129.46 2.79251 -2.69519 0
M  V30 11767 H 1127.56 3.70402 -0.40409 0
M  V30 11768 H 1127.68 4.25254 -2.20671 0
M  V30 11769 H 1126.04 2.30368 -1.0864 0
M  V30 11770 H 1126.82 2.06702 -2.74097 0
M  V30 11771 N 1129.27 0.921757 1.27833 0
M  V30 11772 C 1130.52 0.557974 1.94245 0
M  V30 11773 C 1130.84 -0.90268 1.72849 0
M  V30 11774 O 1130.11 -1.63915 1.07279 0
M  V30 11775 H 1128.69 0.203364 0.718785 0
M  V30 11776 H 1131.35 1.17286 1.5566 0
M  V30 11777 H 1130.45 0.759202 3.02725 0
M  V30 11778 N 1130.75 -1.41857 0.686609 0
M  V30 11779 C 1131.7 -2.27999 -0.00734666 0
M  V30 11780 C 1132.68 -1.41723 -0.761808 0
M  V30 11781 O 1133.87 -1.65072 -0.638776 0
M  V30 11782 C 1131 -3.29909 -0.949462 0
M  V30 11783 C 1130.09 -4.23666 -0.191722 0
M  V30 11784 N 1130.48 -4.99277 0.809715 0
M  V30 11785 C 1128.78 -4.43937 -0.428489 0
M  V30 11786 C 1129.48 -5.67834 1.2625 0
M  V30 11787 N 1128.45 -5.40387 0.590151 0
M  V30 11788 H 1132.26 -2.83887 0.760608 0
M  V30 11789 H 1129.77 -1.53962 0.516676 0
M  V30 11790 H 1131.77 -3.90436 -1.46169 0
M  V30 11791 H 1130.43 -2.75582 -1.71711 0
M  V30 11792 H 1131.44 -5.04051 1.18966 0
M  V30 11793 H 1128.11 -4.00633 -1.17472 0
M  V30 11794 H 1129.5 -6.38469 2.09301 0
M  V30 11795 N 1132.22 -0.430739 -1.51599 0
M  V30 11796 C 1133.45 0.136599 -2.06148 0
M  V30 11797 C 1133.86 1.37577 -1.29881 0
M  V30 11798 O 1133.21 1.80337 -0.349875 0
M  V30 11799 C 1133.27 0.53071 -3.55561 0
M  V30 11800 C 1132.93 -0.600738 -4.53034 0
M  V30 11801 C 1133.93 -1.47089 -4.98659 0
M  V30 11802 C 1131.61 -0.77959 -4.96213 0
M  V30 11803 C 1133.61 -2.50464 -5.86128 0
M  V30 11804 C 1131.29 -1.81663 -5.83474 0
M  V30 11805 C 1132.29 -2.67755 -6.28328 0
M  V30 11806 O 1131.98 -3.69679 -7.13858 0
M  V30 11807 H 1131.71 0.0143071 -0.675849 0
M  V30 11808 H 1134.27 -0.606673 -1.96236 0
M  V30 11809 H 1132.5 1.32659 -3.63233 0
M  V30 11810 H 1134.19 1.02844 -3.92655 0
M  V30 11811 H 1134.95 -1.34421 -4.66 0
M  V30 11812 H 1130.83 -0.119082 -4.60846 0
M  V30 11813 H 1134.37 -3.17695 -6.2106 0
M  V30 11814 H 1130.27 -1.94353 -6.15546 0
M  V30 11815 H 1131.04 -3.66181 -7.3202 0
M  V30 11816 N 1133.7 1.56767 -0.161869 0
M  V30 11817 C 1134.63 2.20511 0.767918 0
M  V30 11818 C 1135.61 1.15783 1.24612 0
M  V30 11819 O 1136.8 1.44179 1.301 0
M  V30 11820 C 1133.93 2.83844 2.00125 0
M  V30 11821 C 1132.88 3.94528 1.65926 0
M  V30 11822 C 1132.21 4.44866 2.96646 0
M  V30 11823 C 1133.51 5.14583 0.894497 0
M  V30 11824 H 1135.2 2.98464 0.236607 0
M  V30 11825 H 1132.75 1.43561 0.112363 0
M  V30 11826 H 1134.7 3.27109 2.65664 0
M  V30 11827 H 1133.43 2.03246 2.55654 0
M  V30 11828 H 1132.08 3.51904 1.02759 0
M  V30 11829 H 1131.73 3.61071 3.50196 0
M  V30 11830 H 1131.43 5.19531 2.74521 0
M  V30 11831 H 1132.96 4.90812 3.6323 0
M  V30 11832 H 1134.37 5.54601 1.45228 0
M  V30 11833 H 1132.77 5.95105 0.772636 0
M  V30 11834 H 1133.84 4.84773 -0.110986 0
M  V30 11835 N 1135.18 -0.111886 1.57202 0
M  V30 11836 C 1136.6 -0.465629 1.52657 0
M  V30 11837 C 1136.8 -1.81463 0.875989 0
M  V30 11838 O 1135.85 -2.4825 0.461345 0
M  V30 11839 C 1137.17 -0.443571 2.9741 0
M  V30 11840 C 1138.71 -0.52662 3.08538 0
M  V30 11841 C 1139.19 -0.53488 4.54866 0
M  V30 11842 N 1140.68 -0.596117 4.59348 0
M  V30 11843 C 1141.41 -0.624073 5.69994 0
M  V30 11844 N 1140.91 -0.609245 6.90116 0
M  V30 11845 N 1142.7 -0.667619 5.58121 0
M  V30 11846 H 1134.85 0.771925 1.97876 0
M  V30 11847 H 1137.12 0.285534 0.903977 0
M  V30 11848 H 1136.82 0.480138 3.48407 0
M  V30 11849 H 1136.7 -1.26876 3.55221 0
M  V30 11850 H 1139.08 -1.44075 2.57539 0
M  V30 11851 H 1139.17 0.326396 2.53709 0
M  V30 11852 H 1138.81 0.375233 5.06512 0
M  V30 11853 H 1138.74 -1.40488 5.07514 0
M  V30 11854 H 1141.23 -0.613452 3.72888 0
M  V30 11855 H 1141.54 -0.633396 7.702 0
M  V30 11856 H 1139.89 -0.576557 6.92604 0
M  V30 11857 H 1143.08 -0.676616 4.63184 0
M  V30 11858 H 1143.25 -0.685938 6.44359 0
M  V30 11859 N 1136.66 -1.52894 -0.382264 0
M  V30 11860 C 1137.9 -1.69958 -1.1355 0
M  V30 11861 C 1138.26 -0.433602 -1.8704 0
M  V30 11862 O 1139.46 -0.480701 -2.64467 0
M  V30 11863 C 1137.73 -2.90465 -2.08242 0
M  V30 11864 S 1139.29 -3.28151 -2.91311 0
M  V30 11865 H 1136.11 -0.598209 -0.384275 0
M  V30 11866 H 1138.71 -1.90957 -0.418998 0
M  V30 11867 H 1137.42 -3.80819 -1.52987 0
M  V30 11868 H 1136.95 -2.71819 -2.84391 0
M  V30 11869 H 1138.96 -2.78863 -4.10426 0
M  V30 11870 N 1138.14 0.641106 -1.43971 0
M  V30 11871 C 1139.41 1.39897 -1.36704 0
M  V30 11872 C 1139.79 2.1109 -0.0208051 0
M  V30 11873 O 1139.14 2.05638 0.99625 0
M  V30 11874 C 1139.35 2.37366 -2.55849 0
M  V30 11875 C 1140.7 3.01 -2.99473 0
M  V30 11876 O 1141.72 2.47692 -2.55982 0
M  V30 11877 O 1140.58 3.9768 -3.74851 0
M  V30 11878 H 1137.68 0.625623 -0.540855 0
M  V30 11879 H 1140.22 0.666997 -1.56042 0
M  V30 11880 H 1139 1.8379 -3.45452 0
M  V30 11881 H 1138.62 3.17995 -2.38673 0
M  V30 11882 N 1139.62 1.30703 0.880598 0
M  V30 11883 C 1140.84 1.22843 1.67106 0
M  V30 11884 C 1141.27 -0.204788 1.86982 0
M  V30 11885 O 1140.62 -1.14716 1.40392 0
M  V30 11886 C 1140.67 1.96685 3.02237 0
M  V30 11887 O 1139.78 1.29693 3.91476 0
M  V30 11888 H 1139.12 0.424661 0.51045 0
M  V30 11889 H 1141.65 1.72596 1.09871 0
M  V30 11890 H 1141.66 2.05874 3.52249 0
M  V30 11891 H 1140.33 3.00919 2.8709 0
M  V30 11892 H 1138.91 1.28886 3.49918 0
M  V30 11893 N 1141.09 -1.09351 1.1349 0
M  V30 11894 C 1142.32 -1.85304 0.920324 0
M  V30 11895 C 1142.74 -1.81182 -0.530883 0
M  V30 11896 O 1142.09 -1.20853 -1.36751 0
M  V30 11897 C 1142.14 -3.33249 1.40098 0
M  V30 11898 O 1141.87 -3.37333 2.79531 0
M  V30 11899 C 1143.37 -4.2604 1.22495 0
M  V30 11900 H 1140.59 -0.585294 0.328134 0
M  V30 11901 H 1143.13 -1.38168 1.50765 0
M  V30 11902 H 1141.29 -3.7781 0.85664 0
M  V30 11903 H 1141.7 -4.29614 3.00885 0
M  V30 11904 H 1143.17 -5.27999 1.61 0
M  V30 11905 H 1143.65 -4.38883 0.166717 0
M  V30 11906 H 1144.26 -3.87295 1.75735 0
M  V30 11907 N 1142.57 -0.928524 -1.27343 0
M  V30 11908 C 1143.5 -0.385563 -2.25934 0
M  V30 11909 C 1144.52 0.484178 -1.55433 0
M  V30 11910 O 1145.71 0.296668 -1.76017 0
M  V30 11911 C 1142.81 0.466116 -3.35679 0
M  V30 11912 C 1141.98 -0.384523 -4.35707 0
M  V30 11913 C 1141.04 0.404644 -5.24642 0
M  V30 11914 O 1140.06 -0.187943 -5.6889 0
M  V30 11915 N 1141.27 1.70426 -5.54919 0
M  V30 11916 H 1144.03 -1.23306 -2.73159 0
M  V30 11917 H 1141.59 -0.796039 -1.40978 0
M  V30 11918 H 1143.58 1.00115 -3.92121 0
M  V30 11919 H 1142.15 1.21437 -2.88048 0
M  V30 11920 H 1141.37 -1.10085 -3.78517 0
M  V30 11921 H 1142.66 -0.966033 -4.99545 0
M  V30 11922 H 1142.06 2.20802 -5.20829 0
M  V30 11923 H 1140.62 2.1858 -6.14057 0
M  V30 11924 N 1144.05 1.41491 -0.694123 0
M  V30 11925 C 1145.46 1.84283 -0.299439 0
M  V30 11926 C 1145.81 1.58081 1.16211 0
M  V30 11927 O 1144.94 1.05051 1.89191 0
M  V30 11928 C 1145.53 3.34522 -0.536696 0
M  V30 11929 C 1144.09 3.7589 -0.195944 0
M  V30 11930 C 1143.24 2.64908 -0.819692 0
M  V30 11931 H 1146.19 1.31063 -0.894884 0
M  V30 11932 H 1146.21 3.79947 0.205062 0
M  V30 11933 H 1145.72 3.53561 -1.6005 0
M  V30 11934 H 1143.82 3.62452 0.863655 0
M  V30 11935 H 1143.94 4.74671 -0.649954 0
M  V30 11936 H 1142.3 2.53476 -0.249412 0
M  V30 11937 H 1143.08 2.86765 -1.88734 0
M  V30 11938 N 1145.53 0.438773 1.51369 0
M  V30 11939 C 1146.46 -0.362467 2.3067 0
M  V30 11940 C 1147.44 -1.01973 1.36145 0
M  V30 11941 O 1148.62 -1.0231 1.65065 0
M  V30 11942 C 1145.75 -1.46313 3.14976 0
M  V30 11943 C 1144.71 -0.929272 4.1779 0
M  V30 11944 C 1144.03 -2.12579 4.90627 0
M  V30 11945 C 1145.33 0.0372782 5.22287 0
M  V30 11946 H 1147.03 0.29931 2.979 0
M  V30 11947 H 1144.57 0.14539 1.43264 0
M  V30 11948 H 1146.53 -2.03088 3.69233 0
M  V30 11949 H 1145.25 -2.15321 2.45569 0
M  V30 11950 H 1143.91 -0.383722 3.64586 0
M  V30 11951 H 1143.56 -2.8021 4.17722 0
M  V30 11952 H 1143.26 -1.77496 5.60151 0
M  V30 11953 H 1144.78 -2.69905 5.47708 0
M  V30 11954 H 1146.2 -0.44022 5.71607 0
M  V30 11955 H 1144.59 0.300748 5.99346 0
M  V30 11956 H 1145.66 0.973503 4.75027 0
M  V30 11957 N 1147.01 -1.56678 0.170181 0
M  V30 11958 C 1147.94 -2.20916 -0.756213 0
M  V30 11959 C 1148.92 -1.16442 -1.23997 0
M  V30 11960 O 1150.1 -1.44867 -1.29333 0
M  V30 11961 C 1147.23 -2.84901 -1.98617 0
M  V30 11962 C 1146.19 -3.95403 -1.63831 0
M  V30 11963 C 1145.51 -4.46432 -2.94282 0
M  V30 11964 C 1146.81 -5.15051 -0.867195 0
M  V30 11965 H 1148.51 -2.98585 -0.220776 0
M  V30 11966 H 1146.05 -1.43619 -0.104748 0
M  V30 11967 H 1148 -3.28514 -2.63926 0
M  V30 11968 H 1146.73 -2.04598 -2.54572 0
M  V30 11969 H 1145.39 -3.52444 -1.00891 0
M  V30 11970 H 1145.04 -3.62923 -3.48276 0
M  V30 11971 H 1144.74 -5.20979 -2.71762 0
M  V30 11972 H 1146.26 -4.92731 -3.60622 0
M  V30 11973 H 1147.67 -5.55363 -1.42285 0
M  V30 11974 H 1146.07 -5.95507 -0.741065 0
M  V30 11975 H 1147.14 -4.84707 0.136693 0
M  V30 11976 N 1148.48 0.103547 -1.57259 0
M  V30 11977 C 1149.45 1.11039 -2.00507 0
M  V30 11978 C 1150.45 1.33432 -0.897361 0
M  V30 11979 O 1151.64 1.29688 -1.16304 0
M  V30 11980 C 1148.77 2.46144 -2.35851 0
M  V30 11981 H 1149.96 0.738332 -2.90669 0
M  V30 11982 H 1147.51 0.348334 -1.52369 0
M  V30 11983 H 1148.25 2.88242 -1.48617 0
M  V30 11984 H 1148.03 2.31241 -3.16654 0
M  V30 11985 H 1149.52 3.18577 -2.69997 0
M  V30 11986 N 1149.96 1.53094 0.37415 0
M  V30 11987 C 1151.21 1.68527 1.11548 0
M  V30 11988 C 1151.53 0.435253 1.9008 0
M  V30 11989 O 1150.8 -0.550594 1.88003 0
M  V30 11990 H 1149.38 0.621255 0.41479 0
M  V30 11991 H 1152.04 1.90258 0.422844 0
M  V30 11992 H 1151.14 2.54248 1.81009 0
M  V30 11993 N 1151.44 -0.633461 1.44309 0
M  V30 11994 C 1152.37 -1.75676 1.53819 0
M  V30 11995 C 1153.35 -1.65537 0.391365 0
M  V30 11996 O 1154.54 -1.84332 0.611181 0
M  V30 11997 C 1151.67 -3.14197 1.47979 0
M  V30 11998 C 1150.62 -3.39122 2.61113 0
M  V30 11999 C 1149.95 -4.77648 2.40325 0
M  V30 12000 C 1151.25 -3.31914 4.03274 0
M  V30 12001 H 1152.94 -1.67974 2.47841 0
M  V30 12002 H 1150.49 -0.8067 1.19283 0
M  V30 12003 H 1152.44 -3.92553 1.53233 0
M  V30 12004 H 1151.16 -3.22677 0.504718 0
M  V30 12005 H 1149.82 -2.63145 2.55245 0
M  V30 12006 H 1149.47 -4.82829 1.41016 0
M  V30 12007 H 1149.17 -4.95284 3.16177 0
M  V30 12008 H 1150.69 -5.58237 2.47394 0
M  V30 12009 H 1152.11 -4.00178 4.10524 0
M  V30 12010 H 1150.5 -3.61085 4.7931 0
M  V30 12011 H 1151.57 -2.29761 4.2701 0
M  V30 12012 N 1152.92 -1.31168 -0.873655 0
M  V30 12013 C 1154.15 -1.23595 -1.65927 0
M  V30 12014 C 1154.56 0.199349 -1.87745 0
M  V30 12015 O 1153.92 1.13013 -1.43298 0
M  V30 12016 C 1153.97 -1.97268 -3.02932 0
M  V30 12017 O 1153.69 -3.35196 -2.82091 0
M  V30 12018 C 1155.19 -1.9649 -3.97374 0
M  V30 12019 H 1152.41 -0.427228 -0.517414 0
M  V30 12020 H 1154.96 -1.72983 -1.09074 0
M  V30 12021 H 1153.11 -1.51651 -3.56484 0
M  V30 12022 H 1153.52 -3.7266 -3.69087 0
M  V30 12023 H 1155 -2.52557 -4.90835 0
M  V30 12024 H 1155.48 -0.946525 -4.28879 0
M  V30 12025 H 1156.08 -2.4197 -3.49758 0
M  V30 12026 N 1154.4 1.08748 -1.14068 0
M  V30 12027 C 1155.81 1.62551 -0.918379 0
M  V30 12028 C 1156.16 1.8852 0.543583 0
M  V30 12029 O 1155.28 1.64007 1.41176 0
M  V30 12030 C 1155.88 2.95309 -1.66066 0
M  V30 12031 C 1154.44 3.4591 -1.48403 0
M  V30 12032 C 1153.58 2.20204 -1.6854 0
M  V30 12033 H 1156.54 0.920196 -1.29298 0
M  V30 12034 H 1156.56 3.63587 -1.12181 0
M  V30 12035 H 1156.07 2.76377 -2.72465 0
M  V30 12036 H 1154.17 3.69953 -0.443353 0
M  V30 12037 H 1154.28 4.2289 -2.25169 0
M  V30 12038 H 1152.65 2.29203 -1.11077 0
M  V30 12039 H 1153.43 2.03783 -2.76274 0
M  V30 12040 N 1155.87 0.935264 1.26849 0
M  V30 12041 C 1157.1 0.595704 1.98661 0
M  V30 12042 C 1157.52 -0.821001 1.69237 0
M  V30 12043 O 1156.88 -1.55211 0.936982 0
M  V30 12044 C 1156.93 0.837275 3.50745 0
M  V30 12045 O 1156.03 -0.0934914 4.12294 0
M  V30 12046 H 1155.38 0.228512 0.623441 0
M  V30 12047 H 1157.91 1.25658 1.61466 0
M  V30 12048 H 1157.92 0.755827 4.00938 0
M  V30 12049 H 1156.59 1.86993 3.71492 0
M  V30 12050 H 1155.17 0.0385124 3.7288 0
M  V30 12051 N 1157.35 -1.41121 0.701616 0
M  V30 12052 C 1158.76 -1.84122 0.309208 0
M  V30 12053 C 1159.11 -1.58695 -1.15371 0
M  V30 12054 O 1158.24 -1.06053 -1.88631 0
M  V30 12055 C 1158.83 -3.34233 0.554429 0
M  V30 12056 C 1157.39 -3.7578 0.215876 0
M  V30 12057 C 1156.54 -2.6447 0.833729 0
M  V30 12058 H 1159.49 -1.30587 0.901822 0
M  V30 12059 H 1159.51 -3.8005 -0.18491 0
M  V30 12060 H 1159.02 -3.52707 1.61923 0
M  V30 12061 H 1157.13 -3.62905 -0.844421 0
M  V30 12062 H 1157.24 -4.74319 0.675118 0
M  V30 12063 H 1155.6 -2.5334 0.262851 0
M  V30 12064 H 1156.39 -2.85761 1.90252 0
M  V30 12065 N 1158.83 -0.446794 -1.51134 0
M  V30 12066 C 1159.78 0.359865 -2.27977 0
M  V30 12067 C 1160.75 1.0086 -1.31972 0
M  V30 12068 O 1161.93 1.02569 -1.60886 0
M  V30 12069 C 1159.07 1.44978 -3.1317 0
M  V30 12070 C 1158.19 0.818243 -4.2418 0
M  V30 12071 C 1157.32 1.884 -4.96668 0
M  V30 12072 C 1156.36 1.2314 -5.99586 0
M  V30 12073 N 1155.5 2.23894 -6.65444 0
M  V30 12074 H 1160.34 -0.301775 -2.96468 0
M  V30 12075 H 1157.87 -0.160666 -1.4622 0
M  V30 12076 H 1159.83 2.09308 -3.60896 0
M  V30 12077 H 1158.46 2.08092 -2.46775 0
M  V30 12078 H 1157.51 0.0629889 -3.80348 0
M  V30 12079 H 1158.83 0.301885 -4.97886 0
M  V30 12080 H 1157.98 2.6037 -5.4799 0
M  V30 12081 H 1156.72 2.43411 -4.22614 0
M  V30 12082 H 1155.72 0.497215 -5.47547 0
M  V30 12083 H 1156.95 0.688505 -6.75601 0
M  V30 12084 H 1154.89 2.77967 -5.94197 0
M  V30 12085 H 1154.81 1.77176 -7.34945 0
M  V30 12086 H 1156.08 2.95318 -7.21393 0
M  V30 12087 N 1160.31 1.56586 -0.178487 0
M  V30 12088 C 1161.53 2.01915 0.473841 0
M  V30 12089 C 1161.96 1.05789 1.55533 0
M  V30 12090 O 1161.32 0.0386018 1.81259 0
M  V30 12091 C 1161.36 3.45799 1.02251 0
M  V30 12092 O 1160.47 3.52761 2.1362 0
M  V30 12093 H 1159.81 0.654372 0.112666 0
M  V30 12094 H 1162.34 2.02613 -0.284486 0
M  V30 12095 H 1162.35 3.85252 1.34332 0
M  V30 12096 H 1161.02 4.1526 0.230719 0
M  V30 12097 H 1159.6 3.25172 1.8253 0
M  V30 12098 N 1161.79 -0.095206 1.57312 0
M  V30 12099 C 1163.02 -0.811092 1.90013 0
M  V30 12100 C 1163.42 -1.72807 0.770359 0
M  V30 12101 O 1162.77 -1.81755 -0.266615 0
M  V30 12102 C 1162.83 -1.67744 3.17966 0
M  V30 12103 C 1162.49 -0.932301 4.47389 0
M  V30 12104 C 1163.49 -0.262161 5.19239 0
M  V30 12105 C 1161.18 -0.906414 4.94054 0
M  V30 12106 C 1163.17 0.423898 6.35989 0
M  V30 12107 C 1160.86 -0.216569 6.10716 0
M  V30 12108 C 1161.85 0.447408 6.81533 0
M  V30 12109 O 1161.54 1.12619 7.95972 0
M  V30 12110 H 1161.27 -0.237154 0.633035 0
M  V30 12111 H 1163.83 -0.0768976 2.05256 0
M  V30 12112 H 1162.06 -2.45387 2.98868 0
M  V30 12113 H 1163.75 -2.26988 3.36498 0
M  V30 12114 H 1164.51 -0.273621 4.84228 0
M  V30 12115 H 1160.39 -1.41267 4.38822 0
M  V30 12116 H 1163.94 0.942727 6.91201 0
M  V30 12117 H 1159.83 -0.202955 6.45181 0
M  V30 12118 H 1160.6 1.03308 8.11954 0
M  V30 12119 N 1163.26 -1.53291 -0.366026 0
M  V30 12120 C 1164.17 -1.82656 -1.47221 0
M  V30 12121 C 1165.19 -0.71491 -1.58635 0
M  V30 12122 O 1166.37 -1.00492 -1.74538 0
M  V30 12123 C 1163.43 -2.00995 -2.82492 0
M  V30 12124 C 1162.49 -3.24895 -2.8061 0
M  V30 12125 C 1161.73 -3.4235 -4.09429 0
M  V30 12126 O 1161.95 -2.6411 -5.05571 0
M  V30 12127 O 1160.88 -4.35702 -4.15268 0
M  V30 12128 H 1164.71 -2.76634 -1.2533 0
M  V30 12129 H 1162.29 -1.38665 -0.556084 0
M  V30 12130 H 1164.18 -2.14632 -3.62645 0
M  V30 12131 H 1162.85 -1.10207 -3.04362 0
M  V30 12132 H 1161.76 -3.16682 -1.99157 0
M  V30 12133 H 1163.09 -4.15604 -2.63694 0
M  V30 12134 N 1164.74 0.6258 -1.44643 0
M  V30 12135 C 1165.69 1.75869 -1.52226 0
M  V30 12136 C 1166.68 1.64765 -0.39355 0
M  V30 12137 O 1167.89 1.70779 -0.568718 0
M  V30 12138 H 1164.27 0.580712 -0.477784 0
M  V30 12139 H 1166.24 1.66596 -2.47565 0
M  V30 12140 C 1164.99 3.14217 -1.48873 0
M  V30 12141 H 1164.31 3.23411 -2.35043 0
M  V30 12142 H 1165.75 3.93365 -1.58239 0
M  V30 12143 C 1164.21 3.36243 -0.210299 0
M  V30 12144 O 1164.74 3.95243 0.717335 0
M  V30 12145 N 1162.94 2.90385 -0.111744 0
M  V30 12146 H 1162.49 2.42555 -0.867466 0
M  V30 12147 H 1162.45 3.05498 0.742871 0
M  V30 12148 N 1166.22 1.31629 0.866686 0
M  V30 12149 C 1167.15 1.22151 1.99001 0
M  V30 12150 C 1168.13 0.107972 1.69757 0
M  V30 12151 O 1169.32 0.293125 1.91975 0
M  V30 12152 C 1166.45 0.93144 3.34577 0
M  V30 12153 C 1165.4 2.0049 3.78137 0
M  V30 12154 C 1164.73 1.56747 5.11209 0
M  V30 12155 C 1166.03 3.41844 3.94892 0
M  V30 12156 H 1167.72 2.16132 2.0719 0
M  V30 12157 H 1165.27 1.04051 0.995463 0
M  V30 12158 H 1167.22 0.851719 4.12703 0
M  V30 12159 H 1165.94 -0.0440289 3.2657 0
M  V30 12160 H 1164.6 2.07457 3.02253 0
M  V30 12161 H 1164.25 0.579767 4.99648 0
M  V30 12162 H 1163.95 2.28562 5.41326 0
M  V30 12163 H 1165.47 1.50188 5.91841 0
M  V30 12164 H 1166.89 3.37534 4.63405 0
M  V30 12165 H 1165.29 4.11905 4.36411 0
M  V30 12166 H 1166.36 3.82389 2.98172 0
M  V30 12167 N 1167.7 -1.08142 1.14644 0
M  V30 12168 C 1168.95 -1.81015 0.927648 0
M  V30 12169 C 1169.3 -1.8467 -0.539885 0
M  V30 12170 O 1168.59 -1.31353 -1.39488 0
M  V30 12171 C 1168.79 -3.25962 1.46573 0
M  V30 12172 C 1168.62 -3.36429 2.98405 0
M  V30 12173 C 1167.39 -3.4746 3.66878 0
M  V30 12174 C 1169.58 -3.27855 3.96252 0
M  V30 12175 N 1167.57 -3.46746 5.06597 0
M  V30 12176 C 1168.94 -3.34165 5.22239 0
M  V30 12177 C 1170.99 -3.11611 3.88334 0
M  V30 12178 C 1169.7 -3.25903 6.41233 0
M  V30 12179 C 1171.72 -3.04679 5.06877 0
M  V30 12180 C 1171.08 -3.11594 6.31735 0
M  V30 12181 H 1167.18 -0.676065 0.393014 0
M  V30 12182 H 1169.77 -1.29145 1.45704 0
M  V30 12183 H 1167.94 -3.7627 0.96308 0
M  V30 12184 H 1169.67 -3.86914 1.18659 0
M  V30 12185 H 1166.42 -3.51466 3.17441 0
M  V30 12186 H 1166.85 -3.49939 5.79544 0
M  V30 12187 H 1171.49 -3.05125 2.92675 0
M  V30 12188 H 1169.21 -3.3115 7.37133 0
M  V30 12189 H 1172.79 -2.93226 5.02503 0
M  V30 12190 H 1171.67 -3.06264 7.21922 0
M  V30 12191 N 1169.18 -0.941978 -1.26351 0
M  V30 12192 C 1170.42 -0.589971 -1.93715 0
M  V30 12193 C 1170.75 0.871085 -1.73903 0
M  V30 12194 O 1170.01 1.63864 -1.06991 0
M  V30 12195 C 1170.31 -0.879481 -3.4641 0
M  V30 12196 C 1169.97 -2.32454 -3.86362 0
M  V30 12197 C 1168.63 -2.71957 -3.9698 0
M  V30 12198 C 1170.99 -3.2636 -4.06373 0
M  V30 12199 C 1168.31 -4.04459 -4.25006 0
M  V30 12200 C 1170.67 -4.58459 -4.35887 0
M  V30 12201 C 1169.33 -4.97775 -4.4472 0
M  V30 12202 H 1168.6 -0.215886 -0.708854 0
M  V30 12203 H 1171.25 -1.18863 -1.50146 0
M  V30 12204 H 1169.55 -0.198289 -3.91298 0
M  V30 12205 H 1171.25 -0.585887 -3.96697 0
M  V30 12206 H 1167.84 -2.00814 -3.78645 0
M  V30 12207 H 1172.02 -2.97037 -3.97596 0
M  V30 12208 H 1167.28 -4.34582 -4.30057 0
M  V30 12209 H 1171.45 -5.31213 -4.50317 0
M  V30 12210 H 1169.08 -6.00475 -4.66191 0
M  V30 12211 N 1170.66 1.40747 -0.709091 0
M  V30 12212 C 1171.59 2.29196 -0.0130359 0
M  V30 12213 C 1172.6 1.45491 0.730487 0
M  V30 12214 O 1173.79 1.6885 0.578944 0
M  V30 12215 C 1170.89 3.23632 1.00577 0
M  V30 12216 C 1170.06 4.3616 0.329105 0
M  V30 12217 C 1169.12 5.11079 1.25239 0
M  V30 12218 O 1168.15 5.64374 0.739641 0
M  V30 12219 N 1169.35 5.1982 2.58394 0
M  V30 12220 H 1172.11 2.89574 -0.772462 0
M  V30 12221 H 1169.68 1.52046 -0.556197 0
M  V30 12222 H 1171.67 3.70622 1.62546 0
M  V30 12223 H 1170.24 2.64467 1.66661 0
M  V30 12224 H 1169.46 3.9138 -0.470683 0
M  V30 12225 H 1170.75 5.08605 -0.140856 0
M  V30 12226 H 1170.14 4.77992 3.02556 0
M  V30 12227 H 1168.7 5.7034 3.15524 0
M  V30 12228 N 1172.13 0.454803 1.50895 0
M  V30 12229 C 1173.1 -0.336293 2.26719 0
M  V30 12230 C 1174.1 -0.93464 1.30848 0
M  V30 12231 O 1175.29 -0.80636 1.54413 0
M  V30 12232 C 1172.42 -1.47744 3.07221 0
M  V30 12233 H 1173.61 0.328462 2.98096 0
M  V30 12234 H 1171.16 0.208419 1.54904 0
M  V30 12235 H 1171.9 -2.17773 2.40302 0
M  V30 12236 H 1171.68 -1.05438 3.77658 0
M  V30 12237 H 1173.17 -2.03592 3.6461 0
M  V30 12238 N 1173.61 -1.56489 0.186789 0
M  V30 12239 C 1174.84 -2.02163 -0.463126 0
M  V30 12240 C 1175.26 -1.06612 -1.54969 0
M  V30 12241 O 1174.62 -0.0482139 -1.81236 0
M  V30 12242 C 1174.67 -3.46337 -1.00416 0
M  V30 12243 O 1173.77 -3.53889 -2.11747 0
M  V30 12244 H 1173.11 -0.65496 -0.109194 0
M  V30 12245 H 1175.64 -2.02459 0.295227 0
M  V30 12246 H 1175.65 -3.85959 -1.32287 0
M  V30 12247 H 1174.33 -4.15376 -0.208693 0
M  V30 12248 H 1172.9 -3.26136 -1.80803 0
M  V30 12249 N 1175.09 0.086862 -1.5736 0
M  V30 12250 C 1176.5 0.640442 -1.75372 0
M  V30 12251 C 1176.85 1.78693 -0.81014 0
M  V30 12252 O 1175.98 2.16398 0.00940712 0
M  V30 12253 C 1176.57 1.16856 -3.1801 0
M  V30 12254 C 1175.13 1.66813 -3.37417 0
M  V30 12255 C 1174.28 0.58116 -2.71142 0
M  V30 12256 H 1177.23 -0.139249 -1.58088 0
M  V30 12257 H 1177.25 2.03772 -3.21337 0
M  V30 12258 H 1176.76 0.333909 -3.86661 0
M  V30 12259 H 1174.86 2.52652 -2.73858 0
M  V30 12260 H 1174.98 1.75545 -4.45781 0
M  V30 12261 H 1173.34 1.0226 -2.3327 0
M  V30 12262 H 1174.12 -0.243047 -3.42439 0
M  V30 12263 N 1176.57 1.53483 0.357892 0
M  V30 12264 C 1177.5 1.83444 1.44466 0
M  V30 12265 C 1178.48 0.688486 1.55544 0
M  V30 12266 O 1179.66 0.93906 1.69986 0
M  V30 12267 C 1176.79 2.03122 2.81707 0
M  V30 12268 C 1175.75 3.1891 2.85448 0
M  V30 12269 C 1175.07 3.23895 4.25436 0
M  V30 12270 C 1176.37 4.57334 2.52275 0
M  V30 12271 H 1178.07 2.74456 1.19642 0
M  V30 12272 H 1175.61 1.3206 0.574112 0
M  V30 12273 H 1177.57 2.22666 3.57768 0
M  V30 12274 H 1176.29 1.08827 3.07935 0
M  V30 12275 H 1174.95 2.99199 2.11838 0
M  V30 12276 H 1174.6 2.27223 4.48753 0
M  V30 12277 H 1174.3 4.01694 4.28854 0
M  V30 12278 H 1175.82 3.45632 5.0336 0
M  V30 12279 H 1177.24 4.76988 3.1805 0
M  V30 12280 H 1175.63 5.37431 2.66998 0
M  V30 12281 H 1176.7 4.61921 1.47501 0
M  V30 12282 N 1178.05 -0.61812 1.44973 0
M  V30 12283 C 1179.29 -1.37468 1.48145 0
M  V30 12284 C 1179.61 -1.94628 0.120366 0
M  V30 12285 O 1178.88 -1.76548 -0.848982 0
M  V30 12286 H 1177.46 -0.510293 0.545536 0
M  V30 12287 H 1180.13 -0.726598 1.8085 0
M  V30 12288 H 1179.22 -2.19944 2.2143 0
M  V30 12289 N 1179.52 -1.32087 -0.859693 0
M  V30 12290 C 1180.75 -1.25348 -1.64607 0
M  V30 12291 C 1181.17 0.179425 -1.87945 0
M  V30 12292 O 1180.52 1.11487 -1.44489 0
M  V30 12293 C 1180.57 -2.0047 -3.00822 0
M  V30 12294 O 1180.3 -3.38169 -2.7852 0
M  V30 12295 C 1181.8 -2.00694 -3.95268 0
M  V30 12296 H 1179.02 -0.432692 -0.512854 0
M  V30 12297 H 1181.56 -1.7413 -1.07234 0
M  V30 12298 H 1179.72 -1.55423 -3.54855 0
M  V30 12299 H 1180.13 -3.76553 -3.65113 0
M  V30 12300 H 1181.6 -2.57748 -4.88129 0
M  V30 12301 H 1182.08 -0.99196 -4.27851 0
M  V30 12302 H 1182.69 -2.45666 -3.47172 0
M  V30 12303 N 1181 1.07532 -1.15215 0
M  V30 12304 C 1181.93 2.1668 -0.870171 0
M  V30 12305 C 1182.91 1.69161 0.178483 0
M  V30 12306 O 1184.1 1.94172 0.0332489 0
M  V30 12307 C 1181.23 3.45464 -0.356666 0
M  V30 12308 C 1180.18 4.06424 -1.34179 0
M  V30 12309 C 1179.51 5.30266 -0.687206 0
M  V30 12310 C 1180.81 4.46666 -2.70715 0
M  V30 12311 H 1182.5 2.40526 -1.7829 0
M  V30 12312 H 1180.05 1.15598 -0.858665 0
M  V30 12313 H 1182 4.21144 -0.146947 0
M  V30 12314 H 1180.72 3.21199 0.591527 0
M  V30 12315 H 1179.38 3.32786 -1.53783 0
M  V30 12316 H 1179.03 5.0229 0.267077 0
M  V30 12317 H 1178.73 5.72009 -1.34462 0
M  V30 12318 H 1180.26 6.08653 -0.487218 0
M  V30 12319 H 1181.67 5.13483 -2.54966 0
M  V30 12320 H 1180.07 4.99355 -3.32813 0
M  V30 12321 H 1181.14 3.58123 -3.26919 0
M  V30 12322 N 1182.48 0.948665 1.2585 0
M  V30 12323 C 1183.73 0.601125 1.93686 0
M  V30 12324 C 1184.06 -0.858779 1.7418 0
M  V30 12325 O 1183.33 -1.61539 1.0833 0
M  V30 12326 C 1183.62 0.95333 3.47252 0
M  V30 12327 C 1183.47 2.46853 3.7601 0
M  V30 12328 C 1184.79 0.474098 4.37539 0
M  V30 12329 H 1181.91 0.219864 0.703441 0
M  V30 12330 H 1184.55 1.18424 1.48579 0
M  V30 12331 H 1182.7 0.457114 3.85801 0
M  V30 12332 H 1184.37 3.03804 3.47132 0
M  V30 12333 H 1182.62 2.9088 3.21825 0
M  V30 12334 H 1183.29 2.66547 4.83381 0
M  V30 12335 H 1185.76 0.899664 4.06258 0
M  V30 12336 H 1184.64 0.749287 5.43762 0
M  V30 12337 H 1184.9 -0.625961 4.37646 0
M  V30 12338 N 1183.96 -1.40369 0.716545 0
M  V30 12339 C 1185.19 -2.05181 0.266143 0
M  V30 12340 C 1185.6 -1.53988 -1.09239 0
M  V30 12341 O 1184.96 -0.696859 -1.68672 0
M  V30 12342 C 1185.01 -3.60713 0.238384 0
M  V30 12343 O 1184.73 -4.10018 1.54328 0
M  V30 12344 C 1186.23 -4.42701 -0.230453 0
M  V30 12345 H 1183.45 -0.66028 0.119463 0
M  V30 12346 H 1186 -1.7976 0.97502 0
M  V30 12347 H 1184.15 -3.85101 -0.421466 0
M  V30 12348 H 1184.56 -5.0422 1.4444 0
M  V30 12349 H 1186.04 -5.51642 -0.198728 0
M  V30 12350 H 1186.52 -4.20354 -1.27276 0
M  V30 12351 H 1187.12 -4.23423 0.399155 0
M  V30 12352 N 1185.44 -0.462799 -1.50652 0
M  V30 12353 C 1186.85 -0.00568907 -1.86699 0
M  V30 12354 C 1187.2 1.39641 -1.37822 0
M  V30 12355 O 1186.32 2.03366 -0.739679 0
M  V30 12356 C 1186.92 -0.00354783 -3.388 0
M  V30 12357 C 1185.48 0.398061 -3.74289 0
M  V30 12358 C 1184.62 -0.392574 -2.74507 0
M  V30 12359 H 1187.58 -0.677469 -1.43513 0
M  V30 12360 H 1187.6 0.800456 -3.71985 0
M  V30 12361 H 1187.11 -1.02414 -3.74344 0
M  V30 12362 H 1185.21 1.42331 -3.44344 0
M  V30 12363 H 1185.32 0.105168 -4.78985 0
M  V30 12364 H 1183.69 0.152608 -2.54242 0
M  V30 12365 H 1184.47 -1.41252 -3.12894 0
M  V30 12366 N 1186.91 1.56388 -0.195085 0
M  V30 12367 C 1187.88 2.17859 0.712053 0
M  V30 12368 C 1188.88 1.13304 1.141 0
M  V30 12369 O 1190.07 1.38689 1.05409 0
M  V30 12370 C 1187.2 2.78065 1.97213 0
M  V30 12371 H 1188.39 2.9938 0.176529 0
M  V30 12372 H 1185.95 1.56205 0.0545322 0
M  V30 12373 H 1186.68 2.00342 2.55017 0
M  V30 12374 H 1186.47 3.54603 1.67329 0
M  V30 12375 H 1187.96 3.25266 2.619 0
M  V30 12376 N 1188.39 -0.0785156 1.57404 0
M  V30 12377 C 1189.8 -0.631132 1.75709 0
M  V30 12378 C 1190.15 -1.78261 0.819605 0
M  V30 12379 O 1189.28 -2.164 0.00206912 0
M  V30 12380 C 1189.87 -1.15168 3.18625 0
M  V30 12381 C 1188.43 -1.65021 3.38297 0
M  V30 12382 C 1187.58 -0.566773 2.71446 0
M  V30 12383 H 1190.53 0.147631 1.58012 0
M  V30 12384 H 1190.55 -2.02065 3.22413 0
M  V30 12385 H 1190.06 -0.313399 3.86833 0
M  V30 12386 H 1188.17 -2.51196 2.75194 0
M  V30 12387 H 1188.28 -1.73179 4.46706 0
M  V30 12388 H 1186.64 -1.01021 2.33809 0
M  V30 12389 H 1187.43 0.261204 3.42305 0
M  V30 12390 N 1189.87 -1.5367 -0.349747 0
M  V30 12391 C 1191.1 -1.74858 -1.11532 0
M  V30 12392 C 1191.52 -0.483591 -1.81777 0
M  V30 12393 O 1190.88 0.563399 -1.72324 0
M  V30 12394 C 1190.93 -2.92479 -2.10923 0
M  V30 12395 O 1190.03 -2.62194 -3.18321 0
M  V30 12396 H 1189.37 -0.580219 -0.322865 0
M  V30 12397 H 1191.9 -2.00611 -0.402033 0
M  V30 12398 H 1191.91 -3.19093 -2.54252 0
M  V30 12399 H 1190.59 -3.84228 -1.59191 0
M  V30 12400 H 1189.16 -2.46448 -2.79853 0
M  V30 12401 N 1191.35 0.610423 -1.45298 0
M  V30 12402 C 1192.28 1.73507 -1.4976 0
M  V30 12403 C 1193.29 1.58092 -0.38867 0
M  V30 12404 O 1194.48 1.66026 -0.655571 0
M  V30 12405 C 1191.58 3.11475 -1.33554 0
M  V30 12406 C 1190.76 3.53156 -2.5807 0
M  V30 12407 C 1189.81 4.70076 -2.36463 0
M  V30 12408 O 1188.84 4.77337 -3.10061 0
M  V30 12409 N 1190.04 5.63155 -1.40843 0
M  V30 12410 H 1192.81 1.70144 -2.46721 0
M  V30 12411 H 1190.37 0.79562 -1.41002 0
M  V30 12412 H 1192.36 3.87444 -1.16914 0
M  V30 12413 H 1190.93 3.09361 -0.448803 0
M  V30 12414 H 1190.15 2.67178 -2.89844 0
M  V30 12415 H 1191.44 3.77761 -3.40843 0
M  V30 12416 H 1190.84 5.60001 -0.800982 0
M  V30 12417 H 1189.39 6.38669 -1.30175 0
M  V30 12418 N 1192.83 1.32541 0.852676 0
M  V30 12419 C 1193.74 1.23646 1.99371 0
M  V30 12420 C 1194.75 0.149673 1.73355 0
M  V30 12421 O 1195.93 0.370716 1.97959 0
M  V30 12422 C 1192.99 0.961873 3.3309 0
M  V30 12423 C 1192.05 2.1373 3.72315 0
M  V30 12424 C 1191.29 1.87572 4.99652 0
M  V30 12425 O 1191.51 0.819247 5.64486 0
M  V30 12426 O 1190.44 2.73732 5.36054 0
M  V30 12427 H 1194.27 2.19573 2.09813 0
M  V30 12428 H 1191.86 1.12451 0.983627 0
M  V30 12429 H 1193.74 0.825316 4.13239 0
M  V30 12430 H 1192.41 0.0327745 3.23683 0
M  V30 12431 H 1191.32 2.32933 2.92733 0
M  V30 12432 H 1192.65 3.04925 3.86369 0
M  V30 12433 N 1194.3 -1.0692 1.15784 0
M  V30 12434 C 1195.58 -1.76367 0.845825 0
M  V30 12435 C 1195.96 -2.00594 -0.657672 0
M  V30 12436 O 1195.31 -1.62794 -1.60345 0
M  V30 12437 C 1195.52 -3.06913 1.66149 0
M  V30 12438 C 1196.87 -3.81181 1.87046 0
M  V30 12439 O 1197.89 -3.16737 1.62961 0
M  V30 12440 O 1196.75 -4.96936 2.27413 0
M  V30 12441 H 1193.84 -0.766095 0.311493 0
M  V30 12442 H 1196.39 -1.13246 1.26386 0
M  V30 12443 H 1195.16 -2.84924 2.68205 0
M  V30 12444 H 1194.79 -3.77767 1.24007 0
M  V30 12445 N 1195.78 -0.955326 -1.25345 0
M  V30 12446 C 1197.06 -0.527828 -1.88344 0
M  V30 12447 C 1197.44 0.994911 -1.86185 0
M  V30 12448 O 1196.79 1.86099 -1.32587 0
M  V30 12449 C 1197 -1.10525 -3.31037 0
M  V30 12450 C 1198.35 -1.18253 -4.07801 0
M  V30 12451 O 1199.37 -1.05685 -3.4016 0
M  V30 12452 O 1198.23 -1.37978 -5.28795 0
M  V30 12453 H 1195.32 -0.174206 -0.808444 0
M  V30 12454 H 1197.87 -1.0488 -1.3341 0
M  V30 12455 H 1196.64 -2.14847 -3.27042 0
M  V30 12456 H 1196.26 -0.567568 -3.93528 0
M  V30 12457 N 1197.26 1.39987 -0.723979 0
M  V30 12458 C 1198.5 2.02587 -0.271647 0
M  V30 12459 C 1198.87 1.56186 1.11669 0
M  V30 12460 O 1200.07 2.10907 1.66648 0
M  V30 12461 C 1198.34 3.55604 -0.357851 0
M  V30 12462 S 1199.9 4.38797 0.0162614 0
M  V30 12463 H 1196.71 0.702878 -0.10716 0
M  V30 12464 H 1199.32 1.70974 -0.948057 0
M  V30 12465 H 1198.02 3.86866 -1.36977 0
M  V30 12466 H 1197.55 3.91956 0.336754 0
M  V30 12467 H 1199.57 4.80564 1.23582 0
M  V30 12468 N 1198.74 0.470782 1.50404 0
M  V30 12469 C 1199.99 -0.0844409 2.02624 0
M  V30 12470 C 1200.32 -1.39398 1.3521 0
M  V30 12471 O 1199.59 -1.88542 0.477707 0
M  V30 12472 C 1199.88 -0.268563 3.59097 0
M  V30 12473 C 1199.73 1.06198 4.37084 0
M  V30 12474 C 1201.05 -1.02324 4.28039 0
M  V30 12475 H 1198.17 -0.0292141 0.736421 0
M  V30 12476 H 1200.81 0.616312 1.79726 0
M  V30 12477 H 1198.96 -0.865441 3.78738 0
M  V30 12478 H 1200.63 1.69541 4.29015 0
M  V30 12479 H 1198.87 1.65868 4.00837 0
M  V30 12480 H 1199.55 0.886795 5.4483 0
M  V30 12481 H 1202.02 -0.517325 4.12872 0
M  V30 12482 H 1200.9 -1.12087 5.37334 0
M  V30 12483 H 1201.16 -2.05974 3.91187 0
M  V30 12484 N 1200.22 -1.56282 0.203376 0
M  V30 12485 C 1201.46 -1.97812 -0.433202 0
M  V30 12486 C 1201.79 -1.09052 -1.61053 0
M  V30 12487 O 1201.05 -0.131417 -1.95258 0
M  V30 12488 C 1201.35 -3.45148 -0.927759 0
M  V30 12489 C 1201.01 -4.50692 0.137083 0
M  V30 12490 C 1199.67 -4.79278 0.429652 0
M  V30 12491 C 1202.03 -5.14086 0.858174 0
M  V30 12492 C 1199.35 -5.68547 1.44815 0
M  V30 12493 C 1201.71 -6.04457 1.86588 0
M  V30 12494 C 1200.37 -6.31395 2.16556 0
M  V30 12495 H 1199.64 -0.723846 -0.15852 0
M  V30 12496 H 1202.29 -1.89102 0.302082 0
M  V30 12497 H 1200.59 -3.5097 -1.74147 0
M  V30 12498 H 1202.29 -3.74642 -1.42984 0
M  V30 12499 H 1198.88 -4.28481 -0.101111 0
M  V30 12500 H 1203.06 -4.92086 0.645376 0
M  V30 12501 H 1198.32 -5.87689 1.68615 0
M  V30 12502 H 1202.49 -6.52636 2.4298 0
M  V30 12503 H 1200.12 -7.00366 2.9562 0
M  V30 12504 N 1201.7 0.070167 -1.57444 0
M  V30 12505 C 1202.94 0.767495 -1.8696 0
M  V30 12506 C 1203.26 1.78032 -0.795595 0
M  V30 12507 O 1202.53 1.95112 0.175566 0
M  V30 12508 H 1201.11 0.286443 -0.689898 0
M  V30 12509 H 1203.78 0.0458692 -1.94846 0
M  V30 12510 H 1202.87 1.28269 -2.84523 0
M  V30 12511 N 1203.17 1.53854 0.341593 0
M  V30 12512 C 1204.58 1.62623 0.917093 0
M  V30 12513 C 1204.94 0.508781 1.89488 0
M  V30 12514 O 1204.06 -0.361171 2.13365 0
M  V30 12515 C 1204.66 2.94775 1.67012 0
M  V30 12516 C 1203.21 3.058 2.19461 0
M  V30 12517 C 1202.36 2.58082 1.01433 0
M  V30 12518 H 1205.31 1.58248 0.119674 0
M  V30 12519 H 1205.33 2.83924 2.53313 0
M  V30 12520 H 1204.85 3.76085 0.958221 0
M  V30 12521 H 1202.95 2.29128 2.93821 0
M  V30 12522 H 1203.06 4.11302 2.45698 0
M  V30 12523 H 1201.42 2.13537 1.38831 0
M  V30 12524 H 1202.21 3.41833 0.317033 0
M  V30 12525 N 1204.65 -0.602709 1.4562 0
M  V30 12526 C 1205.58 -1.72374 1.5751 0
M  V30 12527 C 1206.56 -1.64669 0.426389 0
M  V30 12528 O 1207.75 -1.82994 0.650143 0
M  V30 12529 C 1204.88 -3.10987 1.5461 0
M  V30 12530 C 1203.83 -3.33507 2.68248 0
M  V30 12531 C 1203.16 -4.72443 2.50403 0
M  V30 12532 C 1204.46 -3.23285 4.10224 0
M  V30 12533 H 1206.15 -1.62679 2.51348 0
M  V30 12534 H 1203.7 -0.781217 1.20967 0
M  V30 12535 H 1205.65 -3.89214 1.61525 0
M  V30 12536 H 1204.37 -3.21533 0.573049 0
M  V30 12537 H 1203.03 -2.57672 2.60769 0
M  V30 12538 H 1202.68 -4.79729 1.51226 0
M  V30 12539 H 1202.38 -4.88466 3.26611 0
M  V30 12540 H 1203.91 -5.52864 2.59179 0
M  V30 12541 H 1205.32 -3.91381 4.1892 0
M  V30 12542 H 1203.72 -3.50837 4.86861 0
M  V30 12543 H 1204.79 -2.20652 4.31788 0
M  V30 12544 N 1206.13 -1.32992 -0.845635 0
M  V30 12545 C 1207.06 -1.25301 -1.97033 0
M  V30 12546 C 1208.04 -0.134966 -1.69564 0
M  V30 12547 O 1209.23 -0.323629 -1.91484 0
M  V30 12548 C 1206.36 -0.984551 -3.33052 0
M  V30 12549 C 1205.31 -2.06481 -3.749 0
M  V30 12550 C 1204.64 -1.6486 -5.08651 0
M  V30 12551 C 1205.94 -3.48083 -3.89404 0
M  V30 12552 H 1207.63 -2.194 -2.03725 0
M  V30 12553 H 1205.18 -1.05621 -0.978783 0
M  V30 12554 H 1207.13 -0.917269 -4.11296 0
M  V30 12555 H 1205.85 -0.00793116 -3.26599 0
M  V30 12556 H 1204.51 -2.1224 -2.98915 0
M  V30 12557 H 1204.16 -0.659183 -4.98662 0
M  V30 12558 H 1203.86 -2.37145 -5.37621 0
M  V30 12559 H 1205.38 -1.59585 -5.89377 0
M  V30 12560 H 1206.8 -3.44863 -4.57976 0
M  V30 12561 H 1205.19 -4.18796 -4.29802 0
M  V30 12562 H 1206.26 -3.87084 -2.92051 0
M  V30 12563 N 1207.61 1.06304 -1.1635 0
M  V30 12564 C 1208.56 2.15879 -0.865967 0
M  V30 12565 C 1209.55 1.68595 0.164929 0
M  V30 12566 O 1210.76 1.7999 0.0189271 0
M  V30 12567 H 1207.13 0.704721 -0.262435 0
M  V30 12568 H 1209.1 2.38185 -1.79751 0
M  V30 12569 C 1207.85 3.4558 -0.383374 0
M  V30 12570 H 1207.17 3.82356 -1.16806 0
M  V30 12571 H 1208.61 4.2346 -0.213964 0
M  V30 12572 C 1207.07 3.24738 0.897044 0
M  V30 12573 O 1207.6 3.50284 1.96632 0
M  V30 12574 N 1205.81 2.78172 0.840761 0
M  V30 12575 H 1205.36 2.57583 -0.029584 0
M  V30 12576 H 1205.31 2.64606 1.69797 0
M  V30 12577 N 1209.09 0.96196 1.24836 0
M  V30 12578 C 1210.33 0.620715 1.92752 0
M  V30 12579 C 1210.66 -0.843308 1.75267 0
M  V30 12580 O 1209.92 -1.62141 1.09584 0
M  V30 12581 C 1210.21 0.934481 3.44967 0
M  V30 12582 C 1209.88 2.38572 3.82615 0
M  V30 12583 C 1208.54 2.78238 3.92603 0
M  V30 12584 C 1210.89 3.32784 4.01129 0
M  V30 12585 C 1208.22 4.11169 4.18518 0
M  V30 12586 C 1210.57 4.65336 4.28539 0
M  V30 12587 C 1209.24 5.04788 4.36745 0
M  V30 12588 H 1208.51 0.227136 0.70533 0
M  V30 12589 H 1211.16 1.21237 1.48236 0
M  V30 12590 H 1209.46 0.260516 3.90933 0
M  V30 12591 H 1211.16 0.648923 3.95715 0
M  V30 12592 H 1207.75 2.06812 3.75402 0
M  V30 12593 H 1211.93 3.03325 3.9282 0
M  V30 12594 H 1207.19 4.41368 4.23089 0
M  V30 12595 H 1211.36 5.3831 4.41809 0
M  V30 12596 H 1208.99 6.07816 4.56579 0
M  V30 12597 N 1210.56 -1.39601 0.731392 0
M  V30 12598 C 1211.97 -1.83424 0.348194 0
M  V30 12599 C 1212.33 -1.61106 -1.11979 0
M  V30 12600 O 1211.45 -1.1003 -1.86339 0
M  V30 12601 C 1212.05 -3.32982 0.6252 0
M  V30 12602 C 1210.6 -3.75238 0.295536 0
M  V30 12603 C 1209.75 -2.62642 0.88964 0
M  V30 12604 H 1212.7 -1.28644 0.929318 0
M  V30 12605 H 1212.72 -3.80357 -0.104254 0
M  V30 12606 H 1212.24 -3.49193 1.69368 0
M  V30 12607 H 1210.34 -3.64615 -0.767254 0
M  V30 12608 H 1210.45 -4.72781 0.775576 0
M  V30 12609 H 1208.81 -2.52726 0.316529 0
M  V30 12610 H 1209.6 -2.81661 1.96271 0
M  V30 12611 N 1212.04 -0.478751 -1.50152 0
M  V30 12612 C 1212.97 0.301182 -2.31549 0
M  V30 12613 C 1213.95 0.983276 -1.38801 0
M  V30 12614 O 1215.14 0.978973 -1.67719 0
M  V30 12615 C 1212.27 1.3791 -3.18745 0
M  V30 12616 C 1211.22 0.818175 -4.20107 0
M  V30 12617 C 1210.55 1.99496 -4.9609 0
M  V30 12618 C 1211.85 -0.17574 -5.22004 0
M  V30 12619 H 1213.54 -0.378188 -2.97002 0
M  V30 12620 H 1211.09 -0.183323 -1.42828 0
M  V30 12621 H 1213.04 1.93227 -3.74488 0
M  V30 12622 H 1211.77 2.08735 -2.51192 0
M  V30 12623 H 1210.42 0.286924 -3.65475 0
M  V30 12624 H 1210.07 2.69036 -4.25004 0
M  V30 12625 H 1209.77 1.62582 -5.6466 0
M  V30 12626 H 1211.3 2.55288 -5.54671 0
M  V30 12627 H 1212.71 0.288513 -5.72574 0
M  V30 12628 H 1211.11 -0.459549 -5.98338 0
M  V30 12629 H 1212.18 -1.09911 -4.72279 0
M  V30 12630 N 1213.52 1.56172 -0.211661 0
M  V30 12631 C 1214.45 2.22843 0.697375 0
M  V30 12632 C 1215.43 1.19689 1.20866 0
M  V30 12633 O 1216.62 1.48245 1.25447 0
M  V30 12634 C 1213.75 2.90067 1.90993 0
M  V30 12635 C 1212.7 3.99608 1.5329 0
M  V30 12636 C 1212.03 4.54078 2.82343 0
M  V30 12637 C 1213.33 5.17169 0.730333 0
M  V30 12638 H 1215.02 2.99065 0.141533 0
M  V30 12639 H 1212.57 1.43846 0.0666337 0
M  V30 12640 H 1214.52 3.35396 2.55123 0
M  V30 12641 H 1213.24 2.11276 2.49058 0
M  V30 12642 H 1211.9 3.54995 0.915115 0
M  V30 12643 H 1211.55 3.72029 3.38531 0
M  V30 12644 H 1211.25 5.28001 2.57853 0
M  V30 12645 H 1212.77 5.02119 3.47432 0
M  V30 12646 H 1214.19 5.5894 1.2751 0
M  V30 12647 H 1212.59 5.97262 0.582916 0
M  V30 12648 H 1213.66 4.84174 -0.265157 0
M  V30 12649 N 1215 -0.0618163 1.57479 0
M  V30 12650 C 1215.93 -1.09931 2.01116 0
M  V30 12651 C 1216.94 -1.34405 0.91865 0
M  V30 12652 O 1218.13 -1.32469 1.19642 0
M  V30 12653 C 1215.23 -2.44814 2.34349 0
M  V30 12654 C 1214.41 -2.40157 3.65573 0
M  V30 12655 C 1213.46 -3.57226 3.86363 0
M  V30 12656 O 1212.49 -3.38202 4.5783 0
M  V30 12657 N 1213.69 -4.77937 3.2948 0
M  V30 12658 H 1216.46 -0.727621 2.90733 0
M  V30 12659 H 1214.02 -0.250315 1.59953 0
M  V30 12660 H 1216.01 -3.21792 2.45422 0
M  V30 12661 H 1214.58 -2.73947 1.50571 0
M  V30 12662 H 1213.8 -1.48496 3.65161 0
M  V30 12663 H 1215.09 -2.34156 4.51717 0
M  V30 12664 H 1214.49 -4.96296 2.7149 0
M  V30 12665 H 1213.04 -5.52392 3.45986 0
M  V30 12666 N 1216.48 -1.54033 -0.333429 0
M  V30 12667 C 1217.72 -1.71426 -1.0704 0
M  V30 12668 C 1218.05 -0.485496 -1.8886 0
M  V30 12669 O 1217.32 0.500555 -1.89397 0
M  V30 12670 H 1215.9 -0.632034 -0.398173 0
M  V30 12671 H 1218.56 -1.91312 -0.372252 0
M  V30 12672 H 1217.65 -2.58958 -1.74205 0
M  V30 12673 N 1217.95 0.594978 -1.45938 0
M  V30 12674 C 1219.2 1.34976 -1.49881 0
M  V30 12675 C 1219.52 1.95025 -0.14983 0
M  V30 12676 O 1220.72 2.71417 -0.0669868 0
M  V30 12677 C 1219.18 2.44563 -2.6404 0
M  V30 12678 C 1218.79 1.9087 -4.05306 0
M  V30 12679 C 1220.53 3.21461 -2.77242 0
M  V30 12680 C 1218.44 2.98013 -5.10825 0
M  V30 12681 H 1217.37 0.507366 -0.55776 0
M  V30 12682 H 1220.02 0.636316 -1.72114 0
M  V30 12683 H 1218.4 3.1865 -2.35114 0
M  V30 12684 H 1219.57 1.23408 -4.43968 0
M  V30 12685 H 1217.89 1.26678 -3.96663 0
M  V30 12686 H 1220.49 4.01399 -3.53246 0
M  V30 12687 H 1220.83 3.73271 -1.84321 0
M  V30 12688 H 1221.36 2.54477 -3.05756 0
M  V30 12689 H 1218.1 2.51104 -6.05497 0
M  V30 12690 H 1217.62 3.64003 -4.7672 0
M  V30 12691 H 1219.3 3.62178 -5.36131 0
M  V30 12692 N 1219.43 1.33438 0.838571 0
M  V30 12693 C 1220.85 1.12779 1.12929 0
M  V30 12694 C 1221.05 -0.0811188 2.01337 0
M  V30 12695 O 1220.1 -0.761294 2.4075 0
M  V30 12696 C 1221.42 2.41537 1.7911 0
M  V30 12697 C 1222.97 2.47447 1.91674 0
M  V30 12698 C 1223.44 3.76167 2.6127 0
M  V30 12699 N 1224.93 3.7724 2.68783 0
M  V30 12700 C 1225.67 4.7355 3.23323 0
M  V30 12701 N 1225.16 5.80235 3.78549 0
M  V30 12702 N 1226.96 4.61025 3.21578 0
M  V30 12703 H 1219.11 2.10921 0.250187 0
M  V30 12704 H 1221.37 0.931986 0.17351 0
M  V30 12705 H 1221.08 3.30006 1.21609 0
M  V30 12706 H 1220.95 2.53709 2.79127 0
M  V30 12707 H 1223.34 1.59427 2.48328 0
M  V30 12708 H 1223.42 2.39216 0.906058 0
M  V30 12709 H 1223.06 4.64569 2.05275 0
M  V30 12710 H 1222.99 3.81675 3.62811 0
M  V30 12711 H 1225.48 3.00138 2.29621 0
M  V30 12712 H 1225.8 6.49759 4.1837 0
M  V30 12713 H 1224.14 5.83969 3.76836 0
M  V30 12714 H 1227.33 3.76836 2.77691 0
M  V30 12715 H 1227.5 5.36253 3.63781 0
M  V30 12716 N 1220.91 -1.05686 1.16912 0
M  V30 12717 C 1222.16 -1.78862 0.955839 0
M  V30 12718 C 1222.49 -1.87257 -0.514645 0
M  V30 12719 O 1221.76 -1.36869 -1.38193 0
M  V30 12720 C 1222.05 -3.23021 1.59152 0
M  V30 12721 C 1221.9 -3.22669 3.13376 0
M  V30 12722 C 1223.22 -4.2073 1.29128 0
M  V30 12723 H 1220.34 -0.64931 0.348663 0
M  V30 12724 H 1222.98 -1.23561 1.44335 0
M  V30 12725 H 1221.13 -3.70243 1.17697 0
M  V30 12726 H 1222.8 -2.83562 3.63855 0
M  V30 12727 H 1221.05 -2.61149 3.46386 0
M  V30 12728 H 1221.72 -4.24394 3.52979 0
M  V30 12729 H 1224.19 -3.8198 1.65017 0
M  V30 12730 H 1223.07 -5.19851 1.76198 0
M  V30 12731 H 1223.33 -4.41595 0.21119 0
M  V30 12732 N 1222.39 -0.968567 -1.24324 0
M  V30 12733 C 1223.34 -0.470481 -2.23093 0
M  V30 12734 C 1224.32 0.447989 -1.54538 0
M  V30 12735 O 1225.51 0.27877 -1.74791 0
M  V30 12736 C 1222.64 0.237222 -3.42479 0
M  V30 12737 C 1221.73 -0.700126 -4.18281 0
M  V30 12738 N 1222.12 -1.83775 -4.71233 0
M  V30 12739 C 1220.42 -0.51108 -4.43062 0
M  V30 12740 C 1221.12 -2.42411 -5.28783 0
M  V30 12741 N 1220.1 -1.70918 -5.16031 0
M  V30 12742 H 1223.9 -1.33848 -2.61652 0
M  V30 12743 H 1221.41 -0.827764 -1.39721 0
M  V30 12744 H 1223.41 0.61128 -4.12394 0
M  V30 12745 H 1222.07 1.10166 -3.0544 0
M  V30 12746 H 1223.08 -2.21926 -4.67942 0
M  V30 12747 H 1219.76 0.309316 -4.16353 0
M  V30 12748 H 1221.15 -3.38417 -5.80451 0
M  V30 12749 N 1223.87 1.39211 -0.738786 0
M  V30 12750 C 1225.11 2.0004 -0.28782 0
M  V30 12751 C 1225.44 1.58921 1.13 0
M  V30 12752 O 1224.71 0.839193 1.77015 0
M  V30 12753 H 1223.29 0.739805 -0.103425 0
M  V30 12754 H 1225.95 1.70202 -0.949587 0
M  V30 12755 H 1225.04 3.10251 -0.339208 0
M  V30 12756 N 1225.34 0.486708 1.49896 0
M  V30 12757 C 1226.28 -0.345627 2.25567 0
M  V30 12758 C 1227.26 -0.982794 1.29537 0
M  V30 12759 O 1228.44 -1.01569 1.58796 0
M  V30 12760 C 1225.57 -1.48555 3.04383 0
M  V30 12761 C 1224.61 -0.964196 4.15458 0
M  V30 12762 S 1225.45 0.133631 5.35333 0
M  V30 12763 C 1226.6 -1.00979 6.17701 0
M  V30 12764 H 1226.83 0.296677 2.95816 0
M  V30 12765 H 1224.37 0.271798 1.51989 0
M  V30 12766 H 1226.33 -2.13878 3.50381 0
M  V30 12767 H 1224.99 -2.09942 2.33631 0
M  V30 12768 H 1224.18 -1.81804 4.70067 0
M  V30 12769 H 1223.78 -0.388419 3.71978 0
M  V30 12770 H 1226.07 -1.91812 6.4978 0
M  V30 12771 H 1227.02 -0.502633 7.06314 0
M  V30 12772 H 1227.42 -1.27067 5.50013 0
M  V30 12773 N 1226.82 -1.56058 0.219941 0
M  V30 12774 C 1227.73 -2.23844 -0.70222 0
M  V30 12775 C 1228.75 -1.24554 -1.215 0
M  V30 12776 O 1229.93 -1.57362 -1.25695 0
M  V30 12777 C 1226.99 -2.90384 -1.89416 0
M  V30 12778 C 1226.05 -4.05012 -1.42351 0
M  V30 12779 C 1225.28 -4.68369 -2.55863 0
M  V30 12780 O 1225.51 -4.3071 -3.73958 0
M  V30 12781 O 1224.44 -5.5739 -2.27157 0
M  V30 12782 H 1228.27 -3.03305 -0.15478 0
M  V30 12783 H 1225.85 -1.49396 -0.010438 0
M  V30 12784 H 1227.73 -3.32389 -2.59028 0
M  V30 12785 H 1226.41 -2.13883 -2.42973 0
M  V30 12786 H 1225.32 -3.67579 -0.695448 0
M  V30 12787 H 1226.65 -4.83251 -0.934332 0
M  V30 12788 N 1228.3 0.053464 -1.57509 0
M  V30 12789 C 1229.26 1.04604 -2.03938 0
M  V30 12790 C 1230.26 1.30509 -0.939357 0
M  V30 12791 O 1231.45 1.25922 -1.20371 0
M  V30 12792 C 1228.59 2.38516 -2.43563 0
M  V30 12793 H 1229.78 0.645484 -2.92871 0
M  V30 12794 H 1227.33 0.299683 -1.534 0
M  V30 12795 H 1228.07 2.83368 -1.57712 0
M  V30 12796 H 1227.85 2.2105 -3.23851 0
M  V30 12797 H 1229.34 3.09826 -2.79996 0
M  V30 12798 N 1229.78 1.54207 0.325255 0
M  V30 12799 C 1230.71 1.86467 1.40543 0
M  V30 12800 C 1231.69 0.721324 1.54048 0
M  V30 12801 O 1232.88 0.974905 1.67956 0
M  V30 12802 C 1230.01 2.09052 2.77335 0
M  V30 12803 C 1228.96 3.24893 2.78619 0
M  V30 12804 C 1228.29 3.32846 4.1847 0
M  V30 12805 C 1229.59 4.62582 2.42518 0
M  V30 12806 H 1231.28 2.76932 1.13794 0
M  V30 12807 H 1228.83 1.33248 0.545971 0
M  V30 12808 H 1230.78 2.30204 3.52964 0
M  V30 12809 H 1229.5 1.15335 3.05558 0
M  V30 12810 H 1228.16 3.03625 2.05444 0
M  V30 12811 H 1227.81 2.3669 4.43832 0
M  V30 12812 H 1227.51 4.10701 4.20237 0
M  V30 12813 H 1229.03 3.56231 4.95915 0
M  V30 12814 H 1230.45 4.83627 3.07861 0
M  V30 12815 H 1228.84 5.42974 2.55538 0
M  V30 12816 H 1229.91 4.64946 1.3767 0
M  V30 12817 N 1231.26 -0.58723 1.46251 0
M  V30 12818 C 1232.51 -1.34294 1.51028 0
M  V30 12819 C 1232.83 -1.94329 0.161623 0
M  V30 12820 O 1232.1 -1.78309 -0.811342 0
M  V30 12821 H 1230.68 -0.498607 0.556238 0
M  V30 12822 H 1233.34 -0.688074 1.8235 0
M  V30 12823 H 1232.43 -2.15197 2.26045 0
M  V30 12824 N 1232.74 -1.33881 -0.831482 0
M  V30 12825 C 1233.96 -1.28961 -1.62431 0
M  V30 12826 C 1234.39 0.135249 -1.87613 0
M  V30 12827 O 1233.74 1.09426 -1.44553 0
M  V30 12828 C 1233.79 -2.07767 -2.94729 0
M  V30 12829 O 1232.9 -1.44133 -3.86393 0
M  V30 12830 H 1232.24 -0.443313 -0.494337 0
M  V30 12831 H 1234.77 -1.76555 -1.0339 0
M  V30 12832 H 1234.78 -2.18806 -3.44366 0
M  V30 12833 H 1233.45 -3.11367 -2.75724 0
M  V30 12834 H 1232.03 -1.41784 -3.44894 0
M  V30 12835 N 1234.21 1.05064 -1.1747 0
M  V30 12836 C 1235.46 1.78089 -0.963883 0
M  V30 12837 C 1235.79 1.87766 0.507365 0
M  V30 12838 O 1235.04 1.37477 1.39279 0
M  V30 12839 C 1235.34 3.21961 -1.55164 0
M  V30 12840 C 1235.01 3.32339 -3.04732 0
M  V30 12841 C 1233.67 3.34878 -3.45557 0
M  V30 12842 C 1236.02 3.3325 -4.00741 0
M  V30 12843 C 1233.35 3.35959 -4.80987 0
M  V30 12844 C 1235.7 3.3587 -5.36073 0
M  V30 12845 C 1234.37 3.36697 -5.7636 0
M  V30 12846 H 1233.64 0.651672 -0.35271 0
M  V30 12847 H 1236.28 1.23471 -1.4638 0
M  V30 12848 H 1234.59 3.79514 -0.973471 0
M  V30 12849 H 1236.29 3.77087 -1.36406 0
M  V30 12850 H 1232.88 3.31076 -2.72188 0
M  V30 12851 H 1237.06 3.30488 -3.70258 0
M  V30 12852 H 1232.32 3.34911 -5.11512 0
M  V30 12853 H 1236.49 3.35524 -6.10243 0
M  V30 12854 H 1234.12 3.37288 -6.81279 0
M  V30 12855 O 1235.73 1.10425 1.17849 0
M  V30 12856 H 1236.42 0.80552 1.76156 0
M  V30 END ATOM
M  V30 BEGIN BOND
M  V30 END BOND
M  V30 END CTAB
M  END
$$$$
