drugbank_target|Q7KQM4 Plasmepsin-1 (DB11638)
 OpenBabel12092121103D

  0  0  0     0  0            999 V3000
M  V30 BEGIN CTAB
M  V30 COUNTS 7249 7339 0 0 0
M  V30 BEGIN ATOM
M  V30 1 H -0.908 1.98254 -0.117106 0
M  V30 2 N 0 1.576 0 0
M  V30 3 C 0.933 2.03868 1.02534 0
M  V30 4 C 1.911 0.928543 1.3348 0
M  V30 5 O 3.095 1.19667 1.45644 0
M  V30 6 C 0.222 2.43627 2.35294 0
M  V30 7 C -0.732 3.65373 2.2001 0
M  V30 8 S 0.101 5.13292 1.52614 0
M  V30 9 C 1.257 5.56322 2.86805 0
M  V30 10 H 1.49 2.90518 0.631377 0
M  V30 11 H -0.977 1.52953 0.210867 0
M  V30 12 H 0.981 2.67203 3.11629 0
M  V30 13 H -0.358 1.57376 2.7183 0
M  V30 14 H -1.165 3.90944 3.18086 0
M  V30 15 H -1.563 3.418 1.51819 0
M  V30 16 H 0.729 5.58782 3.83104 0
M  V30 17 H 1.672 6.56266 2.65933 0
M  V30 18 H 2.08 4.83886 2.90714 0
M  V30 19 N 1.4781 -0.272755 1.55222 0
M  V30 20 C 2.4411 -1.32041 1.87344 0
M  V30 21 C 3.4411 -1.42342 0.74803 0
M  V30 22 O 4.6311 -1.41488 1.0162 0
M  V30 23 C 1.7631 -2.70173 2.07893 0
M  V30 24 H 2.9561 -1.04789 2.80997 0
M  V30 25 H 0.5091 -0.51083 1.47717 0
M  V30 26 H 1.2441 -3.02605 1.16622 0
M  V30 27 H 1.0291 -2.64082 2.89833 0
M  V30 28 H 2.5191 -3.45869 2.34017 0
M  V30 29 N 2.9562 -1.48159 -0.537278 0
M  V30 30 C 3.8862 -1.65029 -1.6519 0
M  V30 31 C 4.8672 -0.499281 -1.62607 0
M  V30 32 O 6.0522 -0.730972 -1.79918 0
M  V30 33 C 3.1822 -1.68303 -3.03795 0
M  V30 34 C 2.1362 -2.8283 -3.21234 0
M  V30 35 C 1.4622 -2.71189 -4.60826 0
M  V30 36 C 2.7622 -4.24211 -3.04701 0
M  V30 37 H 4.4562 -2.58341 -1.51328 0
M  V30 38 H 2.0022 -1.24325 -0.726585 0
M  V30 39 H 3.9552 -1.78693 -3.81637 0
M  V30 40 H 2.6792 -0.715635 -3.18663 0
M  V30 41 H 1.3382 -2.71983 -2.45807 0
M  V30 42 H 0.9862 -1.72435 -4.7252 0
M  V30 43 H 0.6862 -3.48035 -4.7344 0
M  V30 44 H 2.2102 -2.83537 -5.40777 0
M  V30 45 H 3.6242 -4.3593 -3.72341 0
M  V30 46 H 2.0212 -5.01998 -3.28813 0
M  V30 47 H 3.0912 -4.41184 -2.01209 0
M  V30 48 N 4.4343 0.785586 -1.36625 0
M  V30 49 C 5.6593 1.57963 -1.34397 0
M  V30 50 C 6.0843 1.87964 0.071526 0
M  V30 51 O 5.4423 1.48182 1.0446 0
M  V30 52 C 5.4903 2.87511 -2.17646 0
M  V30 53 O 4.5943 3.81281 -1.57158 0
M  V30 54 H 3.9353 0.479014 -0.459828 0
M  V30 55 H 6.4653 0.973411 -1.79961 0
M  V30 56 H 6.4753 3.36745 -2.30362 0
M  V30 57 H 5.1503 2.65002 -3.20541 0
M  V30 58 H 3.7273 3.39885 -1.53403 0
M  V30 59 N 5.9124 1.20967 1.01018 0
M  V30 60 C 7.1614 1.01796 1.74128 0
M  V30 61 C 7.4744 -0.449691 1.90361 0
M  V30 62 O 8.6804 -0.76068 2.60626 0
M  V30 63 C 7.1364 1.7727 3.13215 0
M  V30 64 C 6.7444 3.28171 3.04972 0
M  V30 65 C 8.4884 1.66489 3.90489 0
M  V30 66 C 6.3954 3.96156 4.39107 0
M  V30 67 H 5.3254 0.377276 0.652824 0
M  V30 68 H 7.9764 1.44651 1.12909 0
M  V30 69 H 6.3584 1.27205 3.75013 0
M  V30 70 H 7.5324 3.85499 2.52443 0
M  V30 71 H 5.8474 3.39437 2.41188 0
M  V30 72 H 8.4444 2.14617 4.89738 0
M  V30 73 H 8.7874 0.6222 4.11624 0
M  V30 74 H 9.3204 2.14003 3.35332 0
M  V30 75 H 6.0594 5.00604 4.23174 0
M  V30 76 H 5.5794 3.43617 4.91617 0
M  V30 77 H 7.2584 4.00774 5.07926 0
M  V30 78 N 7.3905 -1.2043 1.01659 0
M  V30 79 C 8.3375 -2.23215 0.586822 0
M  V30 80 C 9.3075 -1.61382 -0.393085 0
M  V30 81 O 10.4925 -1.88544 -0.292525 0
M  V30 82 C 7.6325 -3.45032 -0.0687464 0
M  V30 83 C 6.7455 -4.21296 0.955724 0
M  V30 84 C 5.8805 -5.30507 0.271208 0
M  V30 85 C 4.9195 -5.98515 1.28244 0
M  V30 86 N 4.0565 -6.99316 0.62459 0
M  V30 87 H 8.8965 -2.59336 1.46796 0
M  V30 88 H 6.4335 -1.27431 0.734836 0
M  V30 89 H 8.3915 -4.1459 -0.465965 0
M  V30 90 H 7.0215 -3.09604 -0.913529 0
M  V30 91 H 6.0735 -3.50803 1.4711 0
M  V30 92 H 7.3855 -4.6803 1.72479 0
M  V30 93 H 6.5395 -6.06428 -0.18151 0
M  V30 94 H 5.2785 -4.8481 -0.530163 0
M  V30 95 H 4.2835 -5.21355 1.74554 0
M  V30 96 H 5.5085 -6.46298 2.08509 0
M  V30 97 H 3.4545 -6.55812 -0.156914 0
M  V30 98 H 3.3715 -7.44178 1.33172 0
M  V30 99 H 4.6395 -7.79255 0.195462 0
M  V30 100 N 8.8686 -0.792821 -1.36206 0
M  V30 101 C 9.7786 -0.194808 -2.3379 0
M  V30 102 C 10.7946 0.654869 -1.61206 0
M  V30 103 O 11.9706 0.569856 -1.9317 0
M  V30 104 C 9.0356 0.657721 -3.40404 0
M  V30 105 C 8.0966 -0.210849 -4.28782 0
M  V30 106 C 7.3296 0.601086 -5.30304 0
M  V30 107 O 7.5526 1.83682 -5.40016 0
M  V30 108 O 6.4866 -0.000808277 -6.019 0
M  V30 109 H 10.3126 -1.00172 -2.86704 0
M  V30 110 H 7.8976 -0.554341 -1.38735 0
M  V30 111 H 9.7796 1.14375 -4.05581 0
M  V30 112 H 8.4546 1.44247 -2.89784 0
M  V30 113 H 7.3616 -0.743714 -3.66633 0
M  V30 114 H 8.6946 -0.959195 -4.82763 0
M  V30 115 N 10.3467 1.47872 -0.545128 0
M  V30 116 C 11.6237 1.9554 0.0485222 0
M  V30 117 C 12.0037 1.4876 1.49779 0
M  V30 118 O 11.3517 0.720925 2.16829 0
M  V30 119 C 11.5617 3.48898 -0.084417 0
M  V30 120 C 12.9097 4.24547 0.0671239 0
M  V30 121 O 13.9337 3.56198 -0.0113649 0
M  V30 122 O 12.7927 5.45999 0.233882 0
M  V30 123 H 9.8867 0.823957 0.0708773 0
M  V30 124 H 12.4327 1.58327 -0.610798 0
M  V30 125 H 11.2047 3.75714 -1.09337 0
M  V30 126 H 10.8277 3.92845 0.613066 0
M  V30 127 N 11.8248 0.280983 1.55075 0
M  V30 128 C 13.0718 -0.334115 1.99725 0
M  V30 129 C 13.3998 -1.5542 1.1694 0
M  V30 130 O 12.6548 -1.94361 0.228531 0
M  V30 131 C 12.9538 -0.754656 3.49342 0
M  V30 132 C 12.6198 0.361445 4.49449 0
M  V30 133 C 11.2818 0.667893 4.76542 0
M  V30 134 C 13.6338 1.11322 5.09173 0
M  V30 135 C 10.9618 1.7296 5.60626 0
M  V30 136 C 13.3138 2.1647 5.9441 0
M  V30 137 C 11.9778 2.47742 6.19822 0
M  V30 138 H 11.2478 -0.122261 0.730844 0
M  V30 139 H 13.8948 0.395917 1.87363 0
M  V30 140 H 12.1998 -1.56446 3.5921 0
M  V30 141 H 13.8968 -1.24142 3.813 0
M  V30 142 H 10.4868 0.112481 4.28452 0
M  V30 143 H 14.6708 0.88973 4.8826 0
M  V30 144 H 9.9268 1.97684 5.78559 0
M  V30 145 H 14.1008 2.75193 6.3972 0
M  V30 146 H 11.7278 3.30145 6.84769 0
M  V30 147 N 13.3029 -1.57598 0.00835791 0
M  V30 148 C 14.5279 -1.95617 -0.689103 0
M  V30 149 C 14.9529 -0.883753 -1.66046 0
M  V30 150 O 14.3109 0.157352 -1.80616 0
M  V30 151 C 14.3589 -3.32736 -1.38994 0
M  V30 152 O 13.4629 -3.27631 -2.50463 0
M  V30 153 H 12.8039 -0.638379 -0.182668 0
M  V30 154 H 15.3339 -2.045 0.064036 0
M  V30 155 H 15.3439 -3.68494 -1.75147 0
M  V30 156 H 14.0189 -4.1034 -0.677778 0
M  V30 157 H 12.5959 -3.03561 -2.16576 0
M  V30 158 N 14.781 0.264519 -1.55364 0
M  V30 159 C 16.006 1.01726 -1.80739 0
M  V30 160 C 16.431 1.78836 -0.583044 0
M  V30 161 O 15.789 1.75167 0.467566 0
M  V30 162 C 15.837 1.94482 -3.03659 0
M  V30 163 O 14.941 3.03386 -2.7934 0
M  V30 164 H 14.282 0.290395 -0.597132 0
M  V30 165 H 16.812 0.290854 -2.02522 0
M  V30 166 H 16.822 2.36278 -3.32621 0
M  V30 167 H 15.497 1.37772 -3.92418 0
M  V30 168 H 14.074 2.65844 -2.61498 0
M  V30 169 N 16.2591 1.48442 0.529413 0
M  V30 170 C 17.2221 1.62524 1.61612 0
M  V30 171 C 18.2221 0.498509 1.52877 0
M  V30 172 O 19.4121 0.76431 1.56537 0
M  V30 173 C 16.5441 1.59597 3.01233 0
M  V30 174 H 17.7371 2.59423 1.50465 0
M  V30 175 H 15.2901 1.37047 0.751514 0
M  V30 176 H 16.0251 0.641781 3.17886 0
M  V30 177 H 15.8101 2.41397 3.08982 0
M  V30 178 H 17.3001 1.72646 3.80241 0
M  V30 179 N 17.7372 -0.778329 1.37039 0
M  V30 180 C 18.9842 -1.53665 1.31884 0
M  V30 181 C 19.3122 -1.9425 -0.0986303 0
M  V30 182 O 18.5672 -1.63832 -1.07041 0
M  V30 183 C 18.8662 -2.81845 2.19768 0
M  V30 184 C 18.5322 -2.60345 3.68146 0
M  V30 185 C 17.1942 -2.5419 4.08584 0
M  V30 186 C 19.5462 -2.40923 4.62175 0
M  V30 187 C 16.8742 -2.26594 5.41177 0
M  V30 188 C 19.2262 -2.14852 5.94997 0
M  V30 189 C 17.8902 -2.07137 6.34547 0
M  V30 190 H 17.1602 -0.562299 0.482598 0
M  V30 191 H 19.8072 -0.897069 1.69189 0
M  V30 192 H 18.1122 -3.50328 1.75436 0
M  V30 193 H 19.8092 -3.39692 2.13097 0
M  V30 194 H 16.3992 -2.65996 3.36072 0
M  V30 195 H 20.5832 -2.44673 4.31797 0
M  V30 196 H 15.8392 -2.19111 5.70789 0
M  V30 197 H 20.0132 -1.98822 6.67415 0
M  V30 198 H 17.6402 -1.85518 7.37216 0
M  V30 199 N 19.2153 -1.21501 -1.00376 0
M  V30 200 C 20.1783 -0.976927 -2.07337 0
M  V30 201 C 21.1783 0.0525322 -1.60714 0
M  V30 202 O 22.3683 -0.184869 -1.73216 0
M  V30 203 C 19.5003 -0.473423 -3.37597 0
M  V30 204 H 20.6933 -1.92587 -2.29892 0
M  V30 205 H 18.2463 -1.03217 -1.17371 0
M  V30 206 H 18.9813 0.480379 -3.20722 0
M  V30 207 H 18.7663 -1.216 -3.72768 0
M  V30 208 H 20.2563 -0.32675 -4.1632 0
M  V30 209 N 20.6934 1.19889 -1.02296 0
M  V30 210 C 21.6404 2.22901 -0.598651 0
M  V30 211 C 22.6104 1.61588 0.384521 0
M  V30 212 O 23.7954 1.88697 0.282522 0
M  V30 213 C 20.9354 3.45063 0.0504476 0
M  V30 214 C 20.0484 4.20783 -0.978053 0
M  V30 215 C 19.1834 5.30356 -0.299338 0
M  V30 216 C 18.2224 5.97826 -1.31416 0
M  V30 217 N 17.3594 6.98975 -0.661667 0
M  V30 218 H 22.1994 2.58554 -1.48169 0
M  V30 219 H 19.7364 1.27039 -0.741584 0
M  V30 220 H 21.6944 4.14831 0.443971 0
M  V30 221 H 20.3244 3.10084 0.897097 0
M  V30 222 H 19.3764 3.50018 -1.48969 0
M  V30 223 H 20.6884 4.67109 -1.74958 0
M  V30 224 H 19.8424 6.06516 0.149347 0
M  V30 225 H 18.5814 4.85084 0.504445 0
M  V30 226 H 17.5864 5.20422 -1.77317 0
M  V30 227 H 18.8114 6.45183 -2.11933 0
M  V30 228 H 16.7574 6.55886 0.122132 0
M  V30 229 H 16.6744 7.43461 -1.37117 0
M  V30 230 H 17.9424 7.7914 -0.236785 0
M  V30 231 N 22.1715 0.800033 1.35784 0
M  V30 232 C 23.1195 0.193851 2.31791 0
M  V30 233 C 24.1135 -0.652744 1.56319 0
M  V30 234 O 25.3195 -0.546641 1.71499 0
M  V30 235 H 21.6945 0.04392 0.750716 0
M  V30 236 H 23.6655 1.01883 2.80468 0
M  V30 237 C 22.4145 -0.648338 3.41602 0
M  V30 238 H 21.7375 -0.00624665 3.998 0
M  V30 239 H 23.1775 -1.03898 4.11073 0
M  V30 240 C 21.6365 -1.8111 2.84079 0
M  V30 241 O 22.1665 -2.90825 2.77099 0
M  V30 242 N 20.3725 -1.62056 2.41218 0
M  V30 243 H 19.9195 -0.728123 2.47095 0
M  V30 244 H 19.8775 -2.40013 2.03079 0
M  V30 245 N 23.6496 -1.47581 0.552962 0
M  V30 246 C 24.5596 -2.33743 -0.200353 0
M  V30 247 C 25.5756 -1.47928 -0.916151 0
M  V30 248 O 26.7516 -1.80865 -0.885993 0
M  V30 249 C 23.8166 -3.24536 -1.21973 0
M  V30 250 C 22.8776 -4.26238 -0.511819 0
M  V30 251 C 22.1106 -5.12693 -1.48263 0
M  V30 252 O 22.3336 -5.01525 -2.71714 0
M  V30 253 O 21.2676 -5.93375 -1.00945 0
M  V30 254 H 25.0936 -2.9945 0.506304 0
M  V30 255 H 22.6786 -1.46071 0.313622 0
M  V30 256 H 24.5606 -3.80631 -1.80827 0
M  V30 257 H 23.2356 -2.61462 -1.90839 0
M  V30 258 H 22.1426 -3.73914 0.117799 0
M  V30 259 H 23.4756 -4.92014 0.135308 0
M  V30 260 N 25.1277 -0.289203 -1.54924 0
M  V30 261 C 26.3527 0.329299 -2.04769 0
M  V30 262 C 26.7777 1.4763 -1.16564 0
M  V30 263 O 26.1357 1.80527 -0.167186 0
M  V30 264 C 26.1837 0.774438 -3.52186 0
M  V30 265 O 25.2877 1.88038 -3.67036 0
M  V30 266 H 24.6287 0.0659259 -0.660719 0
M  V30 267 H 27.1587 -0.42761 -2.00082 0
M  V30 268 H 27.1687 1.06642 -3.93816 0
M  V30 269 H 25.8437 -0.0646707 -4.1585 0
M  V30 270 H 24.4207 1.58985 -3.3731 0
M  V30 271 N 26.6058 1.57591 -0.0167156 0
M  V30 272 C 27.5688 2.08393 0.954204 0
M  V30 273 C 28.5688 0.996531 1.26198 0
M  V30 274 O 29.7588 1.25858 1.20438 0
M  V30 275 C 26.8908 2.5394 2.27436 0
M  V30 276 H 28.0838 2.95455 0.514451 0
M  V30 277 H 25.6368 1.54582 0.231089 0
M  V30 278 H 26.3718 1.70171 2.76066 0
M  V30 279 H 26.1568 3.33371 2.06412 0
M  V30 280 H 27.6468 2.93512 2.97053 0
M  V30 281 N 28.0839 -0.256276 1.55502 0
M  V30 282 C 29.3299 -0.987079 1.77157 0
M  V30 283 C 29.6629 -1.85327 0.580315 0
M  V30 284 O 28.9379 -1.89874 -0.421686 0
M  V30 285 C 29.2209 -1.85553 3.08613 0
M  V30 286 C 29.0739 -1.01816 4.38125 0
M  V30 287 C 30.3929 -2.8397 3.36228 0
M  V30 288 H 27.5119 -0.357428 0.644526 0
M  V30 289 H 30.1539 -0.258239 1.88237 0
M  V30 290 H 28.3039 -2.47695 2.99298 0
M  V30 291 H 29.9759 -0.416159 4.59419 0
M  V30 292 H 28.2189 -0.322178 4.32602 0
M  V30 293 H 28.8899 -1.65939 5.26468 0
M  V30 294 H 31.3659 -2.31964 3.45445 0
M  V30 295 H 30.2419 -3.41864 4.29442 0
M  V30 296 H 30.5029 -3.59955 2.56681 0
M  V30 297 N 29.562 -1.4872 -0.521534 0
M  V30 298 C 30.51 -1.64328 -1.64618 0
M  V30 299 C 31.504 -0.50953 -1.61555 0
M  V30 300 O 32.71 -0.688525 -1.66311 0
M  V30 301 H 29.085 -0.517805 -0.545328 0
M  V30 302 H 31.056 -2.58767 -1.48601 0
M  V30 303 C 29.805 -1.70805 -3.02855 0
M  V30 304 H 29.128 -2.5741 -3.05909 0
M  V30 305 H 30.568 -1.85766 -3.81139 0
M  V30 306 C 29.027 -0.448479 -3.33902 0
M  V30 307 O 29.557 0.434928 -3.99339 0
M  V30 308 N 27.763 -0.317616 -2.88859 0
M  V30 309 H 27.31 -1.03748 -2.35784 0
M  V30 310 H 27.268 0.524113 -3.10001 0
M  V30 311 N 31.0401 0.771051 -1.3745 0
M  V30 312 C 32.2651 1.56529 -1.36065 0
M  V30 313 C 32.6901 1.88029 0.0515859 0
M  V30 314 O 32.0481 1.49282 1.02882 0
M  V30 315 C 32.0961 2.85187 -2.20683 0
M  V30 316 O 31.2001 3.79593 -1.61193 0
M  V30 317 H 30.5411 0.47411 -0.464883 0
M  V30 318 H 33.0711 0.954269 -1.80983 0
M  V30 319 H 33.0811 3.34283 -2.33921 0
M  V30 320 H 31.7561 2.61588 -3.23334 0
M  V30 321 H 30.3331 3.38239 -1.56999 0
M  V30 322 N 32.5182 1.22032 0.997298 0
M  V30 323 C 33.7432 1.06921 1.77715 0
M  V30 324 C 34.1682 -0.376226 1.84299 0
M  V30 325 O 33.5262 -1.27165 1.29223 0
M  V30 326 C 33.5742 1.67996 3.19076 0
M  V30 327 O 32.6782 0.930653 4.01762 0
M  V30 328 H 32.0192 0.375814 0.547412 0
M  V30 329 H 34.5492 1.61737 1.25309 0
M  V30 330 H 34.5592 1.72538 3.69723 0
M  V30 331 H 33.2342 2.73182 3.13599 0
M  V30 332 H 31.8112 0.960917 3.60307 0
M  V30 333 N 33.9963 -1.19345 1.0293 0
M  V30 334 C 35.2243 -1.92997 0.745644 0
M  V30 335 C 35.6393 -1.75519 -0.695589 0
M  V30 336 O 34.9963 -1.07737 -1.47306 0
M  V30 337 C 35.0473 -3.44741 1.08792 0
M  V30 338 O 34.7683 -3.61658 2.47256 0
M  V30 339 C 36.2693 -4.35515 0.827129 0
M  V30 340 H 33.4893 -0.613042 0.272801 0
M  V30 341 H 36.0333 -1.51473 1.3739 0
M  V30 342 H 34.1883 -3.84097 0.504832 0
M  V30 343 H 34.6023 -4.55514 2.60015 0
M  V30 344 H 36.0763 -5.40589 1.11658 0
M  V30 345 H 36.5533 -4.38552 -0.238436 0
M  V30 346 H 37.1593 -4.01841 1.39297 0
M  V30 347 N 35.4744 -0.807222 -1.35358 0
M  V30 348 C 36.7214 -0.387888 -1.9875 0
M  V30 349 C 37.0494 1.04509 -1.64037 0
M  V30 350 O 36.3044 1.73986 -0.895946 0
M  V30 351 C 36.6034 -0.519036 -3.53611 0
M  V30 352 C 36.2694 -1.91542 -4.08194 0
M  V30 353 C 34.9314 -2.29745 -4.22813 0
M  V30 354 C 37.2834 -2.82896 -4.37744 0
M  V30 355 C 34.6114 -3.58668 -4.643 0
M  V30 356 C 36.9634 -4.11265 -4.8067 0
M  V30 357 C 35.6274 -4.49466 -4.93494 0
M  V30 358 H 34.8974 -0.141938 -0.727279 0
M  V30 359 H 37.5444 -1.02814 -1.6156 0
M  V30 360 H 35.8494 0.204658 -3.91265 0
M  V30 361 H 37.5464 -0.175345 -4.00616 0
M  V30 362 H 34.1364 -1.60862 -3.97268 0
M  V30 363 H 38.3204 -2.54629 -4.26002 0
M  V30 364 H 33.5764 -3.88113 -4.72418 0
M  V30 365 H 37.7504 -4.82153 -5.02496 0
M  V30 366 H 35.3774 -5.49418 -5.25399 0
M  V30 367 N 36.9525 1.47285 -0.560781 0
M  V30 368 C 37.9005 2.31756 0.197942 0
M  V30 369 C 38.8945 1.43146 0.905854 0
M  V30 370 O 40.1005 1.59891 0.826733 0
M  V30 371 H 36.4755 0.747438 0.0827049 0
M  V30 372 H 38.4465 2.9359 -0.533629 0
M  V30 373 C 37.1955 3.25874 1.21249 0
M  V30 374 H 36.5185 3.94023 0.67719 0
M  V30 375 H 37.9585 3.87803 1.71419 0
M  V30 376 C 36.4175 2.49651 2.26221 0
M  V30 377 O 36.9475 2.24355 3.33208 0
M  V30 378 N 35.1535 2.10597 2.00243 0
M  V30 379 H 34.7005 2.31369 1.13252 0
M  V30 380 H 34.6585 1.59913 2.70694 0
M  V30 381 N 38.4306 0.297415 1.54768 0
M  V30 382 C 39.3786 -0.596051 2.24833 0
M  V30 383 C 40.3726 -1.13992 1.25308 0
M  V30 384 O 41.5786 -1.09098 1.4317 0
M  V30 385 H 37.9536 -0.210814 0.721846 0
M  V30 386 H 39.9246 0.0174667 2.98395 0
M  V30 387 C 38.6736 -1.75818 2.99972 0
M  V30 388 H 37.9966 -1.3489 3.76357 0
M  V30 389 H 39.4366 -2.35949 3.52284 0
M  V30 390 C 37.8956 -2.66014 2.06732 0
M  V30 391 O 38.4256 -3.67009 1.63302 0
M  V30 392 N 36.6316 -2.33669 1.72763 0
M  V30 393 H 36.1786 -1.51586 2.08277 0
M  V30 394 H 36.1366 -2.94285 1.10652 0
M  V30 395 N 39.9087 -1.5758 0.0250728 0
M  V30 396 C 40.8567 -2.11125 -0.97617 0
M  V30 397 C 41.8507 -1.03689 -1.33959 0
M  V30 398 O 43.0567 -1.22128 -1.3223 0
M  V30 399 H 39.4317 -0.674468 -0.332561 0
M  V30 400 H 41.4027 -2.94194 -0.499223 0
M  V30 401 C 40.1517 -2.65017 -2.2508 0
M  V30 402 H 39.4747 -3.47333 -1.9799 0
M  V30 403 H 40.9147 -3.06133 -2.93357 0
M  V30 404 C 39.3737 -1.57574 -2.97779 0
M  V30 405 O 39.9037 -0.973203 -3.89733 0
M  V30 406 N 38.1097 -1.29716 -2.60043 0
M  V30 407 H 37.6567 -1.789 -1.85345 0
M  V30 408 H 37.6147 -0.58051 -3.08994 0
M  V30 409 N 41.3868 0.248026 -1.55636 0
M  V30 410 C 42.3198 1.3334 -1.85191 0
M  V30 411 C 43.2978 1.46429 -0.706906 0
M  V30 412 O 44.4818 1.62662 -0.952544 0
M  V30 413 C 41.6088 2.70703 -2.03562 0
M  V30 414 C 40.6548 2.7477 -3.26196 0
M  V30 415 S 41.4878 2.31493 -4.82878 0
M  V30 416 C 42.6438 3.70783 -5.04253 0
M  V30 417 H 42.8768 1.08072 -2.76962 0
M  V30 418 H 40.4098 0.448952 -1.47729 0
M  V30 419 H 42.3678 3.49798 -2.1483 0
M  V30 420 H 41.0288 2.9321 -1.12635 0
M  V30 421 H 40.2218 3.75648 -3.36013 0
M  V30 422 H 39.8238 2.03719 -3.13647 0
M  V30 423 H 42.1158 4.6627 -4.91527 0
M  V30 424 H 43.0588 3.65901 -6.06236 0
M  V30 425 H 43.4668 3.63244 -4.32105 0
M  V30 426 N 42.8649 1.48995 0.513639 0
M  V30 427 C 43.8119 1.6473 1.61656 0
M  V30 428 C 44.7819 0.488984 1.58739 0
M  V30 429 O 45.9669 0.714478 1.76918 0
M  V30 430 C 43.1069 1.7082 2.99858 0
M  V30 431 C 42.2199 2.9787 3.12885 0
M  V30 432 C 41.3549 2.95017 4.41744 0
M  V30 433 C 40.3939 4.16702 4.48359 0
M  V30 434 N 39.5309 4.11832 5.68629 0
M  V30 435 H 44.3709 2.58909 1.47547 0
M  V30 436 H 41.9079 1.28382 0.71808 0
M  V30 437 H 43.8659 1.72331 3.79944 0
M  V30 438 H 42.4959 0.801181 3.12699 0
M  V30 439 H 41.5479 3.06029 2.25944 0
M  V30 440 H 42.8599 3.8786 3.13633 0
M  V30 441 H 42.0139 2.95021 5.30139 0
M  V30 442 H 40.7529 2.02784 4.43542 0
M  V30 443 H 39.7579 4.16955 3.58369 0
M  V30 444 H 40.9829 5.10113 4.48287 0
M  V30 445 H 38.9289 3.22428 5.71293 0
M  V30 446 H 38.8459 4.95543 5.7094 0
M  V30 447 H 40.1139 4.1592 6.59266 0
M  V30 448 N 44.343 -0.763751 1.37857 0
M  V30 449 C 45.571 -1.55293 1.36718 0
M  V30 450 C 45.986 -1.88745 -0.0455434 0
M  V30 451 O 45.343 -1.52039 -1.00947 0
M  V30 452 C 45.394 -2.85831 2.2132 0
M  V30 453 O 45.115 -2.5381 3.57089 0
M  V30 454 C 46.616 -3.80023 2.28249 0
M  V30 455 H 43.836 -0.480841 0.468009 0
M  V30 456 H 46.38 -0.946009 1.81303 0
M  V30 457 H 44.535 -3.42926 1.80223 0
M  V30 458 H 44.949 -3.37459 4.01524 0
M  V30 459 H 46.423 -4.68599 2.91752 0
M  V30 460 H 46.9 -4.1973 1.2932 0
M  V30 461 H 47.506 -3.28855 2.69693 0
M  V30 462 N 45.8211 -1.22559 -0.990812 0
M  V30 463 C 47.0671 -1.06303 -1.73411 0
M  V30 464 C 47.4221 0.397442 -1.8825 0
M  V30 465 O 46.7151 1.29062 -1.41611 0
M  V30 466 C 46.9091 -1.71011 -3.13831 0
M  V30 467 C 46.7381 -3.232 -3.12685 0
M  V30 468 C 45.5081 -3.92314 -3.18461 0
M  V30 469 C 47.7061 -4.20107 -2.96673 0
M  V30 470 N 45.6881 -5.31571 -3.07091 0
M  V30 471 C 47.0591 -5.46208 -2.93354 0
M  V30 472 C 49.1141 -4.10973 -2.8108 0
M  V30 473 C 47.8171 -6.64225 -2.76039 0
M  V30 474 C 49.8431 -5.28642 -2.65126 0
M  V30 475 C 49.2051 -6.53663 -2.62496 0
M  V30 476 H 45.3041 -0.443441 -0.644115 0
M  V30 477 H 47.8881 -1.55131 -1.17654 0
M  V30 478 H 46.0591 -1.2473 -3.67827 0
M  V30 479 H 47.7911 -1.47828 -3.76735 0
M  V30 480 H 44.5461 -3.43326 -3.26227 0
M  V30 481 H 44.9701 -6.0455 -3.0471 0
M  V30 482 H 49.6121 -3.15098 -2.8191 0
M  V30 483 H 47.3301 -7.60246 -2.73954 0
M  V30 484 H 50.9161 -5.23407 -2.54039 0
M  V30 485 H 49.7961 -7.43182 -2.50302 0
M  V30 486 N 47.2992 1.18797 -1.03562 0
M  V30 487 C 48.2462 2.22253 -0.622259 0
M  V30 488 C 49.2162 1.61987 0.36736 0
M  V30 489 O 50.4012 1.88986 0.262492 0
M  V30 490 C 47.5412 3.45097 0.0138462 0
M  V30 491 C 46.6542 4.19722 -1.02263 0
M  V30 492 C 45.7892 5.30009 -0.355573 0
M  V30 493 C 44.8282 5.96399 -1.37749 0
M  V30 494 N 43.9652 6.98234 -0.735766 0
M  V30 495 H 48.8052 2.56968 -1.50903 0
M  V30 496 H 46.3422 1.26245 -0.755017 0
M  V30 497 H 48.3002 4.15279 0.399948 0
M  V30 498 H 46.9302 3.11018 0.864158 0
M  V30 499 H 45.9822 3.48418 -1.52673 0
M  V30 500 H 47.2942 4.65227 -1.79903 0
M  V30 501 H 46.4482 6.0664 0.0850095 0
M  V30 502 H 45.1872 4.85592 0.452967 0
M  V30 503 H 44.1922 5.18512 -1.82826 0
M  V30 504 H 45.4172 6.42899 -2.18764 0
M  V30 505 H 43.3632 6.55979 0.0525597 0
M  V30 506 H 43.2802 7.41965 -1.44995 0
M  V30 507 H 44.5482 7.78845 -0.31941 0
M  V30 508 N 48.7773 0.814389 1.34928 0
M  V30 509 C 50.0263 0.394871 1.97797 0
M  V30 510 C 50.3393 -1.04555 1.65311 0
M  V30 511 O 51.5453 -1.56856 2.21604 0
M  V30 512 C 50.0013 0.655103 3.53888 0
M  V30 513 C 49.6093 2.10858 3.95276 0
M  V30 514 C 51.3533 0.301329 4.23429 0
M  V30 515 C 49.2603 2.31415 5.44244 0
M  V30 516 H 48.1903 0.143913 0.740139 0
M  V30 517 H 50.8413 0.999544 1.53888 0
M  V30 518 H 49.2233 -0.0196253 3.95995 0
M  V30 519 H 50.3973 2.82176 3.64298 0
M  V30 520 H 48.7123 2.42297 3.38646 0
M  V30 521 H 51.3093 0.432869 5.32945 0
M  V30 522 H 51.6523 -0.75331 4.09428 0
M  V30 523 H 52.1853 0.930288 3.86769 0
M  V30 524 H 48.9243 3.35353 5.63222 0
M  V30 525 H 48.4443 1.6463 5.76764 0
M  V30 526 H 50.1233 2.13352 6.10811 0
M  V30 527 N 50.2554 -1.46986 0.568584 0
M  V30 528 C 51.1874 -2.28233 -0.210337 0
M  V30 529 C 52.2004 -1.37682 -0.868767 0
M  V30 530 O 53.3894 -1.62406 -0.740705 0
M  V30 531 C 50.4894 -3.12293 -1.3163 0
M  V30 532 C 49.6624 -4.30878 -0.7525 0
M  V30 533 C 48.7214 -4.96445 -1.74439 0
M  V30 534 O 47.7474 -5.54482 -1.286 0
M  V30 535 N 48.9494 -4.92171 -3.07812 0
M  V30 536 H 51.7144 -2.95723 0.486648 0
M  V30 537 H 49.2754 -1.56742 0.405409 0
M  V30 538 H 51.2674 -3.53022 -1.97883 0
M  V30 539 H 49.8374 -2.46971 -1.91636 0
M  V30 540 H 49.0574 -3.94104 0.0871128 0
M  V30 541 H 50.3454 -5.07558 -0.35536 0
M  V30 542 H 49.7434 -4.46239 -3.47688 0
M  V30 543 H 48.3004 -5.36884 -3.69592 0
M  V30 544 N 51.7335 -0.305618 -1.54608 0
M  V30 545 C 52.6805 0.568421 -2.23691 0
M  V30 546 C 53.6505 1.12592 -1.22116 0
M  V30 547 O 54.8355 1.16959 -1.50749 0
M  V30 548 C 51.9755 1.7322 -2.98477 0
M  V30 549 C 51.0885 1.20566 -4.14835 0
M  V30 550 C 50.2235 2.33368 -4.77193 0
M  V30 551 C 49.2625 1.7787 -5.85686 0
M  V30 552 N 48.3995 2.84263 -6.4198 0
M  V30 553 H 53.2395 -0.0272867 -2.97988 0
M  V30 554 H 50.7765 -0.0252363 -1.47078 0
M  V30 555 H 52.7345 2.41675 -3.40072 0
M  V30 556 H 51.3645 2.29947 -2.26548 0
M  V30 557 H 50.4165 0.413223 -3.78149 0
M  V30 558 H 51.7285 0.759417 -4.92985 0
M  V30 559 H 50.8825 3.09761 -5.21664 0
M  V30 560 H 49.6215 2.8132 -3.98385 0
M  V30 561 H 48.6265 0.99968 -5.40635 0
M  V30 562 H 49.8515 1.30816 -6.66381 0
M  V30 563 H 47.7975 3.31541 -5.66053 0
M  V30 564 H 47.7145 2.44149 -7.15491 0
M  V30 565 H 48.9825 3.6054 -6.91109 0
M  V30 566 N 53.2116 1.57565 -0.0334293 0
M  V30 567 C 54.6276 1.56297 0.322997 0
M  V30 568 C 54.8276 1.03945 1.7262 0
M  V30 569 O 53.8836 0.688109 2.42943 0
M  V30 570 C 55.1966 3.00232 0.167664 0
M  V30 571 C 56.7446 3.12078 0.240107 0
M  V30 572 C 57.2196 4.57859 0.113513 0
M  V30 573 N 58.7106 4.62887 0.170359 0
M  V30 574 C 59.4456 5.73319 0.0962517 0
M  V30 575 N 58.9416 6.92794 -0.0291881 0
M  V30 576 N 60.7346 5.61898 0.150551 0
M  V30 577 H 52.8856 1.89923 -0.950956 0
M  V30 578 H 55.1486 0.873824 -0.367608 0
M  V30 579 H 54.8546 3.42501 -0.799102 0
M  V30 580 H 54.7286 3.654 0.936083 0
M  V30 581 H 57.1156 2.69718 1.19733 0
M  V30 582 H 57.1966 2.49623 -0.558763 0
M  V30 583 H 56.8406 5.009 -0.840314 0
M  V30 584 H 56.7706 5.18299 0.931302 0
M  V30 585 H 59.2616 3.76954 0.26728 0
M  V30 586 H 59.5746 7.7276 -0.0789252 0
M  V30 587 H 57.9196 6.94971 -0.0640299 0
M  V30 588 H 61.1106 4.67448 0.246981 0
M  V30 589 H 61.2836 6.47938 0.0893365 0
M  V30 590 N 54.6897 -0.239769 1.55765 0
M  V30 591 C 55.9367 -0.966801 1.7793 0
M  V30 592 C 56.2647 -1.85046 0.599015 0
M  V30 593 O 55.5197 -1.91197 -0.417395 0
M  V30 594 C 55.8187 -1.852 3.05672 0
M  V30 595 C 55.4847 -1.1231 4.36689 0
M  V30 596 C 54.1467 -0.921689 4.72291 0
M  V30 597 C 56.4987 -0.607019 5.17653 0
M  V30 598 C 53.8267 -0.191996 5.86386 0
M  V30 599 C 56.1787 0.109241 6.32506 0
M  V30 600 C 54.8427 0.322073 6.66723 0
M  V30 601 H 54.1127 -0.353778 0.651093 0
M  V30 602 H 56.7597 -0.23634 1.90036 0
M  V30 603 H 55.0647 -2.64975 2.8861 0
M  V30 604 H 56.7617 -2.41635 3.20021 0
M  V30 605 H 53.3517 -1.29004 4.08725 0
M  V30 606 H 57.5357 -0.750153 4.90598 0
M  V30 607 H 52.7917 -0.0166949 6.11398 0
M  V30 608 H 56.9657 0.516737 6.9448 0
M  V30 609 H 54.5927 0.88944 7.54979 0
M  V30 610 N 56.1678 -1.49265 -0.50573 0
M  V30 611 C 57.0998 -1.617 -1.62437 0
M  V30 612 C 58.1128 -0.499924 -1.54934 0
M  V30 613 O 59.3018 -0.771785 -1.60953 0
M  V30 614 C 56.4018 -1.5533 -3.01207 0
M  V30 615 C 55.5748 -2.8249 -3.33943 0
M  V30 616 C 54.6338 -2.69238 -4.52103 0
M  V30 617 O 53.6598 -3.43167 -4.5412 0
M  V30 618 N 54.8618 -1.80468 -5.51735 0
M  V30 619 H 57.6268 -2.58177 -1.52199 0
M  V30 620 H 55.1878 -1.46294 -0.693511 0
M  V30 621 H 57.1798 -1.44125 -3.78167 0
M  V30 622 H 55.7498 -0.667297 -3.05395 0
M  V30 623 H 54.9698 -3.08081 -2.45926 0
M  V30 624 H 56.2578 -3.66802 -3.5261 0
M  V30 625 H 55.6558 -1.19653 -5.52901 0
M  V30 626 H 54.2128 -1.75188 -6.27816 0
M  V30 627 N 57.6459 0.756429 -1.3826 0
M  V30 628 C 58.8949 1.51082 -1.3363 0
M  V30 629 C 59.2079 1.95467 0.0720068 0
M  V30 630 O 60.4139 2.7043 0.240834 0
M  V30 631 C 58.8699 2.72893 -2.34644 0
M  V30 632 C 58.4779 2.35544 -3.81081 0
M  V30 633 C 60.2219 3.50791 -2.39052 0
M  V30 634 C 58.1289 3.53948 -4.73787 0
M  V30 635 H 57.0589 0.56727 -0.49671 0
M  V30 636 H 59.7099 0.827147 -1.638 0
M  V30 637 H 58.0919 3.43227 -1.97513 0
M  V30 638 H 59.2659 1.72894 -4.27135 0
M  V30 639 H 57.5809 1.70786 -3.79764 0
M  V30 640 H 60.1779 4.38823 -3.05513 0
M  V30 641 H 60.5209 3.91745 -1.40861 0
M  V30 642 H 61.0539 2.87467 -2.74968 0
M  V30 643 H 57.7929 3.18064 -5.73163 0
M  V30 644 H 57.3129 4.15651 -4.32428 0
M  V30 645 H 58.9919 4.20566 -4.91663 0
M  V30 646 N 59.124 1.23083 0.984299 0
M  V30 647 C 60.054 1.03292 2.09411 0
M  V30 648 C 61.035 -0.048923 1.7003 0
M  V30 649 O 62.22 0.114967 1.93859 0
M  V30 650 C 59.35 0.619155 3.41736 0
M  V30 651 C 58.304 1.64791 3.95004 0
M  V30 652 C 57.63 1.0897 5.23478 0
M  V30 653 C 58.93 3.03999 4.24714 0
M  V30 654 H 60.624 1.96119 2.26225 0
M  V30 655 H 58.17 0.944344 1.08711 0
M  V30 656 H 60.123 0.467777 4.18796 0
M  V30 657 H 58.847 -0.344786 3.24775 0
M  V30 658 H 57.506 1.78721 3.20085 0
M  V30 659 H 57.154 0.11686 5.02864 0
M  V30 660 H 56.854 1.77704 5.60085 0
M  V30 661 H 58.378 0.950093 6.03163 0
M  V30 662 H 59.792 2.93393 4.92538 0
M  V30 663 H 58.189 3.69936 4.72512 0
M  V30 664 H 59.259 3.53285 3.32142 0
M  V30 665 N 60.6021 -1.18246 1.0419 0
M  V30 666 C 61.8321 -1.91916 0.764961 0
M  V30 667 C 62.2401 -1.76485 -0.681898 0
M  V30 668 O 61.5831 -1.09275 -1.47664 0
M  V30 669 C 61.6451 -3.4373 1.05309 0
M  V30 670 C 61.3091 -3.8294 2.4941 0
M  V30 671 C 62.3061 -3.86621 3.47592 0
M  V30 672 C 59.9911 -4.142 2.84155 0
M  V30 673 C 61.9851 -4.21013 4.78568 0
M  V30 674 C 59.6721 -4.48262 4.15337 0
M  V30 675 C 60.6701 -4.51645 5.12353 0
M  V30 676 O 60.3581 -4.84911 6.41183 0
M  V30 677 H 60.0901 -0.61606 0.278292 0
M  V30 678 H 62.6441 -1.50947 1.39299 0
M  V30 679 H 60.8741 -3.84946 0.367933 0
M  V30 680 H 62.5631 -3.9865 0.763752 0
M  V30 681 H 63.3291 -3.62607 3.22089 0
M  V30 682 H 59.2081 -4.10743 2.09311 0
M  V30 683 H 62.7521 -4.23568 5.54289 0
M  V30 684 H 58.6491 -4.71737 4.40607 0
M  V30 685 H 59.4171 -5.02809 6.45852 0
M  V30 686 N 62.0802 -0.821533 -1.34494 0
M  V30 687 C 63.3262 -0.409552 -1.98622 0
M  V30 688 C 63.6592 1.0244 -1.64984 0
M  V30 689 O 62.9342 1.71325 -0.920758 0
M  V30 690 C 63.2172 -0.610458 -3.54888 0
M  V30 691 C 63.0702 -2.09043 -3.98273 0
M  V30 692 C 64.3892 -0.0455379 -4.40076 0
M  V30 693 H 61.5082 -0.15028 -0.721516 0
M  V30 694 H 64.1502 -1.03384 -1.59411 0
M  V30 695 H 62.3002 -0.079044 -3.8842 0
M  V30 696 H 63.9722 -2.68537 -3.75081 0
M  V30 697 H 62.2152 -2.58139 -3.48635 0
M  V30 698 H 62.8862 -2.18182 -5.07051 0
M  V30 699 H 65.3622 -0.499557 -4.1309 0
M  V30 700 H 64.2382 -0.215922 -5.48475 0
M  V30 701 H 64.4992 1.04939 -4.29465 0
M  V30 702 N 63.5583 1.46682 -0.576371 0
M  V30 703 C 64.8053 2.02412 -0.0595339 0
M  V30 704 C 65.1333 1.44859 1.29793 0
M  V30 705 O 64.3883 0.601099 1.8624 0
M  V30 706 C 64.6873 3.57345 0.062886 0
M  V30 707 C 64.3533 4.33908 -1.22616 0
M  V30 708 C 63.0153 4.54544 -1.57933 0
M  V30 709 C 65.3673 4.77919 -2.07948 0
M  V30 710 C 62.6953 5.16444 -2.78393 0
M  V30 711 C 65.0473 5.41149 -3.27629 0
M  V30 712 C 63.7113 5.60014 -3.63236 0
M  V30 713 H 62.9813 0.74068 -0.021785 0
M  V30 714 H 65.6283 1.76128 -0.751735 0
M  V30 715 H 63.9333 3.82729 0.838178 0
M  V30 716 H 65.6303 3.98136 0.478439 0
M  V30 717 H 62.2203 4.18138 -0.941202 0
M  V30 718 H 66.4043 4.61738 -1.81967 0
M  V30 719 H 61.6603 5.29242 -3.06126 0
M  V30 720 H 65.8343 5.74211 -3.94023 0
M  V30 721 H 63.4613 6.07748 -4.56669 0
M  V30 722 N 65.0364 0.313813 1.54444 0
M  V30 723 C 66.2834 -0.291675 2.00388 0
M  V30 724 C 66.6114 -1.52904 1.2021 0
M  V30 725 O 65.8664 -1.93833 0.269707 0
M  V30 726 C 66.1654 -0.680386 3.50864 0
M  V30 727 C 65.8314 0.456699 4.48581 0
M  V30 728 C 64.4934 0.768824 4.75018 0
M  V30 729 C 66.8454 1.22098 5.06697 0
M  V30 730 C 64.1734 1.84812 5.56831 0
M  V30 731 C 66.5254 2.29029 5.89685 0
M  V30 732 C 65.1894 2.60834 6.14428 0
M  V30 733 H 64.4594 -0.106732 0.733273 0
M  V30 734 H 67.1064 0.43557 1.86481 0
M  V30 735 H 65.4114 -1.48791 3.62448 0
M  V30 736 H 67.1084 -1.16026 3.83847 0
M  V30 737 H 63.6984 0.203337 4.28117 0
M  V30 738 H 67.8824 0.993096 4.86263 0
M  V30 739 H 63.1384 2.09912 5.74236 0
M  V30 740 H 67.3124 2.887 6.33739 0
M  V30 741 H 64.9394 3.44596 6.77612 0
M  V30 742 N 66.5145 -1.57545 0.0417849 0
M  V30 743 C 67.7615 -1.92317 -0.634082 0
M  V30 744 C 68.0895 -0.919334 -1.71402 0
M  V30 745 O 67.3445 0.0698253 -1.95575 0
M  V30 746 C 67.6435 -3.33794 -1.27735 0
M  V30 747 C 67.3095 -4.49716 -0.326543 0
M  V30 748 C 65.9715 -4.81156 -0.0648814 0
M  V30 749 C 68.3235 -5.20182 0.325623 0
M  V30 750 C 65.6515 -5.80414 0.856539 0
M  V30 751 C 68.0035 -6.20424 1.23518 0
M  V30 752 C 66.6675 -6.50298 1.5056 0
M  V30 753 H 65.9375 -0.703736 -0.232027 0
M  V30 754 H 68.5845 -1.91205 0.106259 0
M  V30 755 H 66.8895 -3.31228 -2.09274 0
M  V30 756 H 68.5865 -3.57975 -1.80707 0
M  V30 757 H 65.1765 -4.25176 -0.540665 0
M  V30 758 H 69.3605 -4.96112 0.136546 0
M  V30 759 H 64.6165 -6.019 1.07363 0
M  V30 760 H 68.7905 -6.74141 1.74664 0
M  V30 761 H 66.4175 -7.27025 2.22123 0
M  V30 762 N 67.9926 0.231505 -1.5589 0
M  V30 763 C 68.9226 1.29022 -1.94617 0
M  V30 764 C 69.9036 1.4941 -0.813067 0
M  V30 765 O 71.0886 1.6176 -1.07459 0
M  V30 766 C 68.2186 2.64199 -2.25424 0
M  V30 767 C 67.1726 2.58484 -3.41131 0
M  V30 768 C 66.4986 3.97599 -3.57518 0
M  V30 769 C 67.7986 2.1413 -4.76388 0
M  V30 770 H 69.4926 0.968563 -2.83301 0
M  V30 771 H 67.0386 0.464479 -1.36303 0
M  V30 772 H 68.9916 3.38413 -2.51107 0
M  V30 773 H 67.7156 2.98032 -1.33583 0
M  V30 774 H 66.3746 1.86727 -3.15481 0
M  V30 775 H 66.0226 4.28723 -2.6307 0
M  V30 776 H 65.7226 3.94659 -4.35337 0
M  V30 777 H 67.2466 4.7349 -3.85538 0
M  V30 778 H 68.6606 2.78083 -5.01341 0
M  V30 779 H 67.0576 2.2227 -5.57419 0
M  V30 780 H 68.1276 1.09331 -4.72414 0
M  V30 781 N 69.4707 1.49531 0.497807 0
M  V30 782 C 70.4007 1.6935 1.60757 0
M  V30 783 C 71.3817 0.542218 1.61227 0
M  V30 784 O 72.5667 0.778417 1.77917 0
M  V30 785 C 69.6967 1.76298 2.99226 0
M  V30 786 C 68.6507 2.91248 3.13622 0
M  V30 787 C 67.9767 2.83312 4.53474 0
M  V30 788 C 69.2767 4.3214 2.93346 0
M  V30 789 H 70.9707 2.62263 1.44425 0
M  V30 790 H 68.5167 1.26208 0.693367 0
M  V30 791 H 70.4697 1.88749 3.76765 0
M  V30 792 H 69.1937 0.799871 3.16654 0
M  V30 793 H 67.8527 2.78404 2.38509 0
M  V30 794 H 67.5007 1.84902 4.67782 0
M  V30 795 H 67.2007 3.60465 4.64046 0
M  V30 796 H 68.7247 2.97775 5.33069 0
M  V30 797 H 70.1387 4.45649 3.60652 0
M  V30 798 H 68.5357 5.1054 3.15387 0
M  V30 799 H 69.6057 4.46363 1.89441 0
M  V30 800 N 70.9488 -0.749086 1.3866 0
M  V30 801 C 72.1978 -1.50371 1.3443 0
M  V30 802 C 72.5108 -1.95503 -0.0616397 0
M  V30 803 O 73.7168 -2.70554 -0.226489 0
M  V30 804 C 72.1728 -2.71644 2.36088 0
M  V30 805 C 71.7808 -2.3352 3.82325 0
M  V30 806 C 73.5248 -3.49518 2.40909 0
M  V30 807 C 71.4318 -3.51431 4.75658 0
M  V30 808 H 70.3618 -0.564628 0.499712 0
M  V30 809 H 73.0128 -0.818449 1.64237 0
M  V30 810 H 71.3948 -3.42175 1.9933 0
M  V30 811 H 72.5688 -1.70627 4.28046 0
M  V30 812 H 70.8838 -1.6877 3.80665 0
M  V30 813 H 73.4808 -4.37197 3.07836 0
M  V30 814 H 73.8238 -3.90992 1.42937 0
M  V30 815 H 74.3568 -2.86005 2.76489 0
M  V30 816 H 71.0958 -3.15019 5.74842 0
M  V30 817 H 70.6158 -4.13352 4.34627 0
M  V30 818 H 72.2948 -4.17953 4.93887 0
M  V30 819 N 72.4269 -1.23603 -0.977757 0
M  V30 820 C 73.6549 -1.09646 -1.75458 0
M  V30 821 C 74.0699 0.351859 -1.85492 0
M  V30 822 O 73.4269 1.24327 -1.336 0
M  V30 823 C 73.4779 -1.71895 -3.18016 0
M  V30 824 O 73.1989 -3.11063 -3.08498 0
M  V30 825 C 74.6999 -1.63415 -4.12081 0
M  V30 826 H 71.9199 -0.38359 -0.550545 0
M  V30 827 H 74.4639 -1.63507 -1.22824 0
M  V30 828 H 72.6189 -1.22061 -3.67668 0
M  V30 829 H 73.0329 -3.41305 -3.9826 0
M  V30 830 H 74.5069 -2.11669 -5.09804 0
M  V30 831 H 74.9839 -0.593462 -4.35172 0
M  V30 832 H 75.5899 -2.12628 -3.68334 0
M  V30 833 N 73.905 1.17692 -1.04816 0
M  V30 834 C 75.153 1.87488 -0.754497 0
M  V30 835 C 75.474 1.81205 0.720407 0
M  V30 836 O 74.744 1.23544 1.52032 0
M  V30 837 H 73.324 0.694101 -0.276102 0
M  V30 838 H 75.986 1.42793 -1.32651 0
M  V30 839 H 75.082 2.93328 -1.06606 0
M  V30 840 N 75.3831 0.828654 1.34056 0
M  V30 841 C 76.3461 0.259927 2.27721 0
M  V30 842 C 77.3461 -0.565478 1.50529 0
M  V30 843 O 78.5361 -0.38075 1.69988 0
M  V30 844 C 75.6681 -0.634944 3.34935 0
M  V30 845 H 76.8611 1.0863 2.79534 0
M  V30 846 H 74.4141 0.600951 1.44285 0
M  V30 847 H 75.1491 -1.48416 2.88346 0
M  V30 848 H 74.9341 -0.0444999 3.92075 0
M  V30 849 H 76.4241 -1.02648 4.04788 0
M  V30 850 N 76.8612 -1.46375 0.584142 0
M  V30 851 C 77.7912 -2.33103 -0.136037 0
M  V30 852 C 78.7722 -1.45431 -0.882255 0
M  V30 853 O 79.9572 -1.74246 -0.857434 0
M  V30 854 C 77.0872 -3.27731 -1.14933 0
M  V30 855 C 76.0412 -4.24855 -0.517862 0
M  V30 856 C 75.3672 -5.09001 -1.63773 0
M  V30 857 C 76.6672 -5.19439 0.545886 0
M  V30 858 H 78.3612 -2.93568 0.588086 0
M  V30 859 H 75.9072 -1.41166 0.284259 0
M  V30 860 H 77.8602 -3.87261 -1.66153 0
M  V30 861 H 76.5842 -2.65377 -1.90375 0
M  V30 862 H 75.2432 -3.6659 -0.0267361 0
M  V30 863 H 74.8912 -4.43031 -2.38185 0
M  V30 864 H 74.5912 -5.74777 -1.22085 0
M  V30 865 H 76.1152 -5.71396 -2.15266 0
M  V30 866 H 77.5292 -5.73177 0.118704 0
M  V30 867 H 75.9262 -5.93566 0.88317 0
M  V30 868 H 76.9962 -4.63285 1.43162 0
M  V30 869 N 78.3393 -0.321999 -1.54275 0
M  V30 870 C 79.5863 0.281044 -2.0054 0
M  V30 871 C 79.9143 1.52265 -1.21019 0
M  V30 872 O 79.1693 1.93687 -0.279982 0
M  V30 873 C 79.4683 0.661769 -3.5122 0
M  V30 874 C 79.1343 -0.480482 -4.48333 0
M  V30 875 C 77.7963 -0.794005 -4.74604 0
M  V30 876 C 80.1483 -1.24783 -5.06042 0
M  V30 877 C 77.4763 -1.87763 -5.55844 0
M  V30 878 C 79.8283 -2.32153 -5.88462 0
M  V30 879 C 78.4923 -2.64089 -6.13036 0
M  V30 880 H 77.7623 0.102841 -0.733829 0
M  V30 881 H 80.4093 -0.445453 -1.86247 0
M  V30 882 H 78.7143 1.46867 -3.63232 0
M  V30 883 H 80.4113 1.13989 -3.84457 0
M  V30 884 H 77.0013 -0.226039 -4.28004 0
M  V30 885 H 81.1853 -1.01887 -4.85729 0
M  V30 886 H 76.4413 -2.12954 -5.73115 0
M  V30 887 H 80.6153 -2.92057 -6.32199 0
M  V30 888 H 78.2423 -3.48185 -6.75775 0
M  V30 889 N 79.8174 1.5752 -0.0501392 0
M  V30 890 C 81.0474 1.96678 0.632573 0
M  V30 891 C 81.4554 0.926298 1.64974 0
M  V30 892 O 80.7984 -0.09802 1.83438 0
M  V30 893 C 80.8604 3.32068 1.37735 0
M  V30 894 C 80.5244 4.54076 0.516131 0
M  V30 895 C 81.5214 5.19445 -0.217357 0
M  V30 896 C 79.2064 5.00304 0.44736 0
M  V30 897 C 81.2004 6.29378 -1.00807 0
M  V30 898 C 78.8874 6.10114 -0.347038 0
M  V30 899 C 79.8854 6.74512 -1.07344 0
M  V30 900 O 79.5734 7.82211 -1.85477 0
M  V30 901 H 79.3054 0.652193 0.177821 0
M  V30 902 H 81.8594 2.05091 -0.112543 0
M  V30 903 H 80.0894 3.20206 2.16807 0
M  V30 904 H 81.7784 3.55981 1.95019 0
M  V30 905 H 82.5444 4.84689 -0.173688 0
M  V30 906 H 78.4234 4.49971 1.00235 0
M  V30 907 H 81.9674 6.79575 -1.57556 0
M  V30 908 H 77.8644 6.44307 -0.392349 0
M  V30 909 H 78.6324 7.98982 -1.77678 0
M  V30 910 N 81.2955 -0.223234 1.56011 0
M  V30 911 C 82.5255 -0.963413 1.82762 0
M  V30 912 C 82.9335 -1.78516 0.626804 0
M  V30 913 O 82.2765 -1.78974 -0.414014 0
M  V30 914 C 82.3385 -1.93126 3.0322 0
M  V30 915 C 82.0025 -1.2942 4.38291 0
M  V30 916 C 82.9995 -0.684916 5.15369 0
M  V30 917 C 80.6845 -1.30647 4.85012 0
M  V30 918 C 82.6785 -0.0963971 6.37327 0
M  V30 919 C 80.3655 -0.71411 6.06913 0
M  V30 920 C 81.3635 -0.110123 6.82911 0
M  V30 921 O 81.0515 0.47303 8.02507 0
M  V30 922 H 80.7835 -0.288011 0.611576 0
M  V30 923 H 83.3375 -0.244103 2.03944 0
M  V30 924 H 81.5675 -2.68952 2.77852 0
M  V30 925 H 83.2565 -2.53685 3.16857 0
M  V30 926 H 84.0225 -0.667774 4.80381 0
M  V30 927 H 79.9015 -1.76598 4.25833 0
M  V30 928 H 83.4455 0.375657 6.96588 0
M  V30 929 H 79.3425 -0.728659 6.41374 0
M  V30 930 H 80.1105 0.367186 8.17676 0
M  V30 931 N 82.7736 -1.49793 -0.48987 0
M  V30 932 C 83.7036 -1.70201 -1.59856 0
M  V30 933 C 84.6846 -0.55076 -1.60937 0
M  V30 934 O 85.8696 -0.787841 -1.77501 0
M  V30 935 C 82.9996 -1.77882 -2.98287 0
M  V30 936 C 81.9536 -2.92907 -3.12073 0
M  V30 937 C 81.2796 -2.85712 -4.51965 0
M  V30 938 C 82.5796 -4.3369 -2.91051 0
M  V30 939 H 84.2736 -2.63025 -1.43032 0
M  V30 940 H 81.8196 -1.26574 -0.686664 0
M  V30 941 H 83.7726 -1.90744 -3.75759 0
M  V30 942 H 82.4966 -0.816653 -3.16225 0
M  V30 943 H 81.1556 -2.79665 -2.37029 0
M  V30 944 H 80.8036 -1.8738 -4.66795 0
M  V30 945 H 80.5036 -3.62921 -4.62128 0
M  V30 946 H 82.0276 -3.00598 -5.31482 0
M  V30 947 H 83.4416 -4.47555 -3.58284 0
M  V30 948 H 81.8386 -5.12205 -3.12675 0
M  V30 949 H 82.9086 -4.47362 -1.87071 0
M  V30 950 N 84.2517 0.741722 -1.39055 0
M  V30 951 C 85.5007 1.49656 -1.35225 0
M  V30 952 C 85.8137 1.95533 0.0512708 0
M  V30 953 O 87.0197 2.7067 0.212138 0
M  V30 954 C 85.4757 2.70389 -2.37525 0
M  V30 955 C 85.0837 2.31489 -3.83558 0
M  V30 956 C 86.8277 3.48236 -2.42759 0
M  V30 957 C 84.7347 3.48903 -4.77515 0
M  V30 958 H 83.6647 0.56197 -0.502699 0
M  V30 959 H 86.3157 0.809727 -1.64668 0
M  V30 960 H 84.6977 3.41113 -2.01142 0
M  V30 961 H 85.8717 1.68354 -4.28945 0
M  V30 962 H 84.1867 1.66749 -3.81554 0
M  V30 963 H 86.7837 4.35558 -3.1015 0
M  V30 964 H 87.1267 3.90229 -1.45008 0
M  V30 965 H 87.6597 2.84535 -2.78002 0
M  V30 966 H 84.3987 3.11966 -5.76504 0
M  V30 967 H 83.9187 4.11041 -4.36813 0
M  V30 968 H 85.5977 4.15328 -4.96096 0
M  V30 969 N 85.7298 1.2412 0.971189 0
M  V30 970 C 87.0068 0.986867 1.6888 0
M  V30 971 C 87.3868 -0.491857 2.0529 0
M  V30 972 O 86.7348 -1.46531 1.75331 0
M  V30 973 C 86.9448 1.9063 2.92338 0
M  V30 974 C 88.2928 2.17515 3.64654 0
M  V30 975 O 89.3168 1.88254 3.02388 0
M  V30 976 O 88.1758 2.6719 4.7673 0
M  V30 977 H 85.2698 0.372944 0.738134 0
M  V30 978 H 87.8158 1.35203 1.02559 0
M  V30 979 H 86.5878 2.90552 2.62097 0
M  V30 980 H 86.2108 1.54408 3.66393 0
M  V30 981 N 87.2079 -1.17134 1.05439 0
M  V30 982 C 88.1559 -2.23289 0.651511 0
M  V30 983 C 89.1499 -1.66186 -0.328411 0
M  V30 984 O 90.3559 -1.78949 -0.194206 0
M  V30 985 H 86.7309 -0.726938 0.192523 0
M  V30 986 H 88.7019 -2.54565 1.55689 0
M  V30 987 C 87.4509 -3.47671 0.0448436 0
M  V30 988 H 86.7739 -3.91918 0.78996 0
M  V30 989 H 88.2139 -4.2353 -0.19964 0
M  V30 990 C 86.6729 -3.14453 -1.20918 0
M  V30 991 O 87.2029 -3.29459 -2.29825 0
M  V30 992 N 85.4089 -2.68657 -1.10779 0
M  V30 993 H 84.9559 -2.56646 -0.221526 0
M  V30 994 H 84.9139 -2.46804 -1.9477 0
M  V30 995 N 88.686 -0.835752 -1.33615 0
M  V30 996 C 89.932 -0.430596 -1.98176 0
M  V30 997 C 90.265 1.00684 -1.66061 0
M  V30 998 O 89.54 1.70339 -0.938877 0
M  V30 999 C 89.823 -0.648065 -3.5422 0
M  V30 1000 C 89.676 -2.13255 -3.96033 0
M  V30 1001 C 90.995 -0.0922113 -4.40003 0
M  V30 1002 H 88.114 -0.157924 -0.719881 0
M  V30 1003 H 90.756 -1.05069 -1.58305 0
M  V30 1004 H 88.906 -0.120237 -3.88314 0
M  V30 1005 H 90.578 -2.725 -3.72211 0
M  V30 1006 H 88.821 -2.61823 -3.45878 0
M  V30 1007 H 89.492 -2.23547 -5.04708 0
M  V30 1008 H 91.968 -0.543343 -4.12537 0
M  V30 1009 H 90.844 -0.274083 -5.48215 0
M  V30 1010 H 91.105 1.00378 -4.30554 0
M  V30 1011 N 90.1641 1.46063 -0.591896 0
M  V30 1012 C 91.0941 2.33172 0.123673 0
M  V30 1013 C 92.0751 1.45897 0.87453 0
M  V30 1014 O 93.2601 1.74698 0.848181 0
M  V30 1015 C 90.3901 3.28336 1.13194 0
M  V30 1016 C 89.3441 4.25124 0.495324 0
M  V30 1017 C 88.6701 5.09863 1.61071 0
M  V30 1018 C 89.9701 5.19143 -0.573425 0
M  V30 1019 H 91.6641 2.93252 -0.603646 0
M  V30 1020 H 89.2101 1.41014 -0.291741 0
M  V30 1021 H 91.1631 3.88137 1.64097 0
M  V30 1022 H 89.8871 2.66383 1.88965 0
M  V30 1023 H 88.5461 3.66599 0.00729452 0
M  V30 1024 H 88.1941 4.44288 2.35832 0
M  V30 1025 H 87.8941 5.75417 1.19035 0
M  V30 1026 H 89.4181 5.72529 2.12233 0
M  V30 1027 H 90.8321 5.73106 -0.1491 0
M  V30 1028 H 89.2291 5.93089 -0.914636 0
M  V30 1029 H 90.2991 4.62519 -1.45617 0
M  V30 1030 N 91.6422 0.330177 1.54103 0
M  V30 1031 C 92.8892 -0.270405 2.00686 0
M  V30 1032 C 93.2172 -1.51621 1.21825 0
M  V30 1033 O 92.4722 -1.93536 0.29025 0
M  V30 1034 C 92.7712 -0.643134 3.51566 0
M  V30 1035 C 92.4372 0.504251 4.48072 0
M  V30 1036 C 91.0992 0.819163 4.74176 0
M  V30 1037 C 93.4512 1.27465 5.05373 0
M  V30 1038 C 90.7792 1.90708 5.5484 0
M  V30 1039 C 93.1312 2.35271 5.87223 0
M  V30 1040 C 91.7952 2.67336 6.11627 0
M  V30 1041 H 91.0652 -0.0989482 0.734364 0
M  V30 1042 H 93.7122 0.455324 1.86008 0
M  V30 1043 H 92.0172 -1.44938 3.64006 0
M  V30 1044 H 93.7142 -1.11949 3.85056 0
M  V30 1045 H 90.3042 0.248733 4.27878 0
M  V30 1046 H 94.4882 1.04462 4.85182 0
M  V30 1047 H 89.7442 2.15991 5.71977 0
M  V30 1048 H 93.9182 2.95405 6.30641 0
M  V30 1049 H 91.5452 3.51763 6.73919 0
M  V30 1050 N 93.1203 -1.57491 0.0584922 0
M  V30 1051 C 94.5313 -1.80526 -0.476138 0
M  V30 1052 C 94.8823 -0.971334 -1.70469 0
M  V30 1053 O 94.0073 -0.190012 -2.15564 0
M  V30 1054 C 94.6023 -3.27424 -0.870587 0
M  V30 1055 C 93.1613 -3.51351 -1.35015 0
M  V30 1056 C 92.3083 -2.75343 -0.32887 0
M  V30 1057 H 95.2593 -1.56133 0.284312 0
M  V30 1058 H 95.2803 -3.38745 -1.73299 0
M  V30 1059 H 94.7923 -3.88093 0.0237627 0
M  V30 1060 H 92.8933 -2.95971 -2.26345 0
M  V30 1061 H 93.0063 -4.60059 -1.33726 0
M  V30 1062 H 91.3703 -2.417 -0.803321 0
M  V30 1063 H 92.1533 -3.38743 0.557521 0
M  V30 1064 N 94.5984 0.214957 -1.56127 0
M  V30 1065 C 95.5454 1.26642 -1.92952 0
M  V30 1066 C 96.5154 1.46244 -0.78753 0
M  V30 1067 O 97.7004 1.59704 -1.04399 0
M  V30 1068 C 94.8404 2.6104 -2.25726 0
M  V30 1069 C 93.9534 2.49183 -3.52891 0
M  V30 1070 C 93.0884 3.76149 -3.7508 0
M  V30 1071 C 92.1274 3.59041 -4.95738 0
M  V30 1072 N 91.2644 4.77972 -5.14283 0
M  V30 1073 H 96.1044 0.945384 -2.82607 0
M  V30 1074 H 93.6414 0.455489 -1.3987 0
M  V30 1075 H 95.5994 3.39313 -2.42739 0
M  V30 1076 H 94.2294 2.91227 -1.39236 0
M  V30 1077 H 93.2814 1.6231 -3.44034 0
M  V30 1078 H 94.5934 2.32466 -4.41318 0
M  V30 1079 H 93.7474 4.62865 -3.92226 0
M  V30 1080 H 92.4864 3.95799 -2.84947 0
M  V30 1081 H 91.4914 2.7071 -4.78535 0
M  V30 1082 H 92.7164 3.40856 -5.87362 0
M  V30 1083 H 90.6624 4.97923 -4.27093 0
M  V30 1084 H 90.5794 4.64006 -5.96853 0
M  V30 1085 H 91.8474 5.66096 -5.35869 0
M  V30 1086 N 96.0765 1.50051 0.48192 0
M  V30 1087 C 97.0245 1.68635 1.60203 0
M  V30 1088 C 98.0185 0.552184 1.60148 0
M  V30 1089 O 99.2245 0.732377 1.64427 0
M  V30 1090 H 95.5995 0.532081 0.531407 0
M  V30 1091 H 97.5705 2.62616 1.41688 0
M  V30 1092 C 96.3195 1.78775 2.9822 0
M  V30 1093 H 95.6425 2.6543 2.98976 0
M  V30 1094 H 97.0825 1.95806 3.7608 0
M  V30 1095 C 95.5415 0.536849 3.32595 0
M  V30 1096 O 96.0715 -0.328897 4.00351 0
M  V30 1097 N 94.2775 0.394091 2.87915 0
M  V30 1098 H 93.8245 1.09962 2.32951 0
M  V30 1099 H 93.7825 -0.441737 3.11281 0
M  V30 1100 N 97.5546 -0.734337 1.39446 0
M  V30 1101 C 98.5016 -1.84835 1.38219 0
M  V30 1102 C 99.4716 -1.64331 0.24179 0
M  V30 1103 O 100.657 -1.85728 0.437002 0
M  V30 1104 C 97.7966 -3.22355 1.23212 0
M  V30 1105 C 96.9096 -3.5456 2.46801 0
M  V30 1106 C 96.0446 -4.81485 2.24377 0
M  V30 1107 C 95.0836 -5.06536 3.43639 0
M  V30 1108 N 94.2206 -6.24665 3.20528 0
M  V30 1109 H 99.0606 -1.85219 2.33448 0
M  V30 1110 H 96.5976 -0.905039 1.15963 0
M  V30 1111 H 98.5556 -4.0174 1.12522 0
M  V30 1112 H 97.1856 -3.21248 0.316121 0
M  V30 1113 H 96.2376 -2.69872 2.68092 0
M  V30 1114 H 97.5496 -3.6899 3.3563 0
M  V30 1115 H 96.7036 -5.68852 2.10933 0
M  V30 1116 H 95.4426 -4.6923 1.32944 0
M  V30 1117 H 94.4476 -4.17632 3.5758 0
M  V30 1118 H 95.6726 -5.20676 4.35974 0
M  V30 1119 H 93.6186 -6.13696 2.3176 0
M  V30 1120 H 93.5356 -6.39685 4.02913 0
M  V30 1121 H 94.8036 -7.14868 3.10779 0
M  V30 1122 N 99.0327 -1.24633 -0.964593 0
M  V30 1123 C 99.9797 -1.04144 -2.05968 0
M  V30 1124 C 100.95 0.046262 -1.66036 0
M  V30 1125 O 102.135 -0.108972 -1.90489 0
M  V30 1126 C 99.2747 -0.65563 -3.38815 0
M  V30 1127 C 98.3877 -1.81714 -3.91923 0
M  V30 1128 C 97.5227 -1.37662 -5.13052 0
M  V30 1129 C 96.5617 -2.50788 -5.58365 0
M  V30 1130 N 95.6987 -2.07582 -6.70712 0
M  V30 1131 H 100.539 -1.9787 -2.22827 0
M  V30 1132 H 98.0757 -0.9855 -1.09208 0
M  V30 1133 H 100.034 -0.412954 -4.15151 0
M  V30 1134 H 98.6637 0.244627 -3.21872 0
M  V30 1135 H 97.7157 -2.1734 -3.12198 0
M  V30 1136 H 99.0277 -2.66705 -4.21509 0
M  V30 1137 H 98.1817 -1.093 -5.96773 0
M  V30 1138 H 96.9207 -0.497293 -4.85158 0
M  V30 1139 H 95.9257 -2.79906 -4.73215 0
M  V30 1140 H 97.1507 -3.39283 -5.88272 0
M  V30 1141 H 95.0967 -1.22051 -6.44546 0
M  V30 1142 H 95.0137 -2.86125 -6.99763 0
M  V30 1143 H 96.2817 -1.82369 -7.57867 0
M  V30 1144 N 100.511 1.16574 -1.06058 0
M  V30 1145 C 101.76 1.86385 -0.770944 0
M  V30 1146 C 102.073 1.82448 0.705129 0
M  V30 1147 O 103.279 2.47815 1.10905 0
M  V30 1148 C 101.735 3.34466 -1.32893 0
M  V30 1149 C 101.343 3.46883 -2.83507 0
M  V30 1150 C 103.087 4.09548 -1.11672 0
M  V30 1151 C 100.994 4.89036 -3.32562 0
M  V30 1152 H 99.9238 0.698181 -0.284709 0
M  V30 1153 H 102.575 1.31583 -1.27899 0
M  V30 1154 H 100.957 3.88859 -0.748662 0
M  V30 1155 H 102.131 3.02663 -3.47465 0
M  V30 1156 H 100.446 2.85232 -3.03368 0
M  V30 1157 H 103.043 5.14434 -1.45814 0
M  V30 1158 H 103.386 4.16264 -0.0549535 0
M  V30 1159 H 103.919 3.61387 -1.66265 0
M  V30 1160 H 100.658 4.87499 -4.38207 0
M  V30 1161 H 100.178 5.3389 -2.73351 0
M  V30 1162 H 101.857 5.57843 -3.2775 0
M  V30 1163 N 101.989 0.842826 1.3317 0
M  V30 1164 C 102.937 0.267495 2.31057 0
M  V30 1165 C 103.931 -0.602682 1.58316 0
M  V30 1166 O 105.137 -0.491803 1.73151 0
M  V30 1167 H 101.512 0.0677813 0.748939 0
M  V30 1168 H 103.483 1.10754 2.77085 0
M  V30 1169 C 102.232 -0.539331 3.43492 0
M  V30 1170 H 101.555 0.12095 3.99617 0
M  V30 1171 H 102.995 -0.90767 4.14171 0
M  V30 1172 C 101.454 -1.71981 2.89697 0
M  V30 1173 O 101.984 -2.81862 2.86211 0
M  V30 1174 N 100.19 -1.54299 2.46252 0
M  V30 1175 H 99.7369 -0.649143 2.49287 0
M  V30 1176 H 99.6949 -2.33431 2.10612 0
M  V30 1177 N 103.467 -1.45747 0.599634 0
M  V30 1178 C 104.377 -2.34262 -0.125888 0
M  V30 1179 C 105.393 -1.50768 -0.868625 0
M  V30 1180 O 106.569 -1.83592 -0.828003 0
M  V30 1181 C 103.634 -3.28252 -1.11587 0
M  V30 1182 C 102.695 -4.27651 -0.375956 0
M  V30 1183 C 101.928 -5.1715 -1.31877 0
M  V30 1184 O 102.151 -5.09916 -2.55621 0
M  V30 1185 O 101.085 -5.96286 -0.820157 0
M  V30 1186 H 104.911 -2.97688 0.601315 0
M  V30 1187 H 102.496 -1.44999 0.359934 0
M  V30 1188 H 104.378 -3.86191 -1.68626 0
M  V30 1189 H 103.053 -2.67401 -1.82424 0
M  V30 1190 H 101.96 -3.7335 0.236698 0
M  V30 1191 H 103.293 -4.91334 0.29177 0
M  V30 1192 N 104.945 -0.338344 -1.53925 0
M  V30 1193 C 106.194 0.260732 -2.00008 0
M  V30 1194 C 106.507 1.52073 -1.23017 0
M  V30 1195 O 107.713 2.19672 -1.5955 0
M  V30 1196 C 106.169 0.51515 -3.56194 0
M  V30 1197 C 105.777 -0.728645 -4.42035 0
M  V30 1198 C 107.521 1.07337 -4.10706 0
M  V30 1199 C 105.428 -0.445315 -5.89721 0
M  V30 1200 H 104.358 0.101205 -0.747177 0
M  V30 1201 H 107.009 -0.452866 -1.77824 0
M  V30 1202 H 105.391 1.28932 -3.74423 0
M  V30 1203 H 106.565 -1.50352 -4.35581 0
M  V30 1204 H 104.88 -1.20813 -3.98489 0
M  V30 1205 H 107.477 1.30022 -5.18651 0
M  V30 1206 H 107.82 2.0273 -3.63602 0
M  V30 1207 H 108.353 0.360034 -3.96167 0
M  V30 1208 H 105.092 -1.36883 -6.41049 0
M  V30 1209 H 104.612 0.291569 -5.99091 0
M  V30 1210 H 106.291 -0.0606218 -6.46972 0
M  V30 1211 N 106.423 1.57458 -0.0668435 0
M  V30 1212 C 107.356 2.08033 0.93795 0
M  V30 1213 C 108.334 0.984321 1.29421 0
M  V30 1214 O 109.518 1.25736 1.40437 0
M  V30 1215 C 106.645 2.53388 2.24749 0
M  V30 1216 C 105.691 3.74376 2.04315 0
M  V30 1217 S 106.524 5.19303 1.30706 0
M  V30 1218 C 107.68 5.67986 2.62951 0
M  V30 1219 H 107.913 2.92935 0.50759 0
M  V30 1220 H 105.446 1.5371 0.145804 0
M  V30 1221 H 107.404 2.8018 3.00016 0
M  V30 1222 H 106.065 1.68763 2.64911 0
M  V30 1223 H 105.258 4.04083 3.01218 0
M  V30 1224 H 104.86 3.47931 1.37186 0
M  V30 1225 H 107.152 5.74528 3.5906 0
M  V30 1226 H 108.095 6.66955 2.3786 0
M  V30 1227 H 108.503 4.95781 2.69929 0
M  V30 1228 N 107.901 -0.206675 1.56239 0
M  V30 1229 C 108.849 -1.27571 1.94495 0
M  V30 1230 C 109.843 -1.47737 0.828862 0
M  V30 1231 O 111.049 -1.48735 1.0138 0
M  V30 1232 H 107.424 -0.428029 0.6183 0
M  V30 1233 H 109.395 -0.925961 2.8367 0
M  V30 1234 C 108.144 -2.61568 2.29079 0
M  V30 1235 H 107.467 -2.46863 3.14482 0
M  V30 1236 H 108.907 -3.35144 2.5972 0
M  V30 1237 C 107.366 -3.17695 1.12123 0
M  V30 1238 O 107.896 -3.99801 0.390153 0
M  V30 1239 N 106.102 -2.76276 0.901097 0
M  V30 1240 H 105.649 -2.09613 1.49733 0
M  V30 1241 H 105.607 -3.1417 0.120319 0
M  V30 1242 N 109.379 -1.50304 -0.473955 0
M  V30 1243 C 110.607 -1.64902 -1.24959 0
M  V30 1244 C 111.022 -0.331198 -1.85872 0
M  V30 1245 O 110.379 0.68652 -1.69095 0
M  V30 1246 C 110.43 -2.73803 -2.36038 0
M  V30 1247 O 110.151 -4.00477 -1.77624 0
M  V30 1248 C 111.652 -2.99349 -3.26964 0
M  V30 1249 H 108.872 -0.554383 -0.378022 0
M  V30 1250 H 111.416 -1.9651 -0.566054 0
M  V30 1251 H 109.571 -2.44898 -3.00173 0
M  V30 1252 H 109.985 -4.60678 -2.5075 0
M  V30 1253 H 111.459 -3.79217 -4.01121 0
M  V30 1254 H 111.936 -2.10307 -3.85574 0
M  V30 1255 H 112.542 -3.29774 -2.68569 0
M  V30 1256 N 110.857 0.726932 -1.39834 0
M  V30 1257 C 112.082 1.52121 -1.40976 0
M  V30 1258 C 112.507 1.88098 -0.00826029 0
M  V30 1259 O 111.865 1.52479 0.980807 0
M  V30 1260 C 111.913 2.78021 -2.29644 0
M  V30 1261 O 111.017 3.74272 -1.73188 0
M  V30 1262 H 110.358 0.45908 -0.479731 0
M  V30 1263 H 112.888 0.896207 -1.83927 0
M  V30 1264 H 112.898 3.26671 -2.44438 0
M  V30 1265 H 111.573 2.51169 -3.31492 0
M  V30 1266 H 110.15 3.33073 -1.6768 0
M  V30 1267 N 112.336 1.25143 0.95797 0
M  V30 1268 C 113.283 1.05235 2.05412 0
M  V30 1269 C 114.253 -0.0374561 1.66058 0
M  V30 1270 O 115.438 0.119073 1.90428 0
M  V30 1271 C 112.578 0.673589 3.38462 0
M  V30 1272 C 111.691 1.8379 3.90954 0
M  V30 1273 C 110.826 1.40381 5.12315 0
M  V30 1274 C 109.865 2.53746 5.57027 0
M  V30 1275 N 109.002 2.11136 6.69601 0
M  V30 1276 H 113.842 1.99048 2.21774 0
M  V30 1277 H 111.379 0.991277 1.08683 0
M  V30 1278 H 113.337 0.434964 4.14926 0
M  V30 1279 H 111.967 -0.227554 3.21997 0
M  V30 1280 H 111.019 2.18992 3.11041 0
M  V30 1281 H 112.331 2.68937 4.20089 0
M  V30 1282 H 111.485 1.12464 5.96185 0
M  V30 1283 H 110.224 0.523015 4.84887 0
M  V30 1284 H 109.229 2.82412 4.71724 0
M  V30 1285 H 110.454 3.42398 5.86464 0
M  V30 1286 H 108.4 1.25468 6.4389 0
M  V30 1287 H 108.317 2.89832 6.98236 0
M  V30 1288 H 109.585 1.86385 7.56889 0
M  V30 1289 N 113.814 -1.1601 1.06675 0
M  V30 1290 C 114.764 -2.18512 0.650888 0
M  V30 1291 C 115.748 -1.57677 -0.320441 0
M  V30 1292 O 116.94 -1.76482 -0.135266 0
M  V30 1293 C 114.069 -3.43273 0.0429255 0
M  V30 1294 C 113.155 -4.11176 1.03898 0
M  V30 1295 N 113.546 -4.54672 2.216 0
M  V30 1296 C 111.844 -4.37417 0.870779 0
M  V30 1297 C 112.545 -5.07248 2.84736 0
M  V30 1298 N 111.521 -5.0037 2.12441 0
M  V30 1299 H 115.323 -2.49863 1.54745 0
M  V30 1300 H 112.837 -1.32503 0.938975 0
M  V30 1301 H 114.834 -4.16006 -0.272857 0
M  V30 1302 H 113.494 -3.13408 -0.84884 0
M  V30 1303 H 114.505 -4.4828 2.59356 0
M  V30 1304 H 111.182 -4.17488 0.0313293 0
M  V30 1305 H 112.572 -5.50912 3.84636 0
M  V30 1306 N 115.292 -0.849877 -1.32721 0
M  V30 1307 C 116.538 -0.451591 -1.97708 0
M  V30 1308 C 116.871 0.989175 -1.6712 0
M  V30 1309 O 116.146 1.69334 -0.956891 0
M  V30 1310 C 116.429 -0.685598 -3.53513 0
M  V30 1311 C 116.282 -2.17444 -3.93749 0
M  V30 1312 C 117.601 -0.138874 -4.39881 0
M  V30 1313 H 114.72 -0.16555 -0.718166 0
M  V30 1314 H 117.362 -1.06742 -1.57182 0
M  V30 1315 H 115.512 -0.161416 -3.88165 0
M  V30 1316 H 117.184 -2.76433 -3.693 0
M  V30 1317 H 115.427 -2.65476 -3.43081 0
M  V30 1318 H 116.098 -2.28888 -5.02309 0
M  V30 1319 H 118.574 -0.587068 -4.11938 0
M  V30 1320 H 117.45 -0.332213 -5.47894 0
M  V30 1321 H 117.711 0.95806 -4.31594 0
M  V30 1322 N 116.77 1.45427 -0.607355 0
M  V30 1323 C 118.019 2.01452 -0.100036 0
M  V30 1324 C 118.332 1.48159 1.27704 0
M  V30 1325 O 119.538 1.96159 1.87707 0
M  V30 1326 C 117.994 3.59672 -0.128158 0
M  V30 1327 C 117.602 4.21962 -1.50507 0
M  V30 1328 C 119.346 4.23262 0.323932 0
M  V30 1329 C 117.253 5.72333 -1.48959 0
M  V30 1330 H 116.183 0.75325 -0.0336299 0
M  V30 1331 H 118.834 1.66901 -0.76265 0
M  V30 1332 H 117.216 3.91411 0.601105 0
M  V30 1333 H 118.39 4.01796 -2.25602 0
M  V30 1334 H 116.705 3.70565 -1.89923 0
M  V30 1335 H 119.302 5.33522 0.354691 0
M  V30 1336 H 119.645 3.93921 1.34656 0
M  V30 1337 H 120.178 3.96239 -0.352056 0
M  V30 1338 H 116.917 6.06373 -2.48981 0
M  V30 1339 H 116.437 5.94691 -0.781214 0
M  V30 1340 H 118.116 6.35525 -1.21313 0
M  V30 1341 N 118.248 0.346503 1.53744 0
M  V30 1342 C 119.497 -0.250122 2.00143 0
M  V30 1343 C 119.81 -1.51418 1.23822 0
M  V30 1344 O 121.016 -2.18823 1.60713 0
M  V30 1345 C 119.472 -0.496252 3.56462 0
M  V30 1346 C 119.08 0.752077 4.41642 0
M  V30 1347 C 120.824 -1.05157 4.11269 0
M  V30 1348 C 118.731 0.476583 5.89477 0
M  V30 1349 H 117.661 -0.0972409 0.747703 0
M  V30 1350 H 120.312 0.46229 1.77581 0
M  V30 1351 H 118.694 -1.26944 3.75102 0
M  V30 1352 H 119.868 1.5266 4.34778 0
M  V30 1353 H 118.183 1.22925 3.97842 0
M  V30 1354 H 120.78 -1.27269 5.19333 0
M  V30 1355 H 121.123 -2.00799 3.64672 0
M  V30 1356 H 121.656 -0.339019 3.96353 0
M  V30 1357 H 118.395 1.4028 6.40314 0
M  V30 1358 H 117.915 -0.259794 5.99237 0
M  V30 1359 H 119.594 0.0949315 6.4693 0
M  V30 1360 N 119.726 -1.57421 0.075193 0
M  V30 1361 C 120.974 -1.93236 -0.591974 0
M  V30 1362 C 121.295 -0.956241 -1.69944 0
M  V30 1363 O 120.565 -0.00494792 -1.95899 0
M  V30 1364 H 119.145 -0.713355 -0.22166 0
M  V30 1365 H 121.807 -1.9444 0.133848 0
M  V30 1366 H 120.903 -2.95131 -1.01509 0
M  V30 1367 N 121.204 0.198386 -1.56346 0
M  V30 1368 C 122.451 0.919286 -1.80431 0
M  V30 1369 C 122.779 1.83393 -0.647866 0
M  V30 1370 O 122.034 1.92236 0.366556 0
M  V30 1371 C 122.333 1.77031 -3.10475 0
M  V30 1372 C 121.999 1.00693 -4.39513 0
M  V30 1373 C 120.661 0.796145 -4.74568 0
M  V30 1374 C 123.013 0.469559 -5.19081 0
M  V30 1375 C 120.341 0.0364588 -5.86689 0
M  V30 1376 C 122.693 -0.2769 -6.31994 0
M  V30 1377 C 121.357 -0.49873 -6.65634 0
M  V30 1378 H 120.627 0.336391 -0.660244 0
M  V30 1379 H 123.274 0.185872 -1.90596 0
M  V30 1380 H 121.579 2.5723 -2.95533 0
M  V30 1381 H 123.276 2.33065 -3.26315 0
M  V30 1382 H 119.866 1.18122 -4.12001 0
M  V30 1383 H 124.05 0.619816 -4.92414 0
M  V30 1384 H 119.306 -0.145412 -6.11227 0
M  V30 1385 H 123.48 -0.700684 -6.92866 0
M  V30 1386 H 121.107 -1.0893 -7.52355 0
M  V30 1387 N 122.682 1.50554 0.465978 0
M  V30 1388 C 123.907 1.65838 1.24549 0
M  V30 1389 C 124.332 0.343486 1.84937 0
M  V30 1390 O 123.69 -0.69324 1.67523 0
M  V30 1391 C 123.738 2.75533 2.32624 0
M  V30 1392 O 122.842 2.37142 3.37398 0
M  V30 1393 H 122.183 0.553893 0.366194 0
M  V30 1394 H 124.713 1.96959 0.553927 0
M  V30 1395 H 124.723 2.98763 2.77857 0
M  V30 1396 H 123.398 3.70962 1.88043 0
M  V30 1397 H 121.975 2.24377 2.97841 0
M  V30 1398 N 124.16 -0.719506 1.40217 0
M  V30 1399 C 125.409 -1.47486 1.37589 0
M  V30 1400 C 125.722 -1.9559 -0.0201568 0
M  V30 1401 O 126.928 -2.70973 -0.169049 0
M  V30 1402 C 125.384 -2.66575 2.41796 0
M  V30 1403 C 124.992 -2.25358 3.87192 0
M  V30 1404 C 126.736 -3.4433 2.48269 0
M  V30 1405 C 124.643 -3.41262 4.83005 0
M  V30 1406 H 123.573 -0.553901 0.511576 0
M  V30 1407 H 126.224 -0.783427 1.65936 0
M  V30 1408 H 124.606 -3.3787 2.06543 0
M  V30 1409 H 125.78 -1.61509 4.31569 0
M  V30 1410 H 124.095 -1.60657 3.84159 0
M  V30 1411 H 126.692 -4.30569 3.17041 0
M  V30 1412 H 127.035 -3.87872 1.51198 0
M  V30 1413 H 127.568 -2.80076 2.82493 0
M  V30 1414 H 124.307 -3.02755 5.81394 0
M  V30 1415 H 123.827 -4.0404 4.43297 0
M  V30 1416 H 125.506 -4.07383 5.02641 0
M  V30 1417 N 125.638 -1.25649 -0.95132 0
M  V30 1418 C 126.548 -1.08073 -2.08224 0
M  V30 1419 C 127.564 -0.0169666 -1.73992 0
M  V30 1420 O 128.74 -0.218593 -2.0021 0
M  V30 1421 C 125.805 -0.704922 -3.39458 0
M  V30 1422 C 124.866 -1.84699 -3.87537 0
M  V30 1423 C 124.099 -1.48902 -5.12508 0
M  V30 1424 O 124.322 -0.386156 -5.69091 0
M  V30 1425 O 123.256 -2.32033 -5.55378 0
M  V30 1426 H 127.082 -2.02924 -2.25954 0
M  V30 1427 H 124.667 -1.04618 -1.06656 0
M  V30 1428 H 126.549 -0.507609 -4.18332 0
M  V30 1429 H 125.224 0.214291 -3.2299 0
M  V30 1430 H 124.131 -2.09919 -3.09653 0
M  V30 1431 H 125.464 -2.74557 -4.08509 0
M  V30 1432 N 127.117 1.15442 -1.07289 0
M  V30 1433 C 128.065 2.22225 -0.686952 0
M  V30 1434 C 129.059 1.66688 0.30193 0
M  V30 1435 O 130.265 1.79236 0.165712 0
M  V30 1436 H 126.64 0.723783 -0.204064 0
M  V30 1437 H 128.611 2.52056 -1.5972 0
M  V30 1438 C 127.36 3.47556 -0.100149 0
M  V30 1439 H 126.683 3.90612 -0.852211 0
M  V30 1440 H 128.123 4.23794 0.132235 0
M  V30 1441 C 126.582 3.16337 1.159 0
M  V30 1442 O 127.112 3.33074 2.24555 0
M  V30 1443 N 125.318 2.70385 1.06491 0
M  V30 1444 H 124.865 2.56966 0.180668 0
M  V30 1445 H 124.823 2.49871 1.90819 0
M  V30 1446 N 128.595 0.856903 1.32268 0
M  V30 1447 C 129.82 0.474569 2.01897 0
M  V30 1448 C 130.245 -0.921766 1.63967 0
M  V30 1449 O 129.603 -1.60589 0.84148 0
M  V30 1450 C 129.651 0.623799 3.55164 0
M  V30 1451 O 128.755 -0.342459 4.10976 0
M  V30 1452 H 128.096 0.190422 0.63611 0
M  V30 1453 H 130.626 1.15672 1.68764 0
M  V30 1454 H 130.636 0.512169 4.04773 0
M  V30 1455 H 129.311 1.64202 3.82113 0
M  V30 1456 H 127.888 -0.18688 3.72431 0
M  V30 1457 N 130.073 -1.45103 0.615059 0
M  V30 1458 C 131.023 -2.27679 -0.120966 0
M  V30 1459 C 132.007 -1.3775 -0.831491 0
M  V30 1460 O 133.199 -1.61683 -0.720249 0
M  V30 1461 C 130.328 -3.24767 -1.1127 0
M  V30 1462 C 129.414 -4.22184 -0.402627 0
M  V30 1463 N 129.805 -5.02692 0.559884 0
M  V30 1464 C 128.103 -4.4125 -0.649202 0
M  V30 1465 C 128.804 -5.73421 0.977942 0
M  V30 1466 N 127.78 -5.42657 0.320104 0
M  V30 1467 H 131.582 -2.87325 0.618181 0
M  V30 1468 H 129.096 -1.56345 0.439304 0
M  V30 1469 H 131.093 -3.82666 -1.65446 0
M  V30 1470 H 129.753 -2.66682 -1.85232 0
M  V30 1471 H 130.764 -5.09354 0.936976 0
M  V30 1472 H 127.441 -3.9428 -1.37293 0
M  V30 1473 H 128.831 -6.48107 1.77222 0
M  V30 1474 N 131.551 -0.354651 -1.53558 0
M  V30 1475 C 132.828 0.294281 -1.93374 0
M  V30 1476 C 133.208 1.67313 -1.28723 0
M  V30 1477 O 132.556 2.24179 -0.442247 0
M  V30 1478 C 132.766 0.355445 -3.47185 0
M  V30 1479 C 134.114 0.601007 -4.20325 0
M  V30 1480 O 135.138 0.437106 -3.53508 0
M  V30 1481 O 133.997 0.919322 -5.38712 0
M  V30 1482 H 131.091 0.174033 -0.808481 0
M  V30 1483 H 133.637 -0.406638 -1.64756 0
M  V30 1484 H 132.409 -0.611729 -3.86489 0
M  V30 1485 H 132.032 1.1027 -3.82003 0
M  V30 1486 N 133.029 1.57378 -0.0835403 0
M  V30 1487 C 134.445 1.57246 0.273109 0
M  V30 1488 C 134.645 1.09385 1.69225 0
M  V30 1489 O 133.701 0.765051 2.40631 0
M  V30 1490 C 135.014 3.00614 0.0720628 0
M  V30 1491 C 136.562 3.12684 0.1407 0
M  V30 1492 C 137.037 4.57989 -0.0322094 0
M  V30 1493 N 138.528 4.63194 0.0230085 0
M  V30 1494 C 139.263 5.73335 -0.0861941 0
M  V30 1495 N 138.759 6.9235 -0.24958 0
M  V30 1496 N 140.552 5.62093 -0.0282886 0
M  V30 1497 H 132.703 1.86801 -1.0109 0
M  V30 1498 H 134.966 0.861687 -0.395222 0
M  V30 1499 H 134.672 3.39786 -0.907662 0
M  V30 1500 H 134.546 3.68193 0.81936 0
M  V30 1501 H 136.933 2.73391 1.11092 0
M  V30 1502 H 137.014 2.47719 -0.637896 0
M  V30 1503 H 136.658 4.97973 -0.999247 0
M  V30 1504 H 136.588 5.21 0.765937 0
M  V30 1505 H 139.079 3.77613 0.14722 0
M  V30 1506 H 139.392 7.72117 -0.324733 0
M  V30 1507 H 137.737 6.94415 -0.285097 0
M  V30 1508 H 140.928 4.67997 0.0981408 0
M  V30 1509 H 141.101 6.47895 -0.116845 0
M  V30 1510 N 134.507 -0.190092 1.56449 0
M  V30 1511 C 135.756 -0.907912 1.80111 0
M  V30 1512 C 136.069 -1.84214 0.657619 0
M  V30 1513 O 137.275 -2.60094 0.778663 0
M  V30 1514 C 135.731 -1.66485 3.19078 0
M  V30 1515 C 135.339 -0.7752 4.41242 0
M  V30 1516 C 137.083 -2.37201 3.52045 0
M  V30 1517 C 134.99 -1.53129 5.71231 0
M  V30 1518 H 133.92 -0.34276 0.671589 0
M  V30 1519 H 136.571 -0.161109 1.82791 0
M  V30 1520 H 134.953 -2.45572 3.10661 0
M  V30 1521 H 136.127 -0.0226298 4.60794 0
M  V30 1522 H 134.442 -0.178627 4.16017 0
M  V30 1523 H 137.039 -2.94329 4.46402 0
M  V30 1524 H 137.382 -3.11632 2.76028 0
M  V30 1525 H 137.915 -1.65075 3.61932 0
M  V30 1526 H 134.654 -0.82967 6.50228 0
M  V30 1527 H 134.174 -2.25767 5.55688 0
M  V30 1528 H 135.853 -2.08377 6.12526 0
M  V30 1529 N 135.985 -1.50799 -0.457987 0
M  V30 1530 C 136.918 -1.65273 -1.57353 0
M  V30 1531 C 137.896 -0.500578 -1.54703 0
M  V30 1532 O 139.08 -0.721781 -1.74134 0
M  V30 1533 C 136.207 -1.64737 -2.95938 0
M  V30 1534 C 135.253 -2.8567 -3.16693 0
M  V30 1535 S 136.086 -4.46791 -2.95191 0
M  V30 1536 C 137.242 -4.48968 -4.36095 0
M  V30 1537 H 137.475 -2.59633 -1.44838 0
M  V30 1538 H 135.008 -1.40225 -0.64625 0
M  V30 1539 H 136.966 -1.65112 -3.7583 0
M  V30 1540 H 135.627 -0.715899 -3.05833 0
M  V30 1541 H 134.82 -2.81637 -4.17967 0
M  V30 1542 H 134.422 -2.8293 -2.44594 0
M  V30 1543 H 136.714 -4.23337 -5.28954 0
M  V30 1544 H 137.657 -5.50664 -4.45168 0
M  V30 1545 H 138.065 -3.78522 -4.18786 0
M  V30 1546 N 137.463 0.71206 -1.40597 0
M  V30 1547 C 138.41 1.82613 -1.41142 0
M  V30 1548 C 139.38 1.63925 -0.267903 0
M  V30 1549 O 140.565 1.85009 -0.466495 0
M  V30 1550 C 137.705 3.20354 -1.28324 0
M  V30 1551 C 136.818 3.50589 -2.52411 0
M  V30 1552 C 135.953 4.77855 -2.32009 0
M  V30 1553 C 134.992 5.01005 -3.51654 0
M  V30 1554 N 134.129 6.19487 -3.30425 0
M  V30 1555 H 138.969 1.81482 -2.36365 0
M  V30 1556 H 136.506 0.886475 -1.17388 0
M  V30 1557 H 138.464 3.99899 -1.18899 0
M  V30 1558 H 137.094 3.20705 -0.367189 0
M  V30 1559 H 136.146 2.65573 -2.72351 0
M  V30 1560 H 137.458 3.63604 -3.41458 0
M  V30 1561 H 136.612 5.65424 -2.19956 0
M  V30 1562 H 135.351 4.67056 -1.40392 0
M  V30 1563 H 134.356 4.1189 -3.64179 0
M  V30 1564 H 135.581 5.13674 -4.44202 0
M  V30 1565 H 133.527 6.09932 -2.41494 0
M  V30 1566 H 133.444 6.33194 -4.13039 0
M  V30 1567 H 134.712 7.09834 -3.22113 0
M  V30 1568 N 138.941 1.26152 0.944643 0
M  V30 1569 C 140.169 1.14259 1.72489 0
M  V30 1570 C 140.584 -0.302555 1.8636 0
M  V30 1571 O 139.941 -1.20741 1.36849 0
M  V30 1572 C 139.992 1.80266 3.13347 0
M  V30 1573 O 139.713 3.19133 3.00143 0
M  V30 1574 C 141.214 1.74283 4.07603 0
M  V30 1575 H 138.434 0.398051 0.540181 0
M  V30 1576 H 140.978 1.66706 1.18446 0
M  V30 1577 H 139.133 1.31766 3.64303 0
M  V30 1578 H 139.547 3.51744 3.89071 0
M  V30 1579 H 141.021 2.25111 5.04013 0
M  V30 1580 H 141.498 0.708631 4.33446 0
M  V30 1581 H 142.104 2.22319 3.62567 0
M  V30 1582 N 140.419 -1.14872 1.07899 0
M  V30 1583 C 141.665 -1.86064 0.806725 0
M  V30 1584 C 141.998 -1.82434 -0.665706 0
M  V30 1585 O 141.273 -1.25138 -1.48899 0
M  V30 1586 C 141.556 -3.34929 1.32267 0
M  V30 1587 C 141.409 -3.47161 2.86006 0
M  V30 1588 C 142.728 -4.29863 0.943717 0
M  V30 1589 H 139.847 -0.675591 0.294526 0
M  V30 1590 H 142.489 -1.34925 1.33773 0
M  V30 1591 H 140.639 -3.78611 0.870974 0
M  V30 1592 H 142.311 -3.12302 3.39507 0
M  V30 1593 H 140.554 -2.88539 3.23925 0
M  V30 1594 H 141.225 -4.51777 3.17177 0
M  V30 1595 H 143.701 -3.9417 1.33302 0
M  V30 1596 H 142.577 -5.32494 1.33198 0
M  V30 1597 H 142.838 -4.41846 -0.149796 0
M  V30 1598 N 141.898 -0.863906 -1.31812 0
M  V30 1599 C 142.845 -0.313303 -2.28664 0
M  V30 1600 C 143.815 0.584868 -1.55462 0
M  V30 1601 O 145 0.517805 -1.83639 0
M  V30 1602 C 142.14 0.48441 -3.41683 0
M  V30 1603 C 141.253 -0.440594 -4.29747 0
M  V30 1604 C 140.388 0.370652 -5.29905 0
M  V30 1605 C 139.427 -0.551164 -6.09613 0
M  V30 1606 N 138.564 0.223462 -7.01744 0
M  V30 1607 H 143.404 -1.14444 -2.75148 0
M  V30 1608 H 140.941 -0.575769 -1.35364 0
M  V30 1609 H 142.899 0.962627 -4.05943 0
M  V30 1610 H 141.529 1.28029 -2.96325 0
M  V30 1611 H 140.581 -1.03724 -3.65986 0
M  V30 1612 H 141.893 -1.14767 -4.85417 0
M  V30 1613 H 141.047 0.911638 -5.99812 0
M  V30 1614 H 139.786 1.11105 -4.74876 0
M  V30 1615 H 138.791 -1.10396 -5.38603 0
M  V30 1616 H 140.016 -1.29032 -6.66729 0
M  V30 1617 H 137.962 0.946787 -6.49132 0
M  V30 1618 H 137.879 -0.424399 -7.54808 0
M  V30 1619 H 139.147 0.745876 -7.75923 0
M  V30 1620 N 143.376 1.44774 -0.622745 0
M  V30 1621 C 144.308 2.28856 0.125485 0
M  V30 1622 C 145.321 1.40811 0.817069 0
M  V30 1623 O 146.51 1.65044 0.679918 0
M  V30 1624 C 143.61 3.16963 1.19949 0
M  V30 1625 C 142.783 4.33374 0.592064 0
M  V30 1626 C 141.842 5.02577 1.55893 0
M  V30 1627 O 140.868 5.58873 1.07933 0
M  V30 1628 N 142.07 5.03256 2.89334 0
M  V30 1629 H 144.835 2.93713 -0.596068 0
M  V30 1630 H 142.396 1.55129 -0.463303 0
M  V30 1631 H 144.388 3.60123 1.84644 0
M  V30 1632 H 142.958 2.53913 1.82337 0
M  V30 1633 H 142.178 3.93509 -0.233322 0
M  V30 1634 H 143.466 5.08527 0.166738 0
M  V30 1635 H 142.864 4.58836 3.30887 0
M  V30 1636 H 141.421 5.50232 3.49412 0
M  V30 1637 N 144.854 0.36279 1.53368 0
M  V30 1638 C 145.804 -0.501391 2.22419 0
M  V30 1639 C 146.788 -1.0509 1.2184 0
M  V30 1640 O 147.98 -0.981404 1.47301 0
M  V30 1641 C 145.109 -1.64201 3.01484 0
M  V30 1642 C 144.195 -1.10552 4.09438 0
M  V30 1643 N 144.586 -0.291788 5.04958 0
M  V30 1644 C 142.884 -1.3806 4.24094 0
M  V30 1645 C 143.585 0.00162655 5.817 0
M  V30 1646 N 142.561 -0.595244 5.40331 0
M  V30 1647 H 146.363 0.127159 2.93625 0
M  V30 1648 H 143.877 0.170658 1.61501 0
M  V30 1649 H 145.874 -2.27326 3.49469 0
M  V30 1650 H 144.534 -2.27365 2.31809 0
M  V30 1651 H 145.545 0.0687731 5.17854 0
M  V30 1652 H 142.222 -2.01522 3.65644 0
M  V30 1653 H 143.612 0.659278 6.68658 0
M  V30 1654 N 146.332 -1.57332 0.0918853 0
M  V30 1655 C 147.748 -1.57389 -0.264766 0
M  V30 1656 C 147.948 -1.10281 -1.68643 0
M  V30 1657 O 147.004 -0.777801 -2.40222 0
M  V30 1658 C 148.317 -3.00648 -0.0561195 0
M  V30 1659 C 149.865 -3.12754 -0.124116 0
M  V30 1660 C 150.34 -4.57965 0.0564972 0
M  V30 1661 N 151.831 -4.632 0.00155611 0
M  V30 1662 C 152.566 -5.73281 0.116598 0
M  V30 1663 N 152.062 -6.92208 0.286294 0
M  V30 1664 N 153.855 -5.6207 0.0580973 0
M  V30 1665 H 146.006 -1.86262 1.02079 0
M  V30 1666 H 148.269 -0.859579 0.399786 0
M  V30 1667 H 147.975 -3.393 0.925669 0
M  V30 1668 H 147.849 -3.68623 -0.799823 0
M  V30 1669 H 150.236 -2.73976 -1.09641 0
M  V30 1670 H 150.317 -2.47377 0.651024 0
M  V30 1671 H 149.961 -4.97436 1.02564 0
M  V30 1672 H 149.891 -5.21399 -0.738297 0
M  V30 1673 H 152.382 -3.77686 -0.127192 0
M  V30 1674 H 152.695 -7.71934 0.365676 0
M  V30 1675 H 151.04 -6.94254 0.32192 0
M  V30 1676 H 154.231 -4.68043 -0.0733204 0
M  V30 1677 H 154.404 -6.47824 0.151203 0
M  V30 1678 N 147.81 0.181792 -1.56548 0
M  V30 1679 C 148.74 1.22765 -1.98623 0
M  V30 1680 C 149.721 1.46747 -0.860189 0
M  V30 1681 O 150.906 1.58259 -1.12551 0
M  V30 1682 C 148.036 2.56894 -2.33715 0
M  V30 1683 C 146.99 2.475 -3.49182 0
M  V30 1684 C 146.316 3.86023 -3.69986 0
M  V30 1685 C 147.616 1.98866 -4.82959 0
M  V30 1686 H 149.31 0.877942 -2.86239 0
M  V30 1687 H 146.856 0.42088 -1.37712 0
M  V30 1688 H 148.809 3.30253 -2.61746 0
M  V30 1689 H 147.533 2.93632 -1.42997 0
M  V30 1690 H 146.192 1.76596 -3.21262 0
M  V30 1691 H 145.84 4.20136 -2.76576 0
M  V30 1692 H 145.54 3.80609 -4.47672 0
M  V30 1693 H 147.064 4.60984 -4.00407 0
M  V30 1694 H 148.478 2.61992 -5.09934 0
M  V30 1695 H 146.875 2.04424 -5.64208 0
M  V30 1696 H 147.945 0.942465 -4.75653 0
M  V30 1697 N 149.288 1.51039 0.449983 0
M  V30 1698 C 150.235 1.71439 1.54523 0
M  V30 1699 C 151.205 0.555871 1.56522 0
M  V30 1700 O 152.39 0.788871 1.73728 0
M  V30 1701 C 149.53 1.83384 2.92343 0
M  V30 1702 C 148.643 3.10873 2.9997 0
M  V30 1703 C 147.778 3.13488 4.28834 0
M  V30 1704 C 146.817 4.35343 4.30282 0
M  V30 1705 N 145.954 4.35579 5.5065 0
M  V30 1706 H 150.794 2.64934 1.36433 0
M  V30 1707 H 148.331 1.31312 0.662982 0
M  V30 1708 H 150.289 1.88291 3.72293 0
M  V30 1709 H 148.919 0.933086 3.0902 0
M  V30 1710 H 147.971 3.15336 2.12761 0
M  V30 1711 H 149.283 4.00814 2.96901 0
M  V30 1712 H 148.437 3.17241 5.17149 0
M  V30 1713 H 147.176 2.21414 4.34543 0
M  V30 1714 H 146.181 4.3178 3.40362 0
M  V30 1715 H 147.406 5.28668 4.26248 0
M  V30 1716 H 145.352 3.46369 5.57104 0
M  V30 1717 H 145.269 5.19313 5.49409 0
M  V30 1718 H 146.537 4.43507 6.41032 0
M  V30 1719 N 150.766 -0.704594 1.40972 0
M  V30 1720 C 151.714 -1.83994 1.42299 0
M  V30 1721 C 152.708 -1.66684 0.302111 0
M  V30 1722 O 153.914 -1.73655 0.473697 0
M  V30 1723 H 150.289 -0.606171 0.44504 0
M  V30 1724 H 152.26 -1.79992 2.38003 0
M  V30 1725 C 151.009 -3.21946 1.31323 0
M  V30 1726 H 150.332 -3.35878 2.16855 0
M  V30 1727 H 151.772 -4.01491 1.36311 0
M  V30 1728 C 150.231 -3.36891 0.0245977 0
M  V30 1729 O 150.761 -3.90687 -0.934153 0
M  V30 1730 N 148.967 -2.90559 -0.0485243 0
M  V30 1731 H 148.514 -2.46968 0.732419 0
M  V30 1732 H 148.472 -3.00937 -0.910171 0
M  V30 1733 N 152.244 -1.26651 -0.937939 0
M  V30 1734 C 153.474 -1.15006 -1.71631 0
M  V30 1735 C 153.882 0.297026 -1.86854 0
M  V30 1736 O 153.225 1.21493 -1.37786 0
M  V30 1737 C 153.287 -1.74984 -3.14039 0
M  V30 1738 C 152.951 -3.24103 -3.2219 0
M  V30 1739 C 153.948 -4.20877 -3.05219 0
M  V30 1740 C 151.633 -3.64625 -3.45476 0
M  V30 1741 C 153.627 -5.56151 -3.11408 0
M  V30 1742 C 151.314 -5.00032 -3.513 0
M  V30 1743 C 152.312 -5.95604 -3.34282 0
M  V30 1744 O 152 -7.28545 -3.3982 0
M  V30 1745 H 151.732 -0.401183 -0.544085 0
M  V30 1746 H 154.286 -1.67832 -1.18413 0
M  V30 1747 H 152.516 -1.16624 -3.68695 0
M  V30 1748 H 154.205 -1.58199 -3.73802 0
M  V30 1749 H 154.971 -3.90908 -2.87081 0
M  V30 1750 H 150.85 -2.90718 -3.57777 0
M  V30 1751 H 154.394 -6.30727 -2.98043 0
M  V30 1752 H 150.291 -5.29659 -3.68959 0
M  V30 1753 H 151.059 -7.3686 -3.56343 0
M  V30 1754 N 153.722 1.14298 -1.08507 0
M  V30 1755 C 154.971 1.84708 -0.810305 0
M  V30 1756 C 155.284 1.83903 0.666271 0
M  V30 1757 O 156.49 2.50112 1.05624 0
M  V30 1758 C 154.946 3.31572 -1.39957 0
M  V30 1759 C 154.554 3.40791 -2.90801 0
M  V30 1760 C 156.298 4.07087 -1.20334 0
M  V30 1761 C 154.205 4.81872 -3.4286 0
M  V30 1762 H 153.135 0.691985 -0.299454 0
M  V30 1763 H 155.786 1.28841 -1.30661 0
M  V30 1764 H 154.168 3.87183 -0.830976 0
M  V30 1765 H 155.342 2.95225 -3.53806 0
M  V30 1766 H 153.657 2.78732 -3.0935 0
M  V30 1767 H 156.254 5.11225 -1.56693 0
M  V30 1768 H 156.597 4.16054 -0.143237 0
M  V30 1769 H 157.13 3.57779 -1.73893 0
M  V30 1770 H 153.869 4.78094 -4.48449 0
M  V30 1771 H 153.389 5.27972 -2.84615 0
M  V30 1772 H 155.068 5.50765 -3.39509 0
M  V30 1773 N 155.201 0.870884 1.31352 0
M  V30 1774 C 156.148 0.325425 2.28494 0
M  V30 1775 C 157.118 -0.576615 1.5577 0
M  V30 1776 O 158.303 -0.508059 1.83911 0
M  V30 1777 C 155.443 -0.466283 3.41935 0
M  V30 1778 C 154.556 0.463378 4.29508 0
M  V30 1779 C 153.691 -0.342544 5.30094 0
M  V30 1780 C 152.73 0.583486 6.09313 0
M  V30 1781 N 151.867 -0.186244 7.01853 0
M  V30 1782 H 156.707 1.15901 2.74538 0
M  V30 1783 H 154.244 0.58294 1.35056 0
M  V30 1784 H 156.202 -0.941085 4.06447 0
M  V30 1785 H 154.832 -1.26456 2.97 0
M  V30 1786 H 153.884 1.05663 3.65431 0
M  V30 1787 H 155.196 1.1734 4.84802 0
M  V30 1788 H 154.35 -0.879816 6.00287 0
M  V30 1789 H 153.089 -1.08585 4.75458 0
M  V30 1790 H 152.094 1.13251 5.3801 0
M  V30 1791 H 153.319 1.32566 6.66035 0
M  V30 1792 H 151.265 -0.912348 6.49625 0
M  V30 1793 H 151.182 0.464422 7.54572 0
M  V30 1794 H 152.45 -0.704716 7.76308 0
M  V30 1795 N 156.679 -1.44442 0.630414 0
M  V30 1796 C 157.589 -2.34476 -0.0761693 0
M  V30 1797 C 158.605 -1.52576 -0.836449 0
M  V30 1798 O 159.781 -1.85307 -0.788874 0
M  V30 1799 C 156.846 -3.30545 -1.04599 0
M  V30 1800 C 155.907 -4.28352 -0.28516 0
M  V30 1801 C 155.14 -5.19831 -1.20878 0
M  V30 1802 O 155.363 -5.15223 -2.44747 0
M  V30 1803 O 154.297 -5.97892 -0.693491 0
M  V30 1804 H 158.123 -2.96345 0.664324 0
M  V30 1805 H 155.708 -1.44203 0.39061 0
M  V30 1806 H 157.59 -3.89681 -1.60396 0
M  V30 1807 H 156.265 -2.7121 -1.76711 0
M  V30 1808 H 155.172 -3.72764 0.315837 0
M  V30 1809 H 156.505 -4.90605 0.395924 0
M  V30 1810 N 158.157 -0.370918 -1.53173 0
M  V30 1811 C 159.382 0.220293 -2.06227 0
M  V30 1812 C 159.807 1.41243 -1.24225 0
M  V30 1813 O 159.165 1.79387 -0.262645 0
M  V30 1814 C 159.213 0.586663 -3.55796 0
M  V30 1815 O 158.317 1.68317 -3.76488 0
M  V30 1816 H 157.658 0.0308099 -0.663285 0
M  V30 1817 H 160.188 -0.533068 -1.97534 0
M  V30 1818 H 160.198 0.85617 -3.98916 0
M  V30 1819 H 158.873 -0.285013 -4.14922 0
M  V30 1820 H 157.45 1.40881 -3.45264 0
M  V30 1821 N 159.635 1.57281 -0.100228 0
M  V30 1822 C 160.565 2.17328 0.853857 0
M  V30 1823 C 161.546 1.10804 1.2906 0
M  V30 1824 O 162.731 1.38963 1.35657 0
M  V30 1825 C 159.861 2.75772 2.11109 0
M  V30 1826 C 158.815 3.87713 1.81279 0
M  V30 1827 C 158.141 4.32882 3.13874 0
M  V30 1828 C 159.441 5.10677 1.09574 0
M  V30 1829 H 161.135 2.97305 0.353545 0
M  V30 1830 H 158.681 1.43009 0.168612 0
M  V30 1831 H 160.634 3.16433 2.78296 0
M  V30 1832 H 159.358 1.93057 2.63432 0
M  V30 1833 H 158.017 3.476 1.16489 0
M  V30 1834 H 157.665 3.47051 3.64095 0
M  V30 1835 H 157.365 5.08358 2.94696 0
M  V30 1836 H 158.889 4.7618 3.82211 0
M  V30 1837 H 160.303 5.48474 1.66879 0
M  V30 1838 H 158.7 5.91615 1.00557 0
M  V30 1839 H 159.77 4.84835 0.0793299 0
M  V30 1840 N 161.113 -0.173488 1.56642 0
M  V30 1841 C 162.06 -1.21482 1.96242 0
M  V30 1842 C 163.03 -1.44104 0.826027 0
M  V30 1843 O 164.215 -1.5688 1.08597 0
M  V30 1844 C 161.355 -2.54964 2.32567 0
M  V30 1845 C 160.468 -2.39739 3.59373 0
M  V30 1846 C 159.603 -3.66072 3.84921 0
M  V30 1847 C 158.642 -3.45771 5.05083 0
M  V30 1848 N 157.779 -4.64169 5.26775 0
M  V30 1849 H 162.619 -0.870123 2.85014 0
M  V30 1850 H 160.156 -0.418245 1.41029 0
M  V30 1851 H 162.114 -3.32758 2.5165 0
M  V30 1852 H 160.744 -2.87433 1.46908 0
M  V30 1853 H 159.796 -1.53131 3.48217 0
M  V30 1854 H 161.108 -2.20683 4.47326 0
M  V30 1855 H 160.262 -4.52303 4.0436 0
M  V30 1856 H 159.001 -3.88105 2.9534 0
M  V30 1857 H 158.006 -2.57927 4.85545 0
M  V30 1858 H 159.231 -3.25163 5.96193 0
M  V30 1859 H 157.177 -4.86425 4.40144 0
M  V30 1860 H 157.094 -4.48019 6.08946 0
M  V30 1861 H 158.362 -5.51689 5.5069 0
M  V30 1862 N 162.591 -1.51276 -0.441967 0
M  V30 1863 C 163.838 -1.63715 -1.19179 0
M  V30 1864 C 164.166 -0.351175 -1.91303 0
M  V30 1865 O 163.421 0.664524 -1.84072 0
M  V30 1866 C 163.72 -2.78746 -2.23686 0
M  V30 1867 C 163.386 -4.18189 -1.68607 0
M  V30 1868 C 162.048 -4.56125 -1.53308 0
M  V30 1869 C 164.4 -5.05222 -1.28062 0
M  V30 1870 C 161.728 -5.78804 -0.959317 0
M  V30 1871 C 164.08 -6.28476 -0.721162 0
M  V30 1872 C 162.744 -6.65188 -0.55504 0
M  V30 1873 H 162.014 -0.599076 -0.436106 0
M  V30 1874 H 164.661 -1.85296 -0.48351 0
M  V30 1875 H 162.966 -2.51369 -3.00535 0
M  V30 1876 H 164.663 -2.8557 -2.81515 0
M  V30 1877 H 161.253 -3.88277 -1.8149 0
M  V30 1878 H 165.437 -4.76524 -1.38704 0
M  V30 1879 H 160.693 -6.05899 -0.81833 0
M  V30 1880 H 164.867 -6.95259 -0.398458 0
M  V30 1881 H 162.494 -7.60123 -0.108311 0
M  V30 1882 N 164.069 0.697108 -1.41344 0
M  V30 1883 C 165.316 1.45714 -1.40619 0
M  V30 1884 C 165.644 1.94494 -0.0147907 0
M  V30 1885 O 164.899 1.69794 0.973066 0
M  V30 1886 C 165.198 2.68553 -2.35826 0
M  V30 1887 C 164.864 2.38438 -3.82698 0
M  V30 1888 C 163.526 2.29936 -4.22709 0
M  V30 1889 C 165.878 2.13567 -4.75435 0
M  V30 1890 C 163.206 1.94656 -5.53467 0
M  V30 1891 C 165.558 1.79797 -6.06511 0
M  V30 1892 C 164.222 1.69789 -6.45545 0
M  V30 1893 H 163.492 0.533206 -0.51456 0
M  V30 1894 H 166.139 0.796901 -1.74131 0
M  V30 1895 H 164.444 3.39503 -1.95563 0
M  V30 1896 H 166.141 3.2669 -2.32539 0
M  V30 1897 H 162.731 2.4595 -3.51008 0
M  V30 1898 H 166.915 2.19082 -4.45328 0
M  V30 1899 H 162.171 1.8546 -5.82593 0
M  V30 1900 H 166.345 1.59572 -6.77872 0
M  V30 1901 H 163.972 1.4222 -7.46778 0
M  V30 1902 N 165.547 1.27147 0.931209 0
M  V30 1903 C 166.494 1.09568 2.03134 0
M  V30 1904 C 167.464 -0.00222433 1.661 0
M  V30 1905 O 168.649 0.159439 1.90133 0
M  V30 1906 C 165.789 0.745231 3.36957 0
M  V30 1907 C 164.902 1.92041 3.86968 0
M  V30 1908 C 164.037 1.51216 5.09222 0
M  V30 1909 C 163.076 2.65504 5.5152 0
M  V30 1910 N 162.213 2.25291 6.64972 0
M  V30 1911 H 167.053 2.03708 2.17502 0
M  V30 1912 H 164.59 1.01411 1.06556 0
M  V30 1913 H 166.548 0.522878 4.1391 0
M  V30 1914 H 165.178 -0.159202 3.22407 0
M  V30 1915 H 164.23 2.25541 3.06326 0
M  V30 1916 H 165.542 2.77787 4.1429 0
M  V30 1917 H 164.696 1.25084 5.93666 0
M  V30 1918 H 163.435 0.625749 4.83669 0
M  V30 1919 H 162.44 2.92354 4.65628 0
M  V30 1920 H 163.665 3.54761 5.7907 0
M  V30 1921 H 161.611 1.39098 6.41083 0
M  V30 1922 H 161.528 3.04577 6.91931 0
M  V30 1923 H 162.796 2.02398 7.52765 0
M  V30 1924 N 167.025 -1.13721 1.09112 0
M  V30 1925 C 168.253 -1.88773 0.846899 0
M  V30 1926 C 168.668 -1.7896 -0.601572 0
M  V30 1927 O 168.025 -1.15394 -1.41388 0
M  V30 1928 C 168.076 -3.3849 1.26913 0
M  V30 1929 O 167.797 -3.48043 2.66079 0
M  V30 1930 C 169.298 -4.30518 1.05682 0
M  V30 1931 H 166.518 -0.59772 0.304914 0
M  V30 1932 H 169.062 -1.43977 1.45227 0
M  V30 1933 H 167.217 -3.80881 0.707723 0
M  V30 1934 H 167.631 -4.4109 2.83795 0
M  V30 1935 H 169.105 -5.3391 1.40156 0
M  V30 1936 H 169.582 -4.392 -0.00563416 0
M  V30 1937 H 170.188 -3.93893 1.60402 0
M  V30 1938 N 168.503 -0.877838 -1.30888 0
M  V30 1939 C 169.751 -0.491723 -1.96027 0
M  V30 1940 C 170.072 0.960827 -1.69685 0
M  V30 1941 O 169.342 1.67462 -1.01654 0
M  V30 1942 H 167.922 -0.17885 -0.725273 0
M  V30 1943 H 170.584 -1.11935 -1.59551 0
M  V30 1944 H 169.68 -0.656016 -3.05128 0
M  V30 1945 N 169.982 1.44106 -0.638065 0
M  V30 1946 C 170.912 2.33448 0.0494287 0
M  V30 1947 C 171.893 1.48606 0.827672 0
M  V30 1948 O 173.078 1.77308 0.792173 0
M  V30 1949 C 170.208 3.31771 1.02691 0
M  V30 1950 C 169.162 4.26485 0.359823 0
M  V30 1951 C 168.488 5.14729 1.44769 0
M  V30 1952 C 169.788 5.17056 -0.738296 0
M  V30 1953 H 171.482 2.91183 -0.696636 0
M  V30 1954 H 169.028 1.40014 -0.336456 0
M  V30 1955 H 170.981 3.93161 1.51666 0
M  V30 1956 H 169.705 2.7226 1.80395 0
M  V30 1957 H 168.364 3.66437 -0.10934 0
M  V30 1958 H 168.012 4.51566 2.21578 0
M  V30 1959 H 167.712 5.78913 1.00668 0
M  V30 1960 H 169.236 5.78991 1.93911 0
M  V30 1961 H 170.65 5.72342 -0.331354 0
M  V30 1962 H 169.047 5.89879 -1.10286 0
M  V30 1963 H 170.117 4.57652 -1.60258 0
M  V30 1964 N 171.46 0.379036 1.52974 0
M  V30 1965 C 172.688 -0.20679 2.05864 0
M  V30 1966 C 173.103 -1.41356 1.25155 0
M  V30 1967 O 172.46 -1.8009 0.295588 0
M  V30 1968 C 172.511 -0.587045 3.56702 0
M  V30 1969 O 172.232 0.571776 4.34353 0
M  V30 1970 C 173.733 -1.22983 4.25899 0
M  V30 1971 H 170.953 -0.0336123 0.670158 0
M  V30 1972 H 173.497 0.541298 1.97206 0
M  V30 1973 H 171.652 -1.28504 3.65466 0
M  V30 1974 H 172.066 0.261544 5.23847 0
M  V30 1975 H 173.54 -1.44635 5.32715 0
M  V30 1976 H 174.017 -2.19416 3.80465 0
M  V30 1977 H 174.623 -0.572892 4.21424 0
M  V30 1978 N 172.938 -1.57226 0.108567 0
M  V30 1979 C 173.87 -2.11809 -0.875752 0
M  V30 1980 C 174.883 -1.05839 -1.23701 0
M  V30 1981 O 176.072 -1.33245 -1.18778 0
M  V30 1982 C 173.172 -2.59411 -2.18081 0
M  V30 1983 C 172.345 -3.89364 -1.99284 0
M  V30 1984 C 171.404 -4.22672 -3.13424 0
M  V30 1985 O 170.43 -4.91668 -2.86795 0
M  V30 1986 N 171.632 -3.79154 -4.3957 0
M  V30 1987 H 174.397 -2.9689 -0.409477 0
M  V30 1988 H 171.958 -1.61721 -0.076158 0
M  V30 1989 H 173.95 -2.7873 -2.93414 0
M  V30 1990 H 172.52 -1.79268 -2.5609 0
M  V30 1991 H 171.74 -3.79059 -1.08203 0
M  V30 1992 H 173.028 -4.74358 -1.84017 0
M  V30 1993 H 172.426 -3.23486 -4.64083 0
M  V30 1994 H 170.983 -4.03602 -5.11809 0
M  V30 1995 N 174.416 0.165178 -1.56732 0
M  V30 1996 C 175.363 1.2044 -1.96883 0
M  V30 1997 C 176.333 1.43664 -0.833657 0
M  V30 1998 O 177.518 1.56302 -1.09427 0
M  V30 1999 C 174.658 2.53727 -2.33916 0
M  V30 2000 C 173.771 2.3783 -3.6064 0
M  V30 2001 C 172.906 3.64026 -3.86857 0
M  V30 2002 C 171.945 3.43088 -5.06909 0
M  V30 2003 N 171.082 4.61369 -5.29229 0
M  V30 2004 H 175.922 0.854996 -2.85471 0
M  V30 2005 H 173.459 0.41076 -1.41249 0
M  V30 2006 H 175.417 3.31419 -2.53411 0
M  V30 2007 H 174.047 2.8665 -1.48431 0
M  V30 2008 H 173.099 1.51282 -3.49024 0
M  V30 2009 H 174.411 2.18308 -4.4849 0
M  V30 2010 H 173.565 4.50152 -4.06753 0
M  V30 2011 H 172.304 3.86533 -2.97394 0
M  V30 2012 H 171.309 2.55349 -4.86906 0
M  V30 2013 H 172.534 3.21997 -5.97909 0
M  V30 2014 H 170.48 4.84084 -4.42718 0
M  V30 2015 H 170.397 4.44783 -6.11313 0
M  V30 2016 H 171.665 5.48761 -5.53608 0
M  V30 2017 N 175.894 1.51508 0.433938 0
M  V30 2018 C 177.305 1.56784 1.01369 0
M  V30 2019 C 177.656 0.393349 1.92217 0
M  V30 2020 O 176.781 -0.489441 2.10792 0
M  V30 2021 C 177.376 2.84144 1.8452 0
M  V30 2022 C 175.935 2.9198 2.37539 0
M  V30 2023 C 175.082 2.51482 1.16843 0
M  V30 2024 H 178.033 1.57236 0.215081 0
M  V30 2025 H 178.054 2.68098 2.70007 0
M  V30 2026 H 177.566 3.69607 1.18373 0
M  V30 2027 H 175.667 2.10955 3.0713 0
M  V30 2028 H 175.78 3.95704 2.70103 0
M  V30 2029 H 174.144 2.04758 1.51481 0
M  V30 2030 H 174.927 3.39293 0.523015 0
M  V30 2031 N 177.372 -0.689602 1.41712 0
M  V30 2032 C 178.322 -1.79571 1.40493 0
M  V30 2033 C 179.306 -1.58473 0.278409 0
M  V30 2034 O 180.498 -1.69204 0.519532 0
M  V30 2035 C 177.627 -3.17923 1.29536 0
M  V30 2036 C 176.713 -3.44695 2.47075 0
M  V30 2037 N 177.104 -3.42132 3.72531 0
M  V30 2038 C 175.402 -3.75269 2.41017 0
M  V30 2039 C 176.103 -3.67976 4.50521 0
M  V30 2040 N 175.079 -3.88014 3.80718 0
M  V30 2041 H 178.881 -1.75961 2.35404 0
M  V30 2042 H 176.395 -0.889839 1.35851 0
M  V30 2043 H 178.392 -3.97167 1.26745 0
M  V30 2044 H 177.052 -3.22741 0.356153 0
M  V30 2045 H 178.063 -3.22375 4.05333 0
M  V30 2046 H 174.74 -3.87421 1.55599 0
M  V30 2047 H 176.13 -3.7208 5.59469 0
M  V30 2048 N 178.85 -1.27639 -0.924453 0
M  V30 2049 C 179.78 -1.13166 -2.04244 0
M  V30 2050 C 180.761 -0.032256 -1.70069 0
M  V30 2051 O 181.946 -0.207328 -1.9309 0
M  V30 2052 C 179.076 -0.781496 -3.38393 0
M  V30 2053 C 178.03 -1.83449 -3.86692 0
M  V30 2054 C 177.356 -1.33822 -5.17683 0
M  V30 2055 C 178.656 -3.23917 -4.09726 0
M  V30 2056 H 180.35 -2.06689 -2.1661 0
M  V30 2057 H 177.896 -0.995136 -1.04082 0
M  V30 2058 H 179.849 -0.667057 -4.16087 0
M  V30 2059 H 178.573 0.189439 -3.2605 0
M  V30 2060 H 177.232 -1.93789 -3.11193 0
M  V30 2061 H 176.88 -0.35665 -5.01734 0
M  V30 2062 H 176.58 -2.04224 -5.50968 0
M  V30 2063 H 178.104 -1.23679 -5.97943 0
M  V30 2064 H 179.518 -3.16559 -4.77978 0
M  V30 2065 H 177.915 -3.92059 -4.54324 0
M  V30 2066 H 178.985 -3.68729 -3.14908 0
M  V30 2067 N 180.328 1.1314 -1.09713 0
M  V30 2068 C 181.576 1.84119 -0.833338 0
M  V30 2069 C 181.897 1.84097 0.642904 0
M  V30 2070 O 181.167 1.29881 1.46655 0
M  V30 2071 H 179.747 0.681766 -0.305293 0
M  V30 2072 H 182.409 1.37038 -1.38588 0
M  V30 2073 H 181.505 2.88543 -1.18951 0
M  V30 2074 N 181.806 0.884767 1.30421 0
M  V30 2075 C 182.754 0.340869 2.30089 0
M  V30 2076 C 183.748 -0.55201 1.60154 0
M  V30 2077 O 184.954 -0.436467 1.74628 0
M  V30 2078 H 181.329 0.0915739 0.746404 0
M  V30 2079 H 183.3 1.19513 2.73421 0
M  V30 2080 C 182.049 -0.429779 3.45034 0
M  V30 2081 H 181.372 0.248024 3.9903 0
M  V30 2082 H 182.812 -0.775445 4.16849 0
M  V30 2083 C 181.271 -1.62677 2.95022 0
M  V30 2084 O 181.801 -2.72614 2.95033 0
M  V30 2085 N 180.007 -1.46387 2.51036 0
M  V30 2086 H 179.554 -0.569506 2.51226 0
M  V30 2087 H 179.512 -2.26612 2.17932 0
M  V30 2088 N 183.284 -1.43765 0.645699 0
M  V30 2089 C 184.247 -2.29163 -0.0409488 0
M  V30 2090 C 185.247 -1.41813 -0.757996 0
M  V30 2091 O 186.437 -1.63527 -0.600382 0
M  V30 2092 C 183.569 -3.23716 -1.06869 0
M  V30 2093 H 184.762 -2.91366 0.710345 0
M  V30 2094 H 182.315 -1.5092 0.406547 0
M  V30 2095 H 183.05 -2.66393 -1.84947 0
M  V30 2096 H 182.835 -3.88105 -0.558277 0
M  V30 2097 H 184.325 -3.87831 -1.54845 0
M  V30 2098 N 184.763 -0.387143 -1.52771 0
M  V30 2099 C 186.011 0.195349 -2.01154 0
M  V30 2100 C 186.332 1.475 -1.27549 0
M  V30 2101 O 185.602 1.91878 -0.394924 0
M  V30 2102 H 184.182 0.075178 -0.743207 0
M  V30 2103 H 186.844 -0.518337 -1.87881 0
M  V30 2104 H 185.94 0.407096 -3.09434 0
M  V30 2105 N 186.241 1.57166 -0.116904 0
M  V30 2106 C 187.518 1.86645 0.585049 0
M  V30 2107 C 187.898 1.0177 1.84949 0
M  V30 2108 O 187.246 0.0960379 2.28298 0
M  V30 2109 C 187.456 3.37736 0.879507 0
M  V30 2110 C 188.804 4.06289 1.23348 0
M  V30 2111 O 189.828 3.42743 0.969836 0
M  V30 2112 O 188.687 5.18455 1.7282 0
M  V30 2113 H 185.781 0.772593 0.295007 0
M  V30 2114 H 188.327 1.69025 -0.151249 0
M  V30 2115 H 187.099 3.91296 -0.0166136 0
M  V30 2116 H 186.722 3.6078 1.67103 0
M  V30 2117 N 187.719 -0.156864 1.56817 0
M  V30 2118 C 188.944 -0.890331 1.87318 0
M  V30 2119 C 189.369 -1.74394 0.704855 0
M  V30 2120 O 188.727 -1.77972 -0.345786 0
M  V30 2121 C 188.775 -1.73102 3.16336 0
M  V30 2122 O 187.879 -2.83422 2.99576 0
M  V30 2123 H 187.22 -0.24857 0.615718 0
M  V30 2124 H 189.75 -0.150649 2.04045 0
M  V30 2125 H 189.76 -2.12803 3.48107 0
M  V30 2126 H 188.435 -1.10412 4.00976 0
M  V30 2127 H 187.012 -2.47199 2.7919 0
M  V30 2128 N 189.197 -1.51736 -0.425897 0
M  V30 2129 C 190.443 -1.65214 -1.1761 0
M  V30 2130 C 190.776 -0.372778 -1.90589 0
M  V30 2131 O 190.051 0.628139 -1.84078 0
M  V30 2132 C 190.334 -2.86312 -2.18398 0
M  V30 2133 C 190.187 -4.24254 -1.49426 0
M  V30 2134 C 191.506 -3.02925 -3.19256 0
M  V30 2135 H 188.625 -0.601263 -0.426206 0
M  V30 2136 H 191.267 -1.8425 -0.463882 0
M  V30 2137 H 189.417 -2.70213 -2.79137 0
M  V30 2138 H 191.089 -4.52046 -0.919362 0
M  V30 2139 H 189.332 -4.26426 -0.796432 0
M  V30 2140 H 190.003 -5.05001 -2.22885 0
M  V30 2141 H 192.479 -3.1781 -2.68581 0
M  V30 2142 H 191.355 -3.89199 -3.8706 0
M  V30 2143 H 191.616 -2.15497 -3.86023 0
M  V30 2144 N 190.675 0.682077 -1.42076 0
M  V30 2145 C 191.903 1.47057 -1.4554 0
M  V30 2146 C 192.318 1.8869 -0.0645779 0
M  V30 2147 O 191.675 1.57666 0.919115 0
M  V30 2148 C 191.726 2.72442 -2.37609 0
M  V30 2149 O 191.447 2.32559 -3.71279 0
M  V30 2150 C 192.948 3.66069 -2.50017 0
M  V30 2151 H 190.168 0.452737 -0.495248 0
M  V30 2152 H 192.712 0.838695 -1.8651 0
M  V30 2153 H 190.867 3.31835 -1.9991 0
M  V30 2154 H 191.281 3.13475 -4.20516 0
M  V30 2155 H 192.755 4.50792 -3.18576 0
M  V30 2156 H 193.232 4.11476 -1.53572 0
M  V30 2157 H 193.838 3.12572 -2.88407 0
M  V30 2158 N 192.153 1.28127 0.917671 0
M  V30 2159 C 193.083 1.14248 2.03641 0
M  V30 2160 C 194.064 0.0412748 1.7005 0
M  V30 2161 O 195.249 0.217566 1.92977 0
M  V30 2162 C 192.379 0.799431 3.37974 0
M  V30 2163 C 191.333 1.85497 3.85713 0
M  V30 2164 C 190.659 1.36565 5.16966 0
M  V30 2165 C 191.959 3.26085 4.08002 0
M  V30 2166 H 193.653 2.07835 2.15511 0
M  V30 2167 H 191.199 1.00064 1.03553 0
M  V30 2168 H 193.152 0.689114 4.15727 0
M  V30 2169 H 191.876 -0.172145 3.26146 0
M  V30 2170 H 190.535 1.95437 3.10161 0
M  V30 2171 H 190.183 0.383253 5.01538 0
M  V30 2172 H 189.883 2.07143 5.49878 0
M  V30 2173 H 191.407 1.26848 5.97279 0
M  V30 2174 H 192.821 3.19089 4.76293 0
M  V30 2175 H 191.218 3.94462 4.52238 0
M  V30 2176 H 192.288 3.70394 3.12948 0
M  V30 2177 N 193.631 -1.12557 1.10312 0
M  V30 2178 C 194.579 -2.20325 0.745629 0
M  V30 2179 C 195.573 -1.67429 -0.25763 0
M  V30 2180 O 196.779 -1.79612 -0.118132 0
M  V30 2181 H 193.154 -0.718118 0.223182 0
M  V30 2182 H 195.125 -2.47733 1.66346 0
M  V30 2183 C 193.874 -3.47168 0.192262 0
M  V30 2184 H 193.197 -3.88215 0.955475 0
M  V30 2185 H 194.637 -4.23995 -0.0198274 0
M  V30 2186 C 193.096 -3.19298 -1.07472 0
M  V30 2187 O 193.626 -3.3891 -2.15645 0
M  V30 2188 N 191.832 -2.73113 -0.992847 0
M  V30 2189 H 191.379 -2.57354 -0.112474 0
M  V30 2190 H 191.337 -2.54842 -1.84127 0
M  V30 2191 N 195.109 -0.891671 -1.2995 0
M  V30 2192 C 196.386 -0.433307 -1.9074 0
M  V30 2193 C 196.766 1.08646 -1.80995 0
M  V30 2194 O 196.114 1.92476 -1.23147 0
M  V30 2195 C 196.324 -0.938895 -3.36134 0
M  V30 2196 C 197.672 -0.977829 -4.13187 0
M  V30 2197 O 198.696 -0.886015 -3.45005 0
M  V30 2198 O 197.555 -1.11453 -5.35015 0
M  V30 2199 H 194.649 -0.133699 -0.816121 0
M  V30 2200 H 197.195 -0.981011 -1.38471 0
M  V30 2201 H 195.967 -1.98281 -3.37343 0
M  V30 2202 H 195.59 -0.37074 -3.95868 0
M  V30 2203 N 196.587 1.43421 -0.653314 0
M  V30 2204 C 197.833 2.02111 -0.166992 0
M  V30 2205 C 198.166 1.51423 1.21592 0
M  V30 2206 O 197.441 0.707389 1.8118 0
M  V30 2207 C 197.724 3.5966 -0.177948 0
M  V30 2208 C 197.577 4.20579 -1.59478 0
M  V30 2209 C 198.896 4.37413 0.4856 0
M  V30 2210 H 196.015 0.734374 -0.0621557 0
M  V30 2211 H 198.657 1.70717 -0.834016 0
M  V30 2212 H 196.807 3.86537 0.390032 0
M  V30 2213 H 198.479 4.04732 -2.21336 0
M  V30 2214 H 196.722 3.77226 -2.14204 0
M  V30 2215 H 197.393 5.29665 -1.5543 0
M  V30 2216 H 199.869 4.161 0.00234528 0
M  V30 2217 H 198.745 5.47075 0.447207 0
M  V30 2218 H 199.006 4.13672 1.55974 0
M  V30 2219 N 198.065 0.39524 1.52563 0
M  V30 2220 C 199.028 -0.425001 2.25225 0
M  V30 2221 C 200.028 -0.985266 1.27079 0
M  V30 2222 O 201.218 -0.866332 1.5113 0
M  V30 2223 C 198.35 -1.59686 3.01186 0
M  V30 2224 H 199.543 0.211233 2.99155 0
M  V30 2225 H 197.096 0.147472 1.55603 0
M  V30 2226 H 197.831 -2.27035 2.31572 0
M  V30 2227 H 197.616 -1.20176 3.73229 0
M  V30 2228 H 199.106 -2.17743 3.5634 0
M  V30 2229 N 199.544 -1.57102 0.125237 0
M  V30 2230 C 200.492 -2.16905 -0.839927 0
M  V30 2231 C 201.486 -1.11998 -1.27094 0
M  V30 2232 O 202.692 -1.3029 -1.24195 0
M  V30 2233 H 199.067 -0.694252 -0.288995 0
M  V30 2234 H 201.038 -2.96774 -0.311115 0
M  V30 2235 C 199.787 -2.78795 -2.07771 0
M  V30 2236 H 199.11 -3.59221 -1.755 0
M  V30 2237 H 200.55 -3.2417 -2.73295 0
M  V30 2238 C 199.009 -1.76193 -2.87155 0
M  V30 2239 O 199.539 -1.21909 -3.82755 0
M  V30 2240 N 197.745 -1.45991 -2.51267 0
M  V30 2241 H 197.292 -1.90325 -1.73592 0
M  V30 2242 H 197.25 -0.775844 -3.04677 0
M  V30 2243 N 201.022 0.148545 -1.56898 0
M  V30 2244 C 202.268 0.862694 -1.83536 0
M  V30 2245 C 202.601 1.80889 -0.706604 0
M  V30 2246 O 201.876 1.92328 0.289885 0
M  V30 2247 C 202.159 1.63853 -3.20662 0
M  V30 2248 C 202.012 0.713925 -4.44098 0
M  V30 2249 C 203.331 2.60133 -3.54991 0
M  V30 2250 H 200.45 0.312179 -0.667618 0
M  V30 2251 H 203.092 0.127953 -1.89569 0
M  V30 2252 H 201.242 2.26489 -3.1565 0
M  V30 2253 H 202.914 0.098686 -4.61194 0
M  V30 2254 H 201.157 0.0234019 -4.33794 0
M  V30 2255 H 201.828 1.29278 -5.36648 0
M  V30 2256 H 204.304 2.07616 -3.60603 0
M  V30 2257 H 203.18 3.11468 -4.51972 0
M  V30 2258 H 203.441 3.41417 -2.80868 0
M  V30 2259 N 202.5 1.5196 0.417844 0
M  V30 2260 C 203.433 1.69387 1.52916 0
M  V30 2261 C 204.411 0.541419 1.53321 0
M  V30 2262 O 205.595 0.767695 1.72159 0
M  V30 2263 C 202.722 1.72525 2.91467 0
M  V30 2264 C 201.768 2.93967 3.09008 0
M  V30 2265 S 202.601 4.54461 2.83242 0
M  V30 2266 C 203.757 4.60372 4.24038 0
M  V30 2267 H 203.99 2.63382 1.37903 0
M  V30 2268 H 201.523 1.41889 0.608845 0
M  V30 2269 H 203.481 1.75018 3.7132 0
M  V30 2270 H 202.142 0.796733 3.03827 0
M  V30 2271 H 201.335 2.92619 4.10353 0
M  V30 2272 H 200.937 2.89316 2.37007 0
M  V30 2273 H 203.229 4.37213 5.17544 0
M  V30 2274 H 204.172 5.62273 4.30412 0
M  V30 2275 H 204.58 3.89492 4.08602 0
M  V30 2276 N 203.978 -0.674533 1.42435 0
M  V30 2277 C 205.208 -1.46071 1.46105 0
M  V30 2278 C 205.616 -1.89067 0.0709605 0
M  V30 2279 O 204.959 -1.58731 -0.924677 0
M  V30 2280 C 205.021 -2.74145 2.32561 0
M  V30 2281 C 204.685 -2.53224 3.8043 0
M  V30 2282 C 205.682 -2.17809 4.72075 0
M  V30 2283 C 203.367 -2.6821 4.24698 0
M  V30 2284 C 205.361 -1.97648 6.05982 0
M  V30 2285 C 203.048 -2.47665 5.58664 0
M  V30 2286 C 204.046 -2.12437 6.49122 0
M  V30 2287 O 203.734 -1.9209 7.80613 0
M  V30 2288 H 203.466 -0.455959 0.499076 0
M  V30 2289 H 206.02 -0.836193 1.87609 0
M  V30 2290 H 204.25 -3.3908 1.85908 0
M  V30 2291 H 205.939 -3.36028 2.27683 0
M  V30 2292 H 206.705 -2.05826 4.39159 0
M  V30 2293 H 202.584 -2.94609 3.54579 0
M  V30 2294 H 206.128 -1.70075 6.7655 0
M  V30 2295 H 202.025 -2.59244 5.91154 0
M  V30 2296 H 202.793 -2.06686 7.91974 0
M  V30 2297 N 205.456 -1.28612 -0.910864 0
M  V30 2298 C 206.686 -1.1862 -1.69153 0
M  V30 2299 C 207.094 0.257324 -1.87442 0
M  V30 2300 O 206.437 1.18543 -1.40332 0
M  V30 2301 C 206.499 -1.81606 -3.10257 0
M  V30 2302 C 206.163 -3.30864 -3.15243 0
M  V30 2303 C 207.16 -4.27256 -2.96223 0
M  V30 2304 C 204.845 -3.71871 -3.37664 0
M  V30 2305 C 206.839 -5.62631 -2.99541 0
M  V30 2306 C 204.526 -5.07371 -3.40614 0
M  V30 2307 C 205.524 -6.02561 -3.21573 0
M  V30 2308 O 205.212 -7.35589 -3.2429 0
M  V30 2309 H 204.944 -0.412633 -0.535453 0
M  V30 2310 H 207.498 -1.70306 -1.14827 0
M  V30 2311 H 205.728 -1.24418 -3.66138 0
M  V30 2312 H 207.417 -1.66092 -3.70362 0
M  V30 2313 H 208.183 -3.9691 -2.78725 0
M  V30 2314 H 204.062 -2.98241 -3.5153 0
M  V30 2315 H 207.606 -6.36907 -2.84597 0
M  V30 2316 H 203.503 -5.37366 -3.57642 0
M  V30 2317 H 204.271 -7.44252 -3.40633 0
M  V30 2318 N 206.934 1.1197 -1.10907 0
M  V30 2319 C 208.182 1.83225 -0.852819 0
M  V30 2320 C 208.503 1.84769 0.623341 0
M  V30 2321 O 207.773 1.3143 1.45269 0
M  V30 2322 H 206.353 0.67849 -0.312507 0
M  V30 2323 H 209.015 1.3556 -1.40033 0
M  V30 2324 H 208.111 2.87265 -1.22005 0
M  V30 2325 N 208.412 0.89855 1.29475 0
M  V30 2326 C 209.322 0.379974 2.31502 0
M  V30 2327 C 210.338 -0.524695 1.659 0
M  V30 2328 O 211.514 -0.414551 1.97087 0
M  V30 2329 C 208.579 -0.385138 3.44554 0
M  V30 2330 C 207.64 0.550914 4.2575 0
M  V30 2331 C 206.873 -0.177778 5.33404 0
M  V30 2332 O 207.096 -1.40189 5.52904 0
M  V30 2333 O 206.03 0.479106 5.9999 0
M  V30 2334 H 209.856 1.22639 2.77837 0
M  V30 2335 H 207.441 0.662834 1.33891 0
M  V30 2336 H 209.323 -0.817841 4.13388 0
M  V30 2337 H 207.998 -1.20763 3.0033 0
M  V30 2338 H 206.905 1.03271 3.59564 0
M  V30 2339 H 208.238 1.33979 4.73614 0
M  V30 2340 N 209.89 -1.43072 0.660911 0
M  V30 2341 C 210.853 -2.29194 -0.0166406 0
M  V30 2342 C 211.853 -1.42609 -0.742912 0
M  V30 2343 O 213.043 -1.64155 -0.583004 0
M  V30 2344 C 210.175 -3.24831 -1.0343 0
M  V30 2345 H 211.368 -2.90596 0.741208 0
M  V30 2346 H 208.921 -1.5048 0.422532 0
M  V30 2347 H 209.656 -2.68339 -1.82111 0
M  V30 2348 H 209.441 -3.88676 -0.517082 0
M  V30 2349 H 210.931 -3.89451 -1.50723 0
M  V30 2350 N 211.368 -0.403325 -1.52352 0
M  V30 2351 C 212.3 0.4603 -2.2453 0
M  V30 2352 C 213.313 1.01505 -1.27282 0
M  V30 2353 O 214.502 0.914982 -1.53266 0
M  V30 2354 C 211.602 1.65208 -2.95905 0
M  V30 2355 C 210.775 1.22224 -4.19976 0
M  V30 2356 C 209.834 2.28028 -4.74226 0
M  V30 2357 O 208.86 1.88857 -5.36956 0
M  V30 2358 N 210.062 3.6012 -4.55295 0
M  V30 2359 H 212.827 -0.158156 -2.99282 0
M  V30 2360 H 210.388 -0.230402 -1.60252 0
M  V30 2361 H 212.38 2.35541 -3.29093 0
M  V30 2362 H 210.95 2.17658 -2.24374 0
M  V30 2363 H 210.17 0.34725 -3.92668 0
M  V30 2364 H 211.458 0.911924 -5.00561 0
M  V30 2365 H 210.856 3.94698 -4.05253 0
M  V30 2366 H 209.413 4.26447 -4.92936 0
M  V30 2367 N 212.846 1.57033 -0.133567 0
M  V30 2368 C 214.095 1.94861 0.520768 0
M  V30 2369 C 214.408 1.02012 1.66892 0
M  V30 2370 O 215.614 1.29365 2.38699 0
M  V30 2371 C 214.07 3.46362 0.977809 0
M  V30 2372 C 213.678 4.47773 -0.142674 0
M  V30 2373 C 215.422 3.93083 1.60269 0
M  V30 2374 C 213.329 5.90468 0.331883 0
M  V30 2375 H 212.259 0.727453 0.198315 0
M  V30 2376 H 214.91 1.82227 -0.215759 0
M  V30 2377 H 213.292 3.54282 1.7692 0
M  V30 2378 H 214.466 4.51536 -0.919317 0
M  V30 2379 H 212.781 4.10891 -0.675124 0
M  V30 2380 H 215.378 4.97121 1.96914 0
M  V30 2381 H 215.721 3.33876 2.48662 0
M  V30 2382 H 216.254 3.88025 0.876453 0
M  V30 2383 H 212.993 6.53463 -0.516341 0
M  V30 2384 H 212.513 5.90094 1.07469 0
M  V30 2385 H 214.192 6.42179 0.788332 0
M  V30 2386 N 214.325 -0.140222 1.56975 0
M  V30 2387 C 215.573 -0.850005 1.83356 0
M  V30 2388 C 215.894 -1.81399 0.71551 0
M  V30 2389 O 215.164 -1.94136 -0.262294 0
M  V30 2390 H 213.744 -0.316886 0.676456 0
M  V30 2391 H 216.406 -0.132608 1.94448 0
M  V30 2392 H 215.502 -1.40814 2.78528 0
M  V30 2393 N 215.803 -1.52179 -0.40978 0
M  V30 2394 C 217.08 -1.56769 -1.16974 0
M  V30 2395 C 217.46 -0.348322 -2.08206 0
M  V30 2396 O 216.808 0.664862 -2.18613 0
M  V30 2397 C 217.018 -2.89603 -1.9476 0
M  V30 2398 C 218.366 -3.42579 -2.50849 0
M  V30 2399 O 219.39 -2.91338 -2.04941 0
M  V30 2400 O 218.249 -4.32054 -3.34652 0
M  V30 2401 H 215.343 -0.631439 -0.534054 0
M  V30 2402 H 217.889 -1.64507 -0.416613 0
M  V30 2403 H 216.661 -3.698 -1.27921 0
M  V30 2404 H 216.284 -2.85155 -2.77079 0
M  V30 2405 N 217.281 0.66697 -1.42791 0
M  V30 2406 C 218.229 1.80157 -1.47127 0
M  V30 2407 C 219.223 1.65825 -0.346199 0
M  V30 2408 O 220.429 1.72338 -0.519572 0
M  V30 2409 H 216.804 0.594158 -0.460956 0
M  V30 2410 H 218.775 1.73619 -2.42692 0
M  V30 2411 C 217.524 3.18351 -1.39813 0
M  V30 2412 H 216.847 3.3001 -2.25684 0
M  V30 2413 H 218.287 3.97736 -1.46908 0
M  V30 2414 C 216.746 3.36707 -0.11391 0
M  V30 2415 O 217.276 3.93027 0.830241 0
M  V30 2416 N 215.482 2.90586 -0.0285295 0
M  V30 2417 H 215.029 2.4494 -0.79764 0
M  V30 2418 H 214.987 3.03245 0.830063 0
M  V30 2419 N 218.759 1.29093 0.90403 0
M  V30 2420 C 219.706 1.13853 2.00764 0
M  V30 2421 C 220.676 0.0330084 1.66067 0
M  V30 2422 O 221.861 0.199733 1.89752 0
M  V30 2423 C 219.001 0.816537 3.35301 0
M  V30 2424 C 218.114 2.00206 3.82807 0
M  V30 2425 C 217.249 1.61983 5.059 0
M  V30 2426 C 216.288 2.77143 5.45764 0
M  V30 2427 N 215.425 2.39346 6.60044 0
M  V30 2428 H 220.265 2.08276 2.13132 0
M  V30 2429 H 217.802 1.03648 1.04381 0
M  V30 2430 H 219.76 0.610557 4.12708 0
M  V30 2431 H 218.39 -0.090779 3.22672 0
M  V30 2432 H 217.442 2.31988 3.01473 0
M  V30 2433 H 218.754 2.86512 4.08304 0
M  V30 2434 H 217.908 1.37649 5.90879 0
M  V30 2435 H 216.647 0.728202 4.82233 0
M  V30 2436 H 215.652 3.02165 4.59322 0
M  V30 2437 H 216.877 3.66964 5.71414 0
M  V30 2438 H 214.823 1.52665 6.37989 0
M  V30 2439 H 214.74 3.19185 6.85315 0
M  V30 2440 H 216.008 2.1832 7.48303 0
M  V30 2441 N 220.237 -1.11381 1.11499 0
M  V30 2442 C 221.169 -2.17207 0.731704 0
M  V30 2443 C 222.182 -1.61066 -0.236957 0
M  V30 2444 O 223.371 -1.78489 -0.0197591 0
M  V30 2445 C 220.471 -3.38846 0.0607624 0
M  V30 2446 C 219.644 -4.24451 1.0564 0
M  V30 2447 C 218.703 -5.24562 0.4149 0
M  V30 2448 O 217.729 -5.59071 1.069 0
M  V30 2449 N 218.931 -5.74651 -0.821943 0
M  V30 2450 H 221.696 -2.50699 1.64225 0
M  V30 2451 H 219.257 -1.26908 1.00529 0
M  V30 2452 H 221.249 -4.02911 -0.380139 0
M  V30 2453 H 219.819 -3.03411 -0.752376 0
M  V30 2454 H 219.039 -3.56833 1.67524 0
M  V30 2455 H 220.327 -4.78486 1.72998 0
M  V30 2456 H 219.725 -5.48797 -1.37252 0
M  V30 2457 H 218.282 -6.40549 -1.20582 0
M  V30 2458 N 221.715 -0.905404 -1.28997 0
M  V30 2459 C 222.662 -0.385892 -2.27551 0
M  V30 2460 C 223.632 0.535113 -1.57244 0
M  V30 2461 O 224.817 0.459119 -1.85194 0
M  V30 2462 C 221.957 0.375461 -3.43051 0
M  V30 2463 C 221.07 -0.577092 -4.28128 0
M  V30 2464 C 220.205 0.201879 -5.30816 0
M  V30 2465 C 219.244 -0.744829 -6.07551 0
M  V30 2466 N 218.381 9.42587e-05 -7.021 0
M  V30 2467 H 223.221 -1.23139 -2.71368 0
M  V30 2468 H 220.758 -0.618542 -1.33463 0
M  V30 2469 H 222.716 0.832992 -4.088 0
M  V30 2470 H 221.346 1.18537 -3.00248 0
M  V30 2471 H 220.398 -1.15315 -3.62501 0
M  V30 2472 H 221.71 -1.30152 -4.8152 0
M  V30 2473 H 220.864 0.720351 -6.02408 0
M  V30 2474 H 219.603 0.959413 -4.7817 0
M  V30 2475 H 218.608 -1.27475 -5.34818 0
M  V30 2476 H 219.833 -1.50178 -6.62286 0
M  V30 2477 H 217.779 0.739791 -6.51815 0
M  V30 2478 H 217.696 -0.664321 -7.53076 0
M  V30 2479 H 218.964 0.498644 -7.77903 0
M  V30 2480 N 223.193 1.4272 -0.668489 0
M  V30 2481 C 224.44 2.01624 -0.18814 0
M  V30 2482 C 224.768 1.5282 1.20317 0
M  V30 2483 O 224.023 0.718323 1.8204 0
M  V30 2484 C 224.322 3.57021 -0.164499 0
M  V30 2485 C 223.988 4.25232 -1.49962 0
M  V30 2486 C 222.65 4.4358 -1.8652 0
M  V30 2487 C 225.002 4.63727 -2.37921 0
M  V30 2488 C 222.33 4.97694 -3.10674 0
M  V30 2489 C 224.682 5.19218 -3.6138 0
M  V30 2490 C 223.346 5.3578 -3.98115 0
M  V30 2491 H 222.616 0.737795 -0.0688454 0
M  V30 2492 H 225.263 1.70991 -0.862225 0
M  V30 2493 H 223.568 3.87285 0.593079 0
M  V30 2494 H 225.265 4.00372 0.224271 0
M  V30 2495 H 221.855 4.11306 -1.20522 0
M  V30 2496 H 226.039 4.4923 -2.10964 0
M  V30 2497 H 221.295 5.08702 -3.39164 0
M  V30 2498 H 225.469 5.4799 -4.29743 0
M  V30 2499 H 223.096 5.77475 -4.94395 0
M  V30 2500 N 224.671 0.411399 1.52136 0
M  V30 2501 C 225.634 -0.401089 2.25663 0
M  V30 2502 C 226.634 -0.971732 1.28117 0
M  V30 2503 O 227.824 -0.850254 1.52041 0
M  V30 2504 C 224.956 -1.56483 3.02863 0
M  V30 2505 H 226.149 0.24295 2.98914 0
M  V30 2506 H 223.702 0.163968 1.55438 0
M  V30 2507 H 224.437 -2.24567 2.33967 0
M  V30 2508 H 224.222 -1.16211 3.74483 0
M  V30 2509 H 225.712 -2.13951 3.58629 0
M  V30 2510 N 226.149 -1.5696 0.141893 0
M  V30 2511 C 227.396 -1.9596 -0.510492 0
M  V30 2512 C 227.724 -1.02648 -1.65208 0
M  V30 2513 O 226.979 -0.0546947 -1.95624 0
M  V30 2514 C 227.278 -3.41242 -1.06249 0
M  V30 2515 C 226.944 -4.50882 -0.0398791 0
M  V30 2516 C 225.606 -4.80595 0.241247 0
M  V30 2517 C 227.958 -5.17058 0.65578 0
M  V30 2518 C 225.286 -5.73792 1.22393 0
M  V30 2519 C 227.638 -6.11313 1.62724 0
M  V30 2520 C 226.302 -6.39407 1.91612 0
M  V30 2521 H 225.572 -0.717068 -0.186802 0
M  V30 2522 H 228.219 -1.90142 0.227643 0
M  V30 2523 H 226.524 -3.43866 -1.87785 0
M  V30 2524 H 228.221 -3.68742 -1.57576 0
M  V30 2525 H 224.811 -4.27754 -0.269174 0
M  V30 2526 H 228.995 -4.94239 0.451779 0
M  V30 2527 H 224.251 -5.93853 1.45424 0
M  V30 2528 H 228.425 -6.61668 2.17183 0
M  V30 2529 H 226.052 -7.11427 2.6791 0
M  V30 2530 N 227.627 0.131896 -1.57047 0
M  V30 2531 C 228.876 0.84044 -1.83356 0
M  V30 2532 C 229.189 1.81646 -0.725535 0
M  V30 2533 O 230.395 2.57025 -0.874659 0
M  V30 2534 C 228.851 1.54528 -3.25037 0
M  V30 2535 C 228.459 0.610902 -4.43815 0
M  V30 2536 C 230.203 2.23972 -3.60606 0
M  V30 2537 C 228.11 1.31823 -5.76521 0
M  V30 2538 H 227.04 0.317599 -0.683847 0
M  V30 2539 H 229.691 0.0931561 -1.83263 0
M  V30 2540 H 228.073 2.33873 -3.19561 0
M  V30 2541 H 229.247 -0.148407 -4.60561 0
M  V30 2542 H 227.562 0.0241016 -4.16393 0
M  V30 2543 H 230.159 2.77558 -4.57018 0
M  V30 2544 H 230.502 3.01173 -2.87403 0
M  V30 2545 H 231.035 1.51529 -3.6781 0
M  V30 2546 H 227.774 0.587771 -6.52859 0
M  V30 2547 H 227.294 2.04987 -5.63685 0
M  V30 2548 H 228.973 1.855 -6.19838 0
M  V30 2549 N 229.106 1.52395 0.401703 0
M  V30 2550 C 230.353 1.66817 1.14796 0
M  V30 2551 C 230.681 0.401772 1.90305 0
M  V30 2552 O 229.936 -0.615487 1.85769 0
M  V30 2553 C 230.235 2.84578 2.16217 0
M  V30 2554 C 229.901 4.22513 1.5746 0
M  V30 2555 C 228.563 4.60029 1.41161 0
M  V30 2556 C 230.915 5.0844 1.14622 0
M  V30 2557 C 228.243 5.81144 0.80552 0
M  V30 2558 C 230.595 6.30167 0.55428 0
M  V30 2559 C 229.259 6.66426 0.378482 0
M  V30 2560 H 228.529 0.610428 0.420069 0
M  V30 2561 H 231.176 1.86512 0.434212 0
M  V30 2562 H 229.481 2.59248 2.93764 0
M  V30 2563 H 231.178 2.92933 2.73845 0
M  V30 2564 H 227.768 3.92953 1.71132 0
M  V30 2565 H 231.952 4.80034 1.26021 0
M  V30 2566 H 227.208 6.07855 0.657399 0
M  V30 2567 H 231.382 6.96071 0.213983 0
M  V30 2568 H 229.009 7.60143 -0.0932606 0
M  V30 2569 N 230.584 -0.659388 1.43143 0
M  V30 2570 C 231.861 -1.41627 1.34912 0
M  V30 2571 C 232.241 -2.11099 -0.00607785 0
M  V30 2572 O 231.589 -2.04353 -1.02236 0
M  V30 2573 C 231.799 -2.40604 2.52805 0
M  V30 2574 C 233.147 -3.04789 2.95616 0
M  V30 2575 O 234.171 -2.50932 2.52807 0
M  V30 2576 O 233.03 -4.02421 3.69756 0
M  V30 2577 H 230.124 -0.63246 0.532844 0
M  V30 2578 H 232.67 -0.686814 1.5518 0
M  V30 2579 H 231.442 -1.88174 3.43083 0
M  V30 2580 H 231.065 -3.21009 2.34604 0
M  V30 2581 N 232.062 -1.29571 -0.897171 0
M  V30 2582 C 233.29 -1.20583 -1.68129 0
M  V30 2583 C 233.705 0.233181 -1.87354 0
M  V30 2584 O 233.062 1.15579 -1.41236 0
M  V30 2585 C 233.113 -1.91772 -3.06441 0
M  V30 2586 O 232.834 -3.30053 -2.88091 0
M  V30 2587 C 234.335 -1.89291 -4.00854 0
M  V30 2588 H 231.555 -0.417826 -0.525036 0
M  V30 2589 H 234.099 -1.70987 -1.12177 0
M  V30 2590 H 232.254 -1.45196 -3.59161 0
M  V30 2591 H 232.668 -3.65942 -3.75748 0
M  V30 2592 H 234.142 -2.43662 -4.95311 0
M  V30 2593 H 234.619 -0.869014 -4.30517 0
M  V30 2594 H 235.225 -2.35622 -3.54066 0
M  V30 2595 N 233.54 1.10788 -1.12088 0
M  V30 2596 C 234.788 1.8231 -0.872205 0
M  V30 2597 C 235.109 1.85419 0.603709 0
M  V30 2598 O 234.379 1.32963 1.43867 0
M  V30 2599 H 232.959 0.675137 -0.319686 0
M  V30 2600 H 235.621 1.34068 -1.41463 0
M  V30 2601 H 234.717 2.85955 -1.25045 0
M  V30 2602 N 235.018 0.912232 1.28515 0
M  V30 2603 C 236.243 0.559774 1.99703 0
M  V30 2604 C 236.668 -0.851393 1.67729 0
M  V30 2605 O 236.026 -1.56875 0.908834 0
M  V30 2606 C 236.074 0.773874 3.52198 0
M  V30 2607 O 235.178 -0.167842 4.12058 0
M  V30 2608 H 234.519 0.21723 0.627461 0
M  V30 2609 H 237.049 1.22725 1.63706 0
M  V30 2610 H 237.059 0.683386 4.02236 0
M  V30 2611 H 235.734 1.80261 3.74805 0
M  V30 2612 H 234.311 -0.0287509 3.72889 0
M  V30 2613 N 236.496 -1.42363 0.676048 0
M  V30 2614 C 237.459 -2.29199 0.00766941 0
M  V30 2615 C 238.459 -1.43389 -0.727745 0
M  V30 2616 O 239.649 -1.64764 -0.56556 0
M  V30 2617 C 236.781 -3.2591 -0.999785 0
M  V30 2618 H 237.974 -2.89794 0.771988 0
M  V30 2619 H 235.527 -1.50024 0.438468 0
M  V30 2620 H 236.262 -2.70256 -1.79255 0
M  V30 2621 H 236.047 -3.89202 -0.475829 0
M  V30 2622 H 237.537 -3.91028 -1.46583 0
M  V30 2623 N 237.974 -0.419461 -1.51915 0
M  V30 2624 C 238.922 0.415502 -2.28859 0
M  V30 2625 C 239.916 1.03674 -1.3397 0
M  V30 2626 O 241.122 0.973757 -1.51387 0
M  V30 2627 H 237.497 0.152786 -0.736315 0
M  V30 2628 H 239.468 -0.254531 -2.97312 0
M  V30 2629 C 238.217 1.51425 -3.12995 0
M  V30 2630 H 237.54 1.04556 -3.85886 0
M  V30 2631 H 238.98 2.07208 -3.6992 0
M  V30 2632 C 237.439 2.48745 -2.27217 0
M  V30 2633 O 237.969 3.52871 -1.9195 0
M  V30 2634 N 236.175 2.19202 -1.90785 0
M  V30 2635 H 235.722 1.34556 -2.19664 0
M  V30 2636 H 235.68 2.84561 -1.33687 0
M  V30 2637 N 239.452 1.56882 -0.150215 0
M  V30 2638 C 240.382 2.19935 0.784284 0
M  V30 2639 C 241.363 1.14854 1.25469 0
M  V30 2640 O 242.548 1.43209 1.31168 0
M  V30 2641 C 239.678 2.82349 2.02229 0
M  V30 2642 C 238.632 3.93285 1.68853 0
M  V30 2643 C 237.958 4.42649 2.99944 0
M  V30 2644 C 239.258 5.13904 0.932714 0
M  V30 2645 H 240.952 2.9828 0.258781 0
M  V30 2646 H 238.498 1.43473 0.123029 0
M  V30 2647 H 240.451 3.25126 2.68088 0
M  V30 2648 H 239.175 2.0134 2.57157 0
M  V30 2649 H 237.834 3.5113 1.05371 0
M  V30 2650 H 237.482 3.58458 3.52869 0
M  V30 2651 H 237.182 5.17476 2.78374 0
M  V30 2652 H 238.706 4.88099 3.66868 0
M  V30 2653 H 240.12 5.53506 1.49345 0
M  V30 2654 H 238.517 5.94515 0.81684 0
M  V30 2655 H 239.587 4.84842 -0.0749568 0
M  V30 2656 N 240.93 -0.123565 1.57115 0
M  V30 2657 C 242.176 -0.828428 1.85765 0
M  V30 2658 C 242.531 -1.77709 0.737371 0
M  V30 2659 O 241.824 -1.89787 -0.262978 0
M  V30 2660 C 242.018 -1.62016 3.18568 0
M  V30 2661 C 241.847 -0.749663 4.43407 0
M  V30 2662 C 240.617 -0.406251 5.03664 0
M  V30 2663 C 242.815 -0.0693505 5.14253 0
M  V30 2664 N 240.797 0.475389 6.12057 0
M  V30 2665 C 242.168 0.671474 6.16353 0
M  V30 2666 C 244.223 0.00754393 4.97899 0
M  V30 2667 C 242.926 1.48197 7.03868 0
M  V30 2668 C 244.952 0.804845 5.85898 0
M  V30 2669 C 244.314 1.53388 6.87497 0
M  V30 2670 H 240.413 -0.280219 0.73007 0
M  V30 2671 H 242.997 -0.0924183 1.94481 0
M  V30 2672 H 241.168 -2.32724 3.10957 0
M  V30 2673 H 242.9 -2.27 3.35042 0
M  V30 2674 H 239.655 -0.747446 4.67665 0
M  V30 2675 H 240.079 0.907924 6.70884 0
M  V30 2676 H 244.721 -0.541741 4.19315 0
M  V30 2677 H 242.439 2.04242 7.81864 0
M  V30 2678 H 246.025 0.866642 5.75309 0
M  V30 2679 H 244.905 2.1409 7.5441 0
M  V30 2680 N 242.408 -1.52605 -0.393616 0
M  V30 2681 C 243.654 -1.67672 -1.14079 0
M  V30 2682 C 243.987 -0.413121 -1.89755 0
M  V30 2683 O 243.262 0.588952 -1.85369 0
M  V30 2684 C 243.545 -2.9088 -2.12276 0
M  V30 2685 C 243.398 -4.27329 -1.40394 0
M  V30 2686 C 244.717 -3.09628 -3.12759 0
M  V30 2687 H 241.836 -0.610168 -0.413356 0
M  V30 2688 H 244.478 -1.85193 -0.424696 0
M  V30 2689 H 242.628 -2.76073 -2.73342 0
M  V30 2690 H 244.3 -4.53894 -0.82327 0
M  V30 2691 H 242.543 -4.2802 -0.705801 0
M  V30 2692 H 243.214 -5.09615 -2.12123 0
M  V30 2693 H 245.69 -3.23436 -2.61779 0
M  V30 2694 H 244.566 -3.97322 -3.78717 0
M  V30 2695 H 244.827 -2.23637 -3.81365 0
M  V30 2696 N 243.887 0.651787 -1.4349 0
M  V30 2697 C 245.298 1.233 -1.40193 0
M  V30 2698 C 245.649 1.9591 -0.106727 0
M  V30 2699 O 244.774 2.01316 0.793773 0
M  V30 2700 C 245.369 2.24257 -2.53957 0
M  V30 2701 C 243.928 2.77852 -2.5392 0
M  V30 2702 C 243.075 1.52517 -2.3159 0
M  V30 2703 H 246.026 0.443717 -1.52371 0
M  V30 2704 H 246.047 3.0646 -2.25528 0
M  V30 2705 H 245.559 1.71382 -3.4821 0
M  V30 2706 H 243.66 3.34786 -1.63551 0
M  V30 2707 H 243.773 3.25299 -3.51735 0
M  V30 2708 H 242.137 1.79915 -1.80285 0
M  V30 2709 H 242.92 1.01574 -3.27929 0
M  V30 2710 N 245.365 1.30045 0.890287 0
M  V30 2711 C 246.59 1.21598 1.68014 0
M  V30 2712 C 247.015 -0.218678 1.86825 0
M  V30 2713 O 246.373 -1.15756 1.39536 0
M  V30 2714 C 246.421 1.94434 3.03691 0
M  V30 2715 O 245.525 1.2678 3.92429 0
M  V30 2716 H 244.866 0.420856 0.513592 0
M  V30 2717 H 247.396 1.71775 1.11151 0
M  V30 2718 H 247.406 2.03251 3.5377 0
M  V30 2719 H 246.081 2.98777 2.89318 0
M  V30 2720 H 244.658 1.26282 3.50866 0
M  V30 2721 N 246.843 -1.10192 1.12674 0
M  V30 2722 C 247.806 -2.14786 0.799979 0
M  V30 2723 C 248.806 -1.59711 -0.18685 0
M  V30 2724 O 249.996 -1.74156 0.0392558 0
M  V30 2725 C 247.128 -3.40374 0.189228 0
M  V30 2726 H 248.321 -2.45203 1.72671 0
M  V30 2727 H 245.874 -1.25597 0.930326 0
M  V30 2728 H 246.609 -3.15577 -0.747107 0
M  V30 2729 H 246.394 -3.81637 0.899766 0
M  V30 2730 H 247.884 -4.17594 -0.0228143 0
M  V30 2731 N 248.321 -0.919034 -1.28029 0
M  V30 2732 C 249.253 -0.368762 -2.26214 0
M  V30 2733 C 250.266 0.495716 -1.55069 0
M  V30 2734 O 251.455 0.30974 -1.75792 0
M  V30 2735 C 248.555 0.491049 -3.35324 0
M  V30 2736 C 247.728 -0.352133 -4.3598 0
M  V30 2737 C 246.787 0.443622 -5.24327 0
M  V30 2738 O 245.813 -0.14566 -5.69014 0
M  V30 2739 N 247.015 1.74545 -5.53637 0
M  V30 2740 H 249.78 -1.21273 -2.74068 0
M  V30 2741 H 247.341 -0.785541 -1.41566 0
M  V30 2742 H 249.333 1.03026 -3.91366 0
M  V30 2743 H 247.903 1.23574 -2.87138 0
M  V30 2744 H 247.123 -1.07269 -3.79324 0
M  V30 2745 H 248.411 -0.928883 -5.00249 0
M  V30 2746 H 247.809 2.24666 -5.19174 0
M  V30 2747 H 246.366 2.23138 -6.12416 0
M  V30 2748 N 249.799 1.42003 -0.683588 0
M  V30 2749 C 251.039 2.03282 -0.213513 0
M  V30 2750 C 251.403 1.52924 1.16097 0
M  V30 2751 O 252.604 2.06048 1.7262 0
M  V30 2752 C 250.875 3.56483 -0.255856 0
M  V30 2753 S 252.434 4.3857 0.14193 0
M  V30 2754 H 249.252 0.705659 -0.0869853 0
M  V30 2755 H 251.854 1.73619 -0.8987 0
M  V30 2756 H 250.558 3.90631 -1.25841 0
M  V30 2757 H 250.089 3.90831 0.448875 0
M  V30 2758 H 252.104 4.76828 1.37295 0
M  V30 2759 N 251.277 0.427512 1.51691 0
M  V30 2760 C 252.225 -0.403359 2.29076 0
M  V30 2761 C 253.219 -1.02962 1.34518 0
M  V30 2762 O 254.425 -0.965715 1.51901 0
M  V30 2763 H 250.8 -0.148879 0.737115 0
M  V30 2764 H 252.771 0.270295 2.97173 0
M  V30 2765 C 251.52 -1.49763 3.13794 0
M  V30 2766 H 250.843 -1.02508 3.86435 0
M  V30 2767 H 252.283 -2.05244 3.71014 0
M  V30 2768 C 250.742 -2.47536 2.28533 0
M  V30 2769 O 251.272 -3.51848 1.93819 0
M  V30 2770 N 249.478 -2.18187 1.91945 0
M  V30 2771 H 249.025 -1.33389 2.20375 0
M  V30 2772 H 248.983 -2.83848 1.35195 0
M  V30 2773 N 252.755 -1.56801 0.158532 0
M  V30 2774 C 253.983 -2.00859 -0.496303 0
M  V30 2775 C 254.398 -1.03871 -1.57659 0
M  V30 2776 O 253.755 -0.0375165 -1.82461 0
M  V30 2777 C 253.806 -3.4479 -1.08638 0
M  V30 2778 O 253.527 -4.38072 -0.0492322 0
M  V30 2779 C 255.028 -4.04185 -1.8207 0
M  V30 2780 H 252.248 -0.65864 -0.128199 0
M  V30 2781 H 254.792 -2.02885 0.256506 0
M  V30 2782 H 252.947 -3.43579 -1.78975 0
M  V30 2783 H 253.361 -5.2227 -0.483102 0
M  V30 2784 H 254.835 -5.06857 -2.18633 0
M  V30 2785 H 255.312 -3.45549 -2.71095 0
M  V30 2786 H 255.918 -4.0906 -1.16405 0
M  V30 2787 N 254.233 0.115231 -1.57178 0
M  V30 2788 C 255.482 0.820945 -1.84237 0
M  V30 2789 C 255.795 1.80866 -0.744761 0
M  V30 2790 O 257.001 2.56083 -0.901871 0
M  V30 2791 C 255.457 1.51072 -3.26658 0
M  V30 2792 C 255.065 0.563795 -4.44438 0
M  V30 2793 C 256.809 2.20134 -3.62962 0
M  V30 2794 C 254.716 1.25701 -5.77887 0
M  V30 2795 H 253.646 0.310328 -0.687177 0
M  V30 2796 H 256.297 0.0737134 -1.83352 0
M  V30 2797 H 254.679 2.30471 -3.22024 0
M  V30 2798 H 255.853 -0.197247 -4.60378 0
M  V30 2799 H 254.168 -0.0200638 -4.16395 0
M  V30 2800 H 256.765 2.72696 -4.59936 0
M  V30 2801 H 257.108 2.98107 -2.90582 0
M  V30 2802 H 257.641 1.47619 -3.69396 0
M  V30 2803 H 254.38 0.518493 -6.53446 0
M  V30 2804 H 253.9 1.98997 -5.65827 0
M  V30 2805 H 255.579 1.78915 -6.2177 0
M  V30 2806 N 255.711 1.52812 0.385517 0
M  V30 2807 C 256.959 1.67694 1.12797 0
M  V30 2808 C 257.28 0.421115 1.90399 0
M  V30 2809 O 256.55 -0.564551 1.87589 0
M  V30 2810 H 255.13 0.618155 0.419396 0
M  V30 2811 H 257.792 1.89938 0.436972 0
M  V30 2812 H 256.888 2.52896 1.82894 0
M  V30 2813 N 257.189 -0.644168 1.43834 0
M  V30 2814 C 258.429 -1.41565 1.47441 0
M  V30 2815 C 258.793 -1.91743 0.0992723 0
M  V30 2816 O 259.994 -2.68798 0.0100192 0
M  V30 2817 C 258.265 -2.55902 2.49498 0
M  V30 2818 S 259.824 -3.44287 2.72051 0
M  V30 2819 H 256.642 -0.483118 0.521649 0
M  V30 2820 H 259.244 -0.747008 1.80666 0
M  V30 2821 H 257.948 -2.17327 3.48134 0
M  V30 2822 H 257.479 -3.27607 2.17801 0
M  V30 2823 H 259.494 -4.52927 2.0266 0
M  V30 2824 N 258.668 -1.30515 -0.883378 0
M  V30 2825 C 259.615 -1.17032 -1.98927 0
M  V30 2826 C 260.585 -0.0594241 -1.65994 0
M  V30 2827 O 261.77 -0.229895 -1.8941 0
M  V30 2828 C 258.91 -0.869777 -3.33959 0
M  V30 2829 C 258.023 -2.06271 -3.79574 0
M  V30 2830 C 257.158 -1.70011 -5.03259 0
M  V30 2831 C 256.197 -2.8579 -5.41286 0
M  V30 2832 N 255.334 -2.49816 -6.56153 0
M  V30 2833 H 260.174 -2.1164 -2.09792 0
M  V30 2834 H 257.711 -1.05296 -1.02719 0
M  V30 2835 H 259.669 -0.676138 -4.11685 0
M  V30 2836 H 258.299 0.0394332 -3.22776 0
M  V30 2837 H 257.351 -2.36755 -2.97744 0
M  V30 2838 H 258.663 -2.92971 -4.03694 0
M  V30 2839 H 257.817 -1.47032 -5.88614 0
M  V30 2840 H 256.556 -0.804829 -4.81013 0
M  V30 2841 H 255.561 -3.09434 -4.54456 0
M  V30 2842 H 256.786 -3.76008 -5.65504 0
M  V30 2843 H 254.732 -1.62795 -6.35479 0
M  V30 2844 H 254.649 -3.30048 -6.8015 0
M  V30 2845 H 255.917 -2.30197 -7.44735 0
M  V30 2846 N 260.146 1.09593 -1.13257 0
M  V30 2847 C 261.374 1.855 -0.916378 0
M  V30 2848 C 261.789 1.81069 0.534738 0
M  V30 2849 O 261.146 1.20562 1.37007 0
M  V30 2850 C 261.197 3.33546 -1.39388 0
M  V30 2851 O 260.918 3.37927 -2.78813 0
M  V30 2852 C 262.419 4.26299 -1.21588 0
M  V30 2853 H 259.639 0.585991 -0.326887 0
M  V30 2854 H 262.183 1.38488 -1.5047 0
M  V30 2855 H 260.338 3.77992 -0.848597 0
M  V30 2856 H 260.752 4.30254 -2.9997 0
M  V30 2857 H 262.226 5.28341 -1.59876 0
M  V30 2858 H 262.703 4.38918 -0.157376 0
M  V30 2859 H 263.309 3.87668 -1.7491 0
M  V30 2860 N 261.624 0.925811 1.2754 0
M  V30 2861 C 262.571 0.422045 2.26908 0
M  V30 2862 C 263.541 -0.510029 1.58076 0
M  V30 2863 O 264.726 -0.429599 1.85901 0
M  V30 2864 C 261.866 -0.320837 3.43605 0
M  V30 2865 C 260.979 0.64513 4.27156 0
M  V30 2866 C 260.114 -0.117405 5.3107 0
M  V30 2867 C 259.153 0.841391 6.0629 0
M  V30 2868 N 258.29 0.111604 7.02011 0
M  V30 2869 H 263.13 1.27441 2.69375 0
M  V30 2870 H 260.667 0.639697 1.32462 0
M  V30 2871 H 262.625 -0.76785 4.10073 0
M  V30 2872 H 261.255 -1.13745 3.02096 0
M  V30 2873 H 260.307 1.21067 3.6062 0
M  V30 2874 H 261.619 1.37797 4.79389 0
M  V30 2875 H 260.773 -0.624422 6.03478 0
M  V30 2876 H 259.512 -0.883219 4.79636 0
M  V30 2877 H 258.517 1.35967 5.32722 0
M  V30 2878 H 259.742 1.60696 6.59813 0
M  V30 2879 H 257.688 -0.635999 6.5291 0
M  V30 2880 H 257.605 0.784044 7.51923 0
M  V30 2881 H 258.873 -0.374823 7.78598 0
M  V30 2882 N 263.102 -1.41638 0.69111 0
M  V30 2883 C 264.05 -2.32597 0.0115199 0
M  V30 2884 C 265.044 -1.5072 -0.773296 0
M  V30 2885 O 266.25 -1.66685 -0.67942 0
M  V30 2886 H 262.625 -0.751849 -0.0150746 0
M  V30 2887 H 264.596 -2.87593 0.795791 0
M  V30 2888 C 263.345 -3.35467 -0.914172 0
M  V30 2889 H 262.668 -3.9852 -0.319687 0
M  V30 2890 H 264.108 -4.01662 -1.35808 0
M  V30 2891 C 262.567 -2.69004 -2.02826 0
M  V30 2892 O 263.097 -2.53444 -3.11655 0
M  V30 2893 N 261.303 -2.2777 -1.80469 0
M  V30 2894 H 260.85 -2.40626 -0.919615 0
M  V30 2895 H 260.808 -1.83635 -2.55197 0
M  V30 2896 N 264.58 -0.43555 -1.51462 0
M  V30 2897 C 265.51 0.367376 -2.30592 0
M  V30 2898 C 266.491 1.02263 -1.35928 0
M  V30 2899 O 267.676 1.02661 -1.64847 0
M  V30 2900 C 264.806 1.46983 -3.14664 0
M  V30 2901 C 263.76 0.938161 -4.17591 0
M  V30 2902 C 263.086 2.13622 -4.90173 0
M  V30 2903 C 264.386 -0.0261621 -5.22293 0
M  V30 2904 H 266.08 -0.292969 -2.97963 0
M  V30 2905 H 263.626 -0.14234 -1.43295 0
M  V30 2906 H 265.579 2.03873 -3.688 0
M  V30 2907 H 264.303 2.15843 -2.4511 0
M  V30 2908 H 262.962 0.391481 -3.64504 0
M  V30 2909 H 262.61 2.81098 -4.17124 0
M  V30 2910 H 262.31 1.78688 -5.59772 0
M  V30 2911 H 263.834 2.7107 -5.47132 0
M  V30 2912 H 265.248 0.452384 -5.71512 0
M  V30 2913 H 263.645 -0.287992 -5.99409 0
M  V30 2914 H 264.715 -0.963391 -4.75233 0
M  V30 2915 N 266.058 1.56714 -0.166846 0
M  V30 2916 C 267.288 2.00828 0.48494 0
M  V30 2917 C 267.696 1.04612 1.57648 0
M  V30 2918 O 267.039 0.0383201 1.8366 0
M  V30 2919 C 267.101 3.4137 1.12723 0
M  V30 2920 C 266.765 4.56654 0.177886 0
M  V30 2921 C 267.762 5.16402 -0.60207 0
M  V30 2922 C 265.447 5.02244 0.0750139 0
M  V30 2923 C 267.441 6.20167 -1.47215 0
M  V30 2924 C 265.128 6.05859 -0.798649 0
M  V30 2925 C 266.126 6.64691 -1.57082 0
M  V30 2926 O 265.814 7.66297 -2.42989 0
M  V30 2927 H 265.546 0.663587 0.128953 0
M  V30 2928 H 268.1 2.03692 -0.264365 0
M  V30 2929 H 266.33 3.35406 1.92457 0
M  V30 2930 H 268.019 3.69466 1.68076 0
M  V30 2931 H 268.785 4.82065 -0.53274 0
M  V30 2932 H 264.664 4.56167 0.665812 0
M  V30 2933 H 268.208 6.66016 -2.07531 0
M  V30 2934 H 264.105 6.39621 -0.869199 0
M  V30 2935 H 264.873 7.83601 -2.36455 0
M  V30 2936 N 267.536 -0.106894 1.57237 0
M  V30 2937 C 268.813 -0.843526 1.76477 0
M  V30 2938 C 269.193 -1.97499 0.745464 0
M  V30 2939 O 268.541 -2.27357 -0.228306 0
M  V30 2940 C 268.751 -1.34903 3.21873 0
M  V30 2941 C 270.099 -1.79654 3.8472 0
M  V30 2942 O 271.123 -1.44554 3.2555 0
M  V30 2943 O 269.982 -2.44515 4.88748 0
M  V30 2944 H 267.076 -0.401468 0.723016 0
M  V30 2945 H 269.622 -0.0896927 1.69463 0
M  V30 2946 H 268.394 -0.53781 3.87586 0
M  V30 2947 H 268.017 -2.16522 3.33473 0
M  V30 2948 N 269.014 -1.53014 -0.377408 0
M  V30 2949 C 270.239 -1.72818 -1.14668 0
M  V30 2950 C 270.664 -0.450725 -1.8262 0
M  V30 2951 O 270.022 0.59439 -1.7128 0
M  V30 2952 C 270.07 -2.88627 -2.16164 0
M  V30 2953 O 269.174 -2.56409 -3.22998 0
M  V30 2954 H 268.515 -0.574301 -0.333278 0
M  V30 2955 H 271.045 -1.99853 -0.438152 0
M  V30 2956 H 271.055 -3.14455 -2.59966 0
M  V30 2957 H 269.73 -3.81294 -1.66095 0
M  V30 2958 H 268.307 -2.4136 -2.84253 0
M  V30 2959 N 270.492 0.636531 -1.44174 0
M  V30 2960 C 271.44 1.76995 -1.50915 0
M  V30 2961 C 272.434 1.65053 -0.381295 0
M  V30 2962 O 273.64 1.71197 -0.55601 0
M  V30 2963 H 270.015 0.584247 -0.473455 0
M  V30 2964 H 271.986 1.68432 -2.4632 0
M  V30 2965 C 270.735 3.15314 -1.46534 0
M  V30 2966 H 270.058 3.25149 -2.32633 0
M  V30 2967 H 271.498 3.9453 -1.55312 0
M  V30 2968 C 269.957 3.3639 -0.185305 0
M  V30 2969 O 270.487 3.94699 0.746688 0
M  V30 2970 N 268.693 2.9046 -0.0901606 0
M  V30 2971 H 268.24 2.43193 -0.849416 0
M  V30 2972 H 268.198 3.04937 0.765553 0
M  V30 2973 N 271.97 1.30982 0.876444 0
M  V30 2974 C 272.917 1.18085 1.98304 0
M  V30 2975 C 273.887 0.0682263 1.6596 0
M  V30 2976 O 275.072 0.239937 1.89285 0
M  V30 2977 C 272.212 0.887475 3.33493 0
M  V30 2978 C 271.325 2.08281 3.78475 0
M  V30 2979 C 270.46 1.72678 5.0235 0
M  V30 2980 C 269.499 2.88657 5.39762 0
M  V30 2981 N 268.636 2.53292 6.54819 0
M  V30 2982 H 273.476 2.1275 2.08666 0
M  V30 2983 H 271.013 1.05839 1.02159 0
M  V30 2984 H 272.971 0.697961 4.1132 0
M  V30 2985 H 271.601 -0.022315 3.22792 0
M  V30 2986 H 270.653 2.3833 2.96484 0
M  V30 2987 H 271.965 2.95108 4.02135 0
M  V30 2988 H 271.119 1.50151 5.87826 0
M  V30 2989 H 269.858 0.830327 4.8058 0
M  V30 2990 H 268.863 3.1184 4.52809 0
M  V30 2991 H 270.088 3.79002 5.63502 0
M  V30 2992 H 268.034 1.66163 6.34607 0
M  V30 2993 H 267.951 3.3365 6.7839 0
M  V30 2994 H 269.219 2.34143 7.43503 0
M  V30 2995 N 273.449 -1.08991 1.13837 0
M  V30 2996 C 274.674 -1.85551 0.926585 0
M  V30 2997 C 275.099 -1.80782 -0.519566 0
M  V30 2998 O 274.457 -1.18855 -1.36906 0
M  V30 2999 C 274.505 -3.31266 1.42462 0
M  V30 3000 O 273.609 -4.07822 0.612789 0
M  V30 3001 H 272.95 -0.575192 0.331738 0
M  V30 3002 H 275.48 -1.37604 1.51414 0
M  V30 3003 H 275.49 -3.82112 1.43019 0
M  V30 3004 H 274.165 -3.34052 2.47754 0
M  V30 3005 H 272.742 -3.66731 0.675463 0
M  V30 3006 N 274.927 -0.932562 -1.27047 0
M  V30 3007 C 275.874 -0.434072 -2.26681 0
M  V30 3008 C 276.844 0.501639 -1.58344 0
M  V30 3009 O 278.029 0.419734 -1.86126 0
M  V30 3010 C 275.169 0.30261 -3.43771 0
M  V30 3011 C 274.282 -0.667774 -4.26808 0
M  V30 3012 C 273.417 0.0892393 -5.31125 0
M  V30 3013 C 272.456 -0.873532 -6.05835 0
M  V30 3014 N 271.593 -0.148832 -7.01942 0
M  V30 3015 H 276.433 -1.28868 -2.68695 0
M  V30 3016 H 273.97 -0.646713 -1.32121 0
M  V30 3017 H 275.928 0.746092 -4.10474 0
M  V30 3018 H 274.558 1.12142 -3.02695 0
M  V30 3019 H 273.61 -1.22978 -3.59973 0
M  V30 3020 H 274.922 -1.40337 -4.78651 0
M  V30 3021 H 274.076 0.592409 -6.03801 0
M  V30 3022 H 272.815 0.85777 -4.80097 0
M  V30 3023 H 271.82 -1.38791 -5.31994 0
M  V30 3024 H 273.045 -1.64193 -6.58952 0
M  V30 3025 H 270.991 0.601365 -6.53238 0
M  V30 3026 H 270.908 -0.82391 -7.51497 0
M  V30 3027 H 272.176 0.333527 -7.78786 0
M  V30 3028 N 276.405 1.4127 -0.698611 0
M  V30 3029 C 277.633 2.05503 -0.239992 0
M  V30 3030 C 278.048 1.52584 1.11191 0
M  V30 3031 O 277.405 0.675323 1.69545 0
M  V30 3032 C 277.456 3.60987 -0.192429 0
M  V30 3033 O 277.177 4.1195 -1.49094 0
M  V30 3034 C 278.678 4.42371 0.28681 0
M  V30 3035 H 275.898 0.661748 -0.111045 0
M  V30 3036 H 278.442 1.80987 -0.95205 0
M  V30 3037 H 276.597 3.84533 0.470472 0
M  V30 3038 H 277.011 5.06018 -1.38007 0
M  V30 3039 H 278.485 5.51344 0.26896 0
M  V30 3040 H 278.962 4.18699 1.32619 0
M  V30 3041 H 279.568 4.23897 -0.345201 0
M  V30 3042 N 277.883 0.443576 1.51229 0
M  V30 3043 C 279.113 -0.119117 2.06256 0
M  V30 3044 C 279.521 -1.36471 1.31043 0
M  V30 3045 O 278.864 -1.80034 0.365151 0
M  V30 3046 C 278.926 -0.500546 3.55998 0
M  V30 3047 C 278.59 0.639125 4.52509 0
M  V30 3048 C 279.587 1.51311 4.97394 0
M  V30 3049 C 277.272 0.821632 4.95535 0
M  V30 3050 C 279.266 2.55425 5.83984 0
M  V30 3051 C 276.953 1.86603 5.81913 0
M  V30 3052 C 277.951 2.73072 6.26036 0
M  V30 3053 O 277.639 3.75718 7.10698 0
M  V30 3054 H 277.371 -0.00857665 0.675946 0
M  V30 3055 H 279.925 0.623288 1.95715 0
M  V30 3056 H 278.155 -1.29575 3.64345 0
M  V30 3057 H 279.844 -0.995116 3.93513 0
M  V30 3058 H 280.61 1.38367 4.64844 0
M  V30 3059 H 276.489 0.158149 4.60729 0
M  V30 3060 H 280.033 3.22949 6.18344 0
M  V30 3061 H 275.93 1.99564 6.13876 0
M  V30 3062 H 276.698 3.72374 7.2889 0
M  V30 3063 N 279.361 -1.56624 0.175154 0
M  V30 3064 C 280.271 -2.21741 -0.766042 0
M  V30 3065 C 281.287 -1.21023 -1.25018 0
M  V30 3066 O 282.463 -1.53697 -1.3015 0
M  V30 3067 C 279.528 -2.84839 -1.97655 0
M  V30 3068 C 278.589 -4.00769 -1.53892 0
M  V30 3069 C 277.822 -4.60849 -2.69173 0
M  V30 3070 O 278.045 -4.19823 -3.86141 0
M  V30 3071 O 276.979 -5.50655 -2.43028 0
M  V30 3072 H 280.805 -3.02738 -0.241585 0
M  V30 3073 H 278.39 -1.49305 -0.053222 0
M  V30 3074 H 280.272 -3.24834 -2.68442 0
M  V30 3075 H 278.947 -2.06836 -2.48999 0
M  V30 3076 H 277.854 -3.65436 -0.80044 0
M  V30 3077 H 279.187 -4.80376 -1.07236 0
M  V30 3078 N 280.839 0.0985539 -1.57292 0
M  V30 3079 C 281.786 1.11981 -2.01814 0
M  V30 3080 C 282.756 1.39999 -0.89384 0
M  V30 3081 O 283.941 1.5152 -1.15958 0
M  V30 3082 C 281.081 2.43577 -2.44467 0
M  V30 3083 C 280.194 2.2232 -3.70402 0
M  V30 3084 C 279.329 3.4729 -4.01949 0
M  V30 3085 C 278.368 3.2128 -5.21005 0
M  V30 3086 N 277.505 4.38507 -5.48321 0
M  V30 3087 H 282.345 0.733149 -2.88841 0
M  V30 3088 H 279.882 0.350482 -1.42864 0
M  V30 3089 H 281.84 3.20373 -2.6724 0
M  V30 3090 H 280.47 2.80097 -1.60455 0
M  V30 3091 H 279.522 1.36343 -3.55126 0
M  V30 3092 H 280.834 1.99089 -4.57345 0
M  V30 3093 H 279.988 4.32495 -4.25479 0
M  V30 3094 H 278.727 3.73572 -3.13521 0
M  V30 3095 H 277.732 2.34468 -4.97298 0
M  V30 3096 H 278.957 2.96348 -6.11028 0
M  V30 3097 H 276.903 4.64871 -4.62851 0
M  V30 3098 H 276.82 4.18455 -6.29628 0
M  V30 3099 H 278.088 5.24787 -5.76385 0
M  V30 3100 N 282.317 1.53212 0.369288 0
M  V30 3101 C 283.594 1.59815 1.12776 0
M  V30 3102 C 283.974 0.403402 2.0721 0
M  V30 3103 O 283.322 -0.606667 2.20299 0
M  V30 3104 C 283.532 2.94664 1.87013 0
M  V30 3105 C 284.88 3.49109 2.41677 0
M  V30 3106 O 285.904 2.96669 1.97144 0
M  V30 3107 O 284.763 4.40775 3.23079 0
M  V30 3108 H 281.857 0.645376 0.517125 0
M  V30 3109 H 284.403 1.65553 0.37285 0
M  V30 3110 H 283.175 3.73061 1.18071 0
M  V30 3111 H 282.798 2.92401 2.69421 0
M  V30 3112 N 283.795 -0.628877 1.44509 0
M  V30 3113 C 285.043 -1.38565 1.4712 0
M  V30 3114 C 285.364 -1.94712 0.105899 0
M  V30 3115 O 284.634 -1.75912 -0.862079 0
M  V30 3116 H 283.214 -0.514333 0.541729 0
M  V30 3117 H 285.876 -0.740018 1.80305 0
M  V30 3118 H 284.972 -2.21583 2.19789 0
M  V30 3119 N 285.273 -1.31445 -0.869486 0
M  V30 3120 C 286.501 -1.24122 -1.65534 0
M  V30 3121 C 286.916 0.193387 -1.87807 0
M  V30 3122 O 286.273 1.12557 -1.43656 0
M  V30 3123 C 286.324 -1.98229 -3.02304 0
M  V30 3124 O 286.045 -3.3609 -2.81026 0
M  V30 3125 C 287.546 -1.97751 -3.96749 0
M  V30 3126 H 284.766 -0.428868 -0.516055 0
M  V30 3127 H 287.31 -1.73328 -1.08525 0
M  V30 3128 H 285.465 -1.52782 -3.56001 0
M  V30 3129 H 285.879 -3.7383 -3.67902 0
M  V30 3130 H 287.353 -2.54114 -4.90031 0
M  V30 3131 H 287.83 -0.960137 -4.28577 0
M  V30 3132 H 288.436 -2.43079 -3.48988 0
M  V30 3133 N 286.751 1.08385 -1.14413 0
M  V30 3134 C 287.698 2.15311 -0.831265 0
M  V30 3135 C 288.668 1.64751 0.211292 0
M  V30 3136 O 289.853 1.90627 0.0811674 0
M  V30 3137 C 286.993 3.43658 -0.315143 0
M  V30 3138 C 286.106 4.08064 -1.41802 0
M  V30 3139 C 285.241 5.24207 -0.859126 0
M  V30 3140 C 284.28 5.80554 -1.93967 0
M  V30 3141 N 283.417 6.88042 -1.39793 0
M  V30 3142 H 288.257 2.41415 -1.74708 0
M  V30 3143 H 285.794 1.18474 -0.871909 0
M  V30 3144 H 287.752 4.172 0.00230884 0
M  V30 3145 H 286.382 3.17839 0.56378 0
M  V30 3146 H 285.434 3.3228 -1.85187 0
M  V30 3147 H 286.746 4.45962 -2.23427 0
M  V30 3148 H 285.9 6.04689 -0.49359 0
M  V30 3149 H 284.639 4.87699 -0.011932 0
M  V30 3150 H 283.644 4.98725 -2.31415 0
M  V30 3151 H 284.869 6.19121 -2.79046 0
M  V30 3152 H 282.815 6.53493 -0.572919 0
M  V30 3153 H 282.732 7.24767 -2.15054 0
M  V30 3154 H 284 7.72255 -1.0603 0
M  V30 3155 N 288.23 0.939286 1.26551 0
M  V30 3156 C 289.476 0.586715 1.94128 0
M  V30 3157 C 289.809 -0.8717 1.73537 0
M  V30 3158 O 289.084 -1.62339 1.07127 0
M  V30 3159 C 289.367 0.927497 3.4795 0
M  V30 3160 C 289.22 2.44052 3.77834 0
M  V30 3161 C 290.539 0.441569 4.37879 0
M  V30 3162 H 287.658 0.21463 0.705055 0
M  V30 3163 H 290.3 1.17316 1.49455 0
M  V30 3164 H 288.45 0.428431 3.8613 0
M  V30 3165 H 290.122 3.01216 3.4938 0
M  V30 3166 H 288.365 2.8848 3.23978 0
M  V30 3167 H 289.036 2.62947 4.85348 0
M  V30 3168 H 291.512 0.869448 4.06915 0
M  V30 3169 H 290.388 0.708856 5.44304 0
M  V30 3170 H 290.649 -0.658467 4.37169 0
M  V30 3171 N 289.708 -1.40897 0.706093 0
M  V30 3172 C 290.618 -2.3455 0.0482286 0
M  V30 3173 C 291.634 -1.56796 -0.754396 0
M  V30 3174 O 292.81 -1.89228 -0.689538 0
M  V30 3175 C 289.875 -3.35625 -0.869303 0
M  V30 3176 C 288.936 -4.29261 -0.0576994 0
M  V30 3177 C 288.169 -5.25508 -0.931531 0
M  V30 3178 O 288.392 -5.27472 -2.17092 0
M  V30 3179 O 287.326 -6.00727 -0.375587 0
M  V30 3180 H 291.152 -2.92407 0.820476 0
M  V30 3181 H 288.737 -1.4193 0.4665 0
M  V30 3182 H 290.619 -3.97635 -1.39514 0
M  V30 3183 H 289.294 -2.80196 -1.62086 0
M  V30 3184 H 288.201 -3.70566 0.512988 0
M  V30 3185 H 289.534 -4.87817 0.655426 0
M  V30 3186 N 291.186 -0.45159 -1.50991 0
M  V30 3187 C 292.119 0.398179 -2.24699 0
M  V30 3188 C 293.097 1.01276 -1.27208 0
M  V30 3189 O 294.281 1.05247 -1.56382 0
M  V30 3190 C 291.408 1.55618 -3.00833 0
M  V30 3191 C 290.454 1.0609 -4.13095 0
M  V30 3192 S 291.287 -0.00865136 -5.35499 0
M  V30 3193 C 292.443 1.15369 -6.15175 0
M  V30 3194 H 292.676 -0.227555 -2.96428 0
M  V30 3195 H 290.209 -0.236251 -1.52582 0
M  V30 3196 H 292.167 2.21997 -3.45293 0
M  V30 3197 H 290.828 2.15337 -2.28667 0
M  V30 3198 H 290.021 1.92726 -4.65696 0
M  V30 3199 H 289.623 0.47513 -3.7097 0
M  V30 3200 H 291.915 2.06925 -6.45126 0
M  V30 3201 H 292.858 0.667344 -7.04948 0
M  V30 3202 H 293.266 1.3987 -5.46897 0
M  V30 3203 N 292.664 1.56529 -0.183458 0
M  V30 3204 C 293.612 2.19873 0.758845 0
M  V30 3205 C 294.606 1.16638 1.22849 0
M  V30 3206 O 295.812 1.3481 1.19274 0
M  V30 3207 H 292.187 0.7045 0.263029 0
M  V30 3208 H 294.158 2.97724 0.200755 0
M  V30 3209 C 292.907 2.86314 1.9728 0
M  V30 3210 H 292.23 3.65487 1.62047 0
M  V30 3211 H 293.67 3.3409 2.61075 0
M  V30 3212 C 292.129 1.86729 2.80418 0
M  V30 3213 O 292.659 1.36031 3.77966 0
M  V30 3214 N 290.865 1.55216 2.45675 0
M  V30 3215 H 290.412 1.96636 1.66409 0
M  V30 3216 H 290.37 0.888388 3.01588 0
M  V30 3217 N 294.142 -0.090211 1.57342 0
M  V30 3218 C 295.372 -0.805055 1.90269 0
M  V30 3219 C 295.78 -1.72561 0.775842 0
M  V30 3220 O 295.123 -1.81839 -0.260843 0
M  V30 3221 C 295.185 -1.66734 3.18497 0
M  V30 3222 C 294.849 -0.918092 4.47683 0
M  V30 3223 C 295.846 -0.245674 5.19319 0
M  V30 3224 C 293.531 -0.890724 4.94339 0
M  V30 3225 C 295.525 0.444088 6.35851 0
M  V30 3226 C 293.212 -0.197179 6.10782 0
M  V30 3227 C 294.21 0.469044 6.81388 0
M  V30 3228 O 293.898 1.15146 7.95611 0
M  V30 3229 H 293.63 -0.235143 0.633785 0
M  V30 3230 H 296.184 -0.0703805 2.05279 0
M  V30 3231 H 294.414 -2.44437 2.99646 0
M  V30 3232 H 296.103 -2.25919 3.37217 0
M  V30 3233 H 296.869 -0.258246 4.84312 0
M  V30 3234 H 292.748 -1.39873 4.39268 0
M  V30 3235 H 296.292 0.964667 6.90898 0
M  V30 3236 H 292.189 -0.18247 6.45242 0
M  V30 3237 H 292.957 1.05885 8.11622 0
M  V30 3238 N 295.62 -1.53406 -0.361157 0
M  V30 3239 C 296.866 -1.70054 -1.10496 0
M  V30 3240 C 297.199 -0.453278 -1.88836 0
M  V30 3241 O 296.474 0.5495 -1.86576 0
M  V30 3242 C 296.757 -2.95317 -2.06058 0
M  V30 3243 C 296.61 -4.3021 -1.31298 0
M  V30 3244 C 297.929 -3.16193 -3.06121 0
M  V30 3245 H 295.048 -0.618799 -0.400321 0
M  V30 3246 H 297.69 -1.86052 -0.385318 0
M  V30 3247 H 295.84 -2.81809 -2.67425 0
M  V30 3248 H 297.512 -4.55538 -0.726807 0
M  V30 3249 H 295.755 -4.29421 -0.614853 0
M  V30 3250 H 296.426 -5.14 -2.01265 0
M  V30 3251 H 298.902 -3.28916 -2.5486 0
M  V30 3252 H 297.778 -4.05266 -3.70204 0
M  V30 3253 H 298.039 -2.31676 -3.76535 0
M  V30 3254 N 297.098 0.621204 -1.44841 0
M  V30 3255 C 298.323 1.41244 -1.51871 0
M  V30 3256 C 298.748 1.87519 -0.147764 0
M  V30 3257 O 298.106 1.59334 0.865 0
M  V30 3258 C 298.154 2.60221 -2.49634 0
M  V30 3259 O 297.258 3.60395 -2.00473 0
M  V30 3260 H 296.599 0.42223 -0.512463 0
M  V30 3261 H 299.129 0.757305 -1.90069 0
M  V30 3262 H 299.139 3.0764 -2.67996 0
M  V30 3263 H 297.814 2.25887 -3.4921 0
M  V30 3264 H 296.391 3.19717 -1.91925 0
M  V30 3265 N 298.576 1.31904 0.862503 0
M  V30 3266 C 299.824 1.21776 1.61292 0
M  V30 3267 C 300.145 -0.222413 1.93727 0
M  V30 3268 O 299.415 -1.1451 1.58947 0
M  V30 3269 H 297.995 0.447717 0.597962 0
M  V30 3270 H 300.657 1.65326 1.03215 0
M  V30 3271 H 299.753 1.7948 2.5533 0
M  V30 3272 N 300.054 -1.07777 1.14986 0
M  V30 3273 C 301.282 -1.84018 0.945773 0
M  V30 3274 C 301.697 -1.81897 -0.505863 0
M  V30 3275 O 301.054 -1.22726 -1.35072 0
M  V30 3276 C 301.105 -3.31287 1.44677 0
M  V30 3277 O 300.826 -3.33449 2.84154 0
M  V30 3278 C 302.327 -4.24311 1.28355 0
M  V30 3279 H 299.547 -0.580716 0.336169 0
M  V30 3280 H 302.091 -1.36077 1.52654 0
M  V30 3281 H 300.246 -3.76594 0.908625 0
M  V30 3282 H 300.66 -4.25427 3.06777 0
M  V30 3283 H 302.134 -5.2573 1.68261 0
M  V30 3284 H 302.611 -4.38612 0.227184 0
M  V30 3285 H 303.217 -3.84836 1.81056 0
M  V30 3286 N 301.532 -0.945985 -1.26051 0
M  V30 3287 C 302.778 -0.597002 -1.93814 0
M  V30 3288 C 303.111 0.862484 -1.73997 0
M  V30 3289 O 302.386 1.61769 -1.07986 0
M  V30 3290 C 302.669 -0.945937 -3.47454 0
M  V30 3291 C 302.522 -2.46052 -3.76535 0
M  V30 3292 C 303.841 -0.464785 -4.37639 0
M  V30 3293 H 300.96 -0.218366 -0.703907 0
M  V30 3294 H 303.602 -1.18107 -1.48831 0
M  V30 3295 H 301.752 -0.448902 -3.85898 0
M  V30 3296 H 303.424 -3.03065 -3.47778 0
M  V30 3297 H 301.667 -2.90194 -3.22444 0
M  V30 3298 H 302.338 -2.65517 -4.83947 0
M  V30 3299 H 304.814 -0.891016 -4.06448 0
M  V30 3300 H 303.69 -0.737712 -5.4392 0
M  V30 3301 H 303.951 0.635274 -4.37512 0
M  V30 3302 N 303.011 1.40521 -0.713556 0
M  V30 3303 C 304.236 2.05759 -0.26035 0
M  V30 3304 C 304.661 1.53403 1.08854 0
M  V30 3305 O 304.019 0.668535 1.68524 0
M  V30 3306 C 304.067 3.59745 -0.248122 0
M  V30 3307 O 303.171 4.05123 0.77131 0
M  V30 3308 H 302.512 0.652564 -0.122703 0
M  V30 3309 H 305.042 1.79958 -0.973467 0
M  V30 3310 H 305.052 4.07911 -0.0851129 0
M  V30 3311 H 303.727 3.97218 -1.2325 0
M  V30 3312 H 302.304 3.68422 0.57619 0
M  V30 3313 N 304.489 0.459591 1.5075 0
M  V30 3314 C 305.737 -0.0991532 2.01857 0
M  V30 3315 C 306.058 -1.41247 1.34441 0
M  V30 3316 O 305.328 -1.89775 0.486022 0
M  V30 3317 H 303.908 -0.039633 0.745948 0
M  V30 3318 H 306.57 0.607387 1.85194 0
M  V30 3319 H 305.666 -0.258998 3.11023 0
M  V30 3320 N 305.967 -1.56429 0.191757 0
M  V30 3321 C 307.214 -1.97485 -0.447891 0
M  V30 3322 C 307.542 -1.07852 -1.61859 0
M  V30 3323 O 306.797 -0.116903 -1.95351 0
M  V30 3324 C 307.096 -3.44449 -0.953384 0
M  V30 3325 C 306.762 -4.50781 0.103586 0
M  V30 3326 C 305.424 -4.79584 0.394023 0
M  V30 3327 C 307.776 -5.1471 0.819946 0
M  V30 3328 C 305.104 -5.69607 1.40585 0
M  V30 3329 C 307.456 -6.05827 1.8209 0
M  V30 3330 C 306.12 -6.32987 2.11857 0
M  V30 3331 H 305.39 -0.722648 -0.163895 0
M  V30 3332 H 308.037 -1.89322 0.28802 0
M  V30 3333 H 306.342 -3.49666 -1.76751 0
M  V30 3334 H 308.039 -3.73569 -1.45765 0
M  V30 3335 H 304.629 -4.28394 -0.132951 0
M  V30 3336 H 308.813 -4.92552 0.608789 0
M  V30 3337 H 304.069 -5.88926 1.64243 0
M  V30 3338 H 308.243 -6.54424 2.38123 0
M  V30 3339 H 305.87 -7.02544 2.90407 0
M  V30 3340 N 307.445 0.0818655 -1.57387 0
M  V30 3341 C 308.692 0.782914 -1.86753 0
M  V30 3342 C 309.02 1.78082 -0.782118 0
M  V30 3343 O 308.275 1.94426 0.22295 0
M  V30 3344 C 308.574 1.53513 -3.22752 0
M  V30 3345 C 308.24 0.678134 -4.45771 0
M  V30 3346 C 306.902 0.441929 -4.79166 0
M  V30 3347 C 309.254 0.0832243 -5.21134 0
M  V30 3348 C 306.582 -0.398833 -5.85343 0
M  V30 3349 C 308.934 -0.744935 -6.28199 0
M  V30 3350 C 307.598 -0.991107 -6.60101 0
M  V30 3351 H 306.868 0.286489 -0.683378 0
M  V30 3352 H 309.515 0.0439808 -1.91449 0
M  V30 3353 H 307.82 2.34599 -3.138 0
M  V30 3354 H 309.517 2.08218 -3.42705 0
M  V30 3355 H 306.107 0.872357 -4.19628 0
M  V30 3356 H 310.291 0.252847 -4.95655 0
M  V30 3357 H 305.547 -0.598405 -6.08465 0
M  V30 3358 H 309.721 -1.21271 -6.8576 0
M  V30 3359 H 307.348 -1.64437 -7.42202 0
M  V30 3360 N 308.923 1.53595 0.353017 0
M  V30 3361 C 310.148 1.7462 1.11904 0
M  V30 3362 C 310.573 0.479721 1.8188 0
M  V30 3363 O 309.931 -0.567066 1.72204 0
M  V30 3364 C 309.979 2.92029 2.11545 0
M  V30 3365 O 309.083 2.61516 3.18878 0
M  V30 3366 H 308.424 0.579531 0.324099 0
M  V30 3367 H 310.954 2.00525 0.406301 0
M  V30 3368 H 310.964 3.18551 2.5493 0
M  V30 3369 H 309.639 3.83888 1.60008 0
M  V30 3370 H 308.216 2.45852 2.80377 0
M  V30 3371 N 310.401 -0.613514 1.45168 0
M  V30 3372 C 311.348 -1.72456 1.53387 0
M  V30 3373 C 312.318 -1.6169 0.380191 0
M  V30 3374 O 313.503 -1.81356 0.592836 0
M  V30 3375 C 310.643 -3.10753 1.50088 0
M  V30 3376 C 309.756 -3.32368 2.75963 0
M  V30 3377 C 308.891 -4.60737 2.64376 0
M  V30 3378 C 307.93 -4.7559 3.85332 0
M  V30 3379 N 307.067 -5.95253 3.72315 0
M  V30 3380 H 311.907 -1.64768 2.48305 0
M  V30 3381 H 309.444 -0.803503 1.23216 0
M  V30 3382 H 311.402 -3.90758 1.46164 0
M  V30 3383 H 310.032 -3.17413 0.587243 0
M  V30 3384 H 309.084 -2.4618 2.89999 0
M  V30 3385 H 310.396 -3.39218 3.65695 0
M  V30 3386 H 309.55 -5.48928 2.58385 0
M  V30 3387 H 308.289 -4.56275 1.72233 0
M  V30 3388 H 307.294 -3.85824 3.91688 0
M  V30 3389 H 308.519 -4.81854 4.78533 0
M  V30 3390 H 306.465 -5.91847 2.82937 0
M  V30 3391 H 306.382 -6.03236 4.55677 0
M  V30 3392 H 307.65 -6.85958 3.70246 0
M  V30 3393 N 311.879 -1.3236 -0.855495 0
M  V30 3394 C 313.156 -1.13491 -1.59309 0
M  V30 3395 C 313.536 0.30503 -2.08885 0
M  V30 3396 O 312.884 1.30151 -1.87811 0
M  V30 3397 C 313.094 -2.16176 -2.73987 0
M  V30 3398 C 314.442 -2.49463 -3.43589 0
M  V30 3399 O 315.466 -2.14715 -2.84211 0
M  V30 3400 O 314.325 -3.09027 -4.50738 0
M  V30 3401 H 311.419 -0.437887 -0.701559 0
M  V30 3402 H 313.965 -1.43887 -0.899696 0
M  V30 3403 H 312.737 -3.1297 -2.34873 0
M  V30 3404 H 312.36 -1.86769 -3.51003 0
M  V30 3405 N 313.357 1.07166 -1.15556 0
M  V30 3406 C 314.606 1.79181 -0.926132 0
M  V30 3407 C 314.919 1.87768 0.547967 0
M  V30 3408 O 316.125 2.56323 0.895036 0
M  V30 3409 C 314.581 3.22 -1.60761 0
M  V30 3410 C 314.189 3.21607 -3.11886 0
M  V30 3411 C 315.933 3.9861 -1.4598 0
M  V30 3412 C 313.84 4.59092 -3.72812 0
M  V30 3413 H 312.77 0.67154 -0.342856 0
M  V30 3414 H 315.421 1.2027 -1.3859 0
M  V30 3415 H 313.803 3.81115 -1.07553 0
M  V30 3416 H 314.977 2.72127 -3.71865 0
M  V30 3417 H 313.292 2.58495 -3.2645 0
M  V30 3418 H 315.889 5.00225 -1.88888 0
M  V30 3419 H 316.232 4.143 -0.407541 0
M  V30 3420 H 316.765 3.45996 -1.96295 0
M  V30 3421 H 313.504 4.48606 -4.77946 0
M  V30 3422 H 313.024 5.08803 -3.17616 0
M  V30 3423 H 314.703 5.28059 -3.73848 0
M  V30 3424 N 314.835 0.952656 1.25548 0
M  V30 3425 C 316.081 0.607272 1.93494 0
M  V30 3426 C 316.414 -0.853245 1.74452 0
M  V30 3427 O 315.689 -1.61194 1.08843 0
M  V30 3428 C 315.972 0.96435 3.46947 0
M  V30 3429 C 315.825 2.48045 3.75225 0
M  V30 3430 C 317.144 0.487987 4.37386 0
M  V30 3431 H 314.263 0.222096 0.702739 0
M  V30 3432 H 316.905 1.18895 1.48203 0
M  V30 3433 H 315.055 0.469361 3.85654 0
M  V30 3434 H 316.727 3.04905 3.46166 0
M  V30 3435 H 314.97 2.919 3.209 0
M  V30 3436 H 315.641 2.6808 4.82532 0
M  V30 3437 H 318.117 0.912558 4.0597 0
M  V30 3438 H 316.993 0.766547 5.43521 0
M  V30 3439 H 317.254 -0.612063 4.37843 0
M  V30 3440 N 316.313 -1.40141 0.720998 0
M  V30 3441 C 317.541 -2.05096 0.272656 0
M  V30 3442 C 317.956 -1.54334 -1.0875 0
M  V30 3443 O 317.313 -0.702211 -1.6845 0
M  V30 3444 C 317.364 -3.60636 0.249835 0
M  V30 3445 O 317.085 -4.09526 1.55629 0
M  V30 3446 C 318.586 -4.42772 -0.216396 0
M  V30 3447 H 315.806 -0.659897 0.121558 0
M  V30 3448 H 318.35 -1.79449 0.980723 0
M  V30 3449 H 316.505 -3.85232 -0.409237 0
M  V30 3450 H 316.919 -5.03758 1.4604 0
M  V30 3451 H 318.393 -5.51702 -0.181212 0
M  V30 3452 H 318.87 -4.20756 -1.25941 0
M  V30 3453 H 319.476 -4.23294 0.412596 0
M  V30 3454 N 317.792 -0.46758 -1.50504 0
M  V30 3455 C 319.041 0.0902868 -2.01498 0
M  V30 3456 C 319.354 1.411 -1.35463 0
M  V30 3457 O 320.56 2.0536 -1.77594 0
M  V30 3458 C 319.016 0.21142 -3.59278 0
M  V30 3459 C 318.624 -1.10065 -4.34269 0
M  V30 3460 C 320.368 0.721433 -4.18325 0
M  V30 3461 C 318.275 -0.943505 -5.83825 0
M  V30 3462 H 317.205 0.037517 -0.753066 0
M  V30 3463 H 319.856 -0.601943 -1.73346 0
M  V30 3464 H 318.238 0.967352 -3.84003 0
M  V30 3465 H 319.412 -1.86726 -4.21272 0
M  V30 3466 H 317.727 -1.5415 -3.86816 0
M  V30 3467 H 320.324 0.85598 -5.27804 0
M  V30 3468 H 320.667 1.71186 -3.79475 0
M  V30 3469 H 321.2 0.0229843 -3.97793 0
M  V30 3470 H 317.939 -1.90719 -6.27141 0
M  V30 3471 H 317.459 -0.217213 -5.99407 0
M  V30 3472 H 319.138 -0.608715 -6.4413 0
M  V30 3473 N 319.27 1.56325 -0.20005 0
M  V30 3474 C 320.233 2.18084 0.705132 0
M  V30 3475 C 321.233 1.13666 1.1374 0
M  V30 3476 O 322.423 1.39023 1.04968 0
M  V30 3477 C 319.555 2.78689 1.96329 0
M  V30 3478 H 320.748 2.99435 0.167023 0
M  V30 3479 H 318.301 1.56221 0.0495725 0
M  V30 3480 H 319.036 2.0115 2.5438 0
M  V30 3481 H 318.821 3.55133 1.66202 0
M  V30 3482 H 320.311 3.26096 2.60866 0
M  V30 3483 N 320.748 -0.0735177 1.57428 0
M  V30 3484 C 321.696 -1.10628 2.04607 0
M  V30 3485 C 322.69 -1.40181 0.951088 0
M  V30 3486 O 323.896 -1.39608 1.1362 0
M  V30 3487 H 320.271 -0.374088 0.652351 0
M  V30 3488 H 322.242 -0.682218 2.90497 0
M  V30 3489 C 320.991 -2.41212 2.50423 0
M  V30 3490 H 320.314 -2.19322 3.34272 0
M  V30 3491 H 321.754 -3.11927 2.87189 0
M  V30 3492 C 320.213 -3.0705 1.38644 0
M  V30 3493 O 320.743 -3.95056 0.727582 0
M  V30 3494 N 318.949 -2.67645 1.132 0
M  V30 3495 H 318.496 -1.96169 1.66959 0
M  V30 3496 H 318.454 -3.1202 0.386147 0
M  V30 3497 N 322.226 -1.5378 -0.344866 0
M  V30 3498 C 323.156 -1.84662 -1.42906 0
M  V30 3499 C 324.137 -0.701648 -1.54955 0
M  V30 3500 O 325.322 -0.953438 -1.69184 0
M  V30 3501 C 322.452 -2.05503 -2.79974 0
M  V30 3502 C 321.406 -3.21318 -2.82734 0
M  V30 3503 C 320.732 -3.2749 -4.22675 0
M  V30 3504 C 322.032 -4.59456 -2.48389 0
M  V30 3505 H 323.726 -2.75461 -1.17311 0
M  V30 3506 H 321.272 -1.32542 -0.562896 0
M  V30 3507 H 323.225 -2.25691 -3.55867 0
M  V30 3508 H 321.949 -1.11434 -3.07002 0
M  V30 3509 H 320.608 -3.00984 -2.09294 0
M  V30 3510 H 320.256 -2.31019 -4.4681 0
M  V30 3511 H 319.956 -4.05316 -4.25433 0
M  V30 3512 H 321.48 -3.49887 -5.00412 0
M  V30 3513 H 322.894 -4.79667 -3.13995 0
M  V30 3514 H 321.291 -5.39675 -2.62432 0
M  V30 3515 H 322.361 -4.63155 -1.4358 0
M  V30 3516 N 323.704 0.605807 -1.45491 0
M  V30 3517 C 324.929 1.39625 -1.53361 0
M  V30 3518 C 325.354 1.87351 -0.167645 0
M  V30 3519 O 324.712 1.60243 0.848051 0
M  V30 3520 C 324.76 2.57559 -2.5238 0
M  V30 3521 O 323.864 3.58248 -2.04285 0
M  V30 3522 H 323.205 0.416771 -0.516912 0
M  V30 3523 H 325.735 0.737103 -1.90861 0
M  V30 3524 H 325.745 3.0478 -2.71244 0
M  V30 3525 H 324.42 2.22171 -3.51586 0
M  V30 3526 H 322.997 3.17664 -1.95305 0
M  V30 3527 N 325.182 1.32811 0.848464 0
M  V30 3528 C 326.429 1.23724 1.60308 0
M  V30 3529 C 326.757 -0.1994 1.93475 0
M  V30 3530 O 326.012 -1.15406 1.5805 0
M  V30 3531 C 326.311 2.04831 2.92881 0
M  V30 3532 C 325.977 3.54125 2.79117 0
M  V30 3533 C 324.639 3.94829 2.7507 0
M  V30 3534 C 326.991 4.49036 2.64606 0
M  V30 3535 C 324.319 5.28675 2.544 0
M  V30 3536 C 326.671 5.83033 2.4547 0
M  V30 3537 C 325.335 6.22931 2.39819 0
M  V30 3538 H 324.605 0.452737 0.586609 0
M  V30 3539 H 327.252 1.64301 0.983743 0
M  V30 3540 H 325.557 1.57001 3.58968 0
M  V30 3541 H 327.254 1.95164 3.50303 0
M  V30 3542 H 323.844 3.21801 2.83094 0
M  V30 3543 H 328.028 4.18505 2.66772 0
M  V30 3544 H 323.284 5.58637 2.48465 0
M  V30 3545 H 327.458 6.56186 2.33222 0
M  V30 3546 H 325.085 7.26584 2.23562 0
M  V30 3547 N 326.66 -1.06551 1.16123 0
M  V30 3548 C 328.071 -1.60768 0.949232 0
M  V30 3549 C 328.422 -1.89523 -0.507508 0
M  V30 3550 O 327.547 -1.66671 -1.38021 0
M  V30 3551 C 328.142 -2.92086 1.71671 0
M  V30 3552 C 326.701 -3.43015 1.54977 0
M  V30 3553 C 325.848 -2.16947 1.72711 0
M  V30 3554 H 328.799 -0.895354 1.31031 0
M  V30 3555 H 328.82 -3.6138 1.19099 0
M  V30 3556 H 328.332 -2.71127 2.7769 0
M  V30 3557 H 326.433 -3.69039 0.513873 0
M  V30 3558 H 326.546 -4.18516 2.33198 0
M  V30 3559 H 324.91 -2.27041 1.15431 0
M  V30 3560 H 325.693 -1.98473 2.80113 0
M  V30 3561 N 328.138 -0.959301 -1.25041 0
M  V30 3562 C 329.368 -0.63303 -1.96663 0
M  V30 3563 C 329.776 0.800031 -1.71453 0
M  V30 3564 O 329.119 1.54736 -0.99008 0
M  V30 3565 C 329.181 -0.817523 -3.50081 0
M  V30 3566 C 328.845 -2.22863 -3.98975 0
M  V30 3567 C 329.842 -3.20569 -4.09306 0
M  V30 3568 C 327.527 -2.55407 -4.32519 0
M  V30 3569 C 329.521 -4.4891 -4.52503 0
M  V30 3570 C 327.208 -3.83976 -4.754 0
M  V30 3571 C 328.206 -4.8054 -4.85356 0
M  V30 3572 O 327.894 -6.06817 -5.27284 0
M  V30 3573 H 327.626 -0.235866 -0.633516 0
M  V30 3574 H 330.18 -1.2874 -1.60047 0
M  V30 3575 H 328.41 -0.105992 -3.86555 0
M  V30 3576 H 330.099 -0.491604 -4.02912 0
M  V30 3577 H 330.865 -2.96753 -3.83618 0
M  V30 3578 H 326.744 -1.8097 -4.23994 0
M  V30 3579 H 330.288 -5.24283 -4.60188 0
M  V30 3580 H 326.185 -4.07596 -5.00535 0
M  V30 3581 H 326.953 -6.10262 -5.45457 0
M  V30 3582 N 329.616 1.39756 -0.72842 0
M  V30 3583 C 330.563 2.30647 -0.0841519 0
M  V30 3584 C 331.533 1.48869 0.7367 0
M  V30 3585 O 332.718 1.77574 0.698015 0
M  V30 3586 C 329.858 3.35165 0.822091 0
M  V30 3587 C 328.971 4.31999 -0.0106663 0
M  V30 3588 C 328.106 5.23585 0.896241 0
M  V30 3589 C 327.145 6.12072 0.0583381 0
M  V30 3590 N 326.282 6.96035 0.920818 0
M  V30 3591 H 331.122 2.85173 -0.864891 0
M  V30 3592 H 328.659 1.40422 -0.438179 0
M  V30 3593 H 330.617 3.94345 1.36189 0
M  V30 3594 H 329.247 2.8211 1.56888 0
M  V30 3595 H 328.299 3.74492 -0.66781 0
M  V30 3596 H 329.611 4.9443 -0.658825 0
M  V30 3597 H 328.765 5.87759 1.50412 0
M  V30 3598 H 327.504 4.61459 1.57819 0
M  V30 3599 H 326.509 5.46916 -0.562389 0
M  V30 3600 H 327.734 6.76261 -0.6203 0
M  V30 3601 H 325.68 6.36485 1.58818 0
M  V30 3602 H 325.597 7.55284 0.32899 0
M  V30 3603 H 326.865 7.64646 1.51447 0
M  V30 3604 N 331.094 0.475555 1.50254 0
M  V30 3605 C 332.341 -0.0778919 2.0235 0
M  V30 3606 C 332.669 -1.39319 1.35722 0
M  V30 3607 O 331.924 -1.89888 0.473395 0
M  V30 3608 C 332.223 -0.305114 3.56095 0
M  V30 3609 C 331.889 0.92903 4.41225 0
M  V30 3610 C 330.551 1.26739 4.6421 0
M  V30 3611 C 332.903 1.75054 4.90923 0
M  V30 3612 C 330.231 2.42724 5.34137 0
M  V30 3613 C 332.583 2.9017 5.62125 0
M  V30 3614 C 331.247 3.24416 5.83362 0
M  V30 3615 H 330.517 -0.0285027 0.740452 0
M  V30 3616 H 333.164 0.630543 1.80821 0
M  V30 3617 H 331.469 -1.09584 3.76163 0
M  V30 3618 H 333.166 -0.747377 3.93974 0
M  V30 3619 H 329.756 0.655428 4.23559 0
M  V30 3620 H 333.94 1.50231 4.73016 0
M  V30 3621 H 329.196 2.69525 5.48786 0
M  V30 3622 H 333.37 3.54169 5.99614 0
M  V30 3623 H 330.997 4.14396 6.37323 0
M  V30 3624 N 332.573 -1.56217 0.208337 0
M  V30 3625 C 333.822 -1.97124 -0.427204 0
M  V30 3626 C 334.135 -1.09859 -1.61835 0
M  V30 3627 O 335.341 -1.40606 -2.32255 0
M  V30 3628 C 333.797 -3.50633 -0.811442 0
M  V30 3629 C 333.405 -4.46582 0.35615 0
M  V30 3630 C 335.149 -4.00282 -1.41332 0
M  V30 3631 C 333.056 -5.91379 -0.0497852 0
M  V30 3632 H 331.986 -0.736086 -0.163381 0
M  V30 3633 H 334.637 -1.8099 0.302456 0
M  V30 3634 H 333.019 -3.62319 -1.59815 0
M  V30 3635 H 334.193 -4.46636 1.1337 0
M  V30 3636 H 332.508 -4.07202 0.870396 0
M  V30 3637 H 335.105 -5.0595 -1.72972 0
M  V30 3638 H 335.448 -3.45359 -2.32449 0
M  V30 3639 H 335.981 -3.91764 -0.690323 0
M  V30 3640 H 332.72 -6.50255 0.827529 0
M  V30 3641 H 332.24 -5.94549 -0.791926 0
M  V30 3642 H 333.919 -6.45209 -0.481042 0
M  V30 3643 N 334.051 0.0651679 -1.57465 0
M  V30 3644 C 334.961 1.09448 -2.07505 0
M  V30 3645 C 335.977 1.41974 -1.00595 0
M  V30 3646 O 337.153 1.52018 -1.32107 0
M  V30 3647 C 334.218 2.38689 -2.51453 0
M  V30 3648 C 333.279 2.13073 -3.72691 0
M  V30 3649 C 332.512 3.36152 -4.14533 0
M  V30 3650 O 332.735 4.45517 -3.56189 0
M  V30 3651 O 331.669 3.23974 -5.07272 0
M  V30 3652 H 335.495 0.69935 -2.95538 0
M  V30 3653 H 333.08 0.279752 -1.46757 0
M  V30 3654 H 334.962 3.14736 -2.80212 0
M  V30 3655 H 333.637 2.77568 -1.66546 0
M  V30 3656 H 332.544 1.34709 -3.49005 0
M  V30 3657 H 333.877 1.79071 -4.5847 0
M  V30 3658 N 335.529 1.53961 0.336706 0
M  V30 3659 C 336.775 1.7179 1.07777 0
M  V30 3660 C 337.108 0.483263 1.88091 0
M  V30 3661 O 336.383 -0.519747 1.87427 0
M  V30 3662 C 336.666 2.98558 2.01334 0
M  V30 3663 C 336.519 4.32245 1.24437 0
M  V30 3664 C 337.838 3.21023 3.01052 0
M  V30 3665 H 334.957 0.625089 0.390426 0
M  V30 3666 H 337.599 1.86641 0.35567 0
M  V30 3667 H 335.749 2.86028 2.62908 0
M  V30 3668 H 337.421 4.56637 0.654243 0
M  V30 3669 H 335.664 4.30344 0.546458 0
M  V30 3670 H 336.335 5.17137 1.93063 0
M  V30 3671 H 338.811 3.32929 2.49595 0
M  V30 3672 H 337.687 4.11104 3.6371 0
M  V30 3673 H 337.948 2.37637 3.72802 0
M  V30 3674 N 337.007 -0.598083 1.45811 0
M  V30 3675 C 338.235 -1.38322 1.53866 0
M  V30 3676 C 338.65 -1.87992 0.174479 0
M  V30 3677 O 338.007 -1.62756 -0.825627 0
M  V30 3678 C 338.058 -2.58125 2.53089 0
M  V30 3679 O 337.779 -2.10516 3.84206 0
M  V30 3680 C 339.28 -3.50869 2.70935 0
M  V30 3681 H 336.5 -0.423093 0.520801 0
M  V30 3682 H 339.044 -0.728527 1.91083 0
M  V30 3683 H 337.199 -3.19615 2.18917 0
M  V30 3684 H 337.613 -2.88425 4.38077 0
M  V30 3685 H 339.087 -4.31451 3.44317 0
M  V30 3686 H 339.564 -4.01822 1.77301 0
M  V30 3687 H 340.17 -2.95225 3.06141 0
M  V30 3688 N 338.485 -1.33259 -0.841409 0
M  V30 3689 C 339.762 -1.15174 -1.58096 0
M  V30 3690 C 340.142 0.282858 -2.09196 0
M  V30 3691 O 339.49 1.28151 -1.89181 0
M  V30 3692 C 339.7 -2.1907 -2.71679 0
M  V30 3693 C 341.048 -2.53093 -3.40924 0
M  V30 3694 O 342.072 -2.17717 -2.81918 0
M  V30 3695 O 340.931 -3.1379 -4.47435 0
M  V30 3696 H 338.025 -0.445303 -0.696875 0
M  V30 3697 H 340.571 -1.44833 -0.884385 0
M  V30 3698 H 339.343 -3.15443 -2.31541 0
M  V30 3699 H 338.966 -1.90481 -3.49002 0
M  V30 3700 N 339.963 1.05934 -1.16686 0
M  V30 3701 C 341.191 1.8249 -0.974929 0
M  V30 3702 C 341.606 1.82679 0.476861 0
M  V30 3703 O 340.963 1.2486 1.33103 0
M  V30 3704 C 341.014 3.28943 -1.49929 0
M  V30 3705 O 340.735 3.28886 -2.89423 0
M  V30 3706 C 342.236 4.22215 -1.35089 0
M  V30 3707 H 339.456 0.575295 -0.345365 0
M  V30 3708 H 342 1.33631 -1.548 0
M  V30 3709 H 340.155 3.751 -0.968423 0
M  V30 3710 H 340.569 4.20493 -3.13506 0
M  V30 3711 H 342.043 5.22987 -1.76603 0
M  V30 3712 H 342.52 4.38195 -0.296935 0
M  V30 3713 H 343.126 3.81907 -1.87155 0
M  V30 3714 N 341.441 0.965919 1.2453 0
M  V30 3715 C 342.389 0.486506 2.27455 0
M  V30 3716 C 343.383 -0.449041 1.6334 0
M  V30 3717 O 344.589 -0.324527 1.7705 0
M  V30 3718 H 340.964 0.138857 0.739069 0
M  V30 3719 H 342.935 1.3666 2.65267 0
M  V30 3720 C 341.684 -0.209481 3.47068 0
M  V30 3721 H 341.007 0.50129 3.96645 0
M  V30 3722 H 342.447 -0.508775 4.20936 0
M  V30 3723 C 340.906 -1.43586 3.0477 0
M  V30 3724 O 341.436 -2.53299 3.11773 0
M  V30 3725 N 339.642 -1.30126 2.59838 0
M  V30 3726 H 339.189 -0.408583 2.54339 0
M  V30 3727 H 339.147 -2.12294 2.31902 0
M  V30 3728 N 342.919 -1.39368 0.735821 0
M  V30 3729 C 344.167 -2.00101 0.283562 0
M  V30 3730 C 344.488 -1.5868 -1.13338 0
M  V30 3731 O 343.758 -0.835423 -1.77193 0
M  V30 3732 H 342.338 -0.740024 0.101851 0
M  V30 3733 H 345 -1.70404 0.945962 0
M  V30 3734 H 344.096 -3.10323 0.332604 0
M  V30 3735 N 344.397 -0.483516 -1.5 0
M  V30 3736 C 345.644 0.0671597 -2.02389 0
M  V30 3737 C 345.972 1.38597 -1.36459 0
M  V30 3738 O 345.227 1.89634 -0.483458 0
M  V30 3739 C 345.526 0.286226 -3.56252 0
M  V30 3740 C 345.192 -0.952416 -4.40726 0
M  V30 3741 C 343.854 -1.29199 -4.63531 0
M  V30 3742 C 346.206 -1.77655 -4.89988 0
M  V30 3743 C 343.534 -2.45553 -5.32842 0
M  V30 3744 C 345.886 -2.93147 -5.60578 0
M  V30 3745 C 344.55 -3.27505 -5.81633 0
M  V30 3746 H 343.82 0.0245755 -0.740592 0
M  V30 3747 H 346.467 -0.640124 -1.80485 0
M  V30 3748 H 344.772 1.07587 -3.76739 0
M  V30 3749 H 346.469 0.726473 -3.94365 0
M  V30 3750 H 343.059 -0.677881 -4.23205 0
M  V30 3751 H 347.243 -1.52737 -4.72213 0
M  V30 3752 H 342.499 -2.72431 -5.47349 0
M  V30 3753 H 346.673 -3.57344 -5.97727 0
M  V30 3754 H 344.3 -4.1777 -6.35116 0
M  V30 3755 N 345.875 1.56104 -0.216619 0
M  V30 3756 C 346.785 2.23694 0.706982 0
M  V30 3757 C 347.801 1.24295 1.21765 0
M  V30 3758 O 348.977 1.57094 1.2603 0
M  V30 3759 C 346.042 2.8998 1.90033 0
M  V30 3760 C 345.103 4.04708 1.43213 0
M  V30 3761 C 344.336 4.67824 2.56859 0
M  V30 3762 O 344.559 4.29913 3.74874 0
M  V30 3763 O 343.493 5.56905 2.28343 0
M  V30 3764 H 347.319 3.03272 0.161235 0
M  V30 3765 H 344.904 1.49394 0.0136177 0
M  V30 3766 H 346.786 3.31837 2.59735 0
M  V30 3767 H 345.461 2.13365 2.43428 0
M  V30 3768 H 344.368 3.6743 0.70327 0
M  V30 3769 H 345.701 4.83051 0.944615 0
M  V30 3770 N 347.353 -0.0568162 1.57498 0
M  V30 3771 C 348.764 -0.606858 1.76562 0
M  V30 3772 C 349.115 -1.77114 0.844094 0
M  V30 3773 O 348.24 -2.16376 0.0318911 0
M  V30 3774 C 348.835 -1.10766 3.20182 0
M  V30 3775 C 347.394 -1.60344 3.40539 0
M  V30 3776 C 346.541 -0.529311 2.72201 0
M  V30 3777 H 349.492 0.169393 1.57793 0
M  V30 3778 H 349.513 -1.97602 3.25167 0
M  V30 3779 H 349.025 -0.26006 3.87228 0
M  V30 3780 H 347.126 -2.47379 2.78629 0
M  V30 3781 H 347.239 -1.67006 4.4905 0
M  V30 3782 H 345.603 -0.977893 2.35179 0
M  V30 3783 H 346.386 0.308352 3.41912 0
M  V30 3784 N 348.832 -1.54138 -0.328536 0
M  V30 3785 C 349.795 -1.82462 -1.38709 0
M  V30 3786 C 350.795 -0.696229 -1.44946 0
M  V30 3787 O 351.985 -0.964535 -1.4506 0
M  V30 3788 C 349.117 -1.98018 -2.77492 0
M  V30 3789 H 350.31 -2.77037 -1.14851 0
M  V30 3790 H 347.863 -1.45779 -0.563751 0
M  V30 3791 H 348.598 -1.05637 -3.06613 0
M  V30 3792 H 348.383 -2.80124 -2.74359 0
M  V30 3793 H 349.873 -2.21396 -3.54081 0
M  V30 3794 N 350.31 0.590341 -1.46126 0
M  V30 3795 C 351.54 1.37304 -1.54373 0
M  V30 3796 C 351.948 1.88332 -0.181071 0
M  V30 3797 O 351.291 1.63852 0.830559 0
M  V30 3798 C 351.353 2.6012 -2.48149 0
M  V30 3799 C 351.017 2.30613 -3.94546 0
M  V30 3800 C 352.014 1.89915 -4.83971 0
M  V30 3801 C 349.699 2.42993 -4.39613 0
M  V30 3802 C 351.693 1.61981 -6.16475 0
M  V30 3803 C 349.38 2.14672 -5.72153 0
M  V30 3804 C 350.378 1.7423 -6.60404 0
M  V30 3805 O 350.066 1.46251 -7.90485 0
M  V30 3806 H 349.798 0.426086 -0.524811 0
M  V30 3807 H 352.352 0.72539 -1.92165 0
M  V30 3808 H 350.582 3.27664 -2.05361 0
M  V30 3809 H 352.271 3.22182 -2.46887 0
M  V30 3810 H 353.037 1.79872 -4.50412 0
M  V30 3811 H 348.916 2.73435 -3.71153 0
M  V30 3812 H 352.46 1.30341 -6.85315 0
M  V30 3813 H 348.357 2.24337 -6.05263 0
M  V30 3814 H 349.125 1.6016 -8.02677 0
M  V30 3815 N 351.788 1.33704 0.83433 0
M  V30 3816 C 353.016 1.28467 1.62185 0
M  V30 3817 C 353.431 -0.143526 1.88254 0
M  V30 3818 O 352.788 -1.08709 1.4659 0
M  V30 3819 C 352.839 2.06174 2.96942 0
M  V30 3820 O 352.56 3.43422 2.72016 0
M  V30 3821 C 354.061 2.08201 3.91366 0
M  V30 3822 H 351.281 0.4424 0.504503 0
M  V30 3823 H 353.825 1.76145 1.03891 0
M  V30 3824 H 351.98 1.62167 3.51825 0
M  V30 3825 H 352.394 3.83453 3.57861 0
M  V30 3826 H 353.868 2.67017 4.83121 0
M  V30 3827 H 354.345 1.07343 4.2588 0
M  V30 3828 H 354.951 2.52246 3.42421 0
M  V30 3829 N 353.266 -1.05314 1.17247 0
M  V30 3830 C 354.196 -2.1498 0.911362 0
M  V30 3831 C 355.177 -1.69471 -0.146169 0
M  V30 3832 O 356.362 -1.942 0.003812 0
M  V30 3833 C 353.492 -3.4472 0.422528 0
M  V30 3834 C 352.446 -4.03789 1.4191 0
M  V30 3835 C 351.772 -5.28858 0.788274 0
M  V30 3836 C 353.072 -4.41418 2.7919 0
M  V30 3837 H 354.766 -2.3708 1.82848 0
M  V30 3838 H 352.312 -1.13938 0.880569 0
M  V30 3839 H 354.265 -4.20787 0.227289 0
M  V30 3840 H 352.989 -3.22269 -0.530123 0
M  V30 3841 H 351.648 -3.2979 1.60106 0
M  V30 3842 H 351.296 -5.02709 -0.171173 0
M  V30 3843 H 350.996 -5.69338 1.45353 0
M  V30 3844 H 352.52 -6.07612 0.603282 0
M  V30 3845 H 353.934 -5.08524 2.64719 0
M  V30 3846 H 352.331 -4.92913 3.42282 0
M  V30 3847 H 353.401 -3.51819 3.33693 0
M  V30 3848 N 354.744 -0.972509 -1.24016 0
M  V30 3849 C 355.992 -0.635776 -1.91839 0
M  V30 3850 C 356.313 0.832312 -1.76345 0
M  V30 3851 O 355.583 1.5946 -1.13795 0
M  V30 3852 H 354.163 -0.232157 -0.710009 0
M  V30 3853 H 356.825 -1.23462 -1.50809 0
M  V30 3854 H 355.921 -0.880545 -2.99421 0
M  V30 3855 N 356.222 1.38976 -0.743202 0
M  V30 3856 C 357.154 2.29096 -0.0689228 0
M  V30 3857 C 358.167 1.47229 0.694791 0
M  V30 3858 O 359.356 1.70212 0.537597 0
M  V30 3859 C 356.456 3.25988 0.926548 0
M  V30 3860 C 355.629 4.36833 0.222647 0
M  V30 3861 C 354.688 5.13981 1.12739 0
M  V30 3862 O 353.714 5.6601 0.601795 0
M  V30 3863 N 354.916 5.25966 2.45641 0
M  V30 3864 H 357.681 2.87604 -0.842846 0
M  V30 3865 H 355.242 1.50645 -0.593109 0
M  V30 3866 H 357.234 3.74476 1.5346 0
M  V30 3867 H 355.804 2.68453 1.60162 0
M  V30 3868 H 355.024 3.90116 -0.565983 0
M  V30 3869 H 356.312 5.0811 -0.264841 0
M  V30 3870 H 355.71 4.85228 2.9081 0
M  V30 3871 H 354.267 5.77865 3.01522 0
M  V30 3872 N 357.7 0.491464 1.49741 0
M  V30 3873 C 358.947 -0.0564256 2.02421 0
M  V30 3874 C 359.275 -1.37872 1.37192 0
M  V30 3875 O 358.53 -1.89375 0.493508 0
M  V30 3876 C 358.829 -0.267329 3.56399 0
M  V30 3877 C 358.495 0.975775 4.40215 0
M  V30 3878 C 357.157 1.31655 4.62839 0
M  V30 3879 C 359.509 1.80251 4.89039 0
M  V30 3880 C 356.837 2.48375 5.31532 0
M  V30 3881 C 359.189 2.96116 5.59015 0
M  V30 3882 C 357.853 3.30585 5.79888 0
M  V30 3883 H 357.123 -0.0206476 0.740712 0
M  V30 3884 H 359.77 0.649686 1.80143 0
M  V30 3885 H 358.075 -1.05588 3.77304 0
M  V30 3886 H 359.772 -0.705549 3.94744 0
M  V30 3887 H 356.362 0.700315 4.2284 0
M  V30 3888 H 360.546 1.55239 4.71396 0
M  V30 3889 H 355.802 2.7533 5.45897 0
M  V30 3890 H 359.976 3.60509 5.95824 0
M  V30 3891 H 357.603 4.21132 6.32892 0
M  V30 3892 N 359.178 -1.55987 0.224894 0
M  V30 3893 C 360.455 -1.90232 -0.455083 0
M  V30 3894 C 360.835 -1.14269 -1.77499 0
M  V30 3895 O 360.183 -0.253079 -2.27094 0
M  V30 3896 C 360.393 -3.42993 -0.644758 0
M  V30 3897 C 361.741 -4.13821 -0.950669 0
M  V30 3898 O 362.765 -3.4861 -0.731423 0
M  V30 3899 O 361.624 -5.29128 -1.36695 0
M  V30 3900 H 358.718 -0.79108 -0.241084 0
M  V30 3901 H 361.264 -1.67581 0.267327 0
M  V30 3902 H 360.036 -3.90252 0.28613 0
M  V30 3903 H 359.659 -3.71434 -1.41853 0
M  V30 3904 N 360.656 0.0484629 -1.57525 0
M  V30 3905 C 361.904 0.741657 -1.88 0
M  V30 3906 C 362.225 1.76918 -0.820054 0
M  V30 3907 O 361.495 1.95335 0.148661 0
M  V30 3908 H 360.075 0.276908 -0.69378 0
M  V30 3909 H 362.737 0.019013 -1.94891 0
M  V30 3910 H 361.833 1.24336 -2.86264 0
M  V30 3911 N 362.134 1.5431 0.320358 0
M  V30 3912 C 363.383 1.7188 1.05546 0
M  V30 3913 C 363.696 0.501143 1.89071 0
M  V30 3914 O 364.902 0.558258 2.65699 0
M  V30 3915 C 363.358 3.04025 1.92605 0
M  V30 3916 C 362.966 4.33207 1.14176 0
M  V30 3917 C 364.71 3.30959 2.65832 0
M  V30 3918 C 362.617 5.56412 2.00399 0
M  V30 3919 H 361.547 0.640547 0.397763 0
M  V30 3920 H 364.198 1.80802 0.313522 0
M  V30 3921 H 362.58 2.89019 2.7071 0
M  V30 3922 H 363.754 4.58989 0.40819 0
M  V30 3923 H 362.069 4.13062 0.526165 0
M  V30 3924 H 364.666 4.20203 3.30656 0
M  V30 3925 H 365.009 2.48979 3.33639 0
M  V30 3926 H 365.542 3.46847 1.94787 0
M  V30 3927 H 362.281 6.41004 1.37094 0
M  V30 3928 H 361.801 5.34844 2.7148 0
M  V30 3929 H 363.48 5.92938 2.58908 0
M  V30 3930 N 363.613 -0.582584 1.46437 0
M  V30 3931 C 364.859 -1.34278 1.51978 0
M  V30 3932 C 365.192 -1.93446 0.170973 0
M  V30 3933 O 364.467 -1.76481 -0.817608 0
M  V30 3934 C 364.75 -2.47203 2.61845 0
M  V30 3935 C 364.603 -1.93069 4.06257 0
M  V30 3936 C 365.922 -3.49247 2.67795 0
M  V30 3937 H 363.041 -0.486876 0.553282 0
M  V30 3938 H 365.683 -0.654437 1.78374 0
M  V30 3939 H 363.833 -3.0592 2.39469 0
M  V30 3940 H 365.505 -1.38808 4.3992 0
M  V30 3941 H 363.748 -1.23898 4.1573 0
M  V30 3942 H 364.419 -2.74586 4.7886 0
M  V30 3943 H 366.895 -3.00411 2.8791 0
M  V30 3944 H 365.771 -4.25719 3.46489 0
M  V30 3945 H 366.032 -4.06482 1.73852 0
M  V30 3946 N 365.091 -1.34144 -0.827227 0
M  V30 3947 C 366.339 -1.26009 -1.58007 0
M  V30 3948 C 366.66 0.170971 -1.94249 0
M  V30 3949 O 365.93 1.10256 -1.61927 0
M  V30 3950 H 364.51 -0.463414 -0.585881 0
M  V30 3951 H 367.172 -1.68005 -0.987951 0
M  V30 3952 H 366.268 -1.86187 -2.50481 0
M  V30 3953 N 366.569 1.04691 -1.17803 0
M  V30 3954 C 367.499 2.14494 -0.92275 0
M  V30 3955 C 368.48 1.69546 0.137179 0
M  V30 3956 O 369.665 1.94195 -0.0141108 0
M  V30 3957 C 366.795 3.44491 -0.440803 0
M  V30 3958 C 365.749 4.03031 -1.4405 0
M  V30 3959 C 365.075 5.28432 -0.81631 0
M  V30 3960 C 366.375 4.39932 -2.81527 0
M  V30 3961 H 368.069 2.36107 -1.84103 0
M  V30 3962 H 365.615 1.1347 -0.886599 0
M  V30 3963 H 367.568 4.2066 -0.249602 0
M  V30 3964 H 366.292 3.22546 0.513025 0
M  V30 3965 H 364.951 3.28937 -1.61853 0
M  V30 3966 H 364.599 5.02792 0.144511 0
M  V30 3967 H 364.299 5.68559 -1.48371 0
M  V30 3968 H 365.823 6.07284 -0.635496 0
M  V30 3969 H 367.237 5.07113 -2.67412 0
M  V30 3970 H 365.634 4.9109 -3.44892 0
M  V30 3971 H 366.704 3.50045 -3.35554 0
M  V30 3972 N 368.047 0.979072 1.23499 0
M  V30 3973 C 369.295 0.645941 1.91499 0
M  V30 3974 C 369.616 -0.822948 1.76784 0
M  V30 3975 O 368.886 -1.58854 1.14639 0
M  V30 3976 H 367.466 0.235919 0.708767 0
M  V30 3977 H 370.128 1.2426 1.50152 0
M  V30 3978 H 369.224 0.896411 2.9895 0
M  V30 3979 N 369.525 -1.3858 0.750561 0
M  V30 3980 C 370.771 -2.0095 0.31477 0
M  V30 3981 C 371.126 -1.58509 -1.09053 0
M  V30 3982 O 370.419 -0.8112 -1.7358 0
M  V30 3983 C 370.613 -3.55455 0.372373 0
M  V30 3984 C 370.442 -4.12898 1.78173 0
M  V30 3985 C 369.212 -4.44797 2.39757 0
M  V30 3986 C 371.41 -4.35366 2.7379 0
M  V30 3987 N 369.392 -4.87831 3.72685 0
M  V30 3988 C 370.763 -4.80775 3.91478 0
M  V30 3989 C 372.818 -4.1746 2.71351 0
M  V30 3990 C 371.521 -5.10155 5.07084 0
M  V30 3991 C 373.547 -4.47963 3.86113 0
M  V30 3992 C 372.909 -4.93593 5.02539 0
M  V30 3993 H 369.008 -0.765083 0.161776 0
M  V30 3994 H 371.592 -1.68246 0.979867 0
M  V30 3995 H 369.763 -3.87512 -0.26244 0
M  V30 3996 H 371.495 -4.04614 -0.0834479 0
M  V30 3997 H 368.25 -4.33135 1.91548 0
M  V30 3998 H 368.674 -5.13685 4.40972 0
M  V30 3999 H 373.316 -3.81372 1.82524 0
M  V30 4000 H 371.034 -5.45141 5.96529 0
M  V30 4001 H 374.62 -4.35717 3.85542 0
M  V30 4002 H 373.5 -5.16746 5.89867 0
M  V30 4003 N 371.003 -0.499398 -1.49478 0
M  V30 4004 C 371.95 0.279881 -2.29097 0
M  V30 4005 C 372.92 0.961805 -1.3542 0
M  V30 4006 O 374.105 0.968777 -1.64376 0
M  V30 4007 C 371.245 1.33932 -3.18051 0
M  V30 4008 C 370.358 0.669333 -4.26783 0
M  V30 4009 C 369.493 1.70907 -5.02955 0
M  V30 4010 C 368.532 1.02087 -6.03527 0
M  V30 4011 N 367.669 2.00474 -6.7287 0
M  V30 4012 H 372.509 -0.405317 -2.95231 0
M  V30 4013 H 370.046 -0.211726 -1.45568 0
M  V30 4014 H 372.004 1.96553 -3.67998 0
M  V30 4015 H 370.634 1.9933 -2.53904 0
M  V30 4016 H 369.686 -0.0701234 -3.80335 0
M  V30 4017 H 370.998 0.127503 -4.98637 0
M  V30 4018 H 370.152 2.41037 -5.56764 0
M  V30 4019 H 368.891 2.28476 -4.30871 0
M  V30 4020 H 367.896 0.305338 -5.48951 0
M  V30 4021 H 369.121 0.451708 -6.77596 0
M  V30 4022 H 367.067 2.57007 -6.03559 0
M  V30 4023 H 366.984 1.51353 -7.40694 0
M  V30 4024 H 368.252 2.69897 -7.31284 0
M  V30 4025 N 372.481 1.55866 -0.233164 0
M  V30 4026 C 373.758 1.90471 0.444988 0
M  V30 4027 C 374.138 1.15209 1.7689 0
M  V30 4028 O 373.486 0.265119 2.26957 0
M  V30 4029 C 373.696 3.4333 0.626559 0
M  V30 4030 C 375.044 4.14319 0.92871 0
M  V30 4031 O 376.068 3.48993 0.712926 0
M  V30 4032 O 374.927 5.29846 1.33887 0
M  V30 4033 H 372.021 0.792347 0.236885 0
M  V30 4034 H 374.567 1.67437 -0.276211 0
M  V30 4035 H 373.339 3.90095 -0.306822 0
M  V30 4036 H 372.962 3.72181 1.39881 0
M  V30 4037 N 373.959 -0.0401083 1.57549 0
M  V30 4038 C 374.889 -1.04384 2.08869 0
M  V30 4039 C 375.87 -1.38407 0.988817 0
M  V30 4040 O 377.055 -1.47483 1.26342 0
M  V30 4041 C 374.185 -2.34808 2.55895 0
M  V30 4042 C 373.139 -2.15057 3.70047 0
M  V30 4043 C 372.465 -3.51145 4.03239 0
M  V30 4044 C 373.765 -1.54576 4.98902 0
M  V30 4045 H 375.459 -0.616666 2.92981 0
M  V30 4046 H 373.005 -0.295184 1.40942 0
M  V30 4047 H 374.958 -3.05346 2.90417 0
M  V30 4048 H 373.682 -2.79565 1.68853 0
M  V30 4049 H 372.341 -1.46954 3.35857 0
M  V30 4050 H 371.989 -3.93529 3.13279 0
M  V30 4051 H 371.689 -3.38758 4.80122 0
M  V30 4052 H 373.213 -4.23062 4.40285 0
M  V30 4053 H 374.627 -2.15017 5.31451 0
M  V30 4054 H 373.024 -1.52796 5.80322 0
M  V30 4055 H 374.094 -0.51039 4.82206 0
M  V30 4056 N 375.437 -1.54477 -0.31217 0
M  V30 4057 C 376.662 -1.77526 -1.07235 0
M  V30 4058 C 377.087 -0.527775 -1.80544 0
M  V30 4059 O 376.445 0.52121 -1.73646 0
M  V30 4060 C 376.493 -2.97535 -2.03728 0
M  V30 4061 O 375.597 -2.69878 -3.11833 0
M  V30 4062 H 374.938 -0.58792 -0.30862 0
M  V30 4063 H 377.468 -2.01532 -0.352993 0
M  V30 4064 H 377.478 -3.25198 -2.46395 0
M  V30 4065 H 376.153 -3.87996 -1.49774 0
M  V30 4066 H 374.73 -2.53199 -2.7376 0
M  V30 4067 N 376.915 0.57481 -1.46744 0
M  V30 4068 C 378.164 1.32898 -1.51727 0
M  V30 4069 C 378.477 1.948 -0.176692 0
M  V30 4070 O 379.683 2.71299 -0.104385 0
M  V30 4071 C 378.139 2.40901 -2.67385 0
M  V30 4072 C 377.747 1.85266 -4.07898 0
M  V30 4073 C 379.491 3.17609 -2.81646 0
M  V30 4074 C 377.398 2.90945 -5.14883 0
M  V30 4075 H 376.328 0.499631 -0.564699 0
M  V30 4076 H 378.979 0.612536 -1.72975 0
M  V30 4077 H 377.361 3.15379 -2.39483 0
M  V30 4078 H 378.535 1.17278 -4.45626 0
M  V30 4079 H 376.85 1.21199 -3.98371 0
M  V30 4080 H 379.447 3.96493 -3.58744 0
M  V30 4081 H 379.79 3.70696 -1.89448 0
M  V30 4082 H 380.323 2.50239 -3.09233 0
M  V30 4083 H 377.062 2.42736 -6.089 0
M  V30 4084 H 376.582 3.57398 -4.81691 0
M  V30 4085 H 378.261 3.54755 -5.41071 0
M  V30 4086 N 378.394 1.34581 0.820102 0
M  V30 4087 C 379.642 1.26845 1.57336 0
M  V30 4088 C 379.963 -0.160667 1.94337 0
M  V30 4089 O 379.233 -1.09396 1.6251 0
M  V30 4090 H 377.813 0.466514 0.583415 0
M  V30 4091 H 380.475 1.68526 0.979027 0
M  V30 4092 H 379.571 1.87513 2.4949 0
M  V30 4093 N 379.872 -1.04064 1.18357 0
M  V30 4094 C 381.097 -1.81454 1.00445 0
M  V30 4095 C 381.522 -1.82823 -0.442423 0
M  V30 4096 O 380.88 -1.24555 -1.31741 0
M  V30 4097 C 380.928 -3.24925 1.56384 0
M  V30 4098 O 380.032 -4.04856 0.785209 0
M  V30 4099 H 379.373 -0.560604 0.355835 0
M  V30 4100 H 381.903 -1.31059 1.57114 0
M  V30 4101 H 381.913 -3.75702 1.59097 0
M  V30 4102 H 380.588 -3.23244 2.61699 0
M  V30 4103 H 379.165 -3.63537 0.830399 0
M  V30 4104 N 381.35 -0.985608 -1.22978 0
M  V30 4105 C 382.596 -0.65836 -1.91816 0
M  V30 4106 C 382.929 0.806692 -1.76653 0
M  V30 4107 O 382.204 1.58252 -1.13078 0
M  V30 4108 C 382.487 -1.056 -3.44268 0
M  V30 4109 C 382.34 -2.57906 -3.68516 0
M  V30 4110 C 383.659 -0.603781 -4.35939 0
M  V30 4111 H 380.778 -0.24065 -0.696604 0
M  V30 4112 H 383.42 -1.22783 -1.44998 0
M  V30 4113 H 381.57 -0.571445 -3.84274 0
M  V30 4114 H 383.242 -3.13976 -3.3796 0
M  V30 4115 H 381.485 -3.00305 -3.13048 0
M  V30 4116 H 382.156 -2.80779 -4.75255 0
M  V30 4117 H 384.632 -1.01987 -4.03408 0
M  V30 4118 H 383.508 -0.910383 -5.41298 0
M  V30 4119 H 383.769 0.495761 -4.39312 0
M  V30 4120 N 382.828 1.3818 -0.7579 0
M  V30 4121 C 384.105 1.94106 -0.241306 0
M  V30 4122 C 384.485 1.69282 1.26122 0
M  V30 4123 O 383.833 1.03378 2.03777 0
M  V30 4124 C 384.043 3.43809 -0.59967 0
M  V30 4125 C 385.391 4.20868 -0.561717 0
M  V30 4126 O 386.415 3.5211 -0.538222 0
M  V30 4127 O 385.274 5.43451 -0.576478 0
M  V30 4128 H 382.368 0.825376 -0.0518042 0
M  V30 4129 H 384.914 1.47548 -0.838315 0
M  V30 4130 H 383.686 3.55403 -1.6372 0
M  V30 4131 H 383.309 3.97592 0.0251197 0
M  V30 4132 N 384.306 0.507319 1.49211 0
M  V30 4133 C 385.717 0.0611118 1.866 0
M  V30 4134 C 386.068 -1.35488 1.41907 0
M  V30 4135 O 385.193 -2.0108 0.799726 0
M  V30 4136 C 385.788 0.104125 3.3864 0
M  V30 4137 C 384.347 -0.28677 3.75306 0
M  V30 4138 C 383.494 0.473893 2.73221 0
M  V30 4139 H 386.445 0.719775 1.41439 0
M  V30 4140 H 386.466 -0.689672 3.74198 0
M  V30 4141 H 385.978 1.13482 3.71138 0
M  V30 4142 H 384.079 -1.32046 3.48417 0
M  V30 4143 H 384.192 0.0370745 4.79086 0
M  V30 4144 H 382.556 -0.0770644 2.54583 0
M  V30 4145 H 383.339 1.50478 3.08563 0
M  V30 4146 N 385.784 -1.5574 0.241426 0
M  V30 4147 C 387.03 -1.99104 -0.385406 0
M  V30 4148 C 387.363 -1.1293 -1.57988 0
M  V30 4149 O 386.638 -0.191449 -1.93555 0
M  V30 4150 C 386.921 -3.51087 -0.800616 0
M  V30 4151 C 386.774 -4.48028 0.398874 0
M  V30 4152 C 388.093 -4.08015 -1.64959 0
M  V30 4153 H 385.212 -0.723848 -0.138614 0
M  V30 4154 H 387.854 -1.86903 0.341642 0
M  V30 4155 H 386.004 -3.61615 -1.4201 0
M  V30 4156 H 387.676 -4.49487 1.03726 0
M  V30 4157 H 385.919 -4.21077 1.04293 0
M  V30 4158 H 386.59 -5.51962 0.0651056 0
M  V30 4159 H 389.066 -4.00555 -1.12672 0
M  V30 4160 H 387.942 -5.14635 -1.90898 0
M  V30 4161 H 388.203 -3.56131 -2.61961 0
M  V30 4162 N 387.262 0.0317525 -1.57568 0
M  V30 4163 C 388.508 0.724175 -1.8943 0
M  V30 4164 C 388.841 1.75149 -0.838836 0
M  V30 4165 O 388.116 1.93948 0.146422 0
M  V30 4166 C 388.399 1.39615 -3.31933 0
M  V30 4167 C 388.252 0.382537 -4.4817 0
M  V30 4168 C 389.571 2.33084 -3.73309 0
M  V30 4169 H 386.69 0.261797 -0.688935 0
M  V30 4170 H 389.332 -0.013017 -1.89996 0
M  V30 4171 H 387.482 2.02451 -3.31581 0
M  V30 4172 H 389.154 -0.243689 -4.60656 0
M  V30 4173 H 387.397 -0.29844 -4.32772 0
M  V30 4174 H 388.068 0.891145 -5.44759 0
M  V30 4175 H 390.544 1.80295 -3.7501 0
M  V30 4176 H 389.42 2.77084 -4.73831 0
M  V30 4177 H 389.681 3.19643 -3.05419 0
M  V30 4178 N 388.74 1.54641 0.303973 0
M  V30 4179 C 389.986 1.74038 1.04109 0
M  V30 4180 C 390.319 0.523051 1.87024 0
M  V30 4181 O 389.594 -0.479874 1.88487 0
M  V30 4182 C 389.877 3.02761 1.94955 0
M  V30 4183 C 389.73 4.34787 1.1524 0
M  V30 4184 C 391.049 3.27336 2.94175 0
M  V30 4185 H 388.168 0.63323 0.377079 0
M  V30 4186 H 390.81 1.87354 0.316001 0
M  V30 4187 H 388.96 2.9154 2.56782 0
M  V30 4188 H 390.632 4.57922 0.557236 0
M  V30 4189 H 388.875 4.31407 0.455053 0
M  V30 4190 H 389.546 5.21116 1.8205 0
M  V30 4191 H 392.022 3.38148 2.42477 0
M  V30 4192 H 390.898 4.18726 3.54908 0
M  V30 4193 H 391.159 2.45491 3.67677 0
M  V30 4194 N 390.218 -0.567019 1.47046 0
M  V30 4195 C 391.128 -1.70247 1.6141 0
M  V30 4196 C 392.144 -1.66746 0.497157 0
M  V30 4197 O 393.32 -1.86371 0.763389 0
M  V30 4198 C 390.385 -3.06756 1.61561 0
M  V30 4199 C 389.446 -3.21399 2.84607 0
M  V30 4200 C 388.679 -4.51396 2.84741 0
M  V30 4201 O 388.902 -5.36255 1.94388 0
M  V30 4202 O 387.836 -4.69621 3.76483 0
M  V30 4203 H 391.662 -1.61073 2.57467 0
M  V30 4204 H 389.247 -0.735894 1.30019 0
M  V30 4205 H 391.129 -3.8801 1.64396 0
M  V30 4206 H 389.804 -3.16333 0.686684 0
M  V30 4207 H 388.711 -2.39579 2.8732 0
M  V30 4208 H 390.044 -3.16721 3.76761 0
M  V30 4209 N 391.696 -1.35014 -0.812953 0
M  V30 4210 C 392.626 -1.30069 -1.93919 0
M  V30 4211 C 393.607 -0.176275 -1.69184 0
M  V30 4212 O 394.792 -0.370227 -1.90638 0
M  V30 4213 C 391.922 -1.06547 -3.30552 0
M  V30 4214 C 390.876 -2.15561 -3.69753 0
M  V30 4215 C 390.202 -1.77214 -5.04479 0
M  V30 4216 C 391.502 -3.57476 -3.808 0
M  V30 4217 H 393.196 -2.24303 -1.98314 0
M  V30 4218 H 390.742 -1.07977 -0.952736 0
M  V30 4219 H 392.695 -1.01729 -4.08937 0
M  V30 4220 H 391.419 -0.0875719 -3.26483 0
M  V30 4221 H 390.078 -2.19466 -2.9365 0
M  V30 4222 H 389.726 -0.780589 -4.96906 0
M  V30 4223 H 389.426 -2.50184 -5.31678 0
M  V30 4224 H 390.95 -1.7391 -5.8531 0
M  V30 4225 H 392.364 -3.55929 -4.4943 0
M  V30 4226 H 390.761 -4.29152 -4.19462 0
M  V30 4227 H 391.831 -3.94091 -2.82525 0
M  V30 4228 N 393.175 1.03435 -1.18907 0
M  V30 4229 C 394.122 2.11591 -0.921837 0
M  V30 4230 C 395.092 1.65499 0.141226 0
M  V30 4231 O 396.277 1.908 0.000242829 0
M  V30 4232 C 393.417 3.42012 -0.460616 0
M  V30 4233 C 392.53 4.01682 -1.58982 0
M  V30 4234 C 391.665 5.20091 -1.08069 0
M  V30 4235 C 390.704 5.71805 -2.18416 0
M  V30 4236 N 389.841 6.81494 -1.68849 0
M  V30 4237 H 394.681 2.33787 -1.8479 0
M  V30 4238 H 392.218 1.1467 -0.921373 0
M  V30 4239 H 394.176 4.16834 -0.174642 0
M  V30 4240 H 392.806 3.19944 0.428467 0
M  V30 4241 H 391.858 3.24127 -1.99113 0
M  V30 4242 H 393.17 4.36084 -2.4214 0
M  V30 4243 H 392.324 6.02051 -0.749615 0
M  V30 4244 H 391.063 4.87209 -0.218771 0
M  V30 4245 H 390.068 4.88461 -2.5236 0
M  V30 4246 H 391.293 6.06728 -3.05054 0
M  V30 4247 H 389.239 6.50475 -0.849572 0
M  V30 4248 H 389.156 7.14994 -2.45601 0
M  V30 4249 H 390.424 7.67063 -1.38689 0
M  V30 4250 N 394.653 0.992116 1.22453 0
M  V30 4251 C 395.601 0.534644 2.26372 0
M  V30 4252 C 396.595 -0.414293 1.64256 0
M  V30 4253 O 397.801 -0.286899 1.77699 0
M  V30 4254 H 394.176 0.154502 0.735957 0
M  V30 4255 H 396.147 1.42256 2.62309 0
M  V30 4256 C 394.896 -0.135815 3.47435 0
M  V30 4257 H 394.219 0.585311 3.95492 0
M  V30 4258 H 395.659 -0.419374 4.21921 0
M  V30 4259 C 394.118 -1.37089 3.07747 0
M  V30 4260 O 394.648 -2.46629 3.17076 0
M  V30 4261 N 392.854 -1.24585 2.62539 0
M  V30 4262 H 392.401 -0.354542 2.55149 0
M  V30 4263 H 392.359 -2.07327 2.36353 0
M  V30 4264 N 396.131 -1.37776 0.765217 0
M  V30 4265 C 397.063 -2.28958 0.105361 0
M  V30 4266 C 398.076 -1.48316 -0.67128 0
M  V30 4267 O 399.265 -1.71046 -0.51045 0
M  V30 4268 C 396.365 -3.27421 -0.874569 0
M  V30 4269 C 395.538 -4.37132 -0.153123 0
M  V30 4270 C 394.597 -5.1571 -1.04547 0
M  V30 4271 O 393.623 -5.66896 -0.511672 0
M  V30 4272 N 394.825 -5.29808 -2.37243 0
M  V30 4273 H 397.59 -2.86227 0.888495 0
M  V30 4274 H 395.151 -1.49682 0.617 0
M  V30 4275 H 397.143 -3.7687 -1.47483 0
M  V30 4276 H 395.713 -2.70967 -1.55871 0
M  V30 4277 H 394.933 -3.89166 0.627975 0
M  V30 4278 H 396.221 -5.07625 0.345643 0
M  V30 4279 H 395.619 -4.89793 -2.83054 0
M  V30 4280 H 394.176 -5.82589 -2.9229 0
M  V30 4281 N 397.609 -0.515225 -1.4894 0
M  V30 4282 C 398.557 0.269115 -2.31038 0
M  V30 4283 C 399.551 0.949443 -1.40292 0
M  V30 4284 O 400.757 0.87551 -1.57273 0
M  V30 4285 H 397.132 0.10565 -0.744542 0
M  V30 4286 H 399.103 -0.443096 -2.95092 0
M  V30 4287 C 397.852 1.31213 -3.21991 0
M  V30 4288 H 397.175 0.798034 -3.91754 0
M  V30 4289 H 398.615 1.83263 -3.82349 0
M  V30 4290 C 397.074 2.33791 -2.42576 0
M  V30 4291 O 397.604 3.3995 -2.14003 0
M  V30 4292 N 395.81 2.06625 -2.0434 0
M  V30 4293 H 395.357 1.20314 -2.27777 0
M  V30 4294 H 395.315 2.75483 -1.51514 0
M  V30 4295 N 399.087 1.5561 -0.249682 0
M  V30 4296 C 400.034 2.21496 0.648694 0
M  V30 4297 C 401.004 1.17977 1.16921 0
M  V30 4298 O 402.189 1.46434 1.22318 0
M  V30 4299 C 399.329 2.92039 1.83868 0
M  V30 4300 C 398.442 4.10219 1.35442 0
M  V30 4301 C 397.577 4.6847 2.50419 0
M  V30 4302 C 396.616 5.78893 1.98869 0
M  V30 4303 N 395.753 6.31315 3.07223 0
M  V30 4304 H 400.593 2.97892 0.0801582 0
M  V30 4305 H 398.13 1.47074 0.0278031 0
M  V30 4306 H 400.088 3.31138 2.53778 0
M  V30 4307 H 398.718 2.18111 2.37965 0
M  V30 4308 H 397.77 3.76413 0.54928 0
M  V30 4309 H 399.082 4.89927 0.936649 0
M  V30 4310 H 398.236 5.10158 3.28366 0
M  V30 4311 H 396.975 3.87984 2.95499 0
M  V30 4312 H 395.98 5.3668 1.19393 0
M  V30 4313 H 397.205 6.61232 1.54755 0
M  V30 4314 H 395.151 5.53733 3.51732 0
M  V30 4315 H 395.068 7.06224 2.69784 0
M  V30 4316 H 396.336 6.77662 3.8522 0
M  V30 4317 N 400.565 -0.0233959 1.57583 0
M  V30 4318 C 401.814 -0.712133 1.8871 0
M  V30 4319 C 402.127 -1.76217 0.848944 0
M  V30 4320 O 403.333 -2.50389 1.04964 0
M  V30 4321 C 401.789 -1.3177 3.3491 0
M  V30 4322 C 401.397 -0.303715 4.46969 0
M  V30 4323 C 403.141 -1.98598 3.75179 0
M  V30 4324 C 401.048 -0.917945 5.84233 0
M  V30 4325 H 399.978 -0.269735 0.704101 0
M  V30 4326 H 402.629 0.0333114 1.8347 0
M  V30 4327 H 401.011 -2.11304 3.34913 0
M  V30 4328 H 402.185 0.465325 4.58445 0
M  V30 4329 H 400.5 0.2628 4.1557 0
M  V30 4330 H 403.097 -2.45416 4.75053 0
M  V30 4331 H 403.44 -2.80659 3.07468 0
M  V30 4332 H 403.973 -1.25831 3.77374 0
M  V30 4333 H 400.712 -0.136633 6.55358 0
M  V30 4334 H 400.232 -1.65669 5.76467 0
M  V30 4335 H 401.911 -1.4236 6.31144 0
M  V30 4336 N 402.043 -1.548 -0.295768 0
M  V30 4337 C 402.953 -1.89177 -1.38742 0
M  V30 4338 C 403.969 -0.786481 -1.55211 0
M  V30 4339 O 405.145 -1.08344 -1.69775 0
M  V30 4340 C 402.21 -2.13663 -2.73036 0
M  V30 4341 C 401.271 -3.37349 -2.65508 0
M  V30 4342 C 400.504 -3.60658 -3.93398 0
M  V30 4343 O 400.727 -2.86882 -4.93006 0
M  V30 4344 O 399.661 -4.54179 -3.94975 0
M  V30 4345 H 403.487 -2.82059 -1.12589 0
M  V30 4346 H 401.072 -1.41056 -0.492295 0
M  V30 4347 H 402.954 -2.3094 -3.52484 0
M  V30 4348 H 401.629 -1.23967 -2.99022 0
M  V30 4349 H 400.536 -3.25431 -1.84514 0
M  V30 4350 H 401.869 -4.27192 -2.44474 0
M  V30 4351 N 403.521 0.559213 -1.47345 0
M  V30 4352 C 404.453 1.68161 -1.55738 0
M  V30 4353 C 405.466 1.56636 -0.443744 0
M  V30 4354 O 406.655 1.6363 -0.713258 0
M  V30 4355 C 403.755 3.06611 -1.4437 0
M  V30 4356 C 402.928 3.4391 -2.70268 0
M  V30 4357 C 401.987 4.61515 -2.52765 0
M  V30 4358 O 401.013 4.66197 -3.26572 0
M  V30 4359 N 402.215 5.57883 -1.6046 0
M  V30 4360 H 404.98 1.61408 -2.52522 0
M  V30 4361 H 402.541 0.7458 -1.43699 0
M  V30 4362 H 404.533 3.83117 -1.30398 0
M  V30 4363 H 403.103 3.07602 -0.556766 0
M  V30 4364 H 402.323 2.56873 -2.99015 0
M  V30 4365 H 403.611 3.65605 -3.53851 0
M  V30 4366 H 403.009 5.56855 -0.996422 0
M  V30 4367 H 401.566 6.33723 -1.52441 0
M  V30 4368 N 404.999 1.35443 0.805782 0
M  V30 4369 C 405.962 1.28301 1.89925 0
M  V30 4370 C 406.962 0.194285 1.59622 0
M  V30 4371 O 408.152 0.448036 1.6834 0
M  V30 4372 C 405.284 0.984997 3.2636 0
M  V30 4373 H 406.477 2.2553 1.97677 0
M  V30 4374 H 404.03 1.19979 1.00173 0
M  V30 4375 H 404.765 0.016603 3.24296 0
M  V30 4376 H 404.55 1.77269 3.4974 0
M  V30 4377 H 406.04 0.960651 4.064 0
M  V30 4378 N 406.477 -1.02803 1.19454 0
M  V30 4379 C 407.723 -1.76478 0.999171 0
M  V30 4380 C 408.056 -1.88456 -0.468828 0
M  V30 4381 O 407.331 -1.40198 -1.34814 0
M  V30 4382 C 407.614 -3.19044 1.66981 0
M  V30 4383 C 407.467 -3.14932 3.21151 0
M  V30 4384 C 408.786 -4.17456 1.39349 0
M  V30 4385 H 405.905 -0.640614 0.364393 0
M  V30 4386 H 408.547 -1.20005 1.47305 0
M  V30 4387 H 406.697 -3.67263 1.2669 0
M  V30 4388 H 408.369 -2.74605 3.70661 0
M  V30 4389 H 406.612 -2.52625 3.52652 0
M  V30 4390 H 407.283 -4.1566 3.63223 0
M  V30 4391 H 409.759 -3.77842 1.74283 0
M  V30 4392 H 408.635 -5.154 1.88823 0
M  V30 4393 H 408.896 -4.40949 0.318813 0
M  V30 4394 N 407.956 -0.998596 -1.21925 0
M  V30 4395 C 409.203 -0.677663 -1.90824 0
M  V30 4396 C 409.531 0.790905 -1.77693 0
M  V30 4397 O 408.786 1.58817 -1.14349 0
M  V30 4398 C 409.085 -1.03648 -3.42041 0
M  V30 4399 C 408.751 -2.49825 -3.75364 0
M  V30 4400 C 407.413 -2.8977 -3.8417 0
M  V30 4401 C 409.765 -3.44545 -3.91073 0
M  V30 4402 C 407.093 -4.23412 -4.06127 0
M  V30 4403 C 409.445 -4.77853 -4.14535 0
M  V30 4404 C 408.109 -5.17531 -4.21566 0
M  V30 4405 H 407.379 -0.247975 -0.698276 0
M  V30 4406 H 410.026 -1.25584 -1.44571 0
M  V30 4407 H 408.331 -0.376457 -3.89987 0
M  V30 4408 H 410.028 -0.766113 -3.93614 0
M  V30 4409 H 406.618 -2.17866 -3.69097 0
M  V30 4410 H 410.802 -3.14853 -3.83642 0
M  V30 4411 H 406.058 -4.53734 -4.09799 0
M  V30 4412 H 410.232 -5.51189 -4.25633 0
M  V30 4413 H 407.859 -6.21102 -4.38333 0
M  V30 4414 N 409.434 1.37368 -0.772513 0
M  V30 4415 C 410.662 2.03942 -0.348588 0
M  V30 4416 C 411.077 1.58264 1.02947 0
M  V30 4417 O 410.434 0.764246 1.65727 0
M  V30 4418 C 410.485 3.5946 -0.38351 0
M  V30 4419 O 410.206 4.03468 -1.70721 0
M  V30 4420 C 411.707 4.4327 0.0519152 0
M  V30 4421 H 408.927 0.654931 -0.145966 0
M  V30 4422 H 411.471 1.75686 -1.04665 0
M  V30 4423 H 409.626 3.86486 0.265978 0
M  V30 4424 H 410.04 4.97991 -1.64636 0
M  V30 4425 H 411.514 5.51995 -0.0236733 0
M  V30 4426 H 411.991 4.2514 1.10238 0
M  V30 4427 H 412.597 4.21471 -0.569415 0
M  V30 4428 N 410.912 0.523116 1.48665 0
M  V30 4429 C 412.159 -0.0134763 2.02496 0
M  V30 4430 C 412.487 -1.3493 1.40086 0
M  V30 4431 O 411.742 -1.88286 0.533567 0
M  V30 4432 C 412.041 -0.191671 3.56886 0
M  V30 4433 C 411.707 1.06893 4.38046 0
M  V30 4434 C 410.369 1.41443 4.59943 0
M  V30 4435 C 412.721 1.90584 4.85106 0
M  V30 4436 C 410.049 2.59594 5.26144 0
M  V30 4437 C 412.401 3.07907 5.52609 0
M  V30 4438 C 411.065 3.42811 5.72745 0
M  V30 4439 H 410.335 -0.00493133 0.740984 0
M  V30 4440 H 412.982 0.687751 1.78724 0
M  V30 4441 H 411.287 -0.97561 3.79459 0
M  V30 4442 H 412.984 -0.621659 3.96152 0
M  V30 4443 H 409.574 0.789848 4.21259 0
M  V30 4444 H 413.758 1.65203 4.67997 0
M  V30 4445 H 409.014 2.86847 5.39934 0
M  V30 4446 H 413.188 3.73066 5.88043 0
M  V30 4447 H 410.815 4.34462 6.23816 0
M  V30 4448 N 412.39 -1.55475 0.257931 0
M  V30 4449 C 413.62 -2.03314 -0.367026 0
M  V30 4450 C 414.028 -1.13625 -1.51281 0
M  V30 4451 O 413.371 -0.145334 -1.83124 0
M  V30 4452 C 413.433 -3.47362 -0.926284 0
M  V30 4453 C 413.097 -4.56914 0.0886584 0
M  V30 4454 C 414.094 -5.12013 0.902123 0
M  V30 4455 C 411.779 -5.01827 0.217936 0
M  V30 4456 C 413.773 -6.10529 1.83122 0
M  V30 4457 C 411.46 -6.00172 1.15052 0
M  V30 4458 C 412.458 -6.54402 1.95568 0
M  V30 4459 O 412.146 -7.50827 2.87253 0
M  V30 4460 H 411.878 -0.669976 -0.0900443 0
M  V30 4461 H 414.432 -2.01804 0.382673 0
M  V30 4462 H 412.662 -3.46056 -1.72575 0
M  V30 4463 H 414.351 -3.78637 -1.46249 0
M  V30 4464 H 415.117 -4.78139 0.812891 0
M  V30 4465 H 410.996 -4.59272 -0.398721 0
M  V30 4466 H 414.54 -6.52783 2.46008 0
M  V30 4467 H 410.437 -6.33465 1.24064 0
M  V30 4468 H 411.205 -7.68483 2.81739 0
M  V30 4469 N 413.868 0.0150385 -1.57593 0
M  V30 4470 C 414.798 1.01047 -2.10503 0
M  V30 4471 C 415.779 1.36816 -1.01071 0
M  V30 4472 O 416.964 1.45455 -1.28672 0
M  V30 4473 C 414.094 2.30708 -2.59598 0
M  V30 4474 C 413.048 2.09142 -3.73421 0
M  V30 4475 C 412.374 3.44685 -4.08774 0
M  V30 4476 C 413.674 1.46619 -5.01298 0
M  V30 4477 H 415.368 0.569978 -2.93925 0
M  V30 4478 H 412.914 0.272724 -1.41394 0
M  V30 4479 H 414.867 3.00687 -2.95238 0
M  V30 4480 H 413.591 2.76843 -1.73279 0
M  V30 4481 H 412.25 1.41592 -3.38153 0
M  V30 4482 H 411.898 3.88495 -3.195 0
M  V30 4483 H 411.598 3.31077 -4.8545 0
M  V30 4484 H 413.122 4.16004 -4.4696 0
M  V30 4485 H 414.536 2.06535 -5.34805 0
M  V30 4486 H 412.933 1.43544 -5.82679 0
M  V30 4487 H 414.003 0.433611 -4.82957 0
M  V30 4488 N 415.346 1.54954 0.287554 0
M  V30 4489 C 416.757 1.65732 0.859634 0
M  V30 4490 C 417.108 0.574767 1.87592 0
M  V30 4491 O 416.233 -0.286299 2.14498 0
M  V30 4492 C 416.828 3.00438 1.56597 0
M  V30 4493 C 415.387 3.13292 2.08627 0
M  V30 4494 C 414.534 2.61473 0.923416 0
M  V30 4495 H 417.485 1.5857 0.0642338 0
M  V30 4496 H 417.506 2.92613 2.43224 0
M  V30 4497 H 417.018 3.79207 0.826053 0
M  V30 4498 H 415.119 2.39268 2.85625 0
M  V30 4499 H 415.232 4.19647 2.31157 0
M  V30 4500 H 413.596 2.18264 1.31275 0
M  V30 4501 H 414.379 3.42733 0.197241 0
M  V30 4502 N 416.824 -0.551391 1.4764 0
M  V30 4503 C 418.071 -1.3083 1.54563 0
M  V30 4504 C 418.399 -1.93359 0.210361 0
M  V30 4505 O 417.654 -1.78721 -0.797332 0
M  V30 4506 C 417.953 -2.43469 2.61644 0
M  V30 4507 C 417.619 -1.98732 4.04742 0
M  V30 4508 C 416.281 -1.86248 4.43695 0
M  V30 4509 C 418.633 -1.64659 4.94507 0
M  V30 4510 C 415.961 -1.37995 5.70241 0
M  V30 4511 C 418.313 -1.17875 6.21521 0
M  V30 4512 C 416.977 -1.03992 6.5935 0
M  V30 4513 H 416.247 -0.478741 0.565587 0
M  V30 4514 H 418.894 -0.617697 1.81264 0
M  V30 4515 H 417.199 -3.18109 2.28722 0
M  V30 4516 H 418.896 -3.01642 2.64222 0
M  V30 4517 H 415.486 -2.09393 3.73968 0
M  V30 4518 H 419.67 -1.73174 4.65107 0
M  V30 4519 H 414.926 -1.25915 5.98294 0
M  V30 4520 H 419.1 -0.905739 6.90485 0
M  V30 4521 H 416.727 -0.663794 7.57296 0
M  V30 4522 N 418.302 -1.35869 -0.798587 0
M  V30 4523 C 419.579 -1.20145 -1.54352 0
M  V30 4524 C 419.959 0.216161 -2.0999 0
M  V30 4525 O 419.307 1.22068 -1.93162 0
M  V30 4526 C 419.517 -2.27602 -2.64572 0
M  V30 4527 C 420.865 -2.63811 -3.32699 0
M  V30 4528 O 421.889 -2.26576 -2.74849 0
M  V30 4529 O 420.748 -3.27866 -4.37226 0
M  V30 4530 H 417.842 -0.467248 -0.682355 0
M  V30 4531 H 420.388 -1.47574 -0.837859 0
M  V30 4532 H 419.16 -3.2265 -2.21388 0
M  V30 4533 H 418.783 -2.01488 -3.42766 0
M  V30 4534 N 419.78 1.02168 -1.19998 0
M  V30 4535 C 421.057 1.72816 -0.916191 0
M  V30 4536 C 421.437 2.03081 0.576325 0
M  V30 4537 O 420.785 1.69122 1.53656 0
M  V30 4538 C 420.995 2.9997 -1.78378 0
M  V30 4539 C 422.343 3.73336 -2.02251 0
M  V30 4540 O 423.367 3.09914 -1.75589 0
M  V30 4541 O 422.226 4.87371 -2.47249 0
M  V30 4542 H 419.32 0.752924 -0.342103 0
M  V30 4543 H 421.866 1.08062 -1.30846 0
M  V30 4544 H 420.638 2.73888 -2.79466 0
M  V30 4545 H 420.261 3.72464 -1.39126 0
M  V30 4546 N 421.258 1.00505 1.21394 0
M  V30 4547 C 422.205 0.565496 2.23765 0
M  V30 4548 C 423.175 -0.408466 1.60999 0
M  V30 4549 O 424.36 -0.310503 1.88257 0
M  V30 4550 C 421.5 -0.101667 3.4495 0
M  V30 4551 C 420.613 0.915479 4.22188 0
M  V30 4552 C 419.748 0.220574 5.30742 0
M  V30 4553 C 418.787 1.22527 5.99711 0
M  V30 4554 N 417.924 0.557831 6.9988 0
M  V30 4555 H 422.764 1.44314 2.60725 0
M  V30 4556 H 420.301 0.722643 1.28126 0
M  V30 4557 H 422.259 -0.505504 4.14126 0
M  V30 4558 H 420.889 -0.94303 3.08718 0
M  V30 4559 H 419.941 1.43756 3.52191 0
M  V30 4560 H 421.253 1.68005 4.69655 0
M  V30 4561 H 420.407 -0.239368 6.06228 0
M  V30 4562 H 419.146 -0.576401 4.84282 0
M  V30 4563 H 418.151 1.69571 5.22997 0
M  V30 4564 H 419.376 2.02332 6.48258 0
M  V30 4565 H 417.322 -0.219486 6.55633 0
M  V30 4566 H 417.239 1.26065 7.45415 0
M  V30 4567 H 418.507 0.121095 7.79406 0
M  V30 4568 N 422.737 -1.36956 0.779787 0
M  V30 4569 C 423.687 -2.27539 0.144892 0
M  V30 4570 C 424.671 -1.46493 -0.665488 0
M  V30 4571 O 425.863 -1.68968 -0.527141 0
M  V30 4572 C 422.992 -3.35512 -0.727082 0
M  V30 4573 C 422.078 -4.24001 0.0915642 0
M  V30 4574 N 422.469 -4.92757 1.14125 0
M  V30 4575 C 420.767 -4.45807 -0.131141 0
M  V30 4576 C 421.468 -5.58138 1.6388 0
M  V30 4577 N 420.444 -5.35241 0.94962 0
M  V30 4578 H 424.246 -2.78176 0.948446 0
M  V30 4579 H 421.76 -1.50169 0.618315 0
M  V30 4580 H 423.757 -3.99324 -1.19776 0
M  V30 4581 H 422.417 -2.86431 -1.52929 0
M  V30 4582 H 423.428 -4.94984 1.52353 0
M  V30 4583 H 420.105 -4.07582 -0.904621 0
M  V30 4584 H 421.495 -6.23071 2.51461 0
M  V30 4585 N 424.215 -0.530993 -1.48385 0
M  V30 4586 C 425.162 0.231223 -2.29639 0
M  V30 4587 C 426.132 0.932864 -1.37429 0
M  V30 4588 O 427.317 0.933692 -1.66394 0
M  V30 4589 C 424.457 1.27155 -3.2082 0
M  V30 4590 C 423.57 0.578655 -4.28107 0
M  V30 4591 C 422.705 1.602 -5.06467 0
M  V30 4592 C 421.744 0.892625 -6.05556 0
M  V30 4593 N 420.881 1.86157 -6.76971 0
M  V30 4594 H 425.721 -0.467848 -2.94305 0
M  V30 4595 H 423.258 -0.242556 -1.45086 0
M  V30 4596 H 425.216 1.88703 -3.72085 0
M  V30 4597 H 423.846 1.939 -2.58075 0
M  V30 4598 H 422.898 -0.150782 -3.80101 0
M  V30 4599 H 424.21 0.0217065 -4.98795 0
M  V30 4600 H 423.364 2.29173 -5.61751 0
M  V30 4601 H 422.103 2.19285 -4.35621 0
M  V30 4602 H 421.108 0.188829 -5.49476 0
M  V30 4603 H 422.333 0.307878 -6.78402 0
M  V30 4604 H 420.279 2.44147 -6.08875 0
M  V30 4605 H 420.196 1.35608 -7.43738 0
M  V30 4606 H 421.464 2.54325 -7.36844 0
M  V30 4607 N 425.693 1.55336 -0.266172 0
M  V30 4608 C 426.941 1.99003 0.35246 0
M  V30 4609 C 427.262 1.15591 1.57047 0
M  V30 4610 O 426.532 0.243268 1.94384 0
M  V30 4611 H 425.112 0.735025 0.133217 0
M  V30 4612 H 427.774 1.91367 -0.369434 0
M  V30 4613 H 426.87 3.05289 0.648453 0
M  V30 4614 N 427.171 -0.0066808 1.57599 0
M  V30 4615 C 428.401 -0.703066 1.94269 0
M  V30 4616 C 428.809 -1.68206 0.866222 0
M  V30 4617 O 428.152 -1.82966 -0.164087 0
M  V30 4618 C 428.214 -1.49616 3.26887 0
M  V30 4619 C 427.878 -0.679494 4.5192 0
M  V30 4620 C 428.875 0.0299508 5.19891 0
M  V30 4621 C 426.56 -0.627433 4.98366 0
M  V30 4622 C 428.554 0.780514 6.32603 0
M  V30 4623 C 426.241 0.126861 6.10968 0
M  V30 4624 C 427.239 0.829574 6.77943 0
M  V30 4625 O 426.927 1.57157 7.88389 0
M  V30 4626 H 426.659 -0.201217 0.645359 0
M  V30 4627 H 429.213 0.0385326 2.05364 0
M  V30 4628 H 427.443 -2.28209 3.12182 0
M  V30 4629 H 429.132 -2.07726 3.48719 0
M  V30 4630 H 429.898 -0.00115963 4.85 0
M  V30 4631 H 425.777 -1.16392 4.46065 0
M  V30 4632 H 429.321 1.32954 6.84813 0
M  V30 4633 H 425.218 0.159815 6.45302 0
M  V30 4634 H 425.986 1.48758 8.04868 0
M  V30 4635 N 428.649 -1.55105 -0.279332 0
M  V30 4636 C 429.579 -1.90557 -1.34945 0
M  V30 4637 C 430.56 -0.766738 -1.51839 0
M  V30 4638 O 431.745 -1.02434 -1.64988 0
M  V30 4639 C 428.875 -2.17193 -2.71006 0
M  V30 4640 C 427.829 -3.33021 -2.68851 0
M  V30 4641 C 427.155 -3.45123 -4.08405 0
M  V30 4642 C 428.455 -4.69578 -2.28678 0
M  V30 4643 H 430.149 -2.80188 -1.05522 0
M  V30 4644 H 427.695 -1.34811 -0.506173 0
M  V30 4645 H 429.648 -2.40581 -3.45975 0
M  V30 4646 H 428.372 -1.24355 -3.01999 0
M  V30 4647 H 427.031 -3.0959 -1.9634 0
M  V30 4648 H 426.679 -2.49762 -4.3661 0
M  V30 4649 H 426.379 -4.22995 -4.07859 0
M  V30 4650 H 427.903 -3.70796 -4.85121 0
M  V30 4651 H 429.317 -4.92553 -2.93368 0
M  V30 4652 H 427.714 -5.5032 -2.39306 0
M  V30 4653 H 428.784 -4.68828 -1.23807 0
M  V30 4654 N 430.127 0.543554 -1.4793 0
M  V30 4655 C 431.355 1.32516 -1.58894 0
M  V30 4656 C 431.77 1.87215 -0.244131 0
M  V30 4657 O 431.127 1.65709 0.764652 0
M  V30 4658 C 431.178 2.48554 -2.62494 0
M  V30 4659 O 430.899 1.96112 -3.91755 0
M  V30 4660 C 432.4 3.40572 -2.8377 0
M  V30 4661 H 429.62 0.403472 -0.536145 0
M  V30 4662 H 432.164 0.657106 -1.93655 0
M  V30 4663 H 430.319 3.1127 -2.30629 0
M  V30 4664 H 430.733 2.71967 -4.4848 0
M  V30 4665 H 432.207 4.18375 -3.60093 0
M  V30 4666 H 432.684 3.94965 -1.92092 0
M  V30 4667 H 433.29 2.8366 -3.16887 0
M  V30 4668 N 431.605 1.3629 0.791371 0
M  V30 4669 C 432.854 1.29742 1.54434 0
M  V30 4670 C 433.167 -0.121729 1.95221 0
M  V30 4671 O 434.373 -0.309579 2.69729 0
M  V30 4672 C 432.829 2.27623 2.78776 0
M  V30 4673 C 432.437 3.74963 2.45166 0
M  V30 4674 C 434.181 2.30047 3.56761 0
M  V30 4675 C 432.088 4.64626 3.65891 0
M  V30 4676 H 431.018 0.482113 0.579727 0
M  V30 4677 H 433.669 1.61642 0.868565 0
M  V30 4678 H 432.051 1.88714 3.48142 0
M  V30 4679 H 433.225 4.22596 1.83709 0
M  V30 4680 H 431.54 3.75295 1.80396 0
M  V30 4681 H 434.137 2.94247 4.46456 0
M  V30 4682 H 434.48 1.30846 3.95203 0
M  V30 4683 H 435.013 2.67563 2.94372 0
M  V30 4684 H 431.752 5.64883 3.32547 0
M  V30 4685 H 431.272 4.2171 4.26521 0
M  V30 4686 H 432.951 4.80801 4.32943 0
M  V30 4687 N 433.083 -1.0153 1.20538 0
M  V30 4688 C 434.331 -1.74803 1.01432 0
M  V30 4689 C 434.652 -1.8963 -0.454456 0
M  V30 4690 O 433.922 -1.43975 -1.32846 0
M  V30 4691 H 432.502 -0.647598 0.372324 0
M  V30 4692 H 435.164 -1.22402 1.5167 0
M  V30 4693 H 434.26 -2.75114 1.47373 0
M  V30 4694 N 434.561 -1.01147 -1.20859 0
M  V30 4695 C 435.809 -0.696486 -1.89719 0
M  V30 4696 C 436.13 0.775788 -1.78904 0
M  V30 4697 O 435.4 1.55759 -1.18811 0
M  V30 4698 H 433.98 -0.254628 -0.702263 0
M  V30 4699 H 436.642 -1.28197 -1.46804 0
M  V30 4700 H 435.738 -0.975357 -2.96468 0
M  V30 4701 N 436.039 1.36541 -0.78704 0
M  V30 4702 C 437.288 1.98552 -0.35494 0
M  V30 4703 C 437.601 1.63171 1.07864 0
M  V30 4704 O 438.807 2.18399 1.61289 0
M  V30 4705 C 437.263 3.55136 -0.583671 0
M  V30 4706 C 436.871 3.99444 -2.02851 0
M  V30 4707 C 438.615 4.2395 -0.215957 0
M  V30 4708 C 436.522 5.48796 -2.20403 0
M  V30 4709 H 435.452 0.742888 -0.128972 0
M  V30 4710 H 438.103 1.5587 -0.968337 0
M  V30 4711 H 436.485 3.95875 0.0994046 0
M  V30 4712 H 437.659 3.6991 -2.74779 0
M  V30 4713 H 435.974 3.43459 -2.35425 0
M  V30 4714 H 438.571 5.33709 -0.325405 0
M  V30 4715 H 438.914 4.07827 0.835646 0
M  V30 4716 H 439.447 3.88565 -0.852175 0
M  V30 4717 H 436.186 5.69864 -3.23937 0
M  V30 4718 H 435.706 5.79964 -1.52977 0
M  V30 4719 H 437.385 6.14986 -2.01002 0
M  V30 4720 N 437.518 0.538854 1.48102 0
M  V30 4721 C 438.428 -0.222648 2.33541 0
M  V30 4722 C 439.444 -0.930225 1.47047 0
M  V30 4723 O 440.62 -0.903211 1.80011 0
M  V30 4724 C 437.685 -1.25064 3.23357 0
M  V30 4725 C 436.746 -0.552469 4.2573 0
M  V30 4726 C 435.979 -1.53149 5.11254 0
M  V30 4727 O 436.202 -2.76487 4.9891 0
M  V30 4728 O 435.136 -1.06602 5.92385 0
M  V30 4729 H 438.962 0.477707 2.99919 0
M  V30 4730 H 436.547 0.299669 1.46364 0
M  V30 4731 H 438.429 -1.8445 3.78888 0
M  V30 4732 H 437.104 -1.93325 2.59629 0
M  V30 4733 H 436.011 0.082114 3.7401 0
M  V30 4734 H 437.344 0.0883526 4.92121 0
M  V30 4735 N 438.996 -1.55193 0.274407 0
M  V30 4736 C 440.273 -1.91584 -0.394331 0
M  V30 4737 C 440.653 -1.19858 -1.73774 0
M  V30 4738 O 440.001 -0.3252 -2.26174 0
M  V30 4739 C 440.211 -3.4487 -0.535311 0
M  V30 4740 C 441.559 -4.16636 -0.818534 0
M  V30 4741 O 442.583 -3.5076 -0.620146 0
M  V30 4742 O 441.442 -5.33209 -1.19792 0
M  V30 4743 H 438.536 -0.798349 -0.215794 0
M  V30 4744 H 441.082 -1.66646 0.320507 0
M  V30 4745 H 439.854 -3.89145 0.410141 0
M  V30 4746 H 439.477 -3.75759 -1.29964 0
M  V30 4747 N 440.474 -0.00167713 -1.576 0
M  V30 4748 C 441.89 0.354422 -1.55615 0
M  V30 4749 C 442.09 1.74679 -1.00447 0
M  V30 4750 O 441.146 2.4428 -0.639022 0
M  V30 4751 C 442.459 0.22812 -2.99833 0
M  V30 4752 C 444.007 0.302934 -3.11531 0
M  V30 4753 C 444.482 0.205737 -4.57538 0
M  V30 4754 N 445.973 0.263584 -4.62449 0
M  V30 4755 C 446.708 0.211742 -5.73009 0
M  V30 4756 N 446.204 0.110399 -6.92712 0
M  V30 4757 N 447.997 0.263729 -5.61481 0
M  V30 4758 H 440.148 -0.912498 -1.918 0
M  V30 4759 H 442.411 -0.349928 -0.881053 0
M  V30 4760 H 442.117 -0.729934 -3.44042 0
M  V30 4761 H 441.991 1.00951 -3.6344 0
M  V30 4762 H 444.378 1.25143 -2.67251 0
M  V30 4763 H 444.459 -0.508357 -2.50698 0
M  V30 4764 H 444.103 -0.739225 -5.02492 0
M  V30 4765 H 444.033 1.03554 -5.16318 0
M  V30 4766 H 446.524 0.343173 -3.76339 0
M  V30 4767 H 446.837 0.0767828 -7.72762 0
M  V30 4768 H 445.182 0.0760025 -6.94958 0
M  V30 4769 H 448.373 0.34111 -4.66855 0
M  V30 4770 H 448.546 0.219862 -6.47627 0
M  V30 4771 N 441.952 1.55251 0.271103 0
M  V30 4772 C 443.199 1.75946 1.00245 0
M  V30 4773 C 443.527 0.561611 1.86215 0
M  V30 4774 O 442.782 -0.455832 1.90317 0
M  V30 4775 C 443.081 3.01879 1.91321 0
M  V30 4776 C 442.747 4.34337 1.21086 0
M  V30 4777 C 441.409 4.70338 1.01666 0
M  V30 4778 C 443.761 5.16325 0.71119 0
M  V30 4779 C 441.089 5.8588 0.310099 0
M  V30 4780 C 443.441 6.32597 0.0182157 0
M  V30 4781 C 442.105 6.67236 -0.18768 0
M  V30 4782 H 441.375 0.643833 0.366824 0
M  V30 4783 H 444.022 1.89521 0.27458 0
M  V30 4784 H 442.327 2.83212 2.70736 0
M  V30 4785 H 444.024 3.15088 2.48033 0
M  V30 4786 H 440.614 4.06043 1.37213 0
M  V30 4787 H 444.798 4.88987 0.848844 0
M  V30 4788 H 440.054 6.1124 0.139873 0
M  V30 4789 H 444.228 6.9538 -0.376711 0
M  V30 4790 H 441.855 7.56618 -0.73715 0
M  V30 4791 N 443.43 -0.535701 1.48216 0
M  V30 4792 C 444.66 -1.3148 1.59363 0
M  V30 4793 C 445.068 -1.8753 0.250844 0
M  V30 4794 O 444.411 -1.66821 -0.769174 0
M  V30 4795 C 444.473 -2.50731 2.57632 0
M  V30 4796 C 444.137 -2.15811 4.02833 0
M  V30 4797 C 445.134 -1.71822 4.90686 0
M  V30 4798 C 442.819 -2.26509 4.48329 0
M  V30 4799 C 444.813 -1.3899 6.22062 0
M  V30 4800 C 442.5 -1.93289 5.79726 0
M  V30 4801 C 443.498 -1.49599 6.66415 0
M  V30 4802 O 443.186 -1.16812 7.95368 0
M  V30 4803 H 442.918 -0.406315 0.540263 0
M  V30 4804 H 445.472 -0.653569 1.94725 0
M  V30 4805 H 443.702 -3.19817 2.1738 0
M  V30 4806 H 445.391 -3.12797 2.58675 0
M  V30 4807 H 446.157 -1.63031 4.56778 0
M  V30 4808 H 442.036 -2.59471 3.81045 0
M  V30 4809 H 445.58 -1.04816 6.89681 0
M  V30 4810 H 441.477 -2.01718 6.13172 0
M  V30 4811 H 442.245 -1.30259 8.08069 0
M  V30 4812 N 444.908 -1.36708 -0.784132 0
M  V30 4813 C 445.818 -1.3363 -1.92822 0
M  V30 4814 C 446.834 -0.237686 -1.72369 0
M  V30 4815 O 448.01 -0.470962 -1.95816 0
M  V30 4816 C 445.075 -1.13011 -3.27764 0
M  V30 4817 C 444.136 -2.32397 -3.60957 0
M  V30 4818 C 443.369 -2.12752 -4.89461 0
M  V30 4819 O 443.592 -1.10541 -5.59586 0
M  V30 4820 O 442.526 -3.00653 -5.21432 0
M  V30 4821 H 446.352 -2.29964 -1.98369 0
M  V30 4822 H 443.937 -1.1731 -0.925136 0
M  V30 4823 H 445.819 -1.03451 -4.08504 0
M  V30 4824 H 444.494 -0.19743 -3.23097 0
M  V30 4825 H 443.401 -2.47527 -2.80502 0
M  V30 4826 H 444.734 -3.2419 -3.70354 0
M  V30 4827 N 446.386 1.0089 -1.21074 0
M  V30 4828 C 447.634 1.74262 -1.02358 0
M  V30 4829 C 447.955 1.89869 0.444393 0
M  V30 4830 O 447.225 1.44677 1.32081 0
M  V30 4831 H 445.805 0.645615 -0.375754 0
M  V30 4832 H 448.467 1.21596 -1.52317 0
M  V30 4833 H 447.563 2.74328 -1.4883 0
M  V30 4834 N 447.864 1.01787 1.20321 0
M  V30 4835 C 448.796 0.547357 2.22568 0
M  V30 4836 C 449.809 -0.370922 1.58518 0
M  V30 4837 O 450.998 -0.169067 1.77698 0
M  V30 4838 C 448.098 -0.223031 3.38165 0
M  V30 4839 C 447.271 0.697472 4.31803 0
M  V30 4840 C 446.33 -0.025562 5.26194 0
M  V30 4841 O 445.356 0.597367 5.66057 0
M  V30 4842 N 446.558 -1.29999 5.65757 0
M  V30 4843 H 449.323 1.42668 2.63564 0
M  V30 4844 H 446.884 0.895552 1.34876 0
M  V30 4845 H 448.876 -0.716002 3.98316 0
M  V30 4846 H 447.446 -1.00366 2.9605 0
M  V30 4847 H 446.666 1.37073 3.69601 0
M  V30 4848 H 447.954 1.32347 4.91286 0
M  V30 4849 H 447.352 -1.827 5.35385 0
M  V30 4850 H 445.909 -1.73766 6.28211 0
M  V30 4851 N 449.342 -1.36122 0.79427 0
M  V30 4852 C 450.272 -2.32551 0.210328 0
M  V30 4853 C 451.253 -1.56884 -0.657386 0
M  V30 4854 O 452.438 -1.85014 -0.590207 0
M  V30 4855 C 449.568 -3.41128 -0.651819 0
M  V30 4856 C 448.522 -4.27842 0.116395 0
M  V30 4857 C 447.848 -5.2763 -0.86666 0
M  V30 4858 C 449.148 -5.05647 1.30837 0
M  V30 4859 H 450.842 -2.81636 1.01594 0
M  V30 4860 H 448.388 -1.35407 0.489981 0
M  V30 4861 H 450.341 -4.07581 -1.07031 0
M  V30 4862 H 449.065 -2.90622 -1.49019 0
M  V30 4863 H 447.724 -3.62952 0.515915 0
M  V30 4864 H 447.372 -4.73395 -1.70019 0
M  V30 4865 H 447.072 -5.86514 -0.35705 0
M  V30 4866 H 448.596 -5.96955 -1.28361 0
M  V30 4867 H 450.01 -5.65113 0.965393 0
M  V30 4868 H 448.407 -5.73967 1.75161 0
M  V30 4869 H 449.477 -4.37006 2.10128 0
M  V30 4870 N 450.82 -0.546701 -1.47814 0
M  V30 4871 C 452.048 -0.0232857 -2.06887 0
M  V30 4872 C 452.463 1.26571 -1.4009 0
M  V30 4873 O 451.82 1.7569 -0.493906 0
M  V30 4874 C 451.871 0.186975 -3.61016 0
M  V30 4875 O 451.592 -1.05097 -4.25307 0
M  V30 4876 C 453.093 0.748872 -4.36929 0
M  V30 4877 H 450.313 -0.0410763 -0.669742 0
M  V30 4878 H 452.857 -0.757117 -1.89968 0
M  V30 4879 H 451.012 0.870903 -3.77484 0
M  V30 4880 H 451.426 -0.842121 -5.17695 0
M  V30 4881 H 452.9 0.845334 -5.45489 0
M  V30 4882 H 453.377 1.75772 -4.02493 0
M  V30 4883 H 453.983 0.100979 -4.2518 0
M  V30 4884 N 452.299 1.55045 -0.282633 0
M  V30 4885 C 453.529 2.03872 0.334635 0
M  V30 4886 C 453.937 1.16018 1.49454 0
M  V30 4887 O 453.28 0.174449 1.8287 0
M  V30 4888 C 453.342 3.48791 0.870905 0
M  V30 4889 C 453.006 4.56715 -0.161338 0
M  V30 4890 C 454.003 5.10513 -0.983466 0
M  V30 4891 C 451.688 5.01417 -0.297745 0
M  V30 4892 C 453.682 6.07538 -1.92811 0
M  V30 4893 C 451.369 5.98265 -1.24586 0
M  V30 4894 C 452.367 6.51208 -2.05954 0
M  V30 4895 O 452.055 7.46162 -2.99162 0
M  V30 4896 H 451.787 0.671324 0.0793742 0
M  V30 4897 H 454.341 2.01169 -0.41473 0
M  V30 4898 H 452.571 3.48758 1.67047 0
M  V30 4899 H 454.26 3.80916 1.40207 0
M  V30 4900 H 455.026 4.76785 -0.888856 0
M  V30 4901 H 450.905 4.59849 0.325604 0
M  V30 4902 H 454.449 6.48787 -2.56363 0
M  V30 4903 H 450.346 6.31412 -1.34126 0
M  V30 4904 H 451.114 7.63903 -2.93929 0
M  V30 4905 N 453.777 0.010035 1.57597 0
M  V30 4906 C 454.687 -0.994226 2.12491 0
M  V30 4907 C 455.703 -1.37013 1.07254 0
M  V30 4908 O 456.879 -1.45542 1.3921 0
M  V30 4909 C 453.944 -2.2642 2.62555 0
M  V30 4910 C 453.005 -1.95049 3.82432 0
M  V30 4911 C 452.238 -3.15991 4.30099 0
M  V30 4912 O 452.461 -4.28015 3.7704 0
M  V30 4913 O 451.395 -2.99403 5.22151 0
M  V30 4914 H 455.221 -0.557549 2.98538 0
M  V30 4915 H 452.806 -0.209413 1.47925 0
M  V30 4916 H 454.688 -3.01009 2.9491 0
M  V30 4917 H 453.363 -2.69306 1.796 0
M  V30 4918 H 452.27 -1.17904 3.55034 0
M  V30 4919 H 453.603 -1.56992 4.66491 0
M  V30 4920 N 455.255 -1.55392 -0.262866 0
M  V30 4921 C 456.202 -1.88966 -1.32516 0
M  V30 4922 C 457.172 -0.742187 -1.48596 0
M  V30 4923 O 458.357 -0.99439 -1.62839 0
M  V30 4924 C 455.497 -2.17592 -2.67858 0
M  V30 4925 C 454.61 -3.45061 -2.59917 0
M  V30 4926 C 453.745 -3.63336 -3.87505 0
M  V30 4927 C 452.784 -4.84462 -3.74116 0
M  V30 4928 N 451.921 -4.99342 -4.93561 0
M  V30 4929 H 456.761 -2.79566 -1.03184 0
M  V30 4930 H 454.298 -1.38404 -0.498285 0
M  V30 4931 H 456.256 -2.3219 -3.46617 0
M  V30 4932 H 454.886 -1.30215 -2.95371 0
M  V30 4933 H 453.938 -3.38881 -1.72812 0
M  V30 4934 H 455.25 -4.3396 -2.45926 0
M  V30 4935 H 454.404 -3.77807 -4.74707 0
M  V30 4936 H 453.143 -2.72641 -4.04374 0
M  V30 4937 H 452.148 -4.69985 -2.85297 0
M  V30 4938 H 453.373 -5.76603 -3.58757 0
M  V30 4939 H 451.319 -4.1158 -5.10821 0
M  V30 4940 H 451.236 -5.82303 -4.82141 0
M  V30 4941 H 452.504 -5.18208 -5.82306 0
M  V30 4942 N 456.733 0.527833 -1.48498 0
M  V30 4943 C 457.663 1.64136 -1.66077 0
M  V30 4944 C 458.644 1.62286 -0.509625 0
M  V30 4945 O 459.829 1.79449 -0.742413 0
M  V30 4946 C 456.959 3.02717 -1.70234 0
M  V30 4947 C 455.913 3.19426 -2.8487 0
M  V30 4948 C 455.239 4.5909 -2.74118 0
M  V30 4949 C 456.539 3.01993 -4.26142 0
M  V30 4950 H 458.233 1.4968 -2.593 0
M  V30 4951 H 455.779 0.718654 -1.24785 0
M  V30 4952 H 457.732 3.80491 -1.8112 0
M  V30 4953 H 456.456 3.18201 -0.735911 0
M  V30 4954 H 455.115 2.4407 -2.73542 0
M  V30 4955 H 454.763 4.71413 -1.7544 0
M  V30 4956 H 454.463 4.71214 -3.51042 0
M  V30 4957 H 455.987 5.3896 -2.86974 0
M  V30 4958 H 457.401 3.69558 -4.38292 0
M  V30 4959 H 455.798 3.2561 -5.04082 0
M  V30 4960 H 456.868 1.98396 -4.42456 0
M  V30 4961 N 458.211 1.37122 0.776871 0
M  V30 4962 C 459.159 1.32549 1.91138 0
M  V30 4963 C 460.153 0.215119 1.68029 0
M  V30 4964 O 461.359 0.382852 1.75881 0
M  V30 4965 H 457.734 0.412952 0.62847 0
M  V30 4966 H 459.705 2.28332 1.92112 0
M  V30 4967 C 458.454 1.14422 3.28333 0
M  V30 4968 H 457.777 1.99115 3.46689 0
M  V30 4969 H 459.217 1.15272 4.0803 0
M  V30 4970 C 457.676 -0.150434 3.36564 0
M  V30 4971 O 458.206 -1.13584 3.85307 0
M  V30 4972 N 456.412 -0.19939 2.89915 0
M  V30 4973 H 455.959 0.603142 2.5044 0
M  V30 4974 H 455.917 -1.06526 2.95803 0
M  V30 4975 N 459.689 -1.00246 1.21608 0
M  V30 4976 C 460.639 -2.07492 0.945051 0
M  V30 4977 C 461.623 -1.60585 -0.100675 0
M  V30 4978 O 462.815 -1.76667 0.10859 0
M  V30 4979 C 459.944 -3.39425 0.514342 0
M  V30 4980 C 459.03 -3.92993 1.59428 0
M  V30 4981 N 459.421 -4.19898 2.81991 0
M  V30 4982 C 457.719 -4.21297 1.46374 0
M  V30 4983 C 458.42 -4.63297 3.51754 0
M  V30 4984 N 457.396 -4.66421 2.79199 0
M  V30 4985 H 461.198 -2.26222 1.87619 0
M  V30 4986 H 458.712 -1.18339 1.11219 0
M  V30 4987 H 460.709 -4.15808 0.301527 0
M  V30 4988 H 459.369 -3.22101 -0.410008 0
M  V30 4989 H 460.38 -4.08377 3.1851 0
M  V30 4990 H 457.057 -4.13095 0.604863 0
M  V30 4991 H 458.447 -4.92816 4.56708 0
M  V30 4992 N 461.167 -1.02423 -1.1978 0
M  V30 4993 C 462.444 -0.632802 -1.85081 0
M  V30 4994 C 462.824 0.888745 -1.9148 0
M  V30 4995 O 462.172 1.78357 -1.42832 0
M  V30 4996 C 462.382 -1.28947 -3.24305 0
M  V30 4997 C 463.73 -1.40976 -4.00513 0
M  V30 4998 O 464.754 -1.24628 -3.33686 0
M  V30 4999 O 463.613 -1.67467 -5.20209 0
M  V30 5000 H 460.707 -0.219348 -0.79738 0
M  V30 5001 H 463.253 -1.12209 -1.27307 0
M  V30 5002 H 462.025 -2.3288 -3.14456 0
M  V30 5003 H 461.648 -0.787748 -3.89718 0
M  V30 5004 N 462.645 1.35699 -0.801477 0
M  V30 5005 C 463.575 2.32436 -0.222658 0
M  V30 5006 C 464.556 1.5723 0.649057 0
M  V30 5007 O 465.741 1.85324 0.580387 0
M  V30 5008 C 462.871 3.41469 0.633719 0
M  V30 5009 C 461.825 4.27774 -0.139083 0
M  V30 5010 C 461.151 5.28082 0.838666 0
M  V30 5011 C 462.451 5.04946 -1.33517 0
M  V30 5012 H 464.145 2.81094 -1.03086 0
M  V30 5013 H 461.691 1.35146 -0.497155 0
M  V30 5014 H 463.644 4.08143 1.04868 0
M  V30 5015 H 462.368 2.91408 1.47475 0
M  V30 5016 H 461.027 3.62673 -0.535156 0
M  V30 5017 H 460.675 4.7429 1.67506 0
M  V30 5018 H 460.375 5.86695 0.32594 0
M  V30 5019 H 461.899 5.97628 1.25194 0
M  V30 5020 H 463.313 5.64593 -0.995349 0
M  V30 5021 H 461.71 5.7303 -1.78202 0
M  V30 5022 H 462.78 4.35886 -2.12442 0
M  V30 5023 N 464.123 0.554532 1.47522 0
M  V30 5024 C 465.353 0.0342074 2.06572 0
M  V30 5025 C 465.761 -1.26375 1.40805 0
M  V30 5026 O 465.104 -1.7683 0.49769 0
M  V30 5027 C 465.166 -0.235096 3.5873 0
M  V30 5028 C 464.83 0.973024 4.46521 0
M  V30 5029 C 465.827 1.8779 4.848 0
M  V30 5030 C 463.512 1.18694 4.88075 0
M  V30 5031 C 465.506 2.98039 5.63428 0
M  V30 5032 C 463.193 2.29254 5.66468 0
M  V30 5033 C 464.191 3.18757 6.04055 0
M  V30 5034 O 463.879 4.27401 6.8087 0
M  V30 5035 H 463.611 0.041587 0.67472 0
M  V30 5036 H 466.165 0.766748 1.90552 0
M  V30 5037 H 464.395 -1.02191 3.72953 0
M  V30 5038 H 466.084 -0.700477 3.9981 0
M  V30 5039 H 466.85 1.72467 4.53299 0
M  V30 5040 H 462.729 0.49947 4.58286 0
M  V30 5041 H 466.273 3.67926 5.92685 0
M  V30 5042 H 462.17 2.4455 5.97382 0
M  V30 5043 H 462.938 4.25415 6.9926 0
M  V30 5044 N 465.601 -1.54893 0.290851 0
M  V30 5045 C 466.847 -2.00949 -0.314784 0
M  V30 5046 C 467.202 -1.1757 -1.52299 0
M  V30 5047 O 466.495 -0.241558 -1.90071 0
M  V30 5048 C 466.689 -3.49815 -0.732397 0
M  V30 5049 C 466.518 -4.47603 0.433799 0
M  V30 5050 C 465.288 -4.96806 0.922599 0
M  V30 5051 C 467.486 -4.98233 1.27546 0
M  V30 5052 N 465.468 -5.78426 2.05662 0
M  V30 5053 C 466.839 -5.77455 2.25712 0
M  V30 5054 C 468.894 -4.80439 1.307 0
M  V30 5055 C 467.597 -6.40778 3.26796 0
M  V30 5056 C 469.623 -5.44574 2.30637 0
M  V30 5057 C 468.985 -6.23619 3.27533 0
M  V30 5058 H 465.084 -0.777905 -0.0799257 0
M  V30 5059 H 467.668 -1.9015 0.418458 0
M  V30 5060 H 465.839 -3.60925 -1.43483 0
M  V30 5061 H 467.571 -3.82681 -1.31671 0
M  V30 5062 H 464.326 -4.70961 0.49926 0
M  V30 5063 H 464.75 -6.23923 2.62772 0
M  V30 5064 H 469.392 -4.18918 0.571622 0
M  V30 5065 H 467.11 -7.01439 4.01258 0
M  V30 5066 H 470.696 -5.32739 2.33838 0
M  V30 5067 H 469.576 -6.72367 4.03599 0
M  V30 5068 N 467.08 -0.0183926 -1.57589 0
M  V30 5069 C 468.012 0.995557 -2.06449 0
M  V30 5070 C 469.025 1.29556 -0.985849 0
M  V30 5071 O 470.214 1.2621 -1.26227 0
M  V30 5072 C 467.314 2.32572 -2.46502 0
M  V30 5073 C 466.487 2.21245 -3.77319 0
M  V30 5074 C 465.546 3.37104 -4.04039 0
M  V30 5075 O 464.572 3.14468 -4.74445 0
M  V30 5076 N 465.774 4.60553 -3.53372 0
M  V30 5077 H 468.539 0.578746 -2.94059 0
M  V30 5078 H 466.1 0.168603 -1.6102 0
M  V30 5079 H 468.092 3.08887 -2.61478 0
M  V30 5080 H 466.662 2.65931 -1.64315 0
M  V30 5081 H 465.882 1.29723 -3.72244 0
M  V30 5082 H 467.17 2.10868 -4.63047 0
M  V30 5083 H 466.568 4.81839 -2.96391 0
M  V30 5084 H 465.125 5.34072 -3.73644 0
M  V30 5085 N 468.558 1.5553 0.254621 0
M  V30 5086 C 469.804 1.77262 0.985193 0
M  V30 5087 C 470.137 0.582286 1.85265 0
M  V30 5088 O 469.412 -0.419666 1.89919 0
M  V30 5089 C 469.695 3.0881 1.85225 0
M  V30 5090 C 469.548 4.38233 1.0135 0
M  V30 5091 C 470.867 3.3653 2.83612 0
M  V30 5092 H 467.986 0.644906 0.356742 0
M  V30 5093 H 470.628 1.88264 0.256236 0
M  V30 5094 H 468.778 2.99562 2.47376 0
M  V30 5095 H 470.45 4.59463 0.411269 0
M  V30 5096 H 468.693 4.32636 0.317574 0
M  V30 5097 H 469.364 5.26644 1.65379 0
M  V30 5098 H 471.84 3.45691 2.31596 0
M  V30 5099 H 470.716 4.29805 3.41407 0
M  V30 5100 H 470.977 2.57064 3.59681 0
M  V30 5101 N 470.036 -0.519951 1.48776 0
M  V30 5102 C 471.313 -1.28123 1.47797 0
M  V30 5103 C 471.693 -2.10196 0.195157 0
M  V30 5104 O 471.041 -2.13167 -0.822925 0
M  V30 5105 C 471.251 -2.15413 2.74587 0
M  V30 5106 C 472.599 -2.75225 3.23321 0
M  V30 5107 O 473.623 -2.25694 2.75574 0
M  V30 5108 O 472.482 -3.65346 4.06429 0
M  V30 5109 H 469.576 -0.578793 0.590701 0
M  V30 5110 H 472.122 -0.535779 1.6102 0
M  V30 5111 H 470.894 -1.54617 3.59457 0
M  V30 5112 H 470.517 -2.97186 2.64132 0
M  V30 5113 N 471.514 -1.37532 -0.769588 0
M  V30 5114 C 472.444 -1.36172 -1.89682 0
M  V30 5115 C 473.425 -0.23001 -1.68538 0
M  V30 5116 O 474.61 -0.43069 -1.89364 0
M  V30 5117 C 471.74 -1.1701 -3.26995 0
M  V30 5118 C 470.694 -2.27216 -3.62708 0
M  V30 5119 C 470.02 -1.93174 -4.98586 0
M  V30 5120 C 471.32 -3.6941 -3.69234 0
M  V30 5121 H 473.014 -2.30499 -1.91078 0
M  V30 5122 H 470.56 -1.10953 -0.917902 0
M  V30 5123 H 472.513 -1.14688 -4.05493 0
M  V30 5124 H 471.237 -0.191395 -3.26039 0
M  V30 5125 H 469.896 -2.28697 -2.86519 0
M  V30 5126 H 469.544 -0.938281 -4.94171 0
M  V30 5127 H 469.244 -2.66973 -5.23449 0
M  V30 5128 H 470.768 -1.92443 -5.79481 0
M  V30 5129 H 472.182 -3.70047 -4.37879 0
M  V30 5130 H 470.579 -4.4228 -4.05597 0
M  V30 5131 H 471.649 -4.0288 -2.69844 0
M  V30 5132 N 472.992 0.995999 -1.22138 0
M  V30 5133 C 474.269 1.70834 -0.952642 0
M  V30 5134 C 474.649 2.04257 0.533119 0
M  V30 5135 O 473.997 1.72343 1.50034 0
M  V30 5136 C 474.207 2.96119 -1.84701 0
M  V30 5137 C 475.555 3.68962 -2.10124 0
M  V30 5138 O 476.579 3.0612 -1.82124 0
M  V30 5139 O 475.438 4.82017 -2.57531 0
M  V30 5140 H 472.532 0.745498 -0.357997 0
M  V30 5141 H 475.078 1.05262 -1.33109 0
M  V30 5142 H 473.85 2.67898 -2.85213 0
M  V30 5143 H 473.473 3.6943 -1.46995 0
M  V30 5144 N 474.47 1.03057 1.19235 0
M  V30 5145 C 475.4 0.633497 2.24742 0
M  V30 5146 C 476.381 -0.358335 1.66283 0
M  V30 5147 O 477.566 -0.240676 1.92703 0
M  V30 5148 C 474.696 -0.0147648 3.47297 0
M  V30 5149 C 473.65 0.899527 4.18441 0
M  V30 5150 C 472.976 0.116281 5.34574 0
M  V30 5151 C 474.276 2.21404 4.73051 0
M  V30 5152 H 475.97 1.5155 2.58211 0
M  V30 5153 H 473.516 0.73014 1.24117 0
M  V30 5154 H 475.469 -0.304202 4.20301 0
M  V30 5155 H 474.193 -0.931577 3.13032 0
M  V30 5156 H 472.852 1.17319 3.47321 0
M  V30 5157 H 472.5 -0.802619 4.96555 0
M  V30 5158 H 472.2 0.725293 5.83107 0
M  V30 5159 H 473.724 -0.166376 6.10373 0
M  V30 5160 H 475.138 1.98601 5.37802 0
M  V30 5161 H 473.535 2.77512 5.32078 0
M  V30 5162 H 474.605 2.86752 3.91026 0
M  V30 5163 N 475.948 -1.35272 0.808662 0
M  V30 5164 C 476.898 -2.27181 0.193124 0
M  V30 5165 C 477.882 -1.47871 -0.634265 0
M  V30 5166 O 479.074 -1.70048 -0.491182 0
M  V30 5167 C 476.203 -3.36979 -0.655751 0
M  V30 5168 C 475.289 -4.23712 0.181481 0
M  V30 5169 N 475.68 -4.90225 1.24551 0
M  V30 5170 C 473.978 -4.45985 -0.0365493 0
M  V30 5171 C 474.679 -5.54537 1.75682 0
M  V30 5172 N 473.655 -5.33107 1.06294 0
M  V30 5173 H 477.457 -2.76101 1.00724 0
M  V30 5174 H 474.971 -1.48823 0.650029 0
M  V30 5175 H 476.968 -4.01774 -1.11279 0
M  V30 5176 H 475.628 -2.89611 -1.46819 0
M  V30 5177 H 476.639 -4.91641 1.62818 0
M  V30 5178 H 473.316 -4.09409 -0.817964 0
M  V30 5179 H 474.706 -6.17597 2.64621 0
M  V30 5180 N 477.426 -0.562348 -1.47226 0
M  V30 5181 C 478.673 -0.0402165 -2.0246 0
M  V30 5182 C 479.001 1.31169 -1.43614 0
M  V30 5183 O 478.256 1.86805 -0.5833 0
M  V30 5184 C 478.555 0.0969817 -3.57268 0
M  V30 5185 C 478.221 -1.1847 -4.35058 0
M  V30 5186 C 476.883 -1.53588 -4.56031 0
M  V30 5187 C 479.235 -2.03378 -4.79882 0
M  V30 5188 C 476.563 -2.73452 -5.19077 0
M  V30 5189 C 478.915 -3.2245 -5.44251 0
M  V30 5190 C 477.579 -3.57876 -5.63455 0
M  V30 5191 H 476.849 -0.0147163 -0.740854 0
M  V30 5192 H 479.496 -0.734895 -1.76838 0
M  V30 5193 H 477.801 0.87466 -3.81912 0
M  V30 5194 H 479.498 0.516408 -3.97661 0
M  V30 5195 H 476.088 -0.90126 -4.19017 0
M  V30 5196 H 480.272 -1.77553 -4.63453 0
M  V30 5197 H 475.528 -3.01062 -5.32139 0
M  V30 5198 H 479.702 -3.88526 -5.77945 0
M  V30 5199 H 477.329 -4.50849 -6.12078 0
M  V30 5200 N 478.904 1.54736 -0.299062 0
M  V30 5201 C 480.152 1.99706 0.31017 0
M  V30 5202 C 480.473 1.18896 1.54559 0
M  V30 5203 O 479.743 0.284445 1.93824 0
M  V30 5204 H 478.323 0.737686 0.117596 0
M  V30 5205 H 480.985 1.9054 -0.409943 0
M  V30 5206 H 480.081 3.06596 0.58355 0
M  V30 5207 N 480.382 0.0267497 1.57577 0
M  V30 5208 C 481.33 -0.973923 2.11229 0
M  V30 5209 C 482.324 -1.33849 1.03831 0
M  V30 5210 O 483.53 -1.321 1.22269 0
M  V30 5211 H 479.905 -0.331844 0.674821 0
M  V30 5212 H 481.876 -0.496092 2.94247 0
M  V30 5213 C 480.625 -2.24798 2.65257 0
M  V30 5214 H 479.948 -1.9762 3.47543 0
M  V30 5215 H 481.388 -2.93031 3.06445 0
M  V30 5216 C 479.847 -2.97611 1.57891 0
M  V30 5217 O 480.377 -3.89629 0.97735 0
M  V30 5218 N 478.583 -2.59905 1.29992 0
M  V30 5219 H 478.13 -1.85154 1.79097 0
M  V30 5220 H 478.088 -3.08932 0.583798 0
M  V30 5221 N 481.861 -1.55662 -0.24637 0
M  V30 5222 C 482.791 -1.93377 -1.30873 0
M  V30 5223 C 483.772 -0.798773 -1.50179 0
M  V30 5224 O 484.957 -1.0591 -1.62778 0
M  V30 5225 C 482.087 -2.22893 -2.66338 0
M  V30 5226 C 481.041 -3.38649 -2.61727 0
M  V30 5227 C 480.367 -3.53708 -4.00992 0
M  V30 5228 C 481.667 -4.74323 -2.18666 0
M  V30 5229 H 483.361 -2.82363 -0.995552 0
M  V30 5230 H 480.907 -1.35854 -0.477464 0
M  V30 5231 H 482.86 -2.47866 -3.40794 0
M  V30 5232 H 481.584 -1.30733 -2.99293 0
M  V30 5233 H 480.243 -3.13685 -1.89729 0
M  V30 5234 H 479.891 -2.58967 -4.31214 0
M  V30 5235 H 479.591 -4.31551 -3.98795 0
M  V30 5236 H 481.115 -3.81003 -4.77147 0
M  V30 5237 H 482.529 -4.98665 -2.82854 0
M  V30 5238 H 480.926 -5.55273 -2.27579 0
M  V30 5239 H 481.996 -4.71349 -1.13834 0
M  V30 5240 N 483.339 0.512053 -1.4905 0
M  V30 5241 C 484.567 1.29116 -1.61669 0
M  V30 5242 C 484.982 1.86655 -0.283787 0
M  V30 5243 O 484.339 1.67293 0.729331 0
M  V30 5244 C 484.39 2.4293 -2.67707 0
M  V30 5245 O 484.111 1.87758 -3.95826 0
M  V30 5246 C 485.612 3.34476 -2.90931 0
M  V30 5247 H 482.832 0.392009 -0.544583 0
M  V30 5248 H 485.376 0.615881 -1.95006 0
M  V30 5249 H 483.531 3.06308 -2.37179 0
M  V30 5250 H 483.945 2.62393 -4.54148 0
M  V30 5251 H 485.419 4.10642 -3.68886 0
M  V30 5252 H 485.896 3.90801 -2.00427 0
M  V30 5253 H 486.502 2.76874 -3.22832 0
M  V30 5254 N 484.817 1.37938 0.762283 0
M  V30 5255 C 486.063 1.33866 1.52341 0
M  V30 5256 C 486.396 -0.0738961 1.94059 0
M  V30 5257 O 485.671 -1.03326 1.64785 0
M  V30 5258 C 485.954 2.28644 2.78197 0
M  V30 5259 C 485.807 3.78722 2.42672 0
M  V30 5260 C 487.126 2.21702 3.80179 0
M  V30 5261 H 484.245 0.487593 0.55265 0
M  V30 5262 H 486.887 1.68717 0.873767 0
M  V30 5263 H 485.037 1.99055 3.33631 0
M  V30 5264 H 486.709 4.18948 1.93081 0
M  V30 5265 H 484.952 3.96827 1.75244 0
M  V30 5266 H 485.623 4.40486 3.3268 0
M  V30 5267 H 488.099 2.47805 3.34263 0
M  V30 5268 H 486.975 2.90143 4.65949 0
M  V30 5269 H 487.236 1.21301 4.25133 0
M  V30 5270 N 486.295 -0.989507 1.22664 0
M  V30 5271 C 487.205 -2.11449 1.01619 0
M  V30 5272 C 488.221 -1.73962 -0.036545 0
M  V30 5273 O 489.397 -2.00788 0.156924 0
M  V30 5274 C 486.462 -3.41465 0.600204 0
M  V30 5275 C 485.523 -3.93033 1.72695 0
M  V30 5276 C 484.756 -5.16844 1.33071 0
M  V30 5277 O 484.979 -5.7001 0.210975 0
M  V30 5278 O 483.913 -5.6225 2.14845 0
M  V30 5279 H 487.739 -2.32088 1.9588 0
M  V30 5280 H 485.324 -1.09823 1.01289 0
M  V30 5281 H 487.206 -4.19695 0.37873 0
M  V30 5282 H 485.881 -3.22178 -0.313511 0
M  V30 5283 H 484.788 -3.15961 2.00298 0
M  V30 5284 H 486.121 -4.16758 2.61865 0
M  V30 5285 N 487.773 -1.03688 -1.18687 0
M  V30 5286 C 488.72 -0.624624 -2.22187 0
M  V30 5287 C 489.69 0.365636 -1.62026 0
M  V30 5288 O 490.875 0.260481 -1.89014 0
M  V30 5289 C 488.015 0.0101738 -3.45099 0
M  V30 5290 C 487.128 -1.02709 -4.19613 0
M  V30 5291 C 486.263 -0.361213 -5.2997 0
M  V30 5292 C 485.302 -1.38384 -5.96252 0
M  V30 5293 N 484.439 -0.743196 -6.98155 0
M  V30 5294 H 489.279 -1.51176 -2.56807 0
M  V30 5295 H 486.816 -0.75636 -1.26165 0
M  V30 5296 H 488.774 0.395528 -4.15321 0
M  V30 5297 H 487.404 0.860848 -3.1111 0
M  V30 5298 H 486.456 -1.53043 -3.48256 0
M  V30 5299 H 487.768 -1.80398 -4.65036 0
M  V30 5300 H 486.922 0.0785537 -6.06649 0
M  V30 5301 H 485.661 0.447799 -4.8564 0
M  V30 5302 H 484.666 -1.83378 -5.18317 0
M  V30 5303 H 485.891 -2.19448 -6.42666 0
M  V30 5304 H 483.837 0.0455789 -6.55984 0
M  V30 5305 H 483.754 -1.45784 -7.41811 0
M  V30 5306 H 485.022 -0.327698 -7.78811 0
M  V30 5307 N 489.251 1.34841 -0.815825 0
M  V30 5308 C 490.214 2.27959 -0.238185 0
M  V30 5309 C 491.214 1.49983 0.579816 0
M  V30 5310 O 492.404 1.69617 0.396953 0
M  V30 5311 C 489.536 3.34314 0.666876 0
M  V30 5312 H 490.729 2.80558 -1.05958 0
M  V30 5313 H 488.282 1.44852 -0.587156 0
M  V30 5314 H 489.017 2.86916 1.5116 0
M  V30 5315 H 488.802 3.92014 0.0819106 0
M  V30 5316 H 490.292 4.0379 1.06506 0
M  V30 5317 N 490.729 0.570148 1.46925 0
M  V30 5318 C 491.957 0.0561966 2.06824 0
M  V30 5319 C 492.372 -1.24326 1.42086 0
M  V30 5320 O 491.729 -1.74882 0.521794 0
M  V30 5321 C 491.78 -0.129517 3.61268 0
M  V30 5322 O 491.501 1.1185 4.23581 0
M  V30 5323 C 493.002 -0.679266 4.38065 0
M  V30 5324 H 490.222 0.0517261 0.669003 0
M  V30 5325 H 492.766 0.787243 1.8874 0
M  V30 5326 H 490.921 -0.810739 3.78822 0
M  V30 5327 H 491.335 0.924375 5.1629 0
M  V30 5328 H 492.809 -0.758445 5.46765 0
M  V30 5329 H 493.286 -1.69346 4.05239 0
M  V30 5330 H 493.892 -0.0333237 4.25287 0
M  V30 5331 N 492.207 -1.54576 0.307264 0
M  V30 5332 C 493.17 -2.22423 -0.553224 0
M  V30 5333 C 494.17 -1.21231 -1.05639 0
M  V30 5334 O 495.36 -1.45923 -0.951419 0
M  V30 5335 C 492.492 -2.91552 -1.76664 0
M  V30 5336 H 493.685 -2.99874 0.0396484 0
M  V30 5337 H 491.238 -1.56192 0.0581629 0
M  V30 5338 H 491.973 -2.18196 -2.39918 0
M  V30 5339 H 491.758 -3.65738 -1.41343 0
M  V30 5340 H 493.248 -3.43292 -2.37783 0
M  V30 5341 N 493.685 -0.035106 -1.57561 0
M  V30 5342 C 494.934 0.641604 -1.91223 0
M  V30 5343 C 495.247 1.72944 -0.913761 0
M  V30 5344 O 496.453 2.46321 -1.14185 0
M  V30 5345 C 494.909 1.19249 -3.3957 0
M  V30 5346 C 494.517 0.137616 -4.47789 0
M  V30 5347 C 496.261 1.84537 -3.82291 0
M  V30 5348 C 494.168 0.700478 -5.87237 0
M  V30 5349 H 493.098 0.243417 -0.713627 0
M  V30 5350 H 495.749 -0.101382 -1.8322 0
M  V30 5351 H 494.131 1.98728 -3.42525 0
M  V30 5352 H 495.305 -0.635153 -4.56402 0
M  V30 5353 H 493.62 -0.416855 -4.14308 0
M  V30 5354 H 496.217 2.27616 -4.83834 0
M  V30 5355 H 496.56 2.69054 -3.17672 0
M  V30 5356 H 497.093 1.11739 -3.81784 0
M  V30 5357 H 493.832 -0.106693 -6.55413 0
M  V30 5358 H 493.352 1.4416 -5.82218 0
M  V30 5359 H 495.031 1.18837 -6.35993 0
M  V30 5360 N 495.163 1.55791 0.238111 0
M  V30 5361 C 496.409 1.78297 0.966337 0
M  V30 5362 C 496.742 0.601903 1.84637 0
M  V30 5363 O 496.017 -0.399499 1.90353 0
M  V30 5364 C 496.3 3.10758 1.81939 0
M  V30 5365 C 496.153 4.39283 0.966958 0
M  V30 5366 C 497.472 3.39519 2.80027 0
M  V30 5367 H 494.591 0.648654 0.349882 0
M  V30 5368 H 497.233 1.88525 0.236253 0
M  V30 5369 H 495.383 3.02168 2.44185 0
M  V30 5370 H 497.055 4.59873 0.362514 0
M  V30 5371 H 495.298 4.32948 0.271669 0
M  V30 5372 H 495.969 5.28368 1.59784 0
M  V30 5373 H 498.445 3.48128 2.27917 0
M  V30 5374 H 497.321 4.33402 3.36829 0
M  V30 5375 H 497.582 2.60864 3.56934 0
M  V30 5376 N 496.642 -0.504142 1.49319 0
M  V30 5377 C 497.919 -1.26548 1.49147 0
M  V30 5378 C 498.299 -2.09977 0.21744 0
M  V30 5379 O 497.647 -2.14028 -0.800269 0
M  V30 5380 C 497.857 -2.12489 2.76857 0
M  V30 5381 C 499.205 -2.7178 3.26222 0
M  V30 5382 O 500.229 -2.22758 2.77952 0
M  V30 5383 O 499.088 -3.61015 4.10281 0
M  V30 5384 H 496.182 -0.572495 0.596806 0
M  V30 5385 H 498.728 -0.51867 1.61579 0
M  V30 5386 H 497.5 -1.50796 3.61077 0
M  V30 5387 H 497.123 -2.94368 2.6727 0
M  V30 5388 N 498.12 -1.38341 -0.754957 0
M  V30 5389 C 499.345 -1.37882 -1.5493 0
M  V30 5390 C 499.77 0.0296385 -1.88077 0
M  V30 5391 O 499.128 1.01133 -1.50472 0
M  V30 5392 C 499.176 -2.23996 -2.82592 0
M  V30 5393 O 498.28 -1.65612 -3.77686 0
M  V30 5394 H 497.621 -0.470384 -0.468652 0
M  V30 5395 H 500.151 -1.82084 -0.933082 0
M  V30 5396 H 500.161 -2.37806 -3.3153 0
M  V30 5397 H 498.836 -3.26365 -2.57796 0
M  V30 5398 H 497.413 -1.60936 -3.36384 0
M  V30 5399 N 499.598 0.982988 -1.23187 0
M  V30 5400 C 500.846 1.72052 -1.06031 0
M  V30 5401 C 501.167 1.90769 0.404019 0
M  V30 5402 O 500.437 1.47446 1.28982 0
M  V30 5403 H 499.017 0.637499 -0.389363 0
M  V30 5404 H 501.679 1.18338 -1.54862 0
M  V30 5405 H 500.775 2.7111 -1.54615 0
M  V30 5406 N 501.076 1.04316 1.18135 0
M  V30 5407 C 502.304 0.768117 1.92113 0
M  V30 5408 C 502.719 -0.675057 1.76319 0
M  V30 5409 O 502.076 -1.46038 1.09449 0
M  V30 5410 C 502.127 1.12808 3.43448 0
M  V30 5411 O 501.848 2.5146 3.58747 0
M  V30 5412 C 503.349 0.8779 4.3452 0
M  V30 5413 H 500.569 0.279937 0.609817 0
M  V30 5414 H 503.113 1.39149 1.49859 0
M  V30 5415 H 501.268 0.549623 3.83481 0
M  V30 5416 H 501.682 2.65313 4.52448 0
M  V30 5417 H 503.156 1.17959 5.39249 0
M  V30 5418 H 503.633 -0.187239 4.38801 0
M  V30 5419 H 504.239 1.43977 4.00188 0
M  V30 5420 N 502.554 -1.34406 0.822964 0
M  V30 5421 C 503.779 -2.0304 0.423034 0
M  V30 5422 C 504.204 -1.61568 -0.963196 0
M  V30 5423 O 503.562 -0.800339 -1.62678 0
M  V30 5424 C 503.61 -3.56636 0.53321 0
M  V30 5425 O 502.714 -4.09971 -0.446939 0
M  V30 5426 H 502.055 -0.64075 0.174171 0
M  V30 5427 H 504.585 -1.71653 1.11339 0
M  V30 5428 H 504.595 -4.05945 0.408991 0
M  V30 5429 H 503.27 -3.86168 1.54425 0
M  V30 5430 H 501.847 -3.71835 -0.281601 0
M  V30 5431 N 504.032 -0.577932 -1.46621 0
M  V30 5432 C 505.257 -0.0652536 -2.07297 0
M  V30 5433 C 505.682 1.22828 -1.4246 0
M  V30 5434 O 505.04 1.74075 -0.506718 0
M  V30 5435 C 505.088 0.0920589 -3.60482 0
M  V30 5436 O 504.192 1.14972 -3.96049 0
M  V30 5437 H 503.533 -0.06065 -0.661224 0
M  V30 5438 H 506.063 -0.799515 -1.88332 0
M  V30 5439 H 506.073 0.299741 -4.06897 0
M  V30 5440 H 504.748 -0.852612 -4.07067 0
M  V30 5441 H 503.325 0.920879 -3.61351 0
M  V30 5442 N 505.51 1.54411 -0.315457 0
M  V30 5443 C 506.759 1.99599 0.290395 0
M  V30 5444 C 507.072 1.20746 1.53882 0
M  V30 5445 O 508.278 1.56272 2.22017 0
M  V30 5446 C 506.734 3.5539 0.56797 0
M  V30 5447 C 506.342 4.43068 -0.662945 0
M  V30 5448 C 508.086 4.09067 1.13422 0
M  V30 5449 C 505.993 5.90317 -0.357722 0
M  V30 5450 H 504.923 0.745592 0.112286 0
M  V30 5451 H 507.574 1.78477 -0.426418 0
M  V30 5452 H 505.956 3.72468 1.34476 0
M  V30 5453 H 507.13 4.37765 -1.43869 0
M  V30 5454 H 505.445 4.00238 -1.14884 0
M  V30 5455 H 508.042 5.16663 1.37707 0
M  V30 5456 H 508.385 3.60552 2.08106 0
M  V30 5457 H 508.918 3.95589 0.418805 0
M  V30 5458 H 505.657 6.4301 -1.27351 0
M  V30 5459 H 505.177 5.98592 0.380472 0
M  V30 5460 H 506.856 6.4699 0.0354284 0
M  V30 5461 N 506.988 0.0434614 1.5754 0
M  V30 5462 C 508.216 -0.641835 1.96693 0
M  V30 5463 C 508.631 -1.64832 0.920652 0
M  V30 5464 O 507.988 -1.82247 -0.095993 0
M  V30 5465 C 508.039 -1.33557 3.35924 0
M  V30 5466 O 507.76 -0.369403 4.3654 0
M  V30 5467 C 509.261 -2.11135 3.89791 0
M  V30 5468 H 506.481 -0.176013 0.647503 0
M  V30 5469 H 509.025 0.107478 2.04217 0
M  V30 5470 H 507.18 -2.03617 3.29574 0
M  V30 5471 H 507.594 -0.863674 5.1734 0
M  V30 5472 H 509.068 -2.55107 4.89514 0
M  V30 5473 H 509.545 -2.95634 3.24803 0
M  V30 5474 H 510.151 -1.46002 3.99454 0
M  V30 5475 N 508.466 -1.55915 -0.229846 0
M  V30 5476 C 509.429 -1.90914 -1.26824 0
M  V30 5477 C 510.429 -0.786999 -1.40225 0
M  V30 5478 O 511.619 -1.05484 -1.38632 0
M  V30 5479 C 508.751 -2.15264 -2.64337 0
M  V30 5480 H 509.944 -2.8378 -0.969998 0
M  V30 5481 H 507.497 -1.49069 -0.4699 0
M  V30 5482 H 508.232 -1.24923 -2.99274 0
M  V30 5483 H 508.017 -2.97005 -2.55989 0
M  V30 5484 H 509.507 -2.43467 -3.39284 0
M  V30 5485 N 509.944 0.496216 -1.49584 0
M  V30 5486 C 511.355 1.07765 -1.52459 0
M  V30 5487 C 511.706 1.93679 -0.31353 0
M  V30 5488 O 510.831 2.08588 0.576186 0
M  V30 5489 C 511.426 1.96111 -2.76271 0
M  V30 5490 C 509.985 2.49409 -2.81908 0
M  V30 5491 C 509.132 1.27142 -2.46435 0
M  V30 5492 H 512.083 0.279914 -1.56212 0
M  V30 5493 H 512.104 2.80862 -2.56704 0
M  V30 5494 H 511.616 1.33555 -3.64396 0
M  V30 5495 H 509.717 3.1559 -1.98074 0
M  V30 5496 H 509.83 2.86234 -3.84196 0
M  V30 5497 H 508.194 1.59818 -1.98319 0
M  V30 5498 H 508.977 0.662866 -3.3684 0
M  V30 5499 N 511.423 1.38739 0.74761 0
M  V30 5500 C 512.651 1.38521 1.53686 0
M  V30 5501 C 513.066 -0.0235129 1.88785 0
M  V30 5502 O 512.423 -0.991662 1.53207 0
M  V30 5503 C 512.474 2.24641 2.83229 0
M  V30 5504 O 512.195 3.60026 2.49625 0
M  V30 5505 C 513.696 2.32669 3.77333 0
M  V30 5506 H 510.916 0.473589 0.475347 0
M  V30 5507 H 513.46 1.82395 0.924786 0
M  V30 5508 H 511.615 1.84213 3.40799 0
M  V30 5509 H 512.029 4.05435 3.3275 0
M  V30 5510 H 513.503 2.97201 4.65162 0
M  V30 5511 H 513.98 1.3421 4.18192 0
M  V30 5512 H 514.586 2.73512 3.25685 0
M  V30 5513 N 512.901 -0.976442 1.23707 0
M  V30 5514 C 513.811 -2.10359 1.03856 0
M  V30 5515 C 514.827 -1.73991 -0.0180919 0
M  V30 5516 O 516.003 -2.0061 0.178211 0
M  V30 5517 C 513.068 -3.40809 0.636387 0
M  V30 5518 C 512.129 -3.91179 1.76854 0
M  V30 5519 C 511.362 -5.15404 1.38546 0
M  V30 5520 O 511.585 -5.69754 0.27142 0
M  V30 5521 O 510.519 -5.5994 2.20797 0
M  V30 5522 H 514.345 -2.29997 1.98331 0
M  V30 5523 H 511.93 -1.08742 1.02448 0
M  V30 5524 H 513.812 -4.19269 0.423223 0
M  V30 5525 H 512.487 -3.22493 -0.279322 0
M  V30 5526 H 511.394 -3.13819 2.03638 0
M  V30 5527 H 512.727 -4.13958 2.6627 0
M  V30 5528 N 514.379 -1.04941 -1.1758 0
M  V30 5529 C 515.626 -0.757989 -1.87779 0
M  V30 5530 C 515.954 0.714827 -1.80888 0
M  V30 5531 O 515.209 1.53824 -1.20982 0
M  V30 5532 C 515.508 -1.18062 -3.37337 0
M  V30 5533 C 515.174 -2.65521 -3.6443 0
M  V30 5534 C 513.836 -3.05804 -3.71534 0
M  V30 5535 C 516.188 -3.60822 -3.76108 0
M  V30 5536 C 513.516 -4.40256 -3.87803 0
M  V30 5537 C 515.868 -4.95005 -3.93895 0
M  V30 5538 C 514.532 -5.34945 -3.99237 0
M  V30 5539 H 513.802 -0.277368 -0.68713 0
M  V30 5540 H 516.449 -1.31603 -1.39115 0
M  V30 5541 H 514.754 -0.541525 -3.8804 0
M  V30 5542 H 516.451 -0.932368 -3.9001 0
M  V30 5543 H 513.041 -2.33324 -3.59524 0
M  V30 5544 H 517.225 -3.30841 -3.69943 0
M  V30 5545 H 512.481 -4.70707 -3.90186 0
M  V30 5546 H 516.655 -5.68746 -4.01872 0
M  V30 5547 H 514.282 -6.39135 -4.11596 0
M  V30 5548 N 515.857 1.33968 -0.830081 0
M  V30 5549 C 516.787 2.31911 -0.271911 0
M  V30 5550 C 517.768 1.58571 0.61556 0
M  V30 5551 O 518.953 1.86514 0.540946 0
M  V30 5552 C 516.083 3.42737 0.561146 0
M  V30 5553 C 515.037 4.27383 -0.229789 0
M  V30 5554 C 514.363 5.29742 0.726463 0
M  V30 5555 C 515.663 5.02 -1.44197 0
M  V30 5556 H 517.357 2.78844 -1.09025 0
M  V30 5557 H 514.903 1.34061 -0.52571 0
M  V30 5558 H 516.856 4.10276 0.961867 0
M  V30 5559 H 515.58 2.94471 1.41261 0
M  V30 5560 H 514.239 3.61456 -0.611964 0
M  V30 5561 H 513.887 4.77736 1.57408 0
M  V30 5562 H 513.587 5.87255 0.20142 0
M  V30 5563 H 515.111 6.00149 1.12489 0
M  V30 5564 H 516.525 5.62355 -1.11488 0
M  V30 5565 H 514.922 5.69122 -1.90317 0
M  V30 5566 H 515.992 4.31281 -2.2164 0
M  V30 5567 N 517.335 0.585699 1.46312 0
M  V30 5568 C 518.283 -0.158577 2.32059 0
M  V30 5569 C 519.277 -0.881427 1.44662 0
M  V30 5570 O 520.483 -0.799476 1.61271 0
M  V30 5571 H 516.858 -0.0700066 0.748734 0
M  V30 5572 H 518.829 0.583383 2.92642 0
M  V30 5573 C 517.578 -1.15701 3.27885 0
M  V30 5574 H 516.901 -0.610215 3.95116 0
M  V30 5575 H 518.341 -1.64812 3.90657 0
M  V30 5576 C 516.8 -2.21951 2.53455 0
M  V30 5577 O 517.33 -3.29352 2.29978 0
M  V30 5578 N 515.536 -1.9664 2.13965 0
M  V30 5579 H 515.083 -1.09309 2.33258 0
M  V30 5580 H 515.041 -2.6794 1.64485 0
M  V30 5581 N 518.813 -1.54241 0.323641 0
M  V30 5582 C 519.76 -2.24339 -0.542277 0
M  V30 5583 C 520.73 -1.23421 -1.11159 0
M  V30 5584 O 521.915 -1.52104 -1.15192 0
M  V30 5585 C 519.055 -3.00479 -1.69725 0
M  V30 5586 C 518.168 -4.16214 -1.15716 0
M  V30 5587 C 517.303 -4.79884 -2.27783 0
M  V30 5588 C 516.342 -5.87722 -1.71023 0
M  V30 5589 N 515.479 -6.45254 -2.76752 0
M  V30 5590 H 520.319 -2.97935 0.0620613 0
M  V30 5591 H 517.856 -1.47039 0.0423993 0
M  V30 5592 H 519.814 -3.42869 -2.3769 0
M  V30 5593 H 518.444 -2.29217 -2.27288 0
M  V30 5594 H 517.496 -3.78605 -0.369063 0
M  V30 5595 H 518.808 -4.93838 -0.701832 0
M  V30 5596 H 517.962 -5.25243 -3.03651 0
M  V30 5597 H 516.701 -4.01641 -2.76652 0
M  V30 5598 H 515.706 -5.41765 -0.936518 0
M  V30 5599 H 516.931 -6.67863 -1.2303 0
M  V30 5600 H 514.877 -5.69884 -3.24912 0
M  V30 5601 H 514.794 -7.18292 -2.35782 0
M  V30 5602 H 516.062 -6.95269 -3.5245 0
M  V30 5603 N 520.291 -0.0518155 -1.57515 0
M  V30 5604 C 521.538 0.621823 -1.92716 0
M  V30 5605 C 521.866 1.70813 -0.930229 0
M  V30 5606 O 521.121 1.95616 0.0573708 0
M  V30 5607 C 521.42 1.25607 -3.34601 0
M  V30 5608 C 521.086 0.297901 -4.49915 0
M  V30 5609 C 519.748 0.034243 -4.81188 0
M  V30 5610 C 522.1 -0.358738 -5.19964 0
M  V30 5611 C 519.428 -0.893479 -5.79857 0
M  V30 5612 C 521.78 -1.27466 -6.19625 0
M  V30 5613 C 520.444 -1.54698 -6.49326 0
M  V30 5614 H 519.714 0.227541 -0.705199 0
M  V30 5615 H 522.361 -0.118432 -1.91133 0
M  V30 5616 H 520.666 2.07161 -3.32553 0
M  V30 5617 H 522.363 1.78424 -3.59118 0
M  V30 5618 H 518.953 0.513581 -4.25512 0
M  V30 5619 H 523.137 -0.168133 -4.96015 0
M  V30 5620 H 518.393 -1.11193 -6.01204 0
M  V30 5621 H 522.567 -1.78953 -6.73015 0
M  V30 5622 H 520.194 -2.26748 -7.25596 0
M  V30 5623 N 521.769 1.56035 0.221574 0
M  V30 5624 C 523.016 1.79047 0.94597 0
M  V30 5625 C 523.344 0.62057 1.84334 0
M  V30 5626 O 522.599 -0.395053 1.91671 0
M  V30 5627 C 522.898 3.07813 1.8162 0
M  V30 5628 C 522.564 4.3797 1.07206 0
M  V30 5629 C 521.226 4.73334 0.866508 0
M  V30 5630 C 523.578 5.18326 0.546565 0
M  V30 5631 C 520.906 5.8657 0.123549 0
M  V30 5632 C 523.258 6.32335 -0.18305 0
M  V30 5633 C 521.922 6.66301 -0.399861 0
M  V30 5634 H 521.192 0.655178 0.346155 0
M  V30 5635 H 523.839 1.90299 0.214146 0
M  V30 5636 H 522.144 2.91682 2.61589 0
M  V30 5637 H 523.841 3.2282 2.37884 0
M  V30 5638 H 520.431 4.10202 1.24226 0
M  V30 5639 H 524.615 4.9144 0.692847 0
M  V30 5640 H 519.871 6.11376 -0.0546591 0
M  V30 5641 H 524.045 6.9383 -0.59775 0
M  V30 5642 H 521.672 7.53889 -0.977489 0
M  V30 5643 N 523.247 -0.488276 1.49845 0
M  V30 5644 C 524.157 -1.61451 1.70207 0
M  V30 5645 C 525.173 -1.63877 0.584846 0
M  V30 5646 O 526.349 -1.82063 0.861107 0
M  V30 5647 C 523.414 -2.9776 1.77594 0
M  V30 5648 C 522.475 -3.05861 3.01243 0
M  V30 5649 C 521.708 -4.35668 3.08268 0
M  V30 5650 O 521.931 -5.25197 2.22541 0
M  V30 5651 O 520.865 -4.49005 4.00847 0
M  V30 5652 H 524.691 -1.47199 2.65643 0
M  V30 5653 H 522.276 -0.665939 1.33737 0
M  V30 5654 H 524.158 -3.7875 1.84732 0
M  V30 5655 H 522.833 -3.12248 0.8534 0
M  V30 5656 H 521.74 -2.24012 2.99616 0
M  V30 5657 H 523.073 -2.96304 3.9302 0
M  V30 5658 N 524.725 -1.39134 -0.740242 0
M  V30 5659 C 525.973 -1.35803 -1.49673 0
M  V30 5660 C 526.294 0.0470897 -1.94943 0
M  V30 5661 O 525.564 0.997347 -1.68611 0
M  V30 5662 H 524.144 -0.499736 -0.555224 0
M  V30 5663 H 526.806 -1.73947 -0.879107 0
M  V30 5664 H 525.902 -2.0174 -2.38133 0
M  V30 5665 N 526.204 0.969867 -1.24223 0
M  V30 5666 C 527.134 2.08191 -1.05729 0
M  V30 5667 C 528.115 1.70075 0.0290765 0
M  V30 5668 O 529.3 1.93712 -0.137583 0
M  V30 5669 C 526.43 3.40991 -0.658995 0
M  V30 5670 C 525.384 3.93054 -1.69389 0
M  V30 5671 C 524.71 5.22171 -1.15072 0
M  V30 5672 C 526.01 4.21137 -3.08935 0
M  V30 5673 H 527.704 2.23921 -1.98746 0
M  V30 5674 H 525.25 1.07602 -0.956967 0
M  V30 5675 H 527.203 4.18221 -0.51662 0
M  V30 5676 H 525.927 3.25155 0.30686 0
M  V30 5677 H 524.586 3.17977 -1.82444 0
M  V30 5678 H 524.234 5.02694 -0.175539 0
M  V30 5679 H 523.934 5.57973 -1.84229 0
M  V30 5680 H 525.458 6.02013 -1.02042 0
M  V30 5681 H 526.872 4.8908 -2.99121 0
M  V30 5682 H 525.269 4.68163 -3.75425 0
M  V30 5683 H 526.339 3.27996 -3.57137 0
M  V30 5684 N 527.682 1.05563 1.17022 0
M  V30 5685 C 528.959 0.68165 1.83338 0
M  V30 5686 C 529.339 -0.837665 1.93769 0
M  V30 5687 O 528.687 -1.74507 1.47511 0
M  V30 5688 C 528.897 1.375 3.20772 0
M  V30 5689 C 530.245 1.51545 3.96635 0
M  V30 5690 O 531.269 1.33431 3.30264 0
M  V30 5691 O 530.128 1.812 5.15586 0
M  V30 5692 H 527.222 0.240412 0.791285 0
M  V30 5693 H 529.768 1.15545 1.24288 0
M  V30 5694 H 528.54 2.41135 3.08171 0
M  V30 5695 H 528.163 0.890798 3.87493 0
M  V30 5696 N 529.16 -1.33526 0.837174 0
M  V30 5697 C 530.406 -1.9813 0.432704 0
M  V30 5698 C 530.739 -1.66168 -1.00508 0
M  V30 5699 O 530.014 -0.94069 -1.70239 0
M  V30 5700 C 530.297 -3.54151 0.651834 0
M  V30 5701 C 530.15 -3.95806 2.13676 0
M  V30 5702 C 531.469 -4.39993 0.0968937 0
M  V30 5703 H 528.588 -0.719713 0.15869 0
M  V30 5704 H 531.23 -1.58193 1.05237 0
M  V30 5705 H 529.38 -3.88301 0.124369 0
M  V30 5706 H 531.052 -3.71921 2.72896 0
M  V30 5707 H 529.295 -3.45599 2.62191 0
M  V30 5708 H 529.966 -5.0447 2.24084 0
M  V30 5709 H 532.442 -4.12479 0.547733 0
M  V30 5710 H 531.318 -5.48186 0.279917 0
M  V30 5711 H 531.579 -4.3066 -0.9992 0
M  V30 5712 N 530.638 -0.59345 -1.46 0
M  V30 5713 C 531.884 -0.0832754 -2.02629 0
M  V30 5714 C 532.217 1.27749 -1.46266 0
M  V30 5715 O 531.492 1.8395 -0.631866 0
M  V30 5716 C 531.775 -0.0290756 -3.60088 0
M  V30 5717 C 531.628 -1.41951 -4.26814 0
M  V30 5718 C 532.947 0.666055 -4.35031 0
M  V30 5719 H 530.066 -0.031736 -0.736316 0
M  V30 5720 H 532.708 -0.762711 -1.74019 0
M  V30 5721 H 530.858 0.549532 -3.84594 0
M  V30 5722 H 532.53 -2.04411 -4.13538 0
M  V30 5723 H 530.773 -1.98422 -3.8576 0
M  V30 5724 H 531.444 -1.33395 -5.3564 0
M  V30 5725 H 533.92 0.174401 -4.15734 0
M  V30 5726 H 532.796 0.673041 -5.44758 0
M  V30 5727 H 533.057 1.72946 -4.06869 0
M  V30 5728 N 532.116 1.54067 -0.331816 0
M  V30 5729 C 533.063 2.24623 0.530372 0
M  V30 5730 C 534.033 1.24009 1.10503 0
M  V30 5731 O 535.218 1.52712 1.14384 0
M  V30 5732 C 532.358 3.01374 1.68129 0
M  V30 5733 C 531.471 4.16821 1.13507 0
M  V30 5734 C 530.606 4.81085 2.25234 0
M  V30 5735 C 529.645 5.88621 1.67903 0
M  V30 5736 N 528.782 6.46713 2.73326 0
M  V30 5737 H 533.622 2.97898 -0.0778607 0
M  V30 5738 H 531.159 1.47014 -0.0501965 0
M  V30 5739 H 533.117 3.44125 2.35868 0
M  V30 5740 H 531.747 2.30419 2.26069 0
M  V30 5741 H 530.799 3.78796 0.348979 0
M  V30 5742 H 532.111 4.94203 0.675633 0
M  V30 5743 H 531.265 5.26846 3.00862 0
M  V30 5744 H 530.004 4.03102 2.74518 0
M  V30 5745 H 529.009 5.42254 0.907773 0
M  V30 5746 H 530.234 6.68506 1.19487 0
M  V30 5747 H 528.18 5.71599 3.21886 0
M  V30 5748 H 528.097 7.19532 2.3197 0
M  V30 5749 H 529.365 6.97129 3.48758 0
M  V30 5750 N 533.594 0.0601682 1.57485 0
M  V30 5751 C 534.843 -0.611101 1.9222 0
M  V30 5752 C 535.156 -1.71469 0.941159 0
M  V30 5753 O 536.362 -2.44473 1.18089 0
M  V30 5754 C 534.818 -1.13832 3.41424 0
M  V30 5755 C 534.426 -0.0663596 4.47951 0
M  V30 5756 C 536.17 -1.78432 3.85178 0
M  V30 5757 C 534.077 -0.606965 5.88277 0
M  V30 5758 H 533.007 -0.232033 0.71741 0
M  V30 5759 H 535.658 0.130518 1.83035 0
M  V30 5760 H 534.04 -1.93254 3.45643 0
M  V30 5761 H 535.214 0.707682 4.55333 0
M  V30 5762 H 533.529 0.482715 4.13593 0
M  V30 5763 H 536.126 -2.1989 4.87394 0
M  V30 5764 H 536.469 -2.63966 3.21913 0
M  V30 5765 H 537.002 -1.05651 3.83514 0
M  V30 5766 H 533.741 0.21095 6.5516 0
M  V30 5767 H 533.261 -1.34879 5.84438 0
M  V30 5768 H 534.94 -1.08704 6.37803 0
M  V30 5769 N 535.072 -1.5615 -0.213296 0
M  V30 5770 C 536.483 -1.69645 -0.779582 0
M  V30 5771 C 536.834 -0.663615 -1.84636 0
M  V30 5772 O 535.959 0.183633 -2.15619 0
M  V30 5773 C 536.554 -3.07567 -1.42084 0
M  V30 5774 C 535.113 -3.22889 -1.93442 0
M  V30 5775 C 534.26 -2.65581 -0.797612 0
M  V30 5776 H 537.211 -1.58696 0.0114951 0
M  V30 5777 H 537.232 -3.03884 -2.28986 0
M  V30 5778 H 536.744 -3.82716 -0.644187 0
M  V30 5779 H 534.845 -2.52623 -2.73884 0
M  V30 5780 H 534.958 -4.30197 -2.10872 0
M  V30 5781 H 533.322 -2.24278 -1.20712 0
M  V30 5782 H 534.105 -3.43284 -0.033494 0
M  V30 5783 N 536.55 0.480323 -1.50102 0
M  V30 5784 C 537.797 1.23307 -1.60629 0
M  V30 5785 C 538.125 1.92135 -0.302375 0
M  V30 5786 O 537.38 1.82321 0.711154 0
M  V30 5787 C 537.679 2.30708 -2.72963 0
M  V30 5788 C 537.345 1.79195 -4.13763 0
M  V30 5789 C 536.007 1.64867 -4.52076 0
M  V30 5790 C 538.359 1.40878 -5.018 0
M  V30 5791 C 535.687 1.10631 -5.76175 0
M  V30 5792 C 538.039 0.880872 -6.26437 0
M  V30 5793 C 536.703 0.724146 -6.6356 0
M  V30 5794 H 535.973 0.451211 -0.587784 0
M  V30 5795 H 538.62 0.53051 -1.84005 0
M  V30 5796 H 536.925 3.06834 -2.43639 0
M  V30 5797 H 538.622 2.88692 -2.78313 0
M  V30 5798 H 535.212 1.91313 -3.83533 0
M  V30 5799 H 539.396 1.50786 -4.7284 0
M  V30 5800 H 534.652 0.972263 -6.0362 0
M  V30 5801 H 538.826 0.575269 -6.9402 0
M  V30 5802 H 536.453 0.301722 -7.59601 0
M  V30 5803 N 538.028 1.39524 0.732853 0
M  V30 5804 C 538.958 1.41153 1.86005 0
M  V30 5805 C 539.939 0.274614 1.67869 0
M  V30 5806 O 541.124 0.480745 1.88155 0
M  V30 5807 C 538.254 1.25638 3.23778 0
M  V30 5808 C 537.208 2.36752 3.56556 0
M  V30 5809 C 536.534 2.06326 4.93289 0
M  V30 5810 C 537.834 3.79069 3.5931 0
M  V30 5811 H 539.528 2.35484 1.84899 0
M  V30 5812 H 537.074 1.13348 0.888162 0
M  V30 5813 H 539.027 1.25398 4.0231 0
M  V30 5814 H 537.751 0.277772 3.25417 0
M  V30 5815 H 536.41 2.36213 2.80355 0
M  V30 5816 H 536.058 1.06897 4.9151 0
M  V30 5817 H 535.758 2.80757 5.16187 0
M  V30 5818 H 537.282 2.07739 5.74175 0
M  V30 5819 H 538.696 3.81526 4.27914 0
M  V30 5820 H 537.093 4.52878 3.93728 0
M  V30 5821 H 538.163 4.09893 2.59068 0
M  V30 5822 N 539.506 -0.963266 1.24736 0
M  V30 5823 C 540.917 -1.52145 1.08207 0
M  V30 5824 C 541.268 -1.93142 -0.345061 0
M  V30 5825 O 540.393 -1.77769 -1.23399 0
M  V30 5826 C 540.988 -2.76486 1.95808 0
M  V30 5827 C 539.547 -3.28646 1.8349 0
M  V30 5828 C 538.694 -2.01529 1.90476 0
M  V30 5829 H 541.645 -0.781083 1.38148 0
M  V30 5830 H 541.666 -3.49986 1.49297 0
M  V30 5831 H 541.178 -2.46617 2.99669 0
M  V30 5832 H 539.279 -3.63357 0.824787 0
M  V30 5833 H 539.392 -3.97246 2.67829 0
M  V30 5834 H 537.756 -2.16442 1.34258 0
M  V30 5835 H 538.539 -1.7402 2.95926 0
M  V30 5836 N 540.985 -1.06182 -1.16461 0
M  V30 5837 C 541.915 -0.692861 -2.22984 0
M  V30 5838 C 542.896 0.314122 -1.67174 0
M  V30 5839 O 544.081 0.189499 -1.93273 0
M  V30 5840 C 541.211 -0.07732 -3.47214 0
M  V30 5841 C 540.165 -1.01015 -4.15909 0
M  V30 5842 C 539.491 -0.257973 -5.34077 0
M  V30 5843 C 540.791 -2.33868 -4.67015 0
M  V30 5844 H 542.485 -1.58343 -2.54102 0
M  V30 5845 H 540.031 -0.76279 -1.22137 0
M  V30 5846 H 541.984 0.19266 -4.20959 0
M  V30 5847 H 540.708 0.848254 -3.15392 0
M  V30 5848 H 539.367 -1.26486 -3.44088 0
M  V30 5849 H 539.015 0.670684 -4.98509 0
M  V30 5850 H 538.715 -0.879638 -5.80979 0
M  V30 5851 H 540.239 0.00448788 -6.106 0
M  V30 5852 H 541.653 -2.1279 -5.32347 0
M  V30 5853 H 540.05 -2.91522 -5.24533 0
M  V30 5854 H 541.12 -2.97019 -3.83286 0
M  V30 5855 N 542.463 1.3308 -0.844243 0
M  V30 5856 C 543.693 2.01515 -0.455541 0
M  V30 5857 C 544.101 1.63655 0.949406 0
M  V30 5858 O 543.444 0.84848 1.62931 0
M  V30 5859 C 543.506 3.55967 -0.502801 0
M  V30 5860 C 543.17 4.17222 -1.86481 0
M  V30 5861 C 544.167 4.36205 -2.8288 0
M  V30 5862 C 541.852 4.53528 -2.15911 0
M  V30 5863 C 543.846 4.90649 -4.06869 0
M  V30 5864 C 541.533 5.07679 -3.40155 0
M  V30 5865 C 542.531 5.26186 -4.35451 0
M  V30 5866 O 542.219 5.79183 -5.57496 0
M  V30 5867 H 541.951 0.65199 -0.178565 0
M  V30 5868 H 544.505 1.70867 -1.1399 0
M  V30 5869 H 542.735 3.85965 0.23836 0
M  V30 5870 H 544.424 4.05688 -0.131169 0
M  V30 5871 H 545.19 4.085 -2.61444 0
M  V30 5872 H 541.069 4.38414 -1.42528 0
M  V30 5873 H 544.613 5.0501 -4.81259 0
M  V30 5874 H 540.51 5.34815 -3.61446 0
M  V30 5875 H 541.278 5.97591 -5.5931 0
M  V30 5876 N 543.941 0.601185 1.45683 0
M  V30 5877 C 545.19 0.0914953 2.01492 0
M  V30 5878 C 545.503 -1.28331 1.47616 0
M  V30 5879 O 546.709 -1.88537 1.95362 0
M  V30 5880 C 545.165 0.11291 3.59723 0
M  V30 5881 C 544.773 1.48717 4.22596 0
M  V30 5882 C 546.517 -0.341871 4.23121 0
M  V30 5883 C 544.424 1.46531 5.7296 0
M  V30 5884 H 543.354 0.0304365 0.753385 0
M  V30 5885 H 546.005 0.755568 1.67223 0
M  V30 5886 H 544.387 -0.617692 3.91153 0
M  V30 5887 H 545.561 2.23897 4.02749 0
M  V30 5888 H 543.876 1.88351 3.71366 0
M  V30 5889 H 546.473 -0.377304 5.33367 0
M  V30 5890 H 546.816 -1.36325 3.93346 0
M  V30 5891 H 547.349 0.335256 3.96385 0
M  V30 5892 H 544.088 2.46408 6.07423 0
M  V30 5893 H 543.608 0.755997 5.95017 0
M  V30 5894 H 545.287 1.18618 6.36034 0
M  V30 5895 N 545.419 -1.53889 0.339982 0
M  V30 5896 C 546.647 -2.05271 -0.259114 0
M  V30 5897 C 547.062 -1.21517 -1.44496 0
M  V30 5898 O 546.419 -0.24966 -1.80784 0
M  V30 5899 C 546.47 -3.55092 -0.677634 0
M  V30 5900 O 546.191 -4.35667 0.461051 0
M  V30 5901 C 547.692 -4.22631 -1.33782 0
M  V30 5902 H 544.912 -0.669085 -0.0506566 0
M  V30 5903 H 547.456 -1.9852 0.490935 0
M  V30 5904 H 545.611 -3.62077 -1.37763 0
M  V30 5905 H 546.025 -5.24343 0.128144 0
M  V30 5906 H 547.499 -5.28861 -1.58145 0
M  V30 5907 H 547.976 -3.74758 -2.29027 0
M  V30 5908 H 548.582 -4.19829 -0.679957 0
M  V30 5909 N 546.897 -0.0685191 -1.57451 0
M  V30 5910 C 548.125 0.610462 -1.97689 0
M  V30 5911 C 548.54 1.63346 -0.946758 0
M  V30 5912 O 547.897 1.82377 0.0669868 0
M  V30 5913 C 547.948 1.28196 -3.38006 0
M  V30 5914 O 547.669 0.299906 -4.37072 0
M  V30 5915 C 549.17 2.04907 -3.931 0
M  V30 5916 H 546.39 0.165689 -0.650222 0
M  V30 5917 H 548.934 -0.139953 -2.04021 0
M  V30 5918 H 547.089 1.98348 -3.32771 0
M  V30 5919 H 547.503 0.78126 -5.18649 0
M  V30 5920 H 548.977 2.47287 -4.93511 0
M  V30 5921 H 549.454 2.9043 -3.29465 0
M  V30 5922 H 550.06 1.39629 -4.01726 0
M  V30 5923 N 548.375 1.56261 0.205012 0
M  V30 5924 C 549.615 1.81823 0.933806 0
M  V30 5925 C 549.979 0.644534 1.80858 0
M  V30 5926 O 551.18 0.779819 2.5724 0
M  V30 5927 C 549.451 3.12362 1.7368 0
M  V30 5928 S 551.01 3.59296 2.51897 0
M  V30 5929 H 547.828 0.638209 0.313386 0
M  V30 5930 H 550.43 1.94495 0.198001 0
M  V30 5931 H 549.134 3.95809 1.08459 0
M  V30 5932 H 548.665 3.02542 2.5146 0
M  V30 5933 H 550.68 3.23945 3.75864 0
M  V30 5934 N 549.853 -0.472356 1.50355 0
M  V30 5935 C 550.801 -1.59126 1.69651 0
M  V30 5936 C 551.795 -1.59793 0.56237 0
M  V30 5937 O 553.001 -1.63957 0.742832 0
M  V30 5938 H 549.376 -0.528008 0.535454 0
M  V30 5939 H 551.347 -1.40013 2.63513 0
M  V30 5940 C 550.096 -2.97075 1.8067 0
M  V30 5941 H 549.419 -2.9728 2.67329 0
M  V30 5942 H 550.859 -3.74825 1.98197 0
M  V30 5943 C 549.318 -3.32247 0.558016 0
M  V30 5944 O 549.848 -4.00553 -0.303399 0
M  V30 5945 N 548.054 -2.87659 0.412415 0
M  V30 5946 H 547.601 -2.32246 1.11443 0
M  V30 5947 H 547.559 -3.11556 -0.421908 0
M  V30 5948 N 551.331 -1.39911 -0.725443 0
M  V30 5949 C 552.279 -1.39552 -1.86086 0
M  V30 5950 C 553.273 -0.277334 -1.67114 0
M  V30 5951 O 554.479 -0.447865 -1.74339 0
M  V30 5952 H 550.854 -0.435993 -0.612711 0
M  V30 5953 H 552.825 -2.35305 -1.83505 0
M  V30 5954 C 551.574 -1.26529 -3.2386 0
M  V30 5955 H 550.897 -2.11845 -3.3906 0
M  V30 5956 H 552.337 -1.30336 -4.03471 0
M  V30 5957 C 550.796 0.0254168 -3.3689 0
M  V30 5958 O 551.326 0.992048 -3.89257 0
M  V30 5959 N 549.532 0.0916528 -2.90455 0
M  V30 5960 H 549.079 -0.695675 -2.48028 0
M  V30 5961 H 549.037 0.954745 -2.99553 0
M  V30 5962 N 552.809 0.956637 -1.25245 0
M  V30 5963 C 554.22 1.51569 -1.09012 0
M  V30 5964 C 554.571 1.93322 0.334813 0
M  V30 5965 O 553.696 1.78421 1.22454 0
M  V30 5966 C 554.291 2.75444 -1.97271 0
M  V30 5967 C 552.85 3.27669 -1.8523 0
M  V30 5968 C 551.997 2.00517 -1.91542 0
M  V30 5969 H 554.948 0.773746 -1.3856 0
M  V30 5970 H 554.969 3.4919 -1.51151 0
M  V30 5971 H 554.481 2.45024 -3.00973 0
M  V30 5972 H 552.582 3.62914 -0.844045 0
M  V30 5973 H 552.695 3.9582 -2.69932 0
M  V30 5974 H 551.059 2.15727 -1.35404 0
M  V30 5975 H 551.842 1.72448 -2.96844 0
M  V30 5976 N 554.287 1.06798 1.15896 0
M  V30 5977 C 555.234 0.683314 2.20453 0
M  V30 5978 C 556.204 -0.32255 1.62938 0
M  V30 5979 O 557.389 -0.210276 1.89638 0
M  V30 5980 C 554.529 0.0813266 3.45004 0
M  V30 5981 C 553.642 1.13799 4.16742 0
M  V30 5982 C 552.777 0.501598 5.28826 0
M  V30 5983 C 551.816 1.54144 5.92373 0
M  V30 5984 N 550.953 0.928038 6.9594 0
M  V30 5985 H 555.793 1.57932 2.52708 0
M  V30 5986 H 553.33 0.789544 1.24115 0
M  V30 5987 H 555.288 -0.285274 4.16224 0
M  V30 5988 H 553.918 -0.77806 3.13283 0
M  V30 5989 H 552.97 1.62223 3.44075 0
M  V30 5990 H 554.282 1.92664 4.60089 0
M  V30 5991 H 553.436 0.0823162 6.06644 0
M  V30 5992 H 552.175 -0.318883 4.86656 0
M  V30 5993 H 551.18 1.97056 5.13273 0
M  V30 5994 H 552.405 2.3641 6.36621 0
M  V30 5995 H 550.351 0.12836 6.55874 0
M  V30 5996 H 550.268 1.65401 7.37685 0
M  V30 5997 H 551.536 0.534071 7.77668 0
M  V30 5998 N 555.766 -1.3263 0.851289 0
M  V30 5999 C 556.696 -2.31449 0.308771 0
M  V30 6000 C 557.677 -1.59531 -0.590255 0
M  V30 6001 O 558.862 -1.87351 -0.511205 0
M  V30 6002 C 555.992 -3.43586 -0.506548 0
M  V30 6003 C 554.946 -4.26963 0.297753 0
M  V30 6004 C 554.272 -5.30831 -0.642094 0
M  V30 6005 C 555.572 -4.99643 1.52166 0
M  V30 6006 H 557.266 -2.77074 1.13447 0
M  V30 6007 H 554.812 -1.33207 0.546971 0
M  V30 6008 H 556.765 -4.11754 -0.896474 0
M  V30 6009 H 555.489 -2.96681 -1.36558 0
M  V30 6010 H 554.148 -3.60437 0.669391 0
M  V30 6011 H 553.796 -4.8018 -1.49788 0
M  V30 6012 H 553.496 -5.87501 -0.107968 0
M  V30 6013 H 555.02 -6.01862 -1.02927 0
M  V30 6014 H 556.434 -5.6051 1.20421 0
M  V30 6015 H 554.831 -5.66022 1.99347 0
M  V30 6016 H 555.901 -4.27701 2.28474 0
M  V30 6017 N 557.244 -0.608902 -1.45362 0
M  V30 6018 C 558.655 -0.189511 -1.85736 0
M  V30 6019 C 559.006 1.2539 -1.50903 0
M  V30 6020 O 558.131 1.95094 -0.936347 0
M  V30 6021 C 558.726 -0.33716 -3.37118 0
M  V30 6022 C 557.285 0.0275487 -3.7639 0
M  V30 6023 C 556.432 -0.660983 -2.69307 0
M  V30 6024 H 559.383 -0.815499 -1.36144 0
M  V30 6025 H 559.404 0.430257 -3.7806 0
M  V30 6026 H 558.916 -1.38779 -3.62439 0
M  V30 6027 H 557.017 1.0773 -3.56686 0
M  V30 6028 H 557.13 -0.367018 -4.77692 0
M  V30 6029 H 555.494 -0.0984958 -2.54509 0
M  V30 6030 H 556.277 -1.71377 -2.97464 0
M  V30 6031 N 558.722 1.53707 -0.348139 0
M  V30 6032 C 559.95 2.05406 0.248224 0
M  V30 6033 C 560.365 1.22282 1.43849 0
M  V30 6034 O 559.722 0.259244 1.80649 0
M  V30 6035 C 559.773 3.55446 0.658793 0
M  V30 6036 O 559.494 4.35417 -0.484149 0
M  V30 6037 C 560.995 4.23335 1.31539 0
M  V30 6038 H 558.215 0.669344 0.0471075 0
M  V30 6039 H 560.759 1.98257 -0.501456 0
M  V30 6040 H 558.914 3.62803 1.35841 0
M  V30 6041 H 559.328 5.24268 -0.155949 0
M  V30 6042 H 560.802 5.29692 1.55338 0
M  V30 6043 H 561.279 3.75967 2.27036 0
M  V30 6044 H 561.885 4.20184 0.657683 0
M  V30 6045 N 560.2 0.0768682 1.57412 0
M  V30 6046 C 561.13 -0.886026 2.16037 0
M  V30 6047 C 562.111 -1.30691 1.08876 0
M  V30 6048 O 563.296 -1.37705 1.36934 0
M  V30 6049 C 560.426 -2.1518 2.72608 0
M  V30 6050 C 559.38 -1.87015 3.8498 0
M  V30 6051 C 558.706 -3.20266 4.28175 0
M  V30 6052 C 560.006 -1.17143 5.08994 0
M  V30 6053 H 561.7 -0.397642 2.96748 0
M  V30 6054 H 559.246 -0.189823 1.42743 0
M  V30 6055 H 561.199 -2.82962 3.12266 0
M  V30 6056 H 559.923 -2.66269 1.89125 0
M  V30 6057 H 558.582 -1.21636 3.45833 0
M  V30 6058 H 558.23 -3.69207 3.41607 0
M  V30 6059 H 557.93 -3.0221 5.03927 0
M  V30 6060 H 559.454 -3.89237 4.70454 0
M  V30 6061 H 560.868 -1.75003 5.45937 0
M  V30 6062 H 559.265 -1.09328 5.90057 0
M  V30 6063 H 560.335 -0.151295 4.84664 0
M  V30 6064 N 561.678 -1.56367 -0.196722 0
M  V30 6065 C 562.588 -1.97617 -1.2643 0
M  V30 6066 C 563.604 -0.883598 -1.49895 0
M  V30 6067 O 564.78 -1.18921 -1.62541 0
M  V30 6068 C 561.845 -2.30595 -2.58895 0
M  V30 6069 C 560.906 -3.53551 -2.43516 0
M  V30 6070 C 560.139 -3.84946 -3.69665 0
M  V30 6071 O 560.362 -3.17655 -4.73763 0
M  V30 6072 O 559.296 -4.78379 -3.65291 0
M  V30 6073 H 563.122 -2.88648 -0.944233 0
M  V30 6074 H 560.707 -1.43901 -0.401592 0
M  V30 6075 H 562.589 -2.52889 -3.37083 0
M  V30 6076 H 561.264 -1.42732 -2.90533 0
M  V30 6077 H 560.171 -3.36507 -1.63445 0
M  V30 6078 H 561.504 -4.41875 -2.16812 0
M  V30 6079 N 563.156 0.464375 -1.50603 0
M  V30 6080 C 564.403 1.21596 -1.61928 0
M  V30 6081 C 564.731 1.91804 -0.322737 0
M  V30 6082 O 563.986 1.83065 0.691776 0
M  V30 6083 C 564.285 2.278 -2.75394 0
M  V30 6084 C 563.951 1.74797 -4.1564 0
M  V30 6085 C 562.613 1.60063 -4.53799 0
M  V30 6086 C 564.965 1.35548 -5.03266 0
M  V30 6087 C 562.293 1.04514 -5.77316 0
M  V30 6088 C 564.645 0.814381 -6.27336 0
M  V30 6089 C 563.309 0.653726 -6.64291 0
M  V30 6090 H 562.579 0.444951 -0.592536 0
M  V30 6091 H 565.226 0.510964 -1.84557 0
M  V30 6092 H 563.531 3.04233 -2.46879 0
M  V30 6093 H 565.228 2.85723 -2.81359 0
M  V30 6094 H 561.818 1.87234 -3.8554 0
M  V30 6095 H 566.002 1.45763 -4.74412 0
M  V30 6096 H 561.258 0.908186 -6.04617 0
M  V30 6097 H 565.432 0.501626 -6.94591 0
M  V30 6098 H 563.059 0.22114 -7.59878 0
M  V30 6099 N 564.634 1.40294 0.718013 0
M  V30 6100 C 566.05 1.2227 1.02577 0
M  V30 6101 C 566.25 0.0961976 2.0127 0
M  V30 6102 O 565.306 -0.546695 2.46511 0
M  V30 6103 C 566.619 2.56348 1.57182 0
M  V30 6104 C 568.167 2.6334 1.69178 0
M  V30 6105 C 568.642 3.9768 2.27188 0
M  V30 6106 N 570.133 3.99409 2.34578 0
M  V30 6107 C 570.868 5.00141 2.8044 0
M  V30 6108 N 570.364 6.11268 3.26073 0
M  V30 6109 N 572.157 4.87511 2.79802 0
M  V30 6110 H 564.308 2.12304 0.0637899 0
M  V30 6111 H 566.571 0.943632 0.0909036 0
M  V30 6112 H 566.277 3.3942 0.921262 0
M  V30 6113 H 566.151 2.77266 2.55741 0
M  V30 6114 H 568.538 1.80641 2.33351 0
M  V30 6115 H 568.619 2.46255 0.692247 0
M  V30 6116 H 568.263 4.80817 1.63638 0
M  V30 6117 H 568.193 4.12093 3.27852 0
M  V30 6118 H 570.684 3.19162 2.02346 0
M  V30 6119 H 570.997 6.84023 3.59628 0
M  V30 6120 H 569.342 6.14837 3.24038 0
M  V30 6121 H 572.533 3.9979 2.43487 0
M  V30 6122 H 572.706 5.66158 3.15228 0
M  V30 6123 N 566.112 -0.949982 1.2575 0
M  V30 6124 C 567.337 -1.73503 1.13628 0
M  V30 6125 C 567.762 -1.85601 -0.30559 0
M  V30 6126 O 567.12 -1.33984 -1.22139 0
M  V30 6127 C 567.168 -3.1243 1.80055 0
M  V30 6128 O 566.272 -3.97916 1.08336 0
M  V30 6129 H 565.613 -0.532665 0.396439 0
M  V30 6130 H 568.143 -1.19043 1.66403 0
M  V30 6131 H 568.153 -3.62866 1.86527 0
M  V30 6132 H 566.828 -3.02941 2.84956 0
M  V30 6133 H 565.405 -3.56375 1.09777 0
M  V30 6134 N 567.59 -1.07411 -1.15328 0
M  V30 6135 C 568.553 -0.698914 -2.18284 0
M  V30 6136 C 569.553 0.261149 -1.58665 0
M  V30 6137 O 570.743 0.0420277 -1.74149 0
M  V30 6138 C 567.875 -0.0302427 -3.40887 0
M  V30 6139 H 569.068 -1.61045 -2.52991 0
M  V30 6140 H 566.621 -0.870724 -1.298 0
M  V30 6141 H 567.356 0.893505 -3.11748 0
M  V30 6142 H 567.141 -0.720759 -3.85419 0
M  V30 6143 H 568.631 0.21759 -4.17033 0
M  V30 6144 N 569.068 1.32177 -0.85831 0
M  V30 6145 C 570.296 2.01313 -0.477582 0
M  V30 6146 C 570.711 1.6449 0.926736 0
M  V30 6147 O 570.068 0.868096 1.60531 0
M  V30 6148 C 570.119 3.56293 -0.611337 0
M  V30 6149 O 569.84 3.91794 -1.96034 0
M  V30 6150 C 571.341 4.42702 -0.230093 0
M  V30 6151 H 568.561 0.644323 -0.187322 0
M  V30 6152 H 571.105 1.68674 -1.15626 0
M  V30 6153 H 569.26 3.87395 0.0196494 0
M  V30 6154 H 569.674 4.86513 -1.95973 0
M  V30 6155 H 571.148 5.50727 -0.374674 0
M  V30 6156 H 571.625 4.3129 0.829779 0
M  V30 6157 H 572.231 4.16997 -0.836302 0
M  V30 6158 N 570.547 0.616602 1.45037 0
M  V30 6159 C 571.495 -0.109318 2.32343 0
M  V30 6160 C 572.489 -0.850543 1.465 0
M  V30 6161 O 573.695 -0.765088 1.62931 0
M  V30 6162 H 570.07 -0.0541091 0.750051 0
M  V30 6163 H 572.041 0.645326 2.91338 0
M  V30 6164 C 570.79 -1.0872 3.30266 0
M  V30 6165 H 570.113 -0.526267 3.96321 0
M  V30 6166 H 571.553 -1.56489 3.94065 0
M  V30 6167 C 570.012 -2.16525 2.58105 0
M  V30 6168 O 570.542 -3.244 2.36913 0
M  V30 6169 N 568.748 -1.92057 2.18088 0
M  V30 6170 H 568.295 -1.04337 2.35524 0
M  V30 6171 H 568.253 -2.64391 1.70131 0
M  V30 6172 N 572.025 -1.5352 0.356285 0
M  V30 6173 C 573.271 -2.01414 -0.236653 0
M  V30 6174 C 573.604 -1.24339 -1.49176 0
M  V30 6175 O 572.879 -0.334496 -1.91602 0
M  V30 6176 C 573.162 -3.56059 -0.537982 0
M  V30 6177 C 573.015 -4.43835 0.730112 0
M  V30 6178 C 574.334 -4.19127 -1.34239 0
M  V30 6179 H 571.453 -0.732135 -0.0845386 0
M  V30 6180 H 574.095 -1.83854 0.479341 0
M  V30 6181 H 572.245 -3.71153 -1.14795 0
M  V30 6182 H 573.917 -4.40555 1.36782 0
M  V30 6183 H 572.16 -4.1218 1.3524 0
M  V30 6184 H 572.831 -5.49958 0.474358 0
M  V30 6185 H 575.307 -4.07809 -0.826498 0
M  V30 6186 H 574.183 -5.27378 -1.52198 0
M  V30 6187 H 574.444 -3.74581 -2.34822 0
M  V30 6188 N 573.503 -0.0852151 -1.57369 0
M  V30 6189 C 574.733 0.588605 -1.98038 0
M  V30 6190 C 575.141 1.62869 -0.962817 0
M  V30 6191 O 574.484 1.83611 0.057134 0
M  V30 6192 C 574.546 1.30303 -3.35054 0
M  V30 6193 C 574.21 0.414855 -4.55113 0
M  V30 6194 C 575.207 -0.333011 -5.18832 0
M  V30 6195 C 572.892 0.335804 -5.01176 0
M  V30 6196 C 574.886 -1.14801 -6.26976 0
M  V30 6197 C 572.573 -0.482857 -6.09189 0
M  V30 6198 C 573.571 -1.22342 -6.71953 0
M  V30 6199 O 573.259 -2.02855 -7.77885 0
M  V30 6200 H 572.991 0.163249 -0.655992 0
M  V30 6201 H 575.545 -0.1582 -2.0479 0
M  V30 6202 H 573.775 2.0962 -3.24956 0
M  V30 6203 H 575.464 1.87041 -3.60237 0
M  V30 6204 H 576.23 -0.281611 -4.84182 0
M  V30 6205 H 572.109 0.901869 -4.52092 0
M  V30 6206 H 575.653 -1.72654 -6.75897 0
M  V30 6207 H 571.55 -0.535773 -6.43273 0
M  V30 6208 H 572.318 -1.95432 -7.94826 0
M  V30 6209 N 574.981 1.5647 0.188427 0
M  V30 6210 C 576.209 1.85131 0.923803 0
M  V30 6211 C 576.624 0.668537 1.76567 0
M  V30 6212 O 575.981 -0.362662 1.7886 0
M  V30 6213 C 576.032 3.12661 1.81453 0
M  V30 6214 O 575.753 4.26378 1.00665 0
M  V30 6215 C 577.254 3.54548 2.66103 0
M  V30 6216 H 574.474 0.614624 0.269218 0
M  V30 6217 H 577.018 2.03581 0.193671 0
M  V30 6218 H 575.173 2.96088 2.49821 0
M  V30 6219 H 575.587 4.99041 1.61425 0
M  V30 6220 H 577.061 4.4673 3.24247 0
M  V30 6221 H 577.538 2.77853 3.40139 0
M  V30 6222 H 578.144 3.73674 2.03096 0
M  V30 6223 N 576.459 -0.456382 1.50847 0
M  V30 6224 C 577.389 -1.56025 1.73719 0
M  V30 6225 C 578.37 -1.5967 0.586473 0
M  V30 6226 O 579.555 -1.75702 0.827185 0
M  V30 6227 C 576.685 -2.94251 1.84483 0
M  V30 6228 C 575.639 -3.05471 2.99786 0
M  V30 6229 C 574.965 -4.45489 2.95709 0
M  V30 6230 C 576.265 -2.81318 4.40065 0
M  V30 6231 H 577.959 -1.37138 2.66146 0
M  V30 6232 H 575.505 -0.658299 1.28072 0
M  V30 6233 H 577.458 -3.71417 1.99067 0
M  V30 6234 H 576.182 -3.14328 0.886891 0
M  V30 6235 H 574.841 -2.30741 2.84876 0
M  V30 6236 H 574.489 -4.62505 1.97732 0
M  V30 6237 H 574.189 -4.53929 3.73125 0
M  V30 6238 H 575.713 -5.24655 3.12362 0
M  V30 6239 H 577.127 -3.48226 4.55425 0
M  V30 6240 H 575.524 -3.01188 5.19043 0
M  V30 6241 H 576.594 -1.7706 4.51418 0
M  V30 6242 N 577.937 -1.40673 -0.710563 0
M  V30 6243 C 578.847 -1.43663 -1.85467 0
M  V30 6244 C 579.863 -0.328721 -1.70867 0
M  V30 6245 O 581.039 -0.574098 -1.93044 0
M  V30 6246 C 578.104 -1.30226 -3.21313 0
M  V30 6247 C 577.165 -2.51204 -3.48131 0
M  V30 6248 C 576.398 -2.38398 -4.77495 0
M  V30 6249 O 576.621 -1.40048 -5.5294 0
M  V30 6250 O 575.555 -3.2787 -5.04762 0
M  V30 6251 H 579.381 -2.40156 -1.859 0
M  V30 6252 H 576.966 -1.22049 -0.861652 0
M  V30 6253 H 578.848 -1.2496 -4.02446 0
M  V30 6254 H 577.523 -0.368419 -3.21597 0
M  V30 6255 H 576.43 -2.62048 -2.66987 0
M  V30 6256 H 577.763 -3.43366 -3.52648 0
M  V30 6257 N 579.415 0.9433 -1.26252 0
M  V30 6258 C 580.826 1.50404 -1.10614 0
M  V30 6259 C 581.177 1.93666 0.31429 0
M  V30 6260 O 580.302 1.79709 1.20555 0
M  V30 6261 C 580.897 2.73336 -2.00182 0
M  V30 6262 C 579.456 3.25686 -1.88695 0
M  V30 6263 C 578.603 1.98474 -1.93658 0
M  V30 6264 H 581.554 0.759006 -1.39373 0
M  V30 6265 H 581.575 3.47567 -1.54847 0
M  V30 6266 H 581.087 2.41818 -3.03555 0
M  V30 6267 H 579.188 3.61998 -0.882489 0
M  V30 6268 H 579.301 3.92935 -2.74115 0
M  V30 6269 H 577.665 2.14278 -1.37684 0
M  V30 6270 H 578.448 1.6929 -2.98657 0
M  V30 6271 N 580.893 1.08022 1.14757 0
M  V30 6272 C 581.803 0.718292 2.23333 0
M  V30 6273 C 582.819 -0.273477 1.71837 0
M  V30 6274 O 583.995 -0.118406 2.01052 0
M  V30 6275 C 581.06 0.128855 3.4646 0
M  V30 6276 C 580.121 1.17473 4.12915 0
M  V30 6277 C 579.354 0.61333 5.30164 0
M  V30 6278 O 579.577 -0.568458 5.6756 0
M  V30 6279 O 578.511 1.3615 5.86299 0
M  V30 6280 H 582.337 1.62394 2.56636 0
M  V30 6281 H 579.922 0.853628 1.22611 0
M  V30 6282 H 581.804 -0.197249 4.20938 0
M  V30 6283 H 580.479 -0.750014 3.14891 0
M  V30 6284 H 579.386 1.5533 3.40328 0
M  V30 6285 H 580.719 2.02574 4.48581 0
M  V30 6286 N 582.371 -1.3172 0.865308 0
M  V30 6287 C 583.601 -2.00765 0.487543 0
M  V30 6288 C 584.009 -1.65145 -0.92325 0
M  V30 6289 O 583.352 -0.874294 -1.61561 0
M  V30 6290 C 583.414 -3.55122 0.559369 0
M  V30 6291 C 583.078 -4.14202 1.93095 0
M  V30 6292 C 584.075 -4.3165 2.89784 0
M  V30 6293 C 581.76 -4.50036 2.23099 0
M  V30 6294 C 583.754 -4.84114 4.14623 0
M  V30 6295 C 581.441 -5.02203 3.48189 0
M  V30 6296 C 582.439 -5.19192 4.43767 0
M  V30 6297 O 582.127 -5.70241 5.6664 0
M  V30 6298 H 581.859 -0.649066 0.188915 0
M  V30 6299 H 584.413 -1.69032 1.16694 0
M  V30 6300 H 582.643 -3.86295 -0.176926 0
M  V30 6301 H 584.332 -4.05428 0.195694 0
M  V30 6302 H 585.098 -4.04288 2.6791 0
M  V30 6303 H 580.977 -4.36091 1.49485 0
M  V30 6304 H 584.521 -4.9729 4.89233 0
M  V30 6305 H 580.418 -5.28997 3.69908 0
M  V30 6306 H 581.186 -5.88617 5.68746 0
M  V30 6307 N 583.85 -0.624285 -1.44708 0
M  V30 6308 C 585.08 -0.132726 -2.06173 0
M  V30 6309 C 585.488 1.19513 -1.46674 0
M  V30 6310 O 584.831 1.74254 -0.581491 0
M  V30 6311 C 584.893 0.0636732 -3.59444 0
M  V30 6312 C 584.557 -1.18496 -4.4137 0
M  V30 6313 C 585.553 -2.10706 -4.75288 0
M  V30 6314 C 583.239 -1.41846 -4.81856 0
M  V30 6315 C 585.233 -3.24582 -5.48567 0
M  V30 6316 C 582.92 -2.5602 -5.54885 0
M  V30 6317 C 583.918 -3.47215 -5.88159 0
M  V30 6318 O 583.606 -4.59399 -6.59703 0
M  V30 6319 H 583.338 -0.0737313 -0.671967 0
M  V30 6320 H 585.892 -0.856789 -1.86677 0
M  V30 6321 H 584.122 0.842809 -3.77404 0
M  V30 6322 H 585.811 0.508924 -4.02697 0
M  V30 6323 H 586.577 -1.93898 -4.44554 0
M  V30 6324 H 582.456 -0.717556 -4.55381 0
M  V30 6325 H 586 -3.95785 -5.74456 0
M  V30 6326 H 581.897 -2.72774 -5.85034 0
M  V30 6327 H 582.665 -4.58293 -6.78166 0
M  V30 6328 N 585.328 1.53329 -0.364422 0
M  V30 6329 C 586.258 2.28627 0.474543 0
M  V30 6330 C 587.239 1.31009 1.08492 0
M  V30 6331 O 588.424 1.59878 1.10239 0
M  V30 6332 C 585.554 3.07465 1.61501 0
M  V30 6333 C 584.508 4.1276 1.13194 0
M  V30 6334 C 583.834 4.79674 2.36255 0
M  V30 6335 C 585.134 5.21847 0.217507 0
M  V30 6336 H 586.828 2.99005 -0.153656 0
M  V30 6337 H 584.374 1.43803 -0.0753406 0
M  V30 6338 H 586.327 3.58889 2.20855 0
M  V30 6339 H 585.051 2.34775 2.27042 0
M  V30 6340 H 583.71 3.62281 0.56109 0
M  V30 6341 H 583.358 4.03557 3.00251 0
M  V30 6342 H 583.058 5.50827 2.04606 0
M  V30 6343 H 584.582 5.33892 2.96297 0
M  V30 6344 H 585.996 5.6878 0.718493 0
M  V30 6345 H 584.393 6.00099 -0.00806408 0
M  V30 6346 H 585.463 4.7921 -0.740653 0
M  V30 6347 N 586.806 0.0935595 1.57322 0
M  V30 6348 C 587.738 -0.895923 2.10964 0
M  V30 6349 C 588.751 -1.24705 1.04654 0
M  V30 6350 O 589.94 -1.20044 1.32105 0
M  V30 6351 C 587.04 -2.20546 2.57318 0
M  V30 6352 C 586.213 -2.0299 3.87445 0
M  V30 6353 C 585.272 -3.17443 4.19662 0
M  V30 6354 O 584.298 -2.91474 4.88909 0
M  V30 6355 N 585.5 -4.43168 3.74943 0
M  V30 6356 H 588.265 -0.437788 2.96485 0
M  V30 6357 H 585.826 -0.0915863 1.61641 0
M  V30 6358 H 587.818 -2.9606 2.75917 0
M  V30 6359 H 586.388 -2.57789 1.76816 0
M  V30 6360 H 585.608 -1.11815 3.78009 0
M  V30 6361 H 586.896 -1.88535 4.7258 0
M  V30 6362 H 586.294 -4.67149 3.19043 0
M  V30 6363 H 584.851 -5.15637 3.987 0
M  V30 6364 N 588.284 -1.56567 -0.180126 0
M  V30 6365 C 589.216 -1.92275 -1.24751 0
M  V30 6366 C 590.229 -0.814922 -1.40936 0
M  V30 6367 O 591.418 -1.09336 -1.41095 0
M  V30 6368 C 588.518 -2.15265 -2.61752 0
M  V30 6369 C 587.691 -3.46467 -2.66981 0
M  V30 6370 C 586.75 -3.58391 -3.85283 0
M  V30 6371 O 585.776 -4.31086 -3.7169 0
M  V30 6372 N 586.978 -2.92587 -5.01371 0
M  V30 6373 H 589.743 -2.84435 -0.944302 0
M  V30 6374 H 587.304 -1.57617 -0.369952 0
M  V30 6375 H 589.296 -2.20515 -3.39345 0
M  V30 6376 H 587.866 -1.29533 -2.845 0
M  V30 6377 H 587.086 -3.52953 -1.75549 0
M  V30 6378 H 588.374 -4.32819 -2.67479 0
M  V30 6379 H 587.772 -2.3338 -5.15316 0
M  V30 6380 H 586.329 -3.03444 -5.76858 0
M  V30 6381 N 589.762 0.448376 -1.51087 0
M  V30 6382 C 591.011 1.19561 -1.62444 0
M  V30 6383 C 591.324 1.92602 -0.341151 0
M  V30 6384 O 592.53 2.69439 -0.333936 0
M  V30 6385 C 590.986 2.17373 -2.8684 0
M  V30 6386 C 590.594 1.5003 -4.22131 0
M  V30 6387 C 592.338 2.92597 -3.0755 0
M  V30 6388 C 590.245 2.46262 -5.37689 0
M  V30 6389 H 589.175 0.449975 -0.605011 0
M  V30 6390 H 591.826 0.463735 -1.77544 0
M  V30 6391 H 590.208 2.93948 -2.65349 0
M  V30 6392 H 591.382 0.790886 -4.53962 0
M  V30 6393 H 589.697 0.870011 -4.0721 0
M  V30 6394 H 592.294 3.64663 -3.91056 0
M  V30 6395 H 592.637 3.53306 -2.20183 0
M  V30 6396 H 593.17 2.23131 -3.29329 0
M  V30 6397 H 589.909 1.90258 -6.27281 0
M  V30 6398 H 589.429 3.15289 -5.10248 0
M  V30 6399 H 591.108 3.07623 -5.6919 0
M  V30 6400 N 591.24 1.41047 0.703093 0
M  V30 6401 C 592.487 1.4 1.46309 0
M  V30 6402 C 592.815 0.00654574 1.94499 0
M  V30 6403 O 592.07 -0.980255 1.6938 0
M  V30 6404 C 592.369 2.34686 2.6955 0
M  V30 6405 C 592.035 3.81684 2.40058 0
M  V30 6406 C 590.697 4.21731 2.31725 0
M  V30 6407 C 593.049 4.74525 2.15581 0
M  V30 6408 C 590.377 5.52637 1.97001 0
M  V30 6409 C 592.729 6.05744 1.82366 0
M  V30 6410 C 591.393 6.44819 1.72524 0
M  V30 6411 H 590.663 0.512295 0.535382 0
M  V30 6412 H 593.31 1.73792 0.804275 0
M  V30 6413 H 591.615 1.94122 3.40329 0
M  V30 6414 H 593.312 2.31152 3.27673 0
M  V30 6415 H 589.902 3.49963 2.47435 0
M  V30 6416 H 594.086 4.44395 2.20968 0
M  V30 6417 H 589.342 5.81802 1.87928 0
M  V30 6418 H 593.516 6.77189 1.62444 0
M  V30 6419 H 591.143 7.46168 1.45385 0
M  V30 6420 N 592.718 -0.936591 1.26751 0
M  V30 6421 C 593.995 -1.66094 1.03306 0
M  V30 6422 C 594.375 -2.06568 -0.435058 0
M  V30 6423 O 593.723 -1.79305 -1.41641 0
M  V30 6424 C 593.933 -2.86969 1.98619 0
M  V30 6425 C 595.281 -3.58516 2.27489 0
M  V30 6426 O 596.305 -2.97082 1.96522 0
M  V30 6427 O 595.164 -4.69181 2.80235 0
M  V30 6428 H 592.258 -0.727568 0.393158 0
M  V30 6429 H 594.804 -0.987914 1.3798 0
M  V30 6430 H 593.576 -2.53985 2.9767 0
M  V30 6431 H 593.199 -3.61996 1.64454 0
M  V30 6432 N 594.196 -1.08629 -1.14182 0
M  V30 6433 C 595.443 -0.817345 -1.85272 0
M  V30 6434 C 595.771 0.656917 -1.83071 0
M  V30 6435 O 595.026 1.49897 -1.25815 0
M  V30 6436 C 595.325 -1.28734 -3.3341 0
M  V30 6437 C 594.991 -2.76981 -3.55798 0
M  V30 6438 C 593.653 -3.17469 -3.61617 0
M  V30 6439 C 596.005 -3.72605 -3.64438 0
M  V30 6440 C 593.333 -4.52371 -3.736 0
M  V30 6441 C 595.685 -5.07286 -3.77947 0
M  V30 6442 C 594.349 -5.47376 -3.82016 0
M  V30 6443 H 593.619 -0.299088 -0.677958 0
M  V30 6444 H 596.266 -1.35962 -1.34857 0
M  V30 6445 H 594.571 -0.664702 -3.8612 0
M  V30 6446 H 596.268 -1.05598 -3.86846 0
M  V30 6447 H 592.858 -2.44644 -3.51919 0
M  V30 6448 H 597.042 -3.42443 -3.5923 0
M  V30 6449 H 592.298 -4.82882 -3.75013 0
M  V30 6450 H 596.472 -5.81243 -3.83575 0
M  V30 6451 H 594.099 -6.51906 -3.91054 0
M  V30 6452 N 595.674 1.31259 -0.872281 0
M  V30 6453 C 596.922 1.96233 -0.483409 0
M  V30 6454 C 597.243 1.69276 0.968012 0
M  V30 6455 O 596.513 1.00943 1.67891 0
M  V30 6456 H 595.093 0.726025 -0.175774 0
M  V30 6457 H 597.755 1.60024 -1.11258 0
M  V30 6458 H 596.851 3.05403 -0.643075 0
M  V30 6459 N 597.152 0.631951 1.44375 0
M  V30 6460 C 598.401 0.134214 2.01253 0
M  V30 6461 C 598.714 -1.25171 1.50305 0
M  V30 6462 O 599.92 -1.8435 1.99317 0
M  V30 6463 C 598.376 0.189187 3.59402 0
M  V30 6464 C 597.984 1.57647 4.19346 0
M  V30 6465 C 599.728 -0.252044 4.23751 0
M  V30 6466 C 597.635 1.58651 5.69722 0
M  V30 6467 H 596.565 0.0464101 0.75257 0
M  V30 6468 H 599.216 0.790868 1.65582 0
M  V30 6469 H 597.598 -0.534584 3.92375 0
M  V30 6470 H 598.772 2.32389 3.97909 0
M  V30 6471 H 597.087 1.96186 3.67288 0
M  V30 6472 H 599.684 -0.264084 5.34047 0
M  V30 6473 H 600.027 -1.27951 3.96149 0
M  V30 6474 H 600.56 0.41926 3.95584 0
M  V30 6475 H 597.299 2.59237 6.0206 0
M  V30 6476 H 596.819 0.882039 5.93279 0
M  V30 6477 H 598.498 1.32082 6.33375 0
M  V30 6478 N 598.631 -1.53133 0.372548 0
M  V30 6479 C 599.856 -2.0625 -0.218098 0
M  V30 6480 C 600.281 -1.24375 -1.41111 0
M  V30 6481 O 599.639 -0.264554 -1.79359 0
M  V30 6482 C 599.687 -3.55858 -0.582876 0
M  V30 6483 O 598.791 -3.76667 -1.67917 0
M  V30 6484 H 598.132 -0.663317 -0.030104 0
M  V30 6485 H 600.662 -1.97477 0.535169 0
M  V30 6486 H 600.672 -3.99007 -0.851925 0
M  V30 6487 H 599.347 -4.14892 0.289428 0
M  V30 6488 H 597.924 -3.45413 -1.40513 0
M  V30 6489 N 600.109 -0.101901 -1.5727 0
M  V30 6490 C 601.039 0.851544 -2.17419 0
M  V30 6491 C 602.02 1.28942 -1.10941 0
M  V30 6492 O 603.205 1.35509 -1.39107 0
M  V30 6493 C 600.335 2.10816 -2.75996 0
M  V30 6494 C 599.289 1.80867 -3.87906 0
M  V30 6495 C 598.615 3.13413 -4.33216 0
M  V30 6496 C 599.915 1.0903 -5.10793 0
M  V30 6497 H 601.609 0.350381 -2.97343 0
M  V30 6498 H 599.155 0.16709 -1.43027 0
M  V30 6499 H 601.108 2.77959 -3.16729 0
M  V30 6500 H 599.832 2.63227 -1.93337 0
M  V30 6501 H 598.491 1.16119 -3.47724 0
M  V30 6502 H 598.139 3.63725 -3.47438 0
M  V30 6503 H 597.839 2.94155 -5.08671 0
M  V30 6504 H 599.363 3.81704 -4.76586 0
M  V30 6505 H 600.777 1.66295 -5.48652 0
M  V30 6506 H 599.174 0.99927 -5.91722 0
M  V30 6507 H 600.244 0.0741704 -4.84843 0
M  V30 6508 N 601.587 1.56661 0.17182 0
M  V30 6509 C 602.827 1.83762 0.895029 0
M  V30 6510 C 603.191 0.682752 1.79451 0
M  V30 6511 O 604.392 0.834208 2.55528 0
M  V30 6512 C 602.663 3.15976 1.67015 0
M  V30 6513 S 604.222 3.64558 2.44219 0
M  V30 6514 H 601.04 0.644713 0.299778 0
M  V30 6515 H 603.642 1.94871 0.156701 0
M  V30 6516 H 602.346 3.98021 1.00039 0
M  V30 6517 H 601.877 3.07807 2.44986 0
M  V30 6518 H 603.892 3.31845 3.68909 0
M  V30 6519 N 603.065 -0.440357 1.51323 0
M  V30 6520 C 603.998 -1.55414 1.67098 0
M  V30 6521 C 604.976 -1.54108 0.518599 0
M  V30 6522 O 606.16 -1.7328 0.742054 0
M  V30 6523 C 603.287 -2.93996 1.68179 0
M  V30 6524 C 602.333 -3.13338 2.89347 0
M  V30 6525 S 603.166 -2.89957 4.50206 0
M  V30 6526 C 604.322 -4.30826 4.54027 0
M  V30 6527 H 604.555 -1.41798 2.61306 0
M  V30 6528 H 602.088 -0.629841 1.40969 0
M  V30 6529 H 604.046 -3.73878 1.69487 0
M  V30 6530 H 602.707 -3.04976 0.751542 0
M  V30 6531 H 601.9 -4.14652 2.86495 0
M  V30 6532 H 601.502 -2.41276 2.85766 0
M  V30 6533 H 603.794 -5.23977 4.29481 0
M  V30 6534 H 604.737 -4.38712 5.55822 0
M  V30 6535 H 605.145 -4.1434 3.83384 0
M  V30 6536 N 604.543 -1.41418 -0.695603 0
M  V30 6537 C 605.789 -1.40982 -1.4578 0
M  V30 6538 C 606.122 -0.0187763 -1.94191 0
M  V30 6539 O 605.397 0.95346 -1.69527 0
M  V30 6540 C 605.68 -2.41657 -2.66972 0
M  V30 6541 C 605.533 -3.89869 -2.24327 0
M  V30 6542 C 606.852 -2.39589 -3.69168 0
M  V30 6543 H 603.971 -0.513405 -0.528757 0
M  V30 6544 H 606.613 -1.72693 -0.792275 0
M  V30 6545 H 604.763 -2.14746 -3.23754 0
M  V30 6546 H 606.435 -4.27683 -1.72872 0
M  V30 6547 H 604.678 -4.04737 -1.56111 0
M  V30 6548 H 605.349 -4.55857 -3.11285 0
M  V30 6549 H 607.825 -2.63471 -3.2206 0
M  V30 6550 H 606.701 -3.12044 -4.51575 0
M  V30 6551 H 606.962 -1.41447 -4.18862 0
M  V30 6552 N 606.021 0.929856 -1.27246 0
M  V30 6553 C 607.246 1.71674 -1.16374 0
M  V30 6554 C 607.671 1.86064 0.276024 0
M  V30 6555 O 607.029 1.3591 1.19992 0
M  V30 6556 C 607.077 3.09526 -1.85003 0
M  V30 6557 O 606.181 3.96142 -1.14653 0
M  V30 6558 H 605.522 0.52629 -0.404863 0
M  V30 6559 H 608.052 1.16381 -1.68276 0
M  V30 6560 H 608.062 3.59852 -1.92276 0
M  V30 6561 H 606.737 2.98369 -2.89739 0
M  V30 6562 H 605.314 3.54584 -1.15433 0
M  V30 6563 N 607.499 1.09233 1.13605 0
M  V30 6564 C 608.748 0.82205 1.84188 0
M  V30 6565 C 609.061 -0.654548 1.84323 0
M  V30 6566 O 610.267 -1.04029 2.50779 0
M  V30 6567 C 608.723 1.42066 3.30674 0
M  V30 6568 C 608.331 2.92965 3.38933 0
M  V30 6569 C 610.075 1.22924 4.06313 0
M  V30 6570 C 607.982 3.45922 4.79679 0
M  V30 6571 H 606.912 0.303854 0.690064 0
M  V30 6572 H 609.563 1.31479 1.28006 0
M  V30 6573 H 607.945 0.855613 3.86646 0
M  V30 6574 H 609.119 3.55679 2.92966 0
M  V30 6575 H 607.434 3.11118 2.76757 0
M  V30 6576 H 610.031 1.59945 5.10217 0
M  V30 6577 H 610.374 0.169726 4.15954 0
M  V30 6578 H 610.907 1.76168 3.56665 0
M  V30 6579 H 607.646 4.51484 4.75229 0
M  V30 6580 H 607.166 2.87971 5.26149 0
M  V30 6581 H 608.845 3.43009 5.48592 0
M  V30 6582 N 608.977 -1.30795 0.87923 0
M  V30 6583 C 610.226 -1.95636 0.490875 0
M  V30 6584 C 610.539 -1.70214 -0.963674 0
M  V30 6585 O 611.745 -2.28991 -1.45861 0
M  V30 6586 C 610.201 -3.50271 0.826929 0
M  V30 6587 C 609.809 -3.84521 2.29886 0
M  V30 6588 C 611.553 -4.21456 0.507494 0
M  V30 6589 C 609.46 -5.32309 2.57685 0
M  V30 6590 H 608.39 -0.732238 0.179841 0
M  V30 6591 H 611.041 -1.48829 1.07341 0
M  V30 6592 H 609.423 -3.9562 0.173542 0
M  V30 6593 H 610.597 -3.50102 2.99609 0
M  V30 6594 H 608.912 -3.26425 2.58526 0
M  V30 6595 H 611.509 -5.30199 0.692293 0
M  V30 6596 H 611.852 -4.12614 -0.552718 0
M  V30 6597 H 612.385 -3.81772 1.11782 0
M  V30 6598 H 609.124 -5.46195 3.62424 0
M  V30 6599 H 608.644 -5.68048 1.92566 0
M  V30 6600 H 610.323 -5.99678 2.42889 0
M  V30 6601 N 610.455 -0.639598 -1.44038 0
M  V30 6602 C 611.866 -0.228866 -1.85292 0
M  V30 6603 C 612.217 1.22161 -1.53529 0
M  V30 6604 O 611.342 1.93064 -0.977518 0
M  V30 6605 C 611.937 -0.408592 -3.36327 0
M  V30 6606 C 610.496 -0.0522953 -3.76364 0
M  V30 6607 C 609.643 -0.717959 -2.67844 0
M  V30 6608 H 612.594 -0.844194 -1.34384 0
M  V30 6609 H 612.615 0.349968 -3.78887 0
M  V30 6610 H 612.127 -1.46435 -3.59414 0
M  V30 6611 H 610.228 1.0014 -3.58891 0
M  V30 6612 H 610.341 -0.468261 -4.76806 0
M  V30 6613 H 608.705 -0.152459 -2.54243 0
M  V30 6614 H 609.488 -1.77648 -2.93762 0
M  V30 6615 N 611.933 1.52934 -0.380664 0
M  V30 6616 C 613.179 2.01765 0.20458 0
M  V30 6617 C 613.512 1.26696 1.47179 0
M  V30 6618 O 612.787 0.364936 1.91046 0
M  V30 6619 C 613.07 3.56869 0.481269 0
M  V30 6620 C 612.923 4.42617 -0.800629 0
M  V30 6621 C 614.242 4.2121 1.27554 0
M  V30 6622 H 611.361 0.733388 0.0728803 0
M  V30 6623 H 614.003 1.83068 -0.50853 0
M  V30 6624 H 612.153 3.72932 1.08875 0
M  V30 6625 H 613.825 4.38323 -1.43773 0
M  V30 6626 H 612.068 4.09977 -1.4178 0
M  V30 6627 H 612.739 5.49134 -0.561791 0
M  V30 6628 H 615.215 4.09072 0.761514 0
M  V30 6629 H 614.091 5.29732 1.43788 0
M  V30 6630 H 614.352 3.78269 2.28833 0
M  V30 6631 N 613.412 0.11024 1.57214 0
M  V30 6632 C 614.689 -0.592956 1.86396 0
M  V30 6633 C 615.069 -1.85379 1.00985 0
M  V30 6634 O 614.417 -2.28337 0.0863592 0
M  V30 6635 C 614.627 -0.893816 3.3736 0
M  V30 6636 C 615.975 -1.25069 4.05762 0
M  V30 6637 O 616.999 -0.984356 3.42329 0
M  V30 6638 O 615.858 -1.75017 5.17718 0
M  V30 6639 H 612.952 -0.29828 0.771335 0
M  V30 6640 H 615.498 0.144083 1.69087 0
M  V30 6641 H 614.27 2.6031e-05 3.913 0
M  V30 6642 H 613.893 -1.68631 3.60068 0
M  V30 6643 N 614.89 -1.56749 -0.16351 0
M  V30 6644 C 615.82 -2.00042 -1.20438 0
M  V30 6645 C 616.801 -0.877256 -1.45733 0
M  V30 6646 O 617.986 -1.1439 -1.56935 0
M  V30 6647 C 615.116 -2.36697 -2.54149 0
M  V30 6648 C 614.07 -3.52046 -2.43408 0
M  V30 6649 C 613.396 -3.74466 -3.81679 0
M  V30 6650 C 614.696 -4.85247 -1.93216 0
M  V30 6651 H 616.39 -2.87244 -0.844477 0
M  V30 6652 H 613.936 -1.38194 -0.40478 0
M  V30 6653 H 615.889 -2.65582 -3.27176 0
M  V30 6654 H 614.613 -1.46414 -2.91943 0
M  V30 6655 H 613.272 -3.23301 -1.72834 0
M  V30 6656 H 612.92 -2.81461 -4.1688 0
M  V30 6657 H 612.62 -4.52084 -3.75359 0
M  V30 6658 H 614.144 -4.0576 -4.5628 0
M  V30 6659 H 615.558 -5.12957 -2.56023 0
M  V30 6660 H 613.955 -5.66556 -1.97825 0
M  V30 6661 H 615.025 -4.7672 -0.88689 0
M  V30 6662 N 616.368 0.432326 -1.51554 0
M  V30 6663 C 617.316 1.54572 -1.73811 0
M  V30 6664 C 618.31 1.58246 -0.604539 0
M  V30 6665 O 619.516 1.6193 -0.786041 0
M  V30 6666 H 615.891 0.513626 -0.549265 0
M  V30 6667 H 617.862 1.32977 -2.67132 0
M  V30 6668 C 616.611 2.92181 -1.88483 0
M  V30 6669 H 615.934 2.90088 -2.75116 0
M  V30 6670 H 617.374 3.69439 -2.08065 0
M  V30 6671 C 615.833 3.3065 -0.645909 0
M  V30 6672 O 616.363 4.01216 0.197093 0
M  V30 6673 N 614.569 2.86464 -0.488538 0
M  V30 6674 H 614.116 2.29209 -1.17562 0
M  V30 6675 H 614.074 3.12565 0.339156 0
M  V30 6676 N 617.846 1.41785 0.688094 0
M  V30 6677 C 618.793 1.44221 1.80191 0
M  V30 6678 C 619.763 0.295688 1.63447 0
M  V30 6679 O 620.948 0.49783 1.84191 0
M  V30 6680 C 618.088 1.33743 3.1813 0
M  V30 6681 C 617.201 2.58325 3.46254 0
M  V30 6682 C 616.336 2.40086 4.73848 0
M  V30 6683 C 615.375 3.60107 4.94964 0
M  V30 6684 N 614.512 3.40892 6.13789 0
M  V30 6685 H 619.352 2.39411 1.77444 0
M  V30 6686 H 616.889 1.18876 0.866423 0
M  V30 6687 H 618.847 1.25669 3.97823 0
M  V30 6688 H 617.477 0.42157 3.20035 0
M  V30 6689 H 616.529 2.7682 2.60912 0
M  V30 6690 H 617.841 3.4758 3.57756 0
M  V30 6691 H 616.995 2.29522 5.61609 0
M  V30 6692 H 615.734 1.483 4.64606 0
M  V30 6693 H 614.739 3.71118 4.05649 0
M  V30 6694 H 615.964 4.52857 5.06061 0
M  V30 6695 H 613.91 2.51812 6.05745 0
M  V30 6696 H 613.827 4.23727 6.26092 0
M  V30 6697 H 615.095 3.34114 7.04264 0
M  V30 6698 N 619.324 -0.923095 1.27737 0
M  V30 6699 C 620.272 -2.04567 1.10703 0
M  V30 6700 C 621.266 -1.69375 0.0288445 0
M  V30 6701 O 622.472 -1.79027 0.186913 0
M  V30 6702 H 618.847 -0.670109 0.34126 0
M  V30 6703 H 620.818 -2.1608 2.05796 0
M  V30 6704 C 619.567 -3.38934 0.775837 0
M  V30 6705 H 618.89 -3.66501 1.59741 0
M  V30 6706 H 620.33 -4.18239 0.696548 0
M  V30 6707 C 618.789 -3.32863 -0.520012 0
M  V30 6708 O 619.319 -3.70462 -1.55308 0
M  V30 6709 N 617.525 -2.85958 -0.51732 0
M  V30 6710 H 617.072 -2.55557 0.32379 0
M  V30 6711 H 617.03 -2.82279 -1.38441 0
M  V30 6712 N 620.802 -1.09834 -1.13024 0
M  V30 6713 C 622.03 -0.858902 -1.8823 0
M  V30 6714 C 622.445 0.590164 -1.79339 0
M  V30 6715 O 621.802 1.4065 -1.16292 0
M  V30 6716 C 621.853 -1.29066 -3.37675 0
M  V30 6717 O 621.574 -2.6829 -3.46341 0
M  V30 6718 C 623.075 -1.08421 -4.29837 0
M  V30 6719 H 620.295 -0.308713 -0.595766 0
M  V30 6720 H 622.839 -1.4614 -1.4305 0
M  V30 6721 H 620.994 -0.731961 -3.80422 0
M  V30 6722 H 621.408 -2.86598 -4.39274 0
M  V30 6723 H 622.882 -1.43553 -5.33007 0
M  V30 6724 H 623.359 -0.0223315 -4.39194 0
M  V30 6725 H 623.965 -1.62907 -3.92863 0
M  V30 6726 N 622.28 1.30327 -0.886154 0
M  V30 6727 C 623.527 1.96097 -0.505192 0
M  V30 6728 C 623.855 1.69952 0.945868 0
M  V30 6729 O 623.11 0.997653 1.68361 0
M  V30 6730 C 623.409 3.49906 -0.728042 0
M  V30 6731 C 623.075 3.96103 -2.15437 0
M  V30 6732 C 621.737 4.08428 -2.5444 0
M  V30 6733 C 624.089 4.20177 -3.08384 0
M  V30 6734 C 621.417 4.42189 -3.85598 0
M  V30 6735 C 623.769 4.55407 -4.39075 0
M  V30 6736 C 622.433 4.65941 -4.7797 0
M  V30 6737 H 621.703 0.71757 -0.184863 0
M  V30 6738 H 624.35 1.55171 -1.12223 0
M  V30 6739 H 622.655 3.9179 -0.027978 0
M  V30 6740 H 624.352 3.98869 -0.412862 0
M  V30 6741 H 620.942 3.87017 -1.84162 0
M  V30 6742 H 625.126 4.10134 -2.7947 0
M  V30 6743 H 620.382 4.48544 -4.15473 0
M  V30 6744 H 624.556 4.72986 -5.11133 0
M  V30 6745 H 622.183 4.91856 -5.79639 0
M  V30 6746 N 623.758 0.647228 1.43697 0
M  V30 6747 C 625.007 0.155552 2.01099 0
M  V30 6748 C 625.32 -1.23569 1.51624 0
M  V30 6749 O 626.526 -1.82226 2.01261 0
M  V30 6750 C 624.982 0.227296 3.59182 0
M  V30 6751 C 624.59 1.62086 4.17651 0
M  V30 6752 C 626.334 -0.207085 4.23995 0
M  V30 6753 C 624.241 1.64685 5.68008 0
M  V30 6754 H 623.171 0.0543895 0.752036 0
M  V30 6755 H 625.822 0.808386 1.64734 0
M  V30 6756 H 624.204 -0.492937 3.9292 0
M  V30 6757 H 625.378 2.36597 3.95422 0
M  V30 6758 H 623.693 2.0007 3.65186 0
M  V30 6759 H 626.29 -0.207426 5.34298 0
M  V30 6760 H 626.633 -1.23742 3.97484 0
M  V30 6761 H 627.166 0.461193 3.95118 0
M  V30 6762 H 623.905 2.65608 5.99277 0
M  V30 6763 H 623.425 0.944914 5.9231 0
M  V30 6764 H 625.104 1.38792 6.31938 0
M  V30 6765 N 625.236 -1.5273 0.388769 0
M  V30 6766 C 626.166 -2.29353 -0.438111 0
M  V30 6767 C 627.147 -1.32719 -1.06394 0
M  V30 6768 O 628.332 -1.61612 -1.07681 0
M  V30 6769 C 625.462 -3.09995 -1.56589 0
M  V30 6770 C 624.416 -4.14509 -1.06613 0
M  V30 6771 C 623.742 -4.83372 -2.28594 0
M  V30 6772 C 625.042 -5.22127 -0.134459 0
M  V30 6773 H 626.736 -2.98723 0.201206 0
M  V30 6774 H 624.282 -1.43665 0.0982089 0
M  V30 6775 H 626.235 -3.62357 -2.15118 0
M  V30 6776 H 624.959 -2.38357 -2.23279 0
M  V30 6777 H 623.618 -3.63128 -0.503383 0
M  V30 6778 H 623.266 -4.08283 -2.93792 0
M  V30 6779 H 622.966 -5.54012 -1.95817 0
M  V30 6780 H 624.49 -5.38538 -2.87766 0
M  V30 6781 H 625.904 -5.69851 -0.627914 0
M  V30 6782 H 624.301 -6.00011 0.103534 0
M  V30 6783 H 625.371 -4.77971 0.816798 0
M  V30 6784 N 626.714 -0.118576 -1.57153 0
M  V30 6785 C 627.962 0.538461 -1.94795 0
M  V30 6786 C 628.283 1.67243 -1.00274 0
M  V30 6787 O 627.553 1.95811 -0.0589692 0
M  V30 6788 H 626.133 0.201904 -0.719197 0
M  V30 6789 H 628.795 -0.187418 -1.93997 0
M  V30 6790 H 627.891 0.933315 -2.97818 0
M  V30 6791 N 628.193 1.56834 0.155195 0
M  V30 6792 C 629.47 1.73799 0.897395 0
M  V30 6793 C 629.85 0.684379 1.99698 0
M  V30 6794 O 629.198 -0.298111 2.26547 0
M  V30 6795 C 629.408 3.17572 1.44737 0
M  V30 6796 C 630.756 3.79014 1.91399 0
M  V30 6797 O 631.78 3.20951 1.54496 0
M  V30 6798 O 630.639 4.80998 2.59429 0
M  V30 6799 H 627.733 0.710329 0.423511 0
M  V30 6800 H 630.279 1.69107 0.141761 0
M  V30 6801 H 629.051 3.85749 0.656741 0
M  V30 6802 H 628.674 3.26657 2.26674 0
M  V30 6803 N 629.671 -0.424282 1.51781 0
M  V30 6804 C 631.082 -1.00368 1.57427 0
M  V30 6805 C 631.433 -1.91962 0.40558 0
M  V30 6806 O 630.558 -2.111 -0.47601 0
M  V30 6807 C 631.153 -1.82707 2.85313 0
M  V30 6808 C 629.712 -2.35675 2.93487 0
M  V30 6809 C 628.859 -1.1524 2.5222 0
M  V30 6810 H 631.81 -0.205064 1.5737 0
M  V30 6811 H 631.831 -2.68294 2.69812 0
M  V30 6812 H 631.343 -1.16017 3.70353 0
M  V30 6813 H 629.444 -3.05781 2.12906 0
M  V30 6814 H 629.557 -2.67578 3.97415 0
M  V30 6815 H 627.921 -1.50174 2.05718 0
M  V30 6816 H 628.704 -0.5014 3.39619 0
M  V30 6817 N 631.149 -1.42148 -0.680565 0
M  V30 6818 C 632.396 -1.4231 -1.44063 0
M  V30 6819 C 632.724 -0.037488 -1.94464 0
M  V30 6820 O 631.979 0.953184 -1.70918 0
M  V30 6821 C 632.278 -2.38945 -2.65782 0
M  V30 6822 C 631.944 -3.85455 -2.33956 0
M  V30 6823 C 630.606 -4.25364 -2.24987 0
M  V30 6824 C 632.958 -4.77895 -2.08004 0
M  V30 6825 C 630.286 -5.55701 -1.88184 0
M  V30 6826 C 632.638 -6.08568 -1.72706 0
M  V30 6827 C 631.302 -6.47482 -1.62244 0
M  V30 6828 H 630.572 -0.520748 -0.527164 0
M  V30 6829 H 633.219 -1.7505 -0.776524 0
M  V30 6830 H 631.524 -1.99511 -3.37198 0
M  V30 6831 H 633.221 -2.36336 -3.23954 0
M  V30 6832 H 629.811 -3.53855 -2.41836 0
M  V30 6833 H 633.995 -4.47854 -2.1387 0
M  V30 6834 H 629.251 -5.84718 -1.78648 0
M  V30 6835 H 633.425 -6.79688 -1.5165 0
M  V30 6836 H 631.052 -7.48387 -1.33496 0
M  V30 6837 N 632.627 0.916307 -1.28225 0
M  V30 6838 C 633.56 2.01954 -1.06254 0
M  V30 6839 C 634.538 1.62587 0.0205983 0
M  V30 6840 O 635.722 1.88073 -0.126824 0
M  V30 6841 C 632.849 3.33086 -0.614141 0
M  V30 6842 C 631.895 3.91435 -1.69354 0
M  V30 6843 S 632.728 4.22603 -3.28887 0
M  V30 6844 C 633.884 5.568 -2.85876 0
M  V30 6845 H 634.117 2.20281 -1.99659 0
M  V30 6846 H 631.65 1.06085 -1.12184 0
M  V30 6847 H 633.608 4.089 -0.36213 0
M  V30 6848 H 632.269 3.12664 0.300036 0
M  V30 6849 H 631.462 4.86098 -1.33136 0
M  V30 6850 H 631.064 3.22248 -1.89821 0
M  V30 6851 H 633.356 6.3658 -2.31888 0
M  V30 6852 H 634.299 5.97927 -3.79326 0
M  V30 6853 H 634.707 5.17865 -2.24669 0
M  V30 6854 N 634.105 1.10431 1.1244 0
M  V30 6855 C 635.521 0.836096 1.35947 0
M  V30 6856 C 635.721 -0.544475 1.94004 0
M  V30 6857 O 634.777 -1.29735 2.16622 0
M  V30 6858 C 636.09 1.93575 2.30107 0
M  V30 6859 C 637.638 1.9642 2.43697 0
M  V30 6860 C 638.113 3.05559 3.41171 0
M  V30 6861 N 639.604 3.04865 3.48728 0
M  V30 6862 C 640.339 3.85954 4.24061 0
M  V30 6863 N 639.835 4.76977 5.02458 0
M  V30 6864 N 641.628 3.74172 4.19466 0
M  V30 6865 H 633.779 1.9942 0.731124 0
M  V30 6866 H 636.042 0.866607 0.384312 0
M  V30 6867 H 635.748 2.92943 1.94621 0
M  V30 6868 H 635.622 1.8229 3.30227 0
M  V30 6869 H 638.009 0.97685 2.78463 0
M  V30 6870 H 638.09 2.11782 1.43465 0
M  V30 6871 H 637.734 4.04513 3.07135 0
M  V30 6872 H 637.664 2.87438 4.41234 0
M  V30 6873 H 640.155 2.38908 2.92799 0
M  V30 6874 H 640.468 5.35409 5.57277 0
M  V30 6875 H 638.813 4.81006 5.01655 0
M  V30 6876 H 642.004 3.02412 3.57302 0
M  V30 6877 H 642.177 4.37602 4.77921 0
M  V30 6878 N 635.583 -1.29855 0.893053 0
M  V30 6879 C 636.53 -2.27909 0.364161 0
M  V30 6880 C 637.5 -1.56726 -0.550093 0
M  V30 6881 O 638.685 -1.84747 -0.47677 0
M  V30 6882 C 635.825 -3.42678 -0.408178 0
M  V30 6883 C 634.938 -4.28659 0.536212 0
M  V30 6884 C 634.073 -5.30599 -0.252521 0
M  V30 6885 C 633.112 -6.08234 0.686822 0
M  V30 6886 N 632.249 -7.02068 -0.0670902 0
M  V30 6887 H 637.089 -2.72531 1.20544 0
M  V30 6888 H 634.626 -1.34047 0.605779 0
M  V30 6889 H 636.584 -4.07986 -0.871962 0
M  V30 6890 H 635.214 -2.99103 -1.21397 0
M  V30 6891 H 634.266 -3.63584 1.1185 0
M  V30 6892 H 635.578 -4.8274 1.25552 0
M  V30 6893 H 634.732 -6.01694 -0.777801 0
M  V30 6894 H 633.471 -4.77233 -1.005 0
M  V30 6895 H 632.476 -5.3601 1.22366 0
M  V30 6896 H 633.701 -6.63689 1.43852 0
M  V30 6897 H 631.647 -6.5108 -0.801955 0
M  V30 6898 H 631.564 -7.53675 0.59243 0
M  V30 6899 H 632.832 -7.77392 -0.572851 0
M  V30 6900 N 637.061 -0.65484 -1.43351 0
M  V30 6901 C 638.291 -0.176429 -2.05845 0
M  V30 6902 C 638.699 1.16375 -1.49176 0
M  V30 6903 O 638.042 1.72981 -0.618322 0
M  V30 6904 C 638.104 -0.0125844 -3.59498 0
M  V30 6905 C 637.768 -1.27831 -4.38758 0
M  V30 6906 C 638.765 -2.2074 -4.70712 0
M  V30 6907 C 636.45 -1.52035 -4.78739 0
M  V30 6908 C 638.444 -3.36145 -5.41558 0
M  V30 6909 C 636.131 -2.67732 -5.49329 0
M  V30 6910 C 637.129 -3.59612 -5.80662 0
M  V30 6911 O 636.817 -4.73289 -6.4981 0
M  V30 6912 H 636.549 -0.0879682 -0.670252 0
M  V30 6913 H 639.103 -0.896193 -1.84818 0
M  V30 6914 H 637.333 0.762567 -3.79107 0
M  V30 6915 H 639.022 0.423392 -4.03686 0
M  V30 6916 H 639.788 -2.03284 -4.40341 0
M  V30 6917 H 635.667 -0.813987 -4.53757 0
M  V30 6918 H 639.211 -4.07881 -5.65932 0
M  V30 6919 H 635.108 -2.85122 -5.79116 0
M  V30 6920 H 635.876 -4.72575 -6.68293 0
M  V30 6921 N 638.539 1.52521 -0.396863 0
M  V30 6922 C 639.786 2.01672 0.182898 0
M  V30 6923 C 640.114 1.28302 1.46181 0
M  V30 6924 O 639.369 0.374118 1.92091 0
M  V30 6925 C 639.668 3.5403 0.489677 0
M  V30 6926 C 639.334 4.45456 -0.698581 0
M  V30 6927 C 637.996 4.70166 -1.02454 0
M  V30 6928 C 640.348 4.99354 -1.49316 0
M  V30 6929 C 637.676 5.46024 -2.1465 0
M  V30 6930 C 640.028 5.76439 -2.60579 0
M  V30 6931 C 638.692 5.99426 -2.93675 0
M  V30 6932 H 637.962 0.737971 0.066927 0
M  V30 6933 H 640.609 1.83853 -0.535764 0
M  V30 6934 H 638.914 3.69963 1.28976 0
M  V30 6935 H 640.611 3.8956 0.951018 0
M  V30 6936 H 637.201 4.26392 -0.434525 0
M  V30 6937 H 641.385 4.80182 -1.25457 0
M  V30 6938 H 636.641 5.62046 -2.40654 0
M  V30 6939 H 640.815 6.17202 -3.22544 0
M  V30 6940 H 638.442 6.57988 -3.80731 0
M  V30 6941 N 640.017 0.126909 1.57088 0
M  V30 6942 C 641.245 -0.53667 1.99819 0
M  V30 6943 C 641.66 -1.5972 1.00673 0
M  V30 6944 O 641.017 -1.825 0.000747365 0
M  V30 6945 C 641.068 -1.15563 3.42531 0
M  V30 6946 O 640.789 -0.137483 4.37884 0
M  V30 6947 C 642.29 -1.90176 4.00435 0
M  V30 6948 H 639.51 -0.141443 0.655923 0
M  V30 6949 H 642.054 0.215578 2.03361 0
M  V30 6950 H 640.209 -1.85861 3.39904 0
M  V30 6951 H 640.623 -0.588229 5.21191 0
M  V30 6952 H 642.097 -2.28801 5.02349 0
M  V30 6953 H 642.574 -2.78002 3.40017 0
M  V30 6954 H 643.18 -1.24623 4.06632 0
M  V30 6955 N 641.495 -1.56914 -0.146875 0
M  V30 6956 C 642.741 -1.83628 -0.860741 0
M  V30 6957 C 643.074 -0.708528 -1.80813 0
M  V30 6958 O 642.349 0.287838 -1.92358 0
M  V30 6959 C 642.632 -3.20836 -1.63511 0
M  V30 6960 C 642.485 -4.44174 -0.709199 0
M  V30 6961 C 643.804 -3.55268 -2.59756 0
M  V30 6962 H 640.923 -0.667949 -0.311468 0
M  V30 6963 H 643.565 -1.89582 -0.125936 0
M  V30 6964 H 641.715 -3.15891 -2.26153 0
M  V30 6965 H 643.387 -4.61205 -0.0937781 0
M  V30 6966 H 641.63 -4.33796 -0.0187856 0
M  V30 6967 H 642.301 -5.36785 -1.28707 0
M  V30 6968 H 644.777 -3.60824 -2.07232 0
M  V30 6969 H 643.653 -4.52303 -3.10987 0
M  V30 6970 H 643.914 -2.81231 -3.41118 0
M  V30 6971 N 642.974 0.416227 -1.52004 0
M  V30 6972 C 644.221 1.16383 -1.65714 0
M  V30 6973 C 644.549 1.9068 -0.383594 0
M  V30 6974 O 643.804 1.85174 0.633185 0
M  V30 6975 C 644.103 2.18923 -2.82502 0
M  V30 6976 C 643.769 1.61485 -4.20991 0
M  V30 6977 C 642.431 1.45545 -4.58661 0
M  V30 6978 C 644.783 1.19468 -5.07323 0
M  V30 6979 C 642.111 0.860937 -5.80349 0
M  V30 6980 C 644.463 0.614386 -6.29609 0
M  V30 6981 C 643.127 0.442056 -6.66035 0
M  V30 6982 H 642.397 0.425875 -0.606392 0
M  V30 6983 H 645.044 0.45199 -1.8609 0
M  V30 6984 H 643.349 2.96225 -2.56433 0
M  V30 6985 H 645.046 2.76628 -2.90307 0
M  V30 6986 H 641.636 1.74873 -3.91302 0
M  V30 6987 H 645.82 1.30596 -4.78809 0
M  V30 6988 H 641.076 0.715372 -6.072 0
M  V30 6989 H 645.25 0.280393 -6.95835 0
M  V30 6990 H 642.877 -0.0207218 -7.60197 0
M  V30 6991 N 644.452 1.42507 0.673017 0
M  V30 6992 C 645.729 1.33554 1.42908 0
M  V30 6993 C 646.109 -0.0262211 2.11084 0
M  V30 6994 O 645.457 -1.04181 2.03368 0
M  V30 6995 C 645.667 2.50498 2.43006 0
M  V30 6996 C 647.015 2.92694 3.07596 0
M  V30 6997 O 648.039 2.50401 2.53333 0
M  V30 6998 O 646.898 3.65899 4.05931 0
M  V30 6999 H 643.992 0.526785 0.637516 0
M  V30 7000 H 646.538 1.54518 0.701591 0
M  V30 7001 H 645.31 3.41272 1.9144 0
M  V30 7002 H 644.933 2.3153 3.23233 0
M  V30 7003 N 645.93 -0.909495 1.28709 0
M  V30 7004 C 647.16 -1.69027 1.188 0
M  V30 7005 C 647.568 -1.87469 -0.255329 0
M  V30 7006 O 646.911 -1.40458 -1.18394 0
M  V30 7007 C 646.973 -3.10064 1.81936 0
M  V30 7008 C 646.637 -3.14891 3.31199 0
M  V30 7009 C 647.634 -2.95768 4.27571 0
M  V30 7010 C 645.319 -3.37269 3.7223 0
M  V30 7011 C 647.313 -2.98942 5.6295 0
M  V30 7012 C 645 -3.40074 5.07733 0
M  V30 7013 C 645.998 -3.20932 6.02903 0
M  V30 7014 O 645.686 -3.23507 7.35934 0
M  V30 7015 H 645.418 -0.535014 0.413203 0
M  V30 7016 H 647.972 -1.14645 1.70428 0
M  V30 7017 H 646.202 -3.66005 1.24808 0
M  V30 7018 H 647.891 -3.70185 1.66486 0
M  V30 7019 H 648.657 -2.78302 3.97206 0
M  V30 7020 H 644.536 -3.51212 2.98615 0
M  V30 7021 H 648.08 -2.83919 6.37209 0
M  V30 7022 H 643.977 -3.5707 5.37747 0
M  V30 7023 H 644.745 -3.3984 7.44615 0
M  V30 7024 N 647.408 -1.11026 -1.11852 0
M  V30 7025 C 648.685 -0.768347 -1.79877 0
M  V30 7026 C 649.065 0.744261 -1.97545 0
M  V30 7027 O 648.413 1.67271 -1.55669 0
M  V30 7028 C 648.623 -1.52648 -3.13846 0
M  V30 7029 C 649.971 -1.70297 -3.88953 0
M  V30 7030 O 650.995 -1.49037 -3.23522 0
M  V30 7031 O 649.854 -2.05593 -5.06353 0
M  V30 7032 H 646.948 -0.277891 -0.778913 0
M  V30 7033 H 649.494 -1.21343 -1.18633 0
M  V30 7034 H 648.266 -2.55564 -2.96315 0
M  V30 7035 H 647.889 -1.07466 -3.82801 0
M  V30 7036 N 648.886 1.2938 -0.899927 0
M  V30 7037 C 649.834 2.29675 -0.367698 0
M  V30 7038 C 650.828 1.60787 0.533282 0
M  V30 7039 O 652.034 1.75126 0.416058 0
M  V30 7040 H 648.409 0.745284 -0.100279 0
M  V30 7041 H 650.38 2.72008 -1.22696 0
M  V30 7042 C 649.129 3.45512 0.389483 0
M  V30 7043 H 648.452 3.98713 -0.294575 0
M  V30 7044 H 649.892 4.17725 0.726744 0
M  V30 7045 C 648.351 2.969 1.59223 0
M  V30 7046 O 648.881 2.98195 2.69152 0
M  V30 7047 N 647.087 2.52728 1.43447 0
M  V30 7048 H 646.634 2.51873 0.540148 0
M  V30 7049 H 646.592 2.20561 2.24054 0
M  V30 7050 N 650.364 0.662433 1.43002 0
M  V30 7051 C 651.314 -0.0460442 2.27954 0
M  V30 7052 C 652.298 -0.785753 1.40409 0
M  V30 7053 O 653.49 -0.666701 1.63964 0
M  V30 7054 C 650.619 -1.00532 3.2825 0
M  V30 7055 C 649.705 -0.263604 4.2328 0
M  V30 7056 N 650.096 0.724855 5.00579 0
M  V30 7057 C 648.394 -0.503778 4.43146 0
M  V30 7058 C 649.095 1.16594 5.69895 0
M  V30 7059 N 648.071 0.498345 5.41311 0
M  V30 7060 H 651.873 0.712314 2.85137 0
M  V30 7061 H 649.387 0.490469 1.54817 0
M  V30 7062 H 651.384 -1.52775 3.87899 0
M  V30 7063 H 650.044 -1.76364 2.72628 0
M  V30 7064 H 651.055 1.10393 5.05998 0
M  V30 7065 H 647.732 -1.24255 3.98581 0
M  V30 7066 H 649.122 1.98434 6.4193 0
M  V30 7067 N 651.842 -1.52309 0.404946 0
M  V30 7068 C 653.07 -2.06185 -0.171818 0
M  V30 7069 C 653.485 -1.27536 -1.39212 0
M  V30 7070 O 652.842 -0.326112 -1.79563 0
M  V30 7071 C 652.893 -3.57647 -0.526417 0
M  V30 7072 O 652.614 -4.3332 0.645417 0
M  V30 7073 C 654.115 -4.27925 -1.15736 0
M  V30 7074 H 651.335 -0.670632 -0.0222328 0
M  V30 7075 H 653.879 -1.96259 0.574692 0
M  V30 7076 H 652.034 -3.67595 -1.22282 0
M  V30 7077 H 652.448 -5.23328 0.35042 0
M  V30 7078 H 653.922 -5.35093 -1.35572 0
M  V30 7079 H 654.399 -3.84134 -2.12926 0
M  V30 7080 H 655.005 -4.22335 -0.501281 0
M  V30 7081 N 653.32 -0.135238 -1.57019 0
M  V30 7082 C 654.566 0.519563 -1.96032 0
M  V30 7083 C 654.899 1.65284 -1.01955 0
M  V30 7084 O 654.174 1.94408 -0.059727 0
M  V30 7085 C 654.457 1.0369 -3.44848 0
M  V30 7086 C 654.31 -0.0940754 -4.49702 0
M  V30 7087 C 655.629 1.92254 -3.95887 0
M  V30 7088 H 652.748 0.18739 -0.712779 0
M  V30 7089 H 655.39 -0.214086 -1.8879 0
M  V30 7090 H 653.54 1.66209 -3.5115 0
M  V30 7091 H 655.212 -0.73 -4.55487 0
M  V30 7092 H 653.455 -0.754924 -4.27181 0
M  V30 7093 H 654.126 0.309419 -5.51132 0
M  V30 7094 H 656.602 1.39581 -3.9199 0
M  V30 7095 H 655.478 2.25364 -5.00502 0
M  V30 7096 H 655.739 2.85513 -3.37543 0
M  V30 7097 N 654.798 1.5699 0.138552 0
M  V30 7098 C 656.046 1.83446 0.848053 0
M  V30 7099 C 656.367 0.71744 1.81322 0
M  V30 7100 O 655.637 -0.260228 1.94164 0
M  V30 7101 H 654.217 0.676792 0.316166 0
M  V30 7102 H 656.879 1.94462 0.130538 0
M  V30 7103 H 655.975 2.78677 1.40518 0
M  V30 7104 N 656.276 -0.40816 1.52223 0
M  V30 7105 C 657.523 -1.15502 1.66329 0
M  V30 7106 C 657.851 -1.90474 0.393701 0
M  V30 7107 O 657.106 -1.85507 -0.623356 0
M  V30 7108 C 657.405 -2.17422 2.83659 0
M  V30 7109 C 657.071 -1.5925 4.21841 0
M  V30 7110 C 655.733 -1.4311 4.59427 0
M  V30 7111 C 658.085 -1.16776 5.0795 0
M  V30 7112 C 655.413 -0.830148 5.80797 0
M  V30 7113 C 657.765 -0.580988 6.29926 0
M  V30 7114 C 656.429 -0.406729 6.6626 0
M  V30 7115 H 655.699 -0.422653 0.608642 0
M  V30 7116 H 658.346 -0.442114 1.86327 0
M  V30 7117 H 656.651 -2.94861 2.58001 0
M  V30 7118 H 658.348 -2.75084 2.9177 0
M  V30 7119 H 654.938 -1.72796 3.92224 0
M  V30 7120 H 659.122 -1.28055 4.79495 0
M  V30 7121 H 654.378 -0.68316 6.07571 0
M  V30 7122 H 658.552 -0.243488 6.95974 0
M  V30 7123 H 656.179 0.0610366 7.60175 0
M  V30 7124 N 657.755 -1.42862 -0.66545 0
M  V30 7125 C 658.718 -1.46756 -1.76055 0
M  V30 7126 C 659.718 -0.353866 -1.56858 0
M  V30 7127 O 660.908 -0.615099 -1.62979 0
M  V30 7128 C 658.04 -1.30829 -3.14796 0
M  V30 7129 H 659.233 -2.44271 -1.73987 0
M  V30 7130 H 656.786 -1.29447 -0.875965 0
M  V30 7131 H 657.521 -0.342733 -3.22484 0
M  V30 7132 H 657.306 -2.11551 -3.30134 0
M  V30 7133 H 658.796 -1.36458 -3.94676 0
M  V30 7134 N 659.233 0.902656 -1.29189 0
M  V30 7135 C 660.163 2.02294 -1.16616 0
M  V30 7136 C 661.144 1.6999 -0.0611175 0
M  V30 7137 O 662.329 1.9271 -0.240072 0
M  V30 7138 C 659.459 3.37018 -0.83882 0
M  V30 7139 C 658.413 3.83522 -1.89986 0
M  V30 7140 C 657.739 5.15337 -1.42589 0
M  V30 7141 C 659.039 4.04169 -3.30824 0
M  V30 7142 H 660.733 2.13071 -2.10336 0
M  V30 7143 H 658.279 1.02378 -1.01266 0
M  V30 7144 H 660.232 4.14895 -0.737584 0
M  V30 7145 H 658.956 3.26325 0.134071 0
M  V30 7146 H 657.615 3.07859 -1.99043 0
M  V30 7147 H 657.263 5.01056 -0.441759 0
M  V30 7148 H 656.963 5.47423 -2.13547 0
M  V30 7149 H 658.487 5.95758 -1.3381 0
M  V30 7150 H 659.901 4.72537 -3.24626 0
M  V30 7151 H 658.298 4.47604 -3.99713 0
M  V30 7152 H 659.368 3.08604 -3.74021 0
M  V30 7153 N 660.711 1.11618 1.11262 0
M  V30 7154 C 661.674 0.779447 2.15539 0
M  V30 7155 C 662.674 -0.202081 1.59525 0
M  V30 7156 O 663.864 0.0226356 1.74185 0
M  V30 7157 C 660.996 0.15674 3.40539 0
M  V30 7158 H 662.189 1.70324 2.4684 0
M  V30 7159 H 659.742 0.918298 1.26479 0
M  V30 7160 H 660.477 -0.777186 3.1485 0
M  V30 7161 H 660.262 0.863308 3.82478 0
M  V30 7162 H 661.752 -0.062661 4.17553 0
M  V30 7163 N 662.189 -1.289 0.906776 0
M  V30 7164 C 663.136 -2.2751 0.388313 0
M  V30 7165 C 664.106 -1.57301 -0.533439 0
M  V30 7166 O 665.291 -1.85243 -0.457148 0
M  V30 7167 C 662.431 -3.43091 -0.37181 0
M  V30 7168 C 661.544 -4.28066 0.581647 0
M  V30 7169 C 660.679 -5.30837 -0.19623 0
M  V30 7170 C 659.718 -6.07472 0.751294 0
M  V30 7171 N 658.855 -7.021 0.00737727 0
M  V30 7172 H 663.695 -2.71237 1.23428 0
M  V30 7173 H 661.232 -1.33397 0.619962 0
M  V30 7174 H 663.19 -4.08888 -0.828641 0
M  V30 7175 H 661.82 -3.00374 -1.18218 0
M  V30 7176 H 660.872 -3.62378 1.157 0
M  V30 7177 H 662.184 -4.81382 1.30665 0
M  V30 7178 H 661.338 -6.02485 -0.71394 0
M  V30 7179 H 660.077 -4.78272 -0.954324 0
M  V30 7180 H 659.082 -5.34682 1.28044 0
M  V30 7181 H 660.307 -6.62126 1.50883 0
M  V30 7182 H 658.253 -6.51894 -0.732854 0
M  V30 7183 H 658.17 -7.53004 0.672334 0
M  V30 7184 H 659.438 -7.77956 -0.490365 0
M  V30 7185 N 663.667 -0.670007 -1.42649 0
M  V30 7186 C 664.614 0.0112928 -2.30797 0
M  V30 7187 C 665.584 0.797627 -1.45695 0
M  V30 7188 O 666.769 0.770845 -1.74535 0
M  V30 7189 C 663.909 0.95998 -3.31479 0
M  V30 7190 C 663.022 0.167975 -4.31673 0
M  V30 7191 C 662.157 1.11198 -5.19431 0
M  V30 7192 C 661.196 0.311381 -6.11307 0
M  V30 7193 N 660.333 1.20784 -6.91633 0
M  V30 7194 H 665.173 -0.746231 -2.88505 0
M  V30 7195 H 662.71 -0.379739 -1.42114 0
M  V30 7196 H 664.668 1.52379 -3.88377 0
M  V30 7197 H 663.298 1.68419 -2.75382 0
M  V30 7198 H 662.35 -0.512385 -3.76933 0
M  V30 7199 H 663.662 -0.453814 -4.96731 0
M  V30 7200 H 662.816 1.74587 -5.81037 0
M  V30 7201 H 661.555 1.76766 -4.54538 0
M  V30 7202 H 660.56 -0.335758 -5.48774 0
M  V30 7203 H 661.785 -0.340135 -6.78248 0
M  V30 7204 H 659.731 1.85001 -6.29373 0
M  V30 7205 H 659.648 0.64102 -7.53277 0
M  V30 7206 H 660.916 1.82936 -7.5773 0
M  V30 7207 N 665.145 1.52092 -0.413018 0
M  V30 7208 C 666.092 2.27119 0.410558 0
M  V30 7209 C 667.062 1.29692 1.03774 0
M  V30 7210 O 668.247 1.58561 1.06128 0
M  V30 7211 C 665.387 3.09863 1.51918 0
M  V30 7212 C 664.5 4.22252 0.912528 0
M  V30 7213 C 663.635 4.92348 1.99417 0
M  V30 7214 C 662.674 5.96694 1.36466 0
M  V30 7215 N 661.811 6.60292 2.38661 0
M  V30 7216 H 666.651 2.97067 -0.235661 0
M  V30 7217 H 664.188 1.46542 -0.128055 0
M  V30 7218 H 666.146 3.56144 2.17295 0
M  V30 7219 H 664.776 2.42078 2.13537 0
M  V30 7220 H 663.828 3.80113 0.147697 0
M  V30 7221 H 665.14 4.9709 0.412717 0
M  V30 7222 H 664.294 5.42054 2.72512 0
M  V30 7223 H 663.033 4.17087 2.52764 0
M  V30 7224 H 662.038 5.46304 0.61906 0
M  V30 7225 H 663.263 6.73899 0.838827 0
M  V30 7226 H 661.209 5.87858 2.91134 0
M  V30 7227 H 661.126 7.30816 1.93503 0
M  V30 7228 H 662.394 7.14635 3.11314 0
M  V30 7229 N 666.623 0.143563 1.56945 0
M  V30 7230 C 667.553 -0.7936 2.196 0
M  V30 7231 C 668.534 -1.25955 1.14321 0
M  V30 7232 O 669.719 -1.31773 1.42651 0
M  V30 7233 C 666.849 -2.03424 2.81489 0
M  V30 7234 C 665.803 -1.70519 3.92565 0
M  V30 7235 C 665.129 -3.01817 4.41373 0
M  V30 7236 C 666.429 -0.95449 5.13504 0
M  V30 7237 H 668.123 -0.271423 2.98167 0
M  V30 7238 H 665.669 -0.12911 1.4342 0
M  V30 7239 H 667.622 -2.69463 3.23987 0
M  V30 7240 H 666.346 -2.58008 2.00248 0
M  V30 7241 H 665.005 -1.06859 3.5068 0
M  V30 7242 H 664.653 -3.54386 3.56959 0
M  V30 7243 H 664.353 -2.80565 5.16292 0
M  V30 7244 H 665.877 -3.68934 4.86539 0
M  V30 7245 H 667.291 -1.5169 5.52868 0
M  V30 7246 H 665.688 -0.842035 5.94163 0
M  V30 7247 H 666.758 0.0544033 4.84869 0
M  V30 7248 O 668.14 -1.61499 0.00487092 0
M  V30 7249 H 668.831 -1.83807 -0.611124 0
M  V30 END ATOM
M  V30 BEGIN BOND
M  V30 END BOND
M  V30 END CTAB
M  END
$$$$
