drugbank_target|Q99933 BAG family molecular chaperone regulator 1 (DB07045)
 OpenBabel12092120393D

  0  0  0     0  0            999 V3000
M  V30 BEGIN CTAB
M  V30 COUNTS 5465 5496 0 0 0
M  V30 BEGIN ATOM
M  V30 1 H -0.908 1.98254 -0.117106 0
M  V30 2 N 0 1.576 0 0
M  V30 3 C 0.933 2.03868 1.02534 0
M  V30 4 C 1.911 0.928543 1.3348 0
M  V30 5 O 3.095 1.19667 1.45644 0
M  V30 6 C 0.222 2.43627 2.35294 0
M  V30 7 C -0.732 3.65373 2.2001 0
M  V30 8 S 0.101 5.13292 1.52614 0
M  V30 9 C 1.257 5.56322 2.86805 0
M  V30 10 H 1.49 2.90518 0.631377 0
M  V30 11 H -0.977 1.52953 0.210867 0
M  V30 12 H 0.981 2.67203 3.11629 0
M  V30 13 H -0.358 1.57376 2.7183 0
M  V30 14 H -1.165 3.90944 3.18086 0
M  V30 15 H -1.563 3.418 1.51819 0
M  V30 16 H 0.729 5.58782 3.83104 0
M  V30 17 H 1.672 6.56266 2.65933 0
M  V30 18 H 2.08 4.83886 2.90714 0
M  V30 19 N 1.4781 -0.272755 1.55222 0
M  V30 20 C 2.4411 -1.32041 1.87344 0
M  V30 21 C 3.4411 -1.42342 0.74803 0
M  V30 22 O 4.6311 -1.41488 1.0162 0
M  V30 23 C 1.7631 -2.70173 2.07893 0
M  V30 24 H 2.9561 -1.04789 2.80997 0
M  V30 25 H 0.5091 -0.51083 1.47717 0
M  V30 26 H 1.2441 -3.02605 1.16622 0
M  V30 27 H 1.0291 -2.64082 2.89833 0
M  V30 28 H 2.5191 -3.45869 2.34017 0
M  V30 29 N 2.9562 -1.48159 -0.537278 0
M  V30 30 C 3.8882 -1.58218 -1.65831 0
M  V30 31 C 4.9012 -0.466948 -1.5596 0
M  V30 32 O 6.0902 -0.73747 -1.62553 0
M  V30 33 C 3.1902 -1.48906 -3.04434 0
M  V30 34 C 2.3632 -2.75343 -3.3986 0
M  V30 35 C 1.4222 -2.59588 -4.57712 0
M  V30 36 O 0.4482 -3.33457 -4.61297 0
M  V30 37 N 1.6502 -1.68724 -5.55439 0
M  V30 38 H 4.4152 -2.54891 -1.57641 0
M  V30 39 H 1.9762 -1.4479 -0.724386 0
M  V30 40 H 3.9682 -1.36072 -3.81139 0
M  V30 41 H 2.5382 -0.602368 -3.06741 0
M  V30 42 H 1.7582 -3.02795 -2.52406 0
M  V30 43 H 3.0462 -3.5924 -3.60311 0
M  V30 44 H 2.4442 -1.07898 -5.55315 0
M  V30 45 H 1.0012 -1.61832 -6.3139 0
M  V30 46 N 4.4343 0.785586 -1.36625 0
M  V30 47 C 5.8503 1.08419 -1.17122 0
M  V30 48 C 6.0503 2.015 0.00208491 0
M  V30 49 O 5.1063 2.43551 0.666278 0
M  V30 50 C 6.4193 1.69498 -2.48377 0
M  V30 51 C 7.9673 1.81821 -2.54775 0
M  V30 52 C 8.4423 2.46315 -3.86126 0
M  V30 53 N 9.9333 2.53779 -3.87492 0
M  V30 54 C 10.6683 3.045 -4.85868 0
M  V30 55 N 10.1643 3.55499 -5.94637 0
M  V30 56 N 11.9573 3.03247 -4.73284 0
M  V30 57 H 4.1083 0.167264 -2.1174 0
M  V30 58 H 6.3713 0.13682 -0.938075 0
M  V30 59 H 6.0773 1.08571 -3.34522 0
M  V30 60 H 5.9513 2.6896 -2.64462 0
M  V30 61 H 8.3383 2.41884 -1.69045 0
M  V30 62 H 8.4193 0.811532 -2.42586 0
M  V30 63 H 8.0633 1.86895 -4.72263 0
M  V30 64 H 7.9933 3.47561 -3.95612 0
M  V30 65 H 10.4843 2.17672 -3.08913 0
M  V30 66 H 10.7973 3.92562 -6.65669 0
M  V30 67 H 9.1423 3.5364 -5.98301 0
M  V30 68 H 12.3333 2.62696 -3.87438 0
M  V30 69 H 12.5063 3.42467 -5.50109 0
M  V30 70 N 5.9124 1.20967 1.01018 0
M  V30 71 C 7.1604 1.02172 1.74371 0
M  V30 72 C 7.4814 -0.446414 1.89821 0
M  V30 73 O 6.7514 -1.32234 1.44537 0
M  V30 74 H 5.3314 0.375066 0.646014 0
M  V30 75 H 7.9934 1.52187 1.21758 0
M  V30 76 H 7.0894 1.48538 2.74487 0
M  V30 77 N 7.3905 -1.2043 1.01659 0
M  V30 78 C 8.6385 -1.89423 0.704522 0
M  V30 79 C 8.9595 -1.79231 -0.768197 0
M  V30 80 O 8.2295 -1.1947 -1.55254 0
M  V30 81 H 6.8095 -0.701178 0.257602 0
M  V30 82 H 9.4715 -1.4626 1.28818 0
M  V30 83 H 8.5675 -2.96052 0.987916 0
M  V30 84 N 8.8686 -0.792821 -1.36206 0
M  V30 85 C 9.8316 -0.199459 -2.2833 0
M  V30 86 C 10.8316 0.605189 -1.48977 0
M  V30 87 O 12.0216 0.425685 -1.68919 0
M  V30 88 C 9.1536 0.723523 -3.33134 0
M  V30 89 H 10.3466 -1.01181 -2.82316 0
M  V30 90 H 7.8996 -0.562485 -1.45828 0
M  V30 91 H 8.6346 1.56008 -2.84309 0
M  V30 92 H 8.4196 0.148436 -3.91819 0
M  V30 93 H 9.9096 1.13344 -4.01924 0
M  V30 94 N 10.3467 1.47872 -0.545128 0
M  V30 95 C 11.7627 1.5829 -0.204032 0
M  V30 96 C 11.9627 1.54529 1.29317 0
M  V30 97 O 11.0187 1.44232 2.07252 0
M  V30 98 C 12.3317 2.89304 -0.819987 0
M  V30 99 C 13.8797 3.02864 -0.790105 0
M  V30 100 C 14.3547 4.3656 -1.38491 0
M  V30 101 N 15.8457 4.43165 -1.34755 0
M  V30 102 C 16.5807 5.45153 -1.77753 0
M  V30 103 N 16.0767 6.54016 -2.2855 0
M  V30 104 N 17.8697 5.36125 -1.68897 0
M  V30 105 H 10.0207 1.4856 -1.51802 0
M  V30 106 H 12.2837 0.706305 -0.632327 0
M  V30 107 H 11.9897 2.97757 -1.87173 0
M  V30 108 H 11.8637 3.75957 -0.305915 0
M  V30 109 H 14.2507 2.94014 0.252913 0
M  V30 110 H 14.3317 2.17782 -1.34181 0
M  V30 111 H 13.9757 4.46164 -2.42693 0
M  V30 112 H 13.9057 5.20353 -0.808754 0
M  V30 113 H 16.3967 3.65083 -0.975855 0
M  V30 114 H 16.7097 7.27994 -2.59314 0
M  V30 115 H 15.0547 6.54938 -2.32553 0
M  V30 116 H 18.2457 4.49975 -1.28998 0
M  V30 117 H 18.4187 6.15472 -2.02726 0
M  V30 118 N 11.8248 0.280983 1.55075 0
M  V30 119 C 13.2408 -0.0729964 1.59433 0
M  V30 120 C 13.4408 -1.5411 1.29817 0
M  V30 121 O 12.4968 -2.29086 1.06187 0
M  V30 122 C 13.8098 0.306921 2.9913 0
M  V30 123 C 15.3578 0.254023 3.11968 0
M  V30 124 C 15.8328 0.608467 4.5394 0
M  V30 125 N 17.3238 0.560241 4.59799 0
M  V30 126 C 18.0588 0.80722 5.6769 0
M  V30 127 N 17.5548 1.11912 6.83701 0
M  V30 128 N 19.3478 0.735623 5.57266 0
M  V30 129 H 11.4988 1.238 1.7259 0
M  V30 130 H 13.7618 0.500547 0.805082 0
M  V30 131 H 13.4678 1.32816 3.25657 0
M  V30 132 H 13.3418 -0.349363 3.75579 0
M  V30 133 H 15.7288 -0.75794 2.852 0
M  V30 134 H 15.8098 0.944649 2.37718 0
M  V30 135 H 15.4538 1.61814 4.81434 0
M  V30 136 H 15.3838 -0.104013 5.26497 0
M  V30 137 H 17.8748 0.329288 3.76463 0
M  V30 138 H 18.1878 1.29409 7.61888 0
M  V30 139 H 16.5328 1.15695 6.85303 0
M  V30 140 H 19.7238 0.491752 4.6551 0
M  V30 141 H 19.8968 0.931482 6.4127 0
M  V30 142 N 13.3029 -1.57598 0.00835791 0
M  V30 143 C 14.7139 -1.7892 -0.53333 0
M  V30 144 C 15.0649 -0.916609 -1.73473 0
M  V30 145 O 14.1899 -0.121336 -2.1606 0
M  V30 146 C 14.7849 -3.24488 -0.974313 0
M  V30 147 C 13.3439 -3.46878 -1.46125 0
M  V30 148 C 12.4909 -2.74157 -0.416302 0
M  V30 149 H 15.4419 -1.56958 0.234495 0
M  V30 150 H 15.4629 -3.3306 -1.83988 0
M  V30 151 H 14.9749 -3.87972 -0.099718 0
M  V30 152 H 13.0759 -2.8862 -2.35646 0
M  V30 153 H 13.1889 -4.55572 -1.48295 0
M  V30 154 H 11.5529 -2.39022 -0.87981 0
M  V30 155 H 12.3359 -3.40345 0.44947 0
M  V30 156 N 14.781 0.264519 -1.55364 0
M  V30 157 C 16.197 0.61215 -1.47394 0
M  V30 158 C 16.397 1.89134 -0.695018 0
M  V30 159 O 15.453 2.51563 -0.217275 0
M  V30 160 C 16.766 0.731235 -2.91674 0
M  V30 161 C 18.314 0.82473 -3.01939 0
M  V30 162 C 18.789 0.975522 -4.4749 0
M  V30 163 N 20.28 1.04083 -4.51354 0
M  V30 164 C 21.015 1.17646 -5.61201 0
M  V30 165 N 20.511 1.27874 -6.80896 0
M  V30 166 N 22.304 1.20823 -5.48961 0
M  V30 167 H 14.455 -0.575456 -2.04456 0
M  V30 168 H 16.718 -0.196099 -0.927496 0
M  V30 169 H 16.424 -0.138392 -3.51428 0
M  V30 170 H 16.298 1.60883 -3.41169 0
M  V30 171 H 18.685 1.68482 -2.42276 0
M  V30 172 H 18.766 -0.0776479 -2.55682 0
M  V30 173 H 18.41 0.120058 -5.07758 0
M  V30 174 H 18.34 1.89268 -4.91412 0
M  V30 175 H 20.831 0.973846 -3.65136 0
M  V30 176 H 21.144 1.38081 -7.60364 0
M  V30 177 H 19.489 1.24863 -6.83692 0
M  V30 178 H 22.68 1.12469 -4.54388 0
M  V30 179 H 22.853 1.31049 -6.3461 0
M  V30 180 N 16.2591 1.48442 0.529413 0
M  V30 181 C 17.5071 1.56179 1.28267 0
M  V30 182 C 17.8281 0.237721 1.93546 0
M  V30 183 O 17.0981 -0.740779 1.81354 0
M  V30 184 H 15.6781 0.575367 0.476405 0
M  V30 185 H 18.3401 1.84909 0.61602 0
M  V30 186 H 17.4361 2.34312 2.06165 0
M  V30 187 N 17.7372 -0.778329 1.37039 0
M  V30 188 C 19.0142 -1.52551 1.22424 0
M  V30 189 C 19.3942 -2.10288 -0.184964 0
M  V30 190 O 18.7422 -1.94953 -1.19187 0
M  V30 191 C 18.9522 -2.61164 2.31504 0
M  V30 192 C 20.3002 -3.28746 2.68721 0
M  V30 193 O 21.3242 -2.71455 2.30631 0
M  V30 194 O 20.1832 -4.3231 3.3432 0
M  V30 195 H 17.2772 -0.675343 0.477326 0
M  V30 196 H 19.8232 -0.815859 1.48801 0
M  V30 197 H 18.5952 -2.16574 3.25901 0
M  V30 198 H 18.2182 -3.39737 2.06554 0
M  V30 199 N 19.2153 -1.21501 -1.00376 0
M  V30 200 C 20.6313 -0.972629 -1.26539 0
M  V30 201 C 20.8313 0.340257 -1.98606 0
M  V30 202 O 19.8873 1.06561 -2.28913 0
M  V30 203 C 21.2003 -2.16404 -2.08781 0
M  V30 204 C 22.7483 -2.20643 -2.22004 0
M  V30 205 C 23.2233 -3.39306 -3.07629 0
M  V30 206 N 24.7143 -3.39401 -3.15217 0
M  V30 207 C 25.4493 -4.27867 -3.81729 0
M  V30 208 N 24.9453 -5.26533 -4.5026 0
M  V30 209 N 26.7383 -4.15672 -3.78382 0
M  V30 210 H 18.8893 -2.05929 -0.520281 0
M  V30 211 H 21.1523 -0.901803 -0.292328 0
M  V30 212 H 20.8583 -3.11554 -1.63178 0
M  V30 213 H 20.7323 -2.15567 -3.09533 0
M  V30 214 H 23.1193 -1.26048 -2.66825 0
M  V30 215 H 23.2003 -2.25523 -1.20718 0
M  V30 216 H 22.8443 -4.34195 -2.63509 0
M  V30 217 H 22.7743 -3.31665 -4.09031 0
M  V30 218 H 25.2653 -2.67997 -2.66432 0
M  V30 219 H 25.5783 -5.90337 -4.98721 0
M  V30 220 H 23.9233 -5.30457 -4.49044 0
M  V30 221 H 27.1143 -3.3785 -3.23998 0
M  V30 222 H 27.2873 -4.84825 -4.2994 0
M  V30 223 N 20.6934 1.19889 -1.02296 0
M  V30 224 C 21.6034 2.26571 -0.608508 0
M  V30 225 C 22.6194 1.70299 0.356964 0
M  V30 226 O 23.7954 2.00235 0.216326 0
M  V30 227 C 20.8604 3.46677 0.0402814 0
M  V30 228 C 19.9214 4.18153 -0.97194 0
M  V30 229 C 19.1544 5.32525 -0.354016 0
M  V30 230 O 19.3774 5.64112 0.844604 0
M  V30 231 O 18.3114 5.92242 -1.07391 0
M  V30 232 H 22.1374 2.64251 -1.49684 0
M  V30 233 H 19.7224 1.26629 -0.792809 0
M  V30 234 H 21.6044 4.19475 0.402324 0
M  V30 235 H 20.2794 3.10858 0.902707 0
M  V30 236 H 19.1864 3.47499 -1.38546 0
M  V30 237 H 20.5194 4.57927 -1.80454 0
M  V30 238 N 22.1715 0.800033 1.35784 0
M  V30 239 C 23.5875 0.482977 1.52117 0
M  V30 240 C 23.7875 -0.996948 1.75109 0
M  V30 241 O 22.8435 -1.78216 1.78872 0
M  V30 242 C 24.1565 1.32264 2.70049 0
M  V30 243 C 25.7045 1.31742 2.83924 0
M  V30 244 C 26.1795 2.14106 4.04874 0
M  V30 245 N 27.6705 2.11607 4.12039 0
M  V30 246 C 28.4055 2.72099 5.04727 0
M  V30 247 N 27.9015 3.41492 6.02789 0
M  V30 248 N 29.6945 2.61776 4.97423 0
M  V30 249 H 21.8455 1.75856 1.19115 0
M  V30 250 H 24.1085 0.748122 0.582252 0
M  V30 251 H 23.8145 2.37261 2.59616 0
M  V30 252 H 23.6885 0.971303 3.6448 0
M  V30 253 H 26.0755 0.275333 2.93813 0
M  V30 254 H 26.1565 1.70859 1.9037 0
M  V30 255 H 25.8005 3.18351 3.95746 0
M  V30 256 H 25.7305 1.72353 4.97596 0
M  V30 257 H 28.2215 1.61112 3.41835 0
M  V30 258 H 28.5345 3.84953 6.70098 0
M  V30 259 H 26.8795 3.45596 6.02983 0
M  V30 260 H 30.0705 2.07157 4.19766 0
M  V30 261 H 30.2435 3.0921 5.69468 0
M  V30 262 N 23.6496 -1.47581 0.552962 0
M  V30 263 C 24.5796 -2.32762 -0.185451 0
M  V30 264 C 25.5606 -1.43527 -0.912905 0
M  V30 265 O 26.7456 -1.72388 -0.894201 0
M  V30 266 C 23.8756 -3.25219 -1.21859 0
M  V30 267 C 22.8296 -4.23661 -0.607864 0
M  V30 268 C 22.1556 -5.05413 -1.74533 0
M  V30 269 C 23.4556 -5.20481 0.435582 0
M  V30 270 H 25.1496 -2.94749 0.525684 0
M  V30 271 H 22.6956 -1.41738 0.254251 0
M  V30 272 H 24.6486 -3.8365 -1.7433 0
M  V30 273 H 23.3726 -2.61279 -1.95961 0
M  V30 274 H 22.0316 -3.66451 -0.104489 0
M  V30 275 H 21.6796 -4.3788 -2.47529 0
M  V30 276 H 21.3796 -5.72059 -1.34249 0
M  V30 277 H 22.9036 -5.66701 -2.27338 0
M  V30 278 H 24.3176 -5.733 -0.00290157 0
M  V30 279 H 22.7146 -5.95305 0.757067 0
M  V30 280 H 23.7846 -4.66217 1.33303 0
M  V30 281 N 25.1277 -0.289203 -1.54924 0
M  V30 282 C 26.3757 0.322879 -1.99504 0
M  V30 283 C 26.6967 1.55313 -1.1791 0
M  V30 284 O 25.9667 1.94001 -0.272097 0
M  V30 285 H 24.5467 0.122291 -0.736922 0
M  V30 286 H 27.2087 -0.397802 -1.90797 0
M  V30 287 H 26.3047 0.603061 -3.06218 0
M  V30 288 N 26.6058 1.57591 -0.0167156 0
M  V30 289 C 27.8308 1.9598 0.67872 0
M  V30 290 C 28.2558 0.892546 1.65575 0
M  V30 291 O 27.6138 -0.147772 1.80697 0
M  V30 292 C 27.6618 3.33468 1.37227 0
M  V30 293 O 26.7658 3.28954 2.48722 0
M  V30 294 H 26.1068 0.639339 0.17928 0
M  V30 295 H 28.6368 2.04463 -0.0748802 0
M  V30 296 H 28.6468 3.69417 1.7319 0
M  V30 297 H 27.3218 4.10694 0.656007 0
M  V30 298 H 25.8988 3.04705 2.14963 0
M  V30 299 N 28.0839 -0.256276 1.55502 0
M  V30 300 C 29.4999 -0.604325 1.47716 0
M  V30 301 C 29.6999 -1.88763 0.705039 0
M  V30 302 O 28.7559 -2.51445 0.230613 0
M  V30 303 C 30.0689 -0.715756 2.92057 0
M  V30 304 C 31.6169 -0.808706 3.02372 0
M  V30 305 C 32.0919 -0.951777 4.48001 0
M  V30 306 N 33.5829 -1.01688 4.519 0
M  V30 307 C 34.3179 -1.14668 5.61817 0
M  V30 308 N 33.8139 -1.24261 6.81565 0
M  V30 309 N 35.6069 -1.1791 5.49594 0
M  V30 310 H 27.7579 0.586291 2.04148 0
M  V30 311 H 30.0209 0.201015 0.926443 0
M  V30 312 H 29.7269 0.157027 3.51349 0
M  V30 313 H 29.6009 -1.59071 3.42018 0
M  V30 314 H 31.9879 -1.67195 2.43166 0
M  V30 315 H 32.0689 0.0912063 2.55637 0
M  V30 316 H 31.7129 -0.0931291 5.07815 0
M  V30 317 H 31.6429 -1.86659 4.92408 0
M  V30 318 H 34.1339 -0.954468 3.65648 0
M  V30 319 H 34.4469 -1.34046 7.61086 0
M  V30 320 H 32.7919 -1.21236 6.84344 0
M  V30 321 H 35.9829 -1.10057 4.54978 0
M  V30 322 H 36.1559 -1.27681 6.35296 0
M  V30 323 N 29.562 -1.4872 -0.521534 0
M  V30 324 C 30.492 -1.66771 -1.63431 0
M  V30 325 C 31.473 -0.516499 -1.62069 0
M  V30 326 O 32.658 -0.750013 -1.79132 0
M  V30 327 C 29.788 -1.71515 -3.01993 0
M  V30 328 C 28.742 -2.86222 -3.18216 0
M  V30 329 C 28.068 -2.76061 -4.57924 0
M  V30 330 C 29.368 -4.27419 -3.00184 0
M  V30 331 H 31.062 -2.59932 -1.48579 0
M  V30 332 H 28.608 -1.25089 -0.713358 0
M  V30 333 H 30.561 -1.82731 -3.7972 0
M  V30 334 H 29.285 -0.749393 -3.17886 0
M  V30 335 H 27.944 -2.74575 -2.42908 0
M  V30 336 H 27.592 -1.77437 -4.70665 0
M  V30 337 H 27.292 -3.53037 -4.69722 0
M  V30 338 H 28.816 -2.89256 -5.37739 0
M  V30 339 H 30.23 -4.39855 -3.67697 0
M  V30 340 H 28.627 -5.05458 -3.2347 0
M  V30 341 H 29.697 -4.43293 -1.96518 0
M  V30 342 N 31.0401 0.771051 -1.3745 0
M  V30 343 C 32.4561 1.07171 -1.18265 0
M  V30 344 C 32.6561 2.01491 -0.019287 0
M  V30 345 O 31.7121 2.44244 0.640408 0
M  V30 346 C 33.0251 1.66854 -2.50161 0
M  V30 347 C 34.5731 1.79109 -2.56689 0
M  V30 348 C 35.0481 2.42205 -3.88717 0
M  V30 349 N 36.5391 2.49655 -3.90162 0
M  V30 350 C 37.2741 2.9933 -4.8907 0
M  V30 351 N 36.7701 3.49172 -5.98374 0
M  V30 352 N 38.5631 2.9821 -4.76474 0
M  V30 353 H 30.7141 0.144796 -2.11906 0
M  V30 354 H 32.9771 0.126863 -0.939473 0
M  V30 355 H 32.6831 1.05017 -3.35655 0
M  V30 356 H 32.5571 2.6614 -2.673 0
M  V30 357 H 34.9441 2.40077 -1.71601 0
M  V30 358 H 35.0251 0.785757 -2.43433 0
M  V30 359 H 34.6691 1.81875 -4.74219 0
M  V30 360 H 34.5991 3.43345 -3.99276 0
M  V30 361 H 37.0901 2.14383 -3.11205 0
M  V30 362 H 37.4031 3.8548 -6.69795 0
M  V30 363 H 35.7481 3.47275 -6.02018 0
M  V30 364 H 38.9391 2.58572 -3.90203 0
M  V30 365 H 39.1121 3.36613 -5.53711 0
M  V30 366 N 32.5182 1.22032 0.997298 0
M  V30 367 C 33.4812 0.987909 2.06816 0
M  V30 368 C 34.4812 -0.0440084 1.6074 0
M  V30 369 O 35.6712 0.194053 1.73116 0
M  V30 370 C 32.8032 0.49132 3.37341 0
M  V30 371 H 33.9962 1.93803 2.28868 0
M  V30 372 H 31.5492 1.03838 1.16822 0
M  V30 373 H 32.2842 -0.463364 3.20973 0
M  V30 374 H 32.0692 1.23575 3.72118 0
M  V30 375 H 33.5592 0.348824 4.16141 0
M  V30 376 N 33.9963 -1.19345 1.0293 0
M  V30 377 C 34.9263 -2.2481 0.631105 0
M  V30 378 C 35.9073 -1.66245 -0.360104 0
M  V30 379 O 37.0923 -1.92677 -0.242726 0
M  V30 380 C 34.2223 -3.47295 -0.0184607 0
M  V30 381 C 33.1763 -4.18536 0.895073 0
M  V30 382 C 32.5023 -5.34586 0.110592 0
M  V30 383 C 33.8023 -4.73287 2.209 0
M  V30 384 H 35.4963 -2.58372 1.51275 0
M  V30 385 H 33.0423 -1.24194 0.728818 0
M  V30 386 H 34.9953 -4.20268 -0.308675 0
M  V30 387 H 33.7193 -3.12933 -0.934907 0
M  V30 388 H 32.3783 -3.47446 1.16949 0
M  V30 389 H 32.0263 -4.96469 -0.807902 0
M  V30 390 H 31.7263 -5.83183 0.719087 0
M  V30 391 H 33.2503 -6.10355 -0.172871 0
M  V30 392 H 34.6643 -5.38013 1.98028 0
M  V30 393 H 33.0613 -5.32373 2.76946 0
M  V30 394 H 34.1313 -3.91331 2.86336 0
M  V30 395 N 35.4744 -0.807222 -1.35358 0
M  V30 396 C 36.8904 -0.491038 -1.51858 0
M  V30 397 C 37.0904 0.987648 -1.75635 0
M  V30 398 O 36.1464 1.77265 -1.79815 0
M  V30 399 C 37.4594 -1.33695 -2.69344 0
M  V30 400 C 39.0074 -1.33246 -2.83222 0
M  V30 401 C 39.4824 -2.1625 -4.03733 0
M  V30 402 N 40.9734 -2.1379 -4.10911 0
M  V30 403 C 41.7084 -2.74772 -5.03277 0
M  V30 404 N 41.2044 -3.44684 -6.0097 0
M  V30 405 N 42.9974 -2.6441 -4.96028 0
M  V30 406 H 35.1484 -1.76485 -1.18181 0
M  V30 407 H 37.4114 -0.751199 -0.578276 0
M  V30 408 H 37.1174 -2.38634 -2.58354 0
M  V30 409 H 36.9914 -0.990618 -3.6396 0
M  V30 410 H 39.3784 -0.290911 -2.93663 0
M  V30 411 H 39.4594 -1.71866 -1.89461 0
M  V30 412 H 39.1034 -3.20445 -3.94052 0
M  V30 413 H 39.0334 -1.74989 -4.96675 0
M  V30 414 H 41.5244 -1.62923 -3.40976 0
M  V30 415 H 41.8374 -3.88501 -6.68047 0
M  V30 416 H 40.1824 -3.48788 -6.01142 0
M  V30 417 H 43.3734 -2.0938 -4.18662 0
M  V30 418 H 43.5464 -3.12225 -5.6782 0
M  V30 419 N 36.9525 1.47285 -0.560781 0
M  V30 420 C 38.3635 1.86258 -0.128343 0
M  V30 421 C 38.7145 1.46699 1.30284 0
M  V30 422 O 37.8395 0.871698 1.98067 0
M  V30 423 C 38.4345 3.38044 -0.22614 0
M  V30 424 C 36.9935 3.76096 0.151283 0
M  V30 425 C 36.1405 2.71335 -0.572084 0
M  V30 426 H 39.0915 1.38752 -0.770297 0
M  V30 427 H 39.1125 3.76441 0.554322 0
M  V30 428 H 38.6245 3.66806 -1.26788 0
M  V30 429 H 36.7255 3.52951 1.19399 0
M  V30 430 H 36.8385 4.78641 -0.209765 0
M  V30 431 H 35.2025 2.54696 -0.0147653 0
M  V30 432 H 35.9855 3.02938 -1.61504 0
M  V30 433 N 38.4306 0.297415 1.54768 0
M  V30 434 C 39.6786 -0.312295 1.99673 0
M  V30 435 C 39.9996 -1.54686 1.18732 0
M  V30 436 O 39.2696 -1.93854 0.282382 0
M  V30 437 H 37.8496 -0.118381 0.73756 0
M  V30 438 H 40.5116 0.407915 1.90583 0
M  V30 439 H 39.6076 -0.586813 3.06534 0
M  V30 440 N 39.9087 -1.5758 0.0250728 0
M  V30 441 C 41.3247 -1.56124 -0.331282 0
M  V30 442 C 41.5247 -1.03029 -1.73169 0
M  V30 443 O 40.5807 -0.675215 -2.43305 0
M  V30 444 C 41.8937 -3.00139 -0.183584 0
M  V30 445 C 43.4417 -3.11946 -0.256654 0
M  V30 446 C 43.9167 -4.57793 -0.137792 0
M  V30 447 N 45.4077 -4.6279 -0.194904 0
M  V30 448 C 46.1427 -5.7326 -0.126655 0
M  V30 449 N 45.6387 -6.928 -0.00755288 0
M  V30 450 N 47.4317 -5.61811 -0.180348 0
M  V30 451 H 39.5827 -1.90424 0.94087 0
M  V30 452 H 41.8457 -0.875761 0.362968 0
M  V30 453 H 41.5517 -3.4292 0.780927 0
M  V30 454 H 41.4257 -3.64899 -0.955448 0
M  V30 455 H 43.8127 -2.69079 -1.21162 0
M  V30 456 H 43.8937 -2.49915 0.545517 0
M  V30 457 H 43.5377 -5.01339 0.813739 0
M  V30 458 H 43.4677 -5.17798 -0.958775 0
M  V30 459 H 45.9587 -3.76807 -0.287267 0
M  V30 460 H 46.2717 -7.72791 0.0379428 0
M  V30 461 H 44.6167 -6.94995 0.0271731 0
M  V30 462 H 47.8077 -4.6731 -0.271767 0
M  V30 463 H 47.9807 -6.47882 -0.123697 0
M  V30 464 N 41.3868 0.248026 -1.55636 0
M  V30 465 C 42.2968 1.32859 -1.93354 0
M  V30 466 C 43.3128 1.52719 -0.833838 0
M  V30 467 O 44.4888 1.66363 -1.13513 0
M  V30 468 C 41.5538 2.66337 -2.21958 0
M  V30 469 C 40.6148 2.55008 -3.45354 0
M  V30 470 C 39.8478 3.82121 -3.72584 0
M  V30 471 O 40.0708 4.83951 -3.01907 0
M  V30 472 O 39.0048 3.80822 -4.6611 0
M  V30 473 H 42.8308 1.03862 -2.85388 0
M  V30 474 H 40.4158 0.448686 -1.42503 0
M  V30 475 H 42.2978 3.45216 -2.4167 0
M  V30 476 H 40.9728 2.95068 -1.33103 0
M  V30 477 H 39.8798 1.7442 -3.30951 0
M  V30 478 H 41.2128 2.31222 -4.34508 0
M  V30 479 N 42.8649 1.48995 0.513639 0
M  V30 480 C 44.2759 1.5119 1.09537 0
M  V30 481 C 44.6269 0.290906 1.94031 0
M  V30 482 O 43.7519 -0.60049 2.07902 0
M  V30 483 C 44.3469 2.73964 1.99322 0
M  V30 484 C 42.9059 2.78978 2.52682 0
M  V30 485 C 42.0529 2.44934 1.30009 0
M  V30 486 H 45.0039 1.55875 0.298125 0
M  V30 487 H 45.0249 2.53409 2.83838 0
M  V30 488 H 44.5369 3.62813 1.37799 0
M  V30 489 H 42.6379 1.94378 3.1788 0
M  V30 490 H 42.7509 3.8083 2.90698 0
M  V30 491 H 41.1149 1.9644 1.62122 0
M  V30 492 H 41.8979 3.36043 0.702131 0
M  V30 493 N 44.343 -0.763751 1.37857 0
M  V30 494 C 45.759 -1.06542 1.18832 0
M  V30 495 C 45.959 -2.01478 0.0299722 0
M  V30 496 O 45.015 -2.4458 -0.627447 0
M  V30 497 C 46.328 -1.65525 2.51042 0
M  V30 498 C 47.876 -1.77745 2.57635 0
M  V30 499 C 48.351 -2.4014 3.89996 0
M  V30 500 N 49.842 -2.47582 3.91481 0
M  V30 501 C 50.577 -2.96732 4.9065 0
M  V30 502 N 50.073 -3.45993 6.00217 0
M  V30 503 N 51.866 -2.95679 4.78048 0
M  V30 504 H 44.017 -0.133556 2.1198 0
M  V30 505 H 46.28 -0.121879 0.940133 0
M  V30 506 H 45.986 -1.03236 3.36207 0
M  V30 507 H 45.86 -2.64719 2.68707 0
M  V30 508 H 48.247 -2.39164 1.72872 0
M  V30 509 H 48.328 -0.772836 2.43846 0
M  V30 510 H 47.972 -1.79358 4.75177 0
M  V30 511 H 47.902 -3.41223 4.01092 0
M  V30 512 H 50.393 -2.1273 3.12337 0
M  V30 513 H 50.706 -3.81922 6.7183 0
M  V30 514 H 49.051 -3.44077 6.03851 0
M  V30 515 H 52.242 -2.56499 3.91568 0
M  V30 516 H 52.415 -3.33672 5.55488 0
M  V30 517 N 45.8211 -1.22559 -0.990812 0
M  V30 518 C 46.7531 -0.955325 -2.08342 0
M  V30 519 C 47.7661 0.0668408 -1.62663 0
M  V30 520 O 48.9551 -0.167421 -1.77713 0
M  V30 521 C 46.0551 -0.415566 -3.36342 0
M  V30 522 C 45.2281 -1.49544 -4.11042 0
M  V30 523 C 44.2871 -0.962399 -5.17324 0
M  V30 524 O 43.3131 -1.64907 -5.44788 0
M  V30 525 N 44.5151 0.215134 -5.80101 0
M  V30 526 H 47.2801 -1.89596 -2.32106 0
M  V30 527 H 44.8411 -1.13276 -1.15673 0
M  V30 528 H 46.8331 -0.0442386 -4.04676 0
M  V30 529 H 45.4031 0.430232 -3.09625 0
M  V30 530 H 44.6231 -2.04 -3.37309 0
M  V30 531 H 45.9111 -2.22195 -4.57719 0
M  V30 532 H 45.3091 0.789779 -5.6016 0
M  V30 533 H 43.8661 0.527826 -6.49659 0
M  V30 534 N 47.2992 1.18797 -1.03562 0
M  V30 535 C 48.5242 1.9314 -0.755764 0
M  V30 536 C 48.9492 1.7537 0.68022 0
M  V30 537 O 48.3072 1.06046 1.47051 0
M  V30 538 C 48.3552 3.42747 -1.12058 0
M  V30 539 O 47.4592 4.11683 -0.243124 0
M  V30 540 H 46.8002 0.602724 -0.278604 0
M  V30 541 H 49.3302 1.50678 -1.3841 0
M  V30 542 H 49.3402 3.93437 -1.08035 0
M  V30 543 H 48.0152 3.55002 -2.16672 0
M  V30 544 H 46.5922 3.71323 -0.342539 0
M  V30 545 N 48.7773 0.814389 1.34928 0
M  V30 546 C 49.6873 0.231978 2.3345 0
M  V30 547 C 50.7033 -0.629139 1.62228 0
M  V30 548 O 51.8793 -0.539052 1.94052 0
M  V30 549 C 48.9443 -0.603482 3.41407 0
M  V30 550 C 48.0053 0.279037 4.28392 0
M  V30 551 C 47.2383 -0.516643 5.31193 0
M  V30 552 O 47.4613 -1.75068 5.4287 0
M  V30 553 O 46.3953 0.0965652 6.01823 0
M  V30 554 H 50.2213 1.04721 2.85074 0
M  V30 555 H 47.8063 0.576343 1.37836 0
M  V30 556 H 49.6883 -1.07908 4.0735 0
M  V30 557 H 48.3633 -1.39618 2.92042 0
M  V30 558 H 47.2703 0.801948 3.65403 0
M  V30 559 H 48.6033 1.03588 4.81176 0
M  V30 560 N 50.2554 -1.46986 0.568584 0
M  V30 561 C 51.6664 -1.86188 0.138219 0
M  V30 562 C 52.0174 -1.47388 -1.29504 0
M  V30 563 O 51.1424 -0.88219 -1.97602 0
M  V30 564 C 51.7374 -3.3792 0.244065 0
M  V30 565 C 50.2964 -3.76171 -0.131335 0
M  V30 566 C 49.4434 -2.71027 0.586465 0
M  V30 567 H 52.3944 -1.38342 0.777645 0
M  V30 568 H 52.4154 -3.76729 -0.534351 0
M  V30 569 H 51.9274 -3.66128 1.28731 0
M  V30 570 H 50.0284 -3.5358 -1.17526 0
M  V30 571 H 50.1414 -4.78523 0.235146 0
M  V30 572 H 48.5054 -2.54684 0.0282722 0
M  V30 573 H 49.2884 -3.02077 1.63109 0
M  V30 574 N 51.7335 -0.305618 -1.54608 0
M  V30 575 C 53.1445 0.186098 -1.8577 0
M  V30 576 C 53.4955 1.53058 -1.22751 0
M  V30 577 O 52.6205 2.09888 -0.526893 0
M  V30 578 C 53.2155 0.344449 -3.37044 0
M  V30 579 C 51.7745 0.780384 -3.68221 0
M  V30 580 C 50.9215 -0.108554 -2.77087 0
M  V30 581 H 53.8725 -0.526485 -1.49712 0
M  V30 582 H 53.8935 1.17828 -3.61796 0
M  V30 583 H 53.4055 -0.634235 -3.82883 0
M  V30 584 H 51.5065 1.76945 -3.27904 0
M  V30 585 H 51.6195 0.596572 -4.75371 0
M  V30 586 H 49.9835 0.412931 -2.5133 0
M  V30 587 H 50.7665 -1.08368 -3.25747 0
M  V30 588 N 53.2116 1.57565 -0.0334293 0
M  V30 589 C 54.1746 2.09393 0.932048 0
M  V30 590 C 55.1746 1.00986 1.25134 0
M  V30 591 O 56.3646 1.27129 1.19096 0
M  V30 592 C 53.4966 2.56338 2.2473 0
M  V30 593 H 54.6896 2.95984 0.483085 0
M  V30 594 H 52.2426 1.54819 0.21468 0
M  V30 595 H 52.9776 1.7309 2.74245 0
M  V30 596 H 52.7626 3.35542 2.02865 0
M  V30 597 H 54.2526 2.96646 2.93923 0
M  V30 598 N 54.6897 -0.239769 1.55765 0
M  V30 599 C 55.6217 -1.32001 1.87372 0
M  V30 600 C 56.6347 -1.43944 0.760522 0
M  V30 601 O 57.8237 -1.45167 1.0387 0
M  V30 602 C 54.9237 -2.69779 2.05115 0
M  V30 603 C 54.0967 -2.80014 3.36022 0
M  V30 604 C 53.1557 -3.98684 3.4342 0
M  V30 605 O 52.1817 -3.87877 4.16582 0
M  V30 606 N 53.3837 -5.12176 2.73232 0
M  V30 607 H 56.1487 -1.0522 2.80622 0
M  V30 608 H 53.7097 -0.429857 1.56089 0
M  V30 609 H 55.7017 -3.47517 2.07399 0
M  V30 610 H 54.2717 -2.89237 1.18577 0
M  V30 611 H 53.4917 -1.88896 3.45994 0
M  V30 612 H 54.7797 -2.83808 4.22292 0
M  V30 613 H 54.1777 -5.2385 2.13536 0
M  V30 614 H 52.7347 -5.88022 2.81199 0
M  V30 615 N 56.1678 -1.49265 -0.50573 0
M  V30 616 C 57.5838 -1.35923 -0.836486 0
M  V30 617 C 57.7838 -0.388704 -1.97715 0
M  V30 618 O 56.8398 0.181336 -2.51848 0
M  V30 619 C 58.1528 -2.76531 -1.18115 0
M  V30 620 C 59.7008 -2.85197 -1.28964 0
M  V30 621 C 60.1758 -4.26561 -1.66761 0
M  V30 622 N 61.6668 -4.2935 -1.73819 0
M  V30 623 C 62.4018 -5.35693 -2.045 0
M  V30 624 N 61.8978 -6.52287 -2.33438 0
M  V30 625 N 63.6908 -5.23105 -2.05711 0
M  V30 626 H 55.8418 -2.10965 0.246519 0
M  V30 627 H 58.1048 -0.9468 0.0476887 0
M  V30 628 H 57.8108 -3.49226 -0.416398 0
M  V30 629 H 57.6848 -3.11599 -2.1257 0
M  V30 630 H 60.0718 -2.12742 -2.04511 0
M  V30 631 H 60.1528 -2.53718 -0.325704 0
M  V30 632 H 59.7968 -4.99541 -0.917656 0
M  V30 633 H 59.7268 -4.55502 -2.64246 0
M  V30 634 H 62.2178 -3.4526 -1.53635 0
M  V30 635 H 62.5308 -7.29158 -2.56024 0
M  V30 636 H 60.8758 -6.55521 -2.30905 0
M  V30 637 H 64.0668 -4.31026 -1.82577 0
M  V30 638 H 64.2398 -6.06078 -2.29289 0
M  V30 639 N 57.6459 0.756429 -1.3826 0
M  V30 640 C 58.8939 1.51248 -1.34047 0
M  V30 641 C 59.2149 1.94875 0.0698372 0
M  V30 642 O 58.4849 1.67436 1.01696 0
M  V30 643 H 57.0649 0.561018 -0.493222 0
M  V30 644 H 59.7269 0.899347 -1.7291 0
M  V30 645 H 58.8229 2.40472 -1.98947 0
M  V30 646 N 59.124 1.23083 0.984299 0
M  V30 647 C 60.535 1.05609 1.5396 0
M  V30 648 C 60.886 -0.377793 1.92528 0
M  V30 649 O 60.011 -1.26398 1.75649 0
M  V30 650 C 60.606 1.91087 2.7977 0
M  V30 651 C 59.165 1.77885 3.31713 0
M  V30 652 C 58.312 1.87028 2.04733 0
M  V30 653 H 61.263 1.36802 0.804419 0
M  V30 654 H 61.284 1.43336 3.5247 0
M  V30 655 H 60.796 2.9544 2.51668 0
M  V30 656 H 58.897 0.762995 3.64704 0
M  V30 657 H 59.01 2.61047 4.01735 0
M  V30 658 H 57.374 1.30565 2.18689 0
M  V30 659 H 58.157 2.92929 1.79017 0
M  V30 660 N 60.6021 -1.18246 1.0419 0
M  V30 661 C 62.0131 -1.69914 0.773698 0
M  V30 662 C 62.3641 -1.83085 -0.705297 0
M  V30 663 O 61.4891 -1.51123 -1.5489 0
M  V30 664 C 62.0841 -3.08619 1.39784 0
M  V30 665 C 60.6431 -3.57494 1.17792 0
M  V30 666 C 59.7901 -2.34013 1.48773 0
M  V30 667 H 62.7411 -1.02904 1.20816 0
M  V30 668 H 62.7621 -3.71958 0.801714 0
M  V30 669 H 62.2741 -2.99001 2.47426 0
M  V30 670 H 60.3751 -3.72406 0.120295 0
M  V30 671 H 60.4881 -4.40852 1.87581 0
M  V30 672 H 58.8521 -2.37986 0.907463 0
M  V30 673 H 59.6351 -2.27013 2.57527 0
M  V30 674 N 62.0802 -0.821533 -1.34494 0
M  V30 675 C 63.4912 -0.467956 -1.8074 0
M  V30 676 C 63.8422 1.01151 -1.68116 0
M  V30 677 O 62.9672 1.78707 -1.22036 0
M  V30 678 C 63.5622 -0.842627 -3.28154 0
M  V30 679 C 62.1212 -0.541439 -3.72485 0
M  V30 680 C 61.2682 -1.06028 -2.56229 0
M  V30 681 H 64.2192 -1.01183 -1.22261 0
M  V30 682 H 64.2402 -0.145876 -3.8022 0
M  V30 683 H 63.7522 -1.91945 -3.37311 0
M  V30 684 H 61.8532 0.526034 -3.68868 0
M  V30 685 H 61.9662 -1.08453 -4.66663 0
M  V30 686 H 60.3302 -0.481892 -2.501 0
M  V30 687 H 61.1132 -2.14352 -2.68157 0
M  V30 688 N 63.5583 1.46682 -0.576371 0
M  V30 689 C 64.7833 2.07304 -0.0630475 0
M  V30 690 C 65.2083 1.42329 1.2298 0
M  V30 691 O 64.5663 0.504865 1.74129 0
M  V30 692 C 64.6143 3.60472 0.095895 0
M  V30 693 O 63.7183 3.95927 1.15394 0
M  V30 694 H 63.0593 0.661288 -0.0599463 0
M  V30 695 H 65.5893 1.88417 -0.797511 0
M  V30 696 H 65.5993 4.06865 0.304071 0
M  V30 697 H 64.2743 4.07157 -0.84828 0
M  V30 698 H 62.8513 3.61252 0.924724 0
M  V30 699 N 65.0364 0.313813 1.54444 0
M  V30 700 C 66.2844 -0.291099 1.99993 0
M  V30 701 C 66.6054 -1.53418 1.20366 0
M  V30 702 O 65.8754 -1.93544 0.302927 0
M  V30 703 H 64.4554 -0.110552 0.738774 0
M  V30 704 H 67.1174 0.428106 1.9014 0
M  V30 705 H 66.2134 -0.554268 3.07139 0
M  V30 706 N 66.5145 -1.57545 0.0417849 0
M  V30 707 C 67.9305 -1.56467 -0.314704 0
M  V30 708 C 68.1305 -1.04859 -1.72066 0
M  V30 709 O 67.1865 -0.700983 -2.42575 0
M  V30 710 C 68.4995 -3.00317 -0.15174 0
M  V30 711 C 70.0475 -3.12201 -0.223553 0
M  V30 712 C 70.5225 -4.57913 -0.0892295 0
M  V30 713 N 72.0135 -4.6297 -0.145808 0
M  V30 714 C 72.7485 -5.73362 -0.0658459 0
M  V30 715 N 72.2445 -6.92769 0.0659282 0
M  V30 716 N 74.0375 -5.6197 -0.12075 0
M  V30 717 H 66.1885 -1.89416 0.961014 0
M  V30 718 H 68.4515 -0.871862 0.372237 0
M  V30 719 H 68.1575 -3.42073 0.817254 0
M  V30 720 H 68.0315 -3.65892 -0.916692 0
M  V30 721 H 70.4185 -2.70349 -1.18301 0
M  V30 722 H 70.4995 -2.49323 0.571994 0
M  V30 723 H 70.1435 -5.00448 0.866867 0
M  V30 724 H 70.0735 -5.18786 -0.903802 0
M  V30 725 H 72.5645 -3.7709 -0.247286 0
M  V30 726 H 72.8775 -7.72707 0.119905 0
M  V30 727 H 71.2225 -6.94927 0.100885 0
M  V30 728 H 74.4135 -4.67572 -0.222187 0
M  V30 729 H 74.5865 -6.47977 -0.0549735 0
M  V30 730 N 67.9926 0.231505 -1.5589 0
M  V30 731 C 69.4036 0.799327 -1.68724 0
M  V30 732 C 69.7546 1.85398 -0.642022 0
M  V30 733 O 68.8796 2.1539 0.208784 0
M  V30 734 C 69.4746 1.45664 -3.05888 0
M  V30 735 C 68.0336 1.97197 -3.20609 0
M  V30 736 C 67.1806 0.828552 -2.64632 0
M  V30 737 H 70.1316 0.00702616 -1.58698 0
M  V30 738 H 70.1526 2.32517 -3.01191 0
M  V30 739 H 69.6646 0.688808 -3.81939 0
M  V30 740 H 67.7656 2.76813 -2.4941 0
M  V30 741 H 67.8786 2.15878 -4.27707 0
M  V30 742 H 66.2426 1.23321 -2.22854 0
M  V30 743 H 67.0256 0.0735544 -3.43221 0
M  V30 744 N 69.4707 1.49531 0.497807 0
M  V30 745 C 70.8817 1.52344 1.07927 0
M  V30 746 C 71.2327 0.311469 1.93712 0
M  V30 747 O 70.3577 -0.578405 2.08527 0
M  V30 748 C 70.9527 2.76062 1.96405 0
M  V30 749 C 69.5117 2.81643 2.49709 0
M  V30 750 C 68.6587 2.46299 1.27404 0
M  V30 751 H 71.6097 1.56182 0.281576 0
M  V30 752 H 71.6307 2.56405 2.81135 0
M  V30 753 H 71.1427 3.64254 1.33943 0
M  V30 754 H 69.2437 1.97739 3.15801 0
M  V30 755 H 69.3567 3.83891 2.86643 0
M  V30 756 H 67.7207 1.98148 1.60029 0
M  V30 757 H 68.5037 3.36769 0.66645 0
M  V30 758 N 70.9488 -0.749086 1.3866 0
M  V30 759 C 71.9118 -1.84457 1.36045 0
M  V30 760 C 72.9118 -1.58682 0.260122 0
M  V30 761 O 74.1018 -1.66343 0.517261 0
M  V30 762 C 71.2338 -3.22008 1.11911 0
M  V30 763 H 72.4268 -1.88182 2.33512 0
M  V30 764 H 69.9798 -0.951266 1.24019 0
M  V30 765 H 70.7148 -3.2395 0.150686 0
M  V30 766 H 70.4998 -3.42111 1.91579 0
M  V30 767 H 71.9898 -4.0208 1.12788 0
M  V30 768 N 72.4269 -1.23603 -0.977757 0
M  V30 769 C 73.8429 -0.999251 -1.24447 0
M  V30 770 C 74.0429 0.298053 -1.99283 0
M  V30 771 O 73.0989 1.01681 -2.31122 0
M  V30 772 C 74.4119 -2.20784 -2.04144 0
M  V30 773 C 75.9599 -2.25303 -2.17273 0
M  V30 774 C 76.4349 -3.45755 -3.00362 0
M  V30 775 N 77.9259 -3.4601 -3.07947 0
M  V30 776 C 78.6609 -4.35868 -3.72568 0
M  V30 777 N 78.1569 -5.35966 -4.38991 0
M  V30 778 N 79.9499 -4.23605 -3.6948 0
M  V30 779 H 72.1009 -2.06986 -0.476483 0
M  V30 780 H 74.3639 -0.907801 -0.273134 0
M  V30 781 H 74.0699 -3.14945 -1.56533 0
M  V30 782 H 73.9439 -2.22085 -3.04891 0
M  V30 783 H 76.3309 -1.3168 -2.64092 0
M  V30 784 H 76.4119 -2.28033 -1.15907 0
M  V30 785 H 76.0559 -4.39687 -2.5424 0
M  V30 786 H 75.9859 -3.40266 -4.01904 0
M  V30 787 H 78.4769 -2.73588 -2.60688 0
M  V30 788 H 78.7899 -6.00783 -4.86086 0
M  V30 789 H 77.1349 -5.39863 -4.37691 0
M  V30 790 H 80.3259 -3.44647 -3.16759 0
M  V30 791 H 80.4989 -4.93836 -4.1956 0
M  V30 792 N 73.905 1.17692 -1.04816 0
M  V30 793 C 75.13 1.92327 -0.776207 0
M  V30 794 C 75.555 1.76082 0.661581 0
M  V30 795 O 74.913 1.076 1.45917 0
M  V30 796 C 74.961 3.41539 -1.15687 0
M  V30 797 O 74.065 4.11402 -0.286775 0
M  V30 798 H 73.406 0.599735 -0.284981 0
M  V30 799 H 75.936 1.49201 -1.4 0
M  V30 800 H 75.946 3.92269 -1.12202 0
M  V30 801 H 74.621 3.52684 -2.20425 0
M  V30 802 H 73.198 3.70939 -0.381903 0
M  V30 803 N 75.3831 0.828654 1.34056 0
M  V30 804 C 76.6111 0.43262 2.02326 0
M  V30 805 C 77.0261 -0.963147 1.62385 0
M  V30 806 O 76.3831 -1.62425 0.832121 0
M  V30 807 C 76.4341 0.53182 3.57567 0
M  V30 808 O 76.1551 1.87258 3.96063 0
M  V30 809 C 77.6561 0.131422 4.43105 0
M  V30 810 H 74.8761 0.172923 0.648335 0
M  V30 811 H 77.4201 1.1184 1.71208 0
M  V30 812 H 75.5751 -0.105938 3.87255 0
M  V30 813 H 75.9891 1.85087 4.90758 0
M  V30 814 H 77.4631 0.251904 5.51425 0
M  V30 815 H 77.9401 -0.925645 4.29335 0
M  V30 816 H 78.5461 0.743207 4.18756 0
M  V30 817 N 76.8612 -1.46375 0.584142 0
M  V30 818 C 77.8242 -2.28784 -0.138108 0
M  V30 819 C 78.8242 -1.38471 -0.817462 0
M  V30 820 O 80.0142 -1.60833 -0.669199 0
M  V30 821 C 77.1462 -3.18892 -1.20503 0
M  V30 822 H 78.3392 -2.94117 0.586127 0
M  V30 823 H 75.8922 -1.52509 0.342171 0
M  V30 824 H 76.6272 -2.58309 -1.96079 0
M  V30 825 H 76.4122 -3.85388 -0.722384 0
M  V30 826 H 77.9022 -3.80914 -1.71155 0
M  V30 827 N 78.3393 -0.321999 -1.54275 0
M  V30 828 C 79.5643 0.285791 -2.05422 0
M  V30 829 C 79.9893 1.45124 -1.19669 0
M  V30 830 O 79.3473 1.80132 -0.205441 0
M  V30 831 C 79.3953 0.69956 -3.53749 0
M  V30 832 O 78.4993 1.8021 -3.70942 0
M  V30 833 H 77.8403 0.0518962 -0.661969 0
M  V30 834 H 80.3703 -0.469954 -1.9913 0
M  V30 835 H 80.3803 0.982649 -3.9599 0
M  V30 836 H 79.0553 -0.152864 -4.15619 0
M  V30 837 H 77.6323 1.51794 -3.40607 0
M  V30 838 N 79.8174 1.5752 -0.0501392 0
M  V30 839 C 81.0654 1.9227 0.622642 0
M  V30 840 C 81.3864 0.929083 1.71444 0
M  V30 841 O 80.6564 -0.0262186 1.95882 0
M  V30 842 H 79.2364 0.709739 0.232981 0
M  V30 843 H 81.8984 1.94628 -0.102898 0
M  V30 844 H 80.9944 2.93479 1.06191 0
M  V30 845 N 81.2955 -0.223234 1.56011 0
M  V30 846 C 82.2455 -1.28008 1.88674 0
M  V30 847 C 83.2295 -1.42369 0.749663 0
M  V30 848 O 84.4215 -1.45212 1.01205 0
M  V30 849 C 81.5505 -2.63084 2.20548 0
M  V30 850 C 80.6365 -2.52632 3.40643 0
M  V30 851 N 81.0275 -2.11829 4.59306 0
M  V30 852 C 79.3255 -2.83594 3.44224 0
M  V30 853 C 80.0265 -2.12587 5.41463 0
M  V30 854 N 79.0025 -2.5301 4.81131 0
M  V30 855 H 82.8045 -0.955487 2.77935 0
M  V30 856 H 80.3185 -0.431801 1.56554 0
M  V30 857 H 82.3155 -3.39385 2.42122 0
M  V30 858 H 80.9755 -2.96391 1.32599 0
M  V30 859 H 81.9865 -1.82988 4.84496 0
M  V30 860 H 78.6635 -3.21284 2.66614 0
M  V30 861 H 80.0535 -1.83179 6.46448 0
M  V30 862 N 82.7736 -1.49793 -0.48987 0
M  V30 863 C 84.0506 -1.50348 -1.25119 0
M  V30 864 C 84.4306 -0.237466 -2.0976 0
M  V30 865 O 83.7786 0.77981 -2.14782 0
M  V30 866 C 83.9886 -2.78872 -2.09837 0
M  V30 867 C 85.3366 -3.288 -2.68655 0
M  V30 868 O 86.3606 -2.80065 -2.20096 0
M  V30 869 O 85.2196 -4.13707 -3.57083 0
M  V30 870 H 82.3136 -0.602242 -0.566775 0
M  V30 871 H 84.8596 -1.62067 -0.503229 0
M  V30 872 H 83.6316 -3.62499 -1.47343 0
M  V30 873 H 83.2546 -2.70066 -2.91805 0
M  V30 874 N 84.2517 0.741722 -1.39055 0
M  V30 875 C 85.6677 1.04638 -1.20512 0
M  V30 876 C 85.8677 2.01405 -0.0620218 0
M  V30 877 O 84.9237 2.45547 0.588457 0
M  V30 878 C 86.2367 1.6151 -2.53643 0
M  V30 879 C 87.7847 1.73623 -2.6043 0
M  V30 880 C 88.2597 2.33906 -3.93767 0
M  V30 881 N 89.7507 2.41323 -3.9537 0
M  V30 882 C 90.4857 2.88888 -4.95309 0
M  V30 883 N 89.9817 3.36401 -6.05645 0
M  V30 884 N 91.7747 2.88037 -4.82692 0
M  V30 885 H 83.9257 0.0998155 -2.12165 0
M  V30 886 H 86.1887 0.106907 -0.941953 0
M  V30 887 H 85.8947 0.978739 -3.37807 0
M  V30 888 H 85.7687 2.60411 -2.72885 0
M  V30 889 H 88.1557 2.36384 -1.76655 0
M  V30 890 H 88.2367 0.733945 -2.45045 0
M  V30 891 H 87.8807 1.71776 -4.7797 0
M  V30 892 H 87.8107 3.34799 -4.06469 0
M  V30 893 H 90.3017 2.07734 -3.15682 0
M  V30 894 H 90.6147 3.71186 -6.77821 0
M  V30 895 H 88.9597 3.34427 -6.09248 0
M  V30 896 H 92.1507 2.50237 -3.95599 0
M  V30 897 H 92.3237 3.24792 -5.60726 0
M  V30 898 N 85.7298 1.2412 0.971189 0
M  V30 899 C 87.1408 1.07236 1.52831 0
M  V30 900 C 87.4918 -0.357352 1.92918 0
M  V30 901 O 86.6168 -1.24528 1.76979 0
M  V30 902 C 87.2118 1.94043 2.77728 0
M  V30 903 C 85.7708 1.81394 3.29808 0
M  V30 904 C 84.9178 1.89189 2.02738 0
M  V30 905 H 87.8688 1.37648 0.789864 0
M  V30 906 H 87.8898 1.47066 3.5093 0
M  V30 907 H 87.4018 2.98093 2.4852 0
M  V30 908 H 85.5028 0.801634 3.63874 0
M  V30 909 H 85.6158 2.65294 3.98944 0
M  V30 910 H 83.9798 1.32877 2.17292 0
M  V30 911 H 84.7628 2.94812 1.759 0
M  V30 912 N 87.2079 -1.17134 1.05439 0
M  V30 913 C 88.4359 -1.91372 0.786414 0
M  V30 914 C 88.8509 -1.76955 -0.658202 0
M  V30 915 O 88.2079 -1.10838 -1.44987 0
M  V30 916 C 88.2589 -3.42356 1.1608 0
M  V30 917 O 87.9799 -3.56332 2.54871 0
M  V30 918 C 89.4809 -4.33663 0.919322 0
M  V30 919 H 86.7009 -0.607118 0.285743 0
M  V30 920 H 89.2449 -1.48525 1.40572 0
M  V30 921 H 87.3999 -3.82939 0.586191 0
M  V30 922 H 87.8139 -4.49896 2.69618 0
M  V30 923 H 89.2879 -5.38099 1.231 0
M  V30 924 H 89.7649 -4.38959 -0.145359 0
M  V30 925 H 90.3709 -3.98796 1.47789 0
M  V30 926 N 88.686 -0.835752 -1.33615 0
M  V30 927 C 90.102 -0.523139 -1.50783 0
M  V30 928 C 90.302 0.950171 -1.77691 0
M  V30 929 O 89.358 1.73411 -1.83534 0
M  V30 930 C 90.671 -1.39378 -2.66448 0
M  V30 931 C 92.219 -1.39223 -2.80332 0
M  V30 932 C 92.694 -2.24765 -3.99055 0
M  V30 933 N 94.185 -2.22458 -4.06284 0
M  V30 934 C 94.92 -2.85386 -4.97336 0
M  V30 935 N 94.416 -3.57354 -5.93523 0
M  V30 936 N 96.209 -2.74872 -4.90308 0
M  V30 937 H 88.36 -1.78952 -1.14411 0
M  V30 938 H 90.623 -0.763297 -0.562212 0
M  V30 939 H 90.329 -2.44061 -2.53234 0
M  V30 940 H 90.203 -1.0676 -3.61776 0
M  V30 941 H 92.59 -0.353136 -2.92979 0
M  V30 942 H 92.671 -1.75846 -1.85773 0
M  V30 943 H 92.315 -3.28732 -3.87167 0
M  V30 944 H 92.245 -1.85485 -4.92852 0
M  V30 945 H 94.736 -1.70119 -3.37443 0
M  V30 946 H 95.049 -4.02584 -6.59656 0
M  V30 947 H 93.394 -3.61461 -5.93608 0
M  V30 948 H 96.585 -2.18213 -4.14126 0
M  V30 949 H 96.758 -3.24199 -5.61069 0
M  V30 950 N 90.1641 1.46063 -0.591896 0
M  V30 951 C 91.4121 2.01938 -0.0808391 0
M  V30 952 C 91.7331 1.46475 1.28725 0
M  V30 953 O 91.0031 0.652944 1.84698 0
M  V30 954 H 89.5831 0.746516 -0.0268938 0
M  V30 955 H 92.2451 1.79055 -0.769752 0
M  V30 956 H 91.3411 3.12094 -0.0187578 0
M  V30 957 N 91.6422 0.330177 1.54103 0
M  V30 958 C 92.6052 -0.520144 2.2322 0
M  V30 959 C 93.6052 -1.03828 1.22786 0
M  V30 960 O 94.7952 -0.929652 1.4732 0
M  V30 961 C 91.9272 -1.72317 2.94142 0
M  V30 962 H 93.1202 0.0841605 2.99782 0
M  V30 963 H 90.6732 0.0813433 1.56088 0
M  V30 964 H 91.4082 -2.36653 2.21734 0
M  V30 965 H 91.1932 -1.35898 3.67796 0
M  V30 966 H 92.6832 -2.3266 3.46784 0
M  V30 967 N 93.1203 -1.57491 0.0584922 0
M  V30 968 C 94.0833 -2.1085 -0.898617 0
M  V30 969 C 95.0833 -1.02964 -1.23511 0
M  V30 970 O 96.2733 -1.29007 -1.17059 0
M  V30 971 C 93.4053 -2.59881 -2.20623 0
M  V30 972 H 94.5983 -2.96715 -0.435936 0
M  V30 973 H 92.1513 -1.55141 -0.190023 0
M  V30 974 H 92.8863 -1.77431 -2.71457 0
M  V30 975 H 92.6713 -3.38727 -1.97501 0
M  V30 976 H 94.1613 -3.01285 -2.89166 0
M  V30 977 N 94.5984 0.214957 -1.56127 0
M  V30 978 C 95.5614 1.24997 -1.92116 0
M  V30 979 C 96.5614 1.39467 -0.800344 0
M  V30 980 O 97.7514 1.37619 -1.06802 0
M  V30 981 C 94.8834 2.62271 -2.17777 0
M  V30 982 H 96.0764 0.942875 -2.84693 0
M  V30 983 H 93.6294 0.455654 -1.49511 0
M  V30 984 H 94.3644 2.98068 -1.27773 0
M  V30 985 H 94.1494 2.53143 -2.99434 0
M  V30 986 H 95.6394 3.36946 -2.46693 0
M  V30 987 N 96.0765 1.50051 0.48192 0
M  V30 988 C 97.3245 1.60181 1.23234 0
M  V30 989 C 97.6455 0.299176 1.92691 0
M  V30 990 O 96.9155 -0.682708 1.83619 0
M  V30 991 H 95.4955 0.590232 0.457859 0
M  V30 992 H 98.1575 1.86775 0.556881 0
M  V30 993 H 97.2535 2.40753 1.98607 0
M  V30 994 N 97.5546 -0.734337 1.39446 0
M  V30 995 C 98.5176 -1.83004 1.37994 0
M  V30 996 C 99.5176 -1.58397 0.276938 0
M  V30 997 O 100.708 -1.65785 0.534875 0
M  V30 998 C 97.8396 -3.20802 1.1532 0
M  V30 999 H 99.0326 -1.85694 2.35494 0
M  V30 1000 H 96.5856 -0.938059 1.25021 0
M  V30 1001 H 97.3206 -3.23772 0.185036 0
M  V30 1002 H 97.1056 -3.4006 1.95197 0
M  V30 1003 H 98.5956 -4.00862 1.17046 0
M  V30 1004 N 99.0327 -1.24633 -0.964593 0
M  V30 1005 C 100.449 -1.01239 -1.2338 0
M  V30 1006 C 100.649 0.2769 -1.99588 0
M  V30 1007 O 99.7047 0.992241 -2.32187 0
M  V30 1008 C 101.018 -2.22937 -2.01791 0
M  V30 1009 C 102.566 -2.27594 -2.14872 0
M  V30 1010 C 103.041 -3.48921 -2.96678 0
M  V30 1011 N 104.532 -3.49257 -3.04259 0
M  V30 1012 C 105.267 -4.39795 -3.67924 0
M  V30 1013 N 104.763 -5.40591 -4.33281 0
M  V30 1014 N 106.556 -4.275 -3.64966 0
M  V30 1015 H 98.7067 -2.0748 -0.454502 0
M  V30 1016 H 100.97 -0.910647 -0.26349 0
M  V30 1017 H 100.676 -3.16587 -1.53184 0
M  V30 1018 H 100.55 -2.25306 -3.02518 0
M  V30 1019 H 102.937 -1.34473 -2.6268 0
M  V30 1020 H 103.018 -2.2925 -1.13482 0
M  V30 1021 H 102.662 -4.42359 -2.49562 0
M  V30 1022 H 102.592 -3.4451 -3.98272 0
M  V30 1023 H 105.083 -2.76337 -2.57771 0
M  V30 1024 H 105.396 -6.05904 -4.79687 0
M  V30 1025 H 103.741 -5.44475 -4.3194 0
M  V30 1026 H 106.932 -3.47987 -3.13086 0
M  V30 1027 H 107.105 -4.98258 -4.14298 0
M  V30 1028 N 100.511 1.16574 -1.06058 0
M  V30 1029 C 101.927 1.3904 -0.783585 0
M  V30 1030 C 102.127 1.91784 0.618145 0
M  V30 1031 O 101.183 2.11511 1.37911 0
M  V30 1032 C 102.496 2.37329 -1.84649 0
M  V30 1033 C 104.044 2.51018 -1.86973 0
M  V30 1034 C 104.519 3.52588 -2.92311 0
M  V30 1035 N 106.01 3.60113 -2.91329 0
M  V30 1036 C 106.745 4.38486 -3.69482 0
M  V30 1037 N 106.241 5.20302 -4.57447 0
M  V30 1038 N 108.034 4.33446 -3.57885 0
M  V30 1039 H 100.185 0.806725 -1.96483 0
M  V30 1040 H 102.448 0.417117 -0.851303 0
M  V30 1041 H 102.154 2.05663 -2.85299 0
M  V30 1042 H 102.028 3.36946 -1.6955 0
M  V30 1043 H 104.415 2.81989 -0.869827 0
M  V30 1044 H 104.496 1.51445 -2.0615 0
M  V30 1045 H 104.14 3.22354 -3.92492 0
M  V30 1046 H 104.07 4.51886 -2.70383 0
M  V30 1047 H 106.561 3.01707 -2.27555 0
M  V30 1048 H 106.874 5.77311 -5.13743 0
M  V30 1049 H 105.219 5.19653 -4.61503 0
M  V30 1050 H 108.41 3.68586 -2.88551 0
M  V30 1051 H 108.583 4.94279 -4.19037 0
M  V30 1052 N 101.989 0.842826 1.3317 0
M  V30 1053 C 103.4 0.496651 1.79973 0
M  V30 1054 C 103.751 -0.984641 1.69703 0
M  V30 1055 O 102.876 -1.76743 1.24863 0
M  V30 1056 C 103.471 0.894727 3.26772 0
M  V30 1057 C 102.03 0.600629 3.71577 0
M  V30 1058 C 101.177 1.10091 2.5451 0
M  V30 1059 H 104.128 1.03116 1.20635 0
M  V30 1060 H 104.149 0.206347 3.7994 0
M  V30 1061 H 103.661 1.97287 3.34215 0
M  V30 1062 H 101.762 -0.467284 3.69658 0
M  V30 1063 H 101.875 1.15863 4.64879 0
M  V30 1064 H 100.239 0.52162 2.49301 0
M  V30 1065 H 101.022 2.18591 2.64713 0
M  V30 1066 N 103.467 -1.45747 0.599634 0
M  V30 1067 C 104.883 -1.57424 0.26264 0
M  V30 1068 C 105.083 -1.59222 -1.23493 0
M  V30 1069 O 104.139 -1.51825 -2.01756 0
M  V30 1070 C 105.452 -2.86061 0.926795 0
M  V30 1071 C 107 -2.99722 0.901967 0
M  V30 1072 C 107.475 -4.31119 1.54598 0
M  V30 1073 N 108.966 -4.37858 1.5111 0
M  V30 1074 C 109.701 -5.3818 1.97863 0
M  V30 1075 N 109.197 -6.45083 2.52666 0
M  V30 1076 N 110.99 -5.29487 1.88679 0
M  V30 1077 H 103.141 -1.42823 1.57211 0
M  V30 1078 H 105.404 -0.68235 0.658105 0
M  V30 1079 H 105.11 -2.90605 1.98095 0
M  V30 1080 H 104.984 -3.74563 0.445238 0
M  V30 1081 H 107.371 -2.9475 -0.143617 0
M  V30 1082 H 107.452 -2.12652 1.42171 0
M  V30 1083 H 107.096 -4.36849 2.59085 0
M  V30 1084 H 107.026 -5.16992 1.00132 0
M  V30 1085 H 109.517 -3.61209 1.11068 0
M  V30 1086 H 109.83 -7.17869 2.86155 0
M  V30 1087 H 108.175 -6.45856 2.56701 0
M  V30 1088 H 111.366 -4.44877 1.4561 0
M  V30 1089 H 111.539 -6.07524 2.25429 0
M  V30 1090 N 104.945 -0.338344 -1.53925 0
M  V30 1091 C 105.878 0.563758 -2.21127 0
M  V30 1092 C 106.856 1.10433 -1.19345 0
M  V30 1093 O 108.04 1.16557 -1.48144 0
M  V30 1094 C 105.167 1.77505 -2.88461 0
M  V30 1095 C 104.213 1.3644 -4.04087 0
M  V30 1096 S 105.046 0.388593 -5.34088 0
M  V30 1097 C 106.202 1.60683 -6.04923 0
M  V30 1098 H 106.435 -0.00704546 -2.97299 0
M  V30 1099 H 103.968 -0.122418 -1.53914 0
M  V30 1100 H 105.926 2.46999 -3.27875 0
M  V30 1101 H 104.587 2.31706 -2.12064 0
M  V30 1102 H 103.78 2.26739 -4.50117 0
M  V30 1103 H 103.382 0.748998 -3.66423 0
M  V30 1104 H 105.674 2.54209 -6.28 0
M  V30 1105 H 106.617 1.18842 -6.98056 0
M  V30 1106 H 107.025 1.80052 -5.35015 0
M  V30 1107 N 106.423 1.57458 -0.0668435 0
M  V30 1108 C 107.37 2.12439 0.902122 0
M  V30 1109 C 108.34 1.03565 1.2986 0
M  V30 1110 O 109.525 1.312 1.38532 0
M  V30 1111 C 106.665 2.6865 2.16614 0
M  V30 1112 C 105.778 3.91663 1.82274 0
M  V30 1113 C 104.913 4.36134 3.0325 0
M  V30 1114 C 103.952 5.51808 2.64904 0
M  V30 1115 N 103.089 5.9126 3.78624 0
M  V30 1116 H 107.929 2.94934 0.426382 0
M  V30 1117 H 105.466 1.4575 0.198819 0
M  V30 1118 H 107.424 2.99346 2.90599 0
M  V30 1119 H 106.054 1.88928 2.61737 0
M  V30 1120 H 105.106 3.6746 0.983719 0
M  V30 1121 H 106.418 4.75693 1.50059 0
M  V30 1122 H 105.572 4.68465 3.85519 0
M  V30 1123 H 104.311 3.50948 3.38655 0
M  V30 1124 H 103.316 5.19133 1.81055 0
M  V30 1125 H 104.541 6.38722 2.30675 0
M  V30 1126 H 102.487 5.09024 4.138 0
M  V30 1127 H 102.404 6.70018 3.5016 0
M  V30 1128 H 103.672 6.28212 4.61486 0
M  V30 1129 N 107.901 -0.206675 1.56239 0
M  V30 1130 C 108.848 -1.25617 1.93621 0
M  V30 1131 C 109.818 -1.45824 0.795274 0
M  V30 1132 O 111.003 -1.59148 1.05245 0
M  V30 1133 C 108.143 -2.59839 2.27107 0
M  V30 1134 C 107.256 -2.47308 3.54207 0
M  V30 1135 C 106.391 -3.74155 3.7707 0
M  V30 1136 C 105.43 -3.56407 4.97635 0
M  V30 1137 N 104.567 -4.75238 5.1681 0
M  V30 1138 H 109.407 -0.930383 2.83104 0
M  V30 1139 H 106.944 -0.448065 1.4011 0
M  V30 1140 H 108.902 -3.38021 2.44535 0
M  V30 1141 H 107.532 -2.90485 1.40778 0
M  V30 1142 H 106.584 -1.60483 3.4489 0
M  V30 1143 H 107.896 -2.30122 4.42544 0
M  V30 1144 H 107.05 -4.60778 3.94675 0
M  V30 1145 H 105.789 -3.94282 2.87042 0
M  V30 1146 H 104.794 -2.68168 4.79964 0
M  V30 1147 H 106.019 -3.37736 5.89161 0
M  V30 1148 H 103.965 -4.95651 4.29728 0
M  V30 1149 H 103.882 -4.60835 5.99306 0
M  V30 1150 H 105.15 -5.63246 5.38864 0
M  V30 1151 N 109.379 -1.50304 -0.473955 0
M  V30 1152 C 110.326 -1.68959 -1.57231 0
M  V30 1153 C 111.296 -0.530899 -1.57387 0
M  V30 1154 O 112.481 -0.761133 -1.74961 0
M  V30 1155 C 109.621 -1.7871 -2.95223 0
M  V30 1156 C 108.734 -3.06061 -3.04878 0
M  V30 1157 C 107.869 -3.06626 -4.33767 0
M  V30 1158 C 106.908 -4.28443 -4.37154 0
M  V30 1159 N 106.045 -4.26763 -5.5751 0
M  V30 1160 H 110.885 -2.6273 -1.40631 0
M  V30 1161 H 108.422 -1.30241 -0.683789 0
M  V30 1162 H 110.38 -1.82344 -3.75242 0
M  V30 1163 H 109.01 -0.883806 -3.10465 0
M  V30 1164 H 108.062 -3.11911 -2.17751 0
M  V30 1165 H 109.374 -3.96039 -3.0324 0
M  V30 1166 H 108.528 -3.08973 -5.22131 0
M  V30 1167 H 107.267 -2.14473 -4.3801 0
M  V30 1168 H 106.272 -4.2631 -3.47188 0
M  V30 1169 H 107.497 -5.2182 -4.34605 0
M  V30 1170 H 105.443 -3.37462 -5.62544 0
M  V30 1171 H 105.36 -5.10507 -5.57601 0
M  V30 1172 H 106.628 -4.33253 -6.48006 0
M  V30 1173 N 110.857 0.726932 -1.39834 0
M  V30 1174 C 112.085 1.51613 -1.40787 0
M  V30 1175 C 112.5 1.88799 -0.00451505 0
M  V30 1176 O 111.857 1.54662 0.968809 0
M  V30 1177 C 111.908 2.79863 -2.28821 0
M  V30 1178 O 111.629 2.44253 -3.63692 0
M  V30 1179 C 113.13 3.73837 -2.38245 0
M  V30 1180 H 110.35 0.468264 -0.480593 0
M  V30 1181 H 112.894 0.897607 -1.83748 0
M  V30 1182 H 111.049 3.38027 -1.89252 0
M  V30 1183 H 111.463 3.26695 -4.1033 0
M  V30 1184 H 112.937 4.60699 -3.04073 0
M  V30 1185 H 113.414 4.16153 -1.40403 0
M  V30 1186 H 114.02 3.21589 -2.78317 0
M  V30 1187 N 112.336 1.25143 0.95797 0
M  V30 1188 C 113.752 1.01892 1.22842 0
M  V30 1189 C 113.952 -0.266311 1.99732 0
M  V30 1190 O 113.008 -0.979913 2.3271 0
M  V30 1191 C 114.321 2.24004 2.00606 0
M  V30 1192 C 115.869 2.28731 2.13662 0
M  V30 1193 C 116.344 3.5049 2.94823 0
M  V30 1194 N 117.835 3.50866 3.02403 0
M  V30 1195 C 118.57 4.4174 3.65586 0
M  V30 1196 N 118.066 5.42882 4.30408 0
M  V30 1197 N 119.859 4.29429 3.62694 0
M  V30 1198 H 112.01 2.07718 0.443493 0
M  V30 1199 H 114.273 0.912031 0.258657 0
M  V30 1200 H 113.979 3.17395 1.51503 0
M  V30 1201 H 113.853 2.26907 3.01319 0
M  V30 1202 H 116.24 1.35865 2.61963 0
M  V30 1203 H 116.321 2.29848 1.12265 0
M  V30 1204 H 115.965 4.43676 2.47213 0
M  V30 1205 H 115.895 3.46617 3.96439 0
M  V30 1206 H 118.386 2.777 2.56302 0
M  V30 1207 H 118.699 6.0844 4.76467 0
M  V30 1208 H 117.044 5.46758 4.29047 0
M  V30 1209 H 120.235 3.49643 3.11236 0
M  V30 1210 H 120.408 5.00448 4.1165 0
M  V30 1211 N 113.814 -1.1601 1.06675 0
M  V30 1212 C 115.23 -1.38622 0.790948 0
M  V30 1213 C 115.43 -1.92109 -0.607965 0
M  V30 1214 O 114.486 -2.12239 -1.36787 0
M  V30 1215 C 115.799 -2.36347 1.85905 0
M  V30 1216 C 117.347 -2.50023 1.88301 0
M  V30 1217 C 117.822 -3.51033 2.94176 0
M  V30 1218 N 119.313 -3.58563 2.93235 0
M  V30 1219 C 120.048 -4.36521 3.71803 0
M  V30 1220 N 119.544 -5.17869 4.602 0
M  V30 1221 N 121.337 -4.31541 3.60178 0
M  V30 1222 H 113.488 -0.796294 1.96908 0
M  V30 1223 H 115.751 -0.412597 0.853503 0
M  V30 1224 H 115.457 -2.04147 2.86386 0
M  V30 1225 H 115.331 -3.36042 1.71334 0
M  V30 1226 H 117.718 -2.81524 0.884769 0
M  V30 1227 H 117.799 -1.5035 2.06951 0
M  V30 1228 H 117.443 -3.20268 3.94196 0
M  V30 1229 H 117.373 -4.50445 2.72776 0
M  V30 1230 H 119.864 -3.00496 2.29152 0
M  V30 1231 H 120.177 -5.74578 5.16797 0
M  V30 1232 H 118.522 -5.17199 4.64253 0
M  V30 1233 H 121.713 -3.67051 2.90502 0
M  V30 1234 H 121.886 -4.9205 4.21653 0
M  V30 1235 N 115.292 -0.849877 -1.32721 0
M  V30 1236 C 116.708 -0.539102 -1.50219 0
M  V30 1237 C 116.908 0.931271 -1.78689 0
M  V30 1238 O 115.964 1.71455 -1.85363 0
M  V30 1239 C 117.277 -1.42196 -2.64954 0
M  V30 1240 C 118.825 -1.42189 -2.78839 0
M  V30 1241 C 119.3 -2.28985 -3.96648 0
M  V30 1242 N 120.791 -2.26754 -4.03902 0
M  V30 1243 C 121.526 -2.90644 -4.94281 0
M  V30 1244 N 121.022 -3.63629 -5.897 0
M  V30 1245 N 122.815 -2.80057 -4.87365 0
M  V30 1246 H 114.966 -1.80156 -1.12506 0
M  V30 1247 H 117.229 -0.769217 -0.554085 0
M  V30 1248 H 116.935 -2.46733 -2.50631 0
M  V30 1249 H 116.809 -1.10591 -3.60624 0
M  V30 1250 H 119.196 -0.38419 -2.92588 0
M  V30 1251 H 119.277 -1.77807 -1.83898 0
M  V30 1252 H 118.921 -3.32819 -3.83658 0
M  V30 1253 H 118.851 -1.90702 -4.90857 0
M  V30 1254 H 121.342 -1.73688 -3.3562 0
M  V30 1255 H 121.655 -4.09558 -6.55349 0
M  V30 1256 H 120 -3.67737 -5.89741 0
M  V30 1257 H 123.191 -2.22593 -4.11789 0
M  V30 1258 H 123.364 -3.30132 -5.57599 0
M  V30 1259 N 116.77 1.45427 -0.607355 0
M  V30 1260 C 117.995 2.07124 -0.107006 0
M  V30 1261 C 118.42 1.44906 1.19933 0
M  V30 1262 O 117.778 0.541687 1.73019 0
M  V30 1263 C 117.826 3.60595 0.0194119 0
M  V30 1264 O 116.93 3.98285 1.0697 0
M  V30 1265 H 116.271 0.659868 -0.0739597 0
M  V30 1266 H 118.801 1.86683 -0.837297 0
M  V30 1267 H 118.811 4.07419 0.2177 0
M  V30 1268 H 117.486 4.05266 -0.934453 0
M  V30 1269 H 116.063 3.63133 0.847889 0
M  V30 1270 N 118.248 0.346503 1.53744 0
M  V30 1271 C 119.476 -0.25041 2.05379 0
M  V30 1272 C 119.891 -1.43979 1.22129 0
M  V30 1273 O 119.248 -1.80677 0.257321 0
M  V30 1274 C 119.299 -0.662575 3.55376 0
M  V30 1275 O 119.02 0.479515 4.35468 0
M  V30 1276 C 120.521 -1.31989 4.23195 0
M  V30 1277 H 117.741 -0.0478198 0.669294 0
M  V30 1278 H 120.285 0.499346 1.9831 0
M  V30 1279 H 118.44 -1.36227 3.62658 0
M  V30 1280 H 118.854 0.15037 5.24284 0
M  V30 1281 H 120.328 -1.55902 5.29527 0
M  V30 1282 H 120.805 -2.27436 3.75725 0
M  V30 1283 H 121.411 -0.662154 4.20114 0
M  V30 1284 N 119.726 -1.57421 0.075193 0
M  V30 1285 C 121.142 -1.57099 -0.281444 0
M  V30 1286 C 121.342 -1.08486 -1.69803 0
M  V30 1287 O 120.398 -0.752279 -2.41033 0
M  V30 1288 C 121.711 -3.00571 -0.0880041 0
M  V30 1289 C 123.259 -3.12605 -0.157281 0
M  V30 1290 C 123.734 -4.57999 0.0079207 0
M  V30 1291 N 125.225 -4.63176 -0.0475725 0
M  V30 1292 C 125.96 -5.73373 0.0557876 0
M  V30 1293 N 125.456 -6.92473 0.21286 0
M  V30 1294 N 127.249 -5.621 -0.00152098 0
M  V30 1295 H 119.4 -1.87335 1.00098 0
M  V30 1296 H 121.663 -0.86377 0.390646 0
M  V30 1297 H 121.369 -3.40262 0.889629 0
M  V30 1298 H 121.243 -3.67754 -0.838875 0
M  V30 1299 H 123.63 -2.72798 -1.1254 0
M  V30 1300 H 123.711 -2.48053 0.62475 0
M  V30 1301 H 123.355 -4.98496 0.972824 0
M  V30 1302 H 123.285 -5.20586 -0.793556 0
M  V30 1303 H 125.776 -3.7753 -0.167244 0
M  V30 1304 H 126.089 -7.72279 0.283781 0
M  V30 1305 H 124.434 -6.94556 0.248267 0
M  V30 1306 H 127.625 -4.67938 -0.122958 0
M  V30 1307 H 127.798 -6.47948 0.0824844 0
M  V30 1308 N 121.204 0.198386 -1.56346 0
M  V30 1309 C 122.429 0.939682 -1.84891 0
M  V30 1310 C 122.854 1.76202 -0.658369 0
M  V30 1311 O 122.212 1.76993 0.392851 0
M  V30 1312 C 122.26 1.81428 -3.11635 0
M  V30 1313 O 121.364 2.91265 -2.91956 0
M  V30 1314 H 120.705 0.264807 -0.608912 0
M  V30 1315 H 123.235 0.204695 -2.03573 0
M  V30 1316 H 123.245 2.21958 -3.42343 0
M  V30 1317 H 121.92 1.21004 -3.97908 0
M  V30 1318 H 120.497 2.54514 -2.72538 0
M  V30 1319 N 122.682 1.50554 0.465978 0
M  V30 1320 C 123.592 1.72585 1.58907 0
M  V30 1321 C 124.608 0.60911 1.6299 0
M  V30 1322 O 125.784 0.88804 1.80765 0
M  V30 1323 C 122.849 1.81995 2.95091 0
M  V30 1324 C 121.91 3.05751 3.01355 0
M  V30 1325 C 121.143 3.14702 4.31043 0
M  V30 1326 O 121.366 2.30313 5.21835 0
M  V30 1327 O 120.3 4.07468 4.43005 0
M  V30 1328 H 124.126 2.67799 1.43239 0
M  V30 1329 H 121.711 1.34711 0.646013 0
M  V30 1330 H 123.593 1.90335 3.75966 0
M  V30 1331 H 122.268 0.899659 3.10947 0
M  V30 1332 H 121.175 3.02908 2.19539 0
M  V30 1333 H 122.508 3.97375 2.90437 0
M  V30 1334 N 124.16 -0.719506 1.40217 0
M  V30 1335 C 125.07 -1.86378 1.42479 0
M  V30 1336 C 126.086 -1.71073 0.317834 0
M  V30 1337 O 127.262 -1.93406 0.561794 0
M  V30 1338 C 124.327 -3.22136 1.28178 0
M  V30 1339 C 123.388 -3.49723 2.48982 0
M  V30 1340 C 122.621 -4.79004 2.35353 0
M  V30 1341 O 122.844 -5.53821 1.36524 0
M  V30 1342 O 121.778 -5.06839 3.2465 0
M  V30 1343 H 125.604 -1.87425 2.38968 0
M  V30 1344 H 123.189 -0.869405 1.21498 0
M  V30 1345 H 125.071 -4.03234 1.22395 0
M  V30 1346 H 123.746 -3.21825 0.347934 0
M  V30 1347 H 122.653 -2.6865 2.60342 0
M  V30 1348 H 123.986 -3.54828 3.41113 0
M  V30 1349 N 125.638 -1.25649 -0.95132 0
M  V30 1350 C 126.568 -1.08808 -2.06599 0
M  V30 1351 C 127.549 0.00382547 -1.701 0
M  V30 1352 O 128.734 -0.166325 -1.93486 0
M  V30 1353 C 125.864 -0.709542 -3.39975 0
M  V30 1354 C 124.818 -1.75206 -3.90496 0
M  V30 1355 C 124.144 -1.22811 -5.20405 0
M  V30 1356 C 125.444 -3.15153 -4.16504 0
M  V30 1357 H 127.138 -2.02048 -2.20946 0
M  V30 1358 H 124.684 -0.972835 -1.06169 0
M  V30 1359 H 126.637 -0.578649 -4.17408 0
M  V30 1360 H 125.361 0.258556 -3.25575 0
M  V30 1361 H 124.02 -1.87145 -3.15234 0
M  V30 1362 H 123.668 -0.250145 -5.02378 0
M  V30 1363 H 123.368 -1.92492 -5.55176 0
M  V30 1364 H 124.892 -1.10968 -6.00432 0
M  V30 1365 H 126.306 -3.06349 -4.84586 0
M  V30 1366 H 124.703 -3.82333 -4.62538 0
M  V30 1367 H 125.773 -3.61966 -3.22658 0
M  V30 1368 N 127.117 1.15442 -1.07289 0
M  V30 1369 C 128.345 1.90096 -0.81676 0
M  V30 1370 C 128.76 1.7798 0.629966 0
M  V30 1371 O 128.117 1.1313 1.43206 0
M  V30 1372 C 128.168 3.40466 -1.21512 0
M  V30 1373 O 127.889 3.52232 -2.60508 0
M  V30 1374 C 129.39 4.32145 -0.988198 0
M  V30 1375 H 126.61 0.602495 -0.295366 0
M  V30 1376 H 129.154 1.4627 -1.42918 0
M  V30 1377 H 127.309 3.81958 -0.647039 0
M  V30 1378 H 127.723 4.45549 -2.76742 0
M  V30 1379 H 129.197 5.36072 -1.31645 0
M  V30 1380 H 129.674 4.39135 0.0755063 0
M  V30 1381 H 130.28 3.96395 -1.54115 0
M  V30 1382 N 128.595 0.856903 1.32268 0
M  V30 1383 C 130.011 0.547061 1.49931 0
M  V30 1384 C 130.211 -0.921781 1.7918 0
M  V30 1385 O 129.267 -1.70469 1.8627 0
M  V30 1386 C 130.58 1.43599 2.64196 0
M  V30 1387 C 132.128 1.43665 2.78081 0
M  V30 1388 C 132.603 2.31085 3.95428 0
M  V30 1389 N 134.094 2.28893 4.02694 0
M  V30 1390 C 134.829 2.93262 4.92732 0
M  V30 1391 N 134.325 3.66751 5.87763 0
M  V30 1392 N 136.118 2.82638 4.85873 0
M  V30 1393 H 128.269 1.8075 1.11549 0
M  V30 1394 H 130.532 0.772144 0.549997 0
M  V30 1395 H 130.238 2.48058 2.49319 0
M  V30 1396 H 130.112 1.12502 3.60032 0
M  V30 1397 H 132.499 0.399701 2.92381 0
M  V30 1398 H 132.58 1.7878 1.82952 0
M  V30 1399 H 132.224 3.34849 3.81888 0
M  V30 1400 H 132.154 1.93302 4.89839 0
M  V30 1401 H 134.645 1.75466 3.34694 0
M  V30 1402 H 134.958 4.13027 6.53168 0
M  V30 1403 H 133.303 3.70859 5.87783 0
M  V30 1404 H 136.494 2.24774 4.10602 0
M  V30 1405 H 136.667 3.33084 5.55841 0
M  V30 1406 N 130.073 -1.45103 0.615059 0
M  V30 1407 C 131.298 -2.07064 0.117988 0
M  V30 1408 C 131.723 -1.4554 -1.19163 0
M  V30 1409 O 131.081 -0.550855 -1.72729 0
M  V30 1410 C 131.129 -3.606 -0.000288387 0
M  V30 1411 O 130.233 -3.98847 -1.04856 0
M  V30 1412 H 129.574 -0.659467 0.0774581 0
M  V30 1413 H 132.104 -1.86236 0.847186 0
M  V30 1414 H 132.114 -4.07529 -0.196091 0
M  V30 1415 H 130.789 -4.04765 0.955932 0
M  V30 1416 H 129.366 -3.63577 -0.828619 0
M  V30 1417 N 131.551 -0.354651 -1.53558 0
M  V30 1418 C 132.461 0.50515 -2.29097 0
M  V30 1419 C 133.477 1.10223 -1.34636 0
M  V30 1420 O 134.653 1.11553 -1.67684 0
M  V30 1421 C 131.718 1.63479 -3.05738 0
M  V30 1422 C 130.779 1.06636 -4.15845 0
M  V30 1423 C 130.012 2.14217 -4.88822 0
M  V30 1424 O 130.235 3.35137 -4.61562 0
M  V30 1425 O 129.169 1.77887 -5.75013 0
M  V30 1426 H 132.995 -0.109237 -3.03503 0
M  V30 1427 H 130.58 -0.119357 -1.48922 0
M  V30 1428 H 132.462 2.2918 -3.5363 0
M  V30 1429 H 131.137 2.23478 -2.34178 0
M  V30 1430 H 130.044 0.373565 -3.7223 0
M  V30 1431 H 131.377 0.511081 -4.89539 0
M  V30 1432 N 133.029 1.57378 -0.0835403 0
M  V30 1433 C 133.939 2.16897 0.894021 0
M  V30 1434 C 134.955 1.13528 1.31861 0
M  V30 1435 O 136.131 1.45848 1.3889 0
M  V30 1436 C 133.196 2.72831 2.13925 0
M  V30 1437 C 132.257 3.91115 1.76997 0
M  V30 1438 C 131.49 4.44371 2.95584 0
M  V30 1439 O 131.713 3.96596 4.09961 0
M  V30 1440 O 130.647 5.35549 2.74719 0
M  V30 1441 H 134.473 3.00814 0.417679 0
M  V30 1442 H 132.058 1.48741 0.140181 0
M  V30 1443 H 133.94 3.0863 2.86924 0
M  V30 1444 H 132.615 1.91967 2.60635 0
M  V30 1445 H 131.522 3.60148 1.01214 0
M  V30 1446 H 132.855 4.73307 1.3506 0
M  V30 1447 N 134.507 -0.190092 1.56449 0
M  V30 1448 C 135.437 -1.23816 1.97969 0
M  V30 1449 C 136.418 -1.47201 0.852395 0
M  V30 1450 O 137.603 -1.58854 1.1171 0
M  V30 1451 C 134.733 -2.5813 2.3235 0
M  V30 1452 C 133.687 -2.49348 3.47864 0
M  V30 1453 C 133.013 -3.8798 3.67934 0
M  V30 1454 C 134.313 -2.01424 4.81898 0
M  V30 1455 H 136.007 -0.89311 2.85769 0
M  V30 1456 H 133.553 -0.428177 1.37487 0
M  V30 1457 H 135.506 -3.31637 2.59991 0
M  V30 1458 H 134.23 -2.94386 1.41438 0
M  V30 1459 H 132.889 -1.78297 3.20321 0
M  V30 1460 H 132.537 -4.21597 2.74344 0
M  V30 1461 H 132.237 -3.82978 4.45648 0
M  V30 1462 H 133.761 -4.63101 3.97957 0
M  V30 1463 H 135.175 -2.64693 5.08538 0
M  V30 1464 H 133.572 -2.07413 5.63116 0
M  V30 1465 H 134.642 -0.967677 4.75146 0
M  V30 1466 N 135.985 -1.50799 -0.457987 0
M  V30 1467 C 137.213 -1.66218 -1.23203 0
M  V30 1468 C 137.628 -0.350894 -1.85511 0
M  V30 1469 O 136.985 0.668546 -1.69814 0
M  V30 1470 C 137.036 -2.76291 -2.33121 0
M  V30 1471 O 136.757 -4.02338 -1.73366 0
M  V30 1472 C 138.258 -3.028 -3.2377 0
M  V30 1473 H 135.478 -0.558361 -0.372121 0
M  V30 1474 H 138.022 -1.97099 -0.545179 0
M  V30 1475 H 136.177 -2.48068 -2.97558 0
M  V30 1476 H 136.591 -4.63312 -2.4585 0
M  V30 1477 H 138.065 -3.8345 -3.97077 0
M  V30 1478 H 138.542 -2.14385 -3.83322 0
M  V30 1479 H 139.148 -3.32604 -2.65056 0
M  V30 1480 N 137.463 0.71206 -1.40597 0
M  V30 1481 C 138.393 1.83889 -1.43899 0
M  V30 1482 C 139.374 1.67442 -0.299504 0
M  V30 1483 O 140.559 1.87421 -0.508624 0
M  V30 1484 C 137.689 3.21877 -1.30431 0
M  V30 1485 C 136.643 3.53002 -2.42019 0
M  V30 1486 C 135.969 4.90172 -2.13626 0
M  V30 1487 C 137.269 3.53643 -3.84362 0
M  V30 1488 H 138.963 1.81383 -2.38203 0
M  V30 1489 H 136.509 0.871237 -1.14654 0
M  V30 1490 H 138.462 4.00404 -1.31357 0
M  V30 1491 H 137.186 3.24968 -0.326049 0
M  V30 1492 H 135.845 2.76818 -2.40349 0
M  V30 1493 H 135.493 4.89869 -1.14182 0
M  V30 1494 H 135.193 5.11962 -2.88389 0
M  V30 1495 H 136.717 5.71028 -2.1624 0
M  V30 1496 H 138.131 4.22203 -3.87837 0
M  V30 1497 H 136.528 3.86961 -4.58673 0
M  V30 1498 H 137.598 2.52954 -4.13693 0
M  V30 1499 N 138.941 1.26152 0.944643 0
M  V30 1500 C 140.166 1.14363 1.7302 0
M  V30 1501 C 140.591 -0.29772 1.85729 0
M  V30 1502 O 139.949 -1.2157 1.34501 0
M  V30 1503 C 139.997 1.81378 3.11664 0
M  V30 1504 O 139.101 1.10022 3.97453 0
M  V30 1505 H 138.442 0.398694 0.53098 0
M  V30 1506 H 140.972 1.66906 1.18337 0
M  V30 1507 H 140.982 1.88064 3.62072 0
M  V30 1508 H 139.657 2.86237 3.0173 0
M  V30 1509 H 138.234 1.11287 3.55907 0
M  V30 1510 N 140.419 -1.14872 1.07899 0
M  V30 1511 C 141.329 -2.2341 0.715915 0
M  V30 1512 C 142.345 -1.71808 -0.275306 0
M  V30 1513 O 143.521 -2.01039 -0.120545 0
M  V30 1514 C 140.586 -3.46474 0.125168 0
M  V30 1515 C 139.647 -4.13039 1.17034 0
M  V30 1516 C 138.88 -5.30229 0.607688 0
M  V30 1517 O 139.103 -5.675 -0.574497 0
M  V30 1518 O 138.037 -5.86444 1.35526 0
M  V30 1519 H 141.863 -2.56808 1.62121 0
M  V30 1520 H 139.448 -1.22702 0.852322 0
M  V30 1521 H 141.33 -4.20917 -0.201729 0
M  V30 1522 H 140.005 -3.14811 -0.753364 0
M  V30 1523 H 138.912 -3.40493 1.54968 0
M  V30 1524 H 140.245 -4.48796 2.02097 0
M  V30 1525 N 141.898 -0.863906 -1.31812 0
M  V30 1526 C 142.808 -0.318461 -2.32428 0
M  V30 1527 C 143.824 0.568496 -1.64451 0
M  V30 1528 O 145 0.46666 -1.95919 0
M  V30 1529 C 142.065 0.476355 -3.43412 0
M  V30 1530 C 141.126 -0.43784 -4.27061 0
M  V30 1531 C 140.359 0.319138 -5.32745 0
M  V30 1532 O 140.582 1.54799 -5.48993 0
M  V30 1533 O 139.516 -0.319861 -6.01049 0
M  V30 1534 H 143.342 -1.15229 -2.80991 0
M  V30 1535 H 140.927 -0.627103 -1.35602 0
M  V30 1536 H 142.809 0.927156 -4.11074 0
M  V30 1537 H 141.484 1.28683 -2.97022 0
M  V30 1538 H 140.391 -0.937013 -3.62175 0
M  V30 1539 H 141.724 -1.21375 -4.77 0
M  V30 1540 N 143.376 1.44774 -0.622745 0
M  V30 1541 C 144.339 2.29069 0.0774015 0
M  V30 1542 C 145.339 1.4059 0.780461 0
M  V30 1543 O 146.529 1.62551 0.626322 0
M  V30 1544 C 143.661 3.21974 1.12006 0
M  V30 1545 H 144.854 2.92459 -0.663901 0
M  V30 1546 H 142.407 1.51548 -0.382486 0
M  V30 1547 H 143.142 2.63417 1.89162 0
M  V30 1548 H 142.927 3.87168 0.619951 0
M  V30 1549 H 144.417 3.85318 1.60995 0
M  V30 1550 N 144.854 0.36279 1.53368 0
M  V30 1551 C 146.082 -0.228613 2.05633 0
M  V30 1552 C 146.497 -1.42676 1.23649 0
M  V30 1553 O 145.854 -1.80394 0.27647 0
M  V30 1554 C 145.905 -0.624845 3.56059 0
M  V30 1555 O 145.626 0.525675 4.34935 0
M  V30 1556 C 147.127 -1.27493 4.24571 0
M  V30 1557 H 144.347 -0.0407183 0.669763 0
M  V30 1558 H 146.891 0.520352 1.97769 0
M  V30 1559 H 145.046 -1.32373 3.64083 0
M  V30 1560 H 145.46 0.205969 5.24095 0
M  V30 1561 H 146.934 -1.50277 5.31151 0
M  V30 1562 H 147.411 -2.23439 3.78116 0
M  V30 1563 H 148.017 -0.617558 4.20792 0
M  V30 1564 N 146.332 -1.57332 0.0918853 0
M  V30 1565 C 147.578 -1.95328 -0.567313 0
M  V30 1566 C 147.933 -0.972866 -1.65991 0
M  V30 1567 O 147.226 0.00166256 -1.916 0
M  V30 1568 C 147.42 -3.37689 -1.17051 0
M  V30 1569 C 147.249 -4.49489 -0.137875 0
M  V30 1570 C 146.019 -5.04498 0.284515 0
M  V30 1571 C 148.217 -5.10393 0.63271 0
M  V30 1572 N 146.199 -5.99853 1.30576 0
M  V30 1573 C 147.57 -6.01435 1.50587 0
M  V30 1574 C 149.625 -4.93143 0.68658 0
M  V30 1575 C 148.328 -6.77077 2.42815 0
M  V30 1576 C 150.354 -5.69445 1.59645 0
M  V30 1577 C 149.716 -6.60151 2.45725 0
M  V30 1578 H 145.815 -0.761467 -0.178023 0
M  V30 1579 H 148.399 -1.93924 0.173706 0
M  V30 1580 H 146.57 -3.39793 -1.88136 0
M  V30 1581 H 148.302 -3.62872 -1.79181 0
M  V30 1582 H 145.057 -4.73489 -0.102593 0
M  V30 1583 H 145.481 -6.52231 1.81449 0
M  V30 1584 H 150.123 -4.22785 0.035244 0
M  V30 1585 H 147.841 -7.46699 3.08975 0
M  V30 1586 H 151.427 -5.58112 1.64323 0
M  V30 1587 H 150.307 -7.18159 3.14987 0
M  V30 1588 N 147.81 0.181792 -1.56548 0
M  V30 1589 C 149.035 0.920019 -1.85877 0
M  V30 1590 C 149.46 1.75494 -0.677021 0
M  V30 1591 O 148.818 1.77399 0.374056 0
M  V30 1592 C 148.866 1.78112 -3.13542 0
M  V30 1593 O 147.97 2.88152 -2.95029 0
M  V30 1594 H 147.311 0.258334 -0.611686 0
M  V30 1595 H 149.841 0.183092 -2.03779 0
M  V30 1596 H 149.851 2.18314 -3.44678 0
M  V30 1597 H 148.526 1.16777 -3.99169 0
M  V30 1598 H 147.103 2.51609 -2.75222 0
M  V30 1599 N 149.288 1.51039 0.449983 0
M  V30 1600 C 150.198 1.74261 1.57067 0
M  V30 1601 C 151.214 0.626363 1.62335 0
M  V30 1602 O 152.39 0.907162 1.79812 0
M  V30 1603 C 149.455 1.85114 2.93144 0
M  V30 1604 C 148.516 3.0893 2.98095 0
M  V30 1605 C 147.749 3.19256 4.27681 0
M  V30 1606 O 147.972 2.35835 5.19363 0
M  V30 1607 O 146.906 4.12144 4.38658 0
M  V30 1608 H 150.732 2.69303 1.40391 0
M  V30 1609 H 148.317 1.35389 0.631688 0
M  V30 1610 H 150.199 1.94311 3.73926 0
M  V30 1611 H 148.874 0.932588 3.09975 0
M  V30 1612 H 147.781 3.0522 2.16314 0
M  V30 1613 H 149.114 4.00433 2.86206 0
M  V30 1614 N 150.766 -0.704594 1.40972 0
M  V30 1615 C 151.676 -1.84856 1.44448 0
M  V30 1616 C 152.692 -1.70726 0.335961 0
M  V30 1617 O 153.868 -1.92799 0.582276 0
M  V30 1618 C 150.933 -3.20758 1.31587 0
M  V30 1619 C 149.994 -3.47063 2.52677 0
M  V30 1620 C 149.227 -4.76481 2.4042 0
M  V30 1621 O 149.45 -5.52341 1.42391 0
M  V30 1622 O 148.384 -5.03367 3.30007 0
M  V30 1623 H 152.21 -1.8488 2.40942 0
M  V30 1624 H 149.795 -0.85647 1.22413 0
M  V30 1625 H 151.677 -4.01913 1.26665 0
M  V30 1626 H 150.352 -3.21438 0.382049 0
M  V30 1627 H 149.259 -2.65873 2.63177 0
M  V30 1628 H 150.592 -3.5119 3.44858 0
M  V30 1629 N 152.244 -1.26651 -0.937939 0
M  V30 1630 C 153.207 -1.08546 -2.01867 0
M  V30 1631 C 154.207 -0.0327327 -1.60767 0
M  V30 1632 O 155.397 -0.276427 -1.71993 0
M  V30 1633 C 152.529 -0.651711 -3.34613 0
M  V30 1634 H 153.722 -2.04502 -2.1936 0
M  V30 1635 H 151.275 -1.09294 -1.11734 0
M  V30 1636 H 152.01 0.309696 -3.22818 0
M  V30 1637 H 151.795 -1.41189 -3.65798 0
M  V30 1638 H 153.285 -0.546973 -4.14002 0
M  V30 1639 N 153.722 1.14298 -1.08507 0
M  V30 1640 C 154.95 1.89219 -0.836876 0
M  V30 1641 C 155.365 1.78638 0.611054 0
M  V30 1642 O 154.722 1.14643 1.41998 0
M  V30 1643 C 154.773 3.39158 -1.25116 0
M  V30 1644 O 154.494 3.49449 -2.64229 0
M  V30 1645 C 155.995 4.31073 -1.03398 0
M  V30 1646 H 153.215 0.599328 -0.301739 0
M  V30 1647 H 155.759 1.44746 -1.44461 0
M  V30 1648 H 153.914 3.81251 -0.687514 0
M  V30 1649 H 154.328 4.42589 -2.81452 0
M  V30 1650 H 155.802 5.34646 -1.37323 0
M  V30 1651 H 156.279 4.3919 0.0289259 0
M  V30 1652 H 156.885 3.94738 -1.58311 0
M  V30 1653 N 155.201 0.870884 1.31352 0
M  V30 1654 C 156.133 0.28455 2.27427 0
M  V30 1655 C 157.146 -0.552927 1.53123 0
M  V30 1656 O 158.335 -0.374771 1.74521 0
M  V30 1657 C 155.435 -0.615164 3.3327 0
M  V30 1658 C 154.608 0.190079 4.36987 0
M  V30 1659 C 153.667 -0.637917 5.22319 0
M  V30 1660 O 152.693 -0.065626 5.69162 0
M  V30 1661 N 153.895 -1.94973 5.46778 0
M  V30 1662 H 156.66 1.11017 2.7838 0
M  V30 1663 H 154.221 0.732458 1.44384 0
M  V30 1664 H 156.213 -1.1748 3.87273 0
M  V30 1665 H 154.783 -1.34146 2.82354 0
M  V30 1666 H 154.003 0.931165 3.83044 0
M  V30 1667 H 155.291 0.742579 5.03352 0
M  V30 1668 H 154.689 -2.4378 5.10478 0
M  V30 1669 H 153.246 -2.45713 6.03712 0
M  V30 1670 N 156.679 -1.44442 0.630414 0
M  V30 1671 C 157.904 -2.06927 0.139944 0
M  V30 1672 C 158.329 -1.46795 -1.17613 0
M  V30 1673 O 157.687 -0.569144 -1.72135 0
M  V30 1674 C 157.735 -3.6058 0.0379581 0
M  V30 1675 O 156.839 -3.99937 -1.0062 0
M  V30 1676 H 156.18 -0.658608 0.0844483 0
M  V30 1677 H 158.71 -1.85327 0.866891 0
M  V30 1678 H 158.72 -4.07714 -0.152856 0
M  V30 1679 H 157.395 -4.03728 0.998809 0
M  V30 1680 H 155.972 -3.64436 -0.79001 0
M  V30 1681 N 158.157 -0.370918 -1.53173 0
M  V30 1682 C 159.067 0.480823 -2.2962 0
M  V30 1683 C 160.083 1.08789 -1.35798 0
M  V30 1684 O 161.259 1.09768 -1.68858 0
M  V30 1685 C 158.324 1.60227 -3.07454 0
M  V30 1686 C 157.385 1.0222 -4.16953 0
M  V30 1687 C 156.618 2.0902 -4.91066 0
M  V30 1688 O 156.841 3.30222 -4.65091 0
M  V30 1689 O 155.775 1.71778 -5.76867 0
M  V30 1690 H 159.601 -0.141421 -3.03371 0
M  V30 1691 H 157.186 -0.135146 -1.48787 0
M  V30 1692 H 159.068 2.25417 -3.56041 0
M  V30 1693 H 157.743 2.20982 -2.36535 0
M  V30 1694 H 156.65 0.334064 -3.72605 0
M  V30 1695 H 157.983 0.459131 -4.90054 0
M  V30 1696 N 159.635 1.57281 -0.100228 0
M  V30 1697 C 160.545 2.17833 0.870965 0
M  V30 1698 C 161.561 1.14921 1.30649 0
M  V30 1699 O 162.737 1.47313 1.37335 0
M  V30 1700 C 159.802 2.75085 2.1102 0
M  V30 1701 C 158.863 3.9297 1.72838 0
M  V30 1702 C 158.096 4.47482 2.90854 0
M  V30 1703 O 158.319 4.00922 4.05731 0
M  V30 1704 O 157.253 5.38433 2.69023 0
M  V30 1705 H 161.079 3.0124 0.38575 0
M  V30 1706 H 158.664 1.48881 0.124397 0
M  V30 1707 H 160.546 3.11656 2.83634 0
M  V30 1708 H 159.221 1.94721 2.58584 0
M  V30 1709 H 158.128 3.61201 0.973883 0
M  V30 1710 H 159.461 4.74713 1.30033 0
M  V30 1711 N 161.113 -0.173488 1.56642 0
M  V30 1712 C 162.076 -1.19859 1.95362 0
M  V30 1713 C 163.076 -1.37296 0.83704 0
M  V30 1714 O 164.266 -1.34739 1.10413 0
M  V30 1715 C 161.398 -2.56405 2.24654 0
M  V30 1716 H 162.591 -0.867062 2.87092 0
M  V30 1717 H 160.144 -0.415853 1.50666 0
M  V30 1718 H 160.879 -2.94576 1.35631 0
M  V30 1719 H 160.664 -2.45115 3.06041 0
M  V30 1720 H 162.154 -3.30287 2.5554 0
M  V30 1721 N 162.591 -1.51276 -0.441967 0
M  V30 1722 C 163.819 -1.67516 -1.21434 0
M  V30 1723 C 164.234 -0.37055 -1.85128 0
M  V30 1724 O 163.591 0.650498 -1.70513 0
M  V30 1725 C 163.642 -2.78748 -2.30177 0
M  V30 1726 O 163.363 -4.04154 -1.69089 0
M  V30 1727 C 164.864 -3.06217 -3.20541 0
M  V30 1728 H 162.084 -0.562276 -0.366178 0
M  V30 1729 H 164.628 -1.97666 -0.524244 0
M  V30 1730 H 162.783 -2.5121 -2.94911 0
M  V30 1731 H 163.197 -4.65894 -2.40922 0
M  V30 1732 H 164.671 -3.8764 -3.92987 0
M  V30 1733 H 165.148 -2.18439 -3.81026 0
M  V30 1734 H 165.754 -3.35397 -2.61513 0
M  V30 1735 N 164.069 0.697108 -1.41344 0
M  V30 1736 C 165.001 1.8224 -1.39001 0
M  V30 1737 C 166.014 1.60152 -0.292428 0
M  V30 1738 O 167.203 1.69684 -0.554048 0
M  V30 1739 C 164.303 3.18976 -1.14489 0
M  V30 1740 C 163.476 3.68105 -2.36258 0
M  V30 1741 C 162.535 4.83506 -2.07625 0
M  V30 1742 O 161.561 4.95201 -2.8065 0
M  V30 1743 N 162.763 5.70637 -1.06555 0
M  V30 1744 H 165.528 1.84742 -2.35988 0
M  V30 1745 H 163.089 0.87937 -1.35936 0
M  V30 1746 H 165.081 3.93801 -0.932885 0
M  V30 1747 H 163.651 3.11508 -0.261043 0
M  V30 1748 H 162.871 2.84204 -2.7317 0
M  V30 1749 H 164.159 3.97667 -3.17393 0
M  V30 1750 H 163.557 5.63817 -0.461125 0
M  V30 1751 H 162.114 6.45368 -0.913444 0
M  V30 1752 N 165.547 1.27147 0.931209 0
M  V30 1753 C 166.795 1.13055 1.6752 0
M  V30 1754 C 167.116 -0.324791 1.92276 0
M  V30 1755 O 166.386 -1.22775 1.52654 0
M  V30 1756 H 164.966 0.415391 0.620854 0
M  V30 1757 H 167.628 1.59623 1.11833 0
M  V30 1758 H 166.724 1.65694 2.64485 0
M  V30 1759 N 167.025 -1.13721 1.09112 0
M  V30 1760 C 167.935 -2.22638 0.73957 0
M  V30 1761 C 168.951 -1.72091 -0.257068 0
M  V30 1762 O 170.127 -2.01155 -0.0992154 0
M  V30 1763 C 167.192 -3.46322 0.16191 0
M  V30 1764 C 166.253 -4.11775 1.21408 0
M  V30 1765 C 165.486 -5.29555 0.663891 0
M  V30 1766 O 165.709 -5.68077 -0.514274 0
M  V30 1767 O 164.643 -5.84973 1.41738 0
M  V30 1768 H 168.469 -2.55074 1.64836 0
M  V30 1769 H 166.054 -1.21791 0.865289 0
M  V30 1770 H 167.936 -4.21107 -0.157073 0
M  V30 1771 H 166.611 -3.15593 -0.719932 0
M  V30 1772 H 165.518 -3.3883 1.58571 0
M  V30 1773 H 166.851 -4.46627 2.06845 0
M  V30 1774 N 168.503 -0.877838 -1.30888 0
M  V30 1775 C 169.413 -0.343096 -2.32078 0
M  V30 1776 C 170.429 0.551022 -1.65045 0
M  V30 1777 O 171.605 0.445854 -1.96403 0
M  V30 1778 C 168.67 0.439905 -3.43898 0
M  V30 1779 C 167.731 -0.483111 -4.26573 0
M  V30 1780 C 166.964 0.262616 -5.33053 0
M  V30 1781 O 167.187 1.48967 -5.50604 0
M  V30 1782 O 166.121 -0.383593 -6.00676 0
M  V30 1783 H 169.947 -1.18203 -2.79753 0
M  V30 1784 H 167.532 -0.64145 -1.34929 0
M  V30 1785 H 169.414 0.883504 -4.12034 0
M  V30 1786 H 168.089 1.25526 -2.98371 0
M  V30 1787 H 166.996 -0.975374 -3.61161 0
M  V30 1788 H 168.329 -1.26427 -4.75686 0
M  V30 1789 N 169.982 1.44106 -0.638065 0
M  V30 1790 C 170.915 2.27924 0.112161 0
M  V30 1791 C 171.893 1.38945 0.844574 0
M  V30 1792 O 173.077 1.68386 0.847248 0
M  V30 1793 C 170.204 3.18029 1.16512 0
M  V30 1794 C 169.25 4.23163 0.532458 0
M  V30 1795 S 170.083 5.31131 -0.682666 0
M  V30 1796 C 171.239 6.24805 0.37013 0
M  V30 1797 H 171.472 2.91205 -0.598887 0
M  V30 1798 H 169.005 1.48394 -0.426441 0
M  V30 1799 H 170.963 3.70492 1.76766 0
M  V30 1800 H 169.624 2.53955 1.8484 0
M  V30 1801 H 168.817 4.86252 1.32571 0
M  V30 1802 H 168.419 3.74 0.00437644 0
M  V30 1803 H 170.711 6.66042 1.24071 0
M  V30 1804 H 171.654 7.07741 -0.225349 0
M  V30 1805 H 172.062 5.60154 0.699141 0
M  V30 1806 N 171.46 0.379036 1.52974 0
M  V30 1807 C 172.408 -0.476033 2.27677 0
M  V30 1808 C 173.402 -1.0719 1.31174 0
M  V30 1809 O 174.608 -1.01355 1.48752 0
M  V30 1810 H 170.983 -0.172255 0.732006 0
M  V30 1811 H 172.954 0.175615 2.97883 0
M  V30 1812 C 171.703 -1.5967 3.0887 0
M  V30 1813 H 171.026 -1.1475 3.82978 0
M  V30 1814 H 172.466 -2.16943 3.64296 0
M  V30 1815 C 170.925 -2.54682 2.20542 0
M  V30 1816 O 171.455 -3.57836 1.82527 0
M  V30 1817 N 169.661 -2.24183 1.84907 0
M  V30 1818 H 169.208 -1.40333 2.1602 0
M  V30 1819 H 169.166 -2.88006 1.26096 0
M  V30 1820 N 172.938 -1.57226 0.108567 0
M  V30 1821 C 174.354 -1.5766 -0.248058 0
M  V30 1822 C 174.554 -1.12063 -1.67464 0
M  V30 1823 O 173.61 -0.803236 -2.39383 0
M  V30 1824 C 174.923 -3.0069 -0.0242287 0
M  V30 1825 C 176.471 -3.12868 -0.0909372 0
M  V30 1826 C 176.946 -4.57879 0.105067 0
M  V30 1827 N 178.437 -4.63172 0.0506846 0
M  V30 1828 C 179.172 -5.73126 0.177396 0
M  V30 1829 N 178.668 -6.91866 0.359696 0
M  V30 1830 N 180.461 -5.61977 0.117709 0
M  V30 1831 H 172.612 -1.85169 1.04049 0
M  V30 1832 H 174.875 -0.85529 0.40888 0
M  V30 1833 H 174.581 -3.38299 0.961604 0
M  V30 1834 H 174.455 -3.6945 -0.76068 0
M  V30 1835 H 176.842 -2.75124 -1.06729 0
M  V30 1836 H 176.923 -2.46672 0.677225 0
M  V30 1837 H 176.567 -4.96321 1.07834 0
M  V30 1838 H 176.497 -5.22153 -0.682954 0
M  V30 1839 H 178.988 -3.778 -0.0871266 0
M  V30 1840 H 179.301 -7.71503 0.447529 0
M  V30 1841 H 177.646 -6.93874 0.395536 0
M  V30 1842 H 180.837 -4.68094 -0.0236741 0
M  V30 1843 H 181.01 -6.47627 0.219905 0
M  V30 1844 N 174.416 0.165178 -1.56732 0
M  V30 1845 C 175.641 0.900253 -1.86843 0
M  V30 1846 C 176.066 1.74766 -0.695596 0
M  V30 1847 O 175.424 1.77786 0.35522 0
M  V30 1848 C 175.472 1.74777 -3.15413 0
M  V30 1849 O 174.576 2.85007 -2.98068 0
M  V30 1850 H 173.917 0.251832 -0.614391 0
M  V30 1851 H 176.447 0.161468 -2.03962 0
M  V30 1852 H 176.457 2.14646 -3.46974 0
M  V30 1853 H 175.132 1.12537 -4.00385 0
M  V30 1854 H 173.709 2.48676 -2.77875 0
M  V30 1855 N 175.894 1.51508 0.433938 0
M  V30 1856 C 176.826 1.69266 1.54537 0
M  V30 1857 C 177.839 0.573276 1.52373 0
M  V30 1858 O 179.028 0.847698 1.57087 0
M  V30 1859 C 176.128 1.69524 2.93453 0
M  V30 1860 C 175.301 2.98101 3.20085 0
M  V30 1861 C 174.36 2.90502 4.38742 0
M  V30 1862 O 173.386 3.64442 4.3723 0
M  V30 1863 N 174.588 2.06586 5.42496 0
M  V30 1864 H 177.353 2.65145 1.39708 0
M  V30 1865 H 174.914 1.49437 0.622922 0
M  V30 1866 H 176.906 1.62004 3.70859 0
M  V30 1867 H 175.476 0.812245 3.01863 0
M  V30 1868 H 174.696 3.19464 2.30947 0
M  V30 1869 H 175.984 3.83207 3.34708 0
M  V30 1870 H 175.382 1.45896 5.46563 0
M  V30 1871 H 173.939 2.04943 6.18742 0
M  V30 1872 N 177.372 -0.689602 1.41712 0
M  V30 1873 C 178.282 -1.83314 1.46401 0
M  V30 1874 C 179.298 -1.7036 0.35405 0
M  V30 1875 O 180.474 -1.92171 0.602692 0
M  V30 1876 C 177.539 -3.19344 1.34982 0
M  V30 1877 C 176.6 -3.44363 2.56344 0
M  V30 1878 C 175.833 -4.73904 2.45461 0
M  V30 1879 O 176.056 -5.508 1.48241 0
M  V30 1880 O 174.99 -4.99839 3.35328 0
M  V30 1881 H 178.816 -1.82314 2.42889 0
M  V30 1882 H 176.401 -0.843438 1.23315 0
M  V30 1883 H 178.283 -4.00547 1.3092 0
M  V30 1884 H 176.958 -3.21014 0.41612 0
M  V30 1885 H 175.865 -2.63067 2.65982 0
M  V30 1886 H 177.198 -3.47512 3.48563 0
M  V30 1887 N 178.85 -1.27639 -0.924453 0
M  V30 1888 C 180.096 -1.14336 -1.67497 0
M  V30 1889 C 180.429 0.309465 -1.91718 0
M  V30 1890 O 179.704 1.22608 -1.50989 0
M  V30 1891 C 179.987 -1.93096 -3.0395 0
M  V30 1892 C 179.84 -3.46381 -2.8695 0
M  V30 1893 C 181.159 -1.73798 -4.0433 0
M  V30 1894 H 178.278 -0.416728 -0.607871 0
M  V30 1895 H 180.92 -1.56832 -1.07256 0
M  V30 1896 H 179.07 -1.56982 -3.55372 0
M  V30 1897 H 180.742 -3.92343 -2.42621 0
M  V30 1898 H 178.985 -3.72557 -2.22225 0
M  V30 1899 H 179.656 -3.96735 -3.83804 0
M  V30 1900 H 182.132 -2.05293 -3.61931 0
M  V30 1901 H 181.008 -2.31294 -4.97789 0
M  V30 1902 H 181.269 -0.686725 -4.36734 0
M  V30 1903 N 180.328 1.1314 -1.09713 0
M  V30 1904 C 181.556 1.88321 -0.856898 0
M  V30 1905 C 181.971 1.79276 0.592073 0
M  V30 1906 O 181.328 1.16142 1.40774 0
M  V30 1907 C 181.379 3.37812 -1.28706 0
M  V30 1908 O 181.1 3.46627 -2.67921 0
M  V30 1909 C 182.601 4.29952 -1.07964 0
M  V30 1910 H 179.821 0.596094 -0.308079 0
M  V30 1911 H 182.365 1.43205 -1.45988 0
M  V30 1912 H 180.52 3.805 -0.727912 0
M  V30 1913 H 180.934 4.39579 -2.8613 0
M  V30 1914 H 182.408 5.33159 -1.42986 0
M  V30 1915 H 182.885 4.39196 -0.0176577 0
M  V30 1916 H 183.491 3.93036 -1.62489 0
M  V30 1917 N 181.806 0.884767 1.30421 0
M  V30 1918 C 183.222 0.57874 1.48737 0
M  V30 1919 C 183.422 -0.883567 1.81095 0
M  V30 1920 O 182.478 -1.6648 1.89844 0
M  V30 1921 C 183.791 1.49171 2.61091 0
M  V30 1922 C 185.339 1.49532 2.74971 0
M  V30 1923 C 185.814 2.39421 3.90438 0
M  V30 1924 N 187.305 2.37383 3.97748 0
M  V30 1925 C 188.04 3.03647 4.86401 0
M  V30 1926 N 187.536 3.79136 5.79852 0
M  V30 1927 N 189.329 2.9288 4.79768 0
M  V30 1928 H 181.48 1.83075 1.0769 0
M  V30 1929 H 183.743 0.783637 0.533495 0
M  V30 1930 H 183.449 2.53291 2.44001 0
M  V30 1931 H 183.323 1.20113 3.57565 0
M  V30 1932 H 185.71 0.46163 2.91467 0
M  V30 1933 H 185.791 1.8262 1.79119 0
M  V30 1934 H 185.435 3.42874 3.74699 0
M  V30 1935 H 185.365 2.03649 4.85628 0
M  V30 1936 H 187.856 1.82525 3.30897 0
M  V30 1937 H 188.169 4.26789 6.4426 0
M  V30 1938 H 186.514 3.83243 5.79784 0
M  V30 1939 H 189.705 2.33433 4.05742 0
M  V30 1940 H 189.878 3.448 5.4865 0
M  V30 1941 N 183.284 -1.43765 0.645699 0
M  V30 1942 C 184.561 -1.9541 0.0862963 0
M  V30 1943 C 184.941 -1.58725 -1.39175 0
M  V30 1944 O 184.289 -0.868581 -2.11348 0
M  V30 1945 C 184.499 -3.47488 0.324565 0
M  V30 1946 C 185.847 -4.24001 0.225497 0
M  V30 1947 O 186.871 -3.55274 0.256715 0
M  V30 1948 O 185.73 -5.46313 0.142801 0
M  V30 1949 H 182.824 -0.826882 -0.0139483 0
M  V30 1950 H 185.37 -1.53743 0.718415 0
M  V30 1951 H 184.142 -3.67289 1.3496 0
M  V30 1952 H 183.765 -3.96135 -0.340987 0
M  V30 1953 N 184.763 -0.387143 -1.52771 0
M  V30 1954 C 185.673 0.456442 -2.30117 0
M  V30 1955 C 186.689 1.07342 -1.36944 0
M  V30 1956 O 187.865 1.07971 -1.70013 0
M  V30 1957 C 184.93 1.56957 -3.09136 0
M  V30 1958 C 183.991 0.977916 -4.18014 0
M  V30 1959 C 183.224 2.038 -4.93256 0
M  V30 1960 O 183.447 3.25271 -4.68567 0
M  V30 1961 O 182.381 1.6565 -5.78657 0
M  V30 1962 H 186.207 -0.17359 -3.03203 0
M  V30 1963 H 183.792 -0.150919 -1.48636 0
M  V30 1964 H 185.674 2.21628 -3.58412 0
M  V30 1965 H 184.349 2.18461 -2.38865 0
M  V30 1966 H 183.256 0.294525 -3.72939 0
M  V30 1967 H 184.589 0.407128 -4.90513 0
M  V30 1968 N 186.241 1.57166 -0.116904 0
M  V30 1969 C 187.151 2.18745 0.847812 0
M  V30 1970 C 188.167 1.163 1.29423 0
M  V30 1971 O 189.343 1.48761 1.35765 0
M  V30 1972 C 186.408 2.77307 2.0809 0
M  V30 1973 C 185.469 3.94781 1.68661 0
M  V30 1974 C 184.702 4.50541 2.86091 0
M  V30 1975 O 184.925 4.05202 4.01456 0
M  V30 1976 O 183.859 5.41256 2.63298 0
M  V30 1977 H 187.685 3.01632 0.353778 0
M  V30 1978 H 185.27 1.49005 0.108599 0
M  V30 1979 H 187.152 3.14647 2.80313 0
M  V30 1980 H 185.827 1.97452 2.56504 0
M  V30 1981 H 184.734 3.62214 0.935518 0
M  V30 1982 H 186.067 4.76065 1.24991 0
M  V30 1983 N 187.719 -0.156864 1.56817 0
M  V30 1984 C 188.944 -0.890331 1.87318 0
M  V30 1985 C 189.369 -1.74394 0.704855 0
M  V30 1986 O 188.727 -1.77972 -0.345786 0
M  V30 1987 C 188.775 -1.73102 3.16336 0
M  V30 1988 O 187.879 -2.83422 2.99576 0
M  V30 1989 H 187.22 -0.24857 0.615718 0
M  V30 1990 H 189.75 -0.150649 2.04045 0
M  V30 1991 H 189.76 -2.12803 3.48107 0
M  V30 1992 H 188.435 -1.10412 4.00976 0
M  V30 1993 H 187.012 -2.47199 2.7919 0
M  V30 1994 N 189.197 -1.51736 -0.425897 0
M  V30 1995 C 190.425 -1.68794 -1.1965 0
M  V30 1996 C 190.84 -0.390164 -1.84725 0
M  V30 1997 O 190.197 0.632376 -1.71194 0
M  V30 1998 C 190.248 -2.81174 -2.27208 0
M  V30 1999 O 189.969 -4.05925 -1.64793 0
M  V30 2000 C 191.47 -3.09599 -3.17275 0
M  V30 2001 H 188.69 -0.566128 -0.360194 0
M  V30 2002 H 191.234 -1.98211 -0.503249 0
M  V30 2003 H 189.389 -2.54324 -2.9223 0
M  V30 2004 H 189.803 -4.68423 -2.35967 0
M  V30 2005 H 191.277 -3.91786 -3.88854 0
M  V30 2006 H 191.754 -2.22468 -3.78688 0
M  V30 2007 H 192.36 -3.38151 -2.57941 0
M  V30 2008 N 190.675 0.682077 -1.42076 0
M  V30 2009 C 192.091 0.994324 -1.24841 0
M  V30 2010 C 192.291 2.0096 -0.147389 0
M  V30 2011 O 191.347 2.47822 0.483782 0
M  V30 2012 C 192.66 1.50607 -2.60265 0
M  V30 2013 C 194.208 1.62421 -2.6756 0
M  V30 2014 C 194.683 2.16994 -4.03333 0
M  V30 2015 N 196.174 2.24337 -4.0525 0
M  V30 2016 C 196.909 2.67621 -5.07116 0
M  V30 2017 N 196.405 3.1041 -6.19368 0
M  V30 2018 N 198.198 2.67305 -4.94474 0
M  V30 2019 H 190.349 0.00973908 -2.12398 0
M  V30 2020 H 192.612 0.0668593 -0.945639 0
M  V30 2021 H 192.318 0.834583 -3.41654 0
M  V30 2022 H 192.192 2.48602 -2.83684 0
M  V30 2023 H 194.579 2.28678 -1.86521 0
M  V30 2024 H 194.66 0.629352 -2.47937 0
M  V30 2025 H 194.304 1.51349 -4.84826 0
M  V30 2026 H 194.234 3.17258 -4.20304 0
M  V30 2027 H 196.725 1.94158 -3.24209 0
M  V30 2028 H 197.038 3.42103 -6.92954 0
M  V30 2029 H 195.383 3.08286 -6.22884 0
M  V30 2030 H 198.574 2.33233 -4.05857 0
M  V30 2031 H 198.747 3.00718 -5.73997 0
M  V30 2032 N 192.153 1.28127 0.917671 0
M  V30 2033 C 193.378 1.18007 1.70555 0
M  V30 2034 C 193.803 -0.258257 1.86319 0
M  V30 2035 O 193.161 -1.1869 1.37049 0
M  V30 2036 C 193.209 1.87948 3.07746 0
M  V30 2037 O 192.313 1.18427 3.9503 0
M  V30 2038 H 191.654 0.409867 0.522403 0
M  V30 2039 H 194.184 1.69379 1.1477 0
M  V30 2040 H 194.194 1.95701 3.58001 0
M  V30 2041 H 192.869 2.92573 2.95591 0
M  V30 2042 H 191.446 1.18811 3.53466 0
M  V30 2043 N 193.631 -1.12557 1.10312 0
M  V30 2044 C 194.541 -2.21841 0.763142 0
M  V30 2045 C 195.557 -1.72354 -0.238801 0
M  V30 2046 O 196.733 -2.01249 -0.0778746 0
M  V30 2047 C 193.798 -3.46131 0.198632 0
M  V30 2048 C 192.859 -4.10464 1.25769 0
M  V30 2049 C 192.092 -5.28821 0.72002 0
M  V30 2050 O 192.315 -5.6859 -0.453993 0
M  V30 2051 O 191.249 -5.83437 1.47935 0
M  V30 2052 H 195.075 -2.53312 1.67532 0
M  V30 2053 H 192.66 -1.20867 0.878157 0
M  V30 2054 H 194.542 -4.2125 -0.112401 0
M  V30 2055 H 193.217 -3.16338 -0.686419 0
M  V30 2056 H 192.124 -3.3713 1.62156 0
M  V30 2057 H 193.457 -4.44408 2.11571 0
M  V30 2058 N 195.109 -0.891671 -1.2995 0
M  V30 2059 C 196.019 -0.367691 -2.31701 0
M  V30 2060 C 197.035 0.533486 -1.6562 0
M  V30 2061 O 198.211 0.424997 -1.96865 0
M  V30 2062 C 195.276 0.403406 -3.44345 0
M  V30 2063 C 194.337 -0.528328 -4.26037 0
M  V30 2064 C 193.57 0.206063 -5.33302 0
M  V30 2065 O 193.793 1.43119 -5.52153 0
M  V30 2066 O 192.727 -0.447281 -6.00236 0
M  V30 2067 H 196.553 -1.21163 -2.78484 0
M  V30 2068 H 194.138 -0.655725 -1.34241 0
M  V30 2069 H 196.02 0.839753 -4.12948 0
M  V30 2070 H 194.695 1.22354 -2.99685 0
M  V30 2071 H 193.602 -1.01362 -3.60106 0
M  V30 2072 H 194.935 -1.31465 -4.74318 0
M  V30 2073 N 196.587 1.43421 -0.653314 0
M  V30 2074 C 197.833 2.02111 -0.166992 0
M  V30 2075 C 198.166 1.51423 1.21592 0
M  V30 2076 O 197.441 0.707389 1.8118 0
M  V30 2077 C 197.724 3.5966 -0.177948 0
M  V30 2078 C 197.577 4.20579 -1.59478 0
M  V30 2079 C 198.896 4.37413 0.4856 0
M  V30 2080 H 196.015 0.734374 -0.0621557 0
M  V30 2081 H 198.657 1.70717 -0.834016 0
M  V30 2082 H 196.807 3.86537 0.390032 0
M  V30 2083 H 198.479 4.04732 -2.21336 0
M  V30 2084 H 196.722 3.77226 -2.14204 0
M  V30 2085 H 197.393 5.29665 -1.5543 0
M  V30 2086 H 199.869 4.161 0.00234528 0
M  V30 2087 H 198.745 5.47075 0.447207 0
M  V30 2088 H 199.006 4.13672 1.55974 0
M  V30 2089 N 198.065 0.39524 1.52563 0
M  V30 2090 C 199.293 -0.184943 2.06072 0
M  V30 2091 C 199.708 -1.40021 1.26647 0
M  V30 2092 O 199.065 -1.79767 0.314672 0
M  V30 2093 C 199.116 -0.549179 3.57304 0
M  V30 2094 O 198.837 0.617813 4.33722 0
M  V30 2095 C 200.338 -1.18459 4.2718 0
M  V30 2096 H 197.558 -0.0265025 0.670476 0
M  V30 2097 H 200.102 0.562184 1.96621 0
M  V30 2098 H 198.257 -1.2462 3.66809 0
M  V30 2099 H 198.671 0.317091 5.23541 0
M  V30 2100 H 200.145 -1.38976 5.34219 0
M  V30 2101 H 200.622 -2.15368 3.82771 0
M  V30 2102 H 201.228 -0.528163 4.22008 0
M  V30 2103 N 199.544 -1.57102 0.125237 0
M  V30 2104 C 200.96 -1.57915 -0.231322 0
M  V30 2105 C 201.16 -1.13833 -1.66266 0
M  V30 2106 O 200.216 -0.828581 -2.38518 0
M  V30 2107 C 201.529 -3.00699 0.00766489 0
M  V30 2108 C 203.077 -3.12947 -0.0577483 0
M  V30 2109 C 203.552 -4.57742 0.153626 0
M  V30 2110 N 205.043 -4.63092 0.0998073 0
M  V30 2111 C 205.778 -5.72905 0.238174 0
M  V30 2112 N 205.274 -6.91445 0.433057 0
M  V30 2113 N 207.067 -5.6182 0.177308 0
M  V30 2114 H 199.218 -1.84055 1.06007 0
M  V30 2115 H 201.481 -0.850905 0.417929 0
M  V30 2116 H 201.187 -3.3726 0.997431 0
M  V30 2117 H 201.061 -3.70236 -0.721452 0
M  V30 2118 H 203.448 -2.7624 -1.03804 0
M  V30 2119 H 203.529 -2.4594 0.70335 0
M  V30 2120 H 203.173 -4.95149 1.13092 0
M  V30 2121 H 203.103 -5.22848 -0.627534 0
M  V30 2122 H 205.594 -3.77871 -0.047051 0
M  V30 2123 H 205.907 -7.70985 0.529332 0
M  V30 2124 H 204.252 -6.93415 0.469109 0
M  V30 2125 H 207.443 -4.68093 0.0259748 0
M  V30 2126 H 207.616 -6.47357 0.288582 0
M  V30 2127 N 201.022 0.148545 -1.56898 0
M  V30 2128 C 201.932 1.20293 -2.01412 0
M  V30 2129 C 202.948 1.47107 -0.929273 0
M  V30 2130 O 204.124 1.58807 -1.23863 0
M  V30 2131 C 201.189 2.51682 -2.38447 0
M  V30 2132 C 200.25 2.32529 -3.60872 0
M  V30 2133 C 199.483 3.57653 -3.96132 0
M  V30 2134 O 199.706 4.63771 -3.32073 0
M  V30 2135 O 198.64 3.50408 -4.89385 0
M  V30 2136 H 202.466 0.855025 -2.91416 0
M  V30 2137 H 200.051 0.357151 -1.45068 0
M  V30 2138 H 201.933 3.29147 -2.63135 0
M  V30 2139 H 200.608 2.86006 -1.51599 0
M  V30 2140 H 199.515 1.53019 -3.41373 0
M  V30 2141 H 200.848 2.03121 -4.48333 0
M  V30 2142 N 202.5 1.5196 0.417844 0
M  V30 2143 C 203.41 1.77554 1.53336 0
M  V30 2144 C 204.426 0.660655 1.6097 0
M  V30 2145 O 205.602 0.945099 1.77848 0
M  V30 2146 C 202.667 1.91291 2.89152 0
M  V30 2147 C 201.728 3.15183 2.91475 0
M  V30 2148 C 200.961 3.28256 4.20813 0
M  V30 2149 O 201.184 2.46798 5.14244 0
M  V30 2150 O 200.118 4.21356 4.29817 0
M  V30 2151 H 203.944 2.7222 1.34647 0
M  V30 2152 H 201.529 1.36698 0.602828 0
M  V30 2153 H 203.411 2.02199 3.69721 0
M  V30 2154 H 202.086 0.998129 3.07927 0
M  V30 2155 H 200.993 3.09739 2.09791 0
M  V30 2156 H 202.326 4.06414 2.77648 0
M  V30 2157 N 203.978 -0.674533 1.42435 0
M  V30 2158 C 204.911 -1.79924 1.40366 0
M  V30 2159 C 205.889 -1.60378 0.267899 0
M  V30 2160 O 207.073 -1.82847 0.458159 0
M  V30 2161 C 204.2 -3.16927 1.19478 0
M  V30 2162 C 203.246 -3.55221 2.36051 0
M  V30 2163 S 204.079 -3.5762 3.98583 0
M  V30 2164 C 205.235 -4.97315 3.80038 0
M  V30 2165 H 205.468 -1.81405 2.35541 0
M  V30 2166 H 203.001 -0.845221 1.29211 0
M  V30 2167 H 204.959 -3.96007 1.08114 0
M  V30 2168 H 203.62 -3.13031 0.258883 0
M  V30 2169 H 202.813 -4.54804 2.17185 0
M  V30 2170 H 202.415 -2.83502 2.43932 0
M  V30 2171 H 204.707 -5.85401 3.41045 0
M  V30 2172 H 205.65 -5.21228 4.79298 0
M  V30 2173 H 206.058 -4.69845 3.12899 0
M  V30 2174 N 205.456 -1.28612 -0.910864 0
M  V30 2175 C 206.419 -1.12803 -1.9952 0
M  V30 2176 C 207.419 -0.0668264 -1.60661 0
M  V30 2177 O 208.609 -0.312847 -1.71368 0
M  V30 2178 C 205.741 -0.72254 -3.33155 0
M  V30 2179 H 206.934 -2.09109 -2.14973 0
M  V30 2180 H 204.487 -1.11639 -1.09391 0
M  V30 2181 H 205.222 0.241152 -3.23402 0
M  V30 2182 H 205.007 -1.48916 -3.62721 0
M  V30 2183 H 206.497 -0.634666 -4.12749 0
M  V30 2184 N 206.934 1.1197 -1.10907 0
M  V30 2185 C 207.897 2.16031 -0.765707 0
M  V30 2186 C 208.897 1.59393 0.212235 0
M  V30 2187 O 210.087 1.74196 -0.0115441 0
M  V30 2188 C 207.219 3.40632 -0.135053 0
M  V30 2189 H 208.412 2.47919 -1.68748 0
M  V30 2190 H 205.965 1.27061 -0.910226 0
M  V30 2191 H 206.7 3.14348 0.797218 0
M  V30 2192 H 206.485 3.8302 -0.838937 0
M  V30 2193 H 207.975 4.17505 0.0892469 0
M  V30 2194 N 208.412 0.89855 1.29475 0
M  V30 2195 C 209.375 0.380272 2.26023 0
M  V30 2196 C 210.375 -0.484891 1.53315 0
M  V30 2197 O 211.565 -0.290108 1.71767 0
M  V30 2198 C 208.697 -0.45651 3.3783 0
M  V30 2199 H 209.89 1.23295 2.73383 0
M  V30 2200 H 207.443 0.676589 1.40897 0
M  V30 2201 H 208.178 -1.32922 2.95808 0
M  V30 2202 H 207.963 0.163393 3.91759 0
M  V30 2203 H 209.453 -0.810466 4.0966 0
M  V30 2204 N 209.89 -1.43072 0.660911 0
M  V30 2205 C 211.138 -2.01323 0.177094 0
M  V30 2206 C 211.459 -1.5245 -1.2159 0
M  V30 2207 O 210.729 -0.740322 -1.81373 0
M  V30 2208 H 209.309 -0.744382 0.0624804 0
M  V30 2209 H 211.971 -1.75179 0.854305 0
M  V30 2210 H 211.067 -3.11649 0.167641 0
M  V30 2211 N 211.368 -0.403325 -1.52352 0
M  V30 2212 C 212.298 0.416205 -2.29761 0
M  V30 2213 C 213.279 1.05123 -1.33728 0
M  V30 2214 O 214.464 1.06134 -1.62632 0
M  V30 2215 C 211.594 1.53624 -3.11475 0
M  V30 2216 C 210.548 1.02653 -4.15507 0
M  V30 2217 C 209.874 2.23971 -4.85532 0
M  V30 2218 C 211.174 0.08463 -5.22231 0
M  V30 2219 H 212.868 -0.229701 -2.98518 0
M  V30 2220 H 210.414 -0.111913 -1.43564 0
M  V30 2221 H 212.367 2.1165 -3.64393 0
M  V30 2222 H 211.091 2.20994 -2.40477 0
M  V30 2223 H 209.75 0.46871 -3.63591 0
M  V30 2224 H 209.398 2.89883 -4.11068 0
M  V30 2225 H 209.098 1.90521 -5.55856 0
M  V30 2226 H 210.622 2.82614 -5.41259 0
M  V30 2227 H 212.036 0.573509 -5.70424 0
M  V30 2228 H 210.433 -0.160783 -5.99885 0
M  V30 2229 H 211.503 -0.86237 -4.7717 0
M  V30 2230 N 212.846 1.57033 -0.133567 0
M  V30 2231 C 214.074 2.00044 0.528195 0
M  V30 2232 C 214.489 1.01349 1.59291 0
M  V30 2233 O 213.846 0.00848369 1.82498 0
M  V30 2234 C 213.897 3.43018 1.1411 0
M  V30 2235 O 213.618 4.37939 0.11892 0
M  V30 2236 C 215.119 4.01237 1.88477 0
M  V30 2237 H 212.339 0.656517 0.138661 0
M  V30 2238 H 214.883 2.03267 -0.224196 0
M  V30 2239 H 213.038 3.40688 1.84418 0
M  V30 2240 H 213.452 5.21436 0.56613 0
M  V30 2241 H 214.926 5.03314 2.26669 0
M  V30 2242 H 215.403 3.41193 2.76558 0
M  V30 2243 H 216.009 4.07156 1.22898 0
M  V30 2244 N 214.325 -0.140222 1.56975 0
M  V30 2245 C 215.571 -0.852949 1.83991 0
M  V30 2246 C 215.904 -1.80512 0.716187 0
M  V30 2247 O 215.179 -1.92479 -0.279681 0
M  V30 2248 C 215.462 -1.6215 3.21527 0
M  V30 2249 C 215.315 -0.690363 4.4447 0
M  V30 2250 C 216.634 -2.58247 3.56366 0
M  V30 2251 H 213.753 -0.308634 0.669264 0
M  V30 2252 H 216.395 -0.117898 1.89634 0
M  V30 2253 H 214.545 -2.24812 3.16847 0
M  V30 2254 H 216.217 -0.0742264 4.6124 0
M  V30 2255 H 214.46 -0.000396433 4.338 0
M  V30 2256 H 215.131 -1.2643 5.37326 0
M  V30 2257 H 217.607 -2.05701 3.61699 0
M  V30 2258 H 216.483 -3.09067 4.53617 0
M  V30 2259 H 216.744 -3.39923 2.82674 0
M  V30 2260 N 215.803 -1.52179 -0.40978 0
M  V30 2261 C 217.031 -1.70054 -1.17853 0
M  V30 2262 C 217.446 -0.409735 -1.843 0
M  V30 2263 O 216.803 0.614183 -1.71855 0
M  V30 2264 C 216.854 -2.83568 -2.24213 0
M  V30 2265 O 216.575 -4.0765 -1.60478 0
M  V30 2266 C 218.076 -3.12947 -3.13973 0
M  V30 2267 H 215.296 -0.569917 -0.354169 0
M  V30 2268 H 217.84 -1.98734 -0.482198 0
M  V30 2269 H 215.995 -2.57409 -2.89516 0
M  V30 2270 H 216.409 -4.70899 -2.30986 0
M  V30 2271 H 217.883 -3.95889 -3.84677 0
M  V30 2272 H 218.36 -2.26472 -3.76307 0
M  V30 2273 H 218.966 -3.40868 -2.5434 0
M  V30 2274 N 217.281 0.66697 -1.42791 0
M  V30 2275 C 218.527 1.4291 -1.43891 0
M  V30 2276 C 218.86 1.94114 -0.0578972 0
M  V30 2277 O 218.135 1.71414 0.91911 0
M  V30 2278 C 218.418 2.62049 -2.46987 0
M  V30 2279 C 218.271 2.16426 -3.94309 0
M  V30 2280 C 219.59 3.64266 -2.46978 0
M  V30 2281 H 216.709 0.518306 -0.523954 0
M  V30 2282 H 219.351 0.757321 -1.74255 0
M  V30 2283 H 217.501 3.19361 -2.21225 0
M  V30 2284 H 219.173 1.64221 -4.31079 0
M  V30 2285 H 217.416 1.47925 -4.078 0
M  V30 2286 H 218.087 3.02038 -4.62036 0
M  V30 2287 H 220.563 3.16686 -2.69906 0
M  V30 2288 H 219.439 4.45196 -3.21079 0
M  V30 2289 H 219.7 4.15927 -1.49857 0
M  V30 2290 N 218.759 1.29093 0.90403 0
M  V30 2291 C 219.987 1.19689 1.68766 0
M  V30 2292 C 220.402 -0.243113 1.87228 0
M  V30 2293 O 219.759 -1.16326 1.40621 0
M  V30 2294 C 219.81 1.90144 3.07453 0
M  V30 2295 O 219.531 3.2852 2.89838 0
M  V30 2296 C 221.032 1.87162 4.01852 0
M  V30 2297 H 218.252 0.415035 0.527244 0
M  V30 2298 H 220.796 1.7039 1.13082 0
M  V30 2299 H 218.951 1.43289 3.59926 0
M  V30 2300 H 219.365 3.63944 3.77684 0
M  V30 2301 H 220.839 2.41032 4.96596 0
M  V30 2302 H 221.316 0.84617 4.30972 0
M  V30 2303 H 221.922 2.33741 3.5531 0
M  V30 2304 N 220.237 -1.11381 1.11499 0
M  V30 2305 C 221.187 -2.15555 0.74298 0
M  V30 2306 C 222.171 -1.58894 -0.253276 0
M  V30 2307 O 223.363 -1.76897 -0.0602918 0
M  V30 2308 C 220.492 -3.42782 0.188481 0
M  V30 2309 C 219.578 -4.064 1.21244 0
M  V30 2310 N 219.969 -4.44864 2.40685 0
M  V30 2311 C 218.267 -4.3333 1.05552 0
M  V30 2312 C 218.968 -4.94715 3.05994 0
M  V30 2313 N 217.944 -4.90909 2.33472 0
M  V30 2314 H 221.746 -2.43074 1.65203 0
M  V30 2315 H 219.26 -1.28401 0.994329 0
M  V30 2316 H 221.257 -4.16789 -0.0961693 0
M  V30 2317 H 219.917 -3.16727 -0.715149 0
M  V30 2318 H 220.928 -4.36876 2.78136 0
M  V30 2319 H 217.605 -4.1698 0.208372 0
M  V30 2320 H 218.995 -5.34103 4.07656 0
M  V30 2321 N 221.715 -0.905404 -1.28997 0
M  V30 2322 C 222.94 -0.549175 -1.99997 0
M  V30 2323 C 223.365 0.860276 -1.67275 0
M  V30 2324 O 222.723 1.57355 -0.900502 0
M  V30 2325 C 222.771 -0.755185 -3.52604 0
M  V30 2326 O 221.875 0.189692 -4.11964 0
M  V30 2327 H 221.216 -0.213899 -0.628604 0
M  V30 2328 H 223.746 -1.21856 -1.64354 0
M  V30 2329 H 223.756 -0.662045 -4.02593 0
M  V30 2330 H 222.431 -1.78271 -3.75755 0
M  V30 2331 H 221.008 0.0485257 -3.72868 0
M  V30 2332 N 223.193 1.4272 -0.668489 0
M  V30 2333 C 224.141 2.32586 0.0254857 0
M  V30 2334 C 225.135 1.49471 0.797176 0
M  V30 2335 O 226.341 1.65583 0.705853 0
M  V30 2336 H 222.716 0.751514 0.0270339 0
M  V30 2337 H 224.687 2.88823 -0.749936 0
M  V30 2338 C 223.436 3.3397 0.967427 0
M  V30 2339 H 222.759 3.97961 0.383048 0
M  V30 2340 H 224.199 3.9945 1.42181 0
M  V30 2341 C 222.658 2.65744 2.0708 0
M  V30 2342 O 223.188 2.48454 3.15648 0
M  V30 2343 N 221.394 2.2487 1.8407 0
M  V30 2344 H 220.941 2.39132 0.95778 0
M  V30 2345 H 220.899 1.79552 2.58086 0
M  V30 2346 N 224.671 0.411399 1.52136 0
M  V30 2347 C 225.581 -0.419774 2.30814 0
M  V30 2348 C 226.597 -1.0515 1.38634 0
M  V30 2349 O 227.773 -1.05252 1.71709 0
M  V30 2350 C 224.838 -1.52019 3.11594 0
M  V30 2351 C 223.899 -0.91129 4.19516 0
M  V30 2352 C 223.132 -1.95927 4.96436 0
M  V30 2353 O 223.355 -3.17775 4.73683 0
M  V30 2354 O 222.289 -1.56423 5.81219 0
M  V30 2355 H 226.115 0.221805 3.02889 0
M  V30 2356 H 223.7 0.174547 1.48377 0
M  V30 2357 H 225.582 -2.15898 3.61892 0
M  V30 2358 H 224.257 -2.14633 2.42311 0
M  V30 2359 H 223.164 -0.235157 3.7336 0
M  V30 2360 H 224.497 -0.32904 4.91099 0
M  V30 2361 N 226.149 -1.5696 0.141893 0
M  V30 2362 C 227.096 -2.16501 -0.799737 0
M  V30 2363 C 228.066 -1.09643 -1.24771 0
M  V30 2364 O 229.251 -1.3766 -1.32115 0
M  V30 2365 C 226.391 -2.78679 -2.03549 0
M  V30 2366 C 225.504 -3.99914 -1.6338 0
M  V30 2367 C 224.639 -4.50106 -2.82096 0
M  V30 2368 C 223.678 -5.63819 -2.38275 0
M  V30 2369 N 222.815 -6.08651 -3.49983 0
M  V30 2370 H 227.655 -2.96632 -0.285179 0
M  V30 2371 H 225.192 -1.46533 -0.129053 0
M  V30 2372 H 227.15 -3.1287 -2.75986 0
M  V30 2373 H 225.78 -2.012 -2.52425 0
M  V30 2374 H 224.832 -3.71735 -0.807279 0
M  V30 2375 H 226.144 -4.82311 -1.27192 0
M  V30 2376 H 225.298 -4.86325 -3.62729 0
M  V30 2377 H 224.037 -3.66706 -3.21525 0
M  V30 2378 H 223.042 -5.2718 -1.56081 0
M  V30 2379 H 224.267 -6.49 -1.99938 0
M  V30 2380 H 222.213 -5.28188 -3.89042 0
M  V30 2381 H 222.13 -6.85961 -3.17794 0
M  V30 2382 H 223.398 -6.49515 -4.30988 0
M  V30 2383 N 227.627 0.131896 -1.57047 0
M  V30 2384 C 228.577 1.1679 -1.95816 0
M  V30 2385 C 229.561 1.37756 -0.831393 0
M  V30 2386 O 230.753 1.39065 -1.09499 0
M  V30 2387 C 227.882 2.49778 -2.35512 0
M  V30 2388 C 226.968 2.32342 -3.54793 0
M  V30 2389 N 227.359 1.8469 -4.70875 0
M  V30 2390 C 225.657 2.63043 -3.60173 0
M  V30 2391 C 226.358 1.80656 -5.52936 0
M  V30 2392 N 225.334 2.24528 -4.95064 0
M  V30 2393 H 229.136 0.791818 -2.83033 0
M  V30 2394 H 226.65 0.339791 -1.58805 0
M  V30 2395 H 228.647 3.24692 -2.61498 0
M  V30 2396 H 227.307 2.88156 -1.49654 0
M  V30 2397 H 228.318 1.54429 -4.9434 0
M  V30 2398 H 224.995 3.05193 -2.84892 0
M  V30 2399 H 226.385 1.45178 -6.56028 0
M  V30 2400 N 229.106 1.52395 0.401703 0
M  V30 2401 C 230.383 1.57387 1.16141 0
M  V30 2402 C 230.763 0.359359 2.08019 0
M  V30 2403 O 230.111 -0.65326 2.18963 0
M  V30 2404 C 230.321 2.90631 1.93221 0
M  V30 2405 C 231.669 3.43904 2.49028 0
M  V30 2406 O 232.693 2.92421 2.03393 0
M  V30 2407 O 231.552 4.33823 3.32356 0
M  V30 2408 H 228.646 0.634262 0.530698 0
M  V30 2409 H 231.192 1.64725 0.407883 0
M  V30 2410 H 229.964 3.70473 1.25958 0
M  V30 2411 H 229.587 2.8662 2.75563 0
M  V30 2412 N 230.584 -0.659388 1.43143 0
M  V30 2413 C 231.514 -1.78422 1.50625 0
M  V30 2414 C 232.495 -1.66216 0.361443 0
M  V30 2415 O 233.68 -1.85404 0.577834 0
M  V30 2416 C 230.81 -3.16815 1.42287 0
M  V30 2417 C 229.764 -3.43777 2.54954 0
M  V30 2418 C 229.09 -4.81905 2.31671 0
M  V30 2419 C 230.39 -3.39134 3.97222 0
M  V30 2420 H 232.084 -1.72417 2.44771 0
M  V30 2421 H 229.63 -0.828084 1.17808 0
M  V30 2422 H 231.583 -3.95253 1.46127 0
M  V30 2423 H 230.307 -3.23534 0.446435 0
M  V30 2424 H 228.966 -2.67707 2.50457 0
M  V30 2425 H 228.614 -4.85294 1.32284 0
M  V30 2426 H 228.314 -5.00906 3.07192 0
M  V30 2427 H 229.838 -5.62609 2.37284 0
M  V30 2428 H 231.252 -4.07518 4.03239 0
M  V30 2429 H 229.649 -3.69671 4.72719 0
M  V30 2430 H 230.719 -2.37426 4.22797 0
M  V30 2431 N 232.062 -1.29571 -0.897171 0
M  V30 2432 C 233.012 -1.11539 -1.98855 0
M  V30 2433 C 233.996 -0.0340716 -1.60864 0
M  V30 2434 O 235.188 -0.256062 -1.75138 0
M  V30 2435 C 232.317 -0.796603 -3.3393 0
M  V30 2436 C 231.403 -1.91758 -3.78272 0
M  V30 2437 N 231.794 -3.16143 -3.94826 0
M  V30 2438 C 230.092 -1.81119 -4.07568 0
M  V30 2439 C 230.793 -3.89293 -4.32233 0
M  V30 2440 N 229.769 -3.17255 -4.41419 0
M  V30 2441 H 233.571 -2.05894 -2.09726 0
M  V30 2442 H 231.085 -1.20732 -1.08616 0
M  V30 2443 H 233.082 -0.648459 -4.11826 0
M  V30 2444 H 231.742 0.139003 -3.24402 0
M  V30 2445 H 232.753 -3.5157 -3.80288 0
M  V30 2446 H 229.43 -0.948461 -4.06584 0
M  V30 2447 H 230.82 -4.9635 -4.52865 0
M  V30 2448 N 233.54 1.10788 -1.12088 0
M  V30 2449 C 234.786 1.82942 -0.875226 0
M  V30 2450 C 235.119 1.84779 0.597538 0
M  V30 2451 O 234.394 1.30578 1.44152 0
M  V30 2452 C 234.677 3.29789 -1.44606 0
M  V30 2453 C 234.53 3.36307 -2.98693 0
M  V30 2454 C 235.849 4.26064 -1.10261 0
M  V30 2455 H 232.968 0.664195 -0.319397 0
M  V30 2456 H 235.61 1.29867 -1.38689 0
M  V30 2457 H 233.76 3.75118 -1.01089 0
M  V30 2458 H 235.432 2.99487 -3.50864 0
M  V30 2459 H 233.675 2.76318 -3.34411 0
M  V30 2460 H 234.346 4.39694 -3.33726 0
M  V30 2461 H 236.822 3.88951 -1.4784 0
M  V30 2462 H 235.698 5.27183 -1.52869 0
M  V30 2463 H 235.959 4.42098 -0.0142953 0
M  V30 2464 N 235.018 0.912232 1.28515 0
M  V30 2465 C 236.246 0.560416 1.99166 0
M  V30 2466 C 236.661 -0.857927 1.68182 0
M  V30 2467 O 236.018 -1.56805 0.933733 0
M  V30 2468 C 236.069 0.758142 3.53461 0
M  V30 2469 O 235.79 2.12067 3.83352 0
M  V30 2470 C 237.291 0.412954 4.41372 0
M  V30 2471 H 234.511 0.213805 0.636026 0
M  V30 2472 H 237.055 1.22502 1.63749 0
M  V30 2473 H 235.21 0.140556 3.87145 0
M  V30 2474 H 235.624 2.15923 4.77993 0
M  V30 2475 H 237.098 0.60208 5.48707 0
M  V30 2476 H 237.575 -0.65073 4.34353 0
M  V30 2477 H 238.181 1.00802 4.13182 0
M  V30 2478 N 236.496 -1.42363 0.676048 0
M  V30 2479 C 237.721 -2.06377 0.205705 0
M  V30 2480 C 238.146 -1.50463 -1.12883 0
M  V30 2481 O 237.504 -0.623619 -1.70237 0
M  V30 2482 C 237.552 -3.60277 0.152655 0
M  V30 2483 O 236.656 -4.02935 -0.87845 0
M  V30 2484 H 235.997 -0.655588 0.105359 0
M  V30 2485 H 238.527 -1.82475 0.925412 0
M  V30 2486 H 238.537 -4.07993 -0.0230675 0
M  V30 2487 H 237.212 -4.00346 1.12675 0
M  V30 2488 H 235.789 -3.66764 -0.673668 0
M  V30 2489 N 237.974 -0.419461 -1.51915 0
M  V30 2490 C 238.906 0.43646 -2.25006 0
M  V30 2491 C 239.919 1.00149 -1.28351 0
M  V30 2492 O 241.108 0.898674 -1.54227 0
M  V30 2493 C 238.208 1.6206 -2.9764 0
M  V30 2494 C 237.381 1.17763 -4.21249 0
M  V30 2495 C 236.44 2.22985 -4.76617 0
M  V30 2496 O 235.466 1.83151 -5.38929 0
M  V30 2497 N 236.668 3.55271 -4.59089 0
M  V30 2498 H 239.433 -0.18989 -2.99098 0
M  V30 2499 H 236.994 -0.247386 -1.59999 0
M  V30 2500 H 238.986 2.32038 -3.31573 0
M  V30 2501 H 237.556 2.15266 -2.2667 0
M  V30 2502 H 236.776 0.305582 -3.93014 0
M  V30 2503 H 238.064 0.858781 -5.015 0
M  V30 2504 H 237.462 3.90377 -4.09417 0
M  V30 2505 H 236.019 4.21195 -4.97432 0
M  V30 2506 N 239.452 1.56882 -0.150215 0
M  V30 2507 C 240.384 2.14057 0.819286 0
M  V30 2508 C 241.397 1.09082 1.20851 0
M  V30 2509 O 242.586 1.36347 1.15203 0
M  V30 2510 C 239.686 2.65102 2.11127 0
M  V30 2511 C 238.859 3.94511 1.88891 0
M  V30 2512 C 237.918 4.30834 3.02107 0
M  V30 2513 O 236.944 4.99099 2.73659 0
M  V30 2514 N 238.146 3.90676 4.29363 0
M  V30 2515 H 240.911 2.97871 0.330618 0
M  V30 2516 H 238.472 1.61866 0.0332538 0
M  V30 2517 H 240.464 2.86411 2.85921 0
M  V30 2518 H 239.034 1.85994 2.51247 0
M  V30 2519 H 238.254 3.81795 0.981152 0
M  V30 2520 H 239.542 4.7907 1.71376 0
M  V30 2521 H 238.94 3.35677 4.55343 0
M  V30 2522 H 237.497 4.1703 5.00928 0
M  V30 2523 N 240.93 -0.123565 1.57115 0
M  V30 2524 C 242.178 -0.83051 1.84247 0
M  V30 2525 C 242.499 -1.80629 0.73471 0
M  V30 2526 O 241.769 -1.94403 -0.241688 0
M  V30 2527 H 240.349 -0.309694 0.679778 0
M  V30 2528 H 243.011 -0.111976 1.94578 0
M  V30 2529 H 242.107 -1.37852 2.80006 0
M  V30 2530 N 242.408 -1.52605 -0.393616 0
M  V30 2531 C 243.633 -1.71592 -1.16495 0
M  V30 2532 C 244.058 -0.43133 -1.83088 0
M  V30 2533 O 243.416 0.612523 -1.7064 0
M  V30 2534 C 243.464 -2.86318 -2.19213 0
M  V30 2535 O 242.568 -2.52969 -3.257 0
M  V30 2536 H 241.909 -0.570734 -0.33935 0
M  V30 2537 H 244.439 -1.99377 -0.459324 0
M  V30 2538 H 244.449 -3.1168 -2.63286 0
M  V30 2539 H 243.124 -3.79511 -1.7013 0
M  V30 2540 H 241.701 -2.38332 -2.86797 0
M  V30 2541 N 243.887 0.651787 -1.4349 0
M  V30 2542 C 245.112 1.44434 -1.48841 0
M  V30 2543 C 245.537 1.8779 -0.107955 0
M  V30 2544 O 244.895 1.57464 0.898602 0
M  V30 2545 C 244.943 2.65458 -2.44059 0
M  V30 2546 O 244.047 3.64566 -1.92784 0
M  V30 2547 H 243.388 0.433005 -0.503391 0
M  V30 2548 H 245.918 0.797451 -1.88419 0
M  V30 2549 H 245.928 3.13255 -2.6141 0
M  V30 2550 H 244.603 2.33244 -3.4434 0
M  V30 2551 H 243.18 3.23716 -1.851 0
M  V30 2552 N 245.365 1.30045 0.890287 0
M  V30 2553 C 246.275 1.17885 2.02831 0
M  V30 2554 C 247.291 0.0999609 1.73713 0
M  V30 2555 O 248.467 0.313867 1.98939 0
M  V30 2556 C 245.532 0.866079 3.35708 0
M  V30 2557 C 244.593 2.02979 3.78283 0
M  V30 2558 C 243.826 1.73184 5.0482 0
M  V30 2559 O 244.049 0.657237 5.66601 0
M  V30 2560 O 242.983 2.58267 5.43674 0
M  V30 2561 H 246.809 2.13474 2.16015 0
M  V30 2562 H 244.394 1.09587 1.01543 0
M  V30 2563 H 246.276 0.706623 4.15433 0
M  V30 2564 H 244.951 -0.0599443 3.23644 0
M  V30 2565 H 243.858 2.24454 2.99285 0
M  V30 2566 H 245.191 2.93734 3.94944 0
M  V30 2567 N 246.843 -1.10192 1.12674 0
M  V30 2568 C 248.254 -1.63707 0.897604 0
M  V30 2569 C 248.605 -1.87812 -0.567546 0
M  V30 2570 O 247.73 -1.62196 -1.43253 0
M  V30 2571 C 248.325 -2.974 1.62292 0
M  V30 2572 C 246.884 -3.47772 1.43986 0
M  V30 2573 C 246.031 -2.22332 1.65722 0
M  V30 2574 H 248.982 -0.936587 1.28116 0
M  V30 2575 H 249.003 -3.64986 1.07541 0
M  V30 2576 H 248.515 -2.79824 2.68924 0
M  V30 2577 H 246.616 -3.70487 0.396206 0
M  V30 2578 H 246.729 -4.25723 2.19765 0
M  V30 2579 H 245.093 -2.30599 1.08149 0
M  V30 2580 H 245.876 -2.07285 2.73657 0
M  V30 2581 N 248.321 -0.919034 -1.28029 0
M  V30 2582 C 249.567 -0.555757 -1.95036 0
M  V30 2583 C 249.9 0.899198 -1.72128 0
M  V30 2584 O 249.175 1.64023 -1.04531 0
M  V30 2585 C 249.458 -0.872024 -3.49382 0
M  V30 2586 C 249.311 -2.3801 -3.81669 0
M  V30 2587 C 250.63 -0.37185 -4.38526 0
M  V30 2588 H 247.749 -0.203386 -0.708381 0
M  V30 2589 H 250.391 -1.14924 -1.51303 0
M  V30 2590 H 248.541 -0.366946 -3.86763 0
M  V30 2591 H 250.213 -2.9562 -3.54128 0
M  V30 2592 H 248.456 -2.83289 -3.28526 0
M  V30 2593 H 249.127 -2.55192 -4.8947 0
M  V30 2594 H 251.603 -0.804602 -4.08247 0
M  V30 2595 H 250.479 -0.622173 -5.45362 0
M  V30 2596 H 250.74 0.727934 -4.36066 0
M  V30 2597 N 249.799 1.42003 -0.683588 0
M  V30 2598 C 251.045 2.01712 -0.209825 0
M  V30 2599 C 251.378 1.53968 1.18353 0
M  V30 2600 O 250.653 0.745661 1.79639 0
M  V30 2601 C 250.936 3.59202 -0.254197 0
M  V30 2602 C 250.789 4.17102 -1.68363 0
M  V30 2603 C 252.108 4.38344 0.392709 0
M  V30 2604 H 249.227 0.732891 -0.0777189 0
M  V30 2605 H 251.869 1.68909 -0.87004 0
M  V30 2606 H 250.019 3.87278 0.307954 0
M  V30 2607 H 251.691 3.99946 -2.29871 0
M  V30 2608 H 249.934 3.72597 -2.22157 0
M  V30 2609 H 250.605 5.26249 -1.6663 0
M  V30 2610 H 253.081 4.16011 -0.0859162 0
M  V30 2611 H 251.957 5.47901 0.331063 0
M  V30 2612 H 252.218 4.16887 1.47164 0
M  V30 2613 N 251.277 0.427512 1.51691 0
M  V30 2614 C 252.209 -0.424521 2.25234 0
M  V30 2615 C 253.222 -0.994671 1.2888 0
M  V30 2616 O 254.411 -0.890483 1.54702 0
M  V30 2617 C 251.511 -1.60479 2.98496 0
M  V30 2618 C 250.684 -1.15527 4.21868 0
M  V30 2619 C 249.743 -2.20454 4.77793 0
M  V30 2620 O 248.769 -1.8029 5.39893 0
M  V30 2621 N 249.971 -3.52831 4.60967 0
M  V30 2622 H 252.736 0.205749 2.98993 0
M  V30 2623 H 250.297 0.255867 1.59865 0
M  V30 2624 H 252.289 -2.30276 3.32799 0
M  V30 2625 H 250.859 -2.14061 2.27809 0
M  V30 2626 H 250.079 -0.284736 3.9317 0
M  V30 2627 H 251.367 -0.832173 5.01949 0
M  V30 2628 H 250.765 -3.88201 4.11481 0
M  V30 2629 H 249.322 -4.18551 4.99658 0
M  V30 2630 N 252.755 -1.56801 0.158532 0
M  V30 2631 C 254.032 -1.88131 -0.535357 0
M  V30 2632 C 254.412 -1.06638 -1.82186 0
M  V30 2633 O 253.76 -0.156533 -2.27963 0
M  V30 2634 C 253.97 -3.39949 -0.789653 0
M  V30 2635 C 255.318 -4.09416 -1.12533 0
M  V30 2636 O 256.342 -3.45194 -0.878622 0
M  V30 2637 O 255.201 -5.22855 -1.59014 0
M  V30 2638 H 252.295 -0.780143 -0.27442 0
M  V30 2639 H 254.841 -1.68564 0.19601 0
M  V30 2640 H 253.613 -3.91115 0.120353 0
M  V30 2641 H 253.236 -3.65084 -1.57479 0
M  V30 2642 N 254.233 0.115231 -1.57178 0
M  V30 2643 C 255.163 1.1423 -2.03651 0
M  V30 2644 C 256.144 1.42967 -0.921655 0
M  V30 2645 O 257.329 1.53343 -1.19162 0
M  V30 2646 C 254.459 2.4675 -2.44401 0
M  V30 2647 C 253.413 2.32467 -3.59365 0
M  V30 2648 C 252.739 3.69984 -3.86026 0
M  V30 2649 C 254.039 1.78203 -4.90959 0
M  V30 2650 H 255.733 0.755749 -2.89705 0
M  V30 2651 H 253.279 0.362093 -1.39373 0
M  V30 2652 H 255.232 3.18854 -2.75517 0
M  V30 2653 H 253.956 2.87302 -1.55322 0
M  V30 2654 H 252.615 1.62811 -3.28463 0
M  V30 2655 H 252.263 4.08028 -2.94147 0
M  V30 2656 H 251.963 3.61279 -4.63412 0
M  V30 2657 H 253.487 4.43587 -4.19599 0
M  V30 2658 H 254.901 2.40128 -5.20587 0
M  V30 2659 H 253.298 1.8031 -5.72371 0
M  V30 2660 H 254.368 0.739876 -4.79222 0
M  V30 2661 N 255.711 1.52812 0.385517 0
M  V30 2662 C 256.674 1.77188 1.45386 0
M  V30 2663 C 257.674 0.641953 1.4743 0
M  V30 2664 O 258.864 0.910033 1.4854 0
M  V30 2665 C 255.996 1.87582 2.8465 0
M  V30 2666 H 257.189 2.72583 1.25054 0
M  V30 2667 H 254.742 1.43586 0.617467 0
M  V30 2668 H 255.477 0.941849 3.10322 0
M  V30 2669 H 255.262 2.69748 2.84567 0
M  V30 2670 H 256.752 2.08102 3.62054 0
M  V30 2671 N 257.189 -0.644168 1.43834 0
M  V30 2672 C 258.121 -1.76955 1.45669 0
M  V30 2673 C 259.134 -1.58956 0.351666 0
M  V30 2674 O 260.323 -1.6751 0.616644 0
M  V30 2675 C 257.423 -3.14507 1.26248 0
M  V30 2676 C 256.596 -3.59083 2.49757 0
M  V30 2677 C 255.655 -4.75467 2.25427 0
M  V30 2678 O 254.681 -4.84444 2.98836 0
M  V30 2679 N 255.883 -5.66289 1.27661 0
M  V30 2680 H 258.648 -1.75856 2.42682 0
M  V30 2681 H 256.209 -0.828312 1.39106 0
M  V30 2682 H 258.201 -3.90067 1.0784 0
M  V30 2683 H 256.771 -3.10325 0.376478 0
M  V30 2684 H 255.991 -2.7387 2.8353 0
M  V30 2685 H 257.279 -3.85613 3.31934 0
M  V30 2686 H 256.677 -5.61718 0.670064 0
M  V30 2687 H 255.234 -6.41533 1.15234 0
M  V30 2688 N 258.668 -1.30515 -0.883378 0
M  V30 2689 C 259.914 -1.19607 -1.63774 0
M  V30 2690 C 260.247 0.248314 -1.92606 0
M  V30 2691 O 259.522 1.17742 -1.54813 0
M  V30 2692 C 259.805 -2.02669 -2.97653 0
M  V30 2693 C 259.658 -3.55335 -2.75784 0
M  V30 2694 C 260.977 -1.86573 -3.98596 0
M  V30 2695 H 258.096 -0.435856 -0.594305 0
M  V30 2696 H 260.738 -1.60165 -1.02212 0
M  V30 2697 H 258.888 -1.68208 -3.50197 0
M  V30 2698 H 260.56 -3.99863 -2.30016 0
M  V30 2699 H 258.803 -3.79438 -2.1026 0
M  V30 2700 H 259.474 -4.08745 -3.70988 0
M  V30 2701 H 261.95 -2.16703 -3.55217 0
M  V30 2702 H 260.826 -2.47014 -4.90179 0
M  V30 2703 H 261.087 -0.825321 -4.34328 0
M  V30 2704 N 260.146 1.09593 -1.13257 0
M  V30 2705 C 261.392 1.82003 -0.89458 0
M  V30 2706 C 261.725 1.85402 0.577906 0
M  V30 2707 O 261 1.32099 1.42759 0
M  V30 2708 C 261.283 3.28237 -1.48096 0
M  V30 2709 C 261.136 3.3312 -3.02244 0
M  V30 2710 C 262.455 4.24871 -1.14774 0
M  V30 2711 H 259.574 0.66077 -0.326424 0
M  V30 2712 H 262.216 1.28389 -1.40058 0
M  V30 2713 H 260.366 3.74024 -1.05062 0
M  V30 2714 H 262.038 2.95748 -3.54021 0
M  V30 2715 H 260.281 2.72756 -3.37323 0
M  V30 2716 H 260.952 4.3613 -3.38371 0
M  V30 2717 H 263.428 3.87361 -1.51957 0
M  V30 2718 H 262.304 5.25532 -1.58452 0
M  V30 2719 H 262.565 4.42058 -0.0611849 0
M  V30 2720 N 261.624 0.925811 1.2754 0
M  V30 2721 C 262.534 0.428993 2.30644 0
M  V30 2722 C 263.55 -0.489387 1.66976 0
M  V30 2723 O 264.726 -0.372653 1.97922 0
M  V30 2724 C 261.791 -0.311967 3.45294 0
M  V30 2725 C 260.852 0.641098 4.24486 0
M  V30 2726 C 260.085 -0.0645955 5.33661 0
M  V30 2727 O 260.308 -1.28429 5.55754 0
M  V30 2728 O 259.242 0.606265 5.98839 0
M  V30 2729 H 263.068 1.28504 2.75173 0
M  V30 2730 H 260.653 0.691086 1.32455 0
M  V30 2731 H 262.535 -0.729972 4.15029 0
M  V30 2732 H 261.21 -1.14365 3.02824 0
M  V30 2733 H 260.117 1.10874 3.57292 0
M  V30 2734 H 261.45 1.43995 4.70666 0
M  V30 2735 N 263.102 -1.41638 0.69111 0
M  V30 2736 C 264.012 -2.34588 0.0233487 0
M  V30 2737 C 265.028 -1.55987 -0.770984 0
M  V30 2738 O 266.204 -1.88486 -0.709569 0
M  V30 2739 C 263.269 -3.34684 -0.904851 0
M  V30 2740 C 262.33 -4.29176 -0.103225 0
M  V30 2741 C 261.563 -5.2449 -0.987216 0
M  V30 2742 O 261.786 -5.2514 -2.22674 0
M  V30 2743 O 260.72 -6.00295 -0.439281 0
M  V30 2744 H 264.546 -2.93261 0.789416 0
M  V30 2745 H 262.131 -1.42417 0.45142 0
M  V30 2746 H 264.013 -3.96133 -1.43724 0
M  V30 2747 H 262.688 -2.78461 -1.65049 0
M  V30 2748 H 261.595 -3.71089 0.473655 0
M  V30 2749 H 262.928 -4.88484 0.60365 0
M  V30 2750 N 264.58 -0.43555 -1.51462 0
M  V30 2751 C 265.826 0.131709 -2.02372 0
M  V30 2752 C 266.159 1.42516 -1.3192 0
M  V30 2753 O 265.434 1.89606 -0.433573 0
M  V30 2754 C 265.717 0.352301 -3.58373 0
M  V30 2755 C 265.57 -0.959676 -4.39443 0
M  V30 2756 C 266.889 1.12286 -4.25535 0
M  V30 2757 H 264.008 0.0463936 -0.735538 0
M  V30 2758 H 266.65 -0.574197 -1.81116 0
M  V30 2759 H 264.8 0.9536 -3.76615 0
M  V30 2760 H 266.472 -1.59482 -4.32855 0
M  V30 2761 H 264.715 -1.56468 -4.04599 0
M  V30 2762 H 265.386 -0.759394 -5.46752 0
M  V30 2763 H 267.862 0.613545 -4.11552 0
M  V30 2764 H 266.738 1.24598 -5.34571 0
M  V30 2765 H 266.999 2.15048 -3.86273 0
M  V30 2766 N 266.058 1.56714 -0.166846 0
M  V30 2767 C 267.307 1.95922 0.479318 0
M  V30 2768 C 267.62 1.05529 1.6469 0
M  V30 2769 O 268.826 1.34399 2.35901 0
M  V30 2770 C 267.282 3.48359 0.90412 0
M  V30 2771 C 266.89 4.47369 -0.237621 0
M  V30 2772 C 268.634 3.96394 1.51896 0
M  V30 2773 C 266.541 5.91039 0.206561 0
M  V30 2774 H 265.471 0.731495 0.18284 0
M  V30 2775 H 268.122 1.81728 -0.254363 0
M  V30 2776 H 266.504 3.57955 1.69365 0
M  V30 2777 H 267.678 4.49485 -1.01489 0
M  V30 2778 H 265.993 4.09366 -0.762128 0
M  V30 2779 H 268.59 5.01186 1.86325 0
M  V30 2780 H 268.933 3.39075 2.41524 0
M  V30 2781 H 269.466 3.89796 0.79395 0
M  V30 2782 H 266.205 6.52221 -0.654834 0
M  V30 2783 H 265.725 5.9224 0.949282 0
M  V30 2784 H 267.404 6.43707 0.651939 0
M  V30 2785 N 267.536 -0.106894 1.57237 0
M  V30 2786 C 268.784 -0.810921 1.85117 0
M  V30 2787 C 269.105 -1.7984 0.753827 0
M  V30 2788 O 268.375 -1.94649 -0.221056 0
M  V30 2789 H 266.955 -0.302466 0.683025 0
M  V30 2790 H 269.617 -0.0913324 1.94686 0
M  V30 2791 H 268.713 -1.34875 2.81452 0
M  V30 2792 N 269.014 -1.53014 -0.377408 0
M  V30 2793 C 270.26 -1.68872 -1.12294 0
M  V30 2794 C 270.593 -0.433224 -1.89306 0
M  V30 2795 O 269.868 0.569258 -1.85983 0
M  V30 2796 C 270.151 -2.93115 -2.09179 0
M  V30 2797 C 270.004 -4.28794 -1.35853 0
M  V30 2798 C 271.323 -3.12928 -3.09458 0
M  V30 2799 H 268.442 -0.614518 -0.406862 0
M  V30 2800 H 271.084 -1.85633 -0.40503 0
M  V30 2801 H 269.234 -2.78956 -2.70399 0
M  V30 2802 H 270.906 -4.54742 -0.775082 0
M  V30 2803 H 269.149 -4.28744 -0.660364 0
M  V30 2804 H 269.82 -5.11837 -2.06706 0
M  V30 2805 H 272.296 -3.26194 -2.58334 0
M  V30 2806 H 271.172 -4.01316 -3.74482 0
M  V30 2807 H 271.433 -2.27669 -3.78971 0
M  V30 2808 N 270.492 0.636531 -1.44174 0
M  V30 2809 C 271.903 1.21806 -1.41493 0
M  V30 2810 C 272.254 1.95785 -0.1275 0
M  V30 2811 O 271.379 2.02147 0.772376 0
M  V30 2812 C 271.974 2.21551 -2.56321 0
M  V30 2813 C 270.533 2.75143 -2.56853 0
M  V30 2814 C 269.68 1.50052 -2.33195 0
M  V30 2815 H 272.631 0.427531 -1.52833 0
M  V30 2816 H 272.652 3.0405 -2.28765 0
M  V30 2817 H 272.164 1.67679 -3.50008 0
M  V30 2818 H 270.265 3.33033 -1.67093 0
M  V30 2819 H 270.378 3.2155 -3.55165 0
M  V30 2820 H 268.742 1.77993 -1.82183 0
M  V30 2821 H 269.525 0.980903 -3.28988 0
M  V30 2822 N 271.97 1.30982 0.876444 0
M  V30 2823 C 272.902 1.13902 1.98894 0
M  V30 2824 C 273.915 0.0798815 1.62604 0
M  V30 2825 O 275.104 0.326743 1.75484 0
M  V30 2826 C 272.204 0.716699 3.31235 0
M  V30 2827 C 271.377 1.85945 3.95908 0
M  V30 2828 C 270.436 1.42426 5.06558 0
M  V30 2829 O 269.462 2.13287 5.27729 0
M  V30 2830 N 270.664 0.308025 5.79682 0
M  V30 2831 H 273.429 2.09724 2.14094 0
M  V30 2832 H 270.99 1.2323 1.05004 0
M  V30 2833 H 272.982 0.408403 4.02634 0
M  V30 2834 H 271.552 -0.149719 3.12241 0
M  V30 2835 H 270.772 2.33541 3.17573 0
M  V30 2836 H 272.06 2.62503 4.35855 0
M  V30 2837 H 271.458 -0.282241 5.64995 0
M  V30 2838 H 270.015 0.0592282 6.51773 0
M  V30 2839 N 273.449 -1.08991 1.13837 0
M  V30 2840 C 274.674 -1.85551 0.926585 0
M  V30 2841 C 275.099 -1.80782 -0.519566 0
M  V30 2842 O 274.457 -1.18855 -1.36906 0
M  V30 2843 C 274.505 -3.31266 1.42462 0
M  V30 2844 O 273.609 -4.07822 0.612789 0
M  V30 2845 H 272.95 -0.575192 0.331738 0
M  V30 2846 H 275.48 -1.37604 1.51414 0
M  V30 2847 H 275.49 -3.82112 1.43019 0
M  V30 2848 H 274.165 -3.34052 2.47754 0
M  V30 2849 H 272.742 -3.66731 0.675463 0
M  V30 2850 N 274.927 -0.932562 -1.27047 0
M  V30 2851 C 276.174 -0.575559 -1.94148 0
M  V30 2852 C 276.502 0.883984 -1.73251 0
M  V30 2853 O 275.757 1.64655 -1.0577 0
M  V30 2854 C 276.056 -0.853713 -3.47054 0
M  V30 2855 C 275.722 -2.29577 -3.88079 0
M  V30 2856 C 274.384 -2.68999 -3.9899 0
M  V30 2857 C 276.736 -3.23331 -4.08787 0
M  V30 2858 C 274.064 -4.01289 -4.28 0
M  V30 2859 C 276.416 -4.55207 -4.39282 0
M  V30 2860 C 275.08 -4.94457 -4.48407 0
M  V30 2861 H 274.35 -0.210612 -0.710439 0
M  V30 2862 H 276.997 -1.17744 -1.51025 0
M  V30 2863 H 275.302 -0.169204 -3.91434 0
M  V30 2864 H 276.999 -0.55639 -3.97121 0
M  V30 2865 H 273.589 -1.97994 -3.80127 0
M  V30 2866 H 277.773 -2.94074 -3.99793 0
M  V30 2867 H 273.029 -4.31374 -4.33275 0
M  V30 2868 H 277.203 -5.27852 -4.54252 0
M  V30 2869 H 274.83 -5.96994 -4.7064 0
M  V30 2870 N 276.405 1.4127 -0.698611 0
M  V30 2871 C 277.337 2.292 0.00399731 0
M  V30 2872 C 278.35 1.44944 0.741279 0
M  V30 2873 O 279.539 1.68416 0.591477 0
M  V30 2874 C 276.639 3.22875 1.02979 0
M  V30 2875 C 275.812 4.35904 0.36151 0
M  V30 2876 C 274.871 5.10134 1.29033 0
M  V30 2877 O 273.897 5.63809 0.781562 0
M  V30 2878 N 275.099 5.17885 2.6225 0
M  V30 2879 H 277.864 2.9014 -0.750921 0
M  V30 2880 H 275.425 1.52455 -0.544882 0
M  V30 2881 H 277.417 3.69404 1.65296 0
M  V30 2882 H 275.987 2.63221 1.68622 0
M  V30 2883 H 275.207 3.91719 -0.441584 0
M  V30 2884 H 276.495 5.08696 -0.103055 0
M  V30 2885 H 275.893 4.7573 3.061 0
M  V30 2886 H 274.45 5.6798 3.19754 0
M  V30 2887 N 277.883 0.443576 1.51229 0
M  V30 2888 C 278.83 -0.364716 2.279 0
M  V30 2889 C 279.8 -1.0114 1.31757 0
M  V30 2890 O 280.985 -1.02912 1.60667 0
M  V30 2891 C 278.125 -1.45644 3.12861 0
M  V30 2892 C 277.238 -0.827269 4.24005 0
M  V30 2893 C 276.373 -1.89456 4.96266 0
M  V30 2894 C 275.412 -1.24416 5.99322 0
M  V30 2895 N 274.549 -2.25309 6.64966 0
M  V30 2896 H 279.389 0.295464 2.96532 0
M  V30 2897 H 276.926 0.157554 1.46254 0
M  V30 2898 H 278.884 -2.10076 3.6045 0
M  V30 2899 H 277.514 -2.08616 2.46331 0
M  V30 2900 H 276.566 -0.0710839 3.80334 0
M  V30 2901 H 277.878 -0.312481 4.9782 0
M  V30 2902 H 277.032 -2.61535 5.47434 0
M  V30 2903 H 275.771 -2.4431 4.22095 0
M  V30 2904 H 274.776 -0.508868 5.4744 0
M  V30 2905 H 276.001 -0.702882 6.75453 0
M  V30 2906 H 273.947 -2.79231 5.93604 0
M  V30 2907 H 273.864 -1.78739 7.34567 0
M  V30 2908 H 275.132 -2.96853 7.20763 0
M  V30 2909 N 279.361 -1.56624 0.175154 0
M  V30 2910 C 280.291 -2.21155 -0.749195 0
M  V30 2911 C 281.272 -1.16836 -1.23626 0
M  V30 2912 O 282.457 -1.45277 -1.28873 0
M  V30 2913 C 279.587 -2.8553 -1.97711 0
M  V30 2914 C 278.541 -3.95921 -1.62575 0
M  V30 2915 C 277.867 -4.47365 -2.92864 0
M  V30 2916 C 279.167 -5.15323 -0.850838 0
M  V30 2917 H 280.861 -2.98653 -0.211295 0
M  V30 2918 H 278.407 -1.43651 -0.100188 0
M  V30 2919 H 280.36 -3.2935 -2.62881 0
M  V30 2920 H 279.084 -2.05406 -2.53921 0
M  V30 2921 H 277.743 -3.52762 -0.997719 0
M  V30 2922 H 277.391 -3.64027 -3.47122 0
M  V30 2923 H 277.091 -5.21839 -2.70106 0
M  V30 2924 H 278.615 -4.93873 -3.59056 0
M  V30 2925 H 280.029 -5.55812 -1.40521 0
M  V30 2926 H 278.426 -5.95739 -0.722154 0
M  V30 2927 H 279.496 -4.84661 0.152082 0
M  V30 2928 N 280.839 0.0985539 -1.57292 0
M  V30 2929 C 282.088 0.801358 -1.85098 0
M  V30 2930 C 282.401 1.80066 -0.763902 0
M  V30 2931 O 283.607 2.55112 -0.928981 0
M  V30 2932 C 282.063 1.47599 -3.28242 0
M  V30 2933 C 281.671 0.516624 -4.45011 0
M  V30 2934 C 283.415 2.16272 -3.65276 0
M  V30 2935 C 281.322 1.19564 -5.79188 0
M  V30 2936 H 280.252 0.303022 -0.69043 0
M  V30 2937 H 282.903 0.0542623 -1.8342 0
M  V30 2938 H 281.285 2.27042 -3.2445 0
M  V30 2939 H 282.459 -0.246065 -4.60143 0
M  V30 2940 H 280.774 -0.064227 -4.1635 0
M  V30 2941 H 283.371 2.67802 -4.62803 0
M  V30 2942 H 283.714 2.95009 -2.93727 0
M  V30 2943 H 284.247 1.43693 -3.70941 0
M  V30 2944 H 280.986 0.449157 -6.53959 0
M  V30 2945 H 280.506 1.92984 -5.67906 0
M  V30 2946 H 282.185 1.7231 -6.23633 0
M  V30 2947 N 282.317 1.53212 0.369288 0
M  V30 2948 C 283.564 1.69215 1.11232 0
M  V30 2949 C 283.892 0.442048 1.8941 0
M  V30 2950 O 283.147 -0.575944 1.87033 0
M  V30 2951 C 283.446 2.89101 2.10132 0
M  V30 2952 C 283.112 4.25758 1.48463 0
M  V30 2953 C 281.774 4.6292 1.31372 0
M  V30 2954 C 284.126 5.10757 1.03811 0
M  V30 2955 C 281.454 5.82722 0.68207 0
M  V30 2956 C 283.806 6.31201 0.420487 0
M  V30 2957 C 282.47 6.67079 0.237038 0
M  V30 2958 H 281.74 0.619201 0.407027 0
M  V30 2959 H 284.387 1.87391 0.394552 0
M  V30 2960 H 282.692 2.65421 2.88199 0
M  V30 2961 H 284.389 2.98676 2.6757 0
M  V30 2962 H 280.979 3.96494 1.62758 0
M  V30 2963 H 285.163 4.82599 1.1581 0
M  V30 2964 H 280.419 6.09113 0.528316 0
M  V30 2965 H 284.593 6.96368 0.0662874 0
M  V30 2966 H 282.22 7.59774 -0.254477 0
M  V30 2967 N 283.795 -0.628877 1.44509 0
M  V30 2968 C 284.742 -1.74074 1.51549 0
M  V30 2969 C 285.712 -1.62084 0.363021 0
M  V30 2970 O 286.897 -1.81975 0.573567 0
M  V30 2971 C 284.037 -3.12328 1.46784 0
M  V30 2972 C 283.15 -3.35277 2.72422 0
M  V30 2973 C 282.285 -4.63515 2.59475 0
M  V30 2974 C 281.324 -4.7965 3.80266 0
M  V30 2975 N 280.461 -5.99168 3.65981 0
M  V30 2976 H 285.301 -1.67392 2.46544 0
M  V30 2977 H 282.838 -0.816527 1.22357 0
M  V30 2978 H 284.796 -3.92286 1.42012 0
M  V30 2979 H 283.426 -3.18018 0.553544 0
M  V30 2980 H 282.478 -2.49242 2.87372 0
M  V30 2981 H 283.79 -3.43078 3.62076 0
M  V30 2982 H 282.944 -5.51638 2.52548 0
M  V30 2983 H 281.683 -4.58076 1.67384 0
M  V30 2984 H 280.688 -3.89957 3.87574 0
M  V30 2985 H 281.913 -4.86902 4.73395 0
M  V30 2986 H 279.859 -5.94814 2.76644 0
M  V30 2987 H 279.776 -6.08035 4.49254 0
M  V30 2988 H 281.044 -6.89846 3.6295 0
M  V30 2989 N 285.273 -1.31445 -0.869486 0
M  V30 2990 C 286.521 -1.20918 -1.61936 0
M  V30 2991 C 286.842 0.232683 -1.93607 0
M  V30 2992 O 286.112 1.15352 -1.58338 0
M  V30 2993 H 284.692 -0.44454 -0.600328 0
M  V30 2994 H 287.354 -1.64776 -1.0409 0
M  V30 2995 H 286.45 -1.78124 -2.56278 0
M  V30 2996 N 286.751 1.08385 -1.14413 0
M  V30 2997 C 287.698 2.15311 -0.831265 0
M  V30 2998 C 288.668 1.64751 0.211292 0
M  V30 2999 O 289.853 1.90627 0.0811674 0
M  V30 3000 C 286.993 3.43658 -0.315143 0
M  V30 3001 C 286.106 4.08064 -1.41802 0
M  V30 3002 C 285.241 5.24207 -0.859126 0
M  V30 3003 C 284.28 5.80554 -1.93967 0
M  V30 3004 N 283.417 6.88042 -1.39793 0
M  V30 3005 H 288.257 2.41415 -1.74708 0
M  V30 3006 H 285.794 1.18474 -0.871909 0
M  V30 3007 H 287.752 4.172 0.00230884 0
M  V30 3008 H 286.382 3.17839 0.56378 0
M  V30 3009 H 285.434 3.3228 -1.85187 0
M  V30 3010 H 286.746 4.45962 -2.23427 0
M  V30 3011 H 285.9 6.04689 -0.49359 0
M  V30 3012 H 284.639 4.87699 -0.011932 0
M  V30 3013 H 283.644 4.98725 -2.31415 0
M  V30 3014 H 284.869 6.19121 -2.79046 0
M  V30 3015 H 282.815 6.53493 -0.572919 0
M  V30 3016 H 282.732 7.24767 -2.15054 0
M  V30 3017 H 284 7.72255 -1.0603 0
M  V30 3018 N 288.23 0.939286 1.26551 0
M  V30 3019 C 289.455 0.602008 1.98471 0
M  V30 3020 C 289.88 -0.815624 1.69497 0
M  V30 3021 O 289.238 -1.54912 0.941905 0
M  V30 3022 C 289.286 0.848407 3.50477 0
M  V30 3023 O 288.39 -0.0804009 4.12322 0
M  V30 3024 H 287.731 0.23049 0.622712 0
M  V30 3025 H 290.261 1.2617 1.61066 0
M  V30 3026 H 290.271 0.768553 4.00696 0
M  V30 3027 H 288.946 1.88171 3.70897 0
M  V30 3028 H 287.523 0.0503508 3.72866 0
M  V30 3029 N 289.708 -1.40897 0.706093 0
M  V30 3030 C 290.638 -2.33418 0.0620085 0
M  V30 3031 C 291.619 -1.52385 -0.755827 0
M  V30 3032 O 292.804 -1.80886 -0.706674 0
M  V30 3033 C 289.934 -3.36293 -0.867445 0
M  V30 3034 C 288.888 -4.27716 -0.155932 0
M  V30 3035 C 288.214 -5.2105 -1.20046 0
M  V30 3036 C 289.514 -5.12944 0.984149 0
M  V30 3037 H 291.208 -2.87527 0.83477 0
M  V30 3038 H 288.754 -1.38249 0.402875 0
M  V30 3039 H 290.707 -3.99949 -1.32735 0
M  V30 3040 H 289.431 -2.80556 -1.67199 0
M  V30 3041 H 288.09 -3.65498 0.284047 0
M  V30 3042 H 287.738 -4.61624 -1.99781 0
M  V30 3043 H 287.438 -5.83056 -0.729328 0
M  V30 3044 H 288.962 -5.87584 -1.66066 0
M  V30 3045 H 290.376 -5.70109 0.604048 0
M  V30 3046 H 288.773 -5.83945 1.38304 0
M  V30 3047 H 289.843 -4.49485 1.81911 0
M  V30 3048 N 291.186 -0.45159 -1.50991 0
M  V30 3049 C 292.133 0.352625 -2.2809 0
M  V30 3050 C 293.103 1.0044 -1.32291 0
M  V30 3051 O 294.288 1.02058 -1.6121 0
M  V30 3052 C 291.428 1.43983 -3.13629 0
M  V30 3053 C 290.541 0.804772 -4.24438 0
M  V30 3054 C 289.676 1.86822 -4.97263 0
M  V30 3055 C 288.715 1.21236 -5.99973 0
M  V30 3056 N 287.852 2.2178 -6.66152 0
M  V30 3057 H 292.692 -0.311186 -2.96371 0
M  V30 3058 H 290.229 -0.165308 -1.46168 0
M  V30 3059 H 292.187 2.08161 -3.61559 0
M  V30 3060 H 290.817 2.07307 -2.47434 0
M  V30 3061 H 289.869 0.0509129 -3.80366 0
M  V30 3062 H 291.181 0.286076 -4.97979 0
M  V30 3063 H 290.335 2.58628 -5.48813 0
M  V30 3064 H 289.074 2.42068 -4.23385 0
M  V30 3065 H 288.079 0.479828 -5.47702 0
M  V30 3066 H 289.304 0.667051 -6.75816 0
M  V30 3067 H 287.25 2.76079 -5.95077 0
M  V30 3068 H 287.167 1.74841 -7.35504 0
M  V30 3069 H 288.435 2.93026 -7.22327 0
M  V30 3070 N 292.664 1.56529 -0.183458 0
M  V30 3071 C 293.574 2.22144 0.754272 0
M  V30 3072 C 294.59 1.21684 1.24374 0
M  V30 3073 O 295.766 1.54385 1.29333 0
M  V30 3074 C 292.831 2.85884 1.96141 0
M  V30 3075 C 291.892 4.01579 1.51765 0
M  V30 3076 C 291.125 4.6227 2.66725 0
M  V30 3077 O 291.348 4.21865 3.83909 0
M  V30 3078 O 290.282 5.51936 2.40104 0
M  V30 3079 H 294.108 3.02861 0.225527 0
M  V30 3080 H 291.693 1.49331 0.0453032 0
M  V30 3081 H 293.575 3.26253 2.66715 0
M  V30 3082 H 292.25 2.08154 2.47899 0
M  V30 3083 H 291.157 3.65856 0.781049 0
M  V30 3084 H 292.49 4.80938 1.04686 0
M  V30 3085 N 294.142 -0.090211 1.57342 0
M  V30 3086 C 295.075 -1.14035 1.97664 0
M  V30 3087 C 296.053 -1.38576 0.850616 0
M  V30 3088 O 297.237 -1.52255 1.11134 0
M  V30 3089 C 294.364 -2.48854 2.2976 0
M  V30 3090 C 293.41 -2.40564 3.52181 0
M  V30 3091 S 294.243 -1.81745 5.03715 0
M  V30 3092 C 295.399 -3.18178 5.38993 0
M  V30 3093 H 295.632 -0.796636 2.86428 0
M  V30 3094 H 293.165 -0.298072 1.51496 0
M  V30 3095 H 295.123 -3.26413 2.48927 0
M  V30 3096 H 293.784 -2.80393 1.41558 0
M  V30 3097 H 292.977 -3.39942 3.72096 0
M  V30 3098 H 292.579 -1.71135 3.32549 0
M  V30 3099 H 294.871 -4.14461 5.35937 0
M  V30 3100 H 295.814 -3.03062 6.39968 0
M  V30 3101 H 296.222 -3.17935 4.66452 0
M  V30 3102 N 295.62 -1.53406 -0.361157 0
M  V30 3103 C 296.53 -1.83122 -1.4664 0
M  V30 3104 C 297.546 -0.719943 -1.58407 0
M  V30 3105 O 298.722 -1.01046 -1.74218 0
M  V30 3106 C 295.787 -2.01891 -2.81853 0
M  V30 3107 C 294.848 -3.25784 -2.79577 0
M  V30 3108 C 294.081 -3.43648 -4.0834 0
M  V30 3109 O 294.304 -2.65714 -5.0473 0
M  V30 3110 O 293.238 -4.37018 -4.13883 0
M  V30 3111 H 297.064 -2.7703 -1.24451 0
M  V30 3112 H 294.649 -1.38841 -0.551678 0
M  V30 3113 H 296.531 -2.15782 -3.61962 0
M  V30 3114 H 295.206 -1.11173 -3.0401 0
M  V30 3115 H 294.113 -3.17312 -1.98151 0
M  V30 3116 H 295.446 -4.16439 -2.62373 0
M  V30 3117 N 297.098 0.621204 -1.44841 0
M  V30 3118 C 298.326 1.40752 -1.51646 0
M  V30 3119 C 298.741 1.88246 -0.144549 0
M  V30 3120 O 298.098 1.61422 0.851416 0
M  V30 3121 C 298.149 2.62119 -2.4895 0
M  V30 3122 O 297.87 2.16602 -3.80808 0
M  V30 3123 C 299.371 3.55135 -2.65319 0
M  V30 3124 H 296.591 0.431325 -0.514004 0
M  V30 3125 H 299.135 0.758835 -1.899 0
M  V30 3126 H 297.29 3.23058 -2.13805 0
M  V30 3127 H 297.704 2.95358 -4.33433 0
M  V30 3128 H 299.178 4.36874 -3.37409 0
M  V30 3129 H 299.655 4.04592 -1.70886 0
M  V30 3130 H 300.261 3.00058 -3.01405 0
M  V30 3131 N 298.576 1.31904 0.862503 0
M  V30 3132 C 299.987 1.19803 1.43193 0
M  V30 3133 C 300.338 -0.192567 1.95253 0
M  V30 3134 O 299.463 -1.09081 1.86896 0
M  V30 3135 C 300.058 2.16883 2.60283 0
M  V30 3136 C 298.617 2.08692 3.13248 0
M  V30 3137 C 297.764 2.05691 1.85975 0
M  V30 3138 H 300.715 1.43846 0.670365 0
M  V30 3139 H 300.736 1.76278 3.37204 0
M  V30 3140 H 300.248 3.18083 2.22363 0
M  V30 3141 H 298.349 1.10713 3.55771 0
M  V30 3142 H 298.462 2.9815 3.75025 0
M  V30 3143 H 296.826 1.50814 2.05249 0
M  V30 3144 H 297.609 3.08659 1.50282 0
M  V30 3145 N 300.054 -1.07777 1.14986 0
M  V30 3146 C 300.984 -2.16865 0.865557 0
M  V30 3147 C 301.965 -1.69123 -0.182083 0
M  V30 3148 O 303.15 -1.94164 -0.0373815 0
M  V30 3149 C 300.28 -3.45539 0.349313 0
M  V30 3150 C 299.234 -4.06708 1.33313 0
M  V30 3151 C 298.56 -5.30411 0.675918 0
M  V30 3152 C 299.86 -4.47241 2.69764 0
M  V30 3153 H 301.554 -2.40905 1.77778 0
M  V30 3154 H 299.1 -1.15781 0.856203 0
M  V30 3155 H 301.053 -4.21174 0.137983 0
M  V30 3156 H 299.777 -3.21072 -0.598362 0
M  V30 3157 H 298.436 -3.33112 1.53075 0
M  V30 3158 H 298.084 -5.02232 -0.277767 0
M  V30 3159 H 297.784 -5.72293 1.33244 0
M  V30 3160 H 299.308 -6.08755 0.474262 0
M  V30 3161 H 300.722 -5.14025 2.53873 0
M  V30 3162 H 299.119 -5.00062 3.3175 0
M  V30 3163 H 300.189 -3.58818 3.26156 0
M  V30 3164 N 301.532 -0.945985 -1.26051 0
M  V30 3165 C 302.757 -0.612525 -1.98149 0
M  V30 3166 C 303.182 0.806623 -1.69927 0
M  V30 3167 O 302.54 1.54411 -0.950108 0
M  V30 3168 C 302.588 -0.866981 -3.50023 0
M  V30 3169 O 301.692 0.0585333 -4.12358 0
M  V30 3170 H 301.033 -0.23379 -0.621481 0
M  V30 3171 H 303.563 -1.27023 -1.60395 0
M  V30 3172 H 303.573 -0.789792 -4.00283 0
M  V30 3173 H 302.248 -1.90135 -3.69894 0
M  V30 3174 H 300.825 -0.0701241 -3.72834 0
M  V30 3175 N 303.011 1.40521 -0.713556 0
M  V30 3176 C 303.974 2.29098 -0.0684347 0
M  V30 3177 C 304.974 1.45268 0.689472 0
M  V30 3178 O 306.164 1.66205 0.521677 0
M  V30 3179 C 303.296 3.28446 0.913024 0
M  V30 3180 H 304.489 2.87645 -0.84855 0
M  V30 3181 H 302.042 1.48809 -0.47809 0
M  V30 3182 H 302.777 2.74913 1.72027 0
M  V30 3183 H 302.562 3.90327 0.372472 0
M  V30 3184 H 304.052 3.94777 1.36165 0
M  V30 3185 N 304.489 0.459591 1.5075 0
M  V30 3186 C 305.419 -0.330644 2.31147 0
M  V30 3187 C 306.4 -1.00087 1.37538 0
M  V30 3188 O 307.585 -1.00025 1.66459 0
M  V30 3189 C 304.715 -1.41958 3.16962 0
M  V30 3190 C 303.669 -0.871608 4.19031 0
M  V30 3191 C 302.995 -2.05797 4.9351 0
M  V30 3192 C 304.295 0.109251 5.22186 0
M  V30 3193 H 305.989 0.340336 2.97459 0
M  V30 3194 H 303.535 0.165119 1.4305 0
M  V30 3195 H 305.488 -1.9798 3.71997 0
M  V30 3196 H 304.212 -2.11917 2.48513 0
M  V30 3197 H 302.871 -0.333442 3.6508 0
M  V30 3198 H 302.519 -2.74427 4.21544 0
M  V30 3199 H 302.219 -1.6976 5.62544 0
M  V30 3200 H 303.743 -2.62331 5.51375 0
M  V30 3201 H 305.157 -0.361405 5.7216 0
M  V30 3202 H 303.554 0.383316 5.98875 0
M  V30 3203 H 304.624 1.03887 4.73641 0
M  V30 3204 N 305.967 -1.56429 0.191757 0
M  V30 3205 C 307.215 -1.97095 -0.447006 0
M  V30 3206 C 307.536 -1.07967 -1.62383 0
M  V30 3207 O 306.806 -0.150248 -1.95323 0
M  V30 3208 H 305.386 -0.727832 -0.168135 0
M  V30 3209 H 308.048 -1.92911 0.27771 0
M  V30 3210 H 307.144 -3.01848 -0.793371 0
M  V30 3211 N 307.445 0.0818655 -1.57387 0
M  V30 3212 C 308.694 0.781681 -1.85937 0
M  V30 3213 C 309.007 1.79246 -0.782957 0
M  V30 3214 O 310.213 2.54112 -0.955987 0
M  V30 3215 C 308.669 1.44109 -3.29789 0
M  V30 3216 C 308.277 0.469396 -4.45534 0
M  V30 3217 C 310.021 2.12386 -3.67549 0
M  V30 3218 C 307.928 1.13415 -5.80423 0
M  V30 3219 H 306.858 0.295682 -0.693605 0
M  V30 3220 H 309.509 0.0348051 -1.83467 0
M  V30 3221 H 307.891 2.23588 -3.2684 0
M  V30 3222 H 309.065 -0.294856 -4.59856 0
M  V30 3223 H 307.38 -0.108383 -4.16259 0
M  V30 3224 H 309.977 2.62878 -4.65617 0
M  V30 3225 H 310.32 2.91877 -2.96839 0
M  V30 3226 H 310.853 1.39751 -3.72444 0
M  V30 3227 H 307.592 0.379771 -6.54399 0
M  V30 3228 H 307.112 1.8695 -5.69921 0
M  V30 3229 H 308.791 1.65686 -6.25426 0
M  V30 3230 N 308.923 1.53595 0.353017 0
M  V30 3231 C 309.855 1.77219 1.45348 0
M  V30 3232 C 310.868 0.65324 1.49119 0
M  V30 3233 O 312.057 0.929775 1.52373 0
M  V30 3234 C 309.157 1.84841 2.84055 0
M  V30 3235 C 308.33 3.14649 3.03833 0
M  V30 3236 C 307.389 3.13351 4.22727 0
M  V30 3237 O 306.415 3.87107 4.17297 0
M  V30 3238 N 307.617 2.35052 5.30783 0
M  V30 3239 H 310.382 2.72178 1.25457 0
M  V30 3240 H 307.943 1.52528 0.542833 0
M  V30 3241 H 309.935 1.81435 3.61751 0
M  V30 3242 H 308.505 0.971114 2.97133 0
M  V30 3243 H 307.725 3.31256 2.13689 0
M  V30 3244 H 309.013 4.00411 3.13925 0
M  V30 3245 H 308.411 1.74663 5.38061 0
M  V30 3246 H 306.968 2.37453 6.07009 0
M  V30 3247 N 310.401 -0.613514 1.45168 0
M  V30 3248 C 311.678 -1.37263 1.39349 0
M  V30 3249 C 312.058 -2.11012 0.0610848 0
M  V30 3250 O 311.406 -2.07502 -0.956825 0
M  V30 3251 C 311.616 -2.3244 2.60332 0
M  V30 3252 C 312.964 -2.9523 3.05163 0
M  V30 3253 O 313.988 -2.42762 2.60663 0
M  V30 3254 O 312.847 -3.90454 3.82372 0
M  V30 3255 H 309.941 -0.615188 0.552696 0
M  V30 3256 H 312.487 -0.637097 1.57287 0
M  V30 3257 H 311.259 -1.77164 3.48896 0
M  V30 3258 H 310.882 -3.13383 2.44698 0
M  V30 3259 N 311.879 -1.3236 -0.855495 0
M  V30 3260 C 313.127 -1.22629 -1.60644 0
M  V30 3261 C 313.448 0.212136 -1.93843 0
M  V30 3262 O 312.718 1.13666 -1.59552 0
M  V30 3263 H 311.298 -0.450882 -0.595579 0
M  V30 3264 H 313.96 -1.65871 -1.02337 0
M  V30 3265 H 313.056 -1.80832 -2.54374 0
M  V30 3266 N 313.357 1.07166 -1.15556 0
M  V30 3267 C 314.597 1.81391 -0.94216 0
M  V30 3268 C 314.961 1.84788 0.521272 0
M  V30 3269 O 316.162 2.54904 0.85307 0
M  V30 3270 C 314.433 3.22431 -1.54185 0
M  V30 3271 S 315.992 4.13379 -1.47183 0
M  V30 3272 H 312.81 0.624963 -0.339031 0
M  V30 3273 H 315.412 1.28725 -1.4714 0
M  V30 3274 H 314.116 3.17548 -2.59984 0
M  V30 3275 H 313.647 3.80172 -1.01156 0
M  V30 3276 H 315.662 4.94007 -0.466004 0
M  V30 3277 N 314.835 0.952656 1.25548 0
M  V30 3278 C 316.251 0.656769 1.4546 0
M  V30 3279 C 316.451 -0.78633 1.85524 0
M  V30 3280 O 315.507 -1.56183 1.98402 0
M  V30 3281 C 316.82 1.62801 2.52817 0
M  V30 3282 C 318.368 1.63897 2.66659 0
M  V30 3283 C 318.843 2.5978 3.77198 0
M  V30 3284 N 320.334 2.58133 3.84606 0
M  V30 3285 C 321.069 3.29003 4.69621 0
M  V30 3286 N 320.565 4.09339 5.58939 0
M  V30 3287 N 322.358 3.179 4.63569 0
M  V30 3288 H 314.509 1.88526 0.978344 0
M  V30 3289 H 316.772 0.810815 0.491206 0
M  V30 3290 H 316.478 2.65869 2.30232 0
M  V30 3291 H 316.352 1.38898 3.50695 0
M  V30 3292 H 318.739 0.615481 2.8861 0
M  V30 3293 H 318.82 1.91858 1.69187 0
M  V30 3294 H 318.464 3.62254 3.55997 0
M  V30 3295 H 318.394 2.29105 4.7415 0
M  V30 3296 H 320.885 1.99809 3.20757 0
M  V30 3297 H 321.198 4.6034 6.20731 0
M  V30 3298 H 319.543 4.13438 5.58654 0
M  V30 3299 H 322.734 2.54612 3.92798 0
M  V30 3300 H 322.907 3.73398 5.29602 0
M  V30 3301 N 316.313 -1.40141 0.720998 0
M  V30 3302 C 317.559 -2.01084 0.263231 0
M  V30 3303 C 317.892 -1.57052 -1.14229 0
M  V30 3304 O 317.167 -0.793027 -1.77599 0
M  V30 3305 C 317.45 -3.58401 0.349344 0
M  V30 3306 C 317.303 -4.12491 1.79363 0
M  V30 3307 C 318.622 -4.39231 -0.276351 0
M  V30 3308 H 315.741 -0.730572 0.0971228 0
M  V30 3309 H 318.383 -1.66543 0.914518 0
M  V30 3310 H 316.533 -3.87958 -0.205165 0
M  V30 3311 H 318.205 -3.93711 2.40394 0
M  V30 3312 H 316.448 -3.66576 2.31958 0
M  V30 3313 H 317.119 -5.21646 1.80524 0
M  V30 3314 H 319.595 -4.15637 0.196184 0
M  V30 3315 H 318.471 -5.48586 -0.185681 0
M  V30 3316 H 318.732 -4.20643 -1.36059 0
M  V30 3317 N 317.792 -0.46758 -1.50504 0
M  V30 3318 C 318.725 0.374324 -2.25109 0
M  V30 3319 C 319.703 0.99921 -1.28275 0
M  V30 3320 O 320.887 1.03583 -1.57489 0
M  V30 3321 C 318.014 1.52419 -3.02467 0
M  V30 3322 C 317.06 1.01702 -4.14197 0
M  V30 3323 S 317.893 -0.0654477 -5.3546 0
M  V30 3324 C 319.049 1.08837 -6.16365 0
M  V30 3325 H 319.282 -0.258983 -2.9617 0
M  V30 3326 H 316.815 -0.252421 -1.52323 0
M  V30 3327 H 318.773 2.18322 -3.47628 0
M  V30 3328 H 317.434 2.129 -2.30938 0
M  V30 3329 H 316.627 1.87776 -4.67714 0
M  V30 3330 H 316.229 0.435757 -3.71453 0
M  V30 3331 H 318.521 2.00071 -6.47285 0
M  V30 3332 H 319.464 0.592538 -7.05616 0
M  V30 3333 H 319.872 1.34061 -5.4835 0
M  V30 3334 N 319.27 1.56325 -0.20005 0
M  V30 3335 C 320.2 2.22318 0.713916 0
M  V30 3336 C 321.181 1.18788 1.21752 0
M  V30 3337 O 322.366 1.47309 1.26545 0
M  V30 3338 C 319.496 2.88639 1.93144 0
M  V30 3339 C 318.45 3.98457 1.56255 0
M  V30 3340 C 317.776 4.51967 2.85709 0
M  V30 3341 C 319.076 5.16612 0.768747 0
M  V30 3342 H 320.77 2.98952 0.163755 0
M  V30 3343 H 318.316 1.43792 0.0773219 0
M  V30 3344 H 320.269 3.33491 2.57608 0
M  V30 3345 H 318.993 2.09419 2.50621 0
M  V30 3346 H 317.652 3.54305 0.941471 0
M  V30 3347 H 317.3 3.69503 3.41287 0
M  V30 3348 H 317 5.26071 2.6177 0
M  V30 3349 H 318.524 4.99523 3.51154 0
M  V30 3350 H 319.938 5.57977 1.3166 0
M  V30 3351 H 318.335 5.96812 0.627286 0
M  V30 3352 H 319.405 4.84358 -0.229168 0
M  V30 3353 N 320.748 -0.0735177 1.57428 0
M  V30 3354 C 321.997 -0.771809 1.86349 0
M  V30 3355 C 322.31 -1.78828 0.792452 0
M  V30 3356 O 323.516 -2.53602 0.96945 0
M  V30 3357 C 321.972 -1.42358 3.30548 0
M  V30 3358 C 321.58 -0.445761 4.45777 0
M  V30 3359 C 323.324 -2.10434 3.6867 0
M  V30 3360 C 321.231 -1.10335 5.81016 0
M  V30 3361 H 320.161 -0.291999 0.695164 0
M  V30 3362 H 322.812 -0.0250749 1.83483 0
M  V30 3363 H 321.194 -2.21852 3.28021 0
M  V30 3364 H 322.368 0.319239 4.59693 0
M  V30 3365 H 320.683 0.130457 4.16196 0
M  V30 3366 H 323.28 -2.60405 4.67004 0
M  V30 3367 H 323.623 -2.90298 2.98383 0
M  V30 3368 H 324.156 -1.37773 3.7318 0
M  V30 3369 H 320.895 -0.345061 6.54591 0
M  V30 3370 H 320.415 -1.83925 5.70904 0
M  V30 3371 H 322.094 -1.62367 6.26295 0
M  V30 3372 N 322.226 -1.5378 -0.344866 0
M  V30 3373 C 323.474 -1.70625 -1.08311 0
M  V30 3374 C 323.795 -0.471447 -1.89215 0
M  V30 3375 O 323.065 0.514616 -1.8902 0
M  V30 3376 H 321.645 -0.629058 -0.402859 0
M  V30 3377 H 324.307 -1.9103 -0.386459 0
M  V30 3378 H 323.403 -2.57656 -1.76124 0
M  V30 3379 N 323.704 0.605807 -1.45491 0
M  V30 3380 C 324.651 1.7164 -1.54299 0
M  V30 3381 C 325.621 1.61486 -0.388761 0
M  V30 3382 O 326.806 1.81039 -0.602445 0
M  V30 3383 C 323.946 3.09953 -1.51734 0
M  V30 3384 C 323.059 3.309 -2.77721 0
M  V30 3385 C 322.194 4.59329 -2.66816 0
M  V30 3386 C 321.233 4.7354 -3.87848 0
M  V30 3387 N 320.37 5.9327 -3.75467 0
M  V30 3388 H 325.21 1.63449 -2.49176 0
M  V30 3389 H 322.747 0.796957 -1.23641 0
M  V30 3390 H 324.705 3.89977 -1.48235 0
M  V30 3391 H 323.335 3.17098 -0.604068 0
M  V30 3392 H 322.387 2.44639 -2.913 0
M  V30 3393 H 323.699 3.37274 -3.67488 0
M  V30 3394 H 322.853 5.4755 -2.61292 0
M  V30 3395 H 321.592 4.55355 -1.74651 0
M  V30 3396 H 320.597 3.83741 -3.93729 0
M  V30 3397 H 321.822 4.79309 -4.81082 0
M  V30 3398 H 319.768 5.90338 -2.86072 0
M  V30 3399 H 319.685 6.00811 -4.5887 0
M  V30 3400 H 320.953 6.83984 -3.73879 0
M  V30 3401 N 325.182 1.32811 0.848464 0
M  V30 3402 C 326.129 1.22265 1.95755 0
M  V30 3403 C 327.099 0.103413 1.65778 0
M  V30 3404 O 328.284 0.280033 1.88734 0
M  V30 3405 C 325.424 0.958014 3.31536 0
M  V30 3406 C 324.537 2.16262 3.73971 0
M  V30 3407 C 323.672 1.83295 4.98575 0
M  V30 3408 C 322.711 3.00041 5.33518 0
M  V30 3409 N 321.848 2.67125 6.49299 0
M  V30 3410 H 326.688 2.17128 2.04107 0
M  V30 3411 H 324.225 1.07982 0.998913 0
M  V30 3412 H 326.183 0.785052 4.09747 0
M  V30 3413 H 324.813 0.046159 3.22767 0
M  V30 3414 H 323.865 2.44565 2.91362 0
M  V30 3415 H 325.177 3.03572 3.95785 0
M  V30 3416 H 324.331 1.62586 5.84509 0
M  V30 3417 H 323.07 0.932078 4.7871 0
M  V30 3418 H 322.075 3.21374 4.46093 0
M  V30 3419 H 323.3 3.90869 5.55336 0
M  V30 3420 H 321.246 1.79586 6.3094 0
M  V30 3421 H 321.163 3.47965 6.71161 0
M  V30 3422 H 322.431 2.49861 7.3837 0
M  V30 3423 N 326.66 -1.06551 1.16123 0
M  V30 3424 C 327.608 -2.16063 0.861371 0
M  V30 3425 C 328.602 -1.6856 -0.168517 0
M  V30 3426 O 329.808 -1.79986 -0.0227579 0
M  V30 3427 H 326.183 -0.705278 0.260934 0
M  V30 3428 H 328.154 -2.38567 1.79244 0
M  V30 3429 C 326.903 -3.45661 0.376018 0
M  V30 3430 H 326.226 -3.82604 1.15992 0
M  V30 3431 H 327.666 -4.23504 0.204951 0
M  V30 3432 C 326.125 -3.24546 -0.903954 0
M  V30 3433 O 326.655 -3.49865 -1.97377 0
M  V30 3434 N 324.861 -2.77992 -0.846679 0
M  V30 3435 H 324.408 -2.57589 0.0241017 0
M  V30 3436 H 324.366 -2.64244 -1.70359 0
M  V30 3437 N 328.138 -0.959301 -1.25041 0
M  V30 3438 C 329.363 -0.633507 -1.97488 0
M  V30 3439 C 329.788 0.788555 -1.70773 0
M  V30 3440 O 329.146 1.53394 -0.966431 0
M  V30 3441 C 329.194 -0.904057 -3.49083 0
M  V30 3442 O 328.298 0.0147939 -4.12397 0
M  V30 3443 H 327.639 -0.240368 -0.618966 0
M  V30 3444 H 330.169 -1.28717 -1.59038 0
M  V30 3445 H 330.179 -0.832203 -3.99423 0
M  V30 3446 H 328.854 -1.94048 -3.67856 0
M  V30 3447 H 327.431 -0.109664 -3.72739 0
M  V30 3448 N 329.616 1.39756 -0.72842 0
M  V30 3449 C 331.027 1.83498 -0.344289 0
M  V30 3450 C 331.378 1.60868 1.12321 0
M  V30 3451 O 330.503 1.09634 1.86573 0
M  V30 3452 C 331.098 3.33114 -0.618112 0
M  V30 3453 C 329.657 3.753 -0.287549 0
M  V30 3454 C 328.804 2.62831 -0.884048 0
M  V30 3455 H 331.755 1.28842 -0.926578 0
M  V30 3456 H 331.776 3.80334 0.112349 0
M  V30 3457 H 331.288 3.49553 -1.68625 0
M  V30 3458 H 329.389 3.64451 0.775012 0
M  V30 3459 H 329.502 4.72945 -0.765512 0
M  V30 3460 H 327.866 2.52792 -0.311149 0
M  V30 3461 H 328.649 2.82078 -1.95671 0
M  V30 3462 N 331.094 0.475555 1.50254 0
M  V30 3463 C 332.026 -0.352649 2.26471 0
M  V30 3464 C 333.039 -0.953165 1.3198 0
M  V30 3465 O 334.228 -0.840815 1.57457 0
M  V30 3466 C 331.328 -1.50902 3.0345 0
M  V30 3467 C 330.501 -1.02047 4.25329 0
M  V30 3468 C 329.56 -2.05142 4.84565 0
M  V30 3469 O 328.586 -1.63023 5.45355 0
M  V30 3470 N 329.788 -3.37987 4.71959 0
M  V30 3471 H 332.553 0.300767 2.98187 0
M  V30 3472 H 330.114 0.306598 1.5897 0
M  V30 3473 H 332.106 -2.19572 3.39956 0
M  V30 3474 H 330.676 -2.06705 2.34504 0
M  V30 3475 H 329.896 -0.159507 3.93877 0
M  V30 3476 H 331.184 -0.672061 5.04342 0
M  V30 3477 H 330.582 -3.74913 4.23623 0
M  V30 3478 H 329.139 -4.02443 5.12721 0
M  V30 3479 N 332.573 -1.56217 0.208337 0
M  V30 3480 C 333.483 -2.23316 -0.718836 0
M  V30 3481 C 334.499 -1.23648 -1.22422 0
M  V30 3482 O 335.675 -1.56423 -1.26861 0
M  V30 3483 C 332.74 -2.88968 -1.91568 0
M  V30 3484 C 331.801 -4.03943 -1.45357 0
M  V30 3485 C 331.034 -4.66455 -2.59337 0
M  V30 3486 O 331.257 -4.27919 -3.77149 0
M  V30 3487 O 330.191 -5.55686 -2.31293 0
M  V30 3488 H 334.017 -3.03182 -0.177315 0
M  V30 3489 H 331.602 -1.49384 -0.0215402 0
M  V30 3490 H 333.484 -3.30455 -2.61491 0
M  V30 3491 H 332.159 -2.12071 -2.44556 0
M  V30 3492 H 331.066 -3.67052 -0.722746 0
M  V30 3493 H 332.399 -4.82543 -0.970219 0
M  V30 3494 N 334.051 0.0651679 -1.57465 0
M  V30 3495 C 334.961 1.09448 -2.07505 0
M  V30 3496 C 335.977 1.41974 -1.00595 0
M  V30 3497 O 337.153 1.52018 -1.32107 0
M  V30 3498 C 334.218 2.38689 -2.51453 0
M  V30 3499 C 333.279 2.13073 -3.72691 0
M  V30 3500 C 332.512 3.36152 -4.14533 0
M  V30 3501 O 332.735 4.45517 -3.56189 0
M  V30 3502 O 331.669 3.23974 -5.07272 0
M  V30 3503 H 335.495 0.69935 -2.95538 0
M  V30 3504 H 333.08 0.279752 -1.46757 0
M  V30 3505 H 334.962 3.14736 -2.80212 0
M  V30 3506 H 333.637 2.77568 -1.66546 0
M  V30 3507 H 332.544 1.34709 -3.49005 0
M  V30 3508 H 333.877 1.79071 -4.5847 0
M  V30 3509 N 335.529 1.53961 0.336706 0
M  V30 3510 C 336.775 1.7179 1.07777 0
M  V30 3511 C 337.108 0.483263 1.88091 0
M  V30 3512 O 336.383 -0.519747 1.87427 0
M  V30 3513 C 336.666 2.98558 2.01334 0
M  V30 3514 C 336.519 4.32245 1.24437 0
M  V30 3515 C 337.838 3.21023 3.01052 0
M  V30 3516 H 334.957 0.625089 0.390426 0
M  V30 3517 H 337.599 1.86641 0.35567 0
M  V30 3518 H 335.749 2.86028 2.62908 0
M  V30 3519 H 337.421 4.56637 0.654243 0
M  V30 3520 H 335.664 4.30344 0.546458 0
M  V30 3521 H 336.335 5.17137 1.93063 0
M  V30 3522 H 338.811 3.32929 2.49595 0
M  V30 3523 H 337.687 4.11104 3.6371 0
M  V30 3524 H 337.948 2.37637 3.72802 0
M  V30 3525 N 337.007 -0.598083 1.45811 0
M  V30 3526 C 337.917 -1.73632 1.57763 0
M  V30 3527 C 338.933 -1.67763 0.461676 0
M  V30 3528 O 340.109 -1.87949 0.723685 0
M  V30 3529 C 337.174 -3.10114 1.55018 0
M  V30 3530 C 336.235 -3.27364 2.77726 0
M  V30 3531 C 335.468 -4.57334 2.75102 0
M  V30 3532 O 335.691 -5.40258 1.8297 0
M  V30 3533 O 334.625 -4.77502 3.66437 0
M  V30 3534 H 338.451 -1.66498 2.53992 0
M  V30 3535 H 336.036 -0.763308 1.28429 0
M  V30 3536 H 337.918 -3.9141 1.56129 0
M  V30 3537 H 336.593 -3.17718 0.619431 0
M  V30 3538 H 335.5 -2.45619 2.82174 0
M  V30 3539 H 336.833 -3.24641 3.69958 0
M  V30 3540 N 338.485 -1.33259 -0.841409 0
M  V30 3541 C 339.415 -1.25926 -1.96634 0
M  V30 3542 C 340.396 -0.140349 -1.6952 0
M  V30 3543 O 341.581 -0.329707 -1.91381 0
M  V30 3544 C 338.711 -0.99512 -3.32738 0
M  V30 3545 C 337.665 -2.0767 -3.74242 0
M  V30 3546 C 336.991 -1.66474 -5.08125 0
M  V30 3547 C 338.291 -3.49318 -3.88297 0
M  V30 3548 H 339.985 -2.20046 -2.03027 0
M  V30 3549 H 337.531 -1.05931 -0.975425 0
M  V30 3550 H 339.484 -0.930323 -4.11002 0
M  V30 3551 H 338.208 -0.0183004 -3.26595 0
M  V30 3552 H 336.867 -2.13187 -2.98239 0
M  V30 3553 H 336.515 -0.675012 -4.9845 0
M  V30 3554 H 336.215 -2.3885 -5.36865 0
M  V30 3555 H 337.739 -1.61455 -5.88867 0
M  V30 3556 H 339.153 -3.46316 -4.56879 0
M  V30 3557 H 337.55 -4.20158 -4.28471 0
M  V30 3558 H 338.62 -3.8801 -2.9082 0
M  V30 3559 N 339.963 1.05934 -1.16686 0
M  V30 3560 C 340.91 2.13499 -0.876748 0
M  V30 3561 C 341.88 1.65162 0.176299 0
M  V30 3562 O 343.065 1.90757 0.0407143 0
M  V30 3563 C 340.205 3.42912 -0.387967 0
M  V30 3564 C 339.318 4.04964 -1.50426 0
M  V30 3565 C 338.453 5.22266 -0.970125 0
M  V30 3566 C 337.492 5.76309 -2.06238 0
M  V30 3567 N 336.629 6.84922 -1.54356 0
M  V30 3568 H 341.469 2.37654 -1.7979 0
M  V30 3569 H 339.006 1.16598 -0.896843 0
M  V30 3570 H 340.964 4.17111 -0.086186 0
M  V30 3571 H 339.594 3.18963 0.496235 0
M  V30 3572 H 338.646 3.28277 -1.92193 0
M  V30 3573 H 339.958 4.41122 -2.32836 0
M  V30 3574 H 339.112 6.03506 -0.621743 0
M  V30 3575 H 337.851 4.87564 -0.115377 0
M  V30 3576 H 336.856 4.93704 -2.41942 0
M  V30 3577 H 338.081 6.13062 -2.92115 0
M  V30 3578 H 336.027 6.52131 -0.711406 0
M  V30 3579 H 335.944 7.20043 -2.30379 0
M  V30 3580 H 337.212 7.69832 -1.22387 0
M  V30 3581 N 341.441 0.965919 1.2453 0
M  V30 3582 C 342.388 0.49402 2.25451 0
M  V30 3583 C 343.358 -0.45948 1.59618 0
M  V30 3584 O 344.543 -0.370238 1.87173 0
M  V30 3585 C 341.683 -0.211359 3.44452 0
M  V30 3586 C 340.796 0.7807 4.24887 0
M  V30 3587 C 339.931 0.0516105 5.31175 0
M  V30 3588 C 338.97 1.03385 6.03306 0
M  V30 3589 N 338.107 0.334887 7.01301 0
M  V30 3590 H 342.947 1.35946 2.65184 0
M  V30 3591 H 340.484 0.681515 1.3036 0
M  V30 3592 H 342.442 -0.637 4.12308 0
M  V30 3593 H 341.072 -1.04077 3.05562 0
M  V30 3594 H 340.124 1.32479 3.56586 0
M  V30 3595 H 341.436 1.52978 4.74762 0
M  V30 3596 H 340.59 -0.432114 6.05159 0
M  V30 3597 H 339.329 -0.730179 4.82203 0
M  V30 3598 H 338.334 1.52847 5.28127 0
M  V30 3599 H 339.559 1.81606 6.54367 0
M  V30 3600 H 337.505 -0.427959 6.54603 0
M  V30 3601 H 337.422 1.02287 7.49048 0
M  V30 3602 H 338.69 -0.126928 7.79397 0
M  V30 3603 N 342.919 -1.39368 0.735821 0
M  V30 3604 C 343.849 -2.33234 0.111506 0
M  V30 3605 C 344.83 -1.53954 -0.723334 0
M  V30 3606 O 346.015 -1.82344 -0.668147 0
M  V30 3607 C 343.145 -3.38057 -0.795917 0
M  V30 3608 C 342.099 -4.2795 -0.065172 0
M  V30 3609 C 341.425 -5.23479 -1.08967 0
M  V30 3610 C 342.725 -5.10741 1.09273 0
M  V30 3611 H 344.419 -2.85692 0.895571 0
M  V30 3612 H 341.965 -1.37364 0.432109 0
M  V30 3613 H 343.918 -4.02675 -1.24221 0
M  V30 3614 H 342.642 -2.8404 -1.61211 0
M  V30 3615 H 341.301 -3.64813 0.361511 0
M  V30 3616 H 340.949 -4.65758 -1.89944 0
M  V30 3617 H 340.649 -5.84472 -0.605489 0
M  V30 3618 H 342.173 -5.90974 -1.53565 0
M  V30 3619 H 343.587 -5.68699 0.724841 0
M  V30 3620 H 341.984 -5.8088 1.50659 0
M  V30 3621 H 343.054 -4.45525 1.91404 0
M  V30 3622 N 344.397 -0.483516 -1.5 0
M  V30 3623 C 345.344 0.304164 -2.28787 0
M  V30 3624 C 346.314 0.976114 -1.34392 0
M  V30 3625 O 347.499 0.986156 -1.63339 0
M  V30 3626 C 344.639 1.37298 -3.16612 0
M  V30 3627 C 343.752 0.714561 -4.26049 0
M  V30 3628 C 342.887 1.76232 -5.01114 0
M  V30 3629 C 341.926 1.08483 -6.0241 0
M  V30 3630 N 341.063 2.076 -6.70706 0
M  V30 3631 H 345.903 -0.373981 -2.95644 0
M  V30 3632 H 343.44 -0.196275 -1.45785 0
M  V30 3633 H 345.398 2.00445 -3.65893 0
M  V30 3634 H 344.028 2.02012 -2.51776 0
M  V30 3635 H 343.08 -0.0297798 -3.80388 0
M  V30 3636 H 344.392 0.180383 -4.98474 0
M  V30 3637 H 343.546 2.46929 -5.54176 0
M  V30 3638 H 342.285 2.33033 -4.28424 0
M  V30 3639 H 341.29 0.363545 -5.48597 0
M  V30 3640 H 342.515 0.523551 -6.77079 0
M  V30 3641 H 340.461 2.63394 -6.00799 0
M  V30 3642 H 340.378 1.59201 -7.39047 0
M  V30 3643 H 341.646 2.77639 -7.2838 0
M  V30 3644 N 345.875 1.56104 -0.216619 0
M  V30 3645 C 346.825 2.16703 0.708798 0
M  V30 3646 C 347.809 1.11392 1.16106 0
M  V30 3647 O 349.001 1.37395 1.11587 0
M  V30 3648 C 346.13 2.84666 1.91886 0
M  V30 3649 C 345.216 3.97195 1.48651 0
M  V30 3650 N 345.607 4.99959 0.766434 0
M  V30 3651 C 343.905 4.09193 1.77418 0
M  V30 3652 C 344.606 5.79126 0.546659 0
M  V30 3653 N 343.582 5.32315 1.10188 0
M  V30 3654 H 347.384 2.93516 0.150162 0
M  V30 3655 H 344.898 1.6239 -0.0176768 0
M  V30 3656 H 346.895 3.26486 2.59253 0
M  V30 3657 H 345.555 2.09347 2.48202 0
M  V30 3658 H 346.566 5.16197 0.419634 0
M  V30 3659 H 343.243 3.45021 2.35088 0
M  V30 3660 H 344.633 6.71895 -0.026103 0
M  V30 3661 N 347.353 -0.0568162 1.57498 0
M  V30 3662 C 348.283 -1.06593 2.0775 0
M  V30 3663 C 349.264 -1.39448 0.974082 0
M  V30 3664 O 350.449 -1.48815 1.24771 0
M  V30 3665 C 347.579 -2.37509 2.5339 0
M  V30 3666 C 346.533 -2.1897 3.67745 0
M  V30 3667 C 345.859 -3.55402 3.99492 0
M  V30 3668 C 347.159 -1.59859 4.97235 0
M  V30 3669 H 348.853 -0.647706 2.9231 0
M  V30 3670 H 346.399 -0.310116 1.40621 0
M  V30 3671 H 348.352 -3.08409 2.87162 0
M  V30 3672 H 347.076 -2.8134 1.65878 0
M  V30 3673 H 345.735 -1.50508 3.3428 0
M  V30 3674 H 345.383 -3.9683 3.09088 0
M  V30 3675 H 345.083 -3.43831 4.76502 0
M  V30 3676 H 346.607 -4.27708 4.35773 0
M  V30 3677 H 348.021 -2.20642 5.29141 0
M  V30 3678 H 346.418 -1.58942 5.78669 0
M  V30 3679 H 347.488 -0.561506 4.81638 0
M  V30 3680 N 348.832 -1.54138 -0.328536 0
M  V30 3681 C 349.742 -1.86192 -1.42723 0
M  V30 3682 C 350.758 -0.753382 -1.56844 0
M  V30 3683 O 351.934 -1.04718 -1.72035 0
M  V30 3684 C 348.999 -2.07824 -2.77507 0
M  V30 3685 C 348.06 -3.31641 -2.72603 0
M  V30 3686 C 347.293 -3.52232 -4.00959 0
M  V30 3687 O 347.516 -2.7636 -4.9898 0
M  V30 3688 O 346.45 -4.45699 -4.0452 0
M  V30 3689 H 350.276 -2.79608 -1.18547 0
M  V30 3690 H 347.861 -1.3998 -0.522104 0
M  V30 3691 H 349.743 -2.23411 -3.57303 0
M  V30 3692 H 348.418 -1.17596 -3.01584 0
M  V30 3693 H 347.325 -3.21444 -1.91376 0
M  V30 3694 H 348.658 -4.2191 -2.53481 0
M  V30 3695 N 350.31 0.590341 -1.46126 0
M  V30 3696 C 351.257 1.69994 -1.56111 0
M  V30 3697 C 352.227 1.61065 -0.405867 0
M  V30 3698 O 353.412 1.8039 -0.621613 0
M  V30 3699 C 350.552 3.08326 -1.55013 0
M  V30 3700 C 349.665 3.27936 -2.81215 0
M  V30 3701 C 348.8 4.56473 -2.71673 0
M  V30 3702 C 347.839 4.694 -3.92849 0
M  V30 3703 N 346.976 5.89254 -3.81738 0
M  V30 3704 H 351.816 1.60797 -2.50895 0
M  V30 3705 H 349.353 0.783799 -1.24479 0
M  V30 3706 H 351.311 3.88383 -1.52362 0
M  V30 3707 H 349.941 3.16439 -0.637667 0
M  V30 3708 H 348.993 2.41536 -2.93879 0
M  V30 3709 H 350.305 3.33357 -3.71045 0
M  V30 3710 H 349.459 5.44748 -2.67085 0
M  V30 3711 H 348.198 4.53477 -1.7947 0
M  V30 3712 H 347.203 3.79544 -3.97777 0
M  V30 3713 H 348.428 4.7418 -4.86138 0
M  V30 3714 H 346.374 5.87271 -2.92317 0
M  V30 3715 H 346.291 5.95911 -4.65217 0
M  V30 3716 H 347.559 6.79981 -3.81112 0
M  V30 3717 N 351.788 1.33704 0.83433 0
M  V30 3718 C 353.013 1.28615 1.62705 0
M  V30 3719 C 353.438 -0.139242 1.87584 0
M  V30 3720 O 352.796 -1.09734 1.4432 0
M  V30 3721 C 352.844 2.07139 2.95171 0
M  V30 3722 O 351.948 1.4331 3.86699 0
M  V30 3723 H 351.289 0.44226 0.49528 0
M  V30 3724 H 353.819 1.76335 1.03766 0
M  V30 3725 H 353.829 2.18073 3.44831 0
M  V30 3726 H 352.504 3.10779 2.76386 0
M  V30 3727 H 351.081 1.4105 3.45195 0
M  V30 3728 N 353.266 -1.05314 1.17247 0
M  V30 3729 C 354.512 -1.78557 0.961513 0
M  V30 3730 C 354.845 -1.87419 -0.508697 0
M  V30 3731 O 354.12 -1.37307 -1.37757 0
M  V30 3732 C 354.403 -3.22514 1.60176 0
M  V30 3733 C 354.256 -3.21673 3.14399 0
M  V30 3734 C 355.575 -4.20318 1.30463 0
M  V30 3735 H 352.694 -0.6482 0.350723 0
M  V30 3736 H 355.336 -1.23102 1.44727 0
M  V30 3737 H 353.486 -3.69867 1.18871 0
M  V30 3738 H 355.158 -2.82405 3.64753 0
M  V30 3739 H 353.401 -2.60048 3.47214 0
M  V30 3740 H 354.072 -4.23271 3.54324 0
M  V30 3741 H 356.548 -3.81454 1.66229 0
M  V30 3742 H 355.424 -5.19289 1.77848 0
M  V30 3743 H 355.685 -4.41526 0.22521 0
M  V30 3744 N 354.744 -0.972509 -1.24016 0
M  V30 3745 C 355.654 -0.5143 -2.28893 0
M  V30 3746 C 356.67 0.427078 -1.68677 0
M  V30 3747 O 357.846 0.298939 -1.99169 0
M  V30 3748 C 354.911 0.183598 -3.46214 0
M  V30 3749 C 353.972 -0.798202 -4.21814 0
M  V30 3750 C 353.205 -0.133514 -5.33533 0
M  V30 3751 O 353.428 1.07714 -5.60137 0
M  V30 3752 O 352.362 -0.828103 -5.96176 0
M  V30 3753 H 356.188 -1.38629 -2.70214 0
M  V30 3754 H 353.773 -0.739769 -1.29799 0
M  V30 3755 H 355.655 0.575433 -4.17453 0
M  V30 3756 H 354.33 1.03048 -3.0686 0
M  V30 3757 H 353.237 -1.24059 -3.52931 0
M  V30 3758 H 354.57 -1.61364 -4.64997 0
M  V30 3759 N 356.222 1.38976 -0.743202 0
M  V30 3760 C 357.169 2.30544 -0.10861 0
M  V30 3761 C 358.139 1.49642 0.720869 0
M  V30 3762 O 359.324 1.78304 0.679142 0
M  V30 3763 C 356.464 3.36018 0.786496 0
M  V30 3764 C 355.577 4.31963 -0.0564849 0
M  V30 3765 C 354.712 5.24506 0.840657 0
M  V30 3766 C 353.751 6.121 -0.00658363 0
M  V30 3767 N 352.888 6.96973 0.846943 0
M  V30 3768 H 357.728 2.8424 -0.895088 0
M  V30 3769 H 355.265 1.3995 -0.453048 0
M  V30 3770 H 357.223 3.95768 1.31999 0
M  V30 3771 H 355.853 2.83758 1.53887 0
M  V30 3772 H 354.905 3.73763 -0.707492 0
M  V30 3773 H 356.217 4.93703 -0.711229 0
M  V30 3774 H 355.371 5.89322 1.4417 0
M  V30 3775 H 354.11 4.63107 1.52916 0
M  V30 3776 H 353.115 5.46289 -0.620366 0
M  V30 3777 H 354.34 6.75565 -0.691992 0
M  V30 3778 H 352.286 6.38133 1.52059 0
M  V30 3779 H 352.203 7.5559 0.248864 0
M  V30 3780 H 353.471 7.6621 1.43328 0
M  V30 3781 N 357.7 0.491464 1.49741 0
M  V30 3782 C 358.949 -0.0582189 2.01616 0
M  V30 3783 C 359.262 -1.38927 1.3769 0
M  V30 3784 O 360.468 -2.02509 1.80838 0
M  V30 3785 C 358.924 -0.154235 3.59569 0
M  V30 3786 C 358.532 1.1696 4.32463 0
M  V30 3787 C 360.276 -0.65479 4.1942 0
M  V30 3788 C 358.183 1.03627 5.8225 0
M  V30 3789 H 357.113 -0.0255317 0.753568 0
M  V30 3790 H 359.764 0.629445 1.72367 0
M  V30 3791 H 358.146 -0.906138 3.85493 0
M  V30 3792 H 359.32 1.93405 4.18248 0
M  V30 3793 H 357.635 1.60285 3.84315 0
M  V30 3794 H 360.232 -0.771903 5.29099 0
M  V30 3795 H 360.575 -1.65127 3.8215 0
M  V30 3796 H 361.108 0.040304 3.9778 0
M  V30 3797 H 357.847 2.00672 6.24028 0
M  V30 3798 H 357.367 0.312546 5.98985 0
M  V30 3799 H 359.046 0.711114 6.4308 0
M  V30 3800 N 359.178 -1.55987 0.224894 0
M  V30 3801 C 360.141 -2.19178 -0.670348 0
M  V30 3802 C 361.141 -1.15461 -1.11917 0
M  V30 3803 O 362.331 -1.40675 -1.02743 0
M  V30 3804 C 359.463 -2.81777 -1.9187 0
M  V30 3805 H 360.656 -2.99662 -0.119364 0
M  V30 3806 H 358.209 -1.5628 -0.0247128 0
M  V30 3807 H 358.944 -2.05172 -2.51147 0
M  V30 3808 H 358.729 -3.57732 -1.60531 0
M  V30 3809 H 360.219 -3.30205 -2.55645 0
M  V30 3810 N 360.656 0.0484629 -1.57525 0
M  V30 3811 C 361.933 0.777447 -1.79486 0
M  V30 3812 C 362.313 1.94597 -0.818251 0
M  V30 3813 O 361.661 2.28047 0.143767 0
M  V30 3814 C 361.871 1.22864 -3.26658 0
M  V30 3815 C 363.219 1.65251 -3.91123 0
M  V30 3816 O 364.243 1.32372 -3.3069 0
M  V30 3817 O 363.102 2.26207 -4.97486 0
M  V30 3818 H 360.196 0.374357 -0.737419 0
M  V30 3819 H 362.742 0.0267359 -1.69679 0
M  V30 3820 H 361.514 0.393589 -3.89316 0
M  V30 3821 H 361.137 2.03996 -3.41279 0
M  V30 3822 N 362.134 1.5431 0.320358 0
M  V30 3823 C 363.066 1.80262 1.41556 0
M  V30 3824 C 364.079 0.684723 1.477 0
M  V30 3825 O 365.268 0.961886 1.50366 0
M  V30 3826 C 362.368 1.90825 2.8007 0
M  V30 3827 C 361.541 3.21023 2.97091 0
M  V30 3828 C 360.6 3.22247 4.15985 0
M  V30 3829 O 359.626 3.95871 4.08992 0
M  V30 3830 N 360.828 2.46258 5.25678 0
M  V30 3831 H 363.593 2.74778 1.19655 0
M  V30 3832 H 361.154 1.53646 0.510358 0
M  V30 3833 H 363.146 1.89067 3.57821 0
M  V30 3834 H 361.716 1.03392 2.95006 0
M  V30 3835 H 360.936 3.35715 2.06614 0
M  V30 3836 H 362.224 4.0698 3.05361 0
M  V30 3837 H 361.622 1.86037 5.34235 0
M  V30 3838 H 360.179 2.50275 6.01835 0
M  V30 3839 N 363.613 -0.582584 1.46437 0
M  V30 3840 C 364.543 -1.70187 1.59871 0
M  V30 3841 C 365.524 -1.64066 0.449042 0
M  V30 3842 O 366.709 -1.82081 0.6753 0
M  V30 3843 C 363.839 -3.08827 1.58881 0
M  V30 3844 C 362.793 -3.29779 2.72819 0
M  V30 3845 C 362.119 -4.68947 2.5689 0
M  V30 3846 C 363.419 -3.17601 4.1464 0
M  V30 3847 H 365.113 -1.592 2.53566 0
M  V30 3848 H 362.659 -0.764472 1.22032 0
M  V30 3849 H 364.612 -3.86951 1.66873 0
M  V30 3850 H 363.336 -3.20713 0.617306 0
M  V30 3851 H 361.995 -2.54054 2.64296 0
M  V30 3852 H 361.643 -4.77599 1.57823 0
M  V30 3853 H 361.343 -4.83919 3.33312 0
M  V30 3854 H 362.867 -5.4924 2.66773 0
M  V30 3855 H 364.281 -3.8557 4.24274 0
M  V30 3856 H 362.678 -3.44094 4.9165 0
M  V30 3857 H 363.748 -2.14681 4.34788 0
M  V30 3858 N 365.091 -1.34144 -0.827227 0
M  V30 3859 C 366.001 -1.27428 -1.96975 0
M  V30 3860 C 367.017 -0.182728 -1.73038 0
M  V30 3861 O 368.193 -0.408426 -1.97215 0
M  V30 3862 C 365.258 -1.02526 -3.31194 0
M  V30 3863 C 364.319 -2.20796 -3.68168 0
M  V30 3864 C 363.552 -1.97073 -4.95982 0
M  V30 3865 O 363.775 -0.926822 -5.6282 0
M  V30 3866 O 362.709 -2.83912 -5.30733 0
M  V30 3867 H 366.535 -2.23537 -2.05584 0
M  V30 3868 H 364.12 -1.14307 -0.961989 0
M  V30 3869 H 366.002 -0.904026 -4.11589 0
M  V30 3870 H 364.677 -0.0945389 -3.23562 0
M  V30 3871 H 363.584 -2.38477 -2.88235 0
M  V30 3872 H 364.917 -3.12243 -3.8048 0
M  V30 3873 N 366.569 1.04691 -1.17803 0
M  V30 3874 C 367.479 2.16057 -0.914151 0
M  V30 3875 C 368.495 1.73589 0.119503 0
M  V30 3876 O 369.671 2.01308 -0.0609468 0
M  V30 3877 C 366.736 3.4394 -0.436603 0
M  V30 3878 C 365.797 4.00825 -1.53746 0
M  V30 3879 C 365.03 5.22604 -1.0826 0
M  V30 3880 O 365.253 5.70367 0.0612244 0
M  V30 3881 O 364.187 5.7186 -1.87775 0
M  V30 3882 H 368.013 2.41169 -1.84584 0
M  V30 3883 H 365.598 1.1453 -0.959334 0
M  V30 3884 H 367.48 4.21024 -0.178057 0
M  V30 3885 H 366.155 3.20316 0.466869 0
M  V30 3886 H 365.062 3.25158 -1.84995 0
M  V30 3887 H 366.395 4.28778 -2.41683 0
M  V30 3888 N 368.047 0.979072 1.23499 0
M  V30 3889 C 368.977 0.537606 2.27227 0
M  V30 3890 C 369.958 -0.428539 1.64613 0
M  V30 3891 O 371.143 -0.322191 1.91509 0
M  V30 3892 C 368.273 -0.162052 3.46922 0
M  V30 3893 C 367.227 0.721242 4.21879 0
M  V30 3894 C 366.553 -0.110555 5.34586 0
M  V30 3895 C 367.853 2.01141 4.82016 0
M  V30 3896 H 369.547 1.40462 2.64406 0
M  V30 3897 H 367.093 0.67684 1.27102 0
M  V30 3898 H 369.046 -0.482192 4.18632 0
M  V30 3899 H 367.77 -1.06351 3.08799 0
M  V30 3900 H 366.429 1.02482 3.51984 0
M  V30 3901 H 366.077 -1.0125 4.92704 0
M  V30 3902 H 365.777 0.477325 5.85658 0
M  V30 3903 H 367.301 -0.425107 6.09118 0
M  V30 3904 H 368.715 1.75612 5.45741 0
M  V30 3905 H 367.112 2.54695 5.43369 0
M  V30 3906 H 368.182 2.69909 4.02836 0
M  V30 3907 N 369.525 -1.3858 0.750561 0
M  V30 3908 C 370.473 -2.32339 0.110162 0
M  V30 3909 C 371.467 -1.53864 -0.708674 0
M  V30 3910 O 372.673 -1.69417 -0.608112 0
M  V30 3911 H 369.048 -0.751812 0.0168275 0
M  V30 3912 H 371.019 -2.83959 0.917053 0
M  V30 3913 C 369.768 -3.39043 -0.771067 0
M  V30 3914 H 369.091 -3.99517 -0.150374 0
M  V30 3915 H 370.531 -4.07061 -1.1865 0
M  V30 3916 C 368.99 -2.77365 -1.91234 0
M  V30 3917 O 369.52 -2.66434 -3.00626 0
M  V30 3918 N 367.726 -2.35219 -1.70646 0
M  V30 3919 H 367.273 -2.4431 -0.81673 0
M  V30 3920 H 367.231 -1.94294 -2.47178 0
M  V30 3921 N 371.003 -0.499398 -1.49478 0
M  V30 3922 C 371.95 0.279881 -2.29097 0
M  V30 3923 C 372.92 0.961805 -1.3542 0
M  V30 3924 O 374.105 0.968777 -1.64376 0
M  V30 3925 C 371.245 1.33932 -3.18051 0
M  V30 3926 C 370.358 0.669333 -4.26783 0
M  V30 3927 C 369.493 1.70907 -5.02955 0
M  V30 3928 C 368.532 1.02087 -6.03527 0
M  V30 3929 N 367.669 2.00474 -6.7287 0
M  V30 3930 H 372.509 -0.405317 -2.95231 0
M  V30 3931 H 370.046 -0.211726 -1.45568 0
M  V30 3932 H 372.004 1.96553 -3.67998 0
M  V30 3933 H 370.634 1.9933 -2.53904 0
M  V30 3934 H 369.686 -0.0701234 -3.80335 0
M  V30 3935 H 370.998 0.127503 -4.98637 0
M  V30 3936 H 370.152 2.41037 -5.56764 0
M  V30 3937 H 368.891 2.28476 -4.30871 0
M  V30 3938 H 367.896 0.305338 -5.48951 0
M  V30 3939 H 369.121 0.451708 -6.77596 0
M  V30 3940 H 367.067 2.57007 -6.03559 0
M  V30 3941 H 366.984 1.51353 -7.40694 0
M  V30 3942 H 368.252 2.69897 -7.31284 0
M  V30 3943 N 372.481 1.55866 -0.233164 0
M  V30 3944 C 373.391 2.24431 0.683217 0
M  V30 3945 C 374.407 1.2558 1.2044 0
M  V30 3946 O 375.583 1.58422 1.24356 0
M  V30 3947 C 372.648 2.91979 1.86947 0
M  V30 3948 C 371.709 4.06204 1.38912 0
M  V30 3949 C 370.942 4.70522 2.51883 0
M  V30 3950 O 371.165 4.33865 3.70293 0
M  V30 3951 O 370.099 5.59296 2.22423 0
M  V30 3952 H 373.925 3.03426 0.129059 0
M  V30 3953 H 371.51 1.494 -0.0022283 0
M  V30 3954 H 373.392 3.34573 2.56201 0
M  V30 3955 H 372.067 2.15935 2.41151 0
M  V30 3956 H 370.974 3.68155 0.664259 0
M  V30 3957 H 372.307 4.84025 0.893328 0
M  V30 3958 N 373.959 -0.0401083 1.57549 0
M  V30 3959 C 374.889 -1.04384 2.08869 0
M  V30 3960 C 375.87 -1.38407 0.988817 0
M  V30 3961 O 377.055 -1.47483 1.26342 0
M  V30 3962 C 374.185 -2.34808 2.55895 0
M  V30 3963 C 373.139 -2.15057 3.70047 0
M  V30 3964 C 372.465 -3.51145 4.03239 0
M  V30 3965 C 373.765 -1.54576 4.98902 0
M  V30 3966 H 375.459 -0.616666 2.92981 0
M  V30 3967 H 373.005 -0.295184 1.40942 0
M  V30 3968 H 374.958 -3.05346 2.90417 0
M  V30 3969 H 373.682 -2.79565 1.68853 0
M  V30 3970 H 372.341 -1.46954 3.35857 0
M  V30 3971 H 371.989 -3.93529 3.13279 0
M  V30 3972 H 371.689 -3.38758 4.80122 0
M  V30 3973 H 373.213 -4.23062 4.40285 0
M  V30 3974 H 374.627 -2.15017 5.31451 0
M  V30 3975 H 373.024 -1.52796 5.80322 0
M  V30 3976 H 374.094 -0.51039 4.82206 0
M  V30 3977 N 375.437 -1.54477 -0.31217 0
M  V30 3978 C 376.665 -1.77205 -1.068 0
M  V30 3979 C 377.08 -0.526114 -1.81321 0
M  V30 3980 O 376.437 0.503647 -1.75413 0
M  V30 3981 C 376.488 -2.97253 -2.05725 0
M  V30 3982 O 376.209 -4.1703 -1.34228 0
M  V30 3983 C 377.71 -3.32281 -2.93435 0
M  V30 3984 H 374.93 -0.591287 -0.317208 0
M  V30 3985 H 377.474 -2.01398 -0.354834 0
M  V30 3986 H 375.629 -2.753 -2.72559 0
M  V30 3987 H 376.043 -4.84636 -2.00571 0
M  V30 3988 H 377.517 -4.19551 -3.58721 0
M  V30 3989 H 377.994 -2.49945 -3.61143 0
M  V30 3990 H 378.6 -3.56353 -2.32147 0
M  V30 3991 N 376.915 0.57481 -1.46744 0
M  V30 3992 C 378.163 1.33009 -1.52161 0
M  V30 3993 C 378.484 1.94185 -0.178092 0
M  V30 3994 O 377.754 1.7899 0.796196 0
M  V30 3995 H 376.334 0.493873 -0.560445 0
M  V30 3996 H 378.996 0.672589 -1.82927 0
M  V30 3997 H 378.092 2.13273 -2.27862 0
M  V30 3998 N 378.394 1.34581 0.820102 0
M  V30 3999 C 379.643 1.26437 1.57151 0
M  V30 4000 C 379.956 -0.163111 1.94919 0
M  V30 4001 O 381.162 -0.366722 2.69012 0
M  V30 4002 C 379.618 2.21658 2.83541 0
M  V30 4003 C 379.226 3.69679 2.53065 0
M  V30 4004 C 380.97 2.22428 3.61561 0
M  V30 4005 C 378.877 4.56761 3.75664 0
M  V30 4006 H 377.807 0.469707 0.589823 0
M  V30 4007 H 380.458 1.59763 0.902656 0
M  V30 4008 H 378.84 1.81287 3.52067 0
M  V30 4009 H 380.014 4.18605 1.92631 0
M  V30 4010 H 378.329 3.71384 1.88316 0
M  V30 4011 H 380.926 2.8471 4.52597 0
M  V30 4012 H 381.269 1.22434 3.97889 0
M  V30 4013 H 381.802 2.61259 2.99981 0
M  V30 4014 H 378.541 5.57702 3.44454 0
M  V30 4015 H 378.061 4.12568 4.35371 0
M  V30 4016 H 379.74 4.71509 4.43044 0
M  V30 4017 N 379.872 -1.04064 1.18357 0
M  V30 4018 C 380.804 -2.12114 0.868358 0
M  V30 4019 C 381.817 -1.62247 -0.134045 0
M  V30 4020 O 383.006 -1.78253 0.0937933 0
M  V30 4021 C 380.106 -3.37773 0.276132 0
M  V30 4022 C 379.279 -4.16874 1.3242 0
M  V30 4023 C 378.338 -5.20861 0.747662 0
M  V30 4024 O 377.364 -5.51141 1.42239 0
M  V30 4025 N 378.566 -5.78715 -0.454823 0
M  V30 4026 H 381.331 -2.39748 1.79836 0
M  V30 4027 H 378.892 -1.20258 1.08396 0
M  V30 4028 H 380.884 -4.04513 -0.123133 0
M  V30 4029 H 379.454 -3.07581 -0.557895 0
M  V30 4030 H 378.674 -3.45456 1.89878 0
M  V30 4031 H 379.962 -4.66516 2.03078 0
M  V30 4032 H 379.36 -5.56415 -1.02073 0
M  V30 4033 H 377.917 -6.46921 -0.79601 0
M  V30 4034 N 381.35 -0.985608 -1.22978 0
M  V30 4035 C 382.282 -0.488154 -2.23941 0
M  V30 4036 C 383.295 0.41282 -1.57479 0
M  V30 4037 O 384.484 0.216121 -1.77187 0
M  V30 4038 C 381.584 0.312611 -3.37455 0
M  V30 4039 C 380.757 -0.582741 -4.33501 0
M  V30 4040 C 379.816 0.165064 -5.25941 0
M  V30 4041 O 378.842 -0.447077 -5.67442 0
M  V30 4042 N 380.044 1.44953 -5.62111 0
M  V30 4043 H 382.809 -1.3563 -2.67254 0
M  V30 4044 H 380.37 -0.859477 -1.37203 0
M  V30 4045 H 382.362 0.821357 -3.96277 0
M  V30 4046 H 380.932 1.0818 -2.93285 0
M  V30 4047 H 380.152 -1.27225 -3.73105 0
M  V30 4048 H 381.44 -1.19275 -4.94622 0
M  V30 4049 H 380.838 1.9683 -5.30353 0
M  V30 4050 H 379.395 1.90361 -6.23383 0
M  V30 4051 N 382.828 1.3818 -0.7579 0
M  V30 4052 C 384.076 1.99624 -0.315361 0
M  V30 4053 C 384.397 1.60464 1.10799 0
M  V30 4054 O 383.667 0.863507 1.75842 0
M  V30 4055 H 382.247 0.73831 -0.113611 0
M  V30 4056 H 384.909 1.68878 -0.972952 0
M  V30 4057 H 384.005 3.09754 -0.381931 0
M  V30 4058 N 384.306 0.507319 1.49211 0
M  V30 4059 C 385.553 -0.0349529 2.0247 0
M  V30 4060 C 385.881 -1.36409 1.38647 0
M  V30 4061 O 385.136 -1.88841 0.513566 0
M  V30 4062 C 385.435 -0.229513 3.56662 0
M  V30 4063 C 385.101 1.02241 4.39156 0
M  V30 4064 C 383.763 1.36557 4.61417 0
M  V30 4065 C 386.115 1.85428 4.871 0
M  V30 4066 C 383.443 2.53999 5.28868 0
M  V30 4067 C 385.795 3.02028 5.55843 0
M  V30 4068 C 384.459 3.36717 5.76349 0
M  V30 4069 H 383.729 -0.0127902 0.74089 0
M  V30 4070 H 386.376 0.668756 1.79443 0
M  V30 4071 H 384.681 -1.0158 3.78403 0
M  V30 4072 H 386.378 -0.663641 3.9547 0
M  V30 4073 H 382.968 0.745124 4.22073 0
M  V30 4074 H 387.152 1.6023 4.69723 0
M  V30 4075 H 382.408 2.81105 5.42946 0
M  V30 4076 H 386.582 3.66808 5.91967 0
M  V30 4077 H 384.209 4.27821 6.28389 0
M  V30 4078 N 385.784 -1.5574 0.241426 0
M  V30 4079 C 386.714 -2.24133 -0.654722 0
M  V30 4080 C 387.695 -1.21974 -1.1856 0
M  V30 4081 O 388.88 -1.50612 -1.22595 0
M  V30 4082 C 386.01 -2.93659 -1.85423 0
M  V30 4083 C 384.964 -4.0246 -1.45636 0
M  V30 4084 C 384.29 -4.59383 -2.73626 0
M  V30 4085 C 385.59 -5.18468 -0.631506 0
M  V30 4086 H 387.284 -2.99281 -0.0844353 0
M  V30 4087 H 384.83 -1.43947 -0.0391707 0
M  V30 4088 H 386.783 -3.40203 -2.48676 0
M  V30 4089 H 385.507 -2.15991 -2.44981 0
M  V30 4090 H 384.166 -3.56676 -0.847202 0
M  V30 4091 H 383.814 -3.78422 -3.3137 0
M  V30 4092 H 383.514 -5.32826 -2.4773 0
M  V30 4093 H 385.038 -5.08658 -3.37786 0
M  V30 4094 H 386.452 -5.61272 -1.1682 0
M  V30 4095 H 384.849 -5.98266 -0.468831 0
M  V30 4096 H 385.919 -4.8358 0.357506 0
M  V30 4097 N 387.262 0.0317525 -1.57568 0
M  V30 4098 C 388.673 0.578692 -1.77505 0
M  V30 4099 C 389.024 1.75749 -0.872164 0
M  V30 4100 O 388.149 2.16298 -0.0663106 0
M  V30 4101 C 388.744 1.05658 -3.21904 0
M  V30 4102 C 387.303 1.54906 -3.43047 0
M  V30 4103 C 386.45 0.485939 -2.73009 0
M  V30 4104 H 389.401 -0.194475 -1.57504 0
M  V30 4105 H 389.422 1.92404 -3.28269 0
M  V30 4106 H 388.934 0.198422 -3.87592 0
M  V30 4107 H 387.035 2.42915 -2.82529 0
M  V30 4108 H 387.148 1.59841 -4.5165 0
M  V30 4109 H 385.512 0.940354 -2.36705 0
M  V30 4110 H 386.295 -0.362709 -3.41379 0
M  V30 4111 N 388.74 1.54641 0.303973 0
M  V30 4112 C 389.687 1.85386 1.37479 0
M  V30 4113 C 390.657 0.702528 1.50512 0
M  V30 4114 O 391.842 0.950867 1.65418 0
M  V30 4115 C 388.982 2.10413 2.73533 0
M  V30 4116 C 388.095 3.38049 2.68974 0
M  V30 4117 C 387.23 3.52934 3.97002 0
M  V30 4118 C 386.269 4.74373 3.86829 0
M  V30 4119 N 385.406 4.8608 5.06627 0
M  V30 4120 H 390.246 2.76732 1.1056 0
M  V30 4121 H 387.783 1.37034 0.534805 0
M  V30 4122 H 389.741 2.22919 3.52652 0
M  V30 4123 H 388.371 1.22338 2.98719 0
M  V30 4124 H 387.423 3.3418 1.81736 0
M  V30 4125 H 388.735 4.27288 2.57346 0
M  V30 4126 H 387.889 3.65088 4.84557 0
M  V30 4127 H 386.628 2.61824 4.1146 0
M  V30 4128 H 385.633 4.62255 2.97658 0
M  V30 4129 H 386.858 5.66888 3.73918 0
M  V30 4130 H 384.804 3.97891 5.21554 0
M  V30 4131 H 384.721 5.69315 4.9741 0
M  V30 4132 H 385.989 5.02587 5.95841 0
M  V30 4133 N 390.218 -0.567019 1.47046 0
M  V30 4134 C 391.495 -1.3276 1.43646 0
M  V30 4135 C 391.875 -2.1071 0.128186 0
M  V30 4136 O 391.223 -2.10441 -0.890326 0
M  V30 4137 C 391.433 -2.2404 2.67595 0
M  V30 4138 C 392.781 -2.85372 3.14401 0
M  V30 4139 O 393.805 -2.34346 2.68254 0
M  V30 4140 O 392.664 -3.78091 3.946 0
M  V30 4141 H 389.758 -0.597293 0.571988 0
M  V30 4142 H 392.304 -0.586735 1.59234 0
M  V30 4143 H 391.076 -1.65975 3.54356 0
M  V30 4144 H 390.699 -3.05439 2.54544 0
M  V30 4145 N 391.696 -1.35014 -0.812953 0
M  V30 4146 C 392.626 -1.30069 -1.93919 0
M  V30 4147 C 393.607 -0.176275 -1.69184 0
M  V30 4148 O 394.792 -0.370227 -1.90638 0
M  V30 4149 C 391.922 -1.06547 -3.30552 0
M  V30 4150 C 390.876 -2.15561 -3.69753 0
M  V30 4151 C 390.202 -1.77214 -5.04479 0
M  V30 4152 C 391.502 -3.57476 -3.808 0
M  V30 4153 H 393.196 -2.24303 -1.98314 0
M  V30 4154 H 390.742 -1.07977 -0.952736 0
M  V30 4155 H 392.695 -1.01729 -4.08937 0
M  V30 4156 H 391.419 -0.0875719 -3.26483 0
M  V30 4157 H 390.078 -2.19466 -2.9365 0
M  V30 4158 H 389.726 -0.780589 -4.96906 0
M  V30 4159 H 389.426 -2.50184 -5.31678 0
M  V30 4160 H 390.95 -1.7391 -5.8531 0
M  V30 4161 H 392.364 -3.55929 -4.4943 0
M  V30 4162 H 390.761 -4.29152 -4.19462 0
M  V30 4163 H 391.831 -3.94091 -2.82525 0
M  V30 4164 N 393.175 1.03435 -1.18907 0
M  V30 4165 C 394.107 2.1165 -0.879595 0
M  V30 4166 C 395.12 1.62316 0.125439 0
M  V30 4167 O 396.309 1.78201 -0.103245 0
M  V30 4168 C 393.409 3.37622 -0.294042 0
M  V30 4169 C 392.582 4.16166 -1.34629 0
M  V30 4170 C 391.641 5.20457 -0.775274 0
M  V30 4171 O 390.667 5.50379 -1.4516 0
M  V30 4172 N 391.869 5.78949 0.424126 0
M  V30 4173 H 394.634 2.38791 -1.81105 0
M  V30 4174 H 392.195 1.19681 -1.09032 0
M  V30 4175 H 394.187 4.04572 0.101679 0
M  V30 4176 H 392.757 3.07873 0.541575 0
M  V30 4177 H 391.977 3.44444 -1.91707 0
M  V30 4178 H 393.265 4.65432 -2.05549 0
M  V30 4179 H 392.663 5.56948 0.991209 0
M  V30 4180 H 391.22 6.47334 0.761691 0
M  V30 4181 N 394.653 0.992116 1.22453 0
M  V30 4182 C 395.616 0.546883 2.2258 0
M  V30 4183 C 396.616 -0.369829 1.56489 0
M  V30 4184 O 397.806 -0.161896 1.73446 0
M  V30 4185 C 394.938 -0.204659 3.40285 0
M  V30 4186 H 396.131 1.43234 2.63484 0
M  V30 4187 H 393.684 0.779239 1.3549 0
M  V30 4188 H 394.419 -1.10614 3.04853 0
M  V30 4189 H 394.204 0.45354 3.89468 0
M  V30 4190 H 395.694 -0.504358 4.14543 0
M  V30 4191 N 396.131 -1.37776 0.765217 0
M  V30 4192 C 397.041 -2.34135 0.147666 0
M  V30 4193 C 398.057 -1.59854 -0.687215 0
M  V30 4194 O 399.233 -1.91983 -0.608659 0
M  V30 4195 C 396.298 -3.3901 -0.72617 0
M  V30 4196 C 395.359 -4.2912 0.124417 0
M  V30 4197 C 394.592 -5.28986 -0.707807 0
M  V30 4198 O 394.815 -5.36205 -1.94525 0
M  V30 4199 O 393.749 -6.01779 -0.12046 0
M  V30 4200 H 397.575 -2.88664 0.943758 0
M  V30 4201 H 395.16 -1.39824 0.526277 0
M  V30 4202 H 397.042 -4.03195 -1.22524 0
M  V30 4203 H 395.717 -2.86819 -1.50056 0
M  V30 4204 H 394.624 -3.68057 0.669696 0
M  V30 4205 H 395.957 -4.84598 0.861736 0
M  V30 4206 N 397.609 -0.515225 -1.4894 0
M  V30 4207 C 398.572 0.244681 -2.2789 0
M  V30 4208 C 399.572 0.881166 -1.34507 0
M  V30 4209 O 400.762 0.743497 -1.57537 0
M  V30 4210 C 397.894 1.35247 -3.12923 0
M  V30 4211 H 399.087 -0.448289 -2.96531 0
M  V30 4212 H 396.64 -0.270656 -1.53939 0
M  V30 4213 H 397.375 2.07916 -2.48881 0
M  V30 4214 H 397.16 0.901374 -3.81599 0
M  V30 4215 H 398.65 1.88737 -3.72516 0
M  V30 4216 N 399.087 1.5561 -0.249682 0
M  V30 4217 C 400.017 2.24477 0.642826 0
M  V30 4218 C 400.998 1.22601 1.17911 0
M  V30 4219 O 402.183 1.5126 1.21795 0
M  V30 4220 C 399.313 2.94638 1.83863 0
M  V30 4221 C 398.267 4.03227 1.435 0
M  V30 4222 C 397.593 4.60828 2.71186 0
M  V30 4223 C 398.893 5.18796 0.604002 0
M  V30 4224 H 400.587 2.99321 0.0685625 0
M  V30 4225 H 398.133 1.43965 0.0315363 0
M  V30 4226 H 400.086 3.41517 2.46868 0
M  V30 4227 H 398.81 2.17287 2.43832 0
M  V30 4228 H 397.469 3.57121 0.828275 0
M  V30 4229 H 397.117 3.80174 3.29358 0
M  V30 4230 H 396.817 5.34132 2.44901 0
M  V30 4231 H 398.341 5.10442 3.35084 0
M  V30 4232 H 399.755 5.61883 1.13842 0
M  V30 4233 H 398.152 5.98506 0.437097 0
M  V30 4234 H 399.222 4.83384 -0.383147 0
M  V30 4235 N 400.565 -0.0233959 1.57583 0
M  V30 4236 C 401.805 -0.71784 1.9138 0
M  V30 4237 C 402.169 -1.72216 0.848853 0
M  V30 4238 O 403.37 -2.46527 1.07134 0
M  V30 4239 C 401.641 -1.36489 3.30311 0
M  V30 4240 S 403.2 -2.0877 3.85954 0
M  V30 4241 H 400.018 -0.237676 0.670098 0
M  V30 4242 H 402.62 0.0276709 1.9548 0
M  V30 4243 H 401.324 -0.620782 4.05678 0
M  V30 4244 H 400.855 -2.14883 3.29528 0
M  V30 4245 H 402.87 -3.35988 3.65139 0
M  V30 4246 N 402.043 -1.548 -0.295768 0
M  V30 4247 C 402.99 -1.86113 -1.36494 0
M  V30 4248 C 403.96 -0.7105 -1.50137 0
M  V30 4249 O 405.145 -0.959626 -1.64912 0
M  V30 4250 C 402.285 -2.11861 -2.72413 0
M  V30 4251 C 401.398 -3.39471 -2.67177 0
M  V30 4252 C 400.533 -3.55035 -3.95125 0
M  V30 4253 C 399.572 -4.76418 -3.84308 0
M  V30 4254 N 398.709 -4.8876 -5.04042 0
M  V30 4255 H 403.549 -2.77314 -1.09091 0
M  V30 4256 H 401.086 -1.37315 -0.52753 0
M  V30 4257 H 403.044 -2.24786 -3.51464 0
M  V30 4258 H 401.674 -1.2392 -2.98066 0
M  V30 4259 H 400.726 -3.35139 -1.79962 0
M  V30 4260 H 402.038 -4.28646 -2.55076 0
M  V30 4261 H 401.192 -3.67653 -4.82614 0
M  V30 4262 H 399.931 -2.64002 -4.10066 0
M  V30 4263 H 398.936 -4.63827 -2.95202 0
M  V30 4264 H 400.161 -5.68863 -3.70906 0
M  V30 4265 H 398.107 -4.00652 -5.19436 0
M  V30 4266 H 398.024 -5.71945 -4.94384 0
M  V30 4267 H 399.292 -5.0574 -5.93167 0
M  V30 4268 N 403.521 0.559213 -1.47345 0
M  V30 4269 C 404.451 1.67622 -1.62558 0
M  V30 4270 C 405.432 1.63331 -0.475087 0
M  V30 4271 O 406.617 1.80983 -0.704182 0
M  V30 4272 C 403.747 3.0626 -1.63774 0
M  V30 4273 C 402.701 3.25397 -2.7803 0
M  V30 4274 C 402.027 4.64801 -2.64318 0
M  V30 4275 C 403.327 3.10965 -4.19641 0
M  V30 4276 H 405.021 1.55146 -2.56067 0
M  V30 4277 H 402.567 0.744961 -1.23233 0
M  V30 4278 H 404.52 3.84247 -1.73008 0
M  V30 4279 H 403.244 3.1969 -0.66825 0
M  V30 4280 H 401.903 2.49817 -2.68304 0
M  V30 4281 H 401.551 4.75028 -1.65401 0
M  V30 4282 H 401.251 4.78555 -3.40968 0
M  V30 4283 H 402.775 5.44926 -2.75478 0
M  V30 4284 H 404.189 3.78772 -4.30354 0
M  V30 4285 H 402.586 3.36229 -4.97062 0
M  V30 4286 H 403.656 2.07736 -4.38148 0
M  V30 4287 N 404.999 1.35443 0.805782 0
M  V30 4288 C 406.276 1.19325 1.54987 0
M  V30 4289 C 406.656 -0.227294 2.09873 0
M  V30 4290 O 406.004 -1.2309 1.92512 0
M  V30 4291 C 406.214 2.26196 2.65775 0
M  V30 4292 C 407.562 2.62043 3.34094 0
M  V30 4293 O 408.586 2.25115 2.76046 0
M  V30 4294 O 407.445 3.25542 4.38958 0
M  V30 4295 H 404.539 0.463623 0.684823 0
M  V30 4296 H 407.085 1.47127 0.845674 0
M  V30 4297 H 405.857 3.21471 2.23096 0
M  V30 4298 H 405.48 1.99667 3.43829 0
M  V30 4299 N 406.477 -1.02803 1.19454 0
M  V30 4300 C 407.893 -1.28473 0.946937 0
M  V30 4301 C 408.093 -1.97881 -0.380202 0
M  V30 4302 O 407.149 -2.26719 -1.11151 0
M  V30 4303 C 408.462 -2.13099 2.12154 0
M  V30 4304 C 410.01 -2.26404 2.16126 0
M  V30 4305 C 410.485 -3.14402 3.33039 0
M  V30 4306 N 411.976 -3.21991 3.32981 0
M  V30 4307 C 412.711 -3.90272 4.20089 0
M  V30 4308 N 412.207 -4.60777 5.17355 0
M  V30 4309 N 414 -3.8668 4.07964 0
M  V30 4310 H 406.151 -0.561665 2.04839 0
M  V30 4311 H 408.414 -0.310438 0.89573 0
M  V30 4312 H 408.12 -1.69422 3.08203 0
M  V30 4313 H 407.994 -3.13813 2.09287 0
M  V30 4314 H 410.381 -2.69311 1.20647 0
M  V30 4315 H 410.462 -1.25237 2.23045 0
M  V30 4316 H 410.106 -2.72204 4.28798 0
M  V30 4317 H 410.036 -4.1563 3.23356 0
M  V30 4318 H 412.527 -2.71778 2.62574 0
M  V30 4319 H 412.84 -5.10513 5.80169 0
M  V30 4320 H 411.185 -4.5964 5.21302 0
M  V30 4321 H 414.376 -3.30739 3.31254 0
M  V30 4322 H 414.549 -4.39621 4.76064 0
M  V30 4323 N 407.956 -0.998596 -1.21925 0
M  V30 4324 C 409.372 -0.710303 -1.42923 0
M  V30 4325 C 409.572 0.716933 -1.88314 0
M  V30 4326 O 408.628 1.48712 -2.04062 0
M  V30 4327 C 409.941 -1.72072 -2.466 0
M  V30 4328 C 411.489 -1.73681 -2.60392 0
M  V30 4329 C 411.964 -2.73601 -3.67296 0
M  V30 4330 N 413.455 -2.7223 -3.7476 0
M  V30 4331 C 414.19 -3.46206 -4.57087 0
M  V30 4332 N 413.686 -4.29802 -5.43362 0
M  V30 4333 N 415.479 -3.34886 -4.51451 0
M  V30 4334 H 407.63 -1.92028 -0.9077 0
M  V30 4335 H 409.893 -0.828487 -0.460775 0
M  V30 4336 H 409.599 -2.74231 -2.20206 0
M  V30 4337 H 409.473 -1.51818 -3.45299 0
M  V30 4338 H 411.86 -0.722173 -2.86127 0
M  V30 4339 H 411.941 -1.98005 -1.61949 0
M  V30 4340 H 411.585 -3.75217 -3.42307 0
M  V30 4341 H 411.515 -2.46545 -4.65321 0
M  V30 4342 H 414.006 -2.11576 -3.1312 0
M  V30 4343 H 414.319 -4.83061 -6.03218 0
M  V30 4344 H 412.664 -4.33887 -5.42925 0
M  V30 4345 H 415.855 -2.69015 -3.83078 0
M  V30 4346 H 416.028 -3.92796 -5.15379 0
M  V30 4347 N 409.434 1.37368 -0.772513 0
M  V30 4348 C 410.68 1.99969 -0.337681 0
M  V30 4349 C 411.013 1.61184 1.08321 0
M  V30 4350 O 410.288 0.858395 1.74533 0
M  V30 4351 C 410.571 3.56858 -0.482121 0
M  V30 4352 C 410.424 4.0555 -1.94549 0
M  V30 4353 C 411.743 4.39955 0.113143 0
M  V30 4354 H 408.862 0.726464 -0.124171 0
M  V30 4355 H 411.504 1.63034 -0.975699 0
M  V30 4356 H 409.654 3.88452 0.0610361 0
M  V30 4357 H 411.326 3.84518 -2.54841 0
M  V30 4358 H 409.569 3.57715 -2.45403 0
M  V30 4359 H 410.24 5.14587 -1.9976 0
M  V30 4360 H 412.716 4.14623 -0.35031 0
M  V30 4361 H 411.592 5.48897 -0.0180514 0
M  V30 4362 H 411.853 4.25403 1.20354 0
M  V30 4363 N 410.912 0.523116 1.48665 0
M  V30 4364 C 411.859 -0.243398 2.29513 0
M  V30 4365 C 412.829 -0.940139 1.36933 0
M  V30 4366 O 414.014 -0.942503 1.65896 0
M  V30 4367 C 411.154 -1.28855 3.20141 0
M  V30 4368 C 410.267 -0.60135 4.27794 0
M  V30 4369 C 409.402 -1.62884 5.05611 0
M  V30 4370 C 408.441 -0.924726 6.05075 0
M  V30 4371 N 407.578 -1.89744 6.75975 0
M  V30 4372 H 412.418 0.452234 2.94549 0
M  V30 4373 H 409.955 0.234858 1.45213 0
M  V30 4374 H 411.913 -1.90674 3.71079 0
M  V30 4375 H 410.543 -1.95266 2.57043 0
M  V30 4376 H 409.595 0.130623 3.80176 0
M  V30 4377 H 410.907 -0.0481585 4.98777 0
M  V30 4378 H 410.061 -2.32149 5.60528 0
M  V30 4379 H 408.8 -2.21592 4.34452 0
M  V30 4380 H 407.805 -0.217966 5.49368 0
M  V30 4381 H 409.03 -0.343851 6.78229 0
M  V30 4382 H 406.976 -2.47373 6.07571 0
M  V30 4383 H 406.893 -1.3955 7.43009 0
M  V30 4384 H 408.161 -2.58229 7.35485 0
M  V30 4385 N 412.39 -1.55475 0.257931 0
M  V30 4386 C 413.353 -2.20551 -0.623706 0
M  V30 4387 C 414.353 -1.17809 -1.09443 0
M  V30 4388 O 415.543 -1.42823 -0.997362 0
M  V30 4389 C 412.675 -2.85784 -1.8585 0
M  V30 4390 H 413.868 -2.99848 -0.0557743 0
M  V30 4391 H 411.421 -1.56298 0.0084422 0
M  V30 4392 H 412.156 -2.10453 -2.46739 0
M  V30 4393 H 411.941 -3.61057 -1.52907 0
M  V30 4394 H 413.431 -3.35553 -2.48584 0
M  V30 4395 N 413.868 0.0150385 -1.57593 0
M  V30 4396 C 415.096 0.714395 -1.94175 0
M  V30 4397 C 415.511 1.68135 -0.858841 0
M  V30 4398 O 414.868 1.81766 0.163567 0
M  V30 4399 C 414.919 1.45933 -3.30735 0
M  V30 4400 O 414.64 0.531167 -4.34868 0
M  V30 4401 C 416.141 2.25456 -3.81686 0
M  V30 4402 H 413.361 0.199923 -0.640525 0
M  V30 4403 H 415.905 -0.0316096 -2.04476 0
M  V30 4404 H 414.06 2.15709 -3.21789 0
M  V30 4405 H 414.474 1.05509 -5.13778 0
M  V30 4406 H 415.948 2.731 -4.79709 0
M  V30 4407 H 416.425 3.07485 -3.13607 0
M  V30 4408 H 417.031 1.60727 -3.9376 0
M  V30 4409 N 415.346 1.54954 0.287554 0
M  V30 4410 C 416.595 1.74081 1.01877 0
M  V30 4411 C 416.908 0.541135 1.87966 0
M  V30 4412 O 418.114 0.614491 2.64455 0
M  V30 4413 C 416.57 3.08042 1.86113 0
M  V30 4414 C 416.178 4.35531 1.04961 0
M  V30 4415 C 417.922 3.36523 2.58752 0
M  V30 4416 C 415.829 5.60538 1.88551 0
M  V30 4417 H 414.759 0.64884 0.384087 0
M  V30 4418 H 417.41 1.81426 0.275101 0
M  V30 4419 H 415.792 2.94696 2.64519 0
M  V30 4420 H 416.966 4.59751 0.31074 0
M  V30 4421 H 415.281 4.14085 0.43843 0
M  V30 4422 H 417.878 4.27122 3.21668 0
M  V30 4423 H 418.221 2.56 3.28283 0
M  V30 4424 H 418.754 3.50901 1.87386 0
M  V30 4425 H 415.493 6.43767 1.23466 0
M  V30 4426 H 415.013 5.40483 2.60074 0
M  V30 4427 H 416.692 5.98297 2.46273 0
M  V30 4428 N 416.824 -0.551391 1.4764 0
M  V30 4429 C 417.734 -1.68525 1.63207 0
M  V30 4430 C 418.75 -1.6621 0.514815 0
M  V30 4431 O 419.926 -1.85551 0.783113 0
M  V30 4432 C 416.991 -3.05025 1.64805 0
M  V30 4433 C 416.052 -3.18362 2.88 0
M  V30 4434 C 415.285 -4.4835 2.89513 0
M  V30 4435 O 415.508 -5.34163 2.00065 0
M  V30 4436 O 414.442 -4.65602 3.81443 0
M  V30 4437 H 418.268 -1.58333 2.59161 0
M  V30 4438 H 415.853 -0.722063 1.30792 0
M  V30 4439 H 417.735 -3.86245 1.68502 0
M  V30 4440 H 416.41 -3.15587 0.720197 0
M  V30 4441 H 415.317 -2.36518 2.89845 0
M  V30 4442 H 416.65 -3.12707 3.80099 0
M  V30 4443 N 418.302 -1.35869 -0.798587 0
M  V30 4444 C 419.234 -1.25305 -1.91915 0
M  V30 4445 C 420.247 -0.174548 -1.61862 0
M  V30 4446 O 421.436 -0.428499 -1.73281 0
M  V30 4447 C 418.536 -0.9086 -3.26493 0
M  V30 4448 C 417.709 -2.08711 -3.84394 0
M  V30 4449 C 416.768 -1.71717 -4.97393 0
M  V30 4450 O 415.794 -2.43692 -5.14396 0
M  V30 4451 N 416.996 -0.645473 -5.769 0
M  V30 4452 H 419.761 -2.21849 -2.01502 0
M  V30 4453 H 417.322 -1.29143 -0.976408 0
M  V30 4454 H 419.314 -0.642455 -3.99568 0
M  V30 4455 H 417.884 -0.0325815 -3.12583 0
M  V30 4456 H 417.104 -2.51659 -3.03416 0
M  V30 4457 H 418.392 -2.87468 -4.19809 0
M  V30 4458 H 417.79 -0.047648 -5.6568 0
M  V30 4459 H 416.347 -0.43913 -6.50319 0
M  V30 4460 N 419.78 1.02168 -1.19998 0
M  V30 4461 C 421.027 1.75685 -1.00702 0
M  V30 4462 C 421.355 1.88947 0.461426 0
M  V30 4463 O 420.61 1.40832 1.35885 0
M  V30 4464 C 420.909 3.18081 -1.62969 0
M  V30 4465 C 420.575 3.24809 -3.12746 0
M  V30 4466 C 419.237 3.26352 -3.53621 0
M  V30 4467 C 421.589 3.23379 -4.08749 0
M  V30 4468 C 418.917 3.2413 -4.89036 0
M  V30 4469 C 421.269 3.22698 -5.44104 0
M  V30 4470 C 419.933 3.22542 -5.84399 0
M  V30 4471 H 419.203 0.642877 -0.368496 0
M  V30 4472 H 421.85 1.19865 -1.49348 0
M  V30 4473 H 420.155 3.77027 -1.06573 0
M  V30 4474 H 421.852 3.73648 -1.45561 0
M  V30 4475 H 418.442 3.2434 -2.80181 0
M  V30 4476 H 422.626 3.21361 -3.78207 0
M  V30 4477 H 417.882 3.22338 -5.19527 0
M  V30 4478 H 422.056 3.20543 -6.18244 0
M  V30 4479 H 419.683 3.20575 -6.89301 0
M  V30 4480 N 421.258 1.00505 1.21394 0
M  V30 4481 C 422.191 0.51032 2.22421 0
M  V30 4482 C 423.169 -0.436 1.56645 0
M  V30 4483 O 424.353 -0.358709 1.85055 0
M  V30 4484 C 421.48 -0.258733 3.3771 0
M  V30 4485 C 420.526 0.635395 4.2174 0
M  V30 4486 S 421.359 2.09783 4.92698 0
M  V30 4487 C 422.515 1.33862 6.11418 0
M  V30 4488 H 422.748 1.36637 2.64041 0
M  V30 4489 H 420.281 0.812991 1.31262 0
M  V30 4490 H 422.239 -0.696372 4.0455 0
M  V30 4491 H 420.9 -1.0902 2.94573 0
M  V30 4492 H 420.093 0.0430189 5.03982 0
M  V30 4493 H 419.695 1.01031 3.60095 0
M  V30 4494 H 421.987 0.612541 6.74725 0
M  V30 4495 H 422.93 2.13675 6.75092 0
M  V30 4496 H 423.338 0.846568 5.58116 0
M  V30 4497 N 422.737 -1.36956 0.779787 0
M  V30 4498 C 423.684 -2.30175 0.169697 0
M  V30 4499 C 424.654 -1.51501 -0.68094 0
M  V30 4500 O 425.839 -1.80042 -0.631629 0
M  V30 4501 C 422.979 -3.37985 -0.697131 0
M  V30 4502 C 422.092 -4.31661 0.170992 0
M  V30 4503 C 421.227 -5.2655 -0.701298 0
M  V30 4504 C 420.266 -6.11867 0.168869 0
M  V30 4505 N 419.403 -6.98973 -0.661855 0
M  V30 4506 H 424.243 -2.81767 0.970135 0
M  V30 4507 H 421.78 -1.38699 0.489994 0
M  V30 4508 H 423.738 -3.99128 -1.2146 0
M  V30 4509 H 422.368 -2.87739 -1.46309 0
M  V30 4510 H 421.42 -3.71756 0.80634 0
M  V30 4511 H 422.732 -4.91644 0.841875 0
M  V30 4512 H 421.886 -5.92937 -1.28494 0
M  V30 4513 H 420.625 -4.66998 -1.40584 0
M  V30 4514 H 419.63 -5.44452 0.764986 0
M  V30 4515 H 420.855 -6.73493 0.870863 0
M  V30 4516 H 418.801 -6.41941 -1.35086 0
M  V30 4517 H 418.718 -7.55984 -0.0484447 0
M  V30 4518 H 419.986 -7.6974 -1.22963 0
M  V30 4519 N 424.215 -0.530993 -1.48385 0
M  V30 4520 C 425.464 0.00474348 -2.01699 0
M  V30 4521 C 425.777 1.35227 -1.41325 0
M  V30 4522 O 426.983 1.97643 -1.86144 0
M  V30 4523 C 425.439 0.0588473 -3.59852 0
M  V30 4524 C 425.047 -1.28385 -4.2921 0
M  V30 4525 C 426.791 0.543358 -4.21008 0
M  V30 4526 C 424.698 -1.19028 -5.79298 0
M  V30 4527 H 423.628 0.00554317 -0.75398 0
M  V30 4528 H 426.279 -0.674924 -1.70637 0
M  V30 4529 H 424.661 0.803612 -3.8776 0
M  V30 4530 H 425.835 -2.04426 -4.12973 0
M  V30 4531 H 424.15 -1.70418 -3.7993 0
M  V30 4532 H 426.747 0.631351 -5.3096 0
M  V30 4533 H 427.09 1.54937 -3.86394 0
M  V30 4534 H 427.623 -0.145754 -3.97533 0
M  V30 4535 H 424.362 -2.17147 -6.18488 0
M  V30 4536 H 423.882 -0.471246 -5.97946 0
M  V30 4537 H 425.561 -0.881365 -6.40969 0
M  V30 4538 N 425.693 1.55336 -0.266172 0
M  V30 4539 C 426.623 2.25146 0.618981 0
M  V30 4540 C 427.604 1.23845 1.16604 0
M  V30 4541 O 428.789 1.52544 1.20183 0
M  V30 4542 C 425.919 2.96572 1.80728 0
M  V30 4543 C 424.873 4.04726 1.39215 0
M  V30 4544 C 424.199 4.63678 2.66283 0
M  V30 4545 C 425.499 5.19407 0.548942 0
M  V30 4546 H 427.193 2.99377 0.0368116 0
M  V30 4547 H 424.739 1.43991 0.0162651 0
M  V30 4548 H 426.692 3.44116 2.43232 0
M  V30 4549 H 425.416 2.19861 2.41514 0
M  V30 4550 H 424.075 3.57979 0.790351 0
M  V30 4551 H 423.723 3.83646 3.25308 0
M  V30 4552 H 423.423 5.367 2.39222 0
M  V30 4553 H 424.947 5.13967 3.29651 0
M  V30 4554 H 426.361 5.63059 1.07876 0
M  V30 4555 H 424.758 5.98936 0.373593 0
M  V30 4556 H 425.828 4.8295 -0.434394 0
M  V30 4557 N 427.171 -0.0066808 1.57599 0
M  V30 4558 C 428.081 -1.01671 2.11424 0
M  V30 4559 C 429.097 -1.38143 1.05795 0
M  V30 4560 O 430.273 -1.47011 1.37658 0
M  V30 4561 C 427.338 -2.29192 2.60139 0
M  V30 4562 C 426.399 -1.99094 3.80342 0
M  V30 4563 C 425.632 -3.20535 4.26724 0
M  V30 4564 O 425.855 -4.3199 3.72479 0
M  V30 4565 O 424.789 -3.04924 5.18946 0
M  V30 4566 H 428.615 -0.589181 2.9793 0
M  V30 4567 H 426.2 -0.225091 1.47695 0
M  V30 4568 H 428.082 -3.0412 2.917 0
M  V30 4569 H 426.757 -2.71195 1.76733 0
M  V30 4570 H 425.664 -1.21663 3.53764 0
M  V30 4571 H 426.997 -1.61931 4.648 0
M  V30 4572 N 428.649 -1.55105 -0.279332 0
M  V30 4573 C 429.559 -1.90638 -1.36727 0
M  V30 4574 C 430.575 -0.802899 -1.54368 0
M  V30 4575 O 431.751 -1.10138 -1.68616 0
M  V30 4576 C 428.816 -2.16547 -2.70755 0
M  V30 4577 C 427.877 -3.40146 -2.61915 0
M  V30 4578 C 427.11 -3.6481 -3.8955 0
M  V30 4579 O 427.333 -2.92095 -4.89935 0
M  V30 4580 O 426.267 -4.58343 -3.90135 0
M  V30 4581 H 430.093 -2.83237 -1.09591 0
M  V30 4582 H 427.678 -1.4157 -0.477306 0
M  V30 4583 H 429.56 -2.34665 -3.50014 0
M  V30 4584 H 428.235 -1.27131 -2.9769 0
M  V30 4585 H 427.142 -3.2737 -1.81052 0
M  V30 4586 H 428.475 -4.29761 -2.3993 0
M  V30 4587 N 430.127 0.543554 -1.4793 0
M  V30 4588 C 431.376 1.29649 -1.54512 0
M  V30 4589 C 431.689 1.94382 -0.217973 0
M  V30 4590 O 432.895 2.71017 -0.161908 0
M  V30 4591 C 431.351 2.35175 -2.72435 0
M  V30 4592 C 430.959 1.76572 -4.11736 0
M  V30 4593 C 432.703 3.11564 -2.8832 0
M  V30 4594 C 430.61 2.79958 -5.20939 0
M  V30 4595 H 429.54 0.487541 -0.57517 0
M  V30 4596 H 432.191 0.575708 -1.74235 0
M  V30 4597 H 430.573 3.10229 -2.46118 0
M  V30 4598 H 431.747 1.07799 -4.48013 0
M  V30 4599 H 430.062 1.12722 -4.00852 0
M  V30 4600 H 432.659 3.88794 -3.67074 0
M  V30 4601 H 433.002 3.66594 -1.97268 0
M  V30 4602 H 433.535 2.43623 -3.14472 0
M  V30 4603 H 430.274 2.29766 -6.13912 0
M  V30 4604 H 429.794 3.47101 -4.89164 0
M  V30 4605 H 431.473 3.43198 -5.48474 0
M  V30 4606 N 431.605 1.3629 0.791371 0
M  V30 4607 C 432.882 1.20962 1.53712 0
M  V30 4608 C 433.262 -0.205021 2.10102 0
M  V30 4609 O 432.61 -1.21042 1.93807 0
M  V30 4610 C 432.82 2.29002 2.63361 0
M  V30 4611 C 434.168 2.65572 3.31295 0
M  V30 4612 O 435.192 2.2803 2.73643 0
M  V30 4613 O 434.051 3.3018 4.35481 0
M  V30 4614 H 431.145 0.47086 0.679867 0
M  V30 4615 H 433.691 1.48016 0.830021 0
M  V30 4616 H 432.463 3.2382 2.19674 0
M  V30 4617 H 432.086 2.03303 3.41692 0
M  V30 4618 N 433.083 -1.0153 1.20538 0
M  V30 4619 C 434.311 -1.78746 1.04199 0
M  V30 4620 C 434.726 -1.84323 -0.408733 0
M  V30 4621 O 434.083 -1.29714 -1.28377 0
M  V30 4622 C 434.134 -3.23152 1.62035 0
M  V30 4623 O 433.855 -3.17918 3.0143 0
M  V30 4624 C 435.356 -4.16911 1.50666 0
M  V30 4625 H 432.576 -0.56208 0.366479 0
M  V30 4626 H 435.12 -1.27794 1.59653 0
M  V30 4627 H 433.275 -3.71248 1.10697 0
M  V30 4628 H 433.689 -4.08567 3.28897 0
M  V30 4629 H 435.163 -5.16072 1.95892 0
M  V30 4630 H 435.64 -4.36791 0.459363 0
M  V30 4631 H 436.246 -3.74698 2.01201 0
M  V30 4632 N 434.561 -1.01147 -1.20859 0
M  V30 4633 C 435.491 -0.597663 -2.25722 0
M  V30 4634 C 436.472 0.384744 -1.65692 0
M  V30 4635 O 437.657 0.271303 -1.92296 0
M  V30 4636 C 434.787 0.0700149 -3.47229 0
M  V30 4637 C 433.741 -0.832843 -4.19819 0
M  V30 4638 C 433.067 -0.0312202 -5.34691 0
M  V30 4639 C 434.367 -2.1385 -4.76514 0
M  V30 4640 H 436.061 -1.47423 -2.60589 0
M  V30 4641 H 433.607 -0.710301 -1.25263 0
M  V30 4642 H 435.56 0.37103 -4.19763 0
M  V30 4643 H 434.284 0.981259 -3.11511 0
M  V30 4644 H 432.943 -1.11778 -3.49144 0
M  V30 4645 H 432.591 0.881515 -4.95215 0
M  V30 4646 H 432.291 -0.632434 -5.84187 0
M  V30 4647 H 433.815 0.26346 -6.10031 0
M  V30 4648 H 435.229 -1.9002 -5.40893 0
M  V30 4649 H 433.626 -2.69012 -5.36426 0
M  V30 4650 H 434.696 -2.80495 -3.95538 0
M  V30 4651 N 436.039 1.36541 -0.78704 0
M  V30 4652 C 437.288 1.98552 -0.35494 0
M  V30 4653 C 437.601 1.63171 1.07864 0
M  V30 4654 O 438.807 2.18399 1.61289 0
M  V30 4655 C 437.263 3.55136 -0.583671 0
M  V30 4656 C 436.871 3.99444 -2.02851 0
M  V30 4657 C 438.615 4.2395 -0.215957 0
M  V30 4658 C 436.522 5.48796 -2.20403 0
M  V30 4659 H 435.452 0.742888 -0.128972 0
M  V30 4660 H 438.103 1.5587 -0.968337 0
M  V30 4661 H 436.485 3.95875 0.0994046 0
M  V30 4662 H 437.659 3.6991 -2.74779 0
M  V30 4663 H 435.974 3.43459 -2.35425 0
M  V30 4664 H 438.571 5.33709 -0.325405 0
M  V30 4665 H 438.914 4.07827 0.835646 0
M  V30 4666 H 439.447 3.88565 -0.852175 0
M  V30 4667 H 436.186 5.69864 -3.23937 0
M  V30 4668 H 435.706 5.79964 -1.52977 0
M  V30 4669 H 437.385 6.14986 -2.01002 0
M  V30 4670 N 437.518 0.538854 1.48102 0
M  V30 4671 C 438.448 -0.207654 2.32575 0
M  V30 4672 C 439.429 -0.926559 1.4265 0
M  V30 4673 O 440.614 -0.91061 1.71527 0
M  V30 4674 C 437.744 -1.24957 3.24042 0
M  V30 4675 C 436.698 -0.648263 4.23062 0
M  V30 4676 C 436.024 -1.79348 5.03725 0
M  V30 4677 C 437.324 0.385897 5.20872 0
M  V30 4678 H 439.018 0.497534 2.95237 0
M  V30 4679 H 436.564 0.240715 1.41974 0
M  V30 4680 H 438.517 -1.77983 3.81969 0
M  V30 4681 H 437.241 -1.98446 2.59397 0
M  V30 4682 H 435.9 -0.139452 3.66335 0
M  V30 4683 H 435.548 -2.51696 4.35498 0
M  V30 4684 H 435.248 -1.39702 5.70751 0
M  V30 4685 H 436.772 -2.32735 5.64506 0
M  V30 4686 H 438.186 -0.057607 5.73271 0
M  V30 4687 H 436.583 0.700227 5.96001 0
M  V30 4688 H 437.653 1.28848 4.67468 0
M  V30 4689 N 438.996 -1.55193 0.274407 0
M  V30 4690 C 440.407 -1.85358 -0.223488 0
M  V30 4691 C 440.758 -1.19642 -1.555 0
M  V30 4692 O 439.883 -0.484498 -2.10907 0
M  V30 4693 C 440.478 -3.36282 -0.412285 0
M  V30 4694 C 439.037 -3.66574 -0.854413 0
M  V30 4695 C 438.184 -2.7725 0.0527056 0
M  V30 4696 H 441.135 -1.50743 0.496215 0
M  V30 4697 H 441.156 -3.59349 -1.25094 0
M  V30 4698 H 440.668 -3.84083 0.556965 0
M  V30 4699 H 438.769 -3.24273 -1.83516 0
M  V30 4700 H 438.882 -4.74073 -0.692226 0
M  V30 4701 H 437.246 -2.50447 -0.463484 0
M  V30 4702 H 438.029 -3.27865 1.01783 0
M  V30 4703 N 440.474 -0.00167713 -1.576 0
M  V30 4704 C 441.384 1.00548 -2.1196 0
M  V30 4705 C 442.4 1.3758 -1.06526 0
M  V30 4706 O 443.576 1.46278 -1.38436 0
M  V30 4707 C 440.641 2.27809 -2.6135 0
M  V30 4708 C 439.702 1.97074 -3.81393 0
M  V30 4709 C 438.935 3.18267 -4.28417 0
M  V30 4710 O 439.158 4.30009 -3.74765 0
M  V30 4711 O 438.092 3.02167 -5.20556 0
M  V30 4712 H 441.918 0.573373 -2.98238 0
M  V30 4713 H 439.503 0.217255 -1.47812 0
M  V30 4714 H 441.385 3.02568 -2.93309 0
M  V30 4715 H 440.06 2.70254 -1.78169 0
M  V30 4716 H 438.967 1.19785 -3.54404 0
M  V30 4717 H 440.3 1.59464 -4.65652 0
M  V30 4718 N 441.952 1.55251 0.271103 0
M  V30 4719 C 442.9 1.89054 1.35504 0
M  V30 4720 C 443.894 0.767064 1.51038 0
M  V30 4721 O 445.1 0.951429 1.528 0
M  V30 4722 H 441.475 0.600072 0.45323 0
M  V30 4723 H 443.446 2.79598 1.04247 0
M  V30 4724 C 442.195 2.18068 2.70817 0
M  V30 4725 H 441.518 3.04005 2.59656 0
M  V30 4726 H 442.958 2.4564 3.45597 0
M  V30 4727 C 441.417 0.988901 3.2206 0
M  V30 4728 O 441.947 0.224501 4.01072 0
M  V30 4729 N 440.153 0.786085 2.79766 0
M  V30 4730 H 439.7 1.40937 2.15626 0
M  V30 4731 H 439.658 -0.00969349 3.14399 0
M  V30 4732 N 443.43 -0.535701 1.48216 0
M  V30 4733 C 444.677 -1.29183 1.55942 0
M  V30 4734 C 445.005 -1.93125 0.230857 0
M  V30 4735 O 444.26 -1.79556 -0.778331 0
M  V30 4736 C 444.559 -2.4068 2.64212 0
M  V30 4737 C 444.225 -1.94428 4.06827 0
M  V30 4738 C 442.887 -1.81532 4.45645 0
M  V30 4739 C 445.239 -1.59405 4.96225 0
M  V30 4740 C 442.567 -1.31939 5.71672 0
M  V30 4741 C 444.919 -1.11276 6.22736 0
M  V30 4742 C 443.583 -0.969924 6.60416 0
M  V30 4743 H 442.853 -0.472715 0.570632 0
M  V30 4744 H 445.5 -0.598437 1.81909 0
M  V30 4745 H 443.805 -3.15666 2.32083 0
M  V30 4746 H 445.502 -2.98822 2.67407 0
M  V30 4747 H 442.092 -2.05415 3.76168 0
M  V30 4748 H 446.276 -1.68231 4.66917 0
M  V30 4749 H 441.532 -1.19562 5.99596 0
M  V30 4750 H 445.706 -0.832453 6.91407 0
M  V30 4751 H 443.333 -0.583436 7.57958 0
M  V30 4752 N 444.908 -1.36708 -0.784132 0
M  V30 4753 C 445.855 -1.31466 -1.89698 0
M  V30 4754 C 446.825 -0.18239 -1.65096 0
M  V30 4755 O 448.01 -0.369762 -1.87183 0
M  V30 4756 C 445.15 -1.1151 -3.26588 0
M  V30 4757 C 444.263 -2.33859 -3.63227 0
M  V30 4758 C 443.398 -2.06873 -4.89262 0
M  V30 4759 C 442.437 -3.25154 -5.18595 0
M  V30 4760 N 441.574 -2.978 -6.35814 0
M  V30 4761 H 446.414 -2.26619 -1.93515 0
M  V30 4762 H 443.951 -1.12625 -0.946256 0
M  V30 4763 H 445.909 -0.979653 -4.05535 0
M  V30 4764 H 444.539 -0.200103 -3.22179 0
M  V30 4765 H 443.591 -2.58188 -2.79362 0
M  V30 4766 H 444.903 -3.22109 -3.8085 0
M  V30 4767 H 444.057 -1.90289 -5.76086 0
M  V30 4768 H 442.796 -1.15942 -4.73718 0
M  V30 4769 H 441.801 -3.42292 -4.30251 0
M  V30 4770 H 443.026 -4.1692 -5.36055 0
M  V30 4771 H 440.972 -2.09485 -6.21653 0
M  V30 4772 H 440.889 -3.7959 -6.53794 0
M  V30 4773 H 442.157 -2.84805 -7.25607 0
M  V30 4774 N 446.386 1.0089 -1.21074 0
M  V30 4775 C 447.663 1.71834 -0.934469 0
M  V30 4776 C 448.043 2.0368 0.554753 0
M  V30 4777 O 447.391 1.70742 1.51854 0
M  V30 4778 C 447.601 2.98061 -1.8155 0
M  V30 4779 C 448.949 3.7117 -2.06199 0
M  V30 4780 O 449.973 3.08034 -1.78867 0
M  V30 4781 O 448.832 4.84721 -2.52404 0
M  V30 4782 H 445.926 0.749253 -0.35007 0
M  V30 4783 H 448.472 1.06668 -1.31985 0
M  V30 4784 H 447.244 2.70908 -2.82355 0
M  V30 4785 H 446.867 3.70968 -1.43068 0
M  V30 4786 N 447.864 1.01787 1.20321 0
M  V30 4787 C 449.089 0.727009 1.9424 0
M  V30 4788 C 449.514 -0.706179 1.74341 0
M  V30 4789 O 448.872 -1.48609 1.03852 0
M  V30 4790 C 448.92 1.06958 3.44372 0
M  V30 4791 O 448.024 0.181983 4.11998 0
M  V30 4792 H 447.365 0.269626 0.606793 0
M  V30 4793 H 449.895 1.36158 1.52716 0
M  V30 4794 H 449.905 1.02182 3.94997 0
M  V30 4795 H 448.58 2.11378 3.58179 0
M  V30 4796 H 447.157 0.287378 3.71791 0
M  V30 4797 N 449.342 -1.36122 0.79427 0
M  V30 4798 C 450.758 -1.5232 0.476525 0
M  V30 4799 C 450.958 -1.74685 -1.00436 0
M  V30 4800 O 450.014 -1.78115 -1.78973 0
M  V30 4801 C 451.327 -2.70607 1.31119 0
M  V30 4802 C 452.875 -2.8448 1.30537 0
M  V30 4803 C 453.35 -4.05778 2.12387 0
M  V30 4804 N 454.841 -4.12933 2.09859 0
M  V30 4805 C 455.576 -5.05876 2.69957 0
M  V30 4806 N 455.072 -6.04232 3.38934 0
M  V30 4807 N 456.865 -4.98528 2.59665 0
M  V30 4808 H 449.016 -1.1986 1.75349 0
M  V30 4809 H 451.279 -0.585418 0.745647 0
M  V30 4810 H 450.985 -2.60619 2.36158 0
M  V30 4811 H 450.859 -3.64888 0.955843 0
M  V30 4812 H 453.246 -2.93927 0.262876 0
M  V30 4813 H 453.327 -1.91093 1.70051 0
M  V30 4814 H 452.971 -3.97092 3.1667 0
M  V30 4815 H 452.901 -4.98323 1.70242 0
M  V30 4816 H 455.392 -3.42515 1.59662 0
M  V30 4817 H 455.705 -6.71724 3.82109 0
M  V30 4818 H 454.05 -6.04443 3.43036 0
M  V30 4819 H 457.241 -4.20641 2.05375 0
M  V30 4820 H 457.414 -5.70773 3.06793 0
M  V30 4821 N 450.82 -0.546701 -1.47814 0
M  V30 4822 C 451.75 0.195317 -2.32682 0
M  V30 4823 C 452.731 0.918981 -1.43139 0
M  V30 4824 O 453.916 0.901501 -1.72008 0
M  V30 4825 C 451.046 1.23237 -3.247 0
M  V30 4826 C 450 0.625818 -4.234 0
M  V30 4827 C 449.326 1.76674 -5.04669 0
M  V30 4828 C 450.626 -0.413515 -5.2066 0
M  V30 4829 H 452.32 -0.513184 -2.94969 0
M  V30 4830 H 449.866 -0.248241 -1.41844 0
M  V30 4831 H 451.819 1.75955 -3.82907 0
M  V30 4832 H 450.543 1.97067 -2.60446 0
M  V30 4833 H 449.202 0.120023 -3.66403 0
M  V30 4834 H 448.85 2.49383 -4.36826 0
M  V30 4835 H 448.55 1.36673 -5.71484 0
M  V30 4836 H 450.074 2.29738 -5.65732 0
M  V30 4837 H 451.488 0.0272042 -5.73294 0
M  V30 4838 H 449.885 -0.731825 -5.95621 0
M  V30 4839 H 450.955 -1.31325 -4.66778 0
M  V30 4840 N 452.299 1.55045 -0.282633 0
M  V30 4841 C 453.246 2.22822 0.601566 0
M  V30 4842 C 454.216 1.20431 1.14392 0
M  V30 4843 O 455.401 1.48996 1.19184 0
M  V30 4844 C 452.541 2.95873 1.77632 0
M  V30 4845 C 451.654 4.12999 1.26711 0
M  V30 4846 C 450.789 4.73676 2.40426 0
M  V30 4847 C 449.828 5.82981 1.86545 0
M  V30 4848 N 448.965 6.3769 2.93762 0
M  V30 4849 H 453.805 2.97995 0.0169528 0
M  V30 4850 H 451.342 1.471 -0.00339964 0
M  V30 4851 H 453.3 3.36447 2.46697 0
M  V30 4852 H 451.93 2.2311 2.33285 0
M  V30 4853 H 450.982 3.77494 0.469314 0
M  V30 4854 H 452.294 4.91803 0.832518 0
M  V30 4855 H 451.448 5.17008 3.17471 0
M  V30 4856 H 450.187 3.94164 2.87203 0
M  V30 4857 H 449.192 5.39092 1.07983 0
M  V30 4858 H 450.417 6.64366 1.40694 0
M  V30 4859 H 448.363 5.61069 3.39908 0
M  V30 4860 H 448.28 7.11788 2.54744 0
M  V30 4861 H 449.548 6.8568 3.7076 0
M  V30 4862 N 453.777 0.010035 1.57597 0
M  V30 4863 C 455.193 -0.346164 1.55801 0
M  V30 4864 C 455.393 -1.74144 1.01371 0
M  V30 4865 O 454.449 -2.43938 0.651968 0
M  V30 4866 C 455.762 -0.212216 2.9995 0
M  V30 4867 C 457.31 -0.286409 3.11687 0
M  V30 4868 C 457.785 -0.18147 4.5764 0
M  V30 4869 N 459.276 -0.239056 4.62583 0
M  V30 4870 C 460.011 -0.181351 5.73113 0
M  V30 4871 N 459.507 -0.073661 6.92761 0
M  V30 4872 N 461.3 -0.233949 5.61613 0
M  V30 4873 H 453.451 0.922657 1.91313 0
M  V30 4874 H 455.714 0.354595 0.879185 0
M  V30 4875 H 455.42 0.748169 3.4365 0
M  V30 4876 H 455.294 -0.990224 3.6397 0
M  V30 4877 H 457.681 -1.23724 2.67911 0
M  V30 4878 H 457.762 0.521645 2.50425 0
M  V30 4879 H 457.406 0.765863 5.02093 0
M  V30 4880 H 457.336 -1.00814 5.1686 0
M  V30 4881 H 459.827 -0.32321 3.76515 0
M  V30 4882 H 460.14 -0.0358003 7.72792 0
M  V30 4883 H 458.485 -0.0391461 6.94989 0
M  V30 4884 H 461.676 -0.316347 4.6703 0
M  V30 4885 H 461.849 -0.185514 6.47734 0
M  V30 4886 N 455.255 -1.55392 -0.262866 0
M  V30 4887 C 456.202 -1.88966 -1.32516 0
M  V30 4888 C 457.172 -0.742187 -1.48596 0
M  V30 4889 O 458.357 -0.99439 -1.62839 0
M  V30 4890 C 455.497 -2.17592 -2.67858 0
M  V30 4891 C 454.61 -3.45061 -2.59917 0
M  V30 4892 C 453.745 -3.63336 -3.87505 0
M  V30 4893 C 452.784 -4.84462 -3.74116 0
M  V30 4894 N 451.921 -4.99342 -4.93561 0
M  V30 4895 H 456.761 -2.79566 -1.03184 0
M  V30 4896 H 454.298 -1.38404 -0.498285 0
M  V30 4897 H 456.256 -2.3219 -3.46617 0
M  V30 4898 H 454.886 -1.30215 -2.95371 0
M  V30 4899 H 453.938 -3.38881 -1.72812 0
M  V30 4900 H 455.25 -4.3396 -2.45926 0
M  V30 4901 H 454.404 -3.77807 -4.74707 0
M  V30 4902 H 453.143 -2.72641 -4.04374 0
M  V30 4903 H 452.148 -4.69985 -2.85297 0
M  V30 4904 H 453.373 -5.76603 -3.58757 0
M  V30 4905 H 451.319 -4.1158 -5.10821 0
M  V30 4906 H 451.236 -5.82303 -4.82141 0
M  V30 4907 H 452.504 -5.18208 -5.82306 0
M  V30 4908 N 456.733 0.527833 -1.48498 0
M  V30 4909 C 457.981 1.28101 -1.56316 0
M  V30 4910 C 458.302 1.9352 -0.239781 0
M  V30 4911 O 457.572 1.81433 0.738849 0
M  V30 4912 H 456.152 0.475793 -0.575873 0
M  V30 4913 H 458.814 0.614052 -1.84974 0
M  V30 4914 H 457.91 2.05916 -2.34532 0
M  V30 4915 N 458.211 1.37122 0.776871 0
M  V30 4916 C 459.141 1.35164 1.90402 0
M  V30 4917 C 460.122 0.221069 1.68657 0
M  V30 4918 O 461.307 0.420642 1.8959 0
M  V30 4919 C 458.437 1.15274 3.27611 0
M  V30 4920 C 457.391 2.25289 3.63908 0
M  V30 4921 C 456.717 1.90527 4.99603 0
M  V30 4922 C 458.017 3.67446 3.71188 0
M  V30 4923 H 459.711 2.29482 1.92297 0
M  V30 4924 H 457.257 1.10465 0.923773 0
M  V30 4925 H 459.21 1.12536 4.06096 0
M  V30 4926 H 457.934 0.174102 3.26136 0
M  V30 4927 H 456.593 2.27174 2.87728 0
M  V30 4928 H 456.241 0.91206 4.94662 0
M  V30 4929 H 455.941 2.64193 5.24858 0
M  V30 4930 H 457.465 1.89367 5.80493 0
M  V30 4931 H 458.879 3.67719 4.39836 0
M  V30 4932 H 457.276 4.40123 4.07936 0
M  V30 4933 H 458.346 4.01443 2.71977 0
M  V30 4934 N 459.689 -1.00246 1.21608 0
M  V30 4935 C 460.935 -1.74319 1.03638 0
M  V30 4936 C 461.268 -1.89408 -0.428749 0
M  V30 4937 O 460.543 -1.43026 -1.3181 0
M  V30 4938 C 460.826 -3.15431 1.73711 0
M  V30 4939 C 460.679 -3.08049 3.27759 0
M  V30 4940 C 461.998 -4.14407 1.48173 0
M  V30 4941 H 459.117 -0.632741 0.377899 0
M  V30 4942 H 461.759 -1.16853 1.49818 0
M  V30 4943 H 459.909 -3.64493 1.34452 0
M  V30 4944 H 461.581 -2.66681 3.76403 0
M  V30 4945 H 459.824 -2.45088 3.57931 0
M  V30 4946 H 460.495 -4.07862 3.71958 0
M  V30 4947 H 462.971 -3.74061 1.82258 0
M  V30 4948 H 461.847 -5.11279 1.99713 0
M  V30 4949 H 462.108 -4.40174 0.412273 0
M  V30 4950 N 461.167 -1.02423 -1.1978 0
M  V30 4951 C 462.114 -0.601023 -2.22837 0
M  V30 4952 C 463.084 0.382801 -1.61629 0
M  V30 4953 O 464.269 0.280514 -1.88727 0
M  V30 4954 C 461.409 0.0467755 -3.45068 0
M  V30 4955 C 460.522 -0.98253 -4.20678 0
M  V30 4956 C 459.657 -0.304982 -5.30324 0
M  V30 4957 C 458.696 -1.32052 -5.97686 0
M  V30 4958 N 457.833 -0.669105 -6.98904 0
M  V30 4959 H 462.673 -1.48444 -2.58396 0
M  V30 4960 H 460.21 -0.742936 -1.2696 0
M  V30 4961 H 462.168 0.439556 -4.14878 0
M  V30 4962 H 460.798 0.893796 -3.10179 0
M  V30 4963 H 459.85 -1.49341 -3.49859 0
M  V30 4964 H 461.162 -1.75455 -4.66923 0
M  V30 4965 H 460.316 0.142893 -6.06532 0
M  V30 4966 H 459.055 0.499283 -4.85138 0
M  V30 4967 H 458.06 -1.7787 -5.20233 0
M  V30 4968 H 459.285 -2.1262 -6.44957 0
M  V30 4969 H 457.231 0.115152 -6.55899 0
M  V30 4970 H 457.148 -1.37908 -7.43315 0
M  V30 4971 H 458.416 -0.245076 -7.79115 0
M  V30 4972 N 462.645 1.35699 -0.801477 0
M  V30 4973 C 463.592 2.29876 -0.206294 0
M  V30 4974 C 464.562 1.52565 0.656752 0
M  V30 4975 O 465.747 1.81024 0.602906 0
M  V30 4976 C 462.887 3.39052 0.643272 0
M  V30 4977 C 462 4.31335 -0.239644 0
M  V30 4978 C 461.135 5.27599 0.61744 0
M  V30 4979 C 460.174 6.11521 -0.26619 0
M  V30 4980 N 459.311 6.99938 0.550571 0
M  V30 4981 H 464.151 2.80187 -1.01484 0
M  V30 4982 H 461.688 1.37902 -0.511997 0
M  V30 4983 H 463.646 4.0101 1.15094 0
M  V30 4984 H 462.276 2.9003 1.41713 0
M  V30 4985 H 461.328 3.70426 -0.865381 0
M  V30 4986 H 462.64 4.90243 -0.919985 0
M  V30 4987 H 461.794 5.94906 1.19045 0
M  V30 4988 H 460.533 4.69176 1.33137 0
M  V30 4989 H 459.538 5.43166 -0.851507 0
M  V30 4990 H 460.763 6.72022 -0.9779 0
M  V30 4991 H 458.709 6.44008 1.24856 0
M  V30 4992 H 458.626 7.55966 -0.071832 0
M  V30 4993 H 459.894 7.71599 1.10702 0
M  V30 4994 N 464.123 0.554532 1.47522 0
M  V30 4995 C 465.369 0.0295227 2.02779 0
M  V30 4996 C 465.702 -1.31582 1.42828 0
M  V30 4997 O 464.977 -1.85561 0.582872 0
M  V30 4998 C 465.26 -0.0664057 3.60039 0
M  V30 4999 C 465.113 1.30585 4.30427 0
M  V30 5000 C 466.432 -0.781162 4.33112 0
M  V30 5001 H 463.551 0.0122027 0.736899 0
M  V30 5002 H 466.193 0.716305 1.7598 0
M  V30 5003 H 464.343 -0.651307 3.83002 0
M  V30 5004 H 466.015 1.93374 4.18813 0
M  V30 5005 H 464.258 1.88125 3.90886 0
M  V30 5006 H 464.929 1.19147 5.38988 0
M  V30 5007 H 467.405 -0.284565 4.15126 0
M  V30 5008 H 466.281 -0.817237 5.42782 0
M  V30 5009 H 466.542 -1.83672 4.0214 0
M  V30 5010 N 465.601 -1.54893 0.290851 0
M  V30 5011 C 466.533 -2.20564 -0.623236 0
M  V30 5012 C 467.546 -1.19519 -1.1054 0
M  V30 5013 O 468.735 -1.46165 -1.02459 0
M  V30 5014 C 465.835 -2.83033 -1.86401 0
M  V30 5015 C 465.008 -4.09916 -1.52604 0
M  V30 5016 C 464.067 -4.56284 -2.62091 0
M  V30 5017 O 463.093 -5.2171 -2.27612 0
M  V30 5018 N 464.295 -4.27746 -3.92446 0
M  V30 5019 H 467.06 -2.99638 -0.0610915 0
M  V30 5020 H 464.621 -1.61508 0.112615 0
M  V30 5021 H 466.613 -3.1099 -2.58973 0
M  V30 5022 H 465.183 -2.0786 -2.33481 0
M  V30 5023 H 464.403 -3.89078 -0.633424 0
M  V30 5024 H 465.691 -4.92554 -1.27547 0
M  V30 5025 H 465.089 -3.7531 -4.23272 0
M  V30 5026 H 463.646 -4.60437 -4.61347 0
M  V30 5027 N 467.08 -0.0183926 -1.57589 0
M  V30 5028 C 468.043 0.951986 -2.08494 0
M  V30 5029 C 469.043 1.26092 -0.997874 0
M  V30 5030 O 470.233 1.20304 -1.25987 0
M  V30 5031 C 467.365 2.27165 -2.54182 0
M  V30 5032 H 468.558 0.511307 -2.95509 0
M  V30 5033 H 466.111 0.229444 -1.54607 0
M  V30 5034 H 466.846 2.75884 -1.70465 0
M  V30 5035 H 466.631 2.06057 -3.33591 0
M  V30 5036 H 468.121 2.9674 -2.93828 0
M  V30 5037 N 468.558 1.5553 0.254621 0
M  V30 5038 C 469.805 1.77 0.983736 0
M  V30 5039 C 470.133 0.58133 1.85609 0
M  V30 5040 O 469.388 -0.435621 1.9079 0
M  V30 5041 C 469.687 3.03891 1.88109 0
M  V30 5042 C 469.353 4.35597 1.16472 0
M  V30 5043 C 468.015 4.7139 0.966714 0
M  V30 5044 C 470.367 5.1705 0.656387 0
M  V30 5045 C 467.695 5.86176 0.247942 0
M  V30 5046 C 470.047 6.32581 -0.0488807 0
M  V30 5047 C 468.711 6.67 -0.258438 0
M  V30 5048 H 467.981 0.647688 0.359974 0
M  V30 5049 H 470.628 1.89802 0.254463 0
M  V30 5050 H 468.933 2.86068 2.67717 0
M  V30 5051 H 470.63 3.17701 2.44677 0
M  V30 5052 H 467.22 4.07475 1.32899 0
M  V30 5053 H 471.404 4.8986 0.796933 0
M  V30 5054 H 466.66 6.11354 0.075035 0
M  V30 5055 H 470.834 6.94942 -0.450444 0
M  V30 5056 H 468.461 7.55793 -0.817358 0
M  V30 5057 N 470.036 -0.519951 1.48776 0
M  V30 5058 C 470.966 -1.63253 1.66945 0
M  V30 5059 C 471.947 -1.62014 0.518224 0
M  V30 5060 O 473.132 -1.79053 0.751919 0
M  V30 5061 C 470.262 -3.0181 1.71836 0
M  V30 5062 C 469.216 -3.17911 2.8656 0
M  V30 5063 C 468.542 -4.5763 2.76548 0
M  V30 5064 C 469.842 -2.99729 4.27738 0
M  V30 5065 H 471.536 -1.48302 2.6009 0
M  V30 5066 H 469.082 -0.712026 1.25165 0
M  V30 5067 H 471.035 -3.79525 1.83135 0
M  V30 5068 H 469.759 -3.17806 0.752775 0
M  V30 5069 H 468.418 -2.42616 2.74833 0
M  V30 5070 H 468.066 -4.70476 1.77937 0
M  V30 5071 H 467.766 -4.69346 3.53536 0
M  V30 5072 H 469.29 -5.37431 2.89828 0
M  V30 5073 H 470.704 -3.67228 4.40246 0
M  V30 5074 H 469.101 -3.22932 5.05801 0
M  V30 5075 H 470.171 -1.96047 4.43502 0
M  V30 5076 N 471.514 -1.37532 -0.769588 0
M  V30 5077 C 472.477 -1.33292 -1.86456 0
M  V30 5078 C 473.477 -0.236537 -1.59051 0
M  V30 5079 O 474.667 -0.492511 -1.67093 0
M  V30 5080 C 471.799 -1.07118 -3.23633 0
M  V30 5081 H 472.992 -2.30692 -1.91628 0
M  V30 5082 H 470.545 -1.22593 -0.969572 0
M  V30 5083 H 471.28 -0.102578 -3.24138 0
M  V30 5084 H 471.065 -1.86479 -3.44917 0
M  V30 5085 H 472.555 -1.06806 -4.03711 0
M  V30 5086 N 472.992 0.995999 -1.22138 0
M  V30 5087 C 473.902 2.11985 -1.00496 0
M  V30 5088 C 474.918 1.7394 0.0457701 0
M  V30 5089 O 476.094 2.00868 -0.146273 0
M  V30 5090 C 473.159 3.41779 -0.582086 0
M  V30 5091 C 472.22 3.93943 -1.70608 0
M  V30 5092 C 471.453 5.17542 -1.30328 0
M  V30 5093 O 471.676 5.70114 -0.180743 0
M  V30 5094 O 470.61 5.63382 -2.11861 0
M  V30 5095 H 474.436 2.33123 -1.94647 0
M  V30 5096 H 472.021 1.10358 -1.00705 0
M  V30 5097 H 473.903 4.1989 -0.356467 0
M  V30 5098 H 472.578 3.22007 0.330592 0
M  V30 5099 H 471.485 3.17019 -1.98619 0
M  V30 5100 H 472.818 4.18141 -2.59651 0
M  V30 5101 N 474.47 1.03057 1.19235 0
M  V30 5102 C 475.71 0.736757 1.9066 0
M  V30 5103 C 476.074 -0.721521 1.77927 0
M  V30 5104 O 477.275 -1.12849 2.43964 0
M  V30 5105 C 475.546 1.17755 3.37444 0
M  V30 5106 S 477.105 1.00783 4.27069 0
M  V30 5107 H 473.923 0.268174 0.658486 0
M  V30 5108 H 476.525 1.32076 1.4414 0
M  V30 5109 H 475.229 2.23448 3.44237 0
M  V30 5110 H 474.76 0.586912 3.88997 0
M  V30 5111 H 476.775 -0.0806356 4.96134 0
M  V30 5112 N 475.948 -1.35272 0.808662 0
M  V30 5113 C 477.225 -1.93077 0.313181 0
M  V30 5114 C 477.605 -1.73847 -1.19752 0
M  V30 5115 O 476.953 -1.1087 -1.998 0
M  V30 5116 C 477.163 -3.41347 0.726859 0
M  V30 5117 C 478.511 -4.18493 0.717532 0
M  V30 5118 O 479.535 -3.4987 0.668535 0
M  V30 5119 O 478.394 -5.40937 0.777779 0
M  V30 5120 H 475.488 -0.822885 0.0824018 0
M  V30 5121 H 478.034 -1.44335 0.892499 0
M  V30 5122 H 476.806 -3.49082 1.76797 0
M  V30 5123 H 476.429 -3.97411 0.122461 0
M  V30 5124 N 477.426 -0.562348 -1.47226 0
M  V30 5125 C 478.654 -0.0452275 -2.06851 0
M  V30 5126 C 479.069 1.25078 -1.41424 0
M  V30 5127 O 478.426 1.75156 -0.512513 0
M  V30 5128 C 478.477 0.148674 -3.61194 0
M  V30 5129 O 478.198 -1.09602 -4.24169 0
M  V30 5130 C 479.699 0.702488 -4.37699 0
M  V30 5131 H 476.919 -0.0481775 -0.669268 0
M  V30 5132 H 479.463 -0.777223 -1.89155 0
M  V30 5133 H 477.618 0.830817 -3.78386 0
M  V30 5134 H 478.032 -0.896982 -5.16773 0
M  V30 5135 H 479.506 0.78743 -5.46355 0
M  V30 5136 H 479.983 1.71493 -4.04335 0
M  V30 5137 H 480.589 0.0558772 -4.25263 0
M  V30 5138 N 478.904 1.54736 -0.299062 0
M  V30 5139 C 480.15 2.00397 0.311244 0
M  V30 5140 C 480.483 1.18716 1.53688 0
M  V30 5141 O 479.758 0.263154 1.92712 0
M  V30 5142 C 480.041 3.53817 0.669761 0
M  V30 5143 C 479.894 4.46239 -0.564882 0
M  V30 5144 C 481.213 4.13856 1.49702 0
M  V30 5145 H 478.332 0.728493 0.111653 0
M  V30 5146 H 480.974 1.85506 -0.410774 0
M  V30 5147 H 479.124 3.66637 1.28491 0
M  V30 5148 H 480.796 4.45328 -1.20337 0
M  V30 5149 H 479.039 4.16916 -1.19849 0
M  V30 5150 H 479.71 5.5134 -0.269918 0
M  V30 5151 H 482.186 4.04461 0.977284 0
M  V30 5152 H 481.062 5.21365 1.71666 0
M  V30 5153 H 481.323 3.65608 2.48563 0
M  V30 5154 N 480.382 0.0267497 1.57577 0
M  V30 5155 C 481.292 -0.971633 2.13533 0
M  V30 5156 C 482.308 -1.35868 1.08701 0
M  V30 5157 O 483.484 -1.44058 1.40746 0
M  V30 5158 C 480.549 -2.23622 2.64941 0
M  V30 5159 C 479.61 -1.90982 3.8448 0
M  V30 5160 C 478.843 -3.11411 4.33427 0
M  V30 5161 O 479.066 -4.23992 3.81558 0
M  V30 5162 O 478 -2.93848 5.25297 0
M  V30 5163 H 481.826 -0.525853 2.99113 0
M  V30 5164 H 479.411 -0.193712 1.48139 0
M  V30 5165 H 481.293 -2.97864 2.98086 0
M  V30 5166 H 479.968 -2.67386 1.82446 0
M  V30 5167 H 478.875 -1.14132 3.56265 0
M  V30 5168 H 480.208 -1.52036 4.6813 0
M  V30 5169 N 481.861 -1.55662 -0.24637 0
M  V30 5170 C 482.793 -1.86811 -1.32794 0
M  V30 5171 C 483.806 -0.754413 -1.44265 0
M  V30 5172 O 484.995 -1.03253 -1.45606 0
M  V30 5173 C 482.095 -2.0397 -2.70646 0
M  V30 5174 C 481.268 -3.34832 -2.81436 0
M  V30 5175 C 480.327 -3.41727 -4.00136 0
M  V30 5176 O 479.353 -4.14934 -3.89639 0
M  V30 5177 N 480.555 -2.71058 -5.1333 0
M  V30 5178 H 483.32 -2.80174 -1.06409 0
M  V30 5179 H 480.881 -1.55906 -0.43647 0
M  V30 5180 H 482.873 -2.05924 -3.48393 0
M  V30 5181 H 481.443 -1.1735 -2.89738 0
M  V30 5182 H 480.663 -3.4519 -1.90361 0
M  V30 5183 H 481.951 -4.21085 -2.85595 0
M  V30 5184 H 481.349 -2.11314 -5.2475 0
M  V30 5185 H 479.906 -2.78704 -5.89209 0
M  V30 5186 N 483.339 0.512053 -1.4905 0
M  V30 5187 C 484.287 1.63568 -1.65373 0
M  V30 5188 C 485.281 1.61228 -0.519806 0
M  V30 5189 O 486.487 1.65869 -0.699101 0
M  V30 5190 H 482.862 0.542019 -0.521267 0
M  V30 5191 H 484.833 1.4695 -2.59708 0
M  V30 5192 C 483.582 3.01761 -1.7273 0
M  V30 5193 H 482.905 3.04263 -2.59353 0
M  V30 5194 H 484.345 3.79948 -1.8819 0
M  V30 5195 C 482.804 3.33609 -0.46973 0
M  V30 5196 O 483.334 3.99607 0.409492 0
M  V30 5197 N 481.54 2.88651 -0.336003 0
M  V30 5198 H 481.087 2.35119 -1.05247 0
M  V30 5199 H 481.045 3.10328 0.504363 0
M  V30 5200 N 484.817 1.37938 0.762283 0
M  V30 5201 C 486.066 1.32989 1.51647 0
M  V30 5202 C 486.379 -0.0802922 1.95435 0
M  V30 5203 O 487.585 -0.252295 2.70325 0
M  V30 5204 C 486.041 2.33485 2.73885 0
M  V30 5205 C 485.649 3.80079 2.37157 0
M  V30 5206 C 487.393 2.37563 3.51801 0
M  V30 5207 C 485.3 4.72283 3.55954 0
M  V30 5208 H 484.23 0.494301 0.56937 0
M  V30 5209 H 486.881 1.63448 0.834083 0
M  V30 5210 H 485.263 1.96056 3.44061 0
M  V30 5211 H 486.437 4.26398 1.74704 0
M  V30 5212 H 484.752 3.79037 1.72395 0
M  V30 5213 H 487.349 3.0365 4.40114 0
M  V30 5214 H 487.692 1.39199 3.92338 0
M  V30 5215 H 488.225 2.73747 2.8863 0
M  V30 5216 H 484.964 5.7181 3.2049 0
M  V30 5217 H 484.484 4.30663 4.1748 0
M  V30 5218 H 486.163 4.89876 4.22647 0
M  V30 5219 N 486.295 -0.989507 1.22664 0
M  V30 5220 C 487.535 -1.7447 1.06488 0
M  V30 5221 C 487.899 -1.8794 -0.392737 0
M  V30 5222 O 489.1 -2.60175 -0.675446 0
M  V30 5223 C 487.371 -3.11043 1.76031 0
M  V30 5224 S 488.93 -4.02258 1.7531 0
M  V30 5225 H 485.748 -0.600123 0.381278 0
M  V30 5226 H 488.35 -1.18283 1.55658 0
M  V30 5227 H 487.054 -2.98884 2.81241 0
M  V30 5228 H 486.585 -3.72301 1.27105 0
M  V30 5229 H 488.6 -4.89623 0.805208 0
M  V30 5230 N 487.773 -1.03688 -1.18687 0
M  V30 5231 C 488.705 -0.582696 -2.21669 0
M  V30 5232 C 489.718 0.345656 -1.59088 0
M  V30 5233 O 490.907 0.140776 -1.77944 0
M  V30 5234 C 488.007 0.169204 -3.38477 0
M  V30 5235 C 487.18 -0.766079 -4.30639 0
M  V30 5236 C 486.239 -0.0581541 -5.26168 0
M  V30 5237 O 485.265 -0.687346 -5.65035 0
M  V30 5238 N 486.467 1.20981 -5.67753 0
M  V30 5239 H 489.232 -1.46843 -2.61261 0
M  V30 5240 H 486.793 -0.916896 -1.33434 0
M  V30 5241 H 488.785 0.652543 -3.99405 0
M  V30 5242 H 487.355 0.956435 -2.97609 0
M  V30 5243 H 486.575 -1.42935 -3.67373 0
M  V30 5244 H 487.863 -1.40146 -4.89118 0
M  V30 5245 H 487.261 1.74159 -5.38224 0
M  V30 5246 H 485.818 1.6375 -6.30896 0
M  V30 5247 N 489.251 1.34841 -0.815825 0
M  V30 5248 C 490.161 2.33425 -0.234462 0
M  V30 5249 C 491.177 1.62295 0.627413 0
M  V30 5250 O 492.353 1.94109 0.536987 0
M  V30 5251 C 489.418 3.41471 0.599849 0
M  V30 5252 C 488.479 4.28362 -0.283596 0
M  V30 5253 C 487.712 5.31248 0.51099 0
M  V30 5254 O 487.935 5.43056 1.7449 0
M  V30 5255 O 486.869 6.01812 -0.10297 0
M  V30 5256 H 490.695 2.84962 -1.05024 0
M  V30 5257 H 488.28 1.37774 -0.577809 0
M  V30 5258 H 490.162 4.07464 1.07475 0
M  V30 5259 H 488.837 2.9219 1.39308 0
M  V30 5260 H 487.744 3.65318 -0.805836 0
M  V30 5261 H 489.077 4.81066 -1.041 0
M  V30 5262 N 490.729 0.570148 1.46925 0
M  V30 5263 C 491.957 0.0561966 2.06824 0
M  V30 5264 C 492.372 -1.24326 1.42086 0
M  V30 5265 O 491.729 -1.74882 0.521794 0
M  V30 5266 C 491.78 -0.129517 3.61268 0
M  V30 5267 O 491.501 1.1185 4.23581 0
M  V30 5268 C 493.002 -0.679266 4.38065 0
M  V30 5269 H 490.222 0.0517261 0.669003 0
M  V30 5270 H 492.766 0.787243 1.8874 0
M  V30 5271 H 490.921 -0.810739 3.78822 0
M  V30 5272 H 491.335 0.924375 5.1629 0
M  V30 5273 H 492.809 -0.758445 5.46765 0
M  V30 5274 H 493.286 -1.69346 4.05239 0
M  V30 5275 H 493.892 -0.0333237 4.25287 0
M  V30 5276 N 492.207 -1.54576 0.307264 0
M  V30 5277 C 493.117 -2.27435 -0.57536 0
M  V30 5278 C 494.133 -1.31183 -1.14311 0
M  V30 5279 O 495.309 -1.64175 -1.16656 0
M  V30 5280 C 492.374 -3.00566 -1.72803 0
M  V30 5281 C 491.435 -4.12369 -1.19373 0
M  V30 5282 C 490.668 -4.82003 -2.29147 0
M  V30 5283 O 490.891 -4.51038 -3.49171 0
M  V30 5284 O 489.825 -5.69271 -1.95485 0
M  V30 5285 H 493.651 -3.03696 0.0158558 0
M  V30 5286 H 491.236 -1.49219 0.0735064 0
M  V30 5287 H 493.118 -3.46416 -2.39946 0
M  V30 5288 H 491.793 -2.27195 -2.30574 0
M  V30 5289 H 490.7 -3.70905 -0.487851 0
M  V30 5290 H 492.033 -4.87736 -0.661376 0
M  V30 5291 N 493.685 -0.035106 -1.57561 0
M  V30 5292 C 495.101 0.321334 -1.56332 0
M  V30 5293 C 495.301 1.72509 -1.04129 0
M  V30 5294 O 494.357 2.4287 -0.690694 0
M  V30 5295 C 495.67 0.164469 -3.0025 0
M  V30 5296 C 497.218 0.236786 -3.12103 0
M  V30 5297 C 497.693 0.10864 -4.57871 0
M  V30 5298 N 499.184 0.165433 -4.62904 0
M  V30 5299 C 499.919 0.0901506 -5.73329 0
M  V30 5300 N 499.415 -0.0365606 -6.9279 0
M  V30 5301 N 501.208 0.144572 -5.61914 0
M  V30 5302 H 493.359 -0.952976 -1.89821 0
M  V30 5303 H 495.622 -0.368537 -0.873432 0
M  V30 5304 H 495.328 -0.802746 -3.42416 0
M  V30 5305 H 495.202 0.932194 -3.655 0
M  V30 5306 H 497.589 1.19446 -2.69845 0
M  V30 5307 H 497.67 -0.561419 -2.49563 0
M  V30 5308 H 497.314 -0.845644 -5.00811 0
M  V30 5309 H 497.244 0.925786 -5.18398 0
M  V30 5310 H 499.735 0.263269 -3.76982 0
M  V30 5311 H 500.048 -0.0871487 -7.72751 0
M  V30 5312 H 498.393 -0.0714256 -6.94963 0
M  V30 5313 H 501.584 0.242006 -4.67474 0
M  V30 5314 H 501.757 0.0824413 -6.47948 0
M  V30 5315 N 495.163 1.55791 0.238111 0
M  V30 5316 C 496.093 1.94068 1.29846 0
M  V30 5317 C 497.074 0.806726 1.49753 0
M  V30 5318 O 498.259 1.06772 1.62214 0
M  V30 5319 C 495.389 2.24302 2.65153 0
M  V30 5320 C 494.343 3.40032 2.59927 0
M  V30 5321 C 493.669 3.55829 3.99111 0
M  V30 5322 C 494.969 4.75476 2.16148 0
M  V30 5323 H 496.663 2.82887 0.980563 0
M  V30 5324 H 494.209 1.36105 0.470253 0
M  V30 5325 H 496.162 2.4967 3.39475 0
M  V30 5326 H 494.886 1.32318 2.98596 0
M  V30 5327 H 493.545 3.14687 1.88063 0
M  V30 5328 H 493.193 2.6125 4.29834 0
M  V30 5329 H 492.893 4.3366 3.96501 0
M  V30 5330 H 494.417 3.83528 4.7512 0
M  V30 5331 H 495.831 5.00158 2.80205 0
M  V30 5332 H 494.228 5.56472 2.24631 0
M  V30 5333 H 495.298 4.71946 1.11333 0
M  V30 5334 N 496.642 -0.504142 1.49319 0
M  V30 5335 C 497.574 -1.62265 1.61872 0
M  V30 5336 C 498.587 -1.54881 0.501573 0
M  V30 5337 O 499.776 -1.6087 0.773497 0
M  V30 5338 C 496.876 -3.01042 1.55651 0
M  V30 5339 C 496.049 -3.33642 2.82845 0
M  V30 5340 C 495.108 -4.51816 2.69719 0
M  V30 5341 O 494.134 -4.53755 3.4365 0
M  V30 5342 N 495.336 -5.51543 1.81055 0
M  V30 5343 H 498.101 -1.51924 2.58339 0
M  V30 5344 H 495.662 -0.691954 1.46368 0
M  V30 5345 H 497.654 -3.78013 1.44528 0
M  V30 5346 H 496.224 -3.05323 0.670546 0
M  V30 5347 H 495.444 -2.45598 3.08343 0
M  V30 5348 H 496.732 -3.5222 3.67177 0
M  V30 5349 H 496.13 -5.52774 1.20241 0
M  V30 5350 H 494.687 -6.27629 1.75856 0
M  V30 5351 N 498.12 -1.38341 -0.754957 0
M  V30 5352 C 499.345 -1.37882 -1.5493 0
M  V30 5353 C 499.77 0.0296385 -1.88077 0
M  V30 5354 O 499.128 1.01133 -1.50472 0
M  V30 5355 C 499.176 -2.23996 -2.82592 0
M  V30 5356 O 498.28 -1.65612 -3.77686 0
M  V30 5357 H 497.621 -0.470384 -0.468652 0
M  V30 5358 H 500.151 -1.82084 -0.933082 0
M  V30 5359 H 500.161 -2.37806 -3.3153 0
M  V30 5360 H 498.836 -3.26365 -2.57796 0
M  V30 5361 H 497.413 -1.60936 -3.36384 0
M  V30 5362 N 499.598 0.982988 -1.23187 0
M  V30 5363 C 500.826 1.75921 -1.08901 0
M  V30 5364 C 501.241 1.85341 0.359719 0
M  V30 5365 O 500.598 1.33072 1.24892 0
M  V30 5366 C 500.649 3.18742 -1.70545 0
M  V30 5367 O 500.37 3.09814 -3.09753 0
M  V30 5368 C 501.871 4.1277 -1.61667 0
M  V30 5369 H 499.091 0.552166 -0.381252 0
M  V30 5370 H 501.635 1.23516 -1.62985 0
M  V30 5371 H 499.79 3.68182 -1.20501 0
M  V30 5372 H 500.204 3.99703 -3.39614 0
M  V30 5373 H 501.678 5.10697 -2.09506 0
M  V30 5374 H 502.155 4.3542 -0.575009 0
M  V30 5375 H 502.761 3.69232 -2.11064 0
M  V30 5376 N 501.076 1.04316 1.18135 0
M  V30 5377 C 502.024 0.630175 2.23901 0
M  V30 5378 C 503.018 -0.344254 1.65865 0
M  V30 5379 O 504.224 -0.211273 1.78756 0
M  V30 5380 H 500.599 0.185578 0.728742 0
M  V30 5381 H 502.57 1.53253 2.56039 0
M  V30 5382 C 501.319 0.011666 3.47698 0
M  V30 5383 H 500.642 0.752526 3.92654 0
M  V30 5384 H 502.082 -0.240046 4.2332 0
M  V30 5385 C 500.541 -1.23913 3.13285 0
M  V30 5386 O 501.071 -2.32959 3.27251 0
M  V30 5387 N 499.277 -1.13338 2.67587 0
M  V30 5388 H 498.824 -0.246006 2.56423 0
M  V30 5389 H 498.782 -1.97116 2.44934 0
M  V30 5390 N 502.554 -1.34406 0.822964 0
M  V30 5391 C 503.801 -1.98284 0.411057 0
M  V30 5392 C 504.129 -1.65245 -1.02588 0
M  V30 5393 O 503.384 -0.91619 -1.72929 0
M  V30 5394 C 503.683 -3.52981 0.560268 0
M  V30 5395 C 503.349 -4.05931 1.96293 0
M  V30 5396 C 502.011 -4.20103 2.34664 0
M  V30 5397 C 504.363 -4.34412 2.87985 0
M  V30 5398 C 501.691 -4.60082 3.64062 0
M  V30 5399 C 504.043 -4.75838 4.16847 0
M  V30 5400 C 502.707 -4.88215 4.55195 0
M  V30 5401 H 501.977 -0.725573 0.150416 0
M  V30 5402 H 504.624 -1.60349 1.04692 0
M  V30 5403 H 502.929 -3.91477 -0.158982 0
M  V30 5404 H 504.626 -4.00385 0.222087 0
M  V30 5405 H 501.216 -3.95363 1.65487 0
M  V30 5406 H 505.4 -4.23001 2.59584 0
M  V30 5407 H 500.656 -4.67856 3.93599 0
M  V30 5408 H 504.83 -4.96834 4.87984 0
M  V30 5409 H 502.457 -5.18952 5.55512 0
M  V30 5410 N 504.032 -0.577932 -1.46621 0
M  V30 5411 C 504.995 0.147805 -2.28723 0
M  V30 5412 C 505.995 0.823325 -1.38123 0
M  V30 5413 O 507.185 0.676011 -1.60548 0
M  V30 5414 C 504.317 1.21853 -3.18378 0
M  V30 5415 H 505.51 -0.573654 -2.94362 0
M  V30 5416 H 503.063 -0.335703 -1.52652 0
M  V30 5417 H 503.798 1.97173 -2.57475 0
M  V30 5418 H 503.583 0.738714 -3.85078 0
M  V30 5419 H 505.073 1.72768 -3.80186 0
M  V30 5420 N 505.51 1.54411 -0.315457 0
M  V30 5421 C 506.44 2.27002 0.547039 0
M  V30 5422 C 507.421 1.27492 1.12605 0
M  V30 5423 O 508.606 1.5629 1.15269 0
M  V30 5424 C 505.736 3.02171 1.71201 0
M  V30 5425 C 504.69 4.0895 1.26268 0
M  V30 5426 C 504.016 4.71915 2.51396 0
M  V30 5427 C 505.316 5.20891 0.383419 0
M  V30 5428 H 507.01 2.99343 -0.0584517 0
M  V30 5429 H 504.556 1.4397 -0.0295527 0
M  V30 5430 H 506.509 3.51681 2.32161 0
M  V30 5431 H 505.233 2.27433 2.34397 0
M  V30 5432 H 503.892 3.60312 0.676062 0
M  V30 5433 H 503.54 3.93801 3.12937 0
M  V30 5434 H 503.24 5.44039 2.22026 0
M  V30 5435 H 504.764 5.24195 3.13133 0
M  V30 5436 H 506.178 5.66206 0.899082 0
M  V30 5437 H 504.575 5.99821 0.182857 0
M  V30 5438 H 505.645 4.81324 -0.587821 0
M  V30 5439 N 506.988 0.0434614 1.5754 0
M  V30 5440 C 507.951 -0.918696 2.09982 0
M  V30 5441 C 508.951 -1.24488 1.01781 0
M  V30 5442 O 510.141 -1.18284 1.27885 0
M  V30 5443 C 507.273 -2.23093 2.57764 0
M  V30 5444 H 508.466 -0.464229 2.96285 0
M  V30 5445 H 506.019 -0.204818 1.54952 0
M  V30 5446 H 506.754 -2.73137 1.74832 0
M  V30 5447 H 506.539 -2.00724 3.36827 0
M  V30 5448 H 508.029 -2.92028 2.98512 0
M  V30 5449 N 508.466 -1.55915 -0.229846 0
M  V30 5450 C 509.376 -1.94891 -1.30593 0
M  V30 5451 C 510.392 -0.851604 -1.51736 0
M  V30 5452 O 511.568 -1.15447 -1.65027 0
M  V30 5453 C 508.633 -2.25052 -2.63728 0
M  V30 5454 C 507.694 -3.48306 -2.5096 0
M  V30 5455 C 506.927 -3.77019 -3.77747 0
M  V30 5456 O 507.15 -3.07534 -4.80395 0
M  V30 5457 O 506.084 -4.70523 -3.75356 0
M  V30 5458 H 509.91 -2.86581 -1.00525 0
M  V30 5459 H 507.495 -1.43017 -0.432025 0
M  V30 5460 H 509.377 -2.45682 -3.42372 0
M  V30 5461 H 508.052 -1.36538 -2.93495 0
M  V30 5462 H 506.959 -3.32964 -1.70546 0
M  V30 5463 H 508.292 -4.37177 -2.26136 0
M  V30 5464 O 509.983 0.375361 -1.57077 0
M  V30 5465 H 510.674 1.02655 -1.64261 0
M  V30 END ATOM
M  V30 BEGIN BOND
M  V30 END BOND
M  V30 END CTAB
M  END
$$$$
