drugbank_target|Q92831 Histone acetyltransferase KAT2B (DB01992; DB08186; DB08291)
 OpenBabel12092120243D

  0  0  0     0  0            999 V3000
M  V30 BEGIN CTAB
M  V30 COUNTS 13134 13288 0 0 0
M  V30 BEGIN ATOM
M  V30 1 H -0.908 1.98254 -0.117106 0
M  V30 2 N 0 1.576 0 0
M  V30 3 C 0.933 2.03868 1.02534 0
M  V30 4 C 1.911 0.928543 1.3348 0
M  V30 5 O 3.095 1.19667 1.45644 0
M  V30 6 C 0.222 2.43627 2.35294 0
M  V30 7 C -0.732 3.65373 2.2001 0
M  V30 8 S 0.101 5.13292 1.52614 0
M  V30 9 C 1.257 5.56322 2.86805 0
M  V30 10 H 1.49 2.90518 0.631377 0
M  V30 11 H -0.977 1.52953 0.210867 0
M  V30 12 H 0.981 2.67203 3.11629 0
M  V30 13 H -0.358 1.57376 2.7183 0
M  V30 14 H -1.165 3.90944 3.18086 0
M  V30 15 H -1.563 3.418 1.51819 0
M  V30 16 H 0.729 5.58782 3.83104 0
M  V30 17 H 1.672 6.56266 2.65933 0
M  V30 18 H 2.08 4.83886 2.90714 0
M  V30 19 N 1.4781 -0.272755 1.55222 0
M  V30 20 C 2.7031 -1.02683 1.80197 0
M  V30 21 C 3.1281 -1.79142 0.573551 0
M  V30 22 O 2.4861 -1.74917 -0.476849 0
M  V30 23 C 2.5341 -1.9609 3.02624 0
M  V30 24 O 1.6381 -3.04863 2.77727 0
M  V30 25 H 0.9791 -0.293557 0.595584 0
M  V30 26 H 3.5091 -0.30159 2.02365 0
M  V30 27 H 3.5191 -2.38039 3.31363 0
M  V30 28 H 2.1941 -1.39851 3.91682 0
M  V30 29 H 0.7711 -2.67228 2.60084 0
M  V30 30 N 2.9562 -1.48159 -0.537278 0
M  V30 31 C 3.8662 -1.64807 -1.6696 0
M  V30 32 C 4.8822 -0.530651 -1.65711 0
M  V30 33 O 6.0582 -0.800784 -1.84796 0
M  V30 34 C 3.1232 -1.67708 -3.03438 0
M  V30 35 C 2.1842 -2.91025 -3.156 0
M  V30 36 C 1.4172 -2.93778 -4.45567 0
M  V30 37 O 1.6402 -2.05153 -5.3223 0
M  V30 38 O 0.5742 -3.85868 -4.61941 0
M  V30 39 H 4.4002 -2.6066 -1.55853 0
M  V30 40 H 1.9852 -1.31475 -0.709549 0
M  V30 41 H 3.8672 -1.7218 -3.84619 0
M  V30 42 H 2.5422 -0.750278 -3.14885 0
M  V30 43 H 1.4492 -2.92089 -2.33741 0
M  V30 44 H 2.7822 -3.83065 -3.09066 0
M  V30 45 N 4.4343 0.785586 -1.36625 0
M  V30 46 C 5.3973 1.87999 -1.31107 0
M  V30 47 C 6.3973 1.59316 -0.217959 0
M  V30 48 O 7.5873 1.67656 -0.472977 0
M  V30 49 C 4.7193 3.24861 -1.03334 0
M  V30 50 H 5.9123 1.94307 -2.2844 0
M  V30 51 H 3.4653 0.983813 -1.21453 0
M  V30 52 H 4.2003 3.24235 -0.0647432 0
M  V30 53 H 3.9853 3.4707 -1.82441 0
M  V30 54 H 5.4753 4.04929 -1.02088 0
M  V30 55 N 5.9124 1.20967 1.01018 0
M  V30 56 C 7.1604 1.02172 1.74371 0
M  V30 57 C 7.4814 -0.446414 1.89821 0
M  V30 58 O 6.7514 -1.32234 1.44537 0
M  V30 59 H 5.3314 0.375066 0.646014 0
M  V30 60 H 7.9934 1.52187 1.21758 0
M  V30 61 H 7.0894 1.48538 2.74487 0
M  V30 62 N 7.3905 -1.2043 1.01659 0
M  V30 63 C 8.6385 -1.89423 0.704522 0
M  V30 64 C 8.9595 -1.79231 -0.768197 0
M  V30 65 O 8.2295 -1.1947 -1.55254 0
M  V30 66 H 6.8095 -0.701178 0.257602 0
M  V30 67 H 9.4715 -1.4626 1.28818 0
M  V30 68 H 8.5675 -2.96052 0.987916 0
M  V30 69 N 8.8686 -0.792821 -1.36206 0
M  V30 70 C 9.8316 -0.199459 -2.2833 0
M  V30 71 C 10.8316 0.605189 -1.48977 0
M  V30 72 O 12.0216 0.425685 -1.68919 0
M  V30 73 C 9.1536 0.723523 -3.33134 0
M  V30 74 H 10.3466 -1.01181 -2.82316 0
M  V30 75 H 7.8996 -0.562485 -1.45828 0
M  V30 76 H 8.6346 1.56008 -2.84309 0
M  V30 77 H 8.4196 0.148436 -3.91819 0
M  V30 78 H 9.9096 1.13344 -4.01924 0
M  V30 79 N 10.3467 1.47872 -0.545128 0
M  V30 80 C 11.5947 2.02093 -0.016553 0
M  V30 81 C 11.9157 1.42305 1.3332 0
M  V30 82 O 11.1857 0.593853 1.86682 0
M  V30 83 H 9.7657 0.746993 -0.00313038 0
M  V30 84 H 12.4277 1.81414 -0.712397 0
M  V30 85 H 11.5237 3.11996 0.0805422 0
M  V30 86 N 11.8248 0.280983 1.55075 0
M  V30 87 C 13.2358 -0.215629 1.85451 0
M  V30 88 C 13.5868 -1.54991 1.203 0
M  V30 89 O 12.7118 -2.10699 0.493435 0
M  V30 90 C 13.3068 -0.398026 3.36454 0
M  V30 91 C 11.8658 -0.838866 3.66933 0
M  V30 92 C 11.0128 0.064458 2.77225 0
M  V30 93 H 13.9638 0.502601 1.50531 0
M  V30 94 H 13.9848 -1.23569 3.59876 0
M  V30 95 H 13.4968 0.573241 3.83843 0
M  V30 96 H 11.5978 -1.8214 3.25048 0
M  V30 97 H 11.7108 -0.672123 4.74362 0
M  V30 98 H 10.0748 -0.452863 2.50642 0
M  V30 99 H 10.8578 1.03172 3.2743 0
M  V30 100 N 13.3029 -1.57598 0.00835791 0
M  V30 101 C 14.5509 -1.90551 -0.6734 0
M  V30 102 C 14.8719 -0.883301 -1.73847 0
M  V30 103 O 14.1419 0.0781442 -1.95744 0
M  V30 104 H 12.7219 -0.703312 -0.251717 0
M  V30 105 H 15.3839 -1.94833 0.0512592 0
M  V30 106 H 14.4799 -2.9056 -1.13935 0
M  V30 107 N 14.781 0.264519 -1.55364 0
M  V30 108 C 16.029 0.993021 -1.76021 0
M  V30 109 C 16.35 1.86511 -0.569099 0
M  V30 110 O 15.62 1.91438 0.415735 0
M  V30 111 H 14.2 0.369639 -0.649135 0
M  V30 112 H 16.862 0.286707 -1.9278 0
M  V30 113 H 15.958 1.62502 -2.66457 0
M  V30 114 N 16.2591 1.48442 0.529413 0
M  V30 115 C 17.4991 1.58086 1.29569 0
M  V30 116 C 17.8631 0.249302 1.90375 0
M  V30 117 O 19.0641 0.220738 2.67892 0
M  V30 118 C 17.3351 2.68793 2.35552 0
M  V30 119 S 18.8941 2.98207 3.21898 0
M  V30 120 H 15.7121 0.557922 0.440732 0
M  V30 121 H 18.3141 1.85966 0.603059 0
M  V30 122 H 17.0181 3.64102 1.89363 0
M  V30 123 H 16.5491 2.42817 3.09522 0
M  V30 124 H 18.5641 2.37548 4.35644 0
M  V30 125 N 17.7372 -0.778329 1.37039 0
M  V30 126 C 18.9852 -1.53361 1.31623 0
M  V30 127 C 19.3062 -1.94739 -0.100831 0
M  V30 128 O 18.5762 -1.65797 -1.04347 0
M  V30 129 H 17.1562 -0.568794 0.484234 0
M  V30 130 H 19.8182 -0.926742 1.71457 0
M  V30 131 H 18.9142 -2.43606 1.95096 0
M  V30 132 N 19.2153 -1.21501 -1.00376 0
M  V30 133 C 20.1783 -0.976927 -2.07337 0
M  V30 134 C 21.1783 0.0525322 -1.60714 0
M  V30 135 O 22.3683 -0.184869 -1.73216 0
M  V30 136 C 19.5003 -0.473423 -3.37597 0
M  V30 137 H 20.6933 -1.92587 -2.29892 0
M  V30 138 H 18.2463 -1.03217 -1.17371 0
M  V30 139 H 18.9813 0.480379 -3.20722 0
M  V30 140 H 18.7663 -1.216 -3.72768 0
M  V30 141 H 20.2563 -0.32675 -4.1632 0
M  V30 142 N 20.6934 1.19889 -1.02296 0
M  V30 143 C 21.9414 1.89046 -0.714558 0
M  V30 144 C 22.2624 1.79636 0.758681 0
M  V30 145 O 21.5324 1.20292 1.54618 0
M  V30 146 H 20.1124 0.699802 -0.261317 0
M  V30 147 H 22.7744 1.45574 -1.29592 0
M  V30 148 H 21.8704 2.95524 -1.0036 0
M  V30 149 N 22.1715 0.800033 1.35784 0
M  V30 150 C 23.1345 0.211565 2.28221 0
M  V30 151 C 24.1345 -0.59728 1.49296 0
M  V30 152 O 25.3245 -0.416721 1.69142 0
M  V30 153 C 22.4565 -0.705846 3.33513 0
M  V30 154 H 23.6495 1.02677 2.81776 0
M  V30 155 H 21.2025 0.570211 1.45528 0
M  V30 156 H 21.9375 -1.54498 2.85133 0
M  V30 157 H 21.7225 -0.127655 3.91892 0
M  V30 158 H 23.2125 -1.11211 4.02519 0
M  V30 159 N 23.6496 -1.47581 0.552962 0
M  V30 160 C 24.8976 -2.02082 0.0272703 0
M  V30 161 C 25.2186 -1.4301 -1.32563 0
M  V30 162 O 24.4886 -0.603745 -1.86365 0
M  V30 163 H 23.0686 -0.746966 0.00709182 0
M  V30 164 H 25.7306 -1.81033 0.722008 0
M  V30 165 H 24.8266 -3.12034 -0.0639951 0
M  V30 166 N 25.1277 -0.289203 -1.54924 0
M  V30 167 C 26.0907 0.579144 -2.21762 0
M  V30 168 C 27.0907 1.07047 -1.1999 0
M  V30 169 O 28.2807 0.968384 -1.44803 0
M  V30 170 C 25.4127 1.80055 -2.8947 0
M  V30 171 H 26.6057 -0.00464908 -2.999 0
M  V30 172 H 24.1587 -0.0399306 -1.56249 0
M  V30 173 H 24.8937 2.42449 -2.15381 0
M  V30 174 H 24.6787 1.45602 -3.64064 0
M  V30 175 H 26.1687 2.41773 -3.40493 0
M  V30 176 N 26.6058 1.57591 -0.0167156 0
M  V30 177 C 27.8538 1.90906 0.663285 0
M  V30 178 C 28.1748 0.892509 1.73376 0
M  V30 179 O 27.4448 -0.0677623 1.95783 0
M  V30 180 H 26.0248 0.704637 0.247983 0
M  V30 181 H 28.6868 1.94803 -0.0615909 0
M  V30 182 H 27.7828 2.9116 1.12393 0
M  V30 183 N 28.0839 -0.256276 1.55502 0
M  V30 184 C 29.0469 -1.30047 1.88734 0
M  V30 185 C 30.0469 -1.4154 0.763086 0
M  V30 186 O 31.2369 -1.40403 1.03115 0
M  V30 187 C 28.3689 -2.67953 2.10747 0
M  V30 188 H 29.5619 -1.01802 2.82093 0
M  V30 189 H 27.1149 -0.495134 1.4825 0
M  V30 190 H 27.8499 -3.01351 1.19825 0
M  V30 191 H 27.6349 -2.60993 2.92617 0
M  V30 192 H 29.1249 -3.43368 2.37673 0
M  V30 193 N 29.562 -1.4872 -0.521534 0
M  V30 194 C 30.81 -1.56857 -1.27437 0
M  V30 195 C 31.131 -0.247982 -1.93417 0
M  V30 196 O 30.401 0.731151 -1.81744 0
M  V30 197 H 28.981 -0.577885 -0.473347 0
M  V30 198 H 31.643 -1.85233 -0.606205 0
M  V30 199 H 30.739 -2.35402 -2.0492 0
M  V30 200 N 31.0401 0.771051 -1.3745 0
M  V30 201 C 32.4511 1.34737 -1.29239 0
M  V30 202 C 32.8021 1.96109 0.0596908 0
M  V30 203 O 31.9271 1.93865 0.961534 0
M  V30 204 C 32.5221 2.44973 -2.34037 0
M  V30 205 C 31.0811 2.98372 -2.29458 0
M  V30 206 C 30.2281 1.71595 -2.17831 0
M  V30 207 H 33.1791 0.571256 -1.48062 0
M  V30 208 H 33.2001 3.24471 -1.98744 0
M  V30 209 H 32.7121 2.00276 -3.32432 0
M  V30 210 H 30.8131 3.47443 -1.34589 0
M  V30 211 H 30.9261 3.53939 -3.229 0
M  V30 212 H 29.2901 1.94547 -1.64388 0
M  V30 213 H 30.0731 1.29001 -3.18141 0
M  V30 214 N 32.5182 1.22032 0.997298 0
M  V30 215 C 33.7662 1.04016 1.73278 0
M  V30 216 C 34.0872 -0.426255 1.90284 0
M  V30 217 O 33.3572 -1.30694 1.45931 0
M  V30 218 H 31.9372 0.381897 0.642 0
M  V30 219 H 34.5992 1.5347 1.20137 0
M  V30 220 H 33.6952 1.51441 2.72896 0
M  V30 221 N 33.9963 -1.19345 1.0293 0
M  V30 222 C 34.9593 -2.20793 0.615069 0
M  V30 223 C 35.9593 -1.57553 -0.321533 0
M  V30 224 O 37.1493 -1.73862 -0.108483 0
M  V30 225 C 34.2813 -3.40754 -0.0999222 0
M  V30 226 H 35.4743 -2.58955 1.51269 0
M  V30 227 H 33.0273 -1.3303 0.820534 0
M  V30 228 H 33.7623 -3.0811 -1.01187 0
M  V30 229 H 33.5473 -3.87889 0.57309 0
M  V30 230 H 35.0373 -4.15898 -0.376645 0
M  V30 231 N 35.4744 -0.807222 -1.35358 0
M  V30 232 C 36.4044 -0.232509 -2.3234 0
M  V30 233 C 37.3854 0.642386 -1.57504 0
M  V30 234 O 38.5704 0.572526 -1.85569 0
M  V30 235 C 35.7004 0.619238 -3.41735 0
M  V30 236 C 34.6544 -0.157215 -4.27711 0
M  V30 237 C 33.9804 0.816273 -5.28433 0
M  V30 238 C 35.2804 -1.35656 -5.04376 0
M  V30 239 H 36.9744 -1.04276 -2.80654 0
M  V30 240 H 34.5204 -0.50288 -1.34934 0
M  V30 241 H 36.4734 1.03137 -4.08584 0
M  V30 242 H 35.1974 1.46239 -2.92031 0
M  V30 243 H 33.8564 -0.550525 -3.62443 0
M  V30 244 H 33.5044 1.65494 -4.74996 0
M  V30 245 H 33.2044 0.301067 -5.86828 0
M  V30 246 H 34.7284 1.22659 -5.98153 0
M  V30 247 H 36.1424 -1.01927 -5.64166 0
M  V30 248 H 34.5394 -1.8063 -5.7227 0
M  V30 249 H 35.6094 -2.14288 -4.34981 0
M  V30 250 N 36.9525 1.47285 -0.560781 0
M  V30 251 C 38.3635 1.86258 -0.128343 0
M  V30 252 C 38.7145 1.46699 1.30284 0
M  V30 253 O 37.8395 0.871698 1.98067 0
M  V30 254 C 38.4345 3.38044 -0.22614 0
M  V30 255 C 36.9935 3.76096 0.151283 0
M  V30 256 C 36.1405 2.71335 -0.572084 0
M  V30 257 H 39.0915 1.38752 -0.770297 0
M  V30 258 H 39.1125 3.76441 0.554322 0
M  V30 259 H 38.6245 3.66806 -1.26788 0
M  V30 260 H 36.7255 3.52951 1.19399 0
M  V30 261 H 36.8385 4.78641 -0.209765 0
M  V30 262 H 35.2025 2.54696 -0.0147653 0
M  V30 263 H 35.9855 3.02938 -1.61504 0
M  V30 264 N 38.4306 0.297415 1.54768 0
M  V30 265 C 39.8416 -0.195947 1.85669 0
M  V30 266 C 40.1926 -1.53707 1.21937 0
M  V30 267 O 39.3176 -2.10164 0.515754 0
M  V30 268 C 39.9126 -0.362318 3.36857 0
M  V30 269 C 38.4716 -0.799901 3.67802 0
M  V30 270 C 37.6186 0.0938578 2.77141 0
M  V30 271 H 40.5696 0.518538 1.4999 0
M  V30 272 H 40.5906 -1.19745 3.61167 0
M  V30 273 H 40.1026 0.613921 3.83214 0
M  V30 274 H 38.2036 -1.78682 3.26961 0
M  V30 275 H 38.3166 -0.621773 4.75048 0
M  V30 276 H 36.6806 -0.426254 2.51108 0
M  V30 277 H 37.4636 1.06639 3.26318 0
M  V30 278 N 39.9087 -1.5758 0.0250728 0
M  V30 279 C 40.8407 -2.06869 -0.986796 0
M  V30 280 C 41.8537 -0.991332 -1.29137 0
M  V30 281 O 43.0427 -1.26761 -1.25674 0
M  V30 282 C 40.1427 -2.47486 -2.31525 0
M  V30 283 C 39.3157 -3.78253 -2.19643 0
M  V30 284 C 38.3747 -4.05464 -3.35388 0
M  V30 285 O 37.4007 -4.75774 -3.12454 0
M  V30 286 N 38.6027 -3.55321 -4.59051 0
M  V30 287 H 41.3677 -2.94302 -0.566276 0
M  V30 288 H 38.9287 -1.6109 -0.161776 0
M  V30 289 H 40.9207 -2.62785 -3.07776 0
M  V30 290 H 39.4907 -1.65441 -2.65232 0
M  V30 291 H 38.7107 -3.7279 -1.28144 0
M  V30 292 H 39.9987 -4.63936 -2.08903 0
M  V30 293 H 39.3967 -2.98431 -4.80578 0
M  V30 294 H 37.9537 -3.75905 -5.32483 0
M  V30 295 N 41.3868 0.248026 -1.55636 0
M  V30 296 C 42.7978 0.817177 -1.67866 0
M  V30 297 C 43.1488 1.86069 -0.622322 0
M  V30 298 O 42.2738 2.15157 0.231618 0
M  V30 299 C 42.8688 1.489 -3.04326 0
M  V30 300 C 41.4278 2.00587 -3.185 0
M  V30 301 C 40.5748 0.856573 -2.63739 0
M  V30 302 H 43.5258 0.0238579 -1.58682 0
M  V30 303 H 43.5468 2.35698 -2.98708 0
M  V30 304 H 43.0588 0.729279 -3.81186 0
M  V30 305 H 41.1598 2.79443 -2.4646 0
M  V30 306 H 41.2728 2.20402 -4.25393 0
M  V30 307 H 39.6368 1.25678 -2.21534 0
M  V30 308 H 40.4198 0.109953 -3.43124 0
M  V30 309 N 42.8649 1.48995 0.513639 0
M  V30 310 C 43.8279 1.64229 1.59879 0
M  V30 311 C 44.8279 0.514696 1.5234 0
M  V30 312 O 46.0179 0.78087 1.55718 0
M  V30 313 C 43.1499 1.62783 2.99524 0
M  V30 314 H 44.3429 2.61004 1.47705 0
M  V30 315 H 41.8959 1.37837 0.736936 0
M  V30 316 H 42.6309 0.675461 3.17188 0
M  V30 317 H 42.4159 2.4466 3.06404 0
M  V30 318 H 43.9059 1.76669 3.78388 0
M  V30 319 N 44.343 -0.763751 1.37857 0
M  V30 320 C 45.306 -1.85889 1.34081 0
M  V30 321 C 46.306 -1.58949 0.243277 0
M  V30 322 O 47.496 -1.66882 0.499589 0
M  V30 323 C 44.628 -3.23176 1.08489 0
M  V30 324 H 45.821 -1.90648 2.31502 0
M  V30 325 H 43.374 -0.964367 1.23003 0
M  V30 326 H 44.109 -3.24091 0.116318 0
M  V30 327 H 43.894 -3.44124 1.8794 0
M  V30 328 H 45.384 -4.03254 1.08517 0
M  V30 329 N 45.8211 -1.22559 -0.990812 0
M  V30 330 C 46.7511 -1.0218 -2.09956 0
M  V30 331 C 47.7321 0.0579394 -1.70001 0
M  V30 332 O 48.9171 -0.104684 -1.93918 0
M  V30 333 C 46.0471 -0.601023 -3.4206 0
M  V30 334 C 45.0011 -1.62694 -3.95872 0
M  V30 335 C 44.3271 -1.06193 -5.24049 0
M  V30 336 C 45.6271 -3.01743 -4.2632 0
M  V30 337 H 47.3211 -1.94916 -2.27262 0
M  V30 338 H 44.8671 -0.938566 -1.09211 0
M  V30 339 H 46.8201 -0.445561 -4.19038 0
M  V30 340 H 45.5441 0.362005 -3.24588 0
M  V30 341 H 44.2031 -1.77021 -3.21028 0
M  V30 342 H 43.8511 -0.0901903 -5.02919 0
M  V30 343 H 43.5511 -1.74732 -5.61019 0
M  V30 344 H 45.0751 -0.918092 -6.03658 0
M  V30 345 H 46.4891 -2.90777 -4.94087 0
M  V30 346 H 44.8861 -3.67425 -4.74467 0
M  V30 347 H 45.9561 -3.51518 -3.34011 0
M  V30 348 N 47.2992 1.18797 -1.03562 0
M  V30 349 C 48.7102 1.70322 -0.764676 0
M  V30 350 C 49.0612 1.82708 0.714996 0
M  V30 351 O 48.1862 1.50299 1.55689 0
M  V30 352 C 48.7812 3.09356 -1.38145 0
M  V30 353 C 47.3402 3.58114 -1.15895 0
M  V30 354 C 46.4872 2.34798 -1.4753 0
M  V30 355 H 49.4382 1.03543 -1.20268 0
M  V30 356 H 49.4592 3.72378 -0.781977 0
M  V30 357 H 48.9712 3.00309 -2.45837 0
M  V30 358 H 47.0722 3.72464 -0.100544 0
M  V30 359 H 47.1852 4.4184 -1.8524 0
M  V30 360 H 45.5492 2.38464 -0.894829 0
M  V30 361 H 46.3322 2.28375 -2.56319 0
M  V30 362 N 48.7773 0.814389 1.34928 0
M  V30 363 C 50.1883 0.458364 1.80986 0
M  V30 364 C 50.5393 -1.02042 1.67577 0
M  V30 365 O 49.6643 -1.79352 1.21086 0
M  V30 366 C 50.2593 0.825212 3.28597 0
M  V30 367 C 48.8183 0.521677 3.72767 0
M  V30 368 C 47.9653 1.04668 2.56788 0
M  V30 369 H 50.9163 1.00533 1.22795 0
M  V30 370 H 50.9373 0.12571 3.80292 0
M  V30 371 H 50.4493 1.90154 3.38324 0
M  V30 372 H 48.5503 -0.545589 3.68584 0
M  V30 373 H 48.6633 1.05977 4.67232 0
M  V30 374 H 47.0273 0.468622 2.50352 0
M  V30 375 H 47.8103 2.12927 2.6929 0
M  V30 376 N 50.2554 -1.46986 0.568584 0
M  V30 377 C 51.2184 -2.28624 -0.162366 0
M  V30 378 C 52.2184 -1.37596 -0.832103 0
M  V30 379 O 53.4084 -1.60115 -0.68622 0
M  V30 380 C 50.5404 -3.17596 -1.23878 0
M  V30 381 H 51.7334 -2.94722 0.554899 0
M  V30 382 H 49.2864 -1.52863 0.325976 0
M  V30 383 H 50.0214 -2.56214 -1.98808 0
M  V30 384 H 49.8064 -3.846 -0.763219 0
M  V30 385 H 51.2964 -3.79078 -1.75185 0
M  V30 386 N 51.7335 -0.305618 -1.54608 0
M  V30 387 C 53.1445 0.186098 -1.8577 0
M  V30 388 C 53.4955 1.53058 -1.22751 0
M  V30 389 O 52.6205 2.09888 -0.526893 0
M  V30 390 C 53.2155 0.344449 -3.37044 0
M  V30 391 C 51.7745 0.780384 -3.68221 0
M  V30 392 C 50.9215 -0.108554 -2.77087 0
M  V30 393 H 53.8725 -0.526485 -1.49712 0
M  V30 394 H 53.8935 1.17828 -3.61796 0
M  V30 395 H 53.4055 -0.634235 -3.82883 0
M  V30 396 H 51.5065 1.76945 -3.27904 0
M  V30 397 H 51.6195 0.596572 -4.75371 0
M  V30 398 H 49.9835 0.412931 -2.5133 0
M  V30 399 H 50.7665 -1.08368 -3.25747 0
M  V30 400 N 53.2116 1.57565 -0.0334293 0
M  V30 401 C 54.6226 1.79746 0.504798 0
M  V30 402 C 54.9736 0.944091 1.71992 0
M  V30 403 O 54.0986 0.155694 2.15839 0
M  V30 404 C 54.6936 3.25997 0.922567 0
M  V30 405 C 53.2526 3.49159 1.40588 0
M  V30 406 C 52.3996 2.74785 0.372633 0
M  V30 407 H 55.3506 1.56565 -0.259436 0
M  V30 408 H 55.3716 3.35945 1.78666 0
M  V30 409 H 54.8836 3.88081 0.0379825 0
M  V30 410 H 52.9846 2.92332 2.31025 0
M  V30 411 H 53.0976 4.57873 1.41028 0
M  V30 412 H 51.4616 2.40391 0.841672 0
M  V30 413 H 52.2446 3.39587 -0.503559 0
M  V30 414 N 54.6897 -0.239769 1.55765 0
M  V30 415 C 55.6217 -1.32001 1.87372 0
M  V30 416 C 56.6347 -1.43944 0.760522 0
M  V30 417 O 57.8237 -1.45167 1.0387 0
M  V30 418 C 54.9237 -2.69779 2.05115 0
M  V30 419 C 54.0967 -2.80014 3.36022 0
M  V30 420 C 53.1557 -3.98684 3.4342 0
M  V30 421 O 52.1817 -3.87877 4.16582 0
M  V30 422 N 53.3837 -5.12176 2.73232 0
M  V30 423 H 56.1487 -1.0522 2.80622 0
M  V30 424 H 53.7097 -0.429857 1.56089 0
M  V30 425 H 55.7017 -3.47517 2.07399 0
M  V30 426 H 54.2717 -2.89237 1.18577 0
M  V30 427 H 53.4917 -1.88896 3.45994 0
M  V30 428 H 54.7797 -2.83808 4.22292 0
M  V30 429 H 54.1777 -5.2385 2.13536 0
M  V30 430 H 52.7347 -5.88022 2.81199 0
M  V30 431 N 56.1678 -1.49265 -0.50573 0
M  V30 432 C 57.4158 -1.582 -1.25766 0
M  V30 433 C 57.7368 -0.268482 -1.93143 0
M  V30 434 O 57.0068 0.711833 -1.8251 0
M  V30 435 H 55.5868 -0.582873 -0.467191 0
M  V30 436 H 58.2488 -1.85865 -0.586525 0
M  V30 437 H 57.3448 -2.37563 -2.02412 0
M  V30 438 N 57.6459 0.756429 -1.3826 0
M  V30 439 C 58.8709 1.55077 -1.37717 0
M  V30 440 C 59.2959 1.88073 0.03164 0
M  V30 441 O 58.6539 1.50364 1.01293 0
M  V30 442 C 58.7019 2.8283 -2.23695 0
M  V30 443 O 57.8059 3.77862 -1.6521 0
M  V30 444 H 57.1469 0.469152 -0.469885 0
M  V30 445 H 59.6769 0.935019 -1.81985 0
M  V30 446 H 59.6869 3.31783 -2.37453 0
M  V30 447 H 58.3619 2.58144 -3.2609 0
M  V30 448 H 56.9389 3.36555 -1.60578 0
M  V30 449 N 59.124 1.23083 0.984299 0
M  V30 450 C 60.535 1.05609 1.5396 0
M  V30 451 C 60.886 -0.377793 1.92528 0
M  V30 452 O 60.011 -1.26398 1.75649 0
M  V30 453 C 60.606 1.91087 2.7977 0
M  V30 454 C 59.165 1.77885 3.31713 0
M  V30 455 C 58.312 1.87028 2.04733 0
M  V30 456 H 61.263 1.36802 0.804419 0
M  V30 457 H 61.284 1.43336 3.5247 0
M  V30 458 H 60.796 2.9544 2.51668 0
M  V30 459 H 58.897 0.762995 3.64704 0
M  V30 460 H 59.01 2.61047 4.01735 0
M  V30 461 H 57.374 1.30565 2.18689 0
M  V30 462 H 58.157 2.92929 1.79017 0
M  V30 463 N 60.6021 -1.18246 1.0419 0
M  V30 464 C 61.8421 -1.89948 0.754916 0
M  V30 465 C 62.2061 -1.78608 -0.70451 0
M  V30 466 O 63.4071 -2.4503 -1.10516 0
M  V30 467 C 61.6781 -3.36305 1.20969 0
M  V30 468 S 63.2371 -4.26088 1.04854 0
M  V30 469 H 60.0551 -0.655897 0.274446 0
M  V30 470 H 62.6571 -1.42873 1.33445 0
M  V30 471 H 61.3611 -3.42089 2.26722 0
M  V30 472 H 60.8921 -3.8842 0.624004 0
M  V30 473 H 62.9071 -4.96189 -0.0332896 0
M  V30 474 N 62.0802 -0.821533 -1.34494 0
M  V30 475 C 63.0432 -0.247847 -2.27856 0
M  V30 476 C 64.0432 0.573453 -1.50227 0
M  V30 477 O 65.2332 0.389759 -1.69784 0
M  V30 478 C 62.3652 0.652698 -3.34593 0
M  V30 479 H 63.5582 -1.07146 -2.80107 0
M  V30 480 H 61.1112 -0.593291 -1.44602 0
M  V30 481 H 61.8462 1.49943 -2.87555 0
M  V30 482 H 61.6312 0.065292 -3.92046 0
M  V30 483 H 63.1212 1.04793 -4.04238 0
M  V30 484 N 63.5583 1.46682 -0.576371 0
M  V30 485 C 64.5213 2.28707 0.150239 0
M  V30 486 C 65.5213 1.38035 0.824794 0
M  V30 487 O 66.7113 1.60476 0.677719 0
M  V30 488 C 63.8433 3.18248 1.22192 0
M  V30 489 H 65.0363 2.94423 -0.570521 0
M  V30 490 H 62.5893 1.52688 -0.334078 0
M  V30 491 H 63.3243 2.57265 1.97447 0
M  V30 492 H 63.1093 3.85 0.742812 0
M  V30 493 H 64.5993 3.80001 1.73172 0
M  V30 494 N 65.0364 0.313813 1.54444 0
M  V30 495 C 65.9994 -0.54379 2.22656 0
M  V30 496 C 66.9994 -1.05124 1.21678 0
M  V30 497 O 68.1894 -0.945225 1.46325 0
M  V30 498 C 65.3214 -1.75427 2.92298 0
M  V30 499 H 66.5144 0.0523599 2.99854 0
M  V30 500 H 64.0674 0.0647834 1.56166 0
M  V30 501 H 64.8024 -2.38991 2.19211 0
M  V30 502 H 64.5874 -1.39791 3.66334 0
M  V30 503 H 66.0774 -2.36325 3.44297 0
M  V30 504 N 66.5145 -1.57545 0.0417849 0
M  V30 505 C 67.4775 -2.09885 -0.92093 0
M  V30 506 C 68.4775 -1.01648 -1.24596 0
M  V30 507 O 69.6675 -1.27759 -1.1842 0
M  V30 508 C 66.7995 -2.57527 -2.23367 0
M  V30 509 H 67.9925 -2.96236 -0.467382 0
M  V30 510 H 65.5455 -1.5493 -0.206467 0
M  V30 511 H 66.2805 -1.74542 -2.73323 0
M  V30 512 H 66.0655 -3.36613 -2.01083 0
M  V30 513 H 67.5555 -2.98201 -2.92346 0
M  V30 514 N 67.9926 0.231505 -1.5589 0
M  V30 515 C 69.2406 0.955461 -1.78088 0
M  V30 516 C 69.5616 1.85262 -0.608533 0
M  V30 517 O 68.8316 1.92277 0.375035 0
M  V30 518 H 67.4116 0.355787 -0.656829 0
M  V30 519 H 70.0736 0.245751 -1.93344 0
M  V30 520 H 69.1696 1.56814 -2.69844 0
M  V30 521 N 69.4707 1.49531 0.497807 0
M  V30 522 C 70.7187 1.58865 1.24926 0
M  V30 523 C 71.0397 0.278721 1.92998 0
M  V30 524 O 70.3097 -0.702144 1.82885 0
M  V30 525 H 68.8897 0.585343 0.464094 0
M  V30 526 H 71.5517 1.86174 0.57666 0
M  V30 527 H 70.6477 2.38633 2.01149 0
M  V30 528 N 70.9488 -0.749086 1.3866 0
M  V30 529 C 72.1738 -1.54344 1.38538 0
M  V30 530 C 72.5988 -1.88088 -0.0216655 0
M  V30 531 O 71.9568 -1.50899 -1.00494 0
M  V30 532 C 72.0048 -2.8164 2.25192 0
M  V30 533 O 71.1088 -3.7698 1.67212 0
M  V30 534 H 70.4498 -0.466654 0.472367 0
M  V30 535 H 72.9798 -0.925355 1.82478 0
M  V30 536 H 72.9898 -3.30519 2.3921 0
M  V30 537 H 71.6648 -2.56411 3.27454 0
M  V30 538 H 70.2418 -3.35699 1.6236 0
M  V30 539 N 72.4269 -1.23603 -0.977757 0
M  V30 540 C 73.6749 -1.06759 -1.71601 0
M  V30 541 C 73.9959 0.395929 -1.90938 0
M  V30 542 O 73.2659 1.28356 -1.47992 0
M  V30 543 H 71.8459 -0.392062 -0.635843 0
M  V30 544 H 74.5079 -1.55362 -1.1768 0
M  V30 545 H 73.6039 -1.55763 -2.70452 0
M  V30 546 N 73.905 1.17692 -1.04816 0
M  V30 547 C 74.868 2.19787 -0.650117 0
M  V30 548 C 75.868 1.58044 0.296427 0
M  V30 549 O 77.058 1.74012 0.0808097 0
M  V30 550 C 74.19 3.40869 0.0456987 0
M  V30 551 H 75.383 2.56516 -1.5537 0
M  V30 552 H 72.936 1.31708 -0.841594 0
M  V30 553 H 73.671 3.09681 0.962726 0
M  V30 554 H 73.456 3.86928 -0.634727 0
M  V30 555 H 74.946 4.16445 0.310432 0
M  V30 556 N 75.3831 0.828654 1.34056 0
M  V30 557 C 76.6231 0.425394 1.99924 0
M  V30 558 C 76.9871 -0.994294 1.64249 0
M  V30 559 O 78.1881 -1.50074 2.23005 0
M  V30 560 C 76.4591 0.628071 3.51838 0
M  V30 561 S 78.0181 0.318511 4.37642 0
M  V30 562 H 74.8361 0.160465 0.692656 0
M  V30 563 H 77.4381 1.07572 1.63244 0
M  V30 564 H 76.1421 1.66089 3.7529 0
M  V30 565 H 75.6731 -0.0367799 3.93383 0
M  V30 566 H 77.6881 -0.865632 4.88591 0
M  V30 567 N 76.8612 -1.46375 0.584142 0
M  V30 568 C 78.1092 -2.01978 0.0701287 0
M  V30 569 C 78.4302 -1.4579 -1.295 0
M  V30 570 O 77.7002 -0.64314 -1.85042 0
M  V30 571 H 76.2802 -0.746648 0.0229345 0
M  V30 572 H 78.9422 -1.79461 0.760245 0
M  V30 573 H 78.0382 -3.121 0.0022064 0
M  V30 574 N 78.3393 -0.321999 -1.54275 0
M  V30 575 C 79.7503 0.166384 -1.85957 0
M  V30 576 C 80.1013 1.51747 -1.24367 0
M  V30 577 O 79.2263 2.09317 -0.549124 0
M  V30 578 C 79.8213 0.308681 -3.37391 0
M  V30 579 C 78.3803 0.741286 -3.69028 0
M  V30 580 C 77.5273 -0.137937 -2.76957 0
M  V30 581 H 80.4783 -0.542335 -1.49146 0
M  V30 582 H 80.4993 1.13984 -3.63026 0
M  V30 583 H 80.0113 -0.674809 -3.82188 0
M  V30 584 H 78.1123 1.73458 -3.29762 0
M  V30 585 H 78.2253 0.546118 -4.75977 0
M  V30 586 H 76.5893 0.386251 -2.51754 0
M  V30 587 H 77.3723 -1.11816 -3.2458 0
M  V30 588 N 79.8174 1.5752 -0.0501392 0
M  V30 589 C 80.7804 2.1037 0.909786 0
M  V30 590 C 81.7804 1.02308 1.24056 0
M  V30 591 O 82.9704 1.28385 1.17741 0
M  V30 592 C 80.1024 2.58708 2.21998 0
M  V30 593 H 81.2954 2.96479 0.451665 0
M  V30 594 H 78.8484 1.55038 0.198248 0
M  V30 595 H 79.5834 1.75989 2.72394 0
M  V30 596 H 79.3684 3.37675 1.99295 0
M  V30 597 H 80.8584 2.99747 2.9076 0
M  V30 598 N 81.2955 -0.223234 1.56011 0
M  V30 599 C 82.5235 -0.964812 1.83027 0
M  V30 600 C 82.9385 -1.78013 0.62904 0
M  V30 601 O 82.2955 -1.78008 -0.402414 0
M  V30 602 C 82.3465 -1.88373 3.08542 0
M  V30 603 O 82.0675 -1.10137 4.2403 0
M  V30 604 C 83.5685 -2.73934 3.48533 0
M  V30 605 H 80.7885 -0.282842 0.608475 0
M  V30 606 H 83.3325 -0.238971 2.03099 0
M  V30 607 H 81.4875 -2.56354 2.9045 0
M  V30 608 H 81.9015 -1.72501 4.95322 0
M  V30 609 H 83.3755 -3.34117 4.39397 0
M  V30 610 H 83.8525 -3.46244 2.70207 0
M  V30 611 H 84.4585 -2.11369 3.69057 0
M  V30 612 N 82.7736 -1.49793 -0.48987 0
M  V30 613 C 83.7366 -1.66752 -1.57246 0
M  V30 614 C 84.7366 -0.538867 -1.51502 0
M  V30 615 O 85.9266 -0.805545 -1.54456 0
M  V30 616 C 83.0586 -1.67528 -2.96896 0
M  V30 617 H 84.2516 -2.63321 -1.43534 0
M  V30 618 H 81.8046 -1.38992 -0.714914 0
M  V30 619 H 82.5396 -0.725837 -3.16073 0
M  V30 620 H 82.3246 -2.49504 -3.02473 0
M  V30 621 H 83.8146 -1.82667 -3.7553 0
M  V30 622 N 84.2517 0.741722 -1.39055 0
M  V30 623 C 85.4977 1.50336 -1.36113 0
M  V30 624 C 85.8307 1.94148 0.0450796 0
M  V30 625 O 85.1057 1.66301 1.00868 0
M  V30 626 C 85.3887 2.74773 -2.32749 0
M  V30 627 C 85.2417 2.37023 -3.82283 0
M  V30 628 C 86.5607 3.76846 -2.27322 0
M  V30 629 H 83.6797 0.545351 -0.495743 0
M  V30 630 H 86.3217 0.848624 -1.69995 0
M  V30 631 H 84.4717 3.30639 -2.03986 0
M  V30 632 H 86.1437 1.8684 -4.21768 0
M  V30 633 H 84.3867 1.69334 -3.99385 0
M  V30 634 H 85.0577 3.26104 -4.45376 0
M  V30 635 H 87.5337 3.30548 -2.5274 0
M  V30 636 H 86.4097 4.6159 -2.97028 0
M  V30 637 H 86.6707 4.23286 -1.27599 0
M  V30 638 N 85.7298 1.2412 0.971189 0
M  V30 639 C 86.6928 1.03156 2.04674 0
M  V30 640 C 87.6928 -0.00990322 1.60797 0
M  V30 641 O 88.8828 0.230729 1.72665 0
M  V30 642 C 86.0148 0.562765 3.36223 0
M  V30 643 H 87.2078 1.98614 2.24705 0
M  V30 644 H 84.7608 1.06293 1.14593 0
M  V30 645 H 85.4958 -0.395176 3.21883 0
M  V30 646 H 85.2808 1.31441 3.69413 0
M  V30 647 H 86.7708 0.437015 4.15307 0
M  V30 648 N 87.2079 -1.17134 1.05439 0
M  V30 649 C 88.1709 -2.19439 0.661764 0
M  V30 650 C 89.1709 -1.58199 -0.288042 0
M  V30 651 O 90.3609 -1.74053 -0.0715803 0
M  V30 652 C 87.4929 -3.40889 -0.0276209 0
M  V30 653 H 88.6859 -2.55688 1.56728 0
M  V30 654 H 86.2389 -1.31259 0.848567 0
M  V30 655 H 86.9739 -3.10187 -0.94629 0
M  V30 656 H 86.7589 -3.86586 0.655238 0
M  V30 657 H 88.2489 -4.16603 -0.288342 0
M  V30 658 N 88.686 -0.835752 -1.33615 0
M  V30 659 C 89.649 -0.272 -2.2758 0
M  V30 660 C 90.649 0.557487 -1.50827 0
M  V30 661 O 91.839 0.37173 -1.70188 0
M  V30 662 C 88.971 0.617173 -3.35267 0
M  V30 663 H 90.164 -1.10111 -2.78954 0
M  V30 664 H 87.717 -0.608594 -1.43965 0
M  V30 665 H 88.452 1.46884 -2.89129 0
M  V30 666 H 88.237 0.0237066 -3.92093 0
M  V30 667 H 89.727 1.005 -4.05326 0
M  V30 668 N 90.1641 1.46063 -0.591896 0
M  V30 669 C 91.4121 2.01938 -0.0808391 0
M  V30 670 C 91.7331 1.46475 1.28725 0
M  V30 671 O 91.0031 0.652944 1.84698 0
M  V30 672 H 89.5831 0.746516 -0.0268938 0
M  V30 673 H 92.2451 1.79055 -0.769752 0
M  V30 674 H 91.3411 3.12094 -0.0187578 0
M  V30 675 N 91.6422 0.330177 1.54103 0
M  V30 676 C 92.8702 -0.272179 2.05102 0
M  V30 677 C 93.2852 -1.45267 1.20595 0
M  V30 678 O 92.6422 -1.8094 0.238144 0
M  V30 679 C 92.6932 -0.70023 3.54653 0
M  V30 680 O 92.4142 0.433301 4.35952 0
M  V30 681 C 93.9152 -1.3647 4.21771 0
M  V30 682 H 91.1352 -0.0549159 0.668749 0
M  V30 683 H 93.6792 0.478285 1.98828 0
M  V30 684 H 91.8342 -1.40066 3.61193 0
M  V30 685 H 92.2482 0.0947539 5.24414 0
M  V30 686 H 93.7222 -1.61509 5.27843 0
M  V30 687 H 94.1992 -2.31409 3.73292 0
M  V30 688 H 94.8052 -0.706675 4.19388 0
M  V30 689 N 93.1203 -1.57491 0.0584922 0
M  V30 690 C 94.0833 -2.1085 -0.898617 0
M  V30 691 C 95.0833 -1.02964 -1.23511 0
M  V30 692 O 96.2733 -1.29007 -1.17059 0
M  V30 693 C 93.4053 -2.59881 -2.20623 0
M  V30 694 H 94.5983 -2.96715 -0.435936 0
M  V30 695 H 92.1513 -1.55141 -0.190023 0
M  V30 696 H 92.8863 -1.77431 -2.71457 0
M  V30 697 H 92.6713 -3.38727 -1.97501 0
M  V30 698 H 94.1613 -3.01285 -2.89166 0
M  V30 699 N 94.5984 0.214957 -1.56127 0
M  V30 700 C 95.5084 1.28727 -1.96129 0
M  V30 701 C 96.5244 1.50916 -0.866044 0
M  V30 702 O 97.7004 1.63918 -1.17016 0
M  V30 703 C 94.7654 2.61569 -2.27558 0
M  V30 704 C 93.8264 2.47625 -3.50685 0
M  V30 705 C 93.0594 3.74132 -3.80606 0
M  V30 706 O 93.2824 4.77438 -3.12104 0
M  V30 707 O 92.2164 3.70849 -4.74083 0
M  V30 708 H 96.0424 0.977855 -2.87527 0
M  V30 709 H 93.6274 0.418358 -1.43423 0
M  V30 710 H 95.5094 3.40012 -2.48938 0
M  V30 711 H 94.1844 2.92178 -1.39332 0
M  V30 712 H 93.0914 1.67361 -3.34576 0
M  V30 713 H 94.4244 2.21954 -4.39315 0
M  V30 714 N 96.0765 1.50051 0.48192 0
M  V30 715 C 97.3245 1.60181 1.23234 0
M  V30 716 C 97.6455 0.299176 1.92691 0
M  V30 717 O 96.9155 -0.682708 1.83619 0
M  V30 718 H 95.4955 0.590232 0.457859 0
M  V30 719 H 98.1575 1.86775 0.556881 0
M  V30 720 H 97.2535 2.40753 1.98607 0
M  V30 721 N 97.5546 -0.734337 1.39446 0
M  V30 722 C 98.9656 -1.31264 1.32766 0
M  V30 723 C 99.3166 -1.96198 -0.00767497 0
M  V30 724 O 98.4416 -1.96346 -0.909796 0
M  V30 725 C 99.0366 -2.38682 2.4045 0
M  V30 726 C 97.5956 -2.92184 2.37288 0
M  V30 727 C 96.7426 -1.6576 2.22304 0
M  V30 728 H 99.6936 -0.531799 1.49525 0
M  V30 729 H 99.7146 -3.19087 2.07276 0
M  V30 730 H 99.2266 -1.91392 3.37625 0
M  V30 731 H 97.3276 -3.43752 1.43754 0
M  V30 732 H 97.4406 -3.45253 3.3217 0
M  V30 733 H 95.8046 -1.9012 1.69489 0
M  V30 734 H 96.5876 -1.20521 3.21449 0
M  V30 735 N 99.0327 -1.24633 -0.964593 0
M  V30 736 C 100.281 -1.08573 -1.70459 0
M  V30 737 C 100.602 0.375655 -1.91347 0
M  V30 738 O 99.8717 1.26779 -1.49345 0
M  V30 739 H 98.4517 -0.398784 -0.631649 0
M  V30 740 H 101.114 -1.56601 -1.16026 0
M  V30 741 H 100.21 -1.58623 -2.68785 0
M  V30 742 N 100.511 1.16574 -1.06058 0
M  V30 743 C 101.759 1.86677 -0.77434 0
M  V30 744 C 102.08 1.81959 0.701147 0
M  V30 745 O 101.35 1.2515 1.50713 0
M  V30 746 H 99.9298 0.691134 -0.283449 0
M  V30 747 H 102.592 1.41378 -1.34158 0
M  V30 748 H 101.688 2.92181 -1.09711 0
M  V30 749 N 101.989 0.842826 1.3317 0
M  V30 750 C 103.237 0.439577 1.97262 0
M  V30 751 C 103.558 -1.00548 1.67078 0
M  V30 752 O 102.828 -1.70098 0.971779 0
M  V30 753 H 101.408 0.159558 0.72976 0
M  V30 754 H 104.07 1.07665 1.62463 0
M  V30 755 H 103.166 0.574886 3.0676 0
M  V30 756 N 103.467 -1.45747 0.599634 0
M  V30 757 C 104.715 -2.01893 0.0915472 0
M  V30 758 C 105.036 -1.47155 -1.27946 0
M  V30 759 O 104.306 -0.66273 -1.84349 0
M  V30 760 H 102.886 -0.746363 0.0308524 0
M  V30 761 H 105.548 -1.78645 0.779237 0
M  V30 762 H 104.644 -3.1208 0.0353086 0
M  V30 763 N 104.945 -0.338344 -1.53925 0
M  V30 764 C 106.17 0.263987 -2.05713 0
M  V30 765 C 106.595 1.43847 -1.21201 0
M  V30 766 O 105.953 1.79904 -0.224535 0
M  V30 767 C 106.001 0.662 -3.54471 0
M  V30 768 O 105.105 1.76265 -3.72833 0
M  V30 769 H 104.446 0.0448722 -0.662482 0
M  V30 770 H 106.976 -0.491048 -1.9862 0
M  V30 771 H 106.986 0.940594 -3.9701 0
M  V30 772 H 105.661 -0.196937 -4.15433 0
M  V30 773 H 104.238 1.48173 -3.42198 0
M  V30 774 N 106.423 1.57458 -0.0668435 0
M  V30 775 C 107.386 2.11323 0.887422 0
M  V30 776 C 108.386 1.03618 1.22964 0
M  V30 777 O 109.576 1.29626 1.16373 0
M  V30 778 C 106.708 2.61048 2.19242 0
M  V30 779 H 107.901 2.96942 0.420194 0
M  V30 780 H 105.454 1.55239 0.181793 0
M  V30 781 H 106.189 1.78868 2.70512 0
M  V30 782 H 105.974 3.39769 1.95702 0
M  V30 783 H 107.464 3.02814 2.87565 0
M  V30 784 N 107.901 -0.206675 1.56239 0
M  V30 785 C 109.317 -0.557025 1.49564 0
M  V30 786 C 109.517 -1.86424 0.764735 0
M  V30 787 O 108.573 -2.50584 0.310491 0
M  V30 788 C 109.886 -0.622478 2.94186 0
M  V30 789 C 111.434 -0.712099 3.04792 0
M  V30 790 C 111.909 -0.808767 4.50803 0
M  V30 791 N 113.4 -0.8726 4.54907 0
M  V30 792 C 114.135 -0.967365 5.65181 0
M  V30 793 N 113.631 -1.02515 6.85173 0
M  V30 794 N 115.424 -1.00366 5.53067 0
M  V30 795 H 107.575 0.650943 2.02179 0
M  V30 796 H 109.838 0.230387 0.919579 0
M  V30 797 H 109.544 0.268727 3.50672 0
M  V30 798 H 109.418 -1.4811 3.46905 0
M  V30 799 H 111.805 -1.59374 2.48363 0
M  V30 800 H 111.886 0.172489 2.55218 0
M  V30 801 H 111.53 0.0684754 5.07854 0
M  V30 802 H 111.46 -1.70899 4.98098 0
M  V30 803 H 113.951 -0.837657 3.68499 0
M  V30 804 H 114.264 -1.09765 7.64965 0
M  V30 805 H 112.609 -0.994026 6.87855 0
M  V30 806 H 115.8 -0.95527 4.58249 0
M  V30 807 H 115.973 -1.07405 6.39037 0
M  V30 808 N 109.379 -1.50304 -0.473955 0
M  V30 809 C 110.628 -1.60392 -1.22301 0
M  V30 810 C 110.941 -0.308411 -1.93153 0
M  V30 811 O 112.147 -0.288156 -2.69966 0
M  V30 812 C 110.603 -2.83109 -2.2221 0
M  V30 813 C 110.211 -4.19524 -1.57173 0
M  V30 814 C 111.955 -3.0254 -2.97775 0
M  V30 815 C 109.862 -5.33431 -2.55353 0
M  V30 816 H 108.792 -0.597286 -0.460179 0
M  V30 817 H 111.443 -1.76731 -0.493803 0
M  V30 818 H 109.825 -2.60322 -2.9841 0
M  V30 819 H 110.999 -4.52554 -0.867824 0
M  V30 820 H 109.314 -4.05674 -0.939002 0
M  V30 821 H 111.911 -3.84811 -3.71248 0
M  V30 822 H 112.254 -2.14154 -3.56992 0
M  V30 823 H 112.787 -3.25494 -2.28688 0
M  V30 824 H 109.526 -6.23962 -2.00878 0
M  V30 825 H 109.046 -5.04823 -3.23904 0
M  V30 826 H 110.725 -5.63887 -3.17239 0
M  V30 827 N 110.857 0.726932 -1.39834 0
M  V30 828 C 111.82 1.82269 -1.38962 0
M  V30 829 C 112.82 1.58248 -0.285334 0
M  V30 830 O 114.01 1.65499 -0.54366 0
M  V30 831 C 111.142 3.20186 -1.17019 0
M  V30 832 H 112.335 1.84443 -2.36476 0
M  V30 833 H 109.888 0.931416 -1.25516 0
M  V30 834 H 110.623 3.23669 -0.202204 0
M  V30 835 H 110.408 3.3902 -1.96998 0
M  V30 836 H 111.898 4.00235 -1.1917 0
M  V30 837 N 112.336 1.25143 0.95797 0
M  V30 838 C 113.582 1.09855 1.70469 0
M  V30 839 C 113.915 -0.360187 1.90831 0
M  V30 840 O 113.19 -1.26568 1.47685 0
M  V30 841 C 113.473 1.8497 3.08963 0
M  V30 842 C 113.326 3.38652 2.96032 0
M  V30 843 C 114.645 1.63016 4.08795 0
M  V30 844 H 111.764 0.400465 0.618706 0
M  V30 845 H 114.406 1.53933 1.11376 0
M  V30 846 H 112.556 1.47505 3.59409 0
M  V30 847 H 114.228 3.85772 2.52938 0
M  V30 848 H 112.471 3.66534 2.32025 0
M  V30 849 H 113.142 3.8642 3.94187 0
M  V30 850 H 115.618 1.95625 3.67247 0
M  V30 851 H 114.494 2.18015 5.03747 0
M  V30 852 H 114.755 0.570692 4.38401 0
M  V30 853 N 113.814 -1.1601 1.06675 0
M  V30 854 C 114.761 -2.20525 0.680967 0
M  V30 855 C 115.731 -1.62904 -0.324283 0
M  V30 856 O 116.916 -1.89615 -0.212294 0
M  V30 857 C 114.056 -3.45013 0.0776551 0
M  V30 858 C 113.169 -4.16863 1.13355 0
M  V30 859 C 112.304 -5.2888 0.49597 0
M  V30 860 C 111.343 -5.92537 1.53513 0
M  V30 861 N 110.48 -6.96038 0.920631 0
M  V30 862 H 115.32 -2.52876 1.57663 0
M  V30 863 H 112.857 -1.24199 0.788223 0
M  V30 864 H 114.815 -4.16193 -0.289704 0
M  V30 865 H 113.445 -3.132 -0.781393 0
M  V30 866 H 112.497 -3.44248 1.61857 0
M  V30 867 H 113.809 -4.60294 1.92174 0
M  V30 868 H 112.963 -6.06653 0.0758604 0
M  V30 869 H 111.702 -4.86622 -0.324062 0
M  V30 870 H 110.707 -5.13482 1.9651 0
M  V30 871 H 111.932 -6.36873 2.35733 0
M  V30 872 H 109.878 -6.55888 0.12138 0
M  V30 873 H 109.795 -7.3786 1.64616 0
M  V30 874 H 111.063 -7.77725 0.525795 0
M  V30 875 N 115.292 -0.849877 -1.32721 0
M  V30 876 C 116.239 -0.289033 -2.28983 0
M  V30 877 C 117.209 0.601324 -1.54833 0
M  V30 878 O 118.394 0.537253 -1.8308 0
M  V30 879 C 115.534 0.520623 -3.4115 0
M  V30 880 C 114.647 -0.394989 -4.3019 0
M  V30 881 C 113.782 0.426834 -5.29482 0
M  V30 882 C 112.821 -0.486476 -6.10164 0
M  V30 883 N 111.958 0.297879 -7.01468 0
M  V30 884 H 116.798 -1.11519 -2.76347 0
M  V30 885 H 114.335 -0.56138 -1.35967 0
M  V30 886 H 116.293 1.00563 -4.04899 0
M  V30 887 H 114.923 1.31165 -2.9495 0
M  V30 888 H 113.975 -0.99836 -3.67065 0
M  V30 889 H 115.287 -1.09612 -4.86607 0
M  V30 890 H 114.441 0.975205 -5.98811 0
M  V30 891 H 113.18 1.16136 -4.73671 0
M  V30 892 H 112.185 -1.04677 -5.39743 0
M  V30 893 H 113.41 -1.21953 -6.6806 0
M  V30 894 H 111.356 1.01558 -6.48091 0
M  V30 895 H 111.273 -0.344318 -7.55216 0
M  V30 896 H 112.541 0.828131 -7.75089 0
M  V30 897 N 116.77 1.45427 -0.607355 0
M  V30 898 C 117.733 2.28974 0.101693 0
M  V30 899 C 118.733 1.39754 0.795329 0
M  V30 900 O 119.923 1.61878 0.643527 0
M  V30 901 C 117.055 3.20768 1.15414 0
M  V30 902 H 118.248 2.93147 -0.632844 0
M  V30 903 H 115.801 1.51945 -0.366391 0
M  V30 904 H 116.536 2.61395 1.91945 0
M  V30 905 H 116.321 3.86489 0.66098 0
M  V30 906 H 117.811 3.83589 1.65073 0
M  V30 907 N 118.248 0.346503 1.53744 0
M  V30 908 C 119.18 -0.543316 2.22667 0
M  V30 909 C 120.193 -1.06159 1.23427 0
M  V30 910 O 121.382 -0.971235 1.49764 0
M  V30 911 C 118.482 -1.76076 2.89569 0
M  V30 912 C 117.655 -1.37727 4.15151 0
M  V30 913 C 116.714 -2.45471 4.65436 0
M  V30 914 O 115.74 -2.08655 5.29577 0
M  V30 915 N 116.942 -3.7677 4.41616 0
M  V30 916 H 119.707 0.0469703 2.99663 0
M  V30 917 H 117.268 0.170766 1.60997 0
M  V30 918 H 119.26 -2.47593 3.20125 0
M  V30 919 H 117.83 -2.25835 2.16142 0
M  V30 920 H 117.05 -0.492746 3.91108 0
M  V30 921 H 118.338 -1.09708 4.96832 0
M  V30 922 H 117.736 -4.09467 3.90325 0
M  V30 923 H 116.293 -4.44448 4.7677 0
M  V30 924 N 119.726 -1.57421 0.075193 0
M  V30 925 C 120.656 -2.15942 -0.888324 0
M  V30 926 C 121.637 -1.08737 -1.30806 0
M  V30 927 O 122.822 -1.36787 -1.37851 0
M  V30 928 C 119.952 -2.72379 -2.1547 0
M  V30 929 C 118.906 -3.8478 -1.87425 0
M  V30 930 C 118.232 -4.27834 -3.20721 0
M  V30 931 C 119.532 -5.08869 -1.17684 0
M  V30 932 H 121.226 -2.96705 -0.400799 0
M  V30 933 H 118.772 -1.42723 -0.191342 0
M  V30 934 H 120.725 -3.11965 -2.83295 0
M  V30 935 H 119.449 -1.88841 -2.6647 0
M  V30 936 H 118.108 -3.45703 -1.22004 0
M  V30 937 H 117.756 -3.41214 -3.6957 0
M  V30 938 H 117.456 -5.03605 -3.02746 0
M  V30 939 H 118.98 -4.70039 -3.89738 0
M  V30 940 H 120.394 -5.4575 -1.75584 0
M  V30 941 H 118.791 -5.8994 -1.09956 0
M  V30 942 H 119.861 -4.84648 -0.156453 0
M  V30 943 N 121.204 0.198386 -1.56346 0
M  V30 944 C 122.62 0.549085 -1.49857 0
M  V30 945 C 122.82 1.86016 -0.774611 0
M  V30 946 O 121.876 2.50416 -0.323776 0
M  V30 947 C 123.189 0.606868 -2.94512 0
M  V30 948 C 124.737 0.695925 -3.05165 0
M  V30 949 C 125.212 0.784848 -4.51225 0
M  V30 950 N 126.703 0.848463 -4.55363 0
M  V30 951 C 127.438 0.937378 -5.65686 0
M  V30 952 N 126.934 0.9888 -6.85707 0
M  V30 953 N 128.727 0.974312 -5.53592 0
M  V30 954 H 120.878 -0.661655 -2.01831 0
M  V30 955 H 123.141 -0.235261 -0.918344 0
M  V30 956 H 122.847 -0.28732 -3.50524 0
M  V30 957 H 122.721 1.46268 -3.47686 0
M  V30 958 H 125.108 1.58055 -2.49204 0
M  V30 959 H 125.189 -0.186022 -2.55123 0
M  V30 960 H 124.833 -0.0954072 -5.0781 0
M  V30 961 H 124.763 1.68255 -4.98997 0
M  V30 962 H 127.254 0.818103 -3.68938 0
M  V30 963 H 127.567 1.05707 -7.65536 0
M  V30 964 H 125.912 0.957534 -6.88372 0
M  V30 965 H 129.103 0.930954 -4.58749 0
M  V30 966 H 129.276 1.04015 -6.39597 0
M  V30 967 N 122.682 1.50554 0.465978 0
M  V30 968 C 123.907 1.65838 1.24549 0
M  V30 969 C 124.332 0.343486 1.84937 0
M  V30 970 O 123.69 -0.69324 1.67523 0
M  V30 971 C 123.738 2.75533 2.32624 0
M  V30 972 O 122.842 2.37142 3.37398 0
M  V30 973 H 122.183 0.553893 0.366194 0
M  V30 974 H 124.713 1.96959 0.553927 0
M  V30 975 H 124.723 2.98763 2.77857 0
M  V30 976 H 123.398 3.70962 1.88043 0
M  V30 977 H 121.975 2.24377 2.97841 0
M  V30 978 N 124.16 -0.719506 1.40217 0
M  V30 979 C 125.123 -1.8153 1.39927 0
M  V30 980 C 126.123 -1.58095 0.293723 0
M  V30 981 O 127.313 -1.65209 0.552429 0
M  V30 982 C 124.445 -3.19561 1.18716 0
M  V30 983 H 125.638 -1.83186 2.37451 0
M  V30 984 H 123.191 -0.924746 1.26008 0
M  V30 985 H 123.926 -3.23557 0.219366 0
M  V30 986 H 123.711 -3.3797 1.98793 0
M  V30 987 H 125.201 -3.99598 1.21291 0
M  V30 988 N 125.638 -1.25649 -0.95132 0
M  V30 989 C 127.049 -1.09654 -1.51106 0
M  V30 990 C 127.4 0.326615 -1.93462 0
M  V30 991 O 126.525 1.21697 -1.78938 0
M  V30 992 C 127.12 -1.98437 -2.74605 0
M  V30 993 C 125.679 -1.86618 -3.2688 0
M  V30 994 C 124.826 -1.9239 -1.99703 0
M  V30 995 H 127.777 -1.38887 -0.767865 0
M  V30 996 H 127.798 -1.5263 -3.48546 0
M  V30 997 H 127.31 -3.02009 -2.43746 0
M  V30 998 H 125.411 -0.859421 -3.62553 0
M  V30 999 H 125.524 -2.71607 -3.94673 0
M  V30 1000 H 123.888 -1.36317 -2.15151 0
M  V30 1001 H 124.671 -2.97573 -1.71188 0
M  V30 1002 N 127.117 1.15442 -1.07289 0
M  V30 1003 C 128.533 1.38201 -0.798288 0
M  V30 1004 C 128.733 1.92429 0.597769 0
M  V30 1005 O 127.789 2.12962 1.3566 0
M  V30 1006 C 129.102 2.35357 -1.87156 0
M  V30 1007 C 130.65 2.49021 -1.89624 0
M  V30 1008 C 131.125 3.49468 -2.96034 0
M  V30 1009 N 132.616 3.57003 -2.95132 0
M  V30 1010 C 133.351 4.34543 -3.74112 0
M  V30 1011 N 132.847 5.15421 -4.6294 0
M  V30 1012 N 134.64 4.29625 -3.62462 0
M  V30 1013 H 126.791 0.78584 -1.97328 0
M  V30 1014 H 129.054 0.408065 -0.855679 0
M  V30 1015 H 128.76 2.02626 -2.87464 0
M  V30 1016 H 128.634 3.35129 -1.73114 0
M  V30 1017 H 131.021 2.81051 -0.899687 0
M  V30 1018 H 131.102 1.4925 -2.07745 0
M  V30 1019 H 130.746 3.18173 -3.95889 0
M  V30 1020 H 130.676 4.48992 -2.75161 0
M  V30 1021 H 133.167 2.99276 -2.30743 0
M  V30 1022 H 133.48 5.7183 -5.19837 0
M  V30 1023 H 131.825 5.14729 -4.66989 0
M  V30 1024 H 135.016 3.65505 -2.92444 0
M  V30 1025 H 135.189 4.89807 -4.24256 0
M  V30 1026 N 128.595 0.856903 1.32268 0
M  V30 1027 C 129.558 0.308171 2.27119 0
M  V30 1028 C 130.558 -0.533421 1.51695 0
M  V30 1029 O 131.748 -0.344607 1.70757 0
M  V30 1030 C 128.88 -0.563757 3.36206 0
M  V30 1031 H 130.073 1.14535 2.77167 0
M  V30 1032 H 127.626 0.631421 1.42978 0
M  V30 1033 H 128.361 -1.42266 2.91429 0
M  V30 1034 H 128.146 0.0386749 3.92081 0
M  V30 1035 H 129.636 -0.940386 4.06874 0
M  V30 1036 N 130.073 -1.45103 0.615059 0
M  V30 1037 C 131.02 -2.30586 -0.0993978 0
M  V30 1038 C 131.99 -1.42544 -0.852669 0
M  V30 1039 O 133.175 -1.71465 -0.836917 0
M  V30 1040 C 130.315 -3.27572 -1.08583 0
M  V30 1041 C 129.428 -4.30717 -0.332656 0
M  V30 1042 C 128.563 -5.14807 -1.30947 0
M  V30 1043 C 127.602 -6.09673 -0.544538 0
M  V30 1044 N 126.739 -6.86517 -1.47101 0
M  V30 1045 H 131.579 -2.91144 0.635542 0
M  V30 1046 H 129.116 -1.4346 0.325206 0
M  V30 1047 H 131.074 -3.82276 -1.67095 0
M  V30 1048 H 129.704 -2.68751 -1.78809 0
M  V30 1049 H 128.756 -3.78615 0.368107 0
M  V30 1050 H 130.068 -4.98102 0.263842 0
M  V30 1051 H 129.222 -5.73948 -1.96643 0
M  V30 1052 H 127.961 -4.47458 -1.9399 0
M  V30 1053 H 126.966 -5.49656 0.126003 0
M  V30 1054 H 128.191 -6.79052 0.080947 0
M  V30 1055 H 126.137 -6.21851 -2.08895 0
M  V30 1056 H 126.054 -7.50281 -0.928137 0
M  V30 1057 H 127.322 -7.50194 -2.11731 0
M  V30 1058 N 131.551 -0.354651 -1.53558 0
M  V30 1059 C 132.498 0.496968 -2.25386 0
M  V30 1060 C 133.468 1.0865 -1.25636 0
M  V30 1061 O 134.653 1.12104 -1.54394 0
M  V30 1062 C 131.793 1.63637 -3.03837 0
M  V30 1063 C 130.906 1.07307 -4.18461 0
M  V30 1064 C 130.041 2.18068 -4.84376 0
M  V30 1065 C 129.08 1.59147 -5.91049 0
M  V30 1066 N 128.217 2.63695 -6.50699 0
M  V30 1067 H 133.057 -0.122075 -2.9775 0
M  V30 1068 H 130.594 -0.0720154 -1.46924 0
M  V30 1069 H 132.552 2.30734 -3.47589 0
M  V30 1070 H 131.182 2.22623 -2.33749 0
M  V30 1071 H 130.234 0.292708 -3.79272 0
M  V30 1072 H 131.546 0.602193 -4.95152 0
M  V30 1073 H 130.7 2.93007 -5.31255 0
M  V30 1074 H 129.439 2.68504 -4.07133 0
M  V30 1075 H 128.444 0.827175 -5.43542 0
M  V30 1076 H 129.669 1.09549 -6.70206 0
M  V30 1077 H 127.615 3.13365 -5.76315 0
M  V30 1078 H 127.532 2.21263 -7.22896 0
M  V30 1079 H 128.8 3.3837 -7.02229 0
M  V30 1080 N 133.029 1.57378 -0.0835403 0
M  V30 1081 C 133.959 2.1641 0.87686 0
M  V30 1082 C 134.94 1.09429 1.30228 0
M  V30 1083 O 136.125 1.37516 1.37124 0
M  V30 1084 C 133.255 2.73517 2.14022 0
M  V30 1085 C 132.209 3.85769 1.85381 0
M  V30 1086 C 131.535 4.29529 3.18448 0
M  V30 1087 C 132.835 5.09486 1.14984 0
M  V30 1088 H 134.529 2.96914 0.385059 0
M  V30 1089 H 132.075 1.42823 0.18377 0
M  V30 1090 H 134.028 3.13463 2.81636 0
M  V30 1091 H 132.752 1.90252 2.65465 0
M  V30 1092 H 131.411 3.46345 1.20169 0
M  V30 1093 H 131.059 3.43169 3.67755 0
M  V30 1094 H 130.759 5.05204 3.00071 0
M  V30 1095 H 132.283 4.72099 3.8724 0
M  V30 1096 H 133.697 5.46674 1.72687 0
M  V30 1097 H 132.094 5.90515 1.06826 0
M  V30 1098 H 133.164 4.84724 0.130749 0
M  V30 1099 N 134.507 -0.190092 1.56449 0
M  V30 1100 C 135.417 -1.25591 1.98152 0
M  V30 1101 C 136.433 -1.49519 0.889944 0
M  V30 1102 O 137.609 -1.62036 1.19609 0
M  V30 1103 C 134.674 -2.57916 2.3169 0
M  V30 1104 C 133.735 -2.42015 3.5458 0
M  V30 1105 C 132.968 -3.6803 3.8651 0
M  V30 1106 O 133.191 -4.72413 3.1966 0
M  V30 1107 O 132.125 -3.6326 4.79923 0
M  V30 1108 H 135.951 -0.931988 2.89046 0
M  V30 1109 H 133.536 -0.395488 1.4407 0
M  V30 1110 H 135.418 -3.36008 2.54316 0
M  V30 1111 H 134.093 -2.89925 1.43963 0
M  V30 1112 H 133 -1.62017 3.37196 0
M  V30 1113 H 134.333 -2.14937 4.4279 0
M  V30 1114 N 135.985 -1.50799 -0.457987 0
M  V30 1115 C 136.932 -1.70617 -1.5543 0
M  V30 1116 C 137.902 -0.547562 -1.56815 0
M  V30 1117 O 139.087 -0.779647 -1.74144 0
M  V30 1118 C 136.227 -1.81831 -2.93311 0
M  V30 1119 C 135.34 -3.09278 -3.01615 0
M  V30 1120 C 134.475 -3.11209 -4.30491 0
M  V30 1121 C 133.514 -4.33055 -4.32585 0
M  V30 1122 N 132.651 -4.32652 -5.52952 0
M  V30 1123 H 137.491 -2.64207 -1.37836 0
M  V30 1124 H 135.028 -1.30959 -0.669937 0
M  V30 1125 H 136.986 -1.86314 -3.73287 0
M  V30 1126 H 135.616 -0.916685 -3.0951 0
M  V30 1127 H 134.668 -3.14203 -2.1443 0
M  V30 1128 H 135.98 -3.99233 -2.99022 0
M  V30 1129 H 135.134 -3.14494 -5.18824 0
M  V30 1130 H 133.873 -2.19106 -4.35711 0
M  V30 1131 H 132.878 -4.29969 -3.42647 0
M  V30 1132 H 134.103 -5.264 -4.29046 0
M  V30 1133 H 132.049 -3.43409 -5.58933 0
M  V30 1134 H 131.966 -5.16392 -5.52155 0
M  V30 1135 H 133.234 -4.40101 -6.43375 0
M  V30 1136 N 137.463 0.71206 -1.40597 0
M  V30 1137 C 138.393 1.83889 -1.43899 0
M  V30 1138 C 139.374 1.67442 -0.299504 0
M  V30 1139 O 140.559 1.87421 -0.508624 0
M  V30 1140 C 137.689 3.21877 -1.30431 0
M  V30 1141 C 136.643 3.53002 -2.42019 0
M  V30 1142 C 135.969 4.90172 -2.13626 0
M  V30 1143 C 137.269 3.53643 -3.84362 0
M  V30 1144 H 138.963 1.81383 -2.38203 0
M  V30 1145 H 136.509 0.871237 -1.14654 0
M  V30 1146 H 138.462 4.00404 -1.31357 0
M  V30 1147 H 137.186 3.24968 -0.326049 0
M  V30 1148 H 135.845 2.76818 -2.40349 0
M  V30 1149 H 135.493 4.89869 -1.14182 0
M  V30 1150 H 135.193 5.11962 -2.88389 0
M  V30 1151 H 136.717 5.71028 -2.1624 0
M  V30 1152 H 138.131 4.22203 -3.87837 0
M  V30 1153 H 136.528 3.86961 -4.58673 0
M  V30 1154 H 137.598 2.52954 -4.13693 0
M  V30 1155 N 138.941 1.26152 0.944643 0
M  V30 1156 C 140.189 1.11271 1.6871 0
M  V30 1157 C 140.51 -0.345166 1.91921 0
M  V30 1158 O 139.78 -1.24387 1.51343 0
M  V30 1159 H 138.36 0.408783 0.625224 0
M  V30 1160 H 141.022 1.58427 1.1352 0
M  V30 1161 H 140.118 1.62879 2.66227 0
M  V30 1162 N 140.419 -1.14872 1.07899 0
M  V30 1163 C 141.665 -1.86064 0.806725 0
M  V30 1164 C 141.998 -1.82434 -0.665706 0
M  V30 1165 O 141.273 -1.25138 -1.48899 0
M  V30 1166 C 141.556 -3.34929 1.32267 0
M  V30 1167 C 141.409 -3.47161 2.86006 0
M  V30 1168 C 142.728 -4.29863 0.943717 0
M  V30 1169 H 139.847 -0.675591 0.294526 0
M  V30 1170 H 142.489 -1.34925 1.33773 0
M  V30 1171 H 140.639 -3.78611 0.870974 0
M  V30 1172 H 142.311 -3.12302 3.39507 0
M  V30 1173 H 140.554 -2.88539 3.23925 0
M  V30 1174 H 141.225 -4.51777 3.17177 0
M  V30 1175 H 143.701 -3.9417 1.33302 0
M  V30 1176 H 142.577 -5.32494 1.33198 0
M  V30 1177 H 142.838 -4.41846 -0.149796 0
M  V30 1178 N 141.898 -0.863906 -1.31812 0
M  V30 1179 C 143.128 -0.485406 -2.00817 0
M  V30 1180 C 143.536 0.925007 -1.65046 0
M  V30 1181 O 142.879 1.61653 -0.872574 0
M  V30 1182 C 142.941 -0.555589 -3.55181 0
M  V30 1183 C 142.605 -1.92654 -4.14407 0
M  V30 1184 C 143.602 -2.89324 -4.31958 0
M  V30 1185 C 141.287 -2.2262 -4.50273 0
M  V30 1186 C 143.281 -4.14108 -4.84555 0
M  V30 1187 C 140.968 -3.47654 -5.02573 0
M  V30 1188 C 141.966 -4.43214 -5.19664 0
M  V30 1189 O 141.654 -5.66033 -5.70843 0
M  V30 1190 H 141.386 -0.188224 -0.649267 0
M  V30 1191 H 143.94 -1.16514 -1.69156 0
M  V30 1192 H 142.17 0.181037 -3.86276 0
M  V30 1193 H 143.859 -0.19138 -4.05449 0
M  V30 1194 H 144.625 -2.6748 -4.04573 0
M  V30 1195 H 140.504 -1.4902 -4.3625 0
M  V30 1196 H 144.048 -4.88703 -4.9781 0
M  V30 1197 H 139.945 -3.69345 -5.29391 0
M  V30 1198 H 140.713 -5.6812 -5.89222 0
M  V30 1199 N 143.376 1.44774 -0.622745 0
M  V30 1200 C 144.601 2.06999 -0.128968 0
M  V30 1201 C 145.026 1.4617 1.1839 0
M  V30 1202 O 144.384 0.560007 1.72434 0
M  V30 1203 C 144.432 3.60595 -0.0188351 0
M  V30 1204 O 143.536 3.99398 1.02739 0
M  V30 1205 H 142.877 0.659047 -0.0809544 0
M  V30 1206 H 145.407 1.85784 -0.85705 0
M  V30 1207 H 145.417 4.07627 0.174476 0
M  V30 1208 H 144.092 4.04252 -0.977384 0
M  V30 1209 H 142.669 3.64011 0.809326 0
M  V30 1210 N 144.854 0.36279 1.53368 0
M  V30 1211 C 145.817 -0.472679 2.24273 0
M  V30 1212 C 146.817 -1.012 1.24961 0
M  V30 1213 O 148.007 -0.898194 1.49259 0
M  V30 1214 C 145.139 -1.66039 2.97731 0
M  V30 1215 H 146.332 0.14773 2.99536 0
M  V30 1216 H 143.885 0.114434 1.55881 0
M  V30 1217 H 144.62 -2.31896 2.26704 0
M  V30 1218 H 144.405 -1.28066 3.70596 0
M  V30 1219 H 145.895 -2.25252 3.51641 0
M  V30 1220 N 146.332 -1.57332 0.0918853 0
M  V30 1221 C 147.572 -1.96117 -0.575988 0
M  V30 1222 C 147.936 -0.972499 -1.65549 0
M  V30 1223 O 149.137 -1.24872 -2.38034 0
M  V30 1224 C 147.408 -3.39407 -1.11973 0
M  V30 1225 S 148.967 -4.00185 -1.79992 0
M  V30 1226 H 145.785 -0.685682 -0.188045 0
M  V30 1227 H 148.387 -1.94755 0.170525 0
M  V30 1228 H 147.091 -4.09131 -0.322504 0
M  V30 1229 H 146.622 -3.44358 -1.90214 0
M  V30 1230 H 148.637 -3.88728 -3.08391 0
M  V30 1231 N 147.81 0.181792 -1.56548 0
M  V30 1232 C 148.757 1.22521 -1.95595 0
M  V30 1233 C 149.727 1.4454 -0.818373 0
M  V30 1234 O 150.912 1.57454 -1.07763 0
M  V30 1235 C 148.052 2.56193 -2.31212 0
M  V30 1236 C 147.165 2.41641 -3.58097 0
M  V30 1237 C 146.3 3.68108 -3.82975 0
M  V30 1238 C 145.339 3.48445 -5.03242 0
M  V30 1239 N 144.476 4.66956 -5.24306 0
M  V30 1240 H 149.316 0.885226 -2.84548 0
M  V30 1241 H 146.853 0.425718 -1.40805 0
M  V30 1242 H 148.811 3.34088 -2.49882 0
M  V30 1243 H 147.441 2.88208 -1.45382 0
M  V30 1244 H 146.493 1.54976 -3.474 0
M  V30 1245 H 147.805 2.23052 -4.46149 0
M  V30 1246 H 146.959 4.54441 -4.01956 0
M  V30 1247 H 145.698 3.89666 -2.93278 0
M  V30 1248 H 144.703 2.60499 -4.8417 0
M  V30 1249 H 145.928 3.2832 -5.9446 0
M  V30 1250 H 143.874 4.88752 -4.37559 0
M  V30 1251 H 143.791 4.51242 -6.06561 0
M  V30 1252 H 145.059 5.54602 -5.47756 0
M  V30 1253 N 149.288 1.51039 0.449983 0
M  V30 1254 C 150.251 1.70863 1.5277 0
M  V30 1255 C 151.251 0.578846 1.5002 0
M  V30 1256 O 152.441 0.846213 1.52266 0
M  V30 1257 C 149.573 1.75341 2.9235 0
M  V30 1258 H 150.766 2.67034 1.36502 0
M  V30 1259 H 148.319 1.40838 0.677812 0
M  V30 1260 H 149.054 0.809383 3.14037 0
M  V30 1261 H 148.839 2.57436 2.95752 0
M  V30 1262 H 150.329 1.92559 3.70555 0
M  V30 1263 N 150.766 -0.704594 1.40972 0
M  V30 1264 C 151.676 -1.84856 1.44448 0
M  V30 1265 C 152.692 -1.70726 0.335961 0
M  V30 1266 O 153.868 -1.92799 0.582276 0
M  V30 1267 C 150.933 -3.20758 1.31587 0
M  V30 1268 C 149.994 -3.47063 2.52677 0
M  V30 1269 C 149.227 -4.76481 2.4042 0
M  V30 1270 O 149.45 -5.52341 1.42391 0
M  V30 1271 O 148.384 -5.03367 3.30007 0
M  V30 1272 H 152.21 -1.8488 2.40942 0
M  V30 1273 H 149.795 -0.85647 1.22413 0
M  V30 1274 H 151.677 -4.01913 1.26665 0
M  V30 1275 H 150.352 -3.21438 0.382049 0
M  V30 1276 H 149.259 -2.65873 2.63177 0
M  V30 1277 H 150.592 -3.5119 3.44858 0
M  V30 1278 N 152.244 -1.26651 -0.937939 0
M  V30 1279 C 153.154 -1.10276 -2.07066 0
M  V30 1280 C 154.17 -0.0354197 -1.73964 0
M  V30 1281 O 155.346 -0.239816 -1.99967 0
M  V30 1282 C 152.411 -0.740887 -3.38691 0
M  V30 1283 C 151.472 -1.88799 -3.85556 0
M  V30 1284 C 150.705 -1.54329 -5.10899 0
M  V30 1285 O 150.928 -0.446494 -5.6865 0
M  V30 1286 O 149.862 -2.37911 -5.52885 0
M  V30 1287 H 153.688 -2.05309 -2.23789 0
M  V30 1288 H 151.273 -1.05743 -1.0554 0
M  V30 1289 H 153.155 -0.55195 -4.1777 0
M  V30 1290 H 151.83 0.180022 -3.23199 0
M  V30 1291 H 150.737 -2.13191 -3.07409 0
M  V30 1292 H 152.07 -2.78874 -4.05574 0
M  V30 1293 N 153.722 1.14298 -1.08507 0
M  V30 1294 C 154.947 1.8976 -0.837001 0
M  V30 1295 C 155.372 1.78097 0.605228 0
M  V30 1296 O 154.73 1.12188 1.4242 0
M  V30 1297 C 154.778 3.37685 -1.26495 0
M  V30 1298 O 153.882 4.10281 -0.417514 0
M  V30 1299 H 153.223 0.590365 -0.303917 0
M  V30 1300 H 155.753 1.44672 -1.44676 0
M  V30 1301 H 155.763 3.88501 -1.24625 0
M  V30 1302 H 154.438 3.45492 -2.31534 0
M  V30 1303 H 153.015 3.69536 -0.499722 0
M  V30 1304 N 155.201 0.870884 1.31352 0
M  V30 1305 C 156.441 0.488783 1.9847 0
M  V30 1306 C 156.805 -0.941536 1.67329 0
M  V30 1307 O 158.006 -1.42903 2.27667 0
M  V30 1308 C 156.277 0.739688 3.49662 0
M  V30 1309 S 157.836 0.457582 4.36408 0
M  V30 1310 H 154.654 0.18242 0.6872 0
M  V30 1311 H 157.256 1.12711 1.59739 0
M  V30 1312 H 155.96 1.77944 3.69816 0
M  V30 1313 H 155.491 0.0883905 3.93301 0
M  V30 1314 H 157.506 -0.709752 4.91098 0
M  V30 1315 N 156.679 -1.44442 0.630414 0
M  V30 1316 C 157.626 -2.30678 -0.0749355 0
M  V30 1317 C 158.596 -1.4344 -0.837502 0
M  V30 1318 O 159.781 -1.72343 -0.818684 0
M  V30 1319 C 156.921 -3.28706 -1.05103 0
M  V30 1320 C 156.034 -4.31046 -0.286954 0
M  V30 1321 C 155.169 -5.16167 -1.2548 0
M  V30 1322 C 154.208 -6.10216 -0.479843 0
M  V30 1323 N 153.345 -6.88039 -1.39811 0
M  V30 1324 H 158.185 -2.90454 0.666386 0
M  V30 1325 H 155.722 -1.43107 0.340404 0
M  V30 1326 H 157.68 -3.84027 -1.63031 0
M  V30 1327 H 156.31 -2.70632 -1.75949 0
M  V30 1328 H 155.362 -3.78203 0.408243 0
M  V30 1329 H 156.674 -4.97794 0.316657 0
M  V30 1330 H 155.828 -5.76002 -1.90544 0
M  V30 1331 H 154.567 -4.49491 -1.89233 0
M  V30 1332 H 153.572 -5.49491 0.184295 0
M  V30 1333 H 154.797 -6.78928 0.152965 0
M  V30 1334 H 152.743 -6.24032 -2.02287 0
M  V30 1335 H 152.66 -7.51223 -0.848508 0
M  V30 1336 H 153.928 -7.52397 -2.03762 0
M  V30 1337 N 158.157 -0.370918 -1.53173 0
M  V30 1338 C 159.397 0.217106 -2.03244 0
M  V30 1339 C 159.761 1.45558 -1.25207 0
M  V30 1340 O 160.962 2.11957 -1.65311 0
M  V30 1341 C 159.233 0.496664 -3.53932 0
M  V30 1342 S 160.792 1.0576 -4.25864 0
M  V30 1343 H 157.61 0.0627827 -0.708223 0
M  V30 1344 H 160.212 -0.515019 -1.88594 0
M  V30 1345 H 158.916 -0.412096 -4.08326 0
M  V30 1346 H 158.447 1.25772 -3.72753 0
M  V30 1347 H 160.462 2.34145 -4.37482 0
M  V30 1348 N 159.635 1.57281 -0.100228 0
M  V30 1349 C 160.583 2.15542 0.874328 0
M  V30 1350 C 161.577 1.09962 1.28859 0
M  V30 1351 O 162.783 1.28298 1.26252 0
M  V30 1352 H 159.158 0.689567 0.300003 0
M  V30 1353 H 161.129 2.96241 0.35829 0
M  V30 1354 C 159.878 2.75454 2.1218 0
M  V30 1355 H 159.201 3.56384 1.81193 0
M  V30 1356 H 160.641 3.19781 2.78417 0
M  V30 1357 C 159.1 1.71602 2.89921 0
M  V30 1358 O 159.63 1.15804 3.84646 0
M  V30 1359 N 157.836 1.41975 2.53558 0
M  V30 1360 H 157.383 1.87539 1.76598 0
M  V30 1361 H 157.341 0.727274 3.05873 0
M  V30 1362 N 161.113 -0.173488 1.56642 0
M  V30 1363 C 162.361 -0.888706 1.81512 0
M  V30 1364 C 162.682 -1.82875 0.676872 0
M  V30 1365 O 161.952 -1.93536 -0.303414 0
M  V30 1366 H 160.532 -0.331164 0.669582 0
M  V30 1367 H 163.194 -0.173823 1.94123 0
M  V30 1368 H 162.29 -1.46691 2.75478 0
M  V30 1369 N 162.591 -1.51276 -0.441967 0
M  V30 1370 C 163.837 -1.6492 -1.1905 0
M  V30 1371 C 164.192 -0.358731 -1.89026 0
M  V30 1372 O 163.485 0.645193 -1.8041 0
M  V30 1373 C 163.679 -2.78746 -2.23686 0
M  V30 1374 C 163.508 -4.18737 -1.63979 0
M  V30 1375 C 162.278 -4.84739 -1.42674 0
M  V30 1376 C 164.476 -5.01988 -1.11858 0
M  V30 1377 N 162.458 -6.08858 -0.785159 0
M  V30 1378 C 163.829 -6.17071 -0.601989 0
M  V30 1379 C 165.884 -4.87551 -1.0099 0
M  V30 1380 C 164.587 -7.19299 0.0126012 0
M  V30 1381 C 166.613 -5.89983 -0.409206 0
M  V30 1382 C 165.975 -7.04333 0.0968651 0
M  V30 1383 H 162.074 -0.657416 -0.423471 0
M  V30 1384 H 164.658 -1.8849 -0.48782 0
M  V30 1385 H 162.829 -2.56848 -2.91348 0
M  V30 1386 H 164.561 -2.81595 -2.90666 0
M  V30 1387 H 161.316 -4.42528 -1.68719 0
M  V30 1388 H 161.74 -6.75282 -0.481942 0
M  V30 1389 H 166.382 -3.99401 -1.38703 0
M  V30 1390 H 164.1 -8.071 0.401879 0
M  V30 1391 H 167.686 -5.8088 -0.327079 0
M  V30 1392 H 166.566 -7.82238 0.554373 0
M  V30 1393 N 164.069 0.697108 -1.41344 0
M  V30 1394 C 165.016 1.81106 -1.43071 0
M  V30 1395 C 165.986 1.63632 -0.285275 0
M  V30 1396 O 167.171 1.84504 -0.486091 0
M  V30 1397 C 164.311 3.18975 -1.31715 0
M  V30 1398 C 163.424 3.47892 -2.56115 0
M  V30 1399 C 162.559 4.75367 -2.37064 0
M  V30 1400 C 161.598 4.97247 -3.56948 0
M  V30 1401 N 160.735 6.15947 -3.36977 0
M  V30 1402 H 165.575 1.78965 -2.38276 0
M  V30 1403 H 163.112 0.873975 -1.18322 0
M  V30 1404 H 165.07 3.98615 -1.23133 0
M  V30 1405 H 163.7 3.20297 -0.401183 0
M  V30 1406 H 162.752 2.62669 -2.75153 0
M  V30 1407 H 164.064 3.59962 -3.45295 0
M  V30 1408 H 163.218 5.63059 -2.25941 0
M  V30 1409 H 161.957 4.65541 -1.45338 0
M  V30 1410 H 160.962 4.08004 -3.68527 0
M  V30 1411 H 162.187 5.08934 -4.49626 0
M  V30 1412 H 160.133 6.07336 -2.47949 0
M  V30 1413 H 160.05 6.28777 -4.19732 0
M  V30 1414 H 161.318 7.06377 -3.29623 0
M  V30 1415 N 165.547 1.27147 0.931209 0
M  V30 1416 C 166.495 1.09398 2.05268 0
M  V30 1417 C 167.489 0.0180591 1.6939 0
M  V30 1418 O 168.695 0.17551 1.79142 0
M  V30 1419 H 165.07 0.336986 0.672268 0
M  V30 1420 H 167.041 2.04416 2.17386 0
M  V30 1421 C 165.79 0.75424 3.39421 0
M  V30 1422 H 165.113 1.57404 3.67511 0
M  V30 1423 H 166.553 0.669903 4.18674 0
M  V30 1424 C 165.012 -0.541197 3.32525 0
M  V30 1425 O 165.542 -1.57664 3.69466 0
M  V30 1426 N 163.748 -0.535517 2.85623 0
M  V30 1427 H 163.295 0.307511 2.55758 0
M  V30 1428 H 163.253 -1.40236 2.81392 0
M  V30 1429 N 167.025 -1.13721 1.09112 0
M  V30 1430 C 168.436 -1.6648 0.845068 0
M  V30 1431 C 168.787 -1.85911 -0.62701 0
M  V30 1432 O 167.912 -1.57556 -1.48341 0
M  V30 1433 C 168.507 -3.02413 1.52748 0
M  V30 1434 C 167.066 -3.52176 1.32849 0
M  V30 1435 C 166.213 -2.27492 1.58564 0
M  V30 1436 H 169.164 -0.976872 1.25072 0
M  V30 1437 H 169.185 -3.68223 0.958752 0
M  V30 1438 H 168.697 -2.88238 2.59885 0
M  V30 1439 H 166.798 -3.7156 0.278137 0
M  V30 1440 H 166.911 -4.32499 2.0611 0
M  V30 1441 H 165.275 -2.33923 1.00758 0
M  V30 1442 H 166.058 -2.15886 2.66924 0
M  V30 1443 N 168.503 -0.877838 -1.30888 0
M  V30 1444 C 169.451 -0.328662 -2.30266 0
M  V30 1445 C 170.445 0.560496 -1.59859 0
M  V30 1446 O 171.651 0.445722 -1.74394 0
M  V30 1447 H 168.026 -0.0876142 -0.746879 0
M  V30 1448 H 169.997 -1.18061 -2.74051 0
M  V30 1449 C 168.746 0.448071 -3.44801 0
M  V30 1450 H 168.069 -0.226859 -3.99156 0
M  V30 1451 H 169.509 0.797541 -4.16432 0
M  V30 1452 C 167.968 1.64239 -2.94155 0
M  V30 1453 O 168.498 2.74175 -2.93583 0
M  V30 1454 N 166.704 1.47716 -2.50256 0
M  V30 1455 H 166.251 0.582821 -2.5092 0
M  V30 1456 H 166.209 2.27765 -2.16727 0
M  V30 1457 N 169.982 1.44106 -0.638065 0
M  V30 1458 C 171.393 1.85316 -0.226894 0
M  V30 1459 C 171.744 1.53399 1.22324 0
M  V30 1460 O 170.869 0.975463 1.93167 0
M  V30 1461 C 171.464 3.3637 -0.405013 0
M  V30 1462 C 170.023 3.76369 -0.0482902 0
M  V30 1463 C 169.17 2.67921 -0.715108 0
M  V30 1464 H 172.121 1.34474 -0.842764 0
M  V30 1465 H 172.142 3.7885 0.354 0
M  V30 1466 H 171.654 3.59569 -1.46053 0
M  V30 1467 H 169.755 3.58784 1.00522 0
M  V30 1468 H 169.868 4.76856 -0.463187 0
M  V30 1469 H 168.232 2.54259 -0.149753 0
M  V30 1470 H 169.015 2.93951 -1.77335 0
M  V30 1471 N 171.46 0.379036 1.52974 0
M  V30 1472 C 172.685 -0.209353 2.06341 0
M  V30 1473 C 173.11 -1.40583 1.24972 0
M  V30 1474 O 172.468 -1.79246 0.272155 0
M  V30 1475 C 172.516 -0.567786 3.56102 0
M  V30 1476 O 171.62 -1.66318 3.77375 0
M  V30 1477 H 170.961 -0.0272919 0.663439 0
M  V30 1478 H 173.491 0.543536 1.97248 0
M  V30 1479 H 173.501 -0.835003 3.99364 0
M  V30 1480 H 172.176 0.307013 4.14765 0
M  V30 1481 H 170.753 -1.39048 3.46006 0
M  V30 1482 N 172.938 -1.57226 0.108567 0
M  V30 1483 C 174.349 -1.8195 -0.418464 0
M  V30 1484 C 174.7 -1.02508 -1.67292 0
M  V30 1485 O 173.825 -0.258496 -2.14851 0
M  V30 1486 C 174.42 -3.30028 -0.765979 0
M  V30 1487 C 172.979 -3.55469 -1.23769 0
M  V30 1488 C 172.126 -2.7625 -0.241106 0
M  V30 1489 H 175.077 -1.55149 0.33384 0
M  V30 1490 H 175.098 -3.44086 -1.62434 0
M  V30 1491 H 174.61 -3.87821 0.147219 0
M  V30 1492 H 172.711 -3.03022 -2.16814 0
M  V30 1493 H 172.824 -4.6408 -1.19022 0
M  V30 1494 H 171.188 -2.44133 -0.72602 0
M  V30 1495 H 171.971 -3.36797 0.665007 0
M  V30 1496 N 174.416 0.165178 -1.56732 0
M  V30 1497 C 175.644 0.896218 -1.86482 0
M  V30 1498 C 176.059 1.75555 -0.694675 0
M  V30 1499 O 175.416 1.79379 0.33607 0
M  V30 1500 C 175.467 1.76792 -3.1532 0
M  V30 1501 O 175.188 0.943239 -4.27825 0
M  V30 1502 C 176.689 2.6081 -3.58459 0
M  V30 1503 H 173.909 0.260064 -0.618553 0
M  V30 1504 H 176.453 0.163428 -2.03846 0
M  V30 1505 H 174.608 2.45398 -2.99764 0
M  V30 1506 H 175.022 1.53998 -5.01383 0
M  V30 1507 H 176.496 3.17579 -4.51495 0
M  V30 1508 H 176.973 3.35977 -2.82872 0
M  V30 1509 H 177.579 1.97526 -3.76648 0
M  V30 1510 N 175.894 1.51508 0.433938 0
M  V30 1511 C 177.305 1.56784 1.01369 0
M  V30 1512 C 177.656 0.393349 1.92217 0
M  V30 1513 O 176.781 -0.489441 2.10792 0
M  V30 1514 C 177.376 2.84144 1.8452 0
M  V30 1515 C 175.935 2.9198 2.37539 0
M  V30 1516 C 175.082 2.51482 1.16843 0
M  V30 1517 H 178.033 1.57236 0.215081 0
M  V30 1518 H 178.054 2.68098 2.70007 0
M  V30 1519 H 177.566 3.69607 1.18373 0
M  V30 1520 H 175.667 2.10955 3.0713 0
M  V30 1521 H 175.78 3.95704 2.70103 0
M  V30 1522 H 174.144 2.04758 1.51481 0
M  V30 1523 H 174.927 3.39293 0.523015 0
M  V30 1524 N 177.372 -0.689602 1.41712 0
M  V30 1525 C 178.783 -1.26973 1.36875 0
M  V30 1526 C 179.134 -1.96124 0.054748 0
M  V30 1527 O 178.259 -1.99141 -0.84687 0
M  V30 1528 C 178.854 -2.30912 2.47922 0
M  V30 1529 C 177.413 -2.84486 2.46464 0
M  V30 1530 C 176.56 -1.58603 2.27465 0
M  V30 1531 H 179.511 -0.48396 1.51141 0
M  V30 1532 H 179.532 -3.12331 2.17323 0
M  V30 1533 H 179.044 -1.80554 3.43543 0
M  V30 1534 H 177.145 -3.39005 1.54617 0
M  V30 1535 H 177.258 -3.34511 3.42986 0
M  V30 1536 H 175.622 -1.84632 1.75451 0
M  V30 1537 H 176.405 -1.10233 3.25121 0
M  V30 1538 N 178.85 -1.27639 -0.924453 0
M  V30 1539 C 180.266 -1.05113 -1.20097 0
M  V30 1540 C 180.466 0.213262 -2.00368 0
M  V30 1541 O 179.522 0.91787 -2.35226 0
M  V30 1542 C 180.835 -2.29244 -1.94596 0
M  V30 1543 C 182.383 -2.34315 -2.07522 0
M  V30 1544 C 182.858 -3.58183 -2.85427 0
M  V30 1545 N 184.349 -3.5876 -2.92994 0
M  V30 1546 C 185.084 -4.51277 -3.53746 0
M  V30 1547 N 184.58 -5.54102 -4.15863 0
M  V30 1548 N 186.373 -4.38894 -3.51181 0
M  V30 1549 H 178.524 -2.08821 -0.388264 0
M  V30 1550 H 180.787 -0.918568 -0.234385 0
M  V30 1551 H 180.493 -3.21301 -1.43034 0
M  V30 1552 H 180.367 -2.34816 -2.95197 0
M  V30 1553 H 182.754 -1.42762 -2.58269 0
M  V30 1554 H 182.835 -2.32744 -1.06131 0
M  V30 1555 H 182.479 -4.50074 -2.35363 0
M  V30 1556 H 182.409 -3.57006 -3.8711 0
M  V30 1557 H 184.9 -2.84398 -2.4885 0
M  V30 1558 H 185.213 -6.20859 -4.60168 0
M  V30 1559 H 183.558 -5.57941 -4.144 0
M  V30 1560 H 186.749 -3.57772 -3.01856 0
M  V30 1561 H 186.922 -5.11186 -3.98237 0
M  V30 1562 N 180.328 1.1314 -1.09713 0
M  V30 1563 C 181.291 2.16831 -0.742751 0
M  V30 1564 C 182.291 1.59159 0.229129 0
M  V30 1565 O 183.481 1.74199 0.00693237 0
M  V30 1566 C 180.613 3.40756 -0.0989168 0
M  V30 1567 H 181.806 2.49695 -1.66109 0
M  V30 1568 H 179.359 1.2802 -0.896699 0
M  V30 1569 H 180.094 3.13485 0.830514 0
M  V30 1570 H 179.879 3.83888 -0.798265 0
M  V30 1571 H 181.369 4.17386 0.133524 0
M  V30 1572 N 181.806 0.884767 1.30421 0
M  V30 1573 C 183.083 0.423185 1.90967 0
M  V30 1574 C 183.463 -1.09605 1.80416 0
M  V30 1575 O 182.811 -1.93126 1.22125 0
M  V30 1576 C 183.021 0.921056 3.36627 0
M  V30 1577 C 184.369 0.955903 4.137 0
M  V30 1578 O 185.393 0.867706 3.4547 0
M  V30 1579 O 184.252 1.08614 5.35598 0
M  V30 1580 H 181.346 0.129369 0.816819 0
M  V30 1581 H 183.892 0.973653 1.3899 0
M  V30 1582 H 182.664 1.96489 3.3839 0
M  V30 1583 H 182.287 0.349741 3.96059 0
M  V30 1584 N 183.284 -1.43765 0.645699 0
M  V30 1585 C 184.214 -2.33471 -0.0370477 0
M  V30 1586 C 185.195 -1.49042 -0.819779 0
M  V30 1587 O 186.38 -1.77726 -0.782758 0
M  V30 1588 C 183.51 -3.32311 -1.0093 0
M  V30 1589 C 182.464 -4.2667 -0.337201 0
M  V30 1590 C 181.79 -5.1549 -1.42037 0
M  V30 1591 C 183.09 -5.16657 0.765706 0
M  V30 1592 H 184.784 -2.90809 0.712069 0
M  V30 1593 H 182.33 -1.39834 0.343876 0
M  V30 1594 H 184.283 -3.9396 -1.49578 0
M  V30 1595 H 183.007 -2.73213 -1.78948 0
M  V30 1596 H 181.666 -3.66374 0.128771 0
M  V30 1597 H 181.314 -4.52735 -2.1918 0
M  V30 1598 H 181.014 -5.79438 -0.975966 0
M  V30 1599 H 182.538 -5.80012 -1.90838 0
M  V30 1600 H 183.952 -5.72158 0.361702 0
M  V30 1601 H 182.349 -5.89286 1.13413 0
M  V30 1602 H 183.419 -4.56796 1.62683 0
M  V30 1603 N 184.763 -0.387143 -1.52771 0
M  V30 1604 C 185.695 0.484089 -2.2403 0
M  V30 1605 C 186.708 1.02849 -1.26198 0
M  V30 1606 O 187.897 0.931186 -1.52286 0
M  V30 1607 C 184.997 1.68337 -2.94136 0
M  V30 1608 C 184.17 1.26672 -4.18656 0
M  V30 1609 C 183.229 2.33045 -4.7178 0
M  V30 1610 O 182.255 1.94541 -5.34923 0
M  V30 1611 N 183.457 3.64929 -4.5145 0
M  V30 1612 H 186.222 -0.126404 -2.99433 0
M  V30 1613 H 183.783 -0.213392 -1.60488 0
M  V30 1614 H 185.775 2.39019 -3.26577 0
M  V30 1615 H 184.345 2.20025 -2.22053 0
M  V30 1616 H 183.565 0.388878 -3.92277 0
M  V30 1617 H 184.853 0.964964 -4.99566 0
M  V30 1618 H 184.251 3.98974 -4.01044 0
M  V30 1619 H 182.808 4.31651 -4.88386 0
M  V30 1620 N 186.241 1.57166 -0.116904 0
M  V30 1621 C 187.173 2.12271 0.864507 0
M  V30 1622 C 188.186 1.06494 1.23138 0
M  V30 1623 O 189.375 1.33873 1.18069 0
M  V30 1624 C 186.475 2.60564 2.16702 0
M  V30 1625 C 185.648 3.90416 1.97216 0
M  V30 1626 C 184.707 4.24329 3.11178 0
M  V30 1627 O 183.733 4.93182 2.84184 0
M  V30 1628 N 184.935 3.8148 4.37554 0
M  V30 1629 H 187.7 2.97102 0.393726 0
M  V30 1630 H 185.261 1.61759 0.0675805 0
M  V30 1631 H 187.253 2.80282 2.91932 0
M  V30 1632 H 185.823 1.80623 2.55135 0
M  V30 1633 H 185.043 3.79627 1.06192 0
M  V30 1634 H 186.331 4.75327 1.81499 0
M  V30 1635 H 185.729 3.25943 4.62361 0
M  V30 1636 H 184.286 4.06311 5.09661 0
M  V30 1637 N 187.719 -0.156864 1.56817 0
M  V30 1638 C 188.968 -0.869504 1.81996 0
M  V30 1639 C 189.281 -1.82777 0.696545 0
M  V30 1640 O 190.487 -2.58384 0.833658 0
M  V30 1641 C 188.943 -1.59679 3.22538 0
M  V30 1642 C 188.551 -0.681431 4.42787 0
M  V30 1643 C 190.295 -2.2968 3.56997 0
M  V30 1644 C 188.202 -1.40978 5.74351 0
M  V30 1645 H 187.132 -0.328438 0.678708 0
M  V30 1646 H 189.783 -0.1223 1.83092 0
M  V30 1647 H 188.165 -2.38927 3.158 0
M  V30 1648 H 189.339 0.0751166 4.60739 0
M  V30 1649 H 187.654 -0.0903431 4.16302 0
M  V30 1650 H 190.251 -2.84794 4.52544 0
M  V30 1651 H 190.594 -3.05707 2.82576 0
M  V30 1652 H 191.127 -1.57361 3.65352 0
M  V30 1653 H 187.866 -0.691561 6.51842 0
M  V30 1654 H 187.386 -2.13929 5.60352 0
M  V30 1655 H 189.065 -1.95337 6.16808 0
M  V30 1656 N 189.197 -1.51736 -0.425897 0
M  V30 1657 C 190.446 -1.64201 -1.17136 0
M  V30 1658 C 190.759 -0.369705 -1.92074 0
M  V30 1659 O 191.965 -0.373898 -2.68913 0
M  V30 1660 C 190.421 -2.90035 -2.13091 0
M  V30 1661 C 190.029 -4.24312 -1.43747 0
M  V30 1662 C 191.773 -3.1186 -2.87999 0
M  V30 1663 C 189.68 -5.41285 -2.38253 0
M  V30 1664 H 188.61 -0.611624 -0.440944 0
M  V30 1665 H 191.261 -1.78212 -0.437328 0
M  V30 1666 H 189.643 -2.69684 -2.89977 0
M  V30 1667 H 190.817 -4.55086 -0.723408 0
M  V30 1668 H 189.132 -4.08456 -0.809465 0
M  V30 1669 H 191.729 -3.96427 -3.58817 0
M  V30 1670 H 192.072 -2.25403 -3.49999 0
M  V30 1671 H 192.605 -3.32605 -2.18217 0
M  V30 1672 H 189.344 -6.30037 -1.80925 0
M  V30 1673 H 188.864 -5.14872 -3.0768 0
M  V30 1674 H 190.543 -5.73694 -2.99139 0
M  V30 1675 N 190.675 0.682077 -1.42076 0
M  V30 1676 C 191.921 1.44428 -1.42367 0
M  V30 1677 C 192.254 1.94164 -0.0373056 0
M  V30 1678 O 191.529 1.70429 0.937239 0
M  V30 1679 C 191.812 2.64654 -2.44194 0
M  V30 1680 C 191.665 2.20596 -3.91991 0
M  V30 1681 C 192.984 3.66865 -2.431 0
M  V30 1682 H 190.103 0.523834 -0.518428 0
M  V30 1683 H 192.745 0.77576 -1.73442 0
M  V30 1684 H 190.895 3.2169 -2.17826 0
M  V30 1685 H 192.567 1.68783 -4.29313 0
M  V30 1686 H 190.81 1.52242 -4.06208 0
M  V30 1687 H 191.481 3.06921 -4.58807 0
M  V30 1688 H 193.957 3.19531 -2.66532 0
M  V30 1689 H 192.833 4.48577 -3.16339 0
M  V30 1690 H 193.094 4.17493 -1.45437 0
M  V30 1691 N 192.153 1.28127 0.917671 0
M  V30 1692 C 193.378 1.18007 1.70555 0
M  V30 1693 C 193.803 -0.258257 1.86319 0
M  V30 1694 O 193.161 -1.1869 1.37049 0
M  V30 1695 C 193.209 1.87948 3.07746 0
M  V30 1696 O 192.313 1.18427 3.9503 0
M  V30 1697 H 191.654 0.409867 0.522403 0
M  V30 1698 H 194.184 1.69379 1.1477 0
M  V30 1699 H 194.194 1.95701 3.58001 0
M  V30 1700 H 192.869 2.92573 2.95591 0
M  V30 1701 H 191.446 1.18811 3.53466 0
M  V30 1702 N 193.631 -1.12557 1.10312 0
M  V30 1703 C 194.561 -2.20341 0.772798 0
M  V30 1704 C 195.542 -1.68198 -0.25365 0
M  V30 1705 O 196.727 -1.93831 -0.119699 0
M  V30 1706 C 193.857 -3.46709 0.202443 0
M  V30 1707 C 192.811 -4.11996 1.15943 0
M  V30 1708 C 192.137 -5.328 0.450345 0
M  V30 1709 C 193.437 -4.5828 2.50552 0
M  V30 1710 H 195.131 -2.48229 1.674 0
M  V30 1711 H 192.677 -1.19308 0.806326 0
M  V30 1712 H 194.63 -4.2138 -0.0407752 0
M  V30 1713 H 193.354 -3.18245 -0.734001 0
M  V30 1714 H 192.013 -3.39305 1.38808 0
M  V30 1715 H 191.661 -5.00602 -0.490531 0
M  V30 1716 H 191.361 -5.7743 1.08851 0
M  V30 1717 H 192.885 -6.10219 0.215642 0
M  V30 1718 H 194.299 -5.2433 2.31843 0
M  V30 1719 H 192.696 -5.13683 3.10242 0
M  V30 1720 H 193.766 -3.72329 3.10643 0
M  V30 1721 N 195.109 -0.891671 -1.2995 0
M  V30 1722 C 196.337 -0.52866 -2.00032 0
M  V30 1723 C 196.752 0.884574 -1.66795 0
M  V30 1724 O 196.109 1.5827 -0.908669 0
M  V30 1725 C 196.16 -0.701814 -3.54622 0
M  V30 1726 O 195.881 -2.05942 -3.86678 0
M  V30 1727 C 197.382 -0.342683 -4.41973 0
M  V30 1728 H 194.602 -0.203659 -0.639347 0
M  V30 1729 H 197.146 -1.19881 -1.65677 0
M  V30 1730 H 195.301 -0.0789468 -3.8732 0
M  V30 1731 H 195.715 -2.08291 -4.81368 0
M  V30 1732 H 197.189 -0.514709 -5.49595 0
M  V30 1733 H 197.666 0.71975 -4.33262 0
M  V30 1734 H 198.272 -0.942154 -4.14733 0
M  V30 1735 N 196.587 1.43421 -0.653314 0
M  V30 1736 C 197.497 2.34568 0.0388565 0
M  V30 1737 C 198.513 1.53888 0.81207 0
M  V30 1738 O 199.689 1.86539 0.759294 0
M  V30 1739 C 196.754 3.32167 0.993269 0
M  V30 1740 C 195.815 4.28751 0.216977 0
M  V30 1741 C 195.048 5.21688 1.12593 0
M  V30 1742 O 195.271 5.19052 2.36519 0
M  V30 1743 O 194.205 5.98919 0.598284 0
M  V30 1744 H 198.031 2.95251 -0.711386 0
M  V30 1745 H 195.616 1.43564 -0.413502 0
M  V30 1746 H 197.498 3.92183 1.54176 0
M  V30 1747 H 196.173 2.73987 1.72374 0
M  V30 1748 H 195.08 3.72215 -0.375101 0
M  V30 1749 H 196.413 4.89913 -0.473924 0
M  V30 1750 N 198.065 0.39524 1.52563 0
M  V30 1751 C 199.29 -0.187456 2.06551 0
M  V30 1752 C 199.715 -1.39249 1.26457 0
M  V30 1753 O 199.073 -1.78947 0.291151 0
M  V30 1754 C 199.121 -0.529985 3.56684 0
M  V30 1755 O 198.225 -1.62307 3.79118 0
M  V30 1756 H 197.566 -0.0202537 0.663691 0
M  V30 1757 H 200.096 0.564426 1.96661 0
M  V30 1758 H 200.106 -0.792598 4.00227 0
M  V30 1759 H 198.781 0.350987 4.14416 0
M  V30 1760 H 197.358 -1.3537 3.47461 0
M  V30 1761 N 199.544 -1.57102 0.125237 0
M  V30 1762 C 200.784 -1.97294 -0.534259 0
M  V30 1763 C 201.148 -1.0074 -1.63449 0
M  V30 1764 O 202.349 -1.29893 -2.35332 0
M  V30 1765 C 200.62 -3.41705 -1.04748 0
M  V30 1766 S 202.179 -4.03913 -1.71463 0
M  V30 1767 H 198.997 -0.689517 -0.173458 0
M  V30 1768 H 201.599 -1.94349 0.211797 0
M  V30 1769 H 200.303 -4.09723 -0.235649 0
M  V30 1770 H 199.834 -3.48315 -1.82867 0
M  V30 1771 H 201.849 -3.95182 -3.00077 0
M  V30 1772 N 201.022 0.148545 -1.56898 0
M  V30 1773 C 202.438 0.501131 -1.51528 0
M  V30 1774 C 202.638 1.83458 -0.833399 0
M  V30 1775 O 201.694 2.49259 -0.40328 0
M  V30 1776 C 203.007 0.512864 -2.96294 0
M  V30 1777 C 204.555 0.598487 -3.07225 0
M  V30 1778 C 205.03 0.640897 -4.53494 0
M  V30 1779 N 206.521 0.703163 -4.57832 0
M  V30 1780 C 207.256 0.756935 -5.68382 0
M  V30 1781 N 206.752 0.770147 -6.88506 0
M  V30 1782 N 208.545 0.797698 -5.56411 0
M  V30 1783 H 200.696 -0.725532 -1.99624 0
M  V30 1784 H 202.959 -0.264358 -0.910395 0
M  V30 1785 H 202.665 -0.398691 -3.49433 0
M  V30 1786 H 202.539 1.35133 -3.52163 0
M  V30 1787 H 204.926 1.50046 -2.54106 0
M  V30 1788 H 205.007 -0.267093 -2.54402 0
M  V30 1789 H 204.651 -0.256915 -5.0725 0
M  V30 1790 H 204.581 1.52295 -5.04097 0
M  V30 1791 H 207.072 0.700314 -3.71354 0
M  V30 1792 H 207.385 0.812983 -7.68512 0
M  V30 1793 H 205.73 0.738049 -6.9107 0
M  V30 1794 H 208.921 0.784535 -4.61479 0
M  V30 1795 H 209.094 0.83614 -6.42583 0
M  V30 1796 N 202.5 1.5196 0.417844 0
M  V30 1797 C 203.725 1.69717 1.1921 0
M  V30 1798 C 204.15 0.402148 1.83751 0
M  V30 1799 O 203.508 -0.639593 1.69643 0
M  V30 1800 C 203.556 2.82794 2.2374 0
M  V30 1801 O 202.66 2.47756 3.29683 0
M  V30 1802 H 202.001 0.565263 0.348387 0
M  V30 1803 H 204.531 1.98621 0.490985 0
M  V30 1804 H 204.541 3.07452 2.68212 0
M  V30 1805 H 203.216 3.76756 1.76146 0
M  V30 1806 H 201.793 2.33739 2.90552 0
M  V30 1807 N 203.978 -0.674533 1.42435 0
M  V30 1808 C 205.218 -1.4466 1.44405 0
M  V30 1809 C 205.582 -1.91911 0.0585784 0
M  V30 1810 O 206.783 -2.68759 -0.0469991 0
M  V30 1811 C 205.054 -2.61136 2.44013 0
M  V30 1812 S 206.613 -3.49981 2.64687 0
M  V30 1813 H 203.431 -0.494074 0.511284 0
M  V30 1814 H 206.033 -0.785162 1.7904 0
M  V30 1815 H 204.737 -2.24662 3.43446 0
M  V30 1816 H 204.268 -3.32153 2.10803 0
M  V30 1817 H 206.283 -4.57124 1.93007 0
M  V30 1818 N 205.456 -1.28612 -0.910864 0
M  V30 1819 C 206.681 -1.1891 -1.69927 0
M  V30 1820 C 207.106 0.248372 -1.86453 0
M  V30 1821 O 206.464 1.17961 -1.37676 0
M  V30 1822 C 206.512 -1.89578 -3.06745 0
M  V30 1823 O 205.616 -1.20521 -3.94396 0
M  V30 1824 H 204.957 -0.412632 -0.520222 0
M  V30 1825 H 207.487 -1.69985 -1.1387 0
M  V30 1826 H 207.497 -1.97597 -3.56958 0
M  V30 1827 H 206.172 -2.94136 -2.94035 0
M  V30 1828 H 204.749 -1.20684 -3.52831 0
M  V30 1829 N 206.934 1.1197 -1.10907 0
M  V30 1830 C 207.884 2.15946 -0.731538 0
M  V30 1831 C 208.868 1.58758 0.261699 0
M  V30 1832 O 210.06 1.76863 0.0696722 0
M  V30 1833 C 207.189 3.42877 -0.170299 0
M  V30 1834 C 206.275 4.07037 -1.19087 0
M  V30 1835 N 206.666 4.46135 -2.38322 0
M  V30 1836 C 204.964 4.33884 -1.03252 0
M  V30 1837 C 205.665 4.96331 -3.03366 0
M  V30 1838 N 204.641 4.9214 -2.30865 0
M  V30 1839 H 208.443 2.43947 -1.63912 0
M  V30 1840 H 205.957 1.28927 -0.987505 0
M  V30 1841 H 207.954 4.16732 0.118271 0
M  V30 1842 H 206.614 3.16343 0.731935 0
M  V30 1843 H 207.625 4.38345 -2.75815 0
M  V30 1844 H 204.302 4.17084 -0.186256 0
M  V30 1845 H 205.692 5.36257 -4.04818 0
M  V30 1846 N 208.412 0.89855 1.29475 0
M  V30 1847 C 209.375 0.380272 2.26023 0
M  V30 1848 C 210.375 -0.484891 1.53315 0
M  V30 1849 O 211.565 -0.290108 1.71767 0
M  V30 1850 C 208.697 -0.45651 3.3783 0
M  V30 1851 H 209.89 1.23295 2.73383 0
M  V30 1852 H 207.443 0.676589 1.40897 0
M  V30 1853 H 208.178 -1.32922 2.95808 0
M  V30 1854 H 207.963 0.163393 3.91759 0
M  V30 1855 H 209.453 -0.810466 4.0966 0
M  V30 1856 N 209.89 -1.43072 0.660911 0
M  V30 1857 C 210.82 -2.33497 -0.0122829 0
M  V30 1858 C 211.801 -1.49903 -0.803925 0
M  V30 1859 O 212.986 -1.78546 -0.763864 0
M  V30 1860 C 210.116 -3.33363 -0.973994 0
M  V30 1861 C 209.07 -4.27003 -0.291928 0
M  V30 1862 C 208.396 -5.16967 -1.36562 0
M  V30 1863 C 209.696 -5.15816 0.820462 0
M  V30 1864 H 211.39 -2.90038 0.742873 0
M  V30 1865 H 208.936 -1.39461 0.358688 0
M  V30 1866 H 210.889 -3.95524 -1.45392 0
M  V30 1867 H 209.613 -2.75095 -1.7604 0
M  V30 1868 H 208.272 -3.66217 0.167623 0
M  V30 1869 H 207.92 -4.55034 -2.14366 0
M  V30 1870 H 207.62 -5.80441 -0.914454 0
M  V30 1871 H 209.144 -5.82003 -1.84675 0
M  V30 1872 H 210.558 -5.71742 0.422366 0
M  V30 1873 H 208.955 -5.8805 1.19656 0
M  V30 1874 H 210.025 -4.55045 1.67518 0
M  V30 1875 N 211.368 -0.403325 -1.52352 0
M  V30 1876 C 212.331 0.413051 -2.25447 0
M  V30 1877 C 213.331 0.978513 -1.276 0
M  V30 1878 O 214.521 0.858305 -1.51587 0
M  V30 1879 C 211.653 1.58087 -3.02029 0
M  V30 1880 H 212.846 -0.227094 -2.99039 0
M  V30 1881 H 210.399 -0.155722 -1.55522 0
M  V30 1882 H 211.134 2.25804 -2.32772 0
M  V30 1883 H 210.919 1.18195 -3.73861 0
M  V30 1884 H 212.409 2.1585 -3.57489 0
M  V30 1885 N 212.846 1.57033 -0.133567 0
M  V30 1886 C 213.809 2.14897 0.796995 0
M  V30 1887 C 214.809 1.0874 1.18458 0
M  V30 1888 O 215.999 1.34446 1.1077 0
M  V30 1889 C 213.131 2.70112 2.07973 0
M  V30 1890 H 214.324 2.98457 0.293873 0
M  V30 1891 H 211.877 1.55871 0.115787 0
M  V30 1892 H 212.612 1.9018 2.62682 0
M  V30 1893 H 212.397 3.47764 1.81115 0
M  V30 1894 H 213.887 3.14738 2.74462 0
M  V30 1895 N 214.325 -0.140222 1.56975 0
M  V30 1896 C 215.275 -1.17827 1.95194 0
M  V30 1897 C 216.259 -1.38195 0.824075 0
M  V30 1898 O 217.451 -1.39643 1.0876 0
M  V30 1899 C 214.58 -2.51024 2.34184 0
M  V30 1900 C 213.666 -2.3422 3.53556 0
M  V30 1901 N 214.057 -1.87185 4.69889 0
M  V30 1902 C 212.355 -2.64949 3.58773 0
M  V30 1903 C 213.056 -1.83586 5.5197 0
M  V30 1904 N 212.032 -2.2715 4.93866 0
M  V30 1905 H 215.834 -0.806817 2.82609 0
M  V30 1906 H 213.348 -0.348208 1.58623 0
M  V30 1907 H 215.345 -3.26074 2.59772 0
M  V30 1908 H 214.005 -2.88945 1.48124 0
M  V30 1909 H 215.016 -1.57048 4.93514 0
M  V30 1910 H 211.693 -3.067 2.8327 0
M  V30 1911 H 213.083 -1.48655 6.55249 0
M  V30 1912 N 215.803 -1.52179 -0.40978 0
M  V30 1913 C 217.049 -1.66453 -1.15851 0
M  V30 1914 C 217.382 -0.392972 -1.90182 0
M  V30 1915 O 216.657 0.608579 -1.84734 0
M  V30 1916 C 216.94 -2.88612 -2.15349 0
M  V30 1917 C 216.793 -4.25815 -1.44918 0
M  V30 1918 C 218.112 -3.06294 -3.16026 0
M  V30 1919 H 215.231 -0.60575 -0.419805 0
M  V30 1920 H 217.873 -1.84732 -0.444314 0
M  V30 1921 H 216.023 -2.73158 -2.76255 0
M  V30 1922 H 217.695 -4.52995 -0.871365 0
M  V30 1923 H 215.938 -4.27247 -0.751159 0
M  V30 1924 H 216.609 -5.07337 -2.17516 0
M  V30 1925 H 219.085 -3.20641 -2.65195 0
M  V30 1926 H 217.961 -3.93283 -3.8291 0
M  V30 1927 H 218.222 -2.19579 -3.83715 0
M  V30 1928 N 217.281 0.66697 -1.42791 0
M  V30 1929 C 218.506 1.46004 -1.47301 0
M  V30 1930 C 218.931 1.87894 -0.0880317 0
M  V30 1931 O 218.289 1.56502 0.915253 0
M  V30 1932 C 218.337 2.68031 -2.41229 0
M  V30 1933 O 217.441 3.6659 -1.88906 0
M  V30 1934 H 216.782 0.43832 -0.49877 0
M  V30 1935 H 219.312 0.817391 -1.87563 0
M  V30 1936 H 219.322 3.1601 -2.58073 0
M  V30 1937 H 217.997 2.36883 -3.41847 0
M  V30 1938 H 216.574 3.25661 -1.81656 0
M  V30 1939 N 218.759 1.29093 0.90403 0
M  V30 1940 C 219.709 1.10482 1.99443 0
M  V30 1941 C 220.693 0.0255401 1.6088 0
M  V30 1942 O 221.885 0.24677 1.75271 0
M  V30 1943 C 219.014 0.778882 3.34348 0
M  V30 1944 C 218.1 1.89749 3.79284 0
M  V30 1945 N 218.491 3.14045 3.96497 0
M  V30 1946 C 216.789 1.78955 4.08523 0
M  V30 1947 C 217.49 3.86996 4.34292 0
M  V30 1948 N 216.466 3.14909 4.43095 0
M  V30 1949 H 220.268 2.04778 2.10815 0
M  V30 1950 H 217.782 1.20155 1.09255 0
M  V30 1951 H 219.779 0.62661 4.12164 0
M  V30 1952 H 218.439 -0.156205 3.24324 0
M  V30 1953 H 219.45 3.49548 3.82148 0
M  V30 1954 H 216.127 0.926886 4.07081 0
M  V30 1955 H 217.517 4.93941 4.55491 0
M  V30 1956 N 220.237 -1.11381 1.11499 0
M  V30 1957 C 221.167 -2.19509 0.796125 0
M  V30 1958 C 222.148 -1.68458 -0.235796 0
M  V30 1959 O 223.333 -1.93947 -0.0991344 0
M  V30 1960 C 220.463 -3.46475 0.239205 0
M  V30 1961 C 219.417 -4.10744 1.20307 0
M  V30 1962 C 218.743 -5.32293 0.50683 0
M  V30 1963 C 220.043 -4.55597 2.55399 0
M  V30 1964 H 221.737 -2.46439 1.70024 0
M  V30 1965 H 219.283 -1.18446 0.818935 0
M  V30 1966 H 221.236 -4.214 0.00392006 0
M  V30 1967 H 219.96 -3.19006 -0.700206 0
M  V30 1968 H 218.619 -3.37813 1.42399 0
M  V30 1969 H 218.267 -5.01095 -0.437408 0
M  V30 1970 H 217.967 -5.76243 1.1497 0
M  V30 1971 H 219.491 -6.09956 0.280351 0
M  V30 1972 H 220.905 -5.21841 2.37391 0
M  V30 1973 H 219.302 -5.10363 3.15673 0
M  V30 1974 H 220.372 -3.69013 3.14575 0
M  V30 1975 N 221.715 -0.905404 -1.28997 0
M  V30 1976 C 222.625 -0.392246 -2.31298 0
M  V30 1977 C 223.641 0.515889 -1.66176 0
M  V30 1978 O 224.817 0.404093 -1.97304 0
M  V30 1979 C 221.882 0.36686 -3.44754 0
M  V30 1980 C 220.943 -0.573485 -4.25452 0
M  V30 1981 C 220.176 0.149488 -5.33491 0
M  V30 1982 O 220.399 1.37255 -5.5364 0
M  V30 1983 O 219.333 -0.510919 -5.99728 0
M  V30 1984 H 223.159 -1.2411 -2.77183 0
M  V30 1985 H 220.744 -0.669926 -1.33538 0
M  V30 1986 H 222.626 0.795907 -4.13816 0
M  V30 1987 H 221.301 1.19169 -3.00966 0
M  V30 1988 H 220.208 -1.05176 -3.59011 0
M  V30 1989 H 221.541 -1.36489 -4.72897 0
M  V30 1990 N 223.193 1.4272 -0.668489 0
M  V30 1991 C 224.141 2.32586 0.0254857 0
M  V30 1992 C 225.135 1.49471 0.797176 0
M  V30 1993 O 226.341 1.65583 0.705853 0
M  V30 1994 H 222.716 0.751514 0.0270339 0
M  V30 1995 H 224.687 2.88823 -0.749936 0
M  V30 1996 C 223.436 3.3397 0.967427 0
M  V30 1997 H 222.759 3.97961 0.383048 0
M  V30 1998 H 224.199 3.9945 1.42181 0
M  V30 1999 C 222.658 2.65744 2.0708 0
M  V30 2000 O 223.188 2.48454 3.15648 0
M  V30 2001 N 221.394 2.2487 1.8407 0
M  V30 2002 H 220.941 2.39132 0.95778 0
M  V30 2003 H 220.899 1.79552 2.58086 0
M  V30 2004 N 224.671 0.411399 1.52136 0
M  V30 2005 C 225.917 -0.163888 2.02137 0
M  V30 2006 C 226.25 -1.44597 1.29636 0
M  V30 2007 O 225.525 -1.90272 0.403353 0
M  V30 2008 C 225.808 -0.40927 3.57767 0
M  V30 2009 C 225.661 0.889643 4.40914 0
M  V30 2010 C 226.98 -1.19042 4.23694 0
M  V30 2011 H 224.099 -0.0580896 0.734707 0
M  V30 2012 H 226.741 0.54531 1.82007 0
M  V30 2013 H 224.891 -1.0134 3.7505 0
M  V30 2014 H 226.563 1.52575 4.35337 0
M  V30 2015 H 224.806 1.50011 4.07037 0
M  V30 2016 H 225.477 0.672314 5.4789 0
M  V30 2017 H 227.953 -0.678942 4.10524 0
M  V30 2018 H 226.829 -1.33086 5.32522 0
M  V30 2019 H 227.09 -2.21166 3.82803 0
M  V30 2020 N 226.149 -1.5696 0.141893 0
M  V30 2021 C 227.374 -2.00754 -0.520838 0
M  V30 2022 C 227.799 -1.0213 -1.57959 0
M  V30 2023 O 227.157 0.00371324 -1.813 0
M  V30 2024 C 227.205 -3.43318 -1.10294 0
M  V30 2025 O 226.309 -3.47679 -2.21795 0
M  V30 2026 H 225.65 -0.651564 -0.127908 0
M  V30 2027 H 228.18 -2.03221 0.23712 0
M  V30 2028 H 228.19 -3.82012 -1.43287 0
M  V30 2029 H 226.865 -4.14608 -0.327574 0
M  V30 2030 H 225.442 -3.20824 -1.9007 0
M  V30 2031 N 227.627 0.131896 -1.57047 0
M  V30 2032 C 228.537 1.1815 -2.02676 0
M  V30 2033 C 229.553 1.46113 -0.944824 0
M  V30 2034 O 230.729 1.57485 -1.25541 0
M  V30 2035 C 227.794 2.49139 -2.41103 0
M  V30 2036 C 226.855 2.28688 -3.63318 0
M  V30 2037 C 226.088 3.53431 -3.99903 0
M  V30 2038 O 226.311 4.60223 -3.36973 0
M  V30 2039 O 225.245 3.45198 -4.93074 0
M  V30 2040 H 229.071 0.824069 -2.92306 0
M  V30 2041 H 226.656 0.341745 -1.45439 0
M  V30 2042 H 228.538 3.26338 -2.66611 0
M  V30 2043 H 227.213 2.84382 -1.54624 0
M  V30 2044 H 226.12 1.4939 -3.42977 0
M  V30 2045 H 227.453 1.98355 -4.50462 0
M  V30 2046 N 229.106 1.52395 0.401703 0
M  V30 2047 C 230.016 1.7917 1.51444 0
M  V30 2048 C 231.032 0.677691 1.6026 0
M  V30 2049 O 232.208 0.963909 1.76835 0
M  V30 2050 C 229.273 1.94347 2.87107 0
M  V30 2051 C 228.334 3.18257 2.88116 0
M  V30 2052 C 227.567 3.32701 4.17308 0
M  V30 2053 O 227.79 2.52238 5.11598 0
M  V30 2054 O 226.724 4.25891 4.25324 0
M  V30 2055 H 230.55 2.73633 1.31752 0
M  V30 2056 H 228.135 1.3733 0.588296 0
M  V30 2057 H 230.017 2.06109 3.67555 0
M  V30 2058 H 228.692 1.03073 3.06851 0
M  V30 2059 H 227.599 3.11947 2.06494 0
M  V30 2060 H 228.932 4.09336 2.73322 0
M  V30 2061 N 230.584 -0.659388 1.43143 0
M  V30 2062 C 231.494 -1.80167 1.50256 0
M  V30 2063 C 232.51 -1.69571 0.390106 0
M  V30 2064 O 233.686 -1.90849 0.643319 0
M  V30 2065 C 230.751 -3.16409 1.41725 0
M  V30 2066 C 229.812 -3.38848 2.63591 0
M  V30 2067 C 229.045 -4.68591 2.55458 0
M  V30 2068 O 229.268 -5.47532 1.59891 0
M  V30 2069 O 228.202 -4.92614 3.45854 0
M  V30 2070 H 232.028 -1.77121 2.46702 0
M  V30 2071 H 229.613 -0.817092 1.25076 0
M  V30 2072 H 231.495 -3.9768 1.39387 0
M  V30 2073 H 230.17 -3.20059 0.484118 0
M  V30 2074 H 229.077 -2.57366 2.71502 0
M  V30 2075 H 230.41 -3.4004 3.55856 0
M  V30 2076 N 232.062 -1.29571 -0.897171 0
M  V30 2077 C 232.995 -1.0924 -2.00354 0
M  V30 2078 C 233.973 -0.00354011 -1.626 0
M  V30 2079 O 235.157 -0.15473 -1.87864 0
M  V30 2080 C 232.284 -0.66352 -3.32137 0
M  V30 2081 C 231.33 -1.75146 -3.88878 0
M  V30 2082 S 232.163 -3.35124 -4.17674 0
M  V30 2083 C 233.319 -2.9411 -5.52494 0
M  V30 2084 H 233.552 -2.02907 -2.17292 0
M  V30 2085 H 231.085 -1.13746 -1.04408 0
M  V30 2086 H 233.043 -0.422791 -4.08317 0
M  V30 2087 H 231.704 0.253588 -3.13075 0
M  V30 2088 H 230.897 -1.40337 -4.84068 0
M  V30 2089 H 230.499 -1.94584 -3.19395 0
M  V30 2090 H 232.791 -2.41312 -6.33068 0
M  V30 2091 H 233.734 -3.88161 -5.9223 0
M  V30 2092 H 234.142 -2.32332 -5.14473 0
M  V30 2093 N 233.54 1.10788 -1.12088 0
M  V30 2094 C 234.488 2.19111 -0.780587 0
M  V30 2095 C 235.482 1.67818 0.230961 0
M  V30 2096 O 236.688 1.79777 0.0895427 0
M  V30 2097 H 233.063 0.714477 -0.234578 0
M  V30 2098 H 235.034 2.45055 -1.70266 0
M  V30 2099 C 233.783 3.46818 -0.24747 0
M  V30 2100 H 233.106 3.86646 -1.01712 0
M  V30 2101 H 234.546 4.23973 -0.0476291 0
M  V30 2102 C 233.005 3.20968 1.02378 0
M  V30 2103 O 233.535 3.42298 2.10226 0
M  V30 2104 N 231.741 2.74658 0.949271 0
M  V30 2105 H 231.288 2.57501 0.0715173 0
M  V30 2106 H 231.246 2.57739 1.80049 0
M  V30 2107 N 235.018 0.912232 1.28515 0
M  V30 2108 C 236.434 0.610159 1.47476 0
M  V30 2109 C 236.634 -0.844955 1.82928 0
M  V30 2110 O 235.69 -1.62416 1.93332 0
M  V30 2111 C 237.003 1.54675 2.57868 0
M  V30 2112 C 238.551 1.55331 2.71738 0
M  V30 2113 C 239.026 2.47649 3.85272 0
M  V30 2114 N 240.517 2.45767 3.92623 0
M  V30 2115 C 241.252 3.13896 4.79851 0
M  V30 2116 N 240.748 3.9135 5.71679 0
M  V30 2117 N 242.541 3.02991 4.73448 0
M  V30 2118 H 234.692 1.85318 1.03783 0
M  V30 2119 H 236.955 0.794777 0.516753 0
M  V30 2120 H 236.661 2.5841 2.38574 0
M  V30 2121 H 236.535 1.27671 3.54937 0
M  V30 2122 H 238.922 0.52335 2.90422 0
M  V30 2123 H 239.003 1.86378 1.75205 0
M  V30 2124 H 238.647 3.50745 3.67342 0
M  V30 2125 H 238.577 2.13904 4.81199 0
M  V30 2126 H 241.068 1.89503 3.26951 0
M  V30 2127 H 241.381 4.40359 6.35062 0
M  V30 2128 H 239.726 3.95455 5.71524 0
M  V30 2129 H 242.917 2.41987 4.007 0
M  V30 2130 H 243.09 3.5636 5.41213 0
M  V30 2131 N 236.496 -1.42363 0.676048 0
M  V30 2132 C 237.426 -2.33497 0.0124832 0
M  V30 2133 C 238.407 -1.50748 -0.787981 0
M  V30 2134 O 239.592 -1.79346 -0.744884 0
M  V30 2135 C 236.722 -3.34377 -0.938582 0
M  V30 2136 C 235.676 -4.27289 -0.246622 0
M  V30 2137 C 235.002 -5.18386 -1.31071 0
M  V30 2138 C 236.302 -5.14916 0.875125 0
M  V30 2139 H 237.996 -2.89233 0.773593 0
M  V30 2140 H 235.542 -1.39073 0.37346 0
M  V30 2141 H 237.495 -3.97044 -1.41188 0
M  V30 2142 H 236.219 -2.76947 -1.73113 0
M  V30 2143 H 234.878 -3.66018 0.206456 0
M  V30 2144 H 234.526 -4.57282 -2.09528 0
M  V30 2145 H 234.226 -5.81378 -0.852839 0
M  V30 2146 H 235.75 -5.83929 -1.78492 0
M  V30 2147 H 237.164 -5.71262 0.482983 0
M  V30 2148 H 235.561 -5.86747 1.25887 0
M  V30 2149 H 236.631 -4.53242 1.72335 0
M  V30 2150 N 237.974 -0.419461 -1.51915 0
M  V30 2151 C 238.904 0.391813 -2.30189 0
M  V30 2152 C 239.885 1.03699 -1.34836 0
M  V30 2153 O 241.07 1.04403 -1.63748 0
M  V30 2154 C 238.2 1.50312 -3.13087 0
M  V30 2155 C 237.154 0.9824 -4.16573 0
M  V30 2156 C 236.48 2.18809 -4.8788 0
M  V30 2157 C 237.78 0.0292356 -5.22292 0
M  V30 2158 H 239.474 -0.26135 -2.98257 0
M  V30 2159 H 237.02 -0.127134 -1.43438 0
M  V30 2160 H 238.973 2.07773 -3.66617 0
M  V30 2161 H 237.697 2.18431 -2.42807 0
M  V30 2162 H 236.356 0.430119 -3.64068 0
M  V30 2163 H 236.004 2.85507 -4.14119 0
M  V30 2164 H 235.704 1.84615 -5.57845 0
M  V30 2165 H 237.228 2.76858 -5.44226 0
M  V30 2166 H 238.642 0.512976 -5.71 0
M  V30 2167 H 237.039 -0.2244 -5.9968 0
M  V30 2168 H 238.109 -0.912931 -4.76228 0
M  V30 2169 N 239.452 1.56882 -0.150215 0
M  V30 2170 C 240.7 1.9584 0.499105 0
M  V30 2171 C 241.021 1.03623 1.65188 0
M  V30 2172 O 240.291 0.0984084 1.95653 0
M  V30 2173 H 238.871 0.723119 0.187373 0
M  V30 2174 H 241.533 1.9358 -0.226466 0
M  V30 2175 H 240.629 2.99638 0.873122 0
M  V30 2176 N 240.93 -0.123565 1.57115 0
M  V30 2177 C 242.179 -0.830704 1.83799 0
M  V30 2178 C 242.492 -1.81259 0.735158 0
M  V30 2179 O 243.698 -2.56558 0.888278 0
M  V30 2180 C 242.154 -1.52802 3.25852 0
M  V30 2181 C 241.762 -0.587356 4.44133 0
M  V30 2182 C 243.506 -2.22056 3.61789 0
M  V30 2183 C 241.413 -1.28764 5.77212 0
M  V30 2184 H 240.343 -0.313967 0.685522 0
M  V30 2185 H 242.994 -0.0834359 1.8331 0
M  V30 2186 H 241.376 -2.32175 3.20797 0
M  V30 2187 H 242.55 0.172829 4.60476 0
M  V30 2188 H 240.865 -0.00201892 4.164 0
M  V30 2189 H 243.462 -2.75131 4.58483 0
M  V30 2190 H 243.805 -2.99644 2.88997 0
M  V30 2191 H 244.338 -1.49576 3.68608 0
M  V30 2192 H 241.077 -0.55314 6.53162 0
M  V30 2193 H 240.597 -2.01995 5.64764 0
M  V30 2194 H 242.276 -1.8221 6.20813 0
M  V30 2195 N 242.408 -1.52605 -0.393616 0
M  V30 2196 C 243.654 -1.67672 -1.14079 0
M  V30 2197 C 243.987 -0.413121 -1.89755 0
M  V30 2198 O 243.262 0.588952 -1.85369 0
M  V30 2199 C 243.545 -2.9088 -2.12276 0
M  V30 2200 C 243.398 -4.27329 -1.40394 0
M  V30 2201 C 244.717 -3.09628 -3.12759 0
M  V30 2202 H 241.836 -0.610168 -0.413356 0
M  V30 2203 H 244.478 -1.85193 -0.424696 0
M  V30 2204 H 242.628 -2.76073 -2.73342 0
M  V30 2205 H 244.3 -4.53894 -0.82327 0
M  V30 2206 H 242.543 -4.2802 -0.705801 0
M  V30 2207 H 243.214 -5.09615 -2.12123 0
M  V30 2208 H 245.69 -3.23436 -2.61779 0
M  V30 2209 H 244.566 -3.97322 -3.78717 0
M  V30 2210 H 244.827 -2.23637 -3.81365 0
M  V30 2211 N 243.887 0.651787 -1.4349 0
M  V30 2212 C 244.817 1.77621 -1.51569 0
M  V30 2213 C 245.798 1.66022 -0.370253 0
M  V30 2214 O 246.983 1.85095 -0.587658 0
M  V30 2215 C 244.113 3.16056 -1.43966 0
M  V30 2216 C 243.067 3.4242 -2.56774 0
M  V30 2217 C 242.393 4.8067 -2.34223 0
M  V30 2218 C 243.693 3.37023 -3.99015 0
M  V30 2219 H 245.387 1.71117 -2.45681 0
M  V30 2220 H 242.933 0.821825 -1.18246 0
M  V30 2221 H 244.886 3.94472 -1.48221 0
M  V30 2222 H 243.61 3.23293 -0.463586 0
M  V30 2223 H 242.269 2.66375 -2.51873 0
M  V30 2224 H 241.917 4.84585 -1.34856 0
M  V30 2225 H 241.617 4.9927 -3.09844 0
M  V30 2226 H 243.141 5.61342 -2.40265 0
M  V30 2227 H 244.555 4.05374 -4.05395 0
M  V30 2228 H 242.952 3.67159 -4.74673 0
M  V30 2229 H 244.022 2.3518 -4.2405 0
M  V30 2230 N 245.365 1.30045 0.890287 0
M  V30 2231 C 246.642 1.09227 1.62262 0
M  V30 2232 C 247.022 -0.360305 2.08002 0
M  V30 2233 O 246.37 -1.35084 1.84295 0
M  V30 2234 C 246.58 2.08835 2.79623 0
M  V30 2235 C 247.928 2.40266 3.50082 0
M  V30 2236 O 248.952 2.07104 2.89804 0
M  V30 2237 O 247.811 2.96967 4.58773 0
M  V30 2238 H 244.905 0.419132 0.712922 0
M  V30 2239 H 247.451 1.41451 0.937529 0
M  V30 2240 H 246.223 3.06633 2.43089 0
M  V30 2241 H 245.846 1.77397 3.55832 0
M  V30 2242 N 246.843 -1.10192 1.12674 0
M  V30 2243 C 248.089 -1.82475 0.884915 0
M  V30 2244 C 248.422 -1.85093 -0.58773 0
M  V30 2245 O 247.697 -1.3134 -1.43457 0
M  V30 2246 C 247.98 -3.29018 1.46353 0
M  V30 2247 C 247.833 -3.34718 3.00473 0
M  V30 2248 C 249.152 -4.25473 1.12519 0
M  V30 2249 H 246.271 -0.662492 0.322915 0
M  V30 2250 H 248.913 -1.2913 1.39375 0
M  V30 2251 H 247.063 -3.74576 1.03077 0
M  V30 2252 H 248.735 -2.97622 3.52447 0
M  V30 2253 H 246.978 -2.74541 3.35872 0
M  V30 2254 H 247.649 -4.37918 3.36053 0
M  V30 2255 H 250.125 -3.88161 1.499 0
M  V30 2256 H 249.001 -5.26365 1.55663 0
M  V30 2257 H 249.262 -4.42084 0.0377407 0
M  V30 2258 N 248.321 -0.919034 -1.28029 0
M  V30 2259 C 249.231 -0.416756 -2.30869 0
M  V30 2260 C 250.247 0.498235 -1.66714 0
M  V30 2261 O 251.423 0.383144 -1.97722 0
M  V30 2262 C 248.488 0.330274 -3.45123 0
M  V30 2263 C 247.549 -0.618578 -4.2482 0
M  V30 2264 C 246.782 0.0928959 -5.33619 0
M  V30 2265 O 247.005 1.31375 -5.55065 0
M  V30 2266 O 245.939 -0.574499 -5.99152 0
M  V30 2267 H 249.765 -1.27043 -2.75851 0
M  V30 2268 H 247.35 -0.684052 -1.3282 0
M  V30 2269 H 249.232 0.751972 -4.14636 0
M  V30 2270 H 247.907 1.1597 -3.02213 0
M  V30 2271 H 246.814 -1.08978 -3.57875 0
M  V30 2272 H 248.147 -1.41497 -4.71423 0
M  V30 2273 N 249.799 1.42003 -0.683588 0
M  V30 2274 C 251.029 2.05448 -0.217866 0
M  V30 2275 C 251.437 1.51491 1.13346 0
M  V30 2276 O 250.78 0.653048 1.717 0
M  V30 2277 C 250.842 3.59399 -0.0850118 0
M  V30 2278 C 250.506 4.36093 -1.36645 0
M  V30 2279 C 251.503 4.66169 -2.30179 0
M  V30 2280 C 249.188 4.75578 -1.61649 0
M  V30 2281 C 251.182 5.34676 -3.46988 0
M  V30 2282 C 248.869 5.43824 -2.78745 0
M  V30 2283 C 249.867 5.73299 -3.71238 0
M  V30 2284 O 249.555 6.40142 -4.86285 0
M  V30 2285 H 249.287 0.668344 -0.101454 0
M  V30 2286 H 251.841 1.82974 -0.933248 0
M  V30 2287 H 250.071 3.80566 0.686031 0
M  V30 2288 H 251.76 4.04457 0.341973 0
M  V30 2289 H 252.526 4.36156 -2.12115 0
M  V30 2290 H 248.405 4.52025 -0.905243 0
M  V30 2291 H 251.949 5.57599 -4.19201 0
M  V30 2292 H 247.846 5.73254 -2.96732 0
M  V30 2293 H 248.614 6.58636 -4.85944 0
M  V30 2294 N 251.277 0.427512 1.51691 0
M  V30 2295 C 252.207 -0.3796 2.30394 0
M  V30 2296 C 253.188 -1.02982 1.35384 0
M  V30 2297 O 254.373 -1.03534 1.643 0
M  V30 2298 C 251.503 -1.48649 3.1388 0
M  V30 2299 C 250.457 -0.960294 4.17088 0
M  V30 2300 C 249.783 -2.16219 4.89033 0
M  V30 2301 C 251.083 -0.00153679 5.223 0
M  V30 2302 H 252.777 0.277164 2.98114 0
M  V30 2303 H 250.323 0.134739 1.43368 0
M  V30 2304 H 252.276 -2.05826 3.67714 0
M  V30 2305 H 251 -2.1714 2.43962 0
M  V30 2306 H 249.659 -0.410806 3.64291 0
M  V30 2307 H 249.307 -2.83307 4.15628 0
M  V30 2308 H 249.007 -1.81654 5.58816 0
M  V30 2309 H 250.531 -2.73968 5.45687 0
M  V30 2310 H 251.945 -0.482687 5.71264 0
M  V30 2311 H 250.342 0.256199 5.99553 0
M  V30 2312 H 251.412 0.938174 4.75738 0
M  V30 2313 N 252.755 -1.56801 0.158532 0
M  V30 2314 C 254.002 -1.9649 -0.489679 0
M  V30 2315 C 254.33 -1.04394 -1.6411 0
M  V30 2316 O 253.585 -0.0754401 -1.95555 0
M  V30 2317 C 253.884 -3.4235 -1.02623 0
M  V30 2318 C 253.55 -4.50899 0.00794526 0
M  V30 2319 C 252.212 -4.80312 0.292207 0
M  V30 2320 C 254.564 -5.16333 0.710584 0
M  V30 2321 C 251.892 -5.72461 1.28472 0
M  V30 2322 C 254.244 -6.09553 1.69199 0
M  V30 2323 C 252.908 -6.37339 1.98383 0
M  V30 2324 H 252.178 -0.719009 -0.179186 0
M  V30 2325 H 254.825 -1.8989 0.247798 0
M  V30 2326 H 253.13 -3.45838 -1.84128 0
M  V30 2327 H 254.827 -3.70393 -1.53656 0
M  V30 2328 H 251.417 -4.28015 -0.22379 0
M  V30 2329 H 255.601 -4.93732 0.504174 0
M  V30 2330 H 250.857 -5.92278 1.51714 0
M  V30 2331 H 255.031 -6.59327 2.24189 0
M  V30 2332 H 252.658 -7.08546 2.7544 0
M  V30 2333 N 254.233 0.115231 -1.57178 0
M  V30 2334 C 255.461 0.836437 -1.89239 0
M  V30 2335 C 255.876 1.73256 -0.750175 0
M  V30 2336 O 255.233 1.80357 0.278832 0
M  V30 2337 C 255.284 1.66671 -3.20785 0
M  V30 2338 O 255.005 0.806652 -4.3061 0
M  V30 2339 C 256.506 2.49274 -3.66575 0
M  V30 2340 H 253.726 0.240253 -0.626514 0
M  V30 2341 H 256.27 0.0984932 -2.04263 0
M  V30 2342 H 254.425 2.35737 -3.0742 0
M  V30 2343 H 254.839 1.37969 -5.06028 0
M  V30 2344 H 256.313 3.03055 -4.6137 0
M  V30 2345 H 256.79 3.26807 -2.93417 0
M  V30 2346 H 257.396 1.85443 -3.82741 0
M  V30 2347 N 255.711 1.52812 0.385517 0
M  V30 2348 C 256.951 1.69716 1.13911 0
M  V30 2349 C 257.315 0.42962 1.87132 0
M  V30 2350 O 258.516 0.475071 2.64569 0
M  V30 2351 C 256.787 2.90021 2.0886 0
M  V30 2352 S 258.346 3.27531 2.92009 0
M  V30 2353 H 255.164 0.59739 0.385547 0
M  V30 2354 H 257.766 1.90868 0.423061 0
M  V30 2355 H 256.47 3.80493 1.53797 0
M  V30 2356 H 256.001 2.71213 2.84969 0
M  V30 2357 H 258.016 2.77989 4.11019 0
M  V30 2358 N 257.189 -0.644168 1.43834 0
M  V30 2359 C 258.435 -1.40603 1.46146 0
M  V30 2360 C 258.768 -1.93997 0.0887717 0
M  V30 2361 O 258.043 -1.72854 -0.891724 0
M  V30 2362 C 258.326 -2.58086 2.51124 0
M  V30 2363 C 258.179 -2.10126 3.97702 0
M  V30 2364 C 259.498 -3.60291 2.52742 0
M  V30 2365 H 256.617 -0.509905 0.532134 0
M  V30 2366 H 259.259 -0.729502 1.75437 0
M  V30 2367 H 257.409 -3.15801 2.26278 0
M  V30 2368 H 259.081 -1.57342 4.33637 0
M  V30 2369 H 257.324 -1.41419 4.10101 0
M  V30 2370 H 257.995 -2.94649 4.66783 0
M  V30 2371 H 260.471 -3.12352 2.7491 0
M  V30 2372 H 259.347 -4.40032 3.28121 0
M  V30 2373 H 259.608 -4.1349 1.56455 0
M  V30 2374 N 258.668 -1.30515 -0.883378 0
M  V30 2375 C 259.618 -1.13641 -1.9766 0
M  V30 2376 C 260.602 -0.0511314 -1.60819 0
M  V30 2377 O 261.794 -0.274623 -1.74857 0
M  V30 2378 C 258.923 -0.831976 -3.33066 0
M  V30 2379 C 258.009 -1.95759 -3.76217 0
M  V30 2380 N 258.4 -3.20313 -3.9145 0
M  V30 2381 C 256.698 -1.85431 -4.05625 0
M  V30 2382 C 257.399 -3.93856 -4.2808 0
M  V30 2383 N 256.375 -3.21919 -4.38029 0
M  V30 2384 H 260.177 -2.08106 -2.07531 0
M  V30 2385 H 257.691 -1.21877 -1.0733 0
M  V30 2386 H 259.688 -0.692102 -4.11115 0
M  V30 2387 H 258.348 0.104588 -3.24532 0
M  V30 2388 H 259.359 -3.55583 -3.76538 0
M  V30 2389 H 256.036 -0.991531 -4.05555 0
M  V30 2390 H 257.426 -5.01125 -4.47575 0
M  V30 2391 N 260.146 1.09593 -1.13257 0
M  V30 2392 C 261.093 2.1618 -0.808381 0
M  V30 2393 C 262.063 1.64517 0.228754 0
M  V30 2394 O 263.248 1.9053 0.101381 0
M  V30 2395 C 260.388 3.43973 -0.278675 0
M  V30 2396 C 259.501 4.09545 -1.37466 0
M  V30 2397 C 258.636 5.25088 -0.803479 0
M  V30 2398 C 257.675 5.82579 -1.87799 0
M  V30 2399 N 256.812 6.89486 -1.32488 0
M  V30 2400 H 261.652 2.43254 -1.72138 0
M  V30 2401 H 259.189 1.19392 -0.859294 0
M  V30 2402 H 261.147 4.17174 0.0465583 0
M  V30 2403 H 259.777 3.17223 0.597459 0
M  V30 2404 H 258.829 3.34226 -1.81652 0
M  V30 2405 H 260.141 4.48307 -2.18684 0
M  V30 2406 H 259.295 6.05178 -0.429427 0
M  V30 2407 H 258.034 4.87684 0.0397956 0
M  V30 2408 H 257.039 5.01152 -2.26113 0
M  V30 2409 H 258.264 6.22045 -2.72463 0
M  V30 2410 H 256.21 6.54064 -0.503575 0
M  V30 2411 H 256.127 7.27007 -2.07355 0
M  V30 2412 H 257.395 7.73336 -0.978336 0
M  V30 2413 N 261.624 0.925811 1.2754 0
M  V30 2414 C 262.534 0.428993 2.30644 0
M  V30 2415 C 263.55 -0.489387 1.66976 0
M  V30 2416 O 264.726 -0.372653 1.97922 0
M  V30 2417 C 261.791 -0.311967 3.45294 0
M  V30 2418 C 260.852 0.641098 4.24486 0
M  V30 2419 C 260.085 -0.0645955 5.33661 0
M  V30 2420 O 260.308 -1.28429 5.55754 0
M  V30 2421 O 259.242 0.606265 5.98839 0
M  V30 2422 H 263.068 1.28504 2.75173 0
M  V30 2423 H 260.653 0.691086 1.32455 0
M  V30 2424 H 262.535 -0.729972 4.15029 0
M  V30 2425 H 261.21 -1.14365 3.02824 0
M  V30 2426 H 260.117 1.10874 3.57292 0
M  V30 2427 H 261.45 1.43995 4.70666 0
M  V30 2428 N 263.102 -1.41638 0.69111 0
M  V30 2429 C 264.012 -2.34588 0.0233487 0
M  V30 2430 C 265.028 -1.55987 -0.770984 0
M  V30 2431 O 266.204 -1.88486 -0.709569 0
M  V30 2432 C 263.269 -3.34684 -0.904851 0
M  V30 2433 C 262.33 -4.29176 -0.103225 0
M  V30 2434 C 261.563 -5.2449 -0.987216 0
M  V30 2435 O 261.786 -5.2514 -2.22674 0
M  V30 2436 O 260.72 -6.00295 -0.439281 0
M  V30 2437 H 264.546 -2.93261 0.789416 0
M  V30 2438 H 262.131 -1.42417 0.45142 0
M  V30 2439 H 264.013 -3.96133 -1.43724 0
M  V30 2440 H 262.688 -2.78461 -1.65049 0
M  V30 2441 H 261.595 -3.71089 0.473655 0
M  V30 2442 H 262.928 -4.88484 0.60365 0
M  V30 2443 N 264.58 -0.43555 -1.51462 0
M  V30 2444 C 265.857 0.191364 -1.94662 0
M  V30 2445 C 266.237 1.60254 -1.37411 0
M  V30 2446 O 265.585 2.2152 -0.560458 0
M  V30 2447 C 265.795 0.17091 -3.48581 0
M  V30 2448 C 267.143 0.377357 -4.2292 0
M  V30 2449 O 268.167 0.249104 -3.55328 0
M  V30 2450 O 267.026 0.63247 -5.42828 0
M  V30 2451 H 264.12 0.130932 -0.816569 0
M  V30 2452 H 266.666 -0.4934 -1.62369 0
M  V30 2453 H 265.438 -0.815738 -3.82703 0
M  V30 2454 H 265.061 0.898659 -3.87311 0
M  V30 2455 N 266.058 1.56714 -0.166846 0
M  V30 2456 C 267.021 2.16539 0.751232 0
M  V30 2457 C 268.021 1.11228 1.16125 0
M  V30 2458 O 269.211 1.36765 1.07894 0
M  V30 2459 C 266.343 2.74462 2.02196 0
M  V30 2460 H 267.536 2.99013 0.230499 0
M  V30 2461 H 265.089 1.56081 0.0826982 0
M  V30 2462 H 265.824 1.95709 2.58589 0
M  V30 2463 H 265.609 3.51527 1.73698 0
M  V30 2464 H 267.099 3.20489 2.67725 0
M  V30 2465 N 267.536 -0.106894 1.57237 0
M  V30 2466 C 268.813 -0.843526 1.76477 0
M  V30 2467 C 269.193 -1.97499 0.745464 0
M  V30 2468 O 268.541 -2.27357 -0.228306 0
M  V30 2469 C 268.751 -1.34903 3.21873 0
M  V30 2470 C 270.099 -1.79654 3.8472 0
M  V30 2471 O 271.123 -1.44554 3.2555 0
M  V30 2472 O 269.982 -2.44515 4.88748 0
M  V30 2473 H 267.076 -0.401468 0.723016 0
M  V30 2474 H 269.622 -0.0896927 1.69463 0
M  V30 2475 H 268.394 -0.53781 3.87586 0
M  V30 2476 H 268.017 -2.16522 3.33473 0
M  V30 2477 N 269.014 -1.53014 -0.377408 0
M  V30 2478 C 270.242 -1.72515 -1.14219 0
M  V30 2479 C 270.657 -0.448735 -1.8339 0
M  V30 2480 O 270.014 0.577592 -1.73119 0
M  V30 2481 C 270.065 -2.8826 -2.18148 0
M  V30 2482 O 269.786 -4.10962 -1.51795 0
M  V30 2483 C 271.287 -3.19536 -3.07264 0
M  V30 2484 H 268.507 -0.577301 -0.342001 0
M  V30 2485 H 271.051 -1.99712 -0.439935 0
M  V30 2486 H 269.206 -2.63492 -2.83991 0
M  V30 2487 H 269.62 -4.75693 -2.20945 0
M  V30 2488 H 271.094 -4.03959 -3.76193 0
M  V30 2489 H 271.571 -2.34403 -3.71419 0
M  V30 2490 H 272.177 -3.46186 -2.47053 0
M  V30 2491 N 270.492 0.636531 -1.44174 0
M  V30 2492 C 271.439 1.74875 -1.50624 0
M  V30 2493 C 272.409 1.62275 -0.35442 0
M  V30 2494 O 273.594 1.82276 -0.563908 0
M  V30 2495 C 270.734 3.13102 -1.45125 0
M  V30 2496 C 269.847 3.36717 -2.7064 0
M  V30 2497 C 268.982 4.64885 -2.57013 0
M  V30 2498 C 268.021 4.8166 -3.77717 0
M  V30 2499 N 267.158 6.01101 -3.62798 0
M  V30 2500 H 271.998 1.68697 -2.45653 0
M  V30 2501 H 269.535 0.823004 -1.21922 0
M  V30 2502 H 271.493 3.93034 -1.39929 0
M  V30 2503 H 270.123 3.18308 -0.536671 0
M  V30 2504 H 269.175 2.50763 -2.86046 0
M  V30 2505 H 270.487 3.44993 -3.60252 0
M  V30 2506 H 269.641 5.52969 -2.49619 0
M  V30 2507 H 268.38 4.58957 -1.64953 0
M  V30 2508 H 267.385 3.92007 -3.85501 0
M  V30 2509 H 268.61 4.89406 -4.70807 0
M  V30 2510 H 266.556 5.96273 -2.73486 0
M  V30 2511 H 266.473 6.10409 -4.46023 0
M  V30 2512 H 267.741 6.91761 -3.59286 0
M  V30 2513 N 271.97 1.30982 0.876444 0
M  V30 2514 C 272.902 1.13902 1.98894 0
M  V30 2515 C 273.915 0.0798815 1.62604 0
M  V30 2516 O 275.104 0.326743 1.75484 0
M  V30 2517 C 272.204 0.716699 3.31235 0
M  V30 2518 C 271.377 1.85945 3.95908 0
M  V30 2519 C 270.436 1.42426 5.06558 0
M  V30 2520 O 269.462 2.13287 5.27729 0
M  V30 2521 N 270.664 0.308025 5.79682 0
M  V30 2522 H 273.429 2.09724 2.14094 0
M  V30 2523 H 270.99 1.2323 1.05004 0
M  V30 2524 H 272.982 0.408403 4.02634 0
M  V30 2525 H 271.552 -0.149719 3.12241 0
M  V30 2526 H 270.772 2.33541 3.17573 0
M  V30 2527 H 272.06 2.62503 4.35855 0
M  V30 2528 H 271.458 -0.282241 5.64995 0
M  V30 2529 H 270.015 0.0592282 6.51773 0
M  V30 2530 N 273.449 -1.08991 1.13837 0
M  V30 2531 C 274.695 -1.81526 0.90422 0
M  V30 2532 C 275.028 -1.85706 -0.568066 0
M  V30 2533 O 274.303 -1.32855 -1.42056 0
M  V30 2534 C 274.586 -3.27447 1.49835 0
M  V30 2535 C 274.439 -3.31512 3.04006 0
M  V30 2536 C 275.758 -4.24256 1.17025 0
M  V30 2537 H 272.877 -0.659029 0.329923 0
M  V30 2538 H 275.519 -1.27644 1.40737 0
M  V30 2539 H 273.669 -3.73462 1.07044 0
M  V30 2540 H 275.341 -2.93867 3.55584 0
M  V30 2541 H 273.584 -2.70963 3.38765 0
M  V30 2542 H 274.255 -4.34329 3.40679 0
M  V30 2543 H 276.731 -3.86549 1.54009 0
M  V30 2544 H 275.607 -5.24684 1.61237 0
M  V30 2545 H 275.868 -4.42019 0.0846274 0
M  V30 2546 N 274.927 -0.932562 -1.27047 0
M  V30 2547 C 276.157 -0.591173 -1.97961 0
M  V30 2548 C 276.565 0.836219 -1.69717 0
M  V30 2549 O 275.908 1.56801 -0.957036 0
M  V30 2550 C 275.97 -0.743082 -3.51736 0
M  V30 2551 C 275.634 -2.1435 -4.03613 0
M  V30 2552 C 276.631 -3.11815 -4.16014 0
M  V30 2553 C 274.316 -2.46175 -4.37839 0
M  V30 2554 C 276.31 -4.39211 -4.61923 0
M  V30 2555 C 273.997 -3.73806 -4.83438 0
M  V30 2556 C 274.995 -4.70137 -4.95439 0
M  V30 2557 O 274.683 -5.95496 -5.40037 0
M  V30 2558 H 274.415 -0.222375 -0.638377 0
M  V30 2559 H 276.969 -1.25317 -1.62742 0
M  V30 2560 H 275.199 -0.0239739 -3.86693 0
M  V30 2561 H 276.888 -0.40603 -4.03864 0
M  V30 2562 H 277.654 -2.88549 -3.89826 0
M  V30 2563 H 273.533 -1.71936 -4.27737 0
M  V30 2564 H 277.077 -5.14404 -4.71205 0
M  V30 2565 H 272.974 -3.96888 -5.09068 0
M  V30 2566 H 273.742 -5.98554 -5.58279 0
M  V30 2567 N 276.405 1.4127 -0.698611 0
M  V30 2568 C 277.652 2.0118 -0.230865 0
M  V30 2569 C 277.98 1.55338 1.17049 0
M  V30 2570 O 277.235 0.756775 1.80475 0
M  V30 2571 C 277.534 3.56592 -0.240192 0
M  V30 2572 C 277.2 4.21955 -1.58948 0
M  V30 2573 C 275.862 4.39524 -1.95887 0
M  V30 2574 C 278.214 4.58576 -2.47704 0
M  V30 2575 C 275.542 4.90992 -3.2116 0
M  V30 2576 C 277.894 5.11435 -3.72313 0
M  V30 2577 C 276.558 5.27215 -4.0939 0
M  V30 2578 H 275.828 0.736169 -0.0844796 0
M  V30 2579 H 278.475 1.69124 -0.8983 0
M  V30 2580 H 276.78 3.88456 0.510797 0
M  V30 2581 H 278.477 4.00758 0.139296 0
M  V30 2582 H 275.067 4.08657 -1.29219 0
M  V30 2583 H 279.251 4.44654 -2.20445 0
M  V30 2584 H 274.507 5.01393 -3.49878 0
M  V30 2585 H 278.681 5.38752 -4.4127 0
M  V30 2586 H 276.308 5.66859 -5.06533 0
M  V30 2587 N 277.883 0.443576 1.51229 0
M  V30 2588 C 279.113 -0.119117 2.06256 0
M  V30 2589 C 279.521 -1.36471 1.31043 0
M  V30 2590 O 278.864 -1.80034 0.365151 0
M  V30 2591 C 278.926 -0.500546 3.55998 0
M  V30 2592 C 278.59 0.639125 4.52509 0
M  V30 2593 C 279.587 1.51311 4.97394 0
M  V30 2594 C 277.272 0.821632 4.95535 0
M  V30 2595 C 279.266 2.55425 5.83984 0
M  V30 2596 C 276.953 1.86603 5.81913 0
M  V30 2597 C 277.951 2.73072 6.26036 0
M  V30 2598 O 277.639 3.75718 7.10698 0
M  V30 2599 H 277.371 -0.00857665 0.675946 0
M  V30 2600 H 279.925 0.623288 1.95715 0
M  V30 2601 H 278.155 -1.29575 3.64345 0
M  V30 2602 H 279.844 -0.995116 3.93513 0
M  V30 2603 H 280.61 1.38367 4.64844 0
M  V30 2604 H 276.489 0.158149 4.60729 0
M  V30 2605 H 280.033 3.22949 6.18344 0
M  V30 2606 H 275.93 1.99564 6.13876 0
M  V30 2607 H 276.698 3.72374 7.2889 0
M  V30 2608 N 279.361 -1.56624 0.175154 0
M  V30 2609 C 280.291 -2.21155 -0.749195 0
M  V30 2610 C 281.272 -1.16836 -1.23626 0
M  V30 2611 O 282.457 -1.45277 -1.28873 0
M  V30 2612 C 279.587 -2.8553 -1.97711 0
M  V30 2613 C 278.541 -3.95921 -1.62575 0
M  V30 2614 C 277.867 -4.47365 -2.92864 0
M  V30 2615 C 279.167 -5.15323 -0.850838 0
M  V30 2616 H 280.861 -2.98653 -0.211295 0
M  V30 2617 H 278.407 -1.43651 -0.100188 0
M  V30 2618 H 280.36 -3.2935 -2.62881 0
M  V30 2619 H 279.084 -2.05406 -2.53921 0
M  V30 2620 H 277.743 -3.52762 -0.997719 0
M  V30 2621 H 277.391 -3.64027 -3.47122 0
M  V30 2622 H 277.091 -5.21839 -2.70106 0
M  V30 2623 H 278.615 -4.93873 -3.59056 0
M  V30 2624 H 280.029 -5.55812 -1.40521 0
M  V30 2625 H 278.426 -5.95739 -0.722154 0
M  V30 2626 H 279.496 -4.84661 0.152082 0
M  V30 2627 N 280.839 0.0985539 -1.57292 0
M  V30 2628 C 282.086 0.802678 -1.85912 0
M  V30 2629 C 282.414 1.78901 -0.763186 0
M  V30 2630 O 281.669 1.94178 0.243559 0
M  V30 2631 C 281.968 1.56927 -3.21105 0
M  V30 2632 C 281.634 0.725376 -4.45027 0
M  V30 2633 C 280.296 0.492726 -4.78671 0
M  V30 2634 C 282.648 0.138493 -5.21016 0
M  V30 2635 C 279.976 -0.336727 -5.85733 0
M  V30 2636 C 282.328 -0.678264 -6.28953 0
M  V30 2637 C 280.992 -0.921039 -6.61115 0
M  V30 2638 H 280.262 0.293721 -0.680301 0
M  V30 2639 H 282.909 0.0642841 -1.91392 0
M  V30 2640 H 281.214 2.37914 -3.11294 0
M  V30 2641 H 282.911 2.11841 -3.40477 0
M  V30 2642 H 279.501 0.916815 -4.18679 0
M  V30 2643 H 283.685 0.305404 -4.95359 0
M  V30 2644 H 278.941 -0.533836 -6.09065 0
M  V30 2645 H 283.115 -1.1399 -6.87007 0
M  V30 2646 H 280.742 -1.56556 -7.43905 0
M  V30 2647 N 282.317 1.53212 0.369288 0
M  V30 2648 C 283.264 1.79388 1.45219 0
M  V30 2649 C 284.234 0.638059 1.53356 0
M  V30 2650 O 285.419 0.879852 1.69302 0
M  V30 2651 C 282.559 1.98623 2.82211 0
M  V30 2652 C 281.672 3.26337 2.8307 0
M  V30 2653 C 280.807 3.35779 4.11614 0
M  V30 2654 C 279.846 4.5754 4.06601 0
M  V30 2655 N 278.983 4.64155 5.26787 0
M  V30 2656 H 283.823 2.71794 1.22198 0
M  V30 2657 H 281.36 1.34642 0.592444 0
M  V30 2658 H 283.318 2.07761 3.61789 0
M  V30 2659 H 281.948 1.09558 3.03639 0
M  V30 2660 H 281 3.26171 1.95747 0
M  V30 2661 H 282.312 4.15988 2.75237 0
M  V30 2662 H 281.466 3.44208 4.99606 0
M  V30 2663 H 280.205 2.44137 4.22195 0
M  V30 2664 H 279.21 4.49215 3.16996 0
M  V30 2665 H 280.435 5.50519 3.97625 0
M  V30 2666 H 278.381 3.75413 5.3796 0
M  V30 2667 H 278.298 5.47706 5.21109 0
M  V30 2668 H 279.566 4.76863 6.16621 0
M  V30 2669 N 283.795 -0.628877 1.44509 0
M  V30 2670 C 284.725 -1.75187 1.54376 0
M  V30 2671 C 285.706 -1.65411 0.396618 0
M  V30 2672 O 286.891 -1.84137 0.617031 0
M  V30 2673 C 284.021 -3.13725 1.48976 0
M  V30 2674 C 282.975 -3.38291 2.62189 0
M  V30 2675 C 282.301 -4.76883 2.41841 0
M  V30 2676 C 283.601 -3.30632 4.04326 0
M  V30 2677 H 285.295 -1.67187 2.48373 0
M  V30 2678 H 282.841 -0.802909 1.19538 0
M  V30 2679 H 284.794 -3.92064 1.54478 0
M  V30 2680 H 283.518 -3.22515 0.514961 0
M  V30 2681 H 282.177 -2.62334 2.56079 0
M  V30 2682 H 281.825 -4.82378 1.42548 0
M  V30 2683 H 281.525 -4.94278 3.17747 0
M  V30 2684 H 283.049 -5.57449 2.49165 0
M  V30 2685 H 284.463 -3.98873 4.11793 0
M  V30 2686 H 282.86 -3.59561 4.80454 0
M  V30 2687 H 283.93 -2.28404 4.27738 0
M  V30 2688 N 285.273 -1.31445 -0.869486 0
M  V30 2689 C 286.203 -1.21727 -1.99261 0
M  V30 2690 C 287.184 -0.104359 -1.6978 0
M  V30 2691 O 288.369 -0.289038 -1.92037 0
M  V30 2692 C 285.499 -0.924317 -3.34774 0
M  V30 2693 C 284.453 -1.99685 -3.78563 0
M  V30 2694 C 283.779 -1.55658 -5.11541 0
M  V30 2695 C 285.079 -3.41003 -3.95619 0
M  V30 2696 H 286.773 -2.1569 -2.07649 0
M  V30 2697 H 284.319 -1.03839 -0.997675 0
M  V30 2698 H 286.272 -0.842934 -4.12883 0
M  V30 2699 H 284.996 0.0509793 -3.2656 0
M  V30 2700 H 283.655 -2.06813 -3.02694 0
M  V30 2701 H 283.303 -0.569132 -4.9977 0
M  V30 2702 H 283.003 -2.27409 -5.41811 0
M  V30 2703 H 284.527 -1.48928 -5.92159 0
M  V30 2704 H 285.941 -3.36547 -4.64122 0
M  V30 2705 H 284.338 -4.10975 -4.37286 0
M  V30 2706 H 285.408 -3.81754 -2.98985 0
M  V30 2707 N 286.751 1.08385 -1.14413 0
M  V30 2708 C 288.167 1.32844 -0.884563 0
M  V30 2709 C 288.367 1.95841 0.474181 0
M  V30 2710 O 287.423 2.21158 1.21842 0
M  V30 2711 C 288.736 2.22978 -2.01745 0
M  V30 2712 C 290.284 2.36458 -2.05077 0
M  V30 2713 C 290.759 3.29934 -3.1766 0
M  V30 2714 N 292.25 3.37511 -3.17239 0
M  V30 2715 C 292.985 4.09871 -4.0099 0
M  V30 2716 N 292.481 4.84936 -4.94781 0
M  V30 2717 N 294.274 4.05704 -3.89051 0
M  V30 2718 H 286.425 0.658756 -2.01926 0
M  V30 2719 H 288.688 0.352821 -0.879899 0
M  V30 2720 H 288.394 1.83934 -2.99769 0
M  V30 2721 H 288.268 3.23441 -1.94077 0
M  V30 2722 H 290.655 2.7476 -1.0766 0
M  V30 2723 H 290.736 1.35736 -2.16816 0
M  V30 2724 H 290.38 2.92352 -4.15322 0
M  V30 2725 H 290.31 4.30584 -3.03158 0
M  V30 2726 H 292.801 2.83996 -2.49308 0
M  V30 2727 H 293.114 5.37612 -5.55151 0
M  V30 2728 H 291.459 4.83988 -4.98779 0
M  V30 2729 H 294.65 3.46167 -3.15097 0
M  V30 2730 H 294.823 4.61834 -4.54547 0
M  V30 2731 N 288.23 0.939286 1.26551 0
M  V30 2732 C 289.177 0.446088 2.26448 0
M  V30 2733 C 290.147 -0.493234 1.58608 0
M  V30 2734 O 291.332 -0.409857 1.86346 0
M  V30 2735 C 288.472 -0.284375 3.43926 0
M  V30 2736 C 287.585 0.690399 4.26448 0
M  V30 2737 C 286.72 -0.0610712 5.31165 0
M  V30 2738 C 285.759 0.905649 6.05363 0
M  V30 2739 N 284.896 0.186055 7.01853 0
M  V30 2740 H 289.736 1.30291 2.68008 0
M  V30 2741 H 287.273 0.65371 1.31776 0
M  V30 2742 H 289.231 -0.724313 4.10864 0
M  V30 2743 H 287.861 -1.10535 3.03285 0
M  V30 2744 H 286.913 1.24885 3.59316 0
M  V30 2745 H 288.225 1.42873 4.779 0
M  V30 2746 H 287.379 -0.56038 6.04106 0
M  V30 2747 H 286.118 -0.832297 4.80546 0
M  V30 2748 H 285.123 1.4161 5.3125 0
M  V30 2749 H 286.348 1.67685 6.58072 0
M  V30 2750 H 284.294 -0.566714 6.53548 0
M  V30 2751 H 284.211 0.863752 7.51049 0
M  V30 2752 H 285.479 -0.292221 7.78952 0
M  V30 2753 N 289.708 -1.40897 0.706093 0
M  V30 2754 C 290.933 -2.05895 0.249435 0
M  V30 2755 C 291.358 -1.52823 -1.09666 0
M  V30 2756 O 290.716 -0.659589 -1.68876 0
M  V30 2757 C 290.764 -3.59872 0.22904 0
M  V30 2758 O 289.868 -4.04708 -0.792784 0
M  V30 2759 H 289.209 -0.653206 0.119241 0
M  V30 2760 H 291.739 -1.80471 0.96391 0
M  V30 2761 H 291.749 -4.07951 0.0634791 0
M  V30 2762 H 290.424 -3.97866 1.21141 0
M  V30 2763 H 289.001 -3.68111 -0.59572 0
M  V30 2764 N 291.186 -0.45159 -1.50991 0
M  V30 2765 C 292.435 0.111653 -2.01391 0
M  V30 2766 C 292.748 1.42529 -1.33959 0
M  V30 2767 O 293.954 2.07232 -1.75405 0
M  V30 2768 C 292.41 0.249514 -3.59034 0
M  V30 2769 C 292.018 -1.05453 -4.35412 0
M  V30 2770 C 293.762 0.765762 -4.17536 0
M  V30 2771 C 291.669 -0.881529 -5.84793 0
M  V30 2772 H 290.599 0.0455022 -0.752626 0
M  V30 2773 H 293.25 -0.583524 -1.73975 0
M  V30 2774 H 291.632 1.00803 -3.82955 0
M  V30 2775 H 292.806 -1.82248 -4.23229 0
M  V30 2776 H 291.121 -1.50039 -3.88429 0
M  V30 2777 H 293.718 0.911913 -5.26866 0
M  V30 2778 H 294.061 1.75201 -3.77638 0
M  V30 2779 H 294.594 0.0651744 -3.97747 0
M  V30 2780 H 291.333 -1.84057 -6.29129 0
M  V30 2781 H 290.853 -0.153625 -5.99603 0
M  V30 2782 H 292.532 -0.540363 -6.4474 0
M  V30 2783 N 292.664 1.56529 -0.183458 0
M  V30 2784 C 293.594 2.21549 0.737456 0
M  V30 2785 C 294.575 1.17489 1.23005 0
M  V30 2786 O 295.76 1.45959 1.281 0
M  V30 2787 C 292.89 2.86575 1.96194 0
M  V30 2788 C 291.844 3.96778 1.60473 0
M  V30 2789 C 291.17 4.48911 2.90487 0
M  V30 2790 C 292.47 5.15767 0.823497 0
M  V30 2791 H 294.164 2.98761 0.195453 0
M  V30 2792 H 291.71 1.43702 0.0925686 0
M  V30 2793 H 293.663 3.30739 2.61131 0
M  V30 2794 H 292.387 2.06749 2.52828 0
M  V30 2795 H 291.046 3.53286 0.978997 0
M  V30 2796 H 290.694 3.65862 3.45186 0
M  V30 2797 H 290.394 5.23265 2.67335 0
M  V30 2798 H 291.918 4.95771 3.56432 0
M  V30 2799 H 293.332 5.56549 1.37571 0
M  V30 2800 H 291.729 5.96114 0.690551 0
M  V30 2801 H 292.799 4.84574 -0.177782 0
M  V30 2802 N 294.142 -0.090211 1.57342 0
M  V30 2803 C 295.074 -1.13541 1.99101 0
M  V30 2804 C 296.087 -1.3604 0.894258 0
M  V30 2805 O 297.276 -1.34606 1.17233 0
M  V30 2806 C 294.376 -2.49001 2.29895 0
M  V30 2807 C 293.549 -2.46712 3.61182 0
M  V30 2808 C 292.608 -3.64136 3.79857 0
M  V30 2809 O 291.634 -3.46405 4.51655 0
M  V30 2810 N 292.836 -4.83802 3.20806 0
M  V30 2811 H 295.601 -0.779942 2.89373 0
M  V30 2812 H 293.162 -0.279125 1.59476 0
M  V30 2813 H 295.154 -3.26166 2.39578 0
M  V30 2814 H 293.724 -2.76619 1.45605 0
M  V30 2815 H 292.944 -1.55058 3.62423 0
M  V30 2816 H 294.232 -2.42265 4.4742 0
M  V30 2817 H 293.63 -5.01112 2.62494 0
M  V30 2818 H 292.187 -5.58543 3.35966 0
M  V30 2819 N 295.62 -1.53406 -0.361157 0
M  V30 2820 C 297.036 -1.43277 -0.703124 0
M  V30 2821 C 297.236 -0.575384 -1.9311 0
M  V30 2822 O 296.292 -0.0595362 -2.5243 0
M  V30 2823 C 297.605 -2.8653 -0.9122 0
M  V30 2824 C 299.153 -2.96191 -1.01193 0
M  V30 2825 C 299.628 -4.40514 -1.25345 0
M  V30 2826 N 301.119 -4.43962 -1.32105 0
M  V30 2827 C 301.854 -5.52746 -1.5251 0
M  V30 2828 N 301.35 -6.71567 -1.70203 0
M  V30 2829 N 303.143 -5.40331 -1.54916 0
M  V30 2830 H 295.294 -2.07654 0.446475 0
M  V30 2831 H 297.557 -0.937944 0.137715 0
M  V30 2832 H 297.263 -3.51605 -0.0816414 0
M  V30 2833 H 297.137 -3.30441 -1.81903 0
M  V30 2834 H 299.524 -2.31266 -1.83303 0
M  V30 2835 H 299.605 -2.55667 -0.0823929 0
M  V30 2836 H 299.249 -5.06014 -0.437346 0
M  V30 2837 H 299.179 -4.78614 -2.19627 0
M  V30 2838 H 301.67 -3.58332 -1.20028 0
M  V30 2839 H 301.983 -7.50241 -1.85359 0
M  V30 2840 H 300.328 -6.74545 -1.67373 0
M  V30 2841 H 303.519 -4.46465 -1.40663 0
M  V30 2842 H 303.692 -6.25173 -1.70477 0
M  V30 2843 N 297.098 0.621204 -1.44841 0
M  V30 2844 C 298.346 1.37783 -1.47852 0
M  V30 2845 C 298.667 1.94653 -0.116224 0
M  V30 2846 O 297.937 1.76367 0.852737 0
M  V30 2847 H 296.517 0.511453 -0.544449 0
M  V30 2848 H 299.179 0.730446 -1.80694 0
M  V30 2849 H 298.275 2.20414 -2.20961 0
M  V30 2850 N 298.576 1.31904 0.862503 0
M  V30 2851 C 299.523 1.20182 1.9704 0
M  V30 2852 C 300.493 0.0858247 1.65878 0
M  V30 2853 O 301.678 0.26 1.8902 0
M  V30 2854 C 298.818 0.922797 3.32533 0
M  V30 2855 C 297.931 2.12284 3.76244 0
M  V30 2856 C 297.066 1.77996 5.00491 0
M  V30 2857 C 296.105 2.94366 5.36671 0
M  V30 2858 N 295.242 2.60223 6.52095 0
M  V30 2859 H 300.082 2.14951 2.06398 0
M  V30 2860 H 297.619 1.06917 1.01031 0
M  V30 2861 H 299.577 0.741548 4.10557 0
M  V30 2862 H 298.207 0.0119227 3.22798 0
M  V30 2863 H 297.259 2.41461 2.9394 0
M  V30 2864 H 298.571 2.99357 3.98982 0
M  V30 2865 H 297.725 1.56377 5.862 0
M  V30 2866 H 296.464 0.881252 4.79672 0
M  V30 2867 H 295.469 3.16625 4.49476 0
M  V30 2868 H 296.694 3.84957 5.59451 0
M  V30 2869 H 294.64 1.72884 6.32809 0
M  V30 2870 H 294.557 3.40827 6.74814 0
M  V30 2871 H 295.825 2.42016 7.40978 0
M  V30 2872 N 300.054 -1.07777 1.14986 0
M  V30 2873 C 301.465 -1.61766 0.932127 0
M  V30 2874 C 301.816 -1.88974 -0.527581 0
M  V30 2875 O 300.941 -1.65198 -1.39781 0
M  V30 2876 C 301.536 -2.93891 1.68563 0
M  V30 2877 C 300.095 -3.44639 1.5133 0
M  V30 2878 C 299.242 -2.18767 1.704 0
M  V30 2879 H 302.193 -0.909201 1.30074 0
M  V30 2880 H 302.214 -3.62623 1.15259 0
M  V30 2881 H 301.726 -2.74057 2.74799 0
M  V30 2882 H 299.827 -3.69564 0.474702 0
M  V30 2883 H 299.94 -4.20966 2.28746 0
M  V30 2884 H 298.304 -2.28253 1.13016 0
M  V30 2885 H 299.087 -2.01433 2.77992 0
M  V30 2886 N 301.532 -0.945985 -1.26051 0
M  V30 2887 C 302.778 -0.597002 -1.93814 0
M  V30 2888 C 303.111 0.862484 -1.73997 0
M  V30 2889 O 302.386 1.61769 -1.07986 0
M  V30 2890 C 302.669 -0.945937 -3.47454 0
M  V30 2891 C 302.522 -2.46052 -3.76535 0
M  V30 2892 C 303.841 -0.464785 -4.37639 0
M  V30 2893 H 300.96 -0.218366 -0.703907 0
M  V30 2894 H 303.602 -1.18107 -1.48831 0
M  V30 2895 H 301.752 -0.448902 -3.85898 0
M  V30 2896 H 303.424 -3.03065 -3.47778 0
M  V30 2897 H 301.667 -2.90194 -3.22444 0
M  V30 2898 H 302.338 -2.65517 -4.83947 0
M  V30 2899 H 304.814 -0.891016 -4.06448 0
M  V30 2900 H 303.69 -0.737712 -5.4392 0
M  V30 2901 H 303.951 0.635274 -4.37512 0
M  V30 2902 N 303.011 1.40521 -0.713556 0
M  V30 2903 C 304.257 2.01221 -0.252564 0
M  V30 2904 C 304.59 1.56444 1.1506 0
M  V30 2905 O 303.865 0.783597 1.78017 0
M  V30 2906 C 304.148 3.58582 -0.330332 0
M  V30 2907 C 304.001 4.13437 -1.77173 0
M  V30 2908 C 305.32 4.39079 0.299641 0
M  V30 2909 H 302.439 0.731077 -0.0932471 0
M  V30 2910 H 305.081 1.67026 -0.905673 0
M  V30 2911 H 303.231 3.87844 0.225737 0
M  V30 2912 H 304.903 3.9498 -2.38303 0
M  V30 2913 H 303.146 3.67801 -2.3001 0
M  V30 2914 H 303.817 5.22597 -1.77755 0
M  V30 2915 H 306.293 4.15735 -0.174139 0
M  V30 2916 H 305.169 5.4848 0.214771 0
M  V30 2917 H 305.43 4.19915 1.38288 0
M  V30 2918 N 304.489 0.459591 1.5075 0
M  V30 2919 C 305.399 -0.34613 2.32033 0
M  V30 2920 C 306.415 -1.00686 1.41909 0
M  V30 2921 O 307.591 -0.997361 1.7497 0
M  V30 2922 C 304.656 -1.42029 3.16273 0
M  V30 2923 C 303.717 -0.777362 4.22203 0
M  V30 2924 C 302.95 -1.80034 5.02418 0
M  V30 2925 O 303.173 -3.02544 4.83553 0
M  V30 2926 O 302.107 -1.37853 5.85901 0
M  V30 2927 H 305.933 0.318054 3.0203 0
M  V30 2928 H 303.518 0.221663 1.47746 0
M  V30 2929 H 305.4 -2.04275 3.68578 0
M  V30 2930 H 304.075 -2.06815 2.49016 0
M  V30 2931 H 302.982 -0.116256 3.73919 0
M  V30 2932 H 304.315 -0.172634 4.91897 0
M  V30 2933 N 305.967 -1.56429 0.191757 0
M  V30 2934 C 307.215 -1.97095 -0.447006 0
M  V30 2935 C 307.536 -1.07967 -1.62383 0
M  V30 2936 O 306.806 -0.150248 -1.95323 0
M  V30 2937 H 305.386 -0.727832 -0.168135 0
M  V30 2938 H 308.048 -1.92911 0.27771 0
M  V30 2939 H 307.144 -3.01848 -0.793371 0
M  V30 2940 N 307.445 0.0818655 -1.57387 0
M  V30 2941 C 308.67 0.799946 -1.91352 0
M  V30 2942 C 309.095 1.70833 -0.787258 0
M  V30 2943 O 308.453 1.79419 0.26048 0
M  V30 2944 C 308.501 1.57812 -3.24234 0
M  V30 2945 O 307.605 2.68806 -3.12757 0
M  V30 2946 H 306.946 0.21891 -0.626877 0
M  V30 2947 H 309.476 0.0531256 -2.04531 0
M  V30 2948 H 309.486 1.95952 -3.57864 0
M  V30 2949 H 308.161 0.911548 -4.05788 0
M  V30 2950 H 306.738 2.33597 -2.90666 0
M  V30 2951 N 308.923 1.53595 0.353017 0
M  V30 2952 C 309.853 1.83902 1.43883 0
M  V30 2953 C 310.834 0.693421 1.55324 0
M  V30 2954 O 312.019 0.944452 1.69687 0
M  V30 2955 C 309.149 2.04016 2.8106 0
M  V30 2956 C 308.103 3.19814 2.84434 0
M  V30 2957 C 307.429 3.25244 4.24406 0
M  V30 2958 C 308.729 4.58133 2.50822 0
M  V30 2959 H 310.423 2.74835 1.1877 0
M  V30 2960 H 307.969 1.32242 0.569917 0
M  V30 2961 H 309.922 2.238 3.57059 0
M  V30 2962 H 308.646 1.09804 3.07588 0
M  V30 2963 H 307.305 2.9987 2.10887 0
M  V30 2964 H 306.953 2.28646 4.48029 0
M  V30 2965 H 306.653 4.03054 4.27576 0
M  V30 2966 H 308.177 3.47228 5.0226 0
M  V30 2967 H 309.591 4.77995 3.16534 0
M  V30 2968 H 307.988 5.38276 2.6529 0
M  V30 2969 H 309.058 4.62387 1.46034 0
M  V30 2970 N 310.401 -0.613514 1.45168 0
M  V30 2971 C 311.311 -1.75296 1.55912 0
M  V30 2972 C 312.327 -1.68244 0.443856 0
M  V30 2973 O 313.503 -1.88706 0.70371 0
M  V30 2974 C 310.568 -3.1174 1.5172 0
M  V30 2975 C 309.629 -3.30291 2.74238 0
M  V30 2976 C 308.862 -4.60226 2.70236 0
M  V30 2977 O 309.085 -5.42168 1.77229 0
M  V30 2978 O 308.019 -4.81361 3.61352 0
M  V30 2979 H 311.845 -1.69183 2.52212 0
M  V30 2980 H 309.43 -0.776886 1.27612 0
M  V30 2981 H 311.312 -3.93044 1.51968 0
M  V30 2982 H 309.987 -3.18357 0.585697 0
M  V30 2983 H 308.894 -2.48598 2.79553 0
M  V30 2984 H 310.227 -3.28547 3.66494 0
M  V30 2985 N 311.879 -1.3236 -0.855495 0
M  V30 2986 C 312.826 -1.21225 -1.964 0
M  V30 2987 C 313.796 -0.0946204 -1.6583 0
M  V30 2988 O 314.981 -0.27002 -1.8888 0
M  V30 2989 C 312.121 -0.940419 -3.32039 0
M  V30 2990 C 311.234 -2.14276 -3.75113 0
M  V30 2991 C 310.369 -1.80648 -4.9954 0
M  V30 2992 C 309.408 -2.97208 -5.35102 0
M  V30 2993 N 308.545 -2.63678 -6.50706 0
M  V30 2994 H 313.385 -2.16042 -2.05255 0
M  V30 2995 H 310.922 -1.07451 -1.00463 0
M  V30 2996 H 312.88 -0.763311 -4.10158 0
M  V30 2997 H 311.51 -0.0290413 -3.22787 0
M  V30 2998 H 310.562 -2.43017 -2.92655 0
M  V30 2999 H 311.874 -3.01468 -3.97389 0
M  V30 3000 H 311.028 -1.59484 -5.85363 0
M  V30 3001 H 309.767 -0.906678 -4.79198 0
M  V30 3002 H 308.772 -3.19004 -4.47791 0
M  V30 3003 H 309.997 -3.87918 -5.57401 0
M  V30 3004 H 307.943 -1.76238 -6.31883 0
M  V30 3005 H 307.86 -3.444 -6.72997 0
M  V30 3006 H 309.128 -2.45942 -7.39684 0
M  V30 3007 N 313.357 1.07166 -1.15556 0
M  V30 3008 C 314.304 2.14417 -0.854055 0
M  V30 3009 C 315.274 1.64965 0.193806 0
M  V30 3010 O 316.459 1.90703 0.0609443 0
M  V30 3011 C 313.599 3.43304 -0.351574 0
M  V30 3012 C 312.712 4.06537 -1.46123 0
M  V30 3013 C 311.847 5.23266 -0.914677 0
M  V30 3014 C 310.886 5.78464 -2.00114 0
M  V30 3015 N 310.023 6.86521 -1.47083 0
M  V30 3016 H 314.863 2.39548 -1.77259 0
M  V30 3017 H 312.4 1.17543 -0.884425 0
M  V30 3018 H 314.358 4.17179 -0.0419409 0
M  V30 3019 H 312.988 3.18419 0.530037 0
M  V30 3020 H 312.04 3.30297 -1.88701 0
M  V30 3021 H 313.352 4.43567 -2.28144 0
M  V30 3022 H 312.506 6.04131 -0.557698 0
M  V30 3023 H 311.245 4.87658 -0.0636583 0
M  V30 3024 H 310.25 4.96243 -2.36692 0
M  V30 3025 H 311.475 6.16126 -2.85597 0
M  V30 3026 H 309.421 6.52849 -0.642198 0
M  V30 3027 H 309.338 7.22446 -2.22729 0
M  V30 3028 H 310.606 7.71087 -1.14215 0
M  V30 3029 N 314.835 0.952656 1.25548 0
M  V30 3030 C 316.246 0.647392 1.75116 0
M  V30 3031 C 316.597 -0.837274 1.77438 0
M  V30 3032 O 315.722 -1.65525 1.39393 0
M  V30 3033 C 316.317 1.16845 3.18014 0
M  V30 3034 C 314.876 0.913382 3.6515 0
M  V30 3035 C 314.023 1.31265 2.44264 0
M  V30 3036 H 316.974 1.12968 1.11462 0
M  V30 3037 H 316.995 0.527606 3.76824 0
M  V30 3038 H 316.507 2.24902 3.16292 0
M  V30 3039 H 314.608 -0.152316 3.72289 0
M  V30 3040 H 314.721 1.54845 4.53387 0
M  V30 3041 H 313.085 0.731028 2.43984 0
M  V30 3042 H 313.868 2.40239 2.45234 0
M  V30 3043 N 316.313 -1.40141 0.720998 0
M  V30 3044 C 317.724 -1.83678 0.334553 0
M  V30 3045 C 318.075 -1.6027 -1.13173 0
M  V30 3046 O 317.2 -1.08643 -1.87152 0
M  V30 3047 C 317.795 -3.33437 0.600437 0
M  V30 3048 C 316.354 -3.75447 0.267642 0
M  V30 3049 C 315.501 -2.63296 0.870097 0
M  V30 3050 H 318.452 -1.29331 0.919732 0
M  V30 3051 H 318.473 -3.80269 -0.132517 0
M  V30 3052 H 317.985 -3.50442 1.66768 0
M  V30 3053 H 316.086 -3.64035 -0.794329 0
M  V30 3054 H 316.199 -4.73344 0.74042 0
M  V30 3055 H 314.563 -2.52954 0.297739 0
M  V30 3056 H 315.346 -2.83112 1.94172 0
M  V30 3057 N 317.792 -0.46758 -1.50504 0
M  V30 3058 C 319.039 0.0886219 -2.02306 0
M  V30 3059 C 319.367 1.40037 -1.34981 0
M  V30 3060 O 318.622 1.90136 -0.463318 0
M  V30 3061 C 318.921 0.323995 -3.55928 0
M  V30 3062 C 318.587 -0.905618 -4.41712 0
M  V30 3063 C 317.249 -1.24275 -4.64875 0
M  V30 3064 C 319.601 -1.72448 -4.91845 0
M  V30 3065 C 316.929 -2.39888 -5.35417 0
M  V30 3066 C 319.281 -2.87185 -5.63656 0
M  V30 3067 C 317.945 -3.21317 -5.85074 0
M  V30 3068 H 317.215 0.0324291 -0.74029 0
M  V30 3069 H 319.862 -0.620945 -1.81153 0
M  V30 3070 H 318.167 1.11577 -3.75577 0
M  V30 3071 H 319.864 0.76826 -3.93572 0
M  V30 3072 H 316.454 -0.632956 -4.239 0
M  V30 3073 H 320.638 -1.4772 -4.73806 0
M  V30 3074 H 315.894 -2.66611 -5.50208 0
M  V30 3075 H 320.068 -3.50985 -6.01484 0
M  V30 3076 H 317.695 -4.1101 -6.39511 0
M  V30 3077 N 319.27 1.56325 -0.20005 0
M  V30 3078 C 320.18 2.22931 0.730668 0
M  V30 3079 C 321.196 1.22997 1.23076 0
M  V30 3080 O 322.372 1.55748 1.27689 0
M  V30 3081 C 319.437 2.87948 1.93098 0
M  V30 3082 C 318.498 4.03166 1.47497 0
M  V30 3083 C 317.731 4.65073 2.61807 0
M  V30 3084 O 317.954 4.25913 3.79413 0
M  V30 3085 O 316.888 5.54452 2.34237 0
M  V30 3086 H 320.714 3.03084 0.193391 0
M  V30 3087 H 318.299 1.49371 0.0294621 0
M  V30 3088 H 320.181 3.29063 2.6324 0
M  V30 3089 H 318.856 2.10771 2.45677 0
M  V30 3090 H 317.763 3.66664 0.742201 0
M  V30 3091 H 319.096 4.82022 0.995796 0
M  V30 3092 N 320.748 -0.0735177 1.57428 0
M  V30 3093 C 321.695 -1.08756 2.0357 0
M  V30 3094 C 322.665 -1.38559 0.916 0
M  V30 3095 O 323.85 -1.49656 1.18354 0
M  V30 3096 C 320.99 -2.39657 2.48311 0
M  V30 3097 C 320.103 -2.16399 3.73892 0
M  V30 3098 C 319.238 -3.40852 4.07423 0
M  V30 3099 C 318.277 -3.1295 5.2605 0
M  V30 3100 N 317.414 -4.29729 5.55228 0
M  V30 3101 H 322.254 -0.687104 2.8997 0
M  V30 3102 H 319.791 -0.327709 1.43403 0
M  V30 3103 H 321.749 -3.16081 2.72303 0
M  V30 3104 H 320.379 -2.77508 1.64891 0
M  V30 3105 H 319.431 -1.30676 3.57251 0
M  V30 3106 H 320.743 -1.91788 4.60455 0
M  V30 3107 H 319.897 -4.25671 4.32306 0
M  V30 3108 H 318.636 -3.68537 3.19425 0
M  V30 3109 H 317.641 -2.26526 5.00965 0
M  V30 3110 H 318.866 -2.86589 6.15665 0
M  V30 3111 H 316.812 -4.57448 4.70188 0
M  V30 3112 H 316.729 -4.08385 6.36206 0
M  V30 3113 H 317.997 -5.1555 5.84661 0
M  V30 3114 N 322.226 -1.5378 -0.344866 0
M  V30 3115 C 323.637 -1.62428 -0.920552 0
M  V30 3116 C 323.988 -0.504747 -1.89596 0
M  V30 3117 O 323.113 0.365711 -2.13287 0
M  V30 3118 C 323.708 -2.94419 -1.67639 0
M  V30 3119 C 322.267 -3.05333 -2.20111 0
M  V30 3120 C 321.414 -2.57866 -1.01982 0
M  V30 3121 H 324.365 -1.58222 -0.123042 0
M  V30 3122 H 324.386 -2.83384 -2.53917 0
M  V30 3123 H 323.898 -3.7588 -0.966224 0
M  V30 3124 H 321.999 -2.28502 -2.94308 0
M  V30 3125 H 322.112 -4.10778 -2.46573 0
M  V30 3126 H 320.476 -2.13241 -1.39285 0
M  V30 3127 H 321.259 -3.41765 -0.324308 0
M  V30 3128 N 323.704 0.605807 -1.45491 0
M  V30 3129 C 324.929 1.39625 -1.53361 0
M  V30 3130 C 325.354 1.87351 -0.167645 0
M  V30 3131 O 324.712 1.60243 0.848051 0
M  V30 3132 C 324.76 2.57559 -2.5238 0
M  V30 3133 O 323.864 3.58248 -2.04285 0
M  V30 3134 H 323.205 0.416771 -0.516912 0
M  V30 3135 H 325.735 0.737103 -1.90861 0
M  V30 3136 H 325.745 3.0478 -2.71244 0
M  V30 3137 H 324.42 2.22171 -3.51586 0
M  V30 3138 H 322.997 3.17664 -1.95305 0
M  V30 3139 N 325.182 1.32811 0.848464 0
M  V30 3140 C 326.431 1.23075 1.59798 0
M  V30 3141 C 326.744 -0.204419 1.94529 0
M  V30 3142 O 327.95 -0.423701 2.68173 0
M  V30 3143 C 326.406 2.15594 2.88179 0
M  V30 3144 C 326.014 3.64228 2.60849 0
M  V30 3145 C 327.758 2.14709 3.66197 0
M  V30 3146 C 325.665 4.48689 3.85269 0
M  V30 3147 H 324.595 0.457091 0.599653 0
M  V30 3148 H 327.246 1.57813 0.936342 0
M  V30 3149 H 325.628 1.73778 3.55833 0
M  V30 3150 H 326.802 4.14424 2.01467 0
M  V30 3151 H 325.117 3.67306 1.96151 0
M  V30 3152 H 327.714 2.75046 4.58534 0
M  V30 3153 H 328.057 1.13966 4.00397 0
M  V30 3154 H 328.59 2.54837 3.05455 0
M  V30 3155 H 325.329 5.5027 3.56207 0
M  V30 3156 H 324.849 4.03241 4.44024 0
M  V30 3157 H 326.528 4.62006 4.52946 0
M  V30 3158 N 326.66 -1.06551 1.16123 0
M  V30 3159 C 327.57 -2.17484 0.879662 0
M  V30 3160 C 328.586 -1.73377 -0.147104 0
M  V30 3161 O 329.762 -2.01379 0.0289128 0
M  V30 3162 C 326.827 -3.44591 0.381829 0
M  V30 3163 C 325.888 -4.0322 1.4735 0
M  V30 3164 C 325.121 -5.24261 0.999324 0
M  V30 3165 O 325.344 -5.70198 -0.151957 0
M  V30 3166 O 324.278 -5.74775 1.78653 0
M  V30 3167 H 328.104 -2.44075 1.80724 0
M  V30 3168 H 325.689 -1.16042 0.940992 0
M  V30 3169 H 327.571 -4.21254 0.111053 0
M  V30 3170 H 326.246 -3.19532 -0.51777 0
M  V30 3171 H 325.153 -3.2806 1.79798 0
M  V30 3172 H 326.486 -4.32568 2.34831 0
M  V30 3173 N 328.138 -0.959301 -1.25041 0
M  V30 3174 C 329.07 -0.440543 -2.24926 0
M  V30 3175 C 330.083 0.446131 -1.56568 0
M  V30 3176 O 331.272 0.253657 -1.76689 0
M  V30 3177 C 328.372 0.38412 -3.36716 0
M  V30 3178 C 327.545 -0.490658 -4.34639 0
M  V30 3179 C 326.604 0.276587 -5.25473 0
M  V30 3180 O 325.63 -0.326614 -5.68262 0
M  V30 3181 N 326.832 1.56844 -5.5891 0
M  V30 3182 H 329.597 -1.29931 -2.70071 0
M  V30 3183 H 327.158 -0.830181 -1.38995 0
M  V30 3184 H 329.15 0.905228 -3.94446 0
M  V30 3185 H 327.72 1.14377 -2.90924 0
M  V30 3186 H 326.94 -1.19282 -3.7572 0
M  V30 3187 H 328.228 -1.08756 -4.97041 0
M  V30 3188 H 327.626 2.08036 -5.26059 0
M  V30 3189 H 326.183 2.03541 -6.19205 0
M  V30 3190 N 329.616 1.39756 -0.72842 0
M  V30 3191 C 330.864 2.00248 -0.272946 0
M  V30 3192 C 331.185 1.58077 1.14178 0
M  V30 3193 O 330.455 0.826014 1.77634 0
M  V30 3194 H 329.035 0.740554 -0.0979247 0
M  V30 3195 H 331.697 1.70903 -0.936912 0
M  V30 3196 H 330.793 3.10495 -0.316142 0
M  V30 3197 N 331.094 0.475555 1.50254 0
M  V30 3198 C 332.34 -0.0780073 2.0265 0
M  V30 3199 C 332.673 -1.38968 1.35652 0
M  V30 3200 O 331.948 -1.8839 0.483691 0
M  V30 3201 C 332.231 -0.257161 3.59181 0
M  V30 3202 C 332.084 1.07585 4.36744 0
M  V30 3203 C 333.403 -1.00965 4.28362 0
M  V30 3204 H 330.522 -0.0268758 0.73651 0
M  V30 3205 H 333.164 0.622015 1.7953 0
M  V30 3206 H 331.314 -0.853412 3.79011 0
M  V30 3207 H 332.986 1.70902 4.28474 0
M  V30 3208 H 331.229 1.6714 4.00308 0
M  V30 3209 H 331.9 0.904088 5.44546 0
M  V30 3210 H 334.376 -0.504214 4.13034 0
M  V30 3211 H 333.252 -1.10381 5.37687 0
M  V30 3212 H 333.513 -2.04731 3.91839 0
M  V30 3213 N 332.573 -1.56217 0.208337 0
M  V30 3214 C 333.521 -2.21053 -0.723769 0
M  V30 3215 C 334.515 -1.18578 -1.20978 0
M  V30 3216 O 335.721 -1.36691 -1.17114 0
M  V30 3217 H 332.096 -0.708595 -0.251788 0
M  V30 3218 H 334.067 -2.98006 -0.153365 0
M  V30 3219 C 332.816 -2.89417 -1.927 0
M  V30 3220 H 332.139 -3.68019 -1.56212 0
M  V30 3221 H 333.579 -3.38201 -2.55727 0
M  V30 3222 C 332.038 -1.91166 -2.77411 0
M  V30 3223 O 332.568 -1.42026 -3.75754 0
M  V30 3224 N 330.774 -1.59105 -2.43175 0
M  V30 3225 H 330.321 -1.99259 -1.63259 0
M  V30 3226 H 330.279 -0.936255 -3.00136 0
M  V30 3227 N 334.051 0.0651679 -1.57465 0
M  V30 3228 C 334.999 1.09542 -2.05191 0
M  V30 3229 C 335.993 1.39675 -0.958509 0
M  V30 3230 O 337.199 1.39003 -1.14359 0
M  V30 3231 H 333.574 0.370623 -0.654326 0
M  V30 3232 H 335.545 0.666802 -2.90854 0
M  V30 3233 C 334.294 2.39881 -2.51699 0
M  V30 3234 H 333.617 2.17547 -3.3543 0
M  V30 3235 H 335.057 3.104 -2.88839 0
M  V30 3236 C 333.516 3.0631 -1.40271 0
M  V30 3237 O 334.046 3.94664 -0.748523 0
M  V30 3238 N 332.252 2.67041 -1.14618 0
M  V30 3239 H 331.799 1.95281 -1.67997 0
M  V30 3240 H 331.757 3.1181 -0.402688 0
M  V30 3241 N 335.529 1.53961 0.336706 0
M  V30 3242 C 336.776 1.71536 1.07618 0
M  V30 3243 C 337.104 0.482125 1.8843 0
M  V30 3244 O 336.359 -0.536142 1.88213 0
M  V30 3245 C 336.658 2.93493 2.03953 0
M  V30 3246 C 336.324 4.28811 1.39399 0
M  V30 3247 C 334.986 4.65602 1.21523 0
M  V30 3248 C 337.338 5.12844 0.929541 0
M  V30 3249 C 334.666 5.84037 0.558312 0
M  V30 3250 C 337.018 6.31951 0.286505 0
M  V30 3251 C 335.682 6.67432 0.0954869 0
M  V30 3252 H 334.952 0.627696 0.393801 0
M  V30 3253 H 337.599 1.88186 0.354715 0
M  V30 3254 H 335.904 2.71475 2.82504 0
M  V30 3255 H 337.601 3.04285 2.61174 0
M  V30 3256 H 334.191 3.99858 1.54311 0
M  V30 3257 H 338.375 4.84947 1.05548 0
M  V30 3258 H 333.631 6.10097 0.398995 0
M  V30 3259 H 337.805 6.96352 -0.0814376 0
M  V30 3260 H 335.432 7.59063 -0.415579 0
M  V30 3261 N 337.007 -0.598083 1.45811 0
M  V30 3262 C 338.253 -1.35882 1.50545 0
M  V30 3263 C 338.586 -1.93616 0.150445 0
M  V30 3264 O 337.861 -1.75604 -0.83628 0
M  V30 3265 C 338.144 -2.49966 2.59208 0
M  V30 3266 C 337.997 -1.97367 4.04186 0
M  V30 3267 C 339.316 -3.52068 2.64076 0
M  V30 3268 H 336.435 -0.492717 0.548087 0
M  V30 3269 H 339.077 -0.673319 1.77669 0
M  V30 3270 H 337.227 -3.08443 2.3621 0
M  V30 3271 H 338.899 -1.43466 4.38423 0
M  V30 3272 H 337.142 -1.283 4.14393 0
M  V30 3273 H 337.813 -2.79649 4.75921 0
M  V30 3274 H 340.289 -3.03448 2.84708 0
M  V30 3275 H 339.165 -4.2937 3.41954 0
M  V30 3276 H 339.426 -4.08304 1.69531 0
M  V30 3277 N 338.485 -1.33259 -0.841409 0
M  V30 3278 C 339.417 -1.19136 -1.95804 0
M  V30 3279 C 340.43 -0.122965 -1.62335 0
M  V30 3280 O 341.619 -0.373154 -1.74556 0
M  V30 3281 C 338.719 -0.804268 -3.29218 0
M  V30 3282 C 337.892 -1.96376 -3.90839 0
M  V30 3283 C 336.951 -1.55806 -5.02604 0
M  V30 3284 O 335.977 -2.27203 -5.21888 0
M  V30 3285 N 337.179 -0.461609 -5.78662 0
M  V30 3286 H 339.944 -2.15326 -2.08458 0
M  V30 3287 H 337.505 -1.25971 -1.017 0
M  V30 3288 H 339.497 -0.51501 -4.0141 0
M  V30 3289 H 338.067 0.0668809 -3.12528 0
M  V30 3290 H 337.287 -2.41879 -3.11269 0
M  V30 3291 H 338.575 -2.73966 -4.28742 0
M  V30 3292 H 337.973 0.132343 -5.65545 0
M  V30 3293 H 336.53 -0.232013 -6.51387 0
M  V30 3294 N 339.963 1.05934 -1.16686 0
M  V30 3295 C 341.193 1.82226 -0.973515 0
M  V30 3296 C 341.601 1.8297 0.481532 0
M  V30 3297 O 340.944 1.25009 1.34604 0
M  V30 3298 C 341.006 3.29897 -1.42858 0
M  V30 3299 C 340.67 3.52849 -2.90425 0
M  V30 3300 C 341.667 3.45595 -3.88407 0
M  V30 3301 C 339.352 3.80053 -3.28428 0
M  V30 3302 C 341.346 3.65217 -5.22394 0
M  V30 3303 C 339.033 3.99325 -4.62583 0
M  V30 3304 C 340.031 3.91905 -5.59374 0
M  V30 3305 O 339.719 4.10647 -6.91104 0
M  V30 3306 H 339.451 0.581314 -0.345036 0
M  V30 3307 H 342.005 1.3453 -1.55212 0
M  V30 3308 H 340.235 3.78472 -0.793477 0
M  V30 3309 H 341.924 3.87692 -1.20207 0
M  V30 3310 H 342.69 3.24564 -3.60393 0
M  V30 3311 H 338.569 3.84936 -2.53664 0
M  V30 3312 H 342.113 3.59341 -5.9793 0
M  V30 3313 H 338.01 4.19846 -4.90306 0
M  V30 3314 H 338.778 4.27915 -6.97733 0
M  V30 3315 N 341.441 0.965919 1.2453 0
M  V30 3316 C 342.388 0.49402 2.25451 0
M  V30 3317 C 343.358 -0.45948 1.59618 0
M  V30 3318 O 344.543 -0.370238 1.87173 0
M  V30 3319 C 341.683 -0.211359 3.44452 0
M  V30 3320 C 340.796 0.7807 4.24887 0
M  V30 3321 C 339.931 0.0516105 5.31175 0
M  V30 3322 C 338.97 1.03385 6.03306 0
M  V30 3323 N 338.107 0.334887 7.01301 0
M  V30 3324 H 342.947 1.35946 2.65184 0
M  V30 3325 H 340.484 0.681515 1.3036 0
M  V30 3326 H 342.442 -0.637 4.12308 0
M  V30 3327 H 341.072 -1.04077 3.05562 0
M  V30 3328 H 340.124 1.32479 3.56586 0
M  V30 3329 H 341.436 1.52978 4.74762 0
M  V30 3330 H 340.59 -0.432114 6.05159 0
M  V30 3331 H 339.329 -0.730179 4.82203 0
M  V30 3332 H 338.334 1.52847 5.28127 0
M  V30 3333 H 339.559 1.81606 6.54367 0
M  V30 3334 H 337.505 -0.427959 6.54603 0
M  V30 3335 H 337.422 1.02287 7.49048 0
M  V30 3336 H 338.69 -0.126928 7.79397 0
M  V30 3337 N 342.919 -1.39368 0.735821 0
M  V30 3338 C 344.166 -2.00497 0.284123 0
M  V30 3339 C 344.494 -1.58387 -1.12889 0
M  V30 3340 O 343.749 -0.804359 -1.78406 0
M  V30 3341 C 344.048 -3.5583 0.334651 0
M  V30 3342 C 343.714 -4.17593 1.7008 0
M  V30 3343 C 342.376 -4.34176 2.07472 0
M  V30 3344 C 344.728 -4.51848 2.59775 0
M  V30 3345 C 342.056 -4.82304 3.34065 0
M  V30 3346 C 344.408 -5.01384 3.85741 0
M  V30 3347 C 343.072 -5.16175 4.23225 0
M  V30 3348 H 342.342 -0.73367 0.103968 0
M  V30 3349 H 344.989 -1.66683 0.942825 0
M  V30 3350 H 343.294 -3.89674 -0.407625 0
M  V30 3351 H 344.991 -4.00986 -0.0329927 0
M  V30 3352 H 341.581 -4.05087 1.40008 0
M  V30 3353 H 345.765 -4.38653 2.32157 0
M  V30 3354 H 341.021 -4.91941 3.63049 0
M  V30 3355 H 345.195 -5.26863 4.55399 0
M  V30 3356 H 342.822 -5.5323 5.21384 0
M  V30 3357 N 344.397 -0.483516 -1.5 0
M  V30 3358 C 345.622 0.0667119 -2.07293 0
M  V30 3359 C 346.047 1.3164 -1.3436 0
M  V30 3360 O 345.405 1.76945 -0.394987 0
M  V30 3361 C 345.453 0.321126 -3.59167 0
M  V30 3362 O 344.557 1.39927 -3.87936 0
M  V30 3363 H 343.898 -0.0184758 -0.663743 0
M  V30 3364 H 346.428 -0.678125 -1.93035 0
M  V30 3365 H 346.438 0.557906 -4.04168 0
M  V30 3366 H 345.113 -0.592007 -4.11665 0
M  V30 3367 H 343.69 1.14882 -3.54763 0
M  V30 3368 N 345.875 1.56104 -0.216619 0
M  V30 3369 C 346.825 2.16703 0.708798 0
M  V30 3370 C 347.809 1.11392 1.16106 0
M  V30 3371 O 349.001 1.37395 1.11587 0
M  V30 3372 C 346.13 2.84666 1.91886 0
M  V30 3373 C 345.216 3.97195 1.48651 0
M  V30 3374 N 345.607 4.99959 0.766434 0
M  V30 3375 C 343.905 4.09193 1.77418 0
M  V30 3376 C 344.606 5.79126 0.546659 0
M  V30 3377 N 343.582 5.32315 1.10188 0
M  V30 3378 H 347.384 2.93516 0.150162 0
M  V30 3379 H 344.898 1.6239 -0.0176768 0
M  V30 3380 H 346.895 3.26486 2.59253 0
M  V30 3381 H 345.555 2.09347 2.48202 0
M  V30 3382 H 346.566 5.16197 0.419634 0
M  V30 3383 H 343.243 3.45021 2.35088 0
M  V30 3384 H 344.633 6.71895 -0.026103 0
M  V30 3385 N 347.353 -0.0568162 1.57498 0
M  V30 3386 C 348.283 -1.06593 2.0775 0
M  V30 3387 C 349.264 -1.39448 0.974082 0
M  V30 3388 O 350.449 -1.48815 1.24771 0
M  V30 3389 C 347.579 -2.37509 2.5339 0
M  V30 3390 C 346.533 -2.1897 3.67745 0
M  V30 3391 C 345.859 -3.55402 3.99492 0
M  V30 3392 C 347.159 -1.59859 4.97235 0
M  V30 3393 H 348.853 -0.647706 2.9231 0
M  V30 3394 H 346.399 -0.310116 1.40621 0
M  V30 3395 H 348.352 -3.08409 2.87162 0
M  V30 3396 H 347.076 -2.8134 1.65878 0
M  V30 3397 H 345.735 -1.50508 3.3428 0
M  V30 3398 H 345.383 -3.9683 3.09088 0
M  V30 3399 H 345.083 -3.43831 4.76502 0
M  V30 3400 H 346.607 -4.27708 4.35773 0
M  V30 3401 H 348.021 -2.20642 5.29141 0
M  V30 3402 H 346.418 -1.58942 5.78669 0
M  V30 3403 H 347.488 -0.561506 4.81638 0
M  V30 3404 N 348.832 -1.54138 -0.328536 0
M  V30 3405 C 350.243 -1.63395 -0.903272 0
M  V30 3406 C 350.594 -0.524828 -1.8905 0
M  V30 3407 O 349.719 0.343068 -2.13663 0
M  V30 3408 C 350.314 -2.9618 -1.64507 0
M  V30 3409 C 348.873 -3.0765 -2.1686 0
M  V30 3410 C 348.02 -2.58933 -0.992416 0
M  V30 3411 H 350.971 -1.58344 -0.106253 0
M  V30 3412 H 350.992 -2.86061 -2.50897 0
M  V30 3413 H 350.504 -3.76884 -0.926302 0
M  V30 3414 H 348.605 -2.31611 -2.91868 0
M  V30 3415 H 348.718 -4.1337 -2.42202 0
M  V30 3416 H 347.082 -2.14706 -1.37016 0
M  V30 3417 H 347.865 -3.42089 -0.288041 0
M  V30 3418 N 350.31 0.590341 -1.46126 0
M  V30 3419 C 351.273 1.68194 -1.55703 0
M  V30 3420 C 352.273 1.54808 -0.434868 0
M  V30 3421 O 353.463 1.59564 -0.698928 0
M  V30 3422 C 350.595 3.07575 -1.47005 0
M  V30 3423 H 351.788 1.61064 -2.52979 0
M  V30 3424 H 349.341 0.807541 -1.33823 0
M  V30 3425 H 350.076 3.20268 -0.509785 0
M  V30 3426 H 349.861 3.187 -2.28414 0
M  V30 3427 H 351.351 3.87055 -1.56776 0
M  V30 3428 N 351.788 1.33704 0.83433 0
M  V30 3429 C 352.735 1.24335 1.94447 0
M  V30 3430 C 353.705 0.120991 1.65659 0
M  V30 3431 O 354.89 0.300035 1.88426 0
M  V30 3432 C 352.03 0.993124 3.30501 0
M  V30 3433 C 351.143 2.20217 3.71657 0
M  V30 3434 C 350.278 1.88572 4.96602 0
M  V30 3435 C 349.317 3.05683 5.30306 0
M  V30 3436 N 348.454 2.73997 6.46429 0
M  V30 3437 H 353.294 2.1928 2.01792 0
M  V30 3438 H 350.831 1.09035 0.987404 0
M  V30 3439 H 352.789 0.828467 4.08892 0
M  V30 3440 H 351.419 0.0803902 3.227 0
M  V30 3441 H 350.471 2.47642 2.88752 0
M  V30 3442 H 351.783 3.07752 3.92543 0
M  V30 3443 H 350.937 1.68776 5.82752 0
M  V30 3444 H 349.676 0.982799 4.77695 0
M  V30 3445 H 348.681 3.26088 4.42659 0
M  V30 3446 H 349.906 3.96737 5.51159 0
M  V30 3447 H 347.852 1.86268 6.28999 0
M  V30 3448 H 347.769 3.55064 6.67432 0
M  V30 3449 H 349.037 2.57679 7.35678 0
M  V30 3450 N 353.266 -1.05314 1.17247 0
M  V30 3451 C 354.176 -2.16538 0.90268 0
M  V30 3452 C 355.192 -1.73523 -0.128707 0
M  V30 3453 O 356.368 -2.01337 0.0502701 0
M  V30 3454 C 353.433 -3.44167 0.418356 0
M  V30 3455 C 352.494 -4.01635 1.51618 0
M  V30 3456 C 351.727 -5.23171 1.05487 0
M  V30 3457 O 351.95 -5.70327 -0.0914715 0
M  V30 3458 O 350.884 -5.72848 1.8474 0
M  V30 3459 H 354.71 -2.42145 1.83302 0
M  V30 3460 H 352.295 -1.15037 0.953246 0
M  V30 3461 H 354.177 -4.21112 0.155726 0
M  V30 3462 H 352.852 -3.20063 -0.48385 0
M  V30 3463 H 351.759 -3.26135 1.83268 0
M  V30 3464 H 353.092 -4.30053 2.39405 0
M  V30 3465 N 354.744 -0.972509 -1.24016 0
M  V30 3466 C 356.16 -0.679827 -1.44397 0
M  V30 3467 C 356.36 0.756716 -1.86751 0
M  V30 3468 O 355.416 1.53007 -2.00861 0
M  V30 3469 C 356.729 -1.66803 -2.50195 0
M  V30 3470 C 358.277 -1.68119 -2.64017 0
M  V30 3471 C 358.752 -2.65748 -3.73017 0
M  V30 3472 N 360.243 -2.64219 -3.8045 0
M  V30 3473 C 360.978 -3.36433 -4.64328 0
M  V30 3474 N 360.474 -4.1818 -5.52356 0
M  V30 3475 N 362.267 -3.25235 -4.58453 0
M  V30 3476 H 354.418 -1.90059 -0.948228 0
M  V30 3477 H 356.681 -0.818527 -0.478245 0
M  V30 3478 H 356.387 -2.69498 -2.25973 0
M  V30 3479 H 356.261 -1.4446 -3.48441 0
M  V30 3480 H 358.648 -0.661319 -2.87594 0
M  V30 3481 H 358.729 -1.94525 -1.66113 0
M  V30 3482 H 358.373 -3.67872 -3.50189 0
M  V30 3483 H 358.303 -2.36619 -4.70446 0
M  V30 3484 H 360.794 -2.04887 -3.17537 0
M  V30 3485 H 361.107 -4.70157 -6.13329 0
M  V30 3486 H 359.452 -4.22273 -5.52006 0
M  V30 3487 H 362.643 -2.60829 -3.88698 0
M  V30 3488 H 362.816 -3.81776 -5.23594 0
M  V30 3489 N 356.222 1.38976 -0.743202 0
M  V30 3490 C 357.154 2.29096 -0.0689228 0
M  V30 3491 C 358.167 1.47229 0.694791 0
M  V30 3492 O 359.356 1.70212 0.537597 0
M  V30 3493 C 356.456 3.25988 0.926548 0
M  V30 3494 C 355.629 4.36833 0.222647 0
M  V30 3495 C 354.688 5.13981 1.12739 0
M  V30 3496 O 353.714 5.6601 0.601795 0
M  V30 3497 N 354.916 5.25966 2.45641 0
M  V30 3498 H 357.681 2.87604 -0.842846 0
M  V30 3499 H 355.242 1.50645 -0.593109 0
M  V30 3500 H 357.234 3.74476 1.5346 0
M  V30 3501 H 355.804 2.68453 1.60162 0
M  V30 3502 H 355.024 3.90116 -0.565983 0
M  V30 3503 H 356.312 5.0811 -0.264841 0
M  V30 3504 H 355.71 4.85228 2.9081 0
M  V30 3505 H 354.267 5.77865 3.01522 0
M  V30 3506 N 357.7 0.491464 1.49741 0
M  V30 3507 C 358.928 -0.0535151 2.06831 0
M  V30 3508 C 359.343 -1.31683 1.35296 0
M  V30 3509 O 358.7 -1.77402 0.42836 0
M  V30 3510 C 358.751 -0.320835 3.60073 0
M  V30 3511 O 358.472 0.892394 4.28915 0
M  V30 3512 C 359.973 -0.910519 4.33848 0
M  V30 3513 H 357.193 0.0161909 0.670805 0
M  V30 3514 H 359.737 0.68609 1.92647 0
M  V30 3515 H 357.892 -1.0104 3.73991 0
M  V30 3516 H 358.306 0.649401 5.20464 0
M  V30 3517 H 359.78 -1.04721 5.41976 0
M  V30 3518 H 360.257 -1.90589 3.95692 0
M  V30 3519 H 360.863 -0.258712 4.24512 0
M  V30 3520 N 359.178 -1.55987 0.224894 0
M  V30 3521 C 360.427 -1.97566 -0.406273 0
M  V30 3522 C 360.74 -1.11569 -1.6066 0
M  V30 3523 O 361.946 -1.43062 -2.3075 0
M  V30 3524 C 360.402 -3.51474 -0.774207 0
M  V30 3525 C 360.01 -4.46179 0.403496 0
M  V30 3526 C 361.754 -4.01758 -1.37079 0
M  V30 3527 C 359.661 -5.91399 0.0129412 0
M  V30 3528 H 358.591 -0.737777 -0.155565 0
M  V30 3529 H 361.242 -1.80659 0.321635 0
M  V30 3530 H 359.624 -3.63994 -1.55963 0
M  V30 3531 H 360.798 -4.45409 1.18101 0
M  V30 3532 H 359.113 -4.06255 0.913536 0
M  V30 3533 H 361.71 -5.07756 -1.67596 0
M  V30 3534 H 362.053 -3.47805 -2.28773 0
M  V30 3535 H 362.586 -3.92475 -0.648733 0
M  V30 3536 H 359.325 -6.49341 0.896451 0
M  V30 3537 H 358.845 -5.95356 -0.728821 0
M  V30 3538 H 360.524 -6.45683 -0.412582 0
M  V30 3539 N 360.656 0.0484629 -1.57525 0
M  V30 3540 C 361.902 0.744226 -1.88651 0
M  V30 3541 C 362.235 1.76029 -0.820212 0
M  V30 3542 O 361.51 1.93782 0.166985 0
M  V30 3543 C 361.793 1.43128 -3.30434 0
M  V30 3544 C 361.646 0.43005 -4.47739 0
M  V30 3545 C 362.965 2.37031 -3.70816 0
M  V30 3546 H 360.084 0.269089 -0.68612 0
M  V30 3547 H 362.726 0.00713532 -1.89999 0
M  V30 3548 H 360.876 2.05956 -3.29415 0
M  V30 3549 H 362.548 -0.194816 -4.60888 0
M  V30 3550 H 360.791 -0.252522 -4.33064 0
M  V30 3551 H 361.462 0.948874 -5.43783 0
M  V30 3552 H 363.938 1.84263 -3.73077 0
M  V30 3553 H 362.814 2.82094 -4.70865 0
M  V30 3554 H 363.075 3.22864 -3.02012 0
M  V30 3555 N 362.134 1.5431 0.320358 0
M  V30 3556 C 363.044 1.86946 1.41734 0
M  V30 3557 C 364.06 0.761689 1.56443 0
M  V30 3558 O 365.236 1.05629 1.71477 0
M  V30 3559 C 362.301 2.09293 2.76401 0
M  V30 3560 C 361.362 3.33082 2.70841 0
M  V30 3561 C 360.595 3.54353 3.99086 0
M  V30 3562 O 360.818 2.79002 4.97508 0
M  V30 3563 O 359.752 4.47838 4.0215 0
M  V30 3564 H 363.578 2.80232 1.17062 0
M  V30 3565 H 361.163 1.40255 0.514673 0
M  V30 3566 H 363.045 2.25303 3.56113 0
M  V30 3567 H 361.72 1.19194 3.00956 0
M  V30 3568 H 360.627 3.22454 1.89668 0
M  V30 3569 H 361.96 4.23249 2.5124 0
M  V30 3570 N 363.613 -0.582584 1.46437 0
M  V30 3571 C 364.543 -1.70187 1.59871 0
M  V30 3572 C 365.524 -1.64066 0.449042 0
M  V30 3573 O 366.709 -1.82081 0.6753 0
M  V30 3574 C 363.839 -3.08827 1.58881 0
M  V30 3575 C 362.793 -3.29779 2.72819 0
M  V30 3576 C 362.119 -4.68947 2.5689 0
M  V30 3577 C 363.419 -3.17601 4.1464 0
M  V30 3578 H 365.113 -1.592 2.53566 0
M  V30 3579 H 362.659 -0.764472 1.22032 0
M  V30 3580 H 364.612 -3.86951 1.66873 0
M  V30 3581 H 363.336 -3.20713 0.617306 0
M  V30 3582 H 361.995 -2.54054 2.64296 0
M  V30 3583 H 361.643 -4.77599 1.57823 0
M  V30 3584 H 361.343 -4.83919 3.33312 0
M  V30 3585 H 362.867 -5.4924 2.66773 0
M  V30 3586 H 364.281 -3.8557 4.24274 0
M  V30 3587 H 362.678 -3.44094 4.9165 0
M  V30 3588 H 363.748 -2.14681 4.34788 0
M  V30 3589 N 365.091 -1.34144 -0.827227 0
M  V30 3590 C 366.054 -1.25264 -1.91942 0
M  V30 3591 C 367.054 -0.168866 -1.59911 0
M  V30 3592 O 368.244 -0.421198 -1.69031 0
M  V30 3593 C 365.376 -0.932952 -3.27885 0
M  V30 3594 H 366.569 -2.22357 -2.0124 0
M  V30 3595 H 364.122 -1.1837 -1.0207 0
M  V30 3596 H 364.857 0.0349917 -3.24281 0
M  V30 3597 H 364.642 -1.71682 -3.52516 0
M  V30 3598 H 366.132 -0.895874 -4.07877 0
M  V30 3599 N 366.569 1.04691 -1.17803 0
M  V30 3600 C 367.516 2.12557 -0.899343 0
M  V30 3601 C 368.486 1.65339 0.158771 0
M  V30 3602 O 369.671 1.90789 0.0204797 0
M  V30 3603 C 366.811 3.42481 -0.424315 0
M  V30 3604 C 365.924 4.03346 -1.54713 0
M  V30 3605 C 365.059 5.21208 -1.02546 0
M  V30 3606 C 364.098 5.74089 -2.12339 0
M  V30 3607 N 363.235 6.83247 -1.61612 0
M  V30 3608 H 368.075 2.35734 -1.823 0
M  V30 3609 H 365.612 1.1564 -0.909159 0
M  V30 3610 H 367.57 4.16996 -0.130421 0
M  V30 3611 H 366.2 3.19471 0.462377 0
M  V30 3612 H 365.252 3.2622 -1.95664 0
M  V30 3613 H 366.564 4.38628 -2.37501 0
M  V30 3614 H 365.718 6.02812 -0.685718 0
M  V30 3615 H 364.457 4.87414 -0.167084 0
M  V30 3616 H 363.462 4.91111 -2.47165 0
M  V30 3617 H 364.687 6.0993 -2.98601 0
M  V30 3618 H 362.633 6.5134 -0.780533 0
M  V30 3619 H 362.55 7.17559 -2.38003 0
M  V30 3620 H 363.818 7.68491 -1.30545 0
M  V30 3621 N 368.047 0.979072 1.23499 0
M  V30 3622 C 368.98 0.463027 2.23453 0
M  V30 3623 C 369.958 -0.469128 1.55685 0
M  V30 3624 O 371.142 -0.397882 1.84253 0
M  V30 3625 C 368.269 -0.330308 3.37086 0
M  V30 3626 C 367.315 0.545795 4.22993 0
M  V30 3627 S 368.148 1.99285 4.97037 0
M  V30 3628 C 369.304 1.20862 6.1412 0
M  V30 3629 H 369.537 1.31005 2.6688 0
M  V30 3630 H 367.07 0.784965 1.32957 0
M  V30 3631 H 369.028 -0.782027 4.02982 0
M  V30 3632 H 367.689 -1.15244 2.92194 0
M  V30 3633 H 366.882 -0.0638928 5.03959 0
M  V30 3634 H 366.484 0.933705 3.62157 0
M  V30 3635 H 368.776 0.469284 6.75873 0
M  V30 3636 H 369.719 1.99307 6.79472 0
M  V30 3637 H 370.127 0.727992 5.59786 0
M  V30 3638 N 369.525 -1.3858 0.750561 0
M  V30 3639 C 370.772 -2.00184 0.305373 0
M  V30 3640 C 371.1 -1.59575 -1.11203 0
M  V30 3641 O 370.355 -0.823236 -1.77542 0
M  V30 3642 C 370.654 -3.55455 0.372373 0
M  V30 3643 C 370.32 -4.15765 1.745 0
M  V30 3644 C 368.982 -4.31951 2.12065 0
M  V30 3645 C 371.334 -4.49067 2.64553 0
M  V30 3646 C 368.662 -4.78734 3.39162 0
M  V30 3647 C 371.014 -4.97265 3.91038 0
M  V30 3648 C 369.678 -5.11658 4.28676 0
M  V30 3649 H 368.948 -0.732526 0.111744 0
M  V30 3650 H 371.595 -1.65673 0.960451 0
M  V30 3651 H 369.9 -3.90084 -0.366272 0
M  V30 3652 H 371.597 -4.00999 0.00953918 0
M  V30 3653 H 368.187 -4.03579 1.44297 0
M  V30 3654 H 372.371 -4.36166 2.36796 0
M  V30 3655 H 367.627 -4.88062 3.68246 0
M  V30 3656 H 371.801 -5.22003 4.60962 0
M  V30 3657 H 369.428 -5.47668 5.27222 0
M  V30 3658 N 371.003 -0.499398 -1.49478 0
M  V30 3659 C 371.933 0.269244 -2.31943 0
M  V30 3660 C 372.914 0.964054 -1.40143 0
M  V30 3661 O 374.099 0.955767 -1.69052 0
M  V30 3662 C 371.229 1.33504 -3.20615 0
M  V30 3663 C 370.183 0.760202 -4.21195 0
M  V30 3664 C 369.509 1.9264 -4.98792 0
M  V30 3665 C 370.809 -0.247661 -5.21712 0
M  V30 3666 H 372.503 -0.419082 -2.96452 0
M  V30 3667 H 370.049 -0.202988 -1.42562 0
M  V30 3668 H 372.002 1.88048 -3.77115 0
M  V30 3669 H 370.726 2.05253 -2.54045 0
M  V30 3670 H 369.385 0.23653 -3.65836 0
M  V30 3671 H 369.033 2.63154 -4.28671 0
M  V30 3672 H 368.733 1.54785 -5.66847 0
M  V30 3673 H 370.257 2.4762 -5.58137 0
M  V30 3674 H 371.671 0.209579 -5.72917 0
M  V30 3675 H 370.068 -0.541962 -5.97648 0
M  V30 3676 H 371.138 -1.16409 -4.7072 0
M  V30 3677 N 372.481 1.55866 -0.233164 0
M  V30 3678 C 373.429 2.22176 0.68851 0
M  V30 3679 C 374.423 1.20487 1.19076 0
M  V30 3680 O 375.629 1.38536 1.14925 0
M  V30 3681 H 372.004 0.712511 0.240483 0
M  V30 3682 H 373.975 2.98212 0.105935 0
M  V30 3683 C 372.724 2.92446 1.88071 0
M  V30 3684 H 372.047 3.70458 1.50337 0
M  V30 3685 H 373.487 3.42226 2.50314 0
M  V30 3686 C 371.946 1.95555 2.74335 0
M  V30 3687 O 372.476 1.47986 3.73447 0
M  V30 3688 N 370.682 1.62953 2.40613 0
M  V30 3689 H 370.229 2.01831 1.60069 0
M  V30 3690 H 370.187 0.983886 2.98609 0
M  V30 3691 N 373.959 -0.0401083 1.57549 0
M  V30 3692 C 375.375 -0.395556 1.54621 0
M  V30 3693 C 375.575 -1.77281 0.957799 0
M  V30 3694 O 374.631 -2.45888 0.574031 0
M  V30 3695 C 375.944 -0.307535 2.99123 0
M  V30 3696 C 377.492 -0.385425 3.10618 0
M  V30 3697 C 377.967 -0.326973 4.56831 0
M  V30 3698 N 379.458 -0.386102 4.61588 0
M  V30 3699 C 380.193 -0.363591 5.72246 0
M  V30 3700 N 379.689 -0.29402 6.92176 0
M  V30 3701 N 381.482 -0.412503 5.60584 0
M  V30 3702 H 373.633 0.861325 1.94152 0
M  V30 3703 H 375.896 0.326445 0.890021 0
M  V30 3704 H 375.602 0.638461 3.45856 0
M  V30 3705 H 375.476 -1.10552 3.60636 0
M  V30 3706 H 377.863 -1.32185 2.63839 0
M  V30 3707 H 377.944 0.44171 2.51957 0
M  V30 3708 H 377.588 0.605738 5.04275 0
M  V30 3709 H 377.518 -1.17207 5.13391 0
M  V30 3710 H 380.009 -0.442832 3.75296 0
M  V30 3711 H 380.322 -0.28164 7.72287 0
M  V30 3712 H 378.667 -0.260232 6.94513 0
M  V30 3713 H 381.858 -0.464769 4.65787 0
M  V30 3714 H 382.031 -0.391492 6.46816 0
M  V30 3715 N 375.437 -1.54477 -0.31217 0
M  V30 3716 C 376.686 -1.72438 -1.04633 0
M  V30 3717 C 376.999 -0.511163 -1.88803 0
M  V30 3718 O 378.205 -0.572341 -2.65399 0
M  V30 3719 C 376.661 -3.05043 -1.9099 0
M  V30 3720 C 376.269 -4.33806 -1.11877 0
M  V30 3721 C 378.013 -3.32364 -2.64073 0
M  V30 3722 C 375.92 -5.57467 -1.97445 0
M  V30 3723 H 374.85 -0.642647 -0.394361 0
M  V30 3724 H 377.501 -1.80966 -0.303929 0
M  V30 3725 H 375.883 -2.90451 -2.69173 0
M  V30 3726 H 377.057 -4.59199 -0.383843 0
M  V30 3727 H 375.372 -4.13336 -0.504252 0
M  V30 3728 H 377.969 -4.21951 -3.28423 0
M  V30 3729 H 378.312 -2.50745 -3.32314 0
M  V30 3730 H 378.845 -3.47875 -1.92944 0
M  V30 3731 H 375.584 -6.41722 -1.33692 0
M  V30 3732 H 375.104 -5.36277 -2.6864 0
M  V30 3733 H 376.783 -5.94303 -2.5576 0
M  V30 3734 N 376.915 0.57481 -1.46744 0
M  V30 3735 C 377.863 1.70435 -1.58286 0
M  V30 3736 C 378.857 1.63287 -0.450956 0
M  V30 3737 O 380.063 1.68685 -0.628121 0
M  V30 3738 H 376.438 0.56364 -0.497809 0
M  V30 3739 H 378.409 1.57833 -2.53242 0
M  V30 3740 C 377.158 3.08815 -1.59776 0
M  V30 3741 H 376.481 3.1499 -2.46214 0
M  V30 3742 H 377.921 3.87588 -1.71905 0
M  V30 3743 C 376.38 3.35301 -0.327812 0
M  V30 3744 O 376.91 3.97511 0.57861 0
M  V30 3745 N 375.116 2.89816 -0.213274 0
M  V30 3746 H 374.663 2.39371 -0.951798 0
M  V30 3747 H 374.621 3.0791 0.63553 0
M  V30 3748 N 378.394 1.34581 0.820102 0
M  V30 3749 C 379.624 1.29991 1.6058 0
M  V30 3750 C 380.032 -0.127588 1.88769 0
M  V30 3751 O 379.375 -1.08595 1.48165 0
M  V30 3752 C 379.437 2.02548 2.9701 0
M  V30 3753 C 379.101 3.51794 2.91701 0
M  V30 3754 C 380.098 4.46647 2.66087 0
M  V30 3755 C 377.783 3.94249 3.11245 0
M  V30 3756 C 379.777 5.81929 2.60071 0
M  V30 3757 C 377.464 5.2963 3.04853 0
M  V30 3758 C 378.462 6.23282 2.793 0
M  V30 3759 O 378.15 7.56181 2.72847 0
M  V30 3760 H 377.882 0.448539 0.505756 0
M  V30 3761 H 380.436 1.77811 1.02822 0
M  V30 3762 H 378.666 1.49345 3.56697 0
M  V30 3763 H 380.355 1.91211 3.58041 0
M  V30 3764 H 381.121 4.15168 2.5072 0
M  V30 3765 H 377 3.21749 3.30149 0
M  V30 3766 H 380.544 6.54999 2.40046 0
M  V30 3767 H 376.441 5.60727 3.19774 0
M  V30 3768 H 377.209 7.6595 2.88553 0
M  V30 3769 N 379.872 -1.04064 1.18357 0
M  V30 3770 C 381.118 -1.77658 0.990412 0
M  V30 3771 C 381.473 -1.86446 -0.474944 0
M  V30 3772 O 380.766 -1.36153 -1.34807 0
M  V30 3773 C 380.96 -3.20634 1.57888 0
M  V30 3774 C 380.789 -3.25782 3.09994 0
M  V30 3775 C 379.559 -3.34411 3.7881 0
M  V30 3776 C 381.757 -3.13791 4.0748 0
M  V30 3777 N 379.739 -3.28809 5.18418 0
M  V30 3778 C 381.11 -3.15689 5.33611 0
M  V30 3779 C 383.165 -2.97833 3.98998 0
M  V30 3780 C 381.868 -3.03268 6.52243 0
M  V30 3781 C 383.894 -2.86759 5.17227 0
M  V30 3782 C 383.256 -2.893 6.4225 0
M  V30 3783 H 379.355 -0.661901 0.416427 0
M  V30 3784 H 381.939 -1.23968 1.50133 0
M  V30 3785 H 380.11 -3.7267 1.09414 0
M  V30 3786 H 381.842 -3.82525 1.32124 0
M  V30 3787 H 378.597 -3.40144 3.29543 0
M  V30 3788 H 379.021 -3.29448 5.91433 0
M  V30 3789 H 383.663 -2.94698 3.03171 0
M  V30 3790 H 381.381 -3.05156 7.48268 0
M  V30 3791 H 384.967 -2.75465 5.12455 0
M  V30 3792 H 383.847 -2.80818 7.32196 0
M  V30 3793 N 381.35 -0.985608 -1.22978 0
M  V30 3794 C 382.3 -0.50118 -2.22423 0
M  V30 3795 C 383.284 0.426649 -1.5514 0
M  V30 3796 O 384.476 0.254656 -1.75159 0
M  V30 3797 C 381.605 0.190003 -3.42774 0
M  V30 3798 C 380.691 -0.757703 -4.17276 0
M  V30 3799 N 381.082 -1.90251 -4.68656 0
M  V30 3800 C 379.38 -0.57209 -4.42316 0
M  V30 3801 C 380.081 -2.49676 -5.25392 0
M  V30 3802 N 379.057 -1.78013 -5.13627 0
M  V30 3803 H 382.859 -1.37441 -2.59783 0
M  V30 3804 H 380.373 -0.846941 -1.38567 0
M  V30 3805 H 382.37 0.55439 -4.13197 0
M  V30 3806 H 381.03 1.05946 -3.06929 0
M  V30 3807 H 382.041 -2.28354 -4.64839 0
M  V30 3808 H 378.718 0.251909 -4.16739 0
M  V30 3809 H 380.108 -3.46384 -5.75732 0
M  V30 3810 N 382.828 1.3818 -0.7579 0
M  V30 3811 C 383.758 2.33027 -0.148597 0
M  V30 3812 C 384.739 1.55085 0.69875 0
M  V30 3813 O 385.924 1.83384 0.639053 0
M  V30 3814 C 383.054 3.3928 0.742034 0
M  V30 3815 C 382.008 4.28 -0.00291946 0
M  V30 3816 C 381.334 5.25146 1.00625 0
M  V30 3817 C 382.634 5.08938 -1.17385 0
M  V30 3818 H 384.328 2.84231 -0.940909 0
M  V30 3819 H 381.874 1.36659 -0.453908 0
M  V30 3820 H 383.827 4.046 1.17799 0
M  V30 3821 H 382.551 2.86569 1.56671 0
M  V30 3822 H 381.21 3.64192 -0.419504 0
M  V30 3823 H 380.858 4.68721 1.8251 0
M  V30 3824 H 380.558 5.85361 0.512428 0
M  V30 3825 H 382.082 5.93342 1.44143 0
M  V30 3826 H 383.496 5.67474 -0.815224 0
M  V30 3827 H 381.893 5.7841 -1.59882 0
M  V30 3828 H 382.963 4.42424 -1.98468 0
M  V30 3829 N 384.306 0.507319 1.49211 0
M  V30 3830 C 385.216 -0.272136 2.33016 0
M  V30 3831 C 386.232 -0.961206 1.45041 0
M  V30 3832 O 387.408 -0.941191 1.78055 0
M  V30 3833 C 384.473 -1.31895 3.20631 0
M  V30 3834 C 383.534 -0.642648 4.24463 0
M  V30 3835 C 382.767 -1.63959 5.07891 0
M  V30 3836 O 382.99 -2.87007 4.92933 0
M  V30 3837 O 381.924 -1.19143 5.8999 0
M  V30 3838 H 385.75 0.413982 3.00865 0
M  V30 3839 H 383.335 0.268556 1.46966 0
M  V30 3840 H 385.217 -1.92446 3.7489 0
M  V30 3841 H 383.892 -1.98788 2.5547 0
M  V30 3842 H 382.799 0.00276252 3.741 0
M  V30 3843 H 384.132 -0.0160534 4.92197 0
M  V30 3844 N 385.784 -1.5574 0.241426 0
M  V30 3845 C 386.747 -2.19877 -0.647063 0
M  V30 3846 C 387.747 -1.16642 -1.10686 0
M  V30 3847 O 388.937 -1.41757 -1.01245 0
M  V30 3848 C 386.069 -2.83797 -1.88871 0
M  V30 3849 H 387.262 -2.99772 -0.087574 0
M  V30 3850 H 384.815 -1.56298 -0.00813574 0
M  V30 3851 H 385.55 -2.07824 -2.48957 0
M  V30 3852 H 385.335 -3.59414 -1.56728 0
M  V30 3853 H 386.825 -3.32898 -2.52129 0
M  V30 3854 N 387.262 0.0317525 -1.57568 0
M  V30 3855 C 388.673 0.578692 -1.77505 0
M  V30 3856 C 389.024 1.75749 -0.872164 0
M  V30 3857 O 388.149 2.16298 -0.0663106 0
M  V30 3858 C 388.744 1.05658 -3.21904 0
M  V30 3859 C 387.303 1.54906 -3.43047 0
M  V30 3860 C 386.45 0.485939 -2.73009 0
M  V30 3861 H 389.401 -0.194475 -1.57504 0
M  V30 3862 H 389.422 1.92404 -3.28269 0
M  V30 3863 H 388.934 0.198422 -3.87592 0
M  V30 3864 H 387.035 2.42915 -2.82529 0
M  V30 3865 H 387.148 1.59841 -4.5165 0
M  V30 3866 H 385.512 0.940354 -2.36705 0
M  V30 3867 H 386.295 -0.362709 -3.41379 0
M  V30 3868 N 388.74 1.54641 0.303973 0
M  V30 3869 C 389.965 1.78092 1.06292 0
M  V30 3870 C 390.39 0.537342 1.80262 0
M  V30 3871 O 389.748 -0.511993 1.7392 0
M  V30 3872 C 389.796 2.98612 2.02147 0
M  V30 3873 O 388.9 2.71528 3.10397 0
M  V30 3874 H 388.241 0.589548 0.305497 0
M  V30 3875 H 390.771 2.01716 0.3423 0
M  V30 3876 H 390.781 3.265 2.44667 0
M  V30 3877 H 389.456 3.88785 1.47714 0
M  V30 3878 H 388.033 2.54648 2.72413 0
M  V30 3879 N 390.218 -0.567019 1.47046 0
M  V30 3880 C 391.15 -1.68985 1.54844 0
M  V30 3881 C 392.163 -1.56869 0.435431 0
M  V30 3882 O 393.352 -1.64006 0.70457 0
M  V30 3883 C 390.452 -3.07373 1.42742 0
M  V30 3884 C 389.625 -3.45339 2.6844 0
M  V30 3885 C 388.684 -4.62849 2.50314 0
M  V30 3886 O 387.71 -4.67922 3.24095 0
M  V30 3887 N 388.912 -5.58726 1.57499 0
M  V30 3888 H 391.677 -1.62745 2.51663 0
M  V30 3889 H 389.238 -0.753411 1.43302 0
M  V30 3890 H 391.23 -3.83803 1.28365 0
M  V30 3891 H 389.8 -3.07893 0.540445 0
M  V30 3892 H 389.02 -2.58455 2.97648 0
M  V30 3893 H 390.308 -3.67476 3.51907 0
M  V30 3894 H 389.706 -5.57376 0.966876 0
M  V30 3895 H 388.263 -6.34523 1.49078 0
M  V30 3896 N 391.696 -1.35014 -0.812953 0
M  V30 3897 C 393.112 -1.14914 -1.10757 0
M  V30 3898 C 393.312 0.0426818 -2.01455 0
M  V30 3899 O 392.368 0.715212 -2.42159 0
M  V30 3900 C 393.681 -2.44911 -1.74468 0
M  V30 3901 C 395.229 -2.5106 -1.86917 0
M  V30 3902 C 395.704 -3.81085 -2.54044 0
M  V30 3903 N 397.195 -3.82301 -2.61535 0
M  V30 3904 C 397.93 -4.79634 -3.14227 0
M  V30 3905 N 397.426 -5.87353 -3.67407 0
M  V30 3906 N 399.219 -4.67078 -3.12721 0
M  V30 3907 H 391.37 -2.1136 -0.20989 0
M  V30 3908 H 393.633 -0.935128 -0.155692 0
M  V30 3909 H 393.339 -3.32267 -1.15289 0
M  V30 3910 H 393.213 -2.58989 -2.74234 0
M  V30 3911 H 395.6 -1.64137 -2.45241 0
M  V30 3912 H 395.681 -2.40901 -0.860242 0
M  V30 3913 H 395.325 -4.68402 -1.96372 0
M  V30 3914 H 395.255 -3.88529 -3.55461 0
M  V30 3915 H 397.746 -3.04465 -2.23851 0
M  V30 3916 H 398.059 -6.57624 -4.05894 0
M  V30 3917 H 396.404 -5.91054 -3.65623 0
M  V30 3918 H 399.595 -3.82067 -2.70449 0
M  V30 3919 H 399.768 -5.43098 -3.53481 0
M  V30 3920 N 393.175 1.03435 -1.18907 0
M  V30 3921 C 394.591 1.28973 -0.940111 0
M  V30 3922 C 394.791 1.97676 0.390691 0
M  V30 3923 O 393.847 2.26127 1.12352 0
M  V30 3924 C 395.16 2.14221 -2.11021 0
M  V30 3925 C 396.708 2.27547 -2.14922 0
M  V30 3926 C 397.183 3.16164 -3.31367 0
M  V30 3927 N 398.674 3.23752 -3.31269 0
M  V30 3928 C 399.409 3.92495 -4.18014 0
M  V30 3929 N 398.905 4.63515 -5.14904 0
M  V30 3930 N 400.698 3.88838 -4.05908 0
M  V30 3931 H 392.849 0.57252 -2.04538 0
M  V30 3932 H 395.112 0.315184 -0.894071 0
M  V30 3933 H 394.818 1.71054 -3.073 0
M  V30 3934 H 394.692 3.14919 -2.0762 0
M  V30 3935 H 397.079 2.69947 -1.19217 0
M  V30 3936 H 397.16 1.26418 -2.22378 0
M  V30 3937 H 396.804 2.74474 -4.27348 0
M  V30 3938 H 396.734 4.17339 -3.21148 0
M  V30 3939 H 399.225 2.73167 -2.61129 0
M  V30 3940 H 399.538 5.13583 -5.77453 0
M  V30 3941 H 397.883 4.62398 -5.18857 0
M  V30 3942 H 401.074 3.32491 -3.29495 0
M  V30 3943 H 401.247 4.4214 -4.73726 0
M  V30 3944 N 394.653 0.992116 1.22453 0
M  V30 3945 C 395.583 0.561677 2.26644 0
M  V30 3946 C 396.564 -0.411055 1.65059 0
M  V30 3947 O 397.749 -0.301861 1.9184 0
M  V30 3948 C 394.879 -0.125247 3.47074 0
M  V30 3949 C 393.833 0.765948 4.21091 0
M  V30 3950 C 393.159 -0.0538484 5.34673 0
M  V30 3951 C 394.459 2.06242 4.79856 0
M  V30 3952 H 396.153 1.43259 2.62902 0
M  V30 3953 H 393.699 0.690283 1.26377 0
M  V30 3954 H 395.652 -0.437764 4.1912 0
M  V30 3955 H 394.376 -1.03069 3.0991 0
M  V30 3956 H 393.035 1.0621 3.50878 0
M  V30 3957 H 392.683 -0.960188 4.9375 0
M  V30 3958 H 392.383 0.539415 5.85119 0
M  V30 3959 H 393.907 -0.360477 6.09535 0
M  V30 3960 H 395.321 1.8139 5.43848 0
M  V30 3961 H 393.718 2.60444 5.40638 0
M  V30 3962 H 394.788 2.74167 3.99951 0
M  V30 3963 N 396.131 -1.37776 0.765217 0
M  V30 3964 C 397.547 -1.53297 0.444108 0
M  V30 3965 C 397.747 -1.72515 -1.04119 0
M  V30 3966 O 396.803 -1.74278 -1.82711 0
M  V30 3967 C 398.116 -2.73328 1.25349 0
M  V30 3968 C 399.664 -2.87185 1.24473 0
M  V30 3969 C 400.139 -4.10191 2.03733 0
M  V30 3970 N 401.63 -4.17291 2.01053 0
M  V30 3971 C 402.365 -5.11488 2.59166 0
M  V30 3972 N 401.861 -6.11285 3.26041 0
M  V30 3973 N 403.654 -5.03924 2.49032 0
M  V30 3974 H 395.805 -1.23552 1.72768 0
M  V30 3975 H 398.068 -0.601103 0.733062 0
M  V30 3976 H 397.774 -2.6557 2.30577 0
M  V30 3977 H 397.648 -3.66834 0.87823 0
M  V30 3978 H 400.035 -2.94418 0.20047 0
M  V30 3979 H 400.116 -1.94657 1.65959 0
M  V30 3980 H 399.76 -4.0372 3.08176 0
M  V30 3981 H 399.69 -5.01821 1.59633 0
M  V30 3982 H 402.181 -3.45825 1.5236 0
M  V30 3983 H 402.494 -6.79678 3.67774 0
M  V30 3984 H 400.839 -6.11583 3.30138 0
M  V30 3985 H 404.03 -4.24902 1.96407 0
M  V30 3986 H 404.203 -5.77152 2.94617 0
M  V30 3987 N 397.609 -0.515225 -1.4894 0
M  V30 3988 C 398.834 0.022727 -2.07388 0
M  V30 3989 C 399.259 1.2876 -1.37122 0
M  V30 3990 O 398.617 1.76067 -0.432431 0
M  V30 3991 C 398.665 0.244869 -3.59768 0
M  V30 3992 O 397.769 1.31667 -3.90817 0
M  V30 3993 H 397.11 -0.0325506 -0.663202 0
M  V30 3994 H 399.64 -0.718918 -1.91553 0
M  V30 3995 H 399.65 0.47205 -4.0526 0
M  V30 3996 H 398.325 -0.679194 -4.10317 0
M  V30 3997 H 396.902 1.07331 -3.5712 0
M  V30 3998 N 399.087 1.5561 -0.249682 0
M  V30 3999 C 400.498 1.84979 0.252949 0
M  V30 4000 C 400.849 1.17153 1.57384 0
M  V30 4001 O 399.974 0.450884 2.11651 0
M  V30 4002 C 400.569 3.35584 0.465732 0
M  V30 4003 C 399.128 3.65169 0.912624 0
M  V30 4004 C 398.275 2.77299 -0.00859085 0
M  V30 4005 H 401.226 1.51513 -0.47217 0
M  V30 4006 H 401.247 3.57313 1.30795 0
M  V30 4007 H 400.759 3.8492 -0.49579 0
M  V30 4008 H 398.86 3.21312 1.88652 0
M  V30 4009 H 398.973 4.72912 0.767559 0
M  V30 4010 H 397.337 2.49678 0.50327 0
M  V30 4011 H 398.12 3.29442 -0.965537 0
M  V30 4012 N 400.565 -0.0233959 1.57583 0
M  V30 4013 C 401.513 -1.04063 2.08023 0
M  V30 4014 C 402.507 -1.37084 0.995204 0
M  V30 4015 O 403.713 -1.35923 1.18004 0
M  V30 4016 H 400.088 -0.353144 0.663922 0
M  V30 4017 H 402.059 -0.589453 2.9252 0
M  V30 4018 C 400.808 -2.33123 2.57971 0
M  V30 4019 H 400.131 -2.08577 3.4108 0
M  V30 4020 H 401.571 -3.02632 2.96967 0
M  V30 4021 C 400.03 -3.02483 1.48342 0
M  V30 4022 O 400.56 -3.92541 0.852898 0
M  V30 4023 N 398.766 -2.63909 1.21658 0
M  V30 4024 H 398.313 -1.90758 1.73116 0
M  V30 4025 H 398.271 -3.10633 0.485218 0
M  V30 4026 N 402.043 -1.548 -0.295768 0
M  V30 4027 C 403.32 -1.65014 -1.05023 0
M  V30 4028 C 403.7 -0.501805 -2.05049 0
M  V30 4029 O 403.048 0.500869 -2.22943 0
M  V30 4030 C 403.258 -3.03252 -1.72741 0
M  V30 4031 C 404.606 -3.60242 -2.24746 0
M  V30 4032 O 405.63 -3.05737 -1.82765 0
M  V30 4033 O 404.489 -4.55687 -3.01681 0
M  V30 4034 H 401.583 -0.669314 -0.485744 0
M  V30 4035 H 404.129 -1.67144 -0.293438 0
M  V30 4036 H 402.901 -3.7827 -1.00138 0
M  V30 4037 H 402.524 -3.04922 -2.55163 0
M  V30 4038 N 403.521 0.559213 -1.47345 0
M  V30 4039 C 404.798 1.31997 -1.44348 0
M  V30 4040 C 405.178 2.1064 -0.139358 0
M  V30 4041 O 404.526 2.1091 0.879153 0
M  V30 4042 C 404.736 2.22618 -2.68779 0
M  V30 4043 C 406.084 2.83701 -3.1591 0
M  V30 4044 O 407.108 2.32921 -2.69493 0
M  V30 4045 O 405.967 3.75993 -3.966 0
M  V30 4046 H 403.061 0.594251 -0.575147 0
M  V30 4047 H 405.607 0.578282 -1.59543 0
M  V30 4048 H 404.379 1.64093 -3.55231 0
M  V30 4049 H 404.002 3.04085 -2.5616 0
M  V30 4050 N 404.999 1.35443 0.805782 0
M  V30 4051 C 406.248 1.28097 1.55801 0
M  V30 4052 C 406.561 -0.142428 1.95081 0
M  V30 4053 O 407.767 -0.33817 2.69386 0
M  V30 4054 C 406.223 2.24653 2.81174 0
M  V30 4055 C 405.831 3.72342 2.49129 0
M  V30 4056 C 407.575 2.2625 3.59181 0
M  V30 4057 C 405.482 4.60719 3.70799 0
M  V30 4058 H 404.412 0.475937 0.584808 0
M  V30 4059 H 407.063 1.60712 0.885661 0
M  V30 4060 H 405.445 1.85011 3.50124 0
M  V30 4061 H 406.619 4.20624 1.88181 0
M  V30 4062 H 404.934 3.73361 1.84366 0
M  V30 4063 H 407.531 2.89495 4.49552 0
M  V30 4064 H 407.874 1.26647 3.96568 0
M  V30 4065 H 408.407 2.64426 2.97193 0
M  V30 4066 H 405.146 5.61324 3.3852 0
M  V30 4067 H 404.666 4.17163 4.3097 0
M  V30 4068 H 406.345 4.76182 4.38018 0
M  V30 4069 N 406.477 -1.02803 1.19454 0
M  V30 4070 C 407.702 -1.80378 1.02364 0
M  V30 4071 C 408.127 -1.83282 -0.423007 0
M  V30 4072 O 407.485 -1.25945 -1.30413 0
M  V30 4073 C 407.533 -3.23248 1.59821 0
M  V30 4074 O 406.637 -4.04 0.828105 0
M  V30 4075 H 405.978 -0.556799 0.361761 0
M  V30 4076 H 408.508 -1.29385 1.58495 0
M  V30 4077 H 408.518 -3.73994 1.63073 0
M  V30 4078 H 407.193 -3.2045 2.65113 0
M  V30 4079 H 405.77 -3.62635 0.86891 0
M  V30 4080 N 407.956 -0.998596 -1.21925 0
M  V30 4081 C 409.204 -0.676325 -1.90448 0
M  V30 4082 C 409.525 0.794719 -1.78071 0
M  V30 4083 O 408.795 1.5701 -1.17152 0
M  V30 4084 H 407.375 -0.247165 -0.704925 0
M  V30 4085 H 410.037 -1.26633 -1.48156 0
M  V30 4086 H 409.133 -0.943858 -2.97486 0
M  V30 4087 N 409.434 1.37368 -0.772513 0
M  V30 4088 C 410.664 2.03647 -0.348082 0
M  V30 4089 C 411.072 1.58392 1.03482 0
M  V30 4090 O 410.415 0.760921 1.672 0
M  V30 4091 C 410.477 3.58131 -0.313404 0
M  V30 4092 C 410.141 4.2652 -1.64102 0
M  V30 4093 C 411.138 4.50587 -2.5936 0
M  V30 4094 C 408.823 4.64335 -1.91567 0
M  V30 4095 C 410.817 5.11526 -3.80289 0
M  V30 4096 C 408.504 5.24996 -3.12766 0
M  V30 4097 C 409.502 5.48529 -4.06946 0
M  V30 4098 O 409.19 6.07921 -5.26011 0
M  V30 4099 H 408.922 0.660538 -0.143753 0
M  V30 4100 H 411.476 1.76669 -1.04772 0
M  V30 4101 H 409.706 3.84159 0.442617 0
M  V30 4102 H 411.395 4.05813 0.0840613 0
M  V30 4103 H 412.161 4.21784 -2.39423 0
M  V30 4104 H 408.04 4.45353 -1.19088 0
M  V30 4105 H 411.584 5.29811 -4.53813 0
M  V30 4106 H 407.481 5.53223 -3.32588 0
M  V30 4107 H 408.249 6.26398 -5.26847 0
M  V30 4108 N 410.912 0.523116 1.48665 0
M  V30 4109 C 411.859 -0.243398 2.29513 0
M  V30 4110 C 412.829 -0.940139 1.36933 0
M  V30 4111 O 414.014 -0.942503 1.65896 0
M  V30 4112 C 411.154 -1.28855 3.20141 0
M  V30 4113 C 410.267 -0.60135 4.27794 0
M  V30 4114 C 409.402 -1.62884 5.05611 0
M  V30 4115 C 408.441 -0.924726 6.05075 0
M  V30 4116 N 407.578 -1.89744 6.75975 0
M  V30 4117 H 412.418 0.452234 2.94549 0
M  V30 4118 H 409.955 0.234858 1.45213 0
M  V30 4119 H 411.913 -1.90674 3.71079 0
M  V30 4120 H 410.543 -1.95266 2.57043 0
M  V30 4121 H 409.595 0.130623 3.80176 0
M  V30 4122 H 410.907 -0.0481585 4.98777 0
M  V30 4123 H 410.061 -2.32149 5.60528 0
M  V30 4124 H 408.8 -2.21592 4.34452 0
M  V30 4125 H 407.805 -0.217966 5.49368 0
M  V30 4126 H 409.03 -0.343851 6.78229 0
M  V30 4127 H 406.976 -2.47373 6.07571 0
M  V30 4128 H 406.893 -1.3955 7.43009 0
M  V30 4129 H 408.161 -2.58229 7.35485 0
M  V30 4130 N 412.39 -1.55475 0.257931 0
M  V30 4131 C 413.3 -2.2549 -0.647425 0
M  V30 4132 C 414.316 -1.2748 -1.18427 0
M  V30 4133 O 415.492 -1.6038 -1.2182 0
M  V30 4134 C 412.557 -2.94916 -1.82278 0
M  V30 4135 C 411.618 -4.08363 -1.32432 0
M  V30 4136 C 410.851 -4.74469 -2.44366 0
M  V30 4137 O 411.074 -4.39701 -3.63344 0
M  V30 4138 O 410.008 -5.62763 -2.13497 0
M  V30 4139 H 413.834 -3.03593 -0.0807707 0
M  V30 4140 H 411.419 -1.49377 0.0259962 0
M  V30 4141 H 413.301 -3.38606 -2.50846 0
M  V30 4142 H 411.976 -2.19744 -2.37685 0
M  V30 4143 H 410.883 -3.69166 -0.605605 0
M  V30 4144 H 412.216 -4.85385 -0.816211 0
M  V30 4145 N 413.868 0.0150385 -1.57593 0
M  V30 4146 C 414.816 1.02958 -2.08572 0
M  V30 4147 C 415.81 1.36554 -1.00246 0
M  V30 4148 O 417.016 1.35295 -1.18724 0
M  V30 4149 H 413.391 0.349619 -0.665786 0
M  V30 4150 H 415.362 0.573932 -2.92829 0
M  V30 4151 C 414.111 2.31752 -2.59203 0
M  V30 4152 H 413.434 2.06765 -3.42182 0
M  V30 4153 H 414.874 3.01053 -2.98568 0
M  V30 4154 C 413.333 3.01692 -1.49945 0
M  V30 4155 O 413.863 3.92083 -0.873704 0
M  V30 4156 N 412.069 2.6326 -1.23056 0
M  V30 4157 H 411.616 1.89838 -1.74125 0
M  V30 4158 H 411.574 3.10372 -0.501685 0
M  V30 4159 N 415.346 1.54954 0.287554 0
M  V30 4160 C 416.576 1.78622 1.03816 0
M  V30 4161 C 416.984 0.552451 1.80955 0
M  V30 4162 O 416.327 -0.487665 1.77109 0
M  V30 4163 C 416.389 2.94975 2.055 0
M  V30 4164 C 416.053 4.32565 1.47433 0
M  V30 4165 C 417.05 5.12096 0.897436 0
M  V30 4166 C 414.735 4.79195 1.50591 0
M  V30 4167 C 416.729 6.36383 0.359851 0
M  V30 4168 C 414.416 6.03441 0.964459 0
M  V30 4169 C 415.414 6.81872 0.392413 0
M  V30 4170 O 415.102 8.03777 -0.140788 0
M  V30 4171 H 414.834 0.599144 0.313053 0
M  V30 4172 H 417.388 2.02761 0.328225 0
M  V30 4173 H 415.618 2.66493 2.80211 0
M  V30 4174 H 417.307 3.06097 2.6657 0
M  V30 4175 H 418.073 4.77209 0.865841 0
M  V30 4176 H 413.952 4.18167 1.94055 0
M  V30 4177 H 417.496 6.97545 -0.0872951 0
M  V30 4178 H 413.393 6.37813 0.993246 0
M  V30 4179 H 414.161 8.18495 -0.0287617 0
M  V30 4180 N 416.824 -0.551391 1.4764 0
M  V30 4181 C 418.052 -1.33357 1.58189 0
M  V30 4182 C 418.467 -1.87342 0.234199 0
M  V30 4183 O 417.824 -1.65301 -0.77343 0
M  V30 4184 C 417.875 -2.49942 2.61173 0
M  V30 4185 O 417.596 -1.98187 3.90709 0
M  V30 4186 C 419.097 -3.42072 2.8196 0
M  V30 4187 H 416.317 -0.40631 0.533998 0
M  V30 4188 H 418.861 -0.667367 1.93304 0
M  V30 4189 H 417.016 -3.12489 2.28975 0
M  V30 4190 H 417.43 -2.74342 4.47031 0
M  V30 4191 H 418.904 -4.20278 3.57869 0
M  V30 4192 H 419.381 -3.95978 1.89995 0
M  V30 4193 H 419.987 -2.85336 3.15378 0
M  V30 4194 N 418.302 -1.35869 -0.798587 0
M  V30 4195 C 419.718 -1.16082 -1.09532 0
M  V30 4196 C 419.918 0.0213124 -2.01489 0
M  V30 4197 O 418.974 0.689488 -2.42904 0
M  V30 4198 C 420.287 -2.46748 -1.7186 0
M  V30 4199 C 421.835 -2.53028 -1.84244 0
M  V30 4200 C 422.31 -3.83758 -2.49988 0
M  V30 4201 N 423.801 -3.85053 -2.57465 0
M  V30 4202 C 424.536 -4.8294 -3.09122 0
M  V30 4203 N 424.032 -5.91217 -3.61157 0
M  V30 4204 N 425.825 -4.70369 -3.0775 0
M  V30 4205 H 417.976 -2.11571 -0.187461 0
M  V30 4206 H 420.239 -0.936726 -0.145765 0
M  V30 4207 H 419.945 -3.33471 -1.11759 0
M  V30 4208 H 419.819 -2.61883 -2.71472 0
M  V30 4209 H 422.206 -1.66729 -2.43486 0
M  V30 4210 H 422.287 -2.418 -0.834643 0
M  V30 4211 H 421.931 -4.70459 -1.91393 0
M  V30 4212 H 421.861 -3.92278 -3.5132 0
M  V30 4213 H 424.352 -3.06822 -2.20609 0
M  V30 4214 H 424.665 -6.61892 -3.98896 0
M  V30 4215 H 423.01 -5.94899 -3.59333 0
M  V30 4216 H 426.201 -3.84914 -2.66381 0
M  V30 4217 H 426.374 -5.46816 -3.47701 0
M  V30 4218 N 419.78 1.02168 -1.19998 0
M  V30 4219 C 421.026 1.7606 -1.01855 0
M  V30 4220 C 421.381 1.87178 0.445222 0
M  V30 4221 O 420.674 1.3828 1.32624 0
M  V30 4222 C 420.868 3.18081 -1.62969 0
M  V30 4223 C 420.697 3.20809 -3.15137 0
M  V30 4224 C 419.467 3.28342 -3.84083 0
M  V30 4225 C 421.665 3.07268 -4.1242 0
M  V30 4226 N 419.647 3.2052 -5.23584 0
M  V30 4227 C 421.018 3.0716 -5.38566 0
M  V30 4228 C 423.073 2.91448 -4.03686 0
M  V30 4229 C 421.776 2.92853 -6.56985 0
M  V30 4230 C 423.802 2.78494 -5.21723 0
M  V30 4231 C 423.164 2.79046 -6.46771 0
M  V30 4232 H 419.263 0.655192 -0.426905 0
M  V30 4233 H 421.847 1.21564 -1.52087 0
M  V30 4234 H 420.018 3.70882 -1.15329 0
M  V30 4235 H 421.75 3.80375 -1.38192 0
M  V30 4236 H 418.505 3.34859 -3.34913 0
M  V30 4237 H 418.929 3.19997 -5.96599 0
M  V30 4238 H 423.571 2.89838 -3.07821 0
M  V30 4239 H 421.289 2.93213 -7.53028 0
M  V30 4240 H 424.875 2.67278 -5.16773 0
M  V30 4241 H 423.755 2.69134 -7.36571 0
M  V30 4242 N 421.258 1.00505 1.21394 0
M  V30 4243 C 422.188 0.585684 2.26035 0
M  V30 4244 C 423.169 -0.393525 1.65485 0
M  V30 4245 O 424.354 -0.281497 1.92149 0
M  V30 4246 C 421.484 -0.0884283 3.47187 0
M  V30 4247 C 420.438 0.810567 4.20254 0
M  V30 4248 C 419.764 0.00286382 5.347 0
M  V30 4249 C 421.064 2.1132 4.77641 0
M  V30 4250 H 422.758 1.46039 2.61368 0
M  V30 4251 H 420.304 0.703648 1.25638 0
M  V30 4252 H 422.257 -0.393286 4.19561 0
M  V30 4253 H 420.981 -0.997766 3.10986 0
M  V30 4254 H 419.64 1.09925 3.49731 0
M  V30 4255 H 419.288 -0.907765 4.94741 0
M  V30 4256 H 418.988 0.601444 5.84514 0
M  V30 4257 H 420.512 -0.295808 6.09883 0
M  V30 4258 H 421.926 1.87148 5.41893 0
M  V30 4259 H 420.323 2.66164 5.37845 0
M  V30 4260 H 421.393 2.78393 3.9702 0
M  V30 4261 N 422.737 -1.36956 0.779787 0
M  V30 4262 C 423.977 -2.01328 0.353043 0
M  V30 4263 C 424.341 -1.60558 -1.05286 0
M  V30 4264 O 425.542 -2.1745 -1.58016 0
M  V30 4265 C 423.813 -3.53874 0.500822 0
M  V30 4266 S 425.372 -4.38506 0.16053 0
M  V30 4267 H 422.19 -0.69799 0.13539 0
M  V30 4268 H 424.792 -1.67016 1.01617 0
M  V30 4269 H 423.496 -3.81034 1.52451 0
M  V30 4270 H 423.027 -3.92994 -0.178574 0
M  V30 4271 H 425.042 -4.85153 -1.04121 0
M  V30 4272 N 424.215 -0.530993 -1.48385 0
M  V30 4273 C 425.445 -0.00133928 -2.066 0
M  V30 4274 C 425.853 1.28599 -1.38777 0
M  V30 4275 O 425.196 1.77599 -0.469495 0
M  V30 4276 C 425.258 0.292137 -3.58311 0
M  V30 4277 C 424.922 -0.901864 -4.48013 0
M  V30 4278 C 425.919 -1.80053 -4.87726 0
M  V30 4279 C 423.604 -1.10915 -4.89901 0
M  V30 4280 C 425.598 -2.89038 -5.68098 0
M  V30 4281 C 423.285 -2.20213 -5.70043 0
M  V30 4282 C 424.283 -3.09107 -6.0905 0
M  V30 4283 O 423.971 -4.16514 -6.87583 0
M  V30 4284 H 423.703 -0.0308475 -0.675296 0
M  V30 4285 H 426.257 -0.736335 -1.91748 0
M  V30 4286 H 424.487 1.08112 -3.7128 0
M  V30 4287 H 426.176 0.763994 -3.98645 0
M  V30 4288 H 426.942 -1.65234 -4.55986 0
M  V30 4289 H 422.821 -0.426498 -4.59023 0
M  V30 4290 H 426.365 -3.58451 -5.98464 0
M  V30 4291 H 422.262 -2.35016 -6.01197 0
M  V30 4292 H 423.03 -4.14237 -7.05939 0
M  V30 4293 N 425.693 1.55336 -0.266172 0
M  V30 4294 C 426.933 2.01303 0.354459 0
M  V30 4295 C 427.297 1.15046 1.53715 0
M  V30 4296 O 428.498 1.50554 2.22681 0
M  V30 4297 C 426.769 3.49748 0.735579 0
M  V30 4298 S 428.328 4.1771 1.34401 0
M  V30 4299 H 425.146 0.702333 0.110674 0
M  V30 4300 H 427.748 1.91653 -0.385916 0
M  V30 4301 H 426.452 4.10181 -0.134196 0
M  V30 4302 H 425.983 3.63364 1.50764 0
M  V30 4303 H 427.998 4.20594 2.63278 0
M  V30 4304 N 427.171 -0.0066808 1.57599 0
M  V30 4305 C 428.119 -1.01851 2.09115 0
M  V30 4306 C 429.113 -1.36021 1.00969 0
M  V30 4307 O 430.319 -1.34663 1.19439 0
M  V30 4308 H 426.694 -0.346083 0.667631 0
M  V30 4309 H 428.665 -0.558394 2.93129 0
M  V30 4310 C 427.414 -2.30374 2.60429 0
M  V30 4311 H 426.737 -2.04947 3.43273 0
M  V30 4312 H 428.177 -2.99466 3.00161 0
M  V30 4313 C 426.636 -3.00893 1.51542 0
M  V30 4314 O 427.166 -3.91614 0.894484 0
M  V30 4315 N 425.372 -2.62603 1.2445 0
M  V30 4316 H 424.919 -1.88911 1.75129 0
M  V30 4317 H 424.877 -3.10101 0.518137 0
M  V30 4318 N 428.649 -1.55105 -0.279332 0
M  V30 4319 C 429.895 -1.75672 -1.01327 0
M  V30 4320 C 430.228 -0.552739 -1.86168 0
M  V30 4321 O 429.503 0.449827 -1.89227 0
M  V30 4322 C 429.786 -3.05825 -1.90114 0
M  V30 4323 C 429.639 -4.36565 -1.08309 0
M  V30 4324 C 430.958 -3.31975 -2.8893 0
M  V30 4325 H 428.077 -0.639149 -0.366957 0
M  V30 4326 H 430.719 -1.87833 -0.286154 0
M  V30 4327 H 428.869 -2.95588 -2.52111 0
M  V30 4328 H 430.541 -4.58751 -0.484314 0
M  V30 4329 H 428.784 -4.32076 -0.386362 0
M  V30 4330 H 429.455 -5.23946 -1.73737 0
M  V30 4331 H 431.931 -3.41963 -2.37067 0
M  V30 4332 H 430.807 -4.2432 -3.48201 0
M  V30 4333 H 431.068 -2.51309 -3.63725 0
M  V30 4334 N 430.127 0.543554 -1.4793 0
M  V30 4335 C 431.538 1.12561 -1.48953 0
M  V30 4336 C 431.889 1.94578 -0.251754 0
M  V30 4337 O 431.014 2.0665 0.642255 0
M  V30 4338 C 431.609 2.04801 -2.69892 0
M  V30 4339 C 430.168 2.58251 -2.73831 0
M  V30 4340 C 429.315 1.34918 -2.42265 0
M  V30 4341 H 432.266 0.32947 -1.55242 0
M  V30 4342 H 432.287 2.88886 -2.47639 0
M  V30 4343 H 431.799 1.4508 -3.59963 0
M  V30 4344 H 429.9 3.21732 -1.87934 0
M  V30 4345 H 430.013 2.98312 -3.74895 0
M  V30 4346 H 428.377 1.66046 -1.93134 0
M  V30 4347 H 429.16 0.769693 -3.3456 0
M  V30 4348 N 431.605 1.3629 0.791371 0
M  V30 4349 C 432.537 1.26321 1.91248 0
M  V30 4350 C 433.55 0.18313 1.61767 0
M  V30 4351 O 434.739 0.437682 1.73051 0
M  V30 4352 C 431.839 0.925901 3.26007 0
M  V30 4353 C 431.012 2.10746 3.83281 0
M  V30 4354 C 430.071 1.74352 4.96475 0
M  V30 4355 O 429.097 2.46416 5.13096 0
M  V30 4356 N 430.299 0.676058 5.7655 0
M  V30 4357 H 433.064 2.22915 2.00323 0
M  V30 4358 H 430.625 1.29659 0.969546 0
M  V30 4359 H 432.617 0.663636 3.99222 0
M  V30 4360 H 431.187 0.0491581 3.12561 0
M  V30 4361 H 430.407 2.53264 3.02077 0
M  V30 4362 H 431.695 2.8969 4.18279 0
M  V30 4363 H 431.093 0.0776467 5.65647 0
M  V30 4364 H 429.65 0.473612 6.50077 0
M  V30 4365 N 433.083 -1.0153 1.20538 0
M  V30 4366 C 434.33 -1.75149 1.01633 0
M  V30 4367 C 434.658 -1.89189 -0.451399 0
M  V30 4368 O 433.913 -1.41551 -1.35136 0
M  V30 4369 C 434.212 -3.17213 1.64654 0
M  V30 4370 C 433.878 -3.23146 3.14464 0
M  V30 4371 C 432.54 -3.24472 3.55347 0
M  V30 4372 C 434.892 -3.21207 4.10458 0
M  V30 4373 C 432.22 -3.21532 4.90748 0
M  V30 4374 C 434.572 -3.19808 5.45807 0
M  V30 4375 C 433.236 -3.19439 5.86102 0
M  V30 4376 H 432.506 -0.640914 0.3719 0
M  V30 4377 H 435.153 -1.19071 1.49981 0
M  V30 4378 H 433.458 -3.76457 1.08571 0
M  V30 4379 H 435.155 -3.72871 1.4754 0
M  V30 4380 H 431.745 -3.2285 2.81897 0
M  V30 4381 H 435.929 -3.19351 3.79906 0
M  V30 4382 H 431.185 -3.19578 5.21229 0
M  V30 4383 H 435.359 -3.1726 6.19935 0
M  V30 4384 H 432.986 -3.16915 6.90991 0
M  V30 4385 N 434.561 -1.01147 -1.20859 0
M  V30 4386 C 435.801 -0.706331 -1.91808 0
M  V30 4387 C 436.165 0.749736 -1.76757 0
M  V30 4388 O 437.366 1.16716 -2.42138 0
M  V30 4389 C 435.637 -1.12371 -3.39275 0
M  V30 4390 S 437.196 -0.939764 -4.28619 0
M  V30 4391 H 434.014 -0.257665 -0.662669 0
M  V30 4392 H 436.616 -1.29766 -1.46223 0
M  V30 4393 H 435.32 -2.17943 -3.47749 0
M  V30 4394 H 434.851 -0.524952 -3.89882 0
M  V30 4395 H 436.866 0.159556 -4.95943 0
M  V30 4396 N 436.039 1.36541 -0.78704 0
M  V30 4397 C 437.316 1.9355 -0.282424 0
M  V30 4398 C 437.696 1.71919 1.22503 0
M  V30 4399 O 437.044 1.07677 2.01539 0
M  V30 4400 C 437.254 3.4246 -0.672462 0
M  V30 4401 C 438.602 4.19582 -0.650863 0
M  V30 4402 O 439.626 3.50889 -0.612789 0
M  V30 4403 O 438.485 5.42106 -0.691623 0
M  V30 4404 H 435.579 0.824091 -0.0693 0
M  V30 4405 H 438.125 1.45736 -0.869423 0
M  V30 4406 H 436.897 3.51851 -1.71221 0
M  V30 4407 H 436.52 3.97556 -0.0592211 0
M  V30 4408 N 437.518 0.538854 1.48102 0
M  V30 4409 C 438.743 0.0102694 2.07397 0
M  V30 4410 C 439.168 -1.26562 1.39153 0
M  V30 4411 O 438.526 -1.75357 0.460387 0
M  V30 4412 C 438.574 -0.187602 3.60112 0
M  V30 4413 O 437.678 -1.25432 3.92862 0
M  V30 4414 H 437.019 0.0430975 0.6626 0
M  V30 4415 H 439.549 0.749301 1.90385 0
M  V30 4416 H 439.559 -0.407517 4.0596 0
M  V30 4417 H 438.234 0.744386 4.09184 0
M  V30 4418 H 436.811 -1.01636 3.58782 0
M  V30 4419 N 438.996 -1.55193 0.274407 0
M  V30 4420 C 439.926 -2.25471 -0.607032 0
M  V30 4421 C 440.907 -1.24461 -1.15946 0
M  V30 4422 O 442.092 -1.53179 -1.19373 0
M  V30 4423 C 439.222 -2.97526 -1.79153 0
M  V30 4424 C 438.176 -4.05459 -1.37067 0
M  V30 4425 C 437.502 -4.65084 -2.6382 0
M  V30 4426 C 438.802 -5.19691 -0.521389 0
M  V30 4427 H 440.496 -2.99393 -0.0209343 0
M  V30 4428 H 438.042 -1.43997 -0.00862866 0
M  V30 4429 H 439.995 -3.45402 -2.41404 0
M  V30 4430 H 438.719 -2.21138 -2.40344 0
M  V30 4431 H 437.378 -3.58393 -0.771355 0
M  V30 4432 H 437.026 -3.85365 -3.23268 0
M  V30 4433 H 436.726 -5.37961 -2.36372 0
M  V30 4434 H 438.25 -5.15708 -3.26921 0
M  V30 4435 H 439.664 -5.63623 -1.04889 0
M  V30 4436 H 438.061 -5.99126 -0.341825 0
M  V30 4437 H 439.131 -4.82713 0.46 0
M  V30 4438 N 440.474 -0.00167713 -1.576 0
M  V30 4439 C 441.885 0.54091 -1.78693 0
M  V30 4440 C 442.236 1.7386 -0.909247 0
M  V30 4441 O 441.361 2.16109 -0.112176 0
M  V30 4442 C 441.956 0.98806 -3.24072 0
M  V30 4443 C 440.515 1.47594 -3.46256 0
M  V30 4444 C 439.662 0.42792 -2.73978 0
M  V30 4445 H 442.613 -0.22784 -1.57056 0
M  V30 4446 H 442.634 1.85398 -3.32277 0
M  V30 4447 H 442.146 0.116164 -3.87926 0
M  V30 4448 H 440.247 2.36868 -2.87618 0
M  V30 4449 H 440.36 1.50225 -4.54939 0
M  V30 4450 H 438.724 0.889934 -2.38647 0
M  V30 4451 H 439.507 -0.435038 -3.40532 0
M  V30 4452 N 441.952 1.55251 0.271103 0
M  V30 4453 C 443.368 1.47133 0.618393 0
M  V30 4454 C 443.568 0.686994 1.89427 0
M  V30 4455 O 442.624 0.206609 2.51653 0
M  V30 4456 C 443.937 2.91361 0.743593 0
M  V30 4457 C 445.485 3.01587 0.837522 0
M  V30 4458 C 445.96 4.47073 0.994483 0
M  V30 4459 N 447.451 4.50909 1.05996 0
M  V30 4460 C 448.186 5.60698 1.20024 0
M  V30 4461 N 447.682 6.80348 1.30759 0
M  V30 4462 N 449.475 5.48444 1.23149 0
M  V30 4463 H 441.626 2.04698 -0.566784 0
M  V30 4464 H 443.889 0.928319 -0.192165 0
M  V30 4465 H 443.595 3.51483 -0.123493 0
M  V30 4466 H 443.469 3.40484 1.62328 0
M  V30 4467 H 445.856 2.4156 1.69507 0
M  V30 4468 H 445.937 2.55713 -0.0668086 0
M  V30 4469 H 445.581 5.07703 0.141582 0
M  V30 4470 H 445.511 4.90605 1.91349 0
M  V30 4471 H 448.002 3.6472 0.989316 0
M  V30 4472 H 448.315 7.59772 1.41303 0
M  V30 4473 H 446.66 6.83156 1.27761 0
M  V30 4474 H 449.851 4.53907 1.14394 0
M  V30 4475 H 450.024 6.34049 1.33738 0
M  V30 4476 N 443.43 -0.535701 1.48216 0
M  V30 4477 C 444.66 -1.3148 1.59363 0
M  V30 4478 C 445.068 -1.8753 0.250844 0
M  V30 4479 O 444.411 -1.66821 -0.769174 0
M  V30 4480 C 444.473 -2.50731 2.57632 0
M  V30 4481 C 444.137 -2.15811 4.02833 0
M  V30 4482 C 445.134 -1.71822 4.90686 0
M  V30 4483 C 442.819 -2.26509 4.48329 0
M  V30 4484 C 444.813 -1.3899 6.22062 0
M  V30 4485 C 442.5 -1.93289 5.79726 0
M  V30 4486 C 443.498 -1.49599 6.66415 0
M  V30 4487 O 443.186 -1.16812 7.95368 0
M  V30 4488 H 442.918 -0.406315 0.540263 0
M  V30 4489 H 445.472 -0.653569 1.94725 0
M  V30 4490 H 443.702 -3.19817 2.1738 0
M  V30 4491 H 445.391 -3.12797 2.58675 0
M  V30 4492 H 446.157 -1.63031 4.56778 0
M  V30 4493 H 442.036 -2.59471 3.81045 0
M  V30 4494 H 445.58 -1.04816 6.89681 0
M  V30 4495 H 441.477 -2.01718 6.13172 0
M  V30 4496 H 442.245 -1.30259 8.08069 0
M  V30 4497 N 444.908 -1.36708 -0.784132 0
M  V30 4498 C 445.818 -1.3363 -1.92822 0
M  V30 4499 C 446.834 -0.237686 -1.72369 0
M  V30 4500 O 448.01 -0.470962 -1.95816 0
M  V30 4501 C 445.075 -1.13011 -3.27764 0
M  V30 4502 C 444.136 -2.32397 -3.60957 0
M  V30 4503 C 443.369 -2.12752 -4.89461 0
M  V30 4504 O 443.592 -1.10541 -5.59586 0
M  V30 4505 O 442.526 -3.00653 -5.21432 0
M  V30 4506 H 446.352 -2.29964 -1.98369 0
M  V30 4507 H 443.937 -1.1731 -0.925136 0
M  V30 4508 H 445.819 -1.03451 -4.08504 0
M  V30 4509 H 444.494 -0.19743 -3.23097 0
M  V30 4510 H 443.401 -2.47527 -2.80502 0
M  V30 4511 H 444.734 -3.2419 -3.70354 0
M  V30 4512 N 446.386 1.0089 -1.21074 0
M  V30 4513 C 447.614 1.78191 -1.05145 0
M  V30 4514 C 448.029 1.84537 0.398952 0
M  V30 4515 O 447.386 1.30393 1.27687 0
M  V30 4516 C 447.437 3.22288 -1.63746 0
M  V30 4517 O 447.158 3.16315 -3.03111 0
M  V30 4518 C 448.659 4.16106 -1.52875 0
M  V30 4519 H 445.879 0.560129 -0.369454 0
M  V30 4520 H 448.423 1.26945 -1.60328 0
M  V30 4521 H 446.578 3.70655 -1.12664 0
M  V30 4522 H 446.992 4.06817 -3.31059 0
M  V30 4523 H 448.466 5.15026 -1.98626 0
M  V30 4524 H 448.943 4.36541 -0.482521 0
M  V30 4525 H 449.549 3.73625 -2.03185 0
M  V30 4526 N 447.864 1.01787 1.20321 0
M  V30 4527 C 449.092 0.727194 1.937 0
M  V30 4528 C 449.507 -0.712305 1.74848 0
M  V30 4529 O 448.864 -1.48327 1.06327 0
M  V30 4530 C 448.915 1.05497 3.45764 0
M  V30 4531 O 448.636 2.43794 3.64 0
M  V30 4532 C 450.137 0.785534 4.36285 0
M  V30 4533 H 447.357 0.266939 0.615617 0
M  V30 4534 H 449.901 1.35939 1.52777 0
M  V30 4535 H 448.056 0.468158 3.84561 0
M  V30 4536 H 448.47 2.55656 4.57974 0
M  V30 4537 H 449.944 1.06495 5.4163 0
M  V30 4538 H 450.421 -0.280273 4.38305 0
M  V30 4539 H 451.027 1.35456 4.03152 0
M  V30 4540 N 449.342 -1.36122 0.79427 0
M  V30 4541 C 450.274 -2.28683 0.153903 0
M  V30 4542 C 451.287 -1.49707 -0.639669 0
M  V30 4543 O 452.476 -1.7209 -0.474054 0
M  V30 4544 C 449.576 -3.29202 -0.804921 0
M  V30 4545 C 448.749 -4.37358 -0.060366 0
M  V30 4546 C 447.808 -5.17811 -0.935849 0
M  V30 4547 O 446.834 -5.67853 -0.391309 0
M  V30 4548 N 448.036 -5.34721 -2.25951 0
M  V30 4549 H 450.801 -2.84278 0.949008 0
M  V30 4550 H 448.362 -1.4834 0.648611 0
M  V30 4551 H 450.354 -3.79914 -1.39455 0
M  V30 4552 H 448.924 -2.74212 -1.50088 0
M  V30 4553 H 448.144 -3.87746 0.710382 0
M  V30 4554 H 449.432 -5.06777 0.45324 0
M  V30 4555 H 448.83 -4.95687 -2.72601 0
M  V30 4556 H 447.387 -5.88657 -2.79867 0
M  V30 4557 N 450.82 -0.546701 -1.47814 0
M  V30 4558 C 452.066 -0.0187684 -2.02791 0
M  V30 4559 C 452.399 1.32338 -1.42128 0
M  V30 4560 O 451.674 1.85867 -0.573023 0
M  V30 4561 C 451.957 0.0854985 -3.59998 0
M  V30 4562 C 451.81 -1.283 -4.31114 0
M  V30 4563 C 453.129 0.80412 -4.32691 0
M  V30 4564 H 450.248 -0.0082946 -0.736953 0
M  V30 4565 H 452.89 -0.706962 -1.76358 0
M  V30 4566 H 451.04 0.671609 -3.82651 0
M  V30 4567 H 452.712 -1.91151 -4.19832 0
M  V30 4568 H 450.955 -1.86049 -3.91878 0
M  V30 4569 H 451.626 -1.16287 -5.39612 0
M  V30 4570 H 454.102 0.306576 -4.14969 0
M  V30 4571 H 452.978 0.846011 -5.42341 0
M  V30 4572 H 453.239 1.85802 -4.01161 0
M  V30 4573 N 452.299 1.55045 -0.282633 0
M  V30 4574 C 453.546 1.9976 0.33199 0
M  V30 4575 C 453.874 1.17105 1.55295 0
M  V30 4576 O 453.129 0.230599 1.94337 0
M  V30 4577 C 453.428 3.49422 0.750938 0
M  V30 4578 C 453.094 4.4941 -0.366228 0
M  V30 4579 C 451.756 4.76471 -0.672964 0
M  V30 4580 C 454.108 5.09054 -1.11864 0
M  V30 4581 C 451.436 5.60442 -1.73556 0
M  V30 4582 C 453.788 5.9418 -2.17102 0
M  V30 4583 C 452.452 6.19558 -2.48402 0
M  V30 4584 H 451.722 0.730974 0.121484 0
M  V30 4585 H 454.369 1.8732 -0.39791 0
M  V30 4586 H 452.674 3.59377 1.56063 0
M  V30 4587 H 454.371 3.81432 1.23736 0
M  V30 4588 H 450.961 4.2844 -0.117041 0
M  V30 4589 H 455.145 4.88165 -0.894925 0
M  V30 4590 H 450.401 5.78349 -1.983 0
M  V30 4591 H 454.575 6.39427 -2.75873 0
M  V30 4592 H 452.202 6.84417 -3.30874 0
M  V30 4593 N 453.777 0.010035 1.57597 0
M  V30 4594 C 455.025 -0.671371 1.90623 0
M  V30 4595 C 455.346 -1.73753 0.885151 0
M  V30 4596 O 454.616 -1.95752 -0.0760611 0
M  V30 4597 H 453.196 -0.250968 0.703579 0
M  V30 4598 H 455.858 0.0533325 1.94827 0
M  V30 4599 H 454.954 -1.13626 2.90681 0
M  V30 4600 N 455.255 -1.55392 -0.262866 0
M  V30 4601 C 456.671 -1.47459 -0.610582 0
M  V30 4602 C 456.871 -0.697031 -1.8906 0
M  V30 4603 O 455.927 -0.219952 -2.5154 0
M  V30 4604 C 457.24 -2.91751 -0.728131 0
M  V30 4605 C 458.788 -3.02027 -0.821517 0
M  V30 4606 C 459.263 -4.47594 -0.97076 0
M  V30 4607 N 460.754 -4.51465 -1.03603 0
M  V30 4608 C 461.489 -5.61326 -1.17049 0
M  V30 4609 N 460.985 -6.81032 -1.2715 0
M  V30 4610 N 462.778 -5.49089 -1.20239 0
M  V30 4611 H 454.929 -2.04395 0.577632 0
M  V30 4612 H 457.192 -0.927287 0.197086 0
M  V30 4613 H 456.898 -3.51413 0.142132 0
M  V30 4614 H 456.772 -3.4134 -1.6052 0
M  V30 4615 H 459.159 -2.42456 -1.68224 0
M  V30 4616 H 459.24 -2.55674 0.0803688 0
M  V30 4617 H 458.884 -5.07771 -0.114655 0
M  V30 4618 H 458.814 -4.91613 -1.88745 0
M  V30 4619 H 461.305 -3.6524 -0.96996 0
M  V30 4620 H 461.618 -7.60511 -1.37271 0
M  V30 4621 H 459.963 -6.83824 -1.24136 0
M  V30 4622 H 463.154 -4.54507 -1.11985 0
M  V30 4623 H 463.327 -6.34749 -1.30373 0
M  V30 4624 N 456.733 0.527833 -1.48498 0
M  V30 4625 C 457.961 1.30823 -1.6029 0
M  V30 4626 C 458.376 1.86945 -0.263974 0
M  V30 4627 O 457.733 1.6651 0.747034 0
M  V30 4628 C 457.784 2.45756 -2.65116 0
M  V30 4629 O 457.505 1.91946 -3.93813 0
M  V30 4630 C 459.006 3.37543 -2.87367 0
M  V30 4631 H 456.226 0.397763 -0.540394 0
M  V30 4632 H 458.77 0.636529 -1.94341 0
M  V30 4633 H 456.925 3.08806 -2.33917 0
M  V30 4634 H 457.339 2.67195 -4.51339 0
M  V30 4635 H 458.813 4.14532 -3.6451 0
M  V30 4636 H 459.29 3.92905 -1.9627 0
M  V30 4637 H 459.896 2.80283 -3.19878 0
M  V30 4638 N 458.211 1.37122 0.776871 0
M  V30 4639 C 459.141 1.35164 1.90402 0
M  V30 4640 C 460.122 0.221069 1.68657 0
M  V30 4641 O 461.307 0.420642 1.8959 0
M  V30 4642 C 458.437 1.15274 3.27611 0
M  V30 4643 C 457.391 2.25289 3.63908 0
M  V30 4644 C 456.717 1.90527 4.99603 0
M  V30 4645 C 458.017 3.67446 3.71188 0
M  V30 4646 H 459.711 2.29482 1.92297 0
M  V30 4647 H 457.257 1.10465 0.923773 0
M  V30 4648 H 459.21 1.12536 4.06096 0
M  V30 4649 H 457.934 0.174102 3.26136 0
M  V30 4650 H 456.593 2.27174 2.87728 0
M  V30 4651 H 456.241 0.91206 4.94662 0
M  V30 4652 H 455.941 2.64193 5.24858 0
M  V30 4653 H 457.465 1.89367 5.80493 0
M  V30 4654 H 458.879 3.67719 4.39836 0
M  V30 4655 H 457.276 4.40123 4.07936 0
M  V30 4656 H 458.346 4.01443 2.71977 0
M  V30 4657 N 459.689 -1.00246 1.21608 0
M  V30 4658 C 460.619 -2.10921 1.00172 0
M  V30 4659 C 461.6 -1.69938 -0.0741587 0
M  V30 4660 O 462.785 -1.94009 0.0861753 0
M  V30 4661 C 459.915 -3.42618 0.568355 0
M  V30 4662 C 458.869 -3.97407 1.58909 0
M  V30 4663 C 458.195 -5.25038 1.01187 0
M  V30 4664 C 459.495 -4.2918 2.97661 0
M  V30 4665 H 461.189 -2.29112 1.92739 0
M  V30 4666 H 458.735 -1.10101 0.928102 0
M  V30 4667 H 460.688 -4.19444 0.405555 0
M  V30 4668 H 459.412 -3.24227 -0.392961 0
M  V30 4669 H 458.071 -3.22703 1.73949 0
M  V30 4670 H 457.719 -5.02982 0.0421965 0
M  V30 4671 H 457.419 -5.62661 1.6937 0
M  V30 4672 H 458.943 -6.04507 0.860448 0
M  V30 4673 H 460.357 -4.96839 2.86049 0
M  V30 4674 H 458.754 -4.77952 3.6288 0
M  V30 4675 H 459.824 -3.3735 3.48315 0
M  V30 4676 N 461.167 -1.02423 -1.1978 0
M  V30 4677 C 462.583 -0.740459 -1.41384 0
M  V30 4678 C 462.783 0.676827 -1.89793 0
M  V30 4679 O 461.839 1.4435 -2.0717 0
M  V30 4680 C 463.152 -1.77264 -2.42895 0
M  V30 4681 C 464.7 -1.79165 -2.56649 0
M  V30 4682 C 465.175 -2.8133 -3.6141 0
M  V30 4683 N 466.666 -2.80118 -3.68901 0
M  V30 4684 C 467.401 -3.55824 -4.49641 0
M  V30 4685 N 466.897 -4.41231 -5.34123 0
M  V30 4686 N 468.69 -3.44387 -4.44246 0
M  V30 4687 H 460.841 -1.9391 -0.866764 0
M  V30 4688 H 463.104 -0.838074 -0.443098 0
M  V30 4689 H 462.81 -2.7884 -2.14339 0
M  V30 4690 H 462.684 -1.59108 -3.42001 0
M  V30 4691 H 465.071 -0.782702 -2.84531 0
M  V30 4692 H 465.152 -2.01396 -1.57713 0
M  V30 4693 H 464.796 -3.82394 -3.34271 0
M  V30 4694 H 464.726 -2.56359 -4.59986 0
M  V30 4695 H 467.217 -2.1817 -3.08562 0
M  V30 4696 H 467.53 -4.95747 -5.92836 0
M  V30 4697 H 465.875 -4.45306 -5.33599 0
M  V30 4698 H 469.066 -2.7708 -3.77285 0
M  V30 4699 H 469.239 -4.0364 -5.06931 0
M  V30 4700 N 462.645 1.35699 -0.801477 0
M  V30 4701 C 463.87 2.03687 -0.390678 0
M  V30 4702 C 464.295 1.60015 0.988778 0
M  V30 4703 O 463.653 0.774357 1.63931 0
M  V30 4704 C 463.701 3.57439 -0.476404 0
M  V30 4705 O 462.805 4.09208 0.512106 0
M  V30 4706 H 462.146 0.64344 -0.163956 0
M  V30 4707 H 464.676 1.73403 -1.08594 0
M  V30 4708 H 464.686 4.06544 -0.344357 0
M  V30 4709 H 463.361 3.88576 -1.48262 0
M  V30 4710 H 461.938 3.7134 0.340721 0
M  V30 4711 N 464.123 0.554532 1.47522 0
M  V30 4712 C 465.369 0.0295227 2.02779 0
M  V30 4713 C 465.702 -1.31582 1.42828 0
M  V30 4714 O 464.977 -1.85561 0.582872 0
M  V30 4715 C 465.26 -0.0664057 3.60039 0
M  V30 4716 C 465.113 1.30585 4.30427 0
M  V30 4717 C 466.432 -0.781162 4.33112 0
M  V30 4718 H 463.551 0.0122027 0.736899 0
M  V30 4719 H 466.193 0.716305 1.7598 0
M  V30 4720 H 464.343 -0.651307 3.83002 0
M  V30 4721 H 466.015 1.93374 4.18813 0
M  V30 4722 H 464.258 1.88125 3.90886 0
M  V30 4723 H 464.929 1.19147 5.38988 0
M  V30 4724 H 467.405 -0.284565 4.15126 0
M  V30 4725 H 466.281 -0.817237 5.42782 0
M  V30 4726 H 466.542 -1.83672 4.0214 0
M  V30 4727 N 465.601 -1.54893 0.290851 0
M  V30 4728 C 466.848 -1.99933 -0.321391 0
M  V30 4729 C 467.176 -1.17927 -1.54672 0
M  V30 4730 O 466.431 -0.240902 -1.94212 0
M  V30 4731 C 466.73 -3.49815 -0.732397 0
M  V30 4732 C 466.396 -4.4921 0.390056 0
M  V30 4733 C 465.058 -4.76107 0.698223 0
M  V30 4734 C 467.41 -5.08453 1.14562 0
M  V30 4735 C 464.738 -5.59514 1.76526 0
M  V30 4736 C 467.09 -5.9302 2.2025 0
M  V30 4737 C 465.754 -6.18232 2.51684 0
M  V30 4738 H 465.024 -0.731608 -0.117605 0
M  V30 4739 H 467.671 -1.87107 0.407839 0
M  V30 4740 H 465.976 -3.60199 -1.54155 0
M  V30 4741 H 467.673 -3.82083 -1.21712 0
M  V30 4742 H 464.263 -4.28372 0.13976 0
M  V30 4743 H 468.447 -4.87683 0.920801 0
M  V30 4744 H 463.703 -5.77289 2.01364 0
M  V30 4745 H 467.877 -6.37955 2.7926 0
M  V30 4746 H 465.504 -6.82653 3.34499 0
M  V30 4747 N 467.08 -0.0183926 -1.57589 0
M  V30 4748 C 468.308 0.673046 -1.95647 0
M  V30 4749 C 468.723 1.66275 -0.894312 0
M  V30 4750 O 468.08 1.82072 0.124975 0
M  V30 4751 C 468.131 1.38884 -3.33756 0
M  V30 4752 O 467.852 0.438806 -4.35897 0
M  V30 4753 C 469.353 2.1731 -3.86383 0
M  V30 4754 H 466.573 0.186292 -0.644621 0
M  V30 4755 H 469.117 -0.0749748 -2.04363 0
M  V30 4756 H 467.272 2.08835 -3.26293 0
M  V30 4757 H 467.686 0.945869 -5.15901 0
M  V30 4758 H 469.16 2.62863 -4.85394 0
M  V30 4759 H 469.637 3.00764 -3.20059 0
M  V30 4760 H 470.243 1.52339 -3.97081 0
M  V30 4761 N 468.558 1.5553 0.254621 0
M  V30 4762 C 469.804 1.77262 0.985193 0
M  V30 4763 C 470.137 0.582286 1.85265 0
M  V30 4764 O 469.412 -0.419666 1.89919 0
M  V30 4765 C 469.695 3.0881 1.85225 0
M  V30 4766 C 469.548 4.38233 1.0135 0
M  V30 4767 C 470.867 3.3653 2.83612 0
M  V30 4768 H 467.986 0.644906 0.356742 0
M  V30 4769 H 470.628 1.88264 0.256236 0
M  V30 4770 H 468.778 2.99562 2.47376 0
M  V30 4771 H 470.45 4.59463 0.411269 0
M  V30 4772 H 468.693 4.32636 0.317574 0
M  V30 4773 H 469.364 5.26644 1.65379 0
M  V30 4774 H 471.84 3.45691 2.31596 0
M  V30 4775 H 470.716 4.29805 3.41407 0
M  V30 4776 H 470.977 2.57064 3.59681 0
M  V30 4777 N 470.036 -0.519951 1.48776 0
M  V30 4778 C 470.969 -1.64053 1.58625 0
M  V30 4779 C 471.947 -1.5664 0.43618 0
M  V30 4780 O 473.131 -1.76969 0.649159 0
M  V30 4781 C 470.258 -3.02497 1.52359 0
M  V30 4782 C 469.304 -3.28235 2.72331 0
M  V30 4783 S 470.137 -3.13414 4.34203 0
M  V30 4784 C 471.293 -4.54287 4.30551 0
M  V30 4785 H 471.526 -1.5545 2.53422 0
M  V30 4786 H 469.059 -0.703681 1.37433 0
M  V30 4787 H 471.017 -3.82336 1.4943 0
M  V30 4788 H 469.678 -3.08531 0.588824 0
M  V30 4789 H 468.871 -4.29256 2.64113 0
M  V30 4790 H 468.473 -2.56085 2.72574 0
M  V30 4791 H 470.765 -5.46006 4.01103 0
M  V30 4792 H 471.708 -4.67558 5.31785 0
M  V30 4793 H 472.116 -4.34079 3.60881 0
M  V30 4794 N 471.514 -1.37532 -0.769588 0
M  V30 4795 C 472.93 -1.18379 -1.07045 0
M  V30 4796 C 473.13 -0.0214312 -2.01489 0
M  V30 4797 O 472.186 0.637809 -2.44312 0
M  V30 4798 C 473.499 -2.50338 -1.66588 0
M  V30 4799 C 475.047 -2.56879 -1.78835 0
M  V30 4800 C 475.522 -3.88974 -2.41792 0
M  V30 4801 N 477.013 -3.90428 -2.4924 0
M  V30 4802 C 477.748 -4.89388 -2.98809 0
M  V30 4803 N 477.244 -5.98745 -3.48535 0
M  V30 4804 N 479.037 -4.76791 -2.97703 0
M  V30 4805 H 471.188 -2.11921 -0.142541 0
M  V30 4806 H 473.451 -0.939608 -0.125863 0
M  V30 4807 H 473.157 -3.35767 -1.0466 0
M  V30 4808 H 473.031 -2.67583 -2.65856 0
M  V30 4809 H 475.418 -1.71856 -2.39895 0
M  V30 4810 H 475.499 -2.43516 -0.783166 0
M  V30 4811 H 475.143 -4.74412 -1.81371 0
M  V30 4812 H 475.073 -3.99641 -3.4292 0
M  V30 4813 H 477.564 -3.11433 -2.14052 0
M  V30 4814 H 477.877 -6.70205 -3.84767 0
M  V30 4815 H 476.222 -6.02387 -3.46634 0
M  V30 4816 H 479.413 -3.90478 -2.58157 0
M  V30 4817 H 479.586 -5.54069 -3.36024 0
M  V30 4818 N 472.992 0.995999 -1.22138 0
M  V30 4819 C 474.408 1.25917 -0.980667 0
M  V30 4820 C 474.608 1.98819 0.327604 0
M  V30 4821 O 473.664 2.29587 1.05101 0
M  V30 4822 C 474.977 2.07399 -2.17729 0
M  V30 4823 C 476.525 2.20594 -2.22052 0
M  V30 4824 C 477 3.05462 -3.41258 0
M  V30 4825 N 478.491 3.13049 -3.41401 0
M  V30 4826 C 479.226 3.78997 -4.30289 0
M  V30 4827 N 478.722 4.46899 -5.2939 0
M  V30 4828 N 480.515 3.75728 -4.18073 0
M  V30 4829 H 472.666 0.507158 -2.06256 0
M  V30 4830 H 474.929 0.28658 -0.903646 0
M  V30 4831 H 474.635 1.61191 -3.12586 0
M  V30 4832 H 474.509 3.08154 -2.17534 0
M  V30 4833 H 476.896 2.66017 -1.27745 0
M  V30 4834 H 476.977 1.1928 -2.26287 0
M  V30 4835 H 476.621 2.60739 -4.35864 0
M  V30 4836 H 476.551 4.06911 -3.34262 0
M  V30 4837 H 479.042 2.64721 -2.69688 0
M  V30 4838 H 479.355 4.94952 -5.935 0
M  V30 4839 H 477.7 4.45657 -5.33306 0
M  V30 4840 H 480.891 3.2184 -3.39907 0
M  V30 4841 H 481.064 4.26845 -4.87553 0
M  V30 4842 N 474.47 1.03057 1.19235 0
M  V30 4843 C 475.402 0.570932 2.21975 0
M  V30 4844 C 476.415 -0.354088 1.58903 0
M  V30 4845 O 477.604 -0.150211 1.77867 0
M  V30 4846 C 474.704 -0.187152 3.38383 0
M  V30 4847 C 473.877 0.743231 4.31039 0
M  V30 4848 C 472.936 0.0302493 5.26191 0
M  V30 4849 O 471.962 0.657371 5.65391 0
M  V30 4850 N 473.164 -1.23991 5.67104 0
M  V30 4851 H 475.929 1.45456 2.62036 0
M  V30 4852 H 473.49 0.909807 1.33918 0
M  V30 4853 H 475.482 -0.673715 3.99053 0
M  V30 4854 H 474.052 -0.972205 2.97098 0
M  V30 4855 H 473.272 1.40985 3.68126 0
M  V30 4856 H 474.56 1.3755 4.89854 0
M  V30 4857 H 473.958 -1.77011 5.37293 0
M  V30 4858 H 472.515 -1.67093 6.30018 0
M  V30 4859 N 475.948 -1.35272 0.808662 0
M  V30 4860 C 476.878 -2.32315 0.234981 0
M  V30 4861 C 477.859 -1.57572 -0.64071 0
M  V30 4862 O 479.044 -1.8563 -0.570551 0
M  V30 4863 C 476.174 -3.41801 -0.615601 0
M  V30 4864 C 475.128 -4.27694 0.161767 0
M  V30 4865 C 474.454 -5.28519 -0.810649 0
M  V30 4866 C 475.754 -5.04231 1.36193 0
M  V30 4867 H 477.448 -2.80543 1.04575 0
M  V30 4868 H 474.994 -1.3488 0.504315 0
M  V30 4869 H 476.947 -4.08693 -1.02702 0
M  V30 4870 H 475.671 -2.92186 -1.45928 0
M  V30 4871 H 474.33 -3.62384 0.554382 0
M  V30 4872 H 473.978 -4.75171 -1.64988 0
M  V30 4873 H 473.678 -5.8686 -0.294822 0
M  V30 4874 H 475.202 -5.98283 -1.22023 0
M  V30 4875 H 476.616 -5.64058 1.02528 0
M  V30 4876 H 475.013 -5.72077 1.81239 0
M  V30 4877 H 476.083 -4.34753 2.14751 0
M  V30 4878 N 477.426 -0.562348 -1.47226 0
M  V30 4879 C 478.356 0.170627 -2.32876 0
M  V30 4880 C 479.337 0.903748 -1.44106 0
M  V30 4881 O 480.522 0.883206 -1.72954 0
M  V30 4882 C 477.652 1.19786 -3.25989 0
M  V30 4883 C 476.606 0.580875 -4.2404 0
M  V30 4884 C 475.932 1.71311 -5.06514 0
M  V30 4885 C 477.232 -0.468714 -5.20193 0
M  V30 4886 H 478.926 -0.544441 -2.94408 0
M  V30 4887 H 476.472 -0.263271 -1.41573 0
M  V30 4888 H 478.425 1.71884 -3.84752 0
M  V30 4889 H 477.149 1.94294 -2.62521 0
M  V30 4890 H 475.808 0.0811538 -3.6651 0
M  V30 4891 H 475.456 2.44736 -4.39447 0
M  V30 4892 H 475.156 1.30604 -5.72902 0
M  V30 4893 H 476.68 2.23725 -5.68137 0
M  V30 4894 H 478.094 -0.0336028 -5.7329 0
M  V30 4895 H 476.491 -0.794957 -5.94811 0
M  V30 4896 H 477.561 -1.36269 -4.65359 0
M  V30 4897 N 478.904 1.54736 -0.299062 0
M  V30 4898 C 479.814 2.27127 0.587413 0
M  V30 4899 C 480.83 1.30575 1.15005 0
M  V30 4900 O 482.006 1.63554 1.17525 0
M  V30 4901 C 479.071 2.99645 1.74395 0
M  V30 4902 C 478.132 4.11731 1.21559 0
M  V30 4903 C 477.365 4.80781 2.317 0
M  V30 4904 O 477.588 4.4918 3.51558 0
M  V30 4905 O 476.522 5.68226 1.98501 0
M  V30 4906 H 480.348 3.037 0.000250109 0
M  V30 4907 H 477.933 1.49256 -0.0655919 0
M  V30 4908 H 479.815 3.45138 2.4178 0
M  V30 4909 H 478.49 2.25969 2.31775 0
M  V30 4910 H 477.397 3.70641 0.507514 0
M  V30 4911 H 478.73 4.87379 0.687233 0
M  V30 4912 N 480.382 0.0267497 1.57577 0
M  V30 4913 C 481.314 -0.984594 2.06974 0
M  V30 4914 C 482.327 -1.29032 0.992705 0
M  V30 4915 O 483.516 -1.25539 1.26895 0
M  V30 4916 C 480.616 -2.31262 2.47732 0
M  V30 4917 C 479.789 -2.1924 3.78487 0
M  V30 4918 C 478.848 -3.34956 4.05821 0
M  V30 4919 O 477.874 -3.11948 4.76106 0
M  V30 4920 N 479.076 -4.58672 3.55809 0
M  V30 4921 H 481.841 -0.563143 2.94362 0
M  V30 4922 H 479.402 -0.160061 1.61107 0
M  V30 4923 H 481.394 -3.07496 2.63112 0
M  V30 4924 H 479.964 -2.65056 1.65723 0
M  V30 4925 H 479.184 -1.27747 3.72927 0
M  V30 4926 H 480.472 -2.08409 4.64158 0
M  V30 4927 H 479.87 -4.8026 2.98942 0
M  V30 4928 H 478.427 -5.32083 3.76472 0
M  V30 4929 N 481.861 -1.55662 -0.24637 0
M  V30 4930 C 482.824 -1.89558 -1.28842 0
M  V30 4931 C 483.824 -0.772082 -1.41052 0
M  V30 4932 O 485.014 -1.04007 -1.39743 0
M  V30 4933 C 482.146 -2.12449 -2.66605 0
M  V30 4934 H 483.339 -2.82735 -1.00004 0
M  V30 4935 H 480.892 -1.48562 -0.485684 0
M  V30 4936 H 481.627 -1.21742 -3.00582 0
M  V30 4937 H 481.412 -2.94273 -2.59125 0
M  V30 4938 H 482.902 -2.39854 -3.41847 0
M  V30 4939 N 483.339 0.512053 -1.4905 0
M  V30 4940 C 484.755 0.84224 -1.35567 0
M  V30 4941 C 484.955 1.97878 -0.380319 0
M  V30 4942 O 484.011 2.51769 0.19201 0
M  V30 4943 C 485.324 1.19286 -2.76028 0
M  V30 4944 C 486.872 1.30171 -2.84648 0
M  V30 4945 C 487.347 1.68568 -4.25851 0
M  V30 4946 N 488.838 1.75638 -4.28609 0
M  V30 4947 C 489.573 2.06769 -5.34821 0
M  V30 4948 N 489.069 2.36201 -6.51292 0
M  V30 4949 N 490.862 2.07927 -5.22229 0
M  V30 4950 H 483.013 -0.237574 -2.11067 0
M  V30 4951 H 485.276 -0.0436747 -0.946993 0
M  V30 4952 H 484.982 0.431199 -3.49047 0
M  V30 4953 H 484.856 2.13889 -3.10695 0
M  V30 4954 H 487.243 2.05411 -2.11873 0
M  V30 4955 H 487.324 0.336457 -2.53578 0
M  V30 4956 H 486.968 0.938824 -4.99148 0
M  V30 4957 H 486.898 2.66174 -4.54377 0
M  V30 4958 H 489.389 1.55097 -3.44606 0
M  V30 4959 H 489.702 2.59112 -7.28066 0
M  V30 4960 H 488.047 2.33681 -6.54536 0
M  V30 4961 H 491.238 1.84403 -4.30248 0
M  V30 4962 H 491.411 2.31856 -6.05101 0
M  V30 4963 N 484.817 1.37938 0.762283 0
M  V30 4964 C 485.749 1.30349 1.88525 0
M  V30 4965 C 486.762 0.217402 1.61342 0
M  V30 4966 O 487.951 0.474291 1.72084 0
M  V30 4967 C 485.051 0.994844 3.23969 0
M  V30 4968 C 484.224 2.18829 3.78725 0
M  V30 4969 C 483.283 1.84844 4.92665 0
M  V30 4970 O 482.309 2.57244 5.07754 0
M  V30 4971 N 483.511 0.798201 5.74986 0
M  V30 4972 H 486.276 2.27114 1.95549 0
M  V30 4973 H 483.837 1.31686 0.941825 0
M  V30 4974 H 485.829 0.748168 3.97724 0
M  V30 4975 H 484.399 0.115446 3.12387 0
M  V30 4976 H 483.619 2.59615 2.96637 0
M  V30 4977 H 484.907 2.98497 4.1204 0
M  V30 4978 H 484.305 0.197611 5.65355 0
M  V30 4979 H 482.862 0.611396 6.48926 0
M  V30 4980 N 486.295 -0.989507 1.22664 0
M  V30 4981 C 487.205 -2.11449 1.01619 0
M  V30 4982 C 488.221 -1.73962 -0.036545 0
M  V30 4983 O 489.397 -2.00788 0.156924 0
M  V30 4984 C 486.462 -3.41465 0.600204 0
M  V30 4985 C 485.523 -3.93033 1.72695 0
M  V30 4986 C 484.756 -5.16844 1.33071 0
M  V30 4987 O 484.979 -5.7001 0.210975 0
M  V30 4988 O 483.913 -5.6225 2.14845 0
M  V30 4989 H 487.739 -2.32088 1.9588 0
M  V30 4990 H 485.324 -1.09823 1.01289 0
M  V30 4991 H 487.206 -4.19695 0.37873 0
M  V30 4992 H 485.881 -3.22178 -0.313511 0
M  V30 4993 H 484.788 -3.15961 2.00298 0
M  V30 4994 H 486.121 -4.16758 2.61865 0
M  V30 4995 N 487.773 -1.03688 -1.18687 0
M  V30 4996 C 488.72 -0.624624 -2.22187 0
M  V30 4997 C 489.69 0.365636 -1.62026 0
M  V30 4998 O 490.875 0.260481 -1.89014 0
M  V30 4999 C 488.015 0.0101738 -3.45099 0
M  V30 5000 C 487.128 -1.02709 -4.19613 0
M  V30 5001 C 486.263 -0.361213 -5.2997 0
M  V30 5002 C 485.302 -1.38384 -5.96252 0
M  V30 5003 N 484.439 -0.743196 -6.98155 0
M  V30 5004 H 489.279 -1.51176 -2.56807 0
M  V30 5005 H 486.816 -0.75636 -1.26165 0
M  V30 5006 H 488.774 0.395528 -4.15321 0
M  V30 5007 H 487.404 0.860848 -3.1111 0
M  V30 5008 H 486.456 -1.53043 -3.48256 0
M  V30 5009 H 487.768 -1.80398 -4.65036 0
M  V30 5010 H 486.922 0.0785537 -6.06649 0
M  V30 5011 H 485.661 0.447799 -4.8564 0
M  V30 5012 H 484.666 -1.83378 -5.18317 0
M  V30 5013 H 485.891 -2.19448 -6.42666 0
M  V30 5014 H 483.837 0.0455789 -6.55984 0
M  V30 5015 H 483.754 -1.45784 -7.41811 0
M  V30 5016 H 485.022 -0.327698 -7.78811 0
M  V30 5017 N 489.251 1.34841 -0.815825 0
M  V30 5018 C 490.528 1.92908 -0.323416 0
M  V30 5019 C 490.908 1.74479 1.18828 0
M  V30 5020 O 490.256 1.11928 1.99209 0
M  V30 5021 C 490.466 3.40957 -0.744952 0
M  V30 5022 C 491.814 4.18107 -0.739716 0
M  V30 5023 O 492.838 3.49511 -0.68708 0
M  V30 5024 O 491.697 5.40517 -0.806456 0
M  V30 5025 H 488.791 0.822436 -0.0867646 0
M  V30 5026 H 491.337 1.4386 -0.90014 0
M  V30 5027 H 490.109 3.4814 -1.78646 0
M  V30 5028 H 489.732 3.97341 -0.143535 0
M  V30 5029 N 490.729 0.570148 1.46925 0
M  V30 5030 C 491.676 -0.170257 2.30171 0
M  V30 5031 C 492.646 -0.896099 1.39855 0
M  V30 5032 O 493.831 -0.889248 1.68811 0
M  V30 5033 C 490.971 -1.18605 3.24079 0
M  V30 5034 C 490.084 -0.464947 4.29491 0
M  V30 5035 C 489.219 -1.46716 5.10537 0
M  V30 5036 C 488.258 -0.731758 6.0771 0
M  V30 5037 N 487.395 -1.68142 6.81669 0
M  V30 5038 H 492.235 0.545713 2.92961 0
M  V30 5039 H 489.772 0.280938 1.44392 0
M  V30 5040 H 491.73 -1.78771 3.76957 0
M  V30 5041 H 490.36 -1.86989 2.63125 0
M  V30 5042 H 489.412 0.251506 3.79568 0
M  V30 5043 H 490.724 0.110548 4.98677 0
M  V30 5044 H 489.878 -2.14199 5.6763 0
M  V30 5045 H 488.617 -2.07658 4.41282 0
M  V30 5046 H 487.622 -0.0430787 5.49783 0
M  V30 5047 H 488.847 -0.127904 6.7898 0
M  V30 5048 H 486.793 -2.27918 6.15134 0
M  V30 5049 H 486.71 -1.15841 7.47072 0
M  V30 5050 H 487.978 -2.347 7.43328 0
M  V30 5051 N 492.207 -1.54576 0.307264 0
M  V30 5052 C 493.137 -2.26708 -0.55907 0
M  V30 5053 C 494.118 -1.26893 -1.1328 0
M  V30 5054 O 495.303 -1.55677 -1.16097 0
M  V30 5055 C 492.433 -3.01259 -1.72801 0
M  V30 5056 C 491.387 -4.08275 -1.28435 0
M  V30 5057 C 490.713 -4.70575 -2.53895 0
M  V30 5058 C 492.013 -5.2068 -0.411038 0
M  V30 5059 H 493.707 -2.9937 0.042576 0
M  V30 5060 H 491.253 -1.43983 0.0219173 0
M  V30 5061 H 493.206 -3.50444 -2.34023 0
M  V30 5062 H 491.93 -2.26187 -2.356 0
M  V30 5063 H 490.589 -3.59949 -0.695161 0
M  V30 5064 H 490.237 -3.92136 -3.15021 0
M  V30 5065 H 489.937 -5.42854 -2.24908 0
M  V30 5066 H 491.461 -5.22527 -3.15908 0
M  V30 5067 H 492.875 -5.65721 -0.929097 0
M  V30 5068 H 491.272 -5.99716 -0.214664 0
M  V30 5069 H 492.342 -4.81629 0.562287 0
M  V30 5070 N 493.685 -0.035106 -1.57561 0
M  V30 5071 C 495.096 0.502885 -1.798 0
M  V30 5072 C 495.447 1.71892 -0.945921 0
M  V30 5073 O 494.572 2.15822 -0.157991 0
M  V30 5074 C 495.167 0.919097 -3.26095 0
M  V30 5075 C 493.726 1.40216 -3.49308 0
M  V30 5076 C 492.873 0.369709 -2.74824 0
M  V30 5077 H 495.824 -0.261102 -1.56537 0
M  V30 5078 H 495.845 1.78308 -3.36135 0
M  V30 5079 H 495.357 0.0338526 -3.88085 0
M  V30 5080 H 493.458 2.30714 -2.92578 0
M  V30 5081 H 493.571 1.40541 -4.58023 0
M  V30 5082 H 491.935 0.839113 -2.40481 0
M  V30 5083 H 492.718 -0.507173 -3.39533 0
M  V30 5084 N 495.163 1.55791 0.238111 0
M  V30 5085 C 496.093 1.94068 1.29846 0
M  V30 5086 C 497.074 0.806726 1.49753 0
M  V30 5087 O 498.259 1.06772 1.62214 0
M  V30 5088 C 495.389 2.24302 2.65153 0
M  V30 5089 C 494.343 3.40032 2.59927 0
M  V30 5090 C 493.669 3.55829 3.99111 0
M  V30 5091 C 494.969 4.75476 2.16148 0
M  V30 5092 H 496.663 2.82887 0.980563 0
M  V30 5093 H 494.209 1.36105 0.470253 0
M  V30 5094 H 496.162 2.4967 3.39475 0
M  V30 5095 H 494.886 1.32318 2.98596 0
M  V30 5096 H 493.545 3.14687 1.88063 0
M  V30 5097 H 493.193 2.6125 4.29834 0
M  V30 5098 H 492.893 4.3366 3.96501 0
M  V30 5099 H 494.417 3.83528 4.7512 0
M  V30 5100 H 495.831 5.00158 2.80205 0
M  V30 5101 H 494.228 5.56472 2.24631 0
M  V30 5102 H 495.298 4.71946 1.11333 0
M  V30 5103 N 496.642 -0.504142 1.49319 0
M  V30 5104 C 497.552 -1.63248 1.68486 0
M  V30 5105 C 498.568 -1.64488 0.567432 0
M  V30 5106 O 499.744 -1.82966 0.841749 0
M  V30 5107 C 496.809 -2.99627 1.74426 0
M  V30 5108 C 495.87 -3.09039 2.97982 0
M  V30 5109 C 495.103 -4.38913 3.0363 0
M  V30 5110 O 495.326 -5.27528 2.16958 0
M  V30 5111 O 494.26 -4.53231 3.96062 0
M  V30 5112 H 498.086 -1.50008 2.64067 0
M  V30 5113 H 495.671 -0.680086 1.33023 0
M  V30 5114 H 497.553 -3.80689 1.80705 0
M  V30 5115 H 496.228 -3.13136 0.820233 0
M  V30 5116 H 495.135 -2.27177 2.97223 0
M  V30 5117 H 496.468 -3.00456 3.89855 0
M  V30 5118 N 498.12 -1.38341 -0.754957 0
M  V30 5119 C 499.067 -1.3546 -1.86867 0
M  V30 5120 C 500.037 -0.217369 -1.64672 0
M  V30 5121 O 501.222 -0.409383 -1.86356 0
M  V30 5122 C 498.362 -1.18413 -3.24149 0
M  V30 5123 C 497.475 -2.41511 -3.58185 0
M  V30 5124 C 496.61 -2.17205 -4.84763 0
M  V30 5125 C 495.649 -3.36081 -5.11582 0
M  V30 5126 N 494.786 -3.11219 -6.29354 0
M  V30 5127 H 499.626 -2.30672 -1.88664 0
M  V30 5128 H 497.163 -1.14607 -0.922154 0
M  V30 5129 H 499.121 -1.06545 -4.03366 0
M  V30 5130 H 497.751 -0.268397 -3.21682 0
M  V30 5131 H 496.803 -2.64056 -2.73822 0
M  V30 5132 H 498.115 -3.30115 -3.73932 0
M  V30 5133 H 497.269 -2.02465 -5.7192 0
M  V30 5134 H 496.008 -1.25964 -4.71152 0
M  V30 5135 H 495.013 -3.51341 -4.22894 0
M  V30 5136 H 496.238 -4.28196 -5.27091 0
M  V30 5137 H 494.184 -2.22624 -6.17069 0
M  V30 5138 H 494.101 -3.93373 -6.45596 0
M  V30 5139 H 495.369 -3.00132 -7.19403 0
M  V30 5140 N 499.598 0.982988 -1.23187 0
M  V30 5141 C 501.014 1.2487 -0.993967 0
M  V30 5142 C 501.214 1.99155 0.306498 0
M  V30 5143 O 500.27 2.30688 1.0266 0
M  V30 5144 C 501.583 2.05078 -2.19917 0
M  V30 5145 C 503.131 2.18227 -2.2438 0
M  V30 5146 C 503.606 3.01825 -3.44479 0
M  V30 5147 N 505.097 3.09411 -3.44702 0
M  V30 5148 C 505.832 3.74412 -4.34285 0
M  V30 5149 N 505.328 4.41259 -5.341 0
M  V30 5150 N 507.121 3.71273 -4.22035 0
M  V30 5151 H 499.272 0.485253 -2.06783 0
M  V30 5152 H 501.535 0.276979 -0.906635 0
M  V30 5153 H 501.241 1.57867 -3.14279 0
M  V30 5154 H 501.115 3.05829 -2.2079 0
M  V30 5155 H 503.502 2.64648 -1.30559 0
M  V30 5156 H 503.583 1.16873 -2.2754 0
M  V30 5157 H 503.227 2.56102 -4.38605 0
M  V30 5158 H 503.157 4.03342 -3.38559 0
M  V30 5159 H 505.648 2.61845 -2.7248 0
M  V30 5160 H 505.961 4.88629 -5.98717 0
M  V30 5161 H 504.306 4.39975 -5.38002 0
M  V30 5162 H 507.497 3.18217 -3.43301 0
M  V30 5163 H 507.67 4.21649 -4.92053 0
M  V30 5164 N 501.076 1.04316 1.18135 0
M  V30 5165 C 502.304 0.768117 1.92113 0
M  V30 5166 C 502.719 -0.675057 1.76319 0
M  V30 5167 O 502.076 -1.46038 1.09449 0
M  V30 5168 C 502.127 1.12808 3.43448 0
M  V30 5169 O 501.848 2.5146 3.58747 0
M  V30 5170 C 503.349 0.8779 4.3452 0
M  V30 5171 H 500.569 0.279937 0.609817 0
M  V30 5172 H 503.113 1.39149 1.49859 0
M  V30 5173 H 501.268 0.549623 3.83481 0
M  V30 5174 H 501.682 2.65313 4.52448 0
M  V30 5175 H 503.156 1.17959 5.39249 0
M  V30 5176 H 503.633 -0.187239 4.38801 0
M  V30 5177 H 504.239 1.43977 4.00188 0
M  V30 5178 N 502.554 -1.34406 0.822964 0
M  V30 5179 C 503.484 -2.32052 0.259608 0
M  V30 5180 C 504.465 -1.58243 -0.623961 0
M  V30 5181 O 505.65 -1.86224 -0.55083 0
M  V30 5182 C 502.78 -3.42434 -0.579314 0
M  V30 5183 C 501.734 -4.27499 0.20712 0
M  V30 5184 C 501.06 -5.29349 -0.754547 0
M  V30 5185 C 502.36 -5.02758 1.41533 0
M  V30 5186 H 504.054 -2.79418 1.07545 0
M  V30 5187 H 501.6 -1.34338 0.518593 0
M  V30 5188 H 503.553 -4.0976 -0.983612 0
M  V30 5189 H 502.277 -2.93717 -1.4282 0
M  V30 5190 H 500.936 -3.61776 0.592787 0
M  V30 5191 H 500.584 -4.76895 -1.59939 0
M  V30 5192 H 500.284 -5.8714 -0.232561 0
M  V30 5193 H 501.808 -5.99544 -1.1567 0
M  V30 5194 H 503.222 -5.62938 1.08504 0
M  V30 5195 H 501.619 -5.70123 1.87296 0
M  V30 5196 H 502.689 -4.32451 2.1935 0
M  V30 5197 N 504.032 -0.577932 -1.46621 0
M  V30 5198 C 505.281 -0.0594281 -2.01612 0
M  V30 5199 C 505.594 1.30663 -1.45556 0
M  V30 5200 O 506.8 1.91621 -1.92337 0
M  V30 5201 C 505.256 -0.0556666 -3.59857 0
M  V30 5202 C 504.864 -1.41975 -4.24908 0
M  V30 5203 C 506.608 0.409143 -4.22524 0
M  V30 5204 C 504.515 -1.37397 -5.75218 0
M  V30 5205 H 503.445 -0.0184469 -0.753774 0
M  V30 5206 H 506.096 -0.728869 -1.68404 0
M  V30 5207 H 504.478 0.679843 -3.90121 0
M  V30 5208 H 505.652 -2.17461 -4.0626 0
M  V30 5209 H 503.967 -1.82419 -3.74316 0
M  V30 5210 H 506.564 0.46211 -5.32699 0
M  V30 5211 H 506.907 1.42565 -3.91128 0
M  V30 5212 H 507.44 -0.272152 -3.96868 0
M  V30 5213 H 504.179 -2.36714 -6.11267 0
M  V30 5214 H 503.699 -0.661239 -5.96144 0
M  V30 5215 H 505.378 -1.08484 -6.3784 0
M  V30 5216 N 505.51 1.54411 -0.315457 0
M  V30 5217 C 506.44 2.27002 0.547039 0
M  V30 5218 C 507.421 1.27492 1.12605 0
M  V30 5219 O 508.606 1.5629 1.15269 0
M  V30 5220 C 505.736 3.02171 1.71201 0
M  V30 5221 C 504.69 4.0895 1.26268 0
M  V30 5222 C 504.016 4.71915 2.51396 0
M  V30 5223 C 505.316 5.20891 0.383419 0
M  V30 5224 H 507.01 2.99343 -0.0584517 0
M  V30 5225 H 504.556 1.4397 -0.0295527 0
M  V30 5226 H 506.509 3.51681 2.32161 0
M  V30 5227 H 505.233 2.27433 2.34397 0
M  V30 5228 H 503.892 3.60312 0.676062 0
M  V30 5229 H 503.54 3.93801 3.12937 0
M  V30 5230 H 503.24 5.44039 2.22026 0
M  V30 5231 H 504.764 5.24195 3.13133 0
M  V30 5232 H 506.178 5.66206 0.899082 0
M  V30 5233 H 504.575 5.99821 0.182857 0
M  V30 5234 H 505.645 4.81324 -0.587821 0
M  V30 5235 N 506.988 0.0434614 1.5754 0
M  V30 5236 C 508.216 -0.641835 1.96693 0
M  V30 5237 C 508.631 -1.64832 0.920652 0
M  V30 5238 O 507.988 -1.82247 -0.095993 0
M  V30 5239 C 508.039 -1.33557 3.35924 0
M  V30 5240 O 507.76 -0.369403 4.3654 0
M  V30 5241 C 509.261 -2.11135 3.89791 0
M  V30 5242 H 506.481 -0.176013 0.647503 0
M  V30 5243 H 509.025 0.107478 2.04217 0
M  V30 5244 H 507.18 -2.03617 3.29574 0
M  V30 5245 H 507.594 -0.863674 5.1734 0
M  V30 5246 H 509.068 -2.55107 4.89514 0
M  V30 5247 H 509.545 -2.95634 3.24803 0
M  V30 5248 H 510.151 -1.46002 3.99454 0
M  V30 5249 N 508.466 -1.55915 -0.229846 0
M  V30 5250 C 509.416 -1.8813 -1.28807 0
M  V30 5251 C 510.4 -0.743621 -1.42685 0
M  V30 5252 O 511.592 -1.00588 -1.4564 0
M  V30 5253 C 508.721 -2.19431 -2.64017 0
M  V30 5254 C 507.807 -3.39569 -2.54074 0
M  V30 5255 N 508.198 -4.58404 -2.13774 0
M  V30 5256 C 506.496 -3.43019 -2.85051 0
M  V30 5257 C 507.197 -5.40557 -2.1488 0
M  V30 5258 N 506.173 -4.80054 -2.55047 0
M  V30 5259 H 509.975 -2.77527 -0.967261 0
M  V30 5260 H 507.489 -1.5637 -0.438433 0
M  V30 5261 H 509.486 -2.40681 -3.40409 0
M  V30 5262 H 508.146 -1.31341 -2.9695 0
M  V30 5263 H 509.157 -4.83716 -1.8504 0
M  V30 5264 H 505.834 -2.65249 -3.22411 0
M  V30 5265 H 507.224 -6.45666 -1.85918 0
M  V30 5266 N 509.944 0.496216 -1.49584 0
M  V30 5267 C 511.191 1.25003 -1.59312 0
M  V30 5268 C 511.519 1.92445 -0.28198 0
M  V30 5269 O 510.774 1.81557 0.730452 0
M  V30 5270 C 511.073 2.3359 -2.705 0
M  V30 5271 C 510.739 1.83574 -4.11839 0
M  V30 5272 C 509.401 1.69653 -4.50302 0
M  V30 5273 C 511.753 1.46193 -5.00277 0
M  V30 5274 C 509.081 1.16736 -5.74969 0
M  V30 5275 C 511.433 0.947265 -6.25468 0
M  V30 5276 C 510.097 0.794485 -6.62755 0
M  V30 5277 H 509.367 0.45742 -0.582965 0
M  V30 5278 H 512.014 0.549996 -1.83432 0
M  V30 5279 H 510.319 3.09401 -2.40371 0
M  V30 5280 H 512.016 2.91627 -2.75235 0
M  V30 5281 H 508.606 1.9537 -3.81482 0
M  V30 5282 H 512.79 1.55793 -4.71214 0
M  V30 5283 H 508.046 1.03623 -6.02555 0
M  V30 5284 H 512.22 0.648846 -6.93371 0
M  V30 5285 H 509.847 0.382271 -7.59238 0
M  V30 5286 N 511.423 1.38739 0.74761 0
M  V30 5287 C 512.834 1.31507 1.32524 0
M  V30 5288 C 513.185 -0.0263963 1.96182 0
M  V30 5289 O 512.31 -0.92849 1.95469 0
M  V30 5290 C 512.905 2.38162 2.40966 0
M  V30 5291 C 511.464 2.34489 2.94434 0
M  V30 5292 C 510.611 2.20712 1.67873 0
M  V30 5293 H 513.562 1.4901 0.546043 0
M  V30 5294 H 513.583 2.04222 3.21051 0
M  V30 5295 H 513.095 3.35783 1.94605 0
M  V30 5296 H 511.196 1.40467 3.45108 0
M  V30 5297 H 511.309 3.28861 3.48407 0
M  V30 5298 H 509.673 1.67667 1.91729 0
M  V30 5299 H 510.456 3.20285 1.23582 0
M  V30 5300 N 512.901 -0.976442 1.23707 0
M  V30 5301 C 513.848 -2.06952 1.02174 0
M  V30 5302 C 514.818 -1.65984 -0.0621034 0
M  V30 5303 O 516.003 -1.90584 0.0907906 0
M  V30 5304 C 513.143 -3.39425 0.62327 0
M  V30 5305 C 512.256 -3.9364 1.77966 0
M  V30 5306 C 511.391 -5.14343 1.3276 0
M  V30 5307 C 510.43 -5.60733 2.45449 0
M  V30 5308 N 509.567 -6.72662 2.01172 0
M  V30 5309 H 514.407 -2.24704 1.95734 0
M  V30 5310 H 511.944 -1.10143 0.975034 0
M  V30 5311 H 513.902 -4.15526 0.37332 0
M  V30 5312 H 512.532 -3.21624 -0.275329 0
M  V30 5313 H 511.584 -3.14258 2.14351 0
M  V30 5314 H 512.896 -4.24035 2.62671 0
M  V30 5315 H 512.05 -5.97789 1.03601 0
M  V30 5316 H 510.789 -4.8561 0.450975 0
M  V30 5317 H 509.794 -4.75865 2.75378 0
M  V30 5318 H 511.019 -5.91483 3.33654 0
M  V30 5319 H 508.965 -6.45681 1.15895 0
M  V30 5320 H 508.882 -7.02462 2.79434 0
M  V30 5321 H 510.15 -7.59572 1.75129 0
M  V30 5322 N 514.379 -1.04941 -1.1758 0
M  V30 5323 C 515.626 -0.757989 -1.87779 0
M  V30 5324 C 515.954 0.714827 -1.80888 0
M  V30 5325 O 515.209 1.53824 -1.20982 0
M  V30 5326 C 515.508 -1.18062 -3.37337 0
M  V30 5327 C 515.174 -2.65521 -3.6443 0
M  V30 5328 C 513.836 -3.05804 -3.71534 0
M  V30 5329 C 516.188 -3.60822 -3.76108 0
M  V30 5330 C 513.516 -4.40256 -3.87803 0
M  V30 5331 C 515.868 -4.95005 -3.93895 0
M  V30 5332 C 514.532 -5.34945 -3.99237 0
M  V30 5333 H 513.802 -0.277368 -0.68713 0
M  V30 5334 H 516.449 -1.31603 -1.39115 0
M  V30 5335 H 514.754 -0.541525 -3.8804 0
M  V30 5336 H 516.451 -0.932368 -3.9001 0
M  V30 5337 H 513.041 -2.33324 -3.59524 0
M  V30 5338 H 517.225 -3.30841 -3.69943 0
M  V30 5339 H 512.481 -4.70707 -3.90186 0
M  V30 5340 H 516.655 -5.68746 -4.01872 0
M  V30 5341 H 514.282 -6.39135 -4.11596 0
M  V30 5342 N 515.857 1.33968 -0.830081 0
M  V30 5343 C 516.787 2.31911 -0.271911 0
M  V30 5344 C 517.768 1.58571 0.61556 0
M  V30 5345 O 518.953 1.86514 0.540946 0
M  V30 5346 C 516.083 3.42737 0.561146 0
M  V30 5347 C 515.037 4.27383 -0.229789 0
M  V30 5348 C 514.363 5.29742 0.726463 0
M  V30 5349 C 515.663 5.02 -1.44197 0
M  V30 5350 H 517.357 2.78844 -1.09025 0
M  V30 5351 H 514.903 1.34061 -0.52571 0
M  V30 5352 H 516.856 4.10276 0.961867 0
M  V30 5353 H 515.58 2.94471 1.41261 0
M  V30 5354 H 514.239 3.61456 -0.611964 0
M  V30 5355 H 513.887 4.77736 1.57408 0
M  V30 5356 H 513.587 5.87255 0.20142 0
M  V30 5357 H 515.111 6.00149 1.12489 0
M  V30 5358 H 516.525 5.62355 -1.11488 0
M  V30 5359 H 514.922 5.69122 -1.90317 0
M  V30 5360 H 515.992 4.31281 -2.2164 0
M  V30 5361 N 517.335 0.585699 1.46312 0
M  V30 5362 C 518.56 0.0762461 2.0726 0
M  V30 5363 C 518.985 -1.22071 1.43109 0
M  V30 5364 O 518.343 -1.73804 0.515942 0
M  V30 5365 C 518.391 -0.0729404 3.60526 0
M  V30 5366 O 517.495 -1.1287 3.96654 0
M  V30 5367 H 516.836 0.0641558 0.660893 0
M  V30 5368 H 519.366 0.809492 1.87905 0
M  V30 5369 H 519.376 -0.278158 4.07051 0
M  V30 5370 H 518.051 0.874188 4.06609 0
M  V30 5371 H 516.628 -0.901703 3.61834 0
M  V30 5372 N 518.813 -1.54241 0.323641 0
M  V30 5373 C 519.746 -2.20579 -0.584833 0
M  V30 5374 C 520.724 -1.18286 -1.11567 0
M  V30 5375 O 521.908 -1.47025 -1.17966 0
M  V30 5376 C 519.035 -2.86754 -1.80249 0
M  V30 5377 C 518.081 -4.02767 -1.4029 0
M  V30 5378 S 518.914 -5.33693 -0.439539 0
M  V30 5379 C 520.07 -6.03362 -1.66448 0
M  V30 5380 H 520.303 -2.97292 -0.0213238 0
M  V30 5381 H 517.836 -1.54024 0.107726 0
M  V30 5382 H 519.794 -3.25503 -2.50116 0
M  V30 5383 H 518.455 -2.09844 -2.33719 0
M  V30 5384 H 517.648 -4.47933 -2.31024 0
M  V30 5385 H 517.25 -3.65692 -0.783928 0
M  V30 5386 H 519.542 -6.25546 -2.6019 0
M  V30 5387 H 520.485 -6.9689 -1.25498 0
M  V30 5388 H 520.893 -5.33273 -1.85149 0
M  V30 5389 N 520.291 -0.0518155 -1.57515 0
M  V30 5390 C 521.221 0.920283 -2.146 0
M  V30 5391 C 522.202 1.32406 -1.06783 0
M  V30 5392 O 523.387 1.39866 -1.34726 0
M  V30 5393 C 520.517 2.1949 -2.6915 0
M  V30 5394 C 519.471 1.93116 -3.81956 0
M  V30 5395 C 518.797 3.27037 -4.23026 0
M  V30 5396 C 520.097 1.25225 -5.07066 0
M  V30 5397 H 521.791 0.444801 -2.96077 0
M  V30 5398 H 519.337 0.212508 -1.42423 0
M  V30 5399 H 521.29 2.87894 -3.07725 0
M  V30 5400 H 520.014 2.69244 -1.84865 0
M  V30 5401 H 518.673 1.27123 -3.43854 0
M  V30 5402 H 518.321 3.74595 -3.3569 0
M  V30 5403 H 518.021 3.10189 -4.99056 0
M  V30 5404 H 519.545 3.96673 -4.64202 0
M  V30 5405 H 520.959 1.83666 -5.43083 0
M  V30 5406 H 519.356 1.18702 -5.88243 0
M  V30 5407 H 520.426 0.228382 -4.84362 0
M  V30 5408 N 521.769 1.56035 0.221574 0
M  V30 5409 C 522.679 1.95581 1.29558 0
M  V30 5410 C 523.695 0.859639 1.51282 0
M  V30 5411 O 524.871 1.16321 1.64413 0
M  V30 5412 C 521.936 2.26447 2.62531 0
M  V30 5413 C 520.997 3.49632 2.4911 0
M  V30 5414 C 520.23 3.79017 3.75742 0
M  V30 5415 O 520.453 3.10077 4.78757 0
M  V30 5416 O 519.387 4.72507 3.72855 0
M  V30 5417 H 523.213 2.8711 0.990035 0
M  V30 5418 H 520.798 1.43244 0.424434 0
M  V30 5419 H 522.68 2.47494 3.41064 0
M  V30 5420 H 521.355 1.38092 2.92766 0
M  V30 5421 H 520.262 3.33864 1.68777 0
M  V30 5422 H 521.595 4.3837 2.23814 0
M  V30 5423 N 523.247 -0.488276 1.49845 0
M  V30 5424 C 524.157 -1.61451 1.70207 0
M  V30 5425 C 525.173 -1.63877 0.584846 0
M  V30 5426 O 526.349 -1.82063 0.861107 0
M  V30 5427 C 523.414 -2.9776 1.77594 0
M  V30 5428 C 522.475 -3.05861 3.01243 0
M  V30 5429 C 521.708 -4.35668 3.08268 0
M  V30 5430 O 521.931 -5.25197 2.22541 0
M  V30 5431 O 520.865 -4.49005 4.00847 0
M  V30 5432 H 524.691 -1.47199 2.65643 0
M  V30 5433 H 522.276 -0.665939 1.33737 0
M  V30 5434 H 524.158 -3.7875 1.84732 0
M  V30 5435 H 522.833 -3.12248 0.8534 0
M  V30 5436 H 521.74 -2.24012 2.99616 0
M  V30 5437 H 523.073 -2.96304 3.9302 0
M  V30 5438 N 524.725 -1.39134 -0.740242 0
M  V30 5439 C 525.635 -1.39697 -1.88473 0
M  V30 5440 C 526.651 -0.292403 -1.71526 0
M  V30 5441 O 527.827 -0.533021 -1.94219 0
M  V30 5442 C 524.892 -1.23382 -3.24003 0
M  V30 5443 C 523.953 -2.43763 -3.53381 0
M  V30 5444 C 523.186 -2.28216 -4.82445 0
M  V30 5445 O 523.409 -1.28288 -5.55786 0
M  V30 5446 O 522.343 -3.1709 -5.11603 0
M  V30 5447 H 526.169 -2.36159 -1.90952 0
M  V30 5448 H 523.754 -1.20194 -0.887346 0
M  V30 5449 H 525.636 -1.16395 -4.05006 0
M  V30 5450 H 524.311 -0.300121 -3.22306 0
M  V30 5451 H 523.218 -2.56325 -2.72485 0
M  V30 5452 H 524.551 -3.35808 -3.59852 0
M  V30 5453 N 526.204 0.969867 -1.24223 0
M  V30 5454 C 527.45 1.7151 -1.08223 0
M  V30 5455 C 527.783 1.90478 0.37838 0
M  V30 5456 O 527.058 1.4647 1.27971 0
M  V30 5457 C 527.341 3.10714 -1.82013 0
M  V30 5458 C 527.194 2.9925 -3.35811 0
M  V30 5459 C 528.513 4.10332 -1.59108 0
M  V30 5460 H 525.632 0.622499 -0.394543 0
M  V30 5461 H 528.274 1.1284 -1.52863 0
M  V30 5462 H 526.424 3.608 -1.44068 0
M  V30 5463 H 528.096 2.56608 -3.83341 0
M  V30 5464 H 526.339 2.35512 -3.64303 0
M  V30 5465 H 527.01 3.97857 -3.82641 0
M  V30 5466 H 529.486 3.69097 -1.92111 0
M  V30 5467 H 528.362 5.05804 -2.13198 0
M  V30 5468 H 528.623 4.38926 -0.528832 0
M  V30 5469 N 527.682 1.05563 1.17022 0
M  V30 5470 C 528.912 0.787307 1.91011 0
M  V30 5471 C 529.32 -0.661256 1.77268 0
M  V30 5472 O 528.663 -1.46379 1.10991 0
M  V30 5473 C 528.725 1.09313 3.42478 0
M  V30 5474 C 528.389 2.53863 3.80004 0
M  V30 5475 C 529.386 3.52081 3.82538 0
M  V30 5476 C 527.071 2.88969 4.10855 0
M  V30 5477 C 529.065 4.83449 4.15399 0
M  V30 5478 C 526.752 4.2054 4.43384 0
M  V30 5479 C 527.75 5.17589 4.45635 0
M  V30 5480 O 527.438 6.46799 4.77395 0
M  V30 5481 H 527.17 0.285463 0.61277 0
M  V30 5482 H 529.724 1.41051 1.49311 0
M  V30 5483 H 527.954 0.412833 3.8449 0
M  V30 5484 H 529.643 0.810224 3.97731 0
M  V30 5485 H 530.409 3.26299 3.58823 0
M  V30 5486 H 526.288 2.1409 4.08272 0
M  V30 5487 H 529.832 5.59194 4.1707 0
M  V30 5488 H 525.729 4.46083 4.66563 0
M  V30 5489 H 526.497 6.51677 4.95237 0
M  V30 5490 N 529.16 -1.33526 0.837174 0
M  V30 5491 C 530.385 -2.0258 0.444545 0
M  V30 5492 C 530.81 -1.6258 -0.946006 0
M  V30 5493 O 530.168 -0.817548 -1.6182 0
M  V30 5494 C 530.216 -3.5605 0.571006 0
M  V30 5495 O 529.32 -4.10422 -0.403431 0
M  V30 5496 H 528.661 -0.638866 0.180958 0
M  V30 5497 H 531.191 -1.70462 1.13154 0
M  V30 5498 H 531.201 -4.05488 0.452024 0
M  V30 5499 H 529.876 -3.84509 1.58512 0
M  V30 5500 H 528.453 -3.72113 -0.242147 0
M  V30 5501 N 530.638 -0.59345 -1.46 0
M  V30 5502 C 531.57 0.171569 -2.28557 0
M  V30 5503 C 532.583 0.845273 -1.39137 0
M  V30 5504 O 533.772 0.713033 -1.6364 0
M  V30 5505 C 530.872 1.26311 -3.14482 0
M  V30 5506 C 530.045 0.679258 -4.32094 0
M  V30 5507 C 529.104 1.65987 -4.99334 0
M  V30 5508 O 528.13 1.19171 -5.56585 0
M  V30 5509 N 529.332 2.99414 -4.97324 0
M  V30 5510 H 532.097 -0.536771 -2.94854 0
M  V30 5511 H 529.658 -0.431954 -1.56031 0
M  V30 5512 H 531.65 1.91863 -3.5633 0
M  V30 5513 H 530.22 1.87416 -2.50188 0
M  V30 5514 H 529.44 -0.153992 -3.93899 0
M  V30 5515 H 530.728 0.26916 -5.08088 0
M  V30 5516 H 530.126 3.40064 -4.52076 0
M  V30 5517 H 528.683 3.60426 -5.4308 0
M  V30 5518 N 532.116 1.54067 -0.331816 0
M  V30 5519 C 533.064 2.26105 0.54582 0
M  V30 5520 C 534.058 1.27816 1.11173 0
M  V30 5521 O 535.264 1.45565 1.05882 0
M  V30 5522 H 531.639 0.726363 0.194683 0
M  V30 5523 H 533.61 2.98282 -0.083931 0
M  V30 5524 C 532.359 3.03814 1.69092 0
M  V30 5525 H 531.682 3.79269 1.26473 0
M  V30 5526 H 533.122 3.57453 2.28043 0
M  V30 5527 C 531.581 2.12606 2.61343 0
M  V30 5528 O 532.111 1.71437 3.6328 0
M  V30 5529 N 530.317 1.77925 2.29763 0
M  V30 5530 H 529.864 2.11602 1.46909 0
M  V30 5531 H 529.822 1.1718 2.91747 0
M  V30 5532 N 533.594 0.0601682 1.57485 0
M  V30 5533 C 534.819 -0.624416 1.97777 0
M  V30 5534 C 535.244 -1.63051 0.937867 0
M  V30 5535 O 534.602 -1.81036 -0.0978845 0
M  V30 5536 C 534.65 -1.27979 3.37126 0
M  V30 5537 O 533.754 -2.39556 3.35688 0
M  V30 5538 H 533.095 -0.161581 0.64404 0
M  V30 5539 H 535.625 0.131237 2.04179 0
M  V30 5540 H 535.635 -1.62937 3.74053 0
M  V30 5541 H 534.31 -0.542501 4.12347 0
M  V30 5542 H 532.887 -2.06478 3.10517 0
M  V30 5543 N 535.072 -1.5615 -0.213296 0
M  V30 5544 C 536.483 -1.69645 -0.779582 0
M  V30 5545 C 536.834 -0.663615 -1.84636 0
M  V30 5546 O 535.959 0.183633 -2.15619 0
M  V30 5547 C 536.554 -3.07567 -1.42084 0
M  V30 5548 C 535.113 -3.22889 -1.93442 0
M  V30 5549 C 534.26 -2.65581 -0.797612 0
M  V30 5550 H 537.211 -1.58696 0.0114951 0
M  V30 5551 H 537.232 -3.03884 -2.28986 0
M  V30 5552 H 536.744 -3.82716 -0.644187 0
M  V30 5553 H 534.845 -2.52623 -2.73884 0
M  V30 5554 H 534.958 -4.30197 -2.10872 0
M  V30 5555 H 533.322 -2.24278 -1.20712 0
M  V30 5556 H 534.105 -3.43284 -0.033494 0
M  V30 5557 N 536.55 0.480323 -1.50102 0
M  V30 5558 C 537.799 1.22979 -1.59872 0
M  V30 5559 C 538.112 1.93282 -0.30022 0
M  V30 5560 O 539.318 2.70086 -0.276709 0
M  V30 5561 C 537.774 2.23408 -2.82164 0
M  V30 5562 C 537.382 1.5895 -4.18854 0
M  V30 5563 C 539.126 2.99055 -3.01275 0
M  V30 5564 C 537.033 2.57611 -5.32344 0
M  V30 5565 H 535.963 0.462707 -0.59533 0
M  V30 5566 H 538.614 0.501291 -1.7652 0
M  V30 5567 H 536.996 2.99511 -2.59055 0
M  V30 5568 H 538.17 0.887 -4.52182 0
M  V30 5569 H 536.485 0.956191 -4.05273 0
M  V30 5570 H 539.082 3.72876 -3.83233 0
M  V30 5571 H 539.425 3.57897 -2.12639 0
M  V30 5572 H 539.958 2.30066 -3.24522 0
M  V30 5573 H 536.697 2.03521 -6.23105 0
M  V30 5574 H 536.217 3.26041 -5.03445 0
M  V30 5575 H 537.896 3.19627 -5.62537 0
M  V30 5576 N 538.028 1.39524 0.732853 0
M  V30 5577 C 539.274 1.38072 1.49358 0
M  V30 5578 C 539.629 -0.0227943 1.92386 0
M  V30 5579 O 538.922 -0.98976 1.64056 0
M  V30 5580 C 539.116 2.28916 2.74468 0
M  V30 5581 C 538.945 3.7796 2.43673 0
M  V30 5582 C 537.715 4.46874 2.35863 0
M  V30 5583 C 539.913 4.69886 2.09074 0
M  V30 5584 N 537.895 5.81242 1.97561 0
M  V30 5585 C 539.266 5.9292 1.81234 0
M  V30 5586 C 541.321 4.57887 1.95561 0
M  V30 5587 C 540.024 7.05297 1.41242 0
M  V30 5588 C 542.05 5.70187 1.56972 0
M  V30 5589 C 541.412 6.92297 1.30018 0
M  V30 5590 H 537.511 0.56051 0.5453 0
M  V30 5591 H 540.095 1.75093 0.85151 0
M  V30 5592 H 538.266 1.9405 3.36451 0
M  V30 5593 H 539.998 2.18441 3.40684 0
M  V30 5594 H 536.753 4.00341 2.5303 0
M  V30 5595 H 537.177 6.52356 1.80997 0
M  V30 5596 H 541.819 3.64014 2.15067 0
M  V30 5597 H 539.537 7.99069 1.20476 0
M  V30 5598 H 543.123 5.62892 1.47119 0
M  V30 5599 H 542.003 7.7772 1.00605 0
M  V30 5600 N 539.506 -0.963266 1.24736 0
M  V30 5601 C 540.783 -1.68248 0.9976 0
M  V30 5602 C 541.163 -2.05599 -0.478776 0
M  V30 5603 O 540.511 -1.7626 -1.45412 0
M  V30 5604 C 540.721 -2.91118 1.92487 0
M  V30 5605 C 542.069 -3.63261 2.19833 0
M  V30 5606 O 543.093 -3.01184 1.90176 0
M  V30 5607 O 541.952 -4.75019 2.7022 0
M  V30 5608 H 539.046 -0.735744 0.377637 0
M  V30 5609 H 541.592 -1.01696 1.35853 0
M  V30 5610 H 540.364 -2.60242 2.92215 0
M  V30 5611 H 539.987 -3.65402 1.56738 0
M  V30 5612 N 540.985 -1.06182 -1.16461 0
M  V30 5613 C 541.917 -0.629584 -2.20383 0
M  V30 5614 C 542.93 0.311834 -1.59786 0
M  V30 5615 O 544.119 0.103 -1.78203 0
M  V30 5616 C 541.219 0.0973695 -3.3876 0
M  V30 5617 C 540.392 -0.857252 -4.28917 0
M  V30 5618 C 539.451 -0.169749 -5.25926 0
M  V30 5619 O 538.477 -0.807044 -5.6345 0
M  V30 5620 N 539.679 1.08911 -5.70192 0
M  V30 5621 H 542.444 -1.52352 -2.58087 0
M  V30 5622 H 540.005 -0.944993 -1.31459 0
M  V30 5623 H 541.997 0.567676 -4.00699 0
M  V30 5624 H 540.567 0.893093 -2.99571 0
M  V30 5625 H 539.787 -1.50696 -3.64259 0
M  V30 5626 H 541.075 -1.50489 -4.86035 0
M  V30 5627 H 540.473 1.62703 -5.41797 0
M  V30 5628 H 539.03 1.50331 -6.34227 0
M  V30 5629 N 542.463 1.3308 -0.844243 0
M  V30 5630 C 543.74 1.92178 -0.364261 0
M  V30 5631 C 544.12 1.76961 1.15101 0
M  V30 5632 O 543.468 1.16128 1.9679 0
M  V30 5633 C 543.678 3.393 -0.817106 0
M  V30 5634 C 545.026 4.16444 -0.828236 0
M  V30 5635 O 546.05 3.47975 -0.761062 0
M  V30 5636 O 544.909 5.38685 -0.920926 0
M  V30 5637 H 542.003 0.820411 -0.10419 0
M  V30 5638 H 544.549 1.41918 -0.930453 0
M  V30 5639 H 543.321 3.44272 -1.85991 0
M  V30 5640 H 542.944 3.96947 -0.227785 0
M  V30 5641 N 543.941 0.601185 1.45683 0
M  V30 5642 C 545.188 0.0938811 2.02282 0
M  V30 5643 C 545.516 -1.27315 1.47041 0
M  V30 5644 O 544.771 -1.85193 0.632623 0
M  V30 5645 C 545.07 -0.00222425 3.574 0
M  V30 5646 C 544.736 1.29963 4.31764 0
M  V30 5647 C 543.398 1.65625 4.51798 0
M  V30 5648 C 545.75 2.1603 4.74321 0
M  V30 5649 C 543.078 2.87119 5.11644 0
M  V30 5650 C 545.43 3.36766 5.3551 0
M  V30 5651 C 544.094 3.72689 5.53768 0
M  V30 5652 H 543.364 0.0343535 0.740203 0
M  V30 5653 H 546.011 0.781522 1.74827 0
M  V30 5654 H 544.316 -0.773096 3.84097 0
M  V30 5655 H 546.013 -0.410794 3.9889 0
M  V30 5656 H 542.603 1.01204 4.1648 0
M  V30 5657 H 546.787 1.89778 4.58582 0
M  V30 5658 H 542.043 3.15065 5.2397 0
M  V30 5659 H 546.217 4.03713 5.67441 0
M  V30 5660 H 543.844 4.66918 5.99909 0
M  V30 5661 N 545.419 -1.53889 0.339982 0
M  V30 5662 C 546.349 -2.27843 -0.510856 0
M  V30 5663 C 547.33 -1.29267 -1.10563 0
M  V30 5664 O 548.515 -1.58104 -1.12768 0
M  V30 5665 C 545.645 -3.04857 -1.66372 0
M  V30 5666 C 544.599 -4.10907 -1.19746 0
M  V30 5667 C 543.925 -4.75855 -2.43857 0
M  V30 5668 C 545.225 -5.21435 -0.300501 0
M  V30 5669 H 546.919 -2.99212 0.106067 0
M  V30 5670 H 544.465 -1.43904 0.0524533 0
M  V30 5671 H 546.418 -3.5533 -2.26537 0
M  V30 5672 H 545.142 -2.31133 -2.30749 0
M  V30 5673 H 543.801 -3.61342 -0.618654 0
M  V30 5674 H 543.449 -3.9873 -3.06633 0
M  V30 5675 H 543.149 -5.47502 -2.13343 0
M  V30 5676 H 544.673 -5.2911 -3.04754 0
M  V30 5677 H 546.087 -5.67565 -0.80889 0
M  V30 5678 H 544.484 -6.00036 -0.0874076 0
M  V30 5679 H 545.554 -4.80328 0.664321 0
M  V30 5680 N 546.897 -0.0685191 -1.57451 0
M  V30 5681 C 548.122 0.613919 -1.98106 0
M  V30 5682 C 548.547 1.62551 -0.946501 0
M  V30 5683 O 547.905 1.81085 0.0882824 0
M  V30 5684 C 547.953 1.26189 -3.378 0
M  V30 5685 O 547.057 2.37773 -3.36954 0
M  V30 5686 H 546.398 0.158163 -0.644888 0
M  V30 5687 H 548.928 -0.142063 -2.04106 0
M  V30 5688 H 548.938 1.60951 -3.74912 0
M  V30 5689 H 547.613 0.520625 -4.12629 0
M  V30 5690 H 546.19 2.04829 -3.11608 0
M  V30 5691 N 548.375 1.56261 0.205012 0
M  V30 5692 C 549.338 1.92908 1.23771 0
M  V30 5693 C 550.338 0.809208 1.38955 0
M  V30 5694 O 551.528 1.07676 1.36936 0
M  V30 5695 C 548.66 2.19442 2.60879 0
M  V30 5696 H 549.853 2.85287 0.924728 0
M  V30 5697 H 547.406 1.49798 0.446125 0
M  V30 5698 H 548.141 1.29668 2.97248 0
M  V30 5699 H 547.926 3.0104 2.51232 0
M  V30 5700 H 549.416 2.48833 3.35368 0
M  V30 5701 N 549.853 -0.472356 1.50355 0
M  V30 5702 C 551.078 -1.25251 1.65309 0
M  V30 5703 C 551.503 -1.85081 0.335643 0
M  V30 5704 O 550.861 -1.67227 -0.700335 0
M  V30 5705 C 550.909 -2.3379 2.74544 0
M  V30 5706 O 550.013 -3.38401 2.35709 0
M  V30 5707 H 549.354 -0.368539 0.552336 0
M  V30 5708 H 551.884 -0.562271 1.96722 0
M  V30 5709 H 551.894 -2.79121 2.97583 0
M  V30 5710 H 550.569 -1.89614 3.70161 0
M  V30 5711 H 549.146 -2.9879 2.23112 0
M  V30 5712 N 551.331 -1.39911 -0.725443 0
M  V30 5713 C 552.556 -1.41137 -1.5197 0
M  V30 5714 C 552.981 -0.010262 -1.88097 0
M  V30 5715 O 552.339 0.979184 -1.52583 0
M  V30 5716 C 552.387 -2.2994 -2.77777 0
M  V30 5717 O 551.491 -1.73586 -3.74088 0
M  V30 5718 H 550.832 -0.480219 -0.458569 0
M  V30 5719 H 553.362 -1.84023 -0.894249 0
M  V30 5720 H 553.372 -2.44785 -3.26411 0
M  V30 5721 H 552.047 -3.31759 -2.50816 0
M  V30 5722 H 550.624 -1.68035 -3.32894 0
M  V30 5723 N 552.809 0.956637 -1.25245 0
M  V30 5724 C 554.225 1.22733 -1.02023 0
M  V30 5725 C 554.425 1.99761 0.264186 0
M  V30 5726 O 553.481 2.32814 0.977436 0
M  V30 5727 C 554.794 2.00367 -2.24217 0
M  V30 5728 C 556.342 2.13418 -2.28958 0
M  V30 5729 C 556.817 2.9445 -3.50803 0
M  V30 5730 N 558.308 3.02029 -3.51187 0
M  V30 5731 C 559.043 3.65116 -4.42129 0
M  V30 5732 N 558.539 4.2983 -5.43339 0
M  V30 5733 N 560.332 3.62237 -4.29815 0
M  V30 5734 H 552.483 0.441282 -2.07765 0
M  V30 5735 H 554.746 0.257686 -0.912306 0
M  V30 5736 H 554.452 1.51165 -3.17556 0
M  V30 5737 H 554.326 3.01077 -2.27228 0
M  V30 5738 H 556.713 2.61819 -1.36143 0
M  V30 5739 H 556.794 1.1202 -2.29968 0
M  V30 5740 H 556.438 2.46741 -4.43939 0
M  V30 5741 H 556.368 3.9607 -3.47039 0
M  V30 5742 H 558.859 2.56007 -2.77973 0
M  V30 5743 H 559.172 4.75819 -6.08947 0
M  V30 5744 H 557.517 4.28465 -5.47214 0
M  V30 5745 H 560.708 3.10863 -3.49974 0
M  V30 5746 H 560.881 4.11117 -5.00886 0
M  V30 5747 N 554.287 1.06798 1.15896 0
M  V30 5748 C 555.515 0.808694 1.90441 0
M  V30 5749 C 555.93 -0.637506 1.77711 0
M  V30 5750 O 555.287 -1.43684 1.12522 0
M  V30 5751 C 555.338 1.20068 3.40978 0
M  V30 5752 O 555.059 2.59013 3.53333 0
M  V30 5753 C 556.56 0.96987 4.3256 0
M  V30 5754 H 553.78 0.292809 0.603742 0
M  V30 5755 H 556.324 1.42296 1.46874 0
M  V30 5756 H 554.479 0.630842 3.82229 0
M  V30 5757 H 554.893 2.7485 4.46719 0
M  V30 5758 H 556.367 1.29371 5.36626 0
M  V30 5759 H 556.844 -0.0941209 4.39099 0
M  V30 5760 H 557.45 1.52433 3.97044 0
M  V30 5761 N 555.766 -1.3263 0.851289 0
M  V30 5762 C 556.991 -2.02097 0.466006 0
M  V30 5763 C 557.416 -1.63574 -0.928709 0
M  V30 5764 O 556.774 -0.834665 -1.60944 0
M  V30 5765 C 556.822 -3.55425 0.608737 0
M  V30 5766 O 555.926 -4.10827 -0.359878 0
M  V30 5767 H 555.267 -0.636911 0.187724 0
M  V30 5768 H 557.797 -1.69253 1.14955 0
M  V30 5769 H 557.807 -4.04986 0.495006 0
M  V30 5770 H 556.482 -3.82806 1.62581 0
M  V30 5771 H 555.059 -3.72349 -0.202666 0
M  V30 5772 N 557.244 -0.608902 -1.45362 0
M  V30 5773 C 558.176 0.147318 -2.28726 0
M  V30 5774 C 559.189 0.830468 -1.40025 0
M  V30 5775 O 560.378 0.695636 -1.64387 0
M  V30 5776 C 557.478 1.22968 -3.15804 0
M  V30 5777 C 556.651 0.633391 -4.3279 0
M  V30 5778 C 555.71 1.60682 -5.01067 0
M  V30 5779 O 554.736 1.13261 -5.57818 0
M  V30 5780 N 555.938 2.94123 -5.00472 0
M  V30 5781 H 558.703 -0.568014 -2.94268 0
M  V30 5782 H 556.264 -0.448479 -1.55564 0
M  V30 5783 H 558.256 1.88072 -3.58345 0
M  V30 5784 H 556.826 1.84752 -2.52162 0
M  V30 5785 H 556.046 -0.195762 -3.93714 0
M  V30 5786 H 557.334 0.215255 -5.08344 0
M  V30 5787 H 556.732 3.3525 -4.55657 0
M  V30 5788 H 555.289 3.54646 -5.46872 0
M  V30 5789 N 558.722 1.53707 -0.348139 0
M  V30 5790 C 559.652 2.28111 0.498766 0
M  V30 5791 C 560.633 1.29851 1.09876 0
M  V30 5792 O 561.818 1.587 1.11928 0
M  V30 5793 C 558.948 3.05735 1.64753 0
M  V30 5794 C 557.902 4.11537 1.17565 0
M  V30 5795 C 557.228 4.77142 2.4133 0
M  V30 5796 C 558.528 5.21587 0.272844 0
M  V30 5797 H 560.222 2.99152 -0.121934 0
M  V30 5798 H 557.768 1.43875 -0.0600842 0
M  V30 5799 H 559.721 3.56526 2.24649 0
M  V30 5800 H 558.445 2.32354 2.2952 0
M  V30 5801 H 557.104 3.61665 0.599483 0
M  V30 5802 H 556.752 4.0035 3.04514 0
M  V30 5803 H 556.452 5.48626 2.10436 0
M  V30 5804 H 557.976 5.30719 3.01943 0
M  V30 5805 H 559.39 5.67986 0.778779 0
M  V30 5806 H 557.787 6.00074 0.0555849 0
M  V30 5807 H 558.857 4.79969 -0.689785 0
M  V30 5808 N 560.2 0.0768682 1.57412 0
M  V30 5809 C 561.448 -0.589918 1.93299 0
M  V30 5810 C 561.769 -1.69842 0.958049 0
M  V30 5811 O 561.039 -1.95899 0.00703261 0
M  V30 5812 H 559.619 -0.220901 0.713591 0
M  V30 5813 H 562.281 0.135917 1.94425 0
M  V30 5814 H 561.377 -1.01195 2.95239 0
M  V30 5815 N 561.678 -1.56367 -0.196722 0
M  V30 5816 C 562.927 -1.79724 -0.915539 0
M  V30 5817 C 563.24 -0.649804 -1.84491 0
M  V30 5818 O 564.446 -0.767631 -2.60422 0
M  V30 5819 C 562.902 -3.18369 -1.67836 0
M  V30 5820 C 562.51 -4.4091 -0.793897 0
M  V30 5821 C 564.254 -3.51037 -2.38691 0
M  V30 5822 C 562.161 -5.70577 -1.55549 0
M  V30 5823 H 561.091 -0.67013 -0.345604 0
M  V30 5824 H 563.742 -1.82721 -0.168856 0
M  V30 5825 H 562.124 -3.09617 -2.46887 0
M  V30 5826 H 563.298 -4.60781 -0.042163 0
M  V30 5827 H 561.613 -4.15937 -0.19626 0
M  V30 5828 H 564.21 -4.4515 -2.96219 0
M  V30 5829 H 564.553 -2.74704 -3.12799 0
M  V30 5830 H 565.086 -3.61229 -1.66608 0
M  V30 5831 H 561.825 -6.49871 -0.857226 0
M  V30 5832 H 561.345 -5.54726 -2.2812 0
M  V30 5833 H 563.024 -6.11637 -2.10971 0
M  V30 5834 N 563.156 0.464375 -1.50603 0
M  V30 5835 C 564.088 1.57916 -1.66118 0
M  V30 5836 C 565.101 1.53497 -0.54246 0
M  V30 5837 O 566.29 1.58763 -0.815877 0
M  V30 5838 C 563.39 2.96809 -1.63577 0
M  V30 5839 C 562.563 3.26026 -2.91592 0
M  V30 5840 C 561.622 4.44506 -2.81604 0
M  V30 5841 O 560.648 4.44484 -3.55559 0
M  V30 5842 N 561.85 5.46549 -1.95614 0
M  V30 5843 H 564.615 1.45022 -2.62276 0
M  V30 5844 H 562.176 0.652903 -1.48151 0
M  V30 5845 H 564.168 3.74048 -1.54499 0
M  V30 5846 H 562.738 3.03438 -0.751262 0
M  V30 5847 H 561.958 2.37337 -3.14746 0
M  V30 5848 H 563.246 3.42361 -3.76386 0
M  V30 5849 H 562.644 5.49391 -1.34854 0
M  V30 5850 H 561.201 6.22746 -1.92435 0
M  V30 5851 N 564.634 1.40294 0.718013 0
M  V30 5852 C 565.862 1.4175 1.50714 0
M  V30 5853 C 566.277 0.0165366 1.88793 0
M  V30 5854 O 565.634 -0.958942 1.55276 0
M  V30 5855 C 565.685 2.30598 2.784 0
M  V30 5856 O 565.406 3.6524 2.41932 0
M  V30 5857 C 566.907 2.4062 3.72313 0
M  V30 5858 H 564.127 0.483565 0.465194 0
M  V30 5859 H 566.671 1.84316 0.885889 0
M  V30 5860 H 564.826 1.91401 3.36815 0
M  V30 5861 H 565.24 4.12402 3.24076 0
M  V30 5862 H 566.714 3.07001 4.58753 0
M  V30 5863 H 567.191 1.4305 4.15251 0
M  V30 5864 H 567.797 2.80359 3.19811 0
M  V30 5865 N 566.112 -0.949982 1.2575 0
M  V30 5866 C 567.358 -1.69766 1.10938 0
M  V30 5867 C 567.691 -1.91056 -0.348028 0
M  V30 5868 O 566.966 -1.48488 -1.25625 0
M  V30 5869 C 567.249 -3.07779 1.86933 0
M  V30 5870 C 567.102 -2.9387 3.4053 0
M  V30 5871 C 568.421 -4.07749 1.65616 0
M  V30 5872 H 565.54 -0.616144 0.404396 0
M  V30 5873 H 568.182 -1.10394 1.54639 0
M  V30 5874 H 566.332 -3.58462 1.4979 0
M  V30 5875 H 568.004 -2.50476 3.87375 0
M  V30 5876 H 566.247 -2.29686 3.68004 0
M  V30 5877 H 566.918 -3.91719 3.88922 0
M  V30 5878 H 569.394 -3.65994 1.97959 0
M  V30 5879 H 568.27 -5.02348 2.21218 0
M  V30 5880 H 568.531 -4.38029 0.598595 0
M  V30 5881 N 567.59 -1.07411 -1.15328 0
M  V30 5882 C 568.839 -0.792643 -1.85473 0
M  V30 5883 C 569.152 0.683789 -1.83259 0
M  V30 5884 O 570.358 1.08005 -2.49093 0
M  V30 5885 C 568.814 -1.36787 -3.32892 0
M  V30 5886 C 568.422 -2.87536 -3.43551 0
M  V30 5887 C 570.166 -1.16444 -4.08217 0
M  V30 5888 C 568.073 -3.38247 -4.85122 0
M  V30 5889 H 567.003 -0.292838 -0.694811 0
M  V30 5890 H 569.654 -1.29426 -1.30082 0
M  V30 5891 H 568.036 -0.793993 -3.87958 0
M  V30 5892 H 569.21 -3.50973 -2.98588 0
M  V30 5893 H 567.525 -3.06676 -2.81672 0
M  V30 5894 H 570.122 -1.51808 -5.12697 0
M  V30 5895 H 570.465 -0.10353 -4.16171 0
M  V30 5896 H 570.998 -1.70472 -3.59422 0
M  V30 5897 H 567.737 -4.43866 -4.82351 0
M  V30 5898 H 567.257 -2.79564 -5.30664 0
M  V30 5899 H 568.936 -3.34238 -5.5398 0
M  V30 5900 N 569.068 1.32177 -0.85831 0
M  V30 5901 C 570.016 2.30729 -0.294442 0
M  V30 5902 C 571.01 1.59009 0.584165 0
M  V30 5903 O 572.216 1.73713 0.471562 0
M  V30 5904 H 568.591 0.748097 -0.0765171 0
M  V30 5905 H 570.562 2.75774 -1.1398 0
M  V30 5906 C 569.311 3.44098 0.499208 0
M  V30 5907 H 568.634 3.99449 -0.167579 0
M  V30 5908 H 570.074 4.15202 0.859273 0
M  V30 5909 C 568.533 2.91684 1.68588 0
M  V30 5910 O 569.063 2.89481 2.78503 0
M  V30 5911 N 567.269 2.48036 1.51415 0
M  V30 5912 H 566.816 2.50027 0.620006 0
M  V30 5913 H 566.774 2.13322 2.30957 0
M  V30 5914 N 570.547 0.616602 1.45037 0
M  V30 5915 C 571.958 0.199359 1.85633 0
M  V30 5916 C 572.309 -1.24588 1.51566 0
M  V30 5917 O 571.434 -1.94594 0.94668 0
M  V30 5918 C 572.029 0.355033 3.36935 0
M  V30 5919 C 570.588 -0.00758748 3.76399 0
M  V30 5920 C 569.735 0.675256 2.68953 0
M  V30 5921 H 572.686 0.822708 1.3571 0
M  V30 5922 H 572.707 -0.410201 3.78282 0
M  V30 5923 H 572.219 1.40699 3.61698 0
M  V30 5924 H 570.32 -1.05837 3.57252 0
M  V30 5925 H 570.433 0.392346 4.77491 0
M  V30 5926 H 568.797 0.111992 2.54454 0
M  V30 5927 H 569.58 1.72952 2.96551 0
M  V30 5928 N 572.025 -1.5352 0.356285 0
M  V30 5929 C 573.436 -1.86282 -0.12492 0
M  V30 5930 C 573.787 -1.27717 -1.48939 0
M  V30 5931 O 572.912 -0.595614 -2.08042 0
M  V30 5932 C 573.507 -3.37995 -0.23345 0
M  V30 5933 C 572.066 -3.70588 -0.658899 0
M  V30 5934 C 571.213 -2.76581 0.199596 0
M  V30 5935 H 574.164 -1.47901 0.575423 0
M  V30 5936 H 574.185 -3.65475 -1.0587 0
M  V30 5937 H 573.697 -3.8059 0.759776 0
M  V30 5938 H 571.798 -3.33544 -1.66069 0
M  V30 5939 H 571.911 -4.77076 -0.439957 0
M  V30 5940 H 570.275 -2.52552 -0.330076 0
M  V30 5941 H 571.058 -3.22008 1.19019 0
M  V30 5942 N 573.503 -0.0852151 -1.57369 0
M  V30 5943 C 574.914 0.445428 -1.81309 0
M  V30 5944 C 575.265 1.68795 -1.00013 0
M  V30 5945 O 574.39 2.15211 -0.226573 0
M  V30 5946 C 574.985 0.814887 -3.28854 0
M  V30 5947 C 573.544 1.29032 -3.53592 0
M  V30 5948 C 572.691 0.282089 -2.75861 0
M  V30 5949 H 575.642 -0.310771 -1.55627 0
M  V30 5950 H 575.663 1.67524 -3.41637 0
M  V30 5951 H 575.175 -0.0896309 -3.87996 0
M  V30 5952 H 573.276 2.21289 -2.9977 0
M  V30 5953 H 573.389 1.25898 -4.62262 0
M  V30 5954 H 571.753 0.762182 -2.43029 0
M  V30 5955 H 572.536 -0.614936 -3.37748 0
M  V30 5956 N 574.981 1.5647 0.188427 0
M  V30 5957 C 576.227 1.81281 0.909124 0
M  V30 5958 C 576.56 0.66034 1.82628 0
M  V30 5959 O 575.835 -0.338737 1.91528 0
M  V30 5960 C 576.118 3.16388 1.7196 0
M  V30 5961 C 575.971 4.42137 0.826714 0
M  V30 5962 C 577.29 3.48256 2.69083 0
M  V30 5963 H 574.409 0.659457 0.329068 0
M  V30 5964 H 577.051 1.89182 0.176156 0
M  V30 5965 H 575.201 3.09784 2.34448 0
M  V30 5966 H 576.873 4.60794 0.216025 0
M  V30 5967 H 575.116 4.33594 0.133792 0
M  V30 5968 H 575.787 5.33184 1.42893 0
M  V30 5969 H 578.263 3.55203 2.16726 0
M  V30 5970 H 577.139 4.43899 3.2287 0
M  V30 5971 H 577.4 2.72088 3.48455 0
M  V30 5972 N 576.459 -0.456382 1.50847 0
M  V30 5973 C 577.422 -1.53493 1.70213 0
M  V30 5974 C 578.422 -1.50264 0.572481 0
M  V30 5975 O 579.612 -1.52623 0.839751 0
M  V30 5976 C 576.744 -2.93091 1.741 0
M  V30 5977 H 577.937 -1.37633 2.66453 0
M  V30 5978 H 575.49 -0.683776 1.4055 0
M  V30 5979 H 576.225 -3.14378 0.796063 0
M  V30 5980 H 576.01 -2.9684 2.5618 0
M  V30 5981 H 577.5 -3.71368 1.90987 0
M  V30 5982 N 577.937 -1.40673 -0.710563 0
M  V30 5983 C 579.185 -1.38947 -1.46759 0
M  V30 5984 C 579.506 0.00572879 -1.94999 0
M  V30 5985 O 578.776 0.961358 -1.70689 0
M  V30 5986 H 577.356 -0.5114 -0.544499 0
M  V30 5987 H 580.018 -1.75773 -0.842012 0
M  V30 5988 H 579.114 -2.06745 -2.33801 0
M  V30 5989 N 579.415 0.9433 -1.26252 0
M  V30 5990 C 580.643 1.72367 -1.14443 0
M  V30 5991 C 581.058 1.86392 0.300572 0
M  V30 5992 O 580.415 1.36978 1.20596 0
M  V30 5993 C 580.466 3.13155 -1.806 0
M  V30 5994 O 580.187 2.99803 -3.19452 0
M  V30 5995 C 581.688 4.07417 -1.74717 0
M  V30 5996 H 578.908 0.539758 -0.398626 0
M  V30 5997 H 581.452 1.18268 -1.66832 0
M  V30 5998 H 579.607 3.64162 -1.32154 0
M  V30 5999 H 580.021 3.88697 -3.52158 0
M  V30 6000 H 581.495 5.03773 -2.25647 0
M  V30 6001 H 581.972 4.3337 -0.713244 0
M  V30 6002 H 582.578 3.6233 -2.22704 0
M  V30 6003 N 580.893 1.08022 1.14757 0
M  V30 6004 C 582.142 0.802468 1.8505 0
M  V30 6005 C 582.455 -0.674061 1.83619 0
M  V30 6006 O 583.661 -1.06683 2.49662 0
M  V30 6007 C 582.117 1.38551 3.32162 0
M  V30 6008 C 581.725 2.89354 3.42021 0
M  V30 6009 C 583.469 1.18608 4.07594 0
M  V30 6010 C 581.376 3.40815 4.83321 0
M  V30 6011 H 580.306 0.296518 0.693248 0
M  V30 6012 H 582.957 1.30114 1.29393 0
M  V30 6013 H 581.339 0.814556 3.87532 0
M  V30 6014 H 582.513 3.52552 2.96722 0
M  V30 6015 H 580.828 3.08165 2.80041 0
M  V30 6016 H 583.425 1.54525 5.11885 0
M  V30 6017 H 583.768 0.125599 4.1611 0
M  V30 6018 H 584.301 1.72375 3.58513 0
M  V30 6019 H 581.04 4.46418 4.79991 0
M  V30 6020 H 580.56 2.82374 5.29174 0
M  V30 6021 H 582.239 3.37171 5.522 0
M  V30 6022 N 582.371 -1.3172 0.865308 0
M  V30 6023 C 583.596 -2.01591 0.487415 0
M  V30 6024 C 584.021 -1.6455 -0.911307 0
M  V30 6025 O 583.379 -0.851689 -1.6005 0
M  V30 6026 C 583.427 -3.54759 0.646401 0
M  V30 6027 O 582.531 -4.11185 -0.316284 0
M  V30 6028 H 581.872 -0.634884 0.194468 0
M  V30 6029 H 584.402 -1.68024 1.16744 0
M  V30 6030 H 584.412 -4.04438 0.537932 0
M  V30 6031 H 583.087 -3.8106 1.66632 0
M  V30 6032 H 581.664 -3.72543 -0.163162 0
M  V30 6033 N 583.85 -0.624285 -1.44708 0
M  V30 6034 C 585.08 -0.132726 -2.06173 0
M  V30 6035 C 585.488 1.19513 -1.46674 0
M  V30 6036 O 584.831 1.74254 -0.581491 0
M  V30 6037 C 584.893 0.0636732 -3.59444 0
M  V30 6038 C 584.557 -1.18496 -4.4137 0
M  V30 6039 C 585.553 -2.10706 -4.75288 0
M  V30 6040 C 583.239 -1.41846 -4.81856 0
M  V30 6041 C 585.233 -3.24582 -5.48567 0
M  V30 6042 C 582.92 -2.5602 -5.54885 0
M  V30 6043 C 583.918 -3.47215 -5.88159 0
M  V30 6044 O 583.606 -4.59399 -6.59703 0
M  V30 6045 H 583.338 -0.0737313 -0.671967 0
M  V30 6046 H 585.892 -0.856789 -1.86677 0
M  V30 6047 H 584.122 0.842809 -3.77404 0
M  V30 6048 H 585.811 0.508924 -4.02697 0
M  V30 6049 H 586.577 -1.93898 -4.44554 0
M  V30 6050 H 582.456 -0.717556 -4.55381 0
M  V30 6051 H 586 -3.95785 -5.74456 0
M  V30 6052 H 581.897 -2.72774 -5.85034 0
M  V30 6053 H 582.665 -4.58293 -6.78166 0
M  V30 6054 N 585.328 1.53329 -0.364422 0
M  V30 6055 C 586.276 2.27212 0.497737 0
M  V30 6056 C 587.27 1.30146 1.08437 0
M  V30 6057 O 588.476 1.47778 1.0277 0
M  V30 6058 H 584.851 0.730329 0.179232 0
M  V30 6059 H 586.822 2.98037 -0.147182 0
M  V30 6060 C 585.571 3.07333 1.6261 0
M  V30 6061 H 584.894 3.81866 1.184 0
M  V30 6062 H 586.334 3.62209 2.20409 0
M  V30 6063 C 584.793 2.18102 2.56775 0
M  V30 6064 O 585.323 1.79104 3.59562 0
M  V30 6065 N 583.529 1.82759 2.25937 0
M  V30 6066 H 583.076 2.14671 1.42387 0
M  V30 6067 H 583.034 1.23342 2.89196 0
M  V30 6068 N 586.806 0.0935595 1.57322 0
M  V30 6069 C 588.031 -0.582324 1.99057 0
M  V30 6070 C 588.456 -1.61025 0.972242 0
M  V30 6071 O 587.814 -1.81202 -0.0594622 0
M  V30 6072 C 587.862 -1.20799 3.39765 0
M  V30 6073 O 586.966 -2.32382 3.40694 0
M  V30 6074 H 586.307 -0.147884 0.647323 0
M  V30 6075 H 588.837 0.174516 2.03854 0
M  V30 6076 H 588.847 -1.54966 3.77425 0
M  V30 6077 H 587.522 -0.454914 4.13405 0
M  V30 6078 H 586.099 -1.99845 3.14827 0
M  V30 6079 N 588.284 -1.56567 -0.180126 0
M  V30 6080 C 589.512 -1.85618 -0.913972 0
M  V30 6081 C 589.927 -0.677892 -1.7621 0
M  V30 6082 O 589.284 0.353171 -1.7905 0
M  V30 6083 C 589.335 -3.13619 -1.79793 0
M  V30 6084 O 589.056 -4.26906 -0.98402 0
M  V30 6085 C 590.557 -3.55954 -2.64219 0
M  V30 6086 H 587.777 -0.616043 -0.265954 0
M  V30 6087 H 590.321 -2.03681 -0.182872 0
M  V30 6088 H 588.476 -2.97409 -2.48247 0
M  V30 6089 H 588.89 -4.9989 -1.58776 0
M  V30 6090 H 590.364 -4.48444 -3.21873 0
M  V30 6091 H 590.841 -2.79653 -3.38661 0
M  V30 6092 H 591.447 -3.74746 -2.01111 0
M  V30 6093 N 589.762 0.448376 -1.51087 0
M  V30 6094 C 590.987 1.22605 -1.6728 0
M  V30 6095 C 591.412 1.84524 -0.365045 0
M  V30 6096 O 590.77 1.6832 0.673642 0
M  V30 6097 C 590.818 2.29393 -2.78229 0
M  V30 6098 O 589.922 3.34608 -2.41063 0
M  V30 6099 H 589.263 0.359705 -0.558129 0
M  V30 6100 H 591.793 0.530903 -1.97592 0
M  V30 6101 H 591.803 2.74352 -3.01986 0
M  V30 6102 H 590.478 1.83701 -3.73131 0
M  V30 6103 H 589.055 2.95202 -2.27838 0
M  V30 6104 N 591.24 1.41047 0.703093 0
M  V30 6105 C 592.465 1.43537 1.49706 0
M  V30 6106 C 592.89 0.0401853 1.88057 0
M  V30 6107 O 592.248 -0.954785 1.54122 0
M  V30 6108 C 592.296 2.3433 2.74084 0
M  V30 6109 O 591.4 1.79515 3.71279 0
M  V30 6110 H 590.741 0.487454 0.450871 0
M  V30 6111 H 593.271 1.85422 0.86486 0
M  V30 6112 H 593.281 2.49947 3.22476 0
M  V30 6113 H 591.956 3.35708 2.45506 0
M  V30 6114 H 590.533 1.7331 3.30179 0
M  V30 6115 N 592.718 -0.936591 1.26751 0
M  V30 6116 C 593.943 -1.72288 1.15462 0
M  V30 6117 C 594.368 -1.85915 -0.285887 0
M  V30 6118 O 593.726 -1.35272 -1.20711 0
M  V30 6119 C 593.774 -3.10503 1.83359 0
M  V30 6120 O 592.878 -3.96745 1.1255 0
M  V30 6121 H 592.219 -0.52843 0.402067 0
M  V30 6122 H 594.749 -1.17271 1.67656 0
M  V30 6123 H 594.759 -3.60867 1.90365 0
M  V30 6124 H 593.434 -2.99901 2.88153 0
M  V30 6125 H 592.011 -3.55191 1.13551 0
M  V30 6126 N 594.196 -1.08629 -1.14182 0
M  V30 6127 C 595.126 -0.740003 -2.21464 0
M  V30 6128 C 596.107 0.278591 -1.67803 0
M  V30 6129 O 597.292 0.148461 -1.93632 0
M  V30 6130 C 594.422 -0.150952 -3.46972 0
M  V30 6131 C 593.376 -1.09815 -4.13672 0
M  V30 6132 C 592.702 -0.3712 -5.3341 0
M  V30 6133 C 594.002 -2.43722 -4.61949 0
M  V30 6134 H 595.696 -1.63697 -2.50686 0
M  V30 6135 H 593.242 -0.788526 -1.20492 0
M  V30 6136 H 595.195 0.103325 -4.21273 0
M  V30 6137 H 593.919 0.781164 -3.1712 0
M  V30 6138 H 592.578 -1.33756 -3.41328 0
M  V30 6139 H 592.226 0.564792 -4.99819 0
M  V30 6140 H 591.926 -1.00267 -5.78982 0
M  V30 6141 H 593.45 -0.12503 -6.10472 0
M  V30 6142 H 594.864 -2.24034 -5.27714 0
M  V30 6143 H 593.261 -3.02582 -5.18232 0
M  V30 6144 H 594.331 -3.05082 -3.76899 0
M  V30 6145 N 595.674 1.31259 -0.872281 0
M  V30 6146 C 596.584 2.32221 -0.333255 0
M  V30 6147 C 597.6 1.6481 0.558013 0
M  V30 6148 O 598.776 1.96212 0.454175 0
M  V30 6149 C 595.841 3.43708 0.454479 0
M  V30 6150 C 594.902 4.26774 -0.465024 0
M  V30 6151 C 594.135 5.32937 0.28521 0
M  V30 6152 O 594.358 5.49968 1.513 0
M  V30 6153 O 593.292 6.00834 -0.358126 0
M  V30 6154 H 597.118 2.80252 -1.17016 0
M  V30 6155 H 594.703 1.352 -0.635724 0
M  V30 6156 H 596.585 4.11656 0.900963 0
M  V30 6157 H 595.26 2.97836 1.26789 0
M  V30 6158 H 594.167 3.61571 -0.960055 0
M  V30 6159 H 595.5 4.76217 -1.2441 0
M  V30 6160 N 597.152 0.631951 1.44375 0
M  V30 6161 C 598.084 -0.110911 2.28931 0
M  V30 6162 C 599.097 -0.808086 1.41329 0
M  V30 6163 O 600.286 -0.669396 1.65473 0
M  V30 6164 C 597.386 -1.17928 3.1772 0
M  V30 6165 C 596.559 -0.564458 4.33743 0
M  V30 6166 C 595.618 -1.5269 5.0356 0
M  V30 6167 O 594.644 -1.04372 5.59549 0
M  V30 6168 N 595.846 -2.86123 5.05088 0
M  V30 6169 H 598.611 0.614758 2.93327 0
M  V30 6170 H 596.172 0.473171 1.54831 0
M  V30 6171 H 598.164 -1.82348 3.61291 0
M  V30 6172 H 596.734 -1.80717 2.55069 0
M  V30 6173 H 595.954 0.258373 3.93352 0
M  V30 6174 H 597.242 -0.134355 5.08623 0
M  V30 6175 H 596.64 -3.27959 4.60933 0
M  V30 6176 H 595.197 -3.45901 5.52445 0
M  V30 6177 N 598.631 -1.53133 0.372548 0
M  V30 6178 C 600.042 -1.86404 -0.105155 0
M  V30 6179 C 600.393 -1.29289 -1.47576 0
M  V30 6180 O 599.518 -0.617646 -2.07398 0
M  V30 6181 C 600.113 -3.38223 -0.197588 0
M  V30 6182 C 598.672 -3.71266 -0.619556 0
M  V30 6183 C 597.819 -2.76353 0.228919 0
M  V30 6184 H 600.77 -1.47282 0.591077 0
M  V30 6185 H 600.791 -3.66577 -1.01987 0
M  V30 6186 H 600.303 -3.79763 0.800099 0
M  V30 6187 H 598.404 -3.35287 -1.62522 0
M  V30 6188 H 598.517 -4.77515 -0.389332 0
M  V30 6189 H 596.881 -2.52888 -0.303271 0
M  V30 6190 H 597.664 -3.20728 1.22428 0
M  V30 6191 N 600.109 -0.101901 -1.5727 0
M  V30 6192 C 601.057 0.872034 -2.15635 0
M  V30 6193 C 602.051 1.28742 -1.10099 0
M  V30 6194 O 603.257 1.26116 -1.28432 0
M  V30 6195 H 599.632 0.299269 -0.689886 0
M  V30 6196 H 601.603 0.355137 -2.96279 0
M  V30 6197 C 600.352 2.11886 -2.7568 0
M  V30 6198 H 599.675 1.80813 -3.56576 0
M  V30 6199 H 601.115 2.78077 -3.20077 0
M  V30 6200 C 599.574 2.89739 -1.7191 0
M  V30 6201 O 600.104 3.84522 -1.16213 0
M  V30 6202 N 598.31 2.53407 -1.42245 0
M  V30 6203 H 597.857 1.76398 -1.87727 0
M  V30 6204 H 597.815 3.05795 -0.730529 0
M  V30 6205 N 601.587 1.56661 0.17182 0
M  V30 6206 C 602.55 1.9549 1.19651 0
M  V30 6207 C 603.55 0.838501 1.37207 0
M  V30 6208 O 604.74 1.10556 1.34622 0
M  V30 6209 C 601.872 2.24927 2.56166 0
M  V30 6210 H 603.065 2.87184 0.864007 0
M  V30 6211 H 600.618 1.50711 0.41425 0
M  V30 6212 H 601.353 1.35944 2.94431 0
M  V30 6213 H 601.138 3.06301 2.4479 0
M  V30 6214 H 602.628 2.55891 3.30014 0
M  V30 6215 N 603.065 -0.440357 1.51323 0
M  V30 6216 C 604.313 -1.18769 1.63518 0
M  V30 6217 C 604.634 -1.91793 0.352201 0
M  V30 6218 O 603.904 -1.85432 -0.631811 0
M  V30 6219 H 602.484 -0.441408 0.602634 0
M  V30 6220 H 605.146 -0.505162 1.8824 0
M  V30 6221 H 604.242 -1.91892 2.46138 0
M  V30 6222 N 604.543 -1.41418 -0.695603 0
M  V30 6223 C 605.768 -1.44329 -1.48942 0
M  V30 6224 C 606.193 -0.0501579 -1.88033 0
M  V30 6225 O 605.551 0.946598 -1.54626 0
M  V30 6226 C 605.599 -2.3578 -2.72837 0
M  V30 6227 O 604.703 -1.81482 -3.70322 0
M  V30 6228 H 604.044 -0.489838 -0.44828 0
M  V30 6229 H 606.574 -1.85878 -0.855014 0
M  V30 6230 H 606.584 -2.51654 -3.21145 0
M  V30 6231 H 605.259 -3.37005 -2.43722 0
M  V30 6232 H 603.836 -1.75058 -3.29255 0
M  V30 6233 N 606.021 0.929856 -1.27246 0
M  V30 6234 C 607.246 1.71674 -1.16374 0
M  V30 6235 C 607.671 1.86064 0.276024 0
M  V30 6236 O 607.029 1.3591 1.19992 0
M  V30 6237 C 607.077 3.09526 -1.85003 0
M  V30 6238 O 606.181 3.96142 -1.14653 0
M  V30 6239 H 605.522 0.52629 -0.404863 0
M  V30 6240 H 608.052 1.16381 -1.68276 0
M  V30 6241 H 608.062 3.59852 -1.92276 0
M  V30 6242 H 606.737 2.98369 -2.89739 0
M  V30 6243 H 605.314 3.54584 -1.15433 0
M  V30 6244 N 607.499 1.09233 1.13605 0
M  V30 6245 C 608.724 0.849067 1.89224 0
M  V30 6246 C 609.149 -0.593875 1.78479 0
M  V30 6247 O 608.507 -1.41703 1.13092 0
M  V30 6248 C 608.555 1.28642 3.36873 0
M  V30 6249 O 607.659 0.44363 4.10007 0
M  V30 6250 H 607 0.30767 0.588417 0
M  V30 6251 H 609.53 1.45595 1.43748 0
M  V30 6252 H 609.54 1.27096 3.87699 0
M  V30 6253 H 608.215 2.33729 3.44011 0
M  V30 6254 H 606.792 0.523241 3.69211 0
M  V30 6255 N 608.977 -1.30795 0.87923 0
M  V30 6256 C 610.388 -1.78535 0.546093 0
M  V30 6257 C 610.739 -1.72354 -0.937467 0
M  V30 6258 O 609.864 -1.2969 -1.73233 0
M  V30 6259 C 610.459 -3.24181 0.9845 0
M  V30 6260 C 609.018 -3.69779 0.702871 0
M  V30 6261 C 608.165 -2.51377 1.17068 0
M  V30 6262 H 611.116 -1.17746 1.06403 0
M  V30 6263 H 611.137 -3.79227 0.311045 0
M  V30 6264 H 610.649 -3.28647 2.06429 0
M  V30 6265 H 608.75 -3.70806 -0.365166 0
M  V30 6266 H 608.863 -4.61507 1.28639 0
M  V30 6267 H 607.227 -2.47768 0.590172 0
M  V30 6268 H 608.01 -2.58584 2.25808 0
M  V30 6269 N 610.455 -0.639598 -1.44038 0
M  V30 6270 C 611.418 0.0506628 -2.29144 0
M  V30 6271 C 612.418 0.764001 -1.41491 0
M  V30 6272 O 613.608 0.607309 -1.63271 0
M  V30 6273 C 610.74 1.0824 -3.2326 0
M  V30 6274 H 611.933 -0.697987 -2.91664 0
M  V30 6275 H 609.486 -0.400146 -1.51091 0
M  V30 6276 H 610.221 1.86075 -2.65606 0
M  V30 6277 H 610.006 0.574725 -3.87865 0
M  V30 6278 H 611.496 1.56487 -3.87171 0
M  V30 6279 N 611.933 1.52934 -0.380664 0
M  V30 6280 C 613.173 2.03378 0.204161 0
M  V30 6281 C 613.537 1.26132 1.44758 0
M  V30 6282 O 614.738 1.66657 2.109 0
M  V30 6283 C 613.009 3.54241 0.474118 0
M  V30 6284 S 614.568 4.26529 1.03046 0
M  V30 6285 H 611.386 0.708608 0.0582719 0
M  V30 6286 H 613.988 1.88263 -0.527017 0
M  V30 6287 H 612.692 4.08055 -0.438088 0
M  V30 6288 H 612.223 3.73547 1.23396 0
M  V30 6289 H 614.238 4.38964 2.31354 0
M  V30 6290 N 613.412 0.11024 1.57214 0
M  V30 6291 C 614.359 -0.843195 2.14846 0
M  V30 6292 C 615.329 -1.26954 1.07107 0
M  V30 6293 O 616.514 -1.34861 1.34971 0
M  V30 6294 C 613.654 -2.09123 2.74521 0
M  V30 6295 C 612.767 -1.71404 3.96541 0
M  V30 6296 C 611.902 -2.91107 4.44331 0
M  V30 6297 C 610.941 -2.49586 5.58903 0
M  V30 6298 N 610.078 -3.62175 6.01477 0
M  V30 6299 H 614.918 -0.344886 2.95998 0
M  V30 6300 H 612.455 -0.15855 1.46243 0
M  V30 6301 H 614.413 -2.82234 3.07246 0
M  V30 6302 H 613.043 -2.56427 1.96074 0
M  V30 6303 H 612.095 -0.88201 3.70033 0
M  V30 6304 H 613.407 -1.36884 4.7965 0
M  V30 6305 H 612.561 -3.72454 4.78919 0
M  V30 6306 H 611.3 -3.28848 3.60153 0
M  V30 6307 H 610.305 -1.6667 5.23929 0
M  V30 6308 H 611.53 -2.12973 6.4484 0
M  V30 6309 H 609.476 -3.99605 5.20242 0
M  V30 6310 H 609.393 -3.3155 6.79419 0
M  V30 6311 H 610.661 -4.43987 6.407 0
M  V30 6312 N 614.89 -1.56749 -0.16351 0
M  V30 6313 C 615.853 -1.96121 -1.18613 0
M  V30 6314 C 616.853 -0.845765 -1.36761 0
M  V30 6315 O 618.043 -1.11268 -1.34033 0
M  V30 6316 C 615.175 -2.26282 -2.54969 0
M  V30 6317 H 616.368 -2.87639 -0.848764 0
M  V30 6318 H 613.921 -1.50928 -0.406251 0
M  V30 6319 H 614.656 -1.37504 -2.93706 0
M  V30 6320 H 614.441 -3.07595 -2.43162 0
M  V30 6321 H 615.931 -2.57638 -3.28653 0
M  V30 6322 N 616.368 0.432326 -1.51554 0
M  V30 6323 C 617.593 1.20824 -1.68571 0
M  V30 6324 C 618.018 1.84126 -0.384596 0
M  V30 6325 O 617.376 1.69025 0.655751 0
M  V30 6326 C 617.424 2.26429 -2.80646 0
M  V30 6327 O 616.528 3.32032 -2.44598 0
M  V30 6328 H 615.869 0.353765 -0.561913 0
M  V30 6329 H 618.399 0.509916 -1.98144 0
M  V30 6330 H 618.409 2.71133 -3.04878 0
M  V30 6331 H 617.084 1.79733 -3.75058 0
M  V30 6332 H 615.661 2.92769 -2.30956 0
M  V30 6333 N 617.846 1.41785 0.688094 0
M  V30 6334 C 619.071 1.45117 1.48175 0
M  V30 6335 C 619.496 0.060129 1.88004 0
M  V30 6336 O 618.854 -0.938385 1.55126 0
M  V30 6337 C 618.902 2.37224 2.71583 0
M  V30 6338 O 618.006 1.83443 3.69354 0
M  V30 6339 H 617.347 0.492208 0.445676 0
M  V30 6340 H 619.877 1.86329 0.845145 0
M  V30 6341 H 619.887 2.53353 3.19806 0
M  V30 6342 H 618.562 3.38293 2.41931 0
M  V30 6343 H 617.139 1.76802 3.28322 0
M  V30 6344 N 619.324 -0.923095 1.27737 0
M  V30 6345 C 620.572 -1.66797 1.14119 0
M  V30 6346 C 620.893 -1.92479 -0.312541 0
M  V30 6347 O 620.163 -1.53432 -1.218 0
M  V30 6348 H 618.743 -0.618196 0.419336 0
M  V30 6349 H 621.405 -1.10815 1.60331 0
M  V30 6350 H 620.501 -2.63424 1.67374 0
M  V30 6351 N 620.802 -1.09834 -1.13024 0
M  V30 6352 C 621.732 -0.763451 -2.20666 0
M  V30 6353 C 622.713 0.260778 -1.68089 0
M  V30 6354 O 623.898 0.127915 -1.93778 0
M  V30 6355 C 621.028 -0.187744 -3.46792 0
M  V30 6356 C 619.982 -1.14196 -4.12484 0
M  V30 6357 C 619.308 -0.427755 -5.32986 0
M  V30 6358 C 620.608 -2.48607 -4.59338 0
M  V30 6359 H 622.302 -1.66347 -2.48936 0
M  V30 6360 H 619.848 -0.801261 -1.19649 0
M  V30 6361 H 621.801 0.0586375 -4.21359 0
M  V30 6362 H 620.525 0.747485 -3.17931 0
M  V30 6363 H 619.184 -1.37369 -3.3989 0
M  V30 6364 H 618.832 0.511747 -5.0039 0
M  V30 6365 H 618.532 -1.06403 -5.77886 0
M  V30 6366 H 620.056 -0.189772 -6.10305 0
M  V30 6367 H 621.47 -2.29618 -5.25308 0
M  V30 6368 H 619.867 -3.08062 -5.14993 0
M  V30 6369 H 620.937 -3.09062 -3.73642 0
M  V30 6370 N 622.28 1.30327 -0.886154 0
M  V30 6371 C 623.19 2.31854 -0.357866 0
M  V30 6372 C 624.206 1.65392 0.540502 0
M  V30 6373 O 625.382 1.96683 0.433339 0
M  V30 6374 C 622.447 3.44171 0.417999 0
M  V30 6375 C 621.508 4.26257 -0.510263 0
M  V30 6376 C 620.741 5.3321 0.228669 0
M  V30 6377 O 620.964 5.51542 1.45458 0
M  V30 6378 O 619.898 6.0042 -0.421832 0
M  V30 6379 H 623.724 2.78995 -1.19982 0
M  V30 6380 H 621.309 1.34518 -0.650028 0
M  V30 6381 H 623.191 4.12588 0.857251 0
M  V30 6382 H 621.866 2.99164 1.23623 0
M  V30 6383 H 620.773 3.60533 -0.99835 0
M  V30 6384 H 622.106 4.74871 -1.29454 0
M  V30 6385 N 623.758 0.647228 1.43697 0
M  V30 6386 C 624.721 -0.0385101 2.29168 0
M  V30 6387 C 625.721 -0.756487 1.41894 0
M  V30 6388 O 626.911 -0.598641 1.63591 0
M  V30 6389 C 624.043 -1.06524 3.23829 0
M  V30 6390 H 625.236 0.713445 2.9129 0
M  V30 6391 H 622.789 0.408153 1.50877 0
M  V30 6392 H 623.524 -1.84664 2.66589 0
M  V30 6393 H 623.309 -0.554147 3.88164 0
M  V30 6394 H 624.799 -1.54432 3.87996 0
M  V30 6395 N 625.236 -1.5273 0.388769 0
M  V30 6396 C 626.184 -2.27975 -0.461527 0
M  V30 6397 C 627.178 -1.31854 -1.06352 0
M  V30 6398 O 628.384 -1.49394 -1.00406 0
M  V30 6399 H 624.759 -0.733088 -0.16759 0
M  V30 6400 H 626.73 -2.97765 0.194579 0
M  V30 6401 C 625.479 -3.09881 -1.577 0
M  V30 6402 H 624.802 -3.83701 -1.12309 0
M  V30 6403 H 626.242 -3.6567 -2.14619 0
M  V30 6404 C 624.701 -2.22159 -2.53272 0
M  V30 6405 O 625.231 -1.84802 -3.56667 0
M  V30 6406 N 623.437 -1.8633 -2.23001 0
M  V30 6407 H 622.984 -2.16909 -1.38954 0
M  V30 6408 H 622.942 -1.27927 -2.87197 0
M  V30 6409 N 626.714 -0.118576 -1.57153 0
M  V30 6410 C 628.125 0.40687 -1.82213 0
M  V30 6411 C 628.476 1.66636 -1.03571 0
M  V30 6412 O 627.601 2.14682 -0.272171 0
M  V30 6413 C 628.196 0.744949 -3.30509 0
M  V30 6414 C 626.755 1.21503 -3.5625 0
M  V30 6415 C 625.902 0.223511 -2.76398 0
M  V30 6416 H 628.853 -0.343712 -1.54933 0
M  V30 6417 H 628.874 1.6024 -3.45114 0
M  V30 6418 H 628.386 -0.171911 -3.87719 0
M  V30 6419 H 626.487 2.1488 -3.04396 0
M  V30 6420 H 626.6 1.16065 -4.64829 0
M  V30 6421 H 624.964 0.71046 -2.44591 0
M  V30 6422 H 625.747 -0.686439 -3.36367 0
M  V30 6423 N 628.193 1.56834 0.155195 0
M  V30 6424 C 629.441 1.82536 0.867462 0
M  V30 6425 C 629.762 0.698168 1.82073 0
M  V30 6426 O 629.032 -0.280807 1.93877 0
M  V30 6427 H 627.612 0.673401 0.323327 0
M  V30 6428 H 630.274 1.94313 0.151156 0
M  V30 6429 H 629.37 2.77171 1.43466 0
M  V30 6430 N 629.671 -0.424282 1.51781 0
M  V30 6431 C 630.581 -1.54087 1.76902 0
M  V30 6432 C 631.597 -1.61249 0.653826 0
M  V30 6433 O 632.773 -1.78247 0.937552 0
M  V30 6434 C 629.838 -2.8996 1.90063 0
M  V30 6435 C 628.899 -2.92809 3.13945 0
M  V30 6436 C 628.132 -4.22201 3.26469 0
M  V30 6437 O 628.355 -5.15286 2.44616 0
M  V30 6438 O 627.289 -4.31599 4.1953 0
M  V30 6439 H 631.115 -1.358 2.71647 0
M  V30 6440 H 628.7 -0.608618 1.36441 0
M  V30 6441 H 630.582 -3.70575 2.0063 0
M  V30 6442 H 629.257 -3.08347 0.985067 0
M  V30 6443 H 628.164 -2.11102 3.08847 0
M  V30 6444 H 629.497 -2.79369 4.05233 0
M  V30 6445 N 631.149 -1.42148 -0.680565 0
M  V30 6446 C 632.096 -1.45175 -1.79424 0
M  V30 6447 C 633.066 -0.304352 -1.63288 0
M  V30 6448 O 634.251 -0.507591 -1.83924 0
M  V30 6449 C 631.391 -1.35429 -3.17416 0
M  V30 6450 C 630.504 -2.60158 -3.4488 0
M  V30 6451 C 629.639 -2.42596 -4.72568 0
M  V30 6452 C 628.678 -3.62727 -4.93047 0
M  V30 6453 N 627.815 -3.44143 -6.11973 0
M  V30 6454 H 632.655 -2.40349 -1.76172 0
M  V30 6455 H 630.192 -1.19334 -0.860107 0
M  V30 6456 H 632.15 -1.27777 -3.97151 0
M  V30 6457 H 630.78 -0.438536 -3.19807 0
M  V30 6458 H 629.832 -2.78199 -2.5944 0
M  V30 6459 H 631.144 -3.49473 -3.55908 0
M  V30 6460 H 630.298 -2.32497 -5.60384 0
M  V30 6461 H 629.037 -1.50761 -4.63813 0
M  V30 6462 H 628.042 -3.73264 -4.03676 0
M  V30 6463 H 629.267 -4.55534 -5.03652 0
M  V30 6464 H 627.213 -2.5502 -6.04401 0
M  V30 6465 H 627.13 -4.27041 -6.23836 0
M  V30 6466 H 628.398 -3.37845 -7.02482 0
M  V30 6467 N 632.627 0.916307 -1.28225 0
M  V30 6468 C 634.043 1.19425 -1.05876 0
M  V30 6469 C 634.243 2.005 0.2005 0
M  V30 6470 O 633.299 2.35806 0.902873 0
M  V30 6471 C 634.612 1.93133 -2.30478 0
M  V30 6472 C 636.16 2.06026 -2.35632 0
M  V30 6473 C 636.635 2.83141 -3.59994 0
M  V30 6474 N 638.126 2.90704 -3.60618 0
M  V30 6475 C 638.861 3.50865 -4.53521 0
M  V30 6476 N 638.357 4.12327 -5.56739 0
M  V30 6477 N 640.15 3.48379 -4.41122 0
M  V30 6478 H 632.301 0.37496 -2.09064 0
M  V30 6479 H 634.564 0.228531 -0.920042 0
M  V30 6480 H 634.27 1.40985 -3.22205 0
M  V30 6481 H 634.144 2.93696 -2.36691 0
M  V30 6482 H 636.531 2.57355 -1.44404 0
M  V30 6483 H 636.612 1.04647 -2.33415 0
M  V30 6484 H 636.256 2.32492 -4.51564 0
M  V30 6485 H 636.186 3.84829 -3.59464 0
M  V30 6486 H 638.677 2.47034 -2.85977 0
M  V30 6487 H 638.99 4.56205 -6.23776 0
M  V30 6488 H 637.335 4.10839 -5.60568 0
M  V30 6489 H 640.526 2.99572 -3.59686 0
M  V30 6490 H 640.699 3.94974 -5.13712 0
M  V30 6491 N 634.105 1.10431 1.1244 0
M  V30 6492 C 635.052 0.753103 2.18167 0
M  V30 6493 C 636.022 -0.270549 1.63882 0
M  V30 6494 O 637.207 -0.149837 1.90211 0
M  V30 6495 C 634.347 0.191046 3.44571 0
M  V30 6496 C 633.46 1.26999 4.12911 0
M  V30 6497 C 632.595 0.669586 5.26963 0
M  V30 6498 C 631.634 1.72912 5.87169 0
M  V30 6499 N 630.771 1.14898 6.92635 0
M  V30 6500 H 635.611 1.65892 2.47556 0
M  V30 6501 H 633.148 0.828631 1.21541 0
M  V30 6502 H 635.106 -0.152712 4.1692 0
M  V30 6503 H 633.736 -0.677997 3.15599 0
M  V30 6504 H 632.788 1.73087 3.3874 0
M  V30 6505 H 634.1 2.07204 4.53727 0
M  V30 6506 H 633.254 0.275274 6.06075 0
M  V30 6507 H 631.993 -0.163895 4.87425 0
M  V30 6508 H 630.998 2.13286 5.06744 0
M  V30 6509 H 632.223 2.56544 6.28778 0
M  V30 6510 H 630.169 0.336956 6.55134 0
M  V30 6511 H 630.086 1.88786 7.32049 0
M  V30 6512 H 631.354 0.78121 7.75576 0
M  V30 6513 N 635.583 -1.29855 0.893053 0
M  V30 6514 C 636.516 -2.26079 0.3104 0
M  V30 6515 C 637.494 -1.52145 -0.573644 0
M  V30 6516 O 638.678 -1.8113 -0.521937 0
M  V30 6517 C 635.805 -3.34069 -0.558179 0
M  V30 6518 C 634.851 -4.25721 0.257638 0
M  V30 6519 S 635.684 -5.09409 1.65114 0
M  V30 6520 C 636.84 -6.20903 0.789307 0
M  V30 6521 H 637.073 -2.75151 1.12602 0
M  V30 6522 H 634.606 -1.37975 0.692978 0
M  V30 6523 H 636.564 -3.9675 -1.05355 0
M  V30 6524 H 635.225 -2.83705 -1.34797 0
M  V30 6525 H 634.418 -5.02366 -0.405562 0
M  V30 6526 H 634.02 -3.67656 0.685917 0
M  V30 6527 H 636.312 -6.77499 0.00978451 0
M  V30 6528 H 637.255 -6.91426 1.52762 0
M  V30 6529 H 637.663 -5.63435 0.346634 0
M  V30 6530 N 637.061 -0.65484 -1.43351 0
M  V30 6531 C 638.289 -0.176685 -2.06144 0
M  V30 6532 C 638.704 1.15831 -1.49093 0
M  V30 6533 O 638.061 1.71542 -0.622868 0
M  V30 6534 C 638.112 -0.0813326 -3.61408 0
M  V30 6535 O 637.833 -1.36355 -4.1634 0
M  V30 6536 C 639.334 0.422706 -4.4128 0
M  V30 6537 H 636.554 -0.0906429 -0.66485 0
M  V30 6538 H 639.098 -0.895945 -1.83829 0
M  V30 6539 H 637.253 0.588496 -3.82904 0
M  V30 6540 H 637.667 -1.22381 -5.10023 0
M  V30 6541 H 639.141 0.438375 -5.50257 0
M  V30 6542 H 639.618 1.45432 -4.14423 0
M  V30 6543 H 640.224 -0.214687 -4.24758 0
M  V30 6544 N 638.539 1.52521 -0.396863 0
M  V30 6545 C 639.816 1.94112 0.240842 0
M  V30 6546 C 640.196 1.33288 1.637 0
M  V30 6547 O 639.544 0.503901 2.22875 0
M  V30 6548 C 639.754 3.48033 0.259567 0
M  V30 6549 C 641.102 4.21822 0.484866 0
M  V30 6550 O 642.126 3.54579 0.339453 0
M  V30 6551 O 640.985 5.41042 0.770412 0
M  V30 6552 H 638.079 0.812973 0.151671 0
M  V30 6553 H 640.625 1.63572 -0.451918 0
M  V30 6554 H 639.397 3.84655 -0.718078 0
M  V30 6555 H 639.02 3.84899 0.996937 0
M  V30 6556 N 640.017 0.126909 1.57088 0
M  V30 6557 C 641.242 -0.53997 2.00248 0
M  V30 6558 C 641.667 -1.58927 1.00618 0
M  V30 6559 O 641.025 -1.81288 -0.0210131 0
M  V30 6560 C 641.073 -1.13565 3.4225 0
M  V30 6561 O 640.177 -2.25103 3.45547 0
M  V30 6562 H 639.518 -0.13412 0.650314 0
M  V30 6563 H 642.048 0.217718 2.03438 0
M  V30 6564 H 642.058 -1.46925 3.80627 0
M  V30 6565 H 640.733 -0.367122 4.14277 0
M  V30 6566 H 639.31 -1.93123 3.18995 0
M  V30 6567 N 641.495 -1.56914 -0.146875 0
M  V30 6568 C 642.445 -1.94693 -1.18653 0
M  V30 6569 C 643.429 -0.81821 -1.38543 0
M  V30 6570 O 644.621 -1.08167 -1.40103 0
M  V30 6571 C 641.75 -2.33117 -2.52014 0
M  V30 6572 C 640.836 -3.5256 -2.35717 0
M  V30 6573 N 641.227 -4.69091 -1.89175 0
M  V30 6574 C 639.525 -3.57647 -2.66467 0
M  V30 6575 C 640.226 -5.51187 -1.85924 0
M  V30 6576 N 639.202 -4.92899 -2.29242 0
M  V30 6577 H 643.004 -2.82264 -0.81879 0
M  V30 6578 H 640.518 -1.58474 -0.354929 0
M  V30 6579 H 642.515 -2.58387 -3.27172 0
M  V30 6580 H 641.175 -1.46898 -2.89571 0
M  V30 6581 H 642.186 -4.92844 -1.59139 0
M  V30 6582 H 638.863 -2.81967 -3.07898 0
M  V30 6583 H 640.253 -6.54613 -1.51431 0
M  V30 6584 N 642.974 0.416227 -1.52004 0
M  V30 6585 C 644.22 1.16555 -1.6596 0
M  V30 6586 C 644.553 1.90347 -0.384906 0
M  V30 6587 O 643.828 1.84474 0.616405 0
M  V30 6588 C 644.111 2.1657 -2.87696 0
M  V30 6589 C 643.964 1.46722 -4.25197 0
M  V30 6590 C 645.283 3.17321 -3.04951 0
M  V30 6591 H 642.402 0.422369 -0.603965 0
M  V30 6592 H 645.044 0.452141 -1.84542 0
M  V30 6593 H 643.194 2.77411 -2.71985 0
M  V30 6594 H 644.866 0.89056 -4.52622 0
M  V30 6595 H 643.109 0.769263 -4.26925 0
M  V30 6596 H 643.78 2.19665 -5.0641 0
M  V30 6597 H 646.256 2.66552 -3.19514 0
M  V30 6598 H 645.132 3.84573 -3.91656 0
M  V30 6599 H 645.393 3.84643 -2.17951 0
M  V30 6600 N 644.452 1.42507 0.673017 0
M  V30 6601 C 645.382 1.48916 1.79851 0
M  V30 6602 C 646.363 0.345566 1.66553 0
M  V30 6603 O 647.548 0.560116 1.85947 0
M  V30 6604 C 644.678 1.39258 3.18158 0
M  V30 6605 C 643.632 2.51662 3.46194 0
M  V30 6606 C 642.958 2.27062 4.84094 0
M  V30 6607 C 644.258 3.93968 3.42909 0
M  V30 6608 H 645.952 2.43114 1.74745 0
M  V30 6609 H 643.498 1.17013 0.839288 0
M  V30 6610 H 645.451 1.42349 3.96629 0
M  V30 6611 H 644.175 0.415542 3.23946 0
M  V30 6612 H 642.834 2.47891 2.70084 0
M  V30 6613 H 642.482 1.27648 4.86534 0
M  V30 6614 H 642.182 3.02398 5.03815 0
M  V30 6615 H 643.706 2.31905 5.64847 0
M  V30 6616 H 645.12 3.99332 4.11347 0
M  V30 6617 H 643.517 4.6917 3.74165 0
M  V30 6618 H 644.587 4.20512 2.41449 0
M  V30 6619 N 645.93 -0.909495 1.28709 0
M  V30 6620 C 646.84 -2.04558 1.14861 0
M  V30 6621 C 647.856 -1.73842 0.0741621 0
M  V30 6622 O 649.032 -1.99383 0.2843 0
M  V30 6623 C 646.097 -3.36957 0.816148 0
M  V30 6624 C 645.158 -3.81255 1.97341 0
M  V30 6625 C 644.391 -5.07335 1.65671 0
M  V30 6626 O 644.614 -5.67514 0.573053 0
M  V30 6627 O 643.548 -5.47449 2.50167 0
M  V30 6628 H 647.374 -2.19161 2.10243 0
M  V30 6629 H 644.959 -1.03159 1.08068 0
M  V30 6630 H 646.841 -4.16436 0.644873 0
M  V30 6631 H 645.516 -3.2352 -0.107983 0
M  V30 6632 H 644.423 -3.02584 2.19986 0
M  V30 6633 H 645.756 -3.99261 2.87839 0
M  V30 6634 N 647.408 -1.11026 -1.11852 0
M  V30 6635 C 648.318 -0.777252 -2.2135 0
M  V30 6636 C 649.334 0.227821 -1.72502 0
M  V30 6637 O 650.51 0.0650587 -2.01295 0
M  V30 6638 C 647.575 -0.220668 -3.45997 0
M  V30 6639 C 646.636 -1.2838 -4.09655 0
M  V30 6640 C 645.869 -0.753678 -5.28352 0
M  V30 6641 O 646.092 0.417779 -5.68868 0
M  V30 6642 O 645.026 -1.51647 -5.82483 0
M  V30 6643 H 648.852 -1.69141 -2.5224 0
M  V30 6644 H 646.437 -0.885836 -1.20305 0
M  V30 6645 H 648.319 0.0855756 -4.21313 0
M  V30 6646 H 646.994 0.666262 -3.16769 0
M  V30 6647 H 645.901 -1.64299 -3.3609 0
M  V30 6648 H 647.234 -2.14396 -4.43052 0
M  V30 6649 N 648.886 1.2938 -0.899927 0
M  V30 6650 C 649.849 2.25983 -0.382677 0
M  V30 6651 C 650.849 1.53366 0.483259 0
M  V30 6652 O 652.039 1.71798 0.28828 0
M  V30 6653 C 649.171 3.37878 0.452915 0
M  V30 6654 H 650.364 2.73252 -1.23586 0
M  V30 6655 H 647.917 1.40825 -0.678088 0
M  V30 6656 H 648.652 2.95949 1.32608 0
M  V30 6657 H 648.437 3.91742 -0.167562 0
M  V30 6658 H 649.927 4.09746 0.806107 0
M  V30 6659 N 650.364 0.662433 1.43002 0
M  V30 6660 C 651.311 -0.0235324 2.30788 0
M  V30 6661 C 652.281 -0.805342 1.4527 0
M  V30 6662 O 653.466 -0.78009 1.74124 0
M  V30 6663 C 650.606 -0.977545 3.30965 0
M  V30 6664 C 649.719 -0.190865 4.31578 0
M  V30 6665 C 648.854 -1.13951 5.18834 0
M  V30 6666 C 647.893 -0.343796 6.11134 0
M  V30 6667 N 647.03 -1.2445 6.90982 0
M  V30 6668 H 651.87 0.730921 2.88897 0
M  V30 6669 H 649.407 0.372197 1.42313 0
M  V30 6670 H 651.365 -1.54437 3.87563 0
M  V30 6671 H 649.995 -1.69877 2.74484 0
M  V30 6672 H 649.047 0.492388 3.772 0
M  V30 6673 H 650.359 0.427464 4.96965 0
M  V30 6674 H 649.513 -1.77666 5.80103 0
M  V30 6675 H 648.252 -1.79174 4.53595 0
M  V30 6676 H 647.257 0.30665 5.48944 0
M  V30 6677 H 648.482 0.304161 6.78419 0
M  V30 6678 H 646.428 -1.88336 6.28383 0
M  V30 6679 H 646.345 -0.680959 7.52927 0
M  V30 6680 H 647.613 -1.86952 7.56749 0
M  V30 6681 N 651.842 -1.52309 0.404946 0
M  V30 6682 C 652.789 -2.26898 -0.422597 0
M  V30 6683 C 653.759 -1.2914 -1.04461 0
M  V30 6684 O 654.944 -1.57996 -1.06967 0
M  V30 6685 C 652.084 -3.09053 -1.53559 0
M  V30 6686 C 651.197 -4.21762 -0.934908 0
M  V30 6687 C 650.332 -4.91283 -2.02025 0
M  V30 6688 C 649.371 -5.95962 -1.39628 0
M  V30 6689 N 648.508 -6.59017 -2.42159 0
M  V30 6690 H 653.348 -2.97188 0.219903 0
M  V30 6691 H 650.885 -1.46607 0.120282 0
M  V30 6692 H 652.843 -3.54987 -2.19181 0
M  V30 6693 H 651.473 -2.40942 -2.14818 0
M  V30 6694 H 650.525 -3.80029 -0.167854 0
M  V30 6695 H 651.837 -4.96864 -0.439073 0
M  V30 6696 H 650.991 -5.40601 -2.75383 0
M  V30 6697 H 649.73 -4.15741 -2.54973 0
M  V30 6698 H 648.735 -5.45968 -0.648023 0
M  V30 6699 H 649.96 -6.73445 -0.874553 0
M  V30 6700 H 647.906 -5.86306 -2.94247 0
M  V30 6701 H 647.823 -7.2978 -1.97376 0
M  V30 6702 H 649.091 -7.12974 -3.15099 0
M  V30 6703 N 653.32 -0.135238 -1.57019 0
M  V30 6704 C 654.731 0.387521 -1.82634 0
M  V30 6705 C 655.082 1.65528 -1.05332 0
M  V30 6706 O 654.207 2.14381 -0.294926 0
M  V30 6707 C 654.802 0.709852 -3.3128 0
M  V30 6708 C 653.361 1.17718 -3.57518 0
M  V30 6709 C 652.508 0.194183 -2.76619 0
M  V30 6710 H 655.459 -0.360126 -1.5456 0
M  V30 6711 H 655.48 1.5657 -3.46794 0
M  V30 6712 H 654.992 -0.213024 -3.87515 0
M  V30 6713 H 653.093 2.1164 -3.06658 0
M  V30 6714 H 653.206 1.11128 -4.66034 0
M  V30 6715 H 651.57 0.684478 -2.4533 0
M  V30 6716 H 652.353 -0.722076 -3.3562 0
M  V30 6717 N 654.798 1.5699 0.138552 0
M  V30 6718 C 656.214 1.51844 0.491472 0
M  V30 6719 C 656.414 0.845063 1.82923 0
M  V30 6720 O 655.47 0.419143 2.48997 0
M  V30 6721 C 656.783 2.96615 0.493987 0
M  V30 6722 C 658.331 3.076 0.578913 0
M  V30 6723 C 658.806 4.53893 0.612009 0
M  V30 6724 N 660.297 4.5827 0.673997 0
M  V30 6725 C 661.032 5.68852 0.720729 0
M  V30 6726 N 660.528 6.88982 0.726292 0
M  V30 6727 N 662.321 5.56908 0.762253 0
M  V30 6728 H 654.472 1.99158 -0.738228 0
M  V30 6729 H 656.735 0.908693 -0.270149 0
M  V30 6730 H 656.441 3.49172 -0.420933 0
M  V30 6731 H 656.315 3.53017 1.32887 0
M  V30 6732 H 658.702 2.55057 1.48425 0
M  V30 6733 H 658.783 2.54227 -0.283286 0
M  V30 6734 H 658.427 5.07076 -0.289208 0
M  V30 6735 H 658.357 5.05057 1.49082 0
M  V30 6736 H 660.848 3.71793 0.676654 0
M  V30 6737 H 661.161 7.69014 0.764032 0
M  V30 6738 H 659.506 6.91526 0.69403 0
M  V30 6739 H 662.697 4.61969 0.755135 0
M  V30 6740 H 662.87 6.43102 0.795207 0
M  V30 6741 N 656.276 -0.40816 1.52223 0
M  V30 6742 C 657.522 -1.15673 1.66576 0
M  V30 6743 C 657.855 -1.90141 0.394996 0
M  V30 6744 O 657.13 -1.84798 -0.606613 0
M  V30 6745 C 657.413 -2.15042 2.88841 0
M  V30 6746 C 657.266 -1.44465 4.25969 0
M  V30 6747 C 658.585 -3.15699 3.0663 0
M  V30 6748 H 655.704 -0.41916 0.606196 0
M  V30 6749 H 658.346 -0.442348 1.84779 0
M  V30 6750 H 656.496 -2.75964 2.73452 0
M  V30 6751 H 658.168 -0.866544 4.53088 0
M  V30 6752 H 656.411 -0.746612 4.27327 0
M  V30 6753 H 657.082 -2.16976 5.07568 0
M  V30 6754 H 659.558 -2.64854 3.20923 0
M  V30 6755 H 658.434 -3.82491 3.9369 0
M  V30 6756 H 658.695 -3.83481 2.19987 0
M  V30 6757 N 657.755 -1.42862 -0.66545 0
M  V30 6758 C 658.688 -1.41509 -1.79026 0
M  V30 6759 C 659.666 -0.278106 -1.60204 0
M  V30 6760 O 660.85 -0.469792 -1.82552 0
M  V30 6761 C 657.977 -1.21494 -3.1616 0
M  V30 6762 C 657.023 -2.38308 -3.53711 0
M  V30 6763 S 657.856 -4.00852 -3.55075 0
M  V30 6764 C 659.012 -3.83197 -4.94885 0
M  V30 6765 H 659.245 -2.36691 -1.79902 0
M  V30 6766 H 656.778 -1.29746 -0.836977 0
M  V30 6767 H 658.736 -1.10633 -3.95311 0
M  V30 6768 H 657.397 -0.27881 -3.1286 0
M  V30 6769 H 656.59 -2.20076 -4.53412 0
M  V30 6770 H 656.192 -2.45732 -2.81943 0
M  V30 6771 H 658.484 -3.44765 -5.83218 0
M  V30 6772 H 659.427 -4.82607 -5.18166 0
M  V30 6773 H 659.835 -3.15884 -4.67843 0
M  V30 6774 N 659.233 0.902656 -1.29189 0
M  V30 6775 C 660.481 1.6496 -1.16758 0
M  V30 6776 C 660.802 1.92952 0.28188 0
M  V30 6777 O 660.072 1.55351 1.19344 0
M  V30 6778 H 658.652 0.611447 -0.429118 0
M  V30 6779 H 661.314 1.0825 -1.62074 0
M  V30 6780 H 660.41 2.60728 -1.71544 0
M  V30 6781 N 660.711 1.11618 1.11262 0
M  V30 6782 C 661.988 0.777876 1.79467 0
M  V30 6783 C 662.368 -0.733774 1.97937 0
M  V30 6784 O 661.716 -1.66443 1.56554 0
M  V30 6785 C 661.926 1.5431 3.13032 0
M  V30 6786 C 663.274 1.72357 3.88044 0
M  V30 6787 O 664.298 1.5075 3.22727 0
M  V30 6788 O 663.157 2.08276 5.05256 0
M  V30 6789 H 660.251 0.282018 0.777428 0
M  V30 6790 H 662.797 1.21971 1.17988 0
M  V30 6791 H 661.569 2.57132 2.94956 0
M  V30 6792 H 661.192 1.09495 3.82226 0
M  V30 6793 N 662.189 -1.289 0.906776 0
M  V30 6794 C 663.438 -1.9455 0.532262 0
M  V30 6795 C 663.751 -1.72219 -0.927353 0
M  V30 6796 O 664.957 -2.32033 -1.40971 0
M  V30 6797 C 663.413 -3.48438 0.901041 0
M  V30 6798 C 663.021 -3.79558 2.37991 0
M  V30 6799 C 664.765 -4.20284 0.596777 0
M  V30 6800 C 662.672 -5.26723 2.68918 0
M  V30 6801 H 661.602 -0.728259 0.195333 0
M  V30 6802 H 664.253 -1.46519 1.10474 0
M  V30 6803 H 662.635 -3.95162 0.257419 0
M  V30 6804 H 663.809 -3.43668 3.06967 0
M  V30 6805 H 662.124 -3.20868 2.65391 0
M  V30 6806 H 664.721 -5.28612 0.8046 0
M  V30 6807 H 665.064 -4.13694 -0.465072 0
M  V30 6808 H 665.597 -3.79315 1.19855 0
M  V30 6809 H 662.336 -5.38384 3.73928 0
M  V30 6810 H 661.856 -5.63836 2.04571 0
M  V30 6811 H 663.535 -5.94391 2.55555 0
M  V30 6812 N 663.667 -0.670007 -1.42649 0
M  V30 6813 C 665.078 -0.268118 -1.84765 0
M  V30 6814 C 665.429 1.18877 -1.56086 0
M  V30 6815 O 664.554 1.90947 -1.01825 0
M  V30 6816 C 665.149 -0.47984 -3.35385 0
M  V30 6817 C 663.708 -0.132116 -3.76168 0
M  V30 6818 C 662.855 -0.774611 -2.66261 0
M  V30 6819 H 665.806 -0.872509 -1.32563 0
M  V30 6820 H 665.827 0.269522 -3.79544 0
M  V30 6821 H 665.339 -1.54026 -3.56227 0
M  V30 6822 H 663.44 0.92505 -3.60934 0
M  V30 6823 H 663.553 -0.569294 -4.75706 0
M  V30 6824 H 661.917 -0.206353 -2.53863 0
M  V30 6825 H 662.7 -1.83839 -2.89928 0
M  V30 6826 N 665.145 1.52092 -0.413018 0
M  V30 6827 C 666.078 2.23613 0.455234 0
M  V30 6828 C 667.056 1.2459 1.04481 0
M  V30 6829 O 668.24 1.53653 1.09193 0
M  V30 6830 C 665.367 2.96775 1.63224 0
M  V30 6831 C 664.413 4.10261 1.16568 0
M  V30 6832 S 665.246 5.35348 0.127633 0
M  V30 6833 C 666.402 6.1204 1.30987 0
M  V30 6834 H 666.635 2.96911 -0.152042 0
M  V30 6835 H 664.168 1.53134 -0.197343 0
M  V30 6836 H 666.126 3.39532 2.30713 0
M  V30 6837 H 664.787 2.23113 2.21087 0
M  V30 6838 H 663.98 4.6064 2.04515 0
M  V30 6839 H 663.582 3.6964 0.569386 0
M  V30 6840 H 665.874 6.39651 2.23276 0
M  V30 6841 H 666.817 7.03022 0.846533 0
M  V30 6842 H 667.225 5.43161 1.53743 0
M  V30 6843 N 666.623 0.143563 1.56945 0
M  V30 6844 C 667.533 -0.810562 2.20152 0
M  V30 6845 C 668.549 -1.27431 1.1848 0
M  V30 6846 O 669.725 -1.33221 1.51044 0
M  V30 6847 C 666.79 -2.03353 2.80799 0
M  V30 6848 C 665.851 -1.61936 3.97587 0
M  V30 6849 C 665.084 -2.78403 4.55332 0
M  V30 6850 O 665.307 -3.94521 4.11958 0
M  V30 6851 O 664.241 -2.54073 5.45647 0
M  V30 6852 H 668.067 -0.30253 3.02189 0
M  V30 6853 H 665.652 -0.0832925 1.49168 0
M  V30 6854 H 667.534 -2.74932 3.19359 0
M  V30 6855 H 666.209 -2.53116 2.01777 0
M  V30 6856 H 665.116 -0.873904 3.6375 0
M  V30 6857 H 666.449 -1.16892 4.78118 0
M  V30 6858 N 668.101 -1.57061 -0.130224 0
M  V30 6859 C 669.031 -2.02552 -1.16168 0
M  V30 6860 C 670.012 -0.907971 -1.4384 0
M  V30 6861 O 671.197 -1.17693 -1.54473 0
M  V30 6862 C 668.327 -2.42035 -2.49071 0
M  V30 6863 C 667.281 -3.5713 -2.35886 0
M  V30 6864 C 666.607 -3.82478 -3.7365 0
M  V30 6865 C 667.907 -4.89236 -1.8288 0
M  V30 6866 H 669.601 -2.8897 -0.783359 0
M  V30 6867 H 667.147 -1.39021 -0.375376 0
M  V30 6868 H 669.1 -2.72462 -3.21469 0
M  V30 6869 H 667.824 -1.52573 -2.88771 0
M  V30 6870 H 666.483 -3.26895 -1.65938 0
M  V30 6871 H 666.131 -2.9024 -4.10816 0
M  V30 6872 H 665.831 -4.59944 -3.65685 0
M  V30 6873 H 667.355 -4.15347 -4.47571 0
M  V30 6874 H 668.769 -5.18272 -2.45085 0
M  V30 6875 H 667.166 -5.70624 -1.85763 0
M  V30 6876 H 668.236 -4.78494 -0.785571 0
M  V30 6877 N 669.579 0.400081 -1.52437 0
M  V30 6878 C 670.828 1.14332 -1.66166 0
M  V30 6879 C 671.141 1.91419 -0.402253 0
M  V30 6880 O 672.347 2.6824 -0.419487 0
M  V30 6881 C 670.803 2.08137 -2.9361 0
M  V30 6882 C 670.411 1.36524 -4.26691 0
M  V30 6883 C 672.155 2.82664 -3.16703 0
M  V30 6884 C 670.062 2.29031 -5.45251 0
M  V30 6885 H 668.992 0.430499 -0.61902 0
M  V30 6886 H 671.643 0.407017 -1.78929 0
M  V30 6887 H 670.025 2.85358 -2.74567 0
M  V30 6888 H 671.199 0.646061 -4.56249 0
M  V30 6889 H 669.514 0.74002 -4.09771 0
M  V30 6890 H 672.111 3.52037 -4.0246 0
M  V30 6891 H 672.454 3.46122 -2.31312 0
M  V30 6892 H 672.987 2.12541 -3.36261 0
M  V30 6893 H 669.726 1.70206 -6.33017 0
M  V30 6894 H 669.246 2.98896 -5.2002 0
M  V30 6895 H 670.925 2.89359 -5.78689 0
M  V30 6896 N 671.057 1.43213 0.657864 0
M  V30 6897 C 672.005 1.48271 1.79216 0
M  V30 6898 C 672.999 0.35675 1.65601 0
M  V30 6899 O 674.205 0.530535 1.72004 0
M  V30 6900 H 670.58 0.464729 0.591211 0
M  V30 6901 H 672.551 2.43792 1.7207 0
M  V30 6902 C 671.3 1.41837 3.17455 0
M  V30 6903 H 670.623 2.27781 3.28567 0
M  V30 6904 H 672.063 1.49438 3.96793 0
M  V30 6905 C 670.522 0.135347 3.36628 0
M  V30 6906 O 671.052 -0.805199 3.93547 0
M  V30 6907 N 669.258 0.0470316 2.90562 0
M  V30 6908 H 668.805 0.813221 2.44427 0
M  V30 6909 H 668.763 -0.810737 3.03767 0
M  V30 6910 N 672.536 -0.895792 1.29666 0
M  V30 6911 C 673.446 -2.03329 1.17024 0
M  V30 6912 C 674.462 -1.73753 0.0925962 0
M  V30 6913 O 675.638 -1.99071 0.305431 0
M  V30 6914 C 672.703 -3.36072 0.851841 0
M  V30 6915 C 671.764 -3.7914 2.01373 0
M  V30 6916 C 670.997 -5.05549 1.71043 0
M  V30 6917 O 671.22 -5.66874 0.633213 0
M  V30 6918 O 670.154 -5.44764 2.5596 0
M  V30 6919 H 673.98 -2.16918 2.12556 0
M  V30 6920 H 671.565 -1.02007 1.09156 0
M  V30 6921 H 673.447 -4.15729 0.689006 0
M  V30 6922 H 672.122 -3.23616 -0.0736634 0
M  V30 6923 H 671.029 -3.00233 2.23183 0
M  V30 6924 H 672.362 -3.96186 2.92058 0
M  V30 6925 N 674.014 -1.12206 -1.10668 0
M  V30 6926 C 675.26 -0.877172 -1.82848 0
M  V30 6927 C 675.593 0.595571 -1.84842 0
M  V30 6928 O 674.868 1.44013 -1.30731 0
M  V30 6929 C 675.151 -1.44957 -3.29635 0
M  V30 6930 C 675.004 -2.99051 -3.35989 0
M  V30 6931 C 676.323 -1.10714 -4.25946 0
M  V30 6932 H 673.442 -0.320103 -0.663854 0
M  V30 6933 H 676.084 -1.38827 -1.2972 0
M  V30 6934 H 674.234 -1.01488 -3.7501 0
M  V30 6935 H 675.906 -3.51182 -2.99113 0
M  V30 6936 H 674.149 -3.34705 -2.75962 0
M  V30 6937 H 674.82 -3.34194 -4.39339 0
M  V30 6938 H 677.296 -1.48254 -3.88793 0
M  V30 6939 H 676.172 -1.5343 -5.2702 0
M  V30 6940 H 676.433 -0.019 -4.42096 0
M  V30 6941 N 675.492 1.28418 -0.913599 0
M  V30 6942 C 676.425 2.25557 -0.346328 0
M  V30 6943 C 677.403 1.53038 0.549366 0
M  V30 6944 O 678.587 1.81937 0.493055 0
M  V30 6945 C 675.714 3.34915 0.504961 0
M  V30 6946 C 674.76 4.25257 -0.325334 0
M  V30 6947 S 675.593 5.06718 -1.73198 0
M  V30 6948 C 676.749 6.19569 -0.887988 0
M  V30 6949 H 676.982 2.73325 -1.16965 0
M  V30 6950 H 674.515 1.36855 -0.714841 0
M  V30 6951 H 676.473 3.98376 0.990301 0
M  V30 6952 H 675.134 2.85814 1.30267 0
M  V30 6953 H 674.327 5.02947 0.325589 0
M  V30 6954 H 673.929 3.66519 -0.744321 0
M  V30 6955 H 676.221 6.77398 -0.117568 0
M  V30 6956 H 677.164 6.88908 -1.63742 0
M  V30 6957 H 677.572 5.62812 -0.436228 0
M  V30 6958 N 676.97 0.677563 1.42291 0
M  V30 6959 C 678.195 0.207901 2.06355 0
M  V30 6960 C 678.62 -1.12723 1.50583 0
M  V30 6961 O 677.978 -1.70171 0.62543 0
M  V30 6962 C 678.026 0.156489 3.6026 0
M  V30 6963 O 677.13 -0.874162 4.03029 0
M  V30 6964 H 676.471 0.106056 0.655475 0
M  V30 6965 H 679.001 0.927354 1.82377 0
M  V30 6966 H 679.011 -0.0187258 4.07996 0
M  V30 6967 H 677.686 1.13101 4.00226 0
M  V30 6968 H 676.263 -0.669764 3.66836 0
M  V30 6969 N 678.448 -1.51871 0.421078 0
M  V30 6970 C 679.676 -2.06356 -0.14994 0
M  V30 6971 C 680.091 -1.29006 -1.37851 0
M  V30 6972 O 679.448 -0.345139 -1.79207 0
M  V30 6973 C 679.499 -3.58185 -0.488454 0
M  V30 6974 O 679.22 -4.32611 0.691341 0
M  V30 6975 C 680.721 -4.29129 -1.11191 0
M  V30 6976 H 677.941 -0.67083 -0.0151186 0
M  V30 6977 H 680.485 -1.95638 0.595476 0
M  V30 6978 H 678.64 -3.68871 -1.18376 0
M  V30 6979 H 679.054 -5.22927 0.405906 0
M  V30 6980 H 680.528 -5.36501 -1.29889 0
M  V30 6981 H 681.005 -3.86371 -2.0884 0
M  V30 6982 H 681.611 -4.22843 -0.456458 0
M  V30 6983 N 679.926 -0.151884 -1.56866 0
M  V30 6984 C 681.175 0.497992 -1.95456 0
M  V30 6985 C 681.488 1.6569 -1.03953 0
M  V30 6986 O 682.694 2.37173 -1.32142 0
M  V30 6987 C 681.15 0.93732 -3.4748 0
M  V30 6988 C 680.758 -0.194921 -4.47576 0
M  V30 6989 C 682.502 1.55671 -3.94926 0
M  V30 6990 C 680.409 0.26295 -5.90815 0
M  V30 6991 H 679.339 0.189811 -0.729717 0
M  V30 6992 H 681.99 -0.237011 -1.81963 0
M  V30 6993 H 680.372 1.72773 -3.56322 0
M  V30 6994 H 681.546 -0.971951 -4.50433 0
M  V30 6995 H 679.861 -0.72303 -4.10075 0
M  V30 6996 H 682.458 1.91099 -4.99385 0
M  V30 6997 H 682.801 2.44748 -3.36755 0
M  V30 6998 H 683.334 0.831109 -3.89021 0
M  V30 6999 H 680.073 -0.592568 -6.52816 0
M  V30 7000 H 679.593 1.00575 -5.91308 0
M  V30 7001 H 681.272 0.713333 -6.43056 0
M  V30 7002 N 681.404 1.57128 0.121893 0
M  V30 7003 C 682.632 1.88883 0.844451 0
M  V30 7004 C 683.047 0.742824 1.73573 0
M  V30 7005 O 682.404 -0.286475 1.80238 0
M  V30 7006 C 682.455 3.20076 1.68029 0
M  V30 7007 O 682.176 4.30264 0.824898 0
M  V30 7008 C 683.677 3.65515 2.50826 0
M  V30 7009 H 680.897 0.62549 0.242907 0
M  V30 7010 H 683.441 2.04219 0.107151 0
M  V30 7011 H 681.596 3.06418 2.37038 0
M  V30 7012 H 682.01 5.05439 1.40113 0
M  V30 7013 H 683.484 4.60081 3.05008 0
M  V30 7014 H 683.961 2.92029 3.28048 0
M  V30 7015 H 684.567 3.81952 1.87064 0
M  V30 7016 N 682.882 -0.391992 1.52647 0
M  V30 7017 C 684.159 -1.15136 1.58123 0
M  V30 7018 C 684.539 -2.07786 0.372597 0
M  V30 7019 O 683.887 -2.19374 -0.639304 0
M  V30 7020 C 684.097 -1.91367 2.91856 0
M  V30 7021 C 685.445 -2.46833 3.45483 0
M  V30 7022 O 686.469 -2.01527 2.9371 0
M  V30 7023 O 685.328 -3.29587 4.3593 0
M  V30 7024 H 682.422 -0.526649 0.637629 0
M  V30 7025 H 684.968 -0.397386 1.64982 0
M  V30 7026 H 683.74 -1.23597 3.71268 0
M  V30 7027 H 683.363 -2.73732 2.88369 0
M  V30 7028 N 684.36 -1.4356 -0.65026 0
M  V30 7029 C 685.771 -1.40324 -1.2315 0
M  V30 7030 C 686.122 -0.108812 -1.95898 0
M  V30 7031 O 685.247 0.79163 -2.01401 0
M  V30 7032 C 685.842 -2.54195 -2.23987 0
M  V30 7033 C 684.401 -2.54215 -2.77582 0
M  V30 7034 C 683.548 -2.31752 -1.5227 0
M  V30 7035 H 686.499 -1.52418 -0.442095 0
M  V30 7036 H 686.52 -2.25854 -3.0622 0
M  V30 7037 H 686.032 -3.48392 -1.71011 0
M  V30 7038 H 684.133 -1.63907 -3.34612 0
M  V30 7039 H 684.246 -3.52081 -3.24925 0
M  V30 7040 H 682.61 -1.80476 -1.79723 0
M  V30 7041 H 683.393 -3.28037 -1.01225 0
M  V30 7042 N 685.838 0.888903 -1.30139 0
M  V30 7043 C 686.801 1.97576 -1.16174 0
M  V30 7044 C 687.801 1.60525 -0.094086 0
M  V30 7045 O 688.991 1.70812 -0.341889 0
M  V30 7046 C 686.123 3.3188 -0.778983 0
M  V30 7047 H 687.316 2.11393 -2.12728 0
M  V30 7048 H 684.869 1.0748 -1.1348 0
M  V30 7049 H 685.604 3.23765 0.186225 0
M  V30 7050 H 685.389 3.60141 -1.55051 0
M  V30 7051 H 686.879 4.11612 -0.704631 0
M  V30 7052 N 687.317 1.12792 1.10072 0
M  V30 7053 C 688.28 0.802264 2.14701 0
M  V30 7054 C 689.28 -0.18515 1.59731 0
M  V30 7055 O 690.47 0.041109 1.74151 0
M  V30 7056 C 687.602 0.19285 3.40354 0
M  V30 7057 H 688.795 1.72932 2.45019 0
M  V30 7058 H 686.348 0.931662 1.25498 0
M  V30 7059 H 687.083 -0.743748 3.15656 0
M  V30 7060 H 686.868 0.903827 3.81541 0
M  V30 7061 H 688.358 -0.0183704 4.17596 0
M  V30 7062 N 688.795 -1.27931 0.920396 0
M  V30 7063 C 689.728 -2.2537 0.358285 0
M  V30 7064 C 690.706 -1.53328 -0.541242 0
M  V30 7065 O 691.89 -1.82196 -0.483399 0
M  V30 7066 C 689.017 -3.35178 -0.487193 0
M  V30 7067 C 688.063 -4.25079 0.347881 0
M  V30 7068 S 688.896 -5.05792 1.75883 0
M  V30 7069 C 690.052 -6.19089 0.920832 0
M  V30 7070 H 690.285 -2.72701 1.18413 0
M  V30 7071 H 687.818 -1.36474 0.722088 0
M  V30 7072 H 689.776 -3.98895 -0.96916 0
M  V30 7073 H 688.437 -2.865 -1.28749 0
M  V30 7074 H 687.63 -5.03113 -0.298912 0
M  V30 7075 H 687.232 -3.66119 0.763748 0
M  V30 7076 H 689.524 -6.77326 0.15349 0
M  V30 7077 H 690.467 -6.8803 1.67394 0
M  V30 7078 H 690.875 -5.62573 0.466069 0
M  V30 7079 N 690.273 -0.685099 -1.4193 0
M  V30 7080 C 691.203 -0.0273506 -2.33484 0
M  V30 7081 C 692.184 0.778366 -1.51246 0
M  V30 7082 O 693.369 0.733449 -1.79817 0
M  V30 7083 C 690.499 0.917272 -3.34968 0
M  V30 7084 C 689.453 0.21941 -4.27437 0
M  V30 7085 C 688.779 1.27768 -5.1921 0
M  V30 7086 C 690.079 -0.907894 -5.14349 0
M  V30 7087 H 691.773 -0.791994 -2.88735 0
M  V30 7088 H 689.319 -0.382308 -1.38832 0
M  V30 7089 H 691.272 1.38657 -3.97935 0
M  V30 7090 H 689.996 1.71346 -2.78043 0
M  V30 7091 H 688.655 -0.229757 -3.65879 0
M  V30 7092 H 688.303 2.06612 -4.58607 0
M  V30 7093 H 688.003 0.815803 -5.81909 0
M  V30 7094 H 689.527 1.7477 -5.85054 0
M  V30 7095 H 690.941 -0.519348 -5.70943 0
M  V30 7096 H 689.338 -1.2962 -5.85934 0
M  V30 7097 H 690.408 -1.75218 -4.52136 0
M  V30 7098 N 691.751 1.51645 -0.429126 0
M  V30 7099 C 692.999 2.01616 0.139802 0
M  V30 7100 C 693.32 1.31568 1.43927 0
M  V30 7101 O 692.59 0.447688 1.90716 0
M  V30 7102 H 691.17 0.744998 0.054654 0
M  V30 7103 H 693.832 1.8638 -0.569952 0
M  V30 7104 H 692.928 3.10439 0.321609 0
M  V30 7105 N 693.229 0.160201 1.56784 0
M  V30 7106 C 694.64 -0.358417 1.83227 0
M  V30 7107 C 694.991 -1.63831 1.07952 0
M  V30 7108 O 694.116 -2.13885 0.328995 0
M  V30 7109 C 694.711 -0.657058 3.32368 0
M  V30 7110 C 693.27 -1.12015 3.59346 0
M  V30 7111 C 692.417 -0.15015 2.76893 0
M  V30 7112 H 695.368 0.384669 1.53967 0
M  V30 7113 H 695.389 -1.51033 3.49241 0
M  V30 7114 H 694.901 0.274647 3.87127 0
M  V30 7115 H 693.002 -2.06734 3.09987 0
M  V30 7116 H 693.115 -1.037 4.67743 0
M  V30 7117 H 691.479 -0.645361 2.46388 0
M  V30 7118 H 692.262 0.775379 3.34429 0
M  V30 7119 N 694.707 -1.5719 -0.113559 0
M  V30 7120 C 695.617 -2.04041 -1.15777 0
M  V30 7121 C 696.633 -0.961812 -1.45001 0
M  V30 7122 O 697.809 -1.2737 -1.56009 0
M  V30 7123 C 694.874 -2.43994 -2.46308 0
M  V30 7124 C 693.935 -3.65962 -2.24433 0
M  V30 7125 C 693.168 -4.04 -3.4874 0
M  V30 7126 O 693.391 -3.42321 -4.56259 0
M  V30 7127 O 692.325 -4.97069 -3.3942 0
M  V30 7128 H 696.151 -2.93248 -0.789899 0
M  V30 7129 H 693.736 -1.45828 -0.324748 0
M  V30 7130 H 695.618 -2.70401 -3.23204 0
M  V30 7131 H 694.293 -1.57932 -2.82558 0
M  V30 7132 H 693.2 -3.44697 -1.45377 0
M  V30 7133 H 694.533 -4.52746 -1.93084 0
M  V30 7134 N 696.185 0.383891 -1.52853 0
M  V30 7135 C 697.413 1.1495 -1.7203 0
M  V30 7136 C 697.828 1.83578 -0.440957 0
M  V30 7137 O 697.185 1.72872 0.584925 0
M  V30 7138 C 697.236 2.19368 -2.87333 0
M  V30 7139 O 696.957 1.53536 -4.10315 0
M  V30 7140 C 698.458 3.08616 -3.18231 0
M  V30 7141 H 695.678 0.344445 -0.575846 0
M  V30 7142 H 698.222 0.448397 -1.99524 0
M  V30 7143 H 696.377 2.85105 -2.62286 0
M  V30 7144 H 696.791 2.2296 -4.74752 0
M  V30 7145 H 698.265 3.77902 -4.02361 0
M  V30 7146 H 698.742 3.72409 -2.32826 0
M  V30 7147 H 699.348 2.48518 -3.45136 0
M  V30 7148 N 697.663 1.43903 0.642637 0
M  V30 7149 C 698.611 1.50164 1.77634 0
M  V30 7150 C 699.605 0.374294 1.65213 0
M  V30 7151 O 700.811 0.548748 1.71431 0
M  V30 7152 H 697.186 0.470974 0.586249 0
M  V30 7153 H 699.157 2.45603 1.69474 0
M  V30 7154 C 697.906 1.45196 3.15933 0
M  V30 7155 H 697.229 2.31253 3.26132 0
M  V30 7156 H 698.669 1.53638 3.95185 0
M  V30 7157 C 697.128 0.171043 3.36466 0
M  V30 7158 O 697.658 -0.763413 3.94379 0
M  V30 7159 N 695.864 0.077847 2.90496 0
M  V30 7160 H 695.411 0.8391 2.43551 0
M  V30 7161 H 695.369 -0.778473 3.0461 0
M  V30 7162 N 699.141 -0.881989 1.30609 0
M  V30 7163 C 700.388 -1.63405 1.19604 0
M  V30 7164 C 700.716 -1.92905 -0.248574 0
M  V30 7165 O 699.971 -1.55062 -1.19391 0
M  V30 7166 C 700.27 -2.97999 1.97311 0
M  V30 7167 C 699.936 -2.88039 3.46907 0
M  V30 7168 C 698.598 -2.85029 3.877 0
M  V30 7169 C 700.95 -2.75948 4.42156 0
M  V30 7170 C 698.278 -2.67772 5.2203 0
M  V30 7171 C 700.63 -2.60228 5.76597 0
M  V30 7172 C 699.294 -2.55595 6.16626 0
M  V30 7173 H 698.564 -0.597941 0.437662 0
M  V30 7174 H 701.211 -1.02524 1.61744 0
M  V30 7175 H 699.516 -3.62847 1.47815 0
M  V30 7176 H 701.213 -3.55156 1.86186 0
M  V30 7177 H 697.803 -2.91192 3.14492 0
M  V30 7178 H 701.987 -2.77337 4.1158 0
M  V30 7179 H 697.243 -2.62601 5.52133 0
M  V30 7180 H 701.417 -2.49847 6.50038 0
M  V30 7181 H 699.044 -2.41981 7.20659 0
M  V30 7182 N 700.619 -1.13374 -1.09472 0
M  V30 7183 C 701.549 -0.833268 -2.18126 0
M  V30 7184 C 702.53 0.207169 -1.68834 0
M  V30 7185 O 703.715 0.0662012 -1.94087 0
M  V30 7186 C 700.845 -0.297979 -3.46019 0
M  V30 7187 C 699.799 -1.27261 -4.08642 0
M  V30 7188 C 699.125 -0.597104 -5.31356 0
M  V30 7189 C 700.425 -2.63095 -4.51197 0
M  V30 7190 H 702.119 -1.74182 -2.43518 0
M  V30 7191 H 699.665 -0.838921 -1.17039 0
M  V30 7192 H 701.618 -0.0754444 -4.21332 0
M  V30 7193 H 700.342 0.645959 -3.20148 0
M  V30 7194 H 699.001 -1.48113 -3.35348 0
M  V30 7195 H 698.649 0.352293 -5.01765 0
M  V30 7196 H 698.349 -1.24734 -5.74208 0
M  V30 7197 H 699.873 -0.38384 -6.09392 0
M  V30 7198 H 701.287 -2.46214 -5.17737 0
M  V30 7199 H 699.684 -3.2429 -5.04932 0
M  V30 7200 H 700.754 -3.20793 -3.6362 0
M  V30 7201 N 702.098 1.27442 -0.927168 0
M  V30 7202 C 703.323 1.99036 -0.583042 0
M  V30 7203 C 703.748 1.68711 0.83176 0
M  V30 7204 O 703.106 0.927081 1.55804 0
M  V30 7205 C 703.154 3.51271 -0.814925 0
M  V30 7206 O 702.258 4.12226 0.119742 0
M  V30 7207 H 701.599 0.624883 -0.224538 0
M  V30 7208 H 704.129 1.62263 -1.24628 0
M  V30 7209 H 704.139 4.01411 -0.730282 0
M  V30 7210 H 702.814 3.72676 -1.84623 0
M  V30 7211 H 701.391 3.72897 -0.0147688 0
M  V30 7212 N 703.576 0.692616 1.41565 0
M  V30 7213 C 704.539 0.0344174 2.29174 0
M  V30 7214 C 705.539 -0.710961 1.44229 0
M  V30 7215 O 706.729 -0.546293 1.65412 0
M  V30 7216 C 703.861 -0.961682 3.27054 0
M  V30 7217 H 705.054 0.805755 2.88873 0
M  V30 7218 H 702.607 0.455947 1.49502 0
M  V30 7219 H 703.342 -1.76089 2.72329 0
M  V30 7220 H 703.127 -0.430375 3.89731 0
M  V30 7221 H 704.617 -1.4201 3.92712 0
M  V30 7222 N 705.054 -1.51416 0.437162 0
M  V30 7223 C 706.004 -2.24599 -0.392311 0
M  V30 7224 C 706.988 -1.2682 -0.990221 0
M  V30 7225 O 708.18 -1.51912 -0.908391 0
M  V30 7226 C 705.309 -3.09134 -1.49301 0
M  V30 7227 C 704.395 -4.14342 -0.904503 0
M  V30 7228 N 704.786 -5.0578 -0.0451511 0
M  V30 7229 C 703.084 -4.30323 -1.1721 0
M  V30 7230 C 703.785 -5.81 0.285344 0
M  V30 7231 N 702.761 -5.42591 -0.330993 0
M  V30 7232 H 706.563 -2.92655 0.270221 0
M  V30 7233 H 704.077 -1.60476 0.249226 0
M  V30 7234 H 706.074 -3.6014 -2.10011 0
M  V30 7235 H 704.734 -2.42622 -2.15788 0
M  V30 7236 H 705.745 -5.16903 0.321271 0
M  V30 7237 H 702.422 -3.75037 -1.83448 0
M  V30 7238 H 703.812 -6.64646 0.984626 0
M  V30 7239 N 706.532 -0.168513 -1.56696 0
M  V30 7240 C 707.757 0.486688 -2.01609 0
M  V30 7241 C 708.182 1.56203 -1.04796 0
M  V30 7242 O 707.54 1.8128 -0.0270596 0
M  V30 7243 C 707.588 1.04451 -3.45141 0
M  V30 7244 O 706.692 2.15862 -3.51393 0
M  V30 7245 H 706.033 0.116831 -0.653641 0
M  V30 7246 H 708.563 -0.271579 -2.0279 0
M  V30 7247 H 708.573 1.36782 -3.84389 0
M  V30 7248 H 707.248 0.257155 -4.15104 0
M  V30 7249 H 705.825 1.84597 -3.24004 0
M  V30 7250 N 708.01 1.57248 0.105221 0
M  V30 7251 C 708.973 2.00388 1.11252 0
M  V30 7252 C 709.973 0.89594 1.33527 0
M  V30 7253 O 711.163 1.16166 1.29811 0
M  V30 7254 C 708.295 2.35589 2.46395 0
M  V30 7255 H 709.488 2.90591 0.741424 0
M  V30 7256 H 707.041 1.52332 0.349956 0
M  V30 7257 H 707.776 1.4831 2.884 0
M  V30 7258 H 707.561 3.16408 2.31578 0
M  V30 7259 H 709.051 2.69658 3.18864 0
M  V30 7260 N 709.488 -0.375779 1.53054 0
M  V30 7261 C 710.904 -0.716764 1.426 0
M  V30 7262 C 711.104 -1.93651 0.556931 0
M  V30 7263 O 710.16 -2.52475 0.0354461 0
M  V30 7264 C 711.473 -0.939499 2.85646 0
M  V30 7265 C 713.021 -1.04015 2.95212 0
M  V30 7266 C 713.496 -1.29543 4.39298 0
M  V30 7267 N 714.987 -1.36335 4.42682 0
M  V30 7268 C 715.722 -1.57778 5.51266 0
M  V30 7269 N 715.218 -1.76604 6.69913 0
M  V30 7270 N 717.011 -1.60065 5.38828 0
M  V30 7271 H 709.162 0.42664 2.08071 0
M  V30 7272 H 711.425 0.128758 0.939215 0
M  V30 7273 H 711.131 -0.115189 3.51511 0
M  V30 7274 H 711.005 -1.85048 3.2869 0
M  V30 7275 H 713.392 -1.85501 2.29507 0
M  V30 7276 H 713.473 -0.106785 2.55577 0
M  V30 7277 H 713.117 -0.485611 5.05573 0
M  V30 7278 H 713.047 -2.24184 4.76497 0
M  V30 7279 H 715.538 -1.23441 3.5717 0
M  V30 7280 H 715.851 -1.9251 7.48438 0
M  V30 7281 H 714.196 -1.73802 6.72917 0
M  V30 7282 H 717.387 -1.44917 4.45103 0
M  V30 7283 H 717.56 -1.76435 6.23518 0
M  V30 7284 N 710.966 -1.44241 -0.634997 0
M  V30 7285 C 712.243 -1.37296 -1.39317 0
M  V30 7286 C 712.623 -0.0297532 -2.11079 0
M  V30 7287 O 711.971 0.987524 -2.06059 0
M  V30 7288 C 712.181 -2.56853 -2.36279 0
M  V30 7289 C 713.529 -3.00747 -2.99728 0
M  V30 7290 O 714.553 -2.5703 -2.46605 0
M  V30 7291 O 713.412 -3.76533 -3.96087 0
M  V30 7292 H 710.506 -0.543503 -0.623325 0
M  V30 7293 H 713.052 -1.56324 -0.660376 0
M  V30 7294 H 711.824 -3.46228 -1.82324 0
M  V30 7295 H 711.447 -2.40019 -3.16981 0
M  V30 7296 N 712.444 0.87505 -1.31075 0
M  V30 7297 C 713.354 2.01441 -1.20244 0
M  V30 7298 C 714.37 1.73584 -0.120227 0
M  V30 7299 O 715.546 1.98559 -0.337063 0
M  V30 7300 C 712.611 3.34675 -0.905199 0
M  V30 7301 C 711.672 3.75889 -2.0738 0
M  V30 7302 C 710.905 5.02764 -1.79064 0
M  V30 7303 O 711.128 5.65795 -0.723318 0
M  V30 7304 O 710.062 5.40623 -2.64594 0
M  V30 7305 H 713.888 2.13509 -2.1598 0
M  V30 7306 H 711.473 1.00257 -1.10765 0
M  V30 7307 H 713.355 4.1458 -0.755057 0
M  V30 7308 H 712.03 3.23692 0.0221695 0
M  V30 7309 H 710.937 2.96645 -2.27931 0
M  V30 7310 H 712.27 3.91489 -2.98324 0
M  V30 7311 N 713.922 1.13953 1.08869 0
M  V30 7312 C 714.885 0.824991 2.13838 0
M  V30 7313 C 715.885 -0.168198 1.59918 0
M  V30 7314 O 717.075 0.0595778 1.74098 0
M  V30 7315 C 714.207 0.228938 3.4013 0
M  V30 7316 H 715.4 1.75521 2.43171 0
M  V30 7317 H 712.953 0.94492 1.24503 0
M  V30 7318 H 713.688 -0.710227 3.16427 0
M  V30 7319 H 713.473 0.944243 3.80561 0
M  V30 7320 H 714.963 0.0259223 4.17592 0
M  V30 7321 N 715.4 -1.26948 0.933913 0
M  V30 7322 C 716.363 -2.24889 0.442457 0
M  V30 7323 C 717.363 -1.54594 -0.442426 0
M  V30 7324 O 718.553 -1.72502 -0.242629 0
M  V30 7325 C 715.685 -3.3896 -0.363173 0
M  V30 7326 H 716.878 -2.69879 1.30787 0
M  V30 7327 H 714.431 -1.38978 0.715187 0
M  V30 7328 H 715.166 -2.99361 -1.24714 0
M  V30 7329 H 714.951 -3.9116 0.271366 0
M  V30 7330 H 716.441 -4.11739 -0.697186 0
M  V30 7331 N 716.879 -0.700114 -1.41195 0
M  V30 7332 C 718.295 -0.372114 -1.55201 0
M  V30 7333 C 718.495 1.12053 -1.6747 0
M  V30 7334 O 717.551 1.90642 -1.65566 0
M  V30 7335 C 718.864 -1.12462 -2.78878 0
M  V30 7336 C 720.412 -1.10941 -2.92679 0
M  V30 7337 C 720.887 -1.84376 -4.19249 0
M  V30 7338 N 722.378 -1.81368 -4.26216 0
M  V30 7339 C 723.113 -2.35024 -5.23021 0
M  V30 7340 N 722.609 -2.9717 -6.25829 0
M  V30 7341 N 724.402 -2.25254 -5.14992 0
M  V30 7342 H 716.553 -1.66816 -1.31477 0
M  V30 7343 H 718.816 -0.704223 -0.634644 0
M  V30 7344 H 718.522 -2.17937 -2.76037 0
M  V30 7345 H 718.396 -0.706152 -3.70531 0
M  V30 7346 H 720.783 -0.062911 -2.95033 0
M  V30 7347 H 720.864 -1.56698 -2.02187 0
M  V30 7348 H 720.508 -2.89008 -4.17656 0
M  V30 7349 H 720.438 -1.3605 -5.08722 0
M  V30 7350 H 722.929 -1.36062 -3.52556 0
M  V30 7351 H 723.242 -3.35668 -6.96094 0
M  V30 7352 H 721.587 -3.01249 -6.26318 0
M  V30 7353 H 724.778 -1.76372 -4.33602 0
M  V30 7354 H 724.951 -2.67373 -5.90268 0
M  V30 7355 N 718.357 1.51182 -0.445186 0
M  V30 7356 C 719.287 2.30821 0.352686 0
M  V30 7357 C 720.268 1.36576 1.01395 0
M  V30 7358 O 721.453 1.65497 1.01609 0
M  V30 7359 C 718.583 3.15593 1.44976 0
M  V30 7360 C 717.537 4.1818 0.911553 0
M  V30 7361 C 716.863 4.91523 2.10497 0
M  V30 7362 C 718.163 5.22266 -0.059418 0
M  V30 7363 H 719.857 2.97771 -0.311936 0
M  V30 7364 H 717.403 1.43201 -0.151461 0
M  V30 7365 H 719.356 3.70091 2.01521 0
M  V30 7366 H 718.08 2.4648 2.14278 0
M  V30 7367 H 716.739 3.64746 0.368264 0
M  V30 7368 H 716.387 4.18906 2.78437 0
M  V30 7369 H 716.087 5.60898 1.7512 0
M  V30 7370 H 717.611 5.48847 2.6758 0
M  V30 7371 H 719.025 5.71789 0.415985 0
M  V30 7372 H 717.422 5.99213 -0.326152 0
M  V30 7373 H 718.492 4.7461 -0.993631 0
M  V30 7374 N 719.835 0.176821 1.56605 0
M  V30 7375 C 720.745 -0.763682 2.21822 0
M  V30 7376 C 721.761 -1.24889 1.21156 0
M  V30 7377 O 722.937 -1.29987 1.53836 0
M  V30 7378 C 720.002 -1.97352 2.8505 0
M  V30 7379 C 719.063 -1.53466 4.00932 0
M  V30 7380 C 718.296 -2.68682 4.61135 0
M  V30 7381 O 718.519 -3.85694 4.20234 0
M  V30 7382 O 717.453 -2.42442 5.50913 0
M  V30 7383 H 721.279 -0.238363 3.02763 0
M  V30 7384 H 718.864 -0.0516331 1.49311 0
M  V30 7385 H 720.746 -2.68096 3.25119 0
M  V30 7386 H 719.421 -2.48779 2.07101 0
M  V30 7387 H 718.328 -0.796551 3.65521 0
M  V30 7388 H 719.661 -1.06724 4.8049 0
M  V30 7389 N 721.313 -1.57302 -0.09688 0
M  V30 7390 C 722.223 -2.05258 -1.13606 0
M  V30 7391 C 723.239 -0.977137 -1.43972 0
M  V30 7392 O 724.415 -1.29018 -1.54649 0
M  V30 7393 C 721.48 -2.46593 -2.43706 0
M  V30 7394 C 720.541 -3.68322 -2.20538 0
M  V30 7395 C 719.774 -4.07676 -3.44435 0
M  V30 7396 O 719.997 -3.47141 -4.52603 0
M  V30 7397 O 718.931 -5.00641 -3.34129 0
M  V30 7398 H 722.757 -2.94069 -0.758752 0
M  V30 7399 H 720.342 -1.46164 -0.309263 0
M  V30 7400 H 722.224 -2.73814 -3.20318 0
M  V30 7401 H 720.899 -1.6092 -2.80867 0
M  V30 7402 H 719.806 -3.4622 -1.41713 0
M  V30 7403 H 721.139 -4.54769 -1.88271 0
M  V30 7404 N 722.791 0.367657 -1.53252 0
M  V30 7405 C 724.207 0.709191 -1.42978 0
M  V30 7406 C 724.407 1.93352 -0.567193 0
M  V30 7407 O 723.463 2.52453 -0.0488349 0
M  V30 7408 C 724.776 0.924338 -2.86141 0
M  V30 7409 C 726.324 1.02448 -2.95759 0
M  V30 7410 C 726.799 1.27211 -4.39979 0
M  V30 7411 N 728.29 1.33986 -4.43398 0
M  V30 7412 C 729.025 1.54852 -5.52095 0
M  V30 7413 N 728.521 1.73049 -6.7084 0
M  V30 7414 N 730.314 1.57205 -5.39669 0
M  V30 7415 H 722.465 -0.437669 -2.07842 0
M  V30 7416 H 724.728 -0.133737 -0.938519 0
M  V30 7417 H 724.434 0.0965455 -3.51567 0
M  V30 7418 H 724.308 1.83302 -3.29667 0
M  V30 7419 H 726.695 1.84282 -2.30487 0
M  V30 7420 H 726.776 0.0932301 -2.5563 0
M  V30 7421 H 726.42 0.458792 -5.05824 0
M  V30 7422 H 726.35 2.21654 -4.77679 0
M  V30 7423 H 728.841 1.21545 -3.5782 0
M  V30 7424 H 729.154 1.88538 -7.49449 0
M  V30 7425 H 727.499 1.70231 -6.7383 0
M  V30 7426 H 730.69 1.42555 -4.45865 0
M  V30 7427 H 730.863 1.73126 -6.24445 0
M  V30 7428 N 724.269 1.44576 0.627338 0
M  V30 7429 C 725.685 1.28546 0.945938 0
M  V30 7430 C 725.885 0.224003 2.00251 0
M  V30 7431 O 724.941 -0.388817 2.49488 0
M  V30 7432 C 726.254 2.65825 1.40561 0
M  V30 7433 C 727.802 2.73566 1.52088 0
M  V30 7434 C 728.277 4.11323 2.01438 0
M  V30 7435 N 729.768 4.13519 2.08702 0
M  V30 7436 C 730.503 5.16964 2.48065 0
M  V30 7437 N 729.999 6.30768 2.86538 0
M  V30 7438 N 731.792 5.04319 2.48232 0
M  V30 7439 H 723.943 2.1228 -0.0713567 0
M  V30 7440 H 726.206 0.947503 0.0307081 0
M  V30 7441 H 725.912 3.44591 0.703539 0
M  V30 7442 H 725.786 2.92969 2.37591 0
M  V30 7443 H 728.173 1.95116 2.21391 0
M  V30 7444 H 728.254 2.50159 0.534237 0
M  V30 7445 H 727.898 4.9025 1.32729 0
M  V30 7446 H 727.828 4.32109 3.0098 0
M  V30 7447 H 730.319 3.31385 1.81638 0
M  V30 7448 H 730.632 7.0551 3.15398 0
M  V30 7449 H 728.977 6.342 2.84281 0
M  V30 7450 H 732.168 4.14465 2.17569 0
M  V30 7451 H 732.341 5.85059 2.78585 0
M  V30 7452 N 725.747 -0.868086 1.31537 0
M  V30 7453 C 726.995 -1.61807 1.21091 0
M  V30 7454 C 727.316 -1.93631 -0.230623 0
M  V30 7455 O 726.586 -1.5846 -1.15183 0
M  V30 7456 H 725.166 -0.599854 0.445178 0
M  V30 7457 H 727.828 -1.03915 1.64887 0
M  V30 7458 H 726.924 -2.56088 1.78396 0
M  V30 7459 N 727.225 -1.14528 -1.08264 0
M  V30 7460 C 728.471 -0.91576 -1.80947 0
M  V30 7461 C 728.804 0.55623 -1.86064 0
M  V30 7462 O 728.079 1.41207 -1.33756 0
M  V30 7463 C 728.362 -1.51917 -3.26486 0
M  V30 7464 C 728.215 -3.06111 -3.2957 0
M  V30 7465 C 729.534 -1.19724 -4.23502 0
M  V30 7466 H 726.653 -0.334113 -0.656915 0
M  V30 7467 H 729.295 -1.41547 -1.26746 0
M  V30 7468 H 727.445 -1.0942 -3.72773 0
M  V30 7469 H 729.117 -3.57448 -2.91597 0
M  V30 7470 H 727.36 -3.40483 -2.688 0
M  V30 7471 H 728.031 -3.43438 -4.32151 0
M  V30 7472 H 730.507 -1.56467 -3.85561 0
M  V30 7473 H 729.383 -1.64575 -5.23647 0
M  V30 7474 H 729.644 -0.112771 -4.41956 0
M  V30 7475 N 728.703 1.26451 -0.940633 0
M  V30 7476 C 729.952 1.93071 -0.583656 0
M  V30 7477 C 730.265 1.74618 0.881366 0
M  V30 7478 O 731.471 2.35689 1.34769 0
M  V30 7479 C 729.927 3.45927 -0.993106 0
M  V30 7480 C 729.535 3.73115 -2.4797 0
M  V30 7481 C 731.279 4.18554 -0.707998 0
M  V30 7482 C 729.186 5.19408 -2.82788 0
M  V30 7483 H 728.116 0.722824 -0.214572 0
M  V30 7484 H 730.767 1.43538 -1.1432 0
M  V30 7485 H 729.149 3.94341 -0.362099 0
M  V30 7486 H 730.323 3.35408 -3.15971 0
M  V30 7487 H 728.638 3.13719 -2.73805 0
M  V30 7488 H 731.235 5.26293 -0.94447 0
M  V30 7489 H 731.578 4.14782 0.355225 0
M  V30 7490 H 732.111 3.76003 -1.2987 0
M  V30 7491 H 728.85 5.28281 -3.88071 0
M  V30 7492 H 728.37 5.58214 -2.19449 0
M  V30 7493 H 730.049 5.87407 -2.71224 0
M  V30 7494 N 730.181 0.707592 1.40822 0
M  V30 7495 C 731.091 0.0507246 2.34545 0
M  V30 7496 C 732.107 -0.752727 1.56876 0
M  V30 7497 O 733.283 -0.687524 1.89302 0
M  V30 7498 C 730.348 -0.865731 3.35717 0
M  V30 7499 C 729.409 -0.0531313 4.29267 0
M  V30 7500 C 728.642 -0.925939 5.25606 0
M  V30 7501 O 728.865 -2.16531 5.27703 0
M  V30 7502 O 727.799 -0.369194 6.00767 0
M  V30 7503 H 731.625 0.823587 2.9232 0
M  V30 7504 H 729.21 0.46801 1.4188 0
M  V30 7505 H 731.092 -1.39091 3.97783 0
M  V30 7506 H 729.767 -1.61788 2.80368 0
M  V30 7507 H 728.674 0.516931 3.70511 0
M  V30 7508 H 730.007 0.660617 4.87747 0
M  V30 7509 N 731.66 -1.50943 0.453197 0
M  V30 7510 C 732.907 -2.02212 -0.107922 0
M  V30 7511 C 733.235 -1.33639 -1.41318 0
M  V30 7512 O 732.49 -0.445154 -1.9057 0
M  V30 7513 C 732.789 -3.55603 -0.357944 0
M  V30 7514 C 732.455 -4.42556 0.863427 0
M  V30 7515 C 731.117 -4.6604 1.19834 0
M  V30 7516 C 733.469 -4.93468 1.67747 0
M  V30 7517 C 730.797 -5.37681 2.34768 0
M  V30 7518 C 733.149 -5.6637 2.81793 0
M  V30 7519 C 731.813 -5.88113 3.1572 0
M  V30 7520 H 731.083 -0.739947 -0.0394916 0
M  V30 7521 H 733.73 -1.81738 0.60363 0
M  V30 7522 H 732.035 -3.74495 -1.15156 0
M  V30 7523 H 733.732 -3.92821 -0.805781 0
M  V30 7524 H 730.322 -4.24485 0.592478 0
M  V30 7525 H 734.506 -4.75194 1.43192 0
M  V30 7526 H 729.762 -5.52727 2.61348 0
M  V30 7527 H 733.936 -6.04806 3.45229 0
M  V30 7528 H 731.563 -6.43404 4.04889 0
M  V30 7529 N 733.138 -0.185124 -1.56509 0
M  V30 7530 C 734.088 0.752315 -2.15231 0
M  V30 7531 C 735.072 1.18327 -1.0903 0
M  V30 7532 O 736.264 1.14333 -1.35119 0
M  V30 7533 C 733.393 1.97583 -2.80742 0
M  V30 7534 C 732.479 1.56623 -3.94119 0
M  V30 7535 N 732.87 0.867008 -4.98314 0
M  V30 7536 C 731.168 1.85626 -4.05535 0
M  V30 7537 C 731.869 0.663228 -5.77907 0
M  V30 7538 N 730.845 1.20891 -5.29987 0
M  V30 7539 H 734.647 0.209267 -2.93154 0
M  V30 7540 H 732.161 0.0150444 -1.62393 0
M  V30 7541 H 734.158 2.65779 -3.21197 0
M  V30 7542 H 732.818 2.52369 -2.04303 0
M  V30 7543 H 733.829 0.52355 -5.15247 0
M  V30 7544 H 730.506 2.41992 -3.40215 0
M  V30 7545 H 731.896 0.109273 -6.71811 0
M  V30 7546 N 734.616 1.57351 0.0885366 0
M  V30 7547 C 735.862 1.86696 0.791996 0
M  V30 7548 C 736.195 0.775148 1.78059 0
M  V30 7549 O 735.47 -0.216247 1.93294 0
M  V30 7550 C 735.753 3.26684 1.51491 0
M  V30 7551 C 735.606 4.465 0.543858 0
M  V30 7552 C 736.925 3.64664 2.46391 0
M  V30 7553 H 734.044 0.679049 0.286463 0
M  V30 7554 H 736.686 1.89919 0.0554866 0
M  V30 7555 H 734.836 3.24067 2.14273 0
M  V30 7556 H 736.508 4.61235 -0.0774597 0
M  V30 7557 H 734.751 4.33567 -0.142228 0
M  V30 7558 H 735.422 5.41192 1.08696 0
M  V30 7559 H 737.898 3.68267 1.93698 0
M  V30 7560 H 736.774 4.63534 2.93986 0
M  V30 7561 H 737.035 2.93698 3.30445 0
M  V30 7562 N 736.094 -0.359525 1.53444 0
M  V30 7563 C 737.34 -1.10315 1.70172 0
M  V30 7564 C 737.673 -1.88788 0.455287 0
M  V30 7565 O 736.948 -1.86635 -0.547514 0
M  V30 7566 C 737.231 -2.05744 2.95536 0
M  V30 7567 C 737.084 -1.3084 4.3035 0
M  V30 7568 C 738.403 -3.05784 3.16518 0
M  V30 7569 H 735.522 -0.399662 0.619225 0
M  V30 7570 H 738.164 -0.383338 1.86093 0
M  V30 7571 H 736.314 -2.67125 2.82093 0
M  V30 7572 H 737.986 -0.721959 4.55615 0
M  V30 7573 H 736.229 -0.610283 4.29486 0
M  V30 7574 H 736.9 -2.00718 5.14214 0
M  V30 7575 H 739.376 -2.5451 3.29187 0
M  V30 7576 H 738.252 -3.69772 4.05659 0
M  V30 7577 H 738.513 -3.76289 2.32076 0
M  V30 7578 N 737.572 -1.44907 -0.619662 0
M  V30 7579 C 738.82 -1.47999 -1.37625 0
M  V30 7580 C 739.141 -0.118295 -1.94641 0
M  V30 7581 O 738.411 0.85086 -1.76457 0
M  V30 7582 H 736.991 -0.544993 -0.510873 0
M  V30 7583 H 739.653 -1.80772 -0.728522 0
M  V30 7584 H 738.749 -2.21196 -2.20179 0
M  V30 7585 N 739.05 0.861098 -1.31996 0
M  V30 7586 C 739.998 1.99052 -1.20337 0
M  V30 7587 C 740.992 1.69045 -0.109623 0
M  V30 7588 O 742.198 1.77931 -0.272117 0
M  V30 7589 H 738.573 0.653064 -0.372843 0
M  V30 7590 H 740.544 2.06015 -2.15872 0
M  V30 7591 C 739.293 3.34846 -0.936663 0
M  V30 7592 H 738.616 3.58462 -1.77045 0
M  V30 7593 H 740.056 4.1444 -0.895302 0
M  V30 7594 C 738.515 3.34965 0.360607 0
M  V30 7595 O 739.045 3.7745 1.37456 0
M  V30 7596 N 737.251 2.88101 0.380296 0
M  V30 7597 H 736.798 2.53721 -0.445351 0
M  V30 7598 H 736.756 2.88563 1.24816 0
M  V30 7599 N 740.528 1.15101 1.07655 0
M  V30 7600 C 741.753 0.948177 1.84457 0
M  V30 7601 C 742.178 -0.498432 1.81376 0
M  V30 7602 O 741.536 -1.35509 1.20445 0
M  V30 7603 C 741.584 1.46318 3.29581 0
M  V30 7604 O 740.688 0.660342 4.07079 0
M  V30 7605 H 740.029 0.338428 0.571281 0
M  V30 7606 H 742.559 1.5301 1.35828 0
M  V30 7607 H 742.569 1.47468 3.80417 0
M  V30 7608 H 741.244 2.51635 3.31138 0
M  V30 7609 H 739.821 0.718216 3.65918 0
M  V30 7610 N 742.006 -1.2595 0.947325 0
M  V30 7611 C 742.936 -2.28521 0.479604 0
M  V30 7612 C 743.917 -1.63469 -0.470293 0
M  V30 7613 O 745.102 -1.90627 -0.370824 0
M  V30 7614 C 742.232 -3.46397 -0.250289 0
M  V30 7615 C 741.186 -4.23578 0.613643 0
M  V30 7616 C 740.512 -5.34131 -0.246568 0
M  V30 7617 C 741.812 -4.86979 1.88809 0
M  V30 7618 H 743.506 -2.67895 1.33688 0
M  V30 7619 H 741.052 -1.28783 0.644274 0
M  V30 7620 H 743.005 -4.17269 -0.588576 0
M  V30 7621 H 741.729 -3.05993 -1.14175 0
M  V30 7622 H 740.388 -3.54478 0.93491 0
M  V30 7623 H 740.036 -4.89968 -1.13756 0
M  V30 7624 H 739.736 -5.86683 0.328123 0
M  V30 7625 H 741.26 -6.07839 -0.579986 0
M  V30 7626 H 742.674 -5.50034 1.61666 0
M  V30 7627 H 741.071 -5.49675 2.40784 0
M  V30 7628 H 742.141 -4.09575 2.5957 0
M  V30 7629 N 743.484 -0.715051 -1.40445 0
M  V30 7630 C 744.432 -0.0509974 -2.32544 0
M  V30 7631 C 745.426 0.747602 -1.52011 0
M  V30 7632 O 746.632 0.651031 -1.67814 0
M  V30 7633 H 743.007 0.00231113 -0.751996 0
M  V30 7634 H 744.978 -0.84449 -2.86201 0
M  V30 7635 C 743.727 0.857101 -3.3697 0
M  V30 7636 H 743.05 0.252 -3.99005 0
M  V30 7637 H 744.49 1.28971 -4.03909 0
M  V30 7638 C 742.949 1.98231 -2.72408 0
M  V30 7639 O 743.479 3.07309 -2.58697 0
M  V30 7640 N 741.685 1.76577 -2.308 0
M  V30 7641 H 741.232 0.878641 -2.42152 0
M  V30 7642 H 741.19 2.52043 -1.87941 0
M  V30 7643 N 744.962 1.50701 -0.461195 0
M  V30 7644 C 745.894 2.26124 0.374244 0
M  V30 7645 C 746.907 1.31064 0.965715 0
M  V30 7646 O 748.096 1.56647 0.855801 0
M  V30 7647 C 745.196 3.01996 1.5379 0
M  V30 7648 C 744.369 4.24336 1.06101 0
M  V30 7649 C 743.428 4.82585 2.09756 0
M  V30 7650 O 742.454 5.43775 1.68219 0
M  V30 7651 N 743.656 4.68712 3.42475 0
M  V30 7652 H 746.421 2.9846 -0.2723 0
M  V30 7653 H 743.982 1.59256 -0.291415 0
M  V30 7654 H 745.974 3.37846 2.22806 0
M  V30 7655 H 744.544 2.32521 2.08933 0
M  V30 7656 H 743.764 3.93707 0.197085 0
M  V30 7657 H 745.052 5.03678 0.720156 0
M  V30 7658 H 744.45 4.20026 3.78938 0
M  V30 7659 H 743.007 5.08858 4.07317 0
M  V30 7660 N 746.441 0.193421 1.56409 0
M  V30 7661 C 747.388 -0.728124 2.19014 0
M  V30 7662 C 748.358 -1.21098 1.13686 0
M  V30 7663 O 749.543 -1.27517 1.4193 0
M  V30 7664 C 746.683 -1.94277 2.8522 0
M  V30 7665 C 745.796 -1.50143 4.05069 0
M  V30 7666 C 744.931 -2.67145 4.59137 0
M  V30 7667 C 743.97 -2.19609 5.71348 0
M  V30 7668 N 743.107 -3.29782 6.19829 0
M  V30 7669 H 747.947 -0.187499 2.9741 0
M  V30 7670 H 745.484 -0.0808064 1.46878 0
M  V30 7671 H 747.442 -2.65551 3.21774 0
M  V30 7672 H 746.072 -2.45673 2.09391 0
M  V30 7673 H 745.124 -0.684624 3.74189 0
M  V30 7674 H 746.436 -1.11266 4.86232 0
M  V30 7675 H 745.59 -3.46544 4.97988 0
M  V30 7676 H 744.329 -3.09295 3.77078 0
M  V30 7677 H 743.334 -1.38664 5.32027 0
M  V30 7678 H 744.559 -1.78492 6.55223 0
M  V30 7679 H 742.505 -3.71466 5.40693 0
M  V30 7680 H 742.422 -2.95069 6.96039 0
M  V30 7681 H 743.69 -4.094 6.63334 0
M  V30 7682 N 747.919 -1.57396 -0.0801906 0
M  V30 7683 C 749.33 -1.75642 -0.633002 0
M  V30 7684 C 749.681 -0.817708 -1.78348 0
M  V30 7685 O 748.806 0.000233743 -2.164 0
M  V30 7686 C 749.401 -3.18502 -1.15507 0
M  V30 7687 C 747.96 -3.38121 -1.65381 0
M  V30 7688 C 747.107 -2.71386 -0.569661 0
M  V30 7689 H 750.058 -1.58027 0.145949 0
M  V30 7690 H 750.079 -3.22198 -2.02408 0
M  V30 7691 H 749.591 -3.86799 -0.317515 0
M  V30 7692 H 747.692 -2.74926 -2.51488 0
M  V30 7693 H 747.805 -4.46521 -1.73654 0
M  V30 7694 H 746.169 -2.33702 -1.0127 0
M  V30 7695 H 746.952 -3.42332 0.257561 0
M  V30 7696 N 749.397 0.351382 -1.53633 0
M  V30 7697 C 750.345 1.45142 -1.8176 0
M  V30 7698 C 751.339 1.54819 -0.687571 0
M  V30 7699 O 752.545 1.57536 -0.870772 0
M  V30 7700 H 748.92 0.483789 -0.575719 0
M  V30 7701 H 750.891 1.1863 -2.73806 0
M  V30 7702 C 749.64 2.81779 -2.03706 0
M  V30 7703 H 748.963 2.75097 -2.90107 0
M  V30 7704 H 750.403 3.5789 -2.27356 0
M  V30 7705 C 748.862 3.26762 -0.820271 0
M  V30 7706 O 749.392 4.01697 -0.0158603 0
M  V30 7707 N 747.598 2.83472 -0.639699 0
M  V30 7708 H 747.145 2.22655 -1.29547 0
M  V30 7709 H 747.103 3.13924 0.172995 0
M  V30 7710 N 750.875 1.45233 0.611969 0
M  V30 7711 C 751.822 1.5357 1.72293 0
M  V30 7712 C 752.792 0.381912 1.6165 0
M  V30 7713 O 753.977 0.594765 1.81293 0
M  V30 7714 C 751.117 1.50419 3.10593 0
M  V30 7715 C 750.23 2.76316 3.32074 0
M  V30 7716 C 749.365 2.64866 4.60456 0
M  V30 7717 C 748.404 3.85838 4.7518 0
M  V30 7718 N 747.541 3.72949 5.94856 0
M  V30 7719 H 752.381 2.4848 1.64504 0
M  V30 7720 H 749.918 1.23302 0.802191 0
M  V30 7721 H 751.876 1.4658 3.90602 0
M  V30 7722 H 750.506 0.590621 3.17351 0
M  V30 7723 H 749.558 2.90261 2.45872 0
M  V30 7724 H 750.87 3.66055 3.38829 0
M  V30 7725 H 750.024 2.58969 5.48653 0
M  V30 7726 H 748.763 1.72719 4.56092 0
M  V30 7727 H 747.768 3.92099 3.85407 0
M  V30 7728 H 748.993 4.79045 4.81344 0
M  V30 7729 H 746.939 2.83567 5.91545 0
M  V30 7730 H 746.856 4.56319 6.02751 0
M  V30 7731 H 748.124 3.70976 6.85563 0
M  V30 7732 N 752.353 -0.854086 1.3245 0
M  V30 7733 C 753.3 -1.96271 1.21434 0
M  V30 7734 C 754.27 -1.6582 0.0963851 0
M  V30 7735 O 755.455 -1.88851 0.27203 0
M  V30 7736 C 752.595 -3.31939 0.943952 0
M  V30 7737 C 751.708 -3.74885 2.14675 0
M  V30 7738 C 750.843 -4.99347 1.81179 0
M  V30 7739 C 749.882 -5.34785 2.97777 0
M  V30 7740 N 749.019 -6.50425 2.6437 0
M  V30 7741 H 753.859 -2.05025 2.16261 0
M  V30 7742 H 751.396 -1.00348 1.07558 0
M  V30 7743 H 753.354 -4.10076 0.767675 0
M  V30 7744 H 751.984 -3.22784 0.0324763 0
M  V30 7745 H 751.036 -2.92396 2.43328 0
M  V30 7746 H 752.348 -3.97068 3.01891 0
M  V30 7747 H 751.502 -5.85193 1.60107 0
M  V30 7748 H 750.241 -4.79101 0.911777 0
M  V30 7749 H 749.246 -4.47451 3.1948 0
M  V30 7750 H 750.471 -5.56988 3.88511 0
M  V30 7751 H 748.417 -6.31695 1.7691 0
M  V30 7752 H 748.334 -6.7263 3.45116 0
M  V30 7753 H 749.602 -7.39422 2.46729 0
M  V30 7754 N 753.831 -1.1567 -1.07043 0
M  V30 7755 C 755.08 -0.928039 -1.79082 0
M  V30 7756 C 755.393 0.545968 -1.87826 0
M  V30 7757 O 756.599 0.892308 -2.56418 0
M  V30 7758 C 755.055 -1.61103 -3.21829 0
M  V30 7759 C 754.663 -3.12228 -3.21275 0
M  V30 7760 C 756.407 -1.46404 -3.98455 0
M  V30 7761 C 754.314 -3.733 -4.58695 0
M  V30 7762 H 753.244 -0.34357 -0.671175 0
M  V30 7763 H 755.895 -1.38718 -1.20123 0
M  V30 7764 H 754.277 -1.07958 -3.81 0
M  V30 7765 H 755.451 -3.72155 -2.71731 0
M  V30 7766 H 753.766 -3.26725 -2.58147 0
M  V30 7767 H 756.363 -1.8942 -5.00024 0
M  V30 7768 H 756.706 -0.41195 -4.14257 0
M  V30 7769 H 757.239 -1.96663 -3.45787 0
M  V30 7770 H 753.978 -4.78423 -4.48098 0
M  V30 7771 H 753.498 -3.18157 -5.08465 0
M  V30 7772 H 755.177 -3.7441 -5.27661 0
M  V30 7773 N 755.309 1.25446 -0.953992 0
M  V30 7774 C 756.239 2.28264 -0.491717 0
M  V30 7775 C 757.22 1.63717 0.461617 0
M  V30 7776 O 758.405 1.90821 0.36071 0
M  V30 7777 C 755.535 3.46525 0.231915 0
M  V30 7778 C 754.489 4.23247 -0.636098 0
M  V30 7779 C 753.815 5.34254 0.218238 0
M  V30 7780 C 755.115 4.85971 -1.91389 0
M  V30 7781 H 756.809 2.67183 -1.35106 0
M  V30 7782 H 754.355 1.2844 -0.651095 0
M  V30 7783 H 756.308 4.17576 0.566439 0
M  V30 7784 H 755.032 3.06594 1.12551 0
M  V30 7785 H 753.691 3.53978 -0.953696 0
M  V30 7786 H 753.339 4.90564 1.11156 0
M  V30 7787 H 753.039 5.86501 -0.359232 0
M  V30 7788 H 754.563 6.08138 0.547743 0
M  V30 7789 H 755.977 5.49168 -1.64581 0
M  V30 7790 H 754.374 5.48391 -2.43696 0
M  V30 7791 H 755.444 4.08192 -2.61738 0
M  V30 7792 N 756.787 0.722489 1.40064 0
M  V30 7793 C 757.72 0.0233443 2.28188 0
M  V30 7794 C 758.698 -0.7606 1.43714 0
M  V30 7795 O 759.882 -0.745791 1.73119 0
M  V30 7796 C 757.009 -0.974264 3.24385 0
M  V30 7797 C 756.055 -0.280307 4.25578 0
M  V30 7798 S 756.888 0.996769 5.26141 0
M  V30 7799 C 758.044 0.00143923 6.259 0
M  V30 7800 H 758.277 0.770705 2.87137 0
M  V30 7801 H 755.81 0.513783 1.45601 0
M  V30 7802 H 757.768 -1.5446 3.80332 0
M  V30 7803 H 756.429 -1.69438 2.6448 0
M  V30 7804 H 755.622 -1.03471 4.93264 0
M  V30 7805 H 755.224 0.217657 3.73366 0
M  V30 7806 H 757.516 -0.843126 6.72233 0
M  V30 7807 H 758.459 0.645104 7.05155 0
M  V30 7808 H 758.867 -0.365371 5.63316 0
M  V30 7809 N 758.265 -1.50454 0.469181 0
M  V30 7810 C 759.511 -2.03248 -0.0787241 0
M  V30 7811 C 759.866 -1.34499 -1.37578 0
M  V30 7812 O 759.159 -0.461173 -1.85967 0
M  V30 7813 C 759.353 -3.55963 -0.320207 0
M  V30 7814 C 759.182 -4.3951 0.951893 0
M  V30 7815 C 757.952 -4.82689 1.49465 0
M  V30 7816 C 760.15 -4.79999 1.84677 0
M  V30 7817 N 758.132 -5.50553 2.71597 0
M  V30 7818 C 759.503 -5.47254 2.91398 0
M  V30 7819 C 761.558 -4.61959 1.85738 0
M  V30 7820 C 760.261 -5.98381 3.99166 0
M  V30 7821 C 762.287 -5.14024 2.92461 0
M  V30 7822 C 761.649 -5.81253 3.97901 0
M  V30 7823 H 757.748 -0.78192 0.0111715 0
M  V30 7824 H 760.332 -1.83986 0.636961 0
M  V30 7825 H 758.503 -3.75174 -1.00493 0
M  V30 7826 H 760.235 -3.95407 -0.862285 0
M  V30 7827 H 756.99 -4.61948 1.0441 0
M  V30 7828 H 757.414 -5.89093 3.33615 0
M  V30 7829 H 762.056 -4.09416 1.05539 0
M  V30 7830 H 759.774 -6.49961 4.80183 0
M  V30 7831 H 763.36 -5.01897 2.94263 0
M  V30 7832 H 762.24 -6.20814 4.79123 0
M  V30 7833 N 759.743 -0.201713 -1.56304 0
M  V30 7834 C 760.673 0.71155 -2.22394 0
M  V30 7835 C 761.654 1.21625 -1.18917 0
M  V30 7836 O 762.839 1.26388 -1.47444 0
M  V30 7837 C 759.969 1.92837 -2.88845 0
M  V30 7838 C 758.923 1.55831 -3.98623 0
M  V30 7839 C 758.249 2.85228 -4.52271 0
M  V30 7840 C 759.549 0.763249 -5.16693 0
M  V30 7841 H 761.243 0.160573 -2.98969 0
M  V30 7842 H 758.789 0.0757916 -1.438 0
M  V30 7843 H 760.742 2.57253 -3.33764 0
M  V30 7844 H 759.466 2.50398 -2.09686 0
M  V30 7845 H 758.125 0.9377 -3.54405 0
M  V30 7846 H 757.773 3.40893 -3.69866 0
M  V30 7847 H 757.473 2.6121 -5.26349 0
M  V30 7848 H 758.997 3.50622 -4.99897 0
M  V30 7849 H 760.411 1.31066 -5.58117 0
M  V30 7850 H 758.808 0.620935 -5.96879 0
M  V30 7851 H 759.878 -0.234322 -4.84334 0
M  V30 7852 N 761.222 1.57436 0.0718424 0
M  V30 7853 C 762.468 1.87525 0.772149 0
M  V30 7854 C 762.801 0.79399 1.77227 0
M  V30 7855 O 762.076 -0.195733 1.93513 0
M  V30 7856 C 762.359 3.28272 1.48018 0
M  V30 7857 C 762.212 4.47052 0.49647 0
M  V30 7858 C 763.531 3.67256 2.42509 0
M  V30 7859 H 760.65 0.682049 0.279245 0
M  V30 7860 H 763.292 1.89967 0.03534 0
M  V30 7861 H 761.442 3.26321 2.10824 0
M  V30 7862 H 763.114 4.61127 -0.126375 0
M  V30 7863 H 761.357 4.33392 -0.188205 0
M  V30 7864 H 762.028 5.42315 1.02949 0
M  V30 7865 H 764.504 3.70301 1.89781 0
M  V30 7866 H 763.38 4.66626 2.89053 0
M  V30 7867 H 763.641 2.97186 3.27312 0
M  V30 7868 N 762.7 -0.34323 1.53817 0
M  V30 7869 C 763.948 -1.0813 1.70741 0
M  V30 7870 C 764.269 -1.89165 0.473461 0
M  V30 7871 O 763.539 -1.89075 -0.512605 0
M  V30 7872 H 762.119 -0.40219 0.629486 0
M  V30 7873 H 764.781 -0.384426 1.91071 0
M  V30 7874 H 763.877 -1.7585 2.57843 0
M  V30 7875 N 764.178 -1.45556 -0.604258 0
M  V30 7876 C 765.108 -1.57327 -1.72541 0
M  V30 7877 C 766.089 -0.424637 -1.64714 0
M  V30 7878 O 767.274 -0.648196 -1.83063 0
M  V30 7879 C 764.404 -1.54279 -3.11152 0
M  V30 7880 C 763.358 -2.67893 -3.33792 0
M  V30 7881 C 762.684 -2.499 -4.72709 0
M  V30 7882 C 763.984 -4.0988 -3.23722 0
M  V30 7883 H 765.678 -2.51175 -1.62947 0
M  V30 7884 H 763.224 -1.20884 -0.782504 0
M  V30 7885 H 765.177 -1.6111 -3.89386 0
M  V30 7886 H 763.901 -0.569627 -3.21594 0
M  V30 7887 H 762.56 -2.60495 -2.57949 0
M  V30 7888 H 762.208 -1.50715 -4.79889 0
M  V30 7889 H 761.908 -3.26091 -4.88813 0
M  V30 7890 H 763.432 -2.5859 -5.5314 0
M  V30 7891 H 764.846 -4.18503 -3.91826 0
M  V30 7892 H 763.243 -4.86487 -3.51355 0
M  V30 7893 H 764.313 -4.31553 -2.21111 0
M  V30 7894 N 765.656 0.84705 -1.32902 0
M  V30 7895 C 766.588 1.96308 -1.18304 0
M  V30 7896 C 767.601 1.62386 -0.116082 0
M  V30 7897 O 768.79 1.74713 -0.365751 0
M  V30 7898 C 765.89 3.29556 -0.790305 0
M  V30 7899 C 765.063 3.91668 -1.94717 0
M  V30 7900 C 764.122 5.0326 -1.53674 0
M  V30 7901 O 763.148 5.22847 -2.24989 0
M  V30 7902 N 764.35 5.78852 -0.437075 0
M  V30 7903 H 767.115 2.09369 -2.14441 0
M  V30 7904 H 764.676 1.02233 -1.25539 0
M  V30 7905 H 766.668 4.01624 -0.49799 0
M  V30 7906 H 765.238 3.12497 0.0801286 0
M  V30 7907 H 764.458 3.12292 -2.40557 0
M  V30 7908 H 765.746 4.299 -2.72146 0
M  V30 7909 H 765.144 5.65484 0.156316 0
M  V30 7910 H 763.701 6.51479 -0.204399 0
M  V30 7911 N 767.134 1.16236 1.06428 0
M  V30 7912 C 768.082 0.863669 2.15971 0
M  V30 7913 C 769.076 -0.166723 1.68578 0
M  V30 7914 O 770.282 -0.0208425 1.79988 0
M  V30 7915 H 766.657 0.261684 0.705 0
M  V30 7916 H 768.628 1.79498 2.38376 0
M  V30 7917 C 767.377 0.379697 3.45621 0
M  V30 7918 H 766.7 1.16399 3.82481 0
M  V30 7919 H 768.14 0.209458 4.23482 0
M  V30 7920 C 766.599 -0.900499 3.24642 0
M  V30 7921 O 767.129 -1.97004 3.50074 0
M  V30 7922 N 765.335 -0.843721 2.78082 0
M  V30 7923 H 764.882 0.0268429 2.57586 0
M  V30 7924 H 764.84 -1.70078 2.64425 0
M  V30 7925 N 768.612 -1.24939 0.960631 0
M  V30 7926 C 769.858 -1.93104 0.61958 0
M  V30 7927 C 770.191 -1.74991 -0.84212 0
M  V30 7928 O 769.466 -1.09867 -1.60498 0
M  V30 7929 C 769.749 -3.46326 0.986422 0
M  V30 7930 C 769.602 -3.73638 2.50429 0
M  V30 7931 C 770.921 -4.37067 0.515827 0
M  V30 7932 H 768.04 -0.701311 0.226566 0
M  V30 7933 H 770.682 -1.47442 1.19836 0
M  V30 7934 H 768.832 -3.85348 0.493907 0
M  V30 7935 H 770.504 -3.44217 3.07103 0
M  V30 7936 H 768.747 -3.19035 2.93937 0
M  V30 7937 H 769.418 -4.80815 2.71147 0
M  V30 7938 H 771.894 -4.05381 0.938389 0
M  V30 7939 H 770.77 -5.43022 0.80114 0
M  V30 7940 H 771.031 -4.38224 -0.584171 0
M  V30 7941 N 770.09 -0.729906 -1.39679 0
M  V30 7942 C 771.337 -0.275622 -2.00615 0
M  V30 7943 C 771.665 1.13559 -1.57907 0
M  V30 7944 O 770.92 1.78745 -0.796789 0
M  V30 7945 C 771.219 -0.319564 -3.55968 0
M  V30 7946 C 770.885 -1.68308 -4.1831 0
M  V30 7947 C 769.547 -2.05629 -4.35052 0
M  V30 7948 C 771.899 -2.57857 -4.52945 0
M  V30 7949 C 769.227 -3.32018 -4.83716 0
M  V30 7950 C 771.579 -3.83613 -5.03015 0
M  V30 7951 C 770.243 -4.21033 -5.17965 0
M  V30 7952 H 769.513 -0.100857 -0.734104 0
M  V30 7953 H 772.16 -0.93575 -1.67081 0
M  V30 7954 H 770.465 0.42414 -3.89497 0
M  V30 7955 H 772.162 0.0499905 -4.00969 0
M  V30 7956 H 768.752 -1.3829 -4.05677 0
M  V30 7957 H 772.936 -2.30295 -4.39634 0
M  V30 7958 H 768.192 -3.6096 -4.93475 0
M  V30 7959 H 772.366 -4.53162 -5.28788 0
M  V30 7960 H 769.993 -5.19034 -5.55435 0
M  V30 7961 N 771.568 1.50203 -0.477153 0
M  V30 7962 C 772.793 2.07263 0.0754986 0
M  V30 7963 C 773.218 1.33801 1.32208 0
M  V30 7964 O 772.576 0.387482 1.77111 0
M  V30 7965 C 772.624 3.59028 0.336348 0
M  V30 7966 O 771.728 3.87339 1.4157 0
M  V30 7967 H 771.069 0.663815 -0.015662 0
M  V30 7968 H 773.599 1.93321 -0.669936 0
M  V30 7969 H 773.609 4.03927 0.575034 0
M  V30 7970 H 772.284 4.11912 -0.574551 0
M  V30 7971 H 770.861 3.54272 1.16385 0
M  V30 7972 N 773.046 0.209999 1.56195 0
M  V30 7973 C 773.996 -0.717978 2.164 0
M  V30 7974 C 774.98 -1.16577 1.10899 0
M  V30 7975 O 776.172 -1.12169 1.3692 0
M  V30 7976 C 773.301 -1.93091 2.8385 0
M  V30 7977 C 772.387 -1.50333 3.96561 0
M  V30 7978 N 772.778 -0.787621 4.9963 0
M  V30 7979 C 771.076 -1.79151 4.08437 0
M  V30 7980 C 771.777 -0.571204 5.78889 0
M  V30 7981 N 770.753 -1.12444 5.31843 0
M  V30 7982 H 774.555 -0.162603 2.9345 0
M  V30 7983 H 772.069 0.0107928 1.62396 0
M  V30 7984 H 774.066 -2.60635 3.25384 0
M  V30 7985 H 772.726 -2.49087 2.08293 0
M  V30 7986 H 773.737 -0.441513 5.16015 0
M  V30 7987 H 770.414 -2.36549 3.44022 0
M  V30 7988 H 771.804 -0.00237941 6.719 0
M  V30 7989 N 774.524 -1.57472 -0.0634922 0
M  V30 7990 C 775.456 -2.00999 -1.10145 0
M  V30 7991 C 776.469 -0.917219 -1.34503 0
M  V30 7992 O 777.658 -1.19501 -1.32596 0
M  V30 7993 C 774.758 -2.34089 -2.45063 0
M  V30 7994 C 773.931 -3.65317 -2.40546 0
M  V30 7995 C 772.99 -3.85982 -3.57637 0
M  V30 7996 O 772.016 -4.5747 -3.38689 0
M  V30 7997 N 773.218 -3.28971 -4.78287 0
M  V30 7998 H 775.983 -2.90656 -0.730714 0
M  V30 7999 H 773.544 -1.59926 -0.252017 0
M  V30 8000 H 775.536 -2.4508 -3.22053 0
M  V30 8001 H 774.106 -1.50279 -2.74107 0
M  V30 8002 H 773.326 -3.65003 -1.48885 0
M  V30 8003 H 774.614 -4.51468 -2.34636 0
M  V30 8004 H 774.012 -2.70962 -4.96584 0
M  V30 8005 H 772.569 -3.45398 -5.5276 0
M  V30 8006 N 776.003 0.335068 -1.53997 0
M  V30 8007 C 776.933 1.41727 -1.85568 0
M  V30 8008 C 777.914 1.54505 -0.7115 0
M  V30 8009 O 779.099 1.68573 -0.964191 0
M  V30 8010 C 776.229 2.7866 -2.07282 0
M  V30 8011 C 775.183 2.80682 -3.23112 0
M  V30 8012 C 774.509 4.20581 -3.30175 0
M  V30 8013 C 775.809 2.45458 -4.61029 0
M  V30 8014 H 777.503 1.15555 -2.76202 0
M  V30 8015 H 775.049 0.554445 -1.32898 0
M  V30 8016 H 777.002 3.54423 -2.27952 0
M  V30 8017 H 775.726 3.06286 -1.13387 0
M  V30 8018 H 774.385 2.07373 -3.02311 0
M  V30 8019 H 774.033 4.4533 -2.33859 0
M  V30 8020 H 773.733 4.22843 -4.08016 0
M  V30 8021 H 775.257 4.98174 -3.53066 0
M  V30 8022 H 776.671 3.10934 -4.81656 0
M  V30 8023 H 775.068 2.5899 -5.41336 0
M  V30 8024 H 776.138 1.40628 -4.6406 0
M  V30 8025 N 777.481 1.45874 0.596531 0
M  V30 8026 C 778.892 1.44798 1.17857 0
M  V30 8027 C 779.243 0.181443 1.95359 0
M  V30 8028 O 778.368 -0.716336 2.042 0
M  V30 8029 C 778.963 2.62333 2.14398 0
M  V30 8030 C 777.522 2.64342 2.67955 0
M  V30 8031 C 776.669 2.37244 1.43564 0
M  V30 8032 H 779.62 1.53954 0.385222 0
M  V30 8033 H 779.641 2.37063 2.97626 0
M  V30 8034 H 779.153 3.54499 1.57963 0
M  V30 8035 H 777.254 1.76213 3.28298 0
M  V30 8036 H 777.367 3.63897 3.11634 0
M  V30 8037 H 775.731 1.87022 1.72901 0
M  V30 8038 H 776.514 3.31568 0.889805 0
M  V30 8039 N 778.959 -0.83999 1.33349 0
M  V30 8040 C 780.375 -1.13049 1.12659 0
M  V30 8041 C 780.575 -2.01328 -0.0832613 0
M  V30 8042 O 779.631 -2.40669 -0.763856 0
M  V30 8043 C 780.944 -1.79366 2.41347 0
M  V30 8044 C 782.492 -1.91937 2.47243 0
M  V30 8045 C 782.967 -2.6167 3.75889 0
M  V30 8046 N 784.458 -2.69184 3.76954 0
M  V30 8047 C 785.193 -3.23827 4.73206 0
M  V30 8048 N 784.689 -3.79166 5.79832 0
M  V30 8049 N 786.482 -3.22068 4.60683 0
M  V30 8050 H 778.633 -0.252432 2.10895 0
M  V30 8051 H 780.896 -0.174501 0.931801 0
M  V30 8052 H 780.602 -1.2196 3.29877 0
M  V30 8053 H 780.476 -2.79396 2.53412 0
M  V30 8054 H 782.863 -2.48498 1.59163 0
M  V30 8055 H 782.944 -0.908604 2.39119 0
M  V30 8056 H 782.588 -2.05769 4.64351 0
M  V30 8057 H 782.518 -3.63217 3.81289 0
M  V30 8058 H 785.009 -2.2994 2.99893 0
M  V30 8059 H 785.322 -4.19061 6.49313 0
M  V30 8060 H 783.667 -3.77457 5.83568 0
M  V30 8061 H 786.858 -2.78092 3.7654 0
M  V30 8062 H 787.031 -3.64351 5.35866 0
M  V30 8063 N 780.437 -1.16799 -1.0581 0
M  V30 8064 C 781.37 -0.822491 -2.12862 0
M  V30 8065 C 782.348 0.208006 -1.61264 0
M  V30 8066 O 783.532 0.0909652 -1.8828 0
M  V30 8067 C 780.659 -0.225826 -3.37946 0
M  V30 8068 C 779.705 -1.23071 -4.08357 0
M  V30 8069 S 780.538 -2.77944 -4.5772 0
M  V30 8070 C 781.694 -2.19741 -5.86059 0
M  V30 8071 H 781.927 -1.72917 -2.41841 0
M  V30 8072 H 779.46 -0.991982 -1.18318 0
M  V30 8073 H 781.418 0.111955 -4.10347 0
M  V30 8074 H 780.079 0.658692 -3.07116 0
M  V30 8075 H 779.272 -0.761758 -4.9821 0
M  V30 8076 H 778.874 -1.51383 -3.41993 0
M  V30 8077 H 781.166 -1.5691 -6.59079 0
M  V30 8078 H 782.109 -3.07823 -6.37692 0
M  V30 8079 H 782.517 -1.63433 -5.40324 0
M  V30 8080 N 781.915 1.24427 -0.967243 0
M  V30 8081 C 783.326 1.74349 -0.667785 0
M  V30 8082 C 783.677 1.78403 0.816509 0
M  V30 8083 O 782.802 1.41315 1.63887 0
M  V30 8084 C 783.397 3.16628 -1.20548 0
M  V30 8085 C 781.956 3.64059 -0.955934 0
M  V30 8086 C 781.103 2.42715 -1.34106 0
M  V30 8087 H 784.054 1.10136 -1.14262 0
M  V30 8088 H 784.075 3.76183 -0.571547 0
M  V30 8089 H 783.587 3.13646 -2.28578 0
M  V30 8090 H 781.688 3.72441 0.108858 0
M  V30 8091 H 781.801 4.51549 -1.60126 0
M  V30 8092 H 780.165 2.43114 -0.759452 0
M  V30 8093 H 780.948 2.42414 -2.43085 0
M  V30 8094 N 783.393 0.737304 1.3929 0
M  V30 8095 C 784.34 0.0988364 2.30588 0
M  V30 8096 C 785.31 -0.727206 1.49335 0
M  V30 8097 O 786.495 -0.686694 1.78014 0
M  V30 8098 C 783.635 -0.800734 3.35682 0
M  V30 8099 C 782.748 0.0381731 4.31983 0
M  V30 8100 C 781.883 -0.862884 5.24145 0
M  V30 8101 C 780.922 -0.0193639 6.12097 0
M  V30 8102 N 780.059 -0.87648 6.96608 0
M  V30 8103 H 784.899 0.883031 2.84617 0
M  V30 8104 H 782.436 0.447111 1.4014 0
M  V30 8105 H 784.394 -1.33676 3.95205 0
M  V30 8106 H 783.024 -1.55088 2.83103 0
M  V30 8107 H 782.076 0.691641 3.74059 0
M  V30 8108 H 783.388 0.690294 4.94 0
M  V30 8109 H 782.542 -1.46667 5.88705 0
M  V30 8110 H 781.281 -1.54878 4.62454 0
M  V30 8111 H 780.286 0.597202 5.46547 0
M  V30 8112 H 781.511 0.663348 6.75852 0
M  V30 8113 H 779.457 -1.54762 6.37483 0
M  V30 8114 H 779.374 -0.280892 7.55478 0
M  V30 8115 H 780.642 -1.46575 7.65595 0
M  V30 8116 N 784.871 -1.49948 0.485112 0
M  V30 8117 C 785.781 -2.32587 -0.306697 0
M  V30 8118 C 786.797 -1.43598 -0.982632 0
M  V30 8119 O 787.973 -1.76638 -0.967519 0
M  V30 8120 C 785.038 -3.18638 -1.3664 0
M  V30 8121 C 784.099 -4.23462 -0.705589 0
M  V30 8122 C 783.332 -5.05401 -1.7148 0
M  V30 8123 O 783.555 -4.88618 -2.94293 0
M  V30 8124 O 782.489 -5.88157 -1.27889 0
M  V30 8125 H 786.315 -3.01447 0.369272 0
M  V30 8126 H 783.9 -1.47349 0.246709 0
M  V30 8127 H 785.782 -3.71992 -1.9799 0
M  V30 8128 H 784.457 -2.52491 -2.02559 0
M  V30 8129 H 783.364 -3.74063 -0.0527733 0
M  V30 8130 H 784.697 -4.92119 -0.0891187 0
M  V30 8131 N 786.349 -0.21828 -1.56081 0
M  V30 8132 C 787.579 0.41865 -2.02314 0
M  V30 8133 C 787.987 1.54124 -1.09739 0
M  V30 8134 O 787.33 1.83435 -0.0986829 0
M  V30 8135 C 787.392 1.01439 -3.44892 0
M  V30 8136 C 787.056 0.0276523 -4.56992 0
M  V30 8137 C 788.053 -0.771526 -5.14143 0
M  V30 8138 C 785.738 -0.0901537 -5.02219 0
M  V30 8139 C 787.732 -1.67525 -6.14991 0
M  V30 8140 C 785.419 -0.997411 -6.02905 0
M  V30 8141 C 786.417 -1.78851 -6.59167 0
M  V30 8142 O 786.105 -2.68052 -7.57894 0
M  V30 8143 H 785.837 0.107066 -0.667468 0
M  V30 8144 H 788.391 -0.331191 -2.02712 0
M  V30 8145 H 786.621 1.81326 -3.41552 0
M  V30 8146 H 788.31 1.55838 -3.74792 0
M  V30 8147 H 789.076 -0.690945 -4.80053 0
M  V30 8148 H 784.955 0.515474 -4.58109 0
M  V30 8149 H 788.499 -2.29316 -6.58832 0
M  V30 8150 H 784.396 -1.07902 -6.36418 0
M  V30 8151 H 785.164 -2.6209 -7.75404 0
M  V30 8152 N 787.827 1.57504 0.0551401 0
M  V30 8153 C 789.076 1.87237 0.750009 0
M  V30 8154 C 789.389 0.813268 1.77891 0
M  V30 8155 O 790.595 0.99898 2.52453 0
M  V30 8156 C 789.051 3.32187 1.38491 0
M  V30 8157 C 788.659 4.46267 0.393707 0
M  V30 8158 C 790.403 3.71101 2.06117 0
M  V30 8159 C 788.31 5.82265 1.03547 0
M  V30 8160 H 787.24 0.698524 0.283866 0
M  V30 8161 H 789.891 1.835 0.00365997 0
M  V30 8162 H 788.273 3.30588 2.18008 0
M  V30 8163 H 789.447 4.59289 -0.372865 0
M  V30 8164 H 787.762 4.16015 -0.17902 0
M  V30 8165 H 790.359 4.70012 2.54937 0
M  V30 8166 H 790.702 3.01751 2.86796 0
M  V30 8167 H 791.235 3.74762 1.33409 0
M  V30 8168 H 787.974 6.54949 0.268644 0
M  V30 8169 H 787.494 5.73012 1.7725 0
M  V30 8170 H 789.173 6.28148 1.55047 0
M  V30 8171 N 789.305 -0.326896 1.54172 0
M  V30 8172 C 790.533 -1.08486 1.76177 0
M  V30 8173 C 790.948 -1.81815 0.508788 0
M  V30 8174 O 790.305 -1.74924 -0.520362 0
M  V30 8175 C 790.356 -2.08552 2.95276 0
M  V30 8176 O 790.077 -1.38202 4.15731 0
M  V30 8177 C 791.578 -2.96593 3.29466 0
M  V30 8178 H 788.798 -0.322835 0.588233 0
M  V30 8179 H 791.342 -0.374036 2.0105 0
M  V30 8180 H 789.497 -2.75174 2.72687 0
M  V30 8181 H 789.911 -2.05186 4.827 0
M  V30 8182 H 791.385 -3.62708 4.16109 0
M  V30 8183 H 791.862 -3.63511 2.46487 0
M  V30 8184 H 792.468 -2.35537 3.54122 0
M  V30 8185 N 790.784 -1.46188 -0.588786 0
M  V30 8186 C 792.2 -1.31009 -0.911524 0
M  V30 8187 C 792.4 -0.277017 -1.99587 0
M  V30 8188 O 791.456 0.322532 -2.50432 0
M  V30 8189 C 792.769 -2.69459 -1.33463 0
M  V30 8190 C 794.317 -2.77502 -1.44782 0
M  V30 8191 C 794.792 -4.1652 -1.90461 0
M  V30 8192 N 796.283 -4.18907 -1.97665 0
M  V30 8193 C 797.018 -5.23359 -2.34271 0
M  V30 8194 N 796.514 -6.38143 -2.69714 0
M  V30 8195 N 798.307 -5.10723 -2.34774 0
M  V30 8196 H 790.458 -2.12016 0.127614 0
M  V30 8197 H 792.721 -0.947984 -0.00557599 0
M  V30 8198 H 792.427 -3.46336 -0.611929 0
M  V30 8199 H 792.301 -2.99165 -2.2974 0
M  V30 8200 H 794.688 -2.00917 -2.1614 0
M  V30 8201 H 794.769 -2.51488 -0.467724 0
M  V30 8202 H 794.413 -4.93597 -1.19684 0
M  V30 8203 H 794.343 -4.39937 -2.89418 0
M  V30 8204 H 796.834 -3.36084 -1.72789 0
M  V30 8205 H 797.147 -7.13624 -2.96582 0
M  V30 8206 H 795.492 -6.41514 -2.67366 0
M  V30 8207 H 798.683 -4.20088 -2.06503 0
M  V30 8208 H 798.856 -5.9224 -2.62975 0
M  V30 8209 N 792.262 0.832906 -1.33792 0
M  V30 8210 C 793.192 1.95828 -1.27176 0
M  V30 8211 C 794.173 1.69427 -0.15114 0
M  V30 8212 O 795.358 1.91167 -0.341886 0
M  V30 8213 C 792.488 3.32098 -1.01629 0
M  V30 8214 C 791.442 3.72912 -2.10049 0
M  V30 8215 C 790.768 5.07054 -1.69706 0
M  V30 8216 C 792.068 3.86064 -3.51783 0
M  V30 8217 H 793.762 2.01622 -2.21334 0
M  V30 8218 H 791.308 0.96866 -1.0655 0
M  V30 8219 H 793.261 4.10402 -0.956474 0
M  V30 8220 H 791.985 3.26577 -0.0390956 0
M  V30 8221 H 790.644 2.96876 -2.15082 0
M  V30 8222 H 790.292 4.9801 -0.706737 0
M  V30 8223 H 789.992 5.35333 -2.42264 0
M  V30 8224 H 791.516 5.87827 -1.65202 0
M  V30 8225 H 792.93 4.54665 -3.49218 0
M  V30 8226 H 791.327 4.25787 -4.22878 0
M  V30 8227 H 792.397 2.88344 -3.89854 0
M  V30 8228 N 793.74 1.17359 1.05189 0
M  V30 8229 C 794.986 0.963413 1.78455 0
M  V30 8230 C 795.319 -0.506703 1.87473 0
M  V30 8231 O 794.594 -1.37611 1.37453 0
M  V30 8232 C 794.877 1.60519 3.22344 0
M  V30 8233 C 794.73 3.14741 3.21338 0
M  V30 8234 C 796.049 1.3091 4.20179 0
M  V30 8235 H 793.168 0.351412 0.647826 0
M  V30 8236 H 795.81 1.44858 1.22948 0
M  V30 8237 H 793.96 1.19265 3.69741 0
M  V30 8238 H 795.632 3.65053 2.82017 0
M  V30 8239 H 793.875 3.4749 2.59679 0
M  V30 8240 H 794.546 3.54775 4.22894 0
M  V30 8241 H 797.022 1.66635 3.81277 0
M  V30 8242 H 795.898 1.784 5.191 0
M  V30 8243 H 796.159 0.229908 4.41502 0
M  V30 8244 N 795.218 -1.23913 0.973828 0
M  V30 8245 C 796.465 -1.92151 0.639079 0
M  V30 8246 C 796.793 -1.76064 -0.826545 0
M  V30 8247 O 796.048 -1.11126 -1.61088 0
M  V30 8248 C 796.347 -3.4406 0.967356 0
M  V30 8249 C 796.013 -3.80321 2.42212 0
M  V30 8250 C 794.675 -3.8993 2.81971 0
M  V30 8251 C 797.027 -3.97935 3.36596 0
M  V30 8252 C 794.355 -4.14575 4.15144 0
M  V30 8253 C 796.707 -4.24079 4.69404 0
M  V30 8254 C 795.371 -4.31908 5.08932 0
M  V30 8255 H 794.641 -0.70313 0.233856 0
M  V30 8256 H 797.288 -1.47072 1.22646 0
M  V30 8257 H 795.593 -3.90667 0.297807 0
M  V30 8258 H 797.29 -3.95077 0.686654 0
M  V30 8259 H 793.88 -3.73411 2.10385 0
M  V30 8260 H 798.064 -3.89908 3.07059 0
M  V30 8261 H 793.32 -4.18858 4.45385 0
M  V30 8262 H 797.494 -4.36652 5.42502 0
M  V30 8263 H 795.121 -4.50758 6.12145 0
M  V30 8264 N 796.696 -0.74468 -1.38897 0
M  V30 8265 C 797.973 -0.222773 -1.94327 0
M  V30 8266 C 798.353 1.27731 -1.68071 0
M  V30 8267 O 797.701 2.04754 -1.01429 0
M  V30 8268 C 797.911 -0.566836 -3.44366 0
M  V30 8269 C 799.259 -0.521531 -4.21385 0
M  V30 8270 O 800.283 -0.504599 -3.52608 0
M  V30 8271 O 799.142 -0.524595 -5.43976 0
M  V30 8272 H 796.236 -0.0439259 -0.825833 0
M  V30 8273 H 798.782 -0.824197 -1.48341 0
M  V30 8274 H 797.554 -1.60321 -3.56949 0
M  V30 8275 H 797.177 0.0630577 -3.9755 0
M  V30 8276 N 798.174 1.49689 -0.493057 0
M  V30 8277 C 799.585 1.8665 -0.0433032 0
M  V30 8278 C 799.936 1.40607 1.36836 0
M  V30 8279 O 799.061 0.780503 2.01834 0
M  V30 8280 C 799.656 3.38724 -0.0718069 0
M  V30 8281 C 798.215 3.75015 0.32257 0
M  V30 8282 C 797.362 2.7366 -0.4478 0
M  V30 8283 H 800.313 1.42119 -0.706246 0
M  V30 8284 H 800.334 3.73522 0.725347 0
M  V30 8285 H 799.846 3.72204 -1.09935 0
M  V30 8286 H 797.947 3.47142 1.35364 0
M  V30 8287 H 798.06 4.79099 0.00864259 0
M  V30 8288 H 796.424 2.54498 0.101354 0
M  V30 8289 H 797.207 3.09985 -1.47527 0
M  V30 8290 N 799.652 0.226554 1.55963 0
M  V30 8291 C 800.599 -0.681504 2.20509 0
M  V30 8292 C 801.569 -1.1866 1.16229 0
M  V30 8293 O 802.754 -1.24478 1.44602 0
M  V30 8294 C 799.894 -1.88183 2.89277 0
M  V30 8295 C 799.007 -1.41517 4.08163 0
M  V30 8296 C 798.142 -2.57346 4.647 0
M  V30 8297 C 797.181 -2.07441 5.75877 0
M  V30 8298 N 796.318 -3.16561 6.26685 0
M  V30 8299 H 801.158 -0.124372 2.9774 0
M  V30 8300 H 798.695 -0.0496333 1.47016 0
M  V30 8301 H 800.653 -2.58666 3.27335 0
M  V30 8302 H 799.283 -2.41177 2.14555 0
M  V30 8303 H 798.335 -0.605099 3.75557 0
M  V30 8304 H 799.647 -1.00928 4.88482 0
M  V30 8305 H 798.801 -3.35903 5.05227 0
M  V30 8306 H 797.54 -3.01227 3.83554 0
M  V30 8307 H 796.545 -1.27347 5.34848 0
M  V30 8308 H 797.77 -1.64554 6.58862 0
M  V30 8309 H 795.716 -3.59914 5.48451 0
M  V30 8310 H 795.633 -2.80239 7.02141 0
M  V30 8311 H 796.901 -3.95238 6.71868 0
M  V30 8312 N 801.13 -1.57531 -0.0467866 0
M  V30 8313 C 802.08 -2.01845 -1.06031 0
M  V30 8314 C 803.064 -0.904662 -1.33059 0
M  V30 8315 O 804.256 -1.16858 -1.32941 0
M  V30 8316 C 801.385 -2.48673 -2.36679 0
M  V30 8317 C 800.471 -3.66837 -2.12818 0
M  V30 8318 N 800.862 -4.80172 -1.5896 0
M  V30 8319 C 799.16 -3.73869 -2.43183 0
M  V30 8320 C 799.861 -5.61895 -1.50494 0
M  V30 8321 N 798.837 -5.0648 -1.97431 0
M  V30 8322 H 802.639 -2.869 -0.637623 0
M  V30 8323 H 800.153 -1.6041 -0.253427 0
M  V30 8324 H 802.15 -2.78671 -3.10077 0
M  V30 8325 H 800.81 -1.65016 -2.79642 0
M  V30 8326 H 801.821 -5.01967 -1.27474 0
M  V30 8327 H 798.498 -3.00977 -2.89342 0
M  V30 8328 H 799.888 -6.62918 -1.09494 0
M  V30 8329 N 802.608 0.318715 -1.54344 0
M  V30 8330 C 803.555 1.39242 -1.84066 0
M  V30 8331 C 804.525 1.51175 -0.688134 0
M  V30 8332 O 805.71 1.66318 -0.935039 0
M  V30 8333 C 802.85 2.75528 -2.07794 0
M  V30 8334 C 801.963 2.72187 -3.35467 0
M  V30 8335 C 801.098 4.00352 -3.4913 0
M  V30 8336 C 800.137 3.91338 -4.7066 0
M  V30 8337 N 799.274 5.11242 -4.81224 0
M  V30 8338 H 804.114 1.13196 -2.75664 0
M  V30 8339 H 801.651 0.547857 -1.36517 0
M  V30 8340 H 803.609 3.54763 -2.19543 0
M  V30 8341 H 802.239 2.99873 -1.19482 0
M  V30 8342 H 801.291 1.84917 -3.3243 0
M  V30 8343 H 802.603 2.61411 -4.24812 0
M  V30 8344 H 801.757 4.88019 -3.60448 0
M  V30 8345 H 800.496 4.1394 -2.57886 0
M  V30 8346 H 799.501 3.02055 -4.59394 0
M  V30 8347 H 800.726 3.7931 -5.63294 0
M  V30 8348 H 798.672 5.25327 -3.92897 0
M  V30 8349 H 798.589 5.0282 -5.64543 0
M  V30 8350 H 799.857 6.0061 -4.96879 0
M  V30 8351 N 804.086 1.46499 0.581025 0
M  V30 8352 C 805.314 1.5547 1.36517 0
M  V30 8353 C 805.729 0.196407 1.87776 0
M  V30 8354 O 805.086 -0.806577 1.63709 0
M  V30 8355 C 805.137 2.56084 2.55154 0
M  V30 8356 O 804.858 3.86637 2.06018 0
M  V30 8357 C 806.359 2.75011 3.47683 0
M  V30 8358 H 803.579 0.525703 0.416986 0
M  V30 8359 H 806.123 1.9192 0.706177 0
M  V30 8360 H 804.278 2.22633 3.17039 0
M  V30 8361 H 804.692 4.41413 2.83292 0
M  V30 8362 H 806.166 3.49329 4.27403 0
M  V30 8363 H 806.643 1.81978 3.99726 0
M  V30 8364 H 807.249 3.09565 2.91632 0
M  V30 8365 N 805.565 -0.825799 1.34232 0
M  V30 8366 C 806.495 -1.95151 1.28212 0
M  V30 8367 C 807.476 -1.69345 0.160123 0
M  V30 8368 O 808.661 -1.90983 0.352019 0
M  V30 8369 C 805.791 -3.31554 1.03388 0
M  V30 8370 C 804.745 -3.71793 2.12023 0
M  V30 8371 C 804.071 -5.06147 1.72392 0
M  V30 8372 C 805.371 -3.84193 3.53826 0
M  V30 8373 H 807.065 -2.00445 2.22401 0
M  V30 8374 H 804.611 -0.962996 1.07063 0
M  V30 8375 H 806.564 -4.09889 0.978225 0
M  V30 8376 H 805.288 -3.26551 0.0564142 0
M  V30 8377 H 803.947 -2.95731 2.16654 0
M  V30 8378 H 803.595 -4.97628 0.733137 0
M  V30 8379 H 803.295 -5.34041 2.451 0
M  V30 8380 H 804.819 -5.86943 1.68317 0
M  V30 8381 H 806.233 -4.52806 3.51624 0
M  V30 8382 H 804.63 -4.23538 4.2513 0
M  V30 8383 H 805.7 -2.86272 3.91377 0
M  V30 8384 N 807.043 -1.17915 -1.04565 0
M  V30 8385 C 808.006 -0.903787 -2.10628 0
M  V30 8386 C 809.006 0.10873 -1.60432 0
M  V30 8387 O 810.196 -0.124152 -1.73757 0
M  V30 8388 C 807.328 -0.355017 -3.39046 0
M  V30 8389 H 808.521 -1.84425 -2.3649 0
M  V30 8390 H 806.074 -0.990477 -1.2091 0
M  V30 8391 H 806.809 0.592297 -3.18845 0
M  V30 8392 H 806.594 -1.08484 -3.76794 0
M  V30 8393 H 808.084 -0.180891 -4.17208 0
M  V30 8394 N 808.521 1.23394 -0.980386 0
M  V30 8395 C 809.451 2.2717 -0.540024 0
M  V30 8396 C 810.432 1.64659 0.426787 0
M  V30 8397 O 811.617 1.91543 0.320153 0
M  V30 8398 C 808.747 3.46939 0.15836 0
M  V30 8399 C 807.701 4.21802 -0.725732 0
M  V30 8400 C 807.027 5.34597 0.104866 0
M  V30 8401 C 808.327 4.81802 -2.01654 0
M  V30 8402 H 810.021 2.64257 -1.40743 0
M  V30 8403 H 807.567 1.2703 -0.678193 0
M  V30 8404 H 809.52 4.18683 0.477737 0
M  V30 8405 H 808.244 3.08912 1.06022 0
M  V30 8406 H 806.903 3.51875 -1.02857 0
M  V30 8407 H 806.551 4.92812 1.00726 0
M  V30 8408 H 806.251 5.85607 -0.483557 0
M  V30 8409 H 807.775 6.09163 0.418624 0
M  V30 8410 H 809.189 5.45554 -1.76193 0
M  V30 8411 H 807.586 5.43098 -2.55273 0
M  V30 8412 H 808.656 4.02549 -2.70338 0
M  V30 8413 N 809.999 0.752036 1.385 0
M  V30 8414 C 811.248 0.304294 1.99391 0
M  V30 8415 C 811.561 -1.11982 1.60373 0
M  V30 8416 O 812.767 -1.66795 2.14223 0
M  V30 8417 C 811.223 0.493101 3.56506 0
M  V30 8418 C 810.831 1.9262 4.04477 0
M  V30 8419 C 812.575 0.107994 4.24363 0
M  V30 8420 C 810.482 2.06365 5.54227 0
M  V30 8421 H 809.412 0.110024 0.745929 0
M  V30 8422 H 812.063 0.928355 1.58284 0
M  V30 8423 H 810.445 -0.20012 3.95494 0
M  V30 8424 H 811.619 2.65276 3.76783 0
M  V30 8425 H 809.934 2.26608 3.49339 0
M  V30 8426 H 812.531 0.189474 5.34364 0
M  V30 8427 H 812.874 -0.939165 4.05568 0
M  V30 8428 H 813.407 0.753011 3.90608 0
M  V30 8429 H 810.146 3.0933 5.77923 0
M  V30 8430 H 809.666 1.38167 5.83669 0
M  V30 8431 H 811.345 1.85286 6.19902 0
M  V30 8432 N 811.477 -1.49425 0.500989 0
M  V30 8433 C 812.424 -2.29126 -0.277443 0
M  V30 8434 C 813.394 -1.35522 -0.960363 0
M  V30 8435 O 814.579 -1.64479 -0.967027 0
M  V30 8436 C 811.719 -3.18193 -1.33593 0
M  V30 8437 C 810.832 -4.26854 -0.664791 0
M  V30 8438 C 809.967 -5.03137 -1.70372 0
M  V30 8439 C 809.006 -6.03635 -1.01445 0
M  V30 8440 N 808.143 -6.73083 -1.99758 0
M  V30 8441 H 812.983 -2.95187 0.408458 0
M  V30 8442 H 810.52 -1.45546 0.213275 0
M  V30 8443 H 812.478 -3.68207 -1.96161 0
M  V30 8444 H 811.108 -2.54116 -1.9906 0
M  V30 8445 H 810.16 -3.80328 0.0741708 0
M  V30 8446 H 811.472 -4.9865 -0.122197 0
M  V30 8447 H 810.626 -5.5702 -2.40445 0
M  V30 8448 H 809.365 -4.31114 -2.28017 0
M  V30 8449 H 808.37 -5.48984 -0.299496 0
M  V30 8450 H 809.595 -6.77644 -0.444497 0
M  V30 8451 H 807.541 -6.03832 -2.56365 0
M  V30 8452 H 807.458 -7.40855 -1.50565 0
M  V30 8453 H 808.726 -7.3157 -2.69119 0
M  V30 8454 N 812.955 -0.234822 -1.55841 0
M  V30 8455 C 814.232 0.442961 -1.90518 0
M  V30 8456 C 814.612 1.76768 -1.15397 0
M  V30 8457 O 813.96 2.26928 -0.267534 0
M  V30 8458 C 814.17 0.622905 -3.43396 0
M  V30 8459 C 815.518 0.9243 -4.14417 0
M  V30 8460 O 816.542 0.709211 -3.49068 0
M  V30 8461 O 815.401 1.33323 -5.29988 0
M  V30 8462 H 812.495 0.236042 -0.792599 0
M  V30 8463 H 815.041 -0.277992 -1.67408 0
M  V30 8464 H 813.813 -0.310973 -3.90062 0
M  V30 8465 H 813.436 1.39485 -3.7233 0
M  V30 8466 N 814.433 1.57553 0.0384317 0
M  V30 8467 C 815.681 1.88468 0.729672 0
M  V30 8468 C 816.002 0.831302 1.76393 0
M  V30 8469 O 815.272 -0.13622 1.95426 0
M  V30 8470 H 813.852 0.695529 0.272485 0
M  V30 8471 H 816.514 1.94899 0.0066032 0
M  V30 8472 H 815.61 2.8705 1.22511 0
M  V30 8473 N 815.911 -0.310526 1.54511 0
M  V30 8474 C 817.327 -0.655637 1.45511 0
M  V30 8475 C 817.527 -1.91114 0.638564 0
M  V30 8476 O 816.583 -2.52098 0.142497 0
M  V30 8477 C 817.896 -0.817501 2.89374 0
M  V30 8478 C 819.444 -0.914003 2.99358 0
M  V30 8479 C 819.919 -1.10794 4.44397 0
M  V30 8480 N 821.41 -1.17437 4.48066 0
M  V30 8481 C 822.145 -1.34255 5.57461 0
M  V30 8482 N 821.641 -1.48032 6.768 0
M  V30 8483 N 823.434 -1.37067 5.45132 0
M  V30 8484 H 815.585 0.514506 2.06074 0
M  V30 8485 H 817.848 0.168478 0.932909 0
M  V30 8486 H 817.554 0.034003 3.51684 0
M  V30 8487 H 817.428 -1.7094 3.36243 0
M  V30 8488 H 819.815 -1.756 2.37168 0
M  V30 8489 H 819.896 0.00170958 2.558 0
M  V30 8490 H 819.54 -0.270743 5.07178 0
M  V30 8491 H 819.47 -2.03773 4.85576 0
M  V30 8492 H 821.961 -1.08181 3.62084 0
M  V30 8493 H 822.274 -1.60593 7.5593 0
M  V30 8494 H 820.619 -1.45105 6.79683 0
M  V30 8495 H 823.81 -1.25909 4.50849 0
M  V30 8496 H 823.983 -1.49831 6.3044 0
M  V30 8497 N 817.389 -1.46805 -0.573248 0
M  V30 8498 C 818.635 -1.5283 -1.33307 0
M  V30 8499 C 818.968 -0.183287 -1.93333 0
M  V30 8500 O 818.243 0.806354 -1.76998 0
M  V30 8501 C 818.526 -2.63414 -2.45531 0
M  V30 8502 C 818.379 -4.07478 -1.90478 0
M  V30 8503 C 819.698 -2.70014 -3.47535 0
M  V30 8504 H 816.817 -0.556371 -0.483343 0
M  V30 8505 H 819.459 -1.78787 -0.643066 0
M  V30 8506 H 817.609 -2.41412 -3.04389 0
M  V30 8507 H 819.281 -4.40795 -1.36004 0
M  V30 8508 H 817.524 -4.16511 -1.21248 0
M  V30 8509 H 818.195 -4.80598 -2.71531 0
M  V30 8510 H 820.671 -2.89817 -2.98572 0
M  V30 8511 H 819.547 -3.49192 -4.23504 0
M  V30 8512 H 819.808 -1.76436 -4.05367 0
M  V30 8513 N 818.867 0.818669 -1.34668 0
M  V30 8514 C 820.116 1.57017 -1.26604 0
M  V30 8515 C 820.429 1.94936 0.161036 0
M  V30 8516 O 821.635 2.69051 0.36386 0
M  V30 8517 C 820.091 2.83305 -2.2196 0
M  V30 8518 C 819.699 2.52671 -3.69948 0
M  V30 8519 C 821.443 3.61324 -2.22813 0
M  V30 8520 C 819.35 3.75178 -4.5716 0
M  V30 8521 H 818.28 0.589323 -0.470335 0
M  V30 8522 H 820.931 0.900956 -1.59859 0
M  V30 8523 H 819.313 3.51874 -1.81661 0
M  V30 8524 H 820.487 1.92186 -4.18809 0
M  V30 8525 H 818.802 1.8792 -3.71584 0
M  V30 8526 H 821.399 4.52294 -2.85192 0
M  V30 8527 H 821.742 3.97759 -1.22857 0
M  V30 8528 H 822.275 2.99703 -2.61578 0
M  V30 8529 H 819.014 3.43861 -5.58068 0
M  V30 8530 H 818.534 4.34931 -4.13031 0
M  V30 8531 H 820.213 4.42542 -4.71981 0
M  V30 8532 N 820.346 1.18468 1.03938 0
M  V30 8533 C 821.594 0.978895 1.76811 0
M  V30 8534 C 821.915 -0.49257 1.88676 0
M  V30 8535 O 821.185 -1.3572 1.41269 0
M  V30 8536 H 819.765 0.359201 0.654968 0
M  V30 8537 H 822.427 1.49173 1.25433 0
M  V30 8538 H 821.523 1.418 2.78027 0
M  V30 8539 N 821.824 -1.22873 0.986916 0
M  V30 8540 C 823.072 -1.91084 0.658121 0
M  V30 8541 C 823.393 -1.77304 -0.811675 0
M  V30 8542 O 822.663 -1.15649 -1.58121 0
M  V30 8543 H 821.243 -0.707251 0.240427 0
M  V30 8544 H 823.905 -1.49357 1.25213 0
M  V30 8545 H 823.001 -2.98373 0.915428 0
M  V30 8546 N 823.302 -0.75937 -1.38099 0
M  V30 8547 C 824.551 -0.314864 -1.99227 0
M  V30 8548 C 824.864 1.1113 -1.60964 0
M  V30 8549 O 826.07 1.65657 -2.15105 0
M  V30 8550 C 824.526 -0.512001 -3.56239 0
M  V30 8551 C 824.134 -1.94762 -4.0345 0
M  V30 8552 C 825.878 -0.130497 -4.24299 0
M  V30 8553 C 823.785 -2.09301 -5.53125 0
M  V30 8554 H 822.715 -0.113978 -0.745335 0
M  V30 8555 H 825.366 -0.936736 -1.57789 0
M  V30 8556 H 823.748 0.179144 -3.95595 0
M  V30 8557 H 824.922 -2.67271 -3.75371 0
M  V30 8558 H 823.237 -2.28457 -3.48133 0
M  V30 8559 H 825.834 -0.21781 -5.34256 0
M  V30 8560 H 826.177 0.917644 -4.0606 0
M  V30 8561 H 826.71 -0.773716 -3.90203 0
M  V30 8562 H 823.449 -3.1239 -5.76275 0
M  V30 8563 H 822.969 -1.41261 -5.82928 0
M  V30 8564 H 824.648 -1.88571 -6.1891 0
M  V30 8565 N 824.78 1.49157 -0.508906 0
M  V30 8566 C 826.02 2.04376 0.0310623 0
M  V30 8567 C 826.384 1.37946 1.33547 0
M  V30 8568 O 827.585 1.83931 1.96017 0
M  V30 8569 C 825.856 3.56985 0.172191 0
M  V30 8570 S 827.415 4.33728 0.665267 0
M  V30 8571 H 824.233 0.710997 -0.00199266 0
M  V30 8572 H 826.835 1.83119 -0.684674 0
M  V30 8573 H 825.539 4.02874 -0.78234 0
M  V30 8574 H 825.07 3.82661 0.912933 0
M  V30 8575 H 827.085 4.56992 1.9332 0
M  V30 8576 N 826.258 0.243083 1.55714 0
M  V30 8577 C 827.505 -0.38272 1.9885 0
M  V30 8578 C 827.833 -1.58225 1.13115 0
M  V30 8579 O 827.088 -1.94861 0.181067 0
M  V30 8580 C 827.387 -0.839621 3.47398 0
M  V30 8581 C 827.053 0.251737 4.50197 0
M  V30 8582 C 825.715 0.551487 4.78029 0
M  V30 8583 C 828.067 0.988728 5.11736 0
M  V30 8584 C 825.395 1.59237 5.64677 0
M  V30 8585 C 827.747 2.0191 5.99512 0
M  V30 8586 C 826.411 2.32554 6.2568 0
M  V30 8587 H 825.681 -0.140047 0.727645 0
M  V30 8588 H 828.328 0.35011 1.88272 0
M  V30 8589 H 826.633 -1.65159 3.55288 0
M  V30 8590 H 828.33 -1.33404 3.78159 0
M  V30 8591 H 824.92 0.00796741 4.28599 0
M  V30 8592 H 829.104 0.7704 4.90284 0
M  V30 8593 H 824.36 1.83517 5.83208 0
M  V30 8594 H 828.534 2.59511 6.46241 0
M  V30 8595 H 826.161 3.13349 6.92616 0
M  V30 8596 N 827.736 -1.57571 -0.0300757 0
M  V30 8597 C 829.152 -1.54869 -0.385703 0
M  V30 8598 C 829.352 -0.969068 -1.76667 0
M  V30 8599 O 828.408 -0.589676 -2.45518 0
M  V30 8600 C 829.721 -2.99313 -0.288482 0
M  V30 8601 C 831.269 -3.10857 -0.365638 0
M  V30 8602 C 831.744 -4.5703 -0.297878 0
M  V30 8603 N 833.235 -4.61825 -0.356703 0
M  V30 8604 C 833.97 -5.72466 -0.327146 0
M  V30 8605 N 833.466 -6.92349 -0.249941 0
M  V30 8606 N 835.259 -5.60836 -0.376801 0
M  V30 8607 H 827.41 -1.936 0.87367 0
M  V30 8608 H 829.673 -0.887924 0.332106 0
M  V30 8609 H 829.379 -3.45443 0.66047 0
M  V30 8610 H 829.253 -3.61332 -1.08253 0
M  V30 8611 H 831.64 -2.64676 -1.30502 0
M  V30 8612 H 831.721 -2.51671 0.457744 0
M  V30 8613 H 831.365 -5.03879 0.637835 0
M  V30 8614 H 831.295 -5.14127 -1.13935 0
M  V30 8615 H 833.786 -3.75571 -0.418926 0
M  V30 8616 H 834.099 -7.7245 -0.23246 0
M  V30 8617 H 832.444 -6.94664 -0.216004 0
M  V30 8618 H 835.635 -4.66073 -0.435101 0
M  V30 8619 H 835.808 -6.47052 -0.350298 0
M  V30 8620 N 829.214 0.302327 -1.54673 0
M  V30 8621 C 830.147 1.39738 -1.80412 0
M  V30 8622 C 831.125 1.48813 -0.655241 0
M  V30 8623 O 832.309 1.65895 -0.89505 0
M  V30 8624 C 829.436 2.7766 -1.93966 0
M  V30 8625 C 828.482 2.86014 -3.16383 0
M  V30 8626 S 829.315 2.48246 -4.74483 0
M  V30 8627 C 830.471 3.88198 -4.90971 0
M  V30 8628 H 830.704 1.17696 -2.73011 0
M  V30 8629 H 828.237 0.500364 -1.46068 0
M  V30 8630 H 830.195 3.571 -2.0246 0
M  V30 8631 H 828.856 2.96971 -1.02307 0
M  V30 8632 H 828.049 3.87174 -3.22664 0
M  V30 8633 H 827.651 2.14568 -3.06328 0
M  V30 8634 H 829.943 4.83181 -4.74913 0
M  V30 8635 H 830.886 3.86887 -5.93063 0
M  V30 8636 H 831.294 3.78139 -4.19131 0
M  V30 8637 N 830.692 1.47107 0.565454 0
M  V30 8638 C 831.939 1.53308 1.32299 0
M  V30 8639 C 832.267 0.1919 1.93551 0
M  V30 8640 O 831.522 -0.81435 1.77952 0
M  V30 8641 C 831.821 2.59309 2.45954 0
M  V30 8642 C 831.487 4.02827 2.02586 0
M  V30 8643 C 830.149 4.41897 1.90474 0
M  V30 8644 C 832.501 4.92913 1.6937 0
M  V30 8645 C 829.829 5.68898 1.4343 0
M  V30 8646 C 832.181 6.20368 1.238 0
M  V30 8647 C 830.845 6.58327 1.10278 0
M  V30 8648 H 830.115 0.560993 0.484116 0
M  V30 8649 H 832.762 1.80667 0.634965 0
M  V30 8650 H 831.067 2.25676 3.20277 0
M  V30 8651 H 832.764 2.61332 3.04149 0
M  V30 8652 H 829.354 3.71953 2.12952 0
M  V30 8653 H 833.538 4.63433 1.77605 0
M  V30 8654 H 828.794 5.97065 1.31618 0
M  V30 8655 H 832.968 6.89589 0.971586 0
M  V30 8656 H 830.595 7.56628 0.736027 0
M  V30 8657 N 832.17 -0.811516 1.35101 0
M  V30 8658 C 833.581 -1.38515 1.25182 0
M  V30 8659 C 833.932 -1.95846 -0.117883 0
M  V30 8660 O 833.057 -1.90925 -1.01866 0
M  V30 8661 C 833.652 -2.51813 2.26662 0
M  V30 8662 C 832.211 -3.05052 2.20499 0
M  V30 8663 C 831.358 -1.77987 2.12641 0
M  V30 8664 H 834.309 -0.614959 1.46301 0
M  V30 8665 H 834.33 -3.30228 1.89023 0
M  V30 8666 H 833.842 -2.10057 3.2634 0
M  V30 8667 H 831.943 -3.51285 1.24215 0
M  V30 8668 H 832.056 -3.63368 3.1225 0
M  V30 8669 H 830.42 -1.99342 1.5854 0
M  V30 8670 H 831.203 -1.38389 3.14171 0
M  V30 8671 N 833.648 -1.19017 -1.03309 0
M  V30 8672 C 834.873 -1.01598 -1.80811 0
M  V30 8673 C 835.298 0.430773 -1.83101 0
M  V30 8674 O 834.656 1.30946 -1.25391 0
M  V30 8675 C 834.704 -1.5845 -3.23923 0
M  V30 8676 O 833.808 -0.810972 -4.04348 0
M  V30 8677 H 833.149 -0.359398 -0.558327 0
M  V30 8678 H 835.679 -1.57945 -1.30055 0
M  V30 8679 H 835.689 -1.61486 -3.74682 0
M  V30 8680 H 834.364 -2.63752 -3.21571 0
M  V30 8681 H 832.941 -0.85353 -3.63 0
M  V30 8682 N 835.127 1.22348 -0.993418 0
M  V30 8683 C 836.059 2.23626 -0.502404 0
M  V30 8684 C 837.072 1.57739 0.402784 0
M  V30 8685 O 838.261 1.77321 0.204835 0
M  V30 8686 C 835.361 3.37647 0.291118 0
M  V30 8687 C 834.534 4.33121 -0.610332 0
M  V30 8688 C 833.593 5.26035 0.131572 0
M  V30 8689 O 832.619 5.67145 -0.483199 0
M  V30 8690 N 833.821 5.63023 1.41371 0
M  V30 8691 H 836.586 2.66385 -1.37329 0
M  V30 8692 H 834.147 1.36653 -0.868196 0
M  V30 8693 H 836.139 3.96792 0.796107 0
M  V30 8694 H 834.709 2.93967 1.0631 0
M  V30 8695 H 833.929 3.72287 -1.29598 0
M  V30 8696 H 835.217 4.93853 -1.22422 0
M  V30 8697 H 834.615 5.31596 1.93449 0
M  V30 8698 H 833.172 6.24582 1.86388 0
M  V30 8699 N 836.605 0.766683 1.37694 0
M  V30 8700 C 837.853 0.328065 1.9942 0
M  V30 8701 C 838.174 -1.09775 1.61166 0
M  V30 8702 O 837.444 -1.75288 0.874686 0
M  V30 8703 H 836.024 0.11831 0.737572 0
M  V30 8704 H 838.686 0.983686 1.68255 0
M  V30 8705 H 837.782 0.401647 3.09505 0
M  V30 8706 N 838.083 -1.48885 0.516809 0
M  V30 8707 C 839.33 -2.02488 -0.0220602 0
M  V30 8708 C 839.658 -1.39513 -1.35523 0
M  V30 8709 O 838.913 -0.52558 -1.8851 0
M  V30 8710 C 839.212 -3.56801 -0.206798 0
M  V30 8711 C 838.878 -4.38496 1.05035 0
M  V30 8712 C 837.54 -4.60538 1.39492 0
M  V30 8713 C 839.892 -4.85909 1.88525 0
M  V30 8714 C 837.22 -5.2724 2.57361 0
M  V30 8715 C 839.572 -5.53909 3.05561 0
M  V30 8716 C 838.236 -5.74193 3.4038 0
M  V30 8717 H 837.506 -0.740956 -0.00807238 0
M  V30 8718 H 840.153 -1.79014 0.680168 0
M  V30 8719 H 838.458 -3.79042 -0.991687 0
M  V30 8720 H 840.155 -3.95885 -0.638447 0
M  V30 8721 H 836.745 -4.2159 0.771984 0
M  V30 8722 H 840.929 -4.68694 1.63218 0
M  V30 8723 H 836.185 -5.41145 2.84556 0
M  V30 8724 H 840.359 -5.89619 3.7057 0
M  V30 8725 H 837.986 -6.25652 4.31814 0
M  V30 8726 N 839.561 -0.251338 -1.55583 0
M  V30 8727 C 840.789 0.376187 -2.03451 0
M  V30 8728 C 841.204 1.51215 -1.13047 0
M  V30 8729 O 840.561 1.81917 -0.145769 0
M  V30 8730 C 840.612 0.879779 -3.50631 0
M  V30 8731 O 840.333 -0.210917 -4.37592 0
M  V30 8732 C 841.834 1.57754 -4.14281 0
M  V30 8733 H 839.054 0.0888722 -0.665089 0
M  V30 8734 H 841.598 -0.376497 -2.01004 0
M  V30 8735 H 839.753 1.58263 -3.53598 0
M  V30 8736 H 840.167 0.172203 -5.24217 0
M  V30 8737 H 841.641 1.88158 -5.18942 0
M  V30 8738 H 842.118 2.50103 -3.61034 0
M  V30 8739 H 842.724 0.919154 -4.15249 0
M  V30 8740 N 841.039 1.57585 0.0217189 0
M  V30 8741 C 841.949 2.10444 1.03684 0
M  V30 8742 C 842.965 1.04472 1.39146 0
M  V30 8743 O 844.141 1.36249 1.48317 0
M  V30 8744 C 841.206 2.5794 2.31664 0
M  V30 8745 C 840.267 3.78425 2.02714 0
M  V30 8746 C 839.5 4.23646 3.24592 0
M  V30 8747 O 839.723 3.6834 4.35525 0
M  V30 8748 O 838.657 5.16013 3.09862 0
M  V30 8749 H 842.483 2.97354 0.617584 0
M  V30 8750 H 840.068 1.47473 0.239174 0
M  V30 8751 H 841.95 2.88785 3.06889 0
M  V30 8752 H 840.625 1.74138 2.7287 0
M  V30 8753 H 839.532 3.52587 1.25033 0
M  V30 8754 H 840.865 4.63234 1.66359 0
M  V30 8755 N 842.517 -0.29412 1.54831 0
M  V30 8756 C 843.766 -1.02614 1.73647 0
M  V30 8757 C 844.079 -1.88193 0.533162 0
M  V30 8758 O 845.285 -2.64713 0.603275 0
M  V30 8759 C 843.741 -1.87417 3.07251 0
M  V30 8760 C 843.349 -1.06806 4.35082 0
M  V30 8761 C 845.093 -2.60176 3.35423 0
M  V30 8762 C 843 -1.90926 5.59733 0
M  V30 8763 H 841.93 -0.386834 0.647206 0
M  V30 8764 H 844.581 -0.282789 1.81308 0
M  V30 8765 H 842.963 -2.65765 2.93572 0
M  V30 8766 H 844.137 -0.330226 4.59615 0
M  V30 8767 H 842.452 -0.455979 4.13896 0
M  V30 8768 H 845.049 -3.23476 4.25755 0
M  V30 8769 H 845.392 -3.29365 2.54606 0
M  V30 8770 H 845.925 -1.88871 3.50103 0
M  V30 8771 H 842.664 -1.26194 6.43238 0
M  V30 8772 H 842.184 -2.62363 5.39375 0
M  V30 8773 H 843.863 -2.48807 5.97247 0
M  V30 8774 N 843.995 -1.47404 -0.557645 0
M  V30 8775 C 845.241 -1.54235 -1.31679 0
M  V30 8776 C 845.574 -0.203782 -1.93128 0
M  V30 8777 O 844.849 0.787536 -1.77843 0
M  V30 8778 C 845.132 -2.66003 -2.42723 0
M  V30 8779 C 844.985 -4.09475 -1.86145 0
M  V30 8780 C 846.304 -2.73685 -3.44652 0
M  V30 8781 H 843.423 -0.561466 -0.477415 0
M  V30 8782 H 846.065 -1.79459 -0.624067 0
M  V30 8783 H 844.215 -2.44627 -3.01811 0
M  V30 8784 H 845.887 -4.42213 -1.31321 0
M  V30 8785 H 844.13 -4.17774 -1.16823 0
M  V30 8786 H 844.801 -4.83451 -2.66418 0
M  V30 8787 H 847.277 -2.92968 -2.95481 0
M  V30 8788 H 846.153 -3.53665 -4.19777 0
M  V30 8789 H 846.414 -1.80726 -4.03473 0
M  V30 8790 N 845.473 0.80434 -1.35529 0
M  V30 8791 C 846.72 1.56154 -1.28927 0
M  V30 8792 C 847.048 1.94026 0.135682 0
M  V30 8793 O 846.303 1.61759 1.10148 0
M  V30 8794 C 846.602 2.85988 -2.14349 0
M  V30 8795 C 846.268 2.67323 -3.6311 0
M  V30 8796 C 844.93 2.61941 -4.03659 0
M  V30 8797 C 847.282 2.49699 -4.57493 0
M  V30 8798 C 844.61 2.3688 -5.36754 0
M  V30 8799 C 846.962 2.26168 -5.90788 0
M  V30 8800 C 845.626 2.19209 -6.30479 0
M  V30 8801 H 844.896 0.571407 -0.471779 0
M  V30 8802 H 847.543 0.929193 -1.67446 0
M  V30 8803 H 845.848 3.53612 -1.68718 0
M  V30 8804 H 847.545 3.43697 -2.06576 0
M  V30 8805 H 844.135 2.72361 -3.30934 0
M  V30 8806 H 848.319 2.52869 -4.27049 0
M  V30 8807 H 843.575 2.29964 -5.66504 0
M  V30 8808 H 847.749 2.11522 -6.63499 0
M  V30 8809 H 845.376 1.99553 -7.33541 0
M  V30 8810 N 846.951 1.19563 1.02676 0
M  V30 8811 C 848.191 1.01072 1.77662 0
M  V30 8812 C 848.555 -0.450344 1.86644 0
M  V30 8813 O 849.756 -0.755132 2.57975 0
M  V30 8814 C 848.027 1.66383 3.16309 0
M  V30 8815 S 849.586 1.62858 4.07459 0
M  V30 8816 H 846.404 0.362644 0.611564 0
M  V30 8817 H 849.006 1.51947 1.23014 0
M  V30 8818 H 847.71 2.71917 3.07391 0
M  V30 8819 H 847.241 1.15596 3.76033 0
M  V30 8820 H 849.256 0.654265 4.91868 0
M  V30 8821 N 848.429 -1.21819 0.999893 0
M  V30 8822 C 849.392 -2.22227 0.561044 0
M  V30 8823 C 850.392 -1.56722 -0.359858 0
M  V30 8824 O 851.582 -1.73546 -0.150848 0
M  V30 8825 C 848.714 -3.40409 -0.182987 0
M  V30 8826 H 849.907 -2.62567 1.44909 0
M  V30 8827 H 847.46 -1.34991 0.78785 0
M  V30 8828 H 848.195 -3.05551 -1.08671 0
M  V30 8829 H 847.98 -3.89171 0.47833 0
M  V30 8830 H 849.47 -4.14856 -0.477952 0
M  V30 8831 N 849.908 -0.773975 -1.37286 0
M  V30 8832 C 851.154 -0.339809 -1.99933 0
M  V30 8833 C 851.487 1.0815 -1.61299 0
M  V30 8834 O 850.762 1.74442 -0.860252 0
M  V30 8835 C 851.045 -0.485919 -3.56806 0
M  V30 8836 C 850.898 -1.9498 -4.05343 0
M  V30 8837 C 852.217 0.108461 -4.39966 0
M  V30 8838 H 849.336 -0.124944 -0.726332 0
M  V30 8839 H 851.978 -0.977433 -1.6293 0
M  V30 8840 H 850.128 0.0569023 -3.88458 0
M  V30 8841 H 851.8 -2.5525 -3.84246 0
M  V30 8842 H 850.043 -2.45784 -3.57453 0
M  V30 8843 H 850.714 -2.00308 -5.14374 0
M  V30 8844 H 853.19 -0.354722 -4.14585 0
M  V30 8845 H 852.066 -0.0238926 -5.48895 0
M  V30 8846 H 852.327 1.19901 -4.25531 0
M  V30 8847 N 851.386 1.48609 -0.524698 0
M  V30 8848 C 852.614 2.06899 0.00742946 0
M  V30 8849 C 853.029 1.38196 1.28637 0
M  V30 8850 O 852.386 0.467771 1.76403 0
M  V30 8851 C 852.437 3.60699 0.240548 0
M  V30 8852 O 852.158 4.26821 -0.987715 0
M  V30 8853 C 853.659 4.35769 0.813652 0
M  V30 8854 H 850.879 0.670278 -0.0311294 0
M  V30 8855 H 853.423 1.91071 -0.728832 0
M  V30 8856 H 851.578 3.76149 0.926845 0
M  V30 8857 H 851.992 5.18889 -0.765175 0
M  V30 8858 H 853.466 5.44174 0.926219 0
M  V30 8859 H 853.943 3.9984 1.81728 0
M  V30 8860 H 854.549 4.24983 0.164086 0
M  V30 8861 N 852.864 0.259585 1.55447 0
M  V30 8862 C 854.089 -0.368317 2.04103 0
M  V30 8863 C 854.514 -1.49827 1.13725 0
M  V30 8864 O 853.872 -1.80814 0.132705 0
M  V30 8865 C 853.92 -0.841506 3.50644 0
M  V30 8866 O 853.024 -1.95008 3.63381 0
M  V30 8867 H 852.365 -0.0785227 0.659341 0
M  V30 8868 H 854.895 0.389349 2.00861 0
M  V30 8869 H 854.905 -1.14138 3.9171 0
M  V30 8870 H 853.58 -0.0147001 4.15897 0
M  V30 8871 H 852.157 -1.65393 3.34215 0
M  V30 8872 N 854.342 -1.57594 -0.0133615 0
M  V30 8873 C 855.29 -2.08682 -1.02736 0
M  V30 8874 C 856.284 -1.00391 -1.36448 0
M  V30 8875 O 857.49 -1.18868 -1.35168 0
M  V30 8876 H 853.865 -0.666158 -0.34891 0
M  V30 8877 H 855.836 -2.9289 -0.570815 0
M  V30 8878 C 854.585 -2.5945 -2.31476 0
M  V30 8879 H 853.908 -3.42401 -2.06401 0
M  V30 8880 H 855.348 -2.98888 -3.00735 0
M  V30 8881 C 853.807 -1.50266 -3.01533 0
M  V30 8882 O 854.337 -0.877875 -3.9199 0
M  V30 8883 N 852.543 -1.23336 -2.63129 0
M  V30 8884 H 852.09 -1.74327 -1.89652 0
M  V30 8885 H 852.048 -0.504987 -3.10318 0
M  V30 8886 N 855.82 0.285905 -1.54985 0
M  V30 8887 C 856.73 1.37534 -1.90057 0
M  V30 8888 C 857.746 1.54707 -0.796348 0
M  V30 8889 O 858.922 1.69082 -1.09423 0
M  V30 8890 C 855.987 2.7167 -2.15398 0
M  V30 8891 C 855.048 2.63354 -3.39033 0
M  V30 8892 C 854.281 3.91093 -3.63155 0
M  V30 8893 O 854.504 4.91169 -2.90015 0
M  V30 8894 O 853.438 3.92075 -4.56685 0
M  V30 8895 H 857.264 1.10791 -2.8277 0
M  V30 8896 H 854.849 0.483303 -1.41367 0
M  V30 8897 H 856.731 3.51006 -2.33179 0
M  V30 8898 H 855.406 2.98226 -1.25868 0
M  V30 8899 H 854.313 1.82438 -3.26599 0
M  V30 8900 H 855.646 2.41749 -4.2874 0
M  V30 8901 N 857.298 1.47698 0.54982 0
M  V30 8902 C 858.23 1.56806 1.67166 0
M  V30 8903 C 859.243 0.453709 1.5635 0
M  V30 8904 O 860.432 0.723663 1.63173 0
M  V30 8905 C 857.532 1.4632 3.05686 0
M  V30 8906 C 856.705 2.72452 3.42182 0
M  V30 8907 C 855.764 2.55698 4.59897 0
M  V30 8908 O 854.79 3.29534 4.64108 0
M  V30 8909 N 855.992 1.64009 5.56849 0
M  V30 8910 H 858.757 2.53545 1.59797 0
M  V30 8911 H 856.318 1.44171 0.736635 0
M  V30 8912 H 858.31 1.32835 3.82279 0
M  V30 8913 H 856.88 0.57634 3.07241 0
M  V30 8914 H 856.1 3.00644 2.54964 0
M  V30 8915 H 857.388 3.56172 3.63344 0
M  V30 8916 H 856.786 1.03186 5.5621 0
M  V30 8917 H 855.343 1.56473 6.3274 0
M  V30 8918 N 858.776 -0.797141 1.35954 0
M  V30 8919 C 860.022 -1.55698 1.29946 0
M  V30 8920 C 860.355 -1.93808 -0.123259 0
M  V30 8921 O 859.63 -1.62102 -1.07486 0
M  V30 8922 C 859.913 -2.83926 2.2149 0
M  V30 8923 C 859.766 -2.52232 3.72423 0
M  V30 8924 C 861.085 -3.85698 2.11955 0
M  V30 8925 H 858.204 -0.56488 0.47337 0
M  V30 8926 H 860.846 -0.916421 1.66438 0
M  V30 8927 H 858.996 -3.38588 1.905 0
M  V30 8928 H 860.668 -2.0368 4.13899 0
M  V30 8929 H 858.911 -1.85286 3.92239 0
M  V30 8930 H 859.582 -3.43782 4.31877 0
M  V30 8931 H 862.058 -3.40462 2.39218 0
M  V30 8932 H 860.934 -4.73182 2.78191 0
M  V30 8933 H 861.195 -4.28083 1.10442 0
M  V30 8934 N 860.254 -1.20106 -1.0204 0
M  V30 8935 C 861.201 -0.946468 -2.10501 0
M  V30 8936 C 862.171 0.121902 -1.65652 0
M  V30 8937 O 863.356 -0.0220244 -1.90787 0
M  V30 8938 C 860.496 -0.500499 -3.41451 0
M  V30 8939 C 859.609 -1.63659 -3.998 0
M  V30 8940 C 858.744 -1.14131 -5.18794 0
M  V30 8941 C 857.783 -2.25074 -5.69217 0
M  V30 8942 N 856.92 -1.76791 -6.79477 0
M  V30 8943 H 861.76 -1.87506 -2.31615 0
M  V30 8944 H 859.297 -0.934693 -1.13587 0
M  V30 8945 H 861.255 -0.223276 -4.16602 0
M  V30 8946 H 859.885 0.391099 -3.20422 0
M  V30 8947 H 858.937 -2.02882 -3.21781 0
M  V30 8948 H 860.249 -2.47213 -4.33229 0
M  V30 8949 H 859.403 -0.819826 -6.01135 0
M  V30 8950 H 858.142 -0.275615 -4.86921 0
M  V30 8951 H 857.147 -2.58043 -4.85483 0
M  V30 8952 H 858.372 -3.12114 -6.03127 0
M  V30 8953 H 856.318 -0.925428 -6.4944 0
M  V30 8954 H 856.235 -2.53928 -7.12079 0
M  V30 8955 H 857.503 -1.47631 -7.65392 0
M  V30 8956 N 861.732 1.21287 -1.00634 0
M  V30 8957 C 862.98 1.90013 -0.688438 0
M  V30 8958 C 863.301 1.78573 0.783365 0
M  V30 8959 O 862.571 1.1815 1.56261 0
M  V30 8960 H 861.151 0.703336 -0.251648 0
M  V30 8961 H 863.813 1.47346 -1.27574 0
M  V30 8962 H 862.909 2.96879 -0.962781 0
M  V30 8963 N 863.21 0.781244 1.36873 0
M  V30 8964 C 864.44 0.361042 2.03421 0
M  V30 8965 C 864.848 -1.02471 1.59048 0
M  V30 8966 O 864.191 -1.66712 0.771552 0
M  V30 8967 C 864.253 0.336202 3.57924 0
M  V30 8968 C 863.917 1.66815 4.25467 0
M  V30 8969 C 864.914 2.62224 4.48926 0
M  V30 8970 C 862.599 1.9452 4.63106 0
M  V30 8971 C 864.593 3.83538 5.09095 0
M  V30 8972 C 862.28 3.16103 5.22994 0
M  V30 8973 C 863.278 4.10431 5.45926 0
M  V30 8974 O 862.966 5.29871 6.04559 0
M  V30 8975 H 862.698 0.147956 0.65961 0
M  V30 8976 H 865.252 1.05895 1.75998 0
M  V30 8977 H 863.482 -0.418147 3.84433 0
M  V30 8978 H 865.171 -0.0582199 4.05858 0
M  V30 8979 H 865.937 2.42104 4.20251 0
M  V30 8980 H 861.816 1.21921 4.44585 0
M  V30 8981 H 865.36 4.57178 5.2691 0
M  V30 8982 H 861.257 3.36104 5.51094 0
M  V30 8983 H 862.025 5.30825 6.23031 0
M  V30 8984 N 864.689 -1.48329 0.532571 0
M  V30 8985 C 865.937 -2.021 -0.000581206 0
M  V30 8986 C 866.258 -1.4117 -1.34522 0
M  V30 8987 O 865.528 -0.578005 -1.87179 0
M  V30 8988 H 864.108 -0.746993 -0.00320281 0
M  V30 8989 H 866.77 -1.82011 0.696991 0
M  V30 8990 H 865.866 -3.11917 -0.106991 0
M  V30 8991 N 866.167 -0.267825 -1.55308 0
M  V30 8992 C 867.395 0.354587 -2.03839 0
M  V30 8993 C 867.81 1.50007 -1.14644 0
M  V30 8994 O 867.167 1.81752 -0.165055 0
M  V30 8995 C 867.218 0.84254 -3.51544 0
M  V30 8996 O 866.939 -0.257318 -4.37344 0
M  V30 8997 C 868.44 1.53351 -4.15931 0
M  V30 8998 H 865.66 0.0818131 -0.665994 0
M  V30 8999 H 868.204 -0.397795 -2.00594 0
M  V30 9000 H 866.359 1.54503 -3.55257 0
M  V30 9001 H 866.773 0.116593 -5.2437 0
M  V30 9002 H 868.247 1.82643 -5.20908 0
M  V30 9003 H 868.724 2.4626 -3.63666 0
M  V30 9004 H 869.33 0.87506 -4.162 0
M  V30 9005 N 867.645 1.57599 0.00500368 0
M  V30 9006 C 868.595 2.04585 1.00643 0
M  V30 9007 C 869.579 0.939622 1.30614 0
M  V30 9008 O 870.771 1.20342 1.29796 0
M  V30 9009 C 867.9 2.5486 2.30002 0
M  V30 9010 C 866.986 3.7235 2.03017 0
M  V30 9011 N 867.377 4.84218 1.46173 0
M  V30 9012 C 865.675 3.80185 2.33185 0
M  V30 9013 C 866.376 5.65688 1.35544 0
M  V30 9014 N 865.352 5.11536 1.83933 0
M  V30 9015 H 869.154 2.8849 0.561332 0
M  V30 9016 H 866.668 1.61026 0.210808 0
M  V30 9017 H 868.665 2.86794 3.0258 0
M  V30 9018 H 867.325 1.72372 2.75169 0
M  V30 9019 H 868.336 5.0517 1.1412 0
M  V30 9020 H 865.013 3.08543 2.81261 0
M  V30 9021 H 866.403 6.65588 0.918791 0
M  V30 9022 N 869.123 -0.277682 1.55134 0
M  V30 9023 C 870.053 -1.34742 1.90701 0
M  V30 9024 C 871.034 -1.51757 0.768354 0
M  V30 9025 O 872.219 -1.64879 1.02609 0
M  V30 9026 C 869.349 -2.70775 2.17481 0
M  V30 9027 C 868.303 -2.68497 3.33307 0
M  V30 9028 C 867.629 -4.08037 3.45557 0
M  V30 9029 C 868.929 -2.28178 4.69821 0
M  V30 9030 H 870.623 -1.05224 2.803 0
M  V30 9031 H 868.169 -0.504738 1.34864 0
M  V30 9032 H 870.122 -3.45719 2.40949 0
M  V30 9033 H 868.846 -3.01867 1.24676 0
M  V30 9034 H 867.505 -1.9601 3.09799 0
M  V30 9035 H 867.153 -4.36344 2.50226 0
M  V30 9036 H 866.853 -4.07409 4.23429 0
M  V30 9037 H 868.377 -4.84726 3.71312 0
M  V30 9038 H 869.791 -2.92843 4.92865 0
M  V30 9039 H 868.188 -2.3872 5.50575 0
M  V30 9040 H 869.258 -1.23308 4.6896 0
M  V30 9041 N 870.601 -1.47988 -0.541979 0
M  V30 9042 C 871.534 -1.56172 -1.66389 0
M  V30 9043 C 872.512 -0.412879 -1.57271 0
M  V30 9044 O 873.696 -0.622816 -1.77914 0
M  V30 9045 C 870.823 -1.47851 -3.04726 0
M  V30 9046 C 869.869 -2.67428 -3.32242 0
M  V30 9047 S 870.702 -4.29502 -3.19825 0
M  V30 9048 C 871.858 -4.2376 -4.60628 0
M  V30 9049 H 872.091 -2.51086 -1.59195 0
M  V30 9050 H 869.624 -1.36373 -0.724005 0
M  V30 9051 H 871.582 -1.43738 -3.84512 0
M  V30 9052 H 870.243 -0.542958 -3.09372 0
M  V30 9053 H 869.436 -2.57711 -4.33129 0
M  V30 9054 H 869.038 -2.68743 -2.60103 0
M  V30 9055 H 871.33 -3.92953 -5.51901 0
M  V30 9056 H 872.273 -5.24786 -4.75401 0
M  V30 9057 H 872.681 -3.54398 -4.39389 0
M  V30 9058 N 872.079 0.78992 -1.36375 0
M  V30 9059 C 873.027 1.92394 -1.30719 0
M  V30 9060 C 874.021 1.68226 -0.199076 0
M  V30 9061 O 875.227 1.76239 -0.366051 0
M  V30 9062 H 871.602 0.632382 -0.406936 0
M  V30 9063 H 873.573 1.94282 -2.26488 0
M  V30 9064 C 872.322 3.2941 -1.11284 0
M  V30 9065 H 871.645 3.48573 -1.95798 0
M  V30 9066 H 873.085 4.09111 -1.11373 0
M  V30 9067 C 871.544 3.36405 0.182543 0
M  V30 9068 O 872.074 3.84206 1.17255 0
M  V30 9069 N 870.28 2.89712 0.227046 0
M  V30 9070 H 869.827 2.51004 -0.579217 0
M  V30 9071 H 869.785 2.94773 1.09344 0
M  V30 9072 N 873.557 1.20646 1.01402 0
M  V30 9073 C 874.507 0.925209 2.08384 0
M  V30 9074 C 875.491 -0.115994 1.60481 0
M  V30 9075 O 876.683 0.0917276 1.76762 0
M  V30 9076 C 873.812 0.48193 3.399 0
M  V30 9077 C 872.898 1.5567 3.94497 0
M  V30 9078 N 873.289 2.77971 4.2257 0
M  V30 9079 C 871.587 1.42347 4.22674 0
M  V30 9080 C 872.288 3.47317 4.66632 0
M  V30 9081 N 871.264 2.74736 4.69064 0
M  V30 9082 H 875.066 1.85452 2.28002 0
M  V30 9083 H 872.58 1.10084 1.19395 0
M  V30 9084 H 874.577 0.261835 4.16077 0
M  V30 9085 H 873.237 -0.440725 3.21695 0
M  V30 9086 H 874.248 3.14598 4.11398 0
M  V30 9087 H 870.925 0.565417 4.13654 0
M  V30 9088 H 872.315 4.51985 4.97151 0
M  V30 9089 N 875.035 -1.20752 1.01276 0
M  V30 9090 C 875.965 -2.25658 0.600064 0
M  V30 9091 C 876.946 -1.65733 -0.38298 0
M  V30 9092 O 878.131 -1.92324 -0.269256 0
M  V30 9093 C 875.261 -3.47237 -0.0663197 0
M  V30 9094 C 874.215 -4.1973 0.83731 0
M  V30 9095 C 873.541 -5.34687 0.0369102 0
M  V30 9096 C 874.841 -4.76286 2.14357 0
M  V30 9097 H 876.535 -2.60432 1.477 0
M  V30 9098 H 874.081 -1.25187 0.711634 0
M  V30 9099 H 876.034 -4.19803 -0.366563 0
M  V30 9100 H 874.758 -3.11615 -0.977944 0
M  V30 9101 H 873.417 -3.49024 1.1215 0
M  V30 9102 H 873.065 -4.95309 -0.876244 0
M  V30 9103 H 872.765 -5.84119 0.63865 0
M  V30 9104 H 874.289 -6.10059 -0.256968 0
M  V30 9105 H 875.703 -5.40691 1.90595 0
M  V30 9106 H 874.1 -5.36139 2.69583 0
M  V30 9107 H 875.17 -3.9524 2.80916 0
M  V30 9108 N 876.513 -0.788492 -1.36457 0
M  V30 9109 C 877.46 -0.18435 -2.30063 0
M  V30 9110 C 878.43 0.67128 -1.51931 0
M  V30 9111 O 879.615 0.620152 -1.8044 0
M  V30 9112 C 876.755 0.675596 -3.38422 0
M  V30 9113 C 875.868 -0.198475 -4.31544 0
M  V30 9114 C 875.003 0.667757 -5.26986 0
M  V30 9115 C 874.042 -0.207825 -6.11747 0
M  V30 9116 N 873.179 0.617335 -6.99381 0
M  V30 9117 H 878.019 -0.988056 -2.81143 0
M  V30 9118 H 875.556 -0.498815 -1.38384 0
M  V30 9119 H 877.514 1.18916 -3.99894 0
M  V30 9120 H 876.144 1.44474 -2.88664 0
M  V30 9121 H 875.196 -0.829995 -3.71235 0
M  V30 9122 H 876.508 -0.873163 -4.91098 0
M  V30 9123 H 875.662 1.24716 -5.93743 0
M  V30 9124 H 874.401 1.37607 -4.67884 0
M  V30 9125 H 873.406 -0.799638 -5.43954 0
M  V30 9126 H 874.631 -0.913729 -6.72925 0
M  V30 9127 H 872.577 1.30996 -6.42788 0
M  V30 9128 H 872.494 0.000307255 -7.56 0
M  V30 9129 H 873.762 1.1806 -7.70508 0
M  V30 9130 N 877.991 1.48044 -0.54043 0
M  V30 9131 C 878.901 2.33565 0.220163 0
M  V30 9132 C 879.917 1.47146 0.928659 0
M  V30 9133 O 881.093 1.80107 0.901295 0
M  V30 9134 C 878.158 3.2349 1.2472 0
M  V30 9135 C 877.219 4.25789 0.547938 0
M  V30 9136 C 876.452 5.11417 1.52605 0
M  V30 9137 O 876.675 4.99204 2.75956 0
M  V30 9138 O 875.609 5.92498 1.05972 0
M  V30 9139 H 879.435 2.99868 -0.480898 0
M  V30 9140 H 877.02 1.46332 -0.301226 0
M  V30 9141 H 878.902 3.79084 1.84047 0
M  V30 9142 H 877.577 2.59835 1.93048 0
M  V30 9143 H 876.484 3.74001 -0.0860941 0
M  V30 9144 H 877.817 4.92111 -0.0935896 0
M  V30 9145 N 879.47 0.276058 1.55163 0
M  V30 9146 C 880.7 -0.343274 2.03728 0
M  V30 9147 C 881.108 -1.49945 1.15383 0
M  V30 9148 O 880.451 -1.82942 0.166696 0
M  V30 9149 C 880.513 -0.885683 3.48419 0
M  V30 9150 C 880.177 0.141976 4.56779 0
M  V30 9151 C 881.174 0.961816 5.10926 0
M  V30 9152 C 878.859 0.276487 5.01538 0
M  V30 9153 C 880.853 1.90234 6.0835 0
M  V30 9154 C 878.54 1.22049 5.98788 0
M  V30 9155 C 879.538 2.03192 6.52075 0
M  V30 9156 O 879.226 2.95996 7.47423 0
M  V30 9157 H 878.958 -0.0822192 0.670981 0
M  V30 9158 H 881.512 0.406199 2.01343 0
M  V30 9159 H 879.742 -1.68524 3.48047 0
M  V30 9160 H 881.431 -1.4182 3.80318 0
M  V30 9161 H 882.197 0.868637 4.77158 0
M  V30 9162 H 878.076 -0.345095 4.59707 0
M  V30 9163 H 881.62 2.5361 6.49867 0
M  V30 9164 H 877.517 1.31448 6.31974 0
M  V30 9165 H 878.285 2.90688 7.65142 0
M  V30 9166 N 880.948 -1.576 0.00335426 0
M  V30 9167 C 881.898 -2.05116 -0.995562 0
M  V30 9168 C 882.882 -0.946535 -1.30113 0
M  V30 9169 O 884.074 -1.21028 -1.29156 0
M  V30 9170 C 881.203 -2.56077 -2.28648 0
M  V30 9171 C 880.289 -3.73422 -2.0104 0
M  V30 9172 N 880.68 -4.84986 -1.43603 0
M  V30 9173 C 878.978 -3.81416 -2.31166 0
M  V30 9174 C 879.679 -5.66399 -1.32542 0
M  V30 9175 N 878.655 -5.12505 -1.81218 0
M  V30 9176 H 882.457 -2.88783 -0.546025 0
M  V30 9177 H 879.971 -1.61135 -0.202265 0
M  V30 9178 H 881.968 -2.88395 -3.01055 0
M  V30 9179 H 880.628 -1.73829 -2.74251 0
M  V30 9180 H 881.639 -5.05768 -1.11439 0
M  V30 9181 H 878.316 -3.1003 -2.7962 0
M  V30 9182 H 879.706 -6.66066 -0.88348 0
M  V30 9183 N 882.426 0.269451 -1.5528 0
M  V30 9184 C 883.675 0.998381 -1.75258 0
M  V30 9185 C 883.988 1.87321 -0.563034 0
M  V30 9186 O 885.194 2.63719 -0.645313 0
M  V30 9187 C 883.65 1.82505 -3.10193 0
M  V30 9188 C 883.258 0.99871 -4.36726 0
M  V30 9189 C 885.002 2.54807 -3.3952 0
M  V30 9190 C 882.909 1.81997 -5.627 0
M  V30 9191 H 881.839 0.376488 -0.653278 0
M  V30 9192 H 884.49 0.253909 -1.81735 0
M  V30 9193 H 882.872 2.61061 -2.97763 0
M  V30 9194 H 884.046 0.257064 -4.60082 0
M  V30 9195 H 882.361 0.390074 -4.14569 0
M  V30 9196 H 884.958 3.16662 -4.30847 0
M  V30 9197 H 885.301 3.25273 -2.59813 0
M  V30 9198 H 885.834 1.83278 -3.53064 0
M  V30 9199 H 882.573 1.15945 -6.45164 0
M  V30 9200 H 882.093 2.53749 -5.43481 0
M  V30 9201 H 883.772 2.39274 -6.0113 0
M  V30 9202 N 883.904 1.48273 0.534124 0
M  V30 9203 C 884.851 1.62487 1.6391 0
M  V30 9204 C 885.821 0.467062 1.59398 0
M  V30 9205 O 887.006 0.690029 1.77885 0
M  V30 9206 C 884.146 1.66671 3.02183 0
M  V30 9207 C 883.259 2.9353 3.16961 0
M  V30 9208 C 882.394 2.88902 4.45768 0
M  V30 9209 C 881.433 4.10483 4.54059 0
M  V30 9210 N 880.57 4.03956 5.74251 0
M  V30 9211 H 885.41 2.56851 1.51101 0
M  V30 9212 H 882.947 1.27381 0.735704 0
M  V30 9213 H 884.905 1.67079 3.82283 0
M  V30 9214 H 883.535 0.758011 3.13774 0
M  V30 9215 H 882.587 3.02886 2.3014 0
M  V30 9216 H 883.899 3.83501 3.18949 0
M  V30 9217 H 883.053 2.87688 5.34154 0
M  V30 9218 H 881.792 1.96652 4.46295 0
M  V30 9219 H 880.797 4.11977 3.64081 0
M  V30 9220 H 882.022 5.03887 4.55274 0
M  V30 9221 H 879.968 3.14525 5.75682 0
M  V30 9222 H 879.885 4.87628 5.77715 0
M  V30 9223 H 881.153 4.06795 6.64935 0
M  V30 9224 N 885.382 -0.782676 1.36792 0
M  V30 9225 C 886.332 -1.8855 1.28191 0
M  V30 9226 C 887.316 -1.59978 0.171984 0
M  V30 9227 O 888.508 -1.72295 0.405405 0
M  V30 9228 C 885.637 -3.25862 1.08021 0
M  V30 9229 C 884.723 -3.60422 2.2351 0
M  V30 9230 N 885.114 -3.66241 3.48857 0
M  V30 9231 C 883.412 -3.90523 2.15424 0
M  V30 9232 C 884.113 -3.97233 4.24948 0
M  V30 9233 N 883.089 -4.12567 3.53963 0
M  V30 9234 H 886.891 -1.91285 2.23131 0
M  V30 9235 H 884.405 -0.978554 1.29607 0
M  V30 9236 H 886.402 -4.04742 0.999458 0
M  V30 9237 H 885.062 -3.24399 0.139882 0
M  V30 9238 H 886.073 -3.48717 3.82906 0
M  V30 9239 H 882.75 -3.96945 1.29386 0
M  V30 9240 H 884.14 -4.08602 5.33379 0
M  V30 9241 N 886.86 -1.21182 -1.00761 0
M  V30 9242 C 888.137 -0.936297 -1.71735 0
M  V30 9243 C 888.517 0.552585 -2.03739 0
M  V30 9244 O 887.865 1.51672 -1.70903 0
M  V30 9245 C 888.075 -1.81867 -2.97868 0
M  V30 9246 C 889.423 -2.06594 -3.7095 0
M  V30 9247 O 890.447 -1.79194 -3.07844 0
M  V30 9248 O 889.306 -2.5292 -4.84452 0
M  V30 9249 H 886.4 -0.350867 -0.74888 0
M  V30 9250 H 888.946 -1.32098 -1.06527 0
M  V30 9251 H 887.718 -2.82643 -2.70607 0
M  V30 9252 H 887.341 -1.43463 -3.70815 0
M  V30 9253 N 888.338 1.20213 -1.01915 0
M  V30 9254 C 889.587 1.88968 -0.705261 0
M  V30 9255 C 889.9 1.79869 0.768531 0
M  V30 9256 O 891.106 2.43783 1.19508 0
M  V30 9257 C 889.562 3.38911 -1.21109 0
M  V30 9258 C 889.17 3.5659 -2.71197 0
M  V30 9259 C 890.914 4.13204 -0.97275 0
M  V30 9260 C 888.821 5.00372 -3.15248 0
M  V30 9261 H 887.751 0.707715 -0.260107 0
M  V30 9262 H 890.402 1.35977 -1.23217 0
M  V30 9263 H 888.784 3.9124 -0.612152 0
M  V30 9264 H 889.958 3.14635 -3.36662 0
M  V30 9265 H 888.273 2.95671 -2.93202 0
M  V30 9266 H 890.87 5.19221 -1.27726 0
M  V30 9267 H 891.213 4.16201 0.09072 0
M  V30 9268 H 891.746 3.66983 -1.5352 0
M  V30 9269 H 888.485 5.02532 -4.20882 0
M  V30 9270 H 888.005 5.43127 -2.54505 0
M  V30 9271 H 889.684 5.68969 -3.08032 0
M  V30 9272 N 889.816 0.795718 1.36037 0
M  V30 9273 C 890.746 0.212803 2.32528 0
M  V30 9274 C 891.727 -0.655716 1.56953 0
M  V30 9275 O 892.912 -0.588238 1.85077 0
M  V30 9276 C 890.042 -0.648189 3.41198 0
M  V30 9277 C 888.996 0.120948 4.27829 0
M  V30 9278 C 888.322 -0.861044 5.27722 0
M  V30 9279 C 889.622 1.31375 5.05508 0
M  V30 9280 H 891.316 1.01893 2.81528 0
M  V30 9281 H 888.862 0.491422 1.35355 0
M  V30 9282 H 890.815 -1.06597 4.07695 0
M  V30 9283 H 889.539 -1.48709 2.9078 0
M  V30 9284 H 888.198 0.519777 3.62897 0
M  V30 9285 H 887.846 -1.69515 4.73575 0
M  V30 9286 H 887.546 -0.350808 5.86552 0
M  V30 9287 H 889.07 -1.27726 5.97092 0
M  V30 9288 H 890.484 0.971406 5.6501 0
M  V30 9289 H 888.881 1.75772 5.73781 0
M  V30 9290 H 889.951 2.10593 4.36782 0
M  V30 9291 N 891.294 -1.47756 0.548274 0
M  V30 9292 C 892.242 -2.3158 -0.217584 0
M  V30 9293 C 893.236 -1.42372 -0.917957 0
M  V30 9294 O 894.442 -1.59184 -0.840259 0
M  V30 9295 H 890.817 -0.74671 -0.0890388 0
M  V30 9296 H 892.788 -2.94032 0.508719 0
M  V30 9297 C 891.537 -3.24834 -1.24008 0
M  V30 9298 H 890.86 -3.93435 -0.710572 0
M  V30 9299 H 892.3 -3.86336 -1.74701 0
M  V30 9300 C 890.759 -2.47724 -2.2833 0
M  V30 9301 O 891.289 -2.21522 -3.35098 0
M  V30 9302 N 889.495 -2.08891 -2.02022 0
M  V30 9303 H 889.042 -2.30401 -1.1521 0
M  V30 9304 H 889 -1.57613 -2.7204 0
M  V30 9305 N 892.772 -0.284283 -1.55015 0
M  V30 9306 C 894.019 0.329864 -1.99795 0
M  V30 9307 C 894.347 1.55171 -1.1727 0
M  V30 9308 O 893.602 1.94312 -0.232667 0
M  V30 9309 C 893.901 0.747219 -3.49502 0
M  V30 9310 C 893.567 -0.37101 -4.49371 0
M  V30 9311 C 892.229 -0.678034 -4.76399 0
M  V30 9312 C 894.581 -1.12406 -5.08935 0
M  V30 9313 C 891.909 -1.74152 -5.60257 0
M  V30 9314 C 894.261 -2.17734 -5.93948 0
M  V30 9315 C 892.925 -2.49061 -6.19294 0
M  V30 9316 H 892.195 0.120706 -0.731103 0
M  V30 9317 H 894.842 -0.399904 -1.87278 0
M  V30 9318 H 893.147 1.55681 -3.59542 0
M  V30 9319 H 894.844 1.2333 -3.81563 0
M  V30 9320 H 891.434 -0.1216 -4.28427 0
M  V30 9321 H 895.618 -0.900119 -4.88069 0
M  V30 9322 H 890.874 -1.98915 -5.78137 0
M  V30 9323 H 895.048 -2.76553 -6.39133 0
M  V30 9324 H 892.675 -3.31602 -6.84064 0
M  V30 9325 N 894.251 1.57596 -0.0117121 0
M  V30 9326 C 895.181 2.12188 0.9746 0
M  V30 9327 C 896.162 1.03379 1.35081 0
M  V30 9328 O 897.347 1.31123 1.4325 0
M  V30 9329 C 894.477 2.63477 2.26268 0
M  V30 9330 C 893.431 3.76917 2.02774 0
M  V30 9331 C 892.757 4.14566 3.37697 0
M  V30 9332 C 894.057 5.03715 1.38089 0
M  V30 9333 H 895.751 2.9485 0.520007 0
M  V30 9334 H 893.297 1.41836 0.248685 0
M  V30 9335 H 895.25 3.00299 2.95633 0
M  V30 9336 H 893.974 1.77953 2.73862 0
M  V30 9337 H 892.633 3.40507 1.35832 0
M  V30 9338 H 892.281 3.26048 3.83016 0
M  V30 9339 H 891.981 4.91 3.22789 0
M  V30 9340 H 893.505 4.53956 4.08358 0
M  V30 9341 H 894.919 5.38233 1.97428 0
M  V30 9342 H 893.316 5.85032 1.33634 0
M  V30 9343 H 894.386 4.83624 0.351575 0
M  V30 9344 N 895.729 -0.261212 1.5542 0
M  V30 9345 C 896.957 -1.00916 1.8062 0
M  V30 9346 C 897.372 -1.79494 0.585444 0
M  V30 9347 O 896.729 -1.76974 -0.445702 0
M  V30 9348 C 896.78 -1.95841 3.03856 0
M  V30 9349 O 896.501 -1.20445 4.21218 0
M  V30 9350 C 898.002 -2.82352 3.41749 0
M  V30 9351 H 895.222 -0.297596 0.601397 0
M  V30 9352 H 897.766 -0.288427 2.02456 0
M  V30 9353 H 895.921 -2.63361 2.84112 0
M  V30 9354 H 896.335 -1.84528 4.90968 0
M  V30 9355 H 897.809 -3.44733 4.31118 0
M  V30 9356 H 898.286 -3.5273 2.61683 0
M  V30 9357 H 898.892 -2.20306 3.63793 0
M  V30 9358 N 897.207 -1.48554 -0.526253 0
M  V30 9359 C 898.437 -1.60197 -1.30463 0
M  V30 9360 C 898.845 -0.26278 -1.87366 0
M  V30 9361 O 898.188 0.758537 -1.67308 0
M  V30 9362 C 898.25 -2.59223 -2.49085 0
M  V30 9363 C 897.914 -4.04199 -2.13241 0
M  V30 9364 C 898.911 -4.91771 -1.68694 0
M  V30 9365 C 896.596 -4.49762 -2.2365 0
M  V30 9366 C 898.59 -6.22934 -1.35026 0
M  V30 9367 C 896.277 -5.80945 -1.89594 0
M  V30 9368 C 897.275 -6.67354 -1.45353 0
M  V30 9369 O 896.963 -7.96096 -1.11745 0
M  V30 9370 H 896.695 -0.54284 -0.402866 0
M  V30 9371 H 899.249 -1.95137 -0.641157 0
M  V30 9372 H 897.479 -2.19412 -3.18426 0
M  V30 9373 H 899.168 -2.60661 -3.11144 0
M  V30 9374 H 899.934 -4.57806 -1.6012 0
M  V30 9375 H 895.813 -3.8269 -2.5704 0
M  V30 9376 H 899.357 -6.90334 -1.00422 0
M  V30 9377 H 895.254 -6.14444 -1.9781 0
M  V30 9378 H 896.022 -8.08882 -1.25111 0
M  V30 9379 N 898.685 0.775411 -1.37205 0
M  V30 9380 C 899.648 1.8702 -1.325 0
M  V30 9381 C 900.648 1.5915 -0.229793 0
M  V30 9382 O 901.838 1.673 -0.485423 0
M  V30 9383 C 898.97 3.24085 -1.05745 0
M  V30 9384 H 900.163 1.92604 -2.29878 0
M  V30 9385 H 897.716 0.97476 -1.22181 0
M  V30 9386 H 898.451 3.24178 -0.0888371 0
M  V30 9387 H 898.236 3.45705 -1.85016 0
M  V30 9388 H 899.726 4.0416 -1.05094 0
M  V30 9389 N 900.163 1.21714 1.00117 0
M  V30 9390 C 901.44 0.945391 1.71236 0
M  V30 9391 C 901.82 -0.541772 2.0403 0
M  V30 9392 O 901.168 -1.50763 1.71705 0
M  V30 9393 C 901.378 1.83444 2.96899 0
M  V30 9394 C 902.726 2.08558 3.69849 0
M  V30 9395 O 903.75 1.80824 3.06889 0
M  V30 9396 O 902.609 2.55485 4.83104 0
M  V30 9397 H 899.703 0.354834 0.747009 0
M  V30 9398 H 902.249 1.32661 1.05825 0
M  V30 9399 H 901.021 2.84075 2.69105 0
M  V30 9400 H 900.644 1.45428 3.70049 0
M  V30 9401 N 901.641 -1.19671 1.02551 0
M  V30 9402 C 902.551 -2.26441 0.613329 0
M  V30 9403 C 903.567 -1.70375 -0.353339 0
M  V30 9404 O 904.743 -2.0028 -0.212064 0
M  V30 9405 C 901.808 -3.46684 -0.0329028 0
M  V30 9406 C 900.869 -4.17945 0.980837 0
M  V30 9407 C 900.102 -5.32448 0.36535 0
M  V30 9408 O 900.325 -5.64291 -0.832596 0
M  V30 9409 O 899.259 -5.92012 1.08652 0
M  V30 9410 H 903.085 -2.63932 1.50246 0
M  V30 9411 H 900.67 -1.2646 0.795502 0
M  V30 9412 H 902.552 -4.1956 -0.393395 0
M  V30 9413 H 901.227 -3.1105 -0.896089 0
M  V30 9414 H 900.134 -3.47204 1.39286 0
M  V30 9415 H 901.467 -4.57542 1.81428 0
M  V30 9416 N 903.119 -0.802921 -1.35613 0
M  V30 9417 C 904.349 -0.393359 -2.02821 0
M  V30 9418 C 904.757 0.999282 -1.60658 0
M  V30 9419 O 904.1 1.65463 -0.797977 0
M  V30 9420 C 904.162 -0.393102 -3.57344 0
M  V30 9421 C 903.826 -1.73563 -4.22759 0
M  V30 9422 C 904.823 -2.69333 -4.44698 0
M  V30 9423 C 902.508 -2.01863 -4.59953 0
M  V30 9424 C 904.502 -3.91589 -5.02928 0
M  V30 9425 C 902.189 -3.24383 -5.17898 0
M  V30 9426 C 903.187 -4.19064 -5.39328 0
M  V30 9427 O 902.875 -5.39422 -5.96053 0
M  V30 9428 H 902.607 -0.158431 -0.657172 0
M  V30 9429 H 905.161 -1.08682 -1.74291 0
M  V30 9430 H 903.391 0.356934 -3.85049 0
M  V30 9431 H 905.08 -0.00635596 -4.059 0
M  V30 9432 H 905.846 -2.48759 -4.16346 0
M  V30 9433 H 901.725 -1.28979 -4.42589 0
M  V30 9434 H 905.269 -4.65502 -5.1957 0
M  V30 9435 H 901.166 -3.44829 -5.45677 0
M  V30 9436 H 901.934 -5.40669 -6.14507 0
M  V30 9437 N 904.597 1.47463 -0.556102 0
M  V30 9438 C 905.56 2.28478 0.181743 0
M  V30 9439 C 906.56 1.36886 0.843738 0
M  V30 9440 O 907.75 1.59527 0.69977 0
M  V30 9441 C 904.882 3.16534 1.26566 0
M  V30 9442 H 906.075 2.95182 -0.529892 0
M  V30 9443 H 903.628 1.53134 -0.313005 0
M  V30 9444 H 904.363 2.5452 2.00973 0
M  V30 9445 H 904.148 3.83939 0.795798 0
M  V30 9446 H 905.638 3.77579 1.78393 0
M  V30 9447 N 906.075 0.2925 1.54862 0
M  V30 9448 C 907.324 -0.319994 1.99146 0
M  V30 9449 C 907.637 -1.55658 1.18448 0
M  V30 9450 O 908.843 -2.24312 1.52959 0
M  V30 9451 C 907.299 -0.620665 3.54508 0
M  V30 9452 C 906.907 0.597098 4.44003 0
M  V30 9453 C 908.651 -1.19482 4.07338 0
M  V30 9454 C 906.558 0.270049 5.90783 0
M  V30 9455 H 905.488 -0.123342 0.743843 0
M  V30 9456 H 908.139 0.399876 1.7909 0
M  V30 9457 H 906.521 -1.3999 3.7043 0
M  V30 9458 H 907.695 1.37354 4.39853 0
M  V30 9459 H 906.01 1.0893 4.019 0
M  V30 9460 H 908.607 -1.45362 5.14562 0
M  V30 9461 H 908.95 -2.13435 3.57423 0
M  V30 9462 H 909.483 -0.477485 3.94924 0
M  V30 9463 H 906.222 1.17791 6.4483 0
M  V30 9464 H 905.742 -0.469292 5.97961 0
M  V30 9465 H 907.421 -0.131471 6.46866 0
M  V30 9466 N 907.553 -1.57587 0.0200696 0
M  V30 9467 C 908.801 -1.91046 -0.65922 0
M  V30 9468 C 909.122 -0.896197 -1.73186 0
M  V30 9469 O 908.392 0.0635952 -1.95797 0
M  V30 9470 H 906.972 -0.705163 -0.246483 0
M  V30 9471 H 909.634 -1.94789 0.0657368 0
M  V30 9472 H 908.73 -2.91399 -1.11773 0
M  V30 9473 N 909.032 0.252966 -1.55557 0
M  V30 9474 C 910.262 0.998115 -1.8089 0
M  V30 9475 C 910.67 1.79679 -0.592623 0
M  V30 9476 O 910.013 1.78151 0.448093 0
M  V30 9477 C 910.075 1.98878 -2.99479 0
M  V30 9478 C 909.739 1.37761 -4.35742 0
M  V30 9479 C 910.736 0.783142 -5.13968 0
M  V30 9480 C 908.421 1.39879 -4.8243 0
M  V30 9481 C 910.415 0.218004 -6.37027 0
M  V30 9482 C 908.102 0.829801 -6.0544 0
M  V30 9483 C 909.1 0.240426 -6.82577 0
M  V30 9484 O 908.788 -0.319797 -8.03264 0
M  V30 9485 H 908.52 0.29963 -0.605969 0
M  V30 9486 H 911.074 0.282978 -2.03441 0
M  V30 9487 H 909.304 2.74206 -2.72669 0
M  V30 9488 H 910.993 2.59686 -3.11959 0
M  V30 9489 H 911.759 0.759326 -4.79019 0
M  V30 9490 H 907.638 1.84692 -4.22386 0
M  V30 9491 H 911.182 -0.242654 -6.97178 0
M  V30 9492 H 907.079 0.850924 -6.39867 0
M  V30 9493 H 907.847 -0.211078 -8.18228 0
M  V30 9494 N 910.51 1.48831 0.518367 0
M  V30 9495 C 911.757 1.57439 1.27355 0
M  V30 9496 C 912.085 0.25338 1.92843 0
M  V30 9497 O 911.34 -0.757323 1.80452 0
M  V30 9498 C 911.639 2.67003 2.3758 0
M  V30 9499 C 911.305 4.09069 1.89667 0
M  V30 9500 C 909.967 4.47733 1.76319 0
M  V30 9501 C 912.319 4.98052 1.53603 0
M  V30 9502 C 909.647 5.73173 1.25258 0
M  V30 9503 C 911.999 6.23992 1.04001 0
M  V30 9504 C 910.663 6.61503 0.892784 0
M  V30 9505 H 909.933 0.57611 0.466023 0
M  V30 9506 H 912.58 1.82595 0.577166 0
M  V30 9507 H 910.885 2.35751 3.12936 0
M  V30 9508 H 912.582 2.70876 2.95681 0
M  V30 9509 H 909.172 3.7854 2.01011 0
M  V30 9510 H 913.356 4.68849 1.62771 0
M  V30 9511 H 908.612 6.0095 1.12557 0
M  V30 9512 H 912.786 6.92331 0.751706 0
M  V30 9513 H 910.413 7.58587 0.494939 0
M  V30 9514 N 911.988 -0.768124 1.37614 0
M  V30 9515 C 912.935 -1.88151 1.33671 0
M  V30 9516 C 913.905 -1.64871 0.201645 0
M  V30 9517 O 915.09 -1.86739 0.391582 0
M  V30 9518 C 912.23 -3.25264 1.15314 0
M  V30 9519 C 911.343 -3.60473 2.38082 0
M  V30 9520 C 910.478 -4.86814 2.12569 0
M  V30 9521 C 909.517 -5.14765 3.31184 0
M  V30 9522 N 908.654 -6.32295 3.052 0
M  V30 9523 H 913.494 -1.90857 2.28862 0
M  V30 9524 H 911.031 -0.933048 1.13722 0
M  V30 9525 H 912.989 -4.04364 1.02691 0
M  V30 9526 H 911.619 -3.21924 0.237689 0
M  V30 9527 H 910.671 -2.7633 2.61431 0
M  V30 9528 H 911.983 -3.77065 3.26532 0
M  V30 9529 H 911.137 -5.73826 1.96999 0
M  V30 9530 H 909.876 -4.72333 1.21462 0
M  V30 9531 H 908.881 -4.26227 3.4729 0
M  V30 9532 H 910.106 -5.31153 4.23147 0
M  V30 9533 H 908.052 -6.19166 2.16726 0
M  V30 9534 H 907.969 -6.4932 3.87195 0
M  V30 9535 H 909.237 -7.22234 2.93254 0
M  V30 9536 N 913.466 -1.22244 -0.994698 0
M  V30 9537 C 914.413 -0.990906 -2.08446 0
M  V30 9538 C 915.383 0.086737 -1.65873 0
M  V30 9539 O 916.568 -0.0624882 -1.90698 0
M  V30 9540 C 913.708 -0.572813 -3.40313 0
M  V30 9541 C 912.821 -1.72103 -3.96238 0
M  V30 9542 C 911.956 -1.2511 -5.16257 0
M  V30 9543 C 910.995 -2.37098 -5.64315 0
M  V30 9544 N 910.132 -1.91164 -6.75574 0
M  V30 9545 H 914.972 -1.92377 -2.27585 0
M  V30 9546 H 912.509 -0.958576 -1.11578 0
M  V30 9547 H 914.467 -0.311594 -4.16035 0
M  V30 9548 H 913.097 0.323044 -3.21179 0
M  V30 9549 H 912.149 -2.09662 -3.17405 0
M  V30 9550 H 913.461 -2.56347 -4.27888 0
M  V30 9551 H 912.615 -0.947152 -5.99261 0
M  V30 9552 H 911.354 -0.378836 -4.86226 0
M  V30 9553 H 910.359 -2.68283 -4.799 0
M  V30 9554 H 911.584 -3.24837 -5.96371 0
M  V30 9555 H 909.53 -1.06298 -6.47331 0
M  V30 9556 H 909.447 -2.68975 -7.06533 0
M  V30 9557 H 910.715 -1.63833 -7.62088 0
M  V30 9558 N 914.944 1.19125 -1.03184 0
M  V30 9559 C 915.876 2.21914 -0.573294 0
M  V30 9560 C 916.889 1.5894 0.352397 0
M  V30 9561 O 918.078 1.77883 0.148318 0
M  V30 9562 C 915.178 3.38403 0.18355 0
M  V30 9563 C 914.351 4.3096 -0.747817 0
M  V30 9564 C 913.41 5.26188 -0.0358489 0
M  V30 9565 O 912.436 5.65321 -0.663388 0
M  V30 9566 N 913.638 5.67235 1.23387 0
M  V30 9567 H 916.403 2.61881 -1.45734 0
M  V30 9568 H 913.964 1.33821 -0.911231 0
M  V30 9569 H 915.956 3.99124 0.669468 0
M  V30 9570 H 914.526 2.97201 0.969043 0
M  V30 9571 H 913.746 3.67976 -1.41377 0
M  V30 9572 H 915.034 4.89708 -1.38071 0
M  V30 9573 H 914.432 5.37481 1.76439 0
M  V30 9574 H 912.989 6.30196 1.66423 0
M  V30 9575 N 916.422 0.810101 1.35185 0
M  V30 9576 C 917.67 0.391343 1.98275 0
M  V30 9577 C 917.991 -1.04592 1.64577 0
M  V30 9578 O 917.261 -1.72417 0.93001 0
M  V30 9579 H 915.841 0.141715 0.733434 0
M  V30 9580 H 918.503 1.03672 1.6504 0
M  V30 9581 H 917.599 0.49991 3.0807 0
M  V30 9582 N 917.9 -1.47166 0.563914 0
M  V30 9583 C 919.147 -2.02456 0.042371 0
M  V30 9584 C 919.475 -1.43753 -1.31016 0
M  V30 9585 O 918.73 -0.585287 -1.86743 0
M  V30 9586 C 919.029 -3.57279 -0.0931797 0
M  V30 9587 C 918.695 -4.34932 1.18933 0
M  V30 9588 C 917.357 -4.55867 1.54073 0
M  V30 9589 C 919.709 -4.79665 2.03889 0
M  V30 9590 C 917.037 -5.18785 2.74005 0
M  V30 9591 C 919.389 -5.43907 3.23029 0
M  V30 9592 C 918.053 -5.63074 3.58475 0
M  V30 9593 H 917.323 -0.740838 0.0155047 0
M  V30 9594 H 919.97 -1.76759 0.736776 0
M  V30 9595 H 918.275 -3.82005 -0.870596 0
M  V30 9596 H 919.972 -3.97716 -0.512176 0
M  V30 9597 H 916.562 -4.18921 0.905718 0
M  V30 9598 H 920.746 -4.63264 1.78046 0
M  V30 9599 H 916.002 -5.31818 3.01628 0
M  V30 9600 H 920.176 -5.77531 3.89141 0
M  V30 9601 H 917.803 -6.11598 4.515 0
M  V30 9602 N 919.378 -0.300708 -1.54705 0
M  V30 9603 C 920.603 0.314073 -2.05008 0
M  V30 9604 C 921.028 1.46759 -1.17657 0
M  V30 9605 O 920.386 1.80398 -0.180598 0
M  V30 9606 C 920.434 0.748243 -3.52752 0
M  V30 9607 O 919.538 1.85305 -3.68424 0
M  V30 9608 H 918.879 0.0610139 -0.661191 0
M  V30 9609 H 921.409 -0.442467 -1.99758 0
M  V30 9610 H 921.419 1.03713 -3.94598 0
M  V30 9611 H 920.094 -0.095573 -4.1579 0
M  V30 9612 H 918.671 1.56473 -3.38483 0
M  V30 9613 N 920.856 1.57574 -0.0284266 0
M  V30 9614 C 921.803 2.10176 0.953658 0
M  V30 9615 C 922.773 1.00367 1.32347 0
M  V30 9616 O 923.958 1.27783 1.4169 0
M  V30 9617 C 921.098 2.63287 2.231 0
M  V30 9618 C 920.211 3.87102 1.91771 0
M  V30 9619 C 919.346 4.28609 3.13795 0
M  V30 9620 C 918.385 5.45184 2.78282 0
M  V30 9621 N 917.522 5.81851 3.92929 0
M  V30 9622 H 922.362 2.93806 0.498176 0
M  V30 9623 H 919.899 1.45222 0.234302 0
M  V30 9624 H 921.857 2.9217 2.97813 0
M  V30 9625 H 920.487 1.82489 2.66266 0
M  V30 9626 H 919.539 3.64952 1.07303 0
M  V30 9627 H 920.851 4.71892 1.61615 0
M  V30 9628 H 920.005 4.58925 3.96829 0
M  V30 9629 H 918.744 3.42585 3.47112 0
M  V30 9630 H 917.749 5.14563 1.93661 0
M  V30 9631 H 918.974 6.32907 2.46182 0
M  V30 9632 H 916.92 4.98782 4.2609 0
M  V30 9633 H 916.837 6.6128 3.66395 0
M  V30 9634 H 918.105 6.16772 4.76669 0
M  V30 9635 N 922.334 -0.244713 1.55689 0
M  V30 9636 C 923.244 -1.32447 1.93636 0
M  V30 9637 C 924.26 -1.52541 0.837086 0
M  V30 9638 O 925.436 -1.66121 1.13867 0
M  V30 9639 C 922.501 -2.65864 2.22525 0
M  V30 9640 C 921.562 -2.54273 3.45896 0
M  V30 9641 C 920.795 -3.81327 3.73397 0
M  V30 9642 O 921.018 -4.83307 3.02936 0
M  V30 9643 O 919.952 -3.79829 4.66919 0
M  V30 9644 H 923.778 -1.03255 2.85608 0
M  V30 9645 H 921.363 -0.445652 1.42598 0
M  V30 9646 H 923.245 -3.447 2.42404 0
M  V30 9647 H 921.92 -2.94784 1.33731 0
M  V30 9648 H 920.827 -1.73715 3.31321 0
M  V30 9649 H 922.16 -2.30297 4.34999 0
M  V30 9650 N 923.813 -1.49104 -0.510467 0
M  V30 9651 C 925.062 -1.57362 -1.26175 0
M  V30 9652 C 925.375 -0.261218 -1.93848 0
M  V30 9653 O 926.581 -0.222238 -2.70589 0
M  V30 9654 C 925.037 -2.77606 -2.29048 0
M  V30 9655 C 924.645 -4.15567 -1.67357 0
M  V30 9656 C 926.389 -2.95188 -3.05064 0
M  V30 9657 C 924.296 -5.27046 -2.68285 0
M  V30 9658 H 923.226 -0.585887 -0.474608 0
M  V30 9659 H 925.877 -1.75474 -0.536753 0
M  V30 9660 H 924.259 -2.52968 -3.04669 0
M  V30 9661 H 925.433 -4.50304 -0.977924 0
M  V30 9662 H 923.748 -4.03264 -1.03765 0
M  V30 9663 H 926.345 -3.75643 -3.80521 0
M  V30 9664 H 926.688 -2.05385 -3.62108 0
M  V30 9665 H 927.221 -3.19821 -2.36558 0
M  V30 9666 H 923.96 -6.18878 -2.16034 0
M  V30 9667 H 923.48 -4.96774 -3.36118 0
M  V30 9668 H 925.159 -5.55983 -3.30896 0
M  V30 9669 N 925.291 0.760815 -1.38019 0
M  V30 9670 C 926.238 1.8744 -1.34666 0
M  V30 9671 C 927.208 1.64762 -0.210386 0
M  V30 9672 O 928.393 1.86528 -0.401479 0
M  V30 9673 C 925.533 3.24648 -1.17037 0
M  V30 9674 C 924.646 3.59206 -2.3999 0
M  V30 9675 C 923.781 4.8568 -2.15148 0
M  V30 9676 C 922.82 5.13002 -3.3391 0
M  V30 9677 N 921.957 6.30668 -3.08549 0
M  V30 9678 H 926.797 1.8964 -2.29871 0
M  V30 9679 H 924.334 0.927004 -1.14215 0
M  V30 9680 H 926.292 4.03814 -1.04834 0
M  V30 9681 H 924.922 3.21793 -0.254758 0
M  V30 9682 H 923.974 2.74939 -2.62893 0
M  V30 9683 H 925.286 3.75328 -3.28527 0
M  V30 9684 H 924.44 5.72773 -2.00039 0
M  V30 9685 H 923.179 4.71682 -1.23965 0
M  V30 9686 H 922.184 4.2438 -3.49545 0
M  V30 9687 H 923.409 5.28901 -4.25958 0
M  V30 9688 H 921.355 6.18008 -2.20006 0
M  V30 9689 H 921.272 6.47257 -3.90633 0
M  V30 9690 H 922.54 7.20669 -2.9708 0
M  V30 9691 N 926.769 1.22769 0.988202 0
M  V30 9692 C 928.018 1.0492 1.72263 0
M  V30 9693 C 928.331 -0.415282 1.91141 0
M  V30 9694 O 929.537 -0.713547 2.61956 0
M  V30 9695 C 927.993 1.82891 3.09966 0
M  V30 9696 C 927.601 3.33618 2.99003 0
M  V30 9697 C 929.345 1.73505 3.87423 0
M  V30 9698 C 927.252 4.04012 4.3189 0
M  V30 9699 H 926.182 0.38899 0.645912 0
M  V30 9700 H 928.833 1.46664 1.10281 0
M  V30 9701 H 927.215 1.33948 3.72658 0
M  V30 9702 H 928.389 3.8999 2.45448 0
M  V30 9703 H 926.704 3.43732 2.35027 0
M  V30 9704 H 929.301 2.23416 4.85787 0
M  V30 9705 H 929.644 0.696344 4.10435 0
M  V30 9706 H 930.177 2.20016 3.31418 0
M  V30 9707 H 926.916 5.08155 4.14075 0
M  V30 9708 H 926.436 3.52428 4.8534 0
M  V30 9709 H 928.115 4.0987 5.00615 0
M  V30 9710 N 928.247 -1.18576 1.03814 0
M  V30 9711 C 929.658 -1.70159 0.768299 0
M  V30 9712 C 930.009 -1.8286 -0.711106 0
M  V30 9713 O 929.134 -1.5063 -1.55369 0
M  V30 9714 C 929.729 -3.09062 1.38804 0
M  V30 9715 C 928.288 -3.57866 1.16656 0
M  V30 9716 C 927.435 -2.34484 1.48029 0
M  V30 9717 H 930.386 -1.03287 1.20488 0
M  V30 9718 H 930.407 -3.72211 0.7899 0
M  V30 9719 H 929.919 -2.99785 2.46476 0
M  V30 9720 H 928.02 -3.72442 0.108471 0
M  V30 9721 H 928.133 -4.41445 1.8618 0
M  V30 9722 H 926.497 -2.38273 0.899902 0
M  V30 9723 H 927.28 -2.27829 2.56805 0
M  V30 9724 N 929.725 -0.817259 -1.34754 0
M  V30 9725 C 930.672 -0.233108 -2.2962 0
M  V30 9726 C 931.642 0.638902 -1.53321 0
M  V30 9727 O 932.827 0.581739 -1.81715 0
M  V30 9728 C 929.967 0.603659 -3.39779 0
M  V30 9729 C 929.08 -0.289967 -4.31026 0
M  V30 9730 C 928.215 0.555825 -5.28284 0
M  V30 9731 C 927.254 -0.337539 -6.11169 0
M  V30 9732 N 926.391 0.468847 -7.00533 0
M  V30 9733 H 931.231 -1.04747 -2.78984 0
M  V30 9734 H 928.768 -0.528056 -1.37295 0
M  V30 9735 H 930.726 1.10407 -4.02326 0
M  V30 9736 H 929.356 1.38319 -2.91664 0
M  V30 9737 H 928.408 -0.908552 -3.69391 0
M  V30 9738 H 929.72 -0.977136 -4.89135 0
M  V30 9739 H 928.874 1.12094 -5.96255 0
M  V30 9740 H 927.613 1.27652 -4.70698 0
M  V30 9741 H 926.618 -0.914839 -5.42135 0
M  V30 9742 H 927.843 -1.05626 -6.70835 0
M  V30 9743 H 925.789 1.17332 -6.45422 0
M  V30 9744 H 925.706 -0.160052 -7.55831 0
M  V30 9745 H 926.974 1.01689 -7.72839 0
M  V30 9746 N 931.203 1.46865 -0.571711 0
M  V30 9747 C 932.431 2.06818 -0.0583975 0
M  V30 9748 C 932.846 1.42218 1.24175 0
M  V30 9749 O 932.203 0.523655 1.74826 0
M  V30 9750 C 932.254 3.61281 0.125673 0
M  V30 9751 O 931.975 4.23462 -1.123 0
M  V30 9752 C 933.476 4.38137 0.674604 0
M  V30 9753 H 930.696 0.668948 -0.052438 0
M  V30 9754 H 933.24 1.88656 -0.789251 0
M  V30 9755 H 931.395 3.78908 0.806707 0
M  V30 9756 H 931.809 5.16192 -0.929869 0
M  V30 9757 H 933.283 5.46845 0.752626 0
M  V30 9758 H 933.76 4.05419 1.68915 0
M  V30 9759 H 934.366 4.2529 0.0287979 0
M  V30 9760 N 932.681 0.308908 1.54543 0
M  V30 9761 C 933.628 -0.563659 2.23811 0
M  V30 9762 C 934.598 -1.12332 1.22355 0
M  V30 9763 O 935.783 -1.16638 1.50997 0
M  V30 9764 C 932.923 -1.72585 2.98845 0
M  V30 9765 C 932.036 -1.19682 4.1509 0
M  V30 9766 C 931.171 -2.32351 4.77688 0
M  V30 9767 C 930.21 -1.76623 5.86064 0
M  V30 9768 N 929.347 -2.82896 6.42584 0
M  V30 9769 H 934.187 0.0336288 2.97981 0
M  V30 9770 H 931.724 0.0283666 1.47073 0
M  V30 9771 H 933.682 -2.40951 3.40586 0
M  V30 9772 H 932.312 -2.29464 2.27037 0
M  V30 9773 H 931.364 -0.405173 3.78236 0
M  V30 9774 H 932.676 -0.748923 4.93146 0
M  V30 9775 H 931.83 -3.0865 5.22322 0
M  V30 9776 H 930.569 -2.80472 3.98982 0
M  V30 9777 H 929.574 -0.988171 5.40847 0
M  V30 9778 H 930.799 -1.29398 6.66658 0
M  V30 9779 H 928.745 -3.30336 5.66758 0
M  V30 9780 H 928.662 -2.42626 7.16009 0
M  V30 9781 H 929.93 -3.59068 6.91875 0
M  V30 9782 N 934.159 -1.57557 0.0367827 0
M  V30 9783 C 935.389 -1.96134 -0.649225 0
M  V30 9784 C 935.797 -0.912279 -1.65753 0
M  V30 9785 O 935.14 0.113569 -1.83349 0
M  V30 9786 C 935.202 -3.30889 -1.40545 0
M  V30 9787 C 934.866 -4.53622 -0.554609 0
M  V30 9788 C 935.863 -5.19611 0.17331 0
M  V30 9789 C 933.548 -4.99907 -0.48976 0
M  V30 9790 C 935.542 -6.3021 0.95467 0
M  V30 9791 C 933.229 -6.10386 0.295299 0
M  V30 9792 C 934.227 -6.75398 1.01621 0
M  V30 9793 O 933.915 -7.83755 1.78839 0
M  V30 9794 H 933.647 -0.650662 -0.183344 0
M  V30 9795 H 936.201 -2.05179 0.0951512 0
M  V30 9796 H 934.431 -3.18356 -2.19513 0
M  V30 9797 H 936.12 -3.54315 -1.9803 0
M  V30 9798 H 936.886 -4.84819 0.132589 0
M  V30 9799 H 932.765 -4.49105 -1.04046 0
M  V30 9800 H 936.309 -6.80886 1.51789 0
M  V30 9801 H 932.206 -6.44616 0.33771 0
M  V30 9802 H 932.974 -8.0046 1.70898 0
M  V30 9803 N 935.637 0.236453 -1.55816 0
M  V30 9804 C 936.883 0.964439 -1.784 0
M  V30 9805 C 937.216 1.84573 -0.603868 0
M  V30 9806 O 936.491 1.90395 0.397473 0
M  V30 9807 C 936.774 1.81608 -3.10951 0
M  V30 9808 C 936.627 0.962283 -4.39386 0
M  V30 9809 C 937.946 2.79665 -3.39817 0
M  V30 9810 H 935.065 0.349192 -0.649026 0
M  V30 9811 H 937.707 0.234247 -1.8855 0
M  V30 9812 H 935.857 2.43864 -3.02428 0
M  V30 9813 H 937.529 0.35762 -4.59912 0
M  V30 9814 H 935.772 0.267062 -4.32977 0
M  V30 9815 H 936.443 1.59222 -5.28538 0
M  V30 9816 H 938.919 2.27546 -3.4837 0
M  V30 9817 H 937.795 3.36367 -4.33761 0
M  V30 9818 H 938.056 3.56657 -2.61244 0
M  V30 9819 N 937.115 1.49373 0.502552 0
M  V30 9820 C 938.363 1.58467 1.25429 0
M  V30 9821 C 938.684 0.272593 1.93085 0
M  V30 9822 O 937.954 -0.707947 1.82661 0
M  V30 9823 H 936.534 0.583866 0.46595 0
M  V30 9824 H 939.196 1.8599 0.582568 0
M  V30 9825 H 938.292 2.37993 2.01906 0
M  V30 9826 N 938.594 -0.753485 1.38421 0
M  V30 9827 C 939.824 -1.54049 1.37669 0
M  V30 9828 C 940.232 -1.89167 -0.0353656 0
M  V30 9829 O 939.575 -1.53285 -1.01239 0
M  V30 9830 C 939.637 -2.86777 2.16793 0
M  V30 9831 C 939.301 -2.74196 3.65603 0
M  V30 9832 C 940.298 -2.43985 4.59094 0
M  V30 9833 C 937.983 -2.91645 4.0896 0
M  V30 9834 C 939.977 -2.31379 5.93921 0
M  V30 9835 C 937.664 -2.78658 5.43868 0
M  V30 9836 C 938.662 -2.48568 6.36163 0
M  V30 9837 O 938.35 -2.3564 7.68589 0
M  V30 9838 H 938.082 -0.483276 0.472673 0
M  V30 9839 H 940.636 -0.940267 1.82615 0
M  V30 9840 H 938.866 -3.48988 1.66565 0
M  V30 9841 H 940.555 -3.48289 2.08446 0
M  V30 9842 H 941.321 -2.30172 4.26902 0
M  V30 9843 H 937.2 -3.14063 3.37469 0
M  V30 9844 H 940.744 -2.07813 6.65927 0
M  V30 9845 H 936.641 -2.92044 5.75656 0
M  V30 9846 H 937.409 -2.50851 7.79112 0
M  V30 9847 N 940.072 -1.23292 -0.981677 0
M  V30 9848 C 941.321 -1.05832 -1.71705 0
M  V30 9849 C 941.634 0.40514 -1.91358 0
M  V30 9850 O 942.84 0.699645 -2.6233 0
M  V30 9851 C 941.296 -1.84532 -3.08992 0
M  V30 9852 C 940.904 -3.35199 -2.9723 0
M  V30 9853 C 942.648 -1.75557 -3.86497 0
M  V30 9854 C 940.555 -4.06296 -4.29741 0
M  V30 9855 H 939.485 -0.39241 -0.64384 0
M  V30 9856 H 942.136 -1.47247 -1.09502 0
M  V30 9857 H 940.518 -1.35923 -3.71942 0
M  V30 9858 H 941.692 -3.91286 -2.43377 0
M  V30 9859 H 940.007 -3.44973 -2.332 0
M  V30 9860 H 942.604 -2.25989 -4.84596 0
M  V30 9861 H 942.947 -0.718101 -4.1006 0
M  V30 9862 H 943.48 -2.21771 -3.30246 0
M  V30 9863 H 940.219 -5.10344 -4.11375 0
M  V30 9864 H 939.739 -3.54997 -4.83464 0
M  V30 9865 H 941.418 -4.12519 -4.98434 0
M  V30 9866 N 941.55 1.18024 -1.04442 0
M  V30 9867 C 942.497 2.21785 -0.638759 0
M  V30 9868 C 943.467 1.62255 0.355312 0
M  V30 9869 O 944.652 1.89176 0.24844 0
M  V30 9870 C 941.792 3.45098 -0.0118002 0
M  V30 9871 C 940.905 4.1895 -1.05379 0
M  V30 9872 C 940.04 5.2973 -0.394951 0
M  V30 9873 C 939.079 5.95359 -1.42178 0
M  V30 9874 N 938.216 6.97668 -0.787635 0
M  V30 9875 H 943.056 2.55839 -1.52808 0
M  V30 9876 H 940.593 1.25681 -0.764378 0
M  V30 9877 H 942.551 4.15564 0.369075 0
M  V30 9878 H 941.181 3.11652 0.84102 0
M  V30 9879 H 940.233 3.47274 -1.55258 0
M  V30 9880 H 941.545 4.63877 -1.83355 0
M  V30 9881 H 940.699 6.06687 0.0399244 0
M  V30 9882 H 939.438 4.85915 0.416867 0
M  V30 9883 H 938.443 5.17139 -1.86675 0
M  V30 9884 H 939.668 6.41255 -2.23536 0
M  V30 9885 H 937.614 6.56 0.00380893 0
M  V30 9886 H 937.531 7.40867 -1.50505 0
M  V30 9887 H 938.799 7.78586 -0.377282 0
M  V30 9888 N 943.028 0.824394 1.34319 0
M  V30 9889 C 944.305 0.335692 1.92698 0
M  V30 9890 C 944.685 -1.17715 1.75232 0
M  V30 9891 O 944.033 -1.98493 1.13194 0
M  V30 9892 C 944.243 0.766647 3.40475 0
M  V30 9893 C 945.591 0.766323 4.17627 0
M  V30 9894 O 946.615 0.709321 3.49066 0
M  V30 9895 O 945.474 0.840856 5.39992 0
M  V30 9896 H 942.568 0.0919996 0.821867 0
M  V30 9897 H 945.114 0.909282 1.43283 0
M  V30 9898 H 943.886 1.80859 3.46995 0
M  V30 9899 H 943.509 0.168833 3.97241 0
M  V30 9900 N 944.506 -1.46559 0.579492 0
M  V30 9901 C 945.736 -2.06484 0.0692642 0
M  V30 9902 C 946.144 -1.4293 -1.23967 0
M  V30 9903 O 945.487 -0.527632 -1.75959 0
M  V30 9904 C 945.549 -3.59078 -0.174174 0
M  V30 9905 C 945.213 -4.44805 1.04867 0
M  V30 9906 C 946.21 -4.81543 1.95991 0
M  V30 9907 C 943.895 -4.8599 1.26961 0
M  V30 9908 C 945.889 -5.58288 3.0756 0
M  V30 9909 C 943.576 -5.62495 2.38836 0
M  V30 9910 C 944.574 -5.98558 3.28964 0
M  V30 9911 O 944.262 -6.73518 4.38896 0
M  V30 9912 H 943.994 -0.673917 0.0530331 0
M  V30 9913 H 946.548 -1.89223 0.79898 0
M  V30 9914 H 944.778 -3.74634 -0.958464 0
M  V30 9915 H 946.467 -4.00941 -0.632515 0
M  V30 9916 H 947.233 -4.50307 1.80136 0
M  V30 9917 H 943.112 -4.57372 0.577184 0
M  V30 9918 H 946.656 -5.86355 3.77933 0
M  V30 9919 H 942.553 -5.93145 2.54655 0
M  V30 9920 H 943.321 -6.91938 4.37223 0
M  V30 9921 N 945.984 -0.3171 -1.54377 0
M  V30 9922 C 946.894 0.560867 -2.27797 0
M  V30 9923 C 947.91 1.13473 -1.31908 0
M  V30 9924 O 949.086 1.15608 -1.64914 0
M  V30 9925 C 946.151 1.70886 -3.0166 0
M  V30 9926 C 945.212 1.16745 -4.13121 0
M  V30 9927 C 944.445 2.26073 -4.83453 0
M  V30 9928 O 944.668 3.46292 -4.53252 0
M  V30 9929 O 943.602 1.91856 -5.70504 0
M  V30 9930 H 947.428 -0.035193 -3.0368 0
M  V30 9931 H 945.013 -0.0830062 -1.49169 0
M  V30 9932 H 946.895 2.37736 -3.47936 0
M  V30 9933 H 945.57 2.29122 -2.28658 0
M  V30 9934 H 944.477 0.464224 -3.71209 0
M  V30 9935 H 945.81 0.630307 -4.88147 0
M  V30 9936 N 947.462 1.57535 -0.0451378 0
M  V30 9937 C 948.71 1.92071 0.628743 0
M  V30 9938 C 949.031 0.923635 1.71738 0
M  V30 9939 O 948.301 -0.0324376 1.95873 0
M  V30 9940 H 946.881 0.708995 0.235233 0
M  V30 9941 H 949.543 1.9466 -0.0967177 0
M  V30 9942 H 948.639 2.9314 1.07123 0
M  V30 9943 N 948.94 -0.228186 1.55939 0
M  V30 9944 C 949.903 -1.26621 1.91049 0
M  V30 9945 C 950.903 -1.40141 0.788491 0
M  V30 9946 O 952.093 -1.3852 1.05631 0
M  V30 9947 C 949.225 -2.64108 2.15545 0
M  V30 9948 H 950.418 -0.966978 2.83883 0
M  V30 9949 H 947.971 -0.468313 1.49119 0
M  V30 9950 H 948.706 -2.99141 1.25241 0
M  V30 9951 H 948.491 -2.55673 2.97277 0
M  V30 9952 H 949.981 -3.39025 2.43827 0
M  V30 9953 N 950.418 -1.49637 -0.494624 0
M  V30 9954 C 951.646 -1.63164 -1.2722 0
M  V30 9955 C 952.061 -0.305552 -1.86311 0
M  V30 9956 O 951.418 0.709758 -1.68133 0
M  V30 9957 C 951.469 -2.70524 -2.39789 0
M  V30 9958 O 951.19 -3.97991 -1.83126 0
M  V30 9959 C 952.691 -2.94814 -3.31058 0
M  V30 9960 H 949.911 -0.54912 -0.385627 0
M  V30 9961 H 952.455 -1.95711 -0.593081 0
M  V30 9962 H 950.61 -2.40738 -3.03519 0
M  V30 9963 H 951.024 -4.57179 -2.57075 0
M  V30 9964 H 952.498 -3.73653 -4.06309 0
M  V30 9965 H 952.975 -2.04974 -3.88436 0
M  V30 9966 H 953.581 -3.26042 -2.73088 0
M  V30 9967 N 951.896 0.746133 -1.38819 0
M  V30 9968 C 952.826 1.87344 -1.39372 0
M  V30 9969 C 953.807 1.68123 -0.258583 0
M  V30 9970 O 954.992 1.88606 -0.462769 0
M  V30 9971 C 952.122 3.24962 -1.22543 0
M  V30 9972 C 951.076 3.58799 -2.33339 0
M  V30 9973 C 950.402 4.95235 -2.01609 0
M  V30 9974 C 951.702 3.62911 -3.75624 0
M  V30 9975 H 953.396 1.87138 -2.33709 0
M  V30 9976 H 950.942 0.898937 -1.12495 0
M  V30 9977 H 952.895 4.03488 -1.21554 0
M  V30 9978 H 951.619 3.25667 -0.246707 0
M  V30 9979 H 950.278 2.82596 -2.33527 0
M  V30 9980 H 949.926 4.92508 -1.02202 0
M  V30 9981 H 949.626 5.18843 -2.75819 0
M  V30 9982 H 951.15 5.76131 -2.02251 0
M  V30 9983 H 952.564 4.31535 -3.77426 0
M  V30 9984 H 950.961 3.98031 -4.491 0
M  V30 9985 H 952.031 2.62967 -4.07402 0
M  V30 9986 N 953.375 1.23811 0.975125 0
M  V30 9987 C 954.308 0.967173 2.06691 0
M  V30 9988 C 955.286 -0.09642 1.62314 0
M  V30 9989 O 956.47 0.0389532 1.8846 0
M  V30 9990 C 953.597 0.458094 3.35588 0
M  V30 9991 C 952.643 1.5091 3.98909 0
M  V30 9992 S 953.476 3.08815 4.37485 0
M  V30 9993 C 954.632 2.59591 5.69529 0
M  V30 9994 H 954.865 1.89166 2.29355 0
M  V30 9995 H 952.398 1.07113 1.11203 0
M  V30 9996 H 954.356 0.170991 4.10144 0
M  V30 9997 H 953.017 -0.445562 3.10924 0
M  V30 9998 H 952.21 1.10315 4.91779 0
M  V30 9999 H 951.812 1.74582 3.30752 0
M  V30 10000 H 954.104 2.0194 6.46704 0
M  V30 10001 H 955.047 3.51021 6.14971 0
M  V30 10002 H 955.455 2.00267 5.27782 0
M  V30 10003 N 954.853 -1.17469 1.05066 0
M  V30 10004 C 956.101 -1.87327 0.758485 0
M  V30 10005 C 956.422 -1.81358 -0.716549 0
M  V30 10006 O 955.692 -1.23868 -1.51768 0
M  V30 10007 H 954.272 -0.693512 0.277579 0
M  V30 10008 H 956.934 -1.4251 1.32954 0
M  V30 10009 H 956.03 -2.93101 1.0723 0
M  V30 10010 N 956.331 -0.831506 -1.3388 0
M  V30 10011 C 957.571 -0.429648 -1.99833 0
M  V30 10012 C 957.935 0.990796 -1.6446 0
M  V30 10013 O 959.136 1.49599 -2.23324 0
M  V30 10014 C 957.407 -0.635558 -3.51704 0
M  V30 10015 S 958.966 -0.327824 -4.37574 0
M  V30 10016 H 955.784 -0.161939 -0.692313 0
M  V30 10017 H 958.386 -1.07919 -1.63015 0
M  V30 10018 H 957.09 -1.66887 -3.74936 0
M  V30 10019 H 956.621 0.0284073 -3.9339 0
M  V30 10020 H 958.636 0.855231 -4.88774 0
M  V30 10021 N 957.809 1.4625 -0.587256 0
M  V30 10022 C 958.719 2.34147 0.145744 0
M  V30 10023 C 959.735 1.50026 0.881376 0
M  V30 10024 O 960.911 1.82884 0.843539 0
M  V30 10025 C 957.976 3.27294 1.14366 0
M  V30 10026 C 957.037 4.27317 0.412199 0
M  V30 10027 C 956.27 5.16013 1.36257 0
M  V30 10028 O 956.493 5.0773 2.59934 0
M  V30 10029 O 955.427 5.95569 0.870681 0
M  V30 10030 H 959.253 2.98187 -0.576055 0
M  V30 10031 H 956.838 1.45299 -0.347628 0
M  V30 10032 H 958.72 3.84747 1.71894 0
M  V30 10033 H 957.395 2.65845 1.84684 0
M  V30 10034 H 956.302 3.73538 -0.205036 0
M  V30 10035 H 957.635 4.91564 -0.250104 0
M  V30 10036 N 959.287 0.325282 1.54207 0
M  V30 10037 C 960.217 -0.532574 2.27345 0
M  V30 10038 C 961.198 -1.11791 1.28206 0
M  V30 10039 O 962.383 -1.14272 1.57021 0
M  V30 10040 C 959.513 -1.69274 3.03255 0
M  V30 10041 C 958.467 -1.23662 4.09746 0
M  V30 10042 C 957.793 -2.48386 4.73506 0
M  V30 10043 C 959.093 -0.350244 5.21124 0
M  V30 10044 H 960.787 0.0775108 2.993 0
M  V30 10045 H 958.333 0.0387193 1.43948 0
M  V30 10046 H 960.286 -2.29917 3.53152 0
M  V30 10047 H 959.01 -2.32944 2.28921 0
M  V30 10048 H 957.669 -0.653106 3.60735 0
M  V30 10049 H 957.317 -3.10424 3.95786 0
M  V30 10050 H 957.017 -2.18558 5.45441 0
M  V30 10051 H 958.541 -3.09789 5.26178 0
M  V30 10052 H 959.955 -0.863011 5.66767 0
M  V30 10053 H 958.352 -0.14466 5.99926 0
M  V30 10054 H 959.422 0.618457 4.8094 0
M  V30 10055 N 960.765 -1.57509 0.0534917 0
M  V30 10056 C 961.713 -2.12851 -0.937931 0
M  V30 10057 C 962.707 -1.06088 -1.32067 0
M  V30 10058 O 963.913 -1.24494 -1.30005 0
M  V30 10059 H 960.288 -0.680357 -0.320342 0
M  V30 10060 H 962.259 -2.95047 -0.446077 0
M  V30 10061 C 961.008 -2.69034 -2.20264 0
M  V30 10062 H 960.331 -3.50848 -1.91693 0
M  V30 10063 H 961.771 -3.11375 -2.87788 0
M  V30 10064 C 960.23 -1.62919 -2.94888 0
M  V30 10065 O 960.76 -1.04334 -3.87914 0
M  V30 10066 N 958.966 -1.34385 -2.57661 0
M  V30 10067 H 958.513 -1.82214 -1.82088 0
M  V30 10068 H 958.471 -0.636149 -3.07897 0
M  V30 10069 N 962.243 0.219913 -1.56058 0
M  V30 10070 C 963.654 0.786766 -1.69313 0
M  V30 10071 C 964.005 1.84916 -0.655782 0
M  V30 10072 O 963.13 2.1554 0.192772 0
M  V30 10073 C 963.725 1.43387 -3.06962 0
M  V30 10074 C 962.284 1.94809 -3.22066 0
M  V30 10075 C 961.431 0.808863 -2.65241 0
M  V30 10076 H 964.382 -0.00476777 -1.58699 0
M  V30 10077 H 964.403 2.30272 -3.02911 0
M  V30 10078 H 963.915 0.660405 -3.8244 0
M  V30 10079 H 962.016 2.74952 -2.5146 0
M  V30 10080 H 962.129 2.12694 -4.293 0
M  V30 10081 H 960.493 1.21661 -2.23765 0
M  V30 10082 H 961.276 0.0480458 -3.43266 0
M  V30 10083 N 963.721 1.49897 0.486681 0
M  V30 10084 C 965.137 1.36977 0.819109 0
M  V30 10085 C 965.337 0.41385 1.97204 0
M  V30 10086 O 964.393 -0.149249 2.52059 0
M  V30 10087 C 965.706 2.78013 1.14584 0
M  V30 10088 C 967.254 2.86816 1.25321 0
M  V30 10089 C 967.729 4.28651 1.61316 0
M  V30 10090 N 969.22 4.31528 1.68337 0
M  V30 10091 C 969.955 5.38254 1.97662 0
M  V30 10092 N 969.451 6.55207 2.25113 0
M  V30 10093 N 971.244 5.25683 1.99033 0
M  V30 10094 H 963.395 2.10634 -0.273364 0
M  V30 10095 H 965.658 0.946116 -0.0597418 0
M  V30 10096 H 965.364 3.49728 0.371892 0
M  V30 10097 H 965.238 3.1428 2.08585 0
M  V30 10098 H 967.625 2.15329 2.01785 0
M  V30 10099 H 967.706 2.54112 0.293368 0
M  V30 10100 H 967.35 5.00669 0.853968 0
M  V30 10101 H 967.28 4.5883 2.58424 0
M  V30 10102 H 969.771 3.47189 1.49226 0
M  V30 10103 H 970.084 7.32359 2.46717 0
M  V30 10104 H 968.429 6.58408 2.22538 0
M  V30 10105 H 971.62 4.33316 1.77074 0
M  V30 10106 H 971.793 6.08949 2.21552 0
M  V30 10107 N 965.199 -0.738761 1.39212 0
M  V30 10108 C 966.448 -1.49368 1.35543 0
M  V30 10109 C 966.761 -1.95543 -0.0471091 0
M  V30 10110 O 967.967 -2.70714 -0.206376 0
M  V30 10111 C 966.423 -2.69882 2.381 0
M  V30 10112 C 966.031 -2.30672 3.8405 0
M  V30 10113 C 967.775 -3.47718 2.435 0
M  V30 10114 C 965.682 -3.47886 4.78256 0
M  V30 10115 H 964.612 -0.560898 0.503894 0
M  V30 10116 H 967.263 -0.806221 1.6484 0
M  V30 10117 H 965.645 -3.40684 2.01867 0
M  V30 10118 H 966.819 -1.67441 4.29302 0
M  V30 10119 H 965.134 -1.65936 3.81909 0
M  V30 10120 H 967.731 -4.34897 3.11077 0
M  V30 10121 H 968.074 -3.89919 1.45838 0
M  V30 10122 H 968.607 -2.83942 2.78606 0
M  V30 10123 H 965.346 -3.10739 5.77167 0
M  V30 10124 H 964.866 -4.10111 4.37686 0
M  V30 10125 H 966.545 -4.14271 4.96979 0
M  V30 10126 N 966.677 -1.24326 -0.968545 0
M  V30 10127 C 968.088 -1.07561 -1.52603 0
M  V30 10128 C 968.439 0.353245 -1.92994 0
M  V30 10129 O 967.564 1.24151 -1.77244 0
M  V30 10130 C 968.159 -1.94634 -2.77314 0
M  V30 10131 C 966.718 -1.82095 -3.29421 0
M  V30 10132 C 965.865 -1.8962 -2.02335 0
M  V30 10133 H 968.816 -1.37815 -0.786932 0
M  V30 10134 H 968.837 -1.47812 -3.50616 0
M  V30 10135 H 968.349 -2.98621 -2.47885 0
M  V30 10136 H 966.45 -0.809376 -3.63703 0
M  V30 10137 H 966.563 -2.66142 -3.98378 0
M  V30 10138 H 964.927 -1.33339 -2.17009 0
M  V30 10139 H 965.71 -2.95185 -1.75273 0
M  V30 10140 N 968.156 1.1691 -1.05688 0
M  V30 10141 C 969.386 1.90927 -0.789339 0
M  V30 10142 C 969.794 1.77339 0.659369 0
M  V30 10143 O 969.137 1.11147 1.4626 0
M  V30 10144 C 969.199 3.42361 -1.09677 0
M  V30 10145 C 968.863 3.79733 -2.54267 0
M  V30 10146 C 969.86 3.82163 -3.52487 0
M  V30 10147 C 967.545 4.10547 -2.89406 0
M  V30 10148 C 969.539 4.14884 -4.8389 0
M  V30 10149 C 967.226 4.42936 -4.21011 0
M  V30 10150 C 968.224 4.45084 -5.18063 0
M  V30 10151 O 967.912 4.76707 -6.47307 0
M  V30 10152 H 967.644 0.612466 -0.286115 0
M  V30 10153 H 970.198 1.4916 -1.4121 0
M  V30 10154 H 968.428 3.84446 -0.416924 0
M  V30 10155 H 970.117 3.97645 -0.814456 0
M  V30 10156 H 970.883 3.58476 -3.26681 0
M  V30 10157 H 966.762 4.08044 -2.14525 0
M  V30 10158 H 970.306 4.16475 -5.59638 0
M  V30 10159 H 966.203 4.66088 -4.46579 0
M  V30 10160 H 966.971 4.94544 -6.52203 0
M  V30 10161 N 969.634 0.838594 1.33437 0
M  V30 10162 C 970.862 0.447644 2.01999 0
M  V30 10163 C 971.277 -0.951053 1.63096 0
M  V30 10164 O 970.634 -1.61802 0.844169 0
M  V30 10165 C 970.685 0.558378 3.57162 0
M  V30 10166 O 970.406 1.90196 3.94661 0
M  V30 10167 C 971.907 0.164348 4.42995 0
M  V30 10168 H 969.127 0.177736 0.647032 0
M  V30 10169 H 971.671 1.13109 1.70372 0
M  V30 10170 H 969.826 -0.0771563 3.87323 0
M  V30 10171 H 970.24 1.88729 4.89369 0
M  V30 10172 H 971.714 0.292876 5.51222 0
M  V30 10173 H 972.191 -0.893713 4.30011 0
M  V30 10174 H 972.797 0.774306 4.18192 0
M  V30 10175 N 971.112 -1.45937 0.595003 0
M  V30 10176 C 972.022 -2.34221 -0.133325 0
M  V30 10177 C 973.038 -1.50491 -0.873407 0
M  V30 10178 O 974.214 -1.83328 -0.833828 0
M  V30 10179 C 971.279 -3.27896 -1.12628 0
M  V30 10180 C 970.34 -4.27529 -0.389532 0
M  V30 10181 C 969.573 -5.16729 -1.33519 0
M  V30 10182 O 969.796 -5.09102 -2.57238 0
M  V30 10183 O 968.73 -5.96023 -0.839084 0
M  V30 10184 H 972.556 -2.97877 0.591861 0
M  V30 10185 H 970.141 -1.45113 0.355329 0
M  V30 10186 H 972.023 -3.85654 -1.69851 0
M  V30 10187 H 970.698 -2.6682 -1.83272 0
M  V30 10188 H 969.605 -3.73424 0.224843 0
M  V30 10189 H 970.938 -4.91425 0.276169 0
M  V30 10190 N 972.59 -0.333456 -1.54032 0
M  V30 10191 C 973.837 0.266133 -2.00744 0
M  V30 10192 C 974.165 1.51361 -1.22148 0
M  V30 10193 O 973.42 1.93473 -0.294368 0
M  V30 10194 C 973.719 0.63565 -3.51702 0
M  V30 10195 C 973.385 -0.513786 -4.47963 0
M  V30 10196 C 972.047 -0.829253 -4.74001 0
M  V30 10197 C 974.399 -1.2854 -5.05101 0
M  V30 10198 C 971.727 -1.91888 -5.54433 0
M  V30 10199 C 974.079 -2.3652 -5.86721 0
M  V30 10200 C 972.743 -2.68637 -6.11057 0
M  V30 10201 H 972.013 0.097385 -0.734573 0
M  V30 10202 H 974.66 -0.459282 -1.85911 0
M  V30 10203 H 972.965 1.44163 -3.64313 0
M  V30 10204 H 974.662 1.11129 -3.85294 0
M  V30 10205 H 971.252 -0.25784 -4.27824 0
M  V30 10206 H 975.436 -1.05494 -4.84958 0
M  V30 10207 H 970.692 -2.17208 -5.71516 0
M  V30 10208 H 974.866 -2.96747 -6.30011 0
M  V30 10209 H 972.493 -3.53197 -6.73169 0
M  V30 10210 N 974.068 1.57479 -0.061844 0
M  V30 10211 C 975.293 1.97843 0.622311 0
M  V30 10212 C 975.718 0.939602 1.62951 0
M  V30 10213 O 975.076 -0.095958 1.81046 0
M  V30 10214 C 975.124 3.37262 1.2762 0
M  V30 10215 O 974.228 3.35943 2.39199 0
M  V30 10216 H 973.569 0.644212 0.160896 0
M  V30 10217 H 976.099 2.04165 -0.133409 0
M  V30 10218 H 976.109 3.74226 1.62539 0
M  V30 10219 H 974.784 4.12404 0.538112 0
M  V30 10220 H 973.361 3.10737 2.06148 0
M  V30 10221 N 975.546 -0.211634 1.56173 0
M  V30 10222 C 976.792 -0.935935 1.79911 0
M  V30 10223 C 977.125 -1.83589 0.633155 0
M  V30 10224 O 976.4 -1.91004 -0.367132 0
M  V30 10225 C 976.683 -1.76638 3.13801 0
M  V30 10226 C 976.536 -0.892259 4.40861 0
M  V30 10227 C 977.855 -2.74224 3.44223 0
M  V30 10228 H 974.974 -0.338822 0.654499 0
M  V30 10229 H 977.616 -0.20422 1.88899 0
M  V30 10230 H 975.766 -2.39021 3.0627 0
M  V30 10231 H 977.438 -0.284407 4.60422 0
M  V30 10232 H 975.681 -0.198145 4.33347 0
M  V30 10233 H 976.352 -1.50793 5.31004 0
M  V30 10234 H 978.828 -2.21975 3.51946 0
M  V30 10235 H 977.704 -3.29424 4.39057 0
M  V30 10236 H 977.965 -3.52455 2.66885 0
M  V30 10237 N 977.024 -1.50153 -0.478725 0
M  V30 10238 C 978.273 -1.60002 -1.22809 0
M  V30 10239 C 978.586 -0.302277 -1.9325 0
M  V30 10240 O 979.792 -0.279583 -2.70057 0
M  V30 10241 C 978.248 -2.82402 -2.23108 0
M  V30 10242 C 977.856 -4.19023 -1.58505 0
M  V30 10243 C 979.6 -3.01593 -2.98734 0
M  V30 10244 C 977.507 -5.32618 -2.57045 0
M  V30 10245 H 976.437 -0.595822 -0.462073 0
M  V30 10246 H 979.088 -1.76573 -0.499412 0
M  V30 10247 H 977.47 -2.59373 -2.99235 0
M  V30 10248 H 978.644 -4.52277 -0.882187 0
M  V30 10249 H 976.959 -4.05374 -0.951877 0
M  V30 10250 H 979.556 -3.8363 -3.72468 0
M  V30 10251 H 979.899 -2.1302 -3.57671 0
M  V30 10252 H 980.432 -3.24766 -2.29721 0
M  V30 10253 H 977.171 -6.23321 -2.02858 0
M  V30 10254 H 976.691 -5.03792 -3.25505 0
M  V30 10255 H 978.37 -5.62877 -3.19028 0
M  V30 10256 N 978.502 0.731368 -1.39602 0
M  V30 10257 C 979.751 1.48647 -1.36334 0
M  V30 10258 C 980.064 1.95565 0.0367383 0
M  V30 10259 O 981.27 2.7082 0.192017 0
M  V30 10260 C 979.726 2.68616 -2.39528 0
M  V30 10261 C 979.334 2.28632 -3.85268 0
M  V30 10262 C 981.078 3.46422 -2.45341 0
M  V30 10263 C 978.985 3.45345 -4.80095 0
M  V30 10264 H 977.915 0.558218 -0.506861 0
M  V30 10265 H 980.566 0.797467 -1.65266 0
M  V30 10266 H 978.948 3.39609 -2.03671 0
M  V30 10267 H 980.122 1.65162 -4.30184 0
M  V30 10268 H 978.437 1.63909 -3.82783 0
M  V30 10269 H 981.034 4.33241 -3.13379 0
M  V30 10270 H 981.377 3.8914 -1.47904 0
M  V30 10271 H 981.91 2.82461 -2.80108 0
M  V30 10272 H 978.649 3.07674 -5.78807 0
M  V30 10273 H 978.169 4.07784 -4.39855 0
M  V30 10274 H 979.848 4.1163 -4.99169 0
M  V30 10275 N 979.98 1.24838 0.961938 0
M  V30 10276 C 980.927 1.04582 2.05745 0
M  V30 10277 C 981.897 -0.0427281 1.66045 0
M  V30 10278 O 983.082 0.113026 1.90465 0
M  V30 10279 C 980.222 0.66284 3.38675 0
M  V30 10280 C 979.335 1.82548 3.91536 0
M  V30 10281 C 978.47 1.38753 5.12758 0
M  V30 10282 C 977.509 2.51976 5.5783 0
M  V30 10283 N 976.646 2.09009 6.70268 0
M  V30 10284 H 981.486 1.98343 2.22405 0
M  V30 10285 H 979.023 0.987822 1.08998 0
M  V30 10286 H 980.981 0.421788 4.15062 0
M  V30 10287 H 979.611 -0.237776 3.21923 0
M  V30 10288 H 978.663 2.18004 3.11735 0
M  V30 10289 H 979.975 2.67601 4.20941 0
M  V30 10290 H 979.129 1.1057 5.96539 0
M  V30 10291 H 977.868 0.507618 4.85051 0
M  V30 10292 H 976.873 2.80912 4.72619 0
M  V30 10293 H 978.098 3.40534 5.87549 0
M  V30 10294 H 976.044 1.23423 6.44285 0
M  V30 10295 H 975.961 2.87613 6.99153 0
M  V30 10296 H 977.229 1.83981 7.57477 0
M  V30 10297 N 981.458 -1.16348 1.06306 0
M  V30 10298 C 982.405 -2.20741 0.673962 0
M  V30 10299 C 983.375 -1.628 -0.329454 0
M  V30 10300 O 984.56 -1.89547 -0.218313 0
M  V30 10301 C 981.7 -3.45036 0.0667008 0
M  V30 10302 C 980.813 -4.17221 1.12031 0
M  V30 10303 C 979.948 -5.29034 0.479176 0
M  V30 10304 C 978.987 -5.93021 1.51631 0
M  V30 10305 N 978.124 -6.96327 0.898528 0
M  V30 10306 H 982.964 -2.53376 1.56859 0
M  V30 10307 H 980.501 -1.24449 0.784276 0
M  V30 10308 H 982.459 -4.16099 -0.302916 0
M  V30 10309 H 981.089 -3.1295 -0.791333 0
M  V30 10310 H 980.141 -3.4476 1.60763 0
M  V30 10311 H 981.453 -4.60902 1.90712 0
M  V30 10312 H 980.607 -6.06674 0.0565993 0
M  V30 10313 H 979.346 -4.86517 -0.33951 0
M  V30 10314 H 978.351 -5.14104 1.94878 0
M  V30 10315 H 979.576 -6.37618 2.3371 0
M  V30 10316 H 977.522 -6.55923 0.100555 0
M  V30 10317 H 977.439 -7.38379 1.62272 0
M  V30 10318 H 978.707 -7.77888 0.5011 0
M  V30 10319 N 982.937 -0.845659 -1.3299 0
M  V30 10320 C 983.869 -0.241097 -2.27928 0
M  V30 10321 C 984.882 0.582048 -1.5204 0
M  V30 10322 O 986.071 0.408008 -1.73774 0
M  V30 10323 C 983.171 0.678652 -3.32035 0
M  V30 10324 C 982.344 -0.106652 -4.3727 0
M  V30 10325 C 981.403 0.737478 -5.21006 0
M  V30 10326 O 980.429 0.174231 -5.68933 0
M  V30 10327 N 981.631 2.05372 -5.42957 0
M  V30 10328 H 984.396 -1.05685 -2.80448 0
M  V30 10329 H 981.957 -0.704771 -1.45755 0
M  V30 10330 H 983.949 1.24849 -3.84961 0
M  V30 10331 H 982.519 1.3951 -2.79742 0
M  V30 10332 H 981.739 -0.857897 -3.84752 0
M  V30 10333 H 983.027 -0.646386 -5.04677 0
M  V30 10334 H 982.425 2.53478 -5.05733 0
M  V30 10335 H 980.982 2.5719 -5.98913 0
M  V30 10336 N 984.415 1.45619 -0.602734 0
M  V30 10337 C 985.362 2.30493 0.118944 0
M  V30 10338 C 986.332 1.41816 0.864723 0
M  V30 10339 O 987.517 1.7075 0.851424 0
M  V30 10340 C 984.657 3.2664 1.11356 0
M  V30 10341 C 983.77 4.3042 0.369161 0
M  V30 10342 C 982.905 5.13678 1.35307 0
M  V30 10343 C 981.944 6.09189 0.596207 0
M  V30 10344 N 981.081 6.85245 1.52916 0
M  V30 10345 H 985.921 2.91672 -0.610836 0
M  V30 10346 H 983.458 1.43731 -0.313032 0
M  V30 10347 H 985.416 3.80846 1.7033 0
M  V30 10348 H 984.046 2.67225 1.81081 0
M  V30 10349 H 983.098 3.78913 -0.335994 0
M  V30 10350 H 984.41 4.98307 -0.221603 0
M  V30 10351 H 983.564 5.7226 2.01502 0
M  V30 10352 H 982.303 4.45798 1.97777 0
M  V30 10353 H 981.308 5.49743 -0.0793984 0
M  V30 10354 H 982.533 6.79096 -0.0233734 0
M  V30 10355 H 980.479 6.20058 2.14159 0
M  V30 10356 H 980.396 7.49467 0.991713 0
M  V30 10357 H 981.664 7.48371 2.18083 0
M  V30 10358 N 985.893 0.34162 1.53853 0
M  V30 10359 C 986.803 -0.524555 2.2866 0
M  V30 10360 C 987.819 -1.1136 1.33697 0
M  V30 10361 O 988.995 -1.1297 1.66732 0
M  V30 10362 C 986.06 -1.66065 3.04341 0
M  V30 10363 C 985.121 -1.10158 4.14926 0
M  V30 10364 C 984.354 -2.18353 4.86988 0
M  V30 10365 O 984.577 -3.39038 4.58704 0
M  V30 10366 O 983.511 -1.82756 5.73484 0
M  V30 10367 H 987.337 0.0835014 3.03585 0
M  V30 10368 H 984.922 0.106727 1.49018 0
M  V30 10369 H 986.804 -2.3217 3.51674 0
M  V30 10370 H 985.479 -2.25456 2.32275 0
M  V30 10371 H 984.386 -0.405109 3.719 0
M  V30 10372 H 985.719 -0.552567 4.89088 0
M  V30 10373 N 987.371 -1.57444 0.0701946 0
M  V30 10374 C 988.62 -1.92605 -0.598849 0
M  V30 10375 C 988.933 -0.952058 -1.70866 0
M  V30 10376 O 990.139 -1.19643 -2.43716 0
M  V30 10377 C 988.595 -3.42142 -1.11655 0
M  V30 10378 C 988.203 -4.47984 -0.0378355 0
M  V30 10379 C 989.947 -3.86307 -1.75975 0
M  V30 10380 C 987.854 -5.88652 -0.569495 0
M  V30 10381 H 986.784 -0.718873 -0.22746 0
M  V30 10382 H 989.435 -1.82948 0.14217 0
M  V30 10383 H 987.817 -3.46866 -1.91049 0
M  V30 10384 H 988.991 -4.54874 0.736661 0
M  V30 10385 H 987.306 -4.13277 0.50904 0
M  V30 10386 H 989.903 -4.88784 -2.16782 0
M  V30 10387 H 990.246 -3.23587 -2.61911 0
M  V30 10388 H 990.779 -3.84179 -1.03206 0
M  V30 10389 H 987.518 -6.55013 0.252662 0
M  V30 10390 H 987.038 -5.85285 -1.31155 0
M  V30 10391 H 988.717 -6.38482 -1.04641 0
M  V30 10392 N 988.849 0.203349 -1.56283 0
M  V30 10393 C 990.098 0.92315 -1.79334 0
M  V30 10394 C 990.411 1.84765 -0.641977 0
M  V30 10395 O 991.617 2.60745 -0.756584 0
M  V30 10396 C 990.073 1.69184 -3.17655 0
M  V30 10397 C 989.681 0.812581 -4.40569 0
M  V30 10398 C 991.425 2.40177 -3.50022 0
M  V30 10399 C 989.332 1.57967 -5.69913 0
M  V30 10400 H 988.262 0.348442 -0.668659 0
M  V30 10401 H 990.913 0.1766 -1.82648 0
M  V30 10402 H 989.295 2.48197 -3.08568 0
M  V30 10403 H 990.469 0.0616956 -4.60759 0
M  V30 10404 H 988.784 0.21389 -4.1585 0
M  V30 10405 H 991.381 2.98103 -4.4389 0
M  V30 10406 H 991.724 3.13961 -2.73376 0
M  V30 10407 H 992.257 1.68138 -3.6052 0
M  V30 10408 H 988.996 0.884767 -6.49501 0
M  V30 10409 H 988.516 2.3047 -5.53754 0
M  V30 10410 H 990.195 2.13562 -6.10737 0
M  V30 10411 N 990.327 1.50405 0.470755 0
M  V30 10412 C 991.274 1.69293 1.56871 0
M  V30 10413 C 992.244 0.534248 1.57274 0
M  V30 10414 O 993.429 0.764855 1.74799 0
M  V30 10415 C 990.569 1.79338 2.94842 0
M  V30 10416 C 989.682 3.06709 3.04226 0
M  V30 10417 C 988.817 3.07548 4.33114 0
M  V30 10418 C 987.856 4.29372 4.36241 0
M  V30 10419 N 986.993 4.27949 5.56601 0
M  V30 10420 H 991.833 2.63029 1.40071 0
M  V30 10421 H 989.37 1.30386 0.681016 0
M  V30 10422 H 991.328 1.83143 3.74853 0
M  V30 10423 H 989.958 0.890411 3.10277 0
M  V30 10424 H 989.01 3.12374 2.17086 0
M  V30 10425 H 990.322 3.96684 3.02396 0
M  V30 10426 H 989.476 3.10084 5.21472 0
M  V30 10427 H 988.215 2.15404 4.37553 0
M  V30 10428 H 987.22 4.27048 3.4628 0
M  V30 10429 H 988.445 5.22743 4.33493 0
M  V30 10430 H 986.391 3.38658 5.61824 0
M  V30 10431 H 986.308 5.11692 5.56513 0
M  V30 10432 H 987.576 4.34631 6.47083 0
M  V30 10433 N 991.805 -0.723954 1.39988 0
M  V30 10434 C 992.752 -1.83803 1.39589 0
M  V30 10435 C 993.722 -1.64146 0.253996 0
M  V30 10436 O 994.907 -1.85398 0.450793 0
M  V30 10437 C 992.047 -3.21431 1.25604 0
M  V30 10438 C 991.16 -3.52717 2.49429 0
M  V30 10439 C 990.295 -4.79805 2.27949 0
M  V30 10440 C 989.334 -5.03968 3.47394 0
M  V30 10441 N 988.471 -6.22266 3.25161 0
M  V30 10442 H 993.311 -1.83479 2.34818 0
M  V30 10443 H 990.848 -0.896396 1.16633 0
M  V30 10444 H 992.806 -4.00892 1.15504 0
M  V30 10445 H 991.436 -3.21005 0.339986 0
M  V30 10446 H 990.488 -2.67872 2.7009 0
M  V30 10447 H 991.8 -3.66486 3.38363 0
M  V30 10448 H 990.954 -5.67268 2.15155 0
M  V30 10449 H 989.693 -4.68229 1.36428 0
M  V30 10450 H 988.698 -4.14963 3.60674 0
M  V30 10451 H 989.923 -5.17422 4.39831 0
M  V30 10452 H 987.869 -6.11957 2.36314 0
M  V30 10453 H 987.786 -6.36673 4.07656 0
M  V30 10454 H 989.054 -7.12539 3.16083 0
M  V30 10455 N 993.283 -1.25346 -0.955304 0
M  V30 10456 C 994.213 -1.08152 -2.06943 0
M  V30 10457 C 995.194 0.00922598 -1.70097 0
M  V30 10458 O 996.379 -0.160181 -1.93538 0
M  V30 10459 C 993.509 -0.698745 -3.40198 0
M  V30 10460 C 992.463 -1.73965 -3.9105 0
M  V30 10461 C 991.789 -1.21158 -5.20792 0
M  V30 10462 C 993.089 -3.13829 -4.17503 0
M  V30 10463 H 994.783 -2.01345 -2.21586 0
M  V30 10464 H 992.329 -0.969459 -1.06478 0
M  V30 10465 H 994.282 -0.565394 -4.1759 0
M  V30 10466 H 993.006 0.268892 -3.25491 0
M  V30 10467 H 991.665 -1.86143 -3.15827 0
M  V30 10468 H 991.313 -0.234193 -5.02455 0
M  V30 10469 H 991.013 -1.90728 -5.55785 0
M  V30 10470 H 992.537 -1.09061 -6.00781 0
M  V30 10471 H 993.951 -3.04809 -4.85556 0
M  V30 10472 H 992.348 -3.80863 -4.63749 0
M  V30 10473 H 993.418 -3.6094 -3.23806 0
M  V30 10474 N 994.761 1.15782 -1.06922 0
M  V30 10475 C 996.01 1.85807 -0.784774 0
M  V30 10476 C 996.323 1.82967 0.691551 0
M  V30 10477 O 997.529 2.48632 1.0906 0
M  V30 10478 C 995.985 3.33469 -1.35375 0
M  V30 10479 C 995.593 3.44766 -2.86077 0
M  V30 10480 C 997.337 4.08707 -1.14713 0
M  V30 10481 C 995.244 4.86551 -3.36187 0
M  V30 10482 H 994.174 0.696046 -0.28989 0
M  V30 10483 H 996.825 1.30629 -1.28873 0
M  V30 10484 H 995.207 3.88292 -0.77754 0
M  V30 10485 H 996.381 3.00073 -3.49704 0
M  V30 10486 H 994.696 2.82969 -3.05479 0
M  V30 10487 H 997.293 5.13336 -1.49633 0
M  V30 10488 H 997.636 4.16211 -0.0858868 0
M  V30 10489 H 998.169 3.60142 -1.68946 0
M  V30 10490 H 994.908 4.84229 -4.41818 0
M  V30 10491 H 994.428 5.31844 -2.77312 0
M  V30 10492 H 996.107 5.55392 -3.31887 0
M  V30 10493 N 996.239 0.8527 1.3254 0
M  V30 10494 C 997.149 0.298744 2.3269 0
M  V30 10495 C 998.165 -0.582418 1.63963 0
M  V30 10496 O 999.341 -0.483253 1.95516 0
M  V30 10497 C 996.406 -0.505453 3.42996 0
M  V30 10498 C 995.467 0.401618 4.27417 0
M  V30 10499 C 994.7 -0.364294 5.32455 0
M  V30 10500 O 994.923 -1.59448 5.47661 0
M  V30 10501 O 993.857 0.268892 6.01299 0
M  V30 10502 H 997.683 1.12843 2.81958 0
M  V30 10503 H 995.268 0.615584 1.36128 0
M  V30 10504 H 997.15 -0.961974 4.10273 0
M  V30 10505 H 995.825 -1.31197 2.95921 0
M  V30 10506 H 994.732 0.906274 3.62957 0
M  V30 10507 H 996.065 1.17327 4.78012 0
M  V30 10508 N 997.718 -1.45297 0.610449 0
M  V30 10509 C 999.134 -1.57225 0.274332 0
M  V30 10510 C 999.334 -1.60136 -1.22306 0
M  V30 10511 O 998.39 -1.5332 -2.00622 0
M  V30 10512 C 999.703 -2.85365 0.948028 0
M  V30 10513 C 1001.25 -2.99044 0.924216 0
M  V30 10514 C 1001.73 -4.29958 1.57798 0
M  V30 10515 N 1003.22 -4.36723 1.5436 0
M  V30 10516 C 1003.95 -5.36695 2.01857 0
M  V30 10517 N 1003.45 -6.43187 2.57453 0
M  V30 10518 N 1005.24 -5.28071 1.92608 0
M  V30 10519 H 997.392 -1.41651 1.58268 0
M  V30 10520 H 999.655 -0.67744 0.663158 0
M  V30 10521 H 999.361 -2.89125 2.00249 0
M  V30 10522 H 999.235 -3.74222 0.473062 0
M  V30 10523 H 1001.62 -2.94849 -0.121709 0
M  V30 10524 H 1001.7 -2.1159 1.43748 0
M  V30 10525 H 1001.35 -4.34912 2.62325 0
M  V30 10526 H 1001.28 -5.16234 1.03972 0
M  V30 10527 H 1003.77 -3.60374 1.13749 0
M  V30 10528 H 1004.08 -7.15722 2.91482 0
M  V30 10529 H 1002.43 -6.4393 2.61493 0
M  V30 10530 H 1005.62 -4.43783 1.48912 0
M  V30 10531 H 1005.79 -6.05832 2.29938 0
M  V30 10532 N 999.196 -0.349774 -1.5367 0
M  V30 10533 C 1000.14 0.504121 -2.25227 0
M  V30 10534 C 1001.11 1.09048 -1.2529 0
M  V30 10535 O 1002.3 1.12594 -1.54037 0
M  V30 10536 C 999.438 1.64601 -3.03316 0
M  V30 10537 C 998.551 1.08635 -4.18118 0
M  V30 10538 C 997.686 2.19605 -4.83681 0
M  V30 10539 C 996.725 1.61023 -5.90541 0
M  V30 10540 N 995.862 2.6576 -6.49858 0
M  V30 10541 H 1000.7 -0.112621 -2.97787 0
M  V30 10542 H 998.239 -0.0673503 -1.46946 0
M  V30 10543 H 1000.2 2.31836 -3.46854 0
M  V30 10544 H 998.827 2.23364 -2.33041 0
M  V30 10545 H 997.879 0.304748 -3.79177 0
M  V30 10546 H 999.191 0.617911 -4.94958 0
M  V30 10547 H 998.345 2.94693 -5.30322 0
M  V30 10548 H 997.084 2.69795 -4.06278 0
M  V30 10549 H 996.089 0.844428 -5.43277 0
M  V30 10550 H 997.314 1.11677 -6.69855 0
M  V30 10551 H 995.26 3.15193 -5.75317 0
M  V30 10552 H 995.177 2.23557 -7.2219 0
M  V30 10553 H 996.445 3.40598 -7.01151 0
M  V30 10554 N 1000.67 1.57404 -0.0785433 0
M  V30 10555 C 1001.61 2.101 0.916013 0
M  V30 10556 C 1002.62 1.03459 1.25698 0
M  V30 10557 O 1003.81 1.30954 1.21299 0
M  V30 10558 C 1000.91 2.55202 2.22992 0
M  V30 10559 C 1000.08 3.85491 2.06678 0
M  V30 10560 C 999.14 4.16614 3.21433 0
M  V30 10561 O 998.166 4.86105 2.96126 0
M  V30 10562 N 999.368 3.70697 4.46726 0
M  V30 10563 H 1002.13 2.96054 0.466059 0
M  V30 10564 H 999.694 1.61546 0.107006 0
M  V30 10565 H 1001.69 2.7308 2.9868 0
M  V30 10566 H 1000.26 1.74348 2.59464 0
M  V30 10567 H 999.476 3.76925 1.15417 0
M  V30 10568 H 1000.76 4.70759 1.93036 0
M  V30 10569 H 1000.16 3.14571 4.70172 0
M  V30 10570 H 998.719 3.93762 5.19418 0
M  V30 10571 N 1002.15 -0.195058 1.56388 0
M  V30 10572 C 1003.11 -1.2254 1.93692 0
M  V30 10573 C 1004.11 -1.38437 0.81804 0
M  V30 10574 O 1005.3 -1.36248 1.08545 0
M  V30 10575 C 1002.44 -2.59476 2.21099 0
M  V30 10576 H 1003.63 -0.906544 2.8587 0
M  V30 10577 H 1001.18 -0.436577 1.50079 0
M  V30 10578 H 1001.92 -2.96417 1.31558 0
M  V30 10579 H 1001.7 -2.4931 3.02634 0
M  V30 10580 H 1003.19 -3.33777 2.50964 0
M  V30 10581 N 1003.63 -1.50653 -0.462772 0
M  V30 10582 C 1004.56 -1.66286 -1.5774 0
M  V30 10583 C 1005.57 -0.544094 -1.53439 0
M  V30 10584 O 1006.76 -0.817566 -1.58676 0
M  V30 10585 C 1003.86 -1.63893 -2.96635 0
M  V30 10586 C 1003.04 -2.91939 -3.25716 0
M  V30 10587 C 1002.1 -2.82076 -4.44206 0
M  V30 10588 O 1001.12 -3.56032 -4.44106 0
M  V30 10589 N 1002.32 -1.96196 -5.4634 0
M  V30 10590 H 1005.09 -2.6243 -1.44742 0
M  V30 10591 H 1002.65 -1.48221 -0.651326 0
M  V30 10592 H 1004.64 -1.54897 -3.73884 0
M  V30 10593 H 1003.21 -0.75449 -3.03358 0
M  V30 10594 H 1002.43 -3.14998 -2.37002 0
M  V30 10595 H 1003.72 -3.7675 -3.4196 0
M  V30 10596 H 1003.12 -1.35439 -5.49247 0
M  V30 10597 H 1001.67 -1.93097 -6.2254 0
M  V30 10598 N 1005.11 0.71652 -1.4037 0
M  V30 10599 C 1006.36 1.47193 -1.37903 0
M  V30 10600 C 1006.67 1.95593 0.0159939 0
M  V30 10601 O 1007.88 2.71009 0.163282 0
M  V30 10602 C 1006.33 2.6606 -2.42363 0
M  V30 10603 C 1005.94 2.24533 -3.87671 0
M  V30 10604 C 1007.68 3.438 -2.49001 0
M  V30 10605 C 1005.59 3.40234 -4.8373 0
M  V30 10606 H 1004.52 0.552811 -0.512753 0
M  V30 10607 H 1007.17 0.779894 -1.66102 0
M  V30 10608 H 1005.55 3.37429 -2.07262 0
M  V30 10609 H 1006.73 1.6059 -4.31911 0
M  V30 10610 H 1005.04 1.59839 -3.845 0
M  V30 10611 H 1007.64 4.29893 -3.17956 0
M  V30 10612 H 1007.98 3.8755 -1.52023 0
M  V30 10613 H 1008.52 2.79474 -2.83088 0
M  V30 10614 H 1005.26 3.01517 -5.82037 0
M  V30 10615 H 1004.78 4.03095 -4.44156 0
M  V30 10616 H 1006.45 4.06312 -5.03507 0
M  V30 10617 N 1006.59 1.25851 0.948643 0
M  V30 10618 C 1008 1.02802 1.22081 0
M  V30 10619 C 1008.2 -0.251461 1.99925 0
M  V30 10620 O 1007.26 -0.962592 2.33432 0
M  V30 10621 C 1008.57 2.25489 1.98936 0
M  V30 10622 C 1010.12 2.30312 2.11956 0
M  V30 10623 C 1010.59 3.52671 2.92211 0
M  V30 10624 N 1012.09 3.53103 2.99787 0
M  V30 10625 C 1012.82 4.44445 3.62294 0
M  V30 10626 N 1012.32 5.46065 4.26362 0
M  V30 10627 N 1014.11 4.32113 3.59493 0
M  V30 10628 H 1006.26 2.08042 0.428044 0
M  V30 10629 H 1008.52 0.913928 0.251872 0
M  V30 10630 H 1008.23 3.18513 1.4914 0
M  V30 10631 H 1008.1 2.2914 2.99624 0
M  V30 10632 H 1010.49 1.37808 2.60946 0
M  V30 10633 H 1010.57 2.30676 1.10554 0
M  V30 10634 H 1010.22 4.45501 2.43909 0
M  V30 10635 H 1010.15 3.49554 3.93853 0
M  V30 10636 H 1012.64 2.79597 2.54232 0
M  V30 10637 H 1012.95 6.11964 4.71932 0
M  V30 10638 H 1011.29 5.49931 4.24972 0
M  V30 10639 H 1014.49 3.51946 3.08629 0
M  V30 10640 H 1014.66 5.03493 4.0792 0
M  V30 10641 N 1008.06 -1.15214 1.07534 0
M  V30 10642 C 1009.01 -2.20013 0.697337 0
M  V30 10643 C 1009.98 -1.6314 -0.312168 0
M  V30 10644 O 1011.17 -1.89768 -0.198196 0
M  V30 10645 C 1008.31 -3.44945 0.103293 0
M  V30 10646 C 1007.42 -4.16009 1.1645 0
M  V30 10647 C 1006.55 -5.28496 0.535261 0
M  V30 10648 C 1005.59 -5.9138 1.57912 0
M  V30 10649 N 1004.73 -6.95335 0.972332 0
M  V30 10650 H 1009.57 -2.51698 1.59538 0
M  V30 10651 H 1007.11 -1.2361 0.797431 0
M  V30 10652 H 1009.07 -4.16397 -0.258766 0
M  V30 10653 H 1007.7 -3.13772 -0.758096 0
M  V30 10654 H 1006.75 -3.43035 1.64411 0
M  V30 10655 H 1008.06 -4.58853 1.9559 0
M  V30 10656 H 1007.21 -6.06579 0.120942 0
M  V30 10657 H 1005.95 -4.8685 -0.287889 0
M  V30 10658 H 1004.96 -5.12008 2.0032 0
M  V30 10659 H 1006.18 -6.35103 2.40459 0
M  V30 10660 H 1004.13 -6.55779 0.170119 0
M  V30 10661 H 1004.05 -7.36616 1.70095 0
M  V30 10662 H 1005.31 -7.77312 0.583577 0
M  V30 10663 N 1009.54 -0.859717 -1.32086 0
M  V30 10664 C 1010.79 -0.466271 -1.97367 0
M  V30 10665 C 1011.12 0.976728 -1.6785 0
M  V30 10666 O 1010.4 1.68618 -0.969449 0
M  V30 10667 C 1010.68 -0.711851 -3.52994 0
M  V30 10668 C 1010.53 -2.20364 -3.92122 0
M  V30 10669 C 1011.85 -0.17156 -4.39765 0
M  V30 10670 H 1008.97 -0.170883 -0.716916 0
M  V30 10671 H 1011.61 -1.07907 -1.56384 0
M  V30 10672 H 1009.76 -0.190258 -3.88034 0
M  V30 10673 H 1011.43 -2.7917 -3.67236 0
M  V30 10674 H 1009.68 -2.68019 -3.41099 0
M  V30 10675 H 1010.35 -2.32615 -5.00594 0
M  V30 10676 H 1012.82 -0.617665 -4.1149 0
M  V30 10677 H 1011.7 -0.372921 -5.47632 0
M  V30 10678 H 1011.96 0.925959 -4.32294 0
M  V30 10679 N 1011.02 1.44971 -0.618145 0
M  V30 10680 C 1012.25 2.06228 -0.123985 0
M  V30 10681 C 1012.66 1.46166 1.20134 0
M  V30 10682 O 1012 0.574099 1.74499 0
M  V30 10683 C 1012.06 3.59413 0.0789098 0
M  V30 10684 C 1011.73 4.41869 -1.16624 0
M  V30 10685 C 1012.72 4.76177 -2.0869 0
M  V30 10686 C 1010.41 4.82453 -1.39802 0
M  V30 10687 C 1012.4 5.49938 -3.22254 0
M  V30 10688 C 1010.09 5.55965 -2.53665 0
M  V30 10689 C 1011.09 5.89626 -3.44718 0
M  V30 10690 O 1010.78 6.61644 -4.56598 0
M  V30 10691 H 1010.51 0.672274 -0.0708822 0
M  V30 10692 H 1013.06 1.87038 -0.848868 0
M  V30 10693 H 1011.29 3.77043 0.8588 0
M  V30 10694 H 1012.98 4.02478 0.52599 0
M  V30 10695 H 1013.75 4.45372 -1.92012 0
M  V30 10696 H 1009.63 4.55681 -0.698245 0
M  V30 10697 H 1013.17 5.76129 -3.93347 0
M  V30 10698 H 1009.07 5.86185 -2.70291 0
M  V30 10699 H 1009.84 6.80103 -4.55414 0
M  V30 10700 N 1012.5 0.357919 1.53482 0
M  V30 10701 C 1013.91 -0.122938 1.86295 0
M  V30 10702 C 1014.26 -1.48803 1.27875 0
M  V30 10703 O 1013.39 -2.07978 0.597828 0
M  V30 10704 C 1013.98 -0.229853 3.38019 0
M  V30 10705 C 1012.54 -0.654955 3.70658 0
M  V30 10706 C 1011.69 0.202539 2.76559 0
M  V30 10707 H 1014.64 0.576997 1.47839 0
M  V30 10708 H 1014.66 -1.05481 3.65587 0
M  V30 10709 H 1014.17 0.763825 3.80509 0
M  V30 10710 H 1012.27 -1.65714 3.33721 0
M  V30 10711 H 1012.38 -0.43488 4.77122 0
M  V30 10712 H 1010.75 -0.327388 2.52587 0
M  V30 10713 H 1011.53 1.19361 3.21882 0
M  V30 10714 N 1013.98 -1.5736 0.0868897 0
M  V30 10715 C 1015.22 -1.9367 -0.577598 0
M  V30 10716 C 1015.55 -0.968844 -1.69229 0
M  V30 10717 O 1014.82 -0.0195061 -1.9589 0
M  V30 10718 H 1013.4 -0.714983 -0.216353 0
M  V30 10719 H 1016.06 -1.94335 0.148294 0
M  V30 10720 H 1015.15 -2.95877 -0.993128 0
M  V30 10721 N 1015.45 0.186762 -1.56489 0
M  V30 10722 C 1016.38 1.23395 -1.98232 0
M  V30 10723 C 1017.37 1.4702 -0.855526 0
M  V30 10724 O 1018.55 1.58616 -1.12048 0
M  V30 10725 C 1015.68 2.57635 -2.32898 0
M  V30 10726 C 1014.63 2.48607 -3.48394 0
M  V30 10727 C 1013.96 3.87196 -3.68759 0
M  V30 10728 C 1015.26 2.00398 -4.82325 0
M  V30 10729 H 1016.95 0.887026 -2.85958 0
M  V30 10730 H 1014.5 0.42525 -1.37578 0
M  V30 10731 H 1016.45 3.31082 -2.60696 0
M  V30 10732 H 1015.18 2.94084 -1.42064 0
M  V30 10733 H 1013.84 1.77615 -3.207 0
M  V30 10734 H 1013.48 4.21012 -2.75241 0
M  V30 10735 H 1013.18 3.82029 -4.46462 0
M  V30 10736 H 1014.71 4.62253 -3.98941 0
M  V30 10737 H 1016.12 2.6361 -5.091 0
M  V30 10738 H 1014.52 2.06214 -5.63556 0
M  V30 10739 H 1015.59 0.957562 -4.75351 0
M  V30 10740 N 1016.93 1.50896 0.454776 0
M  V30 10741 C 1018.16 1.66759 1.23313 0
M  V30 10742 C 1018.58 0.35722 1.84677 0
M  V30 10743 O 1017.94 -0.680771 1.68033 0
M  V30 10744 C 1017.99 2.77254 2.3057 0
M  V30 10745 O 1017.09 2.39642 3.35627 0
M  V30 10746 H 1016.43 0.556599 0.362068 0
M  V30 10747 H 1018.96 1.97365 0.539274 0
M  V30 10748 H 1018.97 3.0082 2.75629 0
M  V30 10749 H 1017.65 3.72349 1.85281 0
M  V30 10750 H 1016.23 2.26584 2.96165 0
M  V30 10751 N 1018.41 -0.709066 1.40748 0
M  V30 10752 C 1019.65 -1.48139 1.40834 0
M  V30 10753 C 1020.01 -1.91996 0.0117625 0
M  V30 10754 O 1021.22 -2.68564 -0.112524 0
M  V30 10755 C 1019.49 -2.67009 2.37573 0
M  V30 10756 S 1021.05 -3.56331 2.56073 0
M  V30 10757 H 1017.86 -0.506396 0.499084 0
M  V30 10758 H 1020.47 -0.828588 1.77072 0
M  V30 10759 H 1019.17 -2.32971 3.37865 0
M  V30 10760 H 1018.7 -3.37195 2.02641 0
M  V30 10761 H 1020.72 -4.61695 1.81803 0
M  V30 10762 N 1019.89 -1.26353 -0.941956 0
M  V30 10763 C 1021.14 -1.11851 -1.68806 0
M  V30 10764 C 1021.46 0.33829 -1.91535 0
M  V30 10765 O 1020.72 1.26495 -1.49324 0
M  V30 10766 C 1021.02 -1.83195 -3.06879 0
M  V30 10767 C 1020.68 -3.33093 -3.03908 0
M  V30 10768 C 1019.35 -3.73982 -3.02805 0
M  V30 10769 C 1021.7 -4.28803 -2.96273 0
M  V30 10770 C 1019.03 -5.08971 -2.91832 0
M  V30 10771 C 1021.38 -5.6383 -2.86842 0
M  V30 10772 C 1020.04 -6.04032 -2.84081 0
M  V30 10773 H 1019.31 -0.409293 -0.617706 0
M  V30 10774 H 1021.96 -1.56785 -1.09957 0
M  V30 10775 H 1020.26 -1.30728 -3.69347 0
M  V30 10776 H 1021.96 -1.69416 -3.63455 0
M  V30 10777 H 1018.55 -3.00566 -3.05546 0
M  V30 10778 H 1022.74 -3.98195 -2.96234 0
M  V30 10779 H 1017.99 -5.39282 -2.88072 0
M  V30 10780 H 1022.17 -6.37676 -2.79898 0
M  V30 10781 H 1019.79 -7.08586 -2.75335 0
M  V30 10782 N 1021.37 1.14642 -1.08144 0
M  V30 10783 C 1022.31 2.1964 -0.708995 0
M  V30 10784 C 1023.28 1.63303 0.303512 0
M  V30 10785 O 1024.47 1.8987 0.18813 0
M  V30 10786 C 1021.61 3.44886 -0.121585 0
M  V30 10787 C 1020.72 4.15386 -1.18654 0
M  V30 10788 C 1019.86 5.28205 -0.56328 0
M  V30 10789 C 1018.9 5.90534 -1.61046 0
M  V30 10790 N 1018.03 6.94809 -1.00919 0
M  V30 10791 H 1022.87 2.50848 -1.6087 0
M  V30 10792 H 1020.41 1.23185 -0.803975 0
M  V30 10793 H 1022.37 4.16528 0.23668 0
M  V30 10794 H 1021 3.14169 0.741445 0
M  V30 10795 H 1020.05 3.42159 -1.66227 0
M  V30 10796 H 1021.36 4.57809 -1.9802 0
M  V30 10797 H 1020.52 6.06507 -0.153109 0
M  V30 10798 H 1019.26 4.86995 0.262066 0
M  V30 10799 H 1018.26 5.10938 -2.03033 0
M  V30 10800 H 1019.49 6.33819 -2.43824 0
M  V30 10801 H 1017.43 6.5568 -0.204894 0
M  V30 10802 H 1017.35 7.35704 -1.73999 0
M  V30 10803 H 1018.62 7.76992 -0.624792 0
M  V30 10804 N 1022.85 0.866709 1.31628 0
M  V30 10805 C 1024.12 0.396828 1.91532 0
M  V30 10806 C 1024.5 -1.12081 1.78889 0
M  V30 10807 O 1023.85 -1.94791 1.19452 0
M  V30 10808 C 1024.06 0.874578 3.37864 0
M  V30 10809 C 1025.41 0.8988 4.14978 0
M  V30 10810 O 1026.43 0.820014 3.46633 0
M  V30 10811 O 1025.29 1.01223 5.37044 0
M  V30 10812 H 1022.39 0.1181 0.818524 0
M  V30 10813 H 1024.93 0.954407 1.40318 0
M  V30 10814 H 1023.7 1.91807 3.41066 0
M  V30 10815 H 1023.33 0.295126 3.96503 0
M  V30 10816 N 1024.32 -1.44642 0.625825 0
M  V30 10817 C 1025.57 -2.01695 0.127948 0
M  V30 10818 C 1025.89 -1.49439 -1.25271 0
M  V30 10819 O 1025.16 -0.695873 -1.83124 0
M  V30 10820 H 1023.74 -0.745685 0.0443096 0
M  V30 10821 H 1026.4 -1.7721 0.811332 0
M  V30 10822 H 1025.5 -3.11966 0.0915933 0
M  V30 10823 N 1025.8 -0.366053 -1.5329 0
M  V30 10824 C 1027.05 0.223824 -2.01561 0
M  V30 10825 C 1027.38 1.48382 -1.25286 0
M  V30 10826 O 1026.66 1.91385 -0.34669 0
M  V30 10827 C 1026.94 0.5153 -3.56394 0
M  V30 10828 C 1026.79 -0.758357 -4.43361 0
M  V30 10829 C 1028.11 1.31568 -4.19974 0
M  V30 10830 H 1025.23 0.0798751 -0.732659 0
M  V30 10831 H 1027.87 -0.491038 -1.83545 0
M  V30 10832 H 1026.02 1.12429 -3.71876 0
M  V30 10833 H 1027.69 -1.39584 -4.39675 0
M  V30 10834 H 1025.94 -1.37862 -4.11311 0
M  V30 10835 H 1026.61 -0.509366 -5.49645 0
M  V30 10836 H 1029.08 0.800514 -4.08327 0
M  V30 10837 H 1027.96 1.48837 -5.28336 0
M  V30 10838 H 1028.22 2.32432 -3.76069 0
M  V30 10839 N 1027.28 1.57312 -0.0952337 0
M  V30 10840 C 1028.7 1.57445 0.261416 0
M  V30 10841 C 1028.9 1.10639 1.68408 0
M  V30 10842 O 1027.95 0.782912 2.40056 0
M  V30 10843 C 1029.26 3.00659 0.0497206 0
M  V30 10844 C 1030.81 3.1278 0.117459 0
M  V30 10845 C 1031.29 4.57952 -0.0662441 0
M  V30 10846 N 1032.78 4.63199 -0.0114146 0
M  V30 10847 C 1033.51 5.73255 -0.128799 0
M  V30 10848 N 1033.01 6.92146 -0.301026 0
M  V30 10849 N 1034.8 5.62056 -0.0700599 0
M  V30 10850 H 1026.95 1.86045 -1.02475 0
M  V30 10851 H 1029.22 0.858726 -0.401614 0
M  V30 10852 H 1028.92 3.39102 -0.932888 0
M  V30 10853 H 1028.8 3.68792 0.791975 0
M  V30 10854 H 1031.18 2.74209 1.09057 0
M  V30 10855 H 1031.26 2.47238 -0.656288 0
M  V30 10856 H 1030.91 4.97217 -1.03623 0
M  V30 10857 H 1030.84 5.21555 0.727198 0
M  V30 10858 H 1033.33 3.77712 0.119154 0
M  V30 10859 H 1033.64 7.71855 -0.382104 0
M  V30 10860 H 1031.99 6.94184 -0.336695 0
M  V30 10861 H 1035.18 4.68057 0.0633587 0
M  V30 10862 H 1035.35 6.4779 -0.164991 0
M  V30 10863 N 1028.76 -0.17846 1.56586 0
M  V30 10864 C 1029.69 -1.24547 1.92408 0
M  V30 10865 C 1030.7 -1.40849 0.816421 0
M  V30 10866 O 1031.89 -1.40979 1.09486 0
M  V30 10867 C 1028.99 -2.61523 2.15544 0
M  V30 10868 C 1028.16 -2.66613 3.46751 0
M  V30 10869 C 1027.22 -3.84901 3.588 0
M  V30 10870 O 1026.25 -3.71231 4.31482 0
M  V30 10871 N 1027.45 -5.0106 2.9312 0
M  V30 10872 H 1030.22 -0.941275 2.84535 0
M  V30 10873 H 1027.78 -0.368275 1.57656 0
M  V30 10874 H 1029.77 -3.3911 2.20876 0
M  V30 10875 H 1028.34 -2.84362 1.29835 0
M  V30 10876 H 1027.56 -1.75174 3.5314 0
M  V30 10877 H 1028.85 -2.67018 4.33104 0
M  V30 10878 H 1028.25 -5.15067 2.33928 0
M  V30 10879 H 1026.8 -5.76535 3.04057 0
M  V30 10880 N 1030.24 -1.51135 -0.446768 0
M  V30 10881 C 1031.48 -1.62571 -1.19388 0
M  V30 10882 C 1031.8 -0.3432 -1.92566 0
M  V30 10883 O 1033 -0.336804 -2.69403 0
M  V30 10884 C 1031.46 -2.87071 -2.17068 0
M  V30 10885 C 1031.07 -4.22291 -1.49581 0
M  V30 10886 C 1032.81 -3.07862 -2.9227 0
M  V30 10887 C 1030.72 -5.3795 -2.45689 0
M  V30 10888 H 1029.65 -0.60549 -0.449331 0
M  V30 10889 H 1032.3 -1.77593 -0.461846 0
M  V30 10890 H 1030.68 -2.65662 -2.93666 0
M  V30 10891 H 1031.86 -4.54046 -0.786054 0
M  V30 10892 H 1030.17 -4.07302 -0.865677 0
M  V30 10893 H 1032.77 -3.91444 -3.64246 0
M  V30 10894 H 1033.11 -2.20559 -3.53072 0
M  V30 10895 H 1033.64 -3.29566 -2.2278 0
M  V30 10896 H 1030.38 -6.27484 -1.89591 0
M  V30 10897 H 1029.9 -5.10583 -3.14746 0
M  V30 10898 H 1031.58 -5.69517 -3.07017 0
M  V30 10899 N 1031.71 0.701592 -1.41122 0
M  V30 10900 C 1033.12 1.28129 -1.35793 0
M  V30 10901 C 1033.48 1.96163 -0.0381185 0
M  V30 10902 O 1032.6 1.98416 0.863723 0
M  V30 10903 C 1033.2 2.33005 -2.45955 0
M  V30 10904 C 1031.75 2.86566 -2.44043 0
M  V30 10905 C 1030.9 1.60526 -2.26112 0
M  V30 10906 H 1033.85 0.496756 -1.50725 0
M  V30 10907 H 1033.87 3.14163 -2.14667 0
M  V30 10908 H 1033.39 1.8346 -3.42 0
M  V30 10909 H 1031.49 3.40304 -1.51737 0
M  V30 10910 H 1031.6 3.37406 -3.40138 0
M  V30 10911 H 1029.96 1.86113 -1.7388 0
M  V30 10912 H 1030.75 1.12985 -3.24175 0
M  V30 10913 N 1033.19 1.2685 0.935242 0
M  V30 10914 C 1034.44 1.12132 1.67658 0
M  V30 10915 C 1034.75 -0.333839 1.9273 0
M  V30 10916 O 1035.96 -0.601801 2.64746 0
M  V30 10917 C 1034.42 1.95873 3.0193 0
M  V30 10918 C 1034.02 3.46 2.84584 0
M  V30 10919 C 1035.77 1.89781 3.79715 0
M  V30 10920 C 1033.67 4.21966 4.14365 0
M  V30 10921 H 1032.6 0.416035 0.628833 0
M  V30 10922 H 1035.26 1.51209 1.03962 0
M  V30 10923 H 1033.64 1.49633 3.66641 0
M  V30 10924 H 1034.81 4.00049 2.28687 0
M  V30 10925 H 1033.13 3.53391 2.20236 0
M  V30 10926 H 1035.72 2.43819 4.75875 0
M  V30 10927 H 1036.07 0.869797 4.07112 0
M  V30 10928 H 1036.6 2.33875 3.21788 0
M  V30 10929 H 1033.34 5.2526 3.9215 0
M  V30 10930 H 1032.86 3.72696 4.69955 0
M  V30 10931 H 1034.54 4.30734 4.82781 0
M  V30 10932 N 1034.67 -1.14067 1.0875 0
M  V30 10933 C 1035.58 -2.22871 0.732498 0
M  V30 10934 C 1036.6 -1.72008 -0.26253 0
M  V30 10935 O 1037.77 -2.01123 -0.105601 0
M  V30 10936 C 1034.84 -3.46371 0.150913 0
M  V30 10937 C 1033.9 -4.12158 1.201 0
M  V30 10938 C 1033.13 -5.29763 0.647075 0
M  V30 10939 O 1033.35 -5.67911 -0.532307 0
M  V30 10940 O 1032.29 -5.8542 1.3988 0
M  V30 10941 H 1036.11 -2.55596 1.64025 0
M  V30 10942 H 1033.7 -1.22065 0.861417 0
M  V30 10943 H 1035.58 -4.21055 -0.170442 0
M  V30 10944 H 1034.26 -3.15362 -0.729948 0
M  V30 10945 H 1033.16 -3.39332 1.57494 0
M  V30 10946 H 1034.5 -4.47282 2.05426 0
M  V30 10947 N 1036.15 -0.873678 -1.31166 0
M  V30 10948 C 1037.37 -0.500242 -2.01277 0
M  V30 10949 C 1037.8 0.900811 -1.65127 0
M  V30 10950 O 1037.16 1.59504 -0.861862 0
M  V30 10951 C 1037.2 -0.668976 -3.5434 0
M  V30 10952 O 1036.31 0.290096 -4.11378 0
M  V30 10953 H 1035.65 -0.198507 -0.633633 0
M  V30 10954 H 1038.18 -1.17811 -1.67277 0
M  V30 10955 H 1038.19 -0.563673 -4.04088 0
M  V30 10956 H 1036.86 -1.69055 -3.79991 0
M  V30 10957 H 1035.44 0.139437 -3.72639 0
M  V30 10958 N 1037.63 1.44308 -0.633487 0
M  V30 10959 C 1038.88 2.01239 -0.136356 0
M  V30 10960 C 1039.19 1.50438 1.25011 0
M  V30 10961 O 1040.39 1.99513 1.84138 0
M  V30 10962 C 1038.85 3.59382 -0.193011 0
M  V30 10963 C 1038.46 4.19178 -1.58093 0
M  V30 10964 C 1040.2 4.23778 0.247534 0
M  V30 10965 C 1038.11 5.69553 -1.59258 0
M  V30 10966 H 1037.04 0.752521 -0.0472109 0
M  V30 10967 H 1039.69 1.65498 -0.79263 0
M  V30 10968 H 1038.07 3.92432 0.530408 0
M  V30 10969 H 1039.25 3.97662 -2.32813 0
M  V30 10970 H 1037.56 3.67079 -1.96576 0
M  V30 10971 H 1040.16 5.34075 0.258401 0
M  V30 10972 H 1040.5 3.96285 1.27529 0
M  V30 10973 H 1041.03 3.9554 -0.423469 0
M  V30 10974 H 1037.77 6.01784 -2.59878 0
M  V30 10975 H 1037.29 5.93185 -0.888352 0
M  V30 10976 H 1038.97 6.33234 -1.32756 0
M  V30 10977 N 1039.1 0.374177 1.53094 0
M  V30 10978 C 1040.52 -0.103172 1.86415 0
M  V30 10979 C 1040.87 -1.47439 1.29446 0
M  V30 10980 O 1039.99 -2.07333 0.619853 0
M  V30 10981 C 1040.59 -0.193988 3.38244 0
M  V30 10982 C 1039.15 -0.615605 3.71332 0
M  V30 10983 C 1038.29 0.23186 2.76329 0
M  V30 10984 H 1041.24 0.592644 1.47219 0
M  V30 10985 H 1041.26 -1.01597 3.66686 0
M  V30 10986 H 1040.78 0.80414 3.79678 0
M  V30 10987 H 1038.88 -1.62165 3.3546 0
M  V30 10988 H 1038.99 -0.38425 4.77557 0
M  V30 10989 H 1037.35 -0.300579 2.5292 0
M  V30 10990 H 1038.14 1.22769 3.20597 0
M  V30 10991 N 1040.58 -1.57259 0.103575 0
M  V30 10992 C 1041.83 -1.94272 -0.557024 0
M  V30 10993 C 1042.15 -0.986739 -1.68192 0
M  V30 10994 O 1041.42 -0.0402818 -1.95859 0
M  V30 10995 H 1040 -0.717237 -0.208757 0
M  V30 10996 H 1042.66 -1.94167 0.168898 0
M  V30 10997 H 1041.76 -2.96914 -0.961691 0
M  V30 10998 N 1042.06 0.170153 -1.56679 0
M  V30 10999 C 1043.31 0.884902 -1.81252 0
M  V30 11000 C 1043.62 1.83361 -0.681024 0
M  V30 11001 O 1044.83 2.59082 -0.811722 0
M  V30 11002 C 1043.28 1.62408 -3.21172 0
M  V30 11003 C 1042.89 0.718947 -4.42194 0
M  V30 11004 C 1044.64 2.32699 -3.55037 0
M  V30 11005 C 1042.54 1.45843 -5.73135 0
M  V30 11006 H 1041.47 0.33418 -0.675899 0
M  V30 11007 H 1044.12 0.137818 -1.82982 0
M  V30 11008 H 1042.51 2.41596 -3.13763 0
M  V30 11009 H 1043.68 -0.0360521 -4.60786 0
M  V30 11010 H 1042 0.125634 -4.1621 0
M  V30 11011 H 1044.59 2.88621 -4.50114 0
M  V30 11012 H 1044.94 3.08092 -2.79974 0
M  V30 11013 H 1045.47 1.60453 -3.64005 0
M  V30 11014 H 1042.21 0.746799 -6.51232 0
M  V30 11015 H 1041.73 2.18672 -5.58518 0
M  V30 11016 H 1043.41 2.0056 -6.1513 0
M  V30 11017 N 1043.54 1.5137 0.438746 0
M  V30 11018 C 1044.95 1.39514 0.775116 0
M  V30 11019 C 1045.15 0.47638 1.95788 0
M  V30 11020 O 1044.21 -0.0689832 2.52406 0
M  V30 11021 C 1045.52 2.81517 1.05681 0
M  V30 11022 C 1047.07 2.90658 1.16133 0
M  V30 11023 C 1047.55 4.33566 1.47597 0
M  V30 11024 N 1049.04 4.36665 1.54524 0
M  V30 11025 C 1049.77 5.4427 1.80438 0
M  V30 11026 N 1049.27 6.62037 2.04154 0
M  V30 11027 N 1051.06 5.31749 1.82208 0
M  V30 11028 H 1043.21 2.09657 -0.340237 0
M  V30 11029 H 1045.48 0.943736 -0.0898115 0
M  V30 11030 H 1045.18 3.50734 0.260441 0
M  V30 11031 H 1045.06 3.20757 1.98481 0
M  V30 11032 H 1047.44 2.2164 1.94833 0
M  V30 11033 H 1047.52 2.54917 0.212376 0
M  V30 11034 H 1047.17 5.03133 0.694251 0
M  V30 11035 H 1047.1 4.66819 2.43696 0
M  V30 11036 H 1049.59 3.51761 1.38105 0
M  V30 11037 H 1049.9 7.39838 2.23293 0
M  V30 11038 H 1048.25 6.65155 2.01479 0
M  V30 11039 H 1051.44 4.3873 1.63198 0
M  V30 11040 H 1051.61 6.15689 2.02067 0
M  V30 11041 N 1045.02 -0.694098 1.41492 0
M  V30 11042 C 1045.93 -1.83778 1.45818 0
M  V30 11043 C 1046.94 -1.70471 0.348639 0
M  V30 11044 O 1048.12 -1.92361 0.596588 0
M  V30 11045 C 1045.18 -3.19771 1.33967 0
M  V30 11046 C 1044.24 -3.45175 2.5525 0
M  V30 11047 C 1043.48 -4.74681 2.43955 0
M  V30 11048 O 1043.7 -5.51268 1.46491 0
M  V30 11049 O 1042.63 -5.00901 3.33739 0
M  V30 11050 H 1046.46 -1.83084 2.42309 0
M  V30 11051 H 1044.05 -0.847349 1.23046 0
M  V30 11052 H 1045.93 -4.00961 1.29648 0
M  V30 11053 H 1044.6 -3.21145 0.405926 0
M  V30 11054 H 1043.51 -2.6391 2.65146 0
M  V30 11055 H 1044.84 -3.48617 3.47458 0
M  V30 11056 N 1046.49 -1.27344 -0.928501 0
M  V30 11057 C 1047.72 -1.16447 -1.7102 0
M  V30 11058 C 1048.14 0.278799 -1.8673 0
M  V30 11059 O 1047.49 1.18989 -1.38376 0
M  V30 11060 C 1047.55 -1.84242 -3.11026 0
M  V30 11061 O 1047.27 -3.2293 -2.96054 0
M  V30 11062 C 1048.77 -1.7946 -4.05351 0
M  V30 11063 H 1045.99 -0.404898 -0.535069 0
M  V30 11064 H 1048.53 -1.68201 -1.16313 0
M  V30 11065 H 1046.69 -1.36395 -3.62595 0
M  V30 11066 H 1047.1 -3.5667 -3.8456 0
M  V30 11067 H 1048.57 -2.31511 -5.01105 0
M  V30 11068 H 1049.05 -0.763771 -4.32508 0
M  V30 11069 H 1049.66 -2.26918 -3.59706 0
M  V30 11070 N 1047.97 1.13488 -1.09353 0
M  V30 11071 C 1049.22 1.84383 -0.827488 0
M  V30 11072 C 1049.54 1.83892 0.648745 0
M  V30 11073 O 1048.81 1.29415 1.47066 0
M  V30 11074 H 1047.39 0.682732 -0.303127 0
M  V30 11075 H 1050.05 1.37477 -1.38152 0
M  V30 11076 H 1049.15 2.88919 -1.18035 0
M  V30 11077 N 1049.45 0.880621 1.30701 0
M  V30 11078 C 1050.7 0.506967 1.96981 0
M  V30 11079 C 1051.05 -0.932694 1.68281 0
M  V30 11080 O 1050.35 -1.64954 0.974709 0
M  V30 11081 C 1050.54 0.713203 3.50212 0
M  V30 11082 C 1050.37 2.17136 3.93805 0
M  V30 11083 C 1049.14 2.81508 4.19621 0
M  V30 11084 C 1051.34 3.14473 4.06954 0
M  V30 11085 N 1049.32 4.17965 4.49643 0
M  V30 11086 C 1050.69 4.3599 4.40809 0
M  V30 11087 C 1052.74 3.1032 3.89366 0
M  V30 11088 C 1051.45 5.53889 4.58911 0
M  V30 11089 C 1053.47 4.27487 4.08667 0
M  V30 11090 C 1052.84 5.47769 4.42864 0
M  V30 11091 H 1048.93 0.234756 0.745931 0
M  V30 11092 H 1051.52 1.13745 1.5802 0
M  V30 11093 H 1049.69 0.112239 3.88238 0
M  V30 11094 H 1051.42 0.30688 4.03535 0
M  V30 11095 H 1048.18 2.32399 4.12659 0
M  V30 11096 H 1048.6 4.88425 4.68796 0
M  V30 11097 H 1053.24 2.18428 3.62007 0
M  V30 11098 H 1050.96 6.46289 4.85114 0
M  V30 11099 H 1054.55 4.25738 3.96533 0
M  V30 11100 H 1053.43 6.36922 4.57493 0
M  V30 11101 N 1050.93 -1.4397 0.641131 0
M  V30 11102 C 1051.88 -2.30728 -0.0577905 0
M  V30 11103 C 1052.85 -1.44059 -0.826819 0
M  V30 11104 O 1054.03 -1.72947 -0.805853 0
M  V30 11105 C 1051.17 -3.29478 -1.02657 0
M  V30 11106 C 1050.28 -4.31247 -0.254913 0
M  V30 11107 C 1049.42 -5.17085 -1.2164 0
M  V30 11108 C 1048.46 -6.10556 -0.434481 0
M  V30 11109 N 1047.6 -6.89059 -1.34694 0
M  V30 11110 H 1052.44 -2.8995 0.687953 0
M  V30 11111 H 1049.97 -1.4285 0.351029 0
M  V30 11112 H 1051.93 -3.85228 -1.60173 0
M  V30 11113 H 1050.56 -2.71932 -1.73933 0
M  V30 11114 H 1049.61 -3.77889 0.436338 0
M  V30 11115 H 1050.92 -4.97545 0.353642 0
M  V30 11116 H 1050.08 -5.77402 -1.86258 0
M  V30 11117 H 1048.82 -4.50885 -1.85888 0
M  V30 11118 H 1047.82 -5.49339 0.225125 0
M  V30 11119 H 1049.05 -6.78795 0.203415 0
M  V30 11120 H 1046.99 -6.25518 -1.97644 0
M  V30 11121 H 1046.91 -7.51833 -0.792657 0
M  V30 11122 H 1048.18 -7.5389 -1.98165 0
M  V30 11123 N 1052.41 -0.382291 -1.52893 0
M  V30 11124 C 1053.82 0.0932841 -1.86467 0
M  V30 11125 C 1054.17 1.4675 -1.30226 0
M  V30 11126 O 1053.29 2.07001 -0.63084 0
M  V30 11127 C 1053.89 0.176048 -3.38342 0
M  V30 11128 C 1052.45 0.595904 -3.71653 0
M  V30 11129 C 1051.6 -0.246511 -2.76202 0
M  V30 11130 H 1054.55 -0.600443 -1.46903 0
M  V30 11131 H 1054.57 0.996512 -3.67219 0
M  V30 11132 H 1054.08 -0.824264 -3.79246 0
M  V30 11133 H 1052.18 1.60384 -3.36315 0
M  V30 11134 H 1052.29 0.358919 -4.77754 0
M  V30 11135 H 1050.66 0.287162 -2.53076 0
M  V30 11136 H 1051.44 -1.24467 -3.19942 0
M  V30 11137 N 1053.89 1.57202 -0.111913 0
M  V30 11138 C 1055.11 1.99723 0.559054 0
M  V30 11139 C 1055.54 0.990968 1.59879 0
M  V30 11140 O 1054.89 -0.038311 1.8126 0
M  V30 11141 C 1054.94 3.41151 1.16826 0
M  V30 11142 O 1054.05 3.43383 2.2839 0
M  V30 11143 H 1053.39 0.649004 0.140319 0
M  V30 11144 H 1055.92 2.03637 -0.198295 0
M  V30 11145 H 1055.93 3.79208 1.50551 0
M  V30 11146 H 1054.6 4.13907 0.406637 0
M  V30 11147 H 1053.18 3.17138 1.96158 0
M  V30 11148 N 1055.36 -0.161842 1.56767 0
M  V30 11149 C 1056.61 -0.875192 1.82167 0
M  V30 11150 C 1056.93 -1.82367 0.690444 0
M  V30 11151 O 1056.2 -1.93756 -0.289023 0
M  V30 11152 H 1054.78 -0.326178 0.672024 0
M  V30 11153 H 1057.44 -0.159392 1.94247 0
M  V30 11154 H 1056.54 -1.44639 2.76561 0
M  V30 11155 N 1056.84 -1.516 -0.430713 0
M  V30 11156 C 1057.79 -1.73392 -1.52328 0
M  V30 11157 C 1058.76 -0.575758 -1.55802 0
M  V30 11158 O 1059.94 -0.810931 -1.72709 0
M  V30 11159 C 1057.08 -1.87092 -2.89984 0
M  V30 11160 C 1056.2 -3.14668 -2.95987 0
M  V30 11161 C 1055.33 -3.18923 -4.24807 0
M  V30 11162 C 1054.37 -4.40787 -4.24703 0
M  V30 11163 N 1053.51 -4.42556 -5.45059 0
M  V30 11164 H 1058.35 -2.6665 -1.33048 0
M  V30 11165 H 1055.88 -1.32146 -0.646207 0
M  V30 11166 H 1057.84 -1.93017 -3.69865 0
M  V30 11167 H 1056.47 -0.972363 -3.07807 0
M  V30 11168 H 1055.52 -3.1802 -2.08728 0
M  V30 11169 H 1056.84 -4.04562 -2.91772 0
M  V30 11170 H 1055.99 -3.23801 -5.13067 0
M  V30 11171 H 1054.73 -2.2693 -4.31688 0
M  V30 11172 H 1053.73 -4.36079 -3.34836 0
M  V30 11173 H 1054.96 -5.34053 -4.19481 0
M  V30 11174 H 1052.91 -3.53435 -5.52648 0
M  V30 11175 H 1052.82 -5.26267 -5.42751 0
M  V30 11176 H 1054.09 -4.51634 -6.35332 0
M  V30 11177 N 1058.32 0.686584 -1.41858 0
M  V30 11178 C 1059.23 1.83002 -1.46791 0
M  V30 11179 C 1060.25 1.70284 -0.357675 0
M  V30 11180 O 1061.42 1.92042 -0.606781 0
M  V30 11181 C 1058.49 3.19056 -1.35661 0
M  V30 11182 C 1057.55 3.43817 -2.57077 0
M  V30 11183 C 1056.78 4.7338 -2.46469 0
M  V30 11184 O 1057 5.50483 -1.49413 0
M  V30 11185 O 1055.94 4.99124 -3.36391 0
M  V30 11186 H 1059.76 1.81797 -2.43277 0
M  V30 11187 H 1057.35 0.840812 -1.23494 0
M  V30 11188 H 1059.23 4.00267 -1.31773 0
M  V30 11189 H 1057.91 3.20925 -0.422951 0
M  V30 11190 H 1056.81 2.625 -2.66541 0
M  V30 11191 H 1058.15 3.4677 -3.49302 0
M  V30 11192 N 1059.8 1.27835 0.921735 0
M  V30 11193 C 1060.74 1.11075 2.02314 0
M  V30 11194 C 1061.71 0.0101195 1.66097 0
M  V30 11195 O 1062.9 0.173564 1.90009 0
M  V30 11196 C 1060.04 0.770251 3.36394 0
M  V30 11197 C 1059.15 1.94912 3.8553 0
M  V30 11198 C 1058.29 1.54996 5.08084 0
M  V30 11199 C 1057.33 2.69595 5.49531 0
M  V30 11200 N 1056.46 2.30227 6.6328 0
M  V30 11201 H 1061.3 2.05319 2.15982 0
M  V30 11202 H 1058.84 1.022 1.058 0
M  V30 11203 H 1060.8 0.553624 4.1351 0
M  V30 11204 H 1059.43 -0.135238 3.22517 0
M  V30 11205 H 1058.48 2.27811 3.04641 0
M  V30 11206 H 1059.79 2.80858 4.12214 0
M  V30 11207 H 1058.95 1.29493 5.9272 0
M  V30 11208 H 1057.69 0.661676 4.83191 0
M  V30 11209 H 1056.69 2.95806 4.63442 0
M  V30 11210 H 1057.92 3.59054 5.76417 0
M  V30 11211 H 1055.86 1.43858 6.40032 0
M  V30 11212 H 1055.78 3.09711 6.89649 0
M  V30 11213 H 1057.05 2.07987 7.5124 0
M  V30 11214 N 1061.28 -1.12907 1.09954 0
M  V30 11215 C 1062.5 -1.88679 0.861099 0
M  V30 11216 C 1062.93 -1.78853 -0.582499 0
M  V30 11217 O 1062.28 -1.13992 -1.4098 0
M  V30 11218 C 1062.33 -3.36047 1.30785 0
M  V30 11219 O 1061.44 -4.09716 0.469728 0
M  V30 11220 H 1060.78 -0.586447 0.31141 0
M  V30 11221 H 1063.31 -1.42818 1.46507 0
M  V30 11222 H 1063.32 -3.86882 1.29562 0
M  V30 11223 H 1061.99 -3.42516 2.35914 0
M  V30 11224 H 1060.57 -3.6887 0.54674 0
M  V30 11225 N 1062.75 -0.88754 -1.30232 0
M  V30 11226 C 1063.7 -0.354497 -2.28061 0
M  V30 11227 C 1064.67 0.556732 -1.56492 0
M  V30 11228 O 1065.86 0.484597 -1.84543 0
M  V30 11229 C 1063 0.422701 -3.42501 0
M  V30 11230 C 1062.11 -0.518036 -4.28883 0
M  V30 11231 C 1061.24 0.275011 -5.30488 0
M  V30 11232 C 1060.28 -0.661032 -6.0852 0
M  V30 11233 N 1059.42 0.0968509 -7.02033 0
M  V30 11234 H 1064.26 -1.19388 -2.73039 0
M  V30 11235 H 1061.8 -0.600091 -1.34303 0
M  V30 11236 H 1063.75 0.889249 -4.07613 0
M  V30 11237 H 1062.38 1.22664 -2.98586 0
M  V30 11238 H 1061.44 -1.10308 -3.64055 0
M  V30 11239 H 1062.75 -1.23504 -4.83268 0
M  V30 11240 H 1061.9 0.803301 -6.01358 0
M  V30 11241 H 1060.64 1.02522 -4.76802 0
M  V30 11242 H 1059.65 -1.20093 -5.36524 0
M  V30 11243 H 1060.87 -1.41037 -6.64293 0
M  V30 11244 H 1058.82 0.829548 -6.50734 0
M  V30 11245 H 1058.73 -0.560476 -7.5392 0
M  V30 11246 H 1060 0.6058 -7.77142 0
M  V30 11247 N 1064.23 1.43628 -0.648757 0
M  V30 11248 C 1065.14 2.34554 0.0463037 0
M  V30 11249 C 1066.16 1.53629 0.816952 0
M  V30 11250 O 1067.33 1.86297 0.765212 0
M  V30 11251 C 1064.4 3.3185 1.00381 0
M  V30 11252 C 1063.46 4.2868 0.230589 0
M  V30 11253 C 1062.69 5.21328 1.14249 0
M  V30 11254 O 1062.92 5.18298 2.38166 0
M  V30 11255 O 1061.85 5.98726 0.617296 0
M  V30 11256 H 1065.68 2.95475 -0.702008 0
M  V30 11257 H 1063.26 1.43694 -0.408942 0
M  V30 11258 H 1065.14 3.91692 1.5542 0
M  V30 11259 H 1063.82 2.73439 1.73243 0
M  V30 11260 H 1062.73 3.72332 -0.363282 0
M  V30 11261 H 1064.06 4.90061 -0.458368 0
M  V30 11262 N 1065.71 0.390394 1.52688 0
M  V30 11263 C 1067.12 -0.083394 1.86514 0
M  V30 11264 C 1067.47 -1.46057 1.31003 0
M  V30 11265 O 1066.6 -2.06663 0.641809 0
M  V30 11266 C 1067.19 -0.158102 3.38431 0
M  V30 11267 C 1065.75 -0.576186 3.71964 0
M  V30 11268 C 1064.9 0.261156 2.76068 0
M  V30 11269 H 1067.85 0.608226 1.46582 0
M  V30 11270 H 1067.87 -0.977023 3.67742 0
M  V30 11271 H 1067.38 0.844365 3.78803 0
M  V30 11272 H 1065.48 -1.58598 3.37161 0
M  V30 11273 H 1065.6 -0.333577 4.77937 0
M  V30 11274 H 1063.96 -0.273737 2.53225 0
M  V30 11275 H 1064.74 1.26162 3.19277 0
M  V30 11276 N 1067.19 -1.57141 0.120249 0
M  V30 11277 C 1068.6 -1.5784 -0.236335 0
M  V30 11278 C 1068.8 -1.13304 -1.66626 0
M  V30 11279 O 1067.86 -0.821004 -2.3878 0
M  V30 11280 C 1069.17 -3.007 -0.00188211 0
M  V30 11281 C 1070.72 -3.12927 -0.0676838 0
M  V30 11282 C 1071.2 -4.57789 0.139092 0
M  V30 11283 N 1072.69 -4.63122 0.085104 0
M  V30 11284 C 1073.42 -5.72978 0.219983 0
M  V30 11285 N 1072.92 -6.91579 0.411102 0
M  V30 11286 N 1074.71 -5.61874 0.159469 0
M  V30 11287 H 1066.86 -1.84391 1.05422 0
M  V30 11288 H 1069.13 -0.852228 0.415225 0
M  V30 11289 H 1068.83 -3.37575 0.986718 0
M  V30 11290 H 1068.71 -3.70005 -0.733203 0
M  V30 11291 H 1071.09 -2.75909 -1.04681 0
M  V30 11292 H 1071.17 -2.46162 0.695538 0
M  V30 11293 H 1070.82 -4.95506 1.1152 0
M  V30 11294 H 1070.75 -5.22646 -0.644131 0
M  V30 11295 H 1073.24 -3.77854 -0.0590479 0
M  V30 11296 H 1073.55 -7.71149 0.504851 0
M  V30 11297 H 1071.9 -6.9356 0.447091 0
M  V30 11298 H 1075.09 -4.68099 0.0111131 0
M  V30 11299 H 1075.26 -6.47445 0.268028 0
M  V30 11300 N 1068.67 0.153526 -1.5685 0
M  V30 11301 C 1069.94 0.895545 -1.73895 0
M  V30 11302 C 1070.32 1.99625 -0.686504 0
M  V30 11303 O 1069.67 2.26579 0.2957 0
M  V30 11304 C 1069.88 1.44399 -3.17726 0
M  V30 11305 C 1071.23 1.90996 -3.79217 0
M  V30 11306 O 1072.25 1.54155 -3.21115 0
M  V30 11307 O 1071.11 2.58917 -4.81274 0
M  V30 11308 H 1068.21 0.422755 -0.710779 0
M  V30 11309 H 1070.75 0.139961 -1.69122 0
M  V30 11310 H 1069.52 0.652635 -3.85819 0
M  V30 11311 H 1069.15 2.26326 -3.26898 0
M  V30 11312 N 1070.14 1.51827 0.422667 0
M  V30 11313 C 1071.56 1.57533 1.00201 0
M  V30 11314 C 1071.91 0.407623 1.91919 0
M  V30 11315 O 1071.03 -0.473763 2.1115 0
M  V30 11316 C 1071.63 2.85508 1.82403 0
M  V30 11317 C 1070.19 2.93737 2.35362 0
M  V30 11318 C 1069.33 2.52343 1.14971 0
M  V30 11319 H 1072.28 1.57391 0.20339 0
M  V30 11320 H 1072.3 2.70097 2.68007 0
M  V30 11321 H 1071.82 3.70477 1.15623 0
M  V30 11322 H 1069.92 2.13231 3.05554 0
M  V30 11323 H 1070.03 3.977 2.67155 0
M  V30 11324 H 1068.39 2.05878 1.49955 0
M  V30 11325 H 1069.18 3.39672 0.497786 0
M  V30 11326 N 1071.62 -0.679052 1.4222 0
M  V30 11327 C 1072.9 -1.43473 1.32947 0
M  V30 11328 C 1073.28 -2.11071 -0.0351689 0
M  V30 11329 O 1072.63 -2.02925 -1.05042 0
M  V30 11330 C 1072.84 -2.44065 2.49466 0
M  V30 11331 C 1074.19 -3.08834 2.91387 0
M  V30 11332 O 1075.21 -2.54392 2.49325 0
M  V30 11333 O 1074.07 -4.07478 3.64175 0
M  V30 11334 H 1071.16 -0.639743 0.524078 0
M  V30 11335 H 1073.71 -0.708134 1.54219 0
M  V30 11336 H 1072.48 -1.92884 3.40457 0
M  V30 11337 H 1072.1 -3.24212 2.30158 0
M  V30 11338 N 1073.1 -1.28322 -0.914942 0
M  V30 11339 C 1074.03 -1.07947 -2.02188 0
M  V30 11340 C 1075.05 -0.0315743 -1.62769 0
M  V30 11341 O 1076.23 -0.274503 -1.76377 0
M  V30 11342 C 1073.33 -0.61805 -3.33217 0
M  V30 11343 C 1072.51 -1.74109 -4.01254 0
M  V30 11344 C 1071.57 -1.27325 -5.10563 0
M  V30 11345 O 1070.59 -1.97526 -5.33828 0
M  V30 11346 N 1071.79 -0.1358 -5.80341 0
M  V30 11347 H 1074.56 -2.03275 -2.20225 0
M  V30 11348 H 1072.12 -1.20059 -1.08616 0
M  V30 11349 H 1074.11 -0.288693 -4.03669 0
M  V30 11350 H 1072.68 0.242348 -3.11659 0
M  V30 11351 H 1071.9 -2.2401 -3.24366 0
M  V30 11352 H 1073.19 -2.49448 -4.43456 0
M  V30 11353 H 1072.59 0.449846 -5.63909 0
M  V30 11354 H 1071.15 0.134289 -6.51662 0
M  V30 11355 N 1074.58 1.12322 -1.10551 0
M  V30 11356 C 1075.51 2.20176 -0.777486 0
M  V30 11357 C 1076.49 1.68252 0.250069 0
M  V30 11358 O 1077.67 1.93856 0.115574 0
M  V30 11359 C 1074.8 3.46666 -0.209822 0
M  V30 11360 C 1073.76 4.11749 -1.1682 0
M  V30 11361 C 1073.08 5.32703 -0.461684 0
M  V30 11362 C 1074.38 4.57746 -2.51527 0
M  V30 11363 H 1076.08 2.47872 -1.67928 0
M  V30 11364 H 1073.62 1.19136 -0.808863 0
M  V30 11365 H 1075.58 4.21388 0.0318068 0
M  V30 11366 H 1074.3 3.18401 0.727226 0
M  V30 11367 H 1072.96 3.39009 -1.3953 0
M  V30 11368 H 1072.61 5.00706 0.479875 0
M  V30 11369 H 1072.31 5.77197 -1.1008 0
M  V30 11370 H 1073.83 6.10172 -0.228629 0
M  V30 11371 H 1075.25 5.23835 -2.32958 0
M  V30 11372 H 1073.64 5.13021 -3.11335 0
M  V30 11373 H 1074.71 3.71667 -3.11435 0
M  V30 11374 N 1076.06 0.894434 1.2976 0
M  V30 11375 C 1077.29 0.532143 1.99629 0
M  V30 11376 C 1077.69 -0.886234 1.6716 0
M  V30 11377 O 1077.04 -1.59573 0.910065 0
M  V30 11378 C 1077.1 0.638335 3.53787 0
M  V30 11379 C 1076.76 2.02273 4.09798 0
M  V30 11380 C 1077.76 2.99327 4.25087 0
M  V30 11381 C 1075.45 2.33069 4.44954 0
M  V30 11382 C 1077.44 4.25304 4.74758 0
M  V30 11383 C 1075.13 3.59289 4.94322 0
M  V30 11384 C 1076.12 4.55222 5.09178 0
M  V30 11385 O 1075.81 5.79202 5.57477 0
M  V30 11386 H 1075.54 0.203326 0.644697 0
M  V30 11387 H 1078.1 1.2043 1.6639 0
M  V30 11388 H 1076.33 -0.0908338 3.86593 0
M  V30 11389 H 1078.02 0.285956 4.04891 0
M  V30 11390 H 1078.78 2.76849 3.9822 0
M  V30 11391 H 1074.66 1.59162 4.32653 0
M  V30 11392 H 1078.21 5.00189 4.86269 0
M  V30 11393 H 1074.1 3.816 5.20626 0
M  V30 11394 H 1074.87 5.81717 5.75802 0
M  V30 11395 N 1077.53 -1.43282 0.656365 0
M  V30 11396 C 1078.76 -2.06641 0.177245 0
M  V30 11397 C 1079.18 -1.48893 -1.14946 0
M  V30 11398 O 1078.54 -0.600099 -1.7108 0
M  V30 11399 C 1078.59 -3.60453 0.10299 0
M  V30 11400 O 1077.69 -4.01687 -0.933895 0
M  V30 11401 H 1077.04 -0.656978 0.096314 0
M  V30 11402 H 1079.57 -1.83733 0.900178 0
M  V30 11403 H 1079.58 -4.07923 -0.079291 0
M  V30 11404 H 1078.25 -4.01861 1.07147 0
M  V30 11405 H 1076.83 -3.65801 -0.724148 0
M  V30 11406 N 1079.01 -0.398486 -1.52479 0
M  V30 11407 C 1080.24 0.180557 -2.06111 0
M  V30 11408 C 1080.66 1.39751 -1.26945 0
M  V30 11409 O 1080.01 1.79699 -0.318497 0
M  V30 11410 C 1080.06 0.541573 -3.5742 0
M  V30 11411 O 1079.79 -0.627043 -4.33589 0
M  V30 11412 C 1081.29 1.17549 -4.27431 0
M  V30 11413 H 1078.51 0.0250754 -0.670531 0
M  V30 11414 H 1081.05 -0.566368 -1.96501 0
M  V30 11415 H 1079.21 1.23839 -3.67073 0
M  V30 11416 H 1079.62 -0.328233 -5.23472 0
M  V30 11417 H 1081.09 1.37839 -5.34513 0
M  V30 11418 H 1081.57 2.14553 -3.83228 0
M  V30 11419 H 1082.18 0.51918 -4.22119 0
M  V30 11420 N 1080.49 1.57075 -0.12858 0
M  V30 11421 C 1081.42 2.18833 0.814519 0
M  V30 11422 C 1082.4 1.13114 1.2704 0
M  V30 11423 O 1083.59 1.41387 1.33129 0
M  V30 11424 C 1080.72 2.79535 2.06101 0
M  V30 11425 C 1079.67 3.9092 1.74257 0
M  V30 11426 C 1079 4.38473 3.06015 0
M  V30 11427 C 1080.3 5.1257 1.00345 0
M  V30 11428 H 1081.99 2.97895 0.299862 0
M  V30 11429 H 1079.54 1.4329 0.14279 0
M  V30 11430 H 1081.49 3.21401 2.72543 0
M  V30 11431 H 1080.21 1.97777 2.59907 0
M  V30 11432 H 1078.87 3.49645 1.102 0
M  V30 11433 H 1078.52 3.53561 3.57776 0
M  V30 11434 H 1078.22 5.13591 2.85479 0
M  V30 11435 H 1079.75 4.82997 3.7356 0
M  V30 11436 H 1081.16 5.51395 1.56959 0
M  V30 11437 H 1079.56 5.93333 0.898693 0
M  V30 11438 H 1080.63 4.84899 -0.0081335 0
M  V30 11439 N 1081.97 -0.145205 1.5693 0
M  V30 11440 C 1082.92 -1.17923 1.98401 0
M  V30 11441 C 1083.89 -1.42591 0.851885 0
M  V30 11442 O 1085.07 -1.54896 1.11409 0
M  V30 11443 C 1082.21 -2.50727 2.37128 0
M  V30 11444 C 1081.32 -2.33218 3.63639 0
M  V30 11445 C 1080.46 -3.5907 3.91462 0
M  V30 11446 C 1079.5 -3.36605 5.11237 0
M  V30 11447 N 1078.64 -4.54592 5.35061 0
M  V30 11448 H 1083.48 -0.818573 2.86537 0
M  V30 11449 H 1081.01 -0.392739 1.4176 0
M  V30 11450 H 1082.97 -3.28165 2.57611 0
M  V30 11451 H 1081.6 -2.84736 1.52069 0
M  V30 11452 H 1080.65 -1.46826 3.50922 0
M  V30 11453 H 1081.96 -2.12579 4.51234 0
M  V30 11454 H 1081.12 -4.44936 4.12453 0
M  V30 11455 H 1079.86 -3.82715 3.02293 0
M  V30 11456 H 1078.86 -2.49127 4.90118 0
M  V30 11457 H 1080.09 -3.14357 6.01961 0
M  V30 11458 H 1078.03 -4.78406 4.48847 0
M  V30 11459 H 1077.95 -4.36962 6.16928 0
M  V30 11460 H 1079.22 -5.41666 5.60551 0
M  V30 11461 N 1083.45 -1.52049 -0.414609 0
M  V30 11462 C 1084.67 -1.6997 -1.18848 0
M  V30 11463 C 1085.1 -0.406058 -1.83665 0
M  V30 11464 O 1084.46 0.635981 -1.69779 0
M  V30 11465 C 1084.5 -2.8327 -2.23138 0
M  V30 11466 O 1083.61 -2.48457 -3.29155 0
M  V30 11467 H 1082.95 -0.566003 -0.347183 0
M  V30 11468 H 1085.48 -1.98726 -0.486757 0
M  V30 11469 H 1085.49 -3.08022 -2.67557 0
M  V30 11470 H 1084.16 -3.7713 -1.75344 0
M  V30 11471 H 1082.74 -2.34357 -2.90054 0
M  V30 11472 N 1084.93 0.6715 -1.42579 0
M  V30 11473 C 1086.17 1.42731 -1.42516 0
M  V30 11474 C 1086.49 1.95545 -0.0462407 0
M  V30 11475 O 1087.69 2.71391 0.0769798 0
M  V30 11476 C 1086.15 2.58215 -2.50705 0
M  V30 11477 C 1085.76 2.12086 -3.94618 0
M  V30 11478 C 1087.5 3.35705 -2.59813 0
M  V30 11479 C 1085.41 3.24672 -4.9431 0
M  V30 11480 H 1084.34 0.536218 -0.530081 0
M  V30 11481 H 1086.99 0.726655 -1.68499 0
M  V30 11482 H 1085.37 3.30665 -2.17892 0
M  V30 11483 H 1086.55 1.46768 -4.36802 0
M  V30 11484 H 1084.86 1.47526 -3.89391 0
M  V30 11485 H 1087.46 4.1956 -3.31472 0
M  V30 11486 H 1087.8 3.82517 -1.64276 0
M  V30 11487 H 1088.33 2.70326 -2.91836 0
M  V30 11488 H 1085.07 2.82848 -5.91335 0
M  V30 11489 H 1084.59 3.88761 -4.56755 0
M  V30 11490 H 1086.27 3.90088 -5.16179 0
M  V30 11491 N 1086.4 1.28806 0.908124 0
M  V30 11492 C 1087.33 1.15758 2.02787 0
M  V30 11493 C 1088.31 0.053911 1.70015 0
M  V30 11494 O 1089.5 0.231901 1.9281 0
M  V30 11495 C 1086.63 0.824526 3.37371 0
M  V30 11496 C 1085.58 1.88359 3.84324 0
M  V30 11497 C 1084.91 1.40404 5.15937 0
M  V30 11498 C 1086.21 3.29108 4.05568 0
M  V30 11499 H 1087.9 2.09431 2.13961 0
M  V30 11500 H 1085.45 1.00831 1.02806 0
M  V30 11501 H 1087.4 0.71999 4.15204 0
M  V30 11502 H 1086.13 -0.147902 3.26265 0
M  V30 11503 H 1084.79 1.97736 3.087 0
M  V30 11504 H 1084.43 0.420515 5.01239 0
M  V30 11505 H 1084.13 2.11224 5.48323 0
M  V30 11506 H 1085.66 1.31283 5.9632 0
M  V30 11507 H 1087.07 3.2262 4.73909 0
M  V30 11508 H 1085.47 3.97812 4.49294 0
M  V30 11509 H 1086.54 3.72709 3.10187 0
M  V30 11510 N 1087.88 -1.11734 1.11145 0
M  V30 11511 C 1088.81 -2.17438 0.724804 0
M  V30 11512 C 1089.83 -1.6099 -0.242069 0
M  V30 11513 O 1091.02 -1.78482 -0.0254259 0
M  V30 11514 C 1088.12 -3.38863 0.050004 0
M  V30 11515 C 1087.29 -4.24785 1.04292 0
M  V30 11516 C 1086.35 -5.24691 0.398243 0
M  V30 11517 O 1085.37 -5.59408 1.05125 0
M  V30 11518 N 1086.58 -5.74388 -0.840184 0
M  V30 11519 H 1089.34 -2.51219 1.63429 0
M  V30 11520 H 1086.9 -1.27226 1.00125 0
M  V30 11521 H 1088.89 -4.02788 -0.392929 0
M  V30 11522 H 1087.46 -3.0317 -0.762005 0
M  V30 11523 H 1086.68 -3.57363 1.6639 0
M  V30 11524 H 1087.97 -4.79033 1.71478 0
M  V30 11525 H 1087.37 -5.48359 -1.38994 0
M  V30 11526 H 1085.93 -6.40163 -1.22615 0
M  V30 11527 N 1089.36 -0.901303 -1.29284 0
M  V30 11528 C 1090.29 -0.337552 -2.26701 0
M  V30 11529 C 1091.3 0.517039 -1.54371 0
M  V30 11530 O 1092.49 0.333937 -1.75349 0
M  V30 11531 C 1089.59 0.537214 -3.34615 0
M  V30 11532 C 1088.77 -0.292017 -4.36424 0
M  V30 11533 C 1087.83 0.515837 -5.23666 0
M  V30 11534 O 1086.85 -0.0672303 -5.6916 0
M  V30 11535 N 1088.05 1.82159 -5.51179 0
M  V30 11536 H 1090.82 -1.17484 -2.75713 0
M  V30 11537 H 1088.38 -0.765957 -1.42635 0
M  V30 11538 H 1090.37 1.0841 -3.8991 0
M  V30 11539 H 1088.94 1.2752 -2.85408 0
M  V30 11540 H 1088.16 -1.02031 -3.80767 0
M  V30 11541 H 1089.45 -0.859855 -5.01482 0
M  V30 11542 H 1088.85 2.318 -5.16028 0
M  V30 11543 H 1087.4 2.31556 -6.09282 0
M  V30 11544 N 1090.84 1.42931 -0.663954 0
M  V30 11545 C 1092.08 2.01982 -0.182007 0
M  V30 11546 C 1092.42 1.52323 1.20463 0
M  V30 11547 O 1091.69 0.720834 1.80649 0
M  V30 11548 C 1091.97 3.59518 -0.204671 0
M  V30 11549 C 1091.83 4.19382 -1.62599 0
M  V30 11550 C 1093.15 4.37762 0.45308 0
M  V30 11551 H 1090.27 0.733892 -0.0676115 0
M  V30 11552 H 1092.91 1.70092 -0.84668 0
M  V30 11553 H 1091.06 3.86816 0.361295 0
M  V30 11554 H 1092.73 4.03076 -2.24337 0
M  V30 11555 H 1090.97 3.75623 -2.17001 0
M  V30 11556 H 1091.64 5.28496 -1.59362 0
M  V30 11557 H 1094.12 4.1609 -0.0285774 0
M  V30 11558 H 1093 5.47392 0.406538 0
M  V30 11559 H 1093.26 4.1482 1.52895 0
M  V30 11560 N 1092.32 0.406567 1.52266 0
M  V30 11561 C 1093.26 -0.420182 2.26943 0
M  V30 11562 C 1094.23 -1.04323 1.29251 0
M  V30 11563 O 1095.42 -1.06799 1.5811 0
M  V30 11564 C 1092.56 -1.5323 3.09216 0
M  V30 11565 C 1091.67 -0.930419 4.21862 0
M  V30 11566 C 1090.81 -2.01502 4.91498 0
M  V30 11567 C 1089.84 -1.38994 5.9611 0
M  V30 11568 N 1088.98 -2.41458 6.59274 0
M  V30 11569 H 1093.82 0.223066 2.97164 0
M  V30 11570 H 1091.36 0.121842 1.46595 0
M  V30 11571 H 1093.32 -2.18803 3.5522 0
M  V30 11572 H 1091.95 -2.14561 2.41171 0
M  V30 11573 H 1091 -0.163809 3.80047 0
M  V30 11574 H 1092.31 -0.433785 4.9691 0
M  V30 11575 H 1091.46 -2.74807 5.40894 0
M  V30 11576 H 1090.2 -2.5453 4.16012 0
M  V30 11577 H 1089.21 -0.642213 5.46036 0
M  V30 11578 H 1090.43 -0.867386 6.73538 0
M  V30 11579 H 1088.38 -2.93623 5.86619 0
M  V30 11580 H 1088.3 -1.96599 7.2999 0
M  V30 11581 H 1089.56 -3.14341 7.13309 0
M  V30 11582 N 1093.79 -1.57004 0.136909 0
M  V30 11583 C 1095.02 -2.00587 -0.527209 0
M  V30 11584 C 1095.44 -1.01628 -1.58283 0
M  V30 11585 O 1094.8 0.00946934 -1.81298 0
M  V30 11586 C 1094.85 -3.42967 -1.11384 0
M  V30 11587 O 1093.95 -3.46973 -2.22898 0
M  V30 11588 H 1093.3 -0.651155 -0.129976 0
M  V30 11589 H 1095.83 -2.03296 0.230667 0
M  V30 11590 H 1095.84 -3.81555 -1.44499 0
M  V30 11591 H 1094.51 -4.14502 -0.340736 0
M  V30 11592 H 1093.09 -3.20219 -1.91087 0
M  V30 11593 N 1095.27 0.136881 -1.57004 0
M  V30 11594 C 1096.22 1.17411 -1.95445 0
M  V30 11595 C 1097.21 1.38019 -0.827015 0
M  V30 11596 O 1098.4 1.39412 -1.09057 0
M  V30 11597 C 1095.53 2.50525 -2.34717 0
M  V30 11598 C 1094.61 2.33467 -3.54054 0
M  V30 11599 N 1095 1.86184 -4.70286 0
M  V30 11600 C 1093.3 2.64185 -3.59336 0
M  V30 11601 C 1094 1.82411 -5.5236 0
M  V30 11602 N 1092.98 2.26098 -4.94349 0
M  V30 11603 H 1096.78 0.8008 -2.8278 0
M  V30 11604 H 1094.3 0.344831 -1.58697 0
M  V30 11605 H 1096.29 3.2552 -2.60465 0
M  V30 11606 H 1094.95 2.8863 -1.48738 0
M  V30 11607 H 1095.96 1.55998 -4.93847 0
M  V30 11608 H 1092.64 3.06096 -2.83922 0
M  V30 11609 H 1094.03 1.4726 -6.55564 0
M  V30 11610 N 1096.75 1.52266 0.40654 0
M  V30 11611 C 1097.68 1.72025 1.51459 0
M  V30 11612 C 1098.7 0.600667 1.51314 0
M  V30 11613 O 1099.88 0.875894 1.55532 0
M  V30 11614 C 1096.98 1.7479 2.90348 0
M  V30 11615 C 1096.16 3.03826 3.14656 0
M  V30 11616 C 1095.22 2.98369 4.33431 0
M  V30 11617 O 1094.24 3.7227 4.30586 0
M  V30 11618 N 1095.44 2.16338 5.38682 0
M  V30 11619 H 1098.21 2.67622 1.34903 0
M  V30 11620 H 1095.77 1.50536 0.595867 0
M  V30 11621 H 1097.76 1.68667 3.67877 0
M  V30 11622 H 1096.33 0.86656 3.00349 0
M  V30 11623 H 1095.55 3.23577 2.25148 0
M  V30 11624 H 1096.84 3.89182 3.27742 0
M  V30 11625 H 1096.24 1.55731 5.43842 0
M  V30 11626 H 1094.8 2.1607 6.14945 0
M  V30 11627 N 1098.23 -0.663929 1.42933 0
M  V30 11628 C 1099.45 -1.45691 1.47611 0
M  V30 11629 C 1099.88 -1.87875 0.0920305 0
M  V30 11630 O 1099.24 -1.56696 -0.91192 0
M  V30 11631 C 1099.28 -2.67517 2.41799 0
M  V30 11632 O 1098.39 -3.66187 1.89686 0
M  V30 11633 H 1097.73 -0.437257 0.499702 0
M  V30 11634 H 1100.26 -0.813397 1.87737 0
M  V30 11635 H 1100.27 -3.1546 2.58745 0
M  V30 11636 H 1098.94 -2.36155 3.4235 0
M  V30 11637 H 1097.52 -3.25274 1.82349 0
M  V30 11638 N 1099.71 -1.29285 -0.901281 0
M  V30 11639 C 1100.67 -1.14283 -1.98676 0
M  V30 11640 C 1101.67 -0.0787641 -1.60607 0
M  V30 11641 O 1102.86 -0.325574 -1.71131 0
M  V30 11642 C 1099.99 -0.747279 -3.32609 0
M  V30 11643 H 1101.18 -2.10701 -2.13413 0
M  V30 11644 H 1098.74 -1.12449 -1.08558 0
M  V30 11645 H 1099.47 0.217111 -3.23572 0
M  V30 11646 H 1099.26 -1.51608 -3.61604 0
M  V30 11647 H 1100.75 -0.665322 -4.12266 0
M  V30 11648 N 1101.18 1.11143 -1.11736 0
M  V30 11649 C 1102.43 1.8341 -0.879329 0
M  V30 11650 C 1102.79 1.83174 0.588657 0
M  V30 11651 O 1102.08 1.27609 1.42922 0
M  V30 11652 C 1102.27 3.29733 -1.3788 0
M  V30 11653 C 1102.1 3.44222 -2.89381 0
M  V30 11654 C 1100.87 3.57065 -3.57537 0
M  V30 11655 C 1103.07 3.38246 -3.8742 0
M  V30 11656 N 1101.05 3.60056 -4.97225 0
M  V30 11657 C 1102.42 3.47894 -5.13196 0
M  V30 11658 C 1104.48 3.21797 -3.79935 0
M  V30 11659 C 1103.18 3.4279 -6.32367 0
M  V30 11660 C 1105.21 3.18011 -4.98621 0
M  V30 11661 C 1104.57 3.28234 -6.23251 0
M  V30 11662 H 1100.67 0.686248 -0.374951 0
M  V30 11663 H 1103.25 1.32962 -1.42229 0
M  V30 11664 H 1101.42 3.78691 -0.86298 0
M  V30 11665 H 1103.15 3.89924 -1.08359 0
M  V30 11666 H 1099.91 3.59759 -3.08011 0
M  V30 11667 H 1100.33 3.65181 -5.70063 0
M  V30 11668 H 1104.98 3.12777 -2.84482 0
M  V30 11669 H 1102.69 3.50577 -7.28094 0
M  V30 11670 H 1106.28 3.06446 -4.94552 0
M  V30 11671 H 1105.16 3.25297 -7.13549 0
M  V30 11672 N 1102.66 0.908147 1.28804 0
M  V30 11673 C 1104.07 0.585727 1.77274 0
M  V30 11674 C 1104.42 -0.898842 1.744 0
M  V30 11675 O 1103.55 -1.70301 1.33516 0
M  V30 11676 C 1104.14 1.05647 3.21907 0
M  V30 11677 C 1102.7 0.785066 3.68122 0
M  V30 11678 C 1101.85 1.22638 2.48707 0
M  V30 11679 H 1104.8 1.09 1.15346 0
M  V30 11680 H 1104.82 0.395442 3.7844 0
M  V30 11681 H 1104.33 2.13698 3.23967 0
M  V30 11682 H 1102.44 -0.282477 3.71528 0
M  V30 11683 H 1102.55 1.38888 4.58527 0
M  V30 11684 H 1100.91 0.645217 2.46392 0
M  V30 11685 H 1101.7 2.31512 2.5349 0
M  V30 11686 N 1104.14 -1.42577 0.671525 0
M  V30 11687 C 1105.39 -2.01584 0.192431 0
M  V30 11688 C 1105.72 -1.53076 -1.19992 0
M  V30 11689 O 1104.97 -0.722196 -1.81887 0
M  V30 11690 C 1105.27 -3.56985 0.172097 0
M  V30 11691 C 1104.94 -4.24912 1.50867 0
M  V30 11692 C 1103.6 -4.43182 1.87464 0
M  V30 11693 C 1105.95 -4.6322 2.38908 0
M  V30 11694 C 1103.28 -4.97031 3.11732 0
M  V30 11695 C 1105.63 -5.18447 3.62485 0
M  V30 11696 C 1104.29 -5.34932 3.99255 0
M  V30 11697 H 1103.56 -0.737647 0.0704155 0
M  V30 11698 H 1106.21 -1.70807 0.865862 0
M  V30 11699 H 1104.52 -3.87411 -0.584835 0
M  V30 11700 H 1106.21 -4.00419 -0.215749 0
M  V30 11701 H 1102.8 -4.11048 1.21397 0
M  V30 11702 H 1106.99 -4.4878 2.1192 0
M  V30 11703 H 1102.24 -5.07979 3.40246 0
M  V30 11704 H 1106.42 -5.47075 4.30909 0
M  V30 11705 H 1104.04 -5.76422 4.95623 0
M  V30 11706 N 1105.62 -0.414636 -1.52048 0
M  V30 11707 C 1106.55 0.452854 -2.23662 0
M  V30 11708 C 1107.53 1.04348 -1.24701 0
M  V30 11709 O 1108.71 1.09029 -1.53769 0
M  V30 11710 C 1105.84 1.62908 -2.96949 0
M  V30 11711 C 1104.89 1.16132 -4.10385 0
M  V30 11712 S 1105.72 0.121936 -5.35361 0
M  V30 11713 C 1106.88 1.30336 -6.12179 0
M  V30 11714 H 1107.11 -0.155202 -2.96895 0
M  V30 11715 H 1104.64 -0.198972 -1.53113 0
M  V30 11716 H 1106.6 2.30351 -3.39777 0
M  V30 11717 H 1105.26 2.20849 -2.23348 0
M  V30 11718 H 1104.45 2.04025 -4.60858 0
M  V30 11719 H 1104.06 0.565452 -3.69701 0
M  V30 11720 H 1106.35 2.22596 -6.39889 0
M  V30 11721 H 1107.29 0.839052 -7.03111 0
M  V30 11722 H 1107.7 1.53165 -5.43324 0
M  V30 11723 N 1107.1 1.56929 -0.145233 0
M  V30 11724 C 1108.01 2.20238 0.808219 0
M  V30 11725 C 1109.02 1.18615 1.27304 0
M  V30 11726 O 1110.2 1.51186 1.3306 0
M  V30 11727 C 1107.26 2.81016 2.03055 0
M  V30 11728 C 1106.32 3.97759 1.61512 0
M  V30 11729 C 1105.56 4.55628 2.77918 0
M  V30 11730 O 1105.78 4.12378 3.94082 0
M  V30 11731 O 1104.71 5.45917 2.53492 0
M  V30 11732 H 1108.54 3.02221 0.299314 0
M  V30 11733 H 1106.13 1.49176 0.0817051 0
M  V30 11734 H 1108.01 3.19652 2.74592 0
M  V30 11735 H 1106.68 2.02047 2.52901 0
M  V30 11736 H 1105.59 3.63842 0.870033 0
M  V30 11737 H 1106.92 4.78242 1.16383 0
M  V30 11738 N 1108.58 -0.128553 1.57075 0
M  V30 11739 C 1109.99 -0.686713 1.73612 0
M  V30 11740 C 1110.34 -1.80778 0.762478 0
M  V30 11741 O 1109.46 -2.16297 -0.0667779 0
M  V30 11742 C 1110.06 -1.25246 3.148 0
M  V30 11743 C 1108.62 -1.757 3.32876 0
M  V30 11744 C 1107.76 -0.652844 2.69506 0
M  V30 11745 H 1110.71 0.0972859 1.58402 0
M  V30 11746 H 1110.74 -2.1222 3.15821 0
M  V30 11747 H 1110.25 -0.436308 3.8564 0
M  V30 11748 H 1108.35 -2.59824 2.67063 0
M  V30 11749 H 1108.46 -1.87302 4.4097 0
M  V30 11750 H 1106.83 -1.08408 2.30477 0
M  V30 11751 H 1107.61 0.15217 3.42963 0
M  V30 11752 N 1110.05 -1.5248 -0.398459 0
M  V30 11753 C 1111.3 -1.67309 -1.1461 0
M  V30 11754 C 1111.63 -0.407095 -1.89885 0
M  V30 11755 O 1110.91 0.594834 -1.85181 0
M  V30 11756 C 1111.19 -2.90204 -2.13198 0
M  V30 11757 C 1111.04 -4.26881 -1.4175 0
M  V30 11758 C 1112.36 -3.08634 -3.13741 0
M  V30 11759 H 1109.48 -0.608853 -0.415292 0
M  V30 11760 H 1112.12 -1.85057 -0.430573 0
M  V30 11761 H 1110.27 -2.75204 -2.74218 0
M  V30 11762 H 1111.95 -4.53631 -0.837676 0
M  V30 11763 H 1110.19 -4.27793 -0.719387 0
M  V30 11764 H 1110.86 -5.08939 -2.1374 0
M  V30 11765 H 1113.34 -3.22603 -2.62805 0
M  V30 11766 H 1112.21 -3.96117 -3.79977 0
M  V30 11767 H 1112.47 -2.22425 -3.82073 0
M  V30 11768 N 1111.53 0.65634 -1.43283 0
M  V30 11769 C 1112.48 1.76934 -1.48199 0
M  V30 11770 C 1113.45 1.62748 -0.332023 0
M  V30 11771 O 1114.63 1.83036 -0.538735 0
M  V30 11772 C 1111.77 3.15072 -1.40797 0
M  V30 11773 C 1110.89 3.40414 -2.65974 0
M  V30 11774 C 1110.02 4.68383 -2.50582 0
M  V30 11775 C 1109.06 4.8682 -3.71043 0
M  V30 11776 N 1108.2 6.06043 -3.5448 0
M  V30 11777 H 1113.04 1.72067 -2.43304 0
M  V30 11778 H 1110.57 0.839728 -1.20777 0
M  V30 11779 H 1112.53 3.94925 -1.345 0
M  V30 11780 H 1111.16 3.19017 -0.492754 0
M  V30 11781 H 1110.21 2.54681 -2.82563 0
M  V30 11782 H 1111.53 3.49925 -3.55463 0
M  V30 11783 H 1110.68 5.56357 -2.41975 0
M  V30 11784 H 1109.42 4.61187 -1.58612 0
M  V30 11785 H 1108.42 3.97282 -3.80062 0
M  V30 11786 H 1109.65 4.95847 -4.64017 0
M  V30 11787 H 1107.6 5.99985 -2.65242 0
M  V30 11788 H 1107.51 6.16498 -4.37568 0
M  V30 11789 H 1108.78 6.96647 -3.49719 0
M  V30 11790 N 1113.01 1.29761 0.894412 0
M  V30 11791 C 1114.43 1.07888 1.17611 0
M  V30 11792 C 1114.63 -0.16644 2.00811 0
M  V30 11793 O 1113.68 -0.86272 2.37304 0
M  V30 11794 C 1114.99 2.33723 1.89193 0
M  V30 11795 C 1116.54 2.39095 2.01997 0
M  V30 11796 C 1117.02 3.64747 2.7699 0
M  V30 11797 N 1118.51 3.65501 2.84541 0
M  V30 11798 C 1119.24 4.59411 3.43117 0
M  V30 11799 N 1118.74 5.63657 4.02818 0
M  V30 11800 N 1120.53 4.46971 3.40842 0
M  V30 11801 H 1112.68 2.0967 0.339421 0
M  V30 11802 H 1114.95 0.923788 0.212882 0
M  V30 11803 H 1114.65 3.24551 1.35496 0
M  V30 11804 H 1114.53 2.41642 2.89636 0
M  V30 11805 H 1116.91 1.48751 2.54867 0
M  V30 11806 H 1116.99 2.35158 1.0067 0
M  V30 11807 H 1116.64 4.55445 2.24794 0
M  V30 11808 H 1116.57 3.65944 3.78672 0
M  V30 11809 H 1119.06 2.90129 2.42144 0
M  V30 11810 H 1119.37 6.31429 4.45552 0
M  V30 11811 H 1117.72 5.67461 4.01265 0
M  V30 11812 H 1120.91 3.64719 2.93424 0
M  V30 11813 H 1121.08 5.20341 3.86198 0
M  V30 11814 N 1114.49 -1.10549 1.12324 0
M  V30 11815 C 1115.72 -1.8627 0.900618 0
M  V30 11816 C 1116.13 -1.80609 -0.550069 0
M  V30 11817 O 1115.49 -1.19396 -1.38025 0
M  V30 11818 C 1115.54 -3.34716 1.36556 0
M  V30 11819 O 1115.26 -3.40279 2.75938 0
M  V30 11820 C 1116.76 -4.27315 1.17969 0
M  V30 11821 H 1113.98 -0.588741 0.321908 0
M  V30 11822 H 1116.52 -1.39759 1.49291 0
M  V30 11823 H 1114.68 -3.78697 0.81652 0
M  V30 11824 H 1115.09 -4.32781 2.96312 0
M  V30 11825 H 1116.57 -5.29677 1.55391 0
M  V30 11826 H 1117.04 -4.39036 0.120158 0
M  V30 11827 H 1117.65 -3.89137 1.71617 0
M  V30 11828 N 1115.97 -0.914965 -1.28321 0
M  V30 11829 C 1116.88 -0.409424 -2.31 0
M  V30 11830 C 1117.89 0.503526 -1.66555 0
M  V30 11831 O 1119.07 0.38942 -1.97599 0
M  V30 11832 C 1116.13 0.34123 -3.45017 0
M  V30 11833 C 1115.19 -0.605087 -4.25014 0
M  V30 11834 C 1114.43 0.109837 -5.33587 0
M  V30 11835 O 1114.65 1.33136 -5.54645 0
M  V30 11836 O 1113.58 -0.555474 -5.99331 0
M  V30 11837 H 1117.41 -1.26167 -2.76253 0
M  V30 11838 H 1114.99 -0.679831 -1.33036 0
M  V30 11839 H 1116.88 0.765132 -4.14396 0
M  V30 11840 H 1115.55 1.16929 -3.01843 0
M  V30 11841 H 1114.46 -1.07841 -3.58219 0
M  V30 11842 H 1115.79 -1.39999 -4.7187 0
M  V30 11843 N 1117.44 1.42219 -0.679077 0
M  V30 11844 C 1118.41 2.29197 -0.0125475 0
M  V30 11845 C 1119.41 1.43544 0.724691 0
M  V30 11846 O 1120.6 1.64884 0.562052 0
M  V30 11847 C 1117.73 3.26122 0.992846 0
M  V30 11848 H 1118.92 2.89629 -0.778154 0
M  V30 11849 H 1116.47 1.4993 -0.44166 0
M  V30 11850 H 1117.21 2.70637 1.78679 0
M  V30 11851 H 1116.99 3.89302 0.467544 0
M  V30 11852 H 1118.48 3.91339 1.45751 0
M  V30 11853 N 1118.92 0.422693 1.51826 0
M  V30 11854 C 1120.33 -0.0438129 1.86649 0
M  V30 11855 C 1120.68 -1.43246 1.34071 0
M  V30 11856 O 1119.81 -2.05256 0.685501 0
M  V30 11857 C 1120.4 -0.0862802 3.3869 0
M  V30 11858 C 1118.96 -0.497157 3.73102 0
M  V30 11859 C 1118.11 0.319655 2.75451 0
M  V30 11860 H 1121.06 0.639181 1.45259 0
M  V30 11861 H 1121.08 -0.8988 3.69732 0
M  V30 11862 H 1120.59 0.924525 3.76927 0
M  V30 11863 H 1118.69 -1.51411 3.40449 0
M  V30 11864 H 1118.81 -0.232125 4.78537 0
M  V30 11865 H 1117.17 -0.219963 2.53748 0
M  V30 11866 H 1117.95 1.32906 3.16529 0
M  V30 11867 N 1120.4 -1.5685 0.153553 0
M  V30 11868 C 1121.65 -1.95946 -0.494936 0
M  V30 11869 C 1121.97 -1.03975 -1.64967 0
M  V30 11870 O 1121.24 -0.102572 -1.95631 0
M  V30 11871 H 1119.82 -0.723516 -0.185833 0
M  V30 11872 H 1122.48 -1.93531 0.230585 0
M  V30 11873 H 1121.58 -2.99823 -0.866743 0
M  V30 11874 N 1121.88 0.120221 -1.57141 0
M  V30 11875 C 1123.11 0.841219 -1.88698 0
M  V30 11876 C 1123.52 1.7401 -0.74277 0
M  V30 11877 O 1122.86 1.81308 0.295497 0
M  V30 11878 C 1122.92 1.72781 -3.15257 0
M  V30 11879 C 1122.58 1.00336 -4.45849 0
M  V30 11880 C 1123.58 0.344734 -5.18756 0
M  V30 11881 C 1121.27 0.984899 -4.9255 0
M  V30 11882 C 1123.26 -0.322664 -6.36583 0
M  V30 11883 C 1120.95 0.313702 -6.10294 0
M  V30 11884 C 1121.95 -0.338926 -6.82159 0
M  V30 11885 O 1121.63 -0.999416 -7.97663 0
M  V30 11886 H 1121.37 0.247195 -0.629182 0
M  V30 11887 H 1123.92 0.109542 -2.05108 0
M  V30 11888 H 1122.15 2.5011 -2.94927 0
M  V30 11889 H 1123.84 2.32313 -3.32845 0
M  V30 11890 H 1124.6 0.350623 -4.83731 0
M  V30 11891 H 1120.48 1.4823 -4.36519 0
M  V30 11892 H 1124.03 -0.832643 -6.92613 0
M  V30 11893 H 1119.92 0.305572 -6.44776 0
M  V30 11894 H 1120.69 -0.90377 -8.13495 0
M  V30 11895 N 1123.36 1.52689 0.390367 0
M  V30 11896 C 1124.59 1.71292 1.1551 0
M  V30 11897 C 1124.99 0.430405 1.84239 0
M  V30 11898 O 1124.34 -0.604823 1.73458 0
M  V30 11899 C 1124.4 2.80597 2.24735 0
M  V30 11900 C 1124.06 4.21757 1.75984 0
M  V30 11901 C 1125.06 5.04961 1.23733 0
M  V30 11902 C 1122.75 4.68071 1.82248 0
M  V30 11903 C 1124.74 6.32561 0.783926 0
M  V30 11904 C 1122.43 5.95656 1.36519 0
M  V30 11905 C 1123.42 6.7773 0.846786 0
M  V30 11906 O 1123.11 8.02923 0.396164 0
M  V30 11907 H 1122.84 0.576906 0.352356 0
M  V30 11908 H 1125.4 2.00117 0.462865 0
M  V30 11909 H 1123.63 2.4719 2.97378 0
M  V30 11910 H 1125.32 2.87616 2.86412 0
M  V30 11911 H 1126.08 4.70363 1.18251 0
M  V30 11912 H 1121.96 4.04278 2.21541 0
M  V30 11913 H 1125.51 6.96572 0.378612 0
M  V30 11914 H 1121.4 6.29758 1.41686 0
M  V30 11915 H 1122.17 8.16861 0.517766 0
M  V30 11916 N 1124.83 -0.648732 1.43629 0
M  V30 11917 C 1125.74 -1.79046 1.51591 0
M  V30 11918 C 1126.76 -1.69276 0.402697 0
M  V30 11919 O 1127.94 -1.90366 0.657484 0
M  V30 11920 C 1125 -3.15347 1.44073 0
M  V30 11921 C 1124.06 -3.3688 2.66102 0
M  V30 11922 C 1123.3 -4.66679 2.58933 0
M  V30 11923 O 1123.52 -5.46328 1.63956 0
M  V30 11924 O 1122.45 -4.9003 3.49506 0
M  V30 11925 H 1126.28 -1.75283 2.48011 0
M  V30 11926 H 1123.86 -0.807774 1.2568 0
M  V30 11927 H 1125.75 -3.96633 1.42339 0
M  V30 11928 H 1124.42 -3.19691 0.50789 0
M  V30 11929 H 1123.33 -2.55341 2.73407 0
M  V30 11930 H 1124.66 -3.37386 3.58373 0
M  V30 11931 N 1126.31 -1.30234 -0.887518 0
M  V30 11932 C 1127.56 -1.19086 -1.64153 0
M  V30 11933 C 1127.89 0.254428 -1.92526 0
M  V30 11934 O 1127.17 1.18233 -1.54438 0
M  V30 11935 C 1127.45 -2.01723 -2.98295 0
M  V30 11936 C 1127.3 -3.54458 -2.76911 0
M  V30 11937 C 1128.62 -1.85307 -3.99186 0
M  V30 11938 H 1125.74 -0.433967 -0.595686 0
M  V30 11939 H 1128.38 -1.59839 -1.0272 0
M  V30 11940 H 1126.53 -1.67096 -3.5073 0
M  V30 11941 H 1128.2 -3.99131 -2.31284 0
M  V30 11942 H 1126.45 -3.78768 -2.11464 0
M  V30 11943 H 1127.12 -4.07565 -3.72283 0
M  V30 11944 H 1129.59 -2.15575 -3.55903 0
M  V30 11945 H 1128.47 -2.45456 -4.90961 0
M  V30 11946 H 1128.73 -0.811528 -4.34588 0
M  V30 11947 N 1127.79 1.09952 -1.12909 0
M  V30 11948 C 1129.04 1.81386 -0.882163 0
M  V30 11949 C 1129.35 1.86376 0.593592 0
M  V30 11950 O 1130.56 2.54064 0.957275 0
M  V30 11951 C 1129.01 3.25824 -1.52861 0
M  V30 11952 C 1128.62 3.29117 -3.0395 0
M  V30 11953 C 1130.37 4.02051 -1.36216 0
M  V30 11954 C 1128.27 4.68047 -3.61505 0
M  V30 11955 H 1127.2 0.679701 -0.326378 0
M  V30 11956 H 1129.85 1.23614 -1.35616 0
M  V30 11957 H 1128.24 3.83624 -0.982271 0
M  V30 11958 H 1129.41 2.81114 -3.65119 0
M  V30 11959 H 1127.73 2.66379 -3.20049 0
M  V30 11960 H 1130.32 5.04683 -1.76633 0
M  V30 11961 H 1130.67 4.15171 -0.306391 0
M  V30 11962 H 1131.2 3.5068 -1.87799 0
M  V30 11963 H 1127.94 4.60128 -4.66865 0
M  V30 11964 H 1127.46 5.16397 -3.05114 0
M  V30 11965 H 1129.14 5.37018 -3.6086 0
M  V30 11966 N 1129.27 0.921757 1.27833 0
M  V30 11967 C 1130.68 0.621102 1.47019 0
M  V30 11968 C 1130.88 -0.831338 1.83551 0
M  V30 11969 O 1129.94 -1.60974 1.94534 0
M  V30 11970 C 1131.25 1.56588 2.56712 0
M  V30 11971 C 1132.8 1.57346 2.70576 0
M  V30 11972 C 1133.28 2.50505 3.8342 0
M  V30 11973 N 1134.77 2.48678 3.90786 0
M  V30 11974 C 1135.5 3.17454 4.77505 0
M  V30 11975 N 1135 3.95588 5.68755 0
M  V30 11976 N 1136.79 3.06501 4.71183 0
M  V30 11977 H 1128.94 1.86085 1.02403 0
M  V30 11978 H 1131.21 0.798595 0.510833 0
M  V30 11979 H 1130.91 2.60175 2.36647 0
M  V30 11980 H 1130.79 1.30305 3.53978 0
M  V30 11981 H 1133.17 0.544919 2.90025 0
M  V30 11982 H 1133.25 1.87675 1.73815 0
M  V30 11983 H 1132.9 3.53466 3.64725 0
M  V30 11984 H 1132.83 2.17474 4.79596 0
M  V30 11985 H 1135.32 1.91928 3.25534 0
M  V30 11986 H 1135.63 4.45066 6.31772 0
M  V30 11987 H 1133.98 3.99692 5.6857 0
M  V30 11988 H 1137.17 2.44958 3.9889 0
M  V30 11989 H 1137.34 3.60372 5.3855 0
M  V30 11990 N 1130.75 -1.41857 0.686609 0
M  V30 11991 C 1131.99 -2.01368 0.213801 0
M  V30 11992 C 1132.32 -1.5434 -1.18361 0
M  V30 11993 O 1131.58 -0.741447 -1.81111 0
M  V30 11994 C 1131.88 -3.56783 0.209951 0
M  V30 11995 C 1131.54 -4.23288 1.55365 0
M  V30 11996 C 1130.2 -4.41169 1.92154 0
M  V30 11997 C 1132.56 -4.6066 2.43807 0
M  V30 11998 C 1129.88 -4.93697 3.16986 0
M  V30 11999 C 1132.24 -5.14573 3.67963 0
M  V30 12000 C 1130.9 -5.30667 4.04906 0
M  V30 12001 H 1130.17 -0.736858 0.0782352 0
M  V30 12002 H 1132.82 -1.69879 0.88393 0
M  V30 12003 H 1131.12 -3.88009 -0.543712 0
M  V30 12004 H 1132.82 -4.00625 -0.173267 0
M  V30 12005 H 1129.41 -4.09738 1.2575 0
M  V30 12006 H 1133.59 -4.46507 2.16668 0
M  V30 12007 H 1128.85 -5.04342 3.45615 0
M  V30 12008 H 1133.02 -5.42473 4.36687 0
M  V30 12009 H 1130.65 -5.71133 5.01709 0
M  V30 12010 N 1132.22 -0.430739 -1.51599 0
M  V30 12011 C 1133.64 0.0339139 -1.86669 0
M  V30 12012 C 1133.99 1.42533 -1.34829 0
M  V30 12013 O 1133.11 2.04889 -0.696376 0
M  V30 12014 C 1133.71 0.0683174 -3.38731 0
M  V30 12015 C 1132.27 0.477363 -3.73361 0
M  V30 12016 C 1131.41 -0.334258 -2.75278 0
M  V30 12017 H 1134.36 -0.646875 -1.44918 0
M  V30 12018 H 1134.38 0.879179 -3.70204 0
M  V30 12019 H 1133.9 -0.944501 -3.76432 0
M  V30 12020 H 1132 1.49603 -3.41247 0
M  V30 12021 H 1132.11 0.206744 -4.78654 0
M  V30 12022 H 1130.47 0.206503 -2.53861 0
M  V30 12023 H 1131.26 -1.34583 -3.1582 0
M  V30 12024 N 1133.7 1.56767 -0.161869 0
M  V30 12025 C 1134.64 2.13321 0.810527 0
M  V30 12026 C 1135.61 1.06073 1.23237 0
M  V30 12027 O 1136.8 1.33993 1.32583 0
M  V30 12028 C 1133.92 2.66506 2.09027 0
M  V30 12029 C 1132.97 3.86038 1.8132 0
M  V30 12030 S 1133.8 5.26253 0.990873 0
M  V30 12031 C 1134.96 5.82837 2.28149 0
M  V30 12032 H 1135.19 2.95467 0.32965 0
M  V30 12033 H 1132.73 1.5431 0.052655 0
M  V30 12034 H 1134.68 2.97797 2.82537 0
M  V30 12035 H 1133.34 1.84463 2.54229 0
M  V30 12036 H 1132.54 4.21547 2.7625 0
M  V30 12037 H 1132.14 3.55585 1.1591 0
M  V30 12038 H 1134.43 5.95175 3.23686 0
M  V30 12039 H 1135.37 6.80109 1.97123 0
M  V30 12040 H 1135.78 5.11186 2.39477 0
M  V30 12041 N 1135.18 -0.111886 1.57202 0
M  V30 12042 C 1136.46 -0.849125 1.76208 0
M  V30 12043 C 1136.84 -1.97735 0.73919 0
M  V30 12044 O 1136.19 -2.27283 -0.235523 0
M  V30 12045 C 1136.4 -1.35924 3.21443 0
M  V30 12046 C 1137.74 -1.80874 3.84148 0
M  V30 12047 O 1138.77 -1.45587 3.25089 0
M  V30 12048 O 1137.63 -2.46065 4.87969 0
M  V30 12049 H 1134.72 -0.403761 0.721738 0
M  V30 12050 H 1137.27 -0.0950726 1.69433 0
M  V30 12051 H 1136.04 -0.550113 3.87414 0
M  V30 12052 H 1135.66 -2.17579 3.32784 0
M  V30 12053 N 1136.66 -1.52894 -0.382264 0
M  V30 12054 C 1137.59 -1.81122 -1.47367 0
M  V30 12055 C 1138.57 -0.663653 -1.56619 0
M  V30 12056 O 1139.75 -0.911898 -1.71459 0
M  V30 12057 C 1136.88 -1.98615 -2.84902 0
M  V30 12058 C 1135.84 -3.14328 -2.90485 0
M  V30 12059 C 1135.16 -3.17086 -4.30535 0
M  V30 12060 C 1136.46 -4.53263 -2.59519 0
M  V30 12061 H 1138.16 -2.72518 -1.23993 0
M  V30 12062 H 1135.7 -1.3113 -0.595049 0
M  V30 12063 H 1137.66 -2.16946 -3.61265 0
M  V30 12064 H 1136.38 -1.03915 -3.09628 0
M  V30 12065 H 1135.04 -2.95791 -2.16572 0
M  V30 12066 H 1134.69 -2.20055 -4.52311 0
M  V30 12067 H 1134.39 -3.94821 -4.3519 0
M  V30 12068 H 1135.91 -3.3758 -5.08795 0
M  V30 12069 H 1137.33 -4.71867 -3.25598 0
M  V30 12070 H 1135.72 -5.33115 -2.75514 0
M  V30 12071 H 1136.79 -4.59516 -1.54831 0
M  V30 12072 N 1138.14 0.641106 -1.43971 0
M  V30 12073 C 1139.08 1.75352 -1.50068 0
M  V30 12074 C 1140.05 1.62386 -0.349266 0
M  V30 12075 O 1141.24 1.82455 -0.558118 0
M  V30 12076 C 1138.38 3.13561 -1.4413 0
M  V30 12077 C 1137.49 3.37574 -2.6957 0
M  V30 12078 C 1136.63 4.65698 -2.55535 0
M  V30 12079 C 1135.67 4.82857 -3.76186 0
M  V30 12080 N 1134.8 6.02249 -3.60888 0
M  V30 12081 H 1139.64 1.69477 -2.45116 0
M  V30 12082 H 1137.18 0.826871 -1.2166 0
M  V30 12083 H 1139.14 3.93476 -1.38681 0
M  V30 12084 H 1137.77 3.18476 -0.526563 0
M  V30 12085 H 1136.82 2.5167 -2.85248 0
M  V30 12086 H 1138.13 3.46135 -3.59154 0
M  V30 12087 H 1137.29 5.53759 -2.47862 0
M  V30 12088 H 1136.03 4.59479 -1.63495 0
M  V30 12089 H 1135.03 3.93229 -3.84254 0
M  V30 12090 H 1136.26 4.90898 -4.6925 0
M  V30 12091 H 1134.2 5.97138 -2.71591 0
M  V30 12092 H 1134.12 6.11822 -4.44083 0
M  V30 12093 H 1135.39 6.92898 -3.57088 0
M  V30 12094 N 1139.62 1.30703 0.880598 0
M  V30 12095 C 1140.84 1.22714 1.6658 0
M  V30 12096 C 1141.26 -0.209303 1.87636 0
M  V30 12097 O 1140.62 -1.13771 1.42697 0
M  V30 12098 C 1140.67 1.95659 3.03974 0
M  V30 12099 O 1140.39 3.33695 2.83865 0
M  V30 12100 C 1141.89 1.9438 3.98411 0
M  V30 12101 H 1139.11 0.424478 0.519673 0
M  V30 12102 H 1141.65 1.72402 1.0999 0
M  V30 12103 H 1139.81 1.49758 3.57283 0
M  V30 12104 H 1140.22 3.70697 3.71058 0
M  V30 12105 H 1141.7 2.4995 4.92168 0
M  V30 12106 H 1142.17 0.923767 4.29375 0
M  V30 12107 H 1142.78 2.40112 3.51036 0
M  V30 12108 N 1141.09 -1.09351 1.1349 0
M  V30 12109 C 1142.03 -2.15291 0.756645 0
M  V30 12110 C 1143 -1.60548 -0.257497 0
M  V30 12111 O 1144.19 -1.87912 -0.14882 0
M  V30 12112 C 1141.32 -3.38481 0.121799 0
M  V30 12113 C 1140.36 -4.11949 1.10456 0
M  V30 12114 S 1141.19 -4.6605 2.63738 0
M  V30 12115 C 1142.35 -5.92539 2.01615 0
M  V30 12116 H 1142.58 -2.47044 1.65398 0
M  V30 12117 H 1140.12 -1.21312 0.955129 0
M  V30 12118 H 1142.07 -4.09809 -0.238086 0
M  V30 12119 H 1140.74 -3.04945 -0.752821 0
M  V30 12120 H 1139.93 -5.00317 0.608195 0
M  V30 12121 H 1139.53 -3.46486 1.40795 0
M  V30 12122 H 1141.82 -6.63593 1.36569 0
M  V30 12123 H 1142.77 -6.46856 2.88068 0
M  V30 12124 H 1143.17 -5.45094 1.46741 0
M  V30 12125 N 1142.57 -0.928524 -1.27343 0
M  V30 12126 C 1143.8 -0.58516 -1.98974 0
M  V30 12127 C 1144.22 0.829964 -1.68799 0
M  V30 12128 O 1143.58 1.55705 -0.928738 0
M  V30 12129 C 1143.63 -0.818662 -3.51184 0
M  V30 12130 O 1142.73 0.115355 -4.12239 0
M  V30 12131 H 1142.07 -0.225203 -0.624644 0
M  V30 12132 H 1144.6 -1.248 -1.6213 0
M  V30 12133 H 1144.61 -0.734554 -4.01333 0
M  V30 12134 H 1143.29 -1.8502 -3.72479 0
M  V30 12135 H 1141.86 -0.0187371 -3.72895 0
M  V30 12136 N 1144.05 1.41491 -0.694123 0
M  V30 12137 C 1144.96 2.34583 -0.0283414 0
M  V30 12138 C 1145.98 1.5615 0.767662 0
M  V30 12139 O 1147.15 1.88637 0.705556 0
M  V30 12140 C 1144.22 3.34876 0.897726 0
M  V30 12141 C 1143.28 4.29197 0.0940905 0
M  V30 12142 C 1142.51 5.24699 0.976051 0
M  V30 12143 O 1142.73 5.25613 2.21556 0
M  V30 12144 O 1141.67 6.00387 0.426503 0
M  V30 12145 H 1145.49 2.93092 -0.795656 0
M  V30 12146 H 1143.08 1.4232 -0.45445 0
M  V30 12147 H 1144.96 3.96438 1.4288 0
M  V30 12148 H 1143.64 2.78812 1.64456 0
M  V30 12149 H 1142.54 3.70988 -0.481552 0
M  V30 12150 H 1143.88 4.88355 -0.614045 0
M  V30 12151 N 1145.53 0.438773 1.51369 0
M  V30 12152 C 1146.94 0.0911416 1.5934 0
M  V30 12153 C 1147.14 -1.39962 1.44958 0
M  V30 12154 O 1146.2 -2.16968 1.29155 0
M  V30 12155 C 1147.51 0.612531 2.94395 0
M  V30 12156 C 1149.06 0.573098 3.07709 0
M  V30 12157 C 1149.54 1.07149 4.4529 0
M  V30 12158 N 1151.03 1.02953 4.51614 0
M  V30 12159 C 1151.76 1.38602 5.56397 0
M  V30 12160 N 1151.26 1.81543 6.68591 0
M  V30 12161 N 1153.05 1.30409 5.46763 0
M  V30 12162 H 1145.2 1.40872 1.58962 0
M  V30 12163 H 1147.46 0.580589 0.749414 0
M  V30 12164 H 1147.17 1.65562 3.10294 0
M  V30 12165 H 1147.04 0.0382375 3.77181 0
M  V30 12166 H 1149.43 -0.461006 2.91477 0
M  V30 12167 H 1149.51 1.18381 2.26759 0
M  V30 12168 H 1149.16 2.10406 4.62268 0
M  V30 12169 H 1149.09 0.437297 5.24781 0
M  V30 12170 H 1151.58 0.714208 3.7109 0
M  V30 12171 H 1151.89 2.06977 7.44567 0
M  V30 12172 H 1150.24 1.8547 6.69795 0
M  V30 12173 H 1153.43 0.967272 4.57997 0
M  V30 12174 H 1153.6 1.5852 6.28312 0
M  V30 12175 N 1147.01 -1.56678 0.170181 0
M  V30 12176 C 1147.94 -2.20916 -0.756213 0
M  V30 12177 C 1148.92 -1.16442 -1.23997 0
M  V30 12178 O 1150.1 -1.44867 -1.29333 0
M  V30 12179 C 1147.23 -2.84901 -1.98617 0
M  V30 12180 C 1146.19 -3.95403 -1.63831 0
M  V30 12181 C 1145.51 -4.46432 -2.94282 0
M  V30 12182 C 1146.81 -5.15051 -0.867195 0
M  V30 12183 H 1148.51 -2.98585 -0.220776 0
M  V30 12184 H 1146.05 -1.43619 -0.104748 0
M  V30 12185 H 1148 -3.28514 -2.63926 0
M  V30 12186 H 1146.73 -2.04598 -2.54572 0
M  V30 12187 H 1145.39 -3.52444 -1.00891 0
M  V30 12188 H 1145.04 -3.62923 -3.48276 0
M  V30 12189 H 1144.74 -5.20979 -2.71762 0
M  V30 12190 H 1146.26 -4.92731 -3.60622 0
M  V30 12191 H 1147.67 -5.55363 -1.42285 0
M  V30 12192 H 1146.07 -5.95507 -0.741065 0
M  V30 12193 H 1147.14 -4.84707 0.136693 0
M  V30 12194 N 1148.48 0.103547 -1.57259 0
M  V30 12195 C 1149.43 1.12621 -2.01458 0
M  V30 12196 C 1150.4 1.40282 -0.889391 0
M  V30 12197 O 1151.59 1.51887 -1.15477 0
M  V30 12198 C 1148.73 2.44352 -2.43692 0
M  V30 12199 C 1147.84 2.23495 -3.69695 0
M  V30 12200 C 1146.97 3.48565 -4.00844 0
M  V30 12201 C 1146.01 3.22932 -5.19982 0
M  V30 12202 N 1145.15 4.40246 -5.46926 0
M  V30 12203 H 1149.99 0.742315 -2.88606 0
M  V30 12204 H 1147.53 0.355016 -1.42752 0
M  V30 12205 H 1149.48 3.2122 -2.66221 0
M  V30 12206 H 1148.11 2.80605 -1.59565 0
M  V30 12207 H 1147.17 1.3747 -3.54692 0
M  V30 12208 H 1148.48 2.0054 -4.56711 0
M  V30 12209 H 1147.63 4.33844 -4.24104 0
M  V30 12210 H 1146.37 3.74565 -3.12333 0
M  V30 12211 H 1145.38 2.36045 -4.96551 0
M  V30 12212 H 1146.6 2.98286 -6.10084 0
M  V30 12213 H 1144.55 4.66338 -4.61373 0
M  V30 12214 H 1144.46 4.20452 -6.28296 0
M  V30 12215 H 1145.73 5.26614 -5.74716 0
M  V30 12216 N 1149.96 1.53094 0.37415 0
M  V30 12217 C 1150.91 1.79585 1.47824 0
M  V30 12218 C 1151.9 0.664513 1.55822 0
M  V30 12219 O 1153.11 0.84729 1.58811 0
M  V30 12220 H 1149.48 0.568474 0.492282 0
M  V30 12221 H 1151.46 2.72014 1.22681 0
M  V30 12222 C 1150.2 1.995 2.84772 0
M  V30 12223 H 1149.53 2.85991 2.79373 0
M  V30 12224 H 1150.97 2.22018 3.61226 0
M  V30 12225 C 1149.43 0.771673 3.27943 0
M  V30 12226 O 1149.96 -0.0437737 4.01676 0
M  V30 12227 N 1148.16 0.597547 2.8439 0
M  V30 12228 H 1147.71 1.26227 2.24554 0
M  V30 12229 H 1147.67 -0.219578 3.13632 0
M  V30 12230 N 1151.44 -0.633461 1.44309 0
M  V30 12231 C 1152.86 -0.951379 1.28144 0
M  V30 12232 C 1153.06 -2.00344 0.215512 0
M  V30 12233 O 1152.11 -2.49321 -0.399389 0
M  V30 12234 C 1153.42 -1.41686 2.65227 0
M  V30 12235 C 1154.97 -1.53247 2.72918 0
M  V30 12236 C 1155.45 -2.03179 4.10466 0
M  V30 12237 N 1156.94 -2.10453 4.1263 0
M  V30 12238 C 1157.67 -2.50254 5.15907 0
M  V30 12239 N 1157.17 -2.89209 6.29547 0
M  V30 12240 N 1158.96 -2.50368 5.03262 0
M  V30 12241 H 1151.11 0.0623574 2.12308 0
M  V30 12242 H 1153.38 -0.0347244 0.947364 0
M  V30 12243 H 1153.08 -0.71814 3.4429 0
M  V30 12244 H 1152.96 -2.3883 2.91959 0
M  V30 12245 H 1155.34 -2.22216 1.94176 0
M  V30 12246 H 1155.42 -0.544836 2.4993 0
M  V30 12247 H 1155.07 -1.34806 4.89683 0
M  V30 12248 H 1155 -3.02809 4.3083 0
M  V30 12249 H 1157.49 -1.83042 3.30612 0
M  V30 12250 H 1157.8 -3.18386 7.04166 0
M  V30 12251 H 1156.15 -2.86966 6.32989 0
M  V30 12252 H 1159.34 -2.19324 4.13539 0
M  V30 12253 H 1159.51 -2.81062 5.83873 0
M  V30 12254 N 1152.92 -1.31168 -0.873655 0
M  V30 12255 C 1154.15 -1.23416 -1.65686 0
M  V30 12256 C 1154.56 0.203534 -1.88102 0
M  V30 12257 O 1153.9 1.14476 -1.4367 0
M  V30 12258 C 1153.96 -1.90418 -3.04929 0
M  V30 12259 C 1153.63 -3.39757 -3.05637 0
M  V30 12260 C 1154.62 -4.35565 -2.83865 0
M  V30 12261 C 1152.31 -3.81389 -3.26875 0
M  V30 12262 C 1154.3 -5.70979 -2.83304 0
M  V30 12263 C 1151.99 -5.16918 -3.25943 0
M  V30 12264 C 1152.99 -6.11524 -3.04184 0
M  V30 12265 O 1152.67 -7.44575 -3.0309 0
M  V30 12266 H 1152.41 -0.4278 -0.523415 0
M  V30 12267 H 1154.96 -1.73525 -1.09902 0
M  V30 12268 H 1153.19 -1.34854 -3.62424 0
M  V30 12269 H 1154.88 -1.76631 -3.65453 0
M  V30 12270 H 1155.65 -4.0473 -2.67243 0
M  V30 12271 H 1151.52 -3.08187 -3.42844 0
M  V30 12272 H 1155.07 -6.44796 -2.66239 0
M  V30 12273 H 1150.97 -5.47389 -3.42104 0
M  V30 12274 H 1151.73 -7.53703 -3.19177 0
M  V30 12275 N 1154.4 1.08748 -1.14068 0
M  V30 12276 C 1155.63 1.84546 -0.928789 0
M  V30 12277 C 1156.03 1.81741 0.526007 0
M  V30 12278 O 1155.38 1.2169 1.37613 0
M  V30 12279 C 1155.44 3.33282 -1.34771 0
M  V30 12280 C 1155.1 3.59826 -2.81734 0
M  V30 12281 C 1156.1 3.54964 -3.79864 0
M  V30 12282 C 1153.79 3.87949 -3.19063 0
M  V30 12283 C 1155.78 3.77847 -5.13332 0
M  V30 12284 C 1153.47 4.10487 -4.52707 0
M  V30 12285 C 1154.46 4.05429 -5.49651 0
M  V30 12286 O 1154.15 4.27378 -6.80884 0
M  V30 12287 H 1153.88 0.589555 -0.330758 0
M  V30 12288 H 1156.44 1.38275 -1.51886 0
M  V30 12289 H 1154.67 3.80294 -0.700948 0
M  V30 12290 H 1156.36 3.90508 -1.10718 0
M  V30 12291 H 1157.12 3.33256 -3.52371 0
M  V30 12292 H 1153 3.91007 -2.44201 0
M  V30 12293 H 1156.55 3.73815 -5.88989 0
M  V30 12294 H 1152.44 4.31677 -4.79922 0
M  V30 12295 H 1153.21 4.44802 -6.8709 0
M  V30 12296 N 1155.87 0.935264 1.26849 0
M  V30 12297 C 1157.12 0.580548 1.94313 0
M  V30 12298 C 1157.45 -0.877205 1.73259 0
M  V30 12299 O 1156.73 -1.62679 1.06611 0
M  V30 12300 C 1157.01 0.916445 3.48243 0
M  V30 12301 C 1156.86 2.42851 3.78607 0
M  V30 12302 C 1158.18 0.427665 4.38017 0
M  V30 12303 H 1155.3 0.21239 0.705733 0
M  V30 12304 H 1157.94 1.16841 1.49827 0
M  V30 12305 H 1156.09 0.416169 3.86265 0
M  V30 12306 H 1157.77 3.00106 3.50335 0
M  V30 12307 H 1156.01 2.8745 3.24892 0
M  V30 12308 H 1156.68 2.61405 4.8618 0
M  V30 12309 H 1159.16 0.856525 4.07189 0
M  V30 12310 H 1158.03 0.691571 5.44526 0
M  V30 12311 H 1158.29 -0.672344 4.36958 0
M  V30 12312 N 1157.35 -1.41121 0.701616 0
M  V30 12313 C 1158.58 -2.05973 0.242896 0
M  V30 12314 C 1159 -1.52474 -1.10151 0
M  V30 12315 O 1158.36 -0.654224 -1.69085 0
M  V30 12316 C 1158.41 -3.59943 0.217614 0
M  V30 12317 O 1157.51 -4.04454 -0.805629 0
M  V30 12318 H 1156.85 -0.653581 0.117166 0
M  V30 12319 H 1159.38 -1.80777 0.958175 0
M  V30 12320 H 1159.39 -4.07969 0.0505267 0
M  V30 12321 H 1158.07 -3.98249 1.19877 0
M  V30 12322 H 1156.65 -3.6792 -0.607404 0
M  V30 12323 N 1158.83 -0.446794 -1.51134 0
M  V30 12324 C 1159.78 0.359865 -2.27977 0
M  V30 12325 C 1160.75 1.0086 -1.31972 0
M  V30 12326 O 1161.93 1.02569 -1.60886 0
M  V30 12327 C 1159.07 1.44978 -3.1317 0
M  V30 12328 C 1158.19 0.818243 -4.2418 0
M  V30 12329 C 1157.32 1.884 -4.96668 0
M  V30 12330 C 1156.36 1.2314 -5.99586 0
M  V30 12331 N 1155.5 2.23894 -6.65444 0
M  V30 12332 H 1160.34 -0.301775 -2.96468 0
M  V30 12333 H 1157.87 -0.160666 -1.4622 0
M  V30 12334 H 1159.83 2.09308 -3.60896 0
M  V30 12335 H 1158.46 2.08092 -2.46775 0
M  V30 12336 H 1157.51 0.0629889 -3.80348 0
M  V30 12337 H 1158.83 0.301885 -4.97886 0
M  V30 12338 H 1157.98 2.6037 -5.4799 0
M  V30 12339 H 1156.72 2.43411 -4.22614 0
M  V30 12340 H 1155.72 0.497215 -5.47547 0
M  V30 12341 H 1156.95 0.688505 -6.75601 0
M  V30 12342 H 1154.89 2.77967 -5.94197 0
M  V30 12343 H 1154.81 1.77176 -7.34945 0
M  V30 12344 H 1156.08 2.95318 -7.21393 0
M  V30 12345 N 1160.31 1.56586 -0.178487 0
M  V30 12346 C 1161.26 2.18309 0.74899 0
M  V30 12347 C 1162.23 1.12525 1.22178 0
M  V30 12348 O 1163.41 1.40706 1.28866 0
M  V30 12349 C 1160.55 2.83353 1.9699 0
M  V30 12350 C 1159.66 4.03618 1.54002 0
M  V30 12351 C 1158.8 4.56567 2.71514 0
M  V30 12352 C 1157.84 5.69226 2.25051 0
M  V30 12353 N 1156.97 6.16654 3.35682 0
M  V30 12354 H 1161.81 2.97217 0.21587 0
M  V30 12355 H 1159.35 1.46794 0.0948182 0
M  V30 12356 H 1161.31 3.19226 2.68609 0
M  V30 12357 H 1159.94 2.07037 2.4766 0
M  V30 12358 H 1158.99 3.73518 0.720298 0
M  V30 12359 H 1160.3 4.85148 1.15901 0
M  V30 12360 H 1159.46 4.94659 3.5128 0
M  V30 12361 H 1158.2 3.7411 3.12879 0
M  V30 12362 H 1157.2 5.30679 1.43734 0
M  V30 12363 H 1158.43 6.5349 1.84736 0
M  V30 12364 H 1156.37 5.37124 3.76609 0
M  V30 12365 H 1156.29 6.93192 3.01697 0
M  V30 12366 H 1157.56 6.59397 4.15711 0
M  V30 12367 N 1161.79 -0.095206 1.57312 0
M  V30 12368 C 1162.72 -1.11627 2.05089 0
M  V30 12369 C 1163.7 -1.41782 0.939787 0
M  V30 12370 O 1164.88 -1.51813 1.21105 0
M  V30 12371 C 1162.01 -2.43618 2.47523 0
M  V30 12372 C 1160.97 -2.27872 3.62296 0
M  V30 12373 C 1160.29 -3.65038 3.90706 0
M  V30 12374 C 1161.59 -1.71936 4.93189 0
M  V30 12375 H 1163.29 -0.718795 2.90644 0
M  V30 12376 H 1160.83 -0.344315 1.39823 0
M  V30 12377 H 1162.79 -3.1532 2.79556 0
M  V30 12378 H 1161.51 -2.85301 1.58968 0
M  V30 12379 H 1160.17 -1.58615 3.3051 0
M  V30 12380 H 1159.82 -4.04249 2.99319 0
M  V30 12381 H 1159.52 -3.55349 4.67976 0
M  V30 12382 H 1161.04 -4.38208 4.25213 0
M  V30 12383 H 1162.45 -2.33479 5.23603 0
M  V30 12384 H 1160.85 -1.73006 5.74621 0
M  V30 12385 H 1161.92 -0.678789 4.80125 0
M  V30 12386 N 1163.26 -1.53291 -0.366026 0
M  V30 12387 C 1164.51 -1.69451 -1.10872 0
M  V30 12388 C 1164.84 -0.446078 -1.89316 0
M  V30 12389 O 1164.09 0.571962 -1.87155 0
M  V30 12390 C 1164.39 -2.89547 -2.09517 0
M  V30 12391 C 1164.06 -4.26073 -1.47556 0
M  V30 12392 C 1162.72 -4.63199 -1.30386 0
M  V30 12393 C 1165.07 -5.10977 -1.02724 0
M  V30 12394 C 1162.4 -5.82866 -0.669666 0
M  V30 12395 C 1164.75 -6.31289 -0.407052 0
M  V30 12396 C 1163.42 -6.67128 -0.222839 0
M  V30 12397 H 1162.69 -0.620066 -0.405708 0
M  V30 12398 H 1165.33 -1.87475 -0.390563 0
M  V30 12399 H 1163.64 -2.66034 -2.87634 0
M  V30 12400 H 1165.34 -2.99245 -2.66933 0
M  V30 12401 H 1161.93 -3.9684 -1.61914 0
M  V30 12402 H 1166.11 -4.82844 -1.14783 0
M  V30 12403 H 1161.37 -6.09224 -0.515351 0
M  V30 12404 H 1165.54 -6.96381 -0.0514661 0
M  V30 12405 H 1163.17 -7.59718 0.270647 0
M  V30 12406 N 1164.74 0.6258 -1.44643 0
M  V30 12407 C 1165.68 1.75056 -1.46392 0
M  V30 12408 C 1166.65 1.59376 -0.322179 0
M  V30 12409 O 1167.84 1.81187 -0.519956 0
M  V30 12410 C 1164.96 3.12689 -1.30166 0
M  V30 12411 C 1164.01 3.47005 -2.47972 0
M  V30 12412 S 1164.84 3.43885 -4.10491 0
M  V30 12413 C 1166 4.84129 -3.96698 0
M  V30 12414 H 1166.23 1.73306 -2.41562 0
M  V30 12415 H 1163.77 0.800879 -1.32005 0
M  V30 12416 H 1165.72 3.9211 -1.21492 0
M  V30 12417 H 1164.38 3.11972 -0.364982 0
M  V30 12418 H 1163.58 4.47171 -2.32496 0
M  V30 12419 H 1163.18 2.75059 -2.53414 0
M  V30 12420 H 1165.47 5.73488 -3.60718 0
M  V30 12421 H 1166.41 5.0466 -4.96713 0
M  V30 12422 H 1166.82 4.58954 -3.28666 0
M  V30 12423 N 1166.22 1.31629 0.866686 0
M  V30 12424 C 1167.18 1.1951 1.95576 0
M  V30 12425 C 1168.18 0.121319 1.60342 0
M  V30 12426 O 1169.37 0.370832 1.70207 0
M  V30 12427 C 1166.51 0.835201 3.30511 0
M  V30 12428 H 1167.7 2.16285 2.07752 0
M  V30 12429 H 1165.25 1.15288 1.05539 0
M  V30 12430 H 1165.99 -0.131245 3.24034 0
M  V30 12431 H 1165.77 1.61142 3.57457 0
M  V30 12432 H 1167.26 0.774393 4.10357 0
M  V30 12433 N 1167.7 -1.08142 1.14644 0
M  V30 12434 C 1168.98 -1.77254 0.827071 0
M  V30 12435 C 1169.36 -1.99885 -0.67891 0
M  V30 12436 O 1168.7 -1.61084 -1.62062 0
M  V30 12437 C 1168.91 -3.08658 1.62884 0
M  V30 12438 C 1170.26 -3.83143 1.82993 0
M  V30 12439 O 1171.29 -3.18447 1.59593 0
M  V30 12440 O 1170.15 -4.9932 2.2213 0
M  V30 12441 H 1167.24 -0.769356 0.30335 0
M  V30 12442 H 1169.79 -1.1458 1.25178 0
M  V30 12443 H 1168.56 -2.87753 2.65168 0
M  V30 12444 H 1168.18 -3.79061 1.19994 0
M  V30 12445 N 1169.18 -0.941978 -1.26351 0
M  V30 12446 C 1170.11 -0.469913 -2.28723 0
M  V30 12447 C 1171.09 0.477218 -1.63269 0
M  V30 12448 O 1172.27 0.378902 -1.90468 0
M  V30 12449 C 1169.4 0.264971 -3.46288 0
M  V30 12450 C 1168.36 -0.595682 -4.23834 0
M  V30 12451 C 1167.68 0.269208 -5.34022 0
M  V30 12452 C 1168.98 -1.86743 -4.87775 0
M  V30 12453 H 1170.68 -1.32551 -2.6846 0
M  V30 12454 H 1168.22 -0.638809 -1.29055 0
M  V30 12455 H 1170.18 0.606259 -4.17016 0
M  V30 12456 H 1168.9 1.15471 -3.05506 0
M  V30 12457 H 1167.56 -0.919875 -3.54872 0
M  V30 12458 H 1167.21 1.15832 -4.89481 0
M  V30 12459 H 1166.91 -0.30325 -5.86817 0
M  V30 12460 H 1168.43 0.605748 -6.07588 0
M  V30 12461 H 1169.85 -1.59333 -5.50714 0
M  V30 12462 H 1168.24 -2.38452 -5.50691 0
M  V30 12463 H 1169.31 -2.57831 -4.10671 0
M  V30 12464 N 1170.66 1.40747 -0.709091 0
M  V30 12465 C 1171.59 2.29196 -0.0130359 0
M  V30 12466 C 1172.6 1.45491 0.730487 0
M  V30 12467 O 1173.79 1.6885 0.578944 0
M  V30 12468 C 1170.89 3.23632 1.00577 0
M  V30 12469 C 1170.06 4.3616 0.329105 0
M  V30 12470 C 1169.12 5.11079 1.25239 0
M  V30 12471 O 1168.15 5.64374 0.739641 0
M  V30 12472 N 1169.35 5.1982 2.58394 0
M  V30 12473 H 1172.11 2.89574 -0.772462 0
M  V30 12474 H 1169.68 1.52046 -0.556197 0
M  V30 12475 H 1171.67 3.70622 1.62546 0
M  V30 12476 H 1170.24 2.64467 1.66661 0
M  V30 12477 H 1169.46 3.9138 -0.470683 0
M  V30 12478 H 1170.75 5.08605 -0.140856 0
M  V30 12479 H 1170.14 4.77992 3.02556 0
M  V30 12480 H 1168.7 5.7034 3.15524 0
M  V30 12481 N 1172.13 0.454803 1.50895 0
M  V30 12482 C 1173.55 0.108037 1.59234 0
M  V30 12483 C 1173.75 -1.38416 1.46435 0
M  V30 12484 O 1172.81 -2.15586 1.31449 0
M  V30 12485 C 1174.12 0.643721 2.93729 0
M  V30 12486 C 1175.67 0.605703 3.07083 0
M  V30 12487 C 1176.14 1.11865 4.44128 0
M  V30 12488 N 1177.63 1.07738 4.50496 0
M  V30 12489 C 1178.37 1.44495 5.54895 0
M  V30 12490 N 1177.86 1.88624 6.66628 0
M  V30 12491 N 1179.66 1.36201 5.45349 0
M  V30 12492 H 1171.81 1.4255 1.57459 0
M  V30 12493 H 1174.07 0.588504 0.743214 0
M  V30 12494 H 1173.78 1.68844 3.0852 0
M  V30 12495 H 1173.65 0.0782404 3.77119 0
M  V30 12496 H 1176.04 -0.430065 2.91949 0
M  V30 12497 H 1176.12 1.2078 2.2549 0
M  V30 12498 H 1175.76 2.15297 4.6001 0
M  V30 12499 H 1175.69 0.492933 5.24288 0
M  V30 12500 H 1178.18 0.753526 3.70311 0
M  V30 12501 H 1178.5 2.14863 7.4233 0
M  V30 12502 H 1176.84 1.92564 6.6779 0
M  V30 12503 H 1180.03 1.01579 4.56946 0
M  V30 12504 H 1180.21 1.65175 6.26595 0
M  V30 12505 N 1173.61 -1.56489 0.186789 0
M  V30 12506 C 1174.86 -1.97634 -0.454831 0
M  V30 12507 C 1175.19 -1.07334 -1.61843 0
M  V30 12508 O 1174.47 -0.123612 -1.94107 0
M  V30 12509 C 1174.75 -3.48071 -0.922962 0
M  V30 12510 C 1174.6 -4.49149 0.241877 0
M  V30 12511 C 1175.92 -4.01994 -1.79134 0
M  V30 12512 H 1173.04 -0.718555 -0.163854 0
M  V30 12513 H 1175.68 -1.87984 0.27604 0
M  V30 12514 H 1173.83 -3.56425 -1.54575 0
M  V30 12515 H 1175.5 -4.52841 0.87936 0
M  V30 12516 H 1173.75 -4.24468 0.894964 0
M  V30 12517 H 1174.42 -5.51851 -0.128051 0
M  V30 12518 H 1176.89 -3.96367 -1.26618 0
M  V30 12519 H 1175.77 -5.07641 -2.08787 0
M  V30 12520 H 1176.03 -3.46747 -2.74261 0
M  V30 12521 N 1175.09 0.086862 -1.5736 0
M  V30 12522 C 1176.34 0.78884 -1.86504 0
M  V30 12523 C 1176.66 1.78329 -0.77646 0
M  V30 12524 O 1175.92 1.94354 0.229122 0
M  V30 12525 C 1176.22 1.54537 -3.22263 0
M  V30 12526 C 1175.88 0.692284 -4.45554 0
M  V30 12527 C 1174.55 0.45714 -4.79024 0
M  V30 12528 C 1176.9 0.0997695 -5.21105 0
M  V30 12529 C 1174.23 -0.380247 -5.85466 0
M  V30 12530 C 1176.58 -0.724986 -6.28432 0
M  V30 12531 C 1175.24 -0.970144 -6.60412 0
M  V30 12532 H 1174.51 0.288657 -0.682465 0
M  V30 12533 H 1177.16 0.050059 -1.91435 0
M  V30 12534 H 1175.46 2.35594 -3.13053 0
M  V30 12535 H 1177.16 2.09305 -3.42042 0
M  V30 12536 H 1173.75 0.885675 -4.19349 0
M  V30 12537 H 1177.94 0.268583 -4.95573 0
M  V30 12538 H 1173.19 -0.579084 -6.08651 0
M  V30 12539 H 1177.37 -1.19093 -6.86141 0
M  V30 12540 H 1174.99 -1.6208 -7.42721 0
M  V30 12541 N 1176.57 1.53483 0.357892 0
M  V30 12542 C 1177.8 1.73956 1.12013 0
M  V30 12543 C 1178.21 0.472053 1.82803 0
M  V30 12544 O 1177.57 -0.555499 1.7384 0
M  V30 12545 C 1177.62 2.91015 2.14459 0
M  V30 12546 O 1177.34 4.12862 1.4655 0
M  V30 12547 C 1178.84 3.23423 3.0317 0
M  V30 12548 H 1176.06 0.58161 0.334621 0
M  V30 12549 H 1178.6 2.00256 0.414467 0
M  V30 12550 H 1176.76 2.67087 2.80612 0
M  V30 12551 H 1177.17 4.78468 2.14869 0
M  V30 12552 H 1178.65 4.08717 3.71018 0
M  V30 12553 H 1179.12 2.39114 3.68404 0
M  V30 12554 H 1179.73 3.49305 2.42624 0
M  V30 12555 N 1178.05 -0.61812 1.44973 0
M  V30 12556 C 1178.99 -1.75059 1.53157 0
M  V30 12557 C 1179.99 -1.64554 0.402282 0
M  V30 12558 O 1181.19 -1.70475 0.577767 0
M  V30 12559 H 1177.57 -0.57817 0.480856 0
M  V30 12560 H 1179.54 -1.65281 2.48445 0
M  V30 12561 C 1178.29 -3.13423 1.50538 0
M  V30 12562 H 1177.61 -3.2216 2.36755 0
M  V30 12563 H 1179.05 -3.92521 1.60323 0
M  V30 12564 C 1177.51 -3.36127 0.228127 0
M  V30 12565 O 1178.04 -3.95618 -0.696364 0
M  V30 12566 N 1176.25 -2.90322 0.127142 0
M  V30 12567 H 1175.79 -2.42091 0.880317 0
M  V30 12568 H 1175.75 -3.05887 -0.726659 0
M  V30 12569 N 1179.52 -1.32087 -0.859693 0
M  V30 12570 C 1180.76 -1.23671 -1.62742 0
M  V30 12571 C 1181.13 0.19966 -1.90959 0
M  V30 12572 O 1182.33 0.407478 -2.65694 0
M  V30 12573 C 1180.6 -2.06736 -2.91539 0
M  V30 12574 S 1182.16 -2.15292 -3.82354 0
M  V30 12575 H 1178.98 -0.440306 -0.558258 0
M  V30 12576 H 1181.58 -1.66875 -1.01848 0
M  V30 12577 H 1180.28 -3.10166 -2.68747 0
M  V30 12578 H 1179.81 -1.64291 -3.57452 0
M  V30 12579 H 1181.83 -1.29874 -4.78902 0
M  V30 12580 N 1181 1.07532 -1.15215 0
M  V30 12581 C 1181.95 2.14687 -0.847243 0
M  V30 12582 C 1182.92 1.64903 0.199043 0
M  V30 12583 O 1184.1 1.90682 0.0669986 0
M  V30 12584 C 1181.24 3.43414 -0.340673 0
M  V30 12585 C 1180.36 4.06999 -1.44831 0
M  V30 12586 C 1179.49 5.23554 -0.898059 0
M  V30 12587 C 1178.53 5.79097 -1.98276 0
M  V30 12588 N 1177.67 6.86985 -1.44902 0
M  V30 12589 H 1182.51 2.4011 -1.76498 0
M  V30 12590 H 1180.04 1.17823 -0.880689 0
M  V30 12591 H 1182 4.1719 -0.0286956 0
M  V30 12592 H 1180.63 3.18249 0.540144 0
M  V30 12593 H 1179.68 3.30895 -1.87651 0
M  V30 12594 H 1181 4.44289 -2.26735 0
M  V30 12595 H 1180.15 6.04305 -0.538514 0
M  V30 12596 H 1178.89 4.87676 -0.0481752 0
M  V30 12597 H 1177.89 4.96992 -2.35115 0
M  V30 12598 H 1179.12 6.1703 -2.83639 0
M  V30 12599 H 1177.07 6.5305 -0.621468 0
M  V30 12600 H 1176.98 7.23149 -2.20434 0
M  V30 12601 H 1178.25 7.71446 -1.11767 0
M  V30 12602 N 1182.48 0.948665 1.2585 0
M  V30 12603 C 1183.39 0.470525 2.29833 0
M  V30 12604 C 1184.41 -0.45919 1.67832 0
M  V30 12605 O 1185.58 -0.336893 1.98562 0
M  V30 12606 C 1182.65 -0.249635 3.458 0
M  V30 12607 C 1181.71 0.717559 4.23261 0
M  V30 12608 C 1180.94 0.0316724 5.33691 0
M  V30 12609 O 1181.16 -1.18384 5.5798 0
M  V30 12610 O 1180.1 0.71418 5.97648 0
M  V30 12611 H 1183.92 1.33447 2.72811 0
M  V30 12612 H 1181.51 0.714864 1.31187 0
M  V30 12613 H 1183.39 -0.654993 4.16279 0
M  V30 12614 H 1182.07 -1.08885 3.04837 0
M  V30 12615 H 1180.97 1.17301 3.55234 0
M  V30 12616 H 1182.31 1.52461 4.67992 0
M  V30 12617 N 1183.96 -1.40369 0.716545 0
M  V30 12618 C 1185.19 -2.04884 0.265757 0
M  V30 12619 C 1185.6 -1.54095 -1.09779 0
M  V30 12620 O 1184.94 -0.692944 -1.70129 0
M  V30 12621 C 1185 -3.59103 0.16887 0
M  V30 12622 C 1184.67 -4.32785 1.46786 0
M  V30 12623 C 1185.66 -4.6067 2.40997 0
M  V30 12624 C 1183.35 -4.71676 1.72705 0
M  V30 12625 C 1185.34 -5.26432 3.59372 0
M  V30 12626 C 1183.03 -5.3717 2.91362 0
M  V30 12627 C 1184.03 -5.64478 3.84517 0
M  V30 12628 O 1183.71 -6.28618 5.01093 0
M  V30 12629 H 1183.45 -0.665794 0.117025 0
M  V30 12630 H 1186 -1.80746 0.975698 0
M  V30 12631 H 1184.23 -3.82064 -0.597023 0
M  V30 12632 H 1185.92 -4.05145 -0.247483 0
M  V30 12633 H 1186.69 -4.31087 2.22236 0
M  V30 12634 H 1182.56 -4.49789 1.0105 0
M  V30 12635 H 1186.11 -5.47663 4.321 0
M  V30 12636 H 1182.01 -5.66173 3.1003 0
M  V30 12637 H 1182.77 -6.47115 5.01183 0
M  V30 12638 N 1185.44 -0.462799 -1.50652 0
M  V30 12639 C 1186.38 0.349784 -2.29955 0
M  V30 12640 C 1187.38 0.997947 -1.36885 0
M  V30 12641 O 1188.58 0.93 -1.54114 0
M  V30 12642 H 1184.96 0.131635 -0.740389 0
M  V30 12643 H 1186.93 -0.33958 -2.96461 0
M  V30 12644 C 1185.68 1.42398 -3.17204 0
M  V30 12645 H 1185 0.934611 -3.88722 0
M  V30 12646 H 1186.44 1.96528 -3.75703 0
M  V30 12647 C 1184.9 2.42135 -2.34248 0
M  V30 12648 O 1185.43 3.47229 -2.01978 0
M  V30 12649 N 1183.64 2.13647 -1.96985 0
M  V30 12650 H 1183.18 1.28209 -2.23428 0
M  V30 12651 H 1183.14 2.80615 -1.41783 0
M  V30 12652 N 1186.91 1.56388 -0.195085 0
M  V30 12653 C 1188.33 1.8398 0.317513 0
M  V30 12654 C 1188.68 1.11575 1.61386 0
M  V30 12655 O 1187.8 0.376557 2.13099 0
M  V30 12656 C 1188.4 3.33749 0.582859 0
M  V30 12657 C 1186.96 3.61752 1.03983 0
M  V30 12658 C 1186.1 2.77159 0.088434 0
M  V30 12659 H 1189.05 1.53072 -0.418871 0
M  V30 12660 H 1189.07 3.52519 1.43216 0
M  V30 12661 H 1188.59 3.86419 -0.360813 0
M  V30 12662 H 1186.69 3.14515 1.99778 0
M  V30 12663 H 1186.8 4.69937 0.932549 0
M  V30 12664 H 1185.16 2.47765 0.590317 0
M  V30 12665 H 1185.95 3.32619 -0.849682 0
M  V30 12666 N 1188.39 -0.0785156 1.57404 0
M  V30 12667 C 1189.8 -0.631132 1.75709 0
M  V30 12668 C 1190.15 -1.78261 0.819605 0
M  V30 12669 O 1189.28 -2.164 0.00206912 0
M  V30 12670 C 1189.87 -1.15168 3.18625 0
M  V30 12671 C 1188.43 -1.65021 3.38297 0
M  V30 12672 C 1187.58 -0.566773 2.71446 0
M  V30 12673 H 1190.53 0.147631 1.58012 0
M  V30 12674 H 1190.55 -2.02065 3.22413 0
M  V30 12675 H 1190.06 -0.313399 3.86833 0
M  V30 12676 H 1188.17 -2.51196 2.75194 0
M  V30 12677 H 1188.28 -1.73179 4.46706 0
M  V30 12678 H 1186.64 -1.01021 2.33809 0
M  V30 12679 H 1187.43 0.261204 3.42305 0
M  V30 12680 N 1189.87 -1.5367 -0.349747 0
M  V30 12681 C 1190.78 -1.84207 -1.45275 0
M  V30 12682 C 1191.8 -0.731695 -1.57868 0
M  V30 12683 O 1192.97 -1.02337 -1.73462 0
M  V30 12684 C 1190.04 -2.0398 -2.80345 0
M  V30 12685 C 1189.1 -3.27853 -2.77148 0
M  V30 12686 C 1188.33 -3.46673 -4.05775 0
M  V30 12687 O 1188.55 -2.69457 -5.02741 0
M  V30 12688 O 1187.49 -4.40082 -4.10623 0
M  V30 12689 H 1191.31 -2.77947 -1.22389 0
M  V30 12690 H 1188.9 -1.39247 -0.541345 0
M  V30 12691 H 1190.78 -2.18466 -3.60348 0
M  V30 12692 H 1189.46 -1.13429 -3.03176 0
M  V30 12693 H 1188.36 -3.18776 -1.95787 0
M  V30 12694 H 1189.7 -4.18377 -2.59271 0
M  V30 12695 N 1191.35 0.610423 -1.45298 0
M  V30 12696 C 1192.57 1.40112 -1.52917 0
M  V30 12697 C 1193 1.87404 -0.161696 0
M  V30 12698 O 1192.36 1.59973 0.853135 0
M  V30 12699 C 1192.4 2.58359 -2.51561 0
M  V30 12700 O 1191.51 3.58895 -2.03146 0
M  V30 12701 H 1190.85 0.41841 -0.515586 0
M  V30 12702 H 1193.38 0.743159 -1.90626 0
M  V30 12703 H 1193.39 3.0564 -2.70275 0
M  V30 12704 H 1192.06 2.23286 -3.50879 0
M  V30 12705 H 1190.64 3.18282 -1.94296 0
M  V30 12706 N 1192.83 1.32541 0.852676 0
M  V30 12707 C 1193.74 1.23646 1.99371 0
M  V30 12708 C 1194.75 0.149673 1.73355 0
M  V30 12709 O 1195.93 0.370716 1.97959 0
M  V30 12710 C 1192.99 0.961873 3.3309 0
M  V30 12711 C 1192.05 2.1373 3.72315 0
M  V30 12712 C 1191.29 1.87572 4.99652 0
M  V30 12713 O 1191.51 0.819247 5.64486 0
M  V30 12714 O 1190.44 2.73732 5.36054 0
M  V30 12715 H 1194.27 2.19573 2.09813 0
M  V30 12716 H 1191.86 1.12451 0.983627 0
M  V30 12717 H 1193.74 0.825316 4.13239 0
M  V30 12718 H 1192.41 0.0327745 3.23683 0
M  V30 12719 H 1191.32 2.32933 2.92733 0
M  V30 12720 H 1192.65 3.04925 3.86369 0
M  V30 12721 N 1194.3 -1.0692 1.15784 0
M  V30 12722 C 1195.53 -1.83045 0.958031 0
M  V30 12723 C 1195.94 -1.82555 -0.497027 0
M  V30 12724 O 1195.29 -1.23864 -1.35659 0
M  V30 12725 C 1195.35 -3.31096 1.40056 0
M  V30 12726 C 1195.01 -3.55299 2.87423 0
M  V30 12727 C 1196.01 -3.48875 3.85463 0
M  V30 12728 C 1193.69 -3.82824 3.25194 0
M  V30 12729 C 1195.69 -3.69633 5.19279 0
M  V30 12730 C 1193.37 -4.03232 4.59181 0
M  V30 12731 C 1194.37 -3.96633 5.56032 0
M  V30 12732 O 1194.06 -4.16492 6.87597 0
M  V30 12733 H 1193.79 -0.584218 0.340095 0
M  V30 12734 H 1196.35 -1.35841 1.54066 0
M  V30 12735 H 1194.58 -3.79131 0.761361 0
M  V30 12736 H 1196.27 -3.88697 1.16916 0
M  V30 12737 H 1197.03 -3.27608 3.57629 0
M  V30 12738 H 1192.91 -3.87073 2.50391 0
M  V30 12739 H 1196.45 -3.64398 5.94861 0
M  V30 12740 H 1192.35 -4.23988 4.86729 0
M  V30 12741 H 1193.12 -4.33815 6.9408 0
M  V30 12742 N 1195.78 -0.955326 -1.25345 0
M  V30 12743 C 1197.01 -0.626783 -1.96863 0
M  V30 12744 C 1197.42 0.80547 -1.71198 0
M  V30 12745 O 1196.76 1.55049 -0.985163 0
M  V30 12746 C 1196.83 -0.806404 -3.50339 0
M  V30 12747 C 1196.49 -2.21595 -3.99681 0
M  V30 12748 C 1197.49 -3.19268 -4.10322 0
M  V30 12749 C 1195.17 -2.54032 -4.33328 0
M  V30 12750 C 1197.17 -4.47471 -4.53926 0
M  V30 12751 C 1194.85 -3.82465 -4.76617 0
M  V30 12752 C 1195.85 -4.78997 -4.86879 0
M  V30 12753 O 1195.54 -6.0514 -5.29208 0
M  V30 12754 H 1195.27 -0.233854 -0.634262 0
M  V30 12755 H 1197.82 -1.28232 -1.60455 0
M  V30 12756 H 1196.05 -0.0937184 -3.86586 0
M  V30 12757 H 1197.74 -0.47881 -4.03066 0
M  V30 12758 H 1198.51 -2.95534 -3.84558 0
M  V30 12759 H 1194.39 -1.79623 -4.24566 0
M  V30 12760 H 1197.93 -5.22819 -4.6185 0
M  V30 12761 H 1193.83 -4.06005 -5.01827 0
M  V30 12762 H 1194.6 -6.08527 -5.47392 0
M  V30 12763 N 1197.26 1.39987 -0.723979 0
M  V30 12764 C 1198.21 2.30672 -0.0768286 0
M  V30 12765 C 1199.18 1.48634 0.741422 0
M  V30 12766 O 1200.36 1.77351 0.703649 0
M  V30 12767 C 1197.5 3.34902 0.832729 0
M  V30 12768 C 1196.62 4.32 0.00304942 0
M  V30 12769 C 1195.75 5.23298 0.91286 0
M  V30 12770 C 1194.79 6.12051 0.0777706 0
M  V30 12771 N 1193.93 6.9574 0.942912 0
M  V30 12772 H 1198.77 2.85446 -0.855832 0
M  V30 12773 H 1196.3 1.40561 -0.433718 0
M  V30 12774 H 1198.26 3.93911 1.37441 0
M  V30 12775 H 1196.89 2.81611 1.57782 0
M  V30 12776 H 1195.94 3.74702 -0.655916 0
M  V30 12777 H 1197.26 4.94637 -0.643124 0
M  V30 12778 H 1196.41 5.87279 1.52277 0
M  V30 12779 H 1195.15 4.60956 1.59284 0
M  V30 12780 H 1194.15 5.47092 -0.545022 0
M  V30 12781 H 1195.38 6.76455 -0.598827 0
M  V30 12782 H 1193.33 6.35977 1.60838 0
M  V30 12783 H 1193.24 7.55176 0.352968 0
M  V30 12784 H 1194.51 7.64162 1.53874 0
M  V30 12785 N 1198.74 0.470782 1.50404 0
M  V30 12786 C 1199.98 -0.0830648 2.04231 0
M  V30 12787 C 1200.34 -1.37015 1.34503 0
M  V30 12788 O 1201.54 -2.00635 1.78883 0
M  V30 12789 C 1199.82 -0.262986 3.56431 0
M  V30 12790 S 1201.37 -0.775432 4.31894 0
M  V30 12791 H 1198.19 -0.0161025 0.710818 0
M  V30 12792 H 1200.79 0.63785 1.84802 0
M  V30 12793 H 1199.5 0.679558 4.04735 0
M  V30 12794 H 1199.03 -1.01002 3.80213 0
M  V30 12795 H 1201.04 -2.04887 4.51924 0
M  V30 12796 N 1200.22 -1.56282 0.203376 0
M  V30 12797 C 1201.18 -2.18233 -0.700489 0
M  V30 12798 C 1202.18 -1.13908 -1.13497 0
M  V30 12799 O 1203.37 -1.39246 -1.04672 0
M  V30 12800 C 1200.5 -2.79107 -1.95735 0
M  V30 12801 H 1201.7 -2.99469 -0.160649 0
M  V30 12802 H 1199.25 -1.56232 -0.0462475 0
M  V30 12803 H 1199.98 -2.01691 -2.53951 0
M  V30 12804 H 1199.77 -3.55486 -1.65446 0
M  V30 12805 H 1201.26 -3.2665 -2.60172 0
M  V30 12806 N 1201.7 0.070167 -1.57444 0
M  V30 12807 C 1202.64 1.10193 -2.04842 0
M  V30 12808 C 1203.64 1.39978 -0.954069 0
M  V30 12809 O 1204.84 1.39366 -1.13917 0
M  V30 12810 H 1201.22 0.372699 -0.653146 0
M  V30 12811 H 1203.19 0.676033 -2.90641 0
M  V30 12812 C 1201.94 2.40679 -2.50936 0
M  V30 12813 H 1201.26 2.1861 -3.34738 0
M  V30 12814 H 1202.7 3.11315 -2.87852 0
M  V30 12815 C 1201.16 3.06754 -1.39297 0
M  V30 12816 O 1201.69 3.949 -0.735989 0
M  V30 12817 N 1199.9 2.67404 -1.13769 0
M  V30 12818 H 1199.44 1.95813 -1.67376 0
M  V30 12819 H 1199.4 3.11937 -0.392787 0
M  V30 12820 N 1203.17 1.53854 0.341593 0
M  V30 12821 C 1204.42 1.7041 1.07905 0
M  V30 12822 C 1204.74 0.475039 1.89744 0
M  V30 12823 O 1205.94 0.521589 2.66443 0
M  V30 12824 C 1204.4 3.01342 1.96776 0
M  V30 12825 C 1204.01 4.31592 1.20135 0
M  V30 12826 C 1205.75 3.27264 2.70367 0
M  V30 12827 C 1203.66 5.53598 2.08047 0
M  V30 12828 H 1202.59 0.635005 0.406553 0
M  V30 12829 H 1205.24 1.80353 0.338409 0
M  V30 12830 H 1203.62 2.85261 2.74667 0
M  V30 12831 H 1204.79 4.58382 0.471404 0
M  V30 12832 H 1203.11 4.12298 0.583039 0
M  V30 12833 H 1205.71 4.15607 3.36415 0
M  V30 12834 H 1206.05 2.44357 3.37039 0
M  V30 12835 H 1206.58 3.4413 1.99548 0
M  V30 12836 H 1203.32 6.39053 1.45914 0
M  V30 12837 H 1202.84 5.31052 2.78825 0
M  V30 12838 H 1204.52 5.89314 2.67055 0
M  V30 12839 N 1204.65 -0.602709 1.4562 0
M  V30 12840 C 1205.58 -1.72374 1.5751 0
M  V30 12841 C 1206.56 -1.64669 0.426389 0
M  V30 12842 O 1207.75 -1.82994 0.650143 0
M  V30 12843 C 1204.88 -3.10987 1.5461 0
M  V30 12844 C 1203.83 -3.33507 2.68248 0
M  V30 12845 C 1203.16 -4.72443 2.50403 0
M  V30 12846 C 1204.46 -3.23285 4.10224 0
M  V30 12847 H 1206.15 -1.62679 2.51348 0
M  V30 12848 H 1203.7 -0.781217 1.20967 0
M  V30 12849 H 1205.65 -3.89214 1.61525 0
M  V30 12850 H 1204.37 -3.21533 0.573049 0
M  V30 12851 H 1203.03 -2.57672 2.60769 0
M  V30 12852 H 1202.68 -4.79729 1.51226 0
M  V30 12853 H 1202.38 -4.88466 3.26611 0
M  V30 12854 H 1203.91 -5.52864 2.59179 0
M  V30 12855 H 1205.32 -3.91381 4.1892 0
M  V30 12856 H 1203.72 -3.50837 4.86861 0
M  V30 12857 H 1204.79 -2.20652 4.31788 0
M  V30 12858 N 1206.13 -1.32992 -0.845635 0
M  V30 12859 C 1207.04 -1.24701 -1.98713 0
M  V30 12860 C 1208.06 -0.158864 -1.73273 0
M  V30 12861 O 1209.23 -0.381209 -1.97759 0
M  V30 12862 C 1206.3 -0.979524 -3.32575 0
M  V30 12863 C 1205.36 -2.15701 -3.71176 0
M  V30 12864 C 1204.59 -1.90219 -4.98651 0
M  V30 12865 O 1204.81 -0.849171 -5.64044 0
M  V30 12866 O 1203.75 -2.76571 -5.34595 0
M  V30 12867 H 1207.57 -2.20683 -2.08645 0
M  V30 12868 H 1205.16 -1.12971 -0.97765 0
M  V30 12869 H 1207.04 -0.847219 -4.12796 0
M  V30 12870 H 1205.72 -0.0499398 -3.23661 0
M  V30 12871 H 1204.62 -2.34483 -2.91494 0
M  V30 12872 H 1205.96 -3.0697 -3.84747 0
M  V30 12873 N 1207.61 1.06304 -1.1635 0
M  V30 12874 C 1208.55 2.13776 -0.869965 0
M  V30 12875 C 1209.52 1.65105 0.181541 0
M  V30 12876 O 1210.71 1.90743 0.0467705 0
M  V30 12877 C 1207.85 3.43034 -0.377077 0
M  V30 12878 C 1206.96 4.0544 -1.4914 0
M  V30 12879 C 1206.1 5.22572 -0.953538 0
M  V30 12880 C 1205.14 5.76961 -2.04407 0
M  V30 12881 N 1204.27 6.85409 -1.52181 0
M  V30 12882 H 1209.11 2.38224 -1.79034 0
M  V30 12883 H 1206.65 1.16882 -0.893136 0
M  V30 12884 H 1208.61 4.17136 -0.0729426 0
M  V30 12885 H 1207.24 3.18804 0.506359 0
M  V30 12886 H 1206.29 3.28886 -1.9115 0
M  V30 12887 H 1207.6 4.41859 -2.31434 0
M  V30 12888 H 1206.76 6.037 -0.602579 0
M  V30 12889 H 1205.5 4.87598 -0.099897 0
M  V30 12890 H 1204.5 4.9447 -2.40373 0
M  V30 12891 H 1205.73 6.13987 -2.90167 0
M  V30 12892 H 1203.67 6.52354 -0.690697 0
M  V30 12893 H 1203.59 7.2077 -2.28092 0
M  V30 12894 H 1204.86 7.70217 -1.19942 0
M  V30 12895 N 1209.09 0.96196 1.24836 0
M  V30 12896 C 1210.33 0.620715 1.92752 0
M  V30 12897 C 1210.66 -0.843308 1.75267 0
M  V30 12898 O 1209.92 -1.62141 1.09584 0
M  V30 12899 C 1210.21 0.934481 3.44967 0
M  V30 12900 C 1209.88 2.38572 3.82615 0
M  V30 12901 C 1208.54 2.78238 3.92603 0
M  V30 12902 C 1210.89 3.32784 4.01129 0
M  V30 12903 C 1208.22 4.11169 4.18518 0
M  V30 12904 C 1210.57 4.65336 4.28539 0
M  V30 12905 C 1209.24 5.04788 4.36745 0
M  V30 12906 H 1208.51 0.227136 0.70533 0
M  V30 12907 H 1211.16 1.21237 1.48236 0
M  V30 12908 H 1209.46 0.260516 3.90933 0
M  V30 12909 H 1211.16 0.648923 3.95715 0
M  V30 12910 H 1207.75 2.06812 3.75402 0
M  V30 12911 H 1211.93 3.03325 3.9282 0
M  V30 12912 H 1207.19 4.41368 4.23089 0
M  V30 12913 H 1211.36 5.3831 4.41809 0
M  V30 12914 H 1208.99 6.07816 4.56579 0
M  V30 12915 N 1210.56 -1.39601 0.731392 0
M  V30 12916 C 1211.81 -2.00586 0.277756 0
M  V30 12917 C 1212.14 -1.58027 -1.13391 0
M  V30 12918 O 1211.39 -0.798691 -1.7866 0
M  V30 12919 C 1211.69 -3.55934 0.323352 0
M  V30 12920 C 1211.36 -4.18131 1.68753 0
M  V30 12921 C 1210.02 -4.34833 2.06092 0
M  V30 12922 C 1212.37 -4.5267 2.58339 0
M  V30 12923 C 1209.7 -4.83362 3.32532 0
M  V30 12924 C 1212.05 -5.02607 3.84148 0
M  V30 12925 C 1210.72 -5.17517 4.21584 0
M  V30 12926 H 1209.99 -0.733996 0.101638 0
M  V30 12927 H 1212.63 -1.66981 0.937528 0
M  V30 12928 H 1210.94 -3.89542 -0.419995 0
M  V30 12929 H 1212.64 -4.00974 -0.0457235 0
M  V30 12930 H 1209.23 -4.0553 1.38722 0
M  V30 12931 H 1213.41 -4.39388 2.30763 0
M  V30 12932 H 1208.67 -4.93091 3.61485 0
M  V30 12933 H 1212.84 -5.28306 4.53724 0
M  V30 12934 H 1210.47 -5.54882 5.19625 0
M  V30 12935 N 1212.04 -0.478751 -1.50152 0
M  V30 12936 C 1213.29 0.073585 -2.02366 0
M  V30 12937 C 1213.62 1.3903 -1.36018 0
M  V30 12938 O 1212.87 1.89787 -0.477435 0
M  V30 12939 C 1213.17 0.297535 -3.56159 0
M  V30 12940 C 1212.84 -0.938419 -4.41027 0
M  V30 12941 C 1211.5 -1.27727 -4.63939 0
M  V30 12942 C 1213.85 -1.76098 -4.9055 0
M  V30 12943 C 1211.18 -2.4386 -5.33619 0
M  V30 12944 C 1213.53 -2.91366 -5.61506 0
M  V30 12945 C 1212.2 -3.25657 -5.8267 0
M  V30 12946 H 1211.47 0.0269267 -0.740511 0
M  V30 12947 H 1214.11 -0.63439 -1.80687 0
M  V30 12948 H 1212.42 1.08783 -3.76395 0
M  V30 12949 H 1214.11 0.73899 -3.94132 0
M  V30 12950 H 1210.7 -0.664441 -4.23418 0
M  V30 12951 H 1214.89 -1.51237 -4.72696 0
M  V30 12952 H 1210.14 -2.70692 -5.48211 0
M  V30 12953 H 1214.32 -3.55445 -5.98859 0
M  V30 12954 H 1211.95 -4.15751 -6.36439 0
M  V30 12955 N 1213.52 1.56172 -0.211661 0
M  V30 12956 C 1214.75 2.02874 0.430905 0
M  V30 12957 C 1215.17 1.09064 1.53254 0
M  V30 12958 O 1214.53 0.0770408 1.81136 0
M  V30 12959 C 1214.58 3.4789 0.948933 0
M  V30 12960 O 1213.68 3.57213 2.0609 0
M  V30 12961 H 1213.02 0.656614 0.0987607 0
M  V30 12962 H 1215.55 2.01964 -0.327399 0
M  V30 12963 H 1215.56 3.88015 1.2613 0
M  V30 12964 H 1214.24 4.15656 0.142584 0
M  V30 12965 H 1212.81 3.28971 1.75592 0
M  V30 12966 N 1215 -0.0618163 1.57479 0
M  V30 12967 C 1215.95 -1.0724 2.04373 0
M  V30 12968 C 1216.92 -1.37875 0.926271 0
M  V30 12969 O 1218.1 -1.48772 1.19463 0
M  V30 12970 C 1215.24 -2.37805 2.50085 0
M  V30 12971 C 1214.35 -2.13614 3.7549 0
M  V30 12972 C 1213.49 -3.37814 4.09945 0
M  V30 12973 C 1212.53 -3.09032 5.28361 0
M  V30 12974 N 1211.66 -4.25591 5.58406 0
M  V30 12975 H 1216.5 -0.665536 2.90473 0
M  V30 12976 H 1214.04 -0.317043 1.43643 0
M  V30 12977 H 1216 -3.14048 2.74644 0
M  V30 12978 H 1214.63 -2.76275 1.66948 0
M  V30 12979 H 1213.68 -1.28017 3.58212 0
M  V30 12980 H 1214.99 -1.88361 4.61867 0
M  V30 12981 H 1214.15 -4.22447 4.35458 0
M  V30 12982 H 1212.89 -3.66153 3.22154 0
M  V30 12983 H 1211.89 -2.22797 5.02635 0
M  V30 12984 H 1213.12 -2.82006 6.17778 0
M  V30 12985 H 1211.06 -4.53941 4.73575 0
M  V30 12986 H 1210.98 -4.03646 6.39223 0
M  V30 12987 H 1212.25 -5.11191 5.88476 0
M  V30 12988 N 1216.48 -1.54033 -0.333429 0
M  V30 12989 C 1217.73 -1.70979 -1.07 0
M  V30 12990 C 1218.04 -0.485095 -1.89489 0
M  V30 12991 O 1219.24 -0.535712 -2.66162 0
M  V30 12992 C 1217.7 -3.02382 -1.95175 0
M  V30 12993 C 1217.31 -4.32223 -1.17844 0
M  V30 12994 C 1219.05 -3.28693 -2.68628 0
M  V30 12995 C 1216.96 -5.54693 -2.05109 0
M  V30 12996 H 1215.89 -0.637152 -0.403179 0
M  V30 12997 H 1218.54 -1.80529 -0.328839 0
M  V30 12998 H 1216.92 -2.86714 -2.73151 0
M  V30 12999 H 1218.1 -4.58626 -0.447089 0
M  V30 13000 H 1216.41 -4.12601 -0.561166 0
M  V30 13001 H 1219.01 -4.17385 -3.34207 0
M  V30 13002 H 1219.35 -2.46141 -3.35738 0
M  V30 13003 H 1219.88 -3.45183 -1.9772 0
M  V30 13004 H 1216.62 -6.39818 -1.42523 0
M  V30 13005 H 1216.14 -5.32524 -2.76005 0
M  V30 13006 H 1217.82 -5.90722 -2.63926 0
M  V30 13007 N 1217.95 0.594978 -1.45938 0
M  V30 13008 C 1218.9 1.70489 -1.5557 0
M  V30 13009 C 1219.87 1.61193 -0.400751 0
M  V30 13010 O 1221.06 1.80587 -0.615882 0
M  V30 13011 C 1218.2 3.08817 -1.54033 0
M  V30 13012 C 1217.31 3.28827 -2.80173 0
M  V30 13013 C 1216.44 4.57333 -2.70222 0
M  V30 13014 C 1215.48 4.70644 -3.91357 0
M  V30 13015 N 1214.62 5.90463 -3.79865 0
M  V30 13016 H 1219.46 1.61593 -2.50383 0
M  V30 13017 H 1217 0.787747 -1.24229 0
M  V30 13018 H 1218.96 3.88865 -1.51129 0
M  V30 13019 H 1217.59 3.1664 -0.627617 0
M  V30 13020 H 1216.64 2.42467 -2.9311 0
M  V30 13021 H 1217.95 3.34534 -3.69985 0
M  V30 13022 H 1217.1 5.45593 -2.65354 0
M  V30 13023 H 1215.84 4.54045 -1.7803 0
M  V30 13024 H 1214.85 3.80805 -3.9657 0
M  V30 13025 H 1216.07 4.75721 -4.8463 0
M  V30 13026 H 1214.02 5.88196 -2.90451 0
M  V30 13027 H 1213.94 5.97385 -4.63322 0
M  V30 13028 H 1215.2 6.81187 -3.78952 0
M  V30 13029 N 1219.43 1.33438 0.838571 0
M  V30 13030 C 1220.34 1.25753 1.98049 0
M  V30 13031 C 1221.36 0.168051 1.73187 0
M  V30 13032 O 1222.53 0.391691 1.97554 0
M  V30 13033 C 1219.6 0.997148 3.32051 0
M  V30 13034 C 1218.66 2.17667 3.70027 0
M  V30 13035 C 1217.89 1.92861 4.97635 0
M  V30 13036 O 1218.12 0.879072 5.63585 0
M  V30 13037 O 1217.05 2.79402 5.33121 0
M  V30 13038 H 1220.88 2.21786 2.07472 0
M  V30 13039 H 1218.46 1.13488 0.971645 0
M  V30 13040 H 1220.34 0.869099 4.1234 0
M  V30 13041 H 1219.02 0.0671036 3.2363 0
M  V30 13042 H 1217.93 2.36025 2.90246 0
M  V30 13043 H 1219.26 3.09006 3.83114 0
M  V30 13044 N 1220.91 -1.05686 1.16912 0
M  V30 13045 C 1221.87 -2.11481 0.883647 0
M  V30 13046 C 1222.87 -1.60321 -0.124034 0
M  V30 13047 O 1224.06 -1.73868 0.107566 0
M  V30 13048 C 1221.2 -3.3937 0.322649 0
M  V30 13049 H 1222.39 -2.38239 1.8216 0
M  V30 13050 H 1219.94 -1.2185 0.978895 0
M  V30 13051 H 1220.68 -3.18266 -0.622695 0
M  V30 13052 H 1220.46 -3.77812 1.04883 0
M  V30 13053 H 1221.95 -4.17362 0.141072 0
M  V30 13054 N 1222.39 -0.968567 -1.24324 0
M  V30 13055 C 1223.64 -0.629682 -1.9204 0
M  V30 13056 C 1223.96 0.837906 -1.7608 0
M  V30 13057 O 1223.23 1.5982 -1.13289 0
M  V30 13058 H 1221.81 -0.229901 -0.710742 0
M  V30 13059 H 1224.47 -1.22982 -1.512 0
M  V30 13060 H 1223.57 -0.871034 -2.99699 0
M  V30 13061 N 1223.87 1.39211 -0.738786 0
M  V30 13062 C 1224.8 2.33209 -0.11647 0
M  V30 13063 C 1225.78 1.54108 0.720056 0
M  V30 13064 O 1226.96 1.82486 0.664264 0
M  V30 13065 C 1224.09 3.38226 0.78872 0
M  V30 13066 C 1223.05 4.27963 0.0560636 0
M  V30 13067 C 1222.37 5.2371 1.07852 0
M  V30 13068 C 1223.67 5.10508 -1.1036 0
M  V30 13069 H 1225.37 2.85501 -0.901649 0
M  V30 13070 H 1222.91 1.37272 -0.435032 0
M  V30 13071 H 1224.87 4.02938 1.23364 0
M  V30 13072 H 1223.59 2.84382 1.60606 0
M  V30 13073 H 1222.25 3.64735 -0.369274 0
M  V30 13074 H 1221.9 4.66161 1.88953 0
M  V30 13075 H 1221.6 5.846 0.593048 0
M  V30 13076 H 1223.12 5.91299 1.52307 0
M  V30 13077 H 1224.53 5.68544 -0.736943 0
M  V30 13078 H 1222.93 5.80558 -1.51895 0
M  V30 13079 H 1224 4.45117 -1.92352 0
M  V30 13080 N 1225.34 0.486708 1.49896 0
M  V30 13081 C 1226.59 -0.0646197 2.01596 0
M  V30 13082 C 1226.91 -1.39363 1.37249 0
M  V30 13083 O 1228.11 -2.03082 1.80194 0
M  V30 13084 C 1226.57 -0.16565 3.59519 0
M  V30 13085 C 1226.18 1.15586 4.32832 0
M  V30 13086 C 1227.92 -0.668103 4.1921 0
M  V30 13087 C 1225.83 1.01778 5.82576 0
M  V30 13088 H 1224.76 -0.0279241 0.753483 0
M  V30 13089 H 1227.41 0.623969 1.72566 0
M  V30 13090 H 1225.79 -0.918372 3.85204 0
M  V30 13091 H 1226.96 1.92076 4.1886 0
M  V30 13092 H 1225.28 1.59064 3.84822 0
M  V30 13093 H 1227.88 -0.788698 5.28851 0
M  V30 13094 H 1228.22 -1.66339 3.81624 0
M  V30 13095 H 1228.75 0.0276746 3.9779 0
M  V30 13096 H 1225.49 1.9869 6.24662 0
M  V30 13097 H 1225.01 0.293527 5.99081 0
M  V30 13098 H 1226.69 0.690693 6.43303 0
M  V30 13099 N 1226.82 -1.56058 0.219941 0
M  V30 13100 C 1228.1 -1.90087 -0.46112 0
M  V30 13101 C 1228.48 -1.13705 -1.77861 0
M  V30 13102 O 1227.83 -0.245868 -2.27173 0
M  V30 13103 C 1228.04 -3.42786 -0.655644 0
M  V30 13104 C 1229.39 -4.13517 -0.963803 0
M  V30 13105 O 1230.41 -3.48376 -0.742488 0
M  V30 13106 O 1229.27 -5.28692 -1.38374 0
M  V30 13107 H 1226.36 -0.790311 -0.243595 0
M  V30 13108 H 1228.91 -1.67665 0.262005 0
M  V30 13109 H 1227.68 -3.90341 0.273738 0
M  V30 13110 H 1227.3 -3.70982 -1.43032 0
M  V30 13111 N 1228.3 0.053464 -1.57509 0
M  V30 13112 C 1229.25 1.06155 -2.04939 0
M  V30 13113 C 1230.22 1.37382 -0.93357 0
M  V30 13114 O 1231.4 1.48137 -1.2025 0
M  V30 13115 C 1228.54 2.36476 -2.51343 0
M  V30 13116 C 1227.66 2.1162 -3.76618 0
M  V30 13117 C 1226.79 3.35636 -4.11731 0
M  V30 13118 C 1225.83 3.06226 -5.29993 0
M  V30 13119 N 1224.97 4.22623 -5.60655 0
M  V30 13120 H 1229.81 0.650122 -2.90822 0
M  V30 13121 H 1227.34 0.309421 -1.43809 0
M  V30 13122 H 1229.3 3.12588 -2.76306 0
M  V30 13123 H 1227.93 2.75386 -1.68411 0
M  V30 13124 H 1226.98 1.26116 -3.58886 0
M  V30 13125 H 1228.3 1.85909 -4.6286 0
M  V30 13126 H 1227.45 4.20132 -4.37692 0
M  V30 13127 H 1226.19 3.64439 -3.24092 0
M  V30 13128 H 1225.19 2.20128 -5.03809 0
M  V30 13129 H 1226.42 2.78726 -6.19265 0
M  V30 13130 H 1224.37 4.51424 -4.75976 0
M  V30 13131 H 1224.28 4.0025 -6.41355 0
M  V30 13132 H 1225.55 5.08063 -5.91178 0
M  V30 13133 O 1229.82 1.60297 0.196756 0
M  V30 13134 H 1230.51 1.74741 0.835779 0
M  V30 END ATOM
M  V30 BEGIN BOND
M  V30 END BOND
M  V30 END CTAB
M  END
$$$$
