drugbank_target|Q7BK04 Cag alpha (DB02930)
 OpenBabel12092120253D

  0  0  0     0  0            999 V3000
M  V30 BEGIN CTAB
M  V30 COUNTS 5265 5315 0 0 0
M  V30 BEGIN ATOM
M  V30 1 H -0.908 1.98254 -0.117106 0
M  V30 2 N 0 1.576 0 0
M  V30 3 C 0.933 2.03868 1.02534 0
M  V30 4 C 1.911 0.928543 1.3348 0
M  V30 5 O 3.095 1.19667 1.45644 0
M  V30 6 C 0.222 2.43627 2.35294 0
M  V30 7 C -0.732 3.65373 2.2001 0
M  V30 8 S 0.101 5.13292 1.52614 0
M  V30 9 C 1.257 5.56322 2.86805 0
M  V30 10 H 1.49 2.90518 0.631377 0
M  V30 11 H -0.977 1.52953 0.210867 0
M  V30 12 H 0.981 2.67203 3.11629 0
M  V30 13 H -0.358 1.57376 2.7183 0
M  V30 14 H -1.165 3.90944 3.18086 0
M  V30 15 H -1.563 3.418 1.51819 0
M  V30 16 H 0.729 5.58782 3.83104 0
M  V30 17 H 1.672 6.56266 2.65933 0
M  V30 18 H 2.08 4.83886 2.90714 0
M  V30 19 N 1.4781 -0.272755 1.55222 0
M  V30 20 C 2.7061 -1.02255 1.79865 0
M  V30 21 C 3.1211 -1.79924 0.572088 0
M  V30 22 O 2.4781 -1.76638 -0.458842 0
M  V30 23 C 2.5291 -1.98094 3.02392 0
M  V30 24 O 2.2501 -1.23572 4.20311 0
M  V30 25 C 3.7511 -2.84884 3.39641 0
M  V30 26 H 0.9711 -0.302057 0.599168 0
M  V30 27 H 3.5151 -0.303465 2.02236 0
M  V30 28 H 1.6701 -2.65465 2.82147 0
M  V30 29 H 2.0841 -1.88172 4.89583 0
M  V30 30 H 3.5581 -3.47927 4.28545 0
M  V30 31 H 4.0351 -3.54665 2.59055 0
M  V30 32 H 4.6411 -2.23003 3.62146 0
M  V30 33 N 2.9562 -1.48159 -0.537278 0
M  V30 34 C 3.8662 -1.64807 -1.6696 0
M  V30 35 C 4.8822 -0.530651 -1.65711 0
M  V30 36 O 6.0582 -0.800784 -1.84796 0
M  V30 37 C 3.1232 -1.67708 -3.03438 0
M  V30 38 C 2.1842 -2.91025 -3.156 0
M  V30 39 C 1.4172 -2.93778 -4.45567 0
M  V30 40 O 1.6402 -2.05153 -5.3223 0
M  V30 41 O 0.5742 -3.85868 -4.61941 0
M  V30 42 H 4.4002 -2.6066 -1.55853 0
M  V30 43 H 1.9852 -1.31475 -0.709549 0
M  V30 44 H 3.8672 -1.7218 -3.84619 0
M  V30 45 H 2.5422 -0.750278 -3.14885 0
M  V30 46 H 1.4492 -2.92089 -2.33741 0
M  V30 47 H 2.7822 -3.83065 -3.09066 0
M  V30 48 N 4.4343 0.785586 -1.36625 0
M  V30 49 C 5.7113 1.53198 -1.21613 0
M  V30 50 C 6.0913 2.10187 0.196113 0
M  V30 51 O 5.4393 1.94318 1.20219 0
M  V30 52 C 5.6493 2.62388 -2.30116 0
M  V30 53 C 6.9973 3.30167 -2.66974 0
M  V30 54 O 8.0213 2.72674 -2.29188 0
M  V30 55 O 6.8803 4.34077 -3.32023 0
M  V30 56 H 3.9743 0.677865 -0.473738 0
M  V30 57 H 6.5203 0.823739 -1.48367 0
M  V30 58 H 5.2923 2.18299 -3.24748 0
M  V30 59 H 4.9153 3.40827 -2.0475 0
M  V30 60 N 5.9124 1.20967 1.01018 0
M  V30 61 C 7.3284 0.965905 1.27053 0
M  V30 62 C 7.5284 -0.350785 1.98423 0
M  V30 63 O 6.5844 -1.07773 2.28344 0
M  V30 64 C 7.8974 2.15294 2.09926 0
M  V30 65 C 9.4454 2.19463 2.23171 0
M  V30 66 C 9.9204 3.3767 3.09424 0
M  V30 67 N 11.4114 3.37724 3.17012 0
M  V30 68 C 12.1464 4.25837 3.83993 0
M  V30 69 N 11.6424 5.24138 4.53047 0
M  V30 70 N 13.4354 4.1366 3.80581 0
M  V30 71 H 5.5864 2.0565 0.531194 0
M  V30 72 H 7.8494 0.90024 0.297106 0
M  V30 73 H 7.5554 3.10684 1.64828 0
M  V30 74 H 7.4294 2.13923 3.10672 0
M  V30 75 H 9.8164 1.24632 2.6749 0
M  V30 76 H 9.8974 2.2488 1.21912 0
M  V30 77 H 9.5414 4.32791 2.65808 0
M  V30 78 H 9.4714 3.29491 4.10784 0
M  V30 79 H 11.9624 2.6658 2.6785 0
M  V30 80 H 12.2754 5.87684 5.01844 0
M  V30 81 H 10.6204 5.28068 4.5185 0
M  V30 82 H 13.8114 3.36127 3.25785 0
M  V30 83 H 13.9844 4.82538 4.32505 0
M  V30 84 N 7.3905 -1.2043 1.01659 0
M  V30 85 C 8.3205 -2.25466 0.607226 0
M  V30 86 C 9.3015 -1.65853 -0.377716 0
M  V30 87 O 10.4865 -1.92409 -0.263149 0
M  V30 88 C 7.6165 -3.47256 -0.0552949 0
M  V30 89 C 6.5705 -4.19462 0.850632 0
M  V30 90 C 5.8965 -5.34673 0.0538859 0
M  V30 91 C 7.1965 -4.75603 2.15868 0
M  V30 92 H 8.8905 -2.59962 1.48526 0
M  V30 93 H 6.4365 -1.2496 0.715605 0
M  V30 94 H 8.3895 -4.19917 -0.353233 0
M  V30 95 H 7.1135 -3.11924 -0.968045 0
M  V30 96 H 5.7725 -3.48667 1.13257 0
M  V30 97 H 5.4205 -4.95585 -0.860514 0
M  V30 98 H 5.1205 -5.83913 0.657192 0
M  V30 99 H 6.6445 -6.10138 -0.237598 0
M  V30 100 H 8.0585 -5.40083 1.92311 0
M  V30 101 H 6.4555 -5.3528 2.71284 0
M  V30 102 H 7.5255 -3.94346 2.82169 0
M  V30 103 N 8.8686 -0.792821 -1.36206 0
M  V30 104 C 10.0936 -0.377701 -2.03932 0
M  V30 105 C 10.5186 0.998947 -1.59382 0
M  V30 106 O 9.8766 1.64421 -0.763903 0
M  V30 107 C 9.9246 -0.453635 -3.57735 0
M  V30 108 O 9.0286 0.538151 -4.08874 0
M  V30 109 H 8.3696 -0.159855 -0.644471 0
M  V30 110 H 10.8996 -1.07488 -1.7409 0
M  V30 111 H 10.9096 -0.318464 -4.06755 0
M  V30 112 H 9.5846 -1.45784 -3.89512 0
M  V30 113 H 8.1616 0.364359 -3.71116 0
M  V30 114 N 10.3467 1.47872 -0.545128 0
M  V30 115 C 11.3097 2.28337 0.198717 0
M  V30 116 C 12.3097 1.36255 0.853888 0
M  V30 117 O 13.4997 1.59003 0.711606 0
M  V30 118 C 10.6317 3.15585 1.28915 0
M  V30 119 H 11.8247 2.95567 -0.507941 0
M  V30 120 H 9.3777 1.53362 -0.301616 0
M  V30 121 H 10.1127 2.53019 2.02859 0
M  V30 122 H 9.8977 3.83337 0.824309 0
M  V30 123 H 11.3877 3.76243 1.81194 0
M  V30 124 N 11.8248 0.280983 1.55075 0
M  V30 125 C 12.7348 -0.61388 2.26426 0
M  V30 126 C 13.7508 -1.16521 1.29224 0
M  V30 127 O 14.9268 -1.19426 1.62171 0
M  V30 128 C 11.9918 -1.7788 2.9759 0
M  V30 129 C 11.0528 -1.26355 4.10284 0
M  V30 130 C 10.2858 -2.37295 4.78045 0
M  V30 131 O 10.5088 -3.56777 4.45047 0
M  V30 132 O 9.4428 -2.05119 5.65871 0
M  V30 133 H 13.2688 -0.0356932 3.03679 0
M  V30 134 H 10.8538 0.0481686 1.49322 0
M  V30 135 H 12.7358 -2.45791 3.42293 0
M  V30 136 H 11.4108 -2.34397 2.23249 0
M  V30 137 H 10.3178 -0.550735 3.70024 0
M  V30 138 H 11.6508 -0.744065 4.86543 0
M  V30 139 N 13.3029 -1.57598 0.00835791 0
M  V30 140 C 14.5799 -1.82172 -0.712235 0
M  V30 141 C 14.9599 -0.887873 -1.9152 0
M  V30 142 O 14.3079 0.06146 -2.28417 0
M  V30 143 C 14.5179 -3.30875 -1.11008 0
M  V30 144 C 15.8659 -3.96826 -1.51044 0
M  V30 145 O 16.8899 -3.35248 -1.20364 0
M  V30 146 O 15.7489 -5.05318 -2.08125 0
M  V30 147 H 12.8429 -0.750435 -0.347529 0
M  V30 148 H 15.3889 -1.69665 0.0344523 0
M  V30 149 H 14.1609 -3.90481 -0.252982 0
M  V30 150 H 13.7839 -3.48412 -1.9156 0
M  V30 151 N 14.781 0.264519 -1.55364 0
M  V30 152 C 15.728 1.32717 -1.88825 0
M  V30 153 C 16.698 1.48675 -0.740605 0
M  V30 154 O 17.883 1.62945 -0.992657 0
M  V30 155 C 15.023 2.68089 -2.17307 0
M  V30 156 C 14.136 2.60284 -3.44785 0
M  V30 157 C 13.271 3.87892 -3.62924 0
M  V30 158 C 12.31 3.74631 -4.84064 0
M  V30 159 N 11.447 4.94092 -4.98816 0
M  V30 160 H 16.287 1.03481 -2.79456 0
M  V30 161 H 13.824 0.499757 -1.3835 0
M  V30 162 H 15.782 3.46864 -2.31821 0
M  V30 163 H 14.412 2.95509 -1.299 0
M  V30 164 H 13.464 1.73173 -3.38697 0
M  V30 165 H 14.776 2.46388 -4.33698 0
M  V30 166 H 13.93 4.75109 -3.77302 0
M  V30 167 H 12.669 4.04664 -2.7221 0
M  V30 168 H 11.674 2.85797 -4.69681 0
M  V30 169 H 12.899 3.5937 -5.76221 0
M  V30 170 H 10.845 5.11259 -4.11036 0
M  V30 171 H 10.762 4.8276 -5.81789 0
M  V30 172 H 12.03 5.82857 -5.17588 0
M  V30 173 N 16.2591 1.48442 0.529413 0
M  V30 174 C 17.2061 1.63007 1.63394 0
M  V30 175 C 18.1761 0.47212 1.59249 0
M  V30 176 O 19.3611 0.695673 1.77666 0
M  V30 177 C 16.5011 1.6763 3.01653 0
M  V30 178 C 15.6141 2.94535 3.16027 0
M  V30 179 C 14.7491 2.90316 4.44849 0
M  V30 180 C 13.7881 4.11923 4.52754 0
M  V30 181 N 12.9251 4.05777 5.72965 0
M  V30 182 H 17.7651 2.5733 1.50285 0
M  V30 183 H 15.3021 1.27613 0.731656 0
M  V30 184 H 17.2601 1.68292 3.81751 0
M  V30 185 H 15.8901 0.76797 3.13532 0
M  V30 186 H 14.9421 3.03615 2.29177 0
M  V30 187 H 16.2541 3.84512 3.17729 0
M  V30 188 H 15.4081 2.89382 5.33238 0
M  V30 189 H 14.1471 1.98068 4.45668 0
M  V30 190 H 13.1521 4.13131 3.62771 0
M  V30 191 H 14.3771 5.0533 4.53672 0
M  V30 192 H 12.3231 3.16351 5.74681 0
M  V30 193 H 12.2401 4.8946 5.76164 0
M  V30 194 H 13.5081 4.08904 6.6364 0
M  V30 195 N 17.7372 -0.778329 1.37039 0
M  V30 196 C 18.9842 -1.53665 1.31884 0
M  V30 197 C 19.3122 -1.9425 -0.0986303 0
M  V30 198 O 18.5672 -1.63832 -1.07041 0
M  V30 199 C 18.8662 -2.81845 2.19768 0
M  V30 200 C 18.5322 -2.60345 3.68146 0
M  V30 201 C 17.1942 -2.5419 4.08584 0
M  V30 202 C 19.5462 -2.40923 4.62175 0
M  V30 203 C 16.8742 -2.26594 5.41177 0
M  V30 204 C 19.2262 -2.14852 5.94997 0
M  V30 205 C 17.8902 -2.07137 6.34547 0
M  V30 206 H 17.1602 -0.562299 0.482598 0
M  V30 207 H 19.8072 -0.897069 1.69189 0
M  V30 208 H 18.1122 -3.50328 1.75436 0
M  V30 209 H 19.8092 -3.39692 2.13097 0
M  V30 210 H 16.3992 -2.65996 3.36072 0
M  V30 211 H 20.5832 -2.44673 4.31797 0
M  V30 212 H 15.8392 -2.19111 5.70789 0
M  V30 213 H 20.0132 -1.98822 6.67415 0
M  V30 214 H 17.6402 -1.85518 7.37216 0
M  V30 215 N 19.2153 -1.21501 -1.00376 0
M  V30 216 C 20.1453 -0.999478 -2.11028 0
M  V30 217 C 21.1263 0.0759671 -1.6993 0
M  V30 218 O 22.3113 -0.0841106 -1.94018 0
M  V30 219 C 19.4413 -0.564709 -3.42678 0
M  V30 220 C 18.3953 -1.58486 -3.97576 0
M  V30 221 C 17.7213 -1.00628 -5.25146 0
M  V30 222 C 19.0213 -2.97204 -4.29496 0
M  V30 223 H 20.7153 -1.92495 -2.29317 0
M  V30 224 H 18.2613 -0.92693 -1.102 0
M  V30 225 H 20.2143 -0.401091 -4.19487 0
M  V30 226 H 18.9383 0.396411 -3.24185 0
M  V30 227 H 17.5973 -1.73606 -3.22888 0
M  V30 228 H 17.2453 -0.0368439 -5.02987 0
M  V30 229 H 16.9453 -1.68771 -5.62841 0
M  V30 230 H 18.4693 -0.854015 -6.04598 0
M  V30 231 H 19.8833 -2.8552 -4.97143 0
M  V30 232 H 18.2803 -3.62372 -4.78338 0
M  V30 233 H 19.3503 -3.47956 -3.3772 0
M  V30 234 N 20.6934 1.19889 -1.02296 0
M  V30 235 C 21.6034 2.26571 -0.608508 0
M  V30 236 C 22.6194 1.70299 0.356964 0
M  V30 237 O 23.7954 2.00235 0.216326 0
M  V30 238 C 20.8604 3.46677 0.0402814 0
M  V30 239 C 19.9214 4.18153 -0.97194 0
M  V30 240 C 19.1544 5.32525 -0.354016 0
M  V30 241 O 19.3774 5.64112 0.844604 0
M  V30 242 O 18.3114 5.92242 -1.07391 0
M  V30 243 H 22.1374 2.64251 -1.49684 0
M  V30 244 H 19.7224 1.26629 -0.792809 0
M  V30 245 H 21.6044 4.19475 0.402324 0
M  V30 246 H 20.2794 3.10858 0.902707 0
M  V30 247 H 19.1864 3.47499 -1.38546 0
M  V30 248 H 20.5194 4.57927 -1.80454 0
M  V30 249 N 22.1715 0.800033 1.35784 0
M  V30 250 C 23.4175 0.377901 1.99248 0
M  V30 251 C 23.7505 -1.05052 1.63333 0
M  V30 252 O 23.0255 -1.72768 0.893385 0
M  V30 253 C 23.3085 0.553922 3.55814 0
M  V30 254 C 23.1615 2.0268 4.01548 0
M  V30 255 C 24.4805 -0.0244802 4.40093 0
M  V30 256 H 21.5995 0.138782 0.723815 0
M  V30 257 H 24.2415 1.00835 1.61035 0
M  V30 258 H 22.3915 0.0172398 3.88496 0
M  V30 259 H 24.0635 2.62536 3.79305 0
M  V30 260 H 22.3065 2.5256 3.52698 0
M  V30 261 H 22.9775 2.10087 5.10458 0
M  V30 262 H 25.4535 0.433775 4.13833 0
M  V30 263 H 24.3295 0.128637 5.48749 0
M  V30 264 H 24.5905 -1.11758 4.27741 0
M  V30 265 N 23.6496 -1.47581 0.552962 0
M  V30 266 C 24.5596 -2.33743 -0.200353 0
M  V30 267 C 25.5756 -1.47928 -0.916151 0
M  V30 268 O 26.7516 -1.80865 -0.885993 0
M  V30 269 C 23.8166 -3.24536 -1.21973 0
M  V30 270 C 22.8776 -4.26238 -0.511819 0
M  V30 271 C 22.1106 -5.12693 -1.48263 0
M  V30 272 O 22.3336 -5.01525 -2.71714 0
M  V30 273 O 21.2676 -5.93375 -1.00945 0
M  V30 274 H 25.0936 -2.9945 0.506304 0
M  V30 275 H 22.6786 -1.46071 0.313622 0
M  V30 276 H 24.5606 -3.80631 -1.80827 0
M  V30 277 H 23.2356 -2.61462 -1.90839 0
M  V30 278 H 22.1426 -3.73914 0.117799 0
M  V30 279 H 23.4756 -4.92014 0.135308 0
M  V30 280 N 25.1277 -0.289203 -1.54924 0
M  V30 281 C 26.5437 0.0645403 -1.59469 0
M  V30 282 C 26.7437 1.53419 -1.30632 0
M  V30 283 O 25.7997 2.2852 -1.074 0
M  V30 284 C 27.1127 -0.32278 -2.98963 0
M  V30 285 C 28.6607 -0.270564 -3.11828 0
M  V30 286 C 29.1357 -0.632532 -4.53611 0
M  V30 287 N 30.6267 -0.584617 -4.59496 0
M  V30 288 C 31.3617 -0.837314 -5.67254 0
M  V30 289 N 30.8577 -1.15536 -6.83098 0
M  V30 290 N 32.6507 -0.765166 -5.56868 0
M  V30 291 H 24.8017 -1.24714 -1.71931 0
M  V30 292 H 27.0647 -0.504809 -0.802416 0
M  V30 293 H 26.7707 -1.34541 -3.24948 0
M  V30 294 H 26.6447 0.32944 -3.75759 0
M  V30 295 H 29.0317 0.742805 -2.85598 0
M  V30 296 H 29.1127 -0.957242 -2.37214 0
M  V30 297 H 28.7567 -1.64365 -4.80569 0
M  V30 298 H 28.6867 0.07609 -5.26545 0
M  V30 299 H 31.1777 -0.349248 -3.76283 0
M  V30 300 H 31.4907 -1.33447 -7.61191 0
M  V30 301 H 29.8357 -1.19328 -6.84679 0
M  V30 302 H 33.0267 -0.516432 -4.65243 0
M  V30 303 H 33.1997 -0.965477 -6.40767 0
M  V30 304 N 26.6058 1.57591 -0.0167156 0
M  V30 305 C 27.5688 2.08393 0.954204 0
M  V30 306 C 28.5688 0.996531 1.26198 0
M  V30 307 O 29.7588 1.25858 1.20438 0
M  V30 308 C 26.8908 2.5394 2.27436 0
M  V30 309 H 28.0838 2.95455 0.514451 0
M  V30 310 H 25.6368 1.54582 0.231089 0
M  V30 311 H 26.3718 1.70171 2.76066 0
M  V30 312 H 26.1568 3.33371 2.06412 0
M  V30 313 H 27.6468 2.93512 2.97053 0
M  V30 314 N 28.0839 -0.256276 1.55502 0
M  V30 315 C 29.0139 -1.32102 1.92539 0
M  V30 316 C 29.9949 -1.50684 0.789194 0
M  V30 317 O 31.1799 -1.63449 1.04872 0
M  V30 318 C 28.3099 -2.67752 2.21192 0
M  V30 319 C 27.2639 -2.63878 3.36975 0
M  V30 320 C 26.5899 -4.03236 3.51147 0
M  V30 321 C 27.8899 -2.21682 4.72921 0
M  V30 322 H 29.5839 -1.01351 2.81724 0
M  V30 323 H 27.1299 -0.486105 1.35547 0
M  V30 324 H 29.0829 -3.42365 2.45691 0
M  V30 325 H 27.8069 -3.0012 1.28824 0
M  V30 326 H 26.4659 -1.91722 3.12471 0
M  V30 327 H 26.1139 -4.32854 2.56216 0
M  V30 328 H 25.8139 -4.01535 4.29003 0
M  V30 329 H 27.3379 -4.79563 3.77957 0
M  V30 330 H 28.7519 -2.86023 4.96854 0
M  V30 331 H 27.1489 -2.3111 5.53812 0
M  V30 332 H 28.2189 -1.16833 4.70615 0
M  V30 333 N 29.562 -1.4872 -0.521534 0
M  V30 334 C 30.509 -1.63871 -1.62527 0
M  V30 335 C 31.479 -0.480559 -1.58996 0
M  V30 336 O 32.664 -0.705085 -1.77294 0
M  V30 337 C 29.804 -1.69227 -3.00759 0
M  V30 338 C 28.917 -2.96207 -3.14461 0
M  V30 339 C 28.052 -2.92671 -4.43303 0
M  V30 340 C 27.091 -4.14318 -4.50563 0
M  V30 341 N 26.228 -4.0881 -5.70805 0
M  V30 342 H 31.068 -2.58123 -1.48918 0
M  V30 343 H 28.605 -1.28 -0.724878 0
M  V30 344 H 30.563 -1.70314 -3.80853 0
M  V30 345 H 29.193 -0.784586 -3.1312 0
M  V30 346 H 28.245 -3.04826 -2.27564 0
M  V30 347 H 29.557 -3.86192 -3.15686 0
M  V30 348 H 28.711 -2.92206 -5.31696 0
M  V30 349 H 27.45 -2.00429 -4.44612 0
M  V30 350 H 26.455 -4.15049 -3.60575 0
M  V30 351 H 27.68 -5.07729 -4.50986 0
M  V30 352 H 25.626 -3.19394 -5.72995 0
M  V30 353 H 25.543 -4.92509 -5.7356 0
M  V30 354 H 26.811 -4.12418 -6.61462 0
M  V30 355 N 31.0401 0.771051 -1.3745 0
M  V30 356 C 31.9501 1.91538 -1.35464 0
M  V30 357 C 32.9661 1.72134 -0.254123 0
M  V30 358 O 34.1421 1.95358 -0.489626 0
M  V30 359 C 31.2071 3.26671 -1.16134 0
M  V30 360 C 30.2681 3.58723 -2.35831 0
M  V30 361 C 29.5011 4.87409 -2.17413 0
M  V30 362 O 29.7241 5.58506 -1.15876 0
M  V30 363 O 28.6581 5.18539 -3.05615 0
M  V30 364 H 32.4841 1.96165 -2.31847 0
M  V30 365 H 30.0691 0.9139 -1.18187 0
M  V30 366 H 31.9511 4.07499 -1.07345 0
M  V30 367 H 30.6261 3.22894 -0.228251 0
M  V30 368 H 29.5331 2.78127 -2.50192 0
M  V30 369 H 30.8661 3.67243 -3.27709 0
M  V30 370 N 32.5182 1.22032 0.997298 0
M  V30 371 C 33.4812 0.987909 2.06816 0
M  V30 372 C 34.4812 -0.0440084 1.6074 0
M  V30 373 O 35.6712 0.194053 1.73116 0
M  V30 374 C 32.8032 0.49132 3.37341 0
M  V30 375 H 33.9962 1.93803 2.28868 0
M  V30 376 H 31.5492 1.03838 1.16822 0
M  V30 377 H 32.2842 -0.463364 3.20973 0
M  V30 378 H 32.0692 1.23575 3.72118 0
M  V30 379 H 33.5592 0.348824 4.16141 0
M  V30 380 N 33.9963 -1.19345 1.0293 0
M  V30 381 C 34.9593 -2.20793 0.615069 0
M  V30 382 C 35.9593 -1.57553 -0.321533 0
M  V30 383 O 37.1493 -1.73862 -0.108483 0
M  V30 384 C 34.2813 -3.40754 -0.0999222 0
M  V30 385 H 35.4743 -2.58955 1.51269 0
M  V30 386 H 33.0273 -1.3303 0.820534 0
M  V30 387 H 33.7623 -3.0811 -1.01187 0
M  V30 388 H 33.5473 -3.87889 0.57309 0
M  V30 389 H 35.0373 -4.15898 -0.376645 0
M  V30 390 N 35.4744 -0.807222 -1.35358 0
M  V30 391 C 36.4044 -0.232509 -2.3234 0
M  V30 392 C 37.3854 0.642386 -1.57504 0
M  V30 393 O 38.5704 0.572526 -1.85569 0
M  V30 394 C 35.7004 0.619238 -3.41735 0
M  V30 395 C 34.6544 -0.157215 -4.27711 0
M  V30 396 C 33.9804 0.816273 -5.28433 0
M  V30 397 C 35.2804 -1.35656 -5.04376 0
M  V30 398 H 36.9744 -1.04276 -2.80654 0
M  V30 399 H 34.5204 -0.50288 -1.34934 0
M  V30 400 H 36.4734 1.03137 -4.08584 0
M  V30 401 H 35.1974 1.46239 -2.92031 0
M  V30 402 H 33.8564 -0.550525 -3.62443 0
M  V30 403 H 33.5044 1.65494 -4.74996 0
M  V30 404 H 33.2044 0.301067 -5.86828 0
M  V30 405 H 34.7284 1.22659 -5.98153 0
M  V30 406 H 36.1424 -1.01927 -5.64166 0
M  V30 407 H 34.5394 -1.8063 -5.7227 0
M  V30 408 H 35.6094 -2.14288 -4.34981 0
M  V30 409 N 36.9525 1.47285 -0.560781 0
M  V30 410 C 37.9005 2.31756 0.197942 0
M  V30 411 C 38.8945 1.43146 0.905854 0
M  V30 412 O 40.1005 1.59891 0.826733 0
M  V30 413 H 36.4755 0.747438 0.0827049 0
M  V30 414 H 38.4465 2.9359 -0.533629 0
M  V30 415 C 37.1955 3.25874 1.21249 0
M  V30 416 H 36.5185 3.94023 0.67719 0
M  V30 417 H 37.9585 3.87803 1.71419 0
M  V30 418 C 36.4175 2.49651 2.26221 0
M  V30 419 O 36.9475 2.24355 3.33208 0
M  V30 420 N 35.1535 2.10597 2.00243 0
M  V30 421 H 34.7005 2.31369 1.13252 0
M  V30 422 H 34.6585 1.59913 2.70694 0
M  V30 423 N 38.4306 0.297415 1.54768 0
M  V30 424 C 39.8416 -0.195947 1.85669 0
M  V30 425 C 40.1926 -1.53707 1.21937 0
M  V30 426 O 39.3176 -2.10164 0.515754 0
M  V30 427 C 39.9126 -0.362318 3.36857 0
M  V30 428 C 38.4716 -0.799901 3.67802 0
M  V30 429 C 37.6186 0.0938578 2.77141 0
M  V30 430 H 40.5696 0.518538 1.4999 0
M  V30 431 H 40.5906 -1.19745 3.61167 0
M  V30 432 H 40.1026 0.613921 3.83214 0
M  V30 433 H 38.2036 -1.78682 3.26961 0
M  V30 434 H 38.3166 -0.621773 4.75048 0
M  V30 435 H 36.6806 -0.426254 2.51108 0
M  V30 436 H 37.4636 1.06639 3.26318 0
M  V30 437 N 39.9087 -1.5758 0.0250728 0
M  V30 438 C 40.8387 -2.13007 -0.956575 0
M  V30 439 C 41.8197 -1.0452 -1.342 0
M  V30 440 O 43.0047 -1.32332 -1.42133 0
M  V30 441 C 40.1347 -2.65386 -2.24026 0
M  V30 442 C 39.0887 -3.78623 -1.99571 0
M  V30 443 C 38.4147 -4.17414 -3.3417 0
M  V30 444 C 39.7147 -5.04867 -1.33814 0
M  V30 445 H 41.4087 -2.9528 -0.494991 0
M  V30 446 H 38.9547 -1.42042 -0.236651 0
M  V30 447 H 40.9077 -3.02794 -2.93076 0
M  V30 448 H 39.6317 -1.80268 -2.72343 0
M  V30 449 H 38.2907 -3.41646 -1.32941 0
M  V30 450 H 37.9387 -3.29284 -3.80238 0
M  V30 451 H 37.6387 -4.93719 -3.18615 0
M  V30 452 H 39.1627 -4.57402 -4.04495 0
M  V30 453 H 40.5767 -5.39888 -1.92857 0
M  V30 454 H 38.9737 -5.86144 -1.28669 0
M  V30 455 H 40.0437 -4.83904 -0.310561 0
M  V30 456 N 41.3868 0.248026 -1.55636 0
M  V30 457 C 42.8028 0.596483 -1.48035 0
M  V30 458 C 43.0028 1.88386 -0.715039 0
M  V30 459 O 42.0588 2.51319 -0.243944 0
M  V30 460 C 43.3718 0.700258 -2.92433 0
M  V30 461 C 44.9198 0.792659 -3.02797 0
M  V30 462 C 45.3948 0.928005 -4.485 0
M  V30 463 N 46.8858 0.992903 -4.52433 0
M  V30 464 C 47.6208 1.11687 -5.62418 0
M  V30 465 N 47.1168 1.20645 -6.82214 0
M  V30 466 N 48.9098 1.14994 -5.50212 0
M  V30 467 H 41.0608 -0.597109 -2.03834 0
M  V30 468 H 43.3238 -0.205925 -0.925364 0
M  V30 469 H 43.0298 -0.175658 -3.51261 0
M  V30 470 H 42.9038 1.57255 -3.42857 0
M  V30 471 H 45.2908 1.65903 -2.4405 0
M  V30 472 H 45.3718 -0.104762 -2.55585 0
M  V30 473 H 45.0158 0.0661971 -5.07857 0
M  V30 474 H 44.9458 1.84045 -4.93391 0
M  V30 475 H 47.4368 0.935064 -3.66149 0
M  V30 476 H 47.7498 1.30008 -7.61786 0
M  V30 477 H 46.0948 1.17605 -6.84977 0
M  V30 478 H 49.2858 1.07643 -4.55555 0
M  V30 479 H 49.4588 1.24311 -6.35965 0
M  V30 480 N 42.8649 1.48995 0.513639 0
M  V30 481 C 43.8149 1.61127 1.61314 0
M  V30 482 C 44.7989 0.467521 1.53958 0
M  V30 483 O 45.9909 0.719826 1.61702 0
M  V30 484 C 43.1199 1.66937 2.99978 0
M  V30 485 C 42.2059 2.86847 3.12377 0
M  V30 486 N 42.5969 4.11078 2.94701 0
M  V30 487 C 40.8949 2.84521 3.43459 0
M  V30 488 C 41.5959 4.91615 3.10949 0
M  V30 489 N 40.5719 4.24739 3.3926 0
M  V30 490 H 44.3739 2.54909 1.46282 0
M  V30 491 H 41.8879 1.45593 0.719483 0
M  V30 492 H 43.8849 1.73725 3.78979 0
M  V30 493 H 42.5449 0.742831 3.16089 0
M  V30 494 H 43.5559 4.41258 2.71131 0
M  V30 495 H 40.2329 2.01192 3.65825 0
M  V30 496 H 41.6229 6.00264 3.01882 0
M  V30 497 N 44.343 -0.763751 1.37857 0
M  V30 498 C 45.306 -1.85889 1.34081 0
M  V30 499 C 46.306 -1.58949 0.243277 0
M  V30 500 O 47.496 -1.66882 0.499589 0
M  V30 501 C 44.628 -3.23176 1.08489 0
M  V30 502 H 45.821 -1.90648 2.31502 0
M  V30 503 H 43.374 -0.964367 1.23003 0
M  V30 504 H 44.109 -3.24091 0.116318 0
M  V30 505 H 43.894 -3.44124 1.8794 0
M  V30 506 H 45.384 -4.03254 1.08517 0
M  V30 507 N 45.8211 -1.22559 -0.990812 0
M  V30 508 C 47.0491 -1.07779 -1.76611 0
M  V30 509 C 47.4641 0.371513 -1.85109 0
M  V30 510 O 46.8211 1.25737 -1.32274 0
M  V30 511 C 46.8721 -1.68512 -3.19822 0
M  V30 512 O 46.5931 -3.07774 -3.1178 0
M  V30 513 C 48.0941 -1.59035 -4.13791 0
M  V30 514 H 45.3141 -0.377729 -0.554583 0
M  V30 515 H 47.8581 -1.62195 -1.24551 0
M  V30 516 H 46.0131 -1.18154 -3.68942 0
M  V30 517 H 46.4271 -3.37062 -4.01858 0
M  V30 518 H 47.9011 -2.0625 -5.1202 0
M  V30 519 H 48.3781 -0.547273 -4.35777 0
M  V30 520 H 48.9841 -2.08709 -3.70568 0
M  V30 521 N 47.2992 1.18797 -1.03562 0
M  V30 522 C 48.2092 2.25913 -0.632505 0
M  V30 523 C 49.2252 1.70668 0.338882 0
M  V30 524 O 50.4012 2.00453 0.195076 0
M  V30 525 C 47.4662 3.467 0.00350942 0
M  V30 526 C 46.5272 4.17098 -1.01624 0
M  V30 527 C 45.7602 5.32119 -0.410478 0
M  V30 528 O 45.9832 5.64976 0.784725 0
M  V30 529 O 44.9172 5.9107 -1.13667 0
M  V30 530 H 48.7432 2.62648 -1.52478 0
M  V30 531 H 46.3282 1.25781 -0.806195 0
M  V30 532 H 48.2102 4.19878 0.35781 0
M  V30 533 H 46.8852 3.11798 0.869686 0
M  V30 534 H 45.7922 3.4601 -1.42224 0
M  V30 535 H 47.1252 4.55987 -1.85301 0
M  V30 536 N 48.7773 0.814389 1.34928 0
M  V30 537 C 49.6873 0.231978 2.3345 0
M  V30 538 C 50.7033 -0.629139 1.62228 0
M  V30 539 O 51.8793 -0.539052 1.94052 0
M  V30 540 C 48.9443 -0.603482 3.41407 0
M  V30 541 C 48.0053 0.279037 4.28392 0
M  V30 542 C 47.2383 -0.516643 5.31193 0
M  V30 543 O 47.4613 -1.75068 5.4287 0
M  V30 544 O 46.3953 0.0965652 6.01823 0
M  V30 545 H 50.2213 1.04721 2.85074 0
M  V30 546 H 47.8063 0.576343 1.37836 0
M  V30 547 H 49.6883 -1.07908 4.0735 0
M  V30 548 H 48.3633 -1.39618 2.92042 0
M  V30 549 H 47.2703 0.801948 3.65403 0
M  V30 550 H 48.6033 1.03588 4.81176 0
M  V30 551 N 50.2554 -1.46986 0.568584 0
M  V30 552 C 51.1854 -2.32946 -0.160753 0
M  V30 553 C 52.1664 -1.44487 -0.897631 0
M  V30 554 O 53.3514 -1.73327 -0.875867 0
M  V30 555 C 50.4814 -3.26494 -1.18403 0
M  V30 556 C 49.4354 -4.24282 -0.562895 0
M  V30 557 C 48.7614 -5.07236 -1.69163 0
M  V30 558 C 50.0614 -5.19989 0.490761 0
M  V30 559 H 51.7554 -2.94175 0.556916 0
M  V30 560 H 49.3014 -1.4146 0.26927 0
M  V30 561 H 51.2544 -3.85477 -1.70251 0
M  V30 562 H 49.9784 -2.63343 -1.93179 0
M  V30 563 H 48.6374 -3.66541 -0.0656164 0
M  V30 564 H 48.2854 -4.4048 -2.42871 0
M  V30 565 H 47.9854 -5.7345 -1.28174 0
M  V30 566 H 49.5094 -5.6908 -2.21314 0
M  V30 567 H 50.9234 -5.73271 0.0579047 0
M  V30 568 H 49.3204 -5.94469 0.820165 0
M  V30 569 H 50.3904 -4.64777 1.3824 0
M  V30 570 N 51.7335 -0.305618 -1.54608 0
M  V30 571 C 52.9805 0.302298 -2.00231 0
M  V30 572 C 53.3085 1.5354 -1.19398 0
M  V30 573 O 52.5635 1.93973 -0.259423 0
M  V30 574 C 52.8625 0.698983 -3.50498 0
M  V30 575 C 52.5285 -0.432903 -4.48817 0
M  V30 576 C 51.1905 -0.743622 -4.75419 0
M  V30 577 C 53.5425 -1.19409 -5.07337 0
M  V30 578 C 50.8705 -1.81857 -5.57804 0
M  V30 579 C 53.2225 -2.25899 -5.90891 0
M  V30 580 C 51.8865 -2.57572 -6.15803 0
M  V30 581 H 51.1565 0.110619 -0.732697 0
M  V30 582 H 53.8035 -0.425674 -1.86709 0
M  V30 583 H 52.1085 1.50711 -3.61654 0
M  V30 584 H 53.8055 1.1806 -3.83227 0
M  V30 585 H 50.3955 -0.18063 -4.28219 0
M  V30 586 H 54.5795 -0.967295 -4.86782 0
M  V30 587 H 49.8355 -2.06864 -5.75341 0
M  V30 588 H 54.0095 -2.85335 -6.35261 0
M  V30 589 H 51.6365 -3.40998 -6.7943 0
M  V30 590 N 53.2116 1.57565 -0.0334293 0
M  V30 591 C 54.4596 1.91598 0.642999 0
M  V30 592 C 54.7806 0.910847 1.7242 0
M  V30 593 O 54.0506 -0.0469931 1.95844 0
M  V30 594 H 52.6306 0.707228 0.240496 0
M  V30 595 H 55.2926 1.94726 -0.0822488 0
M  V30 596 H 54.3886 2.92336 1.09298 0
M  V30 597 N 54.6897 -0.239769 1.55765 0
M  V30 598 C 55.9667 -0.990056 1.68693 0
M  V30 599 C 56.3467 -2.03107 0.5754 0
M  V30 600 O 55.6947 -2.24604 -0.42017 0
M  V30 601 C 55.9047 -1.61696 3.09282 0
M  V30 602 C 57.2527 -2.11613 3.6811 0
M  V30 603 O 58.2767 -1.71624 3.12127 0
M  V30 604 O 57.1357 -2.85057 4.66267 0
M  V30 605 H 54.2297 -0.461299 0.686391 0
M  V30 606 H 56.7757 -0.232991 1.68093 0
M  V30 607 H 55.5477 -0.864357 3.81634 0
M  V30 608 H 55.1707 -2.44005 3.13923 0
M  V30 609 N 56.1678 -1.49265 -0.50573 0
M  V30 610 C 57.4148 -1.58513 -1.26015 0
M  V30 611 C 57.7428 -0.26972 -1.92621 0
M  V30 612 O 56.9978 0.741997 -1.81088 0
M  V30 613 C 57.2968 -2.69008 -2.35308 0
M  V30 614 C 56.9628 -4.10662 -1.86192 0
M  V30 615 C 55.6248 -4.49212 -1.72516 0
M  V30 616 C 57.9768 -4.99336 -1.49375 0
M  V30 617 C 55.3048 -5.74214 -1.20394 0
M  V30 618 C 57.6568 -6.24852 -0.987072 0
M  V30 619 C 56.3208 -6.62236 -0.836669 0
M  V30 620 H 55.5908 -0.580041 -0.461122 0
M  V30 621 H 58.2378 -1.83078 -0.561665 0
M  V30 622 H 56.5428 -2.38396 -3.10926 0
M  V30 623 H 58.2398 -2.73373 -2.93374 0
M  V30 624 H 54.8298 -3.8023 -1.97795 0
M  V30 625 H 59.0138 -4.70212 -1.5879 0
M  V30 626 H 54.2698 -6.01883 -1.07458 0
M  V30 627 H 58.4438 -6.92944 -0.692983 0
M  V30 628 H 56.0708 -7.58979 -0.430607 0
M  V30 629 N 57.6459 0.756429 -1.3826 0
M  V30 630 C 58.5759 1.88374 -1.37976 0
M  V30 631 C 59.5569 1.68311 -0.246082 0
M  V30 632 O 60.7419 1.88944 -0.44874 0
M  V30 633 C 57.8719 3.25864 -1.20125 0
M  V30 634 C 56.8259 3.60523 -2.30666 0
M  V30 635 C 56.1519 4.9672 -1.97923 0
M  V30 636 C 57.4519 3.65692 -3.72916 0
M  V30 637 H 59.1459 1.88869 -2.32312 0
M  V30 638 H 56.6919 0.907272 -1.11824 0
M  V30 639 H 58.6449 4.0438 -1.18552 0
M  V30 640 H 57.3689 3.25841 -0.222498 0
M  V30 641 H 56.0279 2.84324 -2.3142 0
M  V30 642 H 55.6759 4.93253 -0.985393 0
M  V30 643 H 55.3759 5.20878 -2.71955 0
M  V30 644 H 56.8999 5.77618 -1.97964 0
M  V30 645 H 58.3139 4.34328 -3.74208 0
M  V30 646 H 56.7109 4.01358 -4.4613 0
M  V30 647 H 57.7809 2.65987 -4.05436 0
M  V30 648 N 59.124 1.23083 0.984299 0
M  V30 649 C 60.071 1.00854 2.07598 0
M  V30 650 C 61.041 -0.0726709 1.65941 0
M  V30 651 O 62.226 0.0786535 1.90638 0
M  V30 652 C 59.366 0.601645 3.39815 0
M  V30 653 C 58.479 1.75456 3.94765 0
M  V30 654 C 57.614 1.29482 5.15177 0
M  V30 655 C 56.653 2.41873 5.62284 0
M  V30 656 N 55.79 1.96885 6.73929 0
M  V30 657 H 60.63 1.943 2.25946 0
M  V30 658 H 58.167 0.968001 1.10762 0
M  V30 659 H 60.125 0.346854 4.15756 0
M  V30 660 H 58.755 -0.295803 3.21442 0
M  V30 661 H 57.807 2.12346 3.15616 0
M  V30 662 H 59.119 2.59965 4.25699 0
M  V30 663 H 58.273 0.997923 5.98437 0
M  V30 664 H 57.012 0.420046 4.85888 0
M  V30 665 H 56.017 2.72342 4.77608 0
M  V30 666 H 57.242 3.29881 5.93595 0
M  V30 667 H 55.188 1.11782 6.46406 0
M  V30 668 H 55.105 2.74956 7.04227 0
M  V30 669 H 56.373 1.70289 7.60672 0
M  V30 670 N 60.6021 -1.18246 1.0419 0
M  V30 671 C 61.5351 -2.20746 0.578474 0
M  V30 672 C 62.5131 -1.57912 -0.387624 0
M  V30 673 O 63.6971 -1.86071 -0.301634 0
M  V30 674 C 60.8241 -3.38346 -0.154762 0
M  V30 675 C 59.8701 -4.19587 0.764782 0
M  V30 676 S 60.7031 -4.86014 2.24835 0
M  V30 677 C 61.8591 -6.07012 1.526 0
M  V30 678 H 62.0921 -2.59715 1.44691 0
M  V30 679 H 59.6251 -1.287 0.85297 0
M  V30 680 H 61.5831 -4.065 -0.571641 0
M  V30 681 H 60.2441 -2.97786 -0.999105 0
M  V30 682 H 59.4371 -5.03611 0.197976 0
M  V30 683 H 59.0391 -3.56818 1.12057 0
M  V30 684 H 61.3311 -6.72523 0.819733 0
M  V30 685 H 62.2741 -6.68202 2.34333 0
M  V30 686 H 62.6821 -5.55249 1.01779 0
M  V30 687 N 62.0802 -0.821533 -1.34494 0
M  V30 688 C 62.9902 -0.244355 -2.33324 0
M  V30 689 C 64.0062 0.620527 -1.62559 0
M  V30 690 O 65.1822 0.528754 -1.94335 0
M  V30 691 C 62.2472 0.585368 -3.41723 0
M  V30 692 C 61.3082 -0.301752 -4.28238 0
M  V30 693 C 60.5412 0.488466 -5.3146 0
M  V30 694 O 60.7642 1.72186 -5.4379 0
M  V30 695 O 59.6982 -0.12848 -6.01763 0
M  V30 696 H 63.5242 -1.06231 -2.84515 0
M  V30 697 H 61.1092 -0.583645 -1.37528 0
M  V30 698 H 62.9912 1.05747 -4.07916 0
M  V30 699 H 61.6662 1.38068 -2.92778 0
M  V30 700 H 60.5732 -0.821315 -3.64973 0
M  V30 701 H 61.9062 -1.06138 -4.8062 0
M  V30 702 N 63.5583 1.46682 -0.576371 0
M  V30 703 C 64.5063 2.31953 0.17335 0
M  V30 704 C 65.5003 1.44098 0.89062 0
M  V30 705 O 66.7063 1.60759 0.809728 0
M  V30 706 H 63.0813 0.748273 0.0747727 0
M  V30 707 H 65.0523 2.93007 -0.564738 0
M  V30 708 C 63.8013 3.27142 1.17786 0
M  V30 709 H 63.1243 3.94719 0.635361 0
M  V30 710 H 64.5643 3.896 1.67296 0
M  V30 711 C 63.0233 2.52036 2.23561 0
M  V30 712 O 63.5533 2.27877 3.3081 0
M  V30 713 N 61.7593 2.12709 1.97998 0
M  V30 714 H 61.3063 2.32557 1.10792 0
M  V30 715 H 61.2643 1.62776 2.68982 0
M  V30 716 N 65.0364 0.313813 1.54444 0
M  V30 717 C 66.2854 -0.292519 1.99568 0
M  V30 718 C 66.5984 -1.54011 1.20582 0
M  V30 719 O 67.8044 -2.22183 1.56035 0
M  V30 720 C 66.2604 -0.571752 3.55329 0
M  V30 721 C 65.8684 0.658229 4.43138 0
M  V30 722 C 67.6124 -1.13857 4.08946 0
M  V30 723 C 65.5194 0.351439 5.90355 0
M  V30 724 H 64.4494 -0.113079 0.745472 0
M  V30 725 H 67.1004 0.424518 1.78522 0
M  V30 726 H 65.4824 -1.34872 3.72325 0
M  V30 727 H 66.6564 1.43403 4.37918 0
M  V30 728 H 64.9714 1.14458 4.0036 0
M  V30 729 H 67.5684 -1.38257 5.16516 0
M  V30 730 H 67.9114 -2.08489 3.6033 0
M  V30 731 H 68.4444 -0.423015 3.95544 0
M  V30 732 H 65.1834 1.26667 6.43145 0
M  V30 733 H 64.7034 -0.386842 5.98551 0
M  V30 734 H 66.3824 -0.0423134 6.46986 0
M  V30 735 N 66.5145 -1.57545 0.0417849 0
M  V30 736 C 67.7425 -1.96624 -0.643928 0
M  V30 737 C 68.1575 -0.918897 -1.64929 0
M  V30 738 O 67.5145 0.0979323 -1.82237 0
M  V30 739 C 67.5655 -3.35781 -1.33914 0
M  V30 740 O 67.2865 -4.365 -0.374048 0
M  V30 741 C 68.7875 -3.89566 -2.1155 0
M  V30 742 H 66.0075 -0.647316 -0.176702 0
M  V30 743 H 68.5515 -2.04229 0.105304 0
M  V30 744 H 66.7065 -3.29357 -2.03968 0
M  V30 745 H 67.1205 -5.17248 -0.869179 0
M  V30 746 H 68.5945 -4.89242 -2.55628 0
M  V30 747 H 69.0715 -3.24488 -2.9598 0
M  V30 748 H 69.6775 -3.99298 -1.46427 0
M  V30 749 N 67.9926 0.231505 -1.5589 0
M  V30 750 C 68.9026 1.308 -1.94752 0
M  V30 751 C 69.9186 1.51826 -0.849989 0
M  V30 752 O 71.0946 1.6515 -1.15271 0
M  V30 753 C 68.1596 2.63968 -2.24771 0
M  V30 754 C 67.2206 2.51331 -3.48039 0
M  V30 755 C 66.4536 3.78148 -3.76616 0
M  V30 756 O 66.6766 4.80722 -3.07022 0
M  V30 757 O 65.6106 3.75857 -4.70123 0
M  V30 758 H 69.4366 1.0083 -2.86474 0
M  V30 759 H 67.0216 0.433547 -1.42971 0
M  V30 760 H 68.9036 3.42633 -2.45318 0
M  V30 761 H 67.5786 2.9364 -1.36225 0
M  V30 762 H 66.4856 1.709 -3.32782 0
M  V30 763 H 67.8186 2.26601 -4.36936 0
M  V30 764 N 69.4707 1.49531 0.497807 0
M  V30 765 C 70.7197 1.58426 1.24837 0
M  V30 766 C 71.0327 0.277643 1.93619 0
M  V30 767 O 72.2387 0.24517 2.70391 0
M  V30 768 C 70.6947 2.79538 2.26686 0
M  V30 769 C 70.3027 4.16971 1.63828 0
M  V30 770 C 72.0467 2.97764 3.0255 0
M  V30 771 C 69.9537 5.29301 2.63807 0
M  V30 772 H 68.8837 0.58989 0.469623 0
M  V30 773 H 71.5347 1.75923 0.521857 0
M  V30 774 H 69.9167 2.55542 3.02514 0
M  V30 775 H 71.0907 4.51116 0.939711 0
M  V30 776 H 69.4057 4.04129 1.00342 0
M  V30 777 H 72.0027 3.78856 3.77323 0
M  V30 778 H 72.3457 2.08448 3.60354 0
M  V30 779 H 72.8787 3.21815 2.33838 0
M  V30 780 H 69.6177 6.20687 2.10779 0
M  V30 781 H 69.1377 4.99606 3.31894 0
M  V30 782 H 70.8167 5.58768 3.2617 0
M  V30 783 N 70.9488 -0.749086 1.3866 0
M  V30 784 C 72.1888 -1.52112 1.36534 0
M  V30 785 C 72.5528 -1.91951 -0.0432316 0
M  V30 786 O 73.7538 -2.68132 -0.189396 0
M  V30 787 C 72.0248 -2.73704 2.29828 0
M  V30 788 S 73.5838 -3.63519 2.45763 0
M  V30 789 H 70.4018 -0.520482 0.484375 0
M  V30 790 H 73.0038 -0.878963 1.74627 0
M  V30 791 H 71.7078 -2.42552 3.31054 0
M  V30 792 H 71.2388 -3.4286 1.929 0
M  V30 793 H 73.2538 -4.66712 1.68505 0
M  V30 794 N 72.4269 -1.23603 -0.977757 0
M  V30 795 C 73.6569 -1.09487 -1.75203 0
M  V30 796 C 74.0649 0.356321 -1.85814 0
M  V30 797 O 73.4079 1.25816 -1.33851 0
M  V30 798 C 73.4699 -1.64905 -3.19447 0
M  V30 799 C 73.1339 -3.13688 -3.32338 0
M  V30 800 C 74.1309 -4.10953 -3.18455 0
M  V30 801 C 71.8159 -3.53449 -3.56902 0
M  V30 802 C 73.8099 -5.45962 -3.28944 0
M  V30 803 C 71.4969 -4.88602 -3.6703 0
M  V30 804 C 72.4949 -5.84668 -3.53062 0
M  V30 805 O 72.1829 -7.17365 -3.62826 0
M  V30 806 H 71.9149 -0.38367 -0.556573 0
M  V30 807 H 74.4689 -1.6398 -1.23693 0
M  V30 808 H 72.6989 -1.04835 -3.72218 0
M  V30 809 H 74.3879 -1.46226 -3.78646 0
M  V30 810 H 75.1539 -3.81577 -2.99372 0
M  V30 811 H 71.0329 -2.79188 -3.66844 0
M  V30 812 H 74.5769 -6.20925 -3.17958 0
M  V30 813 H 70.4739 -5.17653 -3.85623 0
M  V30 814 H 71.2419 -7.2515 -3.79605 0
M  V30 815 N 73.905 1.17692 -1.04816 0
M  V30 816 C 74.853 2.23632 -0.63966 0
M  V30 817 C 75.847 1.6601 0.337219 0
M  V30 818 O 77.053 1.78844 0.203693 0
M  V30 819 H 73.428 0.727949 -0.188665 0
M  V30 820 H 75.399 2.55387 -1.54337 0
M  V30 821 C 74.148 3.4769 -0.0264051 0
M  V30 822 H 73.471 3.92331 -0.769164 0
M  V30 823 H 74.911 4.23418 0.222098 0
M  V30 824 C 73.37 3.13807 1.22584 0
M  V30 825 O 73.9 3.28236 2.31569 0
M  V30 826 N 72.106 2.68065 1.12202 0
M  V30 827 H 71.653 2.56525 0.235133 0
M  V30 828 H 71.611 2.45767 1.96076 0
M  V30 829 N 75.3831 0.828654 1.34056 0
M  V30 830 C 76.6311 0.41863 1.97717 0
M  V30 831 C 76.9521 -1.02314 1.66002 0
M  V30 832 O 76.2221 -1.71119 0.953683 0
M  V30 833 H 74.8021 0.151809 0.731412 0
M  V30 834 H 77.4641 1.05936 1.63596 0
M  V30 835 H 76.5601 0.542318 3.07352 0
M  V30 836 N 76.8612 -1.46375 0.584142 0
M  V30 837 C 77.8092 -2.32042 -0.161047 0
M  V30 838 C 78.8032 -1.44569 -0.882966 0
M  V30 839 O 80.0092 -1.61186 -0.801191 0
M  V30 840 H 76.3842 -0.748659 -0.0708033 0
M  V30 841 H 78.3552 -2.92704 0.580269 0
M  V30 842 C 77.1042 -3.27762 -1.1605 0
M  V30 843 H 76.4272 -3.95051 -0.614419 0
M  V30 844 H 77.8672 -3.90481 -1.65228 0
M  V30 845 C 76.3262 -2.53218 -2.22221 0
M  V30 846 O 76.8562 -2.29628 -3.29597 0
M  V30 847 N 75.0622 -2.13756 -1.96868 0
M  V30 848 H 74.6092 -2.33142 -1.09557 0
M  V30 849 H 74.5672 -1.642 -2.68115 0
M  V30 850 N 78.3393 -0.321999 -1.54275 0
M  V30 851 C 79.2863 0.544664 -2.24281 0
M  V30 852 C 80.2563 1.1129 -1.23303 0
M  V30 853 O 81.4413 1.15354 -1.51981 0
M  V30 854 C 78.5813 1.70045 -3.00298 0
M  V30 855 C 77.6943 1.16159 -4.1609 0
M  V30 856 C 76.8293 2.28293 -4.79641 0
M  V30 857 C 75.8683 1.71648 -5.8754 0
M  V30 858 N 75.0053 2.77438 -6.44959 0
M  V30 859 H 79.8453 -0.0588907 -2.97942 0
M  V30 860 H 77.3823 -0.0408345 -1.47043 0
M  V30 861 H 79.3403 2.38054 -3.42616 0
M  V30 862 H 77.9703 2.27531 -2.28975 0
M  V30 863 H 77.0223 0.373092 -3.78566 0
M  V30 864 H 78.3343 0.707087 -4.93763 0
M  V30 865 H 77.4883 3.0421 -5.2492 0
M  V30 866 H 76.2273 2.77079 -4.01346 0
M  V30 867 H 75.2323 0.942282 -5.41665 0
M  V30 868 H 76.4573 1.23741 -6.67731 0
M  V30 869 H 74.4033 3.25519 -5.69538 0
M  V30 870 H 74.3203 2.36547 -7.1804 0
M  V30 871 H 75.5883 3.53189 -6.94894 0
M  V30 872 N 79.8174 1.5752 -0.0501392 0
M  V30 873 C 81.0634 1.92936 0.624798 0
M  V30 874 C 81.3964 0.928685 1.70555 0
M  V30 875 O 80.6714 -0.0454779 1.94447 0
M  V30 876 C 80.9544 3.38737 1.22185 0
M  V30 877 C 80.8074 4.49552 0.149218 0
M  V30 878 C 82.1264 3.84913 2.13378 0
M  V30 879 H 79.2454 0.701604 0.225657 0
M  V30 880 H 81.8874 1.89671 -0.111693 0
M  V30 881 H 80.0374 3.4165 1.84953 0
M  V30 882 H 81.7094 4.58768 -0.482648 0
M  V30 883 H 79.9524 4.30638 -0.522841 0
M  V30 884 H 80.6234 5.48653 0.606966 0
M  V30 885 H 83.0994 3.8387 1.60572 0
M  V30 886 H 81.9754 4.87584 2.52097 0
M  V30 887 H 82.2364 3.21611 3.03346 0
M  V30 888 N 81.2955 -0.223234 1.56011 0
M  V30 889 C 82.5415 -0.949279 1.79211 0
M  V30 890 C 82.8745 -1.84054 0.619494 0
M  V30 891 O 82.1495 -1.90726 -0.381317 0
M  V30 892 C 82.4325 -1.78965 3.12479 0
M  V30 893 C 82.2855 -0.924997 4.40186 0
M  V30 894 C 83.6045 -2.76774 3.42175 0
M  V30 895 H 80.7235 -0.343676 0.651963 0
M  V30 896 H 83.3655 -0.218253 1.88742 0
M  V30 897 H 81.5155 -2.41291 3.04485 0
M  V30 898 H 83.1875 -0.318615 4.60198 0
M  V30 899 H 81.4305 -0.230344 4.33188 0
M  V30 900 H 82.1015 -1.54735 5.29869 0
M  V30 901 H 84.5775 -2.24584 3.50287 0
M  V30 902 H 83.4535 -3.32678 4.36597 0
M  V30 903 H 83.7145 -3.54429 2.64258 0
M  V30 904 N 82.7736 -1.49793 -0.48987 0
M  V30 905 C 84.0196 -1.61049 -1.24236 0
M  V30 906 C 84.3746 -0.298412 -1.90072 0
M  V30 907 O 83.6676 0.702262 -1.78266 0
M  V30 908 C 83.8616 -2.71488 -2.32441 0
M  V30 909 C 83.6906 -4.13308 -1.77218 0
M  V30 910 C 82.4606 -4.79955 -1.58023 0
M  V30 911 C 84.6586 -4.98176 -1.27772 0
M  V30 912 N 82.6406 -6.06052 -0.978465 0
M  V30 913 C 84.0116 -6.14843 -0.798 0
M  V30 914 C 86.0666 -4.84091 -1.16449 0
M  V30 915 C 84.7696 -7.18975 -0.216245 0
M  V30 916 C 86.7956 -5.88382 -0.596698 0
M  V30 917 C 86.1576 -7.04285 -0.127262 0
M  V30 918 H 82.2566 -0.643611 -0.444172 0
M  V30 919 H 84.8406 -1.86842 -0.54754 0
M  V30 920 H 83.0116 -2.47449 -2.99372 0
M  V30 921 H 84.7436 -2.72205 -2.99477 0
M  V30 922 H 81.4986 -4.36936 -1.82712 0
M  V30 923 H 81.9226 -6.73407 -0.696534 0
M  V30 924 H 86.5646 -3.94786 -1.5134 0
M  V30 925 H 84.2826 -8.0797 0.144903 0
M  V30 926 H 87.8686 -5.79545 -0.511716 0
M  V30 927 H 86.7486 -7.83606 0.30523 0
M  V30 928 N 84.2517 0.741722 -1.39055 0
M  V30 929 C 85.4977 1.50336 -1.36113 0
M  V30 930 C 85.8307 1.94148 0.0450796 0
M  V30 931 O 85.1057 1.66301 1.00868 0
M  V30 932 C 85.3887 2.74773 -2.32749 0
M  V30 933 C 85.2417 2.37023 -3.82283 0
M  V30 934 C 86.5607 3.76846 -2.27322 0
M  V30 935 H 83.6797 0.545351 -0.495743 0
M  V30 936 H 86.3217 0.848624 -1.69995 0
M  V30 937 H 84.4717 3.30639 -2.03986 0
M  V30 938 H 86.1437 1.8684 -4.21768 0
M  V30 939 H 84.3867 1.69334 -3.99385 0
M  V30 940 H 85.0577 3.26104 -4.45376 0
M  V30 941 H 87.5337 3.30548 -2.5274 0
M  V30 942 H 86.4097 4.6159 -2.97028 0
M  V30 943 H 86.6707 4.23286 -1.27599 0
M  V30 944 N 85.7298 1.2412 0.971189 0
M  V30 945 C 86.6598 1.05508 2.08304 0
M  V30 946 C 87.6408 -0.0308864 1.70072 0
M  V30 947 O 88.8258 0.135521 1.93727 0
M  V30 948 C 85.9558 0.655365 3.4106 0
M  V30 949 C 84.9098 1.68971 3.93234 0
M  V30 950 C 84.2358 1.14516 5.22293 0
M  V30 951 C 85.5358 3.08487 4.21465 0
M  V30 952 H 87.2298 1.98507 2.24132 0
M  V30 953 H 84.7758 0.955821 1.07704 0
M  V30 954 H 86.7288 0.51217 4.18276 0
M  V30 955 H 85.4528 -0.31032 3.25122 0
M  V30 956 H 84.1118 1.82106 3.18171 0
M  V30 957 H 83.7598 0.170189 5.02712 0
M  V30 958 H 83.4598 1.83635 5.58168 0
M  V30 959 H 84.9838 1.01401 6.02121 0
M  V30 960 H 86.3978 2.98601 4.89398 0
M  V30 961 H 84.7948 3.74926 4.68562 0
M  V30 962 H 85.8648 3.56787 3.28376 0
M  V30 963 N 87.2079 -1.17134 1.05439 0
M  V30 964 C 88.1549 -2.21235 0.657539 0
M  V30 965 C 89.1249 -1.62551 -0.341543 0
M  V30 966 O 90.3099 -1.89379 -0.232393 0
M  V30 967 C 87.4499 -3.45076 0.0410575 0
M  V30 968 C 86.5629 -4.18042 1.08927 0
M  V30 969 C 85.6979 -5.29376 0.439848 0
M  V30 970 C 84.7369 -5.94132 1.4722 0
M  V30 971 N 83.8739 -6.96975 0.846756 0
M  V30 972 H 88.7139 -2.54534 1.54972 0
M  V30 973 H 86.2509 -1.25028 0.775006 0
M  V30 974 H 88.2089 -4.15862 -0.33383 0
M  V30 975 H 86.8389 -3.12353 -0.814568 0
M  V30 976 H 85.8909 -3.45945 1.58196 0
M  V30 977 H 87.2029 -4.62306 1.87282 0
M  V30 978 H 86.3569 -6.06699 0.0115125 0
M  V30 979 H 85.0959 -4.86251 -0.375656 0
M  V30 980 H 84.1009 -5.15538 1.91052 0
M  V30 981 H 85.3259 -6.39337 2.28965 0
M  V30 982 H 83.2719 -6.5598 0.0518075 0
M  V30 983 H 83.1889 -7.39565 1.5678 0
M  V30 984 H 84.4569 -7.78239 0.443277 0
M  V30 985 N 88.686 -0.835752 -1.33615 0
M  V30 986 C 89.634 -0.255238 -2.31195 0
M  V30 987 C 90.628 0.61107 -1.57995 0
M  V30 988 O 91.834 0.500979 -1.72888 0
M  V30 989 H 88.209 -0.0638085 -0.749288 0
M  V30 990 H 90.18 -1.09283 -2.77669 0
M  V30 991 C 88.929 0.55754 -3.43201 0
M  V30 992 H 88.252 -0.0997553 -3.99676 0
M  V30 993 H 89.692 0.929622 -4.13683 0
M  V30 994 C 88.151 1.73515 -2.88781 0
M  V30 995 O 88.681 2.83376 -2.84712 0
M  V30 996 N 86.887 1.55603 -2.4543 0
M  V30 997 H 86.434 0.662354 -2.48939 0
M  V30 998 H 86.392 2.34545 -2.09371 0
M  V30 999 N 90.1641 1.46063 -0.591896 0
M  V30 1000 C 91.1121 2.32124 0.148739 0
M  V30 1001 C 92.1061 1.45035 0.875286 0
M  V30 1002 O 93.3121 1.61609 0.792632 0
M  V30 1003 H 89.6871 0.749024 0.066832 0
M  V30 1004 H 91.6581 2.92392 -0.595783 0
M  V30 1005 C 90.4071 3.28373 1.1431 0
M  V30 1006 H 89.7301 3.95371 0.59346 0
M  V30 1007 H 91.1701 3.91352 1.63155 0
M  V30 1008 C 89.6291 2.54393 2.20875 0
M  V30 1009 O 90.1591 2.31373 3.28374 0
M  V30 1010 N 88.3651 2.14797 1.95731 0
M  V30 1011 H 87.9121 2.33719 1.08319 0
M  V30 1012 H 87.8701 1.65619 2.67241 0
M  V30 1013 N 91.6422 0.330177 1.54103 0
M  V30 1014 C 92.8902 -0.269871 2.0029 0
M  V30 1015 C 93.2112 -1.52133 1.21986 0
M  V30 1016 O 92.4812 -1.93212 0.323438 0
M  V30 1017 H 91.0612 -0.10271 0.739905 0
M  V30 1018 H 93.7232 0.448249 1.89675 0
M  V30 1019 H 92.8192 -0.52166 3.07709 0
M  V30 1020 N 93.1203 -1.57491 0.0584922 0
M  V30 1021 C 94.0303 -2.15448 -0.928414 0
M  V30 1022 C 95.0463 -1.11416 -1.3365 0
M  V30 1023 O 96.2223 -1.4362 -1.41193 0
M  V30 1024 C 93.2873 -2.69393 -2.18239 0
M  V30 1025 C 92.3483 -3.88249 -1.83196 0
M  V30 1026 C 91.5813 -4.39613 -3.02616 0
M  V30 1027 O 91.8043 -3.90023 -4.16219 0
M  V30 1028 O 90.7383 -5.31111 -2.83204 0
M  V30 1029 H 94.5643 -3.00112 -0.465483 0
M  V30 1030 H 92.1493 -1.48499 -0.163826 0
M  V30 1031 H 94.0313 -3.04026 -2.91798 0
M  V30 1032 H 92.7063 -1.87796 -2.63656 0
M  V30 1033 H 91.6133 -3.58492 -1.06931 0
M  V30 1034 H 92.9463 -4.71098 -1.42573 0
M  V30 1035 N 94.5984 0.214957 -1.56127 0
M  V30 1036 C 95.8444 0.935325 -1.80619 0
M  V30 1037 C 96.1994 1.81706 -0.632507 0
M  V30 1038 O 95.4924 1.87931 0.373182 0
M  V30 1039 C 95.6864 1.80314 -3.0858 0
M  V30 1040 C 95.5154 1.00691 -4.38282 0
M  V30 1041 C 94.2854 0.699211 -5.00439 0
M  V30 1042 C 96.4834 0.369057 -5.12974 0
M  V30 1043 N 94.4654 -0.117734 -6.13787 0
M  V30 1044 C 95.8364 -0.310981 -6.1922 0
M  V30 1045 C 97.8914 0.282759 -4.97096 0
M  V30 1046 C 96.5944 -1.06907 -7.11311 0
M  V30 1047 C 98.6204 -0.461881 -5.89594 0
M  V30 1048 C 97.9824 -1.13044 -6.9527 0
M  V30 1049 H 94.0814 0.322307 -0.71249 0
M  V30 1050 H 96.6654 0.205649 -1.93611 0
M  V30 1051 H 94.8364 2.50458 -2.96859 0
M  V30 1052 H 96.5684 2.46148 -3.21237 0
M  V30 1053 H 93.3234 1.01884 -4.62511 0
M  V30 1054 H 93.7474 -0.515235 -6.75037 0
M  V30 1055 H 98.3894 0.785292 -4.15443 0
M  V30 1056 H 96.1074 -1.5831 -7.92442 0
M  V30 1057 H 99.6934 -0.529746 -5.79383 0
M  V30 1058 H 98.5734 -1.69742 -7.65609 0
M  V30 1059 N 96.0765 1.50051 0.48192 0
M  V30 1060 C 97.0085 1.64263 1.59844 0
M  V30 1061 C 98.0215 0.52451 1.54119 0
M  V30 1062 O 99.2105 0.797293 1.59704 0
M  V30 1063 C 96.3105 1.60102 2.98698 0
M  V30 1064 C 95.4835 2.87767 3.29407 0
M  V30 1065 C 94.5425 2.76397 4.47762 0
M  V30 1066 O 93.5685 3.50348 4.48603 0
M  V30 1067 N 94.7705 1.89222 5.48794 0
M  V30 1068 H 97.5355 2.60566 1.48073 0
M  V30 1069 H 95.0965 1.47379 0.670149 0
M  V30 1070 H 97.0885 1.50123 3.75826 0
M  V30 1071 H 95.6585 0.715798 3.04294 0
M  V30 1072 H 94.8785 3.11954 2.40994 0
M  V30 1073 H 96.1665 3.72365 3.4673 0
M  V30 1074 H 95.5645 1.28434 5.50928 0
M  V30 1075 H 94.1215 1.85154 6.24949 0
M  V30 1076 N 97.5546 -0.734337 1.39446 0
M  V30 1077 C 98.9656 -1.31264 1.32766 0
M  V30 1078 C 99.3166 -1.96198 -0.00767497 0
M  V30 1079 O 98.4416 -1.96346 -0.909796 0
M  V30 1080 C 99.0366 -2.38682 2.4045 0
M  V30 1081 C 97.5956 -2.92184 2.37288 0
M  V30 1082 C 96.7426 -1.6576 2.22304 0
M  V30 1083 H 99.6936 -0.531799 1.49525 0
M  V30 1084 H 99.7146 -3.19087 2.07276 0
M  V30 1085 H 99.2266 -1.91392 3.37625 0
M  V30 1086 H 97.3276 -3.43752 1.43754 0
M  V30 1087 H 97.4406 -3.45253 3.3217 0
M  V30 1088 H 95.8046 -1.9012 1.69489 0
M  V30 1089 H 96.5876 -1.20521 3.21449 0
M  V30 1090 N 99.0327 -1.24633 -0.964593 0
M  V30 1091 C 100.28 -1.08788 -1.70796 0
M  V30 1092 C 100.608 0.372783 -1.90894 0
M  V30 1093 O 99.8627 1.29167 -1.47018 0
M  V30 1094 C 100.162 -1.7763 -3.10133 0
M  V30 1095 C 99.8277 -3.27557 -3.09866 0
M  V30 1096 C 98.4897 -3.6846 -3.09501 0
M  V30 1097 C 100.842 -4.23389 -3.03959 0
M  V30 1098 C 98.1697 -5.03624 -3.00965 0
M  V30 1099 C 100.522 -5.58565 -2.96965 0
M  V30 1100 C 99.1857 -5.98809 -2.9493 0
M  V30 1101 H 98.4557 -0.398084 -0.624988 0
M  V30 1102 H 101.103 -1.54777 -1.12767 0
M  V30 1103 H 99.4077 -1.24044 -3.71645 0
M  V30 1104 H 101.105 -1.62832 -3.66451 0
M  V30 1105 H 97.6947 -2.95006 -3.10917 0
M  V30 1106 H 101.879 -3.92787 -3.03368 0
M  V30 1107 H 97.1347 -5.33998 -2.97752 0
M  V30 1108 H 101.309 -6.32523 -2.91354 0
M  V30 1109 H 98.9357 -7.03505 -2.88071 0
M  V30 1110 N 100.511 1.16574 -1.06058 0
M  V30 1111 C 101.788 1.83048 -0.689416 0
M  V30 1112 C 102.168 1.94122 0.829443 0
M  V30 1113 O 101.516 1.48249 1.7388 0
M  V30 1114 C 101.726 3.20186 -1.38859 0
M  V30 1115 C 103.074 3.95989 -1.53226 0
M  V30 1116 O 104.098 3.29696 -1.3483 0
M  V30 1117 O 102.957 5.14813 -1.83384 0
M  V30 1118 H 100.051 0.790258 -0.243764 0
M  V30 1119 H 102.597 1.23797 -1.16071 0
M  V30 1120 H 101.369 3.07146 -2.4244 0
M  V30 1121 H 100.992 3.87112 -0.907216 0
M  V30 1122 N 101.989 0.842826 1.3317 0
M  V30 1123 C 103.235 0.441099 1.97945 0
M  V30 1124 C 103.568 -0.998024 1.66593 0
M  V30 1125 O 102.843 -1.69839 0.947898 0
M  V30 1126 C 103.126 0.666841 3.53872 0
M  V30 1127 C 102.979 2.15352 3.94897 0
M  V30 1128 C 104.298 0.115544 4.39948 0
M  V30 1129 H 101.417 0.161739 0.719034 0
M  V30 1130 H 104.059 1.05907 1.57746 0
M  V30 1131 H 102.209 0.140828 3.88245 0
M  V30 1132 H 103.881 2.7447 3.70761 0
M  V30 1133 H 102.124 2.63653 3.44484 0
M  V30 1134 H 102.795 2.26221 5.03516 0
M  V30 1135 H 105.271 0.565213 4.12243 0
M  V30 1136 H 104.147 0.303152 5.48062 0
M  V30 1137 H 104.408 -0.980935 4.3108 0
M  V30 1138 N 103.467 -1.45747 0.599634 0
M  V30 1139 C 104.883 -1.57424 0.26264 0
M  V30 1140 C 105.083 -1.59222 -1.23493 0
M  V30 1141 O 104.139 -1.51825 -2.01756 0
M  V30 1142 C 105.452 -2.86061 0.926795 0
M  V30 1143 C 107 -2.99722 0.901967 0
M  V30 1144 C 107.475 -4.31119 1.54598 0
M  V30 1145 N 108.966 -4.37858 1.5111 0
M  V30 1146 C 109.701 -5.3818 1.97863 0
M  V30 1147 N 109.197 -6.45083 2.52666 0
M  V30 1148 N 110.99 -5.29487 1.88679 0
M  V30 1149 H 103.141 -1.42823 1.57211 0
M  V30 1150 H 105.404 -0.68235 0.658105 0
M  V30 1151 H 105.11 -2.90605 1.98095 0
M  V30 1152 H 104.984 -3.74563 0.445238 0
M  V30 1153 H 107.371 -2.9475 -0.143617 0
M  V30 1154 H 107.452 -2.12652 1.42171 0
M  V30 1155 H 107.096 -4.36849 2.59085 0
M  V30 1156 H 107.026 -5.16992 1.00132 0
M  V30 1157 H 109.517 -3.61209 1.11068 0
M  V30 1158 H 109.83 -7.17869 2.86155 0
M  V30 1159 H 108.175 -6.45856 2.56701 0
M  V30 1160 H 111.366 -4.44877 1.4561 0
M  V30 1161 H 111.539 -6.07524 2.25429 0
M  V30 1162 N 104.945 -0.338344 -1.53925 0
M  V30 1163 C 106.222 0.314774 -1.93051 0
M  V30 1164 C 106.602 1.68669 -1.26941 0
M  V30 1165 O 105.95 2.24636 -0.418445 0
M  V30 1166 C 106.16 0.392249 -3.46789 0
M  V30 1167 C 107.508 0.645554 -4.19664 0
M  V30 1168 O 108.532 0.474575 -3.53024 0
M  V30 1169 O 107.391 0.976408 -5.37707 0
M  V30 1170 H 104.485 0.182598 -0.80659 0
M  V30 1171 H 107.031 -0.389141 -1.65178 0
M  V30 1172 H 105.803 -0.570702 -3.87116 0
M  V30 1173 H 105.426 1.14316 -3.80812 0
M  V30 1174 N 106.423 1.57458 -0.0668435 0
M  V30 1175 C 107.839 1.56947 0.289772 0
M  V30 1176 C 108.039 1.07584 1.70376 0
M  V30 1177 O 107.095 0.739486 2.41429 0
M  V30 1178 C 108.408 3.0052 0.103943 0
M  V30 1179 C 109.956 3.12517 0.173857 0
M  V30 1180 C 110.431 4.57997 0.0163682 0
M  V30 1181 N 111.922 4.63144 0.0721352 0
M  V30 1182 C 112.657 5.73394 -0.0253794 0
M  V30 1183 N 112.153 6.92576 -0.176133 0
M  V30 1184 N 113.946 5.62091 0.0313305 0
M  V30 1185 H 106.097 1.87863 -0.991027 0
M  V30 1186 H 108.36 0.86583 -0.38606 0
M  V30 1187 H 108.066 3.40729 -0.871572 0
M  V30 1188 H 107.94 3.67304 0.858366 0
M  V30 1189 H 110.327 2.72197 1.13985 0
M  V30 1190 H 110.408 2.48381 -0.611586 0
M  V30 1191 H 110.052 4.99005 -0.946374 0
M  V30 1192 H 109.982 5.20158 0.821153 0
M  V30 1193 H 112.473 3.77436 0.187263 0
M  V30 1194 H 112.786 7.72418 -0.242821 0
M  V30 1195 H 111.131 6.94678 -0.211429 0
M  V30 1196 H 114.322 4.67867 0.147773 0
M  V30 1197 H 114.495 6.47982 -0.048121 0
M  V30 1198 N 107.901 -0.206675 1.56239 0
M  V30 1199 C 108.848 -1.25617 1.93621 0
M  V30 1200 C 109.818 -1.45824 0.795274 0
M  V30 1201 O 111.003 -1.59148 1.05245 0
M  V30 1202 C 108.143 -2.59839 2.27107 0
M  V30 1203 C 107.256 -2.47308 3.54207 0
M  V30 1204 C 106.391 -3.74155 3.7707 0
M  V30 1205 C 105.43 -3.56407 4.97635 0
M  V30 1206 N 104.567 -4.75238 5.1681 0
M  V30 1207 H 109.407 -0.930383 2.83104 0
M  V30 1208 H 106.944 -0.448065 1.4011 0
M  V30 1209 H 108.902 -3.38021 2.44535 0
M  V30 1210 H 107.532 -2.90485 1.40778 0
M  V30 1211 H 106.584 -1.60483 3.4489 0
M  V30 1212 H 107.896 -2.30122 4.42544 0
M  V30 1213 H 107.05 -4.60778 3.94675 0
M  V30 1214 H 105.789 -3.94282 2.87042 0
M  V30 1215 H 104.794 -2.68168 4.79964 0
M  V30 1216 H 106.019 -3.37736 5.89161 0
M  V30 1217 H 103.965 -4.95651 4.29728 0
M  V30 1218 H 103.882 -4.60835 5.99306 0
M  V30 1219 H 105.15 -5.63246 5.38864 0
M  V30 1220 N 109.379 -1.50304 -0.473955 0
M  V30 1221 C 110.342 -1.6841 -1.55469 0
M  V30 1222 C 111.342 -0.554905 -1.50922 0
M  V30 1223 O 112.532 -0.821882 -1.53593 0
M  V30 1224 C 109.664 -1.70667 -2.95102 0
M  V30 1225 H 110.857 -2.64828 -1.40733 0
M  V30 1226 H 108.41 -1.39742 -0.700132 0
M  V30 1227 H 109.145 -0.75932 -3.15285 0
M  V30 1228 H 108.93 -2.52698 -2.9981 0
M  V30 1229 H 110.42 -1.8664 -3.73571 0
M  V30 1230 N 110.857 0.726932 -1.39834 0
M  V30 1231 C 112.104 1.48664 -1.37496 0
M  V30 1232 C 112.432 1.94482 0.0264678 0
M  V30 1233 O 111.687 1.67692 1.00886 0
M  V30 1234 C 111.986 2.73495 -2.30077 0
M  V30 1235 C 111.652 2.46502 -3.77555 0
M  V30 1236 C 110.314 2.3885 -4.17737 0
M  V30 1237 C 112.666 2.23604 -4.70798 0
M  V30 1238 C 109.994 2.06352 -5.49214 0
M  V30 1239 C 112.346 1.92622 -6.02561 0
M  V30 1240 C 111.01 1.83444 -6.41798 0
M  V30 1241 H 110.28 0.544001 -0.503135 0
M  V30 1242 H 112.927 0.833657 -1.72402 0
M  V30 1243 H 111.232 3.43575 -1.88317 0
M  V30 1244 H 112.929 3.31549 -2.25558 0
M  V30 1245 H 109.519 2.5334 -3.45712 0
M  V30 1246 H 113.703 2.28479 -4.40581 0
M  V30 1247 H 108.959 1.97776 -5.78528 0
M  V30 1248 H 113.133 1.73914 -6.74334 0
M  V30 1249 H 110.76 1.58029 -7.43593 0
M  V30 1250 N 112.336 1.25143 0.95797 0
M  V30 1251 C 113.561 1.12521 1.74223 0
M  V30 1252 C 113.986 -0.317402 1.85403 0
M  V30 1253 O 113.344 -1.2299 1.33204 0
M  V30 1254 C 113.392 1.78062 3.1357 0
M  V30 1255 O 112.496 1.058 3.98598 0
M  V30 1256 H 111.837 0.39304 0.535178 0
M  V30 1257 H 114.367 1.65641 1.201 0
M  V30 1258 H 114.377 1.84213 3.64046 0
M  V30 1259 H 113.052 2.83021 3.04749 0
M  V30 1260 H 111.629 1.07506 3.57067 0
M  V30 1261 N 113.814 -1.1601 1.06675 0
M  V30 1262 C 114.744 -2.22688 0.702307 0
M  V30 1263 C 115.725 -1.67306 -0.307032 0
M  V30 1264 O 116.91 -1.93352 -0.181305 0
M  V30 1265 C 114.04 -3.47178 0.092038 0
M  V30 1266 C 112.994 -4.15477 1.02777 0
M  V30 1267 C 112.32 -5.33963 0.28061 0
M  V30 1268 C 113.62 -4.66019 2.35846 0
M  V30 1269 H 115.314 -2.53429 1.59419 0
M  V30 1270 H 112.86 -1.21813 0.767961 0
M  V30 1271 H 114.813 -4.21037 -0.174814 0
M  V30 1272 H 113.537 -3.15749 -0.834877 0
M  V30 1273 H 112.196 -3.43549 1.27944 0
M  V30 1274 H 111.844 -4.98788 -0.649545 0
M  V30 1275 H 111.544 -5.806 0.904258 0
M  V30 1276 H 113.068 -6.10596 0.021396 0
M  V30 1277 H 114.482 -5.3144 2.15045 0
M  V30 1278 H 112.879 -5.23293 2.93743 0
M  V30 1279 H 113.949 -3.82023 2.98641 0
M  V30 1280 N 115.292 -0.849877 -1.32721 0
M  V30 1281 C 116.517 -0.463856 -2.02146 0
M  V30 1282 C 116.942 0.930449 -1.63476 0
M  V30 1283 O 116.3 1.61033 -0.832952 0
M  V30 1284 C 116.348 -0.604955 -3.55489 0
M  V30 1285 O 115.452 0.36425 -4.10788 0
M  V30 1286 H 114.793 -0.187046 -0.637111 0
M  V30 1287 H 117.323 -1.14775 -1.69375 0
M  V30 1288 H 117.333 -0.490696 -4.05038 0
M  V30 1289 H 116.008 -1.62174 -3.82978 0
M  V30 1290 H 114.585 0.206628 -3.72327 0
M  V30 1291 N 116.77 1.45427 -0.607355 0
M  V30 1292 C 118.186 1.57283 -0.270985 0
M  V30 1293 C 118.386 1.59875 1.22647 0
M  V30 1294 O 117.442 1.52893 2.00948 0
M  V30 1295 C 118.755 2.85566 -0.941952 0
M  V30 1296 C 120.303 2.9924 -0.917849 0
M  V30 1297 C 120.778 4.30293 -1.56882 0
M  V30 1298 N 122.269 4.37051 -1.5343 0
M  V30 1299 C 123.004 5.37123 -2.00715 0
M  V30 1300 N 122.5 6.43734 -2.56084 0
M  V30 1301 N 124.293 5.28479 -1.91484 0
M  V30 1302 H 116.444 1.41988 -1.57966 0
M  V30 1303 H 118.707 0.67885 -0.661715 0
M  V30 1304 H 118.413 2.8955 -1.99633 0
M  V30 1305 H 118.287 3.74322 -0.465096 0
M  V30 1306 H 120.674 2.94822 0.127984 0
M  V30 1307 H 120.755 2.11895 -1.43297 0
M  V30 1308 H 120.399 4.35469 -2.61398 0
M  V30 1309 H 120.329 5.16454 -1.02873 0
M  V30 1310 H 122.82 3.60615 -1.12982 0
M  V30 1311 H 123.133 7.16341 -2.89958 0
M  V30 1312 H 121.478 6.44485 -2.60122 0
M  V30 1313 H 124.669 4.44098 -1.47967 0
M  V30 1314 H 124.842 6.0632 -2.28648 0
M  V30 1315 N 118.248 0.346503 1.53744 0
M  V30 1316 C 119.178 -0.501193 2.28058 0
M  V30 1317 C 120.159 -1.10014 1.29734 0
M  V30 1318 O 121.344 -1.12097 1.58581 0
M  V30 1319 C 118.474 -1.65078 3.05559 0
M  V30 1320 C 117.428 -1.18003 4.11411 0
M  V30 1321 C 116.754 -2.41837 4.76884 0
M  V30 1322 C 118.054 -0.278394 5.21558 0
M  V30 1323 H 119.748 0.11875 2.99164 0
M  V30 1324 H 117.294 0.0585531 1.43881 0
M  V30 1325 H 119.247 -2.25028 3.56287 0
M  V30 1326 H 117.971 -2.29767 2.32109 0
M  V30 1327 H 116.63 -0.603331 3.61601 0
M  V30 1328 H 116.278 -3.0494 4.00026 0
M  V30 1329 H 115.978 -2.1102 5.48402 0
M  V30 1330 H 117.502 -3.02508 5.30397 0
M  V30 1331 H 118.916 -0.784823 5.67903 0
M  V30 1332 H 117.313 -0.0619707 6.00068 0
M  V30 1333 H 118.383 0.684677 4.80042 0
M  V30 1334 N 119.726 -1.57421 0.075193 0
M  V30 1335 C 120.659 -2.08528 -0.926904 0
M  V30 1336 C 121.637 -0.991171 -1.28898 0
M  V30 1337 O 122.821 -1.26479 -1.39769 0
M  V30 1338 C 119.948 -2.54576 -2.23402 0
M  V30 1339 C 118.994 -3.75454 -2.02327 0
M  V30 1340 S 119.827 -5.19989 -1.27951 0
M  V30 1341 C 120.983 -5.69372 -2.59935 0
M  V30 1342 H 121.216 -2.932 -0.492048 0
M  V30 1343 H 118.749 -1.53785 -0.137651 0
M  V30 1344 H 120.707 -2.81767 -2.98526 0
M  V30 1345 H 119.368 -1.70166 -2.64012 0
M  V30 1346 H 118.561 -4.05675 -2.99071 0
M  V30 1347 H 118.163 -3.48654 -1.35339 0
M  V30 1348 H 120.455 -5.76424 -3.56008 0
M  V30 1349 H 121.398 -6.68207 -2.34319 0
M  V30 1350 H 121.806 -4.97205 -2.67296 0
M  V30 1351 N 121.204 0.198386 -1.56346 0
M  V30 1352 C 122.154 1.2499 -1.90687 0
M  V30 1353 C 123.138 1.41158 -0.772217 0
M  V30 1354 O 124.33 1.43584 -1.03502 0
M  V30 1355 C 121.459 2.59542 -2.24706 0
M  V30 1356 C 120.545 2.47181 -3.44619 0
M  V30 1357 N 120.936 2.04495 -4.62618 0
M  V30 1358 C 119.234 2.78082 -3.48692 0
M  V30 1359 C 119.935 2.03945 -5.44776 0
M  V30 1360 N 118.911 2.45323 -4.85095 0
M  V30 1361 H 122.713 0.911149 -2.7942 0
M  V30 1362 H 120.227 0.40684 -1.57221 0
M  V30 1363 H 122.224 3.3549 -2.47491 0
M  V30 1364 H 120.884 2.94244 -1.37298 0
M  V30 1365 H 121.895 1.75256 -4.87345 0
M  V30 1366 H 118.572 3.17002 -2.71691 0
M  V30 1367 H 119.962 1.72872 -6.4928 0
M  V30 1368 N 122.682 1.50554 0.465978 0
M  V30 1369 C 123.929 1.61798 1.21768 0
M  V30 1370 C 124.257 0.320696 1.91838 0
M  V30 1371 O 123.512 -0.693724 1.82992 0
M  V30 1372 C 123.811 2.75152 2.28093 0
M  V30 1373 C 123.477 4.15454 1.75239 0
M  V30 1374 C 122.139 4.53628 1.60546 0
M  V30 1375 C 124.491 5.03121 1.36083 0
M  V30 1376 C 121.819 5.77204 1.05128 0
M  V30 1377 C 124.171 6.27249 0.821056 0
M  V30 1378 C 122.835 6.64221 0.660795 0
M  V30 1379 H 122.105 0.592063 0.445582 0
M  V30 1380 H 124.752 1.84503 0.512927 0
M  V30 1381 H 123.057 2.46556 3.04496 0
M  V30 1382 H 124.754 2.81055 2.86023 0
M  V30 1383 H 121.344 3.85341 1.87644 0
M  V30 1384 H 125.528 4.74257 1.46267 0
M  V30 1385 H 120.784 6.0452 0.91462 0
M  V30 1386 H 124.958 6.94537 0.509018 0
M  V30 1387 H 122.585 7.59854 0.229226 0
M  V30 1388 N 124.16 -0.719506 1.40217 0
M  V30 1389 C 125.123 -1.8153 1.39927 0
M  V30 1390 C 126.123 -1.58095 0.293723 0
M  V30 1391 O 127.313 -1.65209 0.552429 0
M  V30 1392 C 124.445 -3.19561 1.18716 0
M  V30 1393 H 125.638 -1.83186 2.37451 0
M  V30 1394 H 123.191 -0.924746 1.26008 0
M  V30 1395 H 123.926 -3.23557 0.219366 0
M  V30 1396 H 123.711 -3.3797 1.98793 0
M  V30 1397 H 125.201 -3.99598 1.21291 0
M  V30 1398 N 125.638 -1.25649 -0.95132 0
M  V30 1399 C 127.054 -1.02542 -1.223 0
M  V30 1400 C 127.254 0.255715 -1.99871 0
M  V30 1401 O 126.31 0.967558 -2.33226 0
M  V30 1402 C 127.623 -2.25065 -1.99415 0
M  V30 1403 C 129.171 -2.29861 -2.12446 0
M  V30 1404 C 129.646 -3.52048 -2.92961 0
M  V30 1405 N 131.137 -3.52465 -3.00538 0
M  V30 1406 C 131.872 -4.43672 -3.63239 0
M  V30 1407 N 131.368 -5.45157 -4.27523 0
M  V30 1408 N 133.161 -4.31346 -3.60412 0
M  V30 1409 H 125.312 -2.07951 -0.432471 0
M  V30 1410 H 127.575 -0.91339 -0.253816 0
M  V30 1411 H 127.281 -3.18194 -1.49817 0
M  V30 1412 H 127.155 -2.28502 -3.00111 0
M  V30 1413 H 129.542 -1.37252 -2.61239 0
M  V30 1414 H 129.623 -2.3044 -1.11044 0
M  V30 1415 H 129.267 -4.44981 -2.44856 0
M  V30 1416 H 129.197 -3.48715 -3.94596 0
M  V30 1417 H 131.688 -2.79056 -2.54826 0
M  V30 1418 H 132.001 -6.10958 -4.73234 0
M  V30 1419 H 130.346 -5.49025 -4.26141 0
M  V30 1420 H 133.537 -3.51288 -3.09377 0
M  V30 1421 H 133.71 -5.02624 -4.0899 0
M  V30 1422 N 127.117 1.15442 -1.07289 0
M  V30 1423 C 128.357 1.8788 -0.805012 0
M  V30 1424 C 128.721 1.80413 0.656907 0
M  V30 1425 O 129.922 2.47874 1.0398 0
M  V30 1426 C 128.193 3.3298 -1.29843 0
M  V30 1427 S 129.752 4.23158 -1.16114 0
M  V30 1428 H 126.57 0.64839 -0.291739 0
M  V30 1429 H 129.172 1.39285 -1.37186 0
M  V30 1430 H 127.876 3.35958 -2.35712 0
M  V30 1431 H 127.407 3.86629 -0.726767 0
M  V30 1432 H 129.422 4.96103 -0.0982778 0
M  V30 1433 N 128.595 0.856903 1.32268 0
M  V30 1434 C 129.835 0.467705 1.98977 0
M  V30 1435 C 130.199 -0.959231 1.66321 0
M  V30 1436 O 131.4 -1.4531 2.26138 0
M  V30 1437 C 129.671 0.70256 3.50427 0
M  V30 1438 S 131.23 0.411269 4.36868 0
M  V30 1439 H 128.048 0.175121 0.689096 0
M  V30 1440 H 130.65 1.1101 1.60925 0
M  V30 1441 H 129.354 1.74012 3.71683 0
M  V30 1442 H 128.885 0.0466707 3.93372 0
M  V30 1443 H 130.9 -0.761799 4.90317 0
M  V30 1444 N 130.073 -1.45103 0.615059 0
M  V30 1445 C 131.036 -2.29025 -0.0895485 0
M  V30 1446 C 132.036 -1.40174 -0.787906 0
M  V30 1447 O 133.226 -1.62217 -0.634933 0
M  V30 1448 C 130.358 -3.21376 -1.13711 0
M  V30 1449 H 131.551 -2.92807 0.648382 0
M  V30 1450 H 129.104 -1.51749 0.374444 0
M  V30 1451 H 129.839 -2.6241 -1.90556 0
M  V30 1452 H 129.624 -3.86834 -0.640475 0
M  V30 1453 H 131.114 -3.84459 -1.63036 0
M  V30 1454 N 131.551 -0.354651 -1.53558 0
M  V30 1455 C 132.776 0.242153 -2.05981 0
M  V30 1456 C 133.201 1.42553 -1.2272 0
M  V30 1457 O 132.559 1.79656 -0.243604 0
M  V30 1458 C 132.607 0.624367 -3.55154 0
M  V30 1459 O 131.711 1.72301 -3.74681 0
M  V30 1460 H 131.052 0.0378432 -0.662921 0
M  V30 1461 H 133.582 -0.512087 -1.98088 0
M  V30 1462 H 133.592 0.898433 -3.97985 0
M  V30 1463 H 132.267 -0.240989 -4.15201 0
M  V30 1464 H 130.844 1.44535 -3.4375 0
M  V30 1465 N 133.029 1.57378 -0.0835403 0
M  V30 1466 C 134.276 1.9393 0.58287 0
M  V30 1467 C 134.604 0.964455 1.68904 0
M  V30 1468 O 133.859 -0.0179474 1.95692 0
M  V30 1469 C 134.158 3.37063 1.1884 0
M  V30 1470 C 133.824 4.50424 0.207194 0
M  V30 1471 C 132.486 4.81159 -0.0627115 0
M  V30 1472 C 134.838 5.19136 -0.463426 0
M  V30 1473 C 132.166 5.77939 -1.01012 0
M  V30 1474 C 134.518 6.16931 -1.39924 0
M  V30 1475 C 133.182 6.46078 -1.67749 0
M  V30 1476 H 132.452 0.70964 0.213287 0
M  V30 1477 H 135.099 1.90856 -0.156916 0
M  V30 1478 H 133.404 3.3666 2.00418 0
M  V30 1479 H 135.101 3.6264 1.71153 0
M  V30 1480 H 131.691 4.2646 0.427747 0
M  V30 1481 H 135.875 4.95576 -0.268034 0
M  V30 1482 H 131.131 5.98842 -1.23283 0
M  V30 1483 H 135.305 6.69273 -1.92476 0
M  V30 1484 H 132.932 7.2088 -2.41321 0
M  V30 1485 N 134.507 -0.190092 1.56449 0
M  V30 1486 C 135.454 -1.23557 1.94942 0
M  V30 1487 C 136.424 -1.44972 0.810696 0
M  V30 1488 O 137.609 -1.58023 1.06927 0
M  V30 1489 C 134.749 -2.57416 2.2985 0
M  V30 1490 C 133.862 -2.43537 3.5681 0
M  V30 1491 C 132.997 -3.70134 3.81017 0
M  V30 1492 C 132.036 -3.51109 5.01387 0
M  V30 1493 N 131.173 -4.6973 5.21822 0
M  V30 1494 H 136.013 -0.900304 2.84075 0
M  V30 1495 H 133.55 -0.43318 1.40577 0
M  V30 1496 H 135.508 -3.35409 2.48106 0
M  V30 1497 H 134.138 -2.88975 1.43852 0
M  V30 1498 H 133.19 -1.56816 3.46573 0
M  V30 1499 H 134.502 -2.25415 4.4496 0
M  V30 1500 H 133.656 -4.56566 3.9954 0
M  V30 1501 H 132.395 -3.91215 2.91207 0
M  V30 1502 H 131.4 -2.63063 4.82782 0
M  V30 1503 H 132.625 -3.31468 5.9271 0
M  V30 1504 H 130.571 -4.91065 4.34961 0
M  V30 1505 H 130.488 -4.54452 6.0416 0
M  V30 1506 H 131.756 -5.57499 5.44808 0
M  V30 1507 N 135.985 -1.50799 -0.457987 0
M  V30 1508 C 136.932 -1.70617 -1.5543 0
M  V30 1509 C 137.902 -0.547562 -1.56815 0
M  V30 1510 O 139.087 -0.779647 -1.74144 0
M  V30 1511 C 136.227 -1.81831 -2.93311 0
M  V30 1512 C 135.34 -3.09278 -3.01615 0
M  V30 1513 C 134.475 -3.11209 -4.30491 0
M  V30 1514 C 133.514 -4.33055 -4.32585 0
M  V30 1515 N 132.651 -4.32652 -5.52952 0
M  V30 1516 H 137.491 -2.64207 -1.37836 0
M  V30 1517 H 135.028 -1.30959 -0.669937 0
M  V30 1518 H 136.986 -1.86314 -3.73287 0
M  V30 1519 H 135.616 -0.916685 -3.0951 0
M  V30 1520 H 134.668 -3.14203 -2.1443 0
M  V30 1521 H 135.98 -3.99233 -2.99022 0
M  V30 1522 H 135.134 -3.14494 -5.18824 0
M  V30 1523 H 133.873 -2.19106 -4.35711 0
M  V30 1524 H 132.878 -4.29969 -3.42647 0
M  V30 1525 H 134.103 -5.264 -4.29046 0
M  V30 1526 H 132.049 -3.43409 -5.58933 0
M  V30 1527 H 131.966 -5.16392 -5.52155 0
M  V30 1528 H 133.234 -4.40101 -6.43375 0
M  V30 1529 N 137.463 0.71206 -1.40597 0
M  V30 1530 C 138.41 1.82613 -1.41142 0
M  V30 1531 C 139.38 1.63925 -0.267903 0
M  V30 1532 O 140.565 1.85009 -0.466495 0
M  V30 1533 C 137.705 3.20354 -1.28324 0
M  V30 1534 C 136.818 3.50589 -2.52411 0
M  V30 1535 C 135.953 4.77855 -2.32009 0
M  V30 1536 C 134.992 5.01005 -3.51654 0
M  V30 1537 N 134.129 6.19487 -3.30425 0
M  V30 1538 H 138.969 1.81482 -2.36365 0
M  V30 1539 H 136.506 0.886475 -1.17388 0
M  V30 1540 H 138.464 3.99899 -1.18899 0
M  V30 1541 H 137.094 3.20705 -0.367189 0
M  V30 1542 H 136.146 2.65573 -2.72351 0
M  V30 1543 H 137.458 3.63604 -3.41458 0
M  V30 1544 H 136.612 5.65424 -2.19956 0
M  V30 1545 H 135.351 4.67056 -1.40392 0
M  V30 1546 H 134.356 4.1189 -3.64179 0
M  V30 1547 H 135.581 5.13674 -4.44202 0
M  V30 1548 H 133.527 6.09932 -2.41494 0
M  V30 1549 H 133.444 6.33194 -4.13039 0
M  V30 1550 H 134.712 7.09834 -3.22113 0
M  V30 1551 N 138.941 1.26152 0.944643 0
M  V30 1552 C 140.169 1.14259 1.72489 0
M  V30 1553 C 140.584 -0.302555 1.8636 0
M  V30 1554 O 139.941 -1.20741 1.36849 0
M  V30 1555 C 139.992 1.80266 3.13347 0
M  V30 1556 O 139.713 3.19133 3.00143 0
M  V30 1557 C 141.214 1.74283 4.07603 0
M  V30 1558 H 138.434 0.398051 0.540181 0
M  V30 1559 H 140.978 1.66706 1.18446 0
M  V30 1560 H 139.133 1.31766 3.64303 0
M  V30 1561 H 139.547 3.51744 3.89071 0
M  V30 1562 H 141.021 2.25111 5.04013 0
M  V30 1563 H 141.498 0.708631 4.33446 0
M  V30 1564 H 142.104 2.22319 3.62567 0
M  V30 1565 N 140.419 -1.14872 1.07899 0
M  V30 1566 C 141.668 -1.85135 0.800499 0
M  V30 1567 C 141.981 -1.83547 -0.676014 0
M  V30 1568 O 143.187 -2.49548 -1.06948 0
M  V30 1569 C 141.643 -3.3231 1.38197 0
M  V30 1570 C 141.251 -3.42329 2.8899 0
M  V30 1571 C 142.995 -4.0772 1.18174 0
M  V30 1572 C 140.902 -4.83684 3.403 0
M  V30 1573 H 139.832 -0.693563 0.29578 0
M  V30 1574 H 142.483 -1.29532 1.29976 0
M  V30 1575 H 140.865 -3.87618 0.810431 0
M  V30 1576 H 142.039 -2.97097 3.52236 0
M  V30 1577 H 140.354 -2.80369 3.07867 0
M  V30 1578 H 142.951 -5.12049 1.5398 0
M  V30 1579 H 143.294 -4.16124 0.12117 0
M  V30 1580 H 143.827 -3.58696 1.71994 0
M  V30 1581 H 140.566 -4.80465 4.45907 0
M  V30 1582 H 140.086 -5.29474 2.81811 0
M  V30 1583 H 141.765 -5.52558 3.36584 0
M  V30 1584 N 141.898 -0.863906 -1.31812 0
M  V30 1585 C 143.175 -0.39275 -1.91616 0
M  V30 1586 C 143.555 1.12461 -1.7865 0
M  V30 1587 O 142.903 1.95045 -1.19037 0
M  V30 1588 C 143.113 -0.867385 -3.38049 0
M  V30 1589 C 144.461 -0.889966 -4.15168 0
M  V30 1590 O 145.485 -0.812635 -3.46806 0
M  V30 1591 O 144.344 -1.00079 -5.37258 0
M  V30 1592 H 141.438 -0.116358 -0.818773 0
M  V30 1593 H 143.984 -0.951418 -1.40521 0
M  V30 1594 H 142.756 -1.91081 -3.41473 0
M  V30 1595 H 142.379 -0.286687 -3.96565 0
M  V30 1596 N 143.376 1.44774 -0.622745 0
M  V30 1597 C 144.324 2.32387 0.0994683 0
M  V30 1598 C 145.318 1.46859 0.844326 0
M  V30 1599 O 146.524 1.63254 0.758174 0
M  V30 1600 H 142.899 0.750273 0.0509291 0
M  V30 1601 H 144.87 2.91062 -0.65767 0
M  V30 1602 C 143.619 3.30723 1.07319 0
M  V30 1603 H 142.942 3.96541 0.509462 0
M  V30 1604 H 144.382 3.94725 1.54817 0
M  V30 1605 C 142.841 2.59021 2.15429 0
M  V30 1606 O 143.371 2.38286 3.23393 0
M  V30 1607 N 141.577 2.189 1.91131 0
M  V30 1608 H 141.124 2.35964 1.03337 0
M  V30 1609 H 141.082 1.71251 2.63668 0
M  V30 1610 N 144.854 0.36279 1.53368 0
M  V30 1611 C 146.084 -0.228281 2.05335 0
M  V30 1612 C 146.492 -1.43226 1.23625 0
M  V30 1613 O 145.835 -1.81717 0.269206 0
M  V30 1614 C 145.897 -0.688549 3.52845 0
M  V30 1615 C 145.561 0.398362 4.5526 0
M  V30 1616 C 146.558 1.24732 5.04716 0
M  V30 1617 C 144.243 0.557805 4.99193 0
M  V30 1618 C 146.237 2.2411 5.96702 0
M  V30 1619 C 143.924 1.55495 5.90986 0
M  V30 1620 C 144.922 2.39503 6.39631 0
M  V30 1621 O 144.61 3.37517 7.29615 0
M  V30 1622 H 144.342 -0.044395 0.674541 0
M  V30 1623 H 146.896 0.518668 1.98744 0
M  V30 1624 H 145.126 -1.48706 3.56964 0
M  V30 1625 H 146.815 -1.20231 3.87685 0
M  V30 1626 H 147.581 1.13532 4.71525 0
M  V30 1627 H 143.46 -0.0862959 4.60919 0
M  V30 1628 H 147.004 2.89718 6.34594 0
M  V30 1629 H 142.901 1.66744 6.23592 0
M  V30 1630 H 143.669 3.33213 7.47604 0
M  V30 1631 N 146.332 -1.57332 0.0918853 0
M  V30 1632 C 147.242 -2.17368 -0.882505 0
M  V30 1633 C 148.258 -1.14226 -1.31257 0
M  V30 1634 O 149.434 -1.46582 -1.38115 0
M  V30 1635 C 146.499 -2.73962 -2.12476 0
M  V30 1636 C 145.56 -3.92048 -1.7492 0
M  V30 1637 C 144.793 -4.45933 -2.93223 0
M  V30 1638 O 145.016 -3.98764 -4.07852 0
M  V30 1639 O 143.95 -5.36999 -2.71875 0
M  V30 1640 H 147.776 -3.01031 -0.40172 0
M  V30 1641 H 145.361 -1.48813 -0.132291 0
M  V30 1642 H 147.243 -3.10147 -2.85283 0
M  V30 1643 H 145.918 -1.93347 -2.59613 0
M  V30 1644 H 144.825 -3.6068 -0.993025 0
M  V30 1645 H 146.158 -4.74017 -1.32548 0
M  V30 1646 N 147.81 0.181792 -1.56548 0
M  V30 1647 C 148.758 1.24461 -1.965 0
M  V30 1648 C 149.752 1.464 -0.852261 0
M  V30 1649 O 150.958 1.47103 -1.03733 0
M  V30 1650 H 147.333 0.418138 -0.625031 0
M  V30 1651 H 149.304 0.880714 -2.85107 0
M  V30 1652 C 148.053 2.57891 -2.33212 0
M  V30 1653 H 147.376 2.41829 -3.18369 0
M  V30 1654 H 148.816 3.3097 -2.65019 0
M  V30 1655 C 147.275 3.15871 -1.17163 0
M  V30 1656 O 147.805 3.9913 -0.453708 0
M  V30 1657 N 146.011 2.74808 -0.944936 0
M  V30 1658 H 145.558 2.07205 -1.53049 0
M  V30 1659 H 145.516 3.13939 -0.170286 0
M  V30 1660 N 149.288 1.51039 0.449983 0
M  V30 1661 C 150.699 1.557 1.03026 0
M  V30 1662 C 151.05 0.372939 1.92623 0
M  V30 1663 O 150.175 -0.511771 2.10261 0
M  V30 1664 C 150.77 2.82171 1.87523 0
M  V30 1665 C 149.329 2.89444 2.40622 0
M  V30 1666 C 148.476 2.50228 1.19504 0
M  V30 1667 H 151.427 1.56999 0.231745 0
M  V30 1668 H 151.448 2.65219 2.72835 0
M  V30 1669 H 150.96 3.68331 1.22286 0
M  V30 1670 H 149.061 2.07685 3.0935 0
M  V30 1671 H 149.174 3.92816 2.74285 0
M  V30 1672 H 147.538 2.03139 1.53644 0
M  V30 1673 H 148.321 3.38719 0.558972 0
M  V30 1674 N 150.766 -0.704594 1.40972 0
M  V30 1675 C 152.015 -1.46018 1.39146 0
M  V30 1676 C 152.328 -1.956 0.000589254 0
M  V30 1677 O 153.534 -2.71137 -0.1403 0
M  V30 1678 C 151.99 -2.63996 2.4461 0
M  V30 1679 C 151.598 -2.21238 3.89561 0
M  V30 1680 C 153.342 -3.41677 2.51907 0
M  V30 1681 C 151.249 -3.3612 4.86598 0
M  V30 1682 H 150.179 -0.548444 0.517422 0
M  V30 1683 H 152.83 -0.765784 1.66757 0
M  V30 1684 H 151.212 -3.3566 2.10115 0
M  V30 1685 H 152.386 -1.56923 4.33257 0
M  V30 1686 H 150.701 -1.56574 3.85841 0
M  V30 1687 H 153.298 -4.27182 3.2159 0
M  V30 1688 H 153.641 -3.86247 1.55303 0
M  V30 1689 H 154.174 -2.77064 2.85448 0
M  V30 1690 H 150.913 -2.96572 5.84573 0
M  V30 1691 H 150.433 -3.99315 4.47557 0
M  V30 1692 H 152.112 -4.02029 5.06934 0
M  V30 1693 N 152.244 -1.26651 -0.937939 0
M  V30 1694 C 153.174 -1.10993 -2.05433 0
M  V30 1695 C 154.155 -0.0142161 -1.70094 0
M  V30 1696 O 155.34 -0.186837 -1.93299 0
M  V30 1697 C 152.47 -0.745561 -3.39203 0
M  V30 1698 C 151.424 -1.79337 -3.88616 0
M  V30 1699 C 150.75 -1.28324 -5.19073 0
M  V30 1700 C 152.05 -3.19553 -4.13138 0
M  V30 1701 H 153.744 -2.0438 -2.1879 0
M  V30 1702 H 151.29 -0.984041 -1.05131 0
M  V30 1703 H 153.243 -0.622888 -4.16771 0
M  V30 1704 H 151.967 0.22401 -3.25831 0
M  V30 1705 H 150.626 -1.90477 -3.13231 0
M  V30 1706 H 150.274 -0.303414 -5.02084 0
M  V30 1707 H 149.974 -1.98369 -5.53103 0
M  V30 1708 H 151.498 -1.1733 -5.99221 0
M  V30 1709 H 152.912 -3.11471 -4.81309 0
M  V30 1710 H 151.309 -3.87218 -4.58457 0
M  V30 1711 H 152.379 -3.65368 -3.18801 0
M  V30 1712 N 153.722 1.14298 -1.08507 0
M  V30 1713 C 154.947 1.8976 -0.837001 0
M  V30 1714 C 155.372 1.78097 0.605228 0
M  V30 1715 O 154.73 1.12188 1.4242 0
M  V30 1716 C 154.778 3.37685 -1.26495 0
M  V30 1717 O 153.882 4.10281 -0.417514 0
M  V30 1718 H 153.223 0.590365 -0.303917 0
M  V30 1719 H 155.753 1.44672 -1.44676 0
M  V30 1720 H 155.763 3.88501 -1.24625 0
M  V30 1721 H 154.438 3.45492 -2.31534 0
M  V30 1722 H 153.015 3.69536 -0.499722 0
M  V30 1723 N 155.201 0.870884 1.31352 0
M  V30 1724 C 156.426 0.495957 2.01383 0
M  V30 1725 C 156.851 -0.904324 1.64935 0
M  V30 1726 O 156.209 -1.59687 0.858466 0
M  V30 1727 C 156.257 0.661433 3.54482 0
M  V30 1728 O 155.361 -0.298851 4.11316 0
M  V30 1729 H 154.702 0.197158 0.634054 0
M  V30 1730 H 157.232 1.17455 1.67527 0
M  V30 1731 H 157.242 0.555072 4.04207 0
M  V30 1732 H 155.917 1.68246 3.8035 0
M  V30 1733 H 154.494 -0.147368 3.72609 0
M  V30 1734 N 156.679 -1.44442 0.630414 0
M  V30 1735 C 157.627 -2.32437 -0.0871428 0
M  V30 1736 C 158.621 -1.47304 -0.836525 0
M  V30 1737 O 159.827 -1.63653 -0.749506 0
M  V30 1738 H 156.202 -0.750533 -0.0469495 0
M  V30 1739 H 158.173 -2.90709 0.673096 0
M  V30 1740 C 156.922 -3.31288 -1.05563 0
M  V30 1741 H 156.245 -3.96805 -0.488426 0
M  V30 1742 H 157.685 -3.9554 -1.52721 0
M  V30 1743 C 156.144 -2.6016 -2.14052 0
M  V30 1744 O 156.674 -2.39997 -3.22124 0
M  V30 1745 N 154.88 -2.19911 -1.89967 0
M  V30 1746 H 154.427 -2.36509 -1.02085 0
M  V30 1747 H 154.385 -1.72646 -2.62756 0
M  V30 1748 N 158.157 -0.370918 -1.53173 0
M  V30 1749 C 159.087 0.464847 -2.28826 0
M  V30 1750 C 160.068 1.07936 -1.31468 0
M  V30 1751 O 161.253 1.0956 -1.60344 0
M  V30 1752 C 158.383 1.60196 -3.08147 0
M  V30 1753 C 157.337 1.11443 -4.13237 0
M  V30 1754 C 156.663 2.3422 -4.80672 0
M  V30 1755 C 157.963 0.195384 -5.21934 0
M  V30 1756 H 159.657 -0.166329 -2.98938 0
M  V30 1757 H 157.203 -0.0814359 -1.4377 0
M  V30 1758 H 159.156 2.19332 -3.59822 0
M  V30 1759 H 157.88 2.26045 -2.35735 0
M  V30 1760 H 156.539 0.545727 -3.62515 0
M  V30 1761 H 156.187 2.98537 -4.04827 0
M  V30 1762 H 155.887 2.02269 -5.51689 0
M  V30 1763 H 157.411 2.94032 -5.35143 0
M  V30 1764 H 158.825 0.694375 -5.69079 0
M  V30 1765 H 157.222 -0.0335027 -6.00091 0
M  V30 1766 H 158.292 -0.760961 -4.78892 0
M  V30 1767 N 159.635 1.57281 -0.100228 0
M  V30 1768 C 160.598 2.13158 0.842398 0
M  V30 1769 C 161.598 1.06202 1.20738 0
M  V30 1770 O 162.788 1.32066 1.13597 0
M  V30 1771 C 159.92 2.65639 2.13655 0
M  V30 1772 H 161.113 2.97766 0.357114 0
M  V30 1773 H 158.666 1.5559 0.148823 0
M  V30 1774 H 159.401 1.84566 2.66657 0
M  V30 1775 H 159.186 3.43844 1.88451 0
M  V30 1776 H 160.676 3.08846 2.81077 0
M  V30 1777 N 161.113 -0.173488 1.56642 0
M  V30 1778 C 162.061 -1.23417 1.97157 0
M  V30 1779 C 163.055 -1.45946 0.860013 0
M  V30 1780 O 164.261 -1.46551 1.04512 0
M  V30 1781 H 160.636 -0.414818 0.62724 0
M  V30 1782 H 162.607 -0.865582 2.8557 0
M  V30 1783 C 161.356 -2.5665 2.34576 0
M  V30 1784 H 160.679 -2.40137 3.19647 0
M  V30 1785 H 162.119 -3.2956 2.6677 0
M  V30 1786 C 160.578 -3.15245 1.18836 0
M  V30 1787 O 161.108 -3.98883 0.474869 0
M  V30 1788 N 159.314 -2.74303 0.959497 0
M  V30 1789 H 158.861 -2.0639 1.54146 0
M  V30 1790 H 158.819 -3.13844 0.186932 0
M  V30 1791 N 162.591 -1.51276 -0.441967 0
M  V30 1792 C 163.839 -1.63392 -1.18943 0
M  V30 1793 C 164.16 -0.350159 -1.9183 0
M  V30 1794 O 163.43 0.633784 -1.85364 0
M  V30 1795 H 162.01 -0.602164 -0.442049 0
M  V30 1796 H 164.672 -1.88186 -0.507165 0
M  V30 1797 H 163.768 -2.45934 -1.92154 0
M  V30 1798 N 164.069 0.697108 -1.41344 0
M  V30 1799 C 164.979 1.84088 -1.45427 0
M  V30 1800 C 165.995 1.70545 -0.34501 0
M  V30 1801 O 167.171 1.92488 -0.592492 0
M  V30 1802 C 164.236 3.20056 -1.33286 0
M  V30 1803 C 163.297 3.45718 -2.54514 0
M  V30 1804 C 162.53 4.75199 -2.42944 0
M  V30 1805 O 162.753 5.51579 -1.45318 0
M  V30 1806 O 161.687 5.0161 -3.32672 0
M  V30 1807 H 165.513 1.836 -2.41919 0
M  V30 1808 H 163.098 0.849966 -1.22866 0
M  V30 1809 H 164.98 4.01236 -1.28794 0
M  V30 1810 H 163.655 3.2123 -0.39909 0
M  V30 1811 H 162.562 2.64474 -2.64583 0
M  V30 1812 H 163.895 3.49356 -3.46715 0
M  V30 1813 N 165.547 1.27147 0.931209 0
M  V30 1814 C 166.963 1.04475 1.20653 0
M  V30 1815 C 167.163 -0.223885 2.00252 0
M  V30 1816 O 166.219 -0.930332 2.34736 0
M  V30 1817 C 167.532 2.28209 1.95809 0
M  V30 1818 C 169.08 2.33211 2.08762 0
M  V30 1819 C 169.555 3.56665 2.87323 0
M  V30 1820 N 171.046 3.57201 2.94892 0
M  V30 1821 C 171.781 4.49395 3.56134 0
M  V30 1822 N 171.277 5.51889 4.18796 0
M  V30 1823 N 173.07 4.37026 3.53504 0
M  V30 1824 H 165.221 2.08612 0.399333 0
M  V30 1825 H 167.484 0.917312 0.239253 0
M  V30 1826 H 167.19 3.20538 1.44736 0
M  V30 1827 H 167.064 2.33247 2.96438 0
M  V30 1828 H 169.451 1.41391 2.59023 0
M  V30 1829 H 169.532 2.32178 1.07364 0
M  V30 1830 H 169.176 4.4882 2.37746 0
M  V30 1831 H 169.106 3.54948 3.88998 0
M  V30 1832 H 171.597 2.83074 2.50354 0
M  V30 1833 H 171.91 6.18409 4.63454 0
M  V30 1834 H 170.255 5.55735 4.17353 0
M  V30 1835 H 173.446 3.56166 3.03749 0
M  V30 1836 H 173.619 5.09067 4.00942 0
M  V30 1837 N 167.025 -1.13721 1.09112 0
M  V30 1838 C 168.271 -1.85198 0.826414 0
M  V30 1839 C 168.604 -1.83129 -0.646319 0
M  V30 1840 O 167.879 -1.2671 -1.47563 0
M  V30 1841 C 168.162 -3.33507 1.35812 0
M  V30 1842 C 168.015 -3.44108 2.89672 0
M  V30 1843 C 169.334 -4.28838 0.989256 0
M  V30 1844 H 166.453 -0.67243 0.301675 0
M  V30 1845 H 169.095 -1.33499 1.35197 0
M  V30 1846 H 167.245 -3.77666 0.911082 0
M  V30 1847 H 168.917 -3.08684 3.428 0
M  V30 1848 H 167.16 -2.85087 3.26967 0
M  V30 1849 H 167.831 -4.48388 3.21951 0
M  V30 1850 H 170.307 -3.92734 1.37475 0
M  V30 1851 H 169.183 -5.31051 1.38838 0
M  V30 1852 H 169.444 -4.4198 -0.102924 0
M  V30 1853 N 168.503 -0.877838 -1.30888 0
M  V30 1854 C 169.435 -0.296607 -2.27273 0
M  V30 1855 C 170.448 0.544799 -1.53414 0
M  V30 1856 O 171.637 0.365511 -1.74718 0
M  V30 1857 C 168.737 0.597481 -3.33592 0
M  V30 1858 C 167.91 -0.213251 -4.3688 0
M  V30 1859 C 166.969 0.610208 -5.2265 0
M  V30 1860 O 165.995 0.035441 -5.69189 0
M  V30 1861 N 167.197 1.92071 -5.47804 0
M  V30 1862 H 169.962 -1.12492 -2.77787 0
M  V30 1863 H 167.523 -0.740105 -1.43993 0
M  V30 1864 H 169.515 1.15425 -3.87891 0
M  V30 1865 H 168.085 1.32647 -2.83061 0
M  V30 1866 H 167.305 -0.951466 -3.82545 0
M  V30 1867 H 168.593 -0.769262 -5.02951 0
M  V30 1868 H 167.991 2.4107 -5.11763 0
M  V30 1869 H 166.548 2.42508 -6.05007 0
M  V30 1870 N 169.982 1.44106 -0.638065 0
M  V30 1871 C 171.231 2.01194 -0.142744 0
M  V30 1872 C 171.544 1.50835 1.24532 0
M  V30 1873 O 172.75 2.00096 1.83504 0
M  V30 1874 C 171.206 3.59319 -0.20442 0
M  V30 1875 C 170.814 4.18674 -1.59423 0
M  V30 1876 C 172.558 4.23854 0.234079 0
M  V30 1877 C 170.465 5.69045 -1.61065 0
M  V30 1878 H 169.395 0.752367 -0.0495998 0
M  V30 1879 H 172.046 1.65246 -0.797881 0
M  V30 1880 H 170.428 3.92598 0.517946 0
M  V30 1881 H 171.602 3.96921 -2.34074 0
M  V30 1882 H 169.917 3.66453 -1.97741 0
M  V30 1883 H 172.514 5.34155 0.241443 0
M  V30 1884 H 172.857 3.96688 1.2627 0
M  V30 1885 H 173.39 3.95403 -0.436025 0
M  V30 1886 H 170.129 6.00956 -2.61787 0
M  V30 1887 H 169.649 5.929 -0.90718 0
M  V30 1888 H 171.328 6.32809 -1.34766 0
M  V30 1889 N 171.46 0.379036 1.52974 0
M  V30 1890 C 172.706 -0.206727 2.01744 0
M  V30 1891 C 173.039 -1.47314 1.26539 0
M  V30 1892 O 172.314 -1.91084 0.362903 0
M  V30 1893 C 172.597 -0.485066 3.56818 0
M  V30 1894 C 172.45 0.795919 4.42702 0
M  V30 1895 C 173.769 -1.28003 4.21074 0
M  V30 1896 H 170.888 -0.0736607 0.73331 0
M  V30 1897 H 173.53 0.506581 1.83122 0
M  V30 1898 H 171.68 -1.09272 3.72816 0
M  V30 1899 H 173.352 1.43307 4.38476 0
M  V30 1900 H 171.595 1.41344 4.10127 0
M  V30 1901 H 172.266 0.555947 5.49193 0
M  V30 1902 H 174.742 -0.765867 4.08991 0
M  V30 1903 H 173.618 -1.44352 5.29579 0
M  V30 1904 H 173.879 -2.29236 3.78026 0
M  V30 1905 N 172.938 -1.57226 0.108567 0
M  V30 1906 C 173.868 -2.17778 -0.84232 0
M  V30 1907 C 174.849 -1.11487 -1.2847 0
M  V30 1908 O 176.034 -1.39681 -1.34918 0
M  V30 1909 C 173.164 -2.76888 -2.09644 0
M  V30 1910 C 172.118 -3.88669 -1.79221 0
M  V30 1911 C 171.444 -4.34541 -3.11574 0
M  V30 1912 C 172.744 -5.11251 -1.06864 0
M  V30 1913 H 174.438 -2.97489 -0.337774 0
M  V30 1914 H 171.984 -1.43097 -0.161025 0
M  V30 1915 H 173.937 -3.17904 -2.76614 0
M  V30 1916 H 172.661 -1.94451 -2.62405 0
M  V30 1917 H 171.32 -3.48213 -1.14644 0
M  V30 1918 H 170.968 -3.48977 -3.62249 0
M  V30 1919 H 170.668 -5.09914 -2.91996 0
M  V30 1920 H 172.192 -4.782 -3.7968 0
M  V30 1921 H 173.606 -5.49352 -1.63968 0
M  V30 1922 H 172.003 -5.9214 -0.974178 0
M  V30 1923 H 173.073 -4.8487 -0.0536168 0
M  V30 1924 N 174.416 0.165178 -1.56732 0
M  V30 1925 C 175.641 0.900253 -1.86843 0
M  V30 1926 C 176.066 1.74766 -0.695596 0
M  V30 1927 O 175.424 1.77786 0.35522 0
M  V30 1928 C 175.472 1.74777 -3.15413 0
M  V30 1929 O 174.576 2.85007 -2.98068 0
M  V30 1930 H 173.917 0.251832 -0.614391 0
M  V30 1931 H 176.447 0.161468 -2.03962 0
M  V30 1932 H 176.457 2.14646 -3.46974 0
M  V30 1933 H 175.132 1.12537 -4.00385 0
M  V30 1934 H 173.709 2.48676 -2.77875 0
M  V30 1935 N 175.894 1.51508 0.433938 0
M  V30 1936 C 177.305 1.56784 1.01369 0
M  V30 1937 C 177.656 0.393349 1.92217 0
M  V30 1938 O 176.781 -0.489441 2.10792 0
M  V30 1939 C 177.376 2.84144 1.8452 0
M  V30 1940 C 175.935 2.9198 2.37539 0
M  V30 1941 C 175.082 2.51482 1.16843 0
M  V30 1942 H 178.033 1.57236 0.215081 0
M  V30 1943 H 178.054 2.68098 2.70007 0
M  V30 1944 H 177.566 3.69607 1.18373 0
M  V30 1945 H 175.667 2.10955 3.0713 0
M  V30 1946 H 175.78 3.95704 2.70103 0
M  V30 1947 H 174.144 2.04758 1.51481 0
M  V30 1948 H 174.927 3.39293 0.523015 0
M  V30 1949 N 177.372 -0.689602 1.41712 0
M  V30 1950 C 178.618 -1.45181 1.41599 0
M  V30 1951 C 178.951 -1.94181 0.0270081 0
M  V30 1952 O 178.226 -1.6993 -0.946265 0
M  V30 1953 C 178.509 -2.65945 2.42787 0
M  V30 1954 C 178.362 -2.22672 3.90816 0
M  V30 1955 C 179.681 -3.68149 2.41151 0
M  V30 1956 H 176.8 -0.526576 0.515642 0
M  V30 1957 H 179.442 -0.784947 1.73028 0
M  V30 1958 H 177.592 -3.2284 2.16116 0
M  V30 1959 H 179.264 -1.71058 4.28412 0
M  V30 1960 H 177.507 -1.54394 4.05395 0
M  V30 1961 H 178.178 -3.0935 4.57172 0
M  V30 1962 H 180.654 -3.2094 2.64834 0
M  V30 1963 H 179.53 -4.50248 3.13955 0
M  V30 1964 H 179.791 -4.18259 1.43221 0
M  V30 1965 N 178.85 -1.27639 -0.924453 0
M  V30 1966 C 180.078 -1.16989 -1.70649 0
M  V30 1967 C 180.493 0.272869 -1.86818 0
M  V30 1968 O 179.85 1.18549 -1.38753 0
M  V30 1969 C 179.901 -1.85229 -3.10439 0
M  V30 1970 O 179.622 -3.23868 -2.95028 0
M  V30 1971 C 181.123 -1.80746 -4.04779 0
M  V30 1972 H 178.343 -0.406595 -0.53378 0
M  V30 1973 H 180.887 -1.68569 -1.15778 0
M  V30 1974 H 179.042 -1.37545 -3.6216 0
M  V30 1975 H 179.456 -3.57889 -3.83426 0
M  V30 1976 H 180.93 -2.33101 -5.00368 0
M  V30 1977 H 181.407 -0.777499 -4.32263 0
M  V30 1978 H 182.013 -2.28059 -3.58984 0
M  V30 1979 N 180.328 1.1314 -1.09713 0
M  V30 1980 C 181.574 1.84757 -0.836224 0
M  V30 1981 C 181.907 1.8347 0.636598 0
M  V30 1982 O 181.182 1.27491 1.46889 0
M  V30 1983 C 181.465 3.32782 -1.37578 0
M  V30 1984 C 181.318 3.42567 -2.91493 0
M  V30 1985 C 182.637 4.28307 -1.01198 0
M  V30 1986 H 179.756 0.67082 -0.305236 0
M  V30 1987 H 182.398 1.3278 -1.35903 0
M  V30 1988 H 180.548 3.77177 -0.931097 0
M  V30 1989 H 182.22 3.06862 -3.44432 0
M  V30 1990 H 180.463 2.83349 -3.28475 0
M  V30 1991 H 181.134 4.46674 -3.24324 0
M  V30 1992 H 183.61 3.91999 -1.39556 0
M  V30 1993 H 182.486 5.30307 -1.41653 0
M  V30 1994 H 182.747 4.42029 0.0794833 0
M  V30 1995 N 181.806 0.884767 1.30421 0
M  V30 1996 C 182.754 0.340869 2.30089 0
M  V30 1997 C 183.748 -0.55201 1.60154 0
M  V30 1998 O 184.954 -0.436467 1.74628 0
M  V30 1999 H 181.329 0.0915739 0.746404 0
M  V30 2000 H 183.3 1.19513 2.73421 0
M  V30 2001 C 182.049 -0.429779 3.45034 0
M  V30 2002 H 181.372 0.248024 3.9903 0
M  V30 2003 H 182.812 -0.775445 4.16849 0
M  V30 2004 C 181.271 -1.62677 2.95022 0
M  V30 2005 O 181.801 -2.72614 2.95033 0
M  V30 2006 N 180.007 -1.46387 2.51036 0
M  V30 2007 H 179.554 -0.569506 2.51226 0
M  V30 2008 H 179.512 -2.26612 2.17932 0
M  V30 2009 N 183.284 -1.43765 0.645699 0
M  V30 2010 C 184.561 -1.9541 0.0862963 0
M  V30 2011 C 184.941 -1.58725 -1.39175 0
M  V30 2012 O 184.289 -0.868581 -2.11348 0
M  V30 2013 C 184.499 -3.47488 0.324565 0
M  V30 2014 C 185.847 -4.24001 0.225497 0
M  V30 2015 O 186.871 -3.55274 0.256715 0
M  V30 2016 O 185.73 -5.46313 0.142801 0
M  V30 2017 H 182.824 -0.826882 -0.0139483 0
M  V30 2018 H 185.37 -1.53743 0.718415 0
M  V30 2019 H 184.142 -3.67289 1.3496 0
M  V30 2020 H 183.765 -3.96135 -0.340987 0
M  V30 2021 N 184.763 -0.387143 -1.52771 0
M  V30 2022 C 185.673 0.456442 -2.30117 0
M  V30 2023 C 186.689 1.07342 -1.36944 0
M  V30 2024 O 187.865 1.07971 -1.70013 0
M  V30 2025 C 184.93 1.56957 -3.09136 0
M  V30 2026 C 183.991 0.977916 -4.18014 0
M  V30 2027 C 183.224 2.038 -4.93256 0
M  V30 2028 O 183.447 3.25271 -4.68567 0
M  V30 2029 O 182.381 1.6565 -5.78657 0
M  V30 2030 H 186.207 -0.17359 -3.03203 0
M  V30 2031 H 183.792 -0.150919 -1.48636 0
M  V30 2032 H 185.674 2.21628 -3.58412 0
M  V30 2033 H 184.349 2.18461 -2.38865 0
M  V30 2034 H 183.256 0.294525 -3.72939 0
M  V30 2035 H 184.589 0.407128 -4.90513 0
M  V30 2036 N 186.241 1.57166 -0.116904 0
M  V30 2037 C 187.469 1.99473 0.549383 0
M  V30 2038 C 187.884 0.996541 1.60357 0
M  V30 2039 O 187.241 -0.0108731 1.82497 0
M  V30 2040 C 187.292 3.41788 1.17741 0
M  V30 2041 O 187.013 4.37788 0.165362 0
M  V30 2042 C 188.514 3.99216 1.92722 0
M  V30 2043 H 185.734 0.655009 0.145616 0
M  V30 2044 H 188.278 2.03494 -0.202625 0
M  V30 2045 H 186.433 3.38713 1.88021 0
M  V30 2046 H 186.847 5.20806 0.621403 0
M  V30 2047 H 188.321 5.00882 2.31995 0
M  V30 2048 H 188.798 3.3824 2.80161 0
M  V30 2049 H 189.404 4.0583 1.27209 0
M  V30 2050 N 187.719 -0.156864 1.56817 0
M  V30 2051 C 188.968 -0.869504 1.81996 0
M  V30 2052 C 189.281 -1.82777 0.696545 0
M  V30 2053 O 190.487 -2.58384 0.833658 0
M  V30 2054 C 188.943 -1.59679 3.22538 0
M  V30 2055 C 188.551 -0.681431 4.42787 0
M  V30 2056 C 190.295 -2.2968 3.56997 0
M  V30 2057 C 188.202 -1.40978 5.74351 0
M  V30 2058 H 187.132 -0.328438 0.678708 0
M  V30 2059 H 189.783 -0.1223 1.83092 0
M  V30 2060 H 188.165 -2.38927 3.158 0
M  V30 2061 H 189.339 0.0751166 4.60739 0
M  V30 2062 H 187.654 -0.0903431 4.16302 0
M  V30 2063 H 190.251 -2.84794 4.52544 0
M  V30 2064 H 190.594 -3.05707 2.82576 0
M  V30 2065 H 191.127 -1.57361 3.65352 0
M  V30 2066 H 187.866 -0.691561 6.51842 0
M  V30 2067 H 187.386 -2.13929 5.60352 0
M  V30 2068 H 189.065 -1.95337 6.16808 0
M  V30 2069 N 189.197 -1.51736 -0.425897 0
M  V30 2070 C 190.422 -1.69082 -1.20108 0
M  V30 2071 C 190.847 -0.392398 -1.83962 0
M  V30 2072 O 190.205 0.64858 -1.69302 0
M  V30 2073 C 190.253 -2.81604 -2.25237 0
M  V30 2074 O 189.357 -2.46004 -3.30992 0
M  V30 2075 H 188.698 -0.563408 -0.35138 0
M  V30 2076 H 191.228 -1.98358 -0.501512 0
M  V30 2077 H 191.238 -3.06025 -2.69838 0
M  V30 2078 H 189.913 -3.75817 -1.78142 0
M  V30 2079 H 188.49 -2.32195 -2.91787 0
M  V30 2080 N 190.675 0.682077 -1.42076 0
M  V30 2081 C 191.924 1.43786 -1.41451 0
M  V30 2082 C 192.237 1.95574 -0.0317074 0
M  V30 2083 O 193.443 2.71326 0.0971462 0
M  V30 2084 C 191.899 2.60071 -2.48779 0
M  V30 2085 C 191.507 2.15013 -3.93031 0
M  V30 2086 C 193.251 3.37626 -2.57311 0
M  V30 2087 C 191.158 3.28336 -4.91883 0
M  V30 2088 H 190.088 0.540143 -0.526082 0
M  V30 2089 H 192.739 0.739157 -1.67955 0
M  V30 2090 H 191.121 3.32275 -2.15429 0
M  V30 2091 H 192.295 1.5001 -4.35699 0
M  V30 2092 H 190.61 1.50416 -3.88284 0
M  V30 2093 H 193.207 4.22012 -3.28345 0
M  V30 2094 H 193.55 3.83727 -1.61429 0
M  V30 2095 H 194.083 2.72488 -2.89819 0
M  V30 2096 H 190.822 2.87234 -5.89217 0
M  V30 2097 H 190.342 3.92145 -4.53853 0
M  V30 2098 H 192.021 3.93913 -5.13265 0
M  V30 2099 N 192.153 1.28127 0.917671 0
M  V30 2100 C 193.378 1.18007 1.70555 0
M  V30 2101 C 193.803 -0.258257 1.86319 0
M  V30 2102 O 193.161 -1.1869 1.37049 0
M  V30 2103 C 193.209 1.87948 3.07746 0
M  V30 2104 O 192.313 1.18427 3.9503 0
M  V30 2105 H 191.654 0.409867 0.522403 0
M  V30 2106 H 194.184 1.69379 1.1477 0
M  V30 2107 H 194.194 1.95701 3.58001 0
M  V30 2108 H 192.869 2.92573 2.95591 0
M  V30 2109 H 191.446 1.18811 3.53466 0
M  V30 2110 N 193.631 -1.12557 1.10312 0
M  V30 2111 C 194.88 -1.83395 0.839588 0
M  V30 2112 C 195.193 -1.84939 -0.636929 0
M  V30 2113 O 196.399 -2.51761 -1.01631 0
M  V30 2114 C 194.855 -3.29303 1.45215 0
M  V30 2115 C 194.463 -3.36122 2.96186 0
M  V30 2116 C 196.207 -4.05121 1.26796 0
M  V30 2117 C 194.114 -4.76357 3.50483 0
M  V30 2118 H 193.044 -0.687133 0.310425 0
M  V30 2119 H 195.695 -1.26746 1.32694 0
M  V30 2120 H 194.077 -3.85812 0.892469 0
M  V30 2121 H 195.251 -2.89559 3.58458 0
M  V30 2122 H 193.566 -2.73776 3.13745 0
M  V30 2123 H 196.163 -5.08668 1.64806 0
M  V30 2124 H 196.506 -4.15773 0.209409 0
M  V30 2125 H 197.039 -3.54967 1.79563 0
M  V30 2126 H 193.778 -4.70899 4.55998 0
M  V30 2127 H 193.298 -5.23377 2.92978 0
M  V30 2128 H 194.977 -5.45294 3.48228 0
M  V30 2129 N 195.109 -0.891671 -1.2995 0
M  V30 2130 C 196.525 -0.58662 -1.48428 0
M  V30 2131 C 196.725 0.873951 -1.81561 0
M  V30 2132 O 195.781 1.65471 -1.90724 0
M  V30 2133 C 197.094 -1.50553 -2.60296 0
M  V30 2134 C 198.642 -1.50988 -2.74175 0
M  V30 2135 C 199.117 -2.41488 -3.89163 0
M  V30 2136 N 200.608 -2.39489 -3.96483 0
M  V30 2137 C 201.343 -3.06223 -4.84784 0
M  V30 2138 N 200.839 -3.82206 -5.77833 0
M  V30 2139 N 202.632 -2.95421 -4.78208 0
M  V30 2140 H 194.783 -1.83644 -1.06718 0
M  V30 2141 H 197.046 -0.786455 -0.529332 0
M  V30 2142 H 196.752 -2.54581 -2.42654 0
M  V30 2143 H 196.626 -1.22008 -3.56923 0
M  V30 2144 H 199.013 -0.47708 -2.91218 0
M  V30 2145 H 199.094 -1.83567 -1.78148 0
M  V30 2146 H 198.738 -3.44857 -3.72876 0
M  V30 2147 H 198.668 -2.06222 -4.84541 0
M  V30 2148 H 201.159 -1.84278 -3.29924 0
M  V30 2149 H 201.472 -4.302 -6.41988 0
M  V30 2150 H 199.817 -3.86313 -5.77743 0
M  V30 2151 H 203.008 -2.35581 -4.04499 0
M  V30 2152 H 203.181 -3.47704 -5.46814 0
M  V30 2153 N 196.587 1.43421 -0.653314 0
M  V30 2154 C 197.836 2.01032 -0.164076 0
M  V30 2155 C 198.149 1.52147 1.22926 0
M  V30 2156 O 199.355 2.02031 1.81371 0
M  V30 2157 C 197.811 3.59082 -0.24252 0
M  V30 2158 C 197.419 4.1696 -1.63855 0
M  V30 2159 C 199.163 4.24079 0.18911 0
M  V30 2160 C 197.07 5.67304 -1.67092 0
M  V30 2161 H 196 0.751798 -0.0575769 0
M  V30 2162 H 198.651 1.6439 -0.815362 0
M  V30 2163 H 197.033 3.93125 0.476276 0
M  V30 2164 H 198.207 3.94416 -2.38271 0
M  V30 2165 H 196.522 3.64335 -2.01616 0
M  V30 2166 H 199.119 5.34381 0.184775 0
M  V30 2167 H 199.462 3.98005 1.22056 0
M  V30 2168 H 199.995 3.94918 -0.477938 0
M  V30 2169 H 196.734 5.98145 -2.68146 0
M  V30 2170 H 196.254 5.91904 -0.970014 0
M  V30 2171 H 197.933 6.31344 -1.4147 0
M  V30 2172 N 198.065 0.39524 1.52563 0
M  V30 2173 C 199.476 -0.0774719 1.86539 0
M  V30 2174 C 199.827 -1.45641 1.31466 0
M  V30 2175 O 198.952 -2.06459 0.648367 0
M  V30 2176 C 199.547 -0.147356 3.38479 0
M  V30 2177 C 198.106 -0.564373 3.72145 0
M  V30 2178 C 197.253 0.269919 2.75983 0
M  V30 2179 H 200.204 0.612876 1.46388 0
M  V30 2180 H 200.225 -0.965343 3.68051 0
M  V30 2181 H 199.737 0.856387 3.78534 0
M  V30 2182 H 197.838 -1.57527 3.37663 0
M  V30 2183 H 197.951 -0.318402 4.78041 0
M  V30 2184 H 196.315 -0.265696 2.5331 0
M  V30 2185 H 197.098 1.27175 3.18875 0
M  V30 2186 N 199.544 -1.57102 0.125237 0
M  V30 2187 C 200.769 -2.0019 -0.542101 0
M  V30 2188 C 201.194 -1.00449 -1.59034 0
M  V30 2189 O 200.552 0.0229423 -1.81285 0
M  V30 2190 C 200.6 -3.42129 -1.13929 0
M  V30 2191 O 199.704 -3.45307 -2.2547 0
M  V30 2192 H 199.045 -0.650171 -0.134812 0
M  V30 2193 H 201.575 -2.03461 0.215553 0
M  V30 2194 H 201.585 -3.80471 -1.4733 0
M  V30 2195 H 200.26 -4.14237 -0.371531 0
M  V30 2196 H 198.837 -3.1879 -1.93462 0
M  V30 2197 N 201.022 0.148545 -1.56898 0
M  V30 2198 C 201.969 1.18345 -1.98149 0
M  V30 2199 C 202.939 1.42772 -0.848848 0
M  V30 2200 O 204.124 1.55132 -1.11079 0
M  V30 2201 C 201.264 2.51231 -2.36594 0
M  V30 2202 C 200.377 2.33991 -3.63142 0
M  V30 2203 C 199.512 3.59902 -3.90697 0
M  V30 2204 C 198.551 3.37692 -5.1052 0
M  V30 2205 N 197.688 4.5573 -5.34092 0
M  V30 2206 H 202.528 0.82467 -2.86362 0
M  V30 2207 H 200.065 0.395756 -1.41676 0
M  V30 2208 H 202.023 3.28713 -2.56912 0
M  V30 2209 H 200.653 2.85059 -1.51463 0
M  V30 2210 H 199.705 1.47572 -3.50609 0
M  V30 2211 H 201.017 2.13539 -4.5078 0
M  V30 2212 H 200.171 4.45813 -4.11505 0
M  V30 2213 H 198.91 3.83357 -3.01477 0
M  V30 2214 H 197.915 2.5017 -4.89587 0
M  V30 2215 H 199.14 3.15637 -6.0129 0
M  V30 2216 H 197.086 4.79361 -4.47827 0
M  V30 2217 H 197.003 4.38274 -6.15996 0
M  V30 2218 H 198.271 5.42858 -5.59397 0
M  V30 2219 N 202.5 1.5196 0.417844 0
M  V30 2220 C 203.728 1.69426 1.18753 0
M  V30 2221 C 204.143 0.399955 1.84515 0
M  V30 2222 O 203.5 -0.623288 1.71527 0
M  V30 2223 C 203.551 2.82375 2.25714 0
M  V30 2224 O 203.272 4.06793 1.62638 0
M  V30 2225 C 204.773 3.11277 3.15628 0
M  V30 2226 H 201.993 0.568031 0.357186 0
M  V30 2227 H 204.537 1.98475 0.49273 0
M  V30 2228 H 202.692 2.5587 2.90877 0
M  V30 2229 H 203.106 4.69667 2.3348 0
M  V30 2230 H 204.58 3.93843 3.86771 0
M  V30 2231 H 205.057 2.24473 3.77503 0
M  V30 2232 H 205.663 3.39515 2.56144 0
M  V30 2233 N 203.978 -0.674533 1.42435 0
M  V30 2234 C 205.206 -1.46283 1.46317 0
M  V30 2235 C 205.621 -1.88653 0.0745836 0
M  V30 2236 O 204.978 -1.58151 -0.91074 0
M  V30 2237 C 205.029 -2.71178 2.3905 0
M  V30 2238 O 204.75 -2.30586 3.72507 0
M  V30 2239 C 206.251 -3.64738 2.51955 0
M  V30 2240 H 203.471 -0.450104 0.497642 0
M  V30 2241 H 206.015 -0.828792 1.86953 0
M  V30 2242 H 204.17 -3.3077 2.01667 0
M  V30 2243 H 204.584 -3.11241 4.22172 0
M  V30 2244 H 206.058 -4.49096 3.20962 0
M  V30 2245 H 206.535 -4.10656 1.55752 0
M  V30 2246 H 207.141 -3.11038 2.90061 0
M  V30 2247 N 205.456 -1.28612 -0.910864 0
M  V30 2248 C 206.686 -1.1862 -1.69153 0
M  V30 2249 C 207.094 0.257324 -1.87442 0
M  V30 2250 O 206.437 1.18543 -1.40332 0
M  V30 2251 C 206.499 -1.81606 -3.10257 0
M  V30 2252 C 206.163 -3.30864 -3.15243 0
M  V30 2253 C 207.16 -4.27256 -2.96223 0
M  V30 2254 C 204.845 -3.71871 -3.37664 0
M  V30 2255 C 206.839 -5.62631 -2.99541 0
M  V30 2256 C 204.526 -5.07371 -3.40614 0
M  V30 2257 C 205.524 -6.02561 -3.21573 0
M  V30 2258 O 205.212 -7.35589 -3.2429 0
M  V30 2259 H 204.944 -0.412633 -0.535453 0
M  V30 2260 H 207.498 -1.70306 -1.14827 0
M  V30 2261 H 205.728 -1.24418 -3.66138 0
M  V30 2262 H 207.417 -1.66092 -3.70362 0
M  V30 2263 H 208.183 -3.9691 -2.78725 0
M  V30 2264 H 204.062 -2.98241 -3.5153 0
M  V30 2265 H 207.606 -6.36907 -2.84597 0
M  V30 2266 H 203.503 -5.37366 -3.57642 0
M  V30 2267 H 204.271 -7.44252 -3.40633 0
M  V30 2268 N 206.934 1.1197 -1.10907 0
M  V30 2269 C 208.345 1.65114 -0.871446 0
M  V30 2270 C 208.696 1.86885 0.597353 0
M  V30 2271 O 207.821 1.59896 1.45816 0
M  V30 2272 C 208.416 2.99944 -1.5754 0
M  V30 2273 C 206.975 3.50018 -1.38435 0
M  V30 2274 C 206.122 2.24941 -1.62164 0
M  V30 2275 H 209.073 0.956851 -1.2661 0
M  V30 2276 H 209.094 3.66651 -1.01721 0
M  V30 2277 H 208.606 2.84067 -2.64438 0
M  V30 2278 H 206.707 3.71071 -0.337214 0
M  V30 2279 H 206.82 4.29165 -2.12965 0
M  V30 2280 H 205.184 2.3229 -1.04467 0
M  V30 2281 H 205.967 2.11612 -2.70324 0
M  V30 2282 N 208.412 0.89855 1.29475 0
M  V30 2283 C 209.362 0.346767 2.25348 0
M  V30 2284 C 210.346 -0.532509 1.51833 0
M  V30 2285 O 211.538 -0.374714 1.72988 0
M  V30 2286 C 208.667 -0.425681 3.40651 0
M  V30 2287 C 207.753 0.46845 4.21505 0
M  V30 2288 N 208.144 1.57514 4.80648 0
M  V30 2289 C 206.442 0.26603 4.45206 0
M  V30 2290 C 207.143 2.12889 5.41344 0
M  V30 2291 N 206.119 1.42208 5.24669 0
M  V30 2292 H 209.921 1.19219 2.68634 0
M  V30 2293 H 207.435 0.749473 1.44072 0
M  V30 2294 H 209.432 -0.837716 4.08397 0
M  V30 2295 H 208.092 -1.26838 2.98902 0
M  V30 2296 H 209.103 1.95789 4.79465 0
M  V30 2297 H 205.78 -0.538394 4.14014 0
M  V30 2298 H 207.17 3.05901 5.98226 0
M  V30 2299 N 209.89 -1.43072 0.660911 0
M  V30 2300 C 211.115 -2.06584 0.183805 0
M  V30 2301 C 211.54 -1.49257 -1.14472 0
M  V30 2302 O 210.898 -0.605528 -1.70889 0
M  V30 2303 C 210.946 -3.60418 0.114434 0
M  V30 2304 O 210.05 -4.01981 -0.921137 0
M  V30 2305 H 209.391 -0.656669 0.0983994 0
M  V30 2306 H 211.921 -1.83447 0.906006 0
M  V30 2307 H 211.931 -4.07946 -0.0663394 0
M  V30 2308 H 210.606 -4.01519 1.08422 0
M  V30 2309 H 209.183 -3.66029 -0.71253 0
M  V30 2310 N 211.368 -0.403325 -1.52352 0
M  V30 2311 C 212.615 0.174347 -2.01748 0
M  V30 2312 C 212.943 1.45636 -1.2892 0
M  V30 2313 O 212.198 1.9193 -0.382258 0
M  V30 2314 C 212.497 0.474665 -3.54234 0
M  V30 2315 C 212.163 -0.717458 -4.45155 0
M  V30 2316 C 210.825 -1.04447 -4.69728 0
M  V30 2317 C 213.177 -1.51432 -4.98716 0
M  V30 2318 C 210.505 -2.16963 -5.45109 0
M  V30 2319 C 212.857 -2.6302 -5.75329 0
M  V30 2320 C 211.521 -2.96213 -5.98175 0
M  V30 2321 H 210.791 0.0637981 -0.738248 0
M  V30 2322 H 213.438 -0.543553 -1.83624 0
M  V30 2323 H 211.743 1.27406 -3.70506 0
M  V30 2324 H 213.44 0.934496 -3.89959 0
M  V30 2325 H 210.03 -0.452596 -4.26204 0
M  V30 2326 H 214.214 -1.27491 -4.79645 0
M  V30 2327 H 209.47 -2.43034 -5.61021 0
M  V30 2328 H 213.644 -3.25158 -6.15829 0
M  V30 2329 H 211.271 -3.83516 -6.56368 0
M  V30 2330 N 212.846 1.57033 -0.133567 0
M  V30 2331 C 214.093 1.95686 0.520877 0
M  V30 2332 C 214.421 1.0177 1.6575 0
M  V30 2333 O 213.676 0.0443195 1.9565 0
M  V30 2334 C 213.975 3.40674 1.08057 0
M  V30 2335 C 213.641 4.50855 0.0637899 0
M  V30 2336 C 212.303 4.80716 -0.215757 0
M  V30 2337 C 214.655 5.17398 -0.62835 0
M  V30 2338 C 211.983 5.74433 -1.19348 0
M  V30 2339 C 214.335 6.12167 -1.5948 0
M  V30 2340 C 212.999 6.40414 -1.88218 0
M  V30 2341 H 212.269 0.716067 0.190602 0
M  V30 2342 H 214.916 1.9026 -0.217556 0
M  V30 2343 H 213.221 3.42865 1.89606 0
M  V30 2344 H 214.918 3.67902 1.59529 0
M  V30 2345 H 211.508 4.27605 0.291855 0
M  V30 2346 H 215.692 4.94472 -0.425562 0
M  V30 2347 H 210.948 5.94616 -1.42272 0
M  V30 2348 H 215.122 6.6281 -2.13671 0
M  V30 2349 H 212.749 7.12838 -2.64133 0
M  V30 2350 N 214.325 -0.140222 1.56975 0
M  V30 2351 C 215.235 -1.19223 2.02047 0
M  V30 2352 C 216.251 -1.46612 0.937062 0
M  V30 2353 O 217.427 -1.58148 1.24704 0
M  V30 2354 C 214.492 -2.50414 2.39778 0
M  V30 2355 C 213.553 -2.30612 3.621 0
M  V30 2356 C 212.786 -3.55547 3.98023 0
M  V30 2357 O 213.009 -4.62004 3.34528 0
M  V30 2358 O 211.943 -3.47808 4.91237 0
M  V30 2359 H 215.769 -0.839559 2.91865 0
M  V30 2360 H 213.354 -0.349453 1.45256 0
M  V30 2361 H 215.236 -3.27747 2.64877 0
M  V30 2362 H 213.911 -2.85198 1.53114 0
M  V30 2363 H 212.818 -1.51207 3.4218 0
M  V30 2364 H 214.151 -2.00741 4.49404 0
M  V30 2365 N 215.803 -1.52179 -0.40978 0
M  V30 2366 C 216.713 -1.78364 -1.52392 0
M  V30 2367 C 217.729 -0.669183 -1.60617 0
M  V30 2368 O 218.905 -0.954518 -1.77344 0
M  V30 2369 C 215.97 -1.92822 -2.88133 0
M  V30 2370 C 215.031 -3.16725 -2.898 0
M  V30 2371 C 214.264 -3.30483 -4.19067 0
M  V30 2372 O 214.487 -2.49522 -5.12928 0
M  V30 2373 O 213.421 -4.2363 -4.27576 0
M  V30 2374 H 217.247 -2.72931 -1.33201 0
M  V30 2375 H 214.832 -1.37016 -0.59557 0
M  V30 2376 H 216.714 -2.04157 -3.68643 0
M  V30 2377 H 215.389 -1.01444 -3.07393 0
M  V30 2378 H 214.296 -3.10848 -2.08146 0
M  V30 2379 H 215.629 -4.07881 -2.75489 0
M  V30 2380 N 217.281 0.66697 -1.42791 0
M  V30 2381 C 218.213 1.7925 -1.42836 0
M  V30 2382 C 219.226 1.59496 -0.326333 0
M  V30 2383 O 220.415 1.6847 -0.589916 0
M  V30 2384 C 217.515 3.16476 -1.21229 0
M  V30 2385 C 216.688 3.63011 -2.44013 0
M  V30 2386 C 215.747 4.78993 -2.17834 0
M  V30 2387 O 214.773 4.89137 -2.91091 0
M  V30 2388 N 215.975 5.68248 -1.18635 0
M  V30 2389 H 218.74 1.79695 -2.39854 0
M  V30 2390 H 216.301 0.850338 -1.37771 0
M  V30 2391 H 218.293 3.91734 -1.01621 0
M  V30 2392 H 216.863 3.10884 -0.32706 0
M  V30 2393 H 216.083 2.78346 -2.79137 0
M  V30 2394 H 217.371 3.90845 -3.25757 0
M  V30 2395 H 216.769 5.62712 -0.580615 0
M  V30 2396 H 215.326 6.43285 -1.05013 0
M  V30 2397 N 218.759 1.29093 0.90403 0
M  V30 2398 C 220.007 1.16583 1.65085 0
M  V30 2399 C 220.328 -0.283933 1.92922 0
M  V30 2400 O 219.598 -1.19509 1.55224 0
M  V30 2401 H 218.178 0.428467 0.611903 0
M  V30 2402 H 220.84 1.61959 1.08422 0
M  V30 2403 H 219.936 1.71266 2.6091 0
M  V30 2404 N 220.237 -1.11381 1.11499 0
M  V30 2405 C 221.484 -1.83132 0.864231 0
M  V30 2406 C 221.812 -1.84683 -0.610114 0
M  V30 2407 O 221.067 -1.29589 -1.46646 0
M  V30 2408 C 221.366 -3.30026 1.37177 0
M  V30 2409 C 221.032 -3.48634 2.85946 0
M  V30 2410 C 219.694 -3.53421 3.26569 0
M  V30 2411 C 222.046 -3.54837 3.81759 0
M  V30 2412 C 219.374 -3.61967 4.61733 0
M  V30 2413 C 221.726 -3.64915 5.1674 0
M  V30 2414 C 220.39 -3.67962 5.5692 0
M  V30 2415 H 219.66 -0.670127 0.316245 0
M  V30 2416 H 222.307 -1.31354 1.3935 0
M  V30 2417 H 220.612 -3.84304 0.762753 0
M  V30 2418 H 222.309 -3.84034 1.15408 0
M  V30 2419 H 218.899 -3.45579 2.53521 0
M  V30 2420 H 223.083 -3.50399 3.51474 0
M  V30 2421 H 218.339 -3.62603 4.92269 0
M  V30 2422 H 222.513 -3.68658 5.90816 0
M  V30 2423 H 220.14 -3.74336 6.61647 0
M  V30 2424 N 221.715 -0.905404 -1.28997 0
M  V30 2425 C 222.945 -0.549049 -1.99171 0
M  V30 2426 C 223.353 0.87203 -1.67906 0
M  V30 2427 O 222.696 1.58796 -0.923561 0
M  V30 2428 C 222.758 -0.668306 -3.53234 0
M  V30 2429 C 222.422 -2.0574 -4.08069 0
M  V30 2430 C 223.419 -3.0292 -4.22534 0
M  V30 2431 C 221.104 -2.36833 -4.42962 0
M  V30 2432 C 223.098 -4.29314 -4.71135 0
M  V30 2433 C 220.785 -3.63467 -4.91258 0
M  V30 2434 C 221.783 -4.59522 -5.053 0
M  V30 2435 O 221.471 -5.83907 -5.52546 0
M  V30 2436 H 221.203 -0.208784 -0.64295 0
M  V30 2437 H 223.757 -1.21836 -1.65363 0
M  V30 2438 H 221.987 0.0580547 -3.86656 0
M  V30 2439 H 223.676 -0.320273 -4.04634 0
M  V30 2440 H 224.442 -2.80216 -3.95859 0
M  V30 2441 H 220.321 -1.62824 -4.31288 0
M  V30 2442 H 223.865 -5.04293 -4.8201 0
M  V30 2443 H 219.762 -3.86 -5.17372 0
M  V30 2444 H 220.53 -5.86578 -5.70849 0
M  V30 2445 N 223.193 1.4272 -0.668489 0
M  V30 2446 C 224.141 2.32586 0.0254857 0
M  V30 2447 C 225.135 1.49471 0.797176 0
M  V30 2448 O 226.341 1.65583 0.705853 0
M  V30 2449 H 222.716 0.751514 0.0270339 0
M  V30 2450 H 224.687 2.88823 -0.749936 0
M  V30 2451 C 223.436 3.3397 0.967427 0
M  V30 2452 H 222.759 3.97961 0.383048 0
M  V30 2453 H 224.199 3.9945 1.42181 0
M  V30 2454 C 222.658 2.65744 2.0708 0
M  V30 2455 O 223.188 2.48454 3.15648 0
M  V30 2456 N 221.394 2.2487 1.8407 0
M  V30 2457 H 220.941 2.39132 0.95778 0
M  V30 2458 H 220.899 1.79552 2.58086 0
M  V30 2459 N 224.671 0.411399 1.52136 0
M  V30 2460 C 225.601 -0.404015 2.29978 0
M  V30 2461 C 226.582 -1.04412 1.34284 0
M  V30 2462 O 227.767 -1.0527 1.63192 0
M  V30 2463 C 224.897 -1.5197 3.12286 0
M  V30 2464 C 223.851 -1.00448 4.16046 0
M  V30 2465 C 223.177 -2.21393 4.86712 0
M  V30 2466 C 224.477 -0.0569336 5.22269 0
M  V30 2467 H 226.171 0.245529 2.98392 0
M  V30 2468 H 223.717 0.119525 1.43503 0
M  V30 2469 H 225.67 -2.09715 3.6551 0
M  V30 2470 H 224.394 -2.19716 2.41646 0
M  V30 2471 H 223.053 -0.449421 3.63835 0
M  V30 2472 H 222.701 -2.87699 4.12599 0
M  V30 2473 H 222.401 -1.87571 5.56858 0
M  V30 2474 H 223.925 -2.7974 5.4275 0
M  V30 2475 H 225.339 -0.54325 5.7072 0
M  V30 2476 H 223.736 0.192594 5.99791 0
M  V30 2477 H 224.806 0.887663 4.76706 0
M  V30 2478 N 226.149 -1.5696 0.141893 0
M  V30 2479 C 227.079 -2.19516 -0.795936 0
M  V30 2480 C 228.06 -1.14187 -1.26077 0
M  V30 2481 O 229.245 -1.42511 -1.31925 0
M  V30 2482 C 226.375 -2.81272 -2.03723 0
M  V30 2483 C 225.329 -3.92384 -1.70936 0
M  V30 2484 C 224.655 -4.41052 -3.02287 0
M  V30 2485 C 225.955 -5.13403 -0.959954 0
M  V30 2486 H 227.649 -2.98138 -0.274596 0
M  V30 2487 H 225.195 -1.43406 -0.130636 0
M  V30 2488 H 227.148 -3.237 -2.69808 0
M  V30 2489 H 225.872 -1.99973 -2.58221 0
M  V30 2490 H 224.531 -3.50566 -1.07232 0
M  V30 2491 H 224.179 -3.56582 -3.54765 0
M  V30 2492 H 223.879 -5.15993 -2.81114 0
M  V30 2493 H 225.403 -4.86146 -3.69451 0
M  V30 2494 H 226.817 -5.52706 -1.52279 0
M  V30 2495 H 225.214 -5.94073 -0.848357 0
M  V30 2496 H 226.284 -4.84875 0.0492434 0
M  V30 2497 N 227.627 0.131896 -1.57047 0
M  V30 2498 C 228.904 0.871495 -1.75112 0
M  V30 2499 C 229.284 1.9866 -0.713949 0
M  V30 2500 O 228.632 2.26965 0.264447 0
M  V30 2501 C 228.842 1.40007 -3.19686 0
M  V30 2502 C 230.19 1.85752 -3.81813 0
M  V30 2503 O 231.214 1.49715 -3.23209 0
M  V30 2504 O 230.073 2.5226 -4.84796 0
M  V30 2505 H 227.167 0.412919 -0.716538 0
M  V30 2506 H 229.713 0.116641 -1.69299 0
M  V30 2507 H 228.485 0.599404 -3.86682 0
M  V30 2508 H 228.108 2.218 -3.29986 0
M  V30 2509 N 229.106 1.52395 0.401703 0
M  V30 2510 C 230.054 1.7689 1.51039 0
M  V30 2511 C 231.048 0.636298 1.56996 0
M  V30 2512 O 232.254 0.818507 1.60314 0
M  V30 2513 H 228.629 0.559502 0.502456 0
M  V30 2514 H 230.6 2.69757 1.27568 0
M  V30 2515 C 229.349 1.94331 2.88324 0
M  V30 2516 H 228.672 2.80905 2.84486 0
M  V30 2517 H 230.112 2.15466 3.65172 0
M  V30 2518 C 228.571 0.712396 3.29282 0
M  V30 2519 O 229.101 -0.116218 4.01532 0
M  V30 2520 N 227.307 0.546154 2.85422 0
M  V30 2521 H 226.854 1.22156 2.26794 0
M  V30 2522 H 226.812 -0.276113 3.13185 0
M  V30 2523 N 230.584 -0.659388 1.43143 0
M  V30 2524 C 231.531 -1.77249 1.47822 0
M  V30 2525 C 232.501 -1.62818 0.328558 0
M  V30 2526 O 233.686 -1.83151 0.534838 0
M  V30 2527 C 230.826 -3.15371 1.40126 0
M  V30 2528 C 229.939 -3.4098 2.65249 0
M  V30 2529 C 229.074 -4.68915 2.49584 0
M  V30 2530 C 228.113 -4.87608 3.70006 0
M  V30 2531 N 227.25 -6.06796 3.53189 0
M  V30 2532 H 232.09 -1.72584 2.42938 0
M  V30 2533 H 229.627 -0.842297 1.20598 0
M  V30 2534 H 231.585 -3.9521 1.33659 0
M  V30 2535 H 230.215 -3.19121 0.485964 0
M  V30 2536 H 229.267 -2.55282 2.8202 0
M  V30 2537 H 230.579 -3.50681 3.54717 0
M  V30 2538 H 229.733 -5.56871 2.4079 0
M  V30 2539 H 228.472 -4.61524 1.5763 0
M  V30 2540 H 227.477 -3.9809 3.79215 0
M  V30 2541 H 228.702 -4.96834 4.62961 0
M  V30 2542 H 226.648 -6.00549 2.63965 0
M  V30 2543 H 226.565 -6.17428 4.36255 0
M  V30 2544 H 227.833 -6.9739 3.48236 0
M  V30 2545 N 232.062 -1.29571 -0.897171 0
M  V30 2546 C 232.972 -1.16808 -2.03453 0
M  V30 2547 C 233.988 -0.0907471 -1.73763 0
M  V30 2548 O 235.164 -0.303312 -1.99103 0
M  V30 2549 C 232.229 -0.848264 -3.36163 0
M  V30 2550 C 231.29 -2.0097 -3.79354 0
M  V30 2551 C 230.523 -1.70505 -5.05731 0
M  V30 2552 O 230.746 -0.62718 -5.66941 0
M  V30 2553 O 229.68 -2.5538 -5.45036 0
M  V30 2554 H 233.506 -2.12325 -2.17144 0
M  V30 2555 H 231.091 -1.09047 -1.02123 0
M  V30 2556 H 232.973 -0.684581 -4.15802 0
M  V30 2557 H 231.648 0.0771071 -3.23608 0
M  V30 2558 H 230.555 -2.22863 -3.00471 0
M  V30 2559 H 231.888 -2.91636 -3.96496 0
M  V30 2560 N 233.54 1.10788 -1.12088 0
M  V30 2561 C 234.472 2.16816 -0.743213 0
M  V30 2562 C 235.485 1.6119 0.228412 0
M  V30 2563 O 236.674 1.78497 0.0102931 0
M  V30 2564 C 233.774 3.38809 -0.0787313 0
M  V30 2565 C 232.947 4.23885 -1.0789 0
M  V30 2566 C 232.006 5.24334 -0.442713 0
M  V30 2567 O 231.032 5.58497 -1.09864 0
M  V30 2568 N 232.234 5.75079 0.791457 0
M  V30 2569 H 234.999 2.49825 -1.65552 0
M  V30 2570 H 232.56 1.26373 -1.012 0
M  V30 2571 H 234.552 4.03107 0.358766 0
M  V30 2572 H 233.122 3.03805 0.736275 0
M  V30 2573 H 232.342 3.55939 -1.69414 0
M  V30 2574 H 233.63 4.77562 -1.75533 0
M  V30 2575 H 233.028 5.49517 1.3434 0
M  V30 2576 H 231.585 6.4118 1.17183 0
M  V30 2577 N 235.018 0.912232 1.28515 0
M  V30 2578 C 235.981 0.404223 2.25607 0
M  V30 2579 C 236.981 -0.468602 1.53821 0
M  V30 2580 O 238.171 -0.271873 1.72065 0
M  V30 2581 C 235.303 -0.420653 3.38295 0
M  V30 2582 H 236.496 1.26188 2.7206 0
M  V30 2583 H 234.049 0.691495 1.40171 0
M  V30 2584 H 234.784 -1.29777 2.97201 0
M  V30 2585 H 234.569 0.204935 3.91564 0
M  V30 2586 H 236.059 -0.766971 4.10496 0
M  V30 2587 N 236.496 -1.42363 0.676048 0
M  V30 2588 C 237.745 -2.00745 0.196037 0
M  V30 2589 C 238.058 -1.54083 -1.20489 0
M  V30 2590 O 239.264 -2.04891 -1.78134 0
M  V30 2591 C 237.72 -3.58651 0.299616 0
M  V30 2592 C 237.328 -4.143 1.70468 0
M  V30 2593 C 239.072 -4.24326 -0.121619 0
M  V30 2594 C 236.979 -5.64574 1.76096 0
M  V30 2595 H 235.909 -0.750787 0.0695301 0
M  V30 2596 H 238.56 -1.63072 0.841412 0
M  V30 2597 H 236.942 -3.93833 -0.413673 0
M  V30 2598 H 238.116 -3.90575 2.44515 0
M  V30 2599 H 236.431 -3.61081 2.07387 0
M  V30 2600 H 239.028 -5.34607 -0.0997362 0
M  V30 2601 H 239.371 -3.99897 -1.15708 0
M  V30 2602 H 239.904 -3.94108 0.540706 0
M  V30 2603 H 236.643 -5.93804 2.77628 0
M  V30 2604 H 236.163 -5.90286 1.06406 0
M  V30 2605 H 237.842 -6.29013 1.51496 0
M  V30 2606 N 237.974 -0.419461 -1.51915 0
M  V30 2607 C 239.199 0.154572 -2.06823 0
M  V30 2608 C 239.624 1.3722 -1.28656 0
M  V30 2609 O 238.982 1.78461 -0.319583 0
M  V30 2610 C 239.03 0.473172 -3.57482 0
M  V30 2611 O 238.134 1.56255 -3.81652 0
M  V30 2612 H 237.475 0.0096924 -0.663929 0
M  V30 2613 H 240.005 -0.595642 -1.95738 0
M  V30 2614 H 240.015 0.728825 -4.01438 0
M  V30 2615 H 238.69 -0.416873 -4.13805 0
M  V30 2616 H 237.267 1.29825 -3.49571 0
M  V30 2617 N 239.452 1.56882 -0.150215 0
M  V30 2618 C 240.415 2.1573 0.774157 0
M  V30 2619 C 241.415 1.0999 1.17298 0
M  V30 2620 O 242.605 1.35613 1.09338 0
M  V30 2621 C 239.737 2.72302 2.05096 0
M  V30 2622 H 240.93 2.98752 0.262201 0
M  V30 2623 H 238.483 1.55985 0.099248 0
M  V30 2624 H 239.218 1.92956 2.6065 0
M  V30 2625 H 239.003 3.49665 1.77416 0
M  V30 2626 H 240.493 3.17632 2.71109 0
M  V30 2627 N 240.93 -0.123565 1.57115 0
M  V30 2628 C 242.179 -0.830704 1.83799 0
M  V30 2629 C 242.492 -1.81259 0.735158 0
M  V30 2630 O 243.698 -2.56558 0.888278 0
M  V30 2631 C 242.154 -1.52802 3.25852 0
M  V30 2632 C 241.762 -0.587356 4.44133 0
M  V30 2633 C 243.506 -2.22056 3.61789 0
M  V30 2634 C 241.413 -1.28764 5.77212 0
M  V30 2635 H 240.343 -0.313967 0.685522 0
M  V30 2636 H 242.994 -0.0834359 1.8331 0
M  V30 2637 H 241.376 -2.32175 3.20797 0
M  V30 2638 H 242.55 0.172829 4.60476 0
M  V30 2639 H 240.865 -0.00201892 4.164 0
M  V30 2640 H 243.462 -2.75131 4.58483 0
M  V30 2641 H 243.805 -2.99644 2.88997 0
M  V30 2642 H 244.338 -1.49576 3.68608 0
M  V30 2643 H 241.077 -0.55314 6.53162 0
M  V30 2644 H 240.597 -2.01995 5.64764 0
M  V30 2645 H 242.276 -1.8221 6.20813 0
M  V30 2646 N 242.408 -1.52605 -0.393616 0
M  V30 2647 C 243.355 -1.77055 -1.48054 0
M  V30 2648 C 244.325 -0.61358 -1.54352 0
M  V30 2649 O 245.51 -0.852806 -1.70681 0
M  V30 2650 C 242.65 -1.94108 -2.85335 0
M  V30 2651 C 241.763 -3.21792 -2.88226 0
M  V30 2652 C 240.898 -3.29188 -4.16904 0
M  V30 2653 C 239.937 -4.51013 -4.13828 0
M  V30 2654 N 239.074 -4.55716 -5.34105 0
M  V30 2655 H 243.914 -2.69815 -1.26506 0
M  V30 2656 H 241.451 -1.33683 -0.61379 0
M  V30 2657 H 243.409 -2.01979 -3.65049 0
M  V30 2658 H 242.039 -1.04713 -3.05344 0
M  V30 2659 H 241.091 -3.23015 -2.00911 0
M  V30 2660 H 242.403 -4.11557 -2.8182 0
M  V30 2661 H 241.557 -3.36216 -5.05018 0
M  V30 2662 H 240.296 -2.37389 -4.26026 0
M  V30 2663 H 239.301 -4.44115 -3.24102 0
M  V30 2664 H 240.526 -5.44123 -4.06333 0
M  V30 2665 H 238.472 -3.66807 -5.43865 0
M  V30 2666 H 238.389 -5.39346 -5.29756 0
M  V30 2667 H 239.657 -4.66993 -6.2413 0
M  V30 2668 N 243.887 0.651787 -1.4349 0
M  V30 2669 C 245.164 1.40909 -1.35661 0
M  V30 2670 C 245.544 2.11099 -0.00511733 0
M  V30 2671 O 244.892 2.04892 1.0115 0
M  V30 2672 C 245.102 2.3926 -2.54078 0
M  V30 2673 C 246.45 3.03217 -2.97228 0
M  V30 2674 O 247.474 2.49588 -2.54135 0
M  V30 2675 O 246.333 4.00455 -3.71885 0
M  V30 2676 H 243.427 0.629625 -0.536191 0
M  V30 2677 H 245.973 0.678575 -1.55542 0
M  V30 2678 H 244.745 1.86352 -3.44076 0
M  V30 2679 H 244.368 3.1976 -2.36303 0
M  V30 2680 N 245.365 1.30045 0.890287 0
M  V30 2681 C 246.613 1.18327 1.63839 0
M  V30 2682 C 246.934 -0.263455 1.93212 0
M  V30 2683 O 246.204 -1.17856 1.56482 0
M  V30 2684 H 244.784 0.434933 0.607324 0
M  V30 2685 H 247.446 1.631 1.06698 0
M  V30 2686 H 246.542 1.74024 2.59079 0
M  V30 2687 N 246.843 -1.10192 1.12674 0
M  V30 2688 C 248.092 -1.81573 0.8783 0
M  V30 2689 C 248.405 -1.86249 -0.597557 0
M  V30 2690 O 249.611 -2.5386 -0.962681 0
M  V30 2691 C 248.067 -3.26149 1.52167 0
M  V30 2692 C 247.675 -3.29763 3.03249 0
M  V30 2693 C 249.419 -4.0234 1.3536 0
M  V30 2694 C 247.326 -4.68815 3.60508 0
M  V30 2695 H 246.256 -0.680394 0.324931 0
M  V30 2696 H 248.907 -1.23902 1.35353 0
M  V30 2697 H 247.289 -3.83832 0.974104 0
M  V30 2698 H 248.463 -2.8189 3.6452 0
M  V30 2699 H 246.778 -2.67059 3.19481 0
M  V30 2700 H 249.375 -5.05058 1.75559 0
M  V30 2701 H 249.718 -4.15235 0.297554 0
M  V30 2702 H 250.251 -3.51079 1.87052 0
M  V30 2703 H 246.99 -4.61121 4.65884 0
M  V30 2704 H 246.51 -5.17045 3.04014 0
M  V30 2705 H 248.189 -5.37785 3.59717 0
M  V30 2706 N 248.321 -0.919034 -1.28029 0
M  V30 2707 C 249.284 -0.416182 -2.2539 0
M  V30 2708 C 250.284 0.460438 -1.54067 0
M  V30 2709 O 251.474 0.262744 -1.72207 0
M  V30 2710 C 248.606 0.402707 -3.38513 0
M  V30 2711 H 249.799 -1.27629 -2.71387 0
M  V30 2712 H 247.352 -0.698919 -1.39803 0
M  V30 2713 H 248.087 1.282 -2.97885 0
M  V30 2714 H 247.872 -0.225698 -3.9145 0
M  V30 2715 H 249.362 0.745191 -4.10897 0
M  V30 2716 N 249.799 1.42003 -0.683588 0
M  V30 2717 C 251.048 2.00638 -0.206681 0
M  V30 2718 C 251.361 1.5472 1.19671 0
M  V30 2719 O 252.567 2.05833 1.77045 0
M  V30 2720 C 251.023 3.58487 -0.318632 0
M  V30 2721 C 250.631 4.1339 -1.72663 0
M  V30 2722 C 252.375 4.24384 0.0991141 0
M  V30 2723 C 250.282 5.63633 -1.79087 0
M  V30 2724 H 249.212 0.750408 -0.0735107 0
M  V30 2725 H 251.863 1.62624 -0.850048 0
M  V30 2726 H 250.245 3.94047 0.392781 0
M  V30 2727 H 251.419 3.89273 -2.46583 0
M  V30 2728 H 249.734 3.59976 -2.09299 0
M  V30 2729 H 252.331 5.34652 0.0713833 0
M  V30 2730 H 252.674 4.00505 1.13586 0
M  V30 2731 H 253.207 3.93816 -0.561599 0
M  V30 2732 H 249.946 5.92323 -2.80774 0
M  V30 2733 H 249.466 5.89714 -1.09535 0
M  V30 2734 H 251.145 6.28201 -1.5483 0
M  V30 2735 N 251.277 0.427512 1.51691 0
M  V30 2736 C 252.525 -0.141948 2.01601 0
M  V30 2737 C 252.846 -1.44067 1.31414 0
M  V30 2738 O 252.116 -1.90763 0.445658 0
M  V30 2739 H 250.696 -0.0554468 0.744939 0
M  V30 2740 H 253.358 0.567968 1.86441 0
M  V30 2741 H 252.454 -0.324913 3.10404 0
M  V30 2742 N 252.755 -1.56801 0.158532 0
M  V30 2743 C 253.702 -2.17337 -0.776729 0
M  V30 2744 C 254.672 -1.1096 -1.23601 0
M  V30 2745 O 255.857 -1.39054 -1.30647 0
M  V30 2746 C 252.997 -2.80822 -2.00582 0
M  V30 2747 C 252.11 -4.01624 -1.59129 0
M  V30 2748 C 251.245 -4.53072 -2.77306 0
M  V30 2749 C 250.284 -5.66314 -2.32282 0
M  V30 2750 N 249.421 -6.12329 -3.43508 0
M  V30 2751 H 254.261 -2.96918 -0.253701 0
M  V30 2752 H 251.798 -1.46661 -0.113504 0
M  V30 2753 H 253.756 -3.15779 -2.72652 0
M  V30 2754 H 252.386 -2.03866 -2.50277 0
M  V30 2755 H 251.438 -3.72571 -0.767806 0
M  V30 2756 H 252.75 -4.83633 -1.2207 0
M  V30 2757 H 251.904 -4.90145 -3.57551 0
M  V30 2758 H 250.643 -3.70095 -3.17617 0
M  V30 2759 H 249.648 -5.28806 -1.5048 0
M  V30 2760 H 250.873 -6.51085 -1.93043 0
M  V30 2761 H 248.819 -5.32284 -3.83418 0
M  V30 2762 H 248.736 -6.89293 -3.105 0
M  V30 2763 H 250.004 -6.5405 -4.24075 0
M  V30 2764 N 254.233 0.115231 -1.57178 0
M  V30 2765 C 255.181 1.16014 -2.01602 0
M  V30 2766 C 256.175 1.42653 -0.913587 0
M  V30 2767 O 257.381 1.42571 -1.09879 0
M  V30 2768 H 253.756 0.391252 -0.642204 0
M  V30 2769 H 255.727 0.758998 -2.88586 0
M  V30 2770 C 254.476 2.47767 -2.4394 0
M  V30 2771 H 253.799 2.28108 -3.28339 0
M  V30 2772 H 255.239 3.19432 -2.78818 0
M  V30 2773 C 253.698 3.10617 -1.30455 0
M  V30 2774 O 254.228 3.96846 -0.622585 0
M  V30 2775 N 252.434 2.70553 -1.06064 0
M  V30 2776 H 251.981 2.00527 -1.61699 0
M  V30 2777 H 251.939 3.12934 -0.303284 0
M  V30 2778 N 255.711 1.52812 0.385517 0
M  V30 2779 C 256.957 1.68275 1.13188 0
M  V30 2780 C 257.29 0.423179 1.89533 0
M  V30 2781 O 256.565 -0.579113 1.85679 0
M  V30 2782 C 256.848 2.92001 2.1073 0
M  V30 2783 C 256.701 4.28067 1.38125 0
M  V30 2784 C 258.02 3.11283 3.11113 0
M  V30 2785 H 255.139 0.612352 0.410115 0
M  V30 2786 H 257.781 1.85415 0.414869 0
M  V30 2787 H 255.931 2.77519 2.71874 0
M  V30 2788 H 257.603 4.54324 0.799187 0
M  V30 2789 H 255.846 4.28388 0.683092 0
M  V30 2790 H 256.517 5.10733 2.09417 0
M  V30 2791 H 258.993 3.2482 2.6006 0
M  V30 2792 H 257.869 3.99325 3.76605 0
M  V30 2793 H 258.13 2.25656 3.80173 0
M  V30 2794 N 257.189 -0.644168 1.43834 0
M  V30 2795 C 258.438 -1.39985 1.45214 0
M  V30 2796 C 258.751 -1.95421 0.0835494 0
M  V30 2797 O 259.957 -2.71488 -0.0251748 0
M  V30 2798 C 258.413 -2.53384 2.55587 0
M  V30 2799 C 258.021 -2.04517 3.98594 0
M  V30 2800 C 259.765 -3.30685 2.66172 0
M  V30 2801 C 257.672 -3.1518 5.00416 0
M  V30 2802 H 256.602 -0.526005 0.540218 0
M  V30 2803 H 259.253 -0.694367 1.69855 0
M  V30 2804 H 257.635 -3.26446 2.24163 0
M  V30 2805 H 258.809 -1.38405 4.39523 0
M  V30 2806 H 257.124 -1.40068 3.92135 0
M  V30 2807 H 259.721 -4.13158 3.39418 0
M  V30 2808 H 260.064 -3.79312 1.71546 0
M  V30 2809 H 260.597 -2.64708 2.96942 0
M  V30 2810 H 257.336 -2.71511 5.96625 0
M  V30 2811 H 256.856 -3.79974 4.64091 0
M  V30 2812 H 258.535 -3.80166 5.23529 0
M  V30 2813 N 258.668 -1.30515 -0.883378 0
M  V30 2814 C 259.914 -1.19607 -1.63774 0
M  V30 2815 C 260.247 0.248314 -1.92606 0
M  V30 2816 O 259.522 1.17742 -1.54813 0
M  V30 2817 C 259.805 -2.02669 -2.97653 0
M  V30 2818 C 259.658 -3.55335 -2.75784 0
M  V30 2819 C 260.977 -1.86573 -3.98596 0
M  V30 2820 H 258.096 -0.435856 -0.594305 0
M  V30 2821 H 260.738 -1.60165 -1.02212 0
M  V30 2822 H 258.888 -1.68208 -3.50197 0
M  V30 2823 H 260.56 -3.99863 -2.30016 0
M  V30 2824 H 258.803 -3.79438 -2.1026 0
M  V30 2825 H 259.474 -4.08745 -3.70988 0
M  V30 2826 H 261.95 -2.16703 -3.55217 0
M  V30 2827 H 260.826 -2.47014 -4.90179 0
M  V30 2828 H 261.087 -0.825321 -4.34328 0
M  V30 2829 N 260.146 1.09593 -1.13257 0
M  V30 2830 C 261.386 1.83349 -0.903472 0
M  V30 2831 C 261.75 1.83641 0.560351 0
M  V30 2832 O 262.951 2.53037 0.906947 0
M  V30 2833 C 261.222 3.25629 -1.47311 0
M  V30 2834 S 262.781 4.16408 -1.38382 0
M  V30 2835 H 259.599 0.632014 -0.325699 0
M  V30 2836 H 262.201 1.31817 -1.44376 0
M  V30 2837 H 260.905 3.22991 -2.53189 0
M  V30 2838 H 260.436 3.82233 -0.930689 0
M  V30 2839 H 262.451 4.94884 -0.361113 0
M  V30 2840 N 261.624 0.925811 1.2754 0
M  V30 2841 C 262.872 0.564138 1.94067 0
M  V30 2842 C 263.193 -0.897188 1.73134 0
M  V30 2843 O 262.463 -1.63573 1.07799 0
M  V30 2844 H 261.043 0.205645 0.718136 0
M  V30 2845 H 263.705 1.1778 1.55287 0
M  V30 2846 H 262.801 0.76881 3.02483 0
M  V30 2847 N 263.102 -1.41638 0.69111 0
M  V30 2848 C 264.35 -2.00902 0.219758 0
M  V30 2849 C 264.671 -1.54994 -1.18329 0
M  V30 2850 O 263.941 -0.778628 -1.79762 0
M  V30 2851 H 262.521 -0.74289 0.0782558 0
M  V30 2852 H 265.183 -1.73327 0.891271 0
M  V30 2853 H 264.279 -3.11224 0.233708 0
M  V30 2854 N 264.58 -0.43555 -1.51462 0
M  V30 2855 C 265.808 0.130242 -2.0649 0
M  V30 2856 C 266.223 1.36614 -1.30315 0
M  V30 2857 O 265.58 1.78869 -0.362223 0
M  V30 2858 C 265.631 0.454253 -3.58635 0
M  V30 2859 O 265.352 -0.73259 -4.31931 0
M  V30 2860 C 266.853 1.07091 -4.3017 0
M  V30 2861 H 264.073 0.00871669 -0.670943 0
M  V30 2862 H 266.617 -0.614117 -1.95061 0
M  V30 2863 H 264.772 1.14851 -3.69984 0
M  V30 2864 H 265.186 -0.455787 -5.22516 0
M  V30 2865 H 266.66 1.24764 -5.37716 0
M  V30 2866 H 267.137 2.05144 -3.88346 0
M  V30 2867 H 267.743 0.416089 -4.2326 0
M  V30 2868 N 266.058 1.56714 -0.166846 0
M  V30 2869 C 267.306 1.96358 0.478305 0
M  V30 2870 C 267.627 1.0537 1.6408 0
M  V30 2871 O 266.897 0.119154 1.95537 0
M  V30 2872 H 265.477 0.725065 0.179692 0
M  V30 2873 H 268.139 1.93329 -0.246985 0
M  V30 2874 H 267.235 3.00547 0.841292 0
M  V30 2875 N 267.536 -0.106894 1.57237 0
M  V30 2876 C 268.761 -0.830287 1.90055 0
M  V30 2877 C 269.186 -1.72064 0.75998 0
M  V30 2878 O 268.544 -1.78982 -0.288991 0
M  V30 2879 C 268.592 -1.6295 3.21683 0
M  V30 2880 O 267.696 -2.73748 3.08441 0
M  V30 2881 H 267.037 -0.228855 0.623315 0
M  V30 2882 H 269.567 -0.085658 2.04421 0
M  V30 2883 H 269.577 -2.01621 3.54701 0
M  V30 2884 H 268.252 -0.975989 4.04286 0
M  V30 2885 H 266.829 -2.38192 2.86913 0
M  V30 2886 N 269.014 -1.53014 -0.377408 0
M  V30 2887 C 270.262 -1.6829 -1.11906 0
M  V30 2888 C 270.583 -0.431206 -1.90173 0
M  V30 2889 O 269.853 0.554595 -1.87886 0
M  V30 2890 H 268.433 -0.620371 -0.416112 0
M  V30 2891 H 271.095 -1.90167 -0.426893 0
M  V30 2892 H 270.191 -2.53862 -1.8155 0
M  V30 2893 N 270.492 0.636531 -1.44174 0
M  V30 2894 C 271.439 1.74875 -1.50624 0
M  V30 2895 C 272.409 1.62275 -0.35442 0
M  V30 2896 O 273.594 1.82276 -0.563908 0
M  V30 2897 C 270.734 3.13102 -1.45125 0
M  V30 2898 C 269.847 3.36717 -2.7064 0
M  V30 2899 C 268.982 4.64885 -2.57013 0
M  V30 2900 C 268.021 4.8166 -3.77717 0
M  V30 2901 N 267.158 6.01101 -3.62798 0
M  V30 2902 H 271.998 1.68697 -2.45653 0
M  V30 2903 H 269.535 0.823004 -1.21922 0
M  V30 2904 H 271.493 3.93034 -1.39929 0
M  V30 2905 H 270.123 3.18308 -0.536671 0
M  V30 2906 H 269.175 2.50763 -2.86046 0
M  V30 2907 H 270.487 3.44993 -3.60252 0
M  V30 2908 H 269.641 5.52969 -2.49619 0
M  V30 2909 H 268.38 4.58957 -1.64953 0
M  V30 2910 H 267.385 3.92007 -3.85501 0
M  V30 2911 H 268.61 4.89406 -4.70807 0
M  V30 2912 H 266.556 5.96273 -2.73486 0
M  V30 2913 H 266.473 6.10409 -4.46023 0
M  V30 2914 H 267.741 6.91761 -3.59286 0
M  V30 2915 N 271.97 1.30982 0.876444 0
M  V30 2916 C 273.198 1.23242 1.6619 0
M  V30 2917 C 273.613 -0.203345 1.87702 0
M  V30 2918 O 272.97 -1.13317 1.43057 0
M  V30 2919 C 273.021 1.96623 3.03351 0
M  V30 2920 O 272.742 3.34594 2.82804 0
M  V30 2921 C 274.243 1.95644 3.97792 0
M  V30 2922 H 271.463 0.426126 0.518322 0
M  V30 2923 H 274.007 1.7275 1.09442 0
M  V30 2924 H 272.162 1.50892 3.56806 0
M  V30 2925 H 272.576 3.71873 3.69879 0
M  V30 2926 H 274.05 2.51511 4.91372 0
M  V30 2927 H 274.527 0.937395 4.2908 0
M  V30 2928 H 275.133 2.41225 3.50272 0
M  V30 2929 N 273.449 -1.08991 1.13837 0
M  V30 2930 C 274.677 -1.85011 0.926202 0
M  V30 2931 C 275.092 -1.8135 -0.525127 0
M  V30 2932 O 274.449 -1.21287 -1.36366 0
M  V30 2933 C 274.5 -3.32802 1.41155 0
M  V30 2934 O 274.221 -3.36444 2.80601 0
M  V30 2935 C 275.722 -4.25649 1.23847 0
M  V30 2936 H 272.942 -0.584249 0.32999 0
M  V30 2937 H 275.486 -1.37688 1.51202 0
M  V30 2938 H 273.641 -3.77536 0.868631 0
M  V30 2939 H 274.055 -4.28657 3.02248 0
M  V30 2940 H 275.529 -5.27485 1.62675 0
M  V30 2941 H 276.006 -4.38828 0.18065 0
M  V30 2942 H 276.612 -3.86735 1.76964 0
M  V30 2943 N 274.927 -0.932562 -1.27047 0
M  V30 2944 C 276.157 -0.591173 -1.97961 0
M  V30 2945 C 276.565 0.836219 -1.69717 0
M  V30 2946 O 275.908 1.56801 -0.957036 0
M  V30 2947 C 275.97 -0.743082 -3.51736 0
M  V30 2948 C 275.634 -2.1435 -4.03613 0
M  V30 2949 C 276.631 -3.11815 -4.16014 0
M  V30 2950 C 274.316 -2.46175 -4.37839 0
M  V30 2951 C 276.31 -4.39211 -4.61923 0
M  V30 2952 C 273.997 -3.73806 -4.83438 0
M  V30 2953 C 274.995 -4.70137 -4.95439 0
M  V30 2954 O 274.683 -5.95496 -5.40037 0
M  V30 2955 H 274.415 -0.222375 -0.638377 0
M  V30 2956 H 276.969 -1.25317 -1.62742 0
M  V30 2957 H 275.199 -0.0239739 -3.86693 0
M  V30 2958 H 276.888 -0.40603 -4.03864 0
M  V30 2959 H 277.654 -2.88549 -3.89826 0
M  V30 2960 H 273.533 -1.71936 -4.27737 0
M  V30 2961 H 277.077 -5.14404 -4.71205 0
M  V30 2962 H 272.974 -3.96888 -5.09068 0
M  V30 2963 H 273.742 -5.98554 -5.58279 0
M  V30 2964 N 276.405 1.4127 -0.698611 0
M  V30 2965 C 277.654 2.00408 -0.227949 0
M  V30 2966 C 277.967 1.55981 1.18023 0
M  V30 2967 O 279.173 2.07699 1.74852 0
M  V30 2968 C 277.629 3.58129 -0.356636 0
M  V30 2969 C 277.237 4.11536 -1.77037 0
M  V30 2970 C 278.981 4.24466 0.0540969 0
M  V30 2971 C 276.888 5.61701 -1.85055 0
M  V30 2972 H 275.818 0.749586 -0.0814657 0
M  V30 2973 H 278.469 1.61713 -0.867249 0
M  V30 2974 H 276.851 3.94442 0.350965 0
M  V30 2975 H 278.025 3.86636 -2.50698 0
M  V30 2976 H 276.34 3.57736 -2.13105 0
M  V30 2977 H 278.937 5.34698 0.0146723 0
M  V30 2978 H 279.28 4.01687 1.09332 0
M  V30 2979 H 279.813 3.93198 -0.603337 0
M  V30 2980 H 276.552 5.89312 -2.8704 0
M  V30 2981 H 276.072 5.88519 -1.15783 0
M  V30 2982 H 277.751 6.26524 -1.61484 0
M  V30 2983 N 277.883 0.443576 1.51229 0
M  V30 2984 C 278.83 -0.364716 2.279 0
M  V30 2985 C 279.8 -1.0114 1.31757 0
M  V30 2986 O 280.985 -1.02912 1.60667 0
M  V30 2987 C 278.125 -1.45644 3.12861 0
M  V30 2988 C 277.238 -0.827269 4.24005 0
M  V30 2989 C 276.373 -1.89456 4.96266 0
M  V30 2990 C 275.412 -1.24416 5.99322 0
M  V30 2991 N 274.549 -2.25309 6.64966 0
M  V30 2992 H 279.389 0.295464 2.96532 0
M  V30 2993 H 276.926 0.157554 1.46254 0
M  V30 2994 H 278.884 -2.10076 3.6045 0
M  V30 2995 H 277.514 -2.08616 2.46331 0
M  V30 2996 H 276.566 -0.0710839 3.80334 0
M  V30 2997 H 277.878 -0.312481 4.9782 0
M  V30 2998 H 277.032 -2.61535 5.47434 0
M  V30 2999 H 275.771 -2.4431 4.22095 0
M  V30 3000 H 274.776 -0.508868 5.4744 0
M  V30 3001 H 276.001 -0.702882 6.75453 0
M  V30 3002 H 273.947 -2.79231 5.93604 0
M  V30 3003 H 273.864 -1.78739 7.34567 0
M  V30 3004 H 275.132 -2.96853 7.20763 0
M  V30 3005 N 279.361 -1.56624 0.175154 0
M  V30 3006 C 280.586 -2.01813 -0.478137 0
M  V30 3007 C 281.011 -1.05457 -1.55757 0
M  V30 3008 O 280.369 -0.0347439 -1.81267 0
M  V30 3009 C 280.417 -3.45581 -1.02987 0
M  V30 3010 O 279.521 -3.52305 -2.14371 0
M  V30 3011 H 278.862 -0.65413 -0.114059 0
M  V30 3012 H 281.392 -2.02673 0.280173 0
M  V30 3013 H 281.402 -3.84965 -1.35151 0
M  V30 3014 H 280.077 -4.1521 -0.239556 0
M  V30 3015 H 278.654 -3.24783 -1.83222 0
M  V30 3016 N 280.839 0.0985539 -1.57292 0
M  V30 3017 C 282.088 0.801358 -1.85098 0
M  V30 3018 C 282.401 1.80066 -0.763902 0
M  V30 3019 O 283.607 2.55112 -0.928981 0
M  V30 3020 C 282.063 1.47599 -3.28242 0
M  V30 3021 C 281.671 0.516624 -4.45011 0
M  V30 3022 C 283.415 2.16272 -3.65276 0
M  V30 3023 C 281.322 1.19564 -5.79188 0
M  V30 3024 H 280.252 0.303022 -0.69043 0
M  V30 3025 H 282.903 0.0542623 -1.8342 0
M  V30 3026 H 281.285 2.27042 -3.2445 0
M  V30 3027 H 282.459 -0.246065 -4.60143 0
M  V30 3028 H 280.774 -0.064227 -4.1635 0
M  V30 3029 H 283.371 2.67802 -4.62803 0
M  V30 3030 H 283.714 2.95009 -2.93727 0
M  V30 3031 H 284.247 1.43693 -3.70941 0
M  V30 3032 H 280.986 0.449157 -6.53959 0
M  V30 3033 H 280.506 1.92984 -5.67906 0
M  V30 3034 H 282.185 1.7231 -6.23633 0
M  V30 3035 N 282.317 1.53212 0.369288 0
M  V30 3036 C 283.25 1.74166 1.4745 0
M  V30 3037 C 284.228 0.589923 1.51521 0
M  V30 3038 O 285.412 0.822078 1.69629 0
M  V30 3039 C 282.539 1.81711 2.8583 0
M  V30 3040 C 281.585 3.03649 2.99499 0
M  V30 3041 S 282.418 4.63242 2.6864 0
M  V30 3042 C 283.574 4.7363 4.09177 0
M  V30 3043 H 283.807 2.67636 1.29454 0
M  V30 3044 H 281.34 1.43754 0.563396 0
M  V30 3045 H 283.298 1.86743 3.65564 0
M  V30 3046 H 281.959 0.89299 3.01139 0
M  V30 3047 H 281.152 3.05526 4.00836 0
M  V30 3048 H 280.754 2.9671 2.27683 0
M  V30 3049 H 283.046 4.53456 5.03372 0
M  V30 3050 H 283.989 5.75682 4.12306 0
M  V30 3051 H 284.397 4.02295 3.96004 0
M  V30 3052 N 283.795 -0.628877 1.44509 0
M  V30 3053 C 284.705 -1.7694 1.54044 0
M  V30 3054 C 285.721 -1.68705 0.425987 0
M  V30 3055 O 286.897 -1.89442 0.683656 0
M  V30 3056 C 283.962 -3.13332 1.48405 0
M  V30 3057 C 283.023 -3.33181 2.70719 0
M  V30 3058 C 282.256 -4.63067 2.6534 0
M  V30 3059 O 282.479 -5.44017 1.71469 0
M  V30 3060 O 281.413 -4.85167 3.56226 0
M  V30 3061 H 285.239 -1.71848 2.50403 0
M  V30 3062 H 282.824 -0.790378 1.26781 0
M  V30 3063 H 284.706 -3.94634 1.47791 0
M  V30 3064 H 283.381 -3.1896 0.551898 0
M  V30 3065 H 282.288 -2.51549 2.769 0
M  V30 3066 H 283.621 -3.32416 3.62988 0
M  V30 3067 N 285.273 -1.31445 -0.869486 0
M  V30 3068 C 286.52 -1.21158 -1.62256 0
M  V30 3069 C 286.848 0.230155 -1.93133 0
M  V30 3070 O 286.103 1.17906 -1.56194 0
M  V30 3071 C 286.402 -2.00145 -2.96102 0
M  V30 3072 C 286.068 -3.4964 -2.84715 0
M  V30 3073 C 284.73 -3.90403 -2.81317 0
M  V30 3074 C 287.082 -4.44769 -2.71716 0
M  V30 3075 C 284.41 -5.24561 -2.62778 0
M  V30 3076 C 286.762 -5.79054 -2.54714 0
M  V30 3077 C 285.426 -6.19037 -2.49699 0
M  V30 3078 H 284.696 -0.443348 -0.593737 0
M  V30 3079 H 287.343 -1.62715 -1.00976 0
M  V30 3080 H 285.648 -1.5127 -3.6142 0
M  V30 3081 H 287.345 -1.89566 -3.53363 0
M  V30 3082 H 283.935 -3.17256 -2.88178 0
M  V30 3083 H 288.119 -4.14208 -2.73397 0
M  V30 3084 H 283.375 -5.54613 -2.57321 0
M  V30 3085 H 287.549 -6.52393 -2.43632 0
M  V30 3086 H 285.176 -7.22935 -2.35093 0
M  V30 3087 N 286.751 1.08385 -1.14413 0
M  V30 3088 C 288 1.80153 -0.907076 0
M  V30 3089 C 288.313 1.87176 0.567851 0
M  V30 3090 O 289.519 2.55359 0.922172 0
M  V30 3091 C 287.975 3.23687 -1.57336 0
M  V30 3092 C 287.583 3.24897 -3.08457 0
M  V30 3093 C 289.327 4.00136 -1.41744 0
M  V30 3094 C 287.234 4.6302 -3.67921 0
M  V30 3095 H 286.164 0.675139 -0.335714 0
M  V30 3096 H 288.815 1.21733 -1.37307 0
M  V30 3097 H 287.197 3.82234 -1.03505 0
M  V30 3098 H 288.371 2.76055 -3.68958 0
M  V30 3099 H 286.686 2.61943 -3.2369 0
M  V30 3100 H 289.283 5.02201 -1.83572 0
M  V30 3101 H 289.626 4.14709 -0.363576 0
M  V30 3102 H 290.159 3.48058 -1.92614 0
M  V30 3103 H 286.898 4.5365 -4.73161 0
M  V30 3104 H 286.418 5.12143 -3.12201 0
M  V30 3105 H 288.097 5.31994 -3.68227 0
M  V30 3106 N 288.23 0.939286 1.26551 0
M  V30 3107 C 289.641 0.628782 1.75793 0
M  V30 3108 C 289.992 -0.856046 1.7654 0
M  V30 3109 O 289.117 -1.66994 1.3763 0
M  V30 3110 C 289.712 1.13465 3.19235 0
M  V30 3111 C 288.271 0.874601 3.66098 0
M  V30 3112 C 287.418 1.28667 2.45642 0
M  V30 3113 H 290.369 1.1178 1.12654 0
M  V30 3114 H 290.39 0.487609 3.77363 0
M  V30 3115 H 289.902 2.21535 3.1866 0
M  V30 3116 H 288.003 -0.191793 3.72106 0
M  V30 3117 H 288.116 1.50028 4.55004 0
M  V30 3118 H 286.48 0.705109 2.44745 0
M  V30 3119 H 287.263 2.37625 2.47769 0
M  V30 3120 N 289.708 -1.40897 0.706093 0
M  V30 3121 C 290.655 -2.30751 0.0474474 0
M  V30 3122 C 291.625 -1.47678 -0.76029 0
M  V30 3123 O 292.81 -1.76441 -0.726177 0
M  V30 3124 C 289.95 -3.33815 -0.875309 0
M  V30 3125 C 289.063 -4.31961 -0.0580623 0
M  V30 3126 C 288.198 -5.22093 -0.979425 0
M  V30 3127 C 287.237 -6.11902 -0.155706 0
M  V30 3128 N 286.374 -6.94482 -1.03144 0
M  V30 3129 H 291.214 -2.86513 0.819413 0
M  V30 3130 H 288.751 -1.41102 0.415783 0
M  V30 3131 H 290.709 -3.92129 -1.42446 0
M  V30 3132 H 289.339 -2.79579 -1.61356 0
M  V30 3133 H 288.391 -3.75507 0.608147 0
M  V30 3134 H 289.703 -4.95415 0.580082 0
M  V30 3135 H 288.857 -5.85292 -1.59744 0
M  V30 3136 H 287.596 -4.5889 -1.65141 0
M  V30 3137 H 286.601 -5.47742 0.475309 0
M  V30 3138 H 287.826 -6.77162 0.512635 0
M  V30 3139 H 285.772 -6.33877 -1.68924 0
M  V30 3140 H 285.689 -7.54665 -0.449108 0
M  V30 3141 H 286.957 -7.6214 -1.63593 0
M  V30 3142 N 291.186 -0.45159 -1.50991 0
M  V30 3143 C 292.096 0.358431 -2.31846 0
M  V30 3144 C 293.112 1.01438 -1.41373 0
M  V30 3145 O 294.288 1.00663 -1.74439 0
M  V30 3146 C 291.353 1.43704 -3.15515 0
M  V30 3147 C 290.414 0.799742 -4.21785 0
M  V30 3148 C 289.647 1.82696 -5.01456 0
M  V30 3149 O 289.87 3.05105 -4.81941 0
M  V30 3150 O 288.804 1.40958 -5.85162 0
M  V30 3151 H 292.63 -0.302032 -3.02194 0
M  V30 3152 H 290.215 -0.213825 -1.47862 0
M  V30 3153 H 292.097 2.06227 -3.67489 0
M  V30 3154 H 290.772 2.08133 -2.47916 0
M  V30 3155 H 289.679 0.136084 -3.73852 0
M  V30 3156 H 291.012 0.198718 -4.91799 0
M  V30 3157 N 292.664 1.56529 -0.183458 0
M  V30 3158 C 293.574 2.22144 0.754272 0
M  V30 3159 C 294.59 1.21684 1.24374 0
M  V30 3160 O 295.766 1.54385 1.29333 0
M  V30 3161 C 292.831 2.85884 1.96141 0
M  V30 3162 C 291.892 4.01579 1.51765 0
M  V30 3163 C 291.125 4.6227 2.66725 0
M  V30 3164 O 291.348 4.21865 3.83909 0
M  V30 3165 O 290.282 5.51936 2.40104 0
M  V30 3166 H 294.108 3.02861 0.225527 0
M  V30 3167 H 291.693 1.49331 0.0453032 0
M  V30 3168 H 293.575 3.26253 2.66715 0
M  V30 3169 H 292.25 2.08154 2.47899 0
M  V30 3170 H 291.157 3.65856 0.781049 0
M  V30 3171 H 292.49 4.80938 1.04686 0
M  V30 3172 N 294.142 -0.090211 1.57342 0
M  V30 3173 C 295.558 -0.444547 1.53284 0
M  V30 3174 C 295.758 -1.80238 0.900914 0
M  V30 3175 O 294.814 -2.4759 0.495513 0
M  V30 3176 C 296.127 -0.402543 2.97993 0
M  V30 3177 C 297.675 -0.48405 3.09234 0
M  V30 3178 C 298.15 -0.472144 4.5556 0
M  V30 3179 N 299.641 -0.532757 4.60126 0
M  V30 3180 C 300.376 -0.545462 5.708 0
M  V30 3181 N 299.872 -0.514082 6.9089 0
M  V30 3182 N 301.665 -0.59064 5.58988 0
M  V30 3183 H 293.816 0.799121 1.96794 0
M  V30 3184 H 296.079 0.297965 0.899956 0
M  V30 3185 H 295.785 0.528106 3.47712 0
M  V30 3186 H 295.659 -1.21969 3.56936 0
M  V30 3187 H 298.046 -1.40512 2.595 0
M  V30 3188 H 298.127 0.361328 2.53235 0
M  V30 3189 H 297.771 0.445 5.05947 0
M  V30 3190 H 297.701 -1.3348 5.09402 0
M  V30 3191 H 300.192 -0.562006 3.73698 0
M  V30 3192 H 300.505 -0.527195 7.71 0
M  V30 3193 H 298.85 -0.481054 6.93333 0
M  V30 3194 H 302.041 -0.61272 4.64073 0
M  V30 3195 H 302.214 -0.597073 6.45243 0
M  V30 3196 N 295.62 -1.53406 -0.361157 0
M  V30 3197 C 296.869 -1.69022 -1.10066 0
M  V30 3198 C 297.182 -0.450838 -1.90333 0
M  V30 3199 O 298.388 -0.487617 -2.67085 0
M  V30 3200 C 296.844 -2.98812 -2.00598 0
M  V30 3201 C 296.452 -4.30027 -1.25621 0
M  V30 3202 C 298.196 -3.23795 -2.74513 0
M  V30 3203 C 296.103 -5.50903 -2.1508 0
M  V30 3204 H 295.033 -0.629776 -0.414606 0
M  V30 3205 H 297.684 -1.79907 -0.361348 0
M  V30 3206 H 296.066 -2.8174 -2.78278 0
M  V30 3207 H 297.24 -4.57745 -0.529739 0
M  V30 3208 H 295.555 -4.11522 -0.635496 0
M  V30 3209 H 298.152 -4.11289 -3.41681 0
M  V30 3210 H 298.495 -2.40045 -3.40123 0
M  V30 3211 H 299.028 -3.41561 -2.03914 0
M  V30 3212 H 295.767 -6.37143 -1.54041 0
M  V30 3213 H 295.287 -5.27459 -2.85565 0
M  V30 3214 H 296.966 -5.85865 -2.74538 0
M  V30 3215 N 297.098 0.621204 -1.44841 0
M  V30 3216 C 298.347 1.37658 -1.47422 0
M  V30 3217 C 298.66 1.95264 -0.114629 0
M  V30 3218 O 299.866 2.71494 -0.0180199 0
M  V30 3219 C 298.322 2.49285 -2.59586 0
M  V30 3220 C 297.93 1.98149 -4.01797 0
M  V30 3221 C 299.674 3.26409 -2.71399 0
M  V30 3222 C 297.581 3.07178 -5.05367 0
M  V30 3223 H 296.511 0.517344 -0.548517 0
M  V30 3224 H 299.162 0.667257 -1.70938 0
M  V30 3225 H 297.544 3.22839 -2.29328 0
M  V30 3226 H 298.718 1.31395 -4.41669 0
M  V30 3227 H 297.033 1.33812 -3.94314 0
M  V30 3228 H 299.63 4.07706 -3.45948 0
M  V30 3229 H 299.973 3.76535 -1.77559 0
M  V30 3230 H 300.506 2.5995 -3.01116 0
M  V30 3231 H 297.245 2.61985 -6.00869 0
M  V30 3232 H 296.765 3.72542 -4.70077 0
M  V30 3233 H 298.444 3.71789 -5.29511 0
M  V30 3234 N 298.576 1.31904 0.862503 0
M  V30 3235 C 299.801 1.25135 1.65397 0
M  V30 3236 C 300.226 -0.179 1.87246 0
M  V30 3237 O 299.584 -1.1277 1.4196 0
M  V30 3238 C 299.632 2.00832 2.99498 0
M  V30 3239 O 298.736 1.35075 3.89652 0
M  V30 3240 H 298.077 0.431655 0.504549 0
M  V30 3241 H 300.607 1.74094 1.07483 0
M  V30 3242 H 300.617 2.10709 3.49379 0
M  V30 3243 H 299.292 3.04847 2.82916 0
M  V30 3244 H 297.869 1.33696 3.48109 0
M  V30 3245 N 300.054 -1.07777 1.14986 0
M  V30 3246 C 301.303 -1.79669 0.916617 0
M  V30 3247 C 301.616 -1.87474 -0.557917 0
M  V30 3248 O 302.822 -2.55845 -0.908617 0
M  V30 3249 C 301.278 -3.22848 1.59051 0
M  V30 3250 C 300.886 -3.23257 3.10176 0
M  V30 3251 C 302.63 -3.99379 1.43864 0
M  V30 3252 C 300.537 -4.61063 3.70372 0
M  V30 3253 H 299.467 -0.673349 0.33929 0
M  V30 3254 H 302.118 -1.21003 1.37951 0
M  V30 3255 H 300.5 -3.8168 1.0553 0
M  V30 3256 H 301.674 -2.74095 3.70417 0
M  V30 3257 H 299.989 -2.60222 3.25074 0
M  V30 3258 H 302.586 -5.0122 1.86232 0
M  V30 3259 H 302.929 -4.14511 0.385564 0
M  V30 3260 H 303.462 -3.47032 1.94457 0
M  V30 3261 H 300.201 -4.51135 4.7556 0
M  V30 3262 H 299.721 -5.1048 3.14913 0
M  V30 3263 H 301.4 -5.30034 3.71043 0
M  V30 3264 N 301.532 -0.945985 -1.26051 0
M  V30 3265 C 302.442 -0.465633 -2.29933 0
M  V30 3266 C 303.458 0.462761 -1.67733 0
M  V30 3267 O 304.634 0.341118 -1.9849 0
M  V30 3268 C 301.699 0.256994 -3.45746 0
M  V30 3269 C 300.76 -0.708549 -4.23412 0
M  V30 3270 C 299.993 -0.0203135 -5.33696 0
M  V30 3271 O 300.216 1.19571 -5.57726 0
M  V30 3272 O 299.15 -0.701459 -5.97799 0
M  V30 3273 H 302.976 -1.32866 -2.73094 0
M  V30 3274 H 300.561 -0.712071 -1.31339 0
M  V30 3275 H 302.443 0.663852 -4.16138 0
M  V30 3276 H 301.118 1.09533 -3.04605 0
M  V30 3277 H 300.025 -1.16545 -3.55483 0
M  V30 3278 H 301.358 -1.51465 -4.68315 0
M  V30 3279 N 303.011 1.40521 -0.713556 0
M  V30 3280 C 304.288 1.94775 -0.17943 0
M  V30 3281 C 304.668 1.65184 1.31444 0
M  V30 3282 O 304.016 0.968429 2.06963 0
M  V30 3283 C 304.226 3.45543 -0.489986 0
M  V30 3284 C 305.574 4.22442 -0.427536 0
M  V30 3285 O 306.598 3.53644 -0.425929 0
M  V30 3286 O 305.457 5.4501 -0.403292 0
M  V30 3287 H 302.551 0.826606 -0.0255192 0
M  V30 3288 H 305.097 1.5014 -0.790949 0
M  V30 3289 H 303.869 3.60432 -1.5233 0
M  V30 3290 H 303.492 3.97311 0.151598 0
M  V30 3291 N 304.489 0.459591 1.5075 0
M  V30 3292 C 305.717 -0.0973749 2.06671 0
M  V30 3293 C 306.132 -1.34524 1.32472 0
M  V30 3294 O 305.489 -1.7827 0.390634 0
M  V30 3295 C 305.54 -0.39714 3.59312 0
M  V30 3296 O 305.261 0.801214 4.30711 0
M  V30 3297 C 306.762 -1.00234 4.31819 0
M  V30 3298 H 303.982 0.00195854 0.670997 0
M  V30 3299 H 306.526 0.645072 1.94059 0
M  V30 3300 H 304.681 -1.08951 3.71764 0
M  V30 3301 H 305.095 0.538857 5.21725 0
M  V30 3302 H 306.569 -1.16193 5.39632 0
M  V30 3303 H 307.046 -1.98939 3.91561 0
M  V30 3304 H 307.652 -0.348699 4.23868 0
M  V30 3305 N 305.967 -1.56429 0.191757 0
M  V30 3306 C 306.877 -2.22541 -0.742481 0
M  V30 3307 C 307.893 -1.22342 -1.23727 0
M  V30 3308 O 309.069 -1.55069 -1.28513 0
M  V30 3309 C 306.134 -2.8692 -1.94623 0
M  V30 3310 C 305.195 -4.02378 -1.49633 0
M  V30 3311 C 304.428 -4.63678 -2.6427 0
M  V30 3312 O 304.651 -4.23895 -3.81666 0
M  V30 3313 O 303.585 -5.53202 -2.37174 0
M  V30 3314 H 307.411 -3.02977 -0.209462 0
M  V30 3315 H 304.996 -1.49353 -0.0373832 0
M  V30 3316 H 306.878 -3.27663 -2.64982 0
M  V30 3317 H 305.553 -2.09466 -2.46791 0
M  V30 3318 H 304.46 -3.66265 -0.761636 0
M  V30 3319 H 305.793 -4.81487 -1.02134 0
M  V30 3320 N 307.445 0.0818655 -1.57387 0
M  V30 3321 C 308.355 1.11642 -2.06333 0
M  V30 3322 C 309.371 1.43033 -0.99083 0
M  V30 3323 O 310.547 1.53411 -1.30488 0
M  V30 3324 C 307.612 2.41342 -2.48907 0
M  V30 3325 C 306.673 2.17014 -3.7041 0
M  V30 3326 C 305.906 3.4053 -4.10944 0
M  V30 3327 O 306.129 4.4927 -3.51444 0
M  V30 3328 O 305.063 3.29336 -5.03807 0
M  V30 3329 H 308.889 0.730657 -2.9478 0
M  V30 3330 H 306.474 0.295301 -1.46452 0
M  V30 3331 H 308.356 3.17691 -2.76858 0
M  V30 3332 H 307.031 2.79319 -1.63593 0
M  V30 3333 H 305.938 1.38403 -3.47556 0
M  V30 3334 H 307.271 1.83923 -4.56545 0
M  V30 3335 N 308.923 1.53595 0.353017 0
M  V30 3336 C 310.172 1.69603 1.09168 0
M  V30 3337 C 310.485 0.460925 1.90092 0
M  V30 3338 O 311.691 0.501774 2.66823 0
M  V30 3339 C 310.147 2.99872 1.9901 0
M  V30 3340 C 309.755 4.30687 1.23339 0
M  V30 3341 C 311.499 3.25246 2.72792 0
M  V30 3342 C 309.406 5.52036 2.12156 0
M  V30 3343 H 308.336 0.631966 0.411261 0
M  V30 3344 H 310.987 1.80096 0.351802 0
M  V30 3345 H 309.369 2.83212 2.7678 0
M  V30 3346 H 310.543 4.58019 0.505456 0
M  V30 3347 H 308.858 4.11853 0.613663 0
M  V30 3348 H 311.455 4.13095 3.39495 0
M  V30 3349 H 311.798 2.41846 3.38846 0
M  V30 3350 H 312.331 3.42638 2.021 0
M  V30 3351 H 309.07 6.37951 1.50659 0
M  V30 3352 H 308.59 5.28966 2.82764 0
M  V30 3353 H 310.269 5.87313 2.71427 0
M  V30 3354 N 310.401 -0.613514 1.45168 0
M  V30 3355 C 311.647 -1.37471 1.49096 0
M  V30 3356 C 311.98 -1.93765 0.129901 0
M  V30 3357 O 311.255 -1.74707 -0.854858 0
M  V30 3358 C 311.538 -2.52701 2.56542 0
M  V30 3359 C 311.391 -2.01643 4.0207 0
M  V30 3360 C 312.71 -3.54849 2.60327 0
M  V30 3361 H 309.829 -0.498502 0.54283 0
M  V30 3362 H 312.471 -0.692125 1.76945 0
M  V30 3363 H 310.621 -3.10931 2.32926 0
M  V30 3364 H 312.293 -1.48108 4.36877 0
M  V30 3365 H 310.536 -1.32688 4.13009 0
M  V30 3366 H 311.207 -2.84681 4.72928 0
M  V30 3367 H 313.683 -3.0645 2.81474 0
M  V30 3368 H 312.559 -4.32973 3.37381 0
M  V30 3369 H 312.82 -4.10079 1.6519 0
M  V30 3370 N 311.879 -1.3236 -0.855495 0
M  V30 3371 C 313.126 -1.22872 -1.60962 0
M  V30 3372 C 313.454 0.209658 -1.93367 0
M  V30 3373 O 312.709 1.16243 -1.57436 0
M  V30 3374 C 313.008 -2.03275 -2.93963 0
M  V30 3375 C 312.674 -3.5264 -2.80991 0
M  V30 3376 C 311.336 -3.93364 -2.7716 0
M  V30 3377 C 313.688 -4.47626 -2.66983 0
M  V30 3378 C 311.016 -5.27319 -2.572 0
M  V30 3379 C 313.368 -5.81723 -2.48558 0
M  V30 3380 C 312.032 -6.2165 -2.4312 0
M  V30 3381 H 311.302 -0.44962 -0.589001 0
M  V30 3382 H 313.949 -1.63777 -0.992442 0
M  V30 3383 H 312.254 -1.55095 -3.59795 0
M  V30 3384 H 313.951 -1.93303 -3.51333 0
M  V30 3385 H 310.541 -3.20295 -2.84797 0
M  V30 3386 H 314.725 -4.17084 -2.68988 0
M  V30 3387 H 309.981 -5.57311 -2.51424 0
M  V30 3388 H 314.155 -6.5494 -2.36699 0
M  V30 3389 H 311.782 -7.25388 -2.27412 0
M  V30 3390 N 313.357 1.07166 -1.15556 0
M  V30 3391 C 314.304 2.14417 -0.854055 0
M  V30 3392 C 315.274 1.64965 0.193806 0
M  V30 3393 O 316.459 1.90703 0.0609443 0
M  V30 3394 C 313.599 3.43304 -0.351574 0
M  V30 3395 C 312.712 4.06537 -1.46123 0
M  V30 3396 C 311.847 5.23266 -0.914677 0
M  V30 3397 C 310.886 5.78464 -2.00114 0
M  V30 3398 N 310.023 6.86521 -1.47083 0
M  V30 3399 H 314.863 2.39548 -1.77259 0
M  V30 3400 H 312.4 1.17543 -0.884425 0
M  V30 3401 H 314.358 4.17179 -0.0419409 0
M  V30 3402 H 312.988 3.18419 0.530037 0
M  V30 3403 H 312.04 3.30297 -1.88701 0
M  V30 3404 H 313.352 4.43567 -2.28144 0
M  V30 3405 H 312.506 6.04131 -0.557698 0
M  V30 3406 H 311.245 4.87658 -0.0636583 0
M  V30 3407 H 310.25 4.96243 -2.36692 0
M  V30 3408 H 311.475 6.16126 -2.85597 0
M  V30 3409 H 309.421 6.52849 -0.642198 0
M  V30 3410 H 309.338 7.22446 -2.22729 0
M  V30 3411 H 310.606 7.71087 -1.14215 0
M  V30 3412 N 314.835 0.952656 1.25548 0
M  V30 3413 C 315.785 0.442033 2.23674 0
M  V30 3414 C 316.769 -0.467632 1.53955 0
M  V30 3415 O 317.961 -0.301006 1.74422 0
M  V30 3416 C 315.09 -0.280816 3.4215 0
M  V30 3417 C 314.176 0.646803 4.19139 0
M  V30 3418 N 314.567 1.77759 4.73535 0
M  V30 3419 C 312.865 0.454617 4.43677 0
M  V30 3420 C 313.566 2.35658 5.31827 0
M  V30 3421 N 312.542 1.64333 5.18166 0
M  V30 3422 H 316.344 1.30505 2.63336 0
M  V30 3423 H 313.858 0.809904 1.40763 0
M  V30 3424 H 315.855 -0.663747 4.11582 0
M  V30 3425 H 314.515 -1.14046 3.04012 0
M  V30 3426 H 315.526 2.15949 4.7073 0
M  V30 3427 H 312.203 -0.362312 4.15925 0
M  V30 3428 H 313.593 3.30998 5.84713 0
M  V30 3429 N 316.313 -1.40141 0.720998 0
M  V30 3430 C 317.263 -2.27949 0.0482544 0
M  V30 3431 C 318.247 -1.43538 -0.727021 0
M  V30 3432 O 319.439 -1.6658 -0.598332 0
M  V30 3433 C 316.568 -3.32126 -0.868729 0
M  V30 3434 C 315.654 -4.24008 -0.0883515 0
M  V30 3435 N 316.045 -4.97154 0.931226 0
M  V30 3436 C 314.343 -4.4485 -0.320105 0
M  V30 3437 C 315.044 -5.64587 1.4006 0
M  V30 3438 N 314.02 -5.38787 0.721752 0
M  V30 3439 H 317.822 -2.81948 0.829609 0
M  V30 3440 H 315.336 -1.52656 0.554067 0
M  V30 3441 H 317.333 -3.93884 -1.36605 0
M  V30 3442 H 315.993 -2.79687 -1.6494 0
M  V30 3443 H 317.004 -5.01 1.31222 0
M  V30 3444 H 313.681 -4.03378 -1.07668 0
M  V30 3445 H 315.071 -6.33175 2.24808 0
M  V30 3446 N 317.792 -0.46758 -1.50504 0
M  V30 3447 C 318.739 0.328413 -2.28452 0
M  V30 3448 C 319.709 0.990313 -1.33349 0
M  V30 3449 O 320.894 1.00343 -1.62284 0
M  V30 3450 C 318.034 1.40648 -3.15138 0
M  V30 3451 C 317.147 0.759709 -4.25267 0
M  V30 3452 C 316.282 1.81537 -4.99217 0
M  V30 3453 C 315.321 1.14866 -6.01226 0
M  V30 3454 N 314.458 2.14702 -6.68467 0
M  V30 3455 H 319.298 -0.342603 -2.96024 0
M  V30 3456 H 316.835 -0.180801 -1.45985 0
M  V30 3457 H 318.793 2.04315 -3.63746 0
M  V30 3458 H 317.423 2.04671 -2.49619 0
M  V30 3459 H 316.475 0.0105671 -3.80399 0
M  V30 3460 H 317.787 0.233243 -4.98254 0
M  V30 3461 H 316.941 2.52793 -5.51526 0
M  V30 3462 H 315.68 2.37564 -4.25928 0
M  V30 3463 H 314.685 0.42171 -5.4818 0
M  V30 3464 H 315.91 0.595334 -6.76485 0
M  V30 3465 H 313.856 2.69752 -5.97972 0
M  V30 3466 H 313.773 1.6703 -7.37317 0
M  V30 3467 H 315.041 2.85348 -7.25394 0
M  V30 3468 N 319.27 1.56325 -0.20005 0
M  V30 3469 C 320.218 2.20666 0.735482 0
M  V30 3470 C 321.212 1.17934 1.21605 0
M  V30 3471 O 322.418 1.36068 1.17837 0
M  V30 3472 H 318.793 0.70725 0.255542 0
M  V30 3473 H 320.764 2.9792 0.169166 0
M  V30 3474 C 319.513 2.88391 1.94232 0
M  V30 3475 H 318.836 3.67185 1.58161 0
M  V30 3476 H 320.276 3.3684 2.57517 0
M  V30 3477 C 318.735 1.89692 2.78421 0
M  V30 3478 O 319.265 1.40032 3.76502 0
M  V30 3479 N 317.471 1.57813 2.44015 0
M  V30 3480 H 317.018 1.9839 1.64314 0
M  V30 3481 H 316.976 0.920325 3.00628 0
M  V30 3482 N 320.748 -0.0735177 1.57428 0
M  V30 3483 C 321.978 -0.78483 1.91112 0
M  V30 3484 C 322.386 -1.71729 0.7941 0
M  V30 3485 O 321.729 -1.82105 -0.241542 0
M  V30 3486 C 321.791 -1.63346 3.20247 0
M  V30 3487 C 321.455 -0.870557 4.48632 0
M  V30 3488 C 322.452 -0.19058 5.19551 0
M  V30 3489 C 320.137 -0.838242 4.95256 0
M  V30 3490 C 322.131 0.511503 6.35344 0
M  V30 3491 C 319.818 -0.132386 6.10957 0
M  V30 3492 C 320.816 0.541288 6.80852 0
M  V30 3493 O 320.504 1.23578 7.94345 0
M  V30 3494 H 320.236 -0.228408 0.636244 0
M  V30 3495 H 322.79 -0.0486039 2.05342 0
M  V30 3496 H 321.02 -2.41245 3.02222 0
M  V30 3497 H 322.709 -2.22329 3.39595 0
M  V30 3498 H 323.475 -0.206864 4.84559 0
M  V30 3499 H 319.354 -1.35206 4.40727 0
M  V30 3500 H 322.898 1.03789 6.89836 0
M  V30 3501 H 318.795 -0.114023 6.45399 0
M  V30 3502 H 319.563 1.14487 8.10454 0
M  V30 3503 N 322.226 -1.5378 -0.344866 0
M  V30 3504 C 323.454 -1.74899 -1.10534 0
M  V30 3505 C 323.869 -0.487534 -1.82397 0
M  V30 3506 O 323.226 0.540741 -1.74305 0
M  V30 3507 C 323.277 -2.92822 -2.11984 0
M  V30 3508 O 322.998 -4.14089 -1.43044 0
M  V30 3509 C 324.499 -3.25982 -3.00417 0
M  V30 3510 H 321.719 -0.584426 -0.329678 0
M  V30 3511 H 324.263 -2.006 -0.397474 0
M  V30 3512 H 322.418 -2.69457 -2.78338 0
M  V30 3513 H 322.832 -4.80272 -2.10805 0
M  V30 3514 H 324.306 -4.11848 -3.67539 0
M  V30 3515 H 324.783 -2.42228 -3.66363 0
M  V30 3516 H 325.389 -3.51349 -2.39654 0
M  V30 3517 N 323.704 0.605807 -1.45491 0
M  V30 3518 C 324.636 1.73031 -1.5031 0
M  V30 3519 C 325.649 1.57968 -0.393687 0
M  V30 3520 O 326.838 1.65817 -0.660839 0
M  V30 3521 C 323.938 3.11049 -1.34543 0
M  V30 3522 C 323.111 3.52334 -2.59189 0
M  V30 3523 C 322.17 4.69323 -2.37954 0
M  V30 3524 O 321.196 4.7635 -3.11575 0
M  V30 3525 N 322.398 5.62705 -1.4263 0
M  V30 3526 H 325.163 1.6936 -2.4726 0
M  V30 3527 H 322.724 0.79114 -1.41254 0
M  V30 3528 H 324.716 3.87071 -1.18144 0
M  V30 3529 H 323.286 3.09217 -0.458623 0
M  V30 3530 H 322.506 2.66256 -2.90691 0
M  V30 3531 H 323.794 3.76677 -3.42041 0
M  V30 3532 H 323.192 5.59744 -0.818758 0
M  V30 3533 H 321.749 6.38252 -1.32202 0
M  V30 3534 N 325.182 1.32811 0.848464 0
M  V30 3535 C 326.112 1.24882 1.97299 0
M  V30 3536 C 327.093 0.131357 1.69592 0
M  V30 3537 O 328.278 0.319553 1.91553 0
M  V30 3538 C 325.408 0.97746 3.33261 0
M  V30 3539 C 324.362 2.05682 3.75338 0
M  V30 3540 C 323.688 1.63777 5.09 0
M  V30 3541 C 324.988 3.47254 3.90144 0
M  V30 3542 H 326.682 2.18966 2.04191 0
M  V30 3543 H 324.228 1.05413 0.981029 0
M  V30 3544 H 326.181 0.908513 4.1149 0
M  V30 3545 H 324.905 0.000980011 3.266 0
M  V30 3546 H 323.564 2.11603 2.99366 0
M  V30 3547 H 323.212 0.648569 4.98801 0
M  V30 3548 H 322.912 2.36 5.38124 0
M  V30 3549 H 324.436 1.5833 5.89715 0
M  V30 3550 H 325.85 3.43888 4.58709 0
M  V30 3551 H 324.247 4.1788 4.30693 0
M  V30 3552 H 325.317 3.86462 2.92874 0
M  V30 3553 N 326.66 -1.06551 1.16123 0
M  V30 3554 C 327.907 -1.79302 0.941126 0
M  V30 3555 C 328.235 -1.87105 -0.531235 0
M  V30 3556 O 327.49 -1.35692 -1.41018 0
M  V30 3557 C 327.789 -3.23911 1.51052 0
M  V30 3558 C 327.455 -3.36193 3.00475 0
M  V30 3559 C 326.117 -3.39252 3.41265 0
M  V30 3560 C 328.469 -3.38326 3.96465 0
M  V30 3561 C 325.797 -3.42057 4.76669 0
M  V30 3562 C 328.149 -3.4267 5.31752 0
M  V30 3563 C 326.813 -3.4401 5.72026 0
M  V30 3564 H 326.083 -0.656111 0.344382 0
M  V30 3565 H 328.73 -1.25325 1.44796 0
M  V30 3566 H 327.035 -3.80723 0.925063 0
M  V30 3567 H 328.732 -3.78793 1.31593 0
M  V30 3568 H 325.322 -3.34516 2.6795 0
M  V30 3569 H 329.506 -3.35176 3.6602 0
M  V30 3570 H 324.762 -3.41398 5.07206 0
M  V30 3571 H 328.936 -3.43268 6.05921 0
M  V30 3572 H 326.563 -3.45937 6.76928 0
M  V30 3573 N 328.138 -0.959301 -1.25041 0
M  V30 3574 C 329.385 -0.616611 -1.92884 0
M  V30 3575 C 329.713 0.847036 -1.75087 0
M  V30 3576 O 328.968 1.62374 -1.09239 0
M  V30 3577 C 329.267 -0.927136 -3.45165 0
M  V30 3578 C 328.933 -2.37757 -3.83122 0
M  V30 3579 C 327.595 -2.77402 -3.93194 0
M  V30 3580 C 329.947 -3.31929 -4.01836 0
M  V30 3581 C 327.275 -4.10277 -4.19392 0
M  V30 3582 C 329.627 -4.64423 -4.29528 0
M  V30 3583 C 328.291 -5.03857 -4.37818 0
M  V30 3584 H 327.561 -0.225634 -0.705812 0
M  V30 3585 H 330.208 -1.20921 -1.48493 0
M  V30 3586 H 328.513 -0.252195 -3.90987 0
M  V30 3587 H 330.21 -0.6405 -3.95852 0
M  V30 3588 H 326.8 -2.06013 -3.75841 0
M  V30 3589 H 330.984 -3.02488 -3.93465 0
M  V30 3590 H 326.24 -4.40467 -4.24027 0
M  V30 3591 H 330.414 -5.37369 -4.42953 0
M  V30 3592 H 328.041 -6.06843 -4.57871 0
M  V30 3593 N 329.616 1.39756 -0.72842 0
M  V30 3594 C 330.864 2.00248 -0.272946 0
M  V30 3595 C 331.185 1.58077 1.14178 0
M  V30 3596 O 330.455 0.826014 1.77634 0
M  V30 3597 H 329.035 0.740554 -0.0979247 0
M  V30 3598 H 331.697 1.70903 -0.936912 0
M  V30 3599 H 330.793 3.10495 -0.316142 0
M  V30 3600 N 331.094 0.475555 1.50254 0
M  V30 3601 C 332.342 -0.077738 2.0195 0
M  V30 3602 C 332.663 -1.39813 1.35931 0
M  V30 3603 O 331.933 -1.89249 0.506123 0
M  V30 3604 H 330.513 -0.031719 0.746326 0
M  V30 3605 H 333.175 0.626995 1.84539 0
M  V30 3606 H 332.271 -0.225995 3.11281 0
M  V30 3607 N 332.573 -1.56217 0.208337 0
M  V30 3608 C 333.521 -2.21053 -0.723769 0
M  V30 3609 C 334.515 -1.18578 -1.20978 0
M  V30 3610 O 335.721 -1.36691 -1.17114 0
M  V30 3611 H 332.096 -0.708595 -0.251788 0
M  V30 3612 H 334.067 -2.98006 -0.153365 0
M  V30 3613 C 332.816 -2.89417 -1.927 0
M  V30 3614 H 332.139 -3.68019 -1.56212 0
M  V30 3615 H 333.579 -3.38201 -2.55727 0
M  V30 3616 C 332.038 -1.91166 -2.77411 0
M  V30 3617 O 332.568 -1.42026 -3.75754 0
M  V30 3618 N 330.774 -1.59105 -2.43175 0
M  V30 3619 H 330.321 -1.99259 -1.63259 0
M  V30 3620 H 330.279 -0.936255 -3.00136 0
M  V30 3621 N 334.051 0.0651679 -1.57465 0
M  V30 3622 C 335.3 0.761916 -1.86756 0
M  V30 3623 C 335.613 1.78406 -0.801925 0
M  V30 3624 O 336.819 2.53084 -0.982885 0
M  V30 3625 C 335.275 1.40603 -3.31299 0
M  V30 3626 C 334.883 0.422115 -4.46007 0
M  V30 3627 C 336.627 2.08476 -3.69781 0
M  V30 3628 C 334.534 1.07252 -5.81593 0
M  V30 3629 H 333.464 0.288308 -0.696702 0
M  V30 3630 H 336.115 0.015344 -1.83494 0
M  V30 3631 H 334.497 2.20109 -3.29193 0
M  V30 3632 H 335.671 -0.343613 -4.59517 0
M  V30 3633 H 333.986 -0.152527 -4.16121 0
M  V30 3634 H 336.583 2.57925 -4.68379 0
M  V30 3635 H 336.926 2.88712 -2.99919 0
M  V30 3636 H 337.459 1.35792 -3.73905 0
M  V30 3637 H 334.198 0.310342 -6.54765 0
M  V30 3638 H 333.718 1.80895 -5.71872 0
M  V30 3639 H 335.397 1.59043 -6.27148 0
M  V30 3640 N 335.529 1.53961 0.336706 0
M  V30 3641 C 336.757 1.75483 1.09605 0
M  V30 3642 C 337.172 0.4972 1.82136 0
M  V30 3643 O 336.529 -0.53149 1.74589 0
M  V30 3644 C 336.58 2.93943 2.10428 0
M  V30 3645 O 336.301 4.14842 1.40846 0
M  V30 3646 C 337.802 3.27571 2.98684 0
M  V30 3647 H 335.022 0.586166 0.326574 0
M  V30 3648 H 337.566 2.00808 0.38683 0
M  V30 3649 H 335.721 2.70929 2.76905 0
M  V30 3650 H 336.135 4.81383 2.08255 0
M  V30 3651 H 337.609 4.13791 3.6535 0
M  V30 3652 H 338.086 2.44168 3.65074 0
M  V30 3653 H 338.692 3.52615 2.37787 0
M  V30 3654 N 337.007 -0.598083 1.45811 0
M  V30 3655 C 338.232 -1.3881 1.54099 0
M  V30 3656 C 338.657 -1.8726 0.177578 0
M  V30 3657 O 338.015 -1.6069 -0.839541 0
M  V30 3658 C 338.063 -2.56217 2.53743 0
M  V30 3659 O 337.167 -3.5716 2.06182 0
M  V30 3660 H 336.508 -0.414024 0.519115 0
M  V30 3661 H 339.038 -0.726971 1.91249 0
M  V30 3662 H 339.048 -3.03337 2.72856 0
M  V30 3663 H 337.723 -2.20303 3.5276 0
M  V30 3664 H 336.3 -3.16624 1.96987 0
M  V30 3665 N 338.485 -1.33259 -0.841409 0
M  V30 3666 C 339.448 -1.23221 -1.9326 0
M  V30 3667 C 340.448 -0.151895 -1.60081 0
M  V30 3668 O 341.638 -0.403246 -1.69468 0
M  V30 3669 C 338.77 -0.898123 -3.28856 0
M  V30 3670 H 339.963 -2.2021 -2.03587 0
M  V30 3671 H 337.516 -1.17281 -1.03319 0
M  V30 3672 H 338.251 0.0693841 -3.24226 0
M  V30 3673 H 338.036 -1.67934 -3.54317 0
M  V30 3674 H 339.526 -0.852563 -4.08805 0
M  V30 3675 N 339.963 1.05934 -1.16686 0
M  V30 3676 C 341.24 1.75643 -0.860747 0
M  V30 3677 C 341.62 2.01144 0.640641 0
M  V30 3678 O 340.968 1.64147 1.58959 0
M  V30 3679 C 341.178 3.05493 -1.68745 0
M  V30 3680 C 342.526 3.79581 -1.90271 0
M  V30 3681 O 343.55 3.15344 -1.65641 0
M  V30 3682 O 342.409 4.9499 -2.31618 0
M  V30 3683 H 339.503 0.763426 -0.317977 0
M  V30 3684 H 342.049 1.1217 -1.27342 0
M  V30 3685 H 340.821 2.8264 -2.70611 0
M  V30 3686 H 340.444 3.76702 -1.27206 0
M  V30 3687 N 341.441 0.965919 1.2453 0
M  V30 3688 C 342.681 0.634656 1.94297 0
M  V30 3689 C 343.045 -0.814822 1.73852 0
M  V30 3690 O 344.246 -1.25622 2.3764 0
M  V30 3691 C 342.517 0.99702 3.43212 0
M  V30 3692 S 344.076 0.780038 4.31811 0
M  V30 3693 H 340.894 0.232893 0.671775 0
M  V30 3694 H 343.496 1.24249 1.50938 0
M  V30 3695 H 342.2 2.04886 3.55598 0
M  V30 3696 H 341.731 0.379888 3.91562 0
M  V30 3697 H 343.746 -0.343512 4.9501 0
M  V30 3698 N 342.919 -1.39368 0.735821 0
M  V30 3699 C 343.849 -2.33234 0.111506 0
M  V30 3700 C 344.83 -1.53954 -0.723334 0
M  V30 3701 O 346.015 -1.82344 -0.668147 0
M  V30 3702 C 343.145 -3.38057 -0.795917 0
M  V30 3703 C 342.099 -4.2795 -0.065172 0
M  V30 3704 C 341.425 -5.23479 -1.08967 0
M  V30 3705 C 342.725 -5.10741 1.09273 0
M  V30 3706 H 344.419 -2.85692 0.895571 0
M  V30 3707 H 341.965 -1.37364 0.432109 0
M  V30 3708 H 343.918 -4.02675 -1.24221 0
M  V30 3709 H 342.642 -2.8404 -1.61211 0
M  V30 3710 H 341.301 -3.64813 0.361511 0
M  V30 3711 H 340.949 -4.65758 -1.89944 0
M  V30 3712 H 340.649 -5.84472 -0.605489 0
M  V30 3713 H 342.173 -5.90974 -1.53565 0
M  V30 3714 H 343.587 -5.68699 0.724841 0
M  V30 3715 H 341.984 -5.8088 1.50659 0
M  V30 3716 H 343.054 -4.45525 1.91404 0
M  V30 3717 N 344.397 -0.483516 -1.5 0
M  V30 3718 C 345.344 0.304164 -2.28787 0
M  V30 3719 C 346.314 0.976114 -1.34392 0
M  V30 3720 O 347.499 0.986156 -1.63339 0
M  V30 3721 C 344.639 1.37298 -3.16612 0
M  V30 3722 C 343.752 0.714561 -4.26049 0
M  V30 3723 C 342.887 1.76232 -5.01114 0
M  V30 3724 C 341.926 1.08483 -6.0241 0
M  V30 3725 N 341.063 2.076 -6.70706 0
M  V30 3726 H 345.903 -0.373981 -2.95644 0
M  V30 3727 H 343.44 -0.196275 -1.45785 0
M  V30 3728 H 345.398 2.00445 -3.65893 0
M  V30 3729 H 344.028 2.02012 -2.51776 0
M  V30 3730 H 343.08 -0.0297798 -3.80388 0
M  V30 3731 H 344.392 0.180383 -4.98474 0
M  V30 3732 H 343.546 2.46929 -5.54176 0
M  V30 3733 H 342.285 2.33033 -4.28424 0
M  V30 3734 H 341.29 0.363545 -5.48597 0
M  V30 3735 H 342.515 0.523551 -6.77079 0
M  V30 3736 H 340.461 2.63394 -6.00799 0
M  V30 3737 H 340.378 1.59201 -7.39047 0
M  V30 3738 H 341.646 2.77639 -7.2838 0
M  V30 3739 N 345.875 1.56104 -0.216619 0
M  V30 3740 C 347.1 2.0301 0.424462 0
M  V30 3741 C 347.525 1.0955 1.52907 0
M  V30 3742 O 346.883 0.0827914 1.81111 0
M  V30 3743 C 346.931 3.4819 0.937883 0
M  V30 3744 O 346.035 3.57865 2.04955 0
M  V30 3745 H 345.376 0.656925 0.0966755 0
M  V30 3746 H 347.906 2.01859 -0.33381 0
M  V30 3747 H 347.916 3.88413 1.24897 0
M  V30 3748 H 346.591 4.15699 0.129387 0
M  V30 3749 H 345.168 3.29527 1.74546 0
M  V30 3750 N 347.353 -0.0568162 1.57498 0
M  V30 3751 C 348.593 -0.758273 1.89815 0
M  V30 3752 C 348.957 -1.73978 0.812132 0
M  V30 3753 O 350.158 -2.48744 1.01881 0
M  V30 3754 C 348.429 -1.43465 3.27342 0
M  V30 3755 S 349.988 -2.1691 3.81439 0
M  V30 3756 H 346.806 -0.251836 0.664906 0
M  V30 3757 H 349.408 -0.0137997 1.95495 0
M  V30 3758 H 348.112 -0.706693 4.0427 0
M  V30 3759 H 347.643 -2.21825 3.24896 0
M  V30 3760 H 349.658 -3.43658 3.5793 0
M  V30 3761 N 348.832 -1.54138 -0.328536 0
M  V30 3762 C 349.762 -1.86167 -1.40939 0
M  V30 3763 C 350.743 -0.718044 -1.54202 0
M  V30 3764 O 351.928 -0.971328 -1.68163 0
M  V30 3765 C 349.058 -2.08461 -2.77779 0
M  V30 3766 C 348.012 -3.24299 -2.7931 0
M  V30 3767 C 347.338 -3.31955 -4.19178 0
M  V30 3768 C 348.638 -4.62065 -2.43502 0
M  V30 3769 H 350.332 -2.76689 -1.14383 0
M  V30 3770 H 347.878 -1.33132 -0.548806 0
M  V30 3771 H 349.831 -2.29453 -3.53454 0
M  V30 3772 H 348.555 -1.14684 -3.05802 0
M  V30 3773 H 347.214 -3.03187 -2.0609 0
M  V30 3774 H 346.862 -2.35745 -4.44335 0
M  V30 3775 H 346.562 -4.09805 -4.2111 0
M  V30 3776 H 348.086 -3.55175 -4.96672 0
M  V30 3777 H 349.5 -4.8297 -3.08889 0
M  V30 3778 H 347.897 -5.42429 -2.56693 0
M  V30 3779 H 348.967 -4.64652 -1.38659 0
M  V30 3780 N 350.31 0.590341 -1.46126 0
M  V30 3781 C 351.726 0.912917 -1.30912 0
M  V30 3782 C 351.926 1.99616 -0.274893 0
M  V30 3783 O 350.982 2.50397 0.325197 0
M  V30 3784 C 352.295 1.3375 -2.69317 0
M  V30 3785 C 353.843 1.45077 -2.77348 0
M  V30 3786 C 354.318 1.90904 -4.16317 0
M  V30 3787 N 355.809 1.9811 -4.18696 0
M  V30 3788 C 356.544 2.34828 -5.23109 0
M  V30 3789 N 356.04 2.70393 -6.37856 0
M  V30 3790 N 357.833 2.35317 -5.10473 0
M  V30 3791 H 349.984 -0.125358 -2.1203 0
M  V30 3792 H 352.247 0.00658481 -0.947977 0
M  V30 3793 H 351.953 0.615614 -3.4627 0
M  V30 3794 H 351.827 2.30058 -2.9892 0
M  V30 3795 H 354.214 2.16353 -2.00687 0
M  V30 3796 H 354.295 0.4704 -2.51438 0
M  V30 3797 H 353.939 1.20209 -4.9347 0
M  V30 3798 H 353.869 2.89886 -4.39629 0
M  V30 3799 H 356.36 1.73146 -3.359 0
M  V30 3800 H 356.673 2.97341 -7.13308 0
M  V30 3801 H 355.018 2.68048 -6.41229 0
M  V30 3802 H 358.209 2.0695 -4.19868 0
M  V30 3803 H 358.382 2.63605 -5.9196 0
M  V30 3804 N 351.788 1.33704 0.83433 0
M  V30 3805 C 352.721 1.18675 1.94914 0
M  V30 3806 C 353.699 0.0811145 1.62398 0
M  V30 3807 O 354.883 0.244186 1.86912 0
M  V30 3808 C 352.01 0.821231 3.28593 0
M  V30 3809 C 351.056 1.93501 3.80079 0
M  V30 3810 S 351.889 3.54671 4.01209 0
M  V30 3811 C 353.045 3.20136 5.37833 0
M  V30 3812 H 353.278 2.13043 2.07364 0
M  V30 3813 H 350.811 1.18598 0.988624 0
M  V30 3814 H 352.769 0.617123 4.05835 0
M  V30 3815 H 351.43 -0.103927 3.13928 0
M  V30 3816 H 350.623 1.63273 4.76821 0
M  V30 3817 H 350.225 2.09601 3.09747 0
M  V30 3818 H 352.517 2.71242 6.20833 0
M  V30 3819 H 353.46 4.15975 5.73036 0
M  V30 3820 H 353.868 2.56613 5.02802 0
M  V30 3821 N 353.266 -1.05314 1.17247 0
M  V30 3822 C 354.682 -1.30452 0.919473 0
M  V30 3823 C 354.882 -1.9703 -0.42209 0
M  V30 3824 O 353.938 -2.24311 -1.15935 0
M  V30 3825 C 355.251 -2.17551 2.07586 0
M  V30 3826 C 356.799 -2.30937 2.11275 0
M  V30 3827 C 357.274 -3.21396 3.26296 0
M  V30 3828 N 358.765 -3.28981 3.26076 0
M  V30 3829 C 359.5 -3.99095 4.11716 0
M  V30 3830 N 358.996 -4.71648 5.07465 0
M  V30 3831 N 360.789 -3.95247 3.9967 0
M  V30 3832 H 352.94 -0.604988 2.03602 0
M  V30 3833 H 355.203 -0.329368 0.888944 0
M  V30 3834 H 354.909 -1.75921 3.0454 0
M  V30 3835 H 354.783 -3.18182 2.02584 0
M  V30 3836 H 357.17 -2.71809 1.14907 0
M  V30 3837 H 357.251 -1.2994 2.20339 0
M  V30 3838 H 356.895 -2.81238 4.22927 0
M  V30 3839 H 356.825 -4.22395 3.14467 0
M  V30 3840 H 359.316 -2.77286 2.5675 0
M  V30 3841 H 359.629 -5.22705 5.6921 0
M  V30 3842 H 357.974 -4.70594 5.11435 0
M  V30 3843 H 361.165 -3.37691 3.24164 0
M  V30 3844 H 361.338 -4.4962 4.66632 0
M  V30 3845 N 354.744 -0.972509 -1.24016 0
M  V30 3846 C 356.155 -0.67517 -1.74064 0
M  V30 3847 C 356.506 0.808939 -1.78747 0
M  V30 3848 O 355.631 1.63286 -1.42009 0
M  V30 3849 C 356.226 -1.21889 -3.16115 0
M  V30 3850 C 354.785 -0.971358 -3.6365 0
M  V30 3851 C 353.932 -1.35134 -2.42145 0
M  V30 3852 H 356.883 -1.14727 -1.09651 0
M  V30 3853 H 356.904 -0.587489 -3.75937 0
M  V30 3854 H 356.416 -2.29906 -3.12674 0
M  V30 3855 H 354.517 0.0930686 -3.72484 0
M  V30 3856 H 354.63 -1.62039 -4.50866 0
M  V30 3857 H 352.994 -0.769751 -2.4279 0
M  V30 3858 H 353.777 -2.4411 -2.41381 0
M  V30 3859 N 356.222 1.38976 -0.743202 0
M  V30 3860 C 357.499 1.94351 -0.220705 0
M  V30 3861 C 357.879 1.67935 1.2791 0
M  V30 3862 O 357.227 1.01211 2.04862 0
M  V30 3863 C 357.437 3.44426 -0.563171 0
M  V30 3864 C 358.785 4.2144 -0.517046 0
M  V30 3865 O 359.809 3.52661 -0.500846 0
M  V30 3866 O 358.668 5.44032 -0.518806 0
M  V30 3867 H 355.762 0.825879 -0.043047 0
M  V30 3868 H 358.308 1.48429 -0.822618 0
M  V30 3869 H 357.08 3.5712 -1.59941 0
M  V30 3870 H 356.703 3.97543 0.0672883 0
M  V30 3871 N 357.7 0.491464 1.49741 0
M  V30 3872 C 359.116 0.146835 1.58923 0
M  V30 3873 C 359.316 -1.34804 1.49767 0
M  V30 3874 O 358.372 -2.12317 1.36667 0
M  V30 3875 C 359.685 0.715157 2.92072 0
M  V30 3876 C 361.233 0.680407 3.05515 0
M  V30 3877 C 361.708 1.22663 4.41269 0
M  V30 3878 N 363.199 1.18691 4.47735 0
M  V30 3879 C 363.934 1.57984 5.51207 0
M  V30 3880 N 363.43 2.04824 6.6183 0
M  V30 3881 N 365.223 1.49459 5.41866 0
M  V30 3882 H 357.374 1.46347 1.53936 0
M  V30 3883 H 359.637 0.606453 0.728642 0
M  V30 3884 H 359.343 1.76317 3.04311 0
M  V30 3885 H 359.217 0.17018 3.76816 0
M  V30 3886 H 361.604 -0.358743 2.92911 0
M  V30 3887 H 361.685 1.26242 2.22478 0
M  V30 3888 H 361.329 2.26451 4.54623 0
M  V30 3889 H 361.259 0.620637 5.2293 0
M  V30 3890 H 363.75 0.843605 3.68364 0
M  V30 3891 H 364.063 2.32901 7.3687 0
M  V30 3892 H 362.408 2.08791 6.62896 0
M  V30 3893 H 365.599 1.12692 4.54333 0
M  V30 3894 H 365.772 1.80406 6.22381 0
M  V30 3895 N 359.178 -1.55987 0.224894 0
M  V30 3896 C 360.427 -1.97566 -0.406273 0
M  V30 3897 C 360.74 -1.11569 -1.6066 0
M  V30 3898 O 361.946 -1.43062 -2.3075 0
M  V30 3899 C 360.402 -3.51474 -0.774207 0
M  V30 3900 C 360.01 -4.46179 0.403496 0
M  V30 3901 C 361.754 -4.01758 -1.37079 0
M  V30 3902 C 359.661 -5.91399 0.0129412 0
M  V30 3903 H 358.591 -0.737777 -0.155565 0
M  V30 3904 H 361.242 -1.80659 0.321635 0
M  V30 3905 H 359.624 -3.63994 -1.55963 0
M  V30 3906 H 360.798 -4.45409 1.18101 0
M  V30 3907 H 359.113 -4.06255 0.913536 0
M  V30 3908 H 361.71 -5.07756 -1.67596 0
M  V30 3909 H 362.053 -3.47805 -2.28773 0
M  V30 3910 H 362.586 -3.92475 -0.648733 0
M  V30 3911 H 359.325 -6.49341 0.896451 0
M  V30 3912 H 358.845 -5.95356 -0.728821 0
M  V30 3913 H 360.524 -6.45683 -0.412582 0
M  V30 3914 N 360.656 0.0484629 -1.57525 0
M  V30 3915 C 361.905 0.742065 -1.87553 0
M  V30 3916 C 362.218 1.77545 -0.820802 0
M  V30 3917 O 363.424 2.52027 -1.00967 0
M  V30 3918 C 361.88 1.37081 -3.32771 0
M  V30 3919 C 361.488 0.374786 -4.4643 0
M  V30 3920 C 363.232 2.04542 -3.71972 0
M  V30 3921 C 361.139 1.01077 -5.82698 0
M  V30 3922 H 360.069 0.280903 -0.699721 0
M  V30 3923 H 362.72 -0.00411877 -1.835 0
M  V30 3924 H 361.102 2.16605 -3.31509 0
M  V30 3925 H 362.276 -0.392331 -4.59127 0
M  V30 3926 H 360.591 -0.196653 -4.15935 0
M  V30 3927 H 363.188 2.52943 -4.71088 0
M  V30 3928 H 363.531 2.85515 -3.02964 0
M  V30 3929 H 364.064 1.31819 -3.75325 0
M  V30 3930 H 360.803 0.240878 -6.55057 0
M  V30 3931 H 360.323 1.74819 -5.73758 0
M  V30 3932 H 362.002 1.52383 -6.28799 0
M  V30 3933 N 362.134 1.5431 0.320358 0
M  V30 3934 C 363.064 1.86912 1.3995 0
M  V30 3935 C 364.045 0.726211 1.53819 0
M  V30 3936 O 365.23 0.980233 1.67646 0
M  V30 3937 C 362.36 2.09932 2.7667 0
M  V30 3938 C 361.314 3.25776 2.77586 0
M  V30 3939 C 360.64 3.34173 4.17412 0
M  V30 3940 C 361.94 4.6335 2.41048 0
M  V30 3941 H 363.634 2.77292 1.12914 0
M  V30 3942 H 361.18 1.33421 0.541738 0
M  V30 3943 H 363.133 2.31324 3.52232 0
M  V30 3944 H 361.857 1.16304 3.0519 0
M  V30 3945 H 360.516 3.04276 2.04479 0
M  V30 3946 H 360.164 2.38098 4.43078 0
M  V30 3947 H 359.864 4.12033 4.18931 0
M  V30 3948 H 361.388 3.57803 4.94782 0
M  V30 3949 H 362.802 4.84602 3.06324 0
M  V30 3950 H 361.199 5.43782 2.53813 0
M  V30 3951 H 362.269 4.65381 1.36193 0
M  V30 3952 N 363.613 -0.582584 1.46437 0
M  V30 3953 C 364.861 -1.33814 1.51453 0
M  V30 3954 C 365.182 -1.94277 0.167792 0
M  V30 3955 O 364.452 -1.78566 -0.805677 0
M  V30 3956 H 363.032 -0.496838 0.557818 0
M  V30 3957 H 365.694 -0.682281 1.82568 0
M  V30 3958 H 364.79 -2.14479 2.26728 0
M  V30 3959 N 365.091 -1.34144 -0.827227 0
M  V30 3960 C 366.001 -1.27428 -1.96975 0
M  V30 3961 C 367.017 -0.182728 -1.73038 0
M  V30 3962 O 368.193 -0.408426 -1.97215 0
M  V30 3963 C 365.258 -1.02526 -3.31194 0
M  V30 3964 C 364.319 -2.20796 -3.68168 0
M  V30 3965 C 363.552 -1.97073 -4.95982 0
M  V30 3966 O 363.775 -0.926822 -5.6282 0
M  V30 3967 O 362.709 -2.83912 -5.30733 0
M  V30 3968 H 366.535 -2.23537 -2.05584 0
M  V30 3969 H 364.12 -1.14307 -0.961989 0
M  V30 3970 H 366.002 -0.904026 -4.11589 0
M  V30 3971 H 364.677 -0.0945389 -3.23562 0
M  V30 3972 H 363.584 -2.38477 -2.88235 0
M  V30 3973 H 364.917 -3.12243 -3.8048 0
M  V30 3974 N 366.569 1.04691 -1.17803 0
M  V30 3975 C 367.499 2.14494 -0.92275 0
M  V30 3976 C 368.48 1.69546 0.137179 0
M  V30 3977 O 369.665 1.94195 -0.0141108 0
M  V30 3978 C 366.795 3.44491 -0.440803 0
M  V30 3979 C 365.749 4.03031 -1.4405 0
M  V30 3980 C 365.075 5.28432 -0.81631 0
M  V30 3981 C 366.375 4.39932 -2.81527 0
M  V30 3982 H 368.069 2.36107 -1.84103 0
M  V30 3983 H 365.615 1.1347 -0.886599 0
M  V30 3984 H 367.568 4.2066 -0.249602 0
M  V30 3985 H 366.292 3.22546 0.513025 0
M  V30 3986 H 364.951 3.28937 -1.61853 0
M  V30 3987 H 364.599 5.02792 0.144511 0
M  V30 3988 H 364.299 5.68559 -1.48371 0
M  V30 3989 H 365.823 6.07284 -0.635496 0
M  V30 3990 H 367.237 5.07113 -2.67412 0
M  V30 3991 H 365.634 4.9109 -3.44892 0
M  V30 3992 H 366.704 3.50045 -3.35554 0
M  V30 3993 N 368.047 0.979072 1.23499 0
M  V30 3994 C 369.463 0.687475 1.44034 0
M  V30 3995 C 369.663 -0.746801 1.8715 0
M  V30 3996 O 368.719 -1.51939 2.0167 0
M  V30 3997 C 370.032 1.68127 2.49307 0
M  V30 3998 C 371.58 1.69516 2.63122 0
M  V30 3999 C 372.055 2.67723 3.71603 0
M  V30 4000 N 373.546 2.66233 3.79044 0
M  V30 4001 C 374.281 3.38891 4.62537 0
M  V30 4002 N 373.777 4.21103 5.50131 0
M  V30 4003 N 375.57 3.27661 4.56721 0
M  V30 4004 H 367.721 1.90559 0.938135 0
M  V30 4005 H 369.984 0.821051 0.473897 0
M  V30 4006 H 369.69 2.70693 2.2454 0
M  V30 4007 H 369.564 1.46306 3.4767 0
M  V30 4008 H 371.951 0.676561 2.8724 0
M  V30 4009 H 372.032 1.95404 1.65079 0
M  V30 4010 H 371.676 3.69724 3.48233 0
M  V30 4011 H 371.606 2.39111 4.69184 0
M  V30 4012 H 374.097 2.06568 3.16446 0
M  V30 4013 H 374.41 4.73403 6.10827 0
M  V30 4014 H 372.755 4.25195 5.49759 0
M  V30 4015 H 375.946 2.62887 3.87309 0
M  V30 4016 H 376.119 3.84547 5.21562 0
M  V30 4017 N 369.525 -1.3858 0.750561 0
M  V30 4018 C 370.75 -2.04997 0.314812 0
M  V30 4019 C 371.175 -1.56235 -1.04749 0
M  V30 4020 O 370.533 -0.712981 -1.66692 0
M  V30 4021 C 370.581 -3.58961 0.343415 0
M  V30 4022 O 369.685 -4.07025 -0.663628 0
M  V30 4023 H 369.026 -0.649081 0.139962 0
M  V30 4024 H 371.556 -1.77313 1.02084 0
M  V30 4025 H 371.566 -4.07542 0.193233 0
M  V30 4026 H 370.241 -3.93811 1.33738 0
M  V30 4027 H 368.818 -3.6982 -0.478307 0
M  V30 4028 N 371.003 -0.499398 -1.49478 0
M  V30 4029 C 372.228 0.044722 -2.07352 0
M  V30 4030 C 372.653 1.30207 -1.35749 0
M  V30 4031 O 372.011 1.76516 -0.413732 0
M  V30 4032 C 372.059 0.283013 -3.59488 0
M  V30 4033 O 371.163 1.35804 -3.89398 0
M  V30 4034 H 370.504 -0.0255147 -0.66351 0
M  V30 4035 H 373.034 -0.698561 -1.92305 0
M  V30 4036 H 373.044 0.515007 -4.04737 0
M  V30 4037 H 371.719 -0.635636 -4.11014 0
M  V30 4038 H 370.296 1.11113 -3.55961 0
M  V30 4039 N 372.481 1.55866 -0.233164 0
M  V30 4040 C 373.391 2.24431 0.683217 0
M  V30 4041 C 374.407 1.2558 1.2044 0
M  V30 4042 O 375.583 1.58422 1.24356 0
M  V30 4043 C 372.648 2.91979 1.86947 0
M  V30 4044 C 371.709 4.06204 1.38912 0
M  V30 4045 C 370.942 4.70522 2.51883 0
M  V30 4046 O 371.165 4.33865 3.70293 0
M  V30 4047 O 370.099 5.59296 2.22423 0
M  V30 4048 H 373.925 3.03426 0.129059 0
M  V30 4049 H 371.51 1.494 -0.0022283 0
M  V30 4050 H 373.392 3.34573 2.56201 0
M  V30 4051 H 372.067 2.15935 2.41151 0
M  V30 4052 H 370.974 3.68155 0.664259 0
M  V30 4053 H 372.307 4.84025 0.893328 0
M  V30 4054 N 373.959 -0.0401083 1.57549 0
M  V30 4055 C 374.922 -1.02871 2.04817 0
M  V30 4056 C 375.922 -1.29708 0.950388 0
M  V30 4057 O 377.112 -1.24897 1.21435 0
M  V30 4058 C 374.244 -2.36443 2.45576 0
M  V30 4059 H 375.437 -0.620631 2.93408 0
M  V30 4060 H 372.99 -0.286667 1.53649 0
M  V30 4061 H 373.725 -2.82021 1.60108 0
M  V30 4062 H 373.51 -2.18296 3.25713 0
M  V30 4063 H 375 -3.07441 2.82612 0
M  V30 4064 N 375.437 -1.54477 -0.31217 0
M  V30 4065 C 376.667 -1.76948 -1.06645 0
M  V30 4066 C 377.075 -0.523593 -1.81811 0
M  V30 4067 O 376.418 0.51578 -1.76311 0
M  V30 4068 C 376.48 -2.91668 -2.10166 0
M  V30 4069 C 376.144 -4.30165 -1.54296 0
M  V30 4070 C 377.141 -5.10603 -0.978793 0
M  V30 4071 C 374.826 -4.76738 -1.58196 0
M  V30 4072 C 376.82 -6.3573 -0.461048 0
M  V30 4073 C 374.507 -6.01831 -1.06034 0
M  V30 4074 C 375.505 -6.81161 -0.500844 0
M  V30 4075 O 375.193 -8.03899 0.0128958 0
M  V30 4076 H 374.925 -0.594088 -0.322546 0
M  V30 4077 H 377.479 -2.02213 -0.360441 0
M  V30 4078 H 375.709 -2.62001 -2.84416 0
M  V30 4079 H 377.398 -3.01817 -2.71406 0
M  V30 4080 H 378.164 -4.75771 -0.941651 0
M  V30 4081 H 374.043 -4.15027 -2.00683 0
M  V30 4082 H 377.587 -6.97596 -0.0236894 0
M  V30 4083 H 373.484 -6.36152 -1.09459 0
M  V30 4084 H 374.252 -8.18437 -0.101457 0
M  V30 4085 N 376.915 0.57481 -1.46744 0
M  V30 4086 C 378.192 1.3352 -1.4294 0
M  V30 4087 C 378.572 2.10775 -0.117009 0
M  V30 4088 O 377.92 2.09966 0.901474 0
M  V30 4089 C 378.13 2.25456 -2.66403 0
M  V30 4090 C 379.478 2.87035 -3.12883 0
M  V30 4091 O 380.502 2.35766 -2.67007 0
M  V30 4092 O 379.361 3.80179 -3.92589 0
M  V30 4093 H 376.455 0.600318 -0.568812 0
M  V30 4094 H 379.001 0.595171 -1.58921 0
M  V30 4095 H 377.773 1.67851 -3.53471 0
M  V30 4096 H 377.396 3.06785 -2.52921 0
M  V30 4097 N 378.394 1.34581 0.820102 0
M  V30 4098 C 379.641 1.27096 1.57648 0
M  V30 4099 C 379.969 -0.158317 1.93855 0
M  V30 4100 O 379.224 -1.12028 1.60463 0
M  V30 4101 C 379.523 2.10997 2.8847 0
M  V30 4102 C 379.189 3.59966 2.71543 0
M  V30 4103 C 377.851 4.00575 2.66634 0
M  V30 4104 C 380.203 4.54548 2.55021 0
M  V30 4105 C 377.531 5.33953 2.43128 0
M  V30 4106 C 379.883 5.88109 2.33047 0
M  V30 4107 C 378.547 6.27878 2.26552 0
M  V30 4108 H 377.817 0.465078 0.576874 0
M  V30 4109 H 380.464 1.6635 0.948671 0
M  V30 4110 H 378.769 1.6458 3.55557 0
M  V30 4111 H 380.466 2.0255 3.46084 0
M  V30 4112 H 377.056 3.27733 2.76205 0
M  V30 4113 H 381.24 4.24069 2.57835 0
M  V30 4114 H 376.496 5.63781 2.3656 0
M  V30 4115 H 380.67 6.60985 2.19251 0
M  V30 4116 H 378.297 7.31162 2.081 0
M  V30 4117 N 379.872 -1.04064 1.18357 0
M  V30 4118 C 381.102 -1.80654 1.00238 0
M  V30 4119 C 381.51 -1.83713 -0.452362 0
M  V30 4120 O 380.853 -1.27135 -1.32599 0
M  V30 4121 C 380.915 -3.27582 1.48088 0
M  V30 4122 C 380.579 -3.48184 2.96002 0
M  V30 4123 C 381.576 -3.39372 3.93856 0
M  V30 4124 C 379.261 -3.7478 3.34433 0
M  V30 4125 C 381.255 -3.5686 5.28138 0
M  V30 4126 C 378.942 -3.91915 4.68877 0
M  V30 4127 C 379.94 -3.82956 5.65539 0
M  V30 4128 O 379.628 -3.996 6.97549 0
M  V30 4129 H 379.36 -0.575751 0.354241 0
M  V30 4130 H 381.914 -1.32044 1.57333 0
M  V30 4131 H 380.144 -3.77161 0.853588 0
M  V30 4132 H 381.833 -3.8573 1.2636 0
M  V30 4133 H 382.599 -3.18789 3.65511 0
M  V30 4134 H 378.478 -3.80852 2.59756 0
M  V30 4135 H 382.022 -3.49783 6.03571 0
M  V30 4136 H 377.919 -4.11992 4.96923 0
M  V30 4137 H 378.687 -4.1676 7.04452 0
M  V30 4138 N 381.35 -0.985608 -1.22978 0
M  V30 4139 C 382.298 -0.522631 -2.26652 0
M  V30 4140 C 383.292 0.422998 -1.64034 0
M  V30 4141 O 384.498 0.296319 -1.77544 0
M  V30 4142 H 380.873 -0.150597 -0.736766 0
M  V30 4143 H 382.844 -1.40863 -2.63059 0
M  V30 4144 C 381.593 0.154238 -3.47358 0
M  V30 4145 H 380.916 -0.564329 -3.95797 0
M  V30 4146 H 382.356 0.441744 -4.21693 0
M  V30 4147 C 380.815 1.38719 -3.07016 0
M  V30 4148 O 381.345 2.48307 -3.15764 0
M  V30 4149 N 379.551 1.25975 -2.61875 0
M  V30 4150 H 379.098 0.368068 -2.54957 0
M  V30 4151 H 379.056 2.08578 -2.3525 0
M  V30 4152 N 382.828 1.3818 -0.7579 0
M  V30 4153 C 384.074 2.00316 -0.316453 0
M  V30 4154 C 384.407 1.60026 1.10025 0
M  V30 4155 O 383.682 0.839835 1.75434 0
M  V30 4156 C 383.965 3.57349 -0.444245 0
M  V30 4157 C 383.818 4.07591 -1.90236 0
M  V30 4158 C 385.137 4.3981 0.1598 0
M  V30 4159 H 382.256 0.727741 -0.116459 0
M  V30 4160 H 384.898 1.6406 -0.958352 0
M  V30 4161 H 383.048 3.88365 0.102233 0
M  V30 4162 H 384.72 3.87199 -2.50748 0
M  V30 4163 H 382.963 3.60297 -2.41595 0
M  V30 4164 H 383.634 5.16677 -1.94291 0
M  V30 4165 H 386.11 4.14971 -0.306314 0
M  V30 4166 H 384.986 5.48885 0.0401675 0
M  V30 4167 H 385.247 4.24102 1.24859 0
M  V30 4168 N 384.306 0.507319 1.49211 0
M  V30 4169 C 385.236 -0.256939 2.32082 0
M  V30 4170 C 386.217 -0.956609 1.40652 0
M  V30 4171 O 387.402 -0.946788 1.69557 0
M  V30 4172 C 384.532 -1.31802 3.21318 0
M  V30 4173 C 383.486 -0.737855 4.21592 0
M  V30 4174 C 382.812 -1.89992 4.99807 0
M  V30 4175 C 384.112 0.275325 5.21574 0
M  V30 4176 H 385.806 0.434798 2.96226 0
M  V30 4177 H 383.352 0.210546 1.42452 0
M  V30 4178 H 385.305 -1.86045 3.78107 0
M  V30 4179 H 384.029 -2.03903 2.5513 0
M  V30 4180 H 382.688 -0.217126 3.65956 0
M  V30 4181 H 382.336 -2.60877 4.30061 0
M  V30 4182 H 382.036 -1.51777 5.6766 0
M  V30 4183 H 383.56 -2.44657 5.59442 0
M  V30 4184 H 384.974 -0.179193 5.7302 0
M  V30 4185 H 383.371 0.573649 5.97352 0
M  V30 4186 H 384.441 1.18903 4.70096 0
M  V30 4187 N 385.784 -1.5574 0.241426 0
M  V30 4188 C 387.024 -2.00714 -0.38644 0
M  V30 4189 C 387.388 -1.12586 -1.55526 0
M  V30 4190 O 388.589 -1.46992 -2.25048 0
M  V30 4191 C 386.86 -3.48534 -0.791128 0
M  V30 4192 S 388.419 -4.15519 -1.41029 0
M  V30 4193 H 385.237 -0.700484 -0.121834 0
M  V30 4194 H 387.839 -1.92243 0.355377 0
M  V30 4195 H 386.543 -4.10342 0.0689225 0
M  V30 4196 H 386.074 -3.6092 -1.56526 0
M  V30 4197 H 388.089 -4.16352 -2.69936 0
M  V30 4198 N 387.262 0.0317525 -1.57568 0
M  V30 4199 C 388.487 0.738664 -1.938 0
M  V30 4200 C 388.912 1.68242 -0.841208 0
M  V30 4201 O 388.27 1.80157 0.203267 0
M  V30 4202 C 388.318 1.47417 -3.29091 0
M  V30 4203 O 387.422 2.5872 -3.2115 0
M  V30 4204 H 386.763 0.198856 -0.633524 0
M  V30 4205 H 389.293 -0.0119713 -2.04596 0
M  V30 4206 H 389.303 1.84468 -3.63917 0
M  V30 4207 H 387.978 0.781988 -4.08482 0
M  V30 4208 H 386.555 2.24231 -2.97951 0
M  V30 4209 N 388.74 1.54641 0.303973 0
M  V30 4210 C 389.988 1.73437 1.0375 0
M  V30 4211 C 390.309 0.521449 1.87899 0
M  V30 4212 O 389.579 -0.46432 1.90318 0
M  V30 4213 H 388.159 0.639518 0.386039 0
M  V30 4214 H 390.821 1.91988 0.335675 0
M  V30 4215 H 389.917 2.62235 1.69231 0
M  V30 4216 N 390.218 -0.567019 1.47046 0
M  V30 4217 C 391.168 -1.67018 1.55207 0
M  V30 4218 C 392.152 -1.55543 0.411714 0
M  V30 4219 O 393.344 -1.64192 0.661064 0
M  V30 4220 C 390.473 -3.05801 1.56014 0
M  V30 4221 C 389.559 -3.22515 2.75399 0
M  V30 4222 N 389.95 -3.09329 4.00186 0
M  V30 4223 C 388.248 -3.53493 2.71954 0
M  V30 4224 C 388.949 -3.2847 4.80086 0
M  V30 4225 N 387.925 -3.54352 4.12233 0
M  V30 4226 H 391.727 -1.55377 2.4947 0
M  V30 4227 H 389.241 -0.771503 1.42904 0
M  V30 4228 H 391.238 -3.84996 1.59949 0
M  V30 4229 H 389.898 -3.18561 0.628396 0
M  V30 4230 H 390.909 -2.86863 4.31196 0
M  V30 4231 H 387.586 -3.7284 1.87873 0
M  V30 4232 H 388.976 -3.23326 5.88991 0
M  V30 4233 N 391.696 -1.35014 -0.812953 0
M  V30 4234 C 392.643 -1.27412 -1.92444 0
M  V30 4235 C 393.613 -0.14733 -1.65445 0
M  V30 4236 O 394.798 -0.329974 -1.87925 0
M  V30 4237 C 391.938 -1.04558 -3.28879 0
M  V30 4238 C 391.051 -2.26101 -3.68106 0
M  V30 4239 C 390.186 -1.96449 -4.9354 0
M  V30 4240 C 389.225 -3.14081 -5.25376 0
M  V30 4241 N 388.362 -2.84246 -6.41988 0
M  V30 4242 H 393.202 -2.22463 -1.98278 0
M  V30 4243 H 390.739 -1.10593 -0.969933 0
M  V30 4244 H 392.697 -0.893413 -4.07522 0
M  V30 4245 H 391.327 -0.131719 -3.22531 0
M  V30 4246 H 390.379 -2.52204 -2.84775 0
M  V30 4247 H 391.691 -3.13959 -3.87597 0
M  V30 4248 H 390.845 -1.78026 -5.79993 0
M  V30 4249 H 389.584 -1.05867 -4.76071 0
M  V30 4250 H 388.589 -3.33089 -4.37415 0
M  V30 4251 H 389.814 -4.05455 -5.44778 0
M  V30 4252 H 387.76 -1.96252 -6.25956 0
M  V30 4253 H 387.677 -3.65637 -6.61699 0
M  V30 4254 H 388.945 -2.6935 -7.31485 0
M  V30 4255 N 393.175 1.03435 -1.18907 0
M  V30 4256 C 394.423 1.76394 -0.986382 0
M  V30 4257 C 394.744 1.88883 0.484567 0
M  V30 4258 O 394.014 1.41843 1.3512 0
M  V30 4259 H 392.594 0.65344 -0.361975 0
M  V30 4260 H 395.256 1.248 -1.49703 0
M  V30 4261 H 394.352 2.77424 -1.42978 0
M  V30 4262 N 394.653 0.992116 1.22453 0
M  V30 4263 C 395.881 0.685944 1.95198 0
M  V30 4264 C 396.296 -0.749233 1.73297 0
M  V30 4265 O 395.653 -1.50549 1.03156 0
M  V30 4266 C 395.704 0.981395 3.47924 0
M  V30 4267 O 395.425 2.36018 3.6909 0
M  V30 4268 C 396.926 0.692815 4.37853 0
M  V30 4269 H 394.146 0.253821 0.621141 0
M  V30 4270 H 396.69 1.32668 1.55626 0
M  V30 4271 H 394.845 0.386481 3.85467 0
M  V30 4272 H 395.259 2.45884 4.63294 0
M  V30 4273 H 396.733 0.949818 5.43767 0
M  V30 4274 H 397.21 -0.373181 4.37612 0
M  V30 4275 H 397.816 1.26874 4.05935 0
M  V30 4276 N 396.131 -1.37776 0.765217 0
M  V30 4277 C 397.061 -2.32945 0.160953 0
M  V30 4278 C 398.042 -1.55454 -0.690516 0
M  V30 4279 O 399.227 -1.83721 -0.629318 0
M  V30 4280 C 396.357 -3.39669 -0.724031 0
M  V30 4281 C 395.311 -4.27992 0.0256173 0
M  V30 4282 C 394.637 -5.25673 -0.978383 0
M  V30 4283 C 395.937 -5.08309 1.20082 0
M  V30 4284 H 397.631 -2.83728 0.955969 0
M  V30 4285 H 395.177 -1.36416 0.461149 0
M  V30 4286 H 397.13 -4.05219 -1.15652 0
M  V30 4287 H 395.854 -2.87396 -1.5515 0
M  V30 4288 H 394.513 -3.63964 0.438812 0
M  V30 4289 H 394.161 -4.69682 -1.80022 0
M  V30 4290 H 393.861 -5.85625 -0.481378 0
M  V30 4291 H 395.385 -5.94098 -1.40995 0
M  V30 4292 H 396.799 -5.67034 0.845307 0
M  V30 4293 H 395.196 -5.77554 1.62947 0
M  V30 4294 H 396.266 -4.41365 2.00811 0
M  V30 4295 N 397.609 -0.515225 -1.4894 0
M  V30 4296 C 398.837 0.0206034 -2.0689 0
M  V30 4297 C 399.252 1.29514 -1.37374 0
M  V30 4298 O 398.609 1.76698 -0.456529 0
M  V30 4299 C 398.66 0.26351 -3.60538 0
M  V30 4300 O 398.381 -0.960517 -4.27441 0
M  V30 4301 C 399.882 0.841383 -4.35242 0
M  V30 4302 H 397.102 -0.0268608 -0.670462 0
M  V30 4303 H 399.646 -0.716651 -1.91532 0
M  V30 4304 H 397.801 0.950777 -3.75552 0
M  V30 4305 H 398.215 -0.73212 -5.19365 0
M  V30 4306 H 399.689 0.96085 -5.43573 0
M  V30 4307 H 400.166 1.8427 -3.98674 0
M  V30 4308 H 400.772 0.191143 -4.2487 0
M  V30 4309 N 399.087 1.5561 -0.249682 0
M  V30 4310 C 400.315 2.03411 0.378352 0
M  V30 4311 C 400.73 1.12886 1.51335 0
M  V30 4312 O 400.087 0.143833 1.81932 0
M  V30 4313 C 400.138 3.50537 0.88351 0
M  V30 4314 O 399.859 4.37614 -0.20626 0
M  V30 4315 C 401.36 4.14113 1.58195 0
M  V30 4316 H 398.58 0.664994 0.08958 0
M  V30 4317 H 401.124 2.01044 -0.374357 0
M  V30 4318 H 399.279 3.5343 1.58639 0
M  V30 4319 H 399.693 5.24199 0.177782 0
M  V30 4320 H 401.167 5.18741 1.8871 0
M  V30 4321 H 401.644 3.60767 2.50487 0
M  V30 4322 H 402.25 4.15151 0.923573 0
M  V30 4323 N 400.565 -0.0233959 1.57583 0
M  V30 4324 C 401.495 -1.02162 2.09965 0
M  V30 4325 C 402.476 -1.3735 1.00344 0
M  V30 4326 O 403.661 -1.46135 1.27899 0
M  V30 4327 C 400.791 -2.32081 2.58371 0
M  V30 4328 C 399.745 -2.1112 3.72307 0
M  V30 4329 C 399.071 -3.46848 4.06941 0
M  V30 4330 C 400.371 -1.49276 5.00514 0
M  V30 4331 H 402.065 -0.585557 2.93618 0
M  V30 4332 H 399.611 -0.280218 1.41247 0
M  V30 4333 H 401.564 -3.02249 2.93639 0
M  V30 4334 H 400.288 -2.77758 1.71808 0
M  V30 4335 H 398.947 -1.43384 3.37397 0
M  V30 4336 H 398.595 -3.90184 3.17436 0
M  V30 4337 H 398.295 -3.33646 4.83688 0
M  V30 4338 H 399.819 -4.18369 4.44747 0
M  V30 4339 H 401.233 -2.09368 5.33702 0
M  V30 4340 H 399.63 -1.46632 5.8191 0
M  V30 4341 H 400.7 -0.459217 4.82721 0
M  V30 4342 N 402.043 -1.548 -0.295768 0
M  V30 4343 C 402.993 -1.82497 -1.3667 0
M  V30 4344 C 403.977 -0.682434 -1.45711 0
M  V30 4345 O 405.169 -0.943207 -1.49775 0
M  V30 4346 C 402.298 -2.08036 -2.73086 0
M  V30 4347 C 401.384 -3.28488 -2.68247 0
M  V30 4348 N 401.775 -4.48924 -2.33025 0
M  V30 4349 C 400.073 -3.3062 -2.99343 0
M  V30 4350 C 400.774 -5.30956 -2.37613 0
M  V30 4351 N 399.75 -4.68805 -2.75178 0
M  V30 4352 H 403.552 -2.73175 -1.0841 0
M  V30 4353 H 401.066 -1.5437 -0.504361 0
M  V30 4354 H 403.063 -2.26027 -3.5031 0
M  V30 4355 H 401.723 -1.18629 -3.02254 0
M  V30 4356 H 402.734 -4.75432 -2.05389 0
M  V30 4357 H 399.411 -2.51336 -3.33371 0
M  V30 4358 H 400.801 -6.37199 -2.13135 0
M  V30 4359 N 403.521 0.559213 -1.47345 0
M  V30 4360 C 404.484 1.64854 -1.59235 0
M  V30 4361 C 405.484 1.53851 -0.467607 0
M  V30 4362 O 406.674 1.58045 -0.732617 0
M  V30 4363 C 403.806 3.04388 -1.53496 0
M  V30 4364 H 404.999 1.55662 -2.56339 0
M  V30 4365 H 402.552 0.778973 -1.35505 0
M  V30 4366 H 403.287 3.19115 -0.577604 0
M  V30 4367 H 403.072 3.13783 -2.35123 0
M  V30 4368 H 404.562 3.83642 -1.6495 0
M  V30 4369 N 404.999 1.35443 0.805782 0
M  V30 4370 C 406.247 1.28507 1.55982 0
M  V30 4371 C 406.568 -0.140046 1.94496 0
M  V30 4372 O 405.838 -1.07666 1.63661 0
M  V30 4373 H 404.418 0.472676 0.578434 0
M  V30 4374 H 407.08 1.69555 0.961098 0
M  V30 4375 H 406.176 1.90148 2.47488 0
M  V30 4376 N 406.477 -1.02803 1.19454 0
M  V30 4377 C 407.702 -1.80378 1.02364 0
M  V30 4378 C 408.127 -1.83282 -0.423007 0
M  V30 4379 O 407.485 -1.25945 -1.30413 0
M  V30 4380 C 407.533 -3.23248 1.59821 0
M  V30 4381 O 406.637 -4.04 0.828105 0
M  V30 4382 H 405.978 -0.556799 0.361761 0
M  V30 4383 H 408.508 -1.29385 1.58495 0
M  V30 4384 H 408.518 -3.73994 1.63073 0
M  V30 4385 H 407.193 -3.2045 2.65113 0
M  V30 4386 H 405.77 -3.62635 0.86891 0
M  V30 4387 N 407.956 -0.998596 -1.21925 0
M  V30 4388 C 409.181 -0.696015 -1.95372 0
M  V30 4389 C 409.606 0.733826 -1.73195 0
M  V30 4390 O 408.964 1.50242 -1.01474 0
M  V30 4391 C 409.012 -1.01466 -3.4603 0
M  V30 4392 O 408.116 -0.116415 -4.12236 0
M  V30 4393 H 407.457 -0.259938 -0.611006 0
M  V30 4394 H 409.987 -1.33711 -1.54863 0
M  V30 4395 H 409.997 -0.958855 -3.96573 0
M  V30 4396 H 408.672 -2.05653 -3.61497 0
M  V30 4397 H 407.249 -0.228193 -3.72201 0
M  V30 4398 N 409.434 1.37368 -0.772513 0
M  V30 4399 C 410.344 2.34053 -0.160081 0
M  V30 4400 C 411.36 1.60216 0.678728 0
M  V30 4401 O 412.536 1.92303 0.59847 0
M  V30 4402 C 409.601 3.3939 0.708182 0
M  V30 4403 C 408.662 4.29048 -0.147172 0
M  V30 4404 C 407.895 5.29354 0.679744 0
M  V30 4405 O 408.118 5.3723 1.91678 0
M  V30 4406 O 407.052 6.01835 0.0885444 0
M  V30 4407 H 410.878 2.88159 -0.959053 0
M  V30 4408 H 408.463 1.39543 -0.533685 0
M  V30 4409 H 410.345 4.03839 1.20384 0
M  V30 4410 H 409.02 2.8761 1.48533 0
M  V30 4411 H 407.927 3.67697 -0.689205 0
M  V30 4412 H 409.26 4.84134 -0.887423 0
M  V30 4413 N 410.912 0.523116 1.48665 0
M  V30 4414 C 411.822 -0.247406 2.33292 0
M  V30 4415 C 412.838 -0.945769 1.46052 0
M  V30 4416 O 414.014 -0.922253 1.79043 0
M  V30 4417 C 411.079 -1.28487 3.22012 0
M  V30 4418 C 410.14 -0.597592 4.2512 0
M  V30 4419 C 409.373 -1.58563 5.09601 0
M  V30 4420 O 409.596 -2.81763 4.95949 0
M  V30 4421 O 408.53 -1.12879 5.91221 0
M  V30 4422 H 412.356 0.445869 3.00409 0
M  V30 4423 H 409.941 0.284128 1.46673 0
M  V30 4424 H 411.823 -1.88459 3.7691 0
M  V30 4425 H 410.498 -1.96068 2.57564 0
M  V30 4426 H 409.405 0.0424407 3.74076 0
M  V30 4427 H 410.738 0.0361517 4.92187 0
M  V30 4428 N 412.39 -1.55475 0.257931 0
M  V30 4429 C 413.353 -2.20551 -0.623706 0
M  V30 4430 C 414.353 -1.17809 -1.09443 0
M  V30 4431 O 415.543 -1.42823 -0.997362 0
M  V30 4432 C 412.675 -2.85784 -1.8585 0
M  V30 4433 H 413.868 -2.99848 -0.0557743 0
M  V30 4434 H 411.421 -1.56298 0.0084422 0
M  V30 4435 H 412.156 -2.10453 -2.46739 0
M  V30 4436 H 411.941 -3.61057 -1.52907 0
M  V30 4437 H 413.431 -3.35553 -2.48584 0
M  V30 4438 N 413.868 0.0150385 -1.57593 0
M  V30 4439 C 415.115 0.703001 -1.89906 0
M  V30 4440 C 415.443 1.74604 -0.856944 0
M  V30 4441 O 414.698 1.95197 0.140287 0
M  V30 4442 C 414.997 1.39686 -3.28972 0
M  V30 4443 C 414.663 0.488457 -4.48246 0
M  V30 4444 C 413.325 0.2383 -4.8061 0
M  V30 4445 C 415.677 -0.137881 -5.21018 0
M  V30 4446 C 413.005 -0.646738 -5.83125 0
M  V30 4447 C 415.357 -1.0107 -6.24474 0
M  V30 4448 C 414.021 -1.27019 -6.55303 0
M  V30 4449 H 413.291 0.257246 -0.694914 0
M  V30 4450 H 415.938 -0.037259 -1.91464 0
M  V30 4451 H 414.243 2.21079 -3.23468 0
M  V30 4452 H 415.94 1.93495 -3.51227 0
M  V30 4453 H 412.53 0.693593 -4.22951 0
M  V30 4454 H 416.714 0.0423953 -4.96282 0
M  V30 4455 H 411.97 -0.855937 -6.05379 0
M  V30 4456 H 416.144 -1.50247 -6.79999 0
M  V30 4457 H 413.771 -1.95769 -7.3456 0
M  V30 4458 N 415.346 1.54954 0.287554 0
M  V30 4459 C 416.595 1.74081 1.01877 0
M  V30 4460 C 416.908 0.541135 1.87966 0
M  V30 4461 O 418.114 0.614491 2.64455 0
M  V30 4462 C 416.57 3.08042 1.86113 0
M  V30 4463 C 416.178 4.35531 1.04961 0
M  V30 4464 C 417.922 3.36523 2.58752 0
M  V30 4465 C 415.829 5.60538 1.88551 0
M  V30 4466 H 414.759 0.64884 0.384087 0
M  V30 4467 H 417.41 1.81426 0.275101 0
M  V30 4468 H 415.792 2.94696 2.64519 0
M  V30 4469 H 416.966 4.59751 0.31074 0
M  V30 4470 H 415.281 4.14085 0.43843 0
M  V30 4471 H 417.878 4.27122 3.21668 0
M  V30 4472 H 418.221 2.56 3.28283 0
M  V30 4473 H 418.754 3.50901 1.87386 0
M  V30 4474 H 415.493 6.43767 1.23466 0
M  V30 4475 H 415.013 5.40483 2.60074 0
M  V30 4476 H 416.692 5.98297 2.46273 0
M  V30 4477 N 416.824 -0.551391 1.4764 0
M  V30 4478 C 418.24 -0.877887 1.33287 0
M  V30 4479 C 418.44 -1.98817 0.327721 0
M  V30 4480 O 417.496 -2.51171 -0.258695 0
M  V30 4481 C 418.809 -1.26563 2.72768 0
M  V30 4482 C 420.357 -1.37673 2.81097 0
M  V30 4483 C 420.832 -1.79799 4.21232 0
M  V30 4484 N 422.323 -1.8694 4.23802 0
M  V30 4485 C 423.058 -2.20876 5.29151 0
M  V30 4486 N 422.554 -2.53386 6.448 0
M  V30 4487 N 424.347 -2.217 5.16532 0
M  V30 4488 H 416.498 0.18153 2.11623 0
M  V30 4489 H 418.761 0.0185514 0.947818 0
M  V30 4490 H 418.467 -0.523591 3.47781 0
M  V30 4491 H 418.341 -2.22052 3.04915 0
M  V30 4492 H 420.728 -2.10956 2.06353 0
M  V30 4493 H 420.809 -0.40357 2.52596 0
M  V30 4494 H 420.453 -1.07083 4.96483 0
M  V30 4495 H 420.383 -2.78128 4.4716 0
M  V30 4496 H 422.874 -1.64179 3.40373 0
M  V30 4497 H 423.187 -2.78325 7.20941 0
M  V30 4498 H 421.532 -2.50953 6.48111 0
M  V30 4499 H 424.723 -1.95745 4.25207 0
M  V30 4500 H 424.896 -2.47818 5.98741 0
M  V30 4501 N 418.302 -1.35869 -0.798587 0
M  V30 4502 C 419.232 -1.32118 -1.92528 0
M  V30 4503 C 420.213 -0.194209 -1.68988 0
M  V30 4504 O 421.398 -0.390426 -1.90235 0
M  V30 4505 C 418.528 -1.10047 -3.29404 0
M  V30 4506 C 417.482 -2.19471 -3.67446 0
M  V30 4507 C 416.808 -1.82555 -5.02571 0
M  V30 4508 C 418.108 -3.61495 -3.76987 0
M  V30 4509 H 419.802 -2.26394 -1.95924 0
M  V30 4510 H 417.348 -1.08981 -0.94123 0
M  V30 4511 H 419.301 -1.06061 -4.07835 0
M  V30 4512 H 418.025 -0.122195 -3.26371 0
M  V30 4513 H 416.684 -2.22568 -2.91306 0
M  V30 4514 H 416.332 -0.833249 -4.9605 0
M  V30 4515 H 416.032 -2.5581 -5.28995 0
M  V30 4516 H 417.556 -1.80108 -5.83432 0
M  V30 4517 H 418.97 -3.60676 -4.4563 0
M  V30 4518 H 417.367 -4.33577 -4.14887 0
M  V30 4519 H 418.437 -3.97065 -2.78329 0
M  V30 4520 N 419.78 1.02168 -1.19998 0
M  V30 4521 C 420.743 2.08765 -0.94604 0
M  V30 4522 C 421.743 1.60618 0.0763846 0
M  V30 4523 O 422.933 1.73472 -0.159135 0
M  V30 4524 C 420.065 3.38262 -0.423255 0
M  V30 4525 H 421.258 2.32726 -1.89153 0
M  V30 4526 H 418.811 1.1889 -1.01464 0
M  V30 4527 H 419.546 3.19974 0.527938 0
M  V30 4528 H 419.331 3.74532 -1.16053 0
M  V30 4529 H 420.821 4.16759 -0.264911 0
M  V30 4530 N 421.258 1.00505 1.21394 0
M  V30 4531 C 422.206 0.558623 2.25792 0
M  V30 4532 C 423.2 -0.396848 1.64686 0
M  V30 4533 O 424.406 -0.268035 1.77993 0
M  V30 4534 H 420.781 0.1623 0.734277 0
M  V30 4535 H 422.752 1.4503 2.60785 0
M  V30 4536 C 421.501 -0.0989574 3.47559 0
M  V30 4537 H 420.824 0.627225 3.94849 0
M  V30 4538 H 422.264 -0.3746 4.22342 0
M  V30 4539 C 420.723 -1.33817 3.09184 0
M  V30 4540 O 421.253 -2.43252 3.19674 0
M  V30 4541 N 419.459 -1.21793 2.63846 0
M  V30 4542 H 419.006 -0.32746 2.5551 0
M  V30 4543 H 418.964 -2.04809 2.38539 0
M  V30 4544 N 422.737 -1.36956 0.779787 0
M  V30 4545 C 423.67 -2.27896 0.117681 0
M  V30 4546 C 424.648 -1.46736 -0.700523 0
M  V30 4547 O 425.832 -1.76055 -0.673568 0
M  V30 4548 C 422.959 -3.28136 -0.839296 0
M  V30 4549 C 422.005 -4.26373 -0.10409 0
M  V30 4550 S 422.838 -5.2157 1.21348 0
M  V30 4551 C 423.994 -6.25359 0.260249 0
M  V30 4552 H 424.227 -2.83704 0.888778 0
M  V30 4553 H 421.76 -1.43352 0.57355 0
M  V30 4554 H 423.718 -3.86394 -1.38601 0
M  V30 4555 H 422.379 -2.7126 -1.58356 0
M  V30 4556 H 421.572 -4.97121 -0.82986 0
M  V30 4557 H 421.174 -3.72147 0.371858 0
M  V30 4558 H 423.466 -6.75145 -0.564435 0
M  V30 4559 H 424.409 -7.01885 0.936135 0
M  V30 4560 H 424.817 -5.64345 -0.132127 0
M  V30 4561 N 424.215 -0.530993 -1.48385 0
M  V30 4562 C 425.44 0.000729535 -2.074 0
M  V30 4563 C 425.865 1.27298 -1.3848 0
M  V30 4564 O 425.223 1.75599 -0.451081 0
M  V30 4565 C 425.271 0.206697 -3.60007 0
M  V30 4566 O 424.375 1.27514 -3.92191 0
M  V30 4567 H 423.716 -0.039583 -0.662819 0
M  V30 4568 H 426.246 -0.739194 -1.9078 0
M  V30 4569 H 426.256 0.42904 -4.05738 0
M  V30 4570 H 424.931 -0.722675 -4.09573 0
M  V30 4571 H 423.508 1.03537 -3.58238 0
M  V30 4572 N 425.693 1.55336 -0.266172 0
M  V30 4573 C 426.918 2.04258 0.359661 0
M  V30 4574 C 427.343 1.14359 1.49344 0
M  V30 4575 O 426.701 0.140369 1.80756 0
M  V30 4576 C 426.749 3.50997 0.826635 0
M  V30 4577 O 425.853 3.64204 1.93466 0
M  V30 4578 H 425.194 0.659668 0.075727 0
M  V30 4579 H 427.724 2.00694 -0.39786 0
M  V30 4580 H 427.734 3.9219 1.12477 0
M  V30 4581 H 426.409 4.159 -0.00293032 0
M  V30 4582 H 424.986 3.34913 1.63974 0
M  V30 4583 N 427.171 -0.0066808 1.57599 0
M  V30 4584 C 428.396 -0.707738 1.94951 0
M  V30 4585 C 428.821 -1.66882 0.867868 0
M  V30 4586 O 428.179 -1.80457 -0.17458 0
M  V30 4587 C 428.227 -1.42162 3.31394 0
M  V30 4588 O 427.331 -2.53578 3.25226 0
M  V30 4589 H 426.672 -0.188752 0.636607 0
M  V30 4590 H 429.202 0.0445193 2.04552 0
M  V30 4591 H 429.212 -1.78655 3.66806 0
M  V30 4592 H 427.887 -0.716903 4.09675 0
M  V30 4593 H 426.464 -2.19463 3.01481 0
M  V30 4594 N 428.649 -1.55105 -0.279332 0
M  V30 4595 C 429.597 -1.88333 -1.36505 0
M  V30 4596 C 430.591 -0.759043 -1.51443 0
M  V30 4597 O 431.797 -0.943312 -1.53302 0
M  V30 4598 H 428.172 -0.59766 -0.456406 0
M  V30 4599 H 430.143 -2.79041 -1.05728 0
M  V30 4600 C 428.892 -2.16628 -2.7197 0
M  V30 4601 H 428.215 -3.02624 -2.61264 0
M  V30 4602 H 429.655 -2.43803 -3.46895 0
M  V30 4603 C 428.114 -0.971807 -3.22579 0
M  V30 4604 O 428.644 -0.203228 -4.01186 0
M  V30 4605 N 426.85 -0.771238 -2.80179 0
M  V30 4606 H 426.397 -1.39792 -2.1637 0
M  V30 4607 H 426.355 0.0263667 -3.14389 0
M  V30 4608 N 430.127 0.543554 -1.4793 0
M  V30 4609 C 431.352 1.32995 -1.59145 0
M  V30 4610 C 431.777 1.86472 -0.246956 0
M  V30 4611 O 431.135 1.63696 0.779324 0
M  V30 4612 C 431.183 2.46623 -2.63077 0
M  V30 4613 O 430.287 3.49261 -2.19295 0
M  V30 4614 H 429.628 0.394472 -0.534124 0
M  V30 4615 H 432.158 0.655489 -1.93816 0
M  V30 4616 H 432.168 2.93001 -2.83926 0
M  V30 4617 H 430.843 2.07059 -3.60693 0
M  V30 4618 H 429.42 3.09094 -2.08603 0
M  V30 4619 N 431.605 1.3629 0.791371 0
M  V30 4620 C 432.568 1.30309 1.88553 0
M  V30 4621 C 433.568 0.211204 1.59407 0
M  V30 4622 O 434.758 0.465865 1.67855 0
M  V30 4623 C 431.89 1.01956 3.25297 0
M  V30 4624 H 433.083 2.27614 1.95273 0
M  V30 4625 H 430.636 1.21035 0.988953 0
M  V30 4626 H 431.371 0.050998 3.2426 0
M  V30 4627 H 431.156 1.80968 3.4784 0
M  V30 4628 H 432.646 1.0037 4.05359 0
M  V30 4629 N 433.083 -1.0153 1.20538 0
M  V30 4630 C 434.046 -2.0826 0.957098 0
M  V30 4631 C 435.046 -1.60657 -0.0678655 0
M  V30 4632 O 436.236 -1.73385 0.168332 0
M  V30 4633 C 433.368 -3.38033 0.441188 0
M  V30 4634 H 434.561 -2.31719 1.90384 0
M  V30 4635 H 432.114 -1.1835 1.02093 0
M  V30 4636 H 432.849 -3.20249 -0.510961 0
M  V30 4637 H 432.634 -3.73911 1.18038 0
M  V30 4638 H 434.124 -4.16613 0.287009 0
M  V30 4639 N 434.561 -1.01147 -1.20859 0
M  V30 4640 C 435.977 -0.725422 -1.42161 0
M  V30 4641 C 436.177 0.696919 -1.89064 0
M  V30 4642 O 435.233 1.46539 -2.05627 0
M  V30 4643 C 436.546 -1.74678 -2.44761 0
M  V30 4644 C 438.094 -1.76433 -2.58535 0
M  V30 4645 C 438.569 -2.77481 -3.64374 0
M  V30 4646 N 440.06 -2.76189 -3.71852 0
M  V30 4647 C 440.795 -3.51035 -4.53389 0
M  V30 4648 N 440.291 -4.35541 -5.38773 0
M  V30 4649 N 442.084 -3.39655 -4.47873 0
M  V30 4650 H 434.235 -1.92979 -0.887282 0
M  V30 4651 H 436.498 -0.833327 -0.451962 0
M  V30 4652 H 436.204 -2.76551 -2.17285 0
M  V30 4653 H 436.078 -1.55472 -3.43669 0
M  V30 4654 H 438.465 -0.75248 -2.85345 0
M  V30 4655 H 438.546 -1.99712 -1.5984 0
M  V30 4656 H 438.19 -3.78827 -3.38308 0
M  V30 4657 H 438.12 -2.51466 -4.6268 0
M  V30 4658 H 440.611 -2.14885 -3.10858 0
M  V30 4659 H 440.924 -4.89432 -5.98061 0
M  V30 4660 H 439.269 -4.39621 -5.38292 0
M  V30 4661 H 442.46 -2.73063 -3.80203 0
M  V30 4662 H 442.633 -3.9824 -5.11184 0
M  V30 4663 N 436.039 1.36541 -0.78704 0
M  V30 4664 C 436.987 2.31965 -0.171724 0
M  V30 4665 C 437.981 1.55689 0.667631 0
M  V30 4666 O 439.187 1.70969 0.562981 0
M  V30 4667 H 435.562 0.751101 -0.0367545 0
M  V30 4668 H 437.533 2.81428 -0.992017 0
M  V30 4669 C 436.282 3.40968 0.680904 0
M  V30 4670 H 435.605 3.99775 0.0443961 0
M  V30 4671 H 437.045 4.10063 1.07815 0
M  V30 4672 C 435.504 2.82338 1.83813 0
M  V30 4673 O 436.034 2.74311 2.93456 0
M  V30 4674 N 434.24 2.39661 1.6435 0
M  V30 4675 H 433.787 2.46389 0.751668 0
M  V30 4676 H 433.745 2.00779 2.4194 0
M  V30 4677 N 437.518 0.538854 1.48102 0
M  V30 4678 C 438.767 0.0059532 2.01699 0
M  V30 4679 C 439.08 -1.34476 1.42041 0
M  V30 4680 O 440.286 -1.96653 1.87189 0
M  V30 4681 C 438.742 -0.0397627 3.59878 0
M  V30 4682 C 438.35 1.30659 4.28523 0
M  V30 4683 C 440.094 -0.521024 4.2129 0
M  V30 4684 C 438.001 1.22098 5.78659 0
M  V30 4685 H 436.931 -0.00154456 0.753998 0
M  V30 4686 H 439.582 0.683963 1.70277 0
M  V30 4687 H 437.964 -0.783037 3.88181 0
M  V30 4688 H 439.138 2.06613 4.11883 0
M  V30 4689 H 437.453 1.7243 3.79021 0
M  V30 4690 H 440.05 -0.603184 5.31287 0
M  V30 4691 H 440.393 -1.52885 3.8721 0
M  V30 4692 H 440.926 0.166834 3.9745 0
M  V30 4693 H 437.665 2.20424 6.17328 0
M  V30 4694 H 437.185 0.50295 5.97688 0
M  V30 4695 H 438.864 0.915345 6.40492 0
M  V30 4696 N 438.996 -1.55193 0.274407 0
M  V30 4697 C 439.943 -2.225 -0.613374 0
M  V30 4698 C 440.913 -1.19823 -1.15029 0
M  V30 4699 O 442.098 -1.48362 -1.19973 0
M  V30 4700 C 439.238 -2.94927 -1.79199 0
M  V30 4701 C 438.351 -4.12322 -1.28899 0
M  V30 4702 C 437.486 -4.72394 -2.42934 0
M  V30 4703 C 436.525 -5.81984 -1.89634 0
M  V30 4704 N 435.662 -6.36123 -2.9714 0
M  V30 4705 H 440.502 -2.97982 -0.032756 0
M  V30 4706 H 438.039 -1.47099 -0.00440146 0
M  V30 4707 H 439.997 -3.35134 -2.48478 0
M  V30 4708 H 438.627 -2.2187 -2.34465 0
M  V30 4709 H 437.679 -3.7724 -0.489327 0
M  V30 4710 H 438.991 -4.91355 -0.858587 0
M  V30 4711 H 438.145 -5.15317 -3.20208 0
M  V30 4712 H 436.884 -3.92636 -2.8929 0
M  V30 4713 H 435.889 -5.38511 -1.1084 0
M  V30 4714 H 437.114 -6.6361 -1.44215 0
M  V30 4715 H 435.06 -5.59259 -3.42878 0
M  V30 4716 H 434.977 -7.10427 -2.58515 0
M  V30 4717 H 436.245 -6.83704 -3.74391 0
M  V30 4718 N 440.474 -0.00167713 -1.576 0
M  V30 4719 C 441.721 0.68282 -1.90641 0
M  V30 4720 C 442.049 1.73686 -0.875415 0
M  V30 4721 O 441.304 1.95334 0.119575 0
M  V30 4722 C 441.603 1.36189 -3.30435 0
M  V30 4723 C 441.269 0.440887 -4.48739 0
M  V30 4724 C 439.931 0.187312 -4.80835 0
M  V30 4725 C 442.283 -0.193134 -5.20842 0
M  V30 4726 C 439.611 -0.70855 -5.82406 0
M  V30 4727 C 441.963 -1.07688 -6.23367 0
M  V30 4728 C 440.627 -1.33962 -6.53919 0
M  V30 4729 H 439.897 0.249862 -0.697603 0
M  V30 4730 H 442.544 -0.0575642 -1.91413 0
M  V30 4731 H 440.849 2.17636 -3.25794 0
M  V30 4732 H 442.546 1.89759 -3.5326 0
M  V30 4733 H 439.136 0.648694 -4.23663 0
M  V30 4734 H 443.32 -0.0102445 -4.96299 0
M  V30 4735 H 438.576 -0.920097 -6.04437 0
M  V30 4736 H 442.75 -1.57451 -6.78367 0
M  V30 4737 H 440.377 -2.03549 -7.32442 0
M  V30 4738 N 441.952 1.55251 0.271103 0
M  V30 4739 C 442.862 1.9136 1.35714 0
M  V30 4740 C 443.878 0.811075 1.5394 0
M  V30 4741 O 445.054 1.11031 1.6803 0
M  V30 4742 C 442.119 2.1798 2.69603 0
M  V30 4743 C 441.18 3.4153 2.60107 0
M  V30 4744 C 440.413 3.66871 3.8761 0
M  V30 4745 O 440.636 2.94689 4.8838 0
M  V30 4746 O 439.57 4.60405 3.87699 0
M  V30 4747 H 443.396 2.83815 1.08088 0
M  V30 4748 H 440.981 1.41821 0.469792 0
M  V30 4749 H 442.863 2.36518 3.48765 0
M  V30 4750 H 441.538 1.28708 2.97012 0
M  V30 4751 H 440.445 3.28325 1.79314 0
M  V30 4752 H 441.778 4.31027 2.37647 0
M  V30 4753 N 443.43 -0.535701 1.48216 0
M  V30 4754 C 444.655 -1.32149 1.59848 0
M  V30 4755 C 445.08 -1.86338 0.256842 0
M  V30 4756 O 444.438 -1.64107 -0.770632 0
M  V30 4757 C 444.486 -2.45224 2.64381 0
M  V30 4758 O 443.59 -3.48093 2.21144 0
M  V30 4759 H 442.931 -0.391634 0.536208 0
M  V30 4760 H 445.461 -0.645202 1.94161 0
M  V30 4761 H 445.471 -2.91491 2.85476 0
M  V30 4762 H 444.146 -2.05143 3.61786 0
M  V30 4763 H 442.723 -3.07984 2.10239 0
M  V30 4764 N 444.908 -1.36708 -0.784132 0
M  V30 4765 C 445.838 -1.34153 -1.91116 0
M  V30 4766 C 446.819 -0.212121 -1.68772 0
M  V30 4767 O 448.004 -0.410581 -1.8981 0
M  V30 4768 C 445.134 -1.13535 -3.28218 0
M  V30 4769 C 444.088 -2.23356 -3.65097 0
M  V30 4770 C 443.414 -1.87875 -5.00607 0
M  V30 4771 C 444.714 -3.65473 -3.73131 0
M  V30 4772 H 446.408 -2.28459 -1.93512 0
M  V30 4773 H 443.954 -1.09973 -0.929618 0
M  V30 4774 H 445.907 -1.10381 -4.06687 0
M  V30 4775 H 444.631 -0.156804 -3.26223 0
M  V30 4776 H 443.29 -2.25645 -2.88929 0
M  V30 4777 H 442.938 -0.885814 -4.95139 0
M  V30 4778 H 442.638 -2.61406 -5.26252 0
M  V30 4779 H 444.162 -1.86286 -5.81489 0
M  V30 4780 H 445.576 -3.65382 -4.41779 0
M  V30 4781 H 443.973 -4.37953 -4.10265 0
M  V30 4782 H 445.043 -3.99995 -2.74102 0
M  V30 4783 N 446.386 1.0089 -1.21074 0
M  V30 4784 C 447.635 1.74019 -1.01981 0
M  V30 4785 C 447.948 1.90408 0.447665 0
M  V30 4786 O 449.154 2.60707 0.757906 0
M  V30 4787 C 447.61 3.13026 -1.77603 0
M  V30 4788 C 447.218 3.04623 -3.28495 0
M  V30 4789 C 448.962 3.90312 -1.66904 0
M  V30 4790 C 446.869 4.38685 -3.96623 0
M  V30 4791 H 445.799 0.652422 -0.377971 0
M  V30 4792 H 448.45 1.12755 -1.44771 0
M  V30 4793 H 446.832 3.74878 -1.27604 0
M  V30 4794 H 448.006 2.52032 -3.85767 0
M  V30 4795 H 446.321 2.40827 -3.39693 0
M  V30 4796 H 448.918 4.8951 -2.15138 0
M  V30 4797 H 449.261 4.11558 -0.62658 0
M  V30 4798 H 449.794 3.35104 -2.14359 0
M  V30 4799 H 446.533 4.22641 -5.01054 0
M  V30 4800 H 446.053 4.91252 -3.4414 0
M  V30 4801 H 447.732 5.075 -4.01314 0
M  V30 4802 N 447.864 1.01787 1.20321 0
M  V30 4803 C 448.774 0.598898 2.26827 0
M  V30 4804 C 449.79 -0.36418 1.70146 0
M  V30 4805 O 450.966 -0.224812 2.00141 0
M  V30 4806 C 448.031 -0.0549769 3.46656 0
M  V30 4807 C 447.092 0.954205 4.18561 0
M  V30 4808 C 446.325 0.331439 5.3267 0
M  V30 4809 O 446.548 -0.86851 5.63749 0
M  V30 4810 O 445.482 1.0488 5.92692 0
M  V30 4811 H 449.308 1.48562 2.64883 0
M  V30 4812 H 446.893 0.787434 1.26964 0
M  V30 4813 H 448.775 -0.420102 4.19301 0
M  V30 4814 H 447.45 -0.915876 3.10473 0
M  V30 4815 H 446.357 1.37072 3.48083 0
M  V30 4816 H 447.69 1.78511 4.58688 0
M  V30 4817 N 449.342 -1.36122 0.79427 0
M  V30 4818 C 450.59 -1.98718 0.368177 0
M  V30 4819 C 450.911 -1.63345 -1.06506 0
M  V30 4820 O 450.181 -0.909825 -1.73491 0
M  V30 4821 H 448.761 -0.735038 0.133146 0
M  V30 4822 H 451.423 -1.66239 1.01739 0
M  V30 4823 H 450.519 -3.08633 0.463923 0
M  V30 4824 N 450.82 -0.546701 -1.47814 0
M  V30 4825 C 452.067 -0.0187407 -2.02491 0
M  V30 4826 C 452.395 1.32685 -1.42215 0
M  V30 4827 O 451.65 1.87413 -0.563454 0
M  V30 4828 C 451.949 0.134869 -3.57145 0
M  V30 4829 C 451.615 -1.13849 -4.3629 0
M  V30 4830 C 450.277 -1.48743 -4.57634 0
M  V30 4831 C 452.629 -1.98277 -4.82012 0
M  V30 4832 C 449.957 -2.67932 -5.21948 0
M  V30 4833 C 452.309 -3.16659 -5.4764 0
M  V30 4834 C 450.973 -3.51879 -5.67219 0
M  V30 4835 H 450.243 -0.0068577 -0.740968 0
M  V30 4836 H 452.89 -0.716097 -1.77607 0
M  V30 4837 H 451.195 0.915118 -3.80963 0
M  V30 4838 H 452.892 0.558556 -3.97091 0
M  V30 4839 H 449.482 -0.856767 -4.19949 0
M  V30 4840 H 453.666 -1.72628 -4.6531 0
M  V30 4841 H 448.922 -2.95401 -5.35302 0
M  V30 4842 H 453.096 -3.82374 -5.82033 0
M  V30 4843 H 450.723 -4.44331 -6.16825 0
M  V30 4844 N 452.299 1.55045 -0.282633 0
M  V30 4845 C 453.246 2.22822 0.601566 0
M  V30 4846 C 454.216 1.20431 1.14392 0
M  V30 4847 O 455.401 1.48996 1.19184 0
M  V30 4848 C 452.541 2.95873 1.77632 0
M  V30 4849 C 451.654 4.12999 1.26711 0
M  V30 4850 C 450.789 4.73676 2.40426 0
M  V30 4851 C 449.828 5.82981 1.86545 0
M  V30 4852 N 448.965 6.3769 2.93762 0
M  V30 4853 H 453.805 2.97995 0.0169528 0
M  V30 4854 H 451.342 1.471 -0.00339964 0
M  V30 4855 H 453.3 3.36447 2.46697 0
M  V30 4856 H 451.93 2.2311 2.33285 0
M  V30 4857 H 450.982 3.77494 0.469314 0
M  V30 4858 H 452.294 4.91803 0.832518 0
M  V30 4859 H 451.448 5.17008 3.17471 0
M  V30 4860 H 450.187 3.94164 2.87203 0
M  V30 4861 H 449.192 5.39092 1.07983 0
M  V30 4862 H 450.417 6.64366 1.40694 0
M  V30 4863 H 448.363 5.61069 3.39908 0
M  V30 4864 H 448.28 7.11788 2.54744 0
M  V30 4865 H 449.548 6.8568 3.7076 0
M  V30 4866 N 453.777 0.010035 1.57597 0
M  V30 4867 C 455.054 -0.710296 1.82248 0
M  V30 4868 C 455.434 -1.91426 0.889911 0
M  V30 4869 O 454.782 -2.28424 -0.0590292 0
M  V30 4870 C 454.992 -1.10655 3.30993 0
M  V30 4871 C 456.34 -1.50621 3.96987 0
M  V30 4872 O 457.364 -1.20007 3.35375 0
M  V30 4873 O 456.223 -2.07587 5.05539 0
M  V30 4874 H 453.317 -0.34673 0.750804 0
M  V30 4875 H 455.863 0.0362578 1.69661 0
M  V30 4876 H 454.635 -0.248826 3.90508 0
M  V30 4877 H 454.258 -1.91189 3.48615 0
M  V30 4878 N 455.255 -1.55392 -0.262866 0
M  V30 4879 C 456.185 -1.91978 -1.32917 0
M  V30 4880 C 457.166 -0.7828 -1.51017 0
M  V30 4881 O 458.351 -1.04178 -1.63892 0
M  V30 4882 C 455.481 -2.20055 -2.68687 0
M  V30 4883 C 454.435 -3.35854 -2.65304 0
M  V30 4884 C 453.761 -3.49435 -4.04721 0
M  V30 4885 C 455.061 -4.71977 -2.23685 0
M  V30 4886 H 456.755 -2.81292 -1.02544 0
M  V30 4887 H 454.301 -1.3534 -0.491846 0
M  V30 4888 H 456.254 -2.44237 -3.43404 0
M  V30 4889 H 454.978 -1.27551 -3.00663 0
M  V30 4890 H 453.637 -3.11655 -1.93045 0
M  V30 4891 H 453.285 -2.54379 -4.33936 0
M  V30 4892 H 452.985 -4.27297 -4.0335 0
M  V30 4893 H 454.509 -3.7592 -4.81161 0
M  V30 4894 H 455.923 -4.95637 -2.88127 0
M  V30 4895 H 454.32 -5.52828 -2.33456 0
M  V30 4896 H 455.39 -4.70115 -1.18827 0
M  V30 4897 N 456.733 0.527833 -1.48498 0
M  V30 4898 C 457.982 1.28003 -1.55878 0
M  V30 4899 C 458.295 1.9414 -0.238577 0
M  V30 4900 O 459.501 2.7083 -0.190643 0
M  V30 4901 C 457.957 2.32272 -2.74914 0
M  V30 4902 C 457.565 1.72196 -4.13585 0
M  V30 4903 C 459.309 3.08488 -2.91608 0
M  V30 4904 C 457.216 2.74417 -5.23879 0
M  V30 4905 H 456.146 0.481413 -0.580308 0
M  V30 4906 H 458.797 0.557195 -1.74836 0
M  V30 4907 H 457.179 3.07601 -2.49395 0
M  V30 4908 H 458.353 1.03041 -4.49132 0
M  V30 4909 H 456.668 1.08464 -4.02025 0
M  V30 4910 H 459.265 3.84879 -3.71177 0
M  V30 4911 H 459.608 3.64481 -2.01145 0
M  V30 4912 H 460.141 2.40274 -3.17038 0
M  V30 4913 H 456.88 2.23242 -6.16314 0
M  V30 4914 H 456.4 3.41893 -4.92818 0
M  V30 4915 H 458.079 3.37362 -5.52083 0
M  V30 4916 N 458.211 1.37122 0.776871 0
M  V30 4917 C 459.488 1.22586 1.52421 0
M  V30 4918 C 459.868 -0.182726 2.10308 0
M  V30 4919 O 459.216 -1.18979 1.9508 0
M  V30 4920 C 459.426 2.31782 2.60918 0
M  V30 4921 C 460.774 2.69071 3.2846 0
M  V30 4922 O 461.798 2.3092 2.71209 0
M  V30 4923 O 460.657 3.3478 4.31954 0
M  V30 4924 H 457.751 0.478045 0.674835 0
M  V30 4925 H 460.297 1.48888 0.814275 0
M  V30 4926 H 459.069 3.26131 2.16227 0
M  V30 4927 H 458.692 2.06916 3.39517 0
M  V30 4928 N 459.689 -1.00246 1.21608 0
M  V30 4929 C 460.622 -2.08794 0.920892 0
M  V30 4930 C 461.6 -1.62059 -0.132552 0
M  V30 4931 O 462.784 -1.885 -0.0030366 0
M  V30 4932 C 459.911 -3.36525 0.383226 0
M  V30 4933 C 458.957 -4.02172 1.41987 0
M  V30 4934 S 459.79 -4.44256 2.98994 0
M  V30 4935 C 460.946 -5.7517 2.4684 0
M  V30 4936 H 461.179 -2.33511 1.8401 0
M  V30 4937 H 458.712 -1.13562 1.04609 0
M  V30 4938 H 460.67 -4.10423 0.0795871 0
M  V30 4939 H 459.331 -3.09854 -0.514711 0
M  V30 4940 H 458.524 -4.94114 0.993335 0
M  V30 4941 H 458.126 -3.34559 1.67171 0
M  V30 4942 H 460.418 -6.51042 1.87484 0
M  V30 4943 H 461.361 -6.22638 3.37235 0
M  V30 4944 H 461.769 -5.32112 1.88461 0
M  V30 4945 N 461.167 -1.02423 -1.1978 0
M  V30 4946 C 462.416 -0.713265 -1.88667 0
M  V30 4947 C 462.729 0.7609 -1.80193 0
M  V30 4948 O 463.935 1.18473 -2.44288 0
M  V30 4949 C 462.391 -1.22545 -3.38394 0
M  V30 4950 C 461.999 -2.72706 -3.55437 0
M  V30 4951 C 463.743 -0.990257 -4.12788 0
M  V30 4952 C 461.65 -3.17367 -4.99031 0
M  V30 4953 H 460.58 -0.263105 -0.706606 0
M  V30 4954 H 463.231 -1.23792 -1.35454 0
M  V30 4955 H 461.613 -0.628732 -3.90977 0
M  V30 4956 H 462.787 -3.37993 -3.13205 0
M  V30 4957 H 461.102 -2.94453 -2.94425 0
M  V30 4958 H 463.699 -1.29926 -5.18675 0
M  V30 4959 H 464.042 0.0730761 -4.16236 0
M  V30 4960 H 464.575 -1.55074 -3.66329 0
M  V30 4961 H 461.314 -4.23009 -5.00743 0
M  V30 4962 H 460.834 -2.56805 -5.42044 0
M  V30 4963 H 462.513 -3.10441 -5.67658 0
M  V30 4964 N 462.645 1.35699 -0.801477 0
M  V30 4965 C 463.891 1.99208 -0.380022 0
M  V30 4966 C 464.224 1.63445 1.04878 0
M  V30 4967 O 463.499 0.895223 1.72673 0
M  V30 4968 C 463.782 3.55755 -0.557708 0
M  V30 4969 C 463.635 4.01332 -2.03107 0
M  V30 4970 C 464.954 4.40096 0.0197968 0
M  V30 4971 H 462.073 0.723667 -0.139552 0
M  V30 4972 H 464.715 1.60928 -1.01006 0
M  V30 4973 H 462.865 3.88494 -0.0213741 0
M  V30 4974 H 464.537 3.79026 -2.62939 0
M  V30 4975 H 462.78 3.52429 -2.52936 0
M  V30 4976 H 463.451 5.10234 -2.1063 0
M  V30 4977 H 465.927 4.13786 -0.438179 0
M  V30 4978 H 464.803 5.48735 -0.134477 0
M  V30 4979 H 465.064 4.2786 1.11303 0
M  V30 4980 N 464.123 0.554532 1.47522 0
M  V30 4981 C 465.073 -0.215008 2.26984 0
M  V30 4982 C 466.057 -0.88774 1.34194 0
M  V30 4983 O 467.249 -0.786489 1.58567 0
M  V30 4984 C 464.378 -1.24604 3.19889 0
M  V30 4985 C 463.464 -0.576857 4.20159 0
M  V30 4986 N 463.855 0.351541 5.04577 0
M  V30 4987 C 462.153 -0.831104 4.38188 0
M  V30 4988 C 462.854 0.739995 5.76974 0
M  V30 4989 N 461.83 0.0954407 5.43516 0
M  V30 4990 H 465.632 0.498843 2.89636 0
M  V30 4991 H 463.146 0.374279 1.58028 0
M  V30 4992 H 465.143 -1.81128 3.75498 0
M  V30 4993 H 463.803 -1.96101 2.58794 0
M  V30 4994 H 464.814 0.725556 5.12792 0
M  V30 4995 H 461.491 -1.53479 3.88266 0
M  V30 4996 H 462.881 1.50271 6.5488 0
M  V30 4997 N 465.601 -1.54893 0.290851 0
M  V30 4998 C 466.85 -1.99111 -0.322113 0
M  V30 4999 C 467.163 -1.18283 -1.55784 0
M  V30 5000 O 468.369 -1.5272 -2.24475 0
M  V30 5001 C 466.825 -3.54442 -0.624438 0
M  V30 5002 C 466.433 -4.44066 0.592373 0
M  V30 5003 C 468.177 -4.07211 -1.19916 0
M  V30 5004 C 466.084 -5.90812 0.263762 0
M  V30 5005 H 465.014 -0.743712 -0.124133 0
M  V30 5006 H 467.665 -1.79132 0.39797 0
M  V30 5007 H 466.047 -3.70281 -1.40384 0
M  V30 5008 H 467.221 -4.39999 1.36886 0
M  V30 5009 H 465.536 -4.02015 1.08502 0
M  V30 5010 H 468.133 -5.14407 -1.45909 0
M  V30 5011 H 468.476 -3.57196 -2.13815 0
M  V30 5012 H 469.009 -3.94873 -0.481687 0
M  V30 5013 H 465.748 -6.44955 1.17105 0
M  V30 5014 H 465.268 -5.97911 -0.475655 0
M  V30 5015 H 466.947 -6.46852 -0.138354 0
M  V30 5016 N 467.08 -0.0183926 -1.57589 0
M  V30 5017 C 468.028 0.985111 -2.10709 0
M  V30 5018 C 469.022 1.34397 -1.0312 0
M  V30 5019 O 470.228 1.32746 -1.21567 0
M  V30 5020 H 466.603 0.335418 -0.673052 0
M  V30 5021 H 468.574 0.511689 -2.9398 0
M  V30 5022 C 467.323 2.26202 -2.64061 0
M  V30 5023 H 466.646 1.9946 -3.4649 0
M  V30 5024 H 468.086 2.94652 -3.04887 0
M  V30 5025 C 466.545 2.98444 -1.5631 0
M  V30 5026 O 467.075 3.90142 -0.956674 0
M  V30 5027 N 465.281 2.6059 -1.28612 0
M  V30 5028 H 464.828 1.86101 -1.78112 0
M  V30 5029 H 464.786 3.09238 -0.567406 0
M  V30 5030 N 468.558 1.5553 0.254621 0
M  V30 5031 C 469.508 1.86057 1.31783 0
M  V30 5032 C 470.492 0.720827 1.4385 0
M  V30 5033 O 471.684 0.982586 1.47222 0
M  V30 5034 C 468.813 2.15203 2.67475 0
M  V30 5035 C 467.899 3.35484 2.59444 0
M  V30 5036 N 468.29 4.54945 2.2104 0
M  V30 5037 C 466.588 3.38441 2.90472 0
M  V30 5038 C 467.289 5.3707 2.23453 0
M  V30 5039 N 466.265 4.75936 2.62652 0
M  V30 5040 H 470.067 2.75953 1.01129 0
M  V30 5041 H 467.581 1.55653 0.463255 0
M  V30 5042 H 469.578 2.35235 3.44195 0
M  V30 5043 H 468.238 1.26601 2.99002 0
M  V30 5044 H 469.249 4.8071 1.92712 0
M  V30 5045 H 465.926 2.60087 3.2659 0
M  V30 5046 H 467.316 6.42626 1.96166 0
M  V30 5047 N 470.036 -0.519951 1.48776 0
M  V30 5048 C 470.986 -1.61995 1.60442 0
M  V30 5049 C 471.97 -1.54155 0.460991 0
M  V30 5050 O 473.162 -1.62006 0.712965 0
M  V30 5051 C 470.291 -3.00683 1.65664 0
M  V30 5052 C 469.377 -3.1359 2.8552 0
M  V30 5053 N 469.768 -2.96441 4.09825 0
M  V30 5054 C 468.066 -3.44662 2.83062 0
M  V30 5055 C 468.767 -3.1303 4.90293 0
M  V30 5056 N 467.743 -3.41058 4.23297 0
M  V30 5057 H 471.545 -1.47362 2.54287 0
M  V30 5058 H 469.059 -0.725649 1.45286 0
M  V30 5059 H 471.056 -3.79712 1.72117 0
M  V30 5060 H 469.716 -3.16401 0.729425 0
M  V30 5061 H 470.727 -2.72999 4.40104 0
M  V30 5062 H 467.404 -3.66675 1.9964 0
M  V30 5063 H 468.794 -3.04424 5.98979 0
M  V30 5064 N 471.514 -1.37532 -0.769588 0
M  V30 5065 C 472.461 -1.3347 -1.88293 0
M  V30 5066 C 473.431 -0.199891 -1.64893 0
M  V30 5067 O 474.616 -0.389594 -1.8678 0
M  V30 5068 C 471.756 -1.14968 -3.25387 0
M  V30 5069 C 470.869 -2.37698 -3.60727 0
M  V30 5070 C 470.004 -2.12051 -4.8704 0
M  V30 5071 C 469.043 -3.30636 -5.15117 0
M  V30 5072 N 468.18 -3.04527 -6.3262 0
M  V30 5073 H 473.02 -2.28658 -1.911 0
M  V30 5074 H 470.557 -1.13622 -0.934257 0
M  V30 5075 H 472.515 -1.02261 -4.04473 0
M  V30 5076 H 471.145 -0.234263 -3.21949 0
M  V30 5077 H 470.197 -2.61137 -2.76608 0
M  V30 5078 H 471.509 -3.26131 -3.77413 0
M  V30 5079 H 470.663 -1.96388 -5.74035 0
M  V30 5080 H 469.402 -1.20959 -4.72462 0
M  V30 5081 H 468.407 -3.46836 -4.26597 0
M  V30 5082 H 469.632 -4.22582 -5.31603 0
M  V30 5083 H 467.578 -2.16067 -6.19396 0
M  V30 5084 H 467.495 -3.86503 -6.49732 0
M  V30 5085 H 468.763 -2.92485 -7.22546 0
M  V30 5086 N 472.992 0.995999 -1.22138 0
M  V30 5087 C 473.924 2.08745 -0.946485 0
M  V30 5088 C 474.937 1.62633 0.0737356 0
M  V30 5089 O 476.126 1.77782 -0.159886 0
M  V30 5090 C 473.226 3.36516 -0.401305 0
M  V30 5091 C 472.399 4.11672 -1.47801 0
M  V30 5092 C 471.458 5.17728 -0.940461 0
M  V30 5093 O 470.484 5.45482 -1.62596 0
M  V30 5094 N 471.686 5.80005 0.239723 0
M  V30 5095 H 474.451 2.32908 -1.88611 0
M  V30 5096 H 472.012 1.16152 -1.12785 0
M  V30 5097 H 474.004 4.04691 -0.0270837 0
M  V30 5098 H 472.574 3.0944 0.443354 0
M  V30 5099 H 471.794 3.38171 -2.02568 0
M  V30 5100 H 473.082 4.58657 -2.20253 0
M  V30 5101 H 472.48 5.5982 0.813518 0
M  V30 5102 H 471.037 6.4943 0.555361 0
M  V30 5103 N 474.47 1.03057 1.19235 0
M  V30 5104 C 475.71 0.736757 1.9066 0
M  V30 5105 C 476.074 -0.721521 1.77927 0
M  V30 5106 O 477.275 -1.12849 2.43964 0
M  V30 5107 C 475.546 1.17755 3.37444 0
M  V30 5108 S 477.105 1.00783 4.27069 0
M  V30 5109 H 473.923 0.268174 0.658486 0
M  V30 5110 H 476.525 1.32076 1.4414 0
M  V30 5111 H 475.229 2.23448 3.44237 0
M  V30 5112 H 474.76 0.586912 3.88997 0
M  V30 5113 H 476.775 -0.0806356 4.96134 0
M  V30 5114 N 475.948 -1.35272 0.808662 0
M  V30 5115 C 477.225 -1.93077 0.313181 0
M  V30 5116 C 477.605 -1.73847 -1.19752 0
M  V30 5117 O 476.953 -1.1087 -1.998 0
M  V30 5118 C 477.163 -3.41347 0.726859 0
M  V30 5119 C 478.511 -4.18493 0.717532 0
M  V30 5120 O 479.535 -3.4987 0.668535 0
M  V30 5121 O 478.394 -5.40937 0.777779 0
M  V30 5122 H 475.488 -0.822885 0.0824018 0
M  V30 5123 H 478.034 -1.44335 0.892499 0
M  V30 5124 H 476.806 -3.49082 1.76797 0
M  V30 5125 H 476.429 -3.97411 0.122461 0
M  V30 5126 N 477.426 -0.562348 -1.47226 0
M  V30 5127 C 478.336 0.185466 -2.33866 0
M  V30 5128 C 479.352 0.906713 -1.48508 0
M  V30 5129 O 480.528 0.874458 -1.81425 0
M  V30 5130 C 477.593 1.19904 -3.25306 0
M  V30 5131 C 476.654 0.484669 -4.26555 0
M  V30 5132 C 475.887 1.44996 -5.13626 0
M  V30 5133 O 476.11 2.68515 -5.03245 0
M  V30 5134 O 475.044 0.971642 -5.94006 0
M  V30 5135 H 478.87 -0.525361 -2.99121 0
M  V30 5136 H 476.455 -0.322916 -1.45868 0
M  V30 5137 H 478.337 1.78399 -3.81774 0
M  V30 5138 H 477.012 1.8917 -2.62672 0
M  V30 5139 H 475.919 -0.141605 -3.73832 0
M  V30 5140 H 477.252 -0.166634 -4.91918 0
M  V30 5141 N 478.904 1.54736 -0.299062 0
M  V30 5142 C 480.151 2.00101 0.310784 0
M  V30 5143 C 480.479 1.18746 1.54045 0
M  V30 5144 O 479.734 0.251198 1.94081 0
M  V30 5145 C 480.033 3.50199 0.713835 0
M  V30 5146 C 479.699 4.48997 -0.413873 0
M  V30 5147 C 478.361 4.7573 -0.723462 0
M  V30 5148 C 480.713 5.07839 -1.17257 0
M  V30 5149 C 478.041 5.5857 -1.79491 0
M  V30 5150 C 480.393 5.91844 -2.23392 0
M  V30 5151 C 479.057 6.16889 -2.54959 0
M  V30 5152 H 478.327 0.732221 0.113724 0
M  V30 5153 H 480.974 1.86888 -0.417756 0
M  V30 5154 H 479.279 3.61012 1.52243 0
M  V30 5155 H 480.976 3.82723 1.19684 0
M  V30 5156 H 477.566 4.28292 -0.162476 0
M  V30 5157 H 481.75 4.87188 -0.946651 0
M  V30 5158 H 477.006 5.76213 -2.04423 0
M  V30 5159 H 481.18 6.36465 -2.8264 0
M  V30 5160 H 478.807 6.80869 -3.38114 0
M  V30 5161 N 480.382 0.0267497 1.57577 0
M  V30 5162 C 481.612 -0.6617 1.95717 0
M  V30 5163 C 482.02 -1.66331 0.901706 0
M  V30 5164 O 481.363 -1.83273 -0.125241 0
M  V30 5165 C 481.425 -1.42649 3.29987 0
M  V30 5166 C 481.089 -0.583482 4.5326 0
M  V30 5167 C 482.086 0.140221 5.19711 0
M  V30 5168 C 479.771 -0.521581 4.99585 0
M  V30 5169 C 481.765 0.914523 6.30805 0
M  V30 5170 C 479.452 0.256428 6.10562 0
M  V30 5171 C 480.45 0.973189 6.76031 0
M  V30 5172 O 480.138 1.73845 7.84878 0
M  V30 5173 H 479.87 -0.187483 0.649481 0
M  V30 5174 H 482.424 0.0820847 2.05236 0
M  V30 5175 H 480.654 -2.21536 3.16952 0
M  V30 5176 H 482.343 -2.00282 3.53047 0
M  V30 5177 H 483.109 0.101716 4.84893 0
M  V30 5178 H 478.988 -1.06904 4.48433 0
M  V30 5179 H 482.532 1.4745 6.81839 0
M  V30 5180 H 478.429 0.296657 6.44818 0
M  V30 5181 H 479.197 1.65797 8.01532 0
M  V30 5182 N 481.861 -1.55662 -0.24637 0
M  V30 5183 C 483.11 -1.7672 -0.972254 0
M  V30 5184 C 483.423 -0.59078 -1.86465 0
M  V30 5185 O 484.629 -0.684391 -2.62732 0
M  V30 5186 C 483.085 -3.12869 -1.7788 0
M  V30 5187 C 482.693 -4.38161 -0.933768 0
M  V30 5188 C 484.437 -3.43265 -2.49738 0
M  V30 5189 C 482.344 -5.6534 -1.73623 0
M  V30 5190 H 481.274 -0.658795 -0.366749 0
M  V30 5191 H 483.925 -1.82092 -0.226902 0
M  V30 5192 H 482.307 -3.01606 -2.56612 0
M  V30 5193 H 483.481 -4.60413 -0.188736 0
M  V30 5194 H 481.796 -4.15102 -0.328488 0
M  V30 5195 H 484.393 -4.35501 -3.10231 0
M  V30 5196 H 484.736 -2.64614 -3.2138 0
M  V30 5197 H 485.269 -3.55746 -1.78016 0
M  V30 5198 H 482.008 -6.46814 -1.06354 0
M  V30 5199 H 481.528 -5.47188 -2.45653 0
M  V30 5200 H 483.207 -6.04616 -2.30323 0
M  V30 5201 N 483.339 0.512053 -1.4905 0
M  V30 5202 C 484.286 1.6148 -1.64902 0
M  V30 5203 C 485.256 1.58687 -0.490673 0
M  V30 5204 O 486.441 1.76842 -0.71636 0
M  V30 5205 C 483.581 2.99676 -1.71139 0
M  V30 5206 C 482.694 3.12568 -2.98203 0
M  V30 5207 C 481.829 4.4143 -2.95487 0
M  V30 5208 C 480.868 4.47916 -4.17179 0
M  V30 5209 N 480.005 5.68191 -4.12437 0
M  V30 5210 H 484.845 1.47271 -2.59066 0
M  V30 5211 H 482.382 0.716713 -1.28459 0
M  V30 5212 H 484.34 3.79761 -1.72736 0
M  V30 5213 H 482.97 3.12614 -0.804508 0
M  V30 5214 H 482.022 2.25618 -3.06269 0
M  V30 5215 H 483.334 3.1322 -3.88194 0
M  V30 5216 H 482.488 5.29825 -2.95585 0
M  V30 5217 H 481.227 4.43326 -2.03256 0
M  V30 5218 H 480.232 3.57925 -4.17337 0
M  V30 5219 H 481.457 4.47744 -5.1059 0
M  V30 5220 H 479.403 5.7095 -3.23036 0
M  V30 5221 H 479.32 5.70413 -4.96151 0
M  V30 5222 H 480.588 6.58823 -4.16621 0
M  V30 5223 N 484.817 1.37938 0.762283 0
M  V30 5224 C 485.767 1.30976 1.86626 0
M  V30 5225 C 486.751 0.195714 1.59705 0
M  V30 5226 O 487.943 0.430937 1.71674 0
M  V30 5227 C 485.072 1.12847 3.24223 0
M  V30 5228 C 484.158 2.28836 3.57064 0
M  V30 5229 N 484.549 3.54256 3.61022 0
M  V30 5230 C 482.847 2.21198 3.87282 0
M  V30 5231 C 483.548 4.30798 3.90881 0
M  V30 5232 N 482.524 3.60049 4.07266 0
M  V30 5233 H 486.326 2.25946 1.87951 0
M  V30 5234 H 483.84 1.31046 0.959206 0
M  V30 5235 H 485.837 1.05943 4.03214 0
M  V30 5236 H 484.497 0.188024 3.24155 0
M  V30 5237 H 485.508 3.8804 3.42995 0
M  V30 5238 H 482.185 1.35264 3.94981 0
M  V30 5239 H 483.575 5.39386 4.00639 0
M  V30 5240 N 486.295 -0.989507 1.22664 0
M  V30 5241 C 487.711 -1.25395 0.987331 0
M  V30 5242 C 487.911 -1.9899 -0.317056 0
M  V30 5243 O 486.967 -2.30141 -1.03882 0
M  V30 5244 C 488.28 -2.06242 2.18826 0
M  V30 5245 C 489.828 -2.19413 2.23219 0
M  V30 5246 C 490.303 -3.03648 3.42873 0
M  V30 5247 N 491.794 -3.11234 3.43056 0
M  V30 5248 C 492.529 -3.7671 4.32293 0
M  V30 5249 N 492.025 -4.44085 5.31752 0
M  V30 5250 N 493.818 -3.73505 4.2006 0
M  V30 5251 H 485.969 -0.496212 2.06522 0
M  V30 5252 H 488.232 -0.281784 0.905153 0
M  V30 5253 H 487.938 -1.59531 3.13437 0
M  V30 5254 H 487.812 -3.06996 2.19165 0
M  V30 5255 H 490.199 -2.65336 1.29154 0
M  V30 5256 H 490.28 -1.18078 2.26917 0
M  V30 5257 H 489.924 -2.58424 4.37241 0
M  V30 5258 H 489.854 -4.05132 3.36416 0
M  V30 5259 H 492.345 -2.63287 2.71088 0
M  V30 5260 H 492.658 -4.91797 5.96117 0
M  V30 5261 H 491.003 -4.42822 5.35662 0
M  V30 5262 H 494.194 -3.20033 3.41609 0
M  V30 5263 H 494.367 -4.24253 4.8981 0
M  V30 5264 O 487.812 -1.16279 -1.12078 0
M  V30 5265 H 488.503 -0.894109 -1.7183 0
M  V30 END ATOM
M  V30 BEGIN BOND
M  V30 END BOND
M  V30 END CTAB
M  END
$$$$
