drugbank_target|P07650 Thymidine phosphorylase (DB03462)
 OpenBabel12092120033D

  0  0  0     0  0            999 V3000
M  V30 BEGIN CTAB
M  V30 COUNTS 6638 6687 0 0 0
M  V30 BEGIN ATOM
M  V30 1 H -0.908 1.98254 -0.117106 0
M  V30 2 N 0 1.576 0 0
M  V30 3 C 0.933 2.03868 1.02534 0
M  V30 4 C 1.911 0.928543 1.3348 0
M  V30 5 O 3.095 1.19667 1.45644 0
M  V30 6 C 0.222 2.43627 2.35294 0
M  V30 7 C -0.732 3.65373 2.2001 0
M  V30 8 S 0.101 5.13292 1.52614 0
M  V30 9 C 1.257 5.56322 2.86805 0
M  V30 10 H 1.49 2.90518 0.631377 0
M  V30 11 H -0.977 1.52953 0.210867 0
M  V30 12 H 0.981 2.67203 3.11629 0
M  V30 13 H -0.358 1.57376 2.7183 0
M  V30 14 H -1.165 3.90944 3.18086 0
M  V30 15 H -1.563 3.418 1.51819 0
M  V30 16 H 0.729 5.58782 3.83104 0
M  V30 17 H 1.672 6.56266 2.65933 0
M  V30 18 H 2.08 4.83886 2.90714 0
M  V30 19 N 1.4781 -0.272755 1.55222 0
M  V30 20 C 2.7251 -1.00433 1.7584 0
M  V30 21 C 3.0531 -1.86275 0.559629 0
M  V30 22 O 2.3081 -1.90269 -0.457857 0
M  V30 23 C 2.6071 -1.91642 3.01675 0
M  V30 24 C 2.2731 -1.21548 4.34208 0
M  V30 25 C 0.9351 -1.02166 4.70229 0
M  V30 26 C 3.2871 -0.716684 5.16249 0
M  V30 27 C 0.6151 -0.316334 5.85847 0
M  V30 28 C 2.9671 -0.0249476 6.32595 0
M  V30 29 C 1.6311 0.180579 6.67256 0
M  V30 30 H 0.9011 -0.367509 0.643443 0
M  V30 31 H 3.5481 -0.276596 1.89492 0
M  V30 32 H 1.8531 -2.71037 2.82924 0
M  V30 33 H 3.5501 -2.48369 3.14824 0
M  V30 34 H 0.1401 -1.37645 4.05896 0
M  V30 35 H 4.3241 -0.854047 4.88896 0
M  V30 36 H -0.4199 -0.146378 6.11225 0
M  V30 37 H 3.7541 0.369311 6.9542 0
M  V30 38 H 1.3811 0.729098 7.56696 0
M  V30 39 N 2.9562 -1.48159 -0.537278 0
M  V30 40 C 3.8862 -1.65029 -1.6519 0
M  V30 41 C 4.8672 -0.499281 -1.62607 0
M  V30 42 O 6.0522 -0.730972 -1.79918 0
M  V30 43 C 3.1822 -1.68303 -3.03795 0
M  V30 44 C 2.1362 -2.8283 -3.21234 0
M  V30 45 C 1.4622 -2.71189 -4.60826 0
M  V30 46 C 2.7622 -4.24211 -3.04701 0
M  V30 47 H 4.4562 -2.58341 -1.51328 0
M  V30 48 H 2.0022 -1.24325 -0.726585 0
M  V30 49 H 3.9552 -1.78693 -3.81637 0
M  V30 50 H 2.6792 -0.715635 -3.18663 0
M  V30 51 H 1.3382 -2.71983 -2.45807 0
M  V30 52 H 0.9862 -1.72435 -4.7252 0
M  V30 53 H 0.6862 -3.48035 -4.7344 0
M  V30 54 H 2.2102 -2.83537 -5.40777 0
M  V30 55 H 3.6242 -4.3593 -3.72341 0
M  V30 56 H 2.0212 -5.01998 -3.28813 0
M  V30 57 H 3.0912 -4.41184 -2.01209 0
M  V30 58 N 4.4343 0.785586 -1.36625 0
M  V30 59 C 5.3973 1.87999 -1.31107 0
M  V30 60 C 6.3973 1.59316 -0.217959 0
M  V30 61 O 7.5873 1.67656 -0.472977 0
M  V30 62 C 4.7193 3.24861 -1.03334 0
M  V30 63 H 5.9123 1.94307 -2.2844 0
M  V30 64 H 3.4653 0.983813 -1.21453 0
M  V30 65 H 4.2003 3.24235 -0.0647432 0
M  V30 66 H 3.9853 3.4707 -1.82441 0
M  V30 67 H 5.4753 4.04929 -1.02088 0
M  V30 68 N 5.9124 1.20967 1.01018 0
M  V30 69 C 6.8444 0.922059 2.09835 0
M  V30 70 C 7.8574 -0.0927106 1.62536 0
M  V30 71 O 9.0464 0.139127 1.77957 0
M  V30 72 C 6.1464 0.362004 3.36961 0
M  V30 73 C 5.3194 1.42986 4.13369 0
M  V30 74 C 4.3784 0.879976 5.1879 0
M  V30 75 O 3.4044 1.56219 5.47343 0
M  V30 76 N 4.6064 -0.307396 5.79686 0
M  V30 77 H 7.3714 1.8588 2.35093 0
M  V30 78 H 4.9324 1.11422 1.1746 0
M  V30 79 H 6.9244 -0.0201474 4.04695 0
M  V30 80 H 5.4944 -0.479437 3.08902 0
M  V30 81 H 4.7144 1.98608 3.40512 0
M  V30 82 H 6.0024 2.14885 4.61196 0
M  V30 83 H 5.4004 -0.878796 5.58832 0
M  V30 84 H 3.9574 -0.631115 6.48737 0
M  V30 85 N 7.3905 -1.2043 1.01659 0
M  V30 86 C 8.3005 -2.2689 0.596484 0
M  V30 87 C 9.3165 -1.70107 -0.36599 0
M  V30 88 O 10.4925 -2.00117 -0.226942 0
M  V30 89 C 7.5575 -3.4665 -0.0586659 0
M  V30 90 C 6.6185 -4.18662 0.949751 0
M  V30 91 C 5.8515 -5.32705 0.32577 0
M  V30 92 O 6.0745 -5.63656 -0.874509 0
M  V30 93 O 5.0085 -5.92803 1.04249 0
M  V30 94 H 8.8345 -2.65041 1.4828 0
M  V30 95 H 6.4195 -1.27048 0.786082 0
M  V30 96 H 8.3015 -4.19256 -0.424564 0
M  V30 97 H 6.9765 -3.10375 -0.91918 0
M  V30 98 H 5.8835 -3.48229 1.36702 0
M  V30 99 H 7.2165 -4.58878 1.78023 0
M  V30 100 N 8.8686 -0.792821 -1.36206 0
M  V30 101 C 10.1176 -0.363353 -1.984 0
M  V30 102 C 10.4306 1.07172 -1.63626 0
M  V30 103 O 11.6366 1.60362 -2.19081 0
M  V30 104 C 10.0926 -0.59872 -3.54885 0
M  V30 105 C 9.7006 -2.04543 -3.9858 0
M  V30 106 C 11.4446 -0.233926 -4.23855 0
M  V30 107 C 9.3516 -2.22727 -5.47856 0
M  V30 108 H 8.2816 -0.13212 -0.742334 0
M  V30 109 H 10.9326 -0.974935 -1.55458 0
M  V30 110 H 9.3146 0.0826222 -3.95914 0
M  V30 111 H 10.4886 -2.76345 -3.68741 0
M  V30 112 H 8.8036 -2.36879 -3.42458 0
M  V30 113 H 11.4006 -0.348027 -5.33566 0
M  V30 114 H 11.7436 0.818351 -4.08177 0
M  V30 115 H 12.2766 -0.868639 -3.882 0
M  V30 116 H 9.0156 -3.2635 -5.68486 0
M  V30 117 H 8.5356 -1.55434 -5.7931 0
M  V30 118 H 10.2146 -2.03607 -6.14128 0
M  V30 119 N 10.3467 1.47872 -0.545128 0
M  V30 120 C 11.5957 2.01695 -0.0145033 0
M  V30 121 C 11.9087 1.42609 1.33873 0
M  V30 122 O 13.1147 1.88021 1.95858 0
M  V30 123 C 11.5707 3.59892 0.0245068 0
M  V30 124 C 11.1787 4.27966 -1.32475 0
M  V30 125 C 12.9227 4.21507 0.50316 0
M  V30 126 C 10.8297 5.78136 -1.2455 0
M  V30 127 H 9.7597 0.753998 -0.00165172 0
M  V30 128 H 12.4107 1.69985 -0.691175 0
M  V30 129 H 10.7927 3.88509 0.766575 0
M  V30 130 H 11.9667 4.11003 -2.08357 0
M  V30 131 H 10.2817 3.78286 -1.74036 0
M  V30 132 H 12.8787 5.31538 0.580656 0
M  V30 133 H 13.2217 3.87855 1.51243 0
M  V30 134 H 13.7547 3.97376 -0.183681 0
M  V30 135 H 10.4937 6.16388 -2.23039 0
M  V30 136 H 10.0137 5.97469 -0.528282 0
M  V30 137 H 11.6927 6.40099 -0.942488 0
M  V30 138 N 11.8248 0.280983 1.55075 0
M  V30 139 C 13.2408 -0.0729964 1.59433 0
M  V30 140 C 13.4408 -1.5411 1.29817 0
M  V30 141 O 12.4968 -2.29086 1.06187 0
M  V30 142 C 13.8098 0.306921 2.9913 0
M  V30 143 C 15.3578 0.254023 3.11968 0
M  V30 144 C 15.8328 0.608467 4.5394 0
M  V30 145 N 17.3238 0.560241 4.59799 0
M  V30 146 C 18.0588 0.80722 5.6769 0
M  V30 147 N 17.5548 1.11912 6.83701 0
M  V30 148 N 19.3478 0.735623 5.57266 0
M  V30 149 H 11.4988 1.238 1.7259 0
M  V30 150 H 13.7618 0.500547 0.805082 0
M  V30 151 H 13.4678 1.32816 3.25657 0
M  V30 152 H 13.3418 -0.349363 3.75579 0
M  V30 153 H 15.7288 -0.75794 2.852 0
M  V30 154 H 15.8098 0.944649 2.37718 0
M  V30 155 H 15.4538 1.61814 4.81434 0
M  V30 156 H 15.3838 -0.104013 5.26497 0
M  V30 157 H 17.8748 0.329288 3.76463 0
M  V30 158 H 18.1878 1.29409 7.61888 0
M  V30 159 H 16.5328 1.15695 6.85303 0
M  V30 160 H 19.7238 0.491752 4.6551 0
M  V30 161 H 19.8968 0.931482 6.4127 0
M  V30 162 N 13.3029 -1.57598 0.00835791 0
M  V30 163 C 14.2499 -2.08945 -0.980346 0
M  V30 164 C 15.2199 -0.986738 -1.33614 0
M  V30 165 O 16.4049 -1.25968 -1.43306 0
M  V30 166 C 13.5449 -2.60425 -2.26435 0
M  V30 167 C 12.6579 -3.84628 -1.96685 0
M  V30 168 C 11.7929 -4.24579 -3.19228 0
M  V30 169 C 10.8319 -5.41596 -2.85202 0
M  V30 170 N 9.9689 -5.768 -4.00307 0
M  V30 171 H 14.8089 -2.93148 -0.535551 0
M  V30 172 H 12.3459 -1.44912 -0.252776 0
M  V30 173 H 14.3039 -2.88354 -3.01509 0
M  V30 174 H 12.9339 -1.79083 -2.68568 0
M  V30 175 H 11.9859 -3.63556 -1.11942 0
M  V30 176 H 13.2979 -4.69796 -1.67611 0
M  V30 177 H 12.4519 -4.53834 -4.02641 0
M  V30 178 H 11.1909 -3.38137 -3.51447 0
M  V30 179 H 10.1959 -5.12056 -2.00198 0
M  V30 180 H 11.4209 -6.29721 -2.54222 0
M  V30 181 H 9.3669 -4.93316 -4.32407 0
M  V30 182 H 9.2839 -6.5656 -3.74786 0
M  V30 183 H 10.5519 -6.10652 -4.84484 0
M  V30 184 N 14.781 0.264519 -1.55364 0
M  V30 185 C 15.728 1.32717 -1.88825 0
M  V30 186 C 16.698 1.48675 -0.740605 0
M  V30 187 O 17.883 1.62945 -0.992657 0
M  V30 188 C 15.023 2.68089 -2.17307 0
M  V30 189 C 14.136 2.60284 -3.44785 0
M  V30 190 C 13.271 3.87892 -3.62924 0
M  V30 191 C 12.31 3.74631 -4.84064 0
M  V30 192 N 11.447 4.94092 -4.98816 0
M  V30 193 H 16.287 1.03481 -2.79456 0
M  V30 194 H 13.824 0.499757 -1.3835 0
M  V30 195 H 15.782 3.46864 -2.31821 0
M  V30 196 H 14.412 2.95509 -1.299 0
M  V30 197 H 13.464 1.73173 -3.38697 0
M  V30 198 H 14.776 2.46388 -4.33698 0
M  V30 199 H 13.93 4.75109 -3.77302 0
M  V30 200 H 12.669 4.04664 -2.7221 0
M  V30 201 H 11.674 2.85797 -4.69681 0
M  V30 202 H 12.899 3.5937 -5.76221 0
M  V30 203 H 10.845 5.11259 -4.11036 0
M  V30 204 H 10.762 4.8276 -5.81789 0
M  V30 205 H 12.03 5.82857 -5.17588 0
M  V30 206 N 16.2591 1.48442 0.529413 0
M  V30 207 C 17.6751 1.34575 0.858004 0
M  V30 208 C 17.8751 0.3572 1.98309 0
M  V30 209 O 16.9311 -0.221379 2.51528 0
M  V30 210 C 18.2441 2.74617 1.22499 0
M  V30 211 C 19.7921 2.83109 1.33484 0
M  V30 212 C 20.2671 4.23854 1.73526 0
M  V30 213 N 21.7581 4.2653 1.80628 0
M  V30 214 C 22.4931 5.32372 2.12997 0
M  V30 215 N 21.9891 6.48491 2.43786 0
M  V30 216 N 23.7821 5.19766 2.14008 0
M  V30 217 H 15.9331 2.1133 -0.212925 0
M  V30 218 H 18.1961 0.947439 -0.0326199 0
M  V30 219 H 17.9021 3.4852 0.471905 0
M  V30 220 H 17.7761 3.08177 2.17501 0
M  V30 221 H 20.1631 2.09462 2.0787 0
M  V30 222 H 20.2441 2.53168 0.366027 0
M  V30 223 H 19.8881 4.98018 0.997013 0
M  V30 224 H 19.8181 4.5124 2.71459 0
M  V30 225 H 22.3091 3.42772 1.59108 0
M  V30 226 H 22.6221 7.24993 2.67592 0
M  V30 227 H 20.9671 6.51765 2.41304 0
M  V30 228 H 24.1581 4.28066 1.89412 0
M  V30 229 H 24.3311 6.02354 2.38902 0
M  V30 230 N 17.7372 -0.778329 1.37039 0
M  V30 231 C 19.0142 -1.52551 1.22424 0
M  V30 232 C 19.3942 -2.10288 -0.184964 0
M  V30 233 O 18.7422 -1.94953 -1.19187 0
M  V30 234 C 18.9522 -2.61164 2.31504 0
M  V30 235 C 20.3002 -3.28746 2.68721 0
M  V30 236 O 21.3242 -2.71455 2.30631 0
M  V30 237 O 20.1832 -4.3231 3.3432 0
M  V30 238 H 17.2772 -0.675343 0.477326 0
M  V30 239 H 19.8232 -0.815859 1.48801 0
M  V30 240 H 18.5952 -2.16574 3.25901 0
M  V30 241 H 18.2182 -3.39737 2.06554 0
M  V30 242 N 19.2153 -1.21501 -1.00376 0
M  V30 243 C 20.4633 -1.03095 -1.73827 0
M  V30 244 C 20.7843 0.436341 -1.90055 0
M  V30 245 O 20.0543 1.31466 -1.45236 0
M  V30 246 H 18.6343 -0.378487 -0.644016 0
M  V30 247 H 21.2963 -1.52831 -1.20949 0
M  V30 248 H 20.3923 -1.49991 -2.73695 0
M  V30 249 N 20.6934 1.19889 -1.02296 0
M  V30 250 C 21.6434 2.20777 -0.56934 0
M  V30 251 C 22.6274 1.56379 0.378741 0
M  V30 252 O 23.8194 1.75859 0.200673 0
M  V30 253 C 20.9484 3.43196 0.0845077 0
M  V30 254 C 20.0344 4.14749 -0.88566 0
M  V30 255 N 20.4254 4.62584 -2.04573 0
M  V30 256 C 18.7234 4.40347 -0.707835 0
M  V30 257 C 19.4244 5.17466 -2.65714 0
M  V30 258 N 18.4004 5.0791 -1.93723 0
M  V30 259 H 22.2024 2.55434 -1.45365 0
M  V30 260 H 19.7164 1.35897 -0.88915 0
M  V30 261 H 21.7134 4.14707 0.427067 0
M  V30 262 H 20.3734 3.10042 0.964574 0
M  V30 263 H 21.3844 4.57597 -2.4254 0
M  V30 264 H 18.0614 4.17317 0.12364 0
M  V30 265 H 19.4514 5.64808 -3.63925 0
M  V30 266 N 22.1715 0.800033 1.35784 0
M  V30 267 C 23.1345 0.211565 2.28221 0
M  V30 268 C 24.1345 -0.59728 1.49296 0
M  V30 269 O 25.3245 -0.416721 1.69142 0
M  V30 270 C 22.4565 -0.705846 3.33513 0
M  V30 271 H 23.6495 1.02677 2.81776 0
M  V30 272 H 21.2025 0.570211 1.45528 0
M  V30 273 H 21.9375 -1.54498 2.85133 0
M  V30 274 H 21.7225 -0.127655 3.91892 0
M  V30 275 H 23.2125 -1.11211 4.02519 0
M  V30 276 N 23.6496 -1.47581 0.552962 0
M  V30 277 C 24.5796 -2.32762 -0.185451 0
M  V30 278 C 25.5606 -1.43527 -0.912905 0
M  V30 279 O 26.7456 -1.72388 -0.894201 0
M  V30 280 C 23.8756 -3.25219 -1.21859 0
M  V30 281 C 22.8296 -4.23661 -0.607864 0
M  V30 282 C 22.1556 -5.05413 -1.74533 0
M  V30 283 C 23.4556 -5.20481 0.435582 0
M  V30 284 H 25.1496 -2.94749 0.525684 0
M  V30 285 H 22.6956 -1.41738 0.254251 0
M  V30 286 H 24.6486 -3.8365 -1.7433 0
M  V30 287 H 23.3726 -2.61279 -1.95961 0
M  V30 288 H 22.0316 -3.66451 -0.104489 0
M  V30 289 H 21.6796 -4.3788 -2.47529 0
M  V30 290 H 21.3796 -5.72059 -1.34249 0
M  V30 291 H 22.9036 -5.66701 -2.27338 0
M  V30 292 H 24.3176 -5.733 -0.00290157 0
M  V30 293 H 22.7146 -5.95305 0.757067 0
M  V30 294 H 23.7846 -4.66217 1.33303 0
M  V30 295 N 25.1277 -0.289203 -1.54924 0
M  V30 296 C 26.3527 0.329299 -2.04769 0
M  V30 297 C 26.7777 1.4763 -1.16564 0
M  V30 298 O 26.1357 1.80527 -0.167186 0
M  V30 299 C 26.1837 0.774438 -3.52186 0
M  V30 300 O 25.2877 1.88038 -3.67036 0
M  V30 301 H 24.6287 0.0659259 -0.660719 0
M  V30 302 H 27.1587 -0.42761 -2.00082 0
M  V30 303 H 27.1687 1.06642 -3.93816 0
M  V30 304 H 25.8437 -0.0646707 -4.1585 0
M  V30 305 H 24.4207 1.58985 -3.3731 0
M  V30 306 N 26.6058 1.57591 -0.0167156 0
M  V30 307 C 27.8828 1.82547 0.702564 0
M  V30 308 C 28.2628 0.898018 1.91047 0
M  V30 309 O 27.6108 -0.0493456 2.28447 0
M  V30 310 C 27.8208 3.31459 1.09251 0
M  V30 311 C 29.1688 3.97622 1.48937 0
M  V30 312 O 30.1928 3.35881 1.18584 0
M  V30 313 O 29.0518 5.06415 2.05442 0
M  V30 314 H 26.1458 0.752268 0.343544 0
M  V30 315 H 28.6918 1.69644 -0.0434495 0
M  V30 316 H 27.4638 3.9061 0.23227 0
M  V30 317 H 27.0868 3.49422 1.89709 0
M  V30 318 N 28.0839 -0.256276 1.55502 0
M  V30 319 C 28.9939 -1.33882 1.92647 0
M  V30 320 C 30.0099 -1.53159 0.825727 0
M  V30 321 O 31.1859 -1.66963 1.12629 0
M  V30 322 C 28.2509 -2.6751 2.20543 0
M  V30 323 C 27.3119 -2.56836 3.43997 0
M  V30 324 C 26.5449 -3.84092 3.70553 0
M  V30 325 O 26.7679 -4.85545 2.99336 0
M  V30 326 O 25.7019 -3.83288 4.64084 0
M  V30 327 H 29.5279 -1.05374 2.84833 0
M  V30 328 H 27.1129 -0.456237 1.42263 0
M  V30 329 H 28.9949 -3.46492 2.39835 0
M  V30 330 H 27.6699 -2.9577 1.31536 0
M  V30 331 H 26.5769 -1.76172 3.30021 0
M  V30 332 H 27.9099 -2.33523 4.33275 0
M  V30 333 N 29.562 -1.4872 -0.521534 0
M  V30 334 C 30.472 -1.66569 -1.65203 0
M  V30 335 C 31.488 -0.548197 -1.65139 0
M  V30 336 O 32.664 -0.820339 -1.83936 0
M  V30 337 C 29.729 -1.70917 -3.01642 0
M  V30 338 C 28.79 -2.94356 -3.12495 0
M  V30 339 C 28.023 -2.98487 -4.42426 0
M  V30 340 O 28.246 -2.10786 -5.30024 0
M  V30 341 O 27.18 -3.90746 -4.57822 0
M  V30 342 H 31.006 -2.62298 -1.5308 0
M  V30 343 H 28.591 -1.3222 -0.695565 0
M  V30 344 H 30.473 -1.7625 -3.82771 0
M  V30 345 H 29.148 -0.783633 -3.14071 0
M  V30 346 H 28.055 -2.94552 -2.3063 0
M  V30 347 H 29.388 -3.86322 -3.04986 0
M  V30 348 N 31.0401 0.771051 -1.3745 0
M  V30 349 C 32.2891 1.52491 -1.3202 0
M  V30 350 C 32.6021 1.9538 0.0927347 0
M  V30 351 O 33.8081 2.70159 0.269503 0
M  V30 352 C 32.2641 2.75366 -2.31736 0
M  V30 353 C 31.8721 2.39573 -3.78562 0
M  V30 354 C 33.6161 3.53307 -2.35318 0
M  V30 355 C 31.5231 3.58954 -4.70007 0
M  V30 356 H 30.4531 0.572506 -0.490666 0
M  V30 357 H 33.1041 0.844474 -1.62914 0
M  V30 358 H 31.4861 3.45303 -1.93861 0
M  V30 359 H 32.6601 1.77415 -4.25277 0
M  V30 360 H 30.9751 1.74805 -3.77932 0
M  V30 361 H 33.5721 4.42039 -3.00842 0
M  V30 362 H 33.9151 3.93217 -1.36698 0
M  V30 363 H 34.4481 2.90367 -2.71904 0
M  V30 364 H 31.1871 3.24125 -5.69757 0
M  V30 365 H 30.7071 4.20214 -4.27996 0
M  V30 366 H 32.3861 4.25758 -4.87175 0
M  V30 367 N 32.5182 1.22032 0.997298 0
M  V30 368 C 33.9342 0.979326 1.26021 0
M  V30 369 C 34.1342 -0.32972 1.98784 0
M  V30 370 O 33.1902 -1.05345 2.29475 0
M  V30 371 C 34.5032 2.17509 2.07631 0
M  V30 372 C 36.0512 2.21817 2.2083 0
M  V30 373 C 36.5262 3.40933 3.05825 0
M  V30 374 N 38.0172 3.41067 3.13412 0
M  V30 375 C 38.7522 4.29885 3.79455 0
M  V30 376 N 38.2482 5.28914 4.47462 0
M  V30 377 N 40.0412 4.17673 3.76173 0
M  V30 378 H 32.1922 2.06202 0.509352 0
M  V30 379 H 34.4552 0.90334 0.287541 0
M  V30 380 H 34.1612 3.12415 1.61524 0
M  V30 381 H 34.0352 2.17206 3.08385 0
M  V30 382 H 36.4222 1.27462 2.66153 0
M  V30 383 H 36.5032 2.2616 1.1952 0
M  V30 384 H 36.1472 4.35586 2.61203 0
M  V30 385 H 36.0772 3.33829 4.07266 0
M  V30 386 H 38.5682 2.69406 2.65007 0
M  V30 387 H 38.8812 5.92973 4.95583 0
M  V30 388 H 37.2262 5.32831 4.46224 0
M  V30 389 H 40.4172 3.39564 3.22202 0
M  V30 390 H 40.5902 4.87098 4.27363 0
M  V30 391 N 33.9963 -1.19345 1.0293 0
M  V30 392 C 35.2433 -1.89038 0.726008 0
M  V30 393 C 35.5713 -1.79649 -0.745427 0
M  V30 394 O 34.8263 -1.18354 -1.55855 0
M  V30 395 C 35.1253 -3.39292 1.12319 0
M  V30 396 C 34.7913 -3.68885 2.59297 0
M  V30 397 C 33.4533 -3.76671 2.99453 0
M  V30 398 C 35.8053 -3.82178 3.54386 0
M  V30 399 C 33.1333 -3.9522 4.33611 0
M  V30 400 C 35.4853 -4.0224 4.88248 0
M  V30 401 C 34.1493 -4.08259 5.28092 0
M  V30 402 H 33.4193 -0.691739 0.265665 0
M  V30 403 H 36.0663 -1.41328 1.29223 0
M  V30 404 H 34.3713 -3.88903 0.475584 0
M  V30 405 H 36.0683 -3.91536 0.866037 0
M  V30 406 H 32.6583 -3.63433 2.27189 0
M  V30 407 H 36.8423 -3.75505 3.24514 0
M  V30 408 H 32.0983 -3.98119 4.64016 0
M  V30 409 H 36.2723 -4.11468 5.61843 0
M  V30 410 H 33.8993 -4.22384 6.32057 0
M  V30 411 N 35.4744 -0.807222 -1.35358 0
M  V30 412 C 36.7214 -0.387888 -1.9875 0
M  V30 413 C 37.0494 1.04509 -1.64037 0
M  V30 414 O 36.3044 1.73986 -0.895946 0
M  V30 415 C 36.6034 -0.519036 -3.53611 0
M  V30 416 C 36.2694 -1.91542 -4.08194 0
M  V30 417 C 34.9314 -2.29745 -4.22813 0
M  V30 418 C 37.2834 -2.82896 -4.37744 0
M  V30 419 C 34.6114 -3.58668 -4.643 0
M  V30 420 C 36.9634 -4.11265 -4.8067 0
M  V30 421 C 35.6274 -4.49466 -4.93494 0
M  V30 422 H 34.8974 -0.141938 -0.727279 0
M  V30 423 H 37.5444 -1.02814 -1.6156 0
M  V30 424 H 35.8494 0.204658 -3.91265 0
M  V30 425 H 37.5464 -0.175345 -4.00616 0
M  V30 426 H 34.1364 -1.60862 -3.97268 0
M  V30 427 H 38.3204 -2.54629 -4.26002 0
M  V30 428 H 33.5764 -3.88113 -4.72418 0
M  V30 429 H 37.7504 -4.82153 -5.02496 0
M  V30 430 H 35.3774 -5.49418 -5.25399 0
M  V30 431 N 36.9525 1.47285 -0.560781 0
M  V30 432 C 38.2015 2.01668 -0.035895 0
M  V30 433 C 38.5145 1.44021 1.32353 0
M  V30 434 O 39.7205 1.90088 1.93853 0
M  V30 435 C 38.1765 3.59897 -0.0136659 0
M  V30 436 C 37.7845 4.26536 -1.37006 0
M  V30 437 C 39.5285 4.22017 0.458425 0
M  V30 438 C 37.4355 5.76782 -1.30675 0
M  V30 439 H 36.3655 0.753938 -0.00964879 0
M  V30 440 H 39.0165 1.69243 -0.709166 0
M  V30 441 H 37.3985 3.89301 0.725325 0
M  V30 442 H 38.5725 4.0877 -2.12705 0
M  V30 443 H 36.8875 3.76419 -1.78038 0
M  V30 444 H 39.4845 5.32124 0.524247 0
M  V30 445 H 39.8275 3.89437 1.4712 0
M  V30 446 H 40.3605 3.97159 -0.225818 0
M  V30 447 H 37.0995 6.13988 -2.29564 0
M  V30 448 H 36.6195 5.96875 -0.591622 0
M  V30 449 H 38.2985 6.39063 -1.01033 0
M  V30 450 N 38.4306 0.297415 1.54768 0
M  V30 451 C 39.3786 -0.596051 2.24833 0
M  V30 452 C 40.3726 -1.13992 1.25308 0
M  V30 453 O 41.5786 -1.09098 1.4317 0
M  V30 454 H 37.9536 -0.210814 0.721846 0
M  V30 455 H 39.9246 0.0174667 2.98395 0
M  V30 456 C 38.6736 -1.75818 2.99972 0
M  V30 457 H 37.9966 -1.3489 3.76357 0
M  V30 458 H 39.4366 -2.35949 3.52284 0
M  V30 459 C 37.8956 -2.66014 2.06732 0
M  V30 460 O 38.4256 -3.67009 1.63302 0
M  V30 461 N 36.6316 -2.33669 1.72763 0
M  V30 462 H 36.1786 -1.51586 2.08277 0
M  V30 463 H 36.1366 -2.94285 1.10652 0
M  V30 464 N 39.9087 -1.5758 0.0250728 0
M  V30 465 C 41.1567 -1.91255 -0.653151 0
M  V30 466 C 41.4777 -0.901691 -1.729 0
M  V30 467 O 40.7477 0.0573785 -1.95816 0
M  V30 468 H 39.3277 -0.705942 -0.244243 0
M  V30 469 H 41.9897 -1.94767 0.0719209 0
M  V30 470 H 41.0857 -2.91752 -1.10847 0
M  V30 471 N 41.3868 0.248026 -1.55636 0
M  V30 472 C 42.6358 0.974134 -1.76617 0
M  V30 473 C 42.9488 1.86528 -0.588796 0
M  V30 474 O 44.1548 2.62805 -0.681594 0
M  V30 475 C 42.6108 1.78213 -3.12679 0
M  V30 476 C 42.2188 0.93843 -4.38061 0
M  V30 477 C 43.9628 2.50104 -3.42999 0
M  V30 478 C 41.8698 1.74225 -5.65155 0
M  V30 479 H 40.7998 0.36745 -0.658405 0
M  V30 480 H 43.4508 0.22884 -1.82067 0
M  V30 481 H 41.8328 2.56933 -3.01333 0
M  V30 482 H 43.0068 0.193635 -4.60393 0
M  V30 483 H 41.3218 0.332905 -4.15067 0
M  V30 484 H 43.9188 3.10694 -4.3517 0
M  V30 485 H 44.2618 3.21662 -2.64271 0
M  V30 486 H 44.7948 1.78395 -3.55556 0
M  V30 487 H 41.5338 1.07043 -6.46701 0
M  V30 488 H 41.0538 2.46235 -5.46926 0
M  V30 489 H 42.7328 2.30967 -6.0437 0
M  V30 490 N 42.8649 1.48995 0.513639 0
M  V30 491 C 44.2809 1.35478 0.843682 0
M  V30 492 C 44.4809 0.378213 1.97919 0
M  V30 493 O 43.5369 -0.194689 2.51748 0
M  V30 494 C 44.8499 2.75901 1.1958 0
M  V30 495 C 46.3979 2.84509 1.30474 0
M  V30 496 C 46.8729 4.25671 1.69021 0
M  V30 497 N 48.3639 4.28422 1.76094 0
M  V30 498 C 49.0989 5.34601 2.07338 0
M  V30 499 N 48.5949 6.5104 2.36894 0
M  V30 500 N 50.3879 5.22007 2.08483 0
M  V30 501 H 42.5389 2.11092 -0.235328 0
M  V30 502 H 44.8019 0.947039 -0.0426669 0
M  V30 503 H 44.5079 3.49001 0.434913 0
M  V30 504 H 44.3819 3.10467 2.1422 0
M  V30 505 H 46.7689 2.11655 2.05637 0
M  V30 506 H 46.8499 2.53542 0.339155 0
M  V30 507 H 46.4939 4.99048 0.944135 0
M  V30 508 H 46.4239 4.54094 2.66658 0
M  V30 509 H 48.9149 3.44441 1.55464 0
M  V30 510 H 49.2279 7.2779 2.59887 0
M  V30 511 H 47.5729 6.54287 2.34378 0
M  V30 512 H 50.7639 4.30051 1.84861 0
M  V30 513 H 50.9369 6.04854 2.325 0
M  V30 514 N 44.343 -0.763751 1.37857 0
M  V30 515 C 45.62 -1.51244 1.24035 0
M  V30 516 C 46 -2.10472 -0.162649 0
M  V30 517 O 45.348 -1.96206 -1.17112 0
M  V30 518 C 45.558 -2.58694 2.34261 0
M  V30 519 C 46.906 -3.25878 2.72193 0
M  V30 520 O 47.93 -2.68993 2.33497 0
M  V30 521 O 46.789 -4.2874 3.38887 0
M  V30 522 H 43.883 -0.670243 0.484462 0
M  V30 523 H 46.429 -0.800031 1.49658 0
M  V30 524 H 45.201 -2.13105 3.2818 0
M  V30 525 H 44.824 -3.37527 2.10146 0
M  V30 526 N 45.8211 -1.22559 -0.990812 0
M  V30 527 C 46.7691 -0.994798 -2.10253 0
M  V30 528 C 47.7631 0.0627798 -1.69284 0
M  V30 529 O 48.9691 -0.0898392 -1.79776 0
M  V30 530 H 45.3441 -0.304527 -0.687581 0
M  V30 531 H 47.3151 -1.93812 -2.26891 0
M  V30 532 C 46.0641 -0.591439 -3.42633 0
M  V30 533 H 45.3871 -1.3969 -3.74602 0
M  V30 534 H 46.8271 -0.469385 -4.21394 0
M  V30 535 C 45.2861 0.699232 -3.29564 0
M  V30 536 O 45.8161 1.75112 -3.61523 0
M  V30 537 N 44.0221 0.671182 -2.82743 0
M  V30 538 H 43.5691 -0.185136 -2.56934 0
M  V30 539 H 43.5271 1.53502 -2.7438 0
M  V30 540 N 47.2992 1.18797 -1.03562 0
M  V30 541 C 48.5272 1.92599 -0.755869 0
M  V30 542 C 48.9422 1.75886 0.686271 0
M  V30 543 O 48.2992 1.08517 1.46732 0
M  V30 544 C 48.3502 3.44159 -1.10619 0
M  V30 545 O 48.0712 3.60341 -2.4917 0
M  V30 546 C 49.5722 4.3507 -0.850214 0
M  V30 547 H 46.7922 0.611587 -0.276048 0
M  V30 548 H 49.3362 1.50742 -1.38192 0
M  V30 549 H 47.4912 3.83823 -0.525194 0
M  V30 550 H 47.9052 4.54128 -2.62427 0
M  V30 551 H 49.3792 5.39989 -1.14523 0
M  V30 552 H 49.8562 4.38673 0.215176 0
M  V30 553 H 50.4622 4.01097 -1.41426 0
M  V30 554 N 48.7773 0.814389 1.34928 0
M  V30 555 C 50.0263 0.394871 1.97797 0
M  V30 556 C 50.3393 -1.04555 1.65311 0
M  V30 557 O 51.5453 -1.56856 2.21604 0
M  V30 558 C 50.0013 0.655103 3.53888 0
M  V30 559 C 49.6093 2.10858 3.95276 0
M  V30 560 C 51.3533 0.301329 4.23429 0
M  V30 561 C 49.2603 2.31415 5.44244 0
M  V30 562 H 48.1903 0.143913 0.740139 0
M  V30 563 H 50.8413 0.999544 1.53888 0
M  V30 564 H 49.2233 -0.0196253 3.95995 0
M  V30 565 H 50.3973 2.82176 3.64298 0
M  V30 566 H 48.7123 2.42297 3.38646 0
M  V30 567 H 51.3093 0.432869 5.32945 0
M  V30 568 H 51.6523 -0.75331 4.09428 0
M  V30 569 H 52.1853 0.930288 3.86769 0
M  V30 570 H 48.9243 3.35353 5.63222 0
M  V30 571 H 48.4443 1.6463 5.76764 0
M  V30 572 H 50.1233 2.13352 6.10811 0
M  V30 573 N 50.2554 -1.46986 0.568584 0
M  V30 574 C 51.4804 -2.07335 0.0520528 0
M  V30 575 C 51.9054 -1.41675 -1.23733 0
M  V30 576 O 51.2634 -0.495623 -1.74394 0
M  V30 577 C 51.3114 -3.60417 -0.11501 0
M  V30 578 O 50.4154 -3.95309 -1.17492 0
M  V30 579 H 49.7564 -0.661597 0.0564385 0
M  V30 580 H 52.2864 -1.88837 0.787507 0
M  V30 581 H 52.2964 -4.06698 -0.325644 0
M  V30 582 H 50.9714 -4.07601 0.826675 0
M  V30 583 H 49.5484 -3.60757 -0.943869 0
M  V30 584 N 51.7335 -0.305618 -1.54608 0
M  V30 585 C 52.6435 0.57778 -2.27374 0
M  V30 586 C 53.6595 1.14451 -1.31061 0
M  V30 587 O 54.8355 1.16831 -1.6405 0
M  V30 588 C 51.9005 1.73123 -3.00382 0
M  V30 589 C 50.9615 1.19812 -4.12242 0
M  V30 590 C 50.1945 2.2966 -4.81759 0
M  V30 591 O 50.4175 3.49651 -4.50666 0
M  V30 592 O 49.3515 1.96091 -5.69062 0
M  V30 593 H 53.1775 -0.012624 -3.03697 0
M  V30 594 H 50.7625 -0.0719184 -1.49227 0
M  V30 595 H 52.6445 2.40315 -3.4616 0
M  V30 596 H 51.3195 2.30815 -2.26949 0
M  V30 597 H 50.2265 0.491798 -3.70853 0
M  V30 598 H 51.5595 0.666566 -4.87666 0
M  V30 599 N 53.2116 1.57565 -0.0334293 0
M  V30 600 C 54.4596 1.91598 0.642999 0
M  V30 601 C 54.7806 0.910847 1.7242 0
M  V30 602 O 54.0506 -0.0469931 1.95844 0
M  V30 603 H 52.6306 0.707228 0.240496 0
M  V30 604 H 55.2926 1.94726 -0.0822488 0
M  V30 605 H 54.3886 2.92336 1.09298 0
M  V30 606 N 54.6897 -0.239769 1.55765 0
M  V30 607 C 55.6217 -1.32001 1.87372 0
M  V30 608 C 56.6347 -1.43944 0.760522 0
M  V30 609 O 57.8237 -1.45167 1.0387 0
M  V30 610 C 54.9237 -2.69779 2.05115 0
M  V30 611 C 54.0967 -2.80014 3.36022 0
M  V30 612 C 53.1557 -3.98684 3.4342 0
M  V30 613 O 52.1817 -3.87877 4.16582 0
M  V30 614 N 53.3837 -5.12176 2.73232 0
M  V30 615 H 56.1487 -1.0522 2.80622 0
M  V30 616 H 53.7097 -0.429857 1.56089 0
M  V30 617 H 55.7017 -3.47517 2.07399 0
M  V30 618 H 54.2717 -2.89237 1.18577 0
M  V30 619 H 53.4917 -1.88896 3.45994 0
M  V30 620 H 54.7797 -2.83808 4.22292 0
M  V30 621 H 54.1777 -5.2385 2.13536 0
M  V30 622 H 52.7347 -5.88022 2.81199 0
M  V30 623 N 56.1678 -1.49265 -0.50573 0
M  V30 624 C 57.4168 -1.57761 -1.25675 0
M  V30 625 C 57.7298 -0.267371 -1.93764 0
M  V30 626 O 58.9358 -0.230827 -2.70517 0
M  V30 627 C 57.3918 -2.78332 -2.28165 0
M  V30 628 C 56.9998 -4.16096 -1.66037 0
M  V30 629 C 58.7438 -2.96155 -3.04125 0
M  V30 630 C 56.6508 -5.27895 -2.6661 0
M  V30 631 H 55.5808 -0.587391 -0.472745 0
M  V30 632 H 58.2318 -1.75644 -0.53118 0
M  V30 633 H 56.6138 -2.53934 -3.03865 0
M  V30 634 H 57.7878 -4.50612 -0.963622 0
M  V30 635 H 56.1028 -4.03591 -1.02484 0
M  V30 636 H 58.6998 -3.76849 -3.79327 0
M  V30 637 H 59.0428 -2.06534 -3.61455 0
M  V30 638 H 59.5758 -3.2057 -2.35541 0
M  V30 639 H 56.3148 -6.1956 -2.14068 0
M  V30 640 H 55.8348 -4.97839 -3.34539 0
M  V30 641 H 57.5138 -5.57031 -3.29129 0
M  V30 642 N 57.6459 0.756429 -1.3826 0
M  V30 643 C 58.6089 1.85176 -1.35065 0
M  V30 644 C 59.6089 1.58818 -0.251703 0
M  V30 645 O 60.7989 1.66615 -0.508433 0
M  V30 646 C 57.9309 3.22596 -1.10201 0
M  V30 647 H 59.1239 1.89417 -2.3251 0
M  V30 648 H 56.6769 0.95783 -1.23512 0
M  V30 649 H 57.4119 3.24025 -0.133504 0
M  V30 650 H 57.1969 3.43122 -1.89762 0
M  V30 651 H 58.6869 4.02673 -1.10654 0
M  V30 652 N 59.124 1.23083 0.984299 0
M  V30 653 C 60.087 1.00979 2.05757 0
M  V30 654 C 61.087 -0.0269573 1.60777 0
M  V30 655 O 62.277 0.212403 1.729 0
M  V30 656 C 59.409 0.527072 3.36801 0
M  V30 657 H 60.602 1.9622 2.26799 0
M  V30 658 H 58.155 1.05072 1.15714 0
M  V30 659 H 58.89 -0.429294 3.21446 0
M  V30 660 H 58.675 1.27515 3.70786 0
M  V30 661 H 60.165 0.392942 4.15747 0
M  V30 662 N 60.6021 -1.18246 1.0419 0
M  V30 663 C 61.5321 -2.24127 0.654914 0
M  V30 664 C 62.5131 -1.66617 -0.342451 0
M  V30 665 O 63.6981 -1.92924 -0.222277 0
M  V30 666 C 60.8281 -3.47295 0.0183757 0
M  V30 667 C 59.7821 -4.17563 0.939414 0
M  V30 668 C 59.1081 -5.34438 0.167286 0
M  V30 669 C 60.4081 -4.70917 2.25908 0
M  V30 670 H 62.1021 -2.56753 1.54007 0
M  V30 671 H 59.6481 -1.23414 0.74195 0
M  V30 672 H 61.6011 -4.20572 -0.264082 0
M  V30 673 H 60.3251 -3.13907 -0.901664 0
M  V30 674 H 58.9841 -3.46186 1.20628 0
M  V30 675 H 58.6321 -4.97298 -0.7552 0
M  V30 676 H 58.3321 -5.82388 0.780901 0
M  V30 677 H 59.8561 -6.10504 -0.108125 0
M  V30 678 H 61.2701 -5.35882 2.03724 0
M  V30 679 H 59.6671 -5.29406 2.82577 0
M  V30 680 H 60.7371 -3.88272 2.9047 0
M  V30 681 N 62.0802 -0.821533 -1.34494 0
M  V30 682 C 63.0432 -0.247847 -2.27856 0
M  V30 683 C 64.0432 0.573453 -1.50227 0
M  V30 684 O 65.2332 0.389759 -1.69784 0
M  V30 685 C 62.3652 0.652698 -3.34593 0
M  V30 686 H 63.5582 -1.07146 -2.80107 0
M  V30 687 H 61.1112 -0.593291 -1.44602 0
M  V30 688 H 61.8462 1.49943 -2.87555 0
M  V30 689 H 61.6312 0.065292 -3.92046 0
M  V30 690 H 63.1212 1.04793 -4.04238 0
M  V30 691 N 63.5583 1.46682 -0.576371 0
M  V30 692 C 64.4913 2.27243 0.208731 0
M  V30 693 C 65.4693 1.35238 0.902746 0
M  V30 694 O 66.6533 1.64641 0.917904 0
M  V30 695 C 63.7803 3.12802 1.29896 0
M  V30 696 C 62.8263 4.20524 0.711457 0
M  V30 697 S 63.6593 5.33548 -0.456781 0
M  V30 698 C 64.8153 6.22673 0.634798 0
M  V30 699 H 65.0483 2.93484 -0.474838 0
M  V30 700 H 62.5813 1.50069 -0.363118 0
M  V30 701 H 64.5393 3.62661 1.92321 0
M  V30 702 H 63.2003 2.45887 1.95444 0
M  V30 703 H 62.3933 4.80191 1.53076 0
M  V30 704 H 61.9953 3.73645 0.162999 0
M  V30 705 H 64.2873 6.60181 1.52209 0
M  V30 706 H 65.2303 7.0806 0.0750311 0
M  V30 707 H 65.6383 5.56684 0.936092 0
M  V30 708 N 65.0364 0.313813 1.54444 0
M  V30 709 C 66.2644 -0.293918 2.04802 0
M  V30 710 C 66.6794 -1.46537 1.19047 0
M  V30 711 O 66.0364 -1.81182 0.218939 0
M  V30 712 C 66.0874 -0.737806 3.53891 0
M  V30 713 O 65.8084 0.387038 4.36387 0
M  V30 714 C 67.3094 -1.40936 4.203 0
M  V30 715 H 64.5294 -0.0620057 0.668129 0
M  V30 716 H 67.0734 0.457169 1.99324 0
M  V30 717 H 65.2284 -1.43889 3.59687 0
M  V30 718 H 65.6424 0.0391274 5.24485 0
M  V30 719 H 67.1164 -1.67099 5.26101 0
M  V30 720 H 67.5934 -2.35355 3.70816 0
M  V30 721 H 68.1994 -0.751117 4.18615 0
M  V30 722 N 66.5145 -1.57545 0.0417849 0
M  V30 723 C 67.7635 -1.91494 -0.633492 0
M  V30 724 C 68.0765 -0.921084 -1.72556 0
M  V30 725 O 69.2825 -1.15228 -2.45835 0
M  V30 726 C 67.7385 -3.40072 -1.17808 0
M  V30 727 C 67.3465 -4.47843 -0.118633 0
M  V30 728 C 69.0905 -3.8307 -1.82915 0
M  V30 729 C 66.9975 -5.87529 -0.675578 0
M  V30 730 H 65.9275 -0.714653 -0.24039 0
M  V30 731 H 68.5785 -1.83175 0.109148 0
M  V30 732 H 66.9605 -3.43364 -1.97274 0
M  V30 733 H 68.1345 -4.56128 0.654494 0
M  V30 734 H 66.4495 -4.14128 0.434414 0
M  V30 735 H 69.0465 -4.84794 -2.25563 0
M  V30 736 H 69.3895 -3.1881 -2.67705 0
M  V30 737 H 69.9225 -3.82255 -1.10119 0
M  V30 738 H 66.6615 -6.55362 0.134475 0
M  V30 739 H 66.1815 -5.82824 -1.4169 0
M  V30 740 H 67.8605 -6.36491 -1.1614 0
M  V30 741 N 67.9926 0.231505 -1.5589 0
M  V30 742 C 69.2396 0.957352 -1.78441 0
M  V30 743 C 69.5676 1.84726 -0.60882 0
M  V30 744 O 68.8226 1.91416 0.40725 0
M  V30 745 C 69.1216 1.83577 -3.0665 0
M  V30 746 C 68.7876 1.09993 -4.37278 0
M  V30 747 C 67.4496 0.896629 -4.72773 0
M  V30 748 C 69.8016 0.579558 -5.17968 0
M  V30 749 C 67.1296 0.160896 -5.86479 0
M  V30 750 C 69.4816 -0.142783 -6.32439 0
M  V30 751 C 68.1456 -0.357427 -6.66542 0
M  V30 752 H 67.4156 0.35032 -0.65296 0
M  V30 753 H 70.0626 0.226259 -1.90159 0
M  V30 754 H 68.3676 2.63441 -2.90011 0
M  V30 755 H 70.0646 2.39934 -3.21298 0
M  V30 756 H 66.6546 1.26835 -4.09403 0
M  V30 757 H 70.8386 0.724125 -4.90989 0
M  V30 758 H 66.0946 -0.0157293 -6.11398 0
M  V30 759 H 70.2686 -0.553559 -6.94196 0
M  V30 760 H 67.8956 -0.929466 -7.54497 0
M  V30 761 N 69.4707 1.49531 0.497807 0
M  V30 762 C 70.7177 1.59179 1.25173 0
M  V30 763 C 71.0457 0.279932 1.92475 0
M  V30 764 O 70.3007 -0.732383 1.81479 0
M  V30 765 C 70.5997 2.70252 2.33878 0
M  V30 766 C 70.2657 4.11644 1.84012 0
M  V30 767 C 68.9277 4.50121 1.70132 0
M  V30 768 C 71.2797 5.00121 1.46725 0
M  V30 769 C 68.6077 5.74845 1.17348 0
M  V30 770 C 70.9597 6.25366 0.95392 0
M  V30 771 C 69.6237 6.6267 0.801538 0
M  V30 772 H 68.8937 0.582478 0.45804 0
M  V30 773 H 71.5407 1.83373 0.551948 0
M  V30 774 H 69.8457 2.40041 3.09657 0
M  V30 775 H 71.5427 2.74925 2.9192 0
M  V30 776 H 68.1327 3.81274 1.95775 0
M  V30 777 H 72.3167 4.71048 1.56294 0
M  V30 778 H 67.5727 6.02444 1.04264 0
M  V30 779 H 71.7467 6.93301 0.656225 0
M  V30 780 H 69.3737 7.59197 0.390351 0
M  V30 781 N 70.9488 -0.749086 1.3866 0
M  V30 782 C 71.8988 -1.85368 1.32751 0
M  V30 783 C 72.8828 -1.59511 0.210945 0
M  V30 784 O 74.0748 -1.71255 0.447299 0
M  V30 785 C 71.2038 -3.23131 1.15935 0
M  V30 786 C 70.2898 -3.54864 2.32233 0
M  V30 787 N 70.6808 -3.57625 3.57684 0
M  V30 788 C 68.9788 -3.85154 2.24883 0
M  V30 789 C 69.6798 -3.86753 4.34508 0
M  V30 790 N 68.6558 -4.03812 3.63918 0
M  V30 791 H 72.4578 -1.85787 2.27729 0
M  V30 792 H 69.9718 -0.946658 1.31955 0
M  V30 793 H 71.9688 -4.02185 1.09786 0
M  V30 794 H 70.6288 -3.23961 0.218947 0
M  V30 795 H 71.6398 -3.39276 3.91295 0
M  V30 796 H 68.3168 -3.93672 1.39027 0
M  V30 797 H 69.7068 -3.95474 5.43185 0
M  V30 798 N 72.4269 -1.23603 -0.977757 0
M  V30 799 C 73.7039 -0.977897 -1.69401 0
M  V30 800 C 74.0839 0.502738 -2.05026 0
M  V30 801 O 73.4319 1.47459 -1.74551 0
M  V30 802 C 73.6419 -1.89077 -2.93345 0
M  V30 803 C 74.9899 -2.15579 -3.65802 0
M  V30 804 O 76.0139 -1.86648 -3.03383 0
M  V30 805 O 74.8729 -2.64658 -4.78141 0
M  V30 806 H 71.9669 -0.369025 -0.740101 0
M  V30 807 H 74.5129 -1.34657 -1.03274 0
M  V30 808 H 73.2849 -2.89158 -2.63634 0
M  V30 809 H 72.9079 -1.52463 -3.67207 0
M  V30 810 N 73.905 1.17692 -1.04816 0
M  V30 811 C 74.838 2.20436 -0.590173 0
M  V30 812 C 75.816 1.58115 0.379244 0
M  V30 813 O 77 1.86228 0.291762 0
M  V30 814 C 74.127 3.38424 0.136817 0
M  V30 815 C 73.173 4.19176 -0.787023 0
M  V30 816 S 74.006 4.84815 -2.27409 0
M  V30 817 C 75.162 6.06195 -1.55817 0
M  V30 818 H 75.395 2.58944 -1.46067 0
M  V30 819 H 72.928 1.28246 -0.859784 0
M  V30 820 H 74.886 4.06798 0.550076 0
M  V30 821 H 73.547 2.98312 0.983299 0
M  V30 822 H 72.74 5.03499 -0.224681 0
M  V30 823 H 72.342 3.56219 -1.13947 0
M  V30 824 H 74.634 6.72078 -0.855387 0
M  V30 825 H 75.577 6.6695 -2.37873 0
M  V30 826 H 75.985 5.54701 -1.04722 0
M  V30 827 N 75.3831 0.828654 1.34056 0
M  V30 828 C 76.6111 0.43262 2.02326 0
M  V30 829 C 77.0261 -0.963147 1.62385 0
M  V30 830 O 76.3831 -1.62425 0.832121 0
M  V30 831 C 76.4341 0.53182 3.57567 0
M  V30 832 O 76.1551 1.87258 3.96063 0
M  V30 833 C 77.6561 0.131422 4.43105 0
M  V30 834 H 74.8761 0.172923 0.648335 0
M  V30 835 H 77.4201 1.1184 1.71208 0
M  V30 836 H 75.5751 -0.105938 3.87255 0
M  V30 837 H 75.9891 1.85087 4.90758 0
M  V30 838 H 77.4631 0.251904 5.51425 0
M  V30 839 H 77.9401 -0.925645 4.29335 0
M  V30 840 H 78.5461 0.743207 4.18756 0
M  V30 841 N 76.8612 -1.46375 0.584142 0
M  V30 842 C 77.7942 -2.27351 -0.196676 0
M  V30 843 C 78.7722 -1.35715 -0.895561 0
M  V30 844 O 79.9562 -1.65126 -0.90916 0
M  V30 845 C 77.0832 -3.13486 -1.28235 0
M  V30 846 C 76.1292 -4.20896 -0.689145 0
M  V30 847 S 76.9622 -5.33299 0.48507 0
M  V30 848 C 78.1182 -6.23 -0.601767 0
M  V30 849 H 78.3512 -2.93228 0.490395 0
M  V30 850 H 75.8842 -1.49875 0.371071 0
M  V30 851 H 77.8422 -3.63676 -1.90395 0
M  V30 852 H 76.5032 -2.4692 -1.94138 0
M  V30 853 H 75.6962 -4.80997 -1.50527 0
M  V30 854 H 75.2982 -3.73726 -0.143181 0
M  V30 855 H 77.5902 -6.60979 -1.48705 0
M  V30 856 H 78.5332 -7.0809 -0.0374799 0
M  V30 857 H 78.9412 -5.57173 -0.906557 0
M  V30 858 N 78.3393 -0.321999 -1.54275 0
M  V30 859 C 79.7503 0.166384 -1.85957 0
M  V30 860 C 80.1013 1.51747 -1.24367 0
M  V30 861 O 79.2263 2.09317 -0.549124 0
M  V30 862 C 79.8213 0.308681 -3.37391 0
M  V30 863 C 78.3803 0.741286 -3.69028 0
M  V30 864 C 77.5273 -0.137937 -2.76957 0
M  V30 865 H 80.4783 -0.542335 -1.49146 0
M  V30 866 H 80.4993 1.13984 -3.63026 0
M  V30 867 H 80.0113 -0.674809 -3.82188 0
M  V30 868 H 78.1123 1.73458 -3.29762 0
M  V30 869 H 78.2253 0.546118 -4.75977 0
M  V30 870 H 76.5893 0.386251 -2.51754 0
M  V30 871 H 77.3723 -1.11816 -3.2458 0
M  V30 872 N 79.8174 1.5752 -0.0501392 0
M  V30 873 C 80.7274 2.14952 0.939827 0
M  V30 874 C 81.7434 1.10706 1.34239 0
M  V30 875 O 82.9194 1.42869 1.41952 0
M  V30 876 C 79.9844 2.68232 2.19665 0
M  V30 877 C 79.0454 3.87272 1.85253 0
M  V30 878 C 78.2784 4.38002 3.04943 0
M  V30 879 O 78.5014 3.87811 4.18281 0
M  V30 880 O 77.4354 5.29602 2.86017 0
M  V30 881 H 81.2614 2.9986 0.481392 0
M  V30 882 H 78.8464 1.4841 0.171699 0
M  V30 883 H 80.7284 3.02475 2.93406 0
M  V30 884 H 79.4034 1.86395 2.64648 0
M  V30 885 H 78.3104 3.5792 1.0883 0
M  V30 886 H 79.6434 4.70336 1.4507 0
M  V30 887 N 81.2955 -0.223234 1.56011 0
M  V30 888 C 82.7115 -0.572856 1.48965 0
M  V30 889 C 82.9115 -1.87225 0.74492 0
M  V30 890 O 81.9675 -2.50899 0.283896 0
M  V30 891 C 83.2805 -0.653646 2.9351 0
M  V30 892 C 84.8285 -0.744386 3.0402 0
M  V30 893 C 85.3035 -0.856535 4.49919 0
M  V30 894 N 86.7945 -0.9208 4.53955 0
M  V30 895 C 87.5295 -1.02726 5.64123 0
M  V30 896 N 87.0255 -1.09777 6.84047 0
M  V30 897 N 88.8185 -1.06226 5.51971 0
M  V30 898 H 80.9695 0.629462 2.02858 0
M  V30 899 H 83.2325 0.220621 0.921971 0
M  V30 900 H 82.9385 0.231518 3.50937 0
M  V30 901 H 82.8125 -1.51781 3.45315 0
M  V30 902 H 85.1995 -1.61999 2.46658 0
M  V30 903 H 85.2805 0.14541 2.55386 0
M  V30 904 H 84.9245 0.0146069 5.07898 0
M  V30 905 H 84.8545 -1.76172 4.96257 0
M  V30 906 H 87.3455 -0.876694 3.6759 0
M  V30 907 H 87.6585 -1.17872 7.63758 0
M  V30 908 H 86.0035 -1.06693 6.86762 0
M  V30 909 H 89.1945 -1.00382 4.5721 0
M  V30 910 H 89.3675 -1.14177 6.37862 0
M  V30 911 N 82.7736 -1.49793 -0.48987 0
M  V30 912 C 84.0196 -1.60078 -1.24511 0
M  V30 913 C 84.3526 -0.291608 -1.91998 0
M  V30 914 O 83.6276 0.705647 -1.81248 0
M  V30 915 C 83.9106 -2.76791 -2.30345 0
M  V30 916 C 83.7636 -4.17535 -1.67286 0
M  V30 917 C 85.0826 -2.89111 -3.31817 0
M  V30 918 H 82.2016 -0.582645 -0.451324 0
M  V30 919 H 84.8436 -1.82117 -0.541612 0
M  V30 920 H 82.9936 -2.5813 -2.90346 0
M  V30 921 H 84.6656 -4.4774 -1.11026 0
M  V30 922 H 82.9086 -4.22665 -0.976577 0
M  V30 923 H 83.5796 -4.95094 -2.44103 0
M  V30 924 H 86.0556 -3.06133 -2.81819 0
M  V30 925 H 84.9316 -3.72433 -4.03219 0
M  V30 926 H 85.1926 -1.9893 -3.94815 0
M  V30 927 N 84.2517 0.741722 -1.39055 0
M  V30 928 C 85.4767 1.53607 -1.39354 0
M  V30 929 C 85.9017 1.88096 0.0116905 0
M  V30 930 O 85.2597 1.5143 0.996924 0
M  V30 931 C 85.3077 2.80441 -2.26682 0
M  V30 932 O 84.4117 3.76088 -1.69208 0
M  V30 933 H 83.7527 0.464142 -0.474835 0
M  V30 934 H 86.2827 0.915665 -1.82967 0
M  V30 935 H 86.2927 3.29246 -2.40959 0
M  V30 936 H 84.9677 2.5467 -3.2881 0
M  V30 937 H 83.5447 3.34833 -1.64138 0
M  V30 938 N 85.7298 1.2412 0.971189 0
M  V30 939 C 86.6598 1.05508 2.08304 0
M  V30 940 C 87.6408 -0.0308864 1.70072 0
M  V30 941 O 88.8258 0.135521 1.93727 0
M  V30 942 C 85.9558 0.655365 3.4106 0
M  V30 943 C 84.9098 1.68971 3.93234 0
M  V30 944 C 84.2358 1.14516 5.22293 0
M  V30 945 C 85.5358 3.08487 4.21465 0
M  V30 946 H 87.2298 1.98507 2.24132 0
M  V30 947 H 84.7758 0.955821 1.07704 0
M  V30 948 H 86.7288 0.51217 4.18276 0
M  V30 949 H 85.4528 -0.31032 3.25122 0
M  V30 950 H 84.1118 1.82106 3.18171 0
M  V30 951 H 83.7598 0.170189 5.02712 0
M  V30 952 H 83.4598 1.83635 5.58168 0
M  V30 953 H 84.9838 1.01401 6.02121 0
M  V30 954 H 86.3978 2.98601 4.89398 0
M  V30 955 H 84.7948 3.74926 4.68562 0
M  V30 956 H 85.8648 3.56787 3.28376 0
M  V30 957 N 87.2079 -1.17134 1.05439 0
M  V30 958 C 88.4359 -1.91372 0.786414 0
M  V30 959 C 88.8509 -1.76955 -0.658202 0
M  V30 960 O 88.2079 -1.10838 -1.44987 0
M  V30 961 C 88.2589 -3.42356 1.1608 0
M  V30 962 O 87.9799 -3.56332 2.54871 0
M  V30 963 C 89.4809 -4.33663 0.919322 0
M  V30 964 H 86.7009 -0.607118 0.285743 0
M  V30 965 H 89.2449 -1.48525 1.40572 0
M  V30 966 H 87.3999 -3.82939 0.586191 0
M  V30 967 H 87.8139 -4.49896 2.69618 0
M  V30 968 H 89.2879 -5.38099 1.231 0
M  V30 969 H 89.7649 -4.38959 -0.145359 0
M  V30 970 H 90.3709 -3.98796 1.47789 0
M  V30 971 N 88.686 -0.835752 -1.33615 0
M  V30 972 C 89.619 -0.211815 -2.27215 0
M  V30 973 C 90.597 0.639249 -1.49507 0
M  V30 974 O 91.781 0.600193 -1.78689 0
M  V30 975 C 88.908 0.702893 -3.31326 0
M  V30 976 C 87.954 -0.0723049 -4.26439 0
M  V30 977 S 88.787 -1.42811 -5.16106 0
M  V30 978 C 89.943 -0.518613 -6.23748 0
M  V30 979 H 90.176 -1.00533 -2.79786 0
M  V30 980 H 87.709 -0.632336 -1.40858 0
M  V30 981 H 89.667 1.22505 -3.91794 0
M  V30 982 H 88.328 1.47004 -2.77576 0
M  V30 983 H 87.521 0.62359 -5.00127 0
M  V30 984 H 87.123 -0.525424 -3.70291 0
M  V30 985 H 89.415 0.284778 -6.76901 0
M  V30 986 H 90.358 -1.22556 -6.97413 0
M  V30 987 H 90.766 -0.101344 -5.64409 0
M  V30 988 N 90.1641 1.46063 -0.591896 0
M  V30 989 C 91.1271 2.28854 0.125973 0
M  V30 990 C 92.1271 1.38903 0.810107 0
M  V30 991 O 93.3171 1.61186 0.66066 0
M  V30 992 C 90.4491 3.19526 1.1881 0
M  V30 993 H 91.6421 2.93802 -0.601717 0
M  V30 994 H 89.1951 1.52325 -0.350254 0
M  V30 995 H 89.9301 2.59345 1.94707 0
M  V30 996 H 89.7151 3.85766 0.701936 0
M  V30 997 H 91.2051 3.81817 1.69132 0
M  V30 998 N 91.6422 0.330177 1.54103 0
M  V30 999 C 92.5752 -0.575477 2.20825 0
M  V30 1000 C 93.5532 -1.11064 1.18758 0
M  V30 1001 O 94.7372 -1.17341 1.47524 0
M  V30 1002 C 91.8642 -1.79032 2.87516 0
M  V30 1003 C 90.9102 -1.38581 4.03358 0
M  V30 1004 S 91.7432 -0.416911 5.33875 0
M  V30 1005 C 92.8992 -1.63889 6.04062 0
M  V30 1006 H 93.1322 -0.00872114 2.97299 0
M  V30 1007 H 90.6652 0.114254 1.53977 0
M  V30 1008 H 92.6232 -2.48734 3.2656 0
M  V30 1009 H 91.2842 -2.32827 2.10832 0
M  V30 1010 H 90.4772 -2.29123 4.48908 0
M  V30 1011 H 90.0792 -0.768419 3.66021 0
M  V30 1012 H 92.3712 -2.57536 6.26643 0
M  V30 1013 H 93.3142 -1.22542 6.97416 0
M  V30 1014 H 93.7222 -1.82887 5.34053 0
M  V30 1015 N 93.1203 -1.57491 0.0584922 0
M  V30 1016 C 94.5363 -1.56792 -0.298091 0
M  V30 1017 C 94.7363 -1.06679 -1.70944 0
M  V30 1018 O 93.7923 -0.726672 -2.41818 0
M  V30 1019 C 95.1053 -3.00461 -0.119879 0
M  V30 1020 C 96.6533 -3.1242 -0.190428 0
M  V30 1021 C 97.1283 -4.57982 -0.0406567 0
M  V30 1022 N 98.6193 -4.63099 -0.0966958 0
M  V30 1023 C 99.3543 -5.734 -0.00502943 0
M  V30 1024 N 98.8503 -6.9266 0.139402 0
M  V30 1025 N 100.643 -5.62067 -0.0611391 0
M  V30 1026 H 92.7943 -1.88386 0.98105 0
M  V30 1027 H 95.0573 -0.867865 0.381463 0
M  V30 1028 H 94.7633 -3.41187 0.85349 0
M  V30 1029 H 94.6373 -3.66843 -0.877833 0
M  V30 1030 H 97.0243 -2.71589 -1.15427 0
M  V30 1031 H 97.1053 -2.48702 0.598405 0
M  V30 1032 H 96.7493 -4.995 0.919897 0
M  V30 1033 H 96.6793 -5.19715 -0.848727 0
M  V30 1034 H 99.1703 -3.77331 -0.207277 0
M  V30 1035 H 99.4833 -7.72536 0.201855 0
M  V30 1036 H 97.8283 -6.94781 0.174586 0
M  V30 1037 H 101.019 -4.67782 -0.172583 0
M  V30 1038 H 101.192 -6.47999 0.0137562 0
M  V30 1039 N 94.5984 0.214957 -1.56127 0
M  V30 1040 C 95.8754 0.963093 -1.70247 0
M  V30 1041 C 96.2554 2.02166 -0.60764 0
M  V30 1042 O 95.6034 2.25244 0.384385 0
M  V30 1043 C 95.8134 1.56756 -3.11815 0
M  V30 1044 C 97.1614 2.0573 -3.7143 0
M  V30 1045 O 98.1854 1.66637 -3.14818 0
M  V30 1046 O 97.0444 2.77603 -4.70743 0
M  V30 1047 H 94.1384 0.450321 -0.693643 0
M  V30 1048 H 96.6844 0.206219 -1.68442 0
M  V30 1049 H 95.4564 0.803533 -3.82961 0
M  V30 1050 H 95.0794 2.3898 -3.17765 0
M  V30 1051 N 96.0765 1.50051 0.48192 0
M  V30 1052 C 97.3015 1.64508 1.26301 0
M  V30 1053 C 97.7265 0.323851 1.85291 0
M  V30 1054 O 97.0845 -0.710969 1.66778 0
M  V30 1055 C 97.1325 2.7305 2.35533 0
M  V30 1056 O 96.2365 2.3355 3.39895 0
M  V30 1057 H 95.5775 0.549978 0.372048 0
M  V30 1058 H 98.1075 1.9636 0.574786 0
M  V30 1059 H 98.1175 2.95799 2.8101 0
M  V30 1060 H 96.7925 3.68946 1.91967 0
M  V30 1061 H 95.3695 2.21205 3.00204 0
M  V30 1062 N 97.5546 -0.734337 1.39446 0
M  V30 1063 C 98.8026 -1.49096 1.36436 0
M  V30 1064 C 99.1236 -1.94961 -0.0388255 0
M  V30 1065 O 98.3936 -1.69033 -0.990191 0
M  V30 1066 H 96.9736 -0.5531 0.502085 0
M  V30 1067 H 99.6356 -0.871725 1.74319 0
M  V30 1068 H 98.7316 -2.37276 2.02747 0
M  V30 1069 N 99.0327 -1.24633 -0.964593 0
M  V30 1070 C 100.261 -1.11501 -1.74285 0
M  V30 1071 C 100.676 0.332165 -1.85855 0
M  V30 1072 O 100.033 1.22903 -1.34911 0
M  V30 1073 C 100.084 -1.75258 -3.16175 0
M  V30 1074 O 99.8047 -3.14318 -3.05182 0
M  V30 1075 C 101.306 -1.67776 -4.10324 0
M  V30 1076 H 98.5257 -0.389407 -0.546446 0
M  V30 1077 H 101.07 -1.64801 -1.21083 0
M  V30 1078 H 99.2247 -1.25954 -3.66353 0
M  V30 1079 H 99.6387 -3.4551 -3.94618 0
M  V30 1080 H 101.113 -2.17064 -5.0753 0
M  V30 1081 H 101.59 -0.639584 -4.34518 0
M  V30 1082 H 102.196 -2.16522 -3.66058 0
M  V30 1083 N 100.511 1.16574 -1.06058 0
M  V30 1084 C 101.757 1.87324 -0.777022 0
M  V30 1085 C 102.09 1.81351 0.694645 0
M  V30 1086 O 101.365 1.22753 1.50871 0
M  V30 1087 C 101.648 3.36991 -1.26922 0
M  V30 1088 C 101.501 3.51667 -2.80447 0
M  V30 1089 C 102.82 4.3131 -0.87521 0
M  V30 1090 H 99.9388 0.680191 -0.28374 0
M  V30 1091 H 102.581 1.37036 -1.3161 0
M  V30 1092 H 100.731 3.79949 -0.81063 0
M  V30 1093 H 102.403 3.17664 -3.34495 0
M  V30 1094 H 100.646 2.93656 -3.19294 0
M  V30 1095 H 101.317 4.56766 -3.0995 0
M  V30 1096 H 103.793 3.9624 -1.27014 0
M  V30 1097 H 102.669 5.34545 -1.2471 0
M  V30 1098 H 102.93 4.41552 0.220071 0
M  V30 1099 N 101.989 0.842826 1.3317 0
M  V30 1100 C 102.919 0.294028 2.31641 0
M  V30 1101 C 103.9 -0.600401 1.59151 0
M  V30 1102 O 105.085 -0.523124 1.87022 0
M  V30 1103 C 102.215 -0.528416 3.43257 0
M  V30 1104 C 101.169 0.27056 4.27144 0
M  V30 1105 C 100.495 -0.675881 5.30411 0
M  V30 1106 C 101.795 1.48981 5.00602 0
M  V30 1107 H 103.489 1.11681 2.77791 0
M  V30 1108 H 101.035 0.538478 1.33553 0
M  V30 1109 H 102.988 -0.922674 4.11175 0
M  V30 1110 H 101.712 -1.38445 2.95805 0
M  V30 1111 H 100.371 0.646427 3.60856 0
M  V30 1112 H 100.019 -1.52842 4.79216 0
M  V30 1113 H 99.7189 -0.145374 5.8742 0
M  V30 1114 H 101.243 -1.06757 6.01195 0
M  V30 1115 H 102.657 1.16849 5.61266 0
M  V30 1116 H 101.054 1.95739 5.6728 0
M  V30 1117 H 102.124 2.25746 4.29147 0
M  V30 1118 N 103.467 -1.45747 0.599634 0
M  V30 1119 C 104.744 -1.95585 0.0240846 0
M  V30 1120 C 105.124 -1.54217 -1.44154 0
M  V30 1121 O 104.472 -0.800903 -2.14004 0
M  V30 1122 C 104.682 -3.48344 0.21385 0
M  V30 1123 C 106.03 -4.24504 0.0904902 0
M  V30 1124 O 107.054 -3.55911 0.143558 0
M  V30 1125 O 105.913 -5.46491 -0.0310766 0
M  V30 1126 H 103.007 -0.82602 -0.0402478 0
M  V30 1127 H 105.553 -1.55951 0.669139 0
M  V30 1128 H 104.325 -3.71397 1.23206 0
M  V30 1129 H 103.948 -3.9485 -0.466842 0
M  V30 1130 N 104.945 -0.338344 -1.53925 0
M  V30 1131 C 106.191 0.252842 -2.01822 0
M  V30 1132 C 106.546 1.48612 -1.22197 0
M  V30 1133 O 105.839 1.89238 -0.299892 0
M  V30 1134 C 106.033 0.62448 -3.51902 0
M  V30 1135 C 105.862 -0.571235 -4.46057 0
M  V30 1136 C 104.632 -1.07493 -4.93734 0
M  V30 1137 C 106.83 -1.42807 -4.94076 0
M  V30 1138 N 104.812 -2.23351 -5.71828 0
M  V30 1139 C 106.183 -2.43362 -5.70241 0
M  V30 1140 C 108.238 -1.45412 -4.76193 0
M  V30 1141 C 106.941 -3.46346 -6.30426 0
M  V30 1142 C 108.967 -2.47274 -5.37224 0
M  V30 1143 C 108.329 -3.46555 -6.13253 0
M  V30 1144 H 104.428 0.0559669 -0.779995 0
M  V30 1145 H 107.012 -0.476732 -1.88773 0
M  V30 1146 H 105.183 1.32317 -3.65167 0
M  V30 1147 H 106.915 1.19841 -3.86549 0
M  V30 1148 H 103.67 -0.643848 -4.69203 0
M  V30 1149 H 104.094 -2.81834 -6.15548 0
M  V30 1150 H 108.736 -0.700171 -4.16962 0
M  V30 1151 H 106.454 -4.22638 -6.88769 0
M  V30 1152 H 110.04 -2.50109 -5.25297 0
M  V30 1153 H 108.92 -4.24083 -6.59638 0
M  V30 1154 N 106.423 1.57458 -0.0668435 0
M  V30 1155 C 107.37 2.12439 0.902122 0
M  V30 1156 C 108.34 1.03565 1.2986 0
M  V30 1157 O 109.525 1.312 1.38532 0
M  V30 1158 C 106.665 2.6865 2.16614 0
M  V30 1159 C 105.778 3.91663 1.82274 0
M  V30 1160 C 104.913 4.36134 3.0325 0
M  V30 1161 C 103.952 5.51808 2.64904 0
M  V30 1162 N 103.089 5.9126 3.78624 0
M  V30 1163 H 107.929 2.94934 0.426382 0
M  V30 1164 H 105.466 1.4575 0.198819 0
M  V30 1165 H 107.424 2.99346 2.90599 0
M  V30 1166 H 106.054 1.88928 2.61737 0
M  V30 1167 H 105.106 3.6746 0.983719 0
M  V30 1168 H 106.418 4.75693 1.50059 0
M  V30 1169 H 105.572 4.68465 3.85519 0
M  V30 1170 H 104.311 3.50948 3.38655 0
M  V30 1171 H 103.316 5.19133 1.81055 0
M  V30 1172 H 104.541 6.38722 2.30675 0
M  V30 1173 H 102.487 5.09024 4.138 0
M  V30 1174 H 102.404 6.70018 3.5016 0
M  V30 1175 H 103.672 6.28212 4.61486 0
M  V30 1176 N 107.901 -0.206675 1.56239 0
M  V30 1177 C 109.126 -0.949474 1.8439 0
M  V30 1178 C 109.551 -1.76549 0.649016 0
M  V30 1179 O 108.909 -1.76782 -0.402231 0
M  V30 1180 C 108.957 -1.83078 3.10668 0
M  V30 1181 O 108.061 -2.9281 2.90407 0
M  V30 1182 H 107.402 -0.268033 0.607499 0
M  V30 1183 H 109.932 -0.215488 2.03462 0
M  V30 1184 H 109.942 -2.2377 3.41161 0
M  V30 1185 H 108.617 -1.23112 3.97261 0
M  V30 1186 H 107.194 -2.55956 2.71184 0
M  V30 1187 N 109.379 -1.50304 -0.473955 0
M  V30 1188 C 110.309 -1.71886 -1.58042 0
M  V30 1189 C 111.29 -0.567799 -1.60344 0
M  V30 1190 O 112.475 -0.806623 -1.76656 0
M  V30 1191 C 109.605 -1.81036 -2.96384 0
M  V30 1192 C 108.559 -2.962 -3.08949 0
M  V30 1193 C 107.885 -2.9049 -4.48909 0
M  V30 1194 C 109.185 -4.36752 -2.86434 0
M  V30 1195 H 110.879 -2.64527 -1.40234 0
M  V30 1196 H 108.425 -1.27295 -0.673201 0
M  V30 1197 H 110.378 -1.94719 -3.73714 0
M  V30 1198 H 109.102 -0.850147 -3.15341 0
M  V30 1199 H 107.761 -2.82164 -2.3405 0
M  V30 1200 H 107.409 -1.92321 -4.64781 0
M  V30 1201 H 107.109 -3.67802 -4.58253 0
M  V30 1202 H 108.633 -3.06218 -5.28264 0
M  V30 1203 H 110.047 -4.5133 -3.53517 0
M  V30 1204 H 108.444 -5.15493 -3.07225 0
M  V30 1205 H 109.514 -4.49321 -1.82316 0
M  V30 1206 N 110.857 0.726932 -1.39834 0
M  V30 1207 C 111.807 1.83232 -1.35683 0
M  V30 1208 C 112.791 1.59155 -0.236295 0
M  V30 1209 O 113.983 1.70522 -0.474488 0
M  V30 1210 C 111.112 3.21246 -1.21062 0
M  V30 1211 C 110.198 3.51125 -2.37849 0
M  V30 1212 N 110.589 3.51889 -3.63329 0
M  V30 1213 C 108.887 3.81527 -2.30982 0
M  V30 1214 C 109.588 3.79791 -4.40606 0
M  V30 1215 N 108.564 3.97971 -3.70297 0
M  V30 1216 H 112.366 1.8214 -2.30656 0
M  V30 1217 H 109.88 0.925545 -1.33444 0
M  V30 1218 H 111.877 4.00387 -1.16171 0
M  V30 1219 H 110.537 3.23572 -0.270458 0
M  V30 1220 H 111.548 3.33008 -3.96643 0
M  V30 1221 H 108.225 3.91411 -1.45272 0
M  V30 1222 H 109.615 3.86783 -5.49408 0
M  V30 1223 N 112.336 1.25143 0.95797 0
M  V30 1224 C 113.266 1.07711 2.07173 0
M  V30 1225 C 114.247 -0.0128462 1.70095 0
M  V30 1226 O 115.432 0.156061 1.93572 0
M  V30 1227 C 112.562 0.691503 3.40346 0
M  V30 1228 C 111.516 1.73132 3.9142 0
M  V30 1229 C 110.842 1.20049 5.21049 0
M  V30 1230 C 112.142 3.1294 4.1817 0
M  V30 1231 H 113.836 2.00873 2.22014 0
M  V30 1232 H 111.382 0.967191 1.06684 0
M  V30 1233 H 113.335 0.556505 4.17709 0
M  V30 1234 H 112.059 -0.275819 3.25433 0
M  V30 1235 H 110.718 1.8547 3.16222 0
M  V30 1236 H 110.366 0.223499 5.02503 0
M  V30 1237 H 110.066 1.89545 5.56189 0
M  V30 1238 H 111.59 1.07782 6.01012 0
M  V30 1239 H 113.004 3.03775 4.86203 0
M  V30 1240 H 111.401 3.79875 4.64559 0
M  V30 1241 H 112.471 3.6025 3.24573 0
M  V30 1242 N 113.814 -1.1601 1.06675 0
M  V30 1243 C 114.762 -2.22586 0.675157 0
M  V30 1244 C 115.756 -1.66525 -0.310766 0
M  V30 1245 O 116.962 -1.79145 -0.175215 0
M  V30 1246 H 113.337 -0.724855 0.200223 0
M  V30 1247 H 115.308 -2.52899 1.58381 0
M  V30 1248 C 114.057 -3.47604 0.0817162 0
M  V30 1249 H 113.38 -3.91058 0.831484 0
M  V30 1250 H 114.82 -4.23718 -0.154708 0
M  V30 1251 C 113.279 -3.15718 -1.17576 0
M  V30 1252 O 113.809 -3.31878 -2.26318 0
M  V30 1253 N 112.015 -2.69816 -1.07923 0
M  V30 1254 H 111.562 -2.56866 -0.194293 0
M  V30 1255 H 111.52 -2.48855 -1.92141 0
M  V30 1256 N 115.292 -0.849877 -1.32721 0
M  V30 1257 C 116.54 -0.450032 -1.97026 0
M  V30 1258 C 116.861 0.996604 -1.67609 0
M  V30 1259 O 116.131 1.6958 -0.980786 0
M  V30 1260 H 114.711 -0.163426 -0.728904 0
M  V30 1261 H 117.373 -1.08526 -1.6189 0
M  V30 1262 H 116.469 -0.591146 -3.0645 0
M  V30 1263 N 116.77 1.45427 -0.607355 0
M  V30 1264 C 118.181 1.85756 -0.187535 0
M  V30 1265 C 118.532 1.5077 1.25551 0
M  V30 1266 O 117.657 0.93427 1.95193 0
M  V30 1267 C 118.252 3.37154 -0.333572 0
M  V30 1268 C 116.811 3.76387 0.0315542 0
M  V30 1269 C 115.958 2.69377 -0.658117 0
M  V30 1270 H 118.909 1.36231 -0.81405 0
M  V30 1271 H 118.93 3.78014 0.43428 0
M  V30 1272 H 118.442 3.62586 -1.38393 0
M  V30 1273 H 116.543 3.56571 1.0811 0
M  V30 1274 H 116.656 4.77731 -0.361935 0
M  V30 1275 H 115.02 2.5452 -0.0957873 0
M  V30 1276 H 115.803 2.97646 -1.7106 0
M  V30 1277 N 118.248 0.346503 1.53744 0
M  V30 1278 C 119.497 -0.250122 2.00143 0
M  V30 1279 C 119.81 -1.51418 1.23822 0
M  V30 1280 O 121.016 -2.18823 1.60713 0
M  V30 1281 C 119.472 -0.496252 3.56462 0
M  V30 1282 C 119.08 0.752077 4.41642 0
M  V30 1283 C 120.824 -1.05157 4.11269 0
M  V30 1284 C 118.731 0.476583 5.89477 0
M  V30 1285 H 117.661 -0.0972409 0.747703 0
M  V30 1286 H 120.312 0.46229 1.77581 0
M  V30 1287 H 118.694 -1.26944 3.75102 0
M  V30 1288 H 119.868 1.5266 4.34778 0
M  V30 1289 H 118.183 1.22925 3.97842 0
M  V30 1290 H 120.78 -1.27269 5.19333 0
M  V30 1291 H 121.123 -2.00799 3.64672 0
M  V30 1292 H 121.656 -0.339019 3.96353 0
M  V30 1293 H 118.395 1.4028 6.40314 0
M  V30 1294 H 117.915 -0.259794 5.99237 0
M  V30 1295 H 119.594 0.0949315 6.4693 0
M  V30 1296 N 119.726 -1.57421 0.075193 0
M  V30 1297 C 120.972 -1.93905 -0.594025 0
M  V30 1298 C 121.305 -0.955701 -1.69056 0
M  V30 1299 O 120.58 0.0145373 -1.94495 0
M  V30 1300 C 120.863 -3.40638 -1.1678 0
M  V30 1301 C 120.716 -4.49733 -0.0776792 0
M  V30 1302 C 122.035 -3.88259 -2.07228 0
M  V30 1303 H 119.154 -0.705105 -0.214466 0
M  V30 1304 H 121.796 -1.8947 0.141854 0
M  V30 1305 H 119.946 -3.44549 -1.79494 0
M  V30 1306 H 121.618 -4.57942 0.555573 0
M  V30 1307 H 119.861 -4.29751 0.591286 0
M  V30 1308 H 120.532 -5.49549 -0.519603 0
M  V30 1309 H 123.008 -3.86376 -1.54445 0
M  V30 1310 H 121.884 -4.91533 -2.44308 0
M  V30 1311 H 122.145 -3.26396 -2.98191 0
M  V30 1312 N 121.204 0.198386 -1.56346 0
M  V30 1313 C 122.481 0.944982 -1.71258 0
M  V30 1314 C 122.861 2.0151 -0.629048 0
M  V30 1315 O 122.209 2.25639 0.360473 0
M  V30 1316 C 122.419 1.5344 -3.1346 0
M  V30 1317 C 123.767 2.01778 -3.73591 0
M  V30 1318 O 124.791 1.63288 -3.16568 0
M  V30 1319 O 123.65 2.72594 -4.73661 0
M  V30 1320 H 120.744 0.442939 -0.69838 0
M  V30 1321 H 123.29 0.188342 -1.68652 0
M  V30 1322 H 122.062 0.762869 -3.83792 0
M  V30 1323 H 121.685 2.35596 -3.20282 0
M  V30 1324 N 122.682 1.50554 0.465978 0
M  V30 1325 C 123.629 1.6979 1.56333 0
M  V30 1326 C 124.599 0.539239 1.57103 0
M  V30 1327 O 125.784 0.770401 1.74555 0
M  V30 1328 C 122.924 1.80273 2.94271 0
M  V30 1329 C 122.037 3.07674 3.0325 0
M  V30 1330 C 121.172 3.08922 4.32135 0
M  V30 1331 C 120.211 4.30755 4.34875 0
M  V30 1332 N 119.348 4.29714 5.55239 0
M  V30 1333 H 124.188 2.63472 1.39235 0
M  V30 1334 H 121.725 1.30602 0.676873 0
M  V30 1335 H 123.683 1.84332 3.74269 0
M  V30 1336 H 122.313 0.900258 3.09992 0
M  V30 1337 H 121.365 3.13062 2.16094 0
M  V30 1338 H 122.677 3.97642 3.01135 0
M  V30 1339 H 121.831 3.11738 5.20485 0
M  V30 1340 H 120.57 2.16792 4.36866 0
M  V30 1341 H 119.575 4.28146 3.44922 0
M  V30 1342 H 120.8 5.24117 4.31831 0
M  V30 1343 H 118.746 3.4044 5.60746 0
M  V30 1344 H 118.663 5.13456 5.54886 0
M  V30 1345 H 119.931 4.36683 6.457 0
M  V30 1346 N 124.16 -0.719506 1.40217 0
M  V30 1347 C 125.11 -1.8251 1.36653 0
M  V30 1348 C 126.094 -1.59028 0.244732 0
M  V30 1349 O 127.286 -1.70268 0.483524 0
M  V30 1350 C 124.415 -3.20599 1.22763 0
M  V30 1351 C 123.501 -3.49858 2.39708 0
M  V30 1352 N 123.892 -3.49957 3.6519 0
M  V30 1353 C 122.19 -3.80297 2.33002 0
M  V30 1354 C 122.891 -3.77449 4.42614 0
M  V30 1355 N 121.867 -3.96002 3.72402 0
M  V30 1356 H 125.669 -1.80914 2.31619 0
M  V30 1357 H 123.183 -0.918455 1.33933 0
M  V30 1358 H 125.18 -3.99766 1.18292 0
M  V30 1359 H 123.84 -3.23424 0.287614 0
M  V30 1360 H 124.851 -3.309 3.98404 0
M  V30 1361 H 121.528 -3.90635 1.47346 0
M  V30 1362 H 122.918 -3.83863 5.51451 0
M  V30 1363 N 125.638 -1.25649 -0.95132 0
M  V30 1364 C 126.863 -1.13443 -1.73624 0
M  V30 1365 C 127.288 0.307565 -1.85568 0
M  V30 1366 O 126.646 1.22282 -1.33854 0
M  V30 1367 C 126.694 -1.79723 -3.12621 0
M  V30 1368 O 125.798 -1.07912 -3.98031 0
M  V30 1369 H 125.139 -0.395872 -0.533086 0
M  V30 1370 H 127.669 -1.66276 -1.1922 0
M  V30 1371 H 127.679 -1.86141 -3.63064 0
M  V30 1372 H 126.354 -2.84633 -3.03244 0
M  V30 1373 H 124.931 -1.09398 -3.56492 0
M  V30 1374 N 127.117 1.15442 -1.07289 0
M  V30 1375 C 128.345 1.90096 -0.81676 0
M  V30 1376 C 128.76 1.7798 0.629966 0
M  V30 1377 O 128.117 1.1313 1.43206 0
M  V30 1378 C 128.168 3.40466 -1.21512 0
M  V30 1379 O 127.889 3.52232 -2.60508 0
M  V30 1380 C 129.39 4.32145 -0.988198 0
M  V30 1381 H 126.61 0.602495 -0.295366 0
M  V30 1382 H 129.154 1.4627 -1.42918 0
M  V30 1383 H 127.309 3.81958 -0.647039 0
M  V30 1384 H 127.723 4.45549 -2.76742 0
M  V30 1385 H 129.197 5.36072 -1.31645 0
M  V30 1386 H 129.674 4.39135 0.0755063 0
M  V30 1387 H 130.28 3.96395 -1.54115 0
M  V30 1388 N 128.595 0.856903 1.32268 0
M  V30 1389 C 129.843 0.460474 1.96784 0
M  V30 1390 C 130.164 -0.987701 1.68135 0
M  V30 1391 O 129.434 -1.69058 0.989765 0
M  V30 1392 H 128.014 0.167289 0.728027 0
M  V30 1393 H 130.676 1.09383 1.61312 0
M  V30 1394 H 129.772 0.60739 3.06133 0
M  V30 1395 N 130.073 -1.45103 0.615059 0
M  V30 1396 C 131.321 -2.01784 0.112955 0
M  V30 1397 C 131.642 -1.48504 -1.26378 0
M  V30 1398 O 130.912 -0.682245 -1.83636 0
M  V30 1399 H 129.492 -0.745993 0.0387668 0
M  V30 1400 H 132.154 -1.77808 0.798141 0
M  V30 1401 H 131.25 -3.12025 0.0684069 0
M  V30 1402 N 131.551 -0.354651 -1.53558 0
M  V30 1403 C 132.797 0.238797 -2.01389 0
M  V30 1404 C 133.13 1.49309 -1.2418 0
M  V30 1405 O 132.405 1.91638 -0.332457 0
M  V30 1406 C 132.688 0.541771 -3.56001 0
M  V30 1407 C 132.541 -0.725388 -4.43912 0
M  V30 1408 C 133.86 1.34685 -4.18984 0
M  V30 1409 H 130.979 0.0853177 -0.732045 0
M  V30 1410 H 133.621 -0.477384 -1.83905 0
M  V30 1411 H 131.771 1.15189 -3.71031 0
M  V30 1412 H 133.443 -1.36313 -4.407 0
M  V30 1413 H 131.686 -1.34801 -4.12324 0
M  V30 1414 H 132.357 -0.468505 -5.50008 0
M  V30 1415 H 134.833 0.830837 -4.07721 0
M  V30 1416 H 133.709 1.52759 -5.27215 0
M  V30 1417 H 133.97 2.35221 -3.74331 0
M  V30 1418 N 133.029 1.57378 -0.0835403 0
M  V30 1419 C 134.277 1.93547 0.581718 0
M  V30 1420 C 134.598 0.96524 1.69435 0
M  V30 1421 O 133.868 0.0153369 1.95894 0
M  V30 1422 H 132.448 0.714521 0.217874 0
M  V30 1423 H 135.11 1.94366 -0.144158 0
M  V30 1424 H 134.206 2.95665 0.999423 0
M  V30 1425 N 134.507 -0.190092 1.56449 0
M  V30 1426 C 135.784 -0.935886 1.71757 0
M  V30 1427 C 136.164 -2.01173 0.639726 0
M  V30 1428 O 135.512 -2.25827 -0.348502 0
M  V30 1429 C 135.722 -1.51775 3.1427 0
M  V30 1430 C 137.07 -1.99794 3.74656 0
M  V30 1431 O 138.094 -1.61607 3.1743 0
M  V30 1432 O 136.953 -2.70079 4.751 0
M  V30 1433 H 134.047 -0.439229 0.700719 0
M  V30 1434 H 136.593 -0.179395 1.68749 0
M  V30 1435 H 135.365 -0.742505 3.84191 0
M  V30 1436 H 134.988 -2.33894 3.21527 0
M  V30 1437 N 135.985 -1.50799 -0.457987 0
M  V30 1438 C 137.231 -1.62683 -1.21088 0
M  V30 1439 C 137.564 -0.332268 -1.91336 0
M  V30 1440 O 136.839 0.667043 -1.82704 0
M  V30 1441 C 137.122 -2.81615 -2.24422 0
M  V30 1442 C 136.975 -4.20989 -1.58392 0
M  V30 1443 C 138.294 -2.96085 -3.2561 0
M  V30 1444 H 135.413 -0.592087 -0.438864 0
M  V30 1445 H 138.055 -1.83225 -0.50286 0
M  V30 1446 H 136.205 -2.64231 -2.84806 0
M  V30 1447 H 137.877 -4.49994 -1.01504 0
M  V30 1448 H 136.12 -4.24641 -0.886704 0
M  V30 1449 H 136.791 -5.0016 -2.33547 0
M  V30 1450 H 139.267 -3.12042 -2.75262 0
M  V30 1451 H 138.143 -3.80902 -3.95228 0
M  V30 1452 H 138.404 -2.0726 -3.90507 0
M  V30 1453 N 137.463 0.71206 -1.40597 0
M  V30 1454 C 138.691 1.50111 -1.42388 0
M  V30 1455 C 139.106 1.88784 -0.0245395 0
M  V30 1456 O 138.463 1.55681 0.952351 0
M  V30 1457 C 138.514 2.7742 -2.31776 0
M  V30 1458 O 138.235 2.40382 -3.66262 0
M  V30 1459 C 139.736 3.7129 -2.42196 0
M  V30 1460 H 136.956 0.46314 -0.485533 0
M  V30 1461 H 139.5 0.878068 -1.8469 0
M  V30 1462 H 137.655 3.36001 -1.92827 0
M  V30 1463 H 138.069 3.22324 -4.13772 0
M  V30 1464 H 139.543 4.57448 -3.08943 0
M  V30 1465 H 140.02 4.14641 -1.44809 0
M  V30 1466 H 140.626 3.18619 -2.81712 0
M  V30 1467 N 138.941 1.26152 0.944643 0
M  V30 1468 C 140.166 1.14363 1.7302 0
M  V30 1469 C 140.591 -0.29772 1.85729 0
M  V30 1470 O 139.949 -1.2157 1.34501 0
M  V30 1471 C 139.997 1.81378 3.11664 0
M  V30 1472 O 139.101 1.10022 3.97453 0
M  V30 1473 H 138.442 0.398694 0.53098 0
M  V30 1474 H 140.972 1.66906 1.18337 0
M  V30 1475 H 140.982 1.88064 3.62072 0
M  V30 1476 H 139.657 2.86237 3.0173 0
M  V30 1477 H 138.234 1.11287 3.55907 0
M  V30 1478 N 140.419 -1.14872 1.07899 0
M  V30 1479 C 141.349 -2.2193 0.725887 0
M  V30 1480 C 142.33 -1.67622 -0.28927 0
M  V30 1481 O 143.515 -1.93533 -0.160787 0
M  V30 1482 C 140.645 -3.47061 0.128856 0
M  V30 1483 C 139.599 -4.14363 1.07178 0
M  V30 1484 C 138.925 -5.33636 0.337229 0
M  V30 1485 C 140.225 -4.63492 2.40775 0
M  V30 1486 H 141.919 -2.51724 1.62097 0
M  V30 1487 H 139.465 -1.20991 0.780838 0
M  V30 1488 H 141.418 -4.21199 -0.130147 0
M  V30 1489 H 140.142 -3.16617 -0.80134 0
M  V30 1490 H 138.801 -3.42173 1.3158 0
M  V30 1491 H 138.449 -4.99449 -0.596606 0
M  V30 1492 H 138.149 -5.79609 0.965788 0
M  V30 1493 H 139.673 -6.10539 0.0861567 0
M  V30 1494 H 141.087 -5.2913 2.20669 0
M  V30 1495 H 139.484 -5.20148 2.99276 0
M  V30 1496 H 140.554 -3.78834 3.02676 0
M  V30 1497 N 141.898 -0.863906 -1.31812 0
M  V30 1498 C 142.831 -0.259963 -2.26714 0
M  V30 1499 C 143.809 0.607392 -1.50829 0
M  V30 1500 O 144.993 0.562155 -1.79922 0
M  V30 1501 C 142.12 0.632456 -3.32743 0
M  V30 1502 C 141.166 -0.162743 -4.26189 0
M  V30 1503 S 141.999 -1.53726 -5.12961 0
M  V30 1504 C 143.155 -0.650803 -6.22507 0
M  V30 1505 H 143.388 -1.06445 -2.77591 0
M  V30 1506 H 140.921 -0.662071 -1.39485 0
M  V30 1507 H 142.879 1.14167 -3.94305 0
M  V30 1508 H 141.54 1.41083 -2.80632 0
M  V30 1509 H 140.733 0.517366 -5.01338 0
M  V30 1510 H 140.335 -0.60385 -3.69093 0
M  V30 1511 H 142.627 0.141134 -6.77353 0
M  V30 1512 H 143.57 -1.37322 -6.94657 0
M  V30 1513 H 143.978 -0.221041 -5.64067 0
M  V30 1514 N 143.376 1.44774 -0.622745 0
M  V30 1515 C 144.306 2.33382 0.0741861 0
M  V30 1516 C 145.287 1.47719 0.843387 0
M  V30 1517 O 146.472 1.76458 0.810934 0
M  V30 1518 C 143.602 3.30663 1.06204 0
M  V30 1519 C 142.556 4.26079 0.405037 0
M  V30 1520 C 141.882 5.13165 1.5022 0
M  V30 1521 C 143.182 5.1781 -0.683414 0
M  V30 1522 H 144.876 2.91905 -0.665713 0
M  V30 1523 H 142.422 1.40363 -0.321587 0
M  V30 1524 H 144.375 3.9153 1.55827 0
M  V30 1525 H 143.099 2.70331 1.83272 0
M  V30 1526 H 141.758 3.66532 -0.0704683 0
M  V30 1527 H 141.406 4.49191 2.26355 0
M  V30 1528 H 141.106 5.77812 1.06803 0
M  V30 1529 H 142.63 5.76902 2.00041 0
M  V30 1530 H 144.044 5.72661 -0.270631 0
M  V30 1531 H 142.441 5.91015 -1.04023 0
M  V30 1532 H 143.511 4.59326 -1.55395 0
M  V30 1533 N 144.854 0.36279 1.53368 0
M  V30 1534 C 146.102 -0.227326 2.00817 0
M  V30 1535 C 146.423 -1.49511 1.25186 0
M  V30 1536 O 145.693 -1.92482 0.364348 0
M  V30 1537 H 144.273 -0.0869923 0.741917 0
M  V30 1538 H 146.935 0.488381 1.88682 0
M  V30 1539 H 146.031 -0.456273 3.08747 0
M  V30 1540 N 146.332 -1.57332 0.0918853 0
M  V30 1541 C 147.743 -1.81496 -0.437739 0
M  V30 1542 C 148.094 -1.00727 -1.6837 0
M  V30 1543 O 147.219 -0.235694 -2.15113 0
M  V30 1544 C 147.814 -3.29197 -0.800939 0
M  V30 1545 C 146.373 -3.54136 -1.27532 0
M  V30 1546 C 145.52 -2.75979 -0.270392 0
M  V30 1547 H 148.471 -1.55494 0.317366 0
M  V30 1548 H 148.492 -3.42344 -1.66074 0
M  V30 1549 H 148.004 -3.87955 0.106078 0
M  V30 1550 H 146.105 -3.00705 -2.20016 0
M  V30 1551 H 146.218 -4.62792 -1.23938 0
M  V30 1552 H 144.582 -2.43349 -0.751872 0
M  V30 1553 H 145.365 -3.37484 0.629248 0
M  V30 1554 N 147.81 0.181792 -1.56548 0
M  V30 1555 C 148.743 1.25366 -1.90679 0
M  V30 1556 C 149.721 1.43299 -0.768376 0
M  V30 1557 O 150.905 1.58475 -1.02068 0
M  V30 1558 C 148.032 2.61826 -2.1486 0
M  V30 1559 C 147.078 2.60688 -3.37556 0
M  V30 1560 S 147.911 2.10804 -4.92262 0
M  V30 1561 C 149.067 3.49062 -5.19525 0
M  V30 1562 H 149.3 0.962277 -2.81296 0
M  V30 1563 H 146.833 0.385892 -1.495 0
M  V30 1564 H 148.791 3.40371 -2.29473 0
M  V30 1565 H 147.452 2.88169 -1.24969 0
M  V30 1566 H 146.645 3.61058 -3.51643 0
M  V30 1567 H 146.247 1.90232 -3.22006 0
M  V30 1568 H 148.539 4.45003 -5.10861 0
M  V30 1569 H 149.482 3.39859 -6.2121 0
M  V30 1570 H 149.89 3.4459 -4.47122 0
M  V30 1571 N 149.288 1.51039 0.449983 0
M  V30 1572 C 150.534 1.63322 1.20223 0
M  V30 1573 C 150.867 0.34241 1.91158 0
M  V30 1574 O 150.142 -0.657344 1.83055 0
M  V30 1575 C 150.425 2.82801 2.22925 0
M  V30 1576 C 150.278 4.21823 1.56157 0
M  V30 1577 C 151.597 2.97807 3.24035 0
M  V30 1578 H 148.716 0.594407 0.435718 0
M  V30 1579 H 151.358 1.83489 0.493136 0
M  V30 1580 H 149.508 2.65738 2.834 0
M  V30 1581 H 151.18 4.50526 0.991162 0
M  V30 1582 H 149.423 4.25105 0.864172 0
M  V30 1583 H 150.094 5.01391 2.30891 0
M  V30 1584 H 152.57 3.13497 2.73603 0
M  V30 1585 H 151.446 3.82992 3.93202 0
M  V30 1586 H 151.707 2.09328 3.89402 0
M  V30 1587 N 150.766 -0.704594 1.40972 0
M  V30 1588 C 151.729 -1.80035 1.41845 0
M  V30 1589 C 152.729 -1.57774 0.310474 0
M  V30 1590 O 153.919 -1.64613 0.56992 0
M  V30 1591 C 151.051 -3.18284 1.22098 0
M  V30 1592 H 152.244 -1.80658 2.3938 0
M  V30 1593 H 149.797 -0.911329 1.26982 0
M  V30 1594 H 150.532 -3.23306 0.253672 0
M  V30 1595 H 150.317 -3.35843 2.02366 0
M  V30 1596 H 151.807 -3.98289 1.25522 0
M  V30 1597 N 152.244 -1.26651 -0.937939 0
M  V30 1598 C 153.207 -1.08546 -2.01867 0
M  V30 1599 C 154.207 -0.0327327 -1.60767 0
M  V30 1600 O 155.397 -0.276427 -1.71993 0
M  V30 1601 C 152.529 -0.651711 -3.34613 0
M  V30 1602 H 153.722 -2.04502 -2.1936 0
M  V30 1603 H 151.275 -1.09294 -1.11734 0
M  V30 1604 H 152.01 0.309696 -3.22818 0
M  V30 1605 H 151.795 -1.41189 -3.65798 0
M  V30 1606 H 153.285 -0.546973 -4.14002 0
M  V30 1607 N 153.722 1.14298 -1.08507 0
M  V30 1608 C 154.962 1.87016 -0.824894 0
M  V30 1609 C 155.326 1.81099 0.637735 0
M  V30 1610 O 156.527 2.48963 1.01345 0
M  V30 1611 C 154.798 3.31584 -1.33368 0
M  V30 1612 S 156.357 4.21903 -1.20596 0
M  V30 1613 H 153.175 0.645259 -0.2986 0
M  V30 1614 H 155.777 1.37822 -1.38656 0
M  V30 1615 H 154.481 3.33439 -2.39262 0
M  V30 1616 H 154.012 3.85836 -0.767734 0
M  V30 1617 H 156.027 4.95971 -0.150891 0
M  V30 1618 N 155.201 0.870884 1.31352 0
M  V30 1619 C 156.449 0.48132 1.96285 0
M  V30 1620 C 156.77 -0.969813 1.69173 0
M  V30 1621 O 156.04 -1.67998 1.00764 0
M  V30 1622 H 154.62 0.175002 0.726212 0
M  V30 1623 H 157.282 1.11087 1.60143 0
M  V30 1624 H 156.378 0.639825 3.05471 0
M  V30 1625 N 156.679 -1.44442 0.630414 0
M  V30 1626 C 157.927 -2.01653 0.134351 0
M  V30 1627 C 158.248 -1.49836 -1.24796 0
M  V30 1628 O 157.518 -0.701684 -1.82902 0
M  V30 1629 H 156.098 -0.74554 0.0466769 0
M  V30 1630 H 158.76 -1.76952 0.816955 0
M  V30 1631 H 157.856 -3.11935 0.101498 0
M  V30 1632 N 158.157 -0.370918 -1.53173 0
M  V30 1633 C 159.387 0.217389 -2.05453 0
M  V30 1634 C 159.795 1.42568 -1.24382 0
M  V30 1635 O 159.138 1.81571 -0.278839 0
M  V30 1636 C 159.2 0.669827 -3.53205 0
M  V30 1637 C 158.864 -0.4225 -4.55043 0
M  V30 1638 C 159.861 -1.27407 -5.04047 0
M  V30 1639 C 157.546 -0.58427 -4.9889 0
M  V30 1640 C 159.54 -2.27271 -5.95505 0
M  V30 1641 C 157.227 -1.58627 -5.90153 0
M  V30 1642 C 158.225 -2.42892 -6.38351 0
M  V30 1643 O 157.913 -3.41382 -7.27814 0
M  V30 1644 H 157.645 0.0408171 -0.674767 0
M  V30 1645 H 160.199 -0.5292 -1.98466 0
M  V30 1646 H 158.429 1.4681 -3.57748 0
M  V30 1647 H 160.118 1.18173 -3.88317 0
M  V30 1648 H 160.884 -1.16031 -4.70916 0
M  V30 1649 H 156.763 0.061851 -4.60959 0
M  V30 1650 H 160.307 -2.93079 -6.33049 0
M  V30 1651 H 156.204 -1.70048 -6.22699 0
M  V30 1652 H 156.972 -3.37173 -7.45826 0
M  V30 1653 N 159.635 1.57281 -0.100228 0
M  V30 1654 C 160.884 1.93713 0.561984 0
M  V30 1655 C 161.197 0.984492 1.69018 0
M  V30 1656 O 162.403 1.24273 2.41389 0
M  V30 1657 C 160.859 3.4421 1.05106 0
M  V30 1658 C 160.467 4.47975 -0.0476628 0
M  V30 1659 C 162.211 3.89595 1.68571 0
M  V30 1660 C 160.118 5.89631 0.457055 0
M  V30 1661 H 159.048 0.723082 0.2137 0
M  V30 1662 H 161.699 1.82644 -0.177057 0
M  V30 1663 H 160.081 3.50449 1.84395 0
M  V30 1664 H 161.255 4.53385 -0.823333 0
M  V30 1665 H 159.57 4.1223 -0.587816 0
M  V30 1666 H 162.167 4.92832 2.07414 0
M  V30 1667 H 162.51 3.28526 2.55688 0
M  V30 1668 H 163.043 3.86078 0.958562 0
M  V30 1669 H 159.782 6.54411 -0.377616 0
M  V30 1670 H 159.302 5.87681 1.19962 0
M  V30 1671 H 160.981 6.40363 0.92437 0
M  V30 1672 N 161.113 -0.173488 1.56642 0
M  V30 1673 C 162.524 -0.736155 1.71574 0
M  V30 1674 C 162.875 -1.82888 0.710389 0
M  V30 1675 O 162 -2.16017 -0.1287 0
M  V30 1676 C 162.595 -1.34211 3.11083 0
M  V30 1677 C 161.154 -1.85162 3.27707 0
M  V30 1678 C 160.301 -0.729765 2.67525 0
M  V30 1679 H 163.252 0.0518786 1.58615 0
M  V30 1680 H 163.273 -2.21178 3.09613 0
M  V30 1681 H 162.785 -0.546579 3.84232 0
M  V30 1682 H 160.886 -2.67366 2.59512 0
M  V30 1683 H 160.999 -1.99855 4.35425 0
M  V30 1684 H 159.363 -1.14965 2.27278 0
M  V30 1685 H 160.146 0.0538806 3.43258 0
M  V30 1686 N 162.591 -1.51276 -0.441967 0
M  V30 1687 C 163.524 -1.66933 -1.55591 0
M  V30 1688 C 164.502 -0.516958 -1.54163 0
M  V30 1689 O 165.686 -0.740209 -1.73358 0
M  V30 1690 C 162.813 -1.67866 -2.94174 0
M  V30 1691 C 161.859 -2.89013 -3.13646 0
M  V30 1692 S 162.692 -4.49897 -2.90436 0
M  V30 1693 C 163.848 -4.53568 -4.31308 0
M  V30 1694 H 164.081 -2.61155 -1.42076 0
M  V30 1695 H 161.614 -1.40902 -0.631341 0
M  V30 1696 H 163.572 -1.69089 -3.74058 0
M  V30 1697 H 162.233 -0.748296 -3.05056 0
M  V30 1698 H 161.426 -2.86054 -4.14957 0
M  V30 1699 H 161.028 -2.85509 -2.4158 0
M  V30 1700 H 163.32 -4.28924 -5.24434 0
M  V30 1701 H 164.263 -5.55355 -4.39303 0
M  V30 1702 H 164.671 -3.82943 -4.14747 0
M  V30 1703 N 164.069 0.697108 -1.41344 0
M  V30 1704 C 165.318 1.45279 -1.39918 0
M  V30 1705 C 165.631 1.95597 -0.0109624 0
M  V30 1706 O 166.837 2.71208 0.125919 0
M  V30 1707 C 165.293 2.62695 -2.46007 0
M  V30 1708 C 164.901 2.19169 -3.90729 0
M  V30 1709 C 166.645 3.40336 -2.53715 0
M  V30 1710 C 164.552 3.33535 -4.88373 0
M  V30 1711 H 163.482 0.545692 -0.520323 0
M  V30 1712 H 166.133 0.756929 -1.67161 0
M  V30 1713 H 164.515 3.34541 -2.11892 0
M  V30 1714 H 165.689 1.54623 -4.34083 0
M  V30 1715 H 164.004 1.54525 -3.86666 0
M  V30 1716 H 166.601 4.2547 -3.2385 0
M  V30 1717 H 166.944 3.85418 -1.5735 0
M  V30 1718 H 167.477 2.75546 -2.86913 0
M  V30 1719 H 164.216 2.93468 -5.86137 0
M  V30 1720 H 163.736 3.96936 -4.49668 0
M  V30 1721 H 165.415 3.99335 -5.09059 0
M  V30 1722 N 165.547 1.27147 0.931209 0
M  V30 1723 C 166.772 1.16191 1.71797 0
M  V30 1724 C 167.197 -0.278004 1.86034 0
M  V30 1725 O 166.555 -1.20137 1.35782 0
M  V30 1726 C 166.603 1.84673 3.09723 0
M  V30 1727 O 165.707 1.14231 3.96264 0
M  V30 1728 H 165.048 0.404303 0.526721 0
M  V30 1729 H 167.578 1.68152 1.1656 0
M  V30 1730 H 167.588 1.91893 3.60057 0
M  V30 1731 H 166.263 2.89421 2.98677 0
M  V30 1732 H 164.84 1.15056 3.54706 0
M  V30 1733 N 167.025 -1.13721 1.09112 0
M  V30 1734 C 168.273 -1.84559 0.823562 0
M  V30 1735 C 168.594 -1.83754 -0.652658 0
M  V30 1736 O 167.864 -1.29102 -1.47342 0
M  V30 1737 H 166.444 -0.683376 0.301673 0
M  V30 1738 H 169.106 -1.37771 1.37859 0
M  V30 1739 H 168.202 -2.8917 1.17419 0
M  V30 1740 N 168.503 -0.877838 -1.30888 0
M  V30 1741 C 169.919 -0.570844 -1.49042 0
M  V30 1742 C 170.119 0.893159 -1.80624 0
M  V30 1743 O 169.175 1.67485 -1.88958 0
M  V30 1744 C 170.488 -1.47784 -2.61878 0
M  V30 1745 C 172.036 -1.48071 -2.75761 0
M  V30 1746 C 172.511 -2.37347 -3.91702 0
M  V30 1747 N 174.002 -2.35271 -3.99001 0
M  V30 1748 C 174.737 -3.01063 -4.88004 0
M  V30 1749 N 174.233 -3.76055 -5.81854 0
M  V30 1750 N 176.026 -2.90332 -4.81315 0
M  V30 1751 H 168.177 -1.82502 -1.0866 0
M  V30 1752 H 170.44 -0.780797 -0.537644 0
M  V30 1753 H 170.146 -2.51993 -2.45341 0
M  V30 1754 H 170.02 -1.18215 -3.58197 0
M  V30 1755 H 172.407 -0.446166 -2.91708 0
M  V30 1756 H 172.488 -1.81668 -1.80085 0
M  V30 1757 H 172.132 -3.40883 -3.76512 0
M  V30 1758 H 172.062 -2.01071 -4.86701 0
M  V30 1759 H 174.553 -1.80768 -3.3186 0
M  V30 1760 H 174.866 -4.23366 -6.46514 0
M  V30 1761 H 173.211 -3.80163 -5.81808 0
M  V30 1762 H 176.402 -2.31278 -4.06974 0
M  V30 1763 H 176.575 -3.41885 -5.50471 0
M  V30 1764 N 169.982 1.44106 -0.638065 0
M  V30 1765 C 171.23 2.01579 -0.145043 0
M  V30 1766 C 171.551 1.50496 1.24 0
M  V30 1767 O 170.821 0.711374 1.82527 0
M  V30 1768 H 169.401 0.745282 -0.05063 0
M  V30 1769 H 172.063 1.76516 -0.826327 0
M  V30 1770 H 171.159 3.11877 -0.118039 0
M  V30 1771 N 171.46 0.379036 1.52974 0
M  V30 1772 C 172.39 -0.452706 2.29069 0
M  V30 1773 C 173.371 -1.07237 1.32039 0
M  V30 1774 O 174.556 -1.08708 1.60923 0
M  V30 1775 C 171.686 -1.5856 3.08992 0
M  V30 1776 C 170.64 -1.0925 4.13822 0
M  V30 1777 C 169.966 -2.31668 4.81907 0
M  V30 1778 C 171.266 -0.167702 5.22031 0
M  V30 1779 H 172.96 0.182181 2.98845 0
M  V30 1780 H 170.506 0.0890592 1.43724 0
M  V30 1781 H 172.459 -2.1742 3.6098 0
M  V30 1782 H 171.183 -2.24792 2.36931 0
M  V30 1783 H 169.842 -0.526494 3.628 0
M  V30 1784 H 169.49 -2.96386 4.06404 0
M  V30 1785 H 169.19 -1.9934 5.52754 0
M  V30 1786 H 170.714 -2.91189 5.36695 0
M  V30 1787 H 172.128 -0.664186 5.6944 0
M  V30 1788 H 170.525 0.0653265 6.00064 0
M  V30 1789 H 171.595 0.786347 4.78482 0
M  V30 1790 N 172.938 -1.57226 0.108567 0
M  V30 1791 C 174.186 -1.94448 -0.550853 0
M  V30 1792 C 174.507 -0.992074 -1.67878 0
M  V30 1793 O 173.777 -0.0465 -1.95845 0
M  V30 1794 H 172.357 -0.717897 -0.206479 0
M  V30 1795 H 175.019 -1.94112 0.175062 0
M  V30 1796 H 174.115 -2.97218 -0.952259 0
M  V30 1797 N 174.416 0.165178 -1.56732 0
M  V30 1798 C 175.366 1.20917 -1.93295 0
M  V30 1799 C 176.35 1.39488 -0.801985 0
M  V30 1800 O 177.542 1.41356 -1.06525 0
M  V30 1801 C 174.671 2.54718 -2.3016 0
M  V30 1802 C 173.757 2.39815 -3.49785 0
M  V30 1803 N 174.148 1.94637 -4.66851 0
M  V30 1804 C 172.446 2.70623 -3.54513 0
M  V30 1805 C 173.147 1.92344 -5.4898 0
M  V30 1806 N 172.123 2.34978 -4.9019 0
M  V30 1807 H 175.925 0.851675 -2.81289 0
M  V30 1808 H 173.439 0.373399 -1.58049 0
M  V30 1809 H 175.436 3.30165 -2.54552 0
M  V30 1810 H 174.096 2.91265 -1.43508 0
M  V30 1811 H 175.107 1.6488 -4.90953 0
M  V30 1812 H 171.784 3.11167 -2.78354 0
M  V30 1813 H 173.174 1.5906 -6.52801 0
M  V30 1814 N 175.894 1.51508 0.433938 0
M  V30 1815 C 177.122 1.68157 1.20543 0
M  V30 1816 C 177.537 0.380362 1.84929 0
M  V30 1817 O 176.894 -0.641446 1.70856 0
M  V30 1818 C 176.945 2.79965 2.28696 0
M  V30 1819 O 176.666 4.05045 1.66943 0
M  V30 1820 C 178.167 3.07912 3.18912 0
M  V30 1821 H 175.387 0.56421 0.363191 0
M  V30 1822 H 177.931 1.97941 0.513754 0
M  V30 1823 H 176.086 2.5277 2.93574 0
M  V30 1824 H 176.5 4.67165 2.38448 0
M  V30 1825 H 177.974 3.89719 3.90926 0
M  V30 1826 H 178.451 2.20456 3.79863 0
M  V30 1827 H 179.057 3.36779 2.59731 0
M  V30 1828 N 177.372 -0.689602 1.41712 0
M  V30 1829 C 178.62 -1.4468 1.4111 0
M  V30 1830 C 178.941 -1.94986 0.0232196 0
M  V30 1831 O 178.211 -1.72097 -0.935913 0
M  V30 1832 H 176.791 -0.536847 0.519427 0
M  V30 1833 H 179.453 -0.815825 1.77004 0
M  V30 1834 H 178.549 -2.30706 2.10193 0
M  V30 1835 N 178.85 -1.27639 -0.924453 0
M  V30 1836 C 180.098 -1.13941 -1.66918 0
M  V30 1837 C 180.419 0.314589 -1.92446 0
M  V30 1838 O 179.689 1.21964 -1.53303 0
M  V30 1839 H 178.269 -0.418678 -0.618642 0
M  V30 1840 H 180.931 -1.60213 -1.10985 0
M  V30 1841 H 180.027 -1.67094 -2.63602 0
M  V30 1842 N 180.328 1.1314 -1.09713 0
M  V30 1843 C 181.556 1.88321 -0.856898 0
M  V30 1844 C 181.971 1.79276 0.592073 0
M  V30 1845 O 181.328 1.16142 1.40774 0
M  V30 1846 C 181.379 3.37812 -1.28706 0
M  V30 1847 O 181.1 3.46627 -2.67921 0
M  V30 1848 C 182.601 4.29952 -1.07964 0
M  V30 1849 H 179.821 0.596094 -0.308079 0
M  V30 1850 H 182.365 1.43205 -1.45988 0
M  V30 1851 H 180.52 3.805 -0.727912 0
M  V30 1852 H 180.934 4.39579 -2.8613 0
M  V30 1853 H 182.408 5.33159 -1.42986 0
M  V30 1854 H 182.885 4.39196 -0.0176577 0
M  V30 1855 H 183.491 3.93036 -1.62489 0
M  V30 1856 N 181.806 0.884767 1.30421 0
M  V30 1857 C 182.736 0.367574 2.30589 0
M  V30 1858 C 183.717 -0.549464 1.60981 0
M  V30 1859 O 184.902 -0.46336 1.88591 0
M  V30 1860 C 182.032 -0.418944 3.44764 0
M  V30 1861 C 180.986 0.406316 4.26067 0
M  V30 1862 C 180.312 -0.506793 5.32293 0
M  V30 1863 C 181.612 1.64832 4.95608 0
M  V30 1864 H 183.306 1.20462 2.74097 0
M  V30 1865 H 180.852 0.580695 1.31772 0
M  V30 1866 H 182.805 -0.791395 4.13902 0
M  V30 1867 H 181.529 -1.28964 3.0006 0
M  V30 1868 H 180.188 0.760903 3.58617 0
M  V30 1869 H 179.836 -1.37519 4.83836 0
M  V30 1870 H 179.536 0.0415828 5.87585 0
M  V30 1871 H 181.06 -0.875764 6.04287 0
M  V30 1872 H 182.474 1.34646 5.57264 0
M  V30 1873 H 180.871 2.13688 5.60765 0
M  V30 1874 H 181.941 2.39284 4.21748 0
M  V30 1875 N 183.284 -1.43765 0.645699 0
M  V30 1876 C 184.561 -1.9541 0.0862963 0
M  V30 1877 C 184.941 -1.58725 -1.39175 0
M  V30 1878 O 184.289 -0.868581 -2.11348 0
M  V30 1879 C 184.499 -3.47488 0.324565 0
M  V30 1880 C 185.847 -4.24001 0.225497 0
M  V30 1881 O 186.871 -3.55274 0.256715 0
M  V30 1882 O 185.73 -5.46313 0.142801 0
M  V30 1883 H 182.824 -0.826882 -0.0139483 0
M  V30 1884 H 185.37 -1.53743 0.718415 0
M  V30 1885 H 184.142 -3.67289 1.3496 0
M  V30 1886 H 183.765 -3.96135 -0.340987 0
M  V30 1887 N 184.763 -0.387143 -1.52771 0
M  V30 1888 C 185.71 0.449048 -2.26389 0
M  V30 1889 C 186.68 1.05961 -1.27912 0
M  V30 1890 O 187.865 1.08804 -1.56737 0
M  V30 1891 C 185.005 1.57155 -3.0724 0
M  V30 1892 C 184.118 0.984066 -4.20643 0
M  V30 1893 C 183.253 2.07745 -4.88892 0
M  V30 1894 C 182.292 1.46574 -5.94292 0
M  V30 1895 N 181.429 2.49834 -6.56146 0
M  V30 1896 H 186.269 -0.185205 -2.97424 0
M  V30 1897 H 183.806 -0.103164 -1.46738 0
M  V30 1898 H 185.764 2.23309 -3.52405 0
M  V30 1899 H 184.394 2.17615 -2.38419 0
M  V30 1900 H 183.446 0.212193 -3.79808 0
M  V30 1901 H 184.758 0.497029 -4.96318 0
M  V30 1902 H 183.912 2.81673 -5.3735 0
M  V30 1903 H 182.651 2.59807 -4.12737 0
M  V30 1904 H 181.656 0.711696 -5.45174 0
M  V30 1905 H 182.881 0.953088 -6.72379 0
M  V30 1906 H 180.827 3.0107 -5.82832 0
M  V30 1907 H 180.744 2.05879 -7.27427 0
M  V30 1908 H 182.012 3.23399 -7.09249 0
M  V30 1909 N 186.241 1.57166 -0.116904 0
M  V30 1910 C 187.171 2.18222 0.830759 0
M  V30 1911 C 188.152 1.12167 1.27877 0
M  V30 1912 O 189.337 1.40394 1.34176 0
M  V30 1913 C 186.467 2.77996 2.08172 0
M  V30 1914 C 185.421 3.89614 1.77157 0
M  V30 1915 C 184.747 4.36187 3.09265 0
M  V30 1916 C 186.047 5.1181 1.04151 0
M  V30 1917 H 187.741 2.97664 0.321992 0
M  V30 1918 H 185.287 1.4318 0.153434 0
M  V30 1919 H 187.24 3.19366 2.74924 0
M  V30 1920 H 185.964 1.9584 2.6137 0
M  V30 1921 H 184.623 3.48816 1.12796 0
M  V30 1922 H 184.271 3.50893 3.60393 0
M  V30 1923 H 183.971 5.11455 2.89288 0
M  V30 1924 H 185.495 4.80207 3.77139 0
M  V30 1925 H 186.909 5.50214 1.61052 0
M  V30 1926 H 185.306 5.92648 0.942762 0
M  V30 1927 H 186.376 4.84892 0.0279022 0
M  V30 1928 N 187.719 -0.156864 1.56817 0
M  V30 1929 C 188.629 -1.2136 2.00771 0
M  V30 1930 C 189.645 -1.47598 0.921459 0
M  V30 1931 O 190.821 -1.59462 1.2302 0
M  V30 1932 C 187.886 -2.52943 2.37109 0
M  V30 1933 C 186.947 -2.34439 3.59634 0
M  V30 1934 C 186.18 -3.59748 3.94229 0
M  V30 1935 O 186.403 -4.65526 3.29609 0
M  V30 1936 O 185.337 -3.52998 4.8752 0
M  V30 1937 H 189.163 -0.870468 2.90958 0
M  V30 1938 H 186.748 -0.36484 1.44877 0
M  V30 1939 H 188.63 -3.30538 2.61386 0
M  V30 1940 H 187.305 -2.86806 1.5008 0
M  V30 1941 H 186.212 -1.54828 3.40557 0
M  V30 1942 H 187.545 -2.05496 4.4725 0
M  V30 1943 N 189.197 -1.51736 -0.425897 0
M  V30 1944 C 190.422 -1.69082 -1.20108 0
M  V30 1945 C 190.847 -0.392398 -1.83962 0
M  V30 1946 O 190.205 0.64858 -1.69302 0
M  V30 1947 C 190.253 -2.81604 -2.25237 0
M  V30 1948 O 189.357 -2.46004 -3.30992 0
M  V30 1949 H 188.698 -0.563408 -0.35138 0
M  V30 1950 H 191.228 -1.98358 -0.501512 0
M  V30 1951 H 191.238 -3.06025 -2.69838 0
M  V30 1952 H 189.913 -3.75817 -1.78142 0
M  V30 1953 H 188.49 -2.32195 -2.91787 0
M  V30 1954 N 190.675 0.682077 -1.42076 0
M  V30 1955 C 191.924 1.43786 -1.41451 0
M  V30 1956 C 192.237 1.95574 -0.0317074 0
M  V30 1957 O 193.443 2.71326 0.0971462 0
M  V30 1958 C 191.899 2.60071 -2.48779 0
M  V30 1959 C 191.507 2.15013 -3.93031 0
M  V30 1960 C 193.251 3.37626 -2.57311 0
M  V30 1961 C 191.158 3.28336 -4.91883 0
M  V30 1962 H 190.088 0.540143 -0.526082 0
M  V30 1963 H 192.739 0.739157 -1.67955 0
M  V30 1964 H 191.121 3.32275 -2.15429 0
M  V30 1965 H 192.295 1.5001 -4.35699 0
M  V30 1966 H 190.61 1.50416 -3.88284 0
M  V30 1967 H 193.207 4.22012 -3.28345 0
M  V30 1968 H 193.55 3.83727 -1.61429 0
M  V30 1969 H 194.083 2.72488 -2.89819 0
M  V30 1970 H 190.822 2.87234 -5.89217 0
M  V30 1971 H 190.342 3.92145 -4.53853 0
M  V30 1972 H 192.021 3.93913 -5.13265 0
M  V30 1973 N 192.153 1.28127 0.917671 0
M  V30 1974 C 193.564 1.13622 1.48145 0
M  V30 1975 C 193.915 -0.275207 1.9426 0
M  V30 1976 O 193.04 -1.1691 1.82102 0
M  V30 1977 C 193.635 2.05648 2.69248 0
M  V30 1978 C 192.194 1.95219 3.21818 0
M  V30 1979 C 191.341 1.97618 1.94532 0
M  V30 1980 H 194.292 1.40874 0.730772 0
M  V30 1981 H 194.313 1.61818 3.44377 0
M  V30 1982 H 193.825 3.08365 2.35653 0
M  V30 1983 H 191.926 0.955244 3.60147 0
M  V30 1984 H 192.039 2.81976 3.87333 0
M  V30 1985 H 190.403 1.41973 2.11461 0
M  V30 1986 H 191.186 3.02007 1.63238 0
M  V30 1987 N 193.631 -1.12557 1.10312 0
M  V30 1988 C 194.879 -1.83675 0.843091 0
M  V30 1989 C 195.2 -1.84435 -0.633131 0
M  V30 1990 O 194.47 -1.30657 -1.45964 0
M  V30 1991 H 193.05 -0.680138 0.308904 0
M  V30 1992 H 195.712 -1.36301 1.39313 0
M  V30 1993 H 194.808 -2.87908 1.2048 0
M  V30 1994 N 195.109 -0.891671 -1.2995 0
M  V30 1995 C 196.356 -0.513501 -1.95881 0
M  V30 1996 C 196.684 0.938655 -1.70351 0
M  V30 1997 O 195.939 1.67936 -1.00478 0
M  V30 1998 C 196.238 -0.742868 -3.49594 0
M  V30 1999 C 195.904 -2.17114 -3.95186 0
M  V30 2000 C 194.566 -2.56169 -4.07346 0
M  V30 2001 C 196.918 -3.10162 -4.18866 0
M  V30 2002 C 194.246 -3.87469 -4.4055 0
M  V30 2003 C 196.598 -4.41001 -4.53542 0
M  V30 2004 C 195.262 -4.79941 -4.63911 0
M  V30 2005 H 194.532 -0.187903 -0.71678 0
M  V30 2006 H 197.179 -1.1288 -1.54694 0
M  V30 2007 H 195.484 -0.044586 -3.91775 0
M  V30 2008 H 197.181 -0.429767 -3.9869 0
M  V30 2009 H 193.771 -1.85801 -3.86233 0
M  V30 2010 H 197.955 -2.81206 -4.08946 0
M  V30 2011 H 193.211 -4.17371 -4.46779 0
M  V30 2012 H 197.385 -5.13133 -4.70815 0
M  V30 2013 H 195.012 -5.81719 -4.89395 0
M  V30 2014 N 196.587 1.43421 -0.653314 0
M  V30 2015 C 197.864 1.95361 -0.0966581 0
M  V30 2016 C 198.244 1.59461 1.38331 0
M  V30 2017 O 197.592 0.879777 2.10884 0
M  V30 2018 C 197.802 3.47311 -0.342988 0
M  V30 2019 C 199.15 4.23875 -0.24798 0
M  V30 2020 O 200.174 3.55133 -0.275553 0
M  V30 2021 O 199.033 5.4623 -0.171771 0
M  V30 2022 H 196.127 0.826945 0.00956291 0
M  V30 2023 H 198.673 1.5336 -0.726558 0
M  V30 2024 H 197.445 3.66569 -1.36906 0
M  V30 2025 H 197.068 3.9631 0.319975 0
M  V30 2026 N 198.065 0.39524 1.52563 0
M  V30 2027 C 199.314 -0.186321 2.00838 0
M  V30 2028 C 199.627 -1.47402 1.28577 0
M  V30 2029 O 200.833 -2.13599 1.67593 0
M  V30 2030 C 199.289 -0.382595 3.57861 0
M  V30 2031 C 198.897 0.892202 4.39026 0
M  V30 2032 C 200.641 -0.9202 4.14406 0
M  V30 2033 C 198.548 0.66388 5.87662 0
M  V30 2034 H 197.478 -0.0734041 0.750418 0
M  V30 2035 H 200.129 0.518552 1.76021 0
M  V30 2036 H 198.511 -1.14946 3.7895 0
M  V30 2037 H 199.685 1.66414 4.29701 0
M  V30 2038 H 198 1.35519 3.9373 0
M  V30 2039 H 200.597 -1.10683 5.23119 0
M  V30 2040 H 200.94 -1.89096 3.70875 0
M  V30 2041 H 201.473 -0.212751 3.97231 0
M  V30 2042 H 198.212 1.6058 6.35527 0
M  V30 2043 H 197.732 -0.0690193 5.9976 0
M  V30 2044 H 199.411 0.300699 6.46301 0
M  V30 2045 N 199.544 -1.57102 0.125237 0
M  V30 2046 C 200.791 -1.95407 -0.531248 0
M  V30 2047 C 201.119 -1.0089 -1.66287 0
M  V30 2048 O 200.374 -0.0339431 -1.95671 0
M  V30 2049 C 200.673 -3.40096 -1.09862 0
M  V30 2050 C 200.339 -4.50815 -0.0876989 0
M  V30 2051 C 199.001 -4.80824 0.19026 0
M  V30 2052 C 201.353 -5.17724 0.600902 0
M  V30 2053 C 198.681 -5.75058 1.163 0
M  V30 2054 C 201.033 -6.13005 1.56231 0
M  V30 2055 C 199.697 -6.41403 1.8482 0
M  V30 2056 H 198.967 -0.715046 -0.194397 0
M  V30 2057 H 201.614 -1.90373 0.207463 0
M  V30 2058 H 199.919 -3.41855 -1.91422 0
M  V30 2059 H 201.616 -3.6705 -1.61478 0
M  V30 2060 H 198.206 -4.27444 -0.314528 0
M  V30 2061 H 202.39 -4.94691 0.399333 0
M  V30 2062 H 197.646 -5.95362 1.39117 0
M  V30 2063 H 201.82 -6.63934 2.10153 0
M  V30 2064 H 199.447 -7.14229 2.60349 0
M  V30 2065 N 201.022 0.148545 -1.56898 0
M  V30 2066 C 202.433 0.708766 -1.72723 0
M  V30 2067 C 202.784 1.81734 -0.739395 0
M  V30 2068 O 201.909 2.16194 0.0943169 0
M  V30 2069 C 202.504 1.29245 -3.13179 0
M  V30 2070 C 201.063 1.79925 -3.30611 0
M  V30 2071 C 200.21 0.687111 -2.68652 0
M  V30 2072 H 203.161 -0.0771063 -1.58513 0
M  V30 2073 H 203.182 2.16224 -3.13093 0
M  V30 2074 H 202.694 0.485382 -3.85053 0
M  V30 2075 H 200.795 2.63203 -2.63732 0
M  V30 2076 H 200.908 1.92903 -4.38549 0
M  V30 2077 H 199.272 1.11335 -2.29078 0
M  V30 2078 H 200.055 -0.108483 -3.43129 0
M  V30 2079 N 202.5 1.5196 0.417844 0
M  V30 2080 C 203.777 1.56146 1.17803 0
M  V30 2081 C 204.157 0.337275 2.08388 0
M  V30 2082 O 203.505 -0.676447 2.18258 0
M  V30 2083 C 203.715 2.88566 1.96293 0
M  V30 2084 C 205.063 3.41244 2.52662 0
M  V30 2085 O 206.087 2.90247 2.06483 0
M  V30 2086 O 204.946 4.30273 3.36938 0
M  V30 2087 H 202.04 0.628598 0.537395 0
M  V30 2088 H 204.586 1.64283 0.425331 0
M  V30 2089 H 203.358 3.69116 1.2988 0
M  V30 2090 H 202.981 2.83681 2.78587 0
M  V30 2091 N 203.978 -0.674533 1.42435 0
M  V30 2092 C 205.255 -1.4305 1.33402 0
M  V30 2093 C 205.635 -2.11081 -0.0284674 0
M  V30 2094 O 204.983 -2.03257 -1.04397 0
M  V30 2095 C 205.193 -2.43272 2.50239 0
M  V30 2096 C 206.541 -3.07907 2.92367 0
M  V30 2097 O 207.565 -2.53599 2.50132 0
M  V30 2098 O 206.424 -4.0632 3.65467 0
M  V30 2099 H 203.518 -0.638076 0.526106 0
M  V30 2100 H 206.064 -0.703235 1.54443 0
M  V30 2101 H 204.836 -1.91803 3.41068 0
M  V30 2102 H 204.459 -3.23479 2.31186 0
M  V30 2103 N 205.456 -1.28612 -0.910864 0
M  V30 2104 C 206.404 -1.1265 -2.03501 0
M  V30 2105 C 207.398 -0.0450054 -1.6934 0
M  V30 2106 O 208.604 -0.203988 -1.7884 0
M  V30 2107 H 204.979 -0.347639 -0.666822 0
M  V30 2108 H 206.95 -2.07849 -2.14106 0
M  V30 2109 C 205.699 -0.808143 -3.38178 0
M  V30 2110 H 205.022 -1.63231 -3.6496 0
M  V30 2111 H 206.462 -0.736426 -4.17556 0
M  V30 2112 C 204.921 0.488226 -3.33344 0
M  V30 2113 O 205.451 1.51766 -3.71927 0
M  V30 2114 N 203.657 0.490009 -2.86439 0
M  V30 2115 H 203.204 -0.348161 -2.55236 0
M  V30 2116 H 203.162 1.35741 -2.83587 0
M  V30 2117 N 206.934 1.1197 -1.10907 0
M  V30 2118 C 208.35 1.35591 -0.841852 0
M  V30 2119 C 208.55 1.94233 0.536246 0
M  V30 2120 O 207.606 2.1717 1.28816 0
M  V30 2121 C 208.919 2.29284 -1.94549 0
M  V30 2122 C 210.467 2.42862 -1.97451 0
M  V30 2123 C 210.942 3.39873 -3.07002 0
M  V30 2124 N 212.433 3.47433 -3.06341 0
M  V30 2125 C 213.168 4.22421 -3.87748 0
M  V30 2126 N 212.664 5.00432 -4.79103 0
M  V30 2127 N 214.457 4.17876 -3.75946 0
M  V30 2128 H 206.608 0.722664 -1.99728 0
M  V30 2129 H 208.871 0.380635 -0.868229 0
M  V30 2130 H 208.577 1.93378 -2.93765 0
M  V30 2131 H 208.451 3.29452 -1.83688 0
M  V30 2132 H 210.838 2.78046 -0.988645 0
M  V30 2133 H 210.919 1.42566 -2.12388 0
M  V30 2134 H 210.563 3.05417 -4.05811 0
M  V30 2135 H 210.493 4.40011 -2.89306 0
M  V30 2136 H 212.984 2.91784 -2.40147 0
M  V30 2137 H 213.297 5.55002 -5.37766 0
M  V30 2138 H 211.642 4.99612 -4.83128 0
M  V30 2139 H 214.833 3.56016 -3.03924 0
M  V30 2140 H 215.006 4.76061 -4.39624 0
M  V30 2141 N 208.412 0.89855 1.29475 0
M  V30 2142 C 209.659 0.523882 1.95606 0
M  V30 2143 C 209.987 -0.929608 1.70847 0
M  V30 2144 O 209.242 -1.67401 1.01367 0
M  V30 2145 C 209.541 0.761398 3.49195 0
M  V30 2146 C 209.207 2.19207 3.94029 0
M  V30 2147 C 207.869 2.58326 4.05982 0
M  V30 2148 C 210.221 3.12379 4.17216 0
M  V30 2149 C 207.549 3.898 4.38489 0
M  V30 2150 C 209.901 4.43401 4.51197 0
M  V30 2151 C 208.565 4.82394 4.61359 0
M  V30 2152 H 207.835 0.191702 0.715773 0
M  V30 2153 H 210.482 1.13699 1.54094 0
M  V30 2154 H 208.787 0.0653622 3.91745 0
M  V30 2155 H 210.484 0.450904 3.98457 0
M  V30 2156 H 207.074 1.87846 3.85242 0
M  V30 2157 H 211.258 2.83371 4.07449 0
M  V30 2158 H 206.514 4.19734 4.44559 0
M  V30 2159 H 210.688 5.15623 4.68087 0
M  V30 2160 H 208.315 5.84306 4.86303 0
M  V30 2161 N 209.89 -1.43072 0.660911 0
M  V30 2162 C 211.306 -1.56169 0.329173 0
M  V30 2163 C 211.506 -1.64317 -1.16629 0
M  V30 2164 O 210.562 -1.60245 -1.95135 0
M  V30 2165 C 211.875 -2.81873 1.04729 0
M  V30 2166 C 213.423 -2.95627 1.02828 0
M  V30 2167 C 213.898 -4.24174 1.72744 0
M  V30 2168 N 215.389 -4.31055 1.69545 0
M  V30 2169 C 216.124 -5.29304 2.20511 0
M  V30 2170 N 215.62 -6.33786 2.79799 0
M  V30 2171 N 217.413 -5.21008 2.10966 0
M  V30 2172 H 209.564 -1.36027 1.63127 0
M  V30 2173 H 211.827 -0.653823 0.686454 0
M  V30 2174 H 211.533 -2.81942 2.10242 0
M  V30 2175 H 211.407 -3.72338 0.603702 0
M  V30 2176 H 213.794 -2.95094 -0.0184742 0
M  V30 2177 H 213.875 -2.06431 1.51063 0
M  V30 2178 H 213.519 -4.25467 2.7738 0
M  V30 2179 H 213.449 -5.1228 1.2197 0
M  V30 2180 H 215.94 -3.56174 1.26288 0
M  V30 2181 H 216.253 -7.05086 3.16344 0
M  V30 2182 H 214.598 -6.34387 2.83863 0
M  V30 2183 H 217.789 -4.38301 1.64347 0
M  V30 2184 H 217.962 -5.97416 2.50993 0
M  V30 2185 N 211.368 -0.403325 -1.52352 0
M  V30 2186 C 212.278 0.432009 -2.30588 0
M  V30 2187 C 213.294 1.05884 -1.38075 0
M  V30 2188 O 214.47 1.06161 -1.71148 0
M  V30 2189 C 211.535 1.53669 -3.10784 0
M  V30 2190 C 210.596 0.933525 -4.19027 0
M  V30 2191 C 209.829 1.98557 -4.9539 0
M  V30 2192 O 210.052 3.20283 -4.71991 0
M  V30 2193 O 208.986 1.59504 -5.80381 0
M  V30 2194 H 212.812 -0.205739 -3.03002 0
M  V30 2195 H 210.397 -0.166675 -1.48467 0
M  V30 2196 H 212.279 2.17814 -3.60742 0
M  V30 2197 H 210.954 2.15915 -2.41169 0
M  V30 2198 H 209.861 0.254954 -3.7323 0
M  V30 2199 H 211.194 0.35508 -4.90918 0
M  V30 2200 N 212.846 1.57033 -0.133567 0
M  V30 2201 C 214.095 1.94861 0.520768 0
M  V30 2202 C 214.408 1.02012 1.66892 0
M  V30 2203 O 215.614 1.29365 2.38699 0
M  V30 2204 C 214.07 3.46362 0.977809 0
M  V30 2205 C 213.678 4.47773 -0.142674 0
M  V30 2206 C 215.422 3.93083 1.60269 0
M  V30 2207 C 213.329 5.90468 0.331883 0
M  V30 2208 H 212.259 0.727453 0.198315 0
M  V30 2209 H 214.91 1.82227 -0.215759 0
M  V30 2210 H 213.292 3.54282 1.7692 0
M  V30 2211 H 214.466 4.51536 -0.919317 0
M  V30 2212 H 212.781 4.10891 -0.675124 0
M  V30 2213 H 215.378 4.97121 1.96914 0
M  V30 2214 H 215.721 3.33876 2.48662 0
M  V30 2215 H 216.254 3.88025 0.876453 0
M  V30 2216 H 212.993 6.53463 -0.516341 0
M  V30 2217 H 212.513 5.90094 1.07469 0
M  V30 2218 H 214.192 6.42179 0.788332 0
M  V30 2219 N 214.325 -0.140222 1.56975 0
M  V30 2220 C 215.574 -0.850152 1.82908 0
M  V30 2221 C 215.887 -1.82028 0.715892 0
M  V30 2222 O 217.093 -2.57485 0.861016 0
M  V30 2223 C 215.549 -1.5625 3.24213 0
M  V30 2224 C 215.157 -0.63443 4.43485 0
M  V30 2225 C 216.901 -2.25881 3.59413 0
M  V30 2226 C 214.808 -1.34879 5.75814 0
M  V30 2227 H 213.738 -0.321221 0.682153 0
M  V30 2228 H 216.389 -0.102874 1.83211 0
M  V30 2229 H 214.771 -2.35565 3.18316 0
M  V30 2230 H 215.945 0.12398 4.60633 0
M  V30 2231 H 214.26 -0.0461836 4.16374 0
M  V30 2232 H 216.857 -2.79978 4.5554 0
M  V30 2233 H 217.2 -3.02693 2.85802 0
M  V30 2234 H 217.733 -1.53477 3.67001 0
M  V30 2235 H 214.472 -0.622385 6.52539 0
M  V30 2236 H 213.992 -2.07974 5.6259 0
M  V30 2237 H 215.671 -1.88784 6.18845 0
M  V30 2238 N 215.803 -1.52179 -0.40978 0
M  V30 2239 C 216.75 -1.75475 -1.49924 0
M  V30 2240 C 217.72 -0.597175 -1.54994 0
M  V30 2241 O 218.905 -0.834655 -1.71575 0
M  V30 2242 C 216.045 -1.9107 -2.87378 0
M  V30 2243 C 215.158 -3.18717 -2.91622 0
M  V30 2244 C 214.293 -3.24747 -4.20372 0
M  V30 2245 C 213.332 -4.46598 -4.18588 0
M  V30 2246 N 212.469 -4.50025 -5.38908 0
M  V30 2247 H 217.309 -2.68458 -1.29361 0
M  V30 2248 H 214.846 -1.33024 -0.627934 0
M  V30 2249 H 216.804 -1.98096 -3.6717 0
M  V30 2250 H 215.434 -1.01469 -3.06437 0
M  V30 2251 H 214.486 -3.20866 -2.04326 0
M  V30 2252 H 215.798 -4.08544 -2.86169 0
M  V30 2253 H 214.952 -3.30841 -5.08556 0
M  V30 2254 H 213.691 -2.32857 -4.28519 0
M  V30 2255 H 212.696 -4.40652 -3.28794 0
M  V30 2256 H 213.921 -5.39783 -4.12081 0
M  V30 2257 H 211.867 -3.61017 -5.47725 0
M  V30 2258 H 211.784 -5.33697 -5.35447 0
M  V30 2259 H 213.052 -4.60347 -6.29048 0
M  V30 2260 N 217.281 0.66697 -1.42791 0
M  V30 2261 C 218.558 1.4234 -1.34159 0
M  V30 2262 C 218.938 2.11093 0.0172729 0
M  V30 2263 O 218.286 2.03808 1.03318 0
M  V30 2264 C 218.496 2.41942 -2.51526 0
M  V30 2265 C 219.844 3.06353 -2.93995 0
M  V30 2266 O 220.868 2.52269 -2.51473 0
M  V30 2267 O 219.727 4.04376 -3.67617 0
M  V30 2268 H 216.821 0.635277 -0.529483 0
M  V30 2269 H 219.367 0.695034 -1.54814 0
M  V30 2270 H 218.139 1.89991 -3.42081 0
M  V30 2271 H 217.762 3.22249 -2.32898 0
M  V30 2272 N 218.759 1.29093 0.90403 0
M  V30 2273 C 220.005 1.16986 1.65656 0
M  V30 2274 C 220.338 -0.278925 1.92186 0
M  V30 2275 O 219.613 -1.2019 1.5292 0
M  V30 2276 C 219.896 1.97908 3.0084 0
M  V30 2277 C 219.749 3.50903 2.81403 0
M  V30 2278 C 221.068 1.80208 4.01513 0
M  V30 2279 H 218.187 0.426346 0.601164 0
M  V30 2280 H 220.829 1.58518 1.04747 0
M  V30 2281 H 218.979 1.62616 3.52829 0
M  V30 2282 H 220.651 3.96153 2.36348 0
M  V30 2283 H 218.894 3.76045 2.1627 0
M  V30 2284 H 219.565 4.02791 3.77443 0
M  V30 2285 H 222.041 2.11025 3.58619 0
M  V30 2286 H 220.917 2.39184 4.94047 0
M  V30 2287 H 221.178 0.756119 4.35586 0
M  V30 2288 N 220.237 -1.11381 1.11499 0
M  V30 2289 C 221.485 -1.8277 0.862524 0
M  V30 2290 C 221.806 -1.85097 -0.613534 0
M  V30 2291 O 221.076 -1.32198 -1.4457 0
M  V30 2292 H 219.656 -0.676823 0.316101 0
M  V30 2293 H 222.318 -1.34816 1.4075 0
M  V30 2294 H 221.414 -2.86614 1.23527 0
M  V30 2295 N 221.715 -0.905404 -1.28997 0
M  V30 2296 C 222.961 -0.535039 -1.95615 0
M  V30 2297 C 223.294 0.917404 -1.71165 0
M  V30 2298 O 222.569 1.65123 -1.02785 0
M  V30 2299 C 222.852 -0.834918 -3.50287 0
M  V30 2300 C 222.705 -2.33948 -3.84172 0
M  V30 2301 C 224.024 -0.325318 -4.38896 0
M  V30 2302 H 221.143 -0.195861 -0.710498 0
M  V30 2303 H 223.785 -1.13313 -1.52513 0
M  V30 2304 H 221.935 -0.325904 -3.87131 0
M  V30 2305 H 223.607 -2.91847 -3.57243 0
M  V30 2306 H 221.85 -2.79789 -3.31513 0
M  V30 2307 H 222.521 -2.49987 -4.92149 0
M  V30 2308 H 224.997 -0.761256 -4.09077 0
M  V30 2309 H 223.873 -0.564295 -5.45992 0
M  V30 2310 H 224.134 0.774144 -4.35269 0
M  V30 2311 N 223.193 1.4272 -0.668489 0
M  V30 2312 C 224.156 2.292 0.00448567 0
M  V30 2313 C 225.156 1.43001 0.735339 0
M  V30 2314 O 226.346 1.64461 0.57429 0
M  V30 2315 C 223.478 3.25375 1.01705 0
M  V30 2316 H 224.671 2.90199 -0.756608 0
M  V30 2317 H 222.224 1.50254 -0.430506 0
M  V30 2318 H 222.959 2.69301 1.80686 0
M  V30 2319 H 222.744 3.88944 0.496463 0
M  V30 2320 H 224.234 3.90245 1.48655 0
M  V30 2321 N 224.671 0.411399 1.52136 0
M  V30 2322 C 225.92 -0.165009 2.01024 0
M  V30 2323 C 226.233 -1.4603 1.30133 0
M  V30 2324 O 227.439 -2.1181 1.69849 0
M  V30 2325 C 225.895 -0.344618 3.58246 0
M  V30 2326 C 225.503 0.938716 4.38055 0
M  V30 2327 C 227.247 -0.876195 4.15359 0
M  V30 2328 C 225.154 0.726172 5.86925 0
M  V30 2329 H 224.084 -0.0654407 0.751155 0
M  V30 2330 H 226.735 0.537192 1.75461 0
M  V30 2331 H 225.117 -1.10921 3.80148 0
M  V30 2332 H 226.291 1.70963 4.27912 0
M  V30 2333 H 224.606 1.39688 3.92271 0
M  V30 2334 H 227.203 -1.05128 5.24263 0
M  V30 2335 H 227.546 -1.85152 3.7286 0
M  V30 2336 H 228.079 -0.170607 3.97434 0
M  V30 2337 H 224.818 1.67312 6.33788 0
M  V30 2338 H 224.338 -0.00540283 5.998 0
M  V30 2339 H 226.017 0.369231 6.45946 0
M  V30 2340 N 226.149 -1.5696 0.141893 0
M  V30 2341 C 227.398 -1.95135 -0.510427 0
M  V30 2342 C 227.711 -1.02896 -1.66348 0
M  V30 2343 O 228.917 -1.30629 -2.38009 0
M  V30 2344 C 227.373 -3.46876 -0.959427 0
M  V30 2345 C 226.981 -4.47691 0.166419 0
M  V30 2346 C 228.725 -3.93927 -1.58183 0
M  V30 2347 C 226.632 -5.90636 -0.300565 0
M  V30 2348 H 225.562 -0.728494 -0.194454 0
M  V30 2349 H 228.213 -1.8211 0.22542 0
M  V30 2350 H 226.595 -3.55215 -1.75038 0
M  V30 2351 H 227.769 -4.51043 0.94325 0
M  V30 2352 H 226.084 -4.10527 0.696905 0
M  V30 2353 H 228.681 -4.98158 -1.94275 0
M  V30 2354 H 229.024 -3.3519 -2.46888 0
M  V30 2355 H 229.557 -3.88484 -0.855863 0
M  V30 2356 H 226.296 -6.5318 0.550989 0
M  V30 2357 H 225.816 -5.90655 -1.04338 0
M  V30 2358 H 227.495 -6.42588 -0.754265 0
M  V30 2359 N 227.627 0.131896 -1.57047 0
M  V30 2360 C 228.875 0.840269 -1.83804 0
M  V30 2361 C 229.196 1.81017 -0.72512 0
M  V30 2362 O 228.466 1.94272 0.251995 0
M  V30 2363 H 227.046 0.313294 -0.678127 0
M  V30 2364 H 229.708 0.122294 -1.94516 0
M  V30 2365 H 228.804 1.39335 -2.79271 0
M  V30 2366 N 229.106 1.52395 0.401703 0
M  V30 2367 C 230.038 1.72505 1.50912 0
M  V30 2368 C 231.051 0.605468 1.51122 0
M  V30 2369 O 232.24 0.880828 1.55254 0
M  V30 2370 C 229.34 1.75711 2.89791 0
M  V30 2371 C 228.513 3.04824 3.1369 0
M  V30 2372 C 227.572 2.99743 4.32482 0
M  V30 2373 O 226.598 3.73635 4.29402 0
M  V30 2374 N 227.8 2.18047 5.37992 0
M  V30 2375 H 230.565 2.68049 1.34052 0
M  V30 2376 H 228.126 1.50724 0.591084 0
M  V30 2377 H 230.118 1.69834 3.6734 0
M  V30 2378 H 228.688 0.876092 3.00072 0
M  V30 2379 H 227.908 3.2429 2.24119 0
M  V30 2380 H 229.196 3.90221 3.26504 0
M  V30 2381 H 228.594 1.57456 5.43345 0
M  V30 2382 H 227.151 2.18021 6.14256 0
M  V30 2383 N 230.584 -0.659388 1.43143 0
M  V30 2384 C 231.812 -1.44723 1.47861 0
M  V30 2385 C 232.227 -1.88563 0.0945886 0
M  V30 2386 O 231.584 -1.59108 -0.893915 0
M  V30 2387 C 231.635 -2.68627 2.41913 0
M  V30 2388 O 231.356 -2.26623 3.74932 0
M  V30 2389 C 232.857 -3.62045 2.55809 0
M  V30 2390 H 230.077 -0.444801 0.502387 0
M  V30 2391 H 232.621 -0.808916 1.87821 0
M  V30 2392 H 230.776 -3.28613 2.05164 0
M  V30 2393 H 231.19 -3.06745 4.2545 0
M  V30 2394 H 232.664 -4.45666 3.25708 0
M  V30 2395 H 233.141 -4.08981 1.60099 0
M  V30 2396 H 233.747 -3.07944 2.93344 0
M  V30 2397 N 232.062 -1.29571 -0.897171 0
M  V30 2398 C 233.287 -1.20705 -1.68656 0
M  V30 2399 C 233.712 0.228582 -1.86706 0
M  V30 2400 O 233.07 1.16494 -1.3892 0
M  V30 2401 C 233.118 -1.9282 -3.04717 0
M  V30 2402 O 232.222 -1.24697 -3.93096 0
M  V30 2403 H 231.563 -0.418126 -0.515816 0
M  V30 2404 H 234.093 -1.71183 -1.12061 0
M  V30 2405 H 234.103 -2.01372 -3.54843 0
M  V30 2406 H 232.778 -2.97239 -2.90899 0
M  V30 2407 H 231.355 -1.2442 -3.51531 0
M  V30 2408 N 233.54 1.10788 -1.12088 0
M  V30 2409 C 234.765 1.87002 -0.896949 0
M  V30 2410 C 235.19 1.79933 0.548261 0
M  V30 2411 O 234.548 1.16662 1.38779 0
M  V30 2412 C 234.596 3.3349 -1.37174 0
M  V30 2413 O 233.7 4.08745 -0.547831 0
M  V30 2414 H 233.041 0.580397 -0.322545 0
M  V30 2415 H 235.571 1.39996 -1.49206 0
M  V30 2416 H 235.581 3.84339 -1.36922 0
M  V30 2417 H 234.256 3.37951 -2.42408 0
M  V30 2418 H 232.833 3.6776 -0.617034 0
M  V30 2419 N 235.018 0.912232 1.28515 0
M  V30 2420 C 235.948 0.416403 2.29757 0
M  V30 2421 C 236.929 -0.515194 1.6211 0
M  V30 2422 O 238.114 -0.423253 1.89532 0
M  V30 2423 C 235.244 -0.34572 3.45575 0
M  V30 2424 C 234.198 0.496599 4.25109 0
M  V30 2425 C 233.524 -0.393771 5.33248 0
M  V30 2426 C 234.824 1.75307 4.92001 0
M  V30 2427 H 236.518 1.26249 2.7148 0
M  V30 2428 H 234.064 0.608515 1.30511 0
M  V30 2429 H 236.017 -0.703422 4.15488 0
M  V30 2430 H 234.741 -1.2257 3.02728 0
M  V30 2431 H 233.4 0.8368 3.56922 0
M  V30 2432 H 233.048 -1.27225 4.86644 0
M  V30 2433 H 232.748 0.166209 5.87365 0
M  V30 2434 H 234.272 -0.747389 6.06009 0
M  V30 2435 H 235.686 1.46437 5.54283 0
M  V30 2436 H 234.083 2.25534 5.56106 0
M  V30 2437 H 235.153 2.48176 4.16577 0
M  V30 2438 N 236.496 -1.42363 0.676048 0
M  V30 2439 C 237.459 -2.29199 0.00766941 0
M  V30 2440 C 238.459 -1.43389 -0.727745 0
M  V30 2441 O 239.649 -1.64764 -0.56556 0
M  V30 2442 C 236.781 -3.2591 -0.999785 0
M  V30 2443 H 237.974 -2.89794 0.771988 0
M  V30 2444 H 235.527 -1.50024 0.438468 0
M  V30 2445 H 236.262 -2.70256 -1.79255 0
M  V30 2446 H 236.047 -3.89202 -0.475829 0
M  V30 2447 H 237.537 -3.91028 -1.46583 0
M  V30 2448 N 237.974 -0.419461 -1.51915 0
M  V30 2449 C 239.385 0.0477853 -1.86639 0
M  V30 2450 C 239.736 1.43531 -1.33766 0
M  V30 2451 O 238.861 2.05401 -0.68113 0
M  V30 2452 C 239.456 0.0934885 -3.38671 0
M  V30 2453 C 238.015 0.505097 -3.72996 0
M  V30 2454 C 237.162 -0.313792 -2.75519 0
M  V30 2455 H 240.113 -0.636088 -1.45395 0
M  V30 2456 H 240.134 0.906667 -3.6954 0
M  V30 2457 H 239.646 -0.916501 -3.77123 0
M  V30 2458 H 237.747 1.52135 -3.40126 0
M  V30 2459 H 237.86 0.242309 -4.78487 0
M  V30 2460 H 236.224 0.225363 -2.53701 0
M  V30 2461 H 237.007 -1.32232 -3.16812 0
M  V30 2462 N 239.452 1.56882 -0.150215 0
M  V30 2463 C 240.415 2.1573 0.774157 0
M  V30 2464 C 241.415 1.0999 1.17298 0
M  V30 2465 O 242.605 1.35613 1.09338 0
M  V30 2466 C 239.737 2.72302 2.05096 0
M  V30 2467 H 240.93 2.98752 0.262201 0
M  V30 2468 H 238.483 1.55985 0.099248 0
M  V30 2469 H 239.218 1.92956 2.6065 0
M  V30 2470 H 239.003 3.49665 1.77416 0
M  V30 2471 H 240.493 3.17632 2.71109 0
M  V30 2472 N 240.93 -0.123565 1.57115 0
M  V30 2473 C 242.207 -0.862196 1.75572 0
M  V30 2474 C 242.587 -1.98279 0.724475 0
M  V30 2475 O 241.935 -2.27102 -0.252407 0
M  V30 2476 C 242.145 -1.38309 3.20424 0
M  V30 2477 C 243.493 -1.83724 3.82793 0
M  V30 2478 O 244.517 -1.47999 3.23998 0
M  V30 2479 O 243.376 -2.49685 4.86127 0
M  V30 2480 H 240.47 -0.409113 0.718718 0
M  V30 2481 H 243.016 -0.107661 1.69358 0
M  V30 2482 H 241.788 -0.578889 3.86994 0
M  V30 2483 H 241.411 -2.20046 3.31158 0
M  V30 2484 N 242.408 -1.52605 -0.393616 0
M  V30 2485 C 243.355 -1.77055 -1.48054 0
M  V30 2486 C 244.325 -0.61358 -1.54352 0
M  V30 2487 O 245.51 -0.852806 -1.70681 0
M  V30 2488 C 242.65 -1.94108 -2.85335 0
M  V30 2489 C 241.763 -3.21792 -2.88226 0
M  V30 2490 C 240.898 -3.29188 -4.16904 0
M  V30 2491 C 239.937 -4.51013 -4.13828 0
M  V30 2492 N 239.074 -4.55716 -5.34105 0
M  V30 2493 H 243.914 -2.69815 -1.26506 0
M  V30 2494 H 241.451 -1.33683 -0.61379 0
M  V30 2495 H 243.409 -2.01979 -3.65049 0
M  V30 2496 H 242.039 -1.04713 -3.05344 0
M  V30 2497 H 241.091 -3.23015 -2.00911 0
M  V30 2498 H 242.403 -4.11557 -2.8182 0
M  V30 2499 H 241.557 -3.36216 -5.05018 0
M  V30 2500 H 240.296 -2.37389 -4.26026 0
M  V30 2501 H 239.301 -4.44115 -3.24102 0
M  V30 2502 H 240.526 -5.44123 -4.06333 0
M  V30 2503 H 238.472 -3.66807 -5.43865 0
M  V30 2504 H 238.389 -5.39346 -5.29756 0
M  V30 2505 H 239.657 -4.66993 -6.2413 0
M  V30 2506 N 243.887 0.651787 -1.4349 0
M  V30 2507 C 245.303 0.96762 -1.26922 0
M  V30 2508 C 245.503 2.00602 -0.189982 0
M  V30 2509 O 244.559 2.48793 0.431107 0
M  V30 2510 C 245.872 1.45052 -2.63401 0
M  V30 2511 C 247.42 1.5671 -2.70945 0
M  V30 2512 C 247.895 2.0839 -4.07845 0
M  V30 2513 N 249.386 2.1569 -4.09917 0
M  V30 2514 C 250.121 2.56804 -5.12679 0
M  V30 2515 N 249.617 2.97203 -6.25813 0
M  V30 2516 N 251.41 2.56756 -5.00033 0
M  V30 2517 H 243.561 -0.0353158 -2.12371 0
M  V30 2518 H 245.824 0.0467858 -0.946845 0
M  V30 2519 H 245.53 0.761926 -3.43348 0
M  V30 2520 H 245.404 2.42529 -2.88894 0
M  V30 2521 H 247.791 2.2467 -1.9133 0
M  V30 2522 H 247.872 0.57662 -2.49216 0
M  V30 2523 H 247.516 1.41031 -4.87927 0
M  V30 2524 H 247.446 3.08271 -4.26938 0
M  V30 2525 H 249.937 1.87237 -3.28254 0
M  V30 2526 H 250.25 3.27328 -7.00055 0
M  V30 2527 H 248.595 2.95004 -6.29283 0
M  V30 2528 H 251.786 2.24572 -4.10713 0
M  V30 2529 H 251.959 2.88475 -5.80247 0
M  V30 2530 N 245.365 1.30045 0.890287 0
M  V30 2531 C 246.612 1.18561 1.64163 0
M  V30 2532 C 246.94 -0.260852 1.92743 0
M  V30 2533 O 246.195 -1.20376 1.54299 0
M  V30 2534 C 246.494 1.95409 2.99249 0
M  V30 2535 C 246.16 3.45066 2.90242 0
M  V30 2536 C 244.822 3.85878 2.87492 0
M  V30 2537 C 247.174 4.4039 2.78758 0
M  V30 2538 C 244.502 5.20314 2.7109 0
M  V30 2539 C 246.854 5.74928 2.63894 0
M  V30 2540 C 245.518 6.14986 2.59516 0
M  V30 2541 H 244.788 0.433846 0.600715 0
M  V30 2542 H 247.435 1.61088 1.03552 0
M  V30 2543 H 245.74 1.45501 3.63781 0
M  V30 2544 H 247.437 1.8392 3.56334 0
M  V30 2545 H 244.027 3.12631 2.93189 0
M  V30 2546 H 248.211 4.09806 2.79952 0
M  V30 2547 H 243.467 5.50449 2.66112 0
M  V30 2548 H 247.641 6.48434 2.53981 0
M  V30 2549 H 245.268 7.19104 2.46565 0
M  V30 2550 N 246.843 -1.10192 1.12674 0
M  V30 2551 C 248.073 -1.85713 0.905213 0
M  V30 2552 C 248.481 -1.81056 -0.549108 0
M  V30 2553 O 247.824 -1.19927 -1.39151 0
M  V30 2554 C 247.886 -3.34972 1.30516 0
M  V30 2555 C 247.55 -3.63385 2.77129 0
M  V30 2556 C 248.547 -3.59772 3.75313 0
M  V30 2557 C 246.232 -3.91981 3.14096 0
M  V30 2558 C 248.226 -3.84354 5.08479 0
M  V30 2559 C 245.913 -4.16218 4.47443 0
M  V30 2560 C 246.911 -4.12395 5.44444 0
M  V30 2561 O 246.599 -4.36014 6.75387 0
M  V30 2562 H 246.331 -0.593719 0.323223 0
M  V30 2563 H 248.885 -1.40198 1.50112 0
M  V30 2564 H 247.115 -3.81156 0.652463 0
M  V30 2565 H 248.804 -3.91886 1.05736 0
M  V30 2566 H 249.57 -3.37716 3.48099 0
M  V30 2567 H 245.449 -3.94085 2.39202 0
M  V30 2568 H 248.993 -3.81285 5.84181 0
M  V30 2569 H 244.89 -4.37754 4.74386 0
M  V30 2570 H 245.658 -4.53516 6.8137 0
M  V30 2571 N 248.321 -0.919034 -1.28029 0
M  V30 2572 C 249.284 -0.416182 -2.2539 0
M  V30 2573 C 250.284 0.460438 -1.54067 0
M  V30 2574 O 251.474 0.262744 -1.72207 0
M  V30 2575 C 248.606 0.402707 -3.38513 0
M  V30 2576 H 249.799 -1.27629 -2.71387 0
M  V30 2577 H 247.352 -0.698919 -1.39803 0
M  V30 2578 H 248.087 1.282 -2.97885 0
M  V30 2579 H 247.872 -0.225698 -3.9145 0
M  V30 2580 H 249.362 0.745191 -4.10897 0
M  V30 2581 N 249.799 1.42003 -0.683588 0
M  V30 2582 C 251.027 2.05746 -0.218182 0
M  V30 2583 C 251.442 1.51396 1.12804 0
M  V30 2584 O 250.799 0.657303 1.70252 0
M  V30 2585 C 250.85 3.61171 -0.154131 0
M  V30 2586 O 250.571 4.13508 -1.44716 0
M  V30 2587 C 252.072 4.42042 0.333713 0
M  V30 2588 H 249.292 0.662888 -0.10402 0
M  V30 2589 H 251.836 1.81987 -0.9328 0
M  V30 2590 H 249.991 3.84012 0.511231 0
M  V30 2591 H 250.405 5.07453 -1.32632 0
M  V30 2592 H 251.879 5.51028 0.327423 0
M  V30 2593 H 252.356 4.17269 1.37053 0
M  V30 2594 H 252.962 4.24239 -0.300222 0
M  V30 2595 N 251.277 0.427512 1.51691 0
M  V30 2596 C 252.693 0.0792977 1.59403 0
M  V30 2597 C 252.893 -1.41035 1.43914 0
M  V30 2598 O 251.949 -2.17922 1.27539 0
M  V30 2599 C 253.262 0.590636 2.94842 0
M  V30 2600 C 254.81 0.550215 3.08126 0
M  V30 2601 C 255.285 1.03836 4.46074 0
M  V30 2602 N 256.776 0.995943 4.52366 0
M  V30 2603 C 257.511 1.34463 5.57411 0
M  V30 2604 N 257.007 1.76569 6.69922 0
M  V30 2605 N 258.8 1.26343 5.47717 0
M  V30 2606 H 250.951 1.39687 1.60004 0
M  V30 2607 H 253.214 0.575003 0.753708 0
M  V30 2608 H 252.92 1.63251 3.11516 0
M  V30 2609 H 252.794 0.0102061 3.77199 0
M  V30 2610 H 255.181 -0.482654 2.91126 0
M  V30 2611 H 255.262 1.16693 2.27632 0
M  V30 2612 H 254.906 2.06965 4.63819 0
M  V30 2613 H 254.836 0.398286 5.25092 0
M  V30 2614 H 257.327 0.68661 3.7161 0
M  V30 2615 H 257.64 2.01438 7.46085 0
M  V30 2616 H 255.985 1.80488 6.71155 0
M  V30 2617 H 259.176 0.933209 4.58703 0
M  V30 2618 H 259.349 1.53846 6.29472 0
M  V30 2619 N 252.755 -1.56801 0.158532 0
M  V30 2620 C 254.032 -1.88131 -0.535357 0
M  V30 2621 C 254.412 -1.06638 -1.82186 0
M  V30 2622 O 253.76 -0.156533 -2.27963 0
M  V30 2623 C 253.97 -3.39949 -0.789653 0
M  V30 2624 C 255.318 -4.09416 -1.12533 0
M  V30 2625 O 256.342 -3.45194 -0.878622 0
M  V30 2626 O 255.201 -5.22855 -1.59014 0
M  V30 2627 H 252.295 -0.780143 -0.27442 0
M  V30 2628 H 254.841 -1.68564 0.19601 0
M  V30 2629 H 253.613 -3.91115 0.120353 0
M  V30 2630 H 253.236 -3.65084 -1.57479 0
M  V30 2631 N 254.233 0.115231 -1.57178 0
M  V30 2632 C 255.482 0.820945 -1.84237 0
M  V30 2633 C 255.795 1.80866 -0.744761 0
M  V30 2634 O 257.001 2.56083 -0.901871 0
M  V30 2635 C 255.457 1.51072 -3.26658 0
M  V30 2636 C 255.065 0.563795 -4.44438 0
M  V30 2637 C 256.809 2.20134 -3.62962 0
M  V30 2638 C 254.716 1.25701 -5.77887 0
M  V30 2639 H 253.646 0.310328 -0.687177 0
M  V30 2640 H 256.297 0.0737134 -1.83352 0
M  V30 2641 H 254.679 2.30471 -3.22024 0
M  V30 2642 H 255.853 -0.197247 -4.60378 0
M  V30 2643 H 254.168 -0.0200638 -4.16395 0
M  V30 2644 H 256.765 2.72696 -4.59936 0
M  V30 2645 H 257.108 2.98107 -2.90582 0
M  V30 2646 H 257.641 1.47619 -3.69396 0
M  V30 2647 H 254.38 0.518493 -6.53446 0
M  V30 2648 H 253.9 1.98997 -5.65827 0
M  V30 2649 H 255.579 1.78915 -6.2177 0
M  V30 2650 N 255.711 1.52812 0.385517 0
M  V30 2651 C 256.939 1.71907 1.15133 0
M  V30 2652 C 257.354 0.439004 1.83625 0
M  V30 2653 O 256.711 -0.586765 1.7281 0
M  V30 2654 C 256.762 2.87099 2.19673 0
M  V30 2655 O 256.483 4.10151 1.53973 0
M  V30 2656 C 257.984 3.17902 3.08955 0
M  V30 2657 H 255.204 0.575479 0.345057 0
M  V30 2658 H 257.748 1.99476 0.45052 0
M  V30 2659 H 255.903 2.61982 2.85384 0
M  V30 2660 H 256.317 4.74514 2.23465 0
M  V30 2661 H 257.791 4.01959 3.7833 0
M  V30 2662 H 258.268 2.3243 3.72657 0
M  V30 2663 H 258.874 3.44871 2.48885 0
M  V30 2664 N 257.189 -0.644168 1.43834 0
M  V30 2665 C 258.152 -1.73857 1.49353 0
M  V30 2666 C 259.152 -1.56315 0.377112 0
M  V30 2667 O 260.342 -1.62048 0.639226 0
M  V30 2668 C 257.474 -3.12819 1.35488 0
M  V30 2669 H 258.667 -1.70342 2.46827 0
M  V30 2670 H 256.22 -0.856652 1.30733 0
M  V30 2671 H 256.955 -3.2194 0.390569 0
M  V30 2672 H 256.74 -3.26958 2.16428 0
M  V30 2673 H 258.23 -3.92606 1.42302 0
M  V30 2674 N 258.668 -1.30515 -0.883378 0
M  V30 2675 C 259.896 -1.22359 -1.66841 0
M  V30 2676 C 260.311 0.213296 -1.87591 0
M  V30 2677 O 259.668 1.14075 -1.42454 0
M  V30 2678 C 259.719 -1.95011 -3.04389 0
M  V30 2679 O 259.44 -3.3309 -2.84575 0
M  V30 2680 C 260.941 -1.93532 -3.98824 0
M  V30 2681 H 258.161 -0.423371 -0.520575 0
M  V30 2682 H 260.705 -1.72167 -1.10357 0
M  V30 2683 H 258.86 -1.48997 -3.57601 0
M  V30 2684 H 259.274 -3.69907 -3.71846 0
M  V30 2685 H 260.748 -2.48902 -4.92699 0
M  V30 2686 H 261.225 -0.914627 -4.29571 0
M  V30 2687 H 261.831 -2.39364 -3.51547 0
M  V30 2688 N 260.146 1.09593 -1.13257 0
M  V30 2689 C 261.392 1.82003 -0.89458 0
M  V30 2690 C 261.725 1.85402 0.577906 0
M  V30 2691 O 261 1.32099 1.42759 0
M  V30 2692 C 261.283 3.28237 -1.48096 0
M  V30 2693 C 261.136 3.3312 -3.02244 0
M  V30 2694 C 262.455 4.24871 -1.14774 0
M  V30 2695 H 259.574 0.66077 -0.326424 0
M  V30 2696 H 262.216 1.28389 -1.40058 0
M  V30 2697 H 260.366 3.74024 -1.05062 0
M  V30 2698 H 262.038 2.95748 -3.54021 0
M  V30 2699 H 260.281 2.72756 -3.37323 0
M  V30 2700 H 260.952 4.3613 -3.38371 0
M  V30 2701 H 263.428 3.87361 -1.51957 0
M  V30 2702 H 262.304 5.25532 -1.58452 0
M  V30 2703 H 262.565 4.42058 -0.0611849 0
M  V30 2704 N 261.624 0.925811 1.2754 0
M  V30 2705 C 262.901 0.483726 1.89524 0
M  V30 2706 C 263.281 -1.03809 1.83812 0
M  V30 2707 O 262.629 -1.89143 1.28207 0
M  V30 2708 C 262.839 1.02769 3.33526 0
M  V30 2709 C 264.187 1.08703 4.10449 0
M  V30 2710 O 265.211 0.977175 3.42534 0
M  V30 2711 O 264.07 1.25599 5.31871 0
M  V30 2712 H 261.164 0.15529 0.812289 0
M  V30 2713 H 263.71 1.01738 1.35822 0
M  V30 2714 H 262.482 2.07155 3.31967 0
M  V30 2715 H 262.105 0.475567 3.94746 0
M  V30 2716 N 263.102 -1.41638 0.69111 0
M  V30 2717 C 264.327 -2.06148 0.227583 0
M  V30 2718 C 264.752 -1.51652 -1.11281 0
M  V30 2719 O 264.11 -0.64164 -1.69566 0
M  V30 2720 C 264.158 -3.60095 0.190858 0
M  V30 2721 O 263.262 -4.03845 -0.835664 0
M  V30 2722 H 262.603 -0.654434 0.112306 0
M  V30 2723 H 265.133 -1.81484 0.944714 0
M  V30 2724 H 265.143 -4.07995 0.020207 0
M  V30 2725 H 263.818 -3.99129 1.16915 0
M  V30 2726 H 262.395 -3.67458 -0.63473 0
M  V30 2727 N 264.58 -0.43555 -1.51462 0
M  V30 2728 C 265.829 0.133007 -2.01261 0
M  V30 2729 C 266.142 1.43942 -1.32439 0
M  V30 2730 O 267.348 2.09081 -1.73198 0
M  V30 2731 C 265.804 0.287581 -3.58749 0
M  V30 2732 C 265.412 -1.00829 -4.36506 0
M  V30 2733 C 267.156 0.810004 -4.167 0
M  V30 2734 C 265.063 -0.819454 -5.85695 0
M  V30 2735 H 263.993 0.0534822 -0.752101 0
M  V30 2736 H 266.644 -0.565038 -1.74584 0
M  V30 2737 H 265.026 1.04859 -3.81865 0
M  V30 2738 H 266.2 -1.77749 -4.25138 0
M  V30 2739 H 264.515 -1.45911 -3.89999 0
M  V30 2740 H 267.112 0.967743 -5.2587 0
M  V30 2741 H 267.455 1.79196 -3.75758 0
M  V30 2742 H 267.988 0.107357 -3.97655 0
M  V30 2743 H 264.727 -1.77374 -6.31046 0
M  V30 2744 H 264.247 -0.0900208 -5.99732 0
M  V30 2745 H 265.926 -0.471949 -6.45276 0
M  V30 2746 N 266.058 1.56714 -0.166846 0
M  V30 2747 C 267.469 1.83378 0.350646 0
M  V30 2748 C 267.82 1.08646 1.63372 0
M  V30 2749 O 266.945 0.338058 2.13743 0
M  V30 2750 C 267.54 3.32643 0.642963 0
M  V30 2751 C 266.099 3.59818 1.10491 0
M  V30 2752 C 265.246 2.76954 0.138411 0
M  V30 2753 H 268.197 1.53803 -0.391193 0
M  V30 2754 H 268.218 3.49878 1.49551 0
M  V30 2755 H 267.73 3.87007 -0.291055 0
M  V30 2756 H 265.831 3.1086 2.05418 0
M  V30 2757 H 265.944 4.68178 1.01716 0
M  V30 2758 H 264.308 2.4666 0.634911 0
M  V30 2759 H 265.091 3.34097 -0.789549 0
M  V30 2760 N 267.536 -0.106894 1.57237 0
M  V30 2761 C 268.466 -1.13148 2.04254 0
M  V30 2762 C 269.447 -1.42476 0.929224 0
M  V30 2763 O 270.632 -1.52709 1.19973 0
M  V30 2764 C 267.762 -2.4545 2.45706 0
M  V30 2765 C 266.716 -2.30558 3.60592 0
M  V30 2766 C 266.042 -3.67931 3.87983 0
M  V30 2767 C 267.342 -1.75597 4.91897 0
M  V30 2768 H 269.036 -0.740374 2.90101 0
M  V30 2769 H 266.582 -0.354696 1.39563 0
M  V30 2770 H 268.535 -3.17389 2.77205 0
M  V30 2771 H 267.259 -2.86475 1.56843 0
M  V30 2772 H 265.918 -1.61067 3.29322 0
M  V30 2773 H 265.566 -4.06462 2.96306 0
M  V30 2774 H 265.266 -3.58817 4.65322 0
M  V30 2775 H 266.79 -4.41356 4.21945 0
M  V30 2776 H 268.204 -2.37364 5.21854 0
M  V30 2777 H 266.601 -1.77272 5.73319 0
M  V30 2778 H 267.671 -0.714451 4.79608 0
M  V30 2779 N 269.014 -1.53014 -0.377408 0
M  V30 2780 C 270.263 -1.67845 -1.11853 0
M  V30 2781 C 270.576 -0.430625 -1.90801 0
M  V30 2782 O 271.782 -0.459261 -2.67587 0
M  V30 2783 C 270.238 -2.96668 -2.03756 0
M  V30 2784 C 269.846 -4.28671 -1.30175 0
M  V30 2785 C 271.59 -3.20865 -2.77932 0
M  V30 2786 C 269.497 -5.48591 -2.20911 0
M  V30 2787 H 268.427 -0.625343 -0.421263 0
M  V30 2788 H 271.078 -1.79514 -0.380409 0
M  V30 2789 H 269.46 -2.78773 -2.8125 0
M  V30 2790 H 270.634 -4.57157 -0.578259 0
M  V30 2791 H 268.949 -4.10825 -0.679108 0
M  V30 2792 H 271.546 -4.07642 -3.46024 0
M  V30 2793 H 271.889 -2.36424 -3.4265 0
M  V30 2794 H 272.422 -3.39379 -2.07525 0
M  V30 2795 H 269.161 -6.35474 -1.6079 0
M  V30 2796 H 268.681 -5.244 -2.91144 0
M  V30 2797 H 270.36 -5.8292 -2.80736 0
M  V30 2798 N 270.492 0.636531 -1.44174 0
M  V30 2799 C 271.72 1.42353 -1.50144 0
M  V30 2800 C 272.135 1.88389 -0.124575 0
M  V30 2801 O 271.492 1.6051 0.868489 0
M  V30 2802 C 271.543 2.64744 -2.46156 0
M  V30 2803 O 271.264 2.20629 -3.7849 0
M  V30 2804 C 272.765 3.57929 -2.61537 0
M  V30 2805 H 269.985 0.436752 -0.5094 0
M  V30 2806 H 272.529 0.778933 -1.89084 0
M  V30 2807 H 270.684 3.25307 -2.10366 0
M  V30 2808 H 271.098 2.99938 -4.30276 0
M  V30 2809 H 272.572 4.40428 -3.32757 0
M  V30 2810 H 273.049 4.06382 -1.66585 0
M  V30 2811 H 273.655 3.03238 -2.98206 0
M  V30 2812 N 271.97 1.30982 0.876444 0
M  V30 2813 C 272.933 1.18054 1.96459 0
M  V30 2814 C 273.933 0.109399 1.60427 0
M  V30 2815 O 275.123 0.358173 1.70478 0
M  V30 2816 C 272.255 0.810616 3.31122 0
M  V30 2817 H 273.448 2.14735 2.09354 0
M  V30 2818 H 271.001 1.145 1.06392 0
M  V30 2819 H 271.736 -0.155322 3.23928 0
M  V30 2820 H 271.521 1.58481 3.58645 0
M  V30 2821 H 273.011 0.743876 4.10921 0
M  V30 2822 N 273.449 -1.08991 1.13837 0
M  V30 2823 C 274.674 -1.85551 0.926585 0
M  V30 2824 C 275.099 -1.80782 -0.519566 0
M  V30 2825 O 274.457 -1.18855 -1.36906 0
M  V30 2826 C 274.505 -3.31266 1.42462 0
M  V30 2827 O 273.609 -4.07822 0.612789 0
M  V30 2828 H 272.95 -0.575192 0.331738 0
M  V30 2829 H 275.48 -1.37604 1.51414 0
M  V30 2830 H 275.49 -3.82112 1.43019 0
M  V30 2831 H 274.165 -3.34052 2.47754 0
M  V30 2832 H 272.742 -3.66731 0.675463 0
M  V30 2833 N 274.927 -0.932562 -1.27047 0
M  V30 2834 C 276.176 -0.571351 -1.93439 0
M  V30 2835 C 276.489 0.892467 -1.74053 0
M  V30 2836 O 277.695 1.36267 -2.34826 0
M  V30 2837 C 276.151 -0.97106 -3.46552 0
M  V30 2838 C 275.759 -2.4559 -3.74686 0
M  V30 2839 C 277.503 -0.681333 -4.18997 0
M  V30 2840 C 275.41 -2.79475 -5.21198 0
M  V30 2841 H 274.34 -0.209966 -0.724176 0
M  V30 2842 H 276.991 -1.13403 -1.44263 0
M  V30 2843 H 275.373 -0.336983 -3.94564 0
M  V30 2844 H 276.547 -3.13829 -3.37414 0
M  V30 2845 H 274.862 -2.71802 -3.15456 0
M  V30 2846 H 277.459 -0.910939 -5.26883 0
M  V30 2847 H 277.802 0.381628 -4.14547 0
M  V30 2848 H 278.335 -1.27473 -3.76823 0
M  V30 2849 H 275.074 -3.847 -5.30741 0
M  V30 2850 H 274.594 -2.1589 -5.596 0
M  V30 2851 H 276.273 -2.67478 -5.89122 0
M  V30 2852 N 276.405 1.4127 -0.698611 0
M  V30 2853 C 277.335 2.33447 -0.049629 0
M  V30 2854 C 278.316 1.51982 0.763898 0
M  V30 2855 O 279.501 1.80509 0.716257 0
M  V30 2856 C 276.631 3.35828 0.885267 0
M  V30 2857 C 275.585 4.27627 0.178613 0
M  V30 2858 C 274.911 5.20406 1.22807 0
M  V30 2859 C 276.211 5.13459 -0.956933 0
M  V30 2860 H 277.905 2.87966 -0.81951 0
M  V30 2861 H 275.451 1.38461 -0.395538 0
M  V30 2862 H 277.404 3.9924 1.34854 0
M  V30 2863 H 276.128 2.79666 1.68685 0
M  V30 2864 H 274.787 3.65643 -0.26466 0
M  V30 2865 H 274.435 4.60558 2.02226 0
M  V30 2866 H 274.135 5.82661 0.760239 0
M  V30 2867 H 275.659 5.86695 1.69179 0
M  V30 2868 H 277.073 5.70421 -0.573805 0
M  V30 2869 H 275.47 5.8467 -1.35205 0
M  V30 2870 H 276.54 4.50443 -1.79524 0
M  V30 2871 N 277.883 0.443576 1.51229 0
M  V30 2872 C 278.846 -0.353132 2.26463 0
M  V30 2873 C 279.846 -0.944338 1.3015 0
M  V30 2874 O 281.036 -0.817813 1.5381 0
M  V30 2875 C 278.168 -1.50023 3.06114 0
M  V30 2876 H 279.361 0.3063 2.98332 0
M  V30 2877 H 276.914 0.196902 1.55055 0
M  V30 2878 H 277.649 -2.19553 2.38677 0
M  V30 2879 H 277.434 -1.08241 3.76864 0
M  V30 2880 H 278.924 -2.06296 3.63087 0
M  V30 2881 N 279.361 -1.56624 0.175154 0
M  V30 2882 C 280.308 -2.18149 -0.753634 0
M  V30 2883 C 281.278 -1.12265 -1.22417 0
M  V30 2884 O 282.463 -1.40432 -1.29165 0
M  V30 2885 C 279.603 -2.82933 -1.97592 0
M  V30 2886 C 278.716 -4.03289 -1.5486 0
M  V30 2887 C 277.851 -4.55988 -2.72485 0
M  V30 2888 C 276.89 -5.68746 -2.26262 0
M  V30 2889 N 276.027 -6.15938 -3.36994 0
M  V30 2890 H 280.867 -2.9717 -0.222195 0
M  V30 2891 H 278.404 -1.46774 -0.0979422 0
M  V30 2892 H 280.362 -3.18653 -2.69288 0
M  V30 2893 H 278.992 -2.06509 -2.481 0
M  V30 2894 H 278.044 -3.73364 -0.728246 0
M  V30 2895 H 279.356 -4.849 -1.16933 0
M  V30 2896 H 278.51 -4.9391 -3.52332 0
M  V30 2897 H 277.249 -3.73443 -3.13674 0
M  V30 2898 H 276.254 -5.30372 -1.44863 0
M  V30 2899 H 277.479 -6.53095 -1.86127 0
M  V30 2900 H 275.425 -5.36321 -3.77751 0
M  V30 2901 H 275.342 -6.92548 -3.03172 0
M  V30 2902 H 276.61 -6.58511 -4.17114 0
M  V30 2903 N 280.839 0.0985539 -1.57292 0
M  V30 2904 C 281.786 1.11981 -2.01814 0
M  V30 2905 C 282.756 1.39999 -0.89384 0
M  V30 2906 O 283.941 1.5152 -1.15958 0
M  V30 2907 C 281.081 2.43577 -2.44467 0
M  V30 2908 C 280.194 2.2232 -3.70402 0
M  V30 2909 C 279.329 3.4729 -4.01949 0
M  V30 2910 C 278.368 3.2128 -5.21005 0
M  V30 2911 N 277.505 4.38507 -5.48321 0
M  V30 2912 H 282.345 0.733149 -2.88841 0
M  V30 2913 H 279.882 0.350482 -1.42864 0
M  V30 2914 H 281.84 3.20373 -2.6724 0
M  V30 2915 H 280.47 2.80097 -1.60455 0
M  V30 2916 H 279.522 1.36343 -3.55126 0
M  V30 2917 H 280.834 1.99089 -4.57345 0
M  V30 2918 H 279.988 4.32495 -4.25479 0
M  V30 2919 H 278.727 3.73572 -3.13521 0
M  V30 2920 H 277.732 2.34468 -4.97298 0
M  V30 2921 H 278.957 2.96348 -6.11028 0
M  V30 2922 H 276.903 4.64871 -4.62851 0
M  V30 2923 H 276.82 4.18455 -6.29628 0
M  V30 2924 H 278.088 5.24787 -5.76385 0
M  V30 2925 N 282.317 1.53212 0.369288 0
M  V30 2926 C 283.247 1.82365 1.45826 0
M  V30 2927 C 284.228 0.676907 1.56051 0
M  V30 2928 O 285.413 0.926401 1.70679 0
M  V30 2929 C 282.543 2.01023 2.83208 0
M  V30 2930 C 281.497 3.1678 2.8781 0
M  V30 2931 C 280.823 3.20724 4.27832 0
M  V30 2932 C 282.123 4.55447 2.55667 0
M  V30 2933 H 283.817 2.73559 1.21678 0
M  V30 2934 H 281.363 1.3163 0.583911 0
M  V30 2935 H 283.316 2.20001 3.59413 0
M  V30 2936 H 282.04 1.06536 3.08736 0
M  V30 2937 H 280.699 2.97616 2.14056 0
M  V30 2938 H 280.347 2.23882 4.50429 0
M  V30 2939 H 280.047 3.98496 4.31827 0
M  V30 2940 H 281.571 3.41881 5.05915 0
M  V30 2941 H 282.985 4.74611 3.21586 0
M  V30 2942 H 281.382 5.35432 2.70984 0
M  V30 2943 H 282.452 4.60812 1.5093 0
M  V30 2944 N 283.795 -0.628877 1.44509 0
M  V30 2945 C 284.758 -1.72263 1.51188 0
M  V30 2946 C 285.758 -1.55907 0.39367 0
M  V30 2947 O 286.948 -1.61361 0.656377 0
M  V30 2948 C 284.08 -3.11365 1.38798 0
M  V30 2949 H 285.273 -1.67714 2.4862 0
M  V30 2950 H 282.826 -0.842737 1.31634 0
M  V30 2951 H 283.561 -3.21507 0.424693 0
M  V30 2952 H 283.346 -3.24644 2.19884 0
M  V30 2953 H 284.836 -3.91075 1.46458 0
M  V30 2954 N 285.273 -1.31445 -0.869486 0
M  V30 2955 C 286.183 -1.21097 -2.0093 0
M  V30 2956 C 287.199 -0.127584 -1.73532 0
M  V30 2957 O 288.375 -0.345477 -1.98415 0
M  V30 2958 C 285.44 -0.919378 -3.34288 0
M  V30 2959 C 284.501 -2.08971 -3.75006 0
M  V30 2960 C 283.734 -1.81194 -5.02001 0
M  V30 2961 O 283.957 -0.747296 -5.65484 0
M  V30 2962 O 282.891 -2.66883 -5.39497 0
M  V30 2963 H 286.717 -2.16883 -2.12592 0
M  V30 2964 H 284.302 -1.11189 -0.997868 0
M  V30 2965 H 286.184 -0.772625 -4.14257 0
M  V30 2966 H 284.859 0.00844772 -3.23699 0
M  V30 2967 H 283.766 -2.29187 -2.95676 0
M  V30 2968 H 285.099 -2.9998 -3.90221 0
M  V30 2969 N 286.751 1.08385 -1.14413 0
M  V30 2970 C 287.999 1.80419 -0.910679 0
M  V30 2971 C 288.32 1.86658 0.564243 0
M  V30 2972 O 287.59 1.35985 1.41014 0
M  V30 2973 H 286.17 0.668204 -0.333934 0
M  V30 2974 H 288.832 1.31037 -1.44275 0
M  V30 2975 H 287.928 2.83238 -1.31082 0
M  V30 2976 N 288.23 0.939286 1.26551 0
M  V30 2977 C 289.16 0.465044 2.28822 0
M  V30 2978 C 290.141 -0.480692 1.63167 0
M  V30 2979 O 291.326 -0.382955 1.90387 0
M  V30 2980 C 288.456 -0.27234 3.46231 0
M  V30 2981 C 287.41 0.58666 4.2396 0
M  V30 2982 C 286.736 -0.280573 5.33963 0
M  V30 2983 C 288.036 1.85704 4.88171 0
M  V30 2984 H 289.73 1.31979 2.68741 0
M  V30 2985 H 287.276 0.636061 1.29191 0
M  V30 2986 H 289.229 -0.615133 4.16886 0
M  V30 2987 H 287.953 -1.16121 3.0526 0
M  V30 2988 H 286.612 0.91232 3.55067 0
M  V30 2989 H 286.26 -1.16874 4.89234 0
M  V30 2990 H 285.96 0.29076 5.8688 0
M  V30 2991 H 287.484 -0.618678 6.07458 0
M  V30 2992 H 288.898 1.58161 5.51052 0
M  V30 2993 H 287.295 2.37279 5.51197 0
M  V30 2994 H 288.365 2.56957 4.11219 0
M  V30 2995 N 289.708 -1.40897 0.706093 0
M  V30 2996 C 290.985 -1.94868 0.169099 0
M  V30 2997 C 291.365 -1.64485 -1.32318 0
M  V30 2998 O 290.713 -0.95744 -2.07474 0
M  V30 2999 C 290.923 -3.45798 0.471654 0
M  V30 3000 C 292.271 -4.22663 0.405127 0
M  V30 3001 O 293.295 -3.53865 0.407168 0
M  V30 3002 O 292.154 -5.45216 0.374383 0
M  V30 3003 H 289.248 -0.82673 0.0211352 0
M  V30 3004 H 291.794 -1.50558 0.782976 0
M  V30 3005 H 290.566 -3.61235 1.50416 0
M  V30 3006 H 290.189 -3.97225 -0.172666 0
M  V30 3007 N 291.186 -0.45159 -1.50991 0
M  V30 3008 C 292.149 0.341117 -2.26647 0
M  V30 3009 C 293.149 0.937422 -1.30649 0
M  V30 3010 O 294.339 0.809644 -1.54241 0
M  V30 3011 C 291.471 1.48398 -3.06905 0
M  V30 3012 H 292.664 -0.322117 -2.98165 0
M  V30 3013 H 290.217 -0.205122 -1.54948 0
M  V30 3014 H 290.952 2.18284 -2.39838 0
M  V30 3015 H 290.737 1.06241 -3.77432 0
M  V30 3016 H 292.227 2.04367 -3.64176 0
M  V30 3017 N 292.664 1.56529 -0.183458 0
M  V30 3018 C 293.594 2.21549 0.737456 0
M  V30 3019 C 294.575 1.17489 1.23005 0
M  V30 3020 O 295.76 1.45959 1.281 0
M  V30 3021 C 292.89 2.86575 1.96194 0
M  V30 3022 C 291.844 3.96778 1.60473 0
M  V30 3023 C 291.17 4.48911 2.90487 0
M  V30 3024 C 292.47 5.15767 0.823497 0
M  V30 3025 H 294.164 2.98761 0.195453 0
M  V30 3026 H 291.71 1.43702 0.0925686 0
M  V30 3027 H 293.663 3.30739 2.61131 0
M  V30 3028 H 292.387 2.06749 2.52828 0
M  V30 3029 H 291.046 3.53286 0.978997 0
M  V30 3030 H 290.694 3.65862 3.45186 0
M  V30 3031 H 290.394 5.23265 2.67335 0
M  V30 3032 H 291.918 4.95771 3.56432 0
M  V30 3033 H 293.332 5.56549 1.37571 0
M  V30 3034 H 291.729 5.96114 0.690551 0
M  V30 3035 H 292.799 4.84574 -0.177782 0
M  V30 3036 N 294.142 -0.090211 1.57342 0
M  V30 3037 C 295.388 -0.793982 1.86611 0
M  V30 3038 C 295.721 -1.78142 0.773252 0
M  V30 3039 O 294.996 -1.93271 -0.218304 0
M  V30 3040 C 295.279 -1.51839 3.26523 0
M  V30 3041 C 295.132 -0.548609 4.46442 0
M  V30 3042 C 296.451 -2.46779 3.64401 0
M  V30 3043 H 293.57 -0.287186 0.678744 0
M  V30 3044 H 296.212 -0.0575076 1.89913 0
M  V30 3045 H 294.362 -2.14617 3.23839 0
M  V30 3046 H 296.034 0.0725513 4.61243 0
M  V30 3047 H 294.277 0.137614 4.33582 0
M  V30 3048 H 294.948 -1.09271 5.41076 0
M  V30 3049 H 297.424 -1.94089 3.68061 0
M  V30 3050 H 296.3 -2.94479 4.63221 0
M  V30 3051 H 296.561 -3.30758 2.93346 0
M  V30 3052 N 295.62 -1.53406 -0.361157 0
M  V30 3053 C 296.553 -1.74946 -1.46524 0
M  V30 3054 C 297.531 -0.59795 -1.51206 0
M  V30 3055 O 298.715 -0.831062 -1.69191 0
M  V30 3056 C 295.842 -1.83224 -2.84863 0
M  V30 3057 C 294.888 -3.05233 -2.97885 0
M  V30 3058 S 295.721 -4.6466 -2.66179 0
M  V30 3059 C 296.877 -4.75793 -4.06659 0
M  V30 3060 H 297.11 -2.68319 -1.28033 0
M  V30 3061 H 294.643 -1.44051 -0.555764 0
M  V30 3062 H 296.601 -1.88679 -3.64569 0
M  V30 3063 H 295.262 -0.908948 -3.00661 0
M  V30 3064 H 294.455 -3.07648 -3.9921 0
M  V30 3065 H 294.057 -2.97913 -2.26106 0
M  V30 3066 H 296.349 -4.5612 -5.0096 0
M  V30 3067 H 297.292 -5.7786 -4.09247 0
M  V30 3068 H 297.7 -4.04389 -3.93865 0
M  V30 3069 N 297.098 0.621204 -1.44841 0
M  V30 3070 C 298.375 1.38 -1.38619 0
M  V30 3071 C 298.755 2.11041 -0.0498935 0
M  V30 3072 O 298.103 2.06992 0.967816 0
M  V30 3073 C 298.313 2.33817 -2.59096 0
M  V30 3074 C 299.661 2.96844 -3.03593 0
M  V30 3075 O 300.685 2.44141 -2.59371 0
M  V30 3076 O 299.544 3.92476 -3.80296 0
M  V30 3077 H 296.638 0.61811 -0.549426 0
M  V30 3078 H 299.184 0.645429 -1.56947 0
M  V30 3079 H 297.956 1.79012 -3.47952 0
M  V30 3080 H 297.579 3.14676 -2.43032 0
M  V30 3081 N 298.576 1.31904 0.862503 0
M  V30 3082 C 299.822 1.22197 1.61851 0
M  V30 3083 C 300.155 -0.217641 1.92977 0
M  V30 3084 O 299.43 -1.15264 1.56666 0
M  V30 3085 C 299.713 2.07378 2.94391 0
M  V30 3086 C 299.566 3.59678 2.70096 0
M  V30 3087 C 300.885 1.92891 3.95577 0
M  V30 3088 H 298.004 0.445255 0.587296 0
M  V30 3089 H 300.646 1.6177 0.99651 0
M  V30 3090 H 298.796 1.73758 3.47477 0
M  V30 3091 H 300.468 4.03472 2.23625 0
M  V30 3092 H 298.711 3.82735 2.04197 0
M  V30 3093 H 299.382 4.14595 3.64438 0
M  V30 3094 H 301.858 2.22327 3.51724 0
M  V30 3095 H 300.734 2.54781 4.86187 0
M  V30 3096 H 300.995 0.894315 4.3296 0
M  V30 3097 N 300.054 -1.07777 1.14986 0
M  V30 3098 C 301.001 -2.14867 0.842672 0
M  V30 3099 C 301.971 -1.6486 -0.202552 0
M  V30 3100 O 303.156 -1.90668 -0.0710568 0
M  V30 3101 C 300.296 -3.43486 0.333363 0
M  V30 3102 C 299.409 -4.07306 1.43965 0
M  V30 3103 C 298.544 -5.23744 0.886914 0
M  V30 3104 C 297.583 -5.79517 1.97043 0
M  V30 3105 N 296.72 -6.87291 1.4344 0
M  V30 3106 H 301.56 -2.40485 1.75986 0
M  V30 3107 H 299.097 -1.1801 0.878179 0
M  V30 3108 H 301.055 -4.17195 0.0198163 0
M  V30 3109 H 299.685 -3.18133 -0.546916 0
M  V30 3110 H 298.737 -3.31293 1.86946 0
M  V30 3111 H 300.049 -4.44771 2.25788 0
M  V30 3112 H 299.203 -6.04419 0.525651 0
M  V30 3113 H 297.942 -4.87685 0.0377957 0
M  V30 3114 H 296.947 -4.97491 2.34057 0
M  V30 3115 H 298.172 -6.17632 2.82325 0
M  V30 3116 H 296.118 -6.5318 0.607567 0
M  V30 3117 H 296.035 -7.23617 2.18895 0
M  V30 3118 H 297.303 -7.71682 1.10124 0
M  V30 3119 N 301.532 -0.945985 -1.26051 0
M  V30 3120 C 302.778 -0.597002 -1.93814 0
M  V30 3121 C 303.111 0.862484 -1.73997 0
M  V30 3122 O 302.386 1.61769 -1.07986 0
M  V30 3123 C 302.669 -0.945937 -3.47454 0
M  V30 3124 C 302.522 -2.46052 -3.76535 0
M  V30 3125 C 303.841 -0.464785 -4.37639 0
M  V30 3126 H 300.96 -0.218366 -0.703907 0
M  V30 3127 H 303.602 -1.18107 -1.48831 0
M  V30 3128 H 301.752 -0.448902 -3.85898 0
M  V30 3129 H 303.424 -3.03065 -3.47778 0
M  V30 3130 H 301.667 -2.90194 -3.22444 0
M  V30 3131 H 302.338 -2.65517 -4.83947 0
M  V30 3132 H 304.814 -0.891016 -4.06448 0
M  V30 3133 H 303.69 -0.737712 -5.4392 0
M  V30 3134 H 303.951 0.635274 -4.37512 0
M  V30 3135 N 303.011 1.40521 -0.713556 0
M  V30 3136 C 304.259 2.00527 -0.251692 0
M  V30 3137 C 304.58 1.56857 1.15848 0
M  V30 3138 O 303.85 0.807127 1.785 0
M  V30 3139 H 302.43 0.741551 -0.0900646 0
M  V30 3140 H 305.092 1.71887 -0.918733 0
M  V30 3141 H 304.188 3.10813 -0.283192 0
M  V30 3142 N 304.489 0.459591 1.5075 0
M  V30 3143 C 305.714 -0.0996819 2.0716 0
M  V30 3144 C 306.139 -1.33761 1.32249 0
M  V30 3145 O 305.497 -1.77551 0.366786 0
M  V30 3146 C 305.545 -0.378226 3.58611 0
M  V30 3147 O 304.649 -1.46081 3.85661 0
M  V30 3148 H 303.99 0.00791392 0.663953 0
M  V30 3149 H 306.52 0.647329 1.9409 0
M  V30 3150 H 306.53 -0.622135 4.03229 0
M  V30 3151 H 305.205 0.526439 4.12555 0
M  V30 3152 H 303.782 -1.20511 3.5289 0
M  V30 3153 N 305.967 -1.56429 0.191757 0
M  V30 3154 C 307.215 -1.97095 -0.447006 0
M  V30 3155 C 307.536 -1.07967 -1.62383 0
M  V30 3156 O 306.806 -0.150248 -1.95323 0
M  V30 3157 H 305.386 -0.727832 -0.168135 0
M  V30 3158 H 308.048 -1.92911 0.27771 0
M  V30 3159 H 307.144 -3.01848 -0.793371 0
M  V30 3160 N 307.445 0.0818655 -1.57387 0
M  V30 3161 C 308.408 1.08265 -2.02018 0
M  V30 3162 C 309.408 1.32183 -0.915664 0
M  V30 3163 O 310.598 1.28073 -1.18081 0
M  V30 3164 C 307.73 2.42871 -2.39221 0
M  V30 3165 H 308.923 0.698204 -2.91659 0
M  V30 3166 H 306.476 0.327303 -1.52835 0
M  V30 3167 H 307.211 2.86167 -1.52575 0
M  V30 3168 H 306.996 2.26855 -3.19811 0
M  V30 3169 H 308.486 3.14826 -2.74362 0
M  V30 3170 N 308.923 1.53595 0.353017 0
M  V30 3171 C 310.17 1.70385 1.09431 0
M  V30 3172 C 310.498 0.462113 1.88931 0
M  V30 3173 O 309.753 -0.556074 1.87633 0
M  V30 3174 C 310.052 2.91313 2.07054 0
M  V30 3175 C 309.718 4.27308 1.43939 0
M  V30 3176 C 308.38 4.64287 1.26454 0
M  V30 3177 C 310.732 5.11829 0.983883 0
M  V30 3178 C 308.06 5.83412 0.620226 0
M  V30 3179 C 310.412 6.31611 0.353516 0
M  V30 3180 C 309.076 6.67293 0.166272 0
M  V30 3181 H 308.346 0.623484 0.400436 0
M  V30 3182 H 310.993 1.87799 0.374655 0
M  V30 3183 H 309.298 2.68463 2.85368 0
M  V30 3184 H 310.995 3.01497 2.64387 0
M  V30 3185 H 307.585 3.98198 1.58543 0
M  V30 3186 H 311.769 4.838 1.10685 0
M  V30 3187 H 307.025 6.09639 0.463681 0
M  V30 3188 H 311.199 6.964 -0.00757555 0
M  V30 3189 H 308.826 7.59461 -0.335047 0
M  V30 3190 N 310.401 -0.613514 1.45168 0
M  V30 3191 C 311.334 -1.73809 1.47871 0
M  V30 3192 C 312.312 -1.59097 0.33568 0
M  V30 3193 O 313.496 -1.8074 0.535299 0
M  V30 3194 C 310.623 -3.11574 1.32813 0
M  V30 3195 C 309.669 -3.4489 2.50905 0
M  V30 3196 S 310.502 -3.40393 4.13392 0
M  V30 3197 C 311.658 -4.80749 4.00789 0
M  V30 3198 H 311.891 -1.71252 2.43023 0
M  V30 3199 H 309.424 -0.789658 1.32679 0
M  V30 3200 H 311.382 -3.91065 1.24812 0
M  V30 3201 H 310.043 -3.11652 0.391418 0
M  V30 3202 H 309.236 -4.45183 2.36279 0
M  V30 3203 H 308.838 -2.72901 2.55736 0
M  V30 3204 H 311.13 -5.7041 3.65567 0
M  V30 3205 H 312.073 -5.00431 5.00974 0
M  V30 3206 H 312.481 -4.56151 3.32545 0
M  V30 3207 N 311.879 -1.3236 -0.855495 0
M  V30 3208 C 313.29 -1.2056 -1.42556 0
M  V30 3209 C 313.641 0.182209 -1.95352 0
M  V30 3210 O 312.766 1.08088 -1.87472 0
M  V30 3211 C 313.361 -2.1826 -2.59129 0
M  V30 3212 C 311.92 -2.10351 -3.12137 0
M  V30 3213 C 311.067 -2.06674 -1.84882 0
M  V30 3214 H 314.018 -1.442 -0.662727 0
M  V30 3215 H 314.039 -1.78064 -3.36264 0
M  V30 3216 H 313.551 -3.19257 -2.20673 0
M  V30 3217 H 311.652 -1.12599 -3.55179 0
M  V30 3218 H 311.765 -3.00135 -3.73438 0
M  V30 3219 H 310.129 -1.51901 -2.04446 0
M  V30 3220 H 310.912 -3.09451 -1.48643 0
M  V30 3221 N 313.357 1.07166 -1.15556 0
M  V30 3222 C 314.585 1.83514 -0.955519 0
M  V30 3223 C 315 1.82163 0.49621 0
M  V30 3224 O 314.357 1.23441 1.34419 0
M  V30 3225 C 314.408 3.30515 -1.46432 0
M  V30 3226 O 314.129 3.31937 -2.85918 0
M  V30 3227 C 315.63 4.23625 -1.30603 0
M  V30 3228 H 312.85 0.578926 -0.339244 0
M  V30 3229 H 315.394 1.35265 -1.53374 0
M  V30 3230 H 313.549 3.76106 -0.928584 0
M  V30 3231 H 313.963 4.23794 -3.09029 0
M  V30 3232 H 315.437 5.24831 -1.71047 0
M  V30 3233 H 315.914 4.38485 -0.250441 0
M  V30 3234 H 316.52 3.83871 -1.83094 0
M  V30 3235 N 314.835 0.952656 1.25548 0
M  V30 3236 C 316.065 0.622592 1.96996 0
M  V30 3237 C 316.473 -0.809112 1.71026 0
M  V30 3238 O 315.816 -1.55258 0.981861 0
M  V30 3239 C 315.878 0.798946 3.5051 0
M  V30 3240 C 315.542 2.20744 4.00151 0
M  V30 3241 C 316.539 3.18394 4.11001 0
M  V30 3242 C 314.224 2.5311 4.33867 0
M  V30 3243 C 316.218 4.46504 4.54877 0
M  V30 3244 C 313.905 3.8145 4.7743 0
M  V30 3245 C 314.903 4.77959 4.87897 0
M  V30 3246 O 314.591 6.04012 5.30494 0
M  V30 3247 H 314.323 0.232503 0.634758 0
M  V30 3248 H 316.877 1.2789 1.60728 0
M  V30 3249 H 315.107 0.0854903 3.86605 0
M  V30 3250 H 316.796 0.47023 4.03167 0
M  V30 3251 H 317.562 2.94715 3.85186 0
M  V30 3252 H 313.441 1.78719 4.24948 0
M  V30 3253 H 316.985 5.21835 4.62962 0
M  V30 3254 H 312.882 4.04936 5.0269 0
M  V30 3255 H 313.65 6.0736 5.48685 0
M  V30 3256 N 316.313 -1.40141 0.720998 0
M  V30 3257 C 317.223 -2.34486 0.0731031 0
M  V30 3258 C 318.239 -1.57587 -0.737723 0
M  V30 3259 O 319.415 -1.89949 -0.669429 0
M  V30 3260 C 316.48 -3.36528 -0.833656 0
M  V30 3261 C 315.541 -4.29298 -0.0121673 0
M  V30 3262 C 314.774 -5.26466 -0.875742 0
M  V30 3263 O 314.997 -5.29745 -2.11485 0
M  V30 3264 O 313.931 -6.01092 -0.31185 0
M  V30 3265 H 317.757 -2.9152 0.851444 0
M  V30 3266 H 315.342 -1.41427 0.481527 0
M  V30 3267 H 317.224 -3.99093 -1.35289 0
M  V30 3268 H 315.899 -2.81899 -1.59105 0
M  V30 3269 H 314.806 -3.70001 0.552262 0
M  V30 3270 H 316.139 -4.87094 0.707129 0
M  V30 3271 N 317.792 -0.46758 -1.50504 0
M  V30 3272 C 318.722 0.318381 -2.31319 0
M  V30 3273 C 319.703 0.993564 -1.38066 0
M  V30 3274 O 320.888 0.991411 -1.66987 0
M  V30 3275 C 318.018 1.40275 -3.17711 0
M  V30 3276 C 316.972 0.849373 -4.19487 0
M  V30 3277 C 316.298 2.03177 -4.94594 0
M  V30 3278 C 317.598 -0.136942 -5.2212 0
M  V30 3279 H 319.292 -0.356106 -2.97275 0
M  V30 3280 H 316.838 -0.172703 -1.42961 0
M  V30 3281 H 318.791 1.96004 -3.73042 0
M  V30 3282 H 317.515 2.10596 -2.49634 0
M  V30 3283 H 316.174 0.314076 -3.65252 0
M  V30 3284 H 315.822 2.72187 -4.22993 0
M  V30 3285 H 315.522 1.66774 -5.63436 0
M  V30 3286 H 317.046 2.59403 -5.52759 0
M  V30 3287 H 318.46 0.331056 -5.72343 0
M  V30 3288 H 316.857 -0.41507 -5.98663 0
M  V30 3289 H 317.927 -1.06398 -4.73083 0
M  V30 3290 N 319.27 1.56325 -0.20005 0
M  V30 3291 C 320.495 2.02548 0.44597 0
M  V30 3292 C 320.92 1.07922 1.5406 0
M  V30 3293 O 320.278 0.0635775 1.81188 0
M  V30 3294 C 320.326 3.47175 0.974761 0
M  V30 3295 O 319.43 3.55671 2.08739 0
M  V30 3296 H 318.771 0.655862 0.103638 0
M  V30 3297 H 321.301 2.02201 -0.312381 0
M  V30 3298 H 321.311 3.87067 1.2901 0
M  V30 3299 H 319.986 4.15538 0.17347 0
M  V30 3300 H 318.563 3.27657 1.78032 0
M  V30 3301 N 320.748 -0.0735177 1.57428 0
M  V30 3302 C 321.658 -1.10547 2.06922 0
M  V30 3303 C 322.674 -1.42506 0.998402 0
M  V30 3304 O 323.85 -1.52717 1.31299 0
M  V30 3305 C 320.915 -2.40019 2.50184 0
M  V30 3306 C 319.976 -2.15046 3.71556 0
M  V30 3307 C 319.209 -3.38345 4.12745 0
M  V30 3308 O 319.432 -4.47399 3.53822 0
M  V30 3309 O 318.366 -3.2666 5.05546 0
M  V30 3310 H 322.192 -0.715013 2.95163 0
M  V30 3311 H 319.777 -0.287531 1.46607 0
M  V30 3312 H 321.659 -3.16218 2.78539 0
M  V30 3313 H 320.334 -2.78447 1.65072 0
M  V30 3314 H 319.241 -1.36558 3.48285 0
M  V30 3315 H 320.574 -1.81499 4.57514 0
M  V30 3316 N 322.226 -1.5378 -0.344866 0
M  V30 3317 C 323.189 -1.80981 -1.40637 0
M  V30 3318 C 324.189 -0.680816 -1.45676 0
M  V30 3319 O 325.379 -0.949095 -1.46075 0
M  V30 3320 C 322.511 -1.95063 -2.79577 0
M  V30 3321 H 323.704 -2.75803 -1.17783 0
M  V30 3322 H 321.257 -1.45173 -0.579181 0
M  V30 3323 H 321.992 -1.02379 -3.07716 0
M  V30 3324 H 321.777 -2.77198 -2.77315 0
M  V30 3325 H 323.267 -2.17629 -3.56409 0
M  V30 3326 N 323.704 0.605807 -1.45491 0
M  V30 3327 C 324.634 1.72709 -1.57143 0
M  V30 3328 C 325.615 1.6476 -0.422884 0
M  V30 3329 O 326.8 1.83132 -0.646247 0
M  V30 3330 C 323.93 3.11316 -1.53948 0
M  V30 3331 C 322.884 3.34077 -2.67537 0
M  V30 3332 C 322.21 4.72975 -2.49397 0
M  V30 3333 C 323.51 3.24158 -4.09535 0
M  V30 3334 H 325.204 1.63214 -2.51001 0
M  V30 3335 H 322.75 0.78379 -1.208 0
M  V30 3336 H 324.703 3.89557 -1.60696 0
M  V30 3337 H 323.427 3.21655 -0.566205 0
M  V30 3338 H 322.086 2.58227 -2.6022 0
M  V30 3339 H 321.734 4.8005 -1.50205 0
M  V30 3340 H 321.434 4.8916 -3.25571 0
M  V30 3341 H 322.958 5.53414 -2.58002 0
M  V30 3342 H 324.372 3.92271 -4.18086 0
M  V30 3343 H 322.769 3.51872 -4.86113 0
M  V30 3344 H 323.839 2.2157 -4.31317 0
M  V30 3345 N 325.182 1.32811 0.848464 0
M  V30 3346 C 326.145 1.22194 1.9391 0
M  V30 3347 C 327.145 0.143404 1.60159 0
M  V30 3348 O 328.335 0.394253 1.6968 0
M  V30 3349 C 325.467 0.88067 3.29328 0
M  V30 3350 H 326.66 2.19127 2.04752 0
M  V30 3351 H 324.213 1.16731 1.0394 0
M  V30 3352 H 324.948 -0.0865776 3.24184 0
M  V30 3353 H 324.733 1.66052 3.55203 0
M  V30 3354 H 326.223 0.830871 4.09251 0
M  V30 3355 N 326.66 -1.06551 1.16123 0
M  V30 3356 C 327.57 -2.17484 0.879662 0
M  V30 3357 C 328.586 -1.73377 -0.147104 0
M  V30 3358 O 329.762 -2.01379 0.0289128 0
M  V30 3359 C 326.827 -3.44591 0.381829 0
M  V30 3360 C 325.888 -4.0322 1.4735 0
M  V30 3361 C 325.121 -5.24261 0.999324 0
M  V30 3362 O 325.344 -5.70198 -0.151957 0
M  V30 3363 O 324.278 -5.74775 1.78653 0
M  V30 3364 H 328.104 -2.44075 1.80724 0
M  V30 3365 H 325.689 -1.16042 0.940992 0
M  V30 3366 H 327.571 -4.21254 0.111053 0
M  V30 3367 H 326.246 -3.19532 -0.51777 0
M  V30 3368 H 325.153 -3.2806 1.79798 0
M  V30 3369 H 326.486 -4.32568 2.34831 0
M  V30 3370 N 328.138 -0.959301 -1.25041 0
M  V30 3371 C 329.101 -0.487677 -2.23952 0
M  V30 3372 C 330.101 0.41119 -1.55454 0
M  V30 3373 O 331.291 0.207825 -1.72956 0
M  V30 3374 C 328.423 0.294807 -3.39623 0
M  V30 3375 H 329.616 -1.36198 -2.67189 0
M  V30 3376 H 327.169 -0.743042 -1.37508 0
M  V30 3377 H 327.904 1.18658 -3.01813 0
M  V30 3378 H 327.689 -0.35012 -3.90534 0
M  V30 3379 H 329.179 0.614089 -4.1306 0
M  V30 3380 N 329.616 1.39756 -0.72842 0
M  V30 3381 C 330.865 1.99879 -0.270407 0
M  V30 3382 C 331.178 1.58449 1.14688 0
M  V30 3383 O 332.384 2.11362 1.70407 0
M  V30 3384 C 330.84 3.57292 -0.43252 0
M  V30 3385 C 330.448 4.07688 -1.85727 0
M  V30 3386 C 332.192 4.24485 -0.0359507 0
M  V30 3387 C 330.099 5.5765 -1.96928 0
M  V30 3388 H 329.029 0.747689 -0.0973472 0
M  V30 3389 H 331.68 1.59837 -0.901355 0
M  V30 3390 H 330.062 3.95097 0.267219 0
M  V30 3391 H 331.236 3.81231 -2.58843 0
M  V30 3392 H 329.551 3.53135 -2.20646 0
M  V30 3393 H 332.148 5.34609 -0.0987484 0
M  V30 3394 H 332.491 4.03915 1.00787 0
M  V30 3395 H 333.024 3.9183 -0.686604 0
M  V30 3396 H 329.763 5.8309 -2.99476 0
M  V30 3397 H 329.283 5.8593 -1.28241 0
M  V30 3398 H 330.962 6.22957 -1.74737 0
M  V30 3399 N 331.094 0.475555 1.50254 0
M  V30 3400 C 332.34 -0.0780073 2.0265 0
M  V30 3401 C 332.673 -1.38968 1.35652 0
M  V30 3402 O 331.948 -1.8839 0.483691 0
M  V30 3403 C 332.231 -0.257161 3.59181 0
M  V30 3404 C 332.084 1.07585 4.36744 0
M  V30 3405 C 333.403 -1.00965 4.28362 0
M  V30 3406 H 330.522 -0.0268758 0.73651 0
M  V30 3407 H 333.164 0.622015 1.7953 0
M  V30 3408 H 331.314 -0.853412 3.79011 0
M  V30 3409 H 332.986 1.70902 4.28474 0
M  V30 3410 H 331.229 1.6714 4.00308 0
M  V30 3411 H 331.9 0.904088 5.44546 0
M  V30 3412 H 334.376 -0.504214 4.13034 0
M  V30 3413 H 333.252 -1.10381 5.37687 0
M  V30 3414 H 333.513 -2.04731 3.91839 0
M  V30 3415 N 332.573 -1.56217 0.208337 0
M  V30 3416 C 333.821 -1.97558 -0.426076 0
M  V30 3417 C 334.142 -1.09683 -1.61229 0
M  V30 3418 O 333.412 -0.170956 -1.95153 0
M  V30 3419 H 331.992 -0.729575 -0.160405 0
M  V30 3420 H 334.654 -1.92606 0.298155 0
M  V30 3421 H 333.75 -3.02672 -0.761312 0
M  V30 3422 N 334.051 0.0651679 -1.57465 0
M  V30 3423 C 335.297 0.764193 -1.87851 0
M  V30 3424 C 335.63 1.76889 -0.801495 0
M  V30 3425 O 334.905 1.93594 0.187528 0
M  V30 3426 C 335.188 1.46625 -3.28897 0
M  V30 3427 C 335.041 0.477515 -4.47258 0
M  V30 3428 C 336.36 2.4095 -3.68281 0
M  V30 3429 H 333.479 0.276351 -0.683227 0
M  V30 3430 H 336.121 0.0272868 -1.8998 0
M  V30 3431 H 334.271 2.09438 -3.27212 0
M  V30 3432 H 335.943 -0.145922 -4.61069 0
M  V30 3433 H 334.186 -0.206576 -4.33308 0
M  V30 3434 H 334.857 1.0065 -5.42746 0
M  V30 3435 H 337.333 1.88209 -3.71102 0
M  V30 3436 H 336.209 2.87072 -4.67847 0
M  V30 3437 H 336.47 3.26049 -2.98571 0
M  V30 3438 N 335.529 1.53961 0.336706 0
M  V30 3439 C 336.492 1.81724 1.39675 0
M  V30 3440 C 337.492 0.688532 1.45313 0
M  V30 3441 O 338.682 0.956829 1.45569 0
M  V30 3442 C 335.814 1.96543 2.78538 0
M  V30 3443 H 337.007 2.76424 1.16318 0
M  V30 3444 H 334.56 1.45478 0.571474 0
M  V30 3445 H 335.295 1.0401 3.07168 0
M  V30 3446 H 335.08 2.78665 2.75841 0
M  V30 3447 H 336.57 2.19516 3.5525 0
M  V30 3448 N 337.007 -0.598083 1.45811 0
M  V30 3449 C 337.955 -1.72932 1.55555 0
M  V30 3450 C 338.949 -1.63984 0.424921 0
M  V30 3451 O 340.155 -1.69663 0.601205 0
M  V30 3452 H 336.53 -0.571489 0.488779 0
M  V30 3453 H 338.501 -1.61842 2.50699 0
M  V30 3454 C 337.25 -3.11318 1.54843 0
M  V30 3455 H 336.573 -3.18867 2.41172 0
M  V30 3456 H 338.013 -3.90274 1.65717 0
M  V30 3457 C 336.472 -3.3578 0.274427 0
M  V30 3458 O 337.002 -3.9654 -0.641778 0
M  V30 3459 N 335.208 -2.90119 0.167139 0
M  V30 3460 H 334.755 -2.40855 0.913596 0
M  V30 3461 H 334.713 -3.0686 -0.684435 0
M  V30 3462 N 338.485 -1.33259 -0.841409 0
M  V30 3463 C 339.733 -1.24326 -1.59334 0
M  V30 3464 C 340.054 0.191564 -1.94057 0
M  V30 3465 O 339.324 1.11967 -1.60749 0
M  V30 3466 H 337.904 -0.457174 -0.590763 0
M  V30 3467 H 340.566 -1.66947 -1.00571 0
M  V30 3468 H 339.662 -1.8352 -2.52442 0
M  V30 3469 N 339.963 1.05934 -1.16686 0
M  V30 3470 C 340.926 2.11669 -0.879144 0
M  V30 3471 C 341.926 1.60294 0.127445 0
M  V30 3472 O 343.116 1.7389 -0.103865 0
M  V30 3473 C 340.248 3.39438 -0.315425 0
M  V30 3474 H 341.441 2.38626 -1.81653 0
M  V30 3475 H 338.994 1.22058 -0.976299 0
M  V30 3476 H 339.729 3.18132 0.629468 0
M  V30 3477 H 339.514 3.78034 -1.04079 0
M  V30 3478 H 341.004 4.17391 -0.132189 0
M  V30 3479 N 341.441 0.965919 1.2453 0
M  V30 3480 C 342.689 0.625593 1.92174 0
M  V30 3481 C 343.01 -0.841652 1.75901 0
M  V30 3482 O 342.28 -1.60061 1.12948 0
M  V30 3483 H 340.86 0.228388 0.71123 0
M  V30 3484 H 343.522 1.2266 1.51461 0
M  V30 3485 H 342.618 0.864653 2.99884 0
M  V30 3486 N 342.919 -1.39368 0.735821 0
M  V30 3487 C 344.165 -2.00794 0.284544 0
M  V30 3488 C 344.498 -1.58255 -1.12557 0
M  V30 3489 O 343.773 -0.811819 -1.76748 0
M  V30 3490 C 344.056 -3.58011 0.387337 0
M  V30 3491 C 343.909 -4.10566 1.83728 0
M  V30 3492 C 345.228 -4.395 -0.22975 0
M  V30 3493 H 342.347 -0.729501 0.104866 0
M  V30 3494 H 344.989 -1.65564 0.93213 0
M  V30 3495 H 343.139 -3.88154 -0.164006 0
M  V30 3496 H 344.811 -3.91139 2.44556 0
M  V30 3497 H 343.054 -3.64095 2.35833 0
M  V30 3498 H 343.725 -5.19702 1.86047 0
M  V30 3499 H 346.201 -4.15406 0.240257 0
M  V30 3500 H 345.077 -5.48752 -0.127485 0
M  V30 3501 H 345.338 -4.22062 -1.3159 0
M  V30 3502 N 344.397 -0.483516 -1.5 0
M  V30 3503 C 345.813 -0.138404 -1.58999 0
M  V30 3504 C 346.013 1.35597 -1.4905 0
M  V30 3505 O 345.069 2.13039 -1.35539 0
M  V30 3506 C 346.382 -0.699658 -2.92447 0
M  V30 3507 C 347.93 -0.664195 -3.05872 0
M  V30 3508 C 348.405 -1.20321 -4.41913 0
M  V30 3509 N 349.896 -1.16315 -4.48358 0
M  V30 3510 C 350.631 -1.55058 -5.52037 0
M  V30 3511 N 350.127 -2.01311 -6.62907 0
M  V30 3512 N 351.92 -1.46584 -5.42651 0
M  V30 3513 H 344.071 -1.45529 -1.5471 0
M  V30 3514 H 346.334 -0.60258 -0.731848 0
M  V30 3515 H 346.04 -1.747 -3.05242 0
M  V30 3516 H 345.914 -0.150194 -3.76901 0
M  V30 3517 H 348.301 0.374272 -2.92717 0
M  V30 3518 H 348.382 -1.25061 -2.23144 0
M  V30 3519 H 348.026 -2.24037 -4.55818 0
M  V30 3520 H 347.956 -0.592896 -5.23252 0
M  V30 3521 H 350.447 -0.824058 -3.68806 0
M  V30 3522 H 350.76 -2.2899 -7.38095 0
M  V30 3523 H 349.105 -2.05273 -6.63994 0
M  V30 3524 H 352.296 -1.10281 -4.54924 0
M  V30 3525 H 352.469 -1.77103 -6.23329 0
M  V30 3526 N 345.875 1.56104 -0.216619 0
M  V30 3527 C 347.103 2.02563 0.421413 0
M  V30 3528 C 347.518 1.0965 1.53695 0
M  V30 3529 O 346.875 0.10521 1.82196 0
M  V30 3530 C 346.926 3.48584 0.957665 0
M  V30 3531 O 346.647 4.37953 -0.113389 0
M  V30 3532 C 348.148 4.10664 1.66943 0
M  V30 3533 H 345.368 0.662944 0.103665 0
M  V30 3534 H 347.912 2.01793 -0.331629 0
M  V30 3535 H 346.067 3.49985 1.661 0
M  V30 3536 H 346.481 5.23704 0.288932 0
M  V30 3537 H 347.955 5.14622 1.99671 0
M  V30 3538 H 348.432 3.55373 2.58083 0
M  V30 3539 H 349.038 4.13098 1.01142 0
M  V30 3540 N 347.353 -0.0568162 1.57498 0
M  V30 3541 C 348.581 -0.765626 1.92213 0
M  V30 3542 C 348.996 -1.70353 0.813961 0
M  V30 3543 O 348.353 -1.81268 -0.211701 0
M  V30 3544 C 348.404 -1.5465 3.2675 0
M  V30 3545 O 348.125 -0.646278 4.33307 0
M  V30 3546 C 349.626 -2.35497 3.75574 0
M  V30 3547 H 346.846 -0.216835 0.634999 0
M  V30 3548 H 349.39 -0.0226146 2.04487 0
M  V30 3549 H 347.545 -2.24165 3.15957 0
M  V30 3550 H 347.959 -1.19093 5.108 0
M  V30 3551 H 349.433 -2.85722 4.72299 0
M  V30 3552 H 349.91 -3.15692 3.05344 0
M  V30 3553 H 350.516 -1.7111 3.8936 0
M  V30 3554 N 348.832 -1.54138 -0.328536 0
M  V30 3555 C 349.795 -1.82462 -1.38709 0
M  V30 3556 C 350.795 -0.696229 -1.44946 0
M  V30 3557 O 351.985 -0.964535 -1.4506 0
M  V30 3558 C 349.117 -1.98018 -2.77492 0
M  V30 3559 H 350.31 -2.77037 -1.14851 0
M  V30 3560 H 347.863 -1.45779 -0.563751 0
M  V30 3561 H 348.598 -1.05637 -3.06613 0
M  V30 3562 H 348.383 -2.80124 -2.74359 0
M  V30 3563 H 349.873 -2.21396 -3.54081 0
M  V30 3564 N 350.31 0.590341 -1.46126 0
M  V30 3565 C 351.24 1.71032 -1.58966 0
M  V30 3566 C 352.221 1.64302 -0.440335 0
M  V30 3567 O 353.406 1.82436 -0.665634 0
M  V30 3568 C 350.536 3.09665 -1.57241 0
M  V30 3569 C 349.49 3.31221 -2.71066 0
M  V30 3570 C 348.816 4.70303 -2.54399 0
M  V30 3571 C 350.116 3.19796 -4.1295 0
M  V30 3572 H 351.81 1.60543 -2.52718 0
M  V30 3573 H 349.356 0.770933 -1.21625 0
M  V30 3574 H 351.309 3.87831 -1.64819 0
M  V30 3575 H 350.033 3.21036 -0.600289 0
M  V30 3576 H 348.692 2.55452 -2.62944 0
M  V30 3577 H 348.34 4.78429 -1.55288 0
M  V30 3578 H 348.04 4.85679 -3.30741 0
M  V30 3579 H 349.564 5.50647 -2.63857 0
M  V30 3580 H 350.978 3.87815 -4.22223 0
M  V30 3581 H 349.375 3.46696 -4.89818 0
M  V30 3582 H 350.445 2.16983 -4.33643 0
M  V30 3583 N 351.788 1.33704 0.83433 0
M  V30 3584 C 352.718 1.26967 1.95963 0
M  V30 3585 C 353.699 0.149337 1.69443 0
M  V30 3586 O 354.884 0.339852 1.91203 0
M  V30 3587 C 352.014 1.01275 3.32206 0
M  V30 3588 C 350.968 2.09652 3.73136 0
M  V30 3589 C 350.294 1.69166 5.07235 0
M  V30 3590 C 351.594 3.51372 3.86439 0
M  V30 3591 H 353.288 2.2112 2.01857 0
M  V30 3592 H 350.834 1.06447 0.969793 0
M  V30 3593 H 352.787 0.952106 4.10503 0
M  V30 3594 H 351.511 0.0356203 3.26581 0
M  V30 3595 H 350.17 2.14766 2.97104 0
M  V30 3596 H 349.818 0.701437 4.98085 0
M  V30 3597 H 349.518 2.41694 5.35591 0
M  V30 3598 H 351.042 1.64576 5.88003 0
M  V30 3599 H 352.456 3.48734 4.55036 0
M  V30 3600 H 350.853 4.22425 4.26236 0
M  V30 3601 H 351.923 3.89546 2.88759 0
M  V30 3602 N 353.266 -1.05314 1.17247 0
M  V30 3603 C 354.494 -1.81971 0.984593 0
M  V30 3604 C 354.909 -1.82929 -0.467166 0
M  V30 3605 O 354.266 -1.25564 -1.32438 0
M  V30 3606 C 354.317 -3.28143 1.51672 0
M  V30 3607 O 354.038 -3.27347 2.91163 0
M  V30 3608 C 355.539 -4.21493 1.37326 0
M  V30 3609 H 352.759 -0.573455 0.348411 0
M  V30 3610 H 355.303 -1.32808 1.55506 0
M  V30 3611 H 353.458 -3.74582 0.988302 0
M  V30 3612 H 353.872 -4.18824 3.15732 0
M  V30 3613 H 355.346 -5.22043 1.79375 0
M  V30 3614 H 355.823 -4.38031 0.320169 0
M  V30 3615 H 356.429 -3.80909 1.89178 0
M  V30 3616 N 354.744 -0.972509 -1.24016 0
M  V30 3617 C 356.021 -0.553733 -1.87598 0
M  V30 3618 C 356.401 0.969158 -1.87538 0
M  V30 3619 O 355.749 1.84255 -1.35139 0
M  V30 3620 C 355.959 -1.15076 -3.29482 0
M  V30 3621 C 357.307 -1.23862 -4.06132 0
M  V30 3622 O 358.331 -1.10363 -3.38672 0
M  V30 3623 O 357.19 -1.45252 -5.26844 0
M  V30 3624 H 354.284 -0.185331 -0.805966 0
M  V30 3625 H 356.83 -1.06709 -1.31952 0
M  V30 3626 H 355.602 -2.19333 -3.2405 0
M  V30 3627 H 355.225 -0.621746 -3.92709 0
M  V30 3628 N 356.222 1.38976 -0.743202 0
M  V30 3629 C 357.155 2.28128 -0.0572165 0
M  V30 3630 C 358.133 1.44827 0.739182 0
M  V30 3631 O 359.317 1.74207 0.720009 0
M  V30 3632 C 356.444 3.25796 0.926001 0
M  V30 3633 C 355.49 4.25947 0.217099 0
M  V30 3634 S 356.323 5.24604 -1.07477 0
M  V30 3635 C 357.479 6.25829 -0.0943545 0
M  V30 3636 H 357.712 2.85961 -0.813246 0
M  V30 3637 H 355.245 1.44822 -0.535341 0
M  V30 3638 H 357.203 3.82583 1.48797 0
M  V30 3639 H 355.864 2.66966 1.65493 0
M  V30 3640 H 355.057 4.94746 0.961372 0
M  V30 3641 H 354.659 3.73002 -0.273059 0
M  V30 3642 H 356.951 6.73411 0.743239 0
M  V30 3643 H 357.894 7.0412 -0.749713 0
M  V30 3644 H 358.302 5.63797 0.281706 0
M  V30 3645 N 357.7 0.491464 1.49741 0
M  V30 3646 C 358.648 -0.305837 2.30581 0
M  V30 3647 C 359.642 -0.971642 1.38764 0
M  V30 3648 O 360.848 -0.90042 1.5586 0
M  V30 3649 H 357.223 -0.117482 0.742767 0
M  V30 3650 H 359.194 0.396093 2.95759 0
M  V30 3651 C 357.943 -1.36319 3.19863 0
M  V30 3652 H 357.266 -0.860258 3.90435 0
M  V30 3653 H 358.706 -1.89323 3.79385 0
M  V30 3654 C 357.165 -2.37621 2.38826 0
M  V30 3655 O 357.695 -3.43311 2.08567 0
M  V30 3656 N 355.901 -2.09849 2.01026 0
M  V30 3657 H 355.448 -1.23922 2.25834 0
M  V30 3658 H 355.406 -2.77859 1.47112 0
M  V30 3659 N 359.178 -1.55987 0.224894 0
M  V30 3660 C 360.11 -2.17722 -0.716224 0
M  V30 3661 C 361.123 -1.14723 -1.15509 0
M  V30 3662 O 362.312 -1.41688 -1.08567 0
M  V30 3663 C 359.412 -2.74873 -1.98238 0
M  V30 3664 C 358.585 -4.03074 -1.69853 0
M  V30 3665 C 357.644 -4.44757 -2.81208 0
M  V30 3666 O 356.67 -5.11587 -2.49534 0
M  V30 3667 N 357.872 -4.10716 -4.10235 0
M  V30 3668 H 360.637 -2.99109 -0.188123 0
M  V30 3669 H 358.198 -1.6184 0.0440123 0
M  V30 3670 H 360.19 -2.99727 -2.7193 0
M  V30 3671 H 358.76 -1.9777 -2.42086 0
M  V30 3672 H 357.98 -3.86041 -0.797875 0
M  V30 3673 H 359.268 -4.86701 -1.48324 0
M  V30 3674 H 358.666 -3.57019 -4.38809 0
M  V30 3675 H 357.223 -4.40455 -4.80461 0
M  V30 3676 N 360.656 0.0484629 -1.57525 0
M  V30 3677 C 361.902 0.744226 -1.88651 0
M  V30 3678 C 362.235 1.76029 -0.820212 0
M  V30 3679 O 361.51 1.93782 0.166985 0
M  V30 3680 C 361.793 1.43128 -3.30434 0
M  V30 3681 C 361.646 0.43005 -4.47739 0
M  V30 3682 C 362.965 2.37031 -3.70816 0
M  V30 3683 H 360.084 0.269089 -0.68612 0
M  V30 3684 H 362.726 0.00713532 -1.89999 0
M  V30 3685 H 360.876 2.05956 -3.29415 0
M  V30 3686 H 362.548 -0.194816 -4.60888 0
M  V30 3687 H 360.791 -0.252522 -4.33064 0
M  V30 3688 H 361.462 0.948874 -5.43783 0
M  V30 3689 H 363.938 1.84263 -3.73077 0
M  V30 3690 H 362.814 2.82094 -4.70865 0
M  V30 3691 H 363.075 3.22864 -3.02012 0
M  V30 3692 N 362.134 1.5431 0.320358 0
M  V30 3693 C 363.064 1.86912 1.3995 0
M  V30 3694 C 364.045 0.726211 1.53819 0
M  V30 3695 O 365.23 0.980233 1.67646 0
M  V30 3696 C 362.36 2.09932 2.7667 0
M  V30 3697 C 361.314 3.25776 2.77586 0
M  V30 3698 C 360.64 3.34173 4.17412 0
M  V30 3699 C 361.94 4.6335 2.41048 0
M  V30 3700 H 363.634 2.77292 1.12914 0
M  V30 3701 H 361.18 1.33421 0.541738 0
M  V30 3702 H 363.133 2.31324 3.52232 0
M  V30 3703 H 361.857 1.16304 3.0519 0
M  V30 3704 H 360.516 3.04276 2.04479 0
M  V30 3705 H 360.164 2.38098 4.43078 0
M  V30 3706 H 359.864 4.12033 4.18931 0
M  V30 3707 H 361.388 3.57803 4.94782 0
M  V30 3708 H 362.802 4.84602 3.06324 0
M  V30 3709 H 361.199 5.43782 2.53813 0
M  V30 3710 H 362.269 4.65381 1.36193 0
M  V30 3711 N 363.613 -0.582584 1.46437 0
M  V30 3712 C 364.576 -1.67366 1.56592 0
M  V30 3713 C 365.576 -1.54575 0.443072 0
M  V30 3714 O 366.766 -1.59191 0.707381 0
M  V30 3715 C 363.898 -3.06791 1.48634 0
M  V30 3716 H 365.091 -1.5972 2.5383 0
M  V30 3717 H 362.644 -0.800432 1.34249 0
M  V30 3718 H 363.379 -3.19993 0.526763 0
M  V30 3719 H 363.164 -3.17484 2.30101 0
M  V30 3720 H 364.654 -3.86218 1.58826 0
M  V30 3721 N 365.091 -1.34144 -0.827227 0
M  V30 3722 C 366.316 -1.29476 -1.62021 0
M  V30 3723 C 366.741 0.129292 -1.87655 0
M  V30 3724 O 366.099 1.08967 -1.449 0
M  V30 3725 C 366.147 -2.08702 -2.94068 0
M  V30 3726 O 365.251 -1.45359 -3.85933 0
M  V30 3727 H 364.592 -0.444881 -0.492927 0
M  V30 3728 H 367.122 -1.76882 -1.02829 0
M  V30 3729 H 367.132 -2.19898 -3.43669 0
M  V30 3730 H 365.807 -3.12241 -2.74734 0
M  V30 3731 H 364.384 -1.42879 -3.44442 0
M  V30 3732 N 366.569 1.04691 -1.17803 0
M  V30 3733 C 367.794 1.81984 -0.994813 0
M  V30 3734 C 368.219 1.82586 0.452112 0
M  V30 3735 O 367.577 1.23854 1.324 0
M  V30 3736 C 367.625 3.2575 -1.54659 0
M  V30 3737 O 366.729 4.05267 -0.763728 0
M  V30 3738 H 366.07 0.562483 -0.352857 0
M  V30 3739 H 368.6 1.3189 -1.56417 0
M  V30 3740 H 368.61 3.76541 -1.57102 0
M  V30 3741 H 367.285 3.24627 -2.59981 0
M  V30 3742 H 365.862 3.63972 -0.811108 0
M  V30 3743 N 368.047 0.979072 1.23499 0
M  V30 3744 C 369.01 0.523244 2.23147 0
M  V30 3745 C 370.01 -0.386406 1.56088 0
M  V30 3746 O 371.2 -0.180283 1.73265 0
M  V30 3747 C 368.332 -0.240739 3.40049 0
M  V30 3748 H 369.525 1.40432 2.64989 0
M  V30 3749 H 367.078 0.764824 1.36309 0
M  V30 3750 H 367.813 -1.13841 3.03662 0
M  V30 3751 H 367.598 0.412207 3.89927 0
M  V30 3752 H 369.088 -0.548297 4.13985 0
M  V30 3753 N 369.525 -1.3858 0.750561 0
M  V30 3754 C 370.773 -1.99789 0.30477 0
M  V30 3755 C 371.094 -1.59874 -1.11649 0
M  V30 3756 O 370.364 -0.85417 -1.76297 0
M  V30 3757 H 368.944 -0.738902 0.109694 0
M  V30 3758 H 371.606 -1.69391 0.963983 0
M  V30 3759 H 370.702 -3.09952 0.365499 0
M  V30 3760 N 371.003 -0.499398 -1.49478 0
M  V30 3761 C 371.951 0.293604 -2.3074 0
M  V30 3762 C 372.945 0.96427 -1.39277 0
M  V30 3763 O 374.151 0.892141 -1.56336 0
M  V30 3764 H 370.526 0.113541 -0.743379 0
M  V30 3765 H 372.497 -0.411772 -2.95545 0
M  V30 3766 C 371.246 1.3462 -3.20582 0
M  V30 3767 H 370.569 0.83954 -3.90886 0
M  V30 3768 H 372.009 1.87308 -3.80384 0
M  V30 3769 C 370.468 2.36351 -2.40083 0
M  V30 3770 O 370.998 3.422 -2.10385 0
M  V30 3771 N 369.204 2.0878 -2.02137 0
M  V30 3772 H 368.751 1.22723 -2.26488 0
M  V30 3773 H 368.709 2.77075 -1.48583 0
M  V30 3774 N 372.481 1.55866 -0.233164 0
M  V30 3775 C 373.444 2.1953 0.658715 0
M  V30 3776 C 374.444 1.16053 1.11303 0
M  V30 3777 O 375.634 1.41218 1.01996 0
M  V30 3778 C 372.766 2.82791 1.90373 0
M  V30 3779 H 373.959 2.99721 0.10347 0
M  V30 3780 H 371.512 1.56291 0.0164245 0
M  V30 3781 H 372.247 2.06501 2.50056 0
M  V30 3782 H 372.032 3.58578 1.58632 0
M  V30 3783 H 373.522 3.31556 2.53891 0
M  V30 3784 N 373.959 -0.0401083 1.57549 0
M  V30 3785 C 375.205 -0.734211 1.89043 0
M  V30 3786 C 375.538 -1.75591 0.829535 0
M  V30 3787 O 374.813 -1.93868 -0.156706 0
M  V30 3788 C 375.096 -1.41374 3.31188 0
M  V30 3789 C 374.949 -0.406299 4.47961 0
M  V30 3790 C 376.268 -2.35061 3.72068 0
M  V30 3791 H 373.387 -0.265447 0.687537 0
M  V30 3792 H 376.029 0.00294087 1.9 0
M  V30 3793 H 374.179 -2.04206 3.30503 0
M  V30 3794 H 375.851 0.219255 4.60779 0
M  V30 3795 H 374.094 0.275485 4.32924 0
M  V30 3796 H 374.765 -0.920022 5.44279 0
M  V30 3797 H 377.241 -1.82282 3.74049 0
M  V30 3798 H 376.117 -2.79593 4.72355 0
M  V30 3799 H 376.378 -3.21258 3.0372 0
M  V30 3800 N 375.437 -1.54477 -0.31217 0
M  V30 3801 C 376.347 -1.87695 -1.4074 0
M  V30 3802 C 377.363 -0.769975 -1.56036 0
M  V30 3803 O 378.539 -1.06537 -1.70915 0
M  V30 3804 C 375.604 -2.10755 -2.75287 0
M  V30 3805 C 374.665 -3.34514 -2.69071 0
M  V30 3806 C 373.898 -3.56465 -3.97201 0
M  V30 3807 O 374.121 -2.81637 -4.96021 0
M  V30 3808 O 373.055 -4.49964 -3.9977 0
M  V30 3809 H 376.881 -2.80849 -1.15574 0
M  V30 3810 H 374.466 -1.40526 -0.507228 0
M  V30 3811 H 376.348 -2.27188 -3.54913 0
M  V30 3812 H 375.023 -1.20788 -3.0032 0
M  V30 3813 H 373.93 -3.23456 -1.87955 0
M  V30 3814 H 375.263 -4.24575 -2.48992 0
M  V30 3815 N 376.915 0.57481 -1.46744 0
M  V30 3816 C 378.161 1.3347 -1.52688 0
M  V30 3817 C 378.494 1.93353 -0.181229 0
M  V30 3818 O 377.769 1.76912 0.808237 0
M  V30 3819 C 378.052 2.45811 -2.63152 0
M  V30 3820 C 377.905 1.90912 -4.07275 0
M  V30 3821 C 379.224 3.47822 -2.69644 0
M  V30 3822 H 376.343 0.483935 -0.555856 0
M  V30 3823 H 378.985 0.644968 -1.78718 0
M  V30 3824 H 377.135 3.04646 -2.41088 0
M  V30 3825 H 378.807 1.36473 -4.4065 0
M  V30 3826 H 377.05 1.21691 -4.16382 0
M  V30 3827 H 377.721 2.72042 -4.80309 0
M  V30 3828 H 380.197 2.9888 -2.895 0
M  V30 3829 H 379.073 4.23876 -3.48742 0
M  V30 3830 H 379.334 4.05555 -1.76005 0
M  V30 3831 N 378.394 1.34581 0.820102 0
M  V30 3832 C 379.81 1.14325 1.11364 0
M  V30 3833 C 380.01 -0.0533648 2.01429 0
M  V30 3834 O 379.066 -0.728044 2.41776 0
M  V30 3835 C 380.379 2.43983 1.75764 0
M  V30 3836 C 381.927 2.50065 1.88246 0
M  V30 3837 C 382.402 3.79732 2.56061 0
M  V30 3838 N 383.893 3.80908 2.63558 0
M  V30 3839 C 384.628 4.77961 3.16766 0
M  V30 3840 N 384.124 5.85397 3.70517 0
M  V30 3841 N 385.917 4.65413 3.15194 0
M  V30 3842 H 378.068 2.11246 0.221096 0
M  V30 3843 H 380.331 0.934289 0.160649 0
M  V30 3844 H 380.037 3.31651 1.1705 0
M  V30 3845 H 379.911 2.57531 2.75604 0
M  V30 3846 H 382.298 1.62834 2.46108 0
M  V30 3847 H 382.379 2.40442 0.873006 0
M  V30 3848 H 382.023 4.67354 1.98853 0
M  V30 3849 H 381.953 3.86639 3.57516 0
M  V30 3850 H 384.444 3.03274 2.25463 0
M  V30 3851 H 384.757 6.55463 4.09376 0
M  V30 3852 H 383.102 5.89107 3.68752 0
M  V30 3853 H 386.293 3.80627 2.72471 0
M  V30 3854 H 386.466 5.41216 3.56356 0
M  V30 3855 N 379.872 -1.04064 1.18357 0
M  V30 3856 C 380.782 -2.15569 0.925596 0
M  V30 3857 C 381.798 -1.7365 -0.110295 0
M  V30 3858 O 382.974 -2.01273 0.0716218 0
M  V30 3859 C 380.039 -3.43704 0.454836 0
M  V30 3860 C 379.1 -4.00004 1.55869 0
M  V30 3861 C 378.333 -5.22023 1.1103 0
M  V30 3862 O 378.556 -5.70392 -0.0309756 0
M  V30 3863 O 377.49 -5.70856 1.90805 0
M  V30 3864 H 381.316 -2.40187 1.8586 0
M  V30 3865 H 378.901 -1.1402 0.965394 0
M  V30 3866 H 380.783 -4.20923 0.200382 0
M  V30 3867 H 379.458 -3.20559 -0.449876 0
M  V30 3868 H 378.365 -3.24172 1.86716 0
M  V30 3869 H 379.698 -4.2749 2.43953 0
M  V30 3870 N 381.35 -0.985608 -1.22978 0
M  V30 3871 C 382.313 -0.535071 -2.22867 0
M  V30 3872 C 383.313 0.378123 -1.56291 0
M  V30 3873 O 384.503 0.171092 -1.73358 0
M  V30 3874 C 381.635 0.222702 -3.40172 0
M  V30 3875 H 382.828 -1.41835 -2.6424 0
M  V30 3876 H 380.381 -0.772042 -1.35901 0
M  V30 3877 H 381.116 1.12229 -3.04262 0
M  V30 3878 H 380.901 -0.43288 -3.89703 0
M  V30 3879 H 382.391 0.526335 -4.1427 0
M  V30 3880 N 382.828 1.3818 -0.7579 0
M  V30 3881 C 384.074 2.00316 -0.316453 0
M  V30 3882 C 384.407 1.60026 1.10025 0
M  V30 3883 O 383.682 0.839835 1.75434 0
M  V30 3884 C 383.965 3.57349 -0.444245 0
M  V30 3885 C 383.818 4.07591 -1.90236 0
M  V30 3886 C 385.137 4.3981 0.1598 0
M  V30 3887 H 382.256 0.727741 -0.116459 0
M  V30 3888 H 384.898 1.6406 -0.958352 0
M  V30 3889 H 383.048 3.88365 0.102233 0
M  V30 3890 H 384.72 3.87199 -2.50748 0
M  V30 3891 H 382.963 3.60297 -2.41595 0
M  V30 3892 H 383.634 5.16677 -1.94291 0
M  V30 3893 H 386.11 4.14971 -0.306314 0
M  V30 3894 H 384.986 5.48885 0.0401675 0
M  V30 3895 H 385.247 4.24102 1.24859 0
M  V30 3896 N 384.306 0.507319 1.49211 0
M  V30 3897 C 385.238 -0.304532 2.27168 0
M  V30 3898 C 386.251 -0.924956 1.33972 0
M  V30 3899 O 387.44 -0.807227 1.59205 0
M  V30 3900 C 384.54 -1.44431 3.06583 0
M  V30 3901 C 383.713 -0.930026 4.27398 0
M  V30 3902 C 382.772 -1.94817 4.88807 0
M  V30 3903 O 381.798 -1.51418 5.4869 0
M  V30 3904 N 383 -3.279 4.79022 0
M  V30 3905 H 385.765 0.36395 2.97482 0
M  V30 3906 H 383.326 0.340249 1.58284 0
M  V30 3907 H 385.318 -2.12311 3.44537 0
M  V30 3908 H 383.888 -2.01684 2.38835 0
M  V30 3909 H 383.108 -0.0759244 3.94127 0
M  V30 3910 H 384.396 -0.564932 5.05654 0
M  V30 3911 H 383.794 -3.65843 4.3148 0
M  V30 3912 H 382.351 -3.91476 5.21142 0
M  V30 3913 N 385.784 -1.5574 0.241426 0
M  V30 3914 C 387.031 -1.9881 -0.384836 0
M  V30 3915 C 387.359 -1.12947 -1.58346 0
M  V30 3916 O 386.614 -0.178993 -1.9488 0
M  V30 3917 C 386.913 -3.47308 -0.843317 0
M  V30 3918 C 386.579 -4.50223 0.246946 0
M  V30 3919 C 385.241 -4.78088 0.546399 0
M  V30 3920 C 387.593 -5.11841 0.983282 0
M  V30 3921 C 384.921 -5.64846 1.58636 0
M  V30 3922 C 387.273 -5.99727 2.01272 0
M  V30 3923 C 385.937 -6.25927 2.31888 0
M  V30 3924 H 385.207 -0.727496 -0.140821 0
M  V30 3925 H 387.854 -1.8831 0.348106 0
M  V30 3926 H 386.159 -3.55112 -1.65537 0
M  V30 3927 H 387.856 -3.78017 -1.33806 0
M  V30 3928 H 384.446 -4.286 0.00340639 0
M  V30 3929 H 388.63 -4.90366 0.765182 0
M  V30 3930 H 383.886 -5.83403 1.82896 0
M  V30 3931 H 388.06 -6.46517 2.58823 0
M  V30 3932 H 385.687 -6.92949 3.12611 0
M  V30 3933 N 387.262 0.0317525 -1.57568 0
M  V30 3934 C 388.192 1.03274 -2.0942 0
M  V30 3935 C 389.173 1.3788 -0.996143 0
M  V30 3936 O 390.358 1.46811 -1.27122 0
M  V30 3937 C 387.488 2.33448 -2.57137 0
M  V30 3938 C 386.442 2.13091 -3.71182 0
M  V30 3939 C 385.768 3.49001 -4.05095 0
M  V30 3940 C 387.068 1.51928 -4.99715 0
M  V30 3941 H 388.762 0.60112 -2.93303 0
M  V30 3942 H 386.308 0.287705 -1.41097 0
M  V30 3943 H 388.261 3.03802 -2.92032 0
M  V30 3944 H 386.985 2.78665 -1.70333 0
M  V30 3945 H 385.644 1.45171 -3.36632 0
M  V30 3946 H 385.292 3.91862 -3.15362 0
M  V30 3947 H 384.992 3.36207 -4.81911 0
M  V30 3948 H 386.516 4.20721 -4.42522 0
M  V30 3949 H 387.93 2.12196 -5.32584 0
M  V30 3950 H 386.327 1.49716 -5.81124 0
M  V30 3951 H 387.397 0.484811 -4.8247 0
M  V30 3952 N 388.74 1.54641 0.303973 0
M  V30 3953 C 389.968 1.77768 1.05858 0
M  V30 3954 C 390.383 0.535722 1.8104 0
M  V30 3955 O 389.74 -0.494337 1.75677 0
M  V30 3956 C 389.791 2.9834 2.04146 0
M  V30 3957 O 389.512 4.17736 1.32015 0
M  V30 3958 C 391.013 3.33832 2.91669 0
M  V30 3959 H 388.233 0.592961 0.314067 0
M  V30 3960 H 390.777 2.01583 0.344149 0
M  V30 3961 H 388.932 2.76742 2.71096 0
M  V30 3962 H 389.346 4.85693 1.97998 0
M  V30 3963 H 390.82 4.21448 3.56491 0
M  V30 3964 H 391.297 2.51857 3.59812 0
M  V30 3965 H 391.903 3.57579 2.30254 0
M  V30 3966 N 390.218 -0.567019 1.47046 0
M  V30 3967 C 391.466 -1.322 1.52864 0
M  V30 3968 C 391.787 -1.94088 0.188388 0
M  V30 3969 O 391.057 -1.7941 -0.786693 0
M  V30 3970 H 389.637 -0.490894 0.563056 0
M  V30 3971 H 392.299 -0.662879 1.83281 0
M  V30 3972 H 391.395 -2.12062 2.2899 0
M  V30 3973 N 391.696 -1.35014 -0.812953 0
M  V30 3974 C 392.606 -1.2951 -1.95613 0
M  V30 3975 C 393.622 -0.20107 -1.72834 0
M  V30 3976 O 394.798 -0.42932 -1.96771 0
M  V30 3977 C 391.863 -1.06033 -3.30088 0
M  V30 3978 C 390.924 -2.24688 -3.65805 0
M  V30 3979 C 390.157 -2.02322 -4.93864 0
M  V30 3980 O 390.38 -0.986464 -5.61805 0
M  V30 3981 O 389.314 -2.89525 -5.27692 0
M  V30 3982 H 393.14 -2.25705 -2.03202 0
M  V30 3983 H 390.725 -1.15321 -0.949811 0
M  V30 3984 H 392.607 -0.94763 -4.10607 0
M  V30 3985 H 391.282 -0.128852 -3.23443 0
M  V30 3986 H 390.189 -2.41521 -2.85689 0
M  V30 3987 H 391.522 -3.16261 -3.77147 0
M  V30 3988 N 393.175 1.03435 -1.18907 0
M  V30 3989 C 394.405 1.8012 -1.01195 0
M  V30 3990 C 394.813 1.8395 0.442613 0
M  V30 3991 O 394.156 1.27836 1.31923 0
M  V30 3992 C 394.218 3.26792 -1.49823 0
M  V30 3993 C 393.882 3.46609 -2.97844 0
M  V30 3994 C 394.879 3.37278 -3.95651 0
M  V30 3995 C 392.564 3.73001 -3.36416 0
M  V30 3996 C 394.558 3.54054 -5.30023 0
M  V30 3997 C 392.245 3.89423 -4.70949 0
M  V30 3998 C 393.243 3.79951 -5.67562 0
M  V30 3999 O 392.931 3.95895 -6.99659 0
M  V30 4000 H 392.663 0.573865 -0.357289 0
M  V30 4001 H 395.217 1.31207 -1.58031 0
M  V30 4002 H 393.447 3.76703 -0.873578 0
M  V30 4003 H 395.136 3.85055 -1.28404 0
M  V30 4004 H 395.902 3.16846 -3.67197 0
M  V30 4005 H 391.781 3.79469 -2.61772 0
M  V30 4006 H 395.325 3.46577 -6.05417 0
M  V30 4007 H 391.222 4.09351 -4.99101 0
M  V30 4008 H 391.99 4.13019 -7.06653 0
M  V30 4009 N 394.653 0.992116 1.22453 0
M  V30 4010 C 396.069 0.702713 1.43297 0
M  V30 4011 C 396.269 -0.726909 1.87932 0
M  V30 4012 O 395.325 -1.49792 2.0327 0
M  V30 4013 C 396.638 1.70762 2.47509 0
M  V30 4014 C 398.186 1.72298 2.61309 0
M  V30 4015 C 398.661 2.71649 3.68742 0
M  V30 4016 N 400.152 2.70239 3.76199 0
M  V30 4017 C 400.887 3.43778 4.58917 0
M  V30 4018 N 400.383 4.26914 5.45633 0
M  V30 4019 N 402.176 3.32487 4.5322 0
M  V30 4020 H 394.327 1.91543 0.917871 0
M  V30 4021 H 396.59 0.826031 0.465162 0
M  V30 4022 H 396.296 2.73059 2.21657 0
M  V30 4023 H 396.17 1.49985 3.46099 0
M  V30 4024 H 398.557 0.706989 2.86506 0
M  V30 4025 H 398.638 1.97143 1.62997 0
M  V30 4026 H 398.282 3.73397 3.44292 0
M  V30 4027 H 398.212 2.44074 4.66622 0
M  V30 4028 H 400.703 2.09912 3.14237 0
M  V30 4029 H 401.016 4.79855 6.05771 0
M  V30 4030 H 399.361 4.31002 5.45218 0
M  V30 4031 H 402.552 2.6698 3.84499 0
M  V30 4032 H 402.725 3.90058 5.17454 0
M  V30 4033 N 396.131 -1.37776 0.765217 0
M  V30 4034 C 397.079 -2.32209 0.134798 0
M  V30 4035 C 398.073 -1.54607 -0.692315 0
M  V30 4036 O 399.279 -1.70052 -0.590109 0
M  V30 4037 H 395.654 -0.751591 0.0248005 0
M  V30 4038 H 397.625 -2.8297 0.947119 0
M  V30 4039 C 396.374 -3.39841 -0.735063 0
M  V30 4040 H 395.697 -3.99654 -0.107991 0
M  V30 4041 H 397.137 -4.08296 -1.14326 0
M  V30 4042 C 395.596 -2.79378 -1.88281 0
M  V30 4043 O 396.126 -2.69608 -2.97783 0
M  V30 4044 N 394.332 -2.37016 -1.68142 0
M  V30 4045 H 393.879 -2.45162 -0.790772 0
M  V30 4046 H 393.837 -1.96905 -2.45104 0
M  V30 4047 N 397.609 -0.515225 -1.4894 0
M  V30 4048 C 399.02 -0.0710067 -1.86565 0
M  V30 4049 C 399.371 1.34733 -1.42623 0
M  V30 4050 O 398.496 2.00653 -0.810379 0
M  V30 4051 C 399.091 -0.122083 -3.3858 0
M  V30 4052 C 397.65 0.266863 -3.75453 0
M  V30 4053 C 396.797 -0.488376 -2.72966 0
M  V30 4054 H 399.748 -0.727266 -1.41055 0
M  V30 4055 H 399.769 0.669818 -3.74558 0
M  V30 4056 H 399.281 -1.15448 -3.70531 0
M  V30 4057 H 397.382 1.30196 -3.49113 0
M  V30 4058 H 397.495 -0.0624811 -4.79059 0
M  V30 4059 H 395.859 0.0635622 -2.54621 0
M  V30 4060 H 396.642 -1.52113 -3.07761 0
M  V30 4061 N 399.087 1.5561 -0.249682 0
M  V30 4062 C 400.503 1.59254 0.105103 0
M  V30 4063 C 400.703 1.26685 1.56694 0
M  V30 4064 O 399.759 1.0155 2.31179 0
M  V30 4065 C 401.072 2.99687 -0.246592 0
M  V30 4066 C 402.62 3.12416 -0.191118 0
M  V30 4067 C 403.095 4.55074 -0.516885 0
M  V30 4068 N 404.586 4.60835 -0.467489 0
M  V30 4069 C 405.321 5.69201 -0.69268 0
M  V30 4070 N 404.817 6.85817 -0.981146 0
M  V30 4071 N 406.61 5.58635 -0.623198 0
M  V30 4072 H 398.761 1.75049 -1.20298 0
M  V30 4073 H 401.024 0.815003 -0.484225 0
M  V30 4074 H 400.73 3.28267 -1.26228 0
M  V30 4075 H 400.604 3.74798 0.424962 0
M  V30 4076 H 402.991 2.83615 0.815247 0
M  V30 4077 H 403.072 2.39573 -0.896563 0
M  V30 4078 H 402.716 4.84596 -1.52082 0
M  V30 4079 H 402.646 5.26181 0.210068 0
M  V30 4080 H 405.137 3.7705 -0.253373 0
M  V30 4081 H 405.45 7.64341 -1.14032 0
M  V30 4082 H 403.795 6.87494 -1.01865 0
M  V30 4083 H 406.986 4.66406 -0.397863 0
M  V30 4084 H 407.159 6.43017 -0.802093 0
M  V30 4085 N 400.565 -0.0233959 1.57583 0
M  V30 4086 C 401.495 -1.02162 2.09965 0
M  V30 4087 C 402.476 -1.3735 1.00344 0
M  V30 4088 O 403.661 -1.46135 1.27899 0
M  V30 4089 C 400.791 -2.32081 2.58371 0
M  V30 4090 C 399.745 -2.1112 3.72307 0
M  V30 4091 C 399.071 -3.46848 4.06941 0
M  V30 4092 C 400.371 -1.49276 5.00514 0
M  V30 4093 H 402.065 -0.585557 2.93618 0
M  V30 4094 H 399.611 -0.280218 1.41247 0
M  V30 4095 H 401.564 -3.02249 2.93639 0
M  V30 4096 H 400.288 -2.77758 1.71808 0
M  V30 4097 H 398.947 -1.43384 3.37397 0
M  V30 4098 H 398.595 -3.90184 3.17436 0
M  V30 4099 H 398.295 -3.33646 4.83688 0
M  V30 4100 H 399.819 -4.18369 4.44747 0
M  V30 4101 H 401.233 -2.09368 5.33702 0
M  V30 4102 H 399.63 -1.46632 5.8191 0
M  V30 4103 H 400.7 -0.459217 4.82721 0
M  V30 4104 N 402.043 -1.548 -0.295768 0
M  V30 4105 C 403.29 -1.74329 -1.03032 0
M  V30 4106 C 403.618 -0.531915 -1.87085 0
M  V30 4107 O 402.873 0.486052 -1.89568 0
M  V30 4108 C 403.172 -2.98797 -1.961 0
M  V30 4109 C 402.838 -4.32356 -1.2798 0
M  V30 4110 C 401.5 -4.68661 -1.09135 0
M  V30 4111 C 403.852 -5.15128 -0.793243 0
M  V30 4112 C 401.18 -5.85312 -0.403269 0
M  V30 4113 C 403.532 -6.32488 -0.118854 0
M  V30 4114 C 402.196 -6.6745 0.0815043 0
M  V30 4115 H 401.466 -0.637916 -0.37702 0
M  V30 4116 H 404.113 -1.8906 -0.304696 0
M  V30 4117 H 402.418 -2.78869 -2.75207 0
M  V30 4118 H 404.115 -3.11102 -2.53015 0
M  V30 4119 H 400.705 -4.03808 -1.43655 0
M  V30 4120 H 404.889 -4.87575 -0.92653 0
M  V30 4121 H 400.145 -6.1094 -0.237098 0
M  V30 4122 H 404.319 -6.95892 0.266035 0
M  V30 4123 H 401.946 -7.57695 0.616685 0
M  V30 4124 N 403.521 0.559213 -1.47345 0
M  V30 4125 C 404.798 1.31997 -1.44348 0
M  V30 4126 C 405.178 2.1064 -0.139358 0
M  V30 4127 O 404.526 2.1091 0.879153 0
M  V30 4128 C 404.736 2.22618 -2.68779 0
M  V30 4129 C 406.084 2.83701 -3.1591 0
M  V30 4130 O 407.108 2.32921 -2.69493 0
M  V30 4131 O 405.967 3.75993 -3.966 0
M  V30 4132 H 403.061 0.594251 -0.575147 0
M  V30 4133 H 405.607 0.578282 -1.59543 0
M  V30 4134 H 404.379 1.64093 -3.55231 0
M  V30 4135 H 404.002 3.04085 -2.5616 0
M  V30 4136 N 404.999 1.35443 0.805782 0
M  V30 4137 C 406.245 1.28952 1.56522 0
M  V30 4138 C 406.578 -0.135597 1.93726 0
M  V30 4139 O 405.853 -1.08516 1.61414 0
M  V30 4140 C 406.136 2.19678 2.85331 0
M  V30 4141 C 405.989 3.7081 2.54598 0
M  V30 4142 C 407.308 2.09495 3.8704 0
M  V30 4143 H 404.427 0.469764 0.567883 0
M  V30 4144 H 407.069 1.65851 0.927001 0
M  V30 4145 H 405.219 1.8834 3.39795 0
M  V30 4146 H 406.891 4.12593 2.06312 0
M  V30 4147 H 405.134 3.91051 1.8778 0
M  V30 4148 H 405.805 4.29679 3.46525 0
M  V30 4149 H 408.281 2.37045 3.41978 0
M  V30 4150 H 407.157 2.75173 4.74943 0
M  V30 4151 H 407.418 1.07714 4.28777 0
M  V30 4152 N 406.477 -1.02803 1.19454 0
M  V30 4153 C 407.705 -1.79841 1.02297 0
M  V30 4154 C 408.12 -1.83879 -0.428259 0
M  V30 4155 O 407.477 -1.28345 -1.29745 0
M  V30 4156 C 407.528 -3.24852 1.58598 0
M  V30 4157 O 407.249 -3.21097 2.98041 0
M  V30 4158 C 408.75 -4.18485 1.46236 0
M  V30 4159 H 405.97 -0.565936 0.360496 0
M  V30 4160 H 408.514 -1.2948 1.58288 0
M  V30 4161 H 406.669 -3.72401 1.06753 0
M  V30 4162 H 407.083 -4.12033 3.24545 0
M  V30 4163 H 408.557 -5.18121 1.90407 0
M  V30 4164 H 409.034 -4.37254 0.41301 0
M  V30 4165 H 409.64 -3.76811 1.97215 0
M  V30 4166 N 407.956 -0.998596 -1.21925 0
M  V30 4167 C 408.889 -0.498517 -2.22688 0
M  V30 4168 C 409.867 0.444301 -1.56412 0
M  V30 4169 O 411.051 0.368518 -1.84863 0
M  V30 4170 C 408.178 0.276639 -3.37568 0
M  V30 4171 C 407.224 -0.61302 -4.22071 0
M  V30 4172 S 408.057 -2.07168 -4.93803 0
M  V30 4173 C 409.213 -1.30617 -6.12119 0
M  V30 4174 H 409.446 -1.35234 -2.64762 0
M  V30 4175 H 406.979 -0.806018 -1.31692 0
M  V30 4176 H 408.937 0.717817 -4.04175 0
M  V30 4177 H 407.598 1.10581 -2.93991 0
M  V30 4178 H 406.791 -0.0162909 -5.03997 0
M  V30 4179 H 406.393 -0.991202 -3.60626 0
M  V30 4180 H 408.685 -0.57675 -6.75041 0
M  V30 4181 H 409.628 -2.10091 -6.76215 0
M  V30 4182 H 410.036 -0.816957 -5.58557 0
M  V30 4183 N 409.434 1.37368 -0.772513 0
M  V30 4184 C 410.397 2.28601 -0.165541 0
M  V30 4185 C 411.397 1.48062 0.627238 0
M  V30 4186 O 412.587 1.68268 0.450715 0
M  V30 4187 C 409.719 3.32023 0.772897 0
M  V30 4188 H 410.912 2.83787 -0.969787 0
M  V30 4189 H 408.465 1.46647 -0.540775 0
M  V30 4190 H 409.2 2.81962 1.60212 0
M  V30 4191 H 408.985 3.91555 0.206585 0
M  V30 4192 H 410.475 4.00197 1.19298 0
M  V30 4193 N 410.912 0.523116 1.48665 0
M  V30 4194 C 411.842 -0.23231 2.32342 0
M  V30 4195 C 412.823 -0.941637 1.41659 0
M  V30 4196 O 414.008 -0.928751 1.70552 0
M  V30 4197 C 411.138 -1.28387 3.22698 0
M  V30 4198 C 410.092 -0.693098 4.22351 0
M  V30 4199 C 409.418 -1.8468 5.01794 0
M  V30 4200 C 410.718 0.33063 5.21252 0
M  V30 4201 H 412.412 0.466192 2.95748 0
M  V30 4202 H 409.958 0.225643 1.42221 0
M  V30 4203 H 411.911 -1.82024 3.80059 0
M  V30 4204 H 410.635 -2.01186 2.57278 0
M  V30 4205 H 409.294 -0.178299 3.66166 0
M  V30 4206 H 408.942 -2.56301 4.32804 0
M  V30 4207 H 408.642 -1.45747 5.69238 0
M  V30 4208 H 410.166 -2.38709 5.62006 0
M  V30 4209 H 411.58 -0.118407 5.73178 0
M  V30 4210 H 409.977 0.636974 5.9671 0
M  V30 4211 H 411.047 1.23883 4.68808 0
M  V30 4212 N 412.39 -1.55475 0.257931 0
M  V30 4213 C 413.63 -2.01112 -0.365129 0
M  V30 4214 C 413.994 -1.1423 -1.54323 0
M  V30 4215 O 415.195 -1.49371 -2.23477 0
M  V30 4216 C 413.466 -3.49353 -0.754117 0
M  V30 4217 S 415.025 -4.16992 -1.36614 0
M  V30 4218 H 411.843 -0.701737 -0.114397 0
M  V30 4219 H 414.445 -1.91855 0.375747 0
M  V30 4220 H 413.149 -4.10246 0.112441 0
M  V30 4221 H 412.68 -3.6256 -1.52689 0
M  V30 4222 H 414.695 -4.19191 -2.65505 0
M  V30 4223 N 413.868 0.0150385 -1.57593 0
M  V30 4224 C 415.114 0.704043 -1.90187 0
M  V30 4225 C 415.447 1.74249 -0.857366 0
M  V30 4226 O 414.722 1.94092 0.125843 0
M  V30 4227 C 415.005 1.36087 -3.33395 0
M  V30 4228 C 414.858 0.334981 -4.48551 0
M  V30 4229 C 416.177 2.29112 -3.7576 0
M  V30 4230 H 413.296 0.254475 -0.691673 0
M  V30 4231 H 415.938 -0.0331678 -1.89971 0
M  V30 4232 H 414.088 1.98922 -3.3371 0
M  V30 4233 H 415.76 -0.292534 -4.60372 0
M  V30 4234 H 414.003 -0.344325 -4.32431 0
M  V30 4235 H 414.674 0.833316 -5.45674 0
M  V30 4236 H 417.15 1.76308 -3.76902 0
M  V30 4237 H 416.026 2.72043 -4.76743 0
M  V30 4238 H 416.287 3.16385 -3.08793 0
M  V30 4239 N 415.346 1.54954 0.287554 0
M  V30 4240 C 416.256 1.8991 1.37736 0
M  V30 4241 C 417.272 0.794701 1.54792 0
M  V30 4242 O 418.448 1.09243 1.69198 0
M  V30 4243 C 415.513 2.15108 2.71899 0
M  V30 4244 C 414.574 3.38752 2.63715 0
M  V30 4245 C 413.807 3.62739 3.91479 0
M  V30 4246 O 414.03 2.89492 4.91478 0
M  V30 4247 O 412.964 4.56267 3.92561 0
M  V30 4248 H 416.79 2.82652 1.11092 0
M  V30 4249 H 414.375 1.41315 0.484807 0
M  V30 4250 H 416.257 2.32806 3.51254 0
M  V30 4251 H 414.932 1.25551 2.9836 0
M  V30 4252 H 413.839 3.26405 1.82786 0
M  V30 4253 H 415.172 4.28483 2.42205 0
M  V30 4254 N 416.824 -0.551391 1.4764 0
M  V30 4255 C 417.757 -1.6738 1.5511 0
M  V30 4256 C 418.735 -1.5753 0.402856 0
M  V30 4257 O 419.919 -1.78307 0.611475 0
M  V30 4258 C 417.046 -3.05661 1.45908 0
M  V30 4259 C 416.092 -3.33938 2.65307 0
M  V30 4260 S 416.925 -3.22553 4.27457 0
M  V30 4261 C 418.081 -4.63317 4.20818 0
M  V30 4262 H 418.314 -1.6079 2.50068 0
M  V30 4263 H 415.847 -0.732674 1.35909 0
M  V30 4264 H 417.805 -3.8542 1.41286 0
M  V30 4265 H 416.466 -3.09711 0.523248 0
M  V30 4266 H 415.659 -4.34761 2.54948 0
M  V30 4267 H 415.261 -2.61809 2.67081 0
M  V30 4268 H 417.553 -5.54391 3.89431 0
M  V30 4269 H 418.496 -4.78732 5.21748 0
M  V30 4270 H 418.904 -4.41636 3.51593 0
M  V30 4271 N 418.302 -1.35869 -0.798587 0
M  V30 4272 C 419.232 -1.32118 -1.92528 0
M  V30 4273 C 420.213 -0.194209 -1.68988 0
M  V30 4274 O 421.398 -0.390426 -1.90235 0
M  V30 4275 C 418.528 -1.10047 -3.29404 0
M  V30 4276 C 417.482 -2.19471 -3.67446 0
M  V30 4277 C 416.808 -1.82555 -5.02571 0
M  V30 4278 C 418.108 -3.61495 -3.76987 0
M  V30 4279 H 419.802 -2.26394 -1.95924 0
M  V30 4280 H 417.348 -1.08981 -0.94123 0
M  V30 4281 H 419.301 -1.06061 -4.07835 0
M  V30 4282 H 418.025 -0.122195 -3.26371 0
M  V30 4283 H 416.684 -2.22568 -2.91306 0
M  V30 4284 H 416.332 -0.833249 -4.9605 0
M  V30 4285 H 416.032 -2.5581 -5.28995 0
M  V30 4286 H 417.556 -1.80108 -5.83432 0
M  V30 4287 H 418.97 -3.60676 -4.4563 0
M  V30 4288 H 417.367 -4.33577 -4.14887 0
M  V30 4289 H 418.437 -3.97065 -2.78329 0
M  V30 4290 N 419.78 1.02168 -1.19998 0
M  V30 4291 C 421.029 1.75091 -1.0013 0
M  V30 4292 C 421.342 1.89923 0.467835 0
M  V30 4293 O 422.548 2.59888 0.785515 0
M  V30 4294 C 421.004 3.14892 -1.74273 0
M  V30 4295 C 420.612 3.0809 -3.25245 0
M  V30 4296 C 422.356 3.9206 -1.62755 0
M  V30 4297 C 420.263 4.42867 -3.91948 0
M  V30 4298 H 419.193 0.656394 -0.37103 0
M  V30 4299 H 421.844 1.14284 -1.43567 0
M  V30 4300 H 420.226 3.7621 -1.2362 0
M  V30 4301 H 421.4 2.5611 -3.83072 0
M  V30 4302 H 419.715 2.44416 -3.3712 0
M  V30 4303 H 422.312 4.91764 -2.09934 0
M  V30 4304 H 422.655 4.12199 -0.582894 0
M  V30 4305 H 423.188 3.37359 -2.10793 0
M  V30 4306 H 419.927 4.27931 -4.96543 0
M  V30 4307 H 419.447 4.94874 -3.3891 0
M  V30 4308 H 421.126 5.11728 -3.95909 0
M  V30 4309 N 421.258 1.00505 1.21394 0
M  V30 4310 C 422.483 0.706367 1.95001 0
M  V30 4311 C 422.908 -0.72463 1.73582 0
M  V30 4312 O 422.266 -1.49702 1.0227 0
M  V30 4313 C 422.314 1.03299 3.45487 0
M  V30 4314 O 421.418 0.138275 4.12168 0
M  V30 4315 H 420.759 0.263175 0.609619 0
M  V30 4316 H 423.289 1.34531 1.54151 0
M  V30 4317 H 423.299 0.979872 3.96059 0
M  V30 4318 H 421.974 2.07567 3.60401 0
M  V30 4319 H 420.551 0.247928 3.72075 0
M  V30 4320 N 422.737 -1.36956 0.779787 0
M  V30 4321 C 423.985 -1.99097 0.347079 0
M  V30 4322 C 424.306 -1.62206 -1.08232 0
M  V30 4323 O 423.576 -0.891373 -1.74446 0
M  V30 4324 H 422.156 -0.736409 0.125342 0
M  V30 4325 H 424.818 -1.67308 0.999696 0
M  V30 4326 H 423.914 -3.09107 0.431162 0
M  V30 4327 N 424.215 -0.530993 -1.48385 0
M  V30 4328 C 425.162 0.231223 -2.29639 0
M  V30 4329 C 426.132 0.932864 -1.37429 0
M  V30 4330 O 427.317 0.933692 -1.66394 0
M  V30 4331 C 424.457 1.27155 -3.2082 0
M  V30 4332 C 423.57 0.578655 -4.28107 0
M  V30 4333 C 422.705 1.602 -5.06467 0
M  V30 4334 C 421.744 0.892625 -6.05556 0
M  V30 4335 N 420.881 1.86157 -6.76971 0
M  V30 4336 H 425.721 -0.467848 -2.94305 0
M  V30 4337 H 423.258 -0.242556 -1.45086 0
M  V30 4338 H 425.216 1.88703 -3.72085 0
M  V30 4339 H 423.846 1.939 -2.58075 0
M  V30 4340 H 422.898 -0.150782 -3.80101 0
M  V30 4341 H 424.21 0.0217065 -4.98795 0
M  V30 4342 H 423.364 2.29173 -5.61751 0
M  V30 4343 H 422.103 2.19285 -4.35621 0
M  V30 4344 H 421.108 0.188829 -5.49476 0
M  V30 4345 H 422.333 0.307878 -6.78402 0
M  V30 4346 H 420.279 2.44147 -6.08875 0
M  V30 4347 H 420.196 1.35608 -7.43738 0
M  V30 4348 H 421.464 2.54325 -7.36844 0
M  V30 4349 N 425.693 1.55336 -0.266172 0
M  V30 4350 C 426.623 2.25146 0.618981 0
M  V30 4351 C 427.604 1.23845 1.16604 0
M  V30 4352 O 428.789 1.52544 1.20183 0
M  V30 4353 C 425.919 2.96572 1.80728 0
M  V30 4354 C 424.873 4.04726 1.39215 0
M  V30 4355 C 424.199 4.63678 2.66283 0
M  V30 4356 C 425.499 5.19407 0.548942 0
M  V30 4357 H 427.193 2.99377 0.0368116 0
M  V30 4358 H 424.739 1.43991 0.0162651 0
M  V30 4359 H 426.692 3.44116 2.43232 0
M  V30 4360 H 425.416 2.19861 2.41514 0
M  V30 4361 H 424.075 3.57979 0.790351 0
M  V30 4362 H 423.723 3.83646 3.25308 0
M  V30 4363 H 423.423 5.367 2.39222 0
M  V30 4364 H 424.947 5.13967 3.29651 0
M  V30 4365 H 426.361 5.63059 1.07876 0
M  V30 4366 H 424.758 5.98936 0.373593 0
M  V30 4367 H 425.828 4.8295 -0.434394 0
M  V30 4368 N 427.171 -0.0066808 1.57599 0
M  V30 4369 C 428.134 -0.985035 2.06953 0
M  V30 4370 C 429.134 -1.27663 0.977687 0
M  V30 4371 O 430.324 -1.22293 1.24057 0
M  V30 4372 C 427.456 -2.3118 2.50536 0
M  V30 4373 H 428.649 -0.558255 2.94658 0
M  V30 4374 H 426.202 -0.254011 1.54222 0
M  V30 4375 H 426.937 -2.78561 1.66054 0
M  V30 4376 H 426.722 -2.11338 3.3027 0
M  V30 4377 H 428.212 -3.01377 2.8907 0
M  V30 4378 N 428.649 -1.55105 -0.279332 0
M  V30 4379 C 429.596 -1.8755 -1.34513 0
M  V30 4380 C 430.566 -0.726384 -1.49375 0
M  V30 4381 O 431.751 -0.977063 -1.63884 0
M  V30 4382 C 428.891 -2.14738 -2.70151 0
M  V30 4383 C 428.004 -3.42285 -2.63562 0
M  V30 4384 C 427.139 -3.59206 -3.91337 0
M  V30 4385 C 426.178 -4.80467 -3.79233 0
M  V30 4386 N 425.315 -4.94079 -4.98829 0
M  V30 4387 H 430.155 -2.78456 -1.06143 0
M  V30 4388 H 427.692 -1.37867 -0.512936 0
M  V30 4389 H 429.65 -2.28501 -3.49061 0
M  V30 4390 H 428.28 -1.27075 -2.96735 0
M  V30 4391 H 427.332 -3.37029 -1.76397 0
M  V30 4392 H 428.644 -4.31328 -2.50515 0
M  V30 4393 H 427.798 -3.72751 -4.78687 0
M  V30 4394 H 426.537 -2.68337 -4.07243 0
M  V30 4395 H 425.542 -4.66932 -2.90266 0
M  V30 4396 H 426.767 -5.72765 -3.64852 0
M  V30 4397 H 424.713 -4.06139 -5.15158 0
M  V30 4398 H 424.63 -5.77156 -4.8829 0
M  V30 4399 H 425.898 -5.12003 -5.8777 0
M  V30 4400 N 430.127 0.543554 -1.4793 0
M  V30 4401 C 431.404 1.30458 -1.4574 0
M  V30 4402 C 431.784 2.1048 -0.161692 0
M  V30 4403 O 431.132 2.11831 0.856734 0
M  V30 4404 C 431.342 2.19754 -2.71126 0
M  V30 4405 C 432.69 2.80334 -3.18901 0
M  V30 4406 O 433.714 2.30049 -2.71948 0
M  V30 4407 O 432.573 3.71766 -4.00565 0
M  V30 4408 H 429.667 0.588117 -0.581418 0
M  V30 4409 H 432.213 0.561328 -1.60147 0
M  V30 4410 H 430.985 1.60316 -3.56952 0
M  V30 4411 H 430.608 3.01351 -2.59371 0
M  V30 4412 N 431.605 1.3629 0.791371 0
M  V30 4413 C 432.882 1.20962 1.53712 0
M  V30 4414 C 433.262 -0.205021 2.10102 0
M  V30 4415 O 432.61 -1.21042 1.93807 0
M  V30 4416 C 432.82 2.29002 2.63361 0
M  V30 4417 C 434.168 2.65572 3.31295 0
M  V30 4418 O 435.192 2.2803 2.73643 0
M  V30 4419 O 434.051 3.3018 4.35481 0
M  V30 4420 H 431.145 0.47086 0.679867 0
M  V30 4421 H 433.691 1.48016 0.830021 0
M  V30 4422 H 432.463 3.2382 2.19674 0
M  V30 4423 H 432.086 2.03303 3.41692 0
M  V30 4424 N 433.083 -1.0153 1.20538 0
M  V30 4425 C 434.046 -2.0826 0.957098 0
M  V30 4426 C 435.046 -1.60657 -0.0678655 0
M  V30 4427 O 436.236 -1.73385 0.168332 0
M  V30 4428 C 433.368 -3.38033 0.441188 0
M  V30 4429 H 434.561 -2.31719 1.90384 0
M  V30 4430 H 432.114 -1.1835 1.02093 0
M  V30 4431 H 432.849 -3.20249 -0.510961 0
M  V30 4432 H 432.634 -3.73911 1.18038 0
M  V30 4433 H 434.124 -4.16613 0.287009 0
M  V30 4434 N 434.561 -1.01147 -1.20859 0
M  V30 4435 C 435.471 -0.58686 -2.27141 0
M  V30 4436 C 436.487 0.373198 -1.69951 0
M  V30 4437 O 437.663 0.235423 -2.00019 0
M  V30 4438 C 434.728 0.0733602 -3.46622 0
M  V30 4439 C 433.789 -0.931995 -4.19061 0
M  V30 4440 C 433.022 -0.303186 -5.32838 0
M  V30 4441 O 433.245 0.898395 -5.63281 0
M  V30 4442 O 432.179 -1.01735 -5.9324 0
M  V30 4443 H 436.005 -1.47155 -2.65667 0
M  V30 4444 H 433.59 -0.780689 -1.2738 0
M  V30 4445 H 435.472 0.442333 -4.19072 0
M  V30 4446 H 434.147 0.932329 -3.09983 0
M  V30 4447 H 433.054 -1.35224 -3.48805 0
M  V30 4448 H 434.387 -1.76076 -4.59628 0
M  V30 4449 N 436.039 1.36541 -0.78704 0
M  V30 4450 C 437.002 2.28413 -0.189778 0
M  V30 4451 C 438.002 1.48719 0.611499 0
M  V30 4452 O 439.192 1.68737 0.432842 0
M  V30 4453 C 436.324 3.32824 0.737638 0
M  V30 4454 H 437.517 2.82743 -0.999831 0
M  V30 4455 H 435.07 1.46065 -0.556298 0
M  V30 4456 H 435.805 2.83646 1.57212 0
M  V30 4457 H 435.59 3.91752 0.165044 0
M  V30 4458 H 437.08 4.0144 1.15047 0
M  V30 4459 N 437.518 0.538854 1.48102 0
M  V30 4460 C 438.934 0.19732 1.58376 0
M  V30 4461 C 439.134 -1.29971 1.5398 0
M  V30 4462 O 438.19 -2.07861 1.43352 0
M  V30 4463 C 439.503 0.807716 2.89649 0
M  V30 4464 C 441.051 0.77726 3.03196 0
M  V30 4465 C 441.526 1.36639 4.37143 0
M  V30 4466 N 443.017 1.32875 4.43732 0
M  V30 4467 C 443.752 1.7544 5.45901 0
M  V30 4468 N 443.248 2.25776 6.54979 0
M  V30 4469 N 445.041 1.66623 5.36836 0
M  V30 4470 H 437.192 1.5117 1.49202 0
M  V30 4471 H 439.455 0.629327 0.708979 0
M  V30 4472 H 439.161 1.85909 2.98548 0
M  V30 4473 H 439.035 0.289975 3.76084 0
M  V30 4474 H 441.422 -0.265374 2.93904 0
M  V30 4475 H 441.503 1.33256 2.18349 0
M  V30 4476 H 441.147 2.408 4.47189 0
M  V30 4477 H 441.077 0.786689 5.20691 0
M  V30 4478 H 443.568 0.96037 3.65493 0
M  V30 4479 H 443.881 2.56226 7.29087 0
M  V30 4480 H 442.226 2.29775 6.55918 0
M  V30 4481 H 445.417 1.27089 4.50517 0
M  V30 4482 H 445.59 2.00115 6.16326 0
M  V30 4483 N 438.996 -1.55193 0.274407 0
M  V30 4484 C 439.959 -2.212 -0.600279 0
M  V30 4485 C 440.959 -1.18963 -1.08187 0
M  V30 4486 O 442.149 -1.43873 -0.982158 0
M  V30 4487 C 439.281 -2.87739 -1.82809 0
M  V30 4488 H 440.474 -2.9989 -0.0239682 0
M  V30 4489 H 438.027 -1.5628 0.0250192 0
M  V30 4490 H 438.762 -2.13058 -2.44493 0
M  V30 4491 H 438.547 -3.62658 -1.49069 0
M  V30 4492 H 440.037 -3.38171 -2.45011 0
M  V30 4493 N 440.474 -0.00167713 -1.576 0
M  V30 4494 C 441.421 0.989195 -2.08527 0
M  V30 4495 C 442.391 1.34031 -0.981065 0
M  V30 4496 O 443.576 1.43839 -1.2536 0
M  V30 4497 C 440.716 2.27537 -2.59463 0
M  V30 4498 C 439.829 1.98314 -3.83791 0
M  V30 4499 C 438.964 3.21025 -4.23222 0
M  V30 4500 C 438.003 2.87495 -5.40382 0
M  V30 4501 N 437.14 4.02749 -5.75098 0
M  V30 4502 H 441.98 0.547973 -2.92919 0
M  V30 4503 H 439.517 0.258917 -1.44803 0
M  V30 4504 H 441.475 3.02729 -2.87073 0
M  V30 4505 H 440.105 2.69325 -1.77943 0
M  V30 4506 H 439.157 1.13482 -3.63078 0
M  V30 4507 H 440.469 1.69601 -4.69081 0
M  V30 4508 H 439.623 4.04561 -4.52123 0
M  V30 4509 H 438.362 3.52877 -3.36644 0
M  V30 4510 H 437.367 2.02367 -5.11202 0
M  V30 4511 H 438.592 2.56889 -6.28637 0
M  V30 4512 H 436.538 4.34494 -4.91478 0
M  V30 4513 H 436.455 3.77566 -6.54966 0
M  V30 4514 H 437.723 4.87068 -6.08592 0
M  V30 4515 N 441.952 1.55251 0.271103 0
M  V30 4516 C 442.882 1.9127 1.33933 0
M  V30 4517 C 443.863 0.77478 1.5143 0
M  V30 4518 O 445.048 1.03307 1.64442 0
M  V30 4519 C 442.178 2.18627 2.69851 0
M  V30 4520 C 441.132 3.34442 2.67081 0
M  V30 4521 C 440.458 3.47284 4.06569 0
M  V30 4522 C 441.758 4.70784 2.26185 0
M  V30 4523 H 443.452 2.80744 1.04035 0
M  V30 4524 H 440.998 1.35077 0.499017 0
M  V30 4525 H 442.951 2.42413 3.44694 0
M  V30 4526 H 441.675 1.25955 3.01335 0
M  V30 4527 H 440.334 3.10627 1.94695 0
M  V30 4528 H 439.982 2.52074 4.35279 0
M  V30 4529 H 439.682 4.25152 4.0561 0
M  V30 4530 H 441.206 3.73363 4.83148 0
M  V30 4531 H 442.62 4.94102 2.90751 0
M  V30 4532 H 441.017 5.51582 2.36384 0
M  V30 4533 H 442.087 4.69478 1.21319 0
M  V30 4534 N 443.43 -0.535701 1.48216 0
M  V30 4535 C 444.362 -1.65662 1.58394 0
M  V30 4536 C 445.375 -1.5591 0.468607 0
M  V30 4537 O 446.564 -1.62475 0.7392 0
M  V30 4538 C 443.664 -3.04276 1.4923 0
M  V30 4539 C 442.837 -3.39567 2.75705 0
M  V30 4540 C 441.896 -4.57436 2.60075 0
M  V30 4541 O 440.922 -4.60942 3.33948 0
M  V30 4542 N 442.124 -5.55259 1.69315 0
M  V30 4543 H 444.889 -1.5737 2.55058 0
M  V30 4544 H 442.45 -0.722845 1.44867 0
M  V30 4545 H 444.442 -3.80994 1.36477 0
M  V30 4546 H 443.012 -3.06677 0.605632 0
M  V30 4547 H 442.232 -2.52083 3.03064 0
M  V30 4548 H 443.52 -3.59929 3.59623 0
M  V30 4549 H 442.918 -5.552 1.08489 0
M  V30 4550 H 441.475 -6.31218 1.62504 0
M  V30 4551 N 444.908 -1.36708 -0.784132 0
M  V30 4552 C 445.871 -1.31307 -1.87859 0
M  V30 4553 C 446.871 -0.219654 -1.59293 0
M  V30 4554 O 448.061 -0.47476 -1.67606 0
M  V30 4555 C 445.193 -1.03679 -3.24751 0
M  V30 4556 H 446.386 -2.28647 -1.94064 0
M  V30 4557 H 443.939 -1.21558 -0.98252 0
M  V30 4558 H 444.674 -0.0681936 -3.24228 0
M  V30 4559 H 444.459 -1.82811 -3.46876 0
M  V30 4560 H 445.949 -1.02518 -4.04821 0
M  V30 4561 N 446.386 1.0089 -1.21074 0
M  V30 4562 C 447.632 1.74866 -1.02712 0
M  V30 4563 C 447.965 1.89178 0.438787 0
M  V30 4564 O 447.24 1.42325 1.32567 0
M  V30 4565 C 447.523 3.16347 -1.72036 0
M  V30 4566 C 447.376 3.09782 -3.26121 0
M  V30 4567 C 448.695 4.15187 -1.45973 0
M  V30 4568 H 445.814 0.634736 -0.374539 0
M  V30 4569 H 448.456 1.17646 -1.49196 0
M  V30 4570 H 446.606 3.65201 -1.32517 0
M  V30 4571 H 448.278 2.68673 -3.74983 0
M  V30 4572 H 446.521 2.46982 -3.56626 0
M  V30 4573 H 447.192 4.09829 -3.6979 0
M  V30 4574 H 449.668 3.75022 -1.80272 0
M  V30 4575 H 448.544 5.12331 -1.96999 0
M  V30 4576 H 448.805 4.40386 -0.388924 0
M  V30 4577 N 447.864 1.01787 1.20321 0
M  V30 4578 C 448.794 0.609625 2.25401 0
M  V30 4579 C 449.775 -0.375951 1.65893 0
M  V30 4580 O 450.96 -0.261101 1.92437 0
M  V30 4581 C 448.09 -0.0515995 3.47262 0
M  V30 4582 C 447.044 0.855095 4.19371 0
M  V30 4583 C 446.37 0.0595757 5.34667 0
M  V30 4584 C 447.67 2.16374 4.75373 0
M  V30 4585 H 449.364 1.48803 2.59804 0
M  V30 4586 H 446.91 0.716934 1.24884 0
M  V30 4587 H 448.863 -0.348764 4.19954 0
M  V30 4588 H 447.587 -0.964726 3.12027 0
M  V30 4589 H 446.246 1.13628 3.48546 0
M  V30 4590 H 445.894 -0.85524 4.95676 0
M  V30 4591 H 445.594 0.663406 5.83843 0
M  V30 4592 H 447.118 -0.231105 6.10162 0
M  V30 4593 H 448.532 1.92885 5.39878 0
M  V30 4594 H 446.929 2.71853 5.34991 0
M  V30 4595 H 447.999 2.82589 3.94045 0
M  V30 4596 N 449.342 -1.36122 0.79427 0
M  V30 4597 C 450.619 -1.93398 0.292685 0
M  V30 4598 C 450.999 -1.72567 -1.21589 0
M  V30 4599 O 450.347 -1.08745 -2.00965 0
M  V30 4600 C 450.557 -3.42099 0.690614 0
M  V30 4601 C 451.905 -4.19231 0.673105 0
M  V30 4602 O 452.929 -3.50559 0.631389 0
M  V30 4603 O 451.788 -5.41732 0.720362 0
M  V30 4604 H 448.882 -0.823712 0.0736693 0
M  V30 4605 H 451.428 -1.45273 0.87714 0
M  V30 4606 H 450.2 -3.50938 1.73085 0
M  V30 4607 H 449.823 -3.97519 0.0803036 0
M  V30 4608 N 450.82 -0.546701 -1.47814 0
M  V30 4609 C 451.768 0.220048 -2.31557 0
M  V30 4610 C 452.762 0.919472 -1.42275 0
M  V30 4611 O 453.968 0.841953 -1.59095 0
M  V30 4612 H 450.343 0.0898334 -0.746615 0
M  V30 4613 H 452.314 -0.505589 -2.94086 0
M  V30 4614 C 451.063 1.24353 -3.24702 0
M  V30 4615 H 450.386 0.714758 -3.93359 0
M  V30 4616 H 451.826 1.75112 -3.8615 0
M  V30 4617 C 450.285 2.28593 -2.47481 0
M  V30 4618 O 450.815 3.35334 -2.21165 0
M  V30 4619 N 449.021 2.02244 -2.08676 0
M  V30 4620 H 448.568 1.15455 -2.30278 0
M  V30 4621 H 448.526 2.72207 -1.57323 0
M  V30 4622 N 452.299 1.55045 -0.282633 0
M  V30 4623 C 453.547 1.99365 0.331334 0
M  V30 4624 C 453.868 1.1725 1.55812 0
M  V30 4625 O 453.138 0.263871 1.94115 0
M  V30 4626 H 451.718 0.736397 0.125414 0
M  V30 4627 H 454.38 1.90964 -0.389711 0
M  V30 4628 H 453.476 3.0596 0.616036 0
M  V30 4629 N 453.777 0.010035 1.57597 0
M  V30 4630 C 454.724 -0.978122 2.09049 0
M  V30 4631 C 455.694 -1.33509 0.988159 0
M  V30 4632 O 456.879 -1.43172 1.26121 0
M  V30 4633 C 454.019 -2.26158 2.60666 0
M  V30 4634 C 453.132 -1.96275 3.84838 0
M  V30 4635 C 452.267 -3.18776 4.24918 0
M  V30 4636 C 451.306 -2.84625 5.41899 0
M  V30 4637 N 450.443 -3.99693 5.77226 0
M  V30 4638 H 455.283 -0.532431 2.93205 0
M  V30 4639 H 452.82 -0.251234 1.44939 0
M  V30 4640 H 454.778 -3.01202 2.88675 0
M  V30 4641 H 453.408 -2.68378 1.79369 0
M  V30 4642 H 452.46 -1.11555 3.63675 0
M  V30 4643 H 453.772 -1.67111 4.69974 0
M  V30 4644 H 452.926 -4.02157 4.54262 0
M  V30 4645 H 451.665 -3.51087 3.38511 0
M  V30 4646 H 450.67 -1.99653 5.12268 0
M  V30 4647 H 451.895 -2.53551 6.29991 0
M  V30 4648 H 449.841 -4.31882 4.93776 0
M  V30 4649 H 449.758 -3.74087 6.56959 0
M  V30 4650 H 451.026 -4.83834 6.11167 0
M  V30 4651 N 455.255 -1.55392 -0.262866 0
M  V30 4652 C 456.218 -1.88181 -1.30846 0
M  V30 4653 C 457.218 -0.757079 -1.41862 0
M  V30 4654 O 458.408 -1.02519 -1.40838 0
M  V30 4655 C 455.54 -2.09609 -2.68844 0
M  V30 4656 H 456.733 -2.81659 -1.02997 0
M  V30 4657 H 454.286 -1.48039 -0.501414 0
M  V30 4658 H 455.021 -1.18547 -3.01856 0
M  V30 4659 H 454.806 -2.91508 -2.62231 0
M  V30 4660 H 456.296 -2.36215 -3.44372 0
M  V30 4661 N 456.733 0.527833 -1.48498 0
M  V30 4662 C 457.696 1.61439 -1.62696 0
M  V30 4663 C 458.696 1.52824 -0.500136 0
M  V30 4664 O 459.886 1.56456 -0.765976 0
M  V30 4665 C 457.018 3.01063 -1.59918 0
M  V30 4666 H 458.211 1.50189 -2.59583 0
M  V30 4667 H 455.764 0.750055 -1.37127 0
M  V30 4668 H 456.499 3.17818 -0.645163 0
M  V30 4669 H 456.284 3.08725 -2.41726 0
M  V30 4670 H 457.774 3.80057 -1.73051 0
M  V30 4671 N 458.211 1.37122 0.776871 0
M  V30 4672 C 459.121 1.34651 1.9211 0
M  V30 4673 C 460.137 0.246824 1.7224 0
M  V30 4674 O 461.313 0.48134 1.95563 0
M  V30 4675 C 458.378 1.14748 3.2716 0
M  V30 4676 C 457.439 2.34308 3.5972 0
M  V30 4677 C 456.672 2.15345 4.88326 0
M  V30 4678 O 456.895 1.13507 5.58992 0
M  V30 4679 O 455.829 3.03414 5.1983 0
M  V30 4680 H 459.655 2.31013 1.97146 0
M  V30 4681 H 457.24 1.17799 0.918901 0
M  V30 4682 H 459.122 1.05616 4.0795 0
M  V30 4683 H 457.797 0.214562 3.22988 0
M  V30 4684 H 456.704 2.49011 2.79185 0
M  V30 4685 H 458.037 3.26149 3.68629 0
M  V30 4686 N 459.689 -1.00246 1.21608 0
M  V30 4687 C 460.935 -1.74319 1.03638 0
M  V30 4688 C 461.268 -1.89408 -0.428749 0
M  V30 4689 O 460.543 -1.43026 -1.3181 0
M  V30 4690 C 460.826 -3.15431 1.73711 0
M  V30 4691 C 460.679 -3.08049 3.27759 0
M  V30 4692 C 461.998 -4.14407 1.48173 0
M  V30 4693 H 459.117 -0.632741 0.377899 0
M  V30 4694 H 461.759 -1.16853 1.49818 0
M  V30 4695 H 459.909 -3.64493 1.34452 0
M  V30 4696 H 461.581 -2.66681 3.76403 0
M  V30 4697 H 459.824 -2.45088 3.57931 0
M  V30 4698 H 460.495 -4.07862 3.71958 0
M  V30 4699 H 462.971 -3.74061 1.82258 0
M  V30 4700 H 461.847 -5.11279 1.99713 0
M  V30 4701 H 462.108 -4.40174 0.412273 0
M  V30 4702 N 461.167 -1.02423 -1.1978 0
M  V30 4703 C 462.414 -0.717988 -1.89344 0
M  V30 4704 C 462.742 0.753036 -1.79331 0
M  V30 4705 O 461.997 1.56355 -1.17692 0
M  V30 4706 C 462.296 -1.1088 -3.39765 0
M  V30 4707 C 461.962 -2.57731 -3.6998 0
M  V30 4708 C 460.624 -2.97854 -3.77937 0
M  V30 4709 C 462.976 -3.52763 -3.83677 0
M  V30 4710 C 460.304 -4.31931 -3.97054 0
M  V30 4711 C 462.656 -4.86538 -4.04306 0
M  V30 4712 C 461.32 -5.26356 -4.10494 0
M  V30 4713 H 460.59 -0.26273 -0.692859 0
M  V30 4714 H 463.237 -1.28623 -1.41875 0
M  V30 4715 H 461.542 -0.459094 -3.89101 0
M  V30 4716 H 463.239 -0.849432 -3.919 0
M  V30 4717 H 459.829 -2.25646 -3.64393 0
M  V30 4718 H 464.013 -3.2292 -3.76877 0
M  V30 4719 H 459.269 -4.62324 -4.00083 0
M  V30 4720 H 463.443 -5.60093 -4.13846 0
M  V30 4721 H 461.07 -6.3026 -4.2506 0
M  V30 4722 N 462.645 1.35699 -0.801477 0
M  V30 4723 C 463.893 1.9852 -0.37871 0
M  V30 4724 C 464.214 1.63907 1.05638 0
M  V30 4725 O 463.484 0.919013 1.73006 0
M  V30 4726 H 462.064 0.734322 -0.137042 0
M  V30 4727 H 464.726 1.65697 -1.02619 0
M  V30 4728 H 463.822 3.08382 -0.480284 0
M  V30 4729 N 464.123 0.554532 1.47522 0
M  V30 4730 C 465.539 0.214107 1.58157 0
M  V30 4731 C 465.739 -1.28331 1.55349 0
M  V30 4732 O 464.795 -2.06329 1.45549 0
M  V30 4733 C 466.108 0.838391 2.88776 0
M  V30 4734 C 467.656 0.809374 3.02354 0
M  V30 4735 C 468.131 1.41268 4.35669 0
M  V30 4736 N 469.622 1.37574 4.42298 0
M  V30 4737 C 470.357 1.8122 5.4401 0
M  V30 4738 N 469.853 2.3271 6.52547 0
M  V30 4739 N 471.646 1.72307 5.35039 0
M  V30 4740 H 463.797 1.52744 1.4759 0
M  V30 4741 H 466.06 0.636812 0.702264 0
M  V30 4742 H 465.766 1.89065 2.96559 0
M  V30 4743 H 465.64 0.329847 3.75755 0
M  V30 4744 H 468.027 -0.234187 2.94169 0
M  V30 4745 H 468.108 1.35565 2.16924 0
M  V30 4746 H 467.752 2.45529 4.4461 0
M  V30 4747 H 467.682 0.841871 5.19827 0
M  V30 4748 H 470.173 0.999081 3.64454 0
M  V30 4749 H 470.486 2.63944 7.26329 0
M  V30 4750 H 468.831 2.36719 6.53444 0
M  V30 4751 H 472.022 1.3186 4.49144 0
M  V30 4752 H 472.195 2.06641 6.14169 0
M  V30 4753 N 465.601 -1.54893 0.290851 0
M  V30 4754 C 466.534 -2.19289 -0.631489 0
M  V30 4755 C 467.512 -1.15893 -1.14051 0
M  V30 4756 O 468.696 -1.4449 -1.21058 0
M  V30 4757 C 465.823 -2.82866 -1.86291 0
M  V30 4758 C 464.869 -3.997 -1.48801 0
M  V30 4759 S 465.702 -5.32641 -0.552644 0
M  V30 4760 C 466.858 -5.99696 -1.79209 0
M  V30 4761 H 467.091 -2.9718 -0.0843791 0
M  V30 4762 H 464.624 -1.54218 0.075031 0
M  V30 4763 H 466.582 -3.20124 -2.56964 0
M  V30 4764 H 465.243 -2.04839 -2.38117 0
M  V30 4765 H 464.436 -4.42932 -2.40473 0
M  V30 4766 H 464.038 -3.63947 -0.861321 0
M  V30 4767 H 466.33 -6.19886 -2.734 0
M  V30 4768 H 467.273 -6.94071 -1.40251 0
M  V30 4769 H 467.681 -5.29226 -1.96419 0
M  V30 4770 N 467.08 -0.0183926 -1.57589 0
M  V30 4771 C 468.326 0.663543 -1.91638 0
M  V30 4772 C 468.659 1.72392 -0.894134 0
M  V30 4773 O 467.934 1.94316 0.0846449 0
M  V30 4774 C 468.217 1.28984 -3.36207 0
M  V30 4775 C 468.07 0.239761 -4.49161 0
M  V30 4776 C 469.389 2.2109 -3.80536 0
M  V30 4777 H 466.508 0.239746 -0.696915 0
M  V30 4778 H 469.15 -0.073456 -1.89858 0
M  V30 4779 H 467.3 1.91799 -3.37854 0
M  V30 4780 H 468.972 -0.390119 -4.59647 0
M  V30 4781 H 467.215 -0.435972 -4.31604 0
M  V30 4782 H 467.886 0.717383 -5.47319 0
M  V30 4783 H 470.362 1.68273 -3.80557 0
M  V30 4784 H 469.238 2.61869 -4.82406 0
M  V30 4785 H 469.499 3.09764 -3.15434 0
M  V30 4786 N 468.558 1.5553 0.254621 0
M  V30 4787 C 469.521 1.88872 1.29846 0
M  V30 4788 C 470.521 0.764591 1.41459 0
M  V30 4789 O 471.711 1.03265 1.40293 0
M  V30 4790 C 468.843 2.11032 2.67728 0
M  V30 4791 H 470.036 2.82201 1.01502 0
M  V30 4792 H 467.589 1.48303 0.493556 0
M  V30 4793 H 468.324 1.20146 3.01223 0
M  V30 4794 H 468.109 2.92895 2.60682 0
M  V30 4795 H 469.599 2.38038 3.43115 0
M  V30 4796 N 470.036 -0.519951 1.48776 0
M  V30 4797 C 470.999 -1.60574 1.6355 0
M  V30 4798 C 471.999 -1.52557 0.508234 0
M  V30 4799 O 473.189 -1.56047 0.774262 0
M  V30 4800 C 470.321 -3.00211 1.61512 0
M  V30 4801 H 471.514 -1.4881 2.60376 0
M  V30 4802 H 469.067 -0.742772 1.37523 0
M  V30 4803 H 469.802 -3.17471 0.662009 0
M  V30 4804 H 469.587 -3.07439 2.43359 0
M  V30 4805 H 471.077 -3.79134 1.75064 0
M  V30 4806 N 471.514 -1.37532 -0.769588 0
M  V30 4807 C 472.446 -1.29347 -1.89214 0
M  V30 4808 C 473.459 -0.208842 -1.61455 0
M  V30 4809 O 474.648 -0.465158 -1.72333 0
M  V30 4810 C 471.748 -0.977649 -3.24492 0
M  V30 4811 C 470.921 -2.16817 -3.7988 0
M  V30 4812 C 469.98 -1.82229 -4.93639 0
M  V30 4813 O 469.006 -2.54548 -5.09111 0
M  V30 4814 N 470.208 -0.767696 -5.75401 0
M  V30 4815 H 472.973 -2.26073 -1.96751 0
M  V30 4816 H 470.534 -1.31185 -0.948795 0
M  V30 4817 H 472.526 -0.727065 -3.98115 0
M  V30 4818 H 471.096 -0.0988777 -3.12444 0
M  V30 4819 H 470.316 -2.58038 -2.9801 0
M  V30 4820 H 471.604 -2.96308 -4.13617 0
M  V30 4821 H 471.002 -0.167626 -5.65452 0
M  V30 4822 H 469.559 -0.576973 -6.49241 0
M  V30 4823 N 472.992 0.995999 -1.22138 0
M  V30 4824 C 473.939 2.08551 -0.988687 0
M  V30 4825 C 474.909 1.65864 0.0885021 0
M  V30 4826 O 476.094 1.90704 -0.0604589 0
M  V30 4827 C 473.234 3.40374 -0.569191 0
M  V30 4828 C 472.347 3.96421 -1.71681 0
M  V30 4829 C 471.482 5.1639 -1.2456 0
M  V30 4830 C 470.521 5.64567 -2.36497 0
M  V30 4831 N 469.658 6.75777 -1.90445 0
M  V30 4832 H 474.498 2.2779 -1.92135 0
M  V30 4833 H 472.035 1.1168 -0.957388 0
M  V30 4834 H 473.993 4.16068 -0.307166 0
M  V30 4835 H 472.623 3.21145 0.326462 0
M  V30 4836 H 471.675 3.17628 -2.09324 0
M  V30 4837 H 472.987 4.2816 -2.55891 0
M  V30 4838 H 472.141 5.99362 -0.940774 0
M  V30 4839 H 470.88 4.86266 -0.373662 0
M  V30 4840 H 469.885 4.80185 -2.67772 0
M  V30 4841 H 471.11 5.96716 -3.24202 0
M  V30 4842 H 469.056 6.47443 -1.05609 0
M  V30 4843 H 468.973 7.06818 -2.68223 0
M  V30 4844 H 470.241 7.62262 -1.63022 0
M  V30 4845 N 474.47 1.03057 1.19235 0
M  V30 4846 C 475.718 0.726581 1.88587 0
M  V30 4847 C 476.039 -0.747227 1.80115 0
M  V30 4848 O 475.309 -1.53849 1.21274 0
M  V30 4849 H 473.889 0.265768 0.698124 0
M  V30 4850 H 476.551 1.30516 1.44746 0
M  V30 4851 H 475.647 1.0224 2.94879 0
M  V30 4852 N 475.948 -1.35272 0.808662 0
M  V30 4853 C 477.359 -1.81179 0.450688 0
M  V30 4854 C 477.71 -1.67143 -1.02751 0
M  V30 4855 O 476.835 -1.20325 -1.79864 0
M  V30 4856 C 477.43 -3.28943 0.811275 0
M  V30 4857 C 475.989 -3.72985 0.505871 0
M  V30 4858 C 475.136 -2.57229 1.03578 0
M  V30 4859 H 478.087 -1.2322 1.00012 0
M  V30 4860 H 478.108 -3.80342 0.109588 0
M  V30 4861 H 477.62 -3.39127 1.88718 0
M  V30 4862 H 475.721 -3.68349 -0.561209 0
M  V30 4863 H 475.834 -4.67677 1.03995 0
M  V30 4864 H 474.198 -2.50548 0.458005 0
M  V30 4865 H 474.981 -2.7019 2.11784 0
M  V30 4866 N 477.426 -0.562348 -1.47226 0
M  V30 4867 C 478.654 -0.0452275 -2.06851 0
M  V30 4868 C 479.069 1.25078 -1.41424 0
M  V30 4869 O 478.426 1.75156 -0.512513 0
M  V30 4870 C 478.477 0.148674 -3.61194 0
M  V30 4871 O 478.198 -1.09602 -4.24169 0
M  V30 4872 C 479.699 0.702488 -4.37699 0
M  V30 4873 H 476.919 -0.0481775 -0.669268 0
M  V30 4874 H 479.463 -0.777223 -1.89155 0
M  V30 4875 H 477.618 0.830817 -3.78386 0
M  V30 4876 H 478.032 -0.896982 -5.16773 0
M  V30 4877 H 479.506 0.78743 -5.46355 0
M  V30 4878 H 479.983 1.71493 -4.04335 0
M  V30 4879 H 480.589 0.0558772 -4.25263 0
M  V30 4880 N 478.904 1.54736 -0.299062 0
M  V30 4881 C 480.181 1.92187 0.363802 0
M  V30 4882 C 480.561 1.22607 1.71845 0
M  V30 4883 O 479.909 0.361141 2.25628 0
M  V30 4884 C 480.119 3.45678 0.480377 0
M  V30 4885 C 481.467 4.17885 0.752147 0
M  V30 4886 O 482.491 3.51702 0.564264 0
M  V30 4887 O 481.35 5.35048 1.11294 0
M  V30 4888 H 478.444 0.801681 0.203066 0
M  V30 4889 H 480.99 1.66115 -0.346978 0
M  V30 4890 H 479.762 3.88443 -0.471999 0
M  V30 4891 H 479.385 3.77779 1.2397 0
M  V30 4892 N 480.382 0.0267497 1.57577 0
M  V30 4893 C 481.629 -0.652404 1.91703 0
M  V30 4894 C 481.957 -1.72271 0.902936 0
M  V30 4895 O 481.212 -1.955 -0.0884843 0
M  V30 4896 C 481.511 -1.30914 3.3256 0
M  V30 4897 C 481.177 -0.369441 4.49384 0
M  V30 4898 C 479.839 -0.110791 4.81072 0
M  V30 4899 C 482.191 0.275971 5.20469 0
M  V30 4900 C 479.519 0.801116 5.81205 0
M  V30 4901 C 481.871 1.17592 6.21575 0
M  V30 4902 C 480.535 1.44348 6.51705 0
M  V30 4903 H 479.805 -0.238732 0.70149 0
M  V30 4904 H 482.452 0.0880091 1.91298 0
M  V30 4905 H 480.757 -2.12425 3.29216 0
M  V30 4906 H 482.454 -1.84115 3.56234 0
M  V30 4907 H 479.044 -0.581211 4.24641 0
M  V30 4908 H 483.228 0.0892 4.9622 0
M  V30 4909 H 478.484 1.01614 6.02897 0
M  V30 4910 H 482.658 1.68223 6.75777 0
M  V30 4911 H 480.285 2.15176 7.29111 0
M  V30 4912 N 481.861 -1.55662 -0.24637 0
M  V30 4913 C 483.107 -1.77782 -0.975779 0
M  V30 4914 C 483.44 -0.592103 -1.84953 0
M  V30 4915 O 482.715 0.409588 -1.90138 0
M  V30 4916 C 482.998 -3.09788 -1.83584 0
M  V30 4917 C 482.851 -4.38764 -0.990241 0
M  V30 4918 C 484.17 -3.38029 -2.81823 0
M  V30 4919 H 481.289 -0.646789 -0.353317 0
M  V30 4920 H 483.931 -1.88398 -0.246248 0
M  V30 4921 H 482.081 -3.00869 -2.45784 0
M  V30 4922 H 483.753 -4.59675 -0.386897 0
M  V30 4923 H 481.996 -4.32798 -0.294626 0
M  V30 4924 H 482.667 -5.27514 -1.62584 0
M  V30 4925 H 485.143 -3.46915 -2.2976 0
M  V30 4926 H 484.019 -4.3161 -3.39122 0
M  V30 4927 H 484.28 -2.58968 -3.58313 0
M  V30 4928 N 483.339 0.512053 -1.4905 0
M  V30 4929 C 484.249 1.64139 -1.67617 0
M  V30 4930 C 485.265 1.64786 -0.558701 0
M  V30 4931 O 486.441 1.8341 -0.832034 0
M  V30 4932 C 483.506 3.00548 -1.72835 0
M  V30 4933 C 482.567 3.10615 -2.96339 0
M  V30 4934 C 481.8 4.40517 -3.01298 0
M  V30 4935 O 482.023 5.28671 -2.14157 0
M  V30 4936 O 480.957 4.55325 -3.93653 0
M  V30 4937 H 484.783 1.51407 -2.63267 0
M  V30 4938 H 482.368 0.687131 -1.32661 0
M  V30 4939 H 484.25 3.81641 -1.78683 0
M  V30 4940 H 482.925 3.13566 -0.803616 0
M  V30 4941 H 481.832 2.2875 -2.96014 0
M  V30 4942 H 483.165 3.0252 -3.88256 0
M  V30 4943 N 484.817 1.37938 0.762283 0
M  V30 4944 C 485.765 1.34569 1.89721 0
M  V30 4945 C 486.759 0.232929 1.67791 0
M  V30 4946 O 487.965 0.401485 1.75465 0
M  V30 4947 H 484.34 0.419594 0.624055 0
M  V30 4948 H 486.311 2.30357 1.8968 0
M  V30 4949 C 485.06 1.17898 3.27101 0
M  V30 4950 H 484.383 2.02781 3.44558 0
M  V30 4951 H 485.823 1.19593 4.06784 0
M  V30 4952 C 484.282 -0.114728 3.36705 0
M  V30 4953 O 484.812 -1.0949 3.8649 0
M  V30 4954 N 483.018 -0.16863 2.9011 0
M  V30 4955 H 482.565 0.62967 2.49786 0
M  V30 4956 H 482.523 -1.03383 2.96916 0
M  V30 4957 N 486.295 -0.989507 1.22664 0
M  V30 4958 C 487.525 -1.7624 1.0781 0
M  V30 4959 C 487.933 -1.85466 -0.374036 0
M  V30 4960 O 487.276 -1.32645 -1.27087 0
M  V30 4961 C 487.338 -3.21007 1.61849 0
M  V30 4962 C 487.002 -3.35316 3.10503 0
M  V30 4963 C 487.999 -3.22362 4.07896 0
M  V30 4964 C 485.684 -3.60258 3.50028 0
M  V30 4965 C 487.678 -3.34139 5.42798 0
M  V30 4966 C 485.365 -3.71676 4.85078 0
M  V30 4967 C 486.363 -3.58625 5.81272 0
M  V30 4968 O 486.051 -3.69655 7.1387 0
M  V30 4969 H 485.783 -0.560209 0.378341 0
M  V30 4970 H 488.337 -1.25252 1.62792 0
M  V30 4971 H 486.567 -3.73202 1.01279 0
M  V30 4972 H 488.256 -3.80024 1.42606 0
M  V30 4973 H 489.022 -3.03 3.78703 0
M  V30 4974 H 484.901 -3.69492 2.75675 0
M  V30 4975 H 488.445 -3.23869 6.17863 0
M  V30 4976 H 484.342 -3.90545 5.1395 0
M  V30 4977 H 485.11 -3.86507 7.21495 0
M  V30 4978 N 487.773 -1.03688 -1.18687 0
M  V30 4979 C 488.736 -0.629115 -2.20397 0
M  V30 4980 C 489.736 0.311495 -1.57754 0
M  V30 4981 O 490.926 0.0974107 -1.73927 0
M  V30 4982 C 488.058 0.0782231 -3.4081 0
M  V30 4983 H 489.251 -1.52915 -2.57987 0
M  V30 4984 H 486.804 -0.828988 -1.32505 0
M  V30 4985 H 487.539 0.992233 -3.08748 0
M  V30 4986 H 487.324 -0.597776 -3.87517 0
M  V30 4987 H 488.814 0.350156 -4.16129 0
M  V30 4988 N 489.251 1.34841 -0.815825 0
M  V30 4989 C 490.198 2.29644 -0.230664 0
M  V30 4990 C 491.168 1.53253 0.640533 0
M  V30 4991 O 492.353 1.81653 0.583672 0
M  V30 4992 C 489.493 3.39715 0.607275 0
M  V30 4993 C 488.606 4.31056 -0.28538 0
M  V30 4994 C 487.741 5.28225 0.561446 0
M  V30 4995 C 486.78 6.11204 -0.331035 0
M  V30 4996 N 485.917 7.00483 0.476302 0
M  V30 4997 H 490.757 2.79095 -1.0445 0
M  V30 4998 H 488.294 1.37351 -0.526595 0
M  V30 4999 H 490.252 4.02208 1.10835 0
M  V30 5000 H 488.882 2.91517 1.38629 0
M  V30 5001 H 487.934 3.69487 -0.904621 0
M  V30 5002 H 489.246 4.89239 -0.97193 0
M  V30 5003 H 488.4 5.96135 1.12728 0
M  V30 5004 H 487.139 4.70562 1.28153 0
M  V30 5005 H 486.144 5.42232 -0.909069 0
M  V30 5006 H 487.369 6.70947 -1.04912 0
M  V30 5007 H 485.315 6.45296 1.18019 0
M  V30 5008 H 485.232 7.55847 -0.152008 0
M  V30 5009 H 486.5 7.7273 1.02512 0
M  V30 5010 N 490.729 0.570148 1.46925 0
M  V30 5011 C 491.959 0.0561151 2.06524 0
M  V30 5012 C 492.367 -1.24874 1.42137 0
M  V30 5013 O 491.71 -1.76292 0.516417 0
M  V30 5014 C 491.772 -0.197035 3.5896 0
M  V30 5015 C 491.436 1.02033 4.45464 0
M  V30 5016 C 492.433 1.92921 4.82781 0
M  V30 5017 C 490.118 1.23864 4.86788 0
M  V30 5018 C 492.112 3.03999 5.60235 0
M  V30 5019 C 489.799 2.35249 5.64004 0
M  V30 5020 C 490.797 3.25146 6.0064 0
M  V30 5021 O 490.485 4.34598 6.76299 0
M  V30 5022 H 490.217 0.0487409 0.674241 0
M  V30 5023 H 492.771 0.786915 1.89728 0
M  V30 5024 H 491.001 -0.982299 3.74016 0
M  V30 5025 H 492.69 -0.658032 4.00531 0
M  V30 5026 H 493.456 1.77265 4.51444 0
M  V30 5027 H 489.335 0.54805 4.57731 0
M  V30 5028 H 492.879 3.74192 5.8875 0
M  V30 5029 H 488.776 2.50873 5.94755 0
M  V30 5030 H 489.544 4.32808 6.94708 0
M  V30 5031 N 492.207 -1.54576 0.307264 0
M  V30 5032 C 493.137 -2.26708 -0.55907 0
M  V30 5033 C 494.118 -1.26893 -1.1328 0
M  V30 5034 O 495.303 -1.55677 -1.16097 0
M  V30 5035 C 492.433 -3.01259 -1.72801 0
M  V30 5036 C 491.387 -4.08275 -1.28435 0
M  V30 5037 C 490.713 -4.70575 -2.53895 0
M  V30 5038 C 492.013 -5.2068 -0.411038 0
M  V30 5039 H 493.707 -2.9937 0.042576 0
M  V30 5040 H 491.253 -1.43983 0.0219173 0
M  V30 5041 H 493.206 -3.50444 -2.34023 0
M  V30 5042 H 491.93 -2.26187 -2.356 0
M  V30 5043 H 490.589 -3.59949 -0.695161 0
M  V30 5044 H 490.237 -3.92136 -3.15021 0
M  V30 5045 H 489.937 -5.42854 -2.24908 0
M  V30 5046 H 491.461 -5.22527 -3.15908 0
M  V30 5047 H 492.875 -5.65721 -0.929097 0
M  V30 5048 H 491.272 -5.99716 -0.214664 0
M  V30 5049 H 492.342 -4.81629 0.562287 0
M  V30 5050 N 493.685 -0.035106 -1.57561 0
M  V30 5051 C 495.096 0.502885 -1.798 0
M  V30 5052 C 495.447 1.71892 -0.945921 0
M  V30 5053 O 494.572 2.15822 -0.157991 0
M  V30 5054 C 495.167 0.919097 -3.26095 0
M  V30 5055 C 493.726 1.40216 -3.49308 0
M  V30 5056 C 492.873 0.369709 -2.74824 0
M  V30 5057 H 495.824 -0.261102 -1.56537 0
M  V30 5058 H 495.845 1.78308 -3.36135 0
M  V30 5059 H 495.357 0.0338526 -3.88085 0
M  V30 5060 H 493.458 2.30714 -2.92578 0
M  V30 5061 H 493.571 1.40541 -4.58023 0
M  V30 5062 H 491.935 0.839113 -2.40481 0
M  V30 5063 H 492.718 -0.507173 -3.39533 0
M  V30 5064 N 495.163 1.55791 0.238111 0
M  V30 5065 C 496.391 1.82098 0.982233 0
M  V30 5066 C 496.806 0.612025 1.78605 0
M  V30 5067 O 496.163 -0.419381 1.77616 0
M  V30 5068 C 496.214 3.0673 1.91309 0
M  V30 5069 O 495.935 4.2296 1.14179 0
M  V30 5070 C 497.436 3.45903 2.77248 0
M  V30 5071 H 494.656 0.605748 0.288635 0
M  V30 5072 H 497.2 2.02862 0.258341 0
M  V30 5073 H 495.355 2.87991 2.59114 0
M  V30 5074 H 495.769 4.93653 1.7722 0
M  V30 5075 H 497.243 4.36189 3.38295 0
M  V30 5076 H 497.72 2.66891 3.48806 0
M  V30 5077 H 498.326 3.67024 2.14881 0
M  V30 5078 N 496.642 -0.504142 1.49319 0
M  V30 5079 C 497.605 -1.5883 1.65244 0
M  V30 5080 C 498.605 -1.52009 0.524386 0
M  V30 5081 O 499.795 -1.55218 0.79077 0
M  V30 5082 C 496.927 -2.98481 1.64687 0
M  V30 5083 H 498.12 -1.4604 2.61939 0
M  V30 5084 H 495.673 -0.728144 1.38303 0
M  V30 5085 H 496.408 -3.16751 0.695644 0
M  V30 5086 H 496.193 -3.0484 2.46607 0
M  V30 5087 H 497.683 -3.77256 1.79075 0
M  V30 5088 N 498.12 -1.38341 -0.754957 0
M  V30 5089 C 499.053 -1.29837 -1.87663 0
M  V30 5090 C 500.031 -0.175659 -1.61648 0
M  V30 5091 O 501.215 -0.352745 -1.8517 0
M  V30 5092 C 498.342 -1.01141 -3.23246 0
M  V30 5093 C 497.388 -2.15331 -3.6815 0
M  V30 5094 S 498.221 -3.77459 -3.79849 0
M  V30 5095 C 499.377 -3.50948 -5.18253 0
M  V30 5096 H 499.61 -2.24771 -1.9459 0
M  V30 5097 H 497.143 -1.24161 -0.917796 0
M  V30 5098 H 499.101 -0.852687 -4.01546 0
M  V30 5099 H 497.762 -0.0792784 -3.14 0
M  V30 5100 H 496.955 -1.90795 -4.6649 0
M  V30 5101 H 496.557 -2.27304 -2.97 0
M  V30 5102 H 498.849 -3.06977 -6.03963 0
M  V30 5103 H 499.792 -4.48677 -5.47809 0
M  V30 5104 H 500.2 -2.85492 -4.86985 0
M  V30 5105 N 499.598 0.982988 -1.23187 0
M  V30 5106 C 500.528 2.09301 -1.03515 0
M  V30 5107 C 501.509 1.70035 0.0471136 0
M  V30 5108 O 502.694 1.93847 -0.117029 0
M  V30 5109 C 499.824 3.4167 -0.622791 0
M  V30 5110 C 498.778 3.94828 -1.65211 0
M  V30 5111 C 498.104 5.23362 -1.09527 0
M  V30 5112 C 499.404 4.2439 -3.04451 0
M  V30 5113 H 501.098 2.26016 -1.96359 0
M  V30 5114 H 498.644 1.08611 -0.945501 0
M  V30 5115 H 500.597 4.18746 -0.472233 0
M  V30 5116 H 499.321 3.24811 0.341329 0
M  V30 5117 H 497.98 3.19895 -1.79061 0
M  V30 5118 H 497.628 5.02852 -0.122211 0
M  V30 5119 H 497.328 5.59895 -1.783 0
M  V30 5120 H 498.852 6.03062 -0.956511 0
M  V30 5121 H 500.266 4.92225 -2.93917 0
M  V30 5122 H 498.663 4.72118 -3.70438 0
M  V30 5123 H 499.733 3.31765 -3.53638 0
M  V30 5124 N 501.076 1.04316 1.18135 0
M  V30 5125 C 502.304 0.768117 1.92113 0
M  V30 5126 C 502.719 -0.675057 1.76319 0
M  V30 5127 O 502.076 -1.46038 1.09449 0
M  V30 5128 C 502.127 1.12808 3.43448 0
M  V30 5129 O 501.848 2.5146 3.58747 0
M  V30 5130 C 503.349 0.8779 4.3452 0
M  V30 5131 H 500.569 0.279937 0.609817 0
M  V30 5132 H 503.113 1.39149 1.49859 0
M  V30 5133 H 501.268 0.549623 3.83481 0
M  V30 5134 H 501.682 2.65313 4.52448 0
M  V30 5135 H 503.156 1.17959 5.39249 0
M  V30 5136 H 503.633 -0.187239 4.38801 0
M  V30 5137 H 504.239 1.43977 4.00188 0
M  V30 5138 N 502.554 -1.34406 0.822964 0
M  V30 5139 C 503.501 -2.29519 0.24284 0
M  V30 5140 C 504.471 -1.5359 -0.632397 0
M  V30 5141 O 505.656 -1.8196 -0.57403 0
M  V30 5142 C 502.796 -3.40032 -0.58925 0
M  V30 5143 C 501.909 -4.30899 0.308236 0
M  V30 5144 C 501.044 -5.28515 -0.533425 0
M  V30 5145 C 500.083 -6.1102 0.363444 0
M  V30 5146 N 499.22 -7.00725 -0.439147 0
M  V30 5147 H 504.06 -2.78537 1.05929 0
M  V30 5148 H 501.597 -1.3707 0.533872 0
M  V30 5149 H 503.555 -4.0279 -1.087 0
M  V30 5150 H 502.185 -2.92248 -1.37081 0
M  V30 5151 H 501.237 -3.69002 0.924203 0
M  V30 5152 H 502.549 -4.88717 0.997862 0
M  V30 5153 H 501.703 -5.96725 -1.09565 0
M  V30 5154 H 500.442 -4.71235 -1.25656 0
M  V30 5155 H 499.447 -5.41743 0.937812 0
M  V30 5156 H 500.672 -6.70381 1.08469 0
M  V30 5157 H 498.618 -6.45913 -1.14595 0
M  V30 5158 H 498.535 -7.55756 0.19209 0
M  V30 5159 H 499.803 -7.73263 -0.984124 0
M  V30 5160 N 504.032 -0.577932 -1.46621 0
M  V30 5161 C 504.995 0.147805 -2.28723 0
M  V30 5162 C 505.995 0.823325 -1.38123 0
M  V30 5163 O 507.185 0.676011 -1.60548 0
M  V30 5164 C 504.317 1.21853 -3.18378 0
M  V30 5165 H 505.51 -0.573654 -2.94362 0
M  V30 5166 H 503.063 -0.335703 -1.52652 0
M  V30 5167 H 503.798 1.97173 -2.57475 0
M  V30 5168 H 503.583 0.738714 -3.85078 0
M  V30 5169 H 505.073 1.72768 -3.80186 0
M  V30 5170 N 505.51 1.54411 -0.315457 0
M  V30 5171 C 506.756 2.00716 0.289972 0
M  V30 5172 C 507.089 1.2034 1.5242 0
M  V30 5173 O 506.364 0.283579 1.92422 0
M  V30 5174 C 506.647 3.54507 0.632196 0
M  V30 5175 C 506.5 4.45615 -0.61218 0
M  V30 5176 C 507.819 4.15421 1.45305 0
M  V30 5177 H 504.938 0.729637 0.10392 0
M  V30 5178 H 507.58 1.8506 -0.430427 0
M  V30 5179 H 505.73 3.67979 1.24595 0
M  V30 5180 H 507.402 4.44026 -1.25053 0
M  V30 5181 H 505.645 4.15621 -1.24264 0
M  V30 5182 H 506.316 5.51022 -0.328379 0
M  V30 5183 H 508.792 4.05474 0.934331 0
M  V30 5184 H 507.668 5.23157 1.66127 0
M  V30 5185 H 507.929 3.68223 2.44671 0
M  V30 5186 N 506.988 0.0434614 1.5754 0
M  V30 5187 C 508.218 -0.640905 1.96408 0
M  V30 5188 C 508.626 -1.65365 0.919297 0
M  V30 5189 O 507.969 -1.83395 -0.105795 0
M  V30 5190 C 508.031 -1.39141 3.31482 0
M  V30 5191 C 507.695 -0.535375 4.53853 0
M  V30 5192 C 508.692 0.195335 5.19533 0
M  V30 5193 C 506.377 -0.468564 5.0011 0
M  V30 5194 C 508.371 0.981377 6.298 0
M  V30 5195 C 506.058 0.321171 6.10255 0
M  V30 5196 C 507.056 1.04484 6.74961 0
M  V30 5197 O 506.744 1.8216 7.8299 0
M  V30 5198 H 506.476 -0.180584 0.651433 0
M  V30 5199 H 509.03 0.103848 2.05137 0
M  V30 5200 H 507.26 -2.18162 3.19284 0
M  V30 5201 H 508.949 -1.96526 3.55151 0
M  V30 5202 H 509.715 0.15314 4.84758 0
M  V30 5203 H 505.594 -1.02142 4.49542 0
M  V30 5204 H 509.138 1.54674 6.80237 0
M  V30 5205 H 505.035 0.365032 6.44467 0
M  V30 5206 H 505.803 1.74289 7.99728 0
M  V30 5207 N 508.466 -1.55915 -0.229846 0
M  V30 5208 C 509.429 -1.90914 -1.26824 0
M  V30 5209 C 510.429 -0.786999 -1.40225 0
M  V30 5210 O 511.619 -1.05484 -1.38632 0
M  V30 5211 C 508.751 -2.15264 -2.64337 0
M  V30 5212 H 509.944 -2.8378 -0.969998 0
M  V30 5213 H 507.497 -1.49069 -0.4699 0
M  V30 5214 H 508.232 -1.24923 -2.99274 0
M  V30 5215 H 508.017 -2.97005 -2.55989 0
M  V30 5216 H 509.507 -2.43467 -3.39284 0
M  V30 5217 N 509.944 0.496216 -1.49584 0
M  V30 5218 C 511.221 1.25755 -1.49816 0
M  V30 5219 C 511.601 2.09859 -0.228572 0
M  V30 5220 O 510.949 2.14449 0.788908 0
M  V30 5221 C 511.159 2.11017 -2.7798 0
M  V30 5222 C 512.507 2.70047 -3.27658 0
M  V30 5223 O 513.531 2.21281 -2.79129 0
M  V30 5224 O 512.39 3.58834 -4.1219 0
M  V30 5225 H 509.484 0.569322 -0.599834 0
M  V30 5226 H 512.03 0.510094 -1.61852 0
M  V30 5227 H 510.802 1.48879 -3.61871 0
M  V30 5228 H 510.425 2.92947 -2.68827 0
M  V30 5229 N 511.423 1.38739 0.74761 0
M  V30 5230 C 512.651 1.38521 1.53686 0
M  V30 5231 C 513.066 -0.0235129 1.88785 0
M  V30 5232 O 512.423 -0.991662 1.53207 0
M  V30 5233 C 512.474 2.24641 2.83229 0
M  V30 5234 O 512.195 3.60026 2.49625 0
M  V30 5235 C 513.696 2.32669 3.77333 0
M  V30 5236 H 510.916 0.473589 0.475347 0
M  V30 5237 H 513.46 1.82395 0.924786 0
M  V30 5238 H 511.615 1.84213 3.40799 0
M  V30 5239 H 512.029 4.05435 3.3275 0
M  V30 5240 H 513.503 2.97201 4.65162 0
M  V30 5241 H 513.98 1.3421 4.18192 0
M  V30 5242 H 514.586 2.73512 3.25685 0
M  V30 5243 N 512.901 -0.976442 1.23707 0
M  V30 5244 C 513.811 -2.10359 1.03856 0
M  V30 5245 C 514.827 -1.73991 -0.0180919 0
M  V30 5246 O 516.003 -2.0061 0.178211 0
M  V30 5247 C 513.068 -3.40809 0.636387 0
M  V30 5248 C 512.129 -3.91179 1.76854 0
M  V30 5249 C 511.362 -5.15404 1.38546 0
M  V30 5250 O 511.585 -5.69754 0.27142 0
M  V30 5251 O 510.519 -5.5994 2.20797 0
M  V30 5252 H 514.345 -2.29997 1.98331 0
M  V30 5253 H 511.93 -1.08742 1.02448 0
M  V30 5254 H 513.812 -4.19269 0.423223 0
M  V30 5255 H 512.487 -3.22493 -0.279322 0
M  V30 5256 H 511.394 -3.13819 2.03638 0
M  V30 5257 H 512.727 -4.13958 2.6627 0
M  V30 5258 N 514.379 -1.04941 -1.1758 0
M  V30 5259 C 515.627 -0.756492 -1.87408 0
M  V30 5260 C 515.948 0.718478 -1.81281 0
M  V30 5261 O 515.218 1.519 -1.23706 0
M  V30 5262 H 513.798 -0.276841 -0.693807 0
M  V30 5263 H 516.46 -1.32803 -1.42652 0
M  V30 5264 H 515.556 -1.06918 -2.93215 0
M  V30 5265 N 515.857 1.33968 -0.830081 0
M  V30 5266 C 517.104 1.98063 -0.421566 0
M  V30 5267 C 517.432 1.65787 1.0171 0
M  V30 5268 O 516.687 0.925348 1.72441 0
M  V30 5269 C 516.986 3.52679 -0.57898 0
M  V30 5270 C 516.652 4.04884 -1.98443 0
M  V30 5271 C 515.314 4.18852 -2.36888 0
M  V30 5272 C 517.666 4.32879 -2.90285 0
M  V30 5273 C 514.994 4.58145 -3.66497 0
M  V30 5274 C 517.346 4.7362 -4.19364 0
M  V30 5275 C 516.01 4.85794 -4.57778 0
M  V30 5276 H 515.28 0.724765 -0.154262 0
M  V30 5277 H 517.927 1.59792 -1.05541 0
M  V30 5278 H 516.232 3.91556 0.138219 0
M  V30 5279 H 517.929 4.00261 -0.243317 0
M  V30 5280 H 514.519 3.9448 -1.67581 0
M  V30 5281 H 518.703 4.21619 -2.61823 0
M  V30 5282 H 513.959 4.65762 -3.96075 0
M  V30 5283 H 518.133 4.9424 -4.90612 0
M  V30 5284 H 515.76 5.15998 -5.58256 0
M  V30 5285 N 517.335 0.585699 1.46312 0
M  V30 5286 C 518.581 0.0725284 2.0267 0
M  V30 5287 C 518.914 -1.28523 1.45586 0
M  V30 5288 O 518.189 -1.84283 0.622101 0
M  V30 5289 C 518.472 0.0099788 3.60099 0
M  V30 5290 C 518.325 1.39685 4.27561 0
M  V30 5291 C 519.644 -0.689117 4.34671 0
M  V30 5292 H 516.763 0.0278307 0.736474 0
M  V30 5293 H 519.405 0.753472 1.74421 0
M  V30 5294 H 517.555 -0.56992 3.84297 0
M  V30 5295 H 519.227 2.02215 4.14617 0
M  V30 5296 H 517.47 1.96374 3.86807 0
M  V30 5297 H 518.141 1.30553 5.36339 0
M  V30 5298 H 520.617 -0.196446 4.15636 0
M  V30 5299 H 519.493 -0.701921 5.44393 0
M  V30 5300 H 519.754 -1.75101 4.05946 0
M  V30 5301 N 518.813 -1.54241 0.323641 0
M  V30 5302 C 520.038 -2.05452 -0.283605 0
M  V30 5303 C 520.463 -1.19823 -1.44997 0
M  V30 5304 O 519.821 -0.207358 -1.8011 0
M  V30 5305 C 519.869 -3.53823 -0.695795 0
M  V30 5306 O 518.973 -3.71134 -1.79815 0
M  V30 5307 H 518.314 -0.662024 -0.0511917 0
M  V30 5308 H 520.844 -1.99079 0.472073 0
M  V30 5309 H 520.854 -3.96094 -0.978434 0
M  V30 5310 H 519.529 -4.15602 0.157287 0
M  V30 5311 H 518.106 -3.40768 -1.51431 0
M  V30 5312 N 520.291 -0.0518155 -1.57515 0
M  V30 5313 C 521.201 0.937539 -2.15052 0
M  V30 5314 C 522.217 1.34121 -1.10849 0
M  V30 5315 O 523.393 1.418 -1.4302 0
M  V30 5316 C 520.458 2.19379 -2.68466 0
M  V30 5317 C 519.519 1.84841 -3.87469 0
M  V30 5318 C 518.752 3.04477 -4.38326 0
M  V30 5319 O 518.975 4.17868 -3.88256 0
M  V30 5320 O 517.909 2.85453 -5.29906 0
M  V30 5321 H 521.735 0.478201 -2.99912 0
M  V30 5322 H 519.32 0.17012 -1.48428 0
M  V30 5323 H 521.202 2.93084 -3.02787 0
M  V30 5324 H 519.877 2.64449 -1.86677 0
M  V30 5325 H 518.784 1.08449 -3.58036 0
M  V30 5326 H 520.117 1.44569 -4.7049 0
M  V30 5327 N 521.769 1.56035 0.221574 0
M  V30 5328 C 522.702 1.87427 1.30178 0
M  V30 5329 C 523.68 0.731658 1.45209 0
M  V30 5330 O 524.864 0.980016 1.61022 0
M  V30 5331 C 521.991 2.08127 2.67209 0
M  V30 5332 C 521.037 3.30813 2.69194 0
M  V30 5333 S 521.87 4.86738 2.23263 0
M  V30 5334 C 523.026 5.10474 3.62171 0
M  V30 5335 H 523.259 2.78756 1.03355 0
M  V30 5336 H 520.792 1.48469 0.423813 0
M  V30 5337 H 522.75 2.20736 3.46101 0
M  V30 5338 H 521.411 1.17595 2.91256 0
M  V30 5339 H 520.604 3.42341 3.6989 0
M  V30 5340 H 520.206 3.1706 1.98366 0
M  V30 5341 H 522.498 4.9937 4.5786 0
M  V30 5342 H 523.441 6.12359 3.55558 0
M  V30 5343 H 523.849 4.38208 3.55857 0
M  V30 5344 N 523.247 -0.488276 1.49845 0
M  V30 5345 C 524.524 -1.24959 1.50481 0
M  V30 5346 C 524.904 -2.09735 0.239698 0
M  V30 5347 O 524.252 -2.14865 -0.777524 0
M  V30 5348 C 524.462 -2.0954 2.79095 0
M  V30 5349 C 525.81 -2.68305 3.29086 0
M  V30 5350 O 526.834 -2.19797 2.80299 0
M  V30 5351 O 525.693 -3.56643 4.14087 0
M  V30 5352 H 522.787 -0.566133 0.602845 0
M  V30 5353 H 525.333 -0.501504 1.6212 0
M  V30 5354 H 524.105 -1.46958 3.62656 0
M  V30 5355 H 523.728 -2.91517 2.70377 0
M  V30 5356 N 524.725 -1.39134 -0.740242 0
M  V30 5357 C 525.953 -1.39334 -1.5295 0
M  V30 5358 C 526.368 0.0135008 -1.88795 0
M  V30 5359 O 525.725 0.983524 -1.5373 0
M  V30 5360 C 525.776 -2.2614 -2.82034 0
M  V30 5361 O 525.497 -3.61345 -2.47712 0
M  V30 5362 C 526.998 -2.34666 -3.76094 0
M  V30 5363 H 524.218 -0.476103 -0.472828 0
M  V30 5364 H 526.762 -1.82883 -0.9151 0
M  V30 5365 H 524.917 -1.86018 -3.39818 0
M  V30 5366 H 525.331 -4.07194 -3.30595 0
M  V30 5367 H 526.805 -2.99663 -4.63579 0
M  V30 5368 H 527.282 -1.36426 -4.17474 0
M  V30 5369 H 527.888 -2.75236 -3.2423 0
M  V30 5370 N 526.204 0.969867 -1.24223 0
M  V30 5371 C 527.62 1.23809 -1.00716 0
M  V30 5372 C 527.82 1.99469 0.285358 0
M  V30 5373 O 526.876 2.31764 1.00207 0
M  V30 5374 C 528.189 2.02734 -2.2208 0
M  V30 5375 C 529.737 2.15834 -2.26681 0
M  V30 5376 C 530.212 2.98154 -3.47661 0
M  V30 5377 N 531.703 3.05737 -3.47964 0
M  V30 5378 C 532.438 3.69785 -4.38231 0
M  V30 5379 N 531.934 4.35569 -5.3875 0
M  V30 5380 N 533.727 3.66775 -4.25949 0
M  V30 5381 H 525.878 0.463294 -2.07286 0
M  V30 5382 H 528.141 0.267348 -0.909521 0
M  V30 5383 H 527.847 1.54524 -3.15935 0
M  V30 5384 H 527.721 3.0347 -2.24021 0
M  V30 5385 H 530.108 2.63248 -1.33359 0
M  V30 5386 H 530.189 1.14453 -2.28767 0
M  V30 5387 H 529.833 2.51435 -4.41297 0
M  V30 5388 H 529.763 3.99729 -3.42818 0
M  V30 5389 H 532.254 2.58941 -2.75242 0
M  V30 5390 H 532.567 4.82251 -6.03866 0
M  V30 5391 H 530.912 4.34244 -5.42639 0
M  V30 5392 H 534.103 3.14558 -3.46657 0
M  V30 5393 H 534.276 4.16407 -4.96497 0
M  V30 5394 N 527.682 1.05563 1.17022 0
M  V30 5395 C 528.645 0.664098 2.19368 0
M  V30 5396 C 529.645 -0.286358 1.5823 0
M  V30 5397 O 530.835 -0.069728 1.7406 0
M  V30 5398 C 527.967 -0.0239932 3.40892 0
M  V30 5399 H 529.16 1.57 2.55521 0
M  V30 5400 H 526.713 0.849964 1.31169 0
M  V30 5401 H 527.448 -0.942988 3.10287 0
M  V30 5402 H 527.233 0.659351 3.86516 0
M  V30 5403 H 528.723 -0.283909 4.16634 0
M  V30 5404 N 529.16 -1.33526 0.837174 0
M  V30 5405 C 530.09 -2.31764 0.284206 0
M  V30 5406 C 531.071 -1.58896 -0.607142 0
M  V30 5407 O 532.256 -1.86798 -0.531047 0
M  V30 5408 C 529.386 -3.43029 -0.542962 0
M  V30 5409 C 528.34 -4.27255 0.252451 0
M  V30 5410 C 527.666 -5.3012 -0.69836 0
M  V30 5411 C 528.966 -5.01229 1.46858 0
M  V30 5412 H 530.66 -2.78262 1.10502 0
M  V30 5413 H 528.206 -1.3378 0.532812 0
M  V30 5414 H 530.159 -4.1078 -0.940096 0
M  V30 5415 H 528.883 -2.95216 -1.39697 0
M  V30 5416 H 527.542 -3.61127 0.631124 0
M  V30 5417 H 527.19 -4.78564 -1.54872 0
M  V30 5418 H 526.89 -5.87353 -0.170274 0
M  V30 5419 H 528.414 -6.00737 -1.09305 0
M  V30 5420 H 529.828 -5.61756 1.14469 0
M  V30 5421 H 528.225 -5.68104 1.93333 0
M  V30 5422 H 529.295 -4.301 2.23924 0
M  V30 5423 N 530.638 -0.59345 -1.46 0
M  V30 5424 C 531.886 -0.082988 -2.0193 0
M  V30 5425 C 532.207 1.28569 -1.46612 0
M  V30 5426 O 531.477 1.84629 -0.654909 0
M  V30 5427 H 530.057 -0.0276882 -0.746487 0
M  V30 5428 H 532.719 -0.771657 -1.78973 0
M  V30 5429 H 531.815 -0.022079 -3.12092 0
M  V30 5430 N 532.116 1.54067 -0.331816 0
M  V30 5431 C 533.049 2.20886 0.573127 0
M  V30 5432 C 534.027 1.18876 1.10938 0
M  V30 5433 O 535.211 1.47649 1.17184 0
M  V30 5434 C 532.338 2.87706 1.78726 0
M  V30 5435 C 531.384 4.03505 1.38152 0
M  V30 5436 S 532.217 5.33919 0.41123 0
M  V30 5437 C 533.373 6.04236 1.63246 0
M  V30 5438 H 533.606 2.97299 0.00555737 0
M  V30 5439 H 531.139 1.53964 -0.115893 0
M  V30 5440 H 533.097 3.26825 2.48386 0
M  V30 5441 H 531.758 2.1108 2.32603 0
M  V30 5442 H 530.951 4.49152 2.28645 0
M  V30 5443 H 530.553 3.66102 0.764524 0
M  V30 5444 H 532.845 6.26917 2.56869 0
M  V30 5445 H 533.788 6.97546 1.218 0
M  V30 5446 H 534.196 5.34247 1.82318 0
M  V30 5447 N 533.594 0.0601682 1.57485 0
M  V30 5448 C 534.557 -0.896373 2.10945 0
M  V30 5449 C 535.557 -1.23402 1.03095 0
M  V30 5450 O 536.747 -1.16921 1.29132 0
M  V30 5451 C 533.879 -2.20346 2.60116 0
M  V30 5452 H 535.072 -0.432778 2.96761 0
M  V30 5453 H 532.625 -0.188372 1.55161 0
M  V30 5454 H 533.36 -2.71268 1.7772 0
M  V30 5455 H 533.145 -1.9714 3.38937 0
M  V30 5456 H 534.635 -2.88846 3.01592 0
M  V30 5457 N 535.072 -1.5615 -0.213296 0
M  V30 5458 C 536.318 -1.79812 -0.937849 0
M  V30 5459 C 536.651 -0.631201 -1.83656 0
M  V30 5460 O 535.926 0.369165 -1.90964 0
M  V30 5461 C 536.209 -3.13613 -1.76972 0
M  V30 5462 C 536.062 -4.40766 -0.89695 0
M  V30 5463 C 537.381 -3.43931 -2.7459 0
M  V30 5464 H 534.5 -0.654138 -0.339518 0
M  V30 5465 H 537.142 -1.88877 -0.20623 0
M  V30 5466 H 535.292 -3.06015 -2.39347 0
M  V30 5467 H 536.964 -4.60392 -0.289306 0
M  V30 5468 H 535.207 -4.33326 -0.202756 0
M  V30 5469 H 535.878 -5.30843 -1.51358 0
M  V30 5470 H 538.354 -3.5171 -2.22349 0
M  V30 5471 H 537.23 -4.38706 -3.29891 0
M  V30 5472 H 537.491 -2.6651 -3.52739 0
M  V30 5473 N 536.55 0.480323 -1.50102 0
M  V30 5474 C 537.796 1.23489 -1.60867 0
M  V30 5475 C 538.129 1.91809 -0.303827 0
M  V30 5476 O 537.404 1.81694 0.694092 0
M  V30 5477 C 537.687 2.28578 -2.78252 0
M  V30 5478 C 537.54 1.64624 -4.18592 0
M  V30 5479 C 538.859 3.2997 -2.91218 0
M  V30 5480 H 535.978 0.447605 -0.585507 0
M  V30 5481 H 538.62 0.530005 -1.82458 0
M  V30 5482 H 536.77 2.88697 -2.59974 0
M  V30 5483 H 538.442 1.08173 -4.48438 0
M  V30 5484 H 536.685 0.949645 -4.23278 0
M  V30 5485 H 537.356 2.40946 -4.96638 0
M  V30 5486 H 539.832 2.79864 -3.07921 0
M  V30 5487 H 538.708 4.00839 -3.74993 0
M  V30 5488 H 538.969 3.93541 -2.0144 0
M  V30 5489 N 538.028 1.39524 0.732853 0
M  V30 5490 C 538.991 1.38189 1.82857 0
M  V30 5491 C 539.991 0.278624 1.58368 0
M  V30 5492 O 541.181 0.536639 1.65728 0
M  V30 5493 C 538.313 1.15661 3.2068 0
M  V30 5494 H 539.506 2.35692 1.85444 0
M  V30 5495 H 537.059 1.2512 0.936728 0
M  V30 5496 H 537.794 0.188482 3.23752 0
M  V30 5497 H 537.579 1.95559 3.39852 0
M  V30 5498 H 539.069 1.17472 4.00737 0
M  V30 5499 N 539.506 -0.963266 1.24736 0
M  V30 5500 C 540.439 -2.05758 0.986852 0
M  V30 5501 C 541.417 -1.62398 -0.0809272 0
M  V30 5502 O 542.601 -1.88414 0.0569347 0
M  V30 5503 C 539.728 -3.35135 0.490095 0
M  V30 5504 C 538.774 -3.97451 1.54709 0
M  V30 5505 S 539.607 -4.34519 3.12976 0
M  V30 5506 C 540.763 -5.67026 2.65014 0
M  V30 5507 H 540.996 -2.27539 1.91346 0
M  V30 5508 H 538.529 -1.10176 1.08169 0
M  V30 5509 H 540.487 -4.09962 0.21012 0
M  V30 5510 H 539.148 -3.11335 -0.415873 0
M  V30 5511 H 538.341 -4.90704 1.15003 0
M  V30 5512 H 537.943 -3.29071 1.77731 0
M  V30 5513 H 540.235 -6.44748 2.08102 0
M  V30 5514 H 541.178 -6.11594 3.56873 0
M  V30 5515 H 541.586 -5.25847 2.05294 0
M  V30 5516 N 540.985 -1.06182 -1.16461 0
M  V30 5517 C 542.233 -0.776326 -1.86595 0
M  V30 5518 C 542.554 0.69921 -1.82033 0
M  V30 5519 O 541.824 1.50579 -1.2531 0
M  V30 5520 H 540.404 -0.284184 -0.690832 0
M  V30 5521 H 543.066 -1.34308 -1.41235 0
M  V30 5522 H 542.162 -1.10022 -2.92064 0
M  V30 5523 N 542.463 1.3308 -0.844243 0
M  V30 5524 C 543.711 1.97215 -0.441676 0
M  V30 5525 C 544.032 1.67185 1.0037 0
M  V30 5526 O 543.302 0.973588 1.69994 0
M  V30 5527 H 541.882 0.72959 -0.160335 0
M  V30 5528 H 544.544 1.62348 -1.07838 0
M  V30 5529 H 543.64 3.06698 -0.57815 0
M  V30 5530 N 543.941 0.601185 1.45683 0
M  V30 5531 C 545.189 0.0936957 2.01883 0
M  V30 5532 C 545.51 -1.2779 1.47291 0
M  V30 5533 O 544.78 -1.84279 0.664691 0
M  V30 5534 H 543.36 0.0316466 0.746329 0
M  V30 5535 H 546.022 0.781137 1.78562 0
M  V30 5536 H 545.118 0.0386297 3.12076 0
M  V30 5537 N 545.419 -1.53889 0.339982 0
M  V30 5538 C 546.835 -1.59595 -0.0120752 0
M  V30 5539 C 547.035 -1.35605 -1.49042 0
M  V30 5540 O 546.091 -1.14856 -2.24865 0
M  V30 5541 C 547.404 -2.9774 0.420898 0
M  V30 5542 C 548.952 -3.1077 0.37294 0
M  V30 5543 C 549.427 -4.51286 0.781327 0
M  V30 5544 N 550.918 -4.57325 0.735374 0
M  V30 5545 C 551.653 -5.64194 1.02336 0
M  V30 5546 N 551.149 -6.7893 1.37933 0
M  V30 5547 N 552.942 -5.54051 0.947838 0
M  V30 5548 H 545.093 -1.67738 1.30299 0
M  V30 5549 H 547.356 -0.785385 0.530918 0
M  V30 5550 H 547.062 -3.20349 1.45152 0
M  V30 5551 H 546.936 -3.76639 -0.205721 0
M  V30 5552 H 549.323 -2.87886 -0.648505 0
M  V30 5553 H 549.404 -2.33939 1.03472 0
M  V30 5554 H 549.048 -4.74905 1.80077 0
M  V30 5555 H 548.978 -5.26511 0.0970679 0
M  V30 5556 H 551.469 -3.74931 0.472773 0
M  V30 5557 H 551.782 -7.56392 1.58402 0
M  V30 5558 H 550.127 -6.80386 1.41774 0
M  V30 5559 H 553.318 -4.63293 0.669115 0
M  V30 5560 H 553.491 -6.37246 1.17563 0
M  V30 5561 N 546.897 -0.0685191 -1.57451 0
M  V30 5562 C 548.313 0.288101 -1.56978 0
M  V30 5563 C 548.513 1.70262 -1.07765 0
M  V30 5564 O 547.569 2.4135 -0.742054 0
M  V30 5565 C 548.882 0.100745 -3.00531 0
M  V30 5566 C 550.43 0.170531 -3.12535 0
M  V30 5567 C 550.905 0.0114944 -4.57999 0
M  V30 5568 N 552.396 0.0672065 -4.63151 0
M  V30 5569 C 553.131 -0.0314813 -5.73391 0
M  V30 5570 N 552.627 -0.183503 -6.92557 0
M  V30 5571 N 554.42 0.0253489 -5.62094 0
M  V30 5572 H 546.571 -0.993026 -1.87757 0
M  V30 5573 H 548.834 -0.386981 -0.865419 0
M  V30 5574 H 548.54 -0.875197 -3.40636 0
M  V30 5575 H 548.414 0.854457 -3.67395 0
M  V30 5576 H 550.801 1.13696 -2.72318 0
M  V30 5577 H 550.882 -0.614229 -2.48316 0
M  V30 5578 H 550.526 -0.951684 -4.98904 0
M  V30 5579 H 550.456 0.815617 -5.20245 0
M  V30 5580 H 552.947 0.183246 -3.77455 0
M  V30 5581 H 553.26 -0.251041 -7.72392 0
M  V30 5582 H 551.605 -0.218822 -6.94655 0
M  V30 5583 H 554.796 0.142794 -4.67882 0
M  V30 5584 H 554.969 -0.0550166 -6.47977 0
M  V30 5585 N 548.375 1.56261 0.205012 0
M  V30 5586 C 549.307 1.90266 1.27795 0
M  V30 5587 C 550.32 0.792397 1.42214 0
M  V30 5588 O 551.509 1.07077 1.42817 0
M  V30 5589 C 548.609 2.11074 2.65143 0
M  V30 5590 C 547.782 3.42176 2.7246 0
M  V30 5591 C 546.841 3.52216 3.90936 0
M  V30 5592 O 545.867 4.25119 3.78501 0
M  V30 5593 N 547.069 2.84573 5.05963 0
M  V30 5594 H 549.834 2.82896 0.989434 0
M  V30 5595 H 547.395 1.57008 0.394981 0
M  V30 5596 H 549.387 2.15089 3.4281 0
M  V30 5597 H 547.957 1.2499 2.86524 0
M  V30 5598 H 547.177 3.50116 1.81142 0
M  V30 5599 H 548.465 4.28509 2.74331 0
M  V30 5600 H 547.863 2.25152 5.18963 0
M  V30 5601 H 546.42 2.94228 5.81613 0
M  V30 5602 N 549.853 -0.472356 1.50355 0
M  V30 5603 C 550.816 -1.5529 1.68576 0
M  V30 5604 C 551.816 -1.50863 0.556511 0
M  V30 5605 O 553.006 -1.53505 0.823516 0
M  V30 5606 C 550.138 -2.94921 1.70981 0
M  V30 5607 H 551.331 -1.40451 2.64978 0
M  V30 5608 H 548.884 -0.698645 1.39816 0
M  V30 5609 H 549.619 -3.15204 0.762675 0
M  V30 5610 H 549.404 -2.99541 2.53017 0
M  V30 5611 H 550.894 -3.73372 1.87037 0
M  V30 5612 N 551.331 -1.39911 -0.725443 0
M  V30 5613 C 552.556 -1.41137 -1.5197 0
M  V30 5614 C 552.981 -0.010262 -1.88097 0
M  V30 5615 O 552.339 0.979184 -1.52583 0
M  V30 5616 C 552.387 -2.2994 -2.77777 0
M  V30 5617 O 551.491 -1.73586 -3.74088 0
M  V30 5618 H 550.832 -0.480219 -0.458569 0
M  V30 5619 H 553.362 -1.84023 -0.894249 0
M  V30 5620 H 553.372 -2.44785 -3.26411 0
M  V30 5621 H 552.047 -3.31759 -2.50816 0
M  V30 5622 H 550.624 -1.68035 -3.32894 0
M  V30 5623 N 552.809 0.956637 -1.25245 0
M  V30 5624 C 554.086 1.67716 -1.00651 0
M  V30 5625 C 554.466 2.0585 0.467866 0
M  V30 5626 O 553.814 1.77029 1.44475 0
M  V30 5627 C 554.024 2.90093 -1.94028 0
M  V30 5628 C 555.372 3.6209 -2.21756 0
M  V30 5629 O 556.396 3.00171 -1.9177 0
M  V30 5630 O 555.255 4.7358 -2.72735 0
M  V30 5631 H 552.349 0.733731 -0.381533 0
M  V30 5632 H 554.895 1.00974 -1.3639 0
M  V30 5633 H 553.667 2.58689 -2.93591 0
M  V30 5634 H 553.29 3.64566 -1.58674 0
M  V30 5635 N 554.287 1.06798 1.15896 0
M  V30 5636 C 555.515 0.808694 1.90441 0
M  V30 5637 C 555.93 -0.637506 1.77711 0
M  V30 5638 O 555.287 -1.43684 1.12522 0
M  V30 5639 C 555.338 1.20068 3.40978 0
M  V30 5640 O 555.059 2.59013 3.53333 0
M  V30 5641 C 556.56 0.96987 4.3256 0
M  V30 5642 H 553.78 0.292809 0.603742 0
M  V30 5643 H 556.324 1.42296 1.46874 0
M  V30 5644 H 554.479 0.630842 3.82229 0
M  V30 5645 H 554.893 2.7485 4.46719 0
M  V30 5646 H 556.367 1.29371 5.36626 0
M  V30 5647 H 556.844 -0.0941209 4.39099 0
M  V30 5648 H 557.45 1.52433 3.97044 0
M  V30 5649 N 555.766 -1.3263 0.851289 0
M  V30 5650 C 557.015 -1.96633 0.449267 0
M  V30 5651 C 557.328 -1.68131 -0.999562 0
M  V30 5652 O 558.534 -2.25845 -1.50685 0
M  V30 5653 C 556.99 -3.51946 0.752446 0
M  V30 5654 C 556.598 -3.89311 2.21678 0
M  V30 5655 C 558.342 -4.22437 0.417983 0
M  V30 5656 C 556.249 -5.37655 2.46336 0
M  V30 5657 H 555.179 -0.735888 0.164269 0
M  V30 5658 H 557.83 -1.51073 1.0416 0
M  V30 5659 H 556.212 -3.95899 0.0895858 0
M  V30 5660 H 557.386 -3.56378 2.92115 0
M  V30 5661 H 555.701 -3.31836 2.51543 0
M  V30 5662 H 558.298 -5.31549 0.579674 0
M  V30 5663 H 558.641 -4.11349 -0.640115 0
M  V30 5664 H 559.174 -3.84057 1.03659 0
M  V30 5665 H 555.913 -5.5376 3.50757 0
M  V30 5666 H 555.433 -5.72005 1.80473 0
M  V30 5667 H 557.112 -6.04695 2.30115 0
M  V30 5668 N 557.244 -0.608902 -1.45362 0
M  V30 5669 C 558.521 -0.0365378 -1.95566 0
M  V30 5670 C 558.901 1.43169 -1.55131 0
M  V30 5671 O 558.249 2.1349 -0.814513 0
M  V30 5672 C 558.459 -0.236026 -3.48201 0
M  V30 5673 C 559.807 -0.117518 -4.24437 0
M  V30 5674 O 560.831 -0.166217 -3.55812 0
M  V30 5675 O 559.69 -0.00372127 -5.465 0
M  V30 5676 H 556.784 0.0349874 -0.82626 0
M  V30 5677 H 559.33 -0.679055 -1.55521 0
M  V30 5678 H 558.102 -1.25569 -3.70605 0
M  V30 5679 H 557.725 0.441691 -3.95139 0
M  V30 5680 N 558.722 1.53707 -0.348139 0
M  V30 5681 C 559.952 2.05108 0.247864 0
M  V30 5682 C 560.36 1.22252 1.44399 0
M  V30 5683 O 559.703 0.251853 1.81965 0
M  V30 5684 C 559.765 3.52171 0.722187 0
M  V30 5685 C 559.429 4.5562 -0.354902 0
M  V30 5686 C 560.426 5.05883 -1.19911 0
M  V30 5687 C 558.111 4.99703 -0.510145 0
M  V30 5688 C 560.105 5.98814 -2.18406 0
M  V30 5689 C 557.792 5.92443 -1.49848 0
M  V30 5690 C 558.79 6.41887 -2.33389 0
M  V30 5691 O 558.478 7.32802 -3.3054 0
M  V30 5692 H 558.21 0.674086 0.0508296 0
M  V30 5693 H 560.764 1.99229 -0.49968 0
M  V30 5694 H 558.994 3.55529 1.52105 0
M  V30 5695 H 560.683 3.8652 1.23925 0
M  V30 5696 H 561.449 4.72586 -1.09028 0
M  V30 5697 H 557.328 4.60816 0.130274 0
M  V30 5698 H 560.872 6.3733 -2.83649 0
M  V30 5699 H 556.769 6.25155 -1.60786 0
M  V30 5700 H 557.537 7.50749 -3.26064 0
M  V30 5701 N 560.2 0.0768682 1.57412 0
M  V30 5702 C 561.425 -0.603404 1.98428 0
M  V30 5703 C 561.85 -1.62047 0.955108 0
M  V30 5704 O 561.208 -1.81129 -0.0786778 0
M  V30 5705 C 561.256 -1.24396 3.38464 0
M  V30 5706 O 560.36 -2.35982 3.3821 0
M  V30 5707 H 559.701 -0.154741 0.645718 0
M  V30 5708 H 562.231 0.152885 2.04028 0
M  V30 5709 H 562.241 -1.5896 3.7576 0
M  V30 5710 H 560.916 -0.498735 4.12899 0
M  V30 5711 H 559.493 -2.03173 3.1269 0
M  V30 5712 N 561.678 -1.56367 -0.196722 0
M  V30 5713 C 562.924 -1.80796 -0.918725 0
M  V30 5714 C 563.257 -0.650645 -1.82976 0
M  V30 5715 O 562.532 0.348889 -1.91345 0
M  V30 5716 C 562.815 -3.15472 -1.73636 0
M  V30 5717 C 562.668 -4.41693 -0.85015 0
M  V30 5718 C 563.987 -3.46824 -2.70927 0
M  V30 5719 H 561.106 -0.657702 -0.332561 0
M  V30 5720 H 563.748 -1.89086 -0.186186 0
M  V30 5721 H 561.898 -3.08536 -2.36088 0
M  V30 5722 H 563.57 -4.60673 -0.240459 0
M  V30 5723 H 561.813 -4.33517 -0.156785 0
M  V30 5724 H 562.484 -5.32419 -1.45719 0
M  V30 5725 H 564.96 -3.54049 -2.18607 0
M  V30 5726 H 563.836 -4.4218 -3.25219 0
M  V30 5727 H 564.097 -2.70236 -3.49893 0
M  V30 5728 N 563.156 0.464375 -1.50603 0
M  V30 5729 C 564.404 1.21356 -1.61608 0
M  V30 5730 C 564.725 1.92329 -0.321643 0
M  V30 5731 O 563.995 1.84403 0.661232 0
M  V30 5732 H 562.575 0.45094 -0.595535 0
M  V30 5733 H 565.237 0.535046 -1.87412 0
M  V30 5734 H 564.333 1.95783 -2.43054 0
M  V30 5735 N 564.634 1.40294 0.718013 0
M  V30 5736 C 565.881 1.3844 1.47786 0
M  V30 5737 C 566.209 -0.0140838 1.94495 0
M  V30 5738 O 565.464 -0.998165 1.68331 0
M  V30 5739 C 565.763 2.31814 2.72024 0
M  V30 5740 C 565.429 3.79117 2.44093 0
M  V30 5741 C 564.091 4.19249 2.36185 0
M  V30 5742 C 566.443 4.72212 2.20602 0
M  V30 5743 C 563.771 5.50516 2.02851 0
M  V30 5744 C 566.123 6.03775 1.88781 0
M  V30 5745 C 564.787 6.42953 1.79354 0
M  V30 5746 H 564.057 0.506588 0.540786 0
M  V30 5747 H 566.704 1.72929 0.822663 0
M  V30 5748 H 565.009 1.90501 3.42369 0
M  V30 5749 H 566.706 2.27664 3.30106 0
M  V30 5750 H 563.296 3.47318 2.51133 0
M  V30 5751 H 567.48 4.42026 2.25669 0
M  V30 5752 H 562.736 5.79776 1.94088 0
M  V30 5753 H 566.91 6.75428 1.69617 0
M  V30 5754 H 564.537 7.44584 1.53291 0
M  V30 5755 N 566.112 -0.949982 1.2575 0
M  V30 5756 C 567.34 -1.72972 1.13527 0
M  V30 5757 C 567.755 -1.8623 -0.310453 0
M  V30 5758 O 567.112 -1.36336 -1.2132 0
M  V30 5759 C 567.163 -3.14108 1.78936 0
M  V30 5760 O 566.884 -3.01493 3.17858 0
M  V30 5761 C 568.385 -4.08338 1.72554 0
M  V30 5762 H 565.605 -0.541864 0.395758 0
M  V30 5763 H 568.149 -1.19151 1.66202 0
M  V30 5764 H 566.304 -3.64858 1.30221 0
M  V30 5765 H 566.718 -3.90559 3.50092 0
M  V30 5766 H 568.192 -5.04963 2.22973 0
M  V30 5767 H 568.669 -4.33742 0.690251 0
M  V30 5768 H 569.275 -3.63506 2.2078 0
M  V30 5769 N 567.59 -1.07411 -1.15328 0
M  V30 5770 C 568.867 -0.710732 -1.82231 0
M  V30 5771 C 569.247 0.806732 -1.95077 0
M  V30 5772 O 568.595 1.72139 -1.50268 0
M  V30 5773 C 568.805 -1.42586 -3.18544 0
M  V30 5774 C 570.153 -1.57836 -3.94174 0
M  V30 5775 O 571.177 -1.38669 -3.281 0
M  V30 5776 O 570.036 -1.8938 -5.12638 0
M  V30 5777 H 567.13 -0.25297 -0.78736 0
M  V30 5778 H 569.676 -1.17508 -1.22434 0
M  V30 5779 H 568.448 -2.46008 -3.04296 0
M  V30 5780 H 568.071 -0.952332 -3.86026 0
M  V30 5781 N 569.068 1.32177 -0.85831 0
M  V30 5782 C 570.001 2.26823 -0.25035 0
M  V30 5783 C 570.979 1.50571 0.61378 0
M  V30 5784 O 572.163 1.79682 0.569777 0
M  V30 5785 C 569.29 3.32472 0.646556 0
M  V30 5786 C 568.336 4.26255 -0.144675 0
M  V30 5787 S 569.169 5.13608 -1.5155 0
M  V30 5788 C 570.325 6.22778 -0.624408 0
M  V30 5789 H 570.558 2.7804 -1.05267 0
M  V30 5790 H 568.091 1.39764 -0.656152 0
M  V30 5791 H 570.049 3.93817 1.15837 0
M  V30 5792 H 568.71 2.80031 1.42272 0
M  V30 5793 H 567.903 5.01114 0.538613 0
M  V30 5794 H 567.505 3.69346 -0.588198 0
M  V30 5795 H 569.797 6.77287 0.169846 0
M  V30 5796 H 570.74 6.95233 -1.34376 0
M  V30 5797 H 571.148 5.64156 -0.197128 0
M  V30 5798 N 570.547 0.616602 1.45037 0
M  V30 5799 C 571.51 -0.0871112 2.29034 0
M  V30 5800 C 572.51 -0.786414 1.40258 0
M  V30 5801 O 573.7 -0.633207 1.62284 0
M  V30 5802 C 570.832 -1.13369 3.21497 0
M  V30 5803 H 572.025 0.651497 2.92738 0
M  V30 5804 H 569.578 0.376058 1.51709 0
M  V30 5805 H 570.313 -1.90277 2.62612 0
M  V30 5806 H 570.098 -0.636358 3.86902 0
M  V30 5807 H 571.588 -1.62627 3.84633 0
M  V30 5808 N 572.025 -1.5352 0.356285 0
M  V30 5809 C 573.441 -1.59599 0.00485267 0
M  V30 5810 C 573.641 -1.37179 -1.47595 0
M  V30 5811 O 572.697 -1.17234 -2.23635 0
M  V30 5812 C 574.01 -2.97277 0.452454 0
M  V30 5813 C 575.558 -3.10357 0.405881 0
M  V30 5814 C 576.033 -4.50432 0.829148 0
M  V30 5815 N 577.524 -4.5652 0.783838 0
M  V30 5816 C 578.259 -5.63077 1.08315 0
M  V30 5817 N 577.755 -6.77429 1.45126 0
M  V30 5818 N 579.548 -5.53014 1.00655 0
M  V30 5819 H 571.699 -1.66346 1.32071 0
M  V30 5820 H 573.962 -0.77971 0.539218 0
M  V30 5821 H 573.668 -3.18792 1.48542 0
M  V30 5822 H 573.542 -3.76836 -0.165762 0
M  V30 5823 H 575.929 -2.88558 -0.617934 0
M  V30 5824 H 576.01 -2.32828 1.05947 0
M  V30 5825 H 575.654 -4.72968 1.85103 0
M  V30 5826 H 575.584 -5.26378 0.152906 0
M  V30 5827 H 578.075 -3.74408 0.512513 0
M  V30 5828 H 578.388 -7.54669 1.66415 0
M  V30 5829 H 576.733 -6.78844 1.48983 0
M  V30 5830 H 579.924 -4.62557 0.718215 0
M  V30 5831 H 580.097 -6.35964 1.24315 0
M  V30 5832 N 573.503 -0.0852151 -1.57369 0
M  V30 5833 C 574.433 0.874556 -2.16503 0
M  V30 5834 C 575.414 1.30111 -1.09568 0
M  V30 5835 O 576.599 1.36977 -1.37662 0
M  V30 5836 C 573.729 2.13731 -2.73745 0
M  V30 5837 C 572.683 1.84971 -3.85966 0
M  V30 5838 C 572.009 3.17991 -4.29867 0
M  V30 5839 C 573.309 1.14442 -5.09608 0
M  V30 5840 H 575.003 0.381899 -2.96954 0
M  V30 5841 H 572.549 0.18225 -1.42842 0
M  V30 5842 H 574.502 2.81302 -3.13763 0
M  V30 5843 H 573.226 2.65263 -1.90534 0
M  V30 5844 H 571.885 1.19801 -3.46473 0
M  V30 5845 H 571.533 3.6739 -3.4356 0
M  V30 5846 H 571.233 2.99534 -5.05523 0
M  V30 5847 H 572.757 3.86737 -4.72511 0
M  V30 5848 H 574.171 1.72105 -5.46857 0
M  V30 5849 H 572.568 1.06197 -5.90629 0
M  V30 5850 H 573.638 0.12559 -4.84737 0
M  V30 5851 N 574.981 1.5647 0.188427 0
M  V30 5852 C 576.229 1.80655 0.905986 0
M  V30 5853 C 576.55 0.659391 1.83513 0
M  V30 5854 O 575.82 -0.321868 1.93238 0
M  V30 5855 H 574.4 0.666391 0.337538 0
M  V30 5856 H 577.062 1.93949 0.192339 0
M  V30 5857 H 576.158 2.74066 1.49313 0
M  V30 5858 N 576.459 -0.456382 1.50847 0
M  V30 5859 C 577.736 -1.21739 1.53098 0
M  V30 5860 C 578.116 -2.09179 0.284132 0
M  V30 5861 O 577.464 -2.16466 -0.731773 0
M  V30 5862 C 577.674 -2.03573 2.83477 0
M  V30 5863 C 579.022 -2.61264 3.34703 0
M  V30 5864 O 580.046 -2.13802 2.84898 0
M  V30 5865 O 578.905 -3.47779 4.21559 0
M  V30 5866 H 575.999 -0.553219 0.614718 0
M  V30 5867 H 578.545 -0.467003 1.63148 0
M  V30 5868 H 577.317 -1.39232 3.65691 0
M  V30 5869 H 576.94 -2.85716 2.76499 0
M  V30 5870 N 577.937 -1.40673 -0.710563 0
M  V30 5871 C 578.869 -1.37256 -1.83558 0
M  V30 5872 C 579.882 -0.277133 -1.60424 0
M  V30 5873 O 581.071 -0.537831 -1.70205 0
M  V30 5874 C 578.171 -1.1144 -3.20054 0
M  V30 5875 C 577.344 -2.32734 -3.70342 0
M  V30 5876 C 576.403 -2.03002 -4.85465 0
M  V30 5877 O 575.429 -2.75912 -4.97857 0
M  V30 5878 N 576.631 -1.01105 -5.71627 0
M  V30 5879 H 579.396 -2.34215 -1.86985 0
M  V30 5880 H 576.957 -1.35091 -0.892301 0
M  V30 5881 H 578.949 -0.895265 -3.94673 0
M  V30 5882 H 577.519 -0.231307 -3.11743 0
M  V30 5883 H 576.739 -2.70446 -2.86798 0
M  V30 5884 H 578.027 -3.13584 -4.00678 0
M  V30 5885 H 577.425 -0.407303 -5.64232 0
M  V30 5886 H 575.982 -0.85182 -6.4621 0
M  V30 5887 N 579.415 0.9433 -1.26252 0
M  V30 5888 C 580.661 1.69175 -1.11837 0
M  V30 5889 C 580.994 1.91238 0.337891 0
M  V30 5890 O 580.269 1.49152 1.24836 0
M  V30 5891 C 580.552 3.06783 -1.88563 0
M  V30 5892 C 580.405 2.9206 -3.42083 0
M  V30 5893 C 581.724 4.06865 -1.67776 0
M  V30 5894 H 578.843 0.61399 -0.407658 0
M  V30 5895 H 581.485 1.09572 -1.55222 0
M  V30 5896 H 579.635 3.57663 -1.51689 0
M  V30 5897 H 581.307 2.48419 -3.88698 0
M  V30 5898 H 579.55 2.27731 -3.69217 0
M  V30 5899 H 580.221 3.89651 -3.90994 0
M  V30 5900 H 582.697 3.64939 -1.99897 0
M  V30 5901 H 581.573 5.01168 -2.23879 0
M  V30 5902 H 581.834 4.37705 -0.621816 0
M  V30 5903 N 580.893 1.08022 1.14757 0
M  V30 5904 C 582.17 0.720386 1.81851 0
M  V30 5905 C 582.55 -0.796375 1.95502 0
M  V30 5906 O 581.898 -1.71339 1.51179 0
M  V30 5907 C 582.108 1.44273 3.17783 0
M  V30 5908 C 583.456 1.59925 3.93331 0
M  V30 5909 O 584.48 1.40407 3.2736 0
M  V30 5910 O 583.339 1.92096 5.11626 0
M  V30 5911 H 580.433 0.257142 0.786007 0
M  V30 5912 H 582.979 1.18155 1.21809 0
M  V30 5913 H 581.751 2.47618 3.02987 0
M  V30 5914 H 581.374 0.97279 3.85516 0
M  V30 5915 N 582.371 -1.3172 0.865308 0
M  V30 5916 C 583.619 -1.96487 0.472995 0
M  V30 5917 C 583.94 -1.68761 -0.976975 0
M  V30 5918 O 583.21 -1.00051 -1.68424 0
M  V30 5919 H 581.79 -0.726947 0.171922 0
M  V30 5920 H 584.452 -1.60612 1.10407 0
M  V30 5921 H 583.548 -3.0574 0.62687 0
M  V30 5922 N 583.85 -0.624285 -1.44708 0
M  V30 5923 C 584.782 0.12305 -2.28869 0
M  V30 5924 C 585.795 0.81557 -1.40898 0
M  V30 5925 O 586.984 0.678162 -1.65116 0
M  V30 5926 C 584.084 1.19612 -3.1709 0
M  V30 5927 C 583.257 0.587452 -4.33437 0
M  V30 5928 C 582.316 1.55358 -5.02743 0
M  V30 5929 O 581.341 1.07338 -5.58988 0
M  V30 5930 N 582.543 2.88798 -5.03563 0
M  V30 5931 H 585.308 -0.599193 -2.93649 0
M  V30 5932 H 582.87 -0.464954 -1.5508 0
M  V30 5933 H 584.861 1.84261 -3.60319 0
M  V30 5934 H 583.432 1.82067 -2.54107 0
M  V30 5935 H 582.652 -0.237509 -3.93484 0
M  V30 5936 H 583.94 0.161326 -5.08544 0
M  V30 5937 H 583.338 3.30399 -4.59188 0
M  V30 5938 H 581.894 3.48826 -5.50603 0
M  V30 5939 N 585.328 1.53329 -0.364422 0
M  V30 5940 C 586.744 1.59594 -0.0133165 0
M  V30 5941 C 586.944 1.37959 1.46865 0
M  V30 5942 O 586 1.18418 2.2301 0
M  V30 5943 C 587.313 2.97032 -0.468213 0
M  V30 5944 C 588.861 3.10138 -0.422334 0
M  V30 5945 C 589.336 4.49986 -0.853024 0
M  V30 5946 N 590.827 4.56098 -0.808037 0
M  V30 5947 C 591.562 5.62495 -1.11299 0
M  V30 5948 N 591.058 6.7665 -1.48717 0
M  V30 5949 N 592.851 5.52473 -1.03586 0
M  V30 5950 H 585.002 1.65644 -1.32951 0
M  V30 5951 H 587.265 0.77684 -0.543345 0
M  V30 5952 H 586.971 3.18 -1.5023 0
M  V30 5953 H 586.845 3.76918 0.145775 0
M  V30 5954 H 589.232 2.88881 0.602622 0
M  V30 5955 H 589.313 2.32263 -1.0718 0
M  V30 5956 H 588.957 4.7198 -1.87609 0
M  V30 5957 H 588.887 5.26289 -0.180819 0
M  V30 5958 H 591.378 3.74131 -0.532361 0
M  V30 5959 H 591.691 7.53776 -1.70415 0
M  V30 5960 H 590.036 6.78044 -1.52581 0
M  V30 5961 H 593.227 4.6217 -0.742736 0
M  V30 5962 H 593.4 6.35295 -1.27686 0
M  V30 5963 N 586.806 0.0935595 1.57322 0
M  V30 5964 C 588.217 -0.435807 1.81542 0
M  V30 5965 C 588.568 -1.68263 1.00907 0
M  V30 5966 O 587.693 -2.15087 0.237983 0
M  V30 5967 C 588.288 -0.797436 3.29282 0
M  V30 5968 C 586.847 -1.27155 3.54272 0
M  V30 5969 C 585.994 -0.267455 2.76007 0
M  V30 5970 H 588.945 0.31902 1.5546 0
M  V30 5971 H 588.966 -1.6571 3.42521 0
M  V30 5972 H 588.478 0.110206 3.87943 0
M  V30 5973 H 586.579 -2.19696 3.00939 0
M  V30 5974 H 586.692 -1.23445 4.62923 0
M  V30 5975 H 585.056 -0.749282 2.43429 0
M  V30 5976 H 585.839 0.632839 3.37417 0
M  V30 5977 N 588.284 -1.56567 -0.180126 0
M  V30 5978 C 589.214 -1.98753 -1.22553 0
M  V30 5979 C 590.195 -0.86175 -1.46656 0
M  V30 5980 O 591.38 -1.12719 -1.58139 0
M  V30 5981 C 588.51 -2.33988 -2.56645 0
M  V30 5982 C 587.464 -3.49445 -2.47128 0
M  V30 5983 C 586.79 -3.70397 -3.8563 0
M  V30 5984 C 588.09 -4.83171 -1.98352 0
M  V30 5985 H 589.784 -2.86332 -0.874896 0
M  V30 5986 H 587.33 -1.37757 -0.419414 0
M  V30 5987 H 589.283 -2.62097 -3.29974 0
M  V30 5988 H 588.007 -1.43309 -2.93479 0
M  V30 5989 H 586.666 -3.2145 -1.76254 0
M  V30 5990 H 586.314 -2.77023 -4.19842 0
M  V30 5991 H 586.014 -4.48077 -3.80132 0
M  V30 5992 H 587.538 -4.00897 -4.60558 0
M  V30 5993 H 588.952 -5.10213 -2.61449 0
M  V30 5994 H 587.349 -5.64425 -2.03823 0
M  V30 5995 H 588.419 -4.75753 -0.937402 0
M  V30 5996 N 589.762 0.448376 -1.51087 0
M  V30 5997 C 590.725 1.52588 -1.71025 0
M  V30 5998 C 591.725 1.49958 -0.580442 0
M  V30 5999 O 592.915 1.52176 -0.847833 0
M  V30 6000 C 590.047 2.92163 -1.75652 0
M  V30 6001 H 591.24 1.36218 -2.67179 0
M  V30 6002 H 588.793 0.676313 -1.4091 0
M  V30 6003 H 589.528 3.13951 -0.812724 0
M  V30 6004 H 589.313 2.95478 -2.57751 0
M  V30 6005 H 590.803 3.70349 -1.92953 0
M  V30 6006 N 591.24 1.41047 0.703093 0
M  V30 6007 C 592.486 1.40207 1.46526 0
M  V30 6008 C 592.819 0.00847763 1.94198 0
M  V30 6009 O 592.094 -0.962437 1.69019 0
M  V30 6010 C 592.377 2.40238 2.6825 0
M  V30 6011 C 592.23 3.88674 2.26391 0
M  V30 6012 C 593.549 2.37627 3.70434 0
M  V30 6013 H 590.668 0.510594 0.531472 0
M  V30 6014 H 593.31 1.72271 0.801422 0
M  V30 6015 H 591.46 2.13026 3.24888 0
M  V30 6016 H 593.132 4.2676 1.75138 0
M  V30 6017 H 591.375 4.03903 1.58255 0
M  V30 6018 H 592.046 4.542 3.13698 0
M  V30 6019 H 594.522 2.61759 3.23452 0
M  V30 6020 H 593.398 3.09645 4.53223 0
M  V30 6021 H 593.659 1.39223 4.19606 0
M  V30 6022 N 592.718 -0.936591 1.26751 0
M  V30 6023 C 593.967 -1.67778 1.11953 0
M  V30 6024 C 594.28 -1.92694 -0.33589 0
M  V30 6025 O 595.486 -2.64682 -0.604618 0
M  V30 6026 C 593.942 -3.02138 1.95551 0
M  V30 6027 C 593.55 -2.84953 3.45696 0
M  V30 6028 C 595.294 -3.79917 1.89377 0
M  V30 6029 C 593.201 -4.14814 4.21525 0
M  V30 6030 H 592.131 -0.629275 0.415366 0
M  V30 6031 H 594.782 -1.04122 1.51099 0
M  V30 6032 H 593.164 -3.668 1.49243 0
M  V30 6033 H 594.338 -2.29112 3.99805 0
M  V30 6034 H 592.653 -2.20612 3.53156 0
M  V30 6035 H 595.25 -4.76134 2.43312 0
M  V30 6036 H 595.593 -4.07204 0.865464 0
M  V30 6037 H 596.126 -3.22037 2.33532 0
M  V30 6038 H 592.865 -3.92709 5.24843 0
M  V30 6039 H 592.385 -4.70352 3.72195 0
M  V30 6040 H 594.064 -4.83239 4.3022 0
M  V30 6041 N 594.196 -1.08629 -1.14182 0
M  V30 6042 C 595.146 -0.687882 -2.17376 0
M  V30 6043 C 596.13 0.293632 -1.58198 0
M  V30 6044 O 597.322 0.105292 -1.76687 0
M  V30 6045 C 594.451 -0.101184 -3.43151 0
M  V30 6046 C 593.537 -1.10862 -4.09354 0
M  V30 6047 N 593.928 -2.29285 -4.50846 0
M  V30 6048 C 592.226 -0.944897 -4.35876 0
M  V30 6049 C 592.927 -2.93305 -5.02342 0
M  V30 6050 N 591.903 -2.20903 -4.96692 0
M  V30 6051 H 595.705 -1.58963 -2.472 0
M  V30 6052 H 593.219 -0.961329 -1.3089 0
M  V30 6053 H 595.216 0.202209 -4.16409 0
M  V30 6054 H 593.876 0.795522 -3.14804 0
M  V30 6055 H 594.887 -2.66927 -4.43813 0
M  V30 6056 H 591.564 -0.102186 -4.17375 0
M  V30 6057 H 592.954 -3.93932 -5.44304 0
M  V30 6058 N 595.674 1.31259 -0.872281 0
M  V30 6059 C 596.637 2.26744 -0.334656 0
M  V30 6060 C 597.637 1.52307 0.515681 0
M  V30 6061 O 598.827 1.71148 0.324656 0
M  V30 6062 C 595.959 3.36841 0.524482 0
M  V30 6063 H 597.152 2.75812 -1.17762 0
M  V30 6064 H 594.705 1.42232 -0.648064 0
M  V30 6065 H 595.44 2.93069 1.38855 0
M  V30 6066 H 595.225 3.92009 -0.0844299 0
M  V30 6067 H 596.715 4.07944 0.892838 0
M  V30 6068 N 597.152 0.631951 1.44375 0
M  V30 6069 C 598.099 -0.0724807 2.30686 0
M  V30 6070 C 599.069 -0.835975 1.43529 0
M  V30 6071 O 600.254 -0.816849 1.7243 0
M  V30 6072 C 597.394 -1.04753 3.28817 0
M  V30 6073 C 596.507 -0.282367 4.31076 0
M  V30 6074 C 595.642 -1.2493 5.163 0
M  V30 6075 C 594.681 -0.473349 6.10267 0
M  V30 6076 N 593.818 -1.39079 6.88187 0
M  V30 6077 H 598.658 0.669477 2.90383 0
M  V30 6078 H 596.195 0.341927 1.43071 0
M  V30 6079 H 598.153 -1.62623 3.842 0
M  V30 6080 H 596.783 -1.75661 2.70819 0
M  V30 6081 H 595.835 0.412268 3.78159 0
M  V30 6082 H 597.147 0.321955 4.9776 0
M  V30 6083 H 596.301 -1.89931 5.76204 0
M  V30 6084 H 595.04 -1.88755 4.49692 0
M  V30 6085 H 594.045 0.190142 5.49471 0
M  V30 6086 H 595.27 0.16019 6.78911 0
M  V30 6087 H 593.216 -2.01623 6.24247 0
M  V30 6088 H 593.133 -0.840513 7.51313 0
M  V30 6089 H 594.401 -2.02961 7.52613 0
M  V30 6090 N 598.631 -1.53133 0.372548 0
M  V30 6091 C 599.908 -1.93704 -0.271693 0
M  V30 6092 C 600.288 -1.30667 -1.65799 0
M  V30 6093 O 599.636 -0.46838 -2.23648 0
M  V30 6094 C 599.846 -3.47576 -0.314903 0
M  V30 6095 C 601.194 -4.20998 -0.551912 0
M  V30 6096 O 602.218 -3.53994 -0.39582 0
M  V30 6097 O 601.077 -5.39748 -0.85639 0
M  V30 6098 H 598.171 -0.810457 -0.164586 0
M  V30 6099 H 600.717 -1.6427 0.425838 0
M  V30 6100 H 599.489 -3.85749 0.656792 0
M  V30 6101 H 599.112 -3.83264 -1.05804 0
M  V30 6102 N 600.109 -0.101901 -1.5727 0
M  V30 6103 C 601.019 0.868647 -2.17926 0
M  V30 6104 C 602.035 1.30527 -1.1506 0
M  V30 6105 O 603.211 1.37178 -1.47459 0
M  V30 6106 C 600.276 2.10727 -2.75309 0
M  V30 6107 C 599.337 1.7242 -3.93154 0
M  V30 6108 C 598.57 2.90377 -4.47791 0
M  V30 6109 O 598.793 4.05305 -4.01353 0
M  V30 6110 O 597.727 2.6845 -5.38719 0
M  V30 6111 H 601.553 0.382544 -3.01281 0
M  V30 6112 H 599.138 0.122812 -1.48894 0
M  V30 6113 H 601.02 2.83303 -3.11958 0
M  V30 6114 H 599.695 2.58376 -1.94996 0
M  V30 6115 H 598.602 0.970039 -3.61305 0
M  V30 6116 H 599.935 1.29528 -4.74851 0
M  V30 6117 N 601.587 1.56661 0.17182 0
M  V30 6118 C 602.535 1.97289 1.23207 0
M  V30 6119 C 603.529 0.861566 1.45854 0
M  V30 6120 O 604.735 1.04668 1.4644 0
M  V30 6121 H 601.11 0.627681 0.41415 0
M  V30 6122 H 603.081 2.85662 0.862542 0
M  V30 6123 C 601.83 2.34849 2.564 0
M  V30 6124 H 601.153 3.19903 2.39797 0
M  V30 6125 H 602.593 2.67121 3.29276 0
M  V30 6126 C 601.052 1.19172 3.15119 0
M  V30 6127 O 601.582 0.479113 3.98833 0
M  V30 6128 N 599.788 0.962415 2.74201 0
M  V30 6129 H 599.335 1.54365 2.06226 0
M  V30 6130 H 599.293 0.190272 3.13824 0
M  V30 6131 N 603.065 -0.440357 1.51323 0
M  V30 6132 C 604.013 -1.55492 1.72988 0
M  V30 6133 C 605.007 -1.58564 0.596138 0
M  V30 6134 O 606.213 -1.62345 0.777443 0
M  V30 6135 H 602.588 -0.516532 0.546533 0
M  V30 6136 H 604.559 -1.34392 2.66423 0
M  V30 6137 C 603.308 -2.93176 1.86931 0
M  V30 6138 H 602.631 -2.91543 2.73574 0
M  V30 6139 H 604.071 -3.70537 2.06103 0
M  V30 6140 C 602.53 -3.30988 0.628365 0
M  V30 6141 O 603.06 -4.01106 -0.218367 0
M  V30 6142 N 601.266 -2.86719 0.473339 0
M  V30 6143 H 600.813 -2.2983 1.16345 0
M  V30 6144 H 600.771 -3.12381 -0.355727 0
M  V30 6145 N 604.543 -1.41418 -0.695603 0
M  V30 6146 C 605.789 -1.41983 -1.45645 0
M  V30 6147 C 606.144 -0.0282216 -1.92379 0
M  V30 6148 O 605.437 0.945916 -1.66622 0
M  V30 6149 C 605.631 -2.36112 -2.68302 0
M  V30 6150 C 605.46 -3.84288 -2.33566 0
M  V30 6151 C 604.23 -4.52971 -2.23932 0
M  V30 6152 C 606.428 -4.75264 -1.96543 0
M  V30 6153 N 604.41 -5.86276 -1.82081 0
M  V30 6154 C 605.781 -5.97517 -1.6545 0
M  V30 6155 C 607.836 -4.62911 -1.83352 0
M  V30 6156 C 606.539 -7.08793 -1.22492 0
M  V30 6157 C 608.565 -5.74149 -1.41799 0
M  V30 6158 C 607.927 -6.95501 -1.11617 0
M  V30 6159 H 604.026 -0.574771 -0.530247 0
M  V30 6160 H 606.61 -1.77289 -0.804788 0
M  V30 6161 H 604.781 -2.02902 -3.31188 0
M  V30 6162 H 606.513 -2.27397 -3.34773 0
M  V30 6163 H 603.268 -4.06909 -2.42327 0
M  V30 6164 H 603.692 -6.56926 -1.63638 0
M  V30 6165 H 608.334 -3.69588 -2.05341 0
M  V30 6166 H 606.052 -8.01982 -0.992482 0
M  V30 6167 H 609.638 -5.66595 -1.32143 0
M  V30 6168 H 608.518 -7.80114 -0.799493 0
M  V30 6169 N 606.021 0.929856 -1.27246 0
M  V30 6170 C 606.953 2.03434 -1.0558 0
M  V30 6171 C 607.966 1.62795 -0.0125762 0
M  V30 6172 O 609.155 1.76685 -0.2539 0
M  V30 6173 C 606.255 3.33915 -0.57912 0
M  V30 6174 C 605.428 4.03259 -1.69415 0
M  V30 6175 C 604.487 5.12014 -1.21357 0
M  V30 6176 O 603.513 5.36097 -1.91282 0
M  V30 6177 N 604.715 5.8046 -0.0680622 0
M  V30 6178 H 607.48 2.22583 -2.00691 0
M  V30 6179 H 605.041 1.1001 -1.18783 0
M  V30 6180 H 607.033 4.03978 -0.241563 0
M  V30 6181 H 605.603 3.11355 0.278703 0
M  V30 6182 H 604.823 3.26958 -2.20209 0
M  V30 6183 H 606.111 4.46337 -2.44255 0
M  V30 6184 H 605.509 5.63345 0.515626 0
M  V30 6185 H 604.066 6.51461 0.210332 0
M  V30 6186 N 607.499 1.09233 1.13605 0
M  V30 6187 C 608.409 0.741939 2.22559 0
M  V30 6188 C 609.425 -0.255236 1.72118 0
M  V30 6189 O 610.601 -0.0970747 2.01166 0
M  V30 6190 C 607.666 0.165595 3.46304 0
M  V30 6191 C 606.727 1.21846 4.11645 0
M  V30 6192 C 605.96 0.669526 5.29484 0
M  V30 6193 O 606.183 -0.508228 5.68131 0
M  V30 6194 O 605.117 1.42361 5.84822 0
M  V30 6195 H 608.943 1.65107 2.54899 0
M  V30 6196 H 606.528 0.866584 1.21699 0
M  V30 6197 H 608.41 -0.152592 4.21124 0
M  V30 6198 H 607.085 -0.716573 3.15669 0
M  V30 6199 H 605.992 1.58931 3.38662 0
M  V30 6200 H 607.325 2.07321 4.46407 0
M  V30 6201 N 608.977 -1.30795 0.87923 0
M  V30 6202 C 609.94 -2.26563 0.346676 0
M  V30 6203 C 610.94 -1.52578 -0.507597 0
M  V30 6204 O 612.13 -1.71318 -0.315575 0
M  V30 6205 C 609.262 -3.37115 -0.506611 0
M  V30 6206 H 610.455 -2.75183 1.19223 0
M  V30 6207 H 608.008 -1.41886 0.655598 0
M  V30 6208 H 608.743 -2.93802 -1.37299 0
M  V30 6209 H 608.528 -3.91959 0.105218 0
M  V30 6210 H 610.018 -4.08412 -0.871192 0
M  V30 6211 N 610.455 -0.639598 -1.44038 0
M  V30 6212 C 611.418 0.0506628 -2.29144 0
M  V30 6213 C 612.418 0.764001 -1.41491 0
M  V30 6214 O 613.608 0.607309 -1.63271 0
M  V30 6215 C 610.74 1.0824 -3.2326 0
M  V30 6216 H 611.933 -0.697987 -2.91664 0
M  V30 6217 H 609.486 -0.400146 -1.51091 0
M  V30 6218 H 610.221 1.86075 -2.65606 0
M  V30 6219 H 610.006 0.574725 -3.87865 0
M  V30 6220 H 611.496 1.56487 -3.87171 0
M  V30 6221 N 611.933 1.52934 -0.380664 0
M  V30 6222 C 612.88 2.26197 0.458641 0
M  V30 6223 C 613.85 1.27462 1.06502 0
M  V30 6224 O 615.035 1.56274 1.09467 0
M  V30 6225 C 612.175 3.06571 1.58456 0
M  V30 6226 C 611.288 4.20222 1.00189 0
M  V30 6227 C 610.423 4.88007 2.09815 0
M  V30 6228 C 609.462 5.93665 1.49092 0
M  V30 6229 N 608.599 6.55081 2.52613 0
M  V30 6230 H 613.439 2.975 -0.172595 0
M  V30 6231 H 610.976 1.4678 -0.0969426 0
M  V30 6232 H 612.934 3.51455 2.24801 0
M  V30 6233 H 611.564 2.37494 2.18624 0
M  V30 6234 H 610.616 3.79714 0.228292 0
M  V30 6235 H 611.928 4.96102 0.518064 0
M  V30 6236 H 611.082 5.36151 2.83948 0
M  V30 6237 H 609.821 4.11632 2.61555 0
M  V30 6238 H 608.826 5.44868 0.7348 0
M  V30 6239 H 610.051 6.71969 0.981582 0
M  V30 6240 H 607.997 5.8155 3.03538 0
M  V30 6241 H 607.914 7.26548 2.08961 0
M  V30 6242 H 609.182 7.07871 3.26402 0
M  V30 6243 N 613.412 0.11024 1.57214 0
M  V30 6244 C 614.375 -0.828808 2.1369 0
M  V30 6245 C 615.375 -1.20059 1.06969 0
M  V30 6246 O 616.565 -1.12754 1.32786 0
M  V30 6247 C 613.697 -2.11959 2.66994 0
M  V30 6248 H 614.89 -0.338146 2.97988 0
M  V30 6249 H 612.443 -0.138913 1.55681 0
M  V30 6250 H 613.178 -2.65476 1.8626 0
M  V30 6251 H 612.963 -1.86258 3.45037 0
M  V30 6252 H 614.453 -2.79105 3.10629 0
M  V30 6253 N 614.89 -1.56749 -0.16351 0
M  V30 6254 C 616.136 -1.82704 -0.880168 0
M  V30 6255 C 616.469 -0.689311 -1.81555 0
M  V30 6256 O 615.744 0.308224 -1.92042 0
M  V30 6257 C 616.027 -3.19084 -1.66905 0
M  V30 6258 C 615.88 -4.43397 -0.756269 0
M  V30 6259 C 617.199 -3.52493 -2.63509 0
M  V30 6260 H 614.318 -0.664608 -0.318535 0
M  V30 6261 H 616.96 -1.89438 -0.146036 0
M  V30 6262 H 615.11 -3.13475 -2.2949 0
M  V30 6263 H 616.782 -4.61079 -0.14269 0
M  V30 6264 H 615.025 -4.33752 -0.0647944 0
M  V30 6265 H 615.696 -5.3539 -1.34393 0
M  V30 6266 H 618.172 -3.58606 -2.11047 0
M  V30 6267 H 617.048 -4.48979 -3.15767 0
M  V30 6268 H 617.309 -2.77597 -3.44082 0
M  V30 6269 N 616.368 0.432326 -1.51554 0
M  V30 6270 C 617.315 1.52512 -1.7323 0
M  V30 6271 C 618.285 1.55863 -0.5741 0
M  V30 6272 O 619.47 1.72796 -0.809093 0
M  V30 6273 C 616.61 2.90183 -1.86783 0
M  V30 6274 C 615.723 2.96322 -3.14352 0
M  V30 6275 C 614.858 4.25147 -3.18471 0
M  V30 6276 C 613.897 4.25172 -4.40335 0
M  V30 6277 N 613.034 5.45529 -4.41975 0
M  V30 6278 H 617.874 1.33332 -2.66508 0
M  V30 6279 H 615.411 0.647613 -1.32077 0
M  V30 6280 H 617.369 3.70071 -1.92623 0
M  V30 6281 H 615.999 3.0791 -0.969087 0
M  V30 6282 H 615.051 2.09066 -3.17798 0
M  V30 6283 H 616.363 2.92203 -4.04251 0
M  V30 6284 H 615.517 5.13411 -3.23255 0
M  V30 6285 H 614.256 4.31929 -2.2647 0
M  V30 6286 H 613.261 3.353 -4.35723 0
M  V30 6287 H 614.486 4.20049 -5.33606 0
M  V30 6288 H 612.432 5.53024 -3.52847 0
M  V30 6289 H 612.349 5.43311 -5.25689 0
M  V30 6290 H 613.617 6.35812 -4.50958 0
M  V30 6291 N 617.846 1.41785 0.688094 0
M  V30 6292 C 618.809 1.43936 1.78368 0
M  V30 6293 C 619.809 0.328866 1.57401 0
M  V30 6294 O 620.999 0.589093 1.63937 0
M  V30 6295 C 618.131 1.25804 3.16838 0
M  V30 6296 H 619.324 2.41472 1.77852 0
M  V30 6297 H 616.877 1.28037 0.896448 0
M  V30 6298 H 617.612 0.291386 3.22988 0
M  V30 6299 H 617.397 2.06272 3.33458 0
M  V30 6300 H 618.887 1.30162 3.96797 0
M  V30 6301 N 619.324 -0.923095 1.27737 0
M  V30 6302 C 620.287 -2.00587 1.10894 0
M  V30 6303 C 621.287 -1.60718 0.0514927 0
M  V30 6304 O 622.477 -1.71658 0.296481 0
M  V30 6305 C 619.609 -3.33829 0.690717 0
M  V30 6306 H 620.802 -2.16959 2.07048 0
M  V30 6307 H 618.355 -1.10451 1.1059 0
M  V30 6308 H 619.09 -3.23157 -0.272 0
M  V30 6309 H 618.875 -3.64125 1.45448 0
M  V30 6310 H 620.365 -4.13336 0.595252 0
M  V30 6311 N 620.802 -1.09834 -1.13024 0
M  V30 6312 C 622.051 -0.831806 -1.83749 0
M  V30 6313 C 622.364 0.644763 -1.84668 0
M  V30 6314 O 623.57 1.02697 -2.51327 0
M  V30 6315 C 622.026 -1.43817 -3.29916 0
M  V30 6316 C 621.634 -2.94759 -3.37374 0
M  V30 6317 C 623.378 -1.25077 -4.05655 0
M  V30 6318 C 621.285 -3.48461 -4.77838 0
M  V30 6319 H 620.215 -0.30751 -0.688443 0
M  V30 6320 H 622.866 -1.32156 -1.27307 0
M  V30 6321 H 621.248 -0.876106 -3.86187 0
M  V30 6322 H 622.422 -3.57228 -2.91076 0
M  V30 6323 H 620.737 -3.12581 -2.75103 0
M  V30 6324 H 623.334 -1.62649 -5.09362 0
M  V30 6325 H 623.677 -0.191782 -4.15858 0
M  V30 6326 H 624.21 -1.78057 -3.55725 0
M  V30 6327 H 620.949 -4.53998 -4.72828 0
M  V30 6328 H 620.469 -2.90757 -5.24615 0
M  V30 6329 H 622.148 -3.45914 -5.46766 0
M  V30 6330 N 622.28 1.30327 -0.886154 0
M  V30 6331 C 623.227 2.28099 -0.352069 0
M  V30 6332 C 624.197 1.56433 0.558397 0
M  V30 6333 O 625.382 1.84492 0.486561 0
M  V30 6334 C 622.522 3.42456 0.426346 0
M  V30 6335 C 621.635 4.28938 -0.513472 0
M  V30 6336 C 620.77 5.30458 0.280657 0
M  V30 6337 C 619.809 6.0859 -0.654556 0
M  V30 6338 N 618.946 7.02022 0.104322 0
M  V30 6339 H 623.786 2.73166 -1.19097 0
M  V30 6340 H 621.323 1.34367 -0.598662 0
M  V30 6341 H 623.281 4.07518 0.893587 0
M  V30 6342 H 621.911 2.98455 1.22981 0
M  V30 6343 H 620.963 3.64173 -1.09921 0
M  V30 6344 H 622.275 4.83399 -1.2299 0
M  V30 6345 H 621.429 6.01273 0.8097 0
M  V30 6346 H 620.168 4.76693 1.03029 0
M  V30 6347 H 619.173 5.36651 -1.19522 0
M  V30 6348 H 620.398 6.64443 -1.4033 0
M  V30 6349 H 618.344 6.50645 0.836472 0
M  V30 6350 H 618.261 7.53979 -0.552453 0
M  V30 6351 H 619.529 7.77077 0.614069 0
M  V30 6352 N 623.758 0.647228 1.43697 0
M  V30 6353 C 624.688 -0.0345631 2.33474 0
M  V30 6354 C 625.669 -0.818193 1.4913 0
M  V30 6355 O 626.854 -0.780867 1.77809 0
M  V30 6356 C 623.984 -1.00576 3.32418 0
M  V30 6357 C 622.938 -0.33266 4.26705 0
M  V30 6358 C 622.264 -1.41489 5.1564 0
M  V30 6359 C 623.564 0.771204 5.16575 0
M  V30 6360 H 625.258 0.715163 2.90733 0
M  V30 6361 H 622.804 0.345364 1.39797 0
M  V30 6362 H 624.757 -1.49159 3.94119 0
M  V30 6363 H 623.481 -1.78657 2.73403 0
M  V30 6364 H 622.14 0.13267 3.6636 0
M  V30 6365 H 621.788 -2.18698 4.52968 0
M  V30 6366 H 621.488 -0.969799 5.79542 0
M  V30 6367 H 623.012 -1.9022 5.80214 0
M  V30 6368 H 624.426 0.36779 5.72119 0
M  V30 6369 H 622.823 1.1404 5.89165 0
M  V30 6370 H 623.893 1.63169 4.56622 0
M  V30 6371 N 625.236 -1.5273 0.388769 0
M  V30 6372 C 626.199 -2.25043 -0.434544 0
M  V30 6373 C 627.199 -1.26661 -0.990644 0
M  V30 6374 O 628.389 -1.50762 -0.872731 0
M  V30 6375 C 625.521 -3.00507 -1.60961 0
M  V30 6376 H 626.714 -2.99242 0.198549 0
M  V30 6377 H 624.267 -1.55664 0.140875 0
M  V30 6378 H 625.002 -2.30607 -2.28015 0
M  V30 6379 H 624.787 -3.72716 -1.21757 0
M  V30 6380 H 626.277 -3.55413 -2.19251 0
M  V30 6381 N 626.714 -0.118576 -1.57153 0
M  V30 6382 C 627.991 0.583062 -1.86708 0
M  V30 6383 C 628.371 1.84841 -1.01967 0
M  V30 6384 O 627.719 2.28288 -0.0984673 0
M  V30 6385 C 627.929 0.875912 -3.3783 0
M  V30 6386 C 629.277 1.22916 -4.0642 0
M  V30 6387 O 630.301 0.966188 -3.42846 0
M  V30 6388 O 629.16 1.72269 -5.18638 0
M  V30 6389 H 626.254 0.294185 -0.772906 0
M  V30 6390 H 628.8 -0.153048 -1.69008 0
M  V30 6391 H 627.572 -0.0207776 -3.91294 0
M  V30 6392 H 627.195 1.66719 -3.60958 0
M  V30 6393 N 628.193 1.56834 0.155195 0
M  V30 6394 C 629.14 1.97646 1.19184 0
M  V30 6395 C 630.11 0.842788 1.4313 0
M  V30 6396 O 631.295 1.1042 1.55602 0
M  V30 6397 C 628.435 2.35527 2.52232 0
M  V30 6398 C 627.548 3.62147 2.35529 0
M  V30 6399 C 626.683 3.89167 3.61555 0
M  V30 6400 C 625.722 5.09084 3.39853 0
M  V30 6401 N 624.859 5.32156 4.5799 0
M  V30 6402 H 629.699 2.8601 0.836802 0
M  V30 6403 H 627.236 1.41507 0.401758 0
M  V30 6404 H 629.194 2.55516 3.29799 0
M  V30 6405 H 627.824 1.50253 2.85699 0
M  V30 6406 H 626.876 3.4998 1.49057 0
M  V30 6407 H 628.188 4.49871 2.15448 0
M  V30 6408 H 627.342 4.09611 4.47553 0
M  V30 6409 H 626.081 2.9985 3.84632 0
M  V30 6410 H 625.086 4.88522 2.52243 0
M  V30 6411 H 626.311 5.99947 3.18183 0
M  V30 6412 H 624.257 4.45791 4.81255 0
M  V30 6413 H 624.174 6.14133 4.40882 0
M  V30 6414 H 625.442 5.57091 5.45225 0
M  V30 6415 N 629.671 -0.424282 1.51781 0
M  V30 6416 C 630.634 -1.49848 1.73431 0
M  V30 6417 C 631.634 -1.49016 0.604225 0
M  V30 6418 O 632.824 -1.50808 0.871935 0
M  V30 6419 C 629.956 -2.89332 1.80277 0
M  V30 6420 H 631.149 -1.3195 2.69312 0
M  V30 6421 H 628.702 -0.653809 1.41968 0
M  V30 6422 H 629.437 -3.12618 0.862568 0
M  V30 6423 H 629.222 -2.9134 2.62419 0
M  V30 6424 H 630.712 -3.67233 1.98821 0
M  V30 6425 N 631.149 -1.42148 -0.680565 0
M  V30 6426 C 632.56 -1.3768 -1.26099 0
M  V30 6427 C 632.911 -0.0672348 -1.96085 0
M  V30 6428 O 632.036 0.834172 -1.99676 0
M  V30 6429 C 632.631 -2.49387 -2.29328 0
M  V30 6430 C 631.19 -2.4827 -2.82911 0
M  V30 6431 C 630.337 -2.2847 -1.57152 0
M  V30 6432 H 633.288 -1.51446 -0.474326 0
M  V30 6433 H 633.309 -2.19307 -3.10941 0
M  V30 6434 H 632.821 -3.44686 -1.78363 0
M  V30 6435 H 630.922 -1.56773 -3.38013 0
M  V30 6436 H 631.035 -3.45109 -3.3232 0
M  V30 6437 H 629.399 -1.76623 -1.83511 0
M  V30 6438 H 630.182 -3.25816 -1.0816 0
M  V30 6439 N 632.627 0.916307 -1.28225 0
M  V30 6440 C 633.537 2.05165 -1.13775 0
M  V30 6441 C 634.553 1.73879 -0.0649418 0
M  V30 6442 O 635.729 1.99531 -0.273722 0
M  V30 6443 C 632.794 3.37385 -0.798267 0
M  V30 6444 C 631.855 3.82296 -1.95316 0
M  V30 6445 C 631.088 5.08206 -1.62978 0
M  V30 6446 O 631.311 5.6781 -0.542948 0
M  V30 6447 O 630.245 5.48768 -2.47261 0
M  V30 6448 H 634.071 2.20273 -2.09078 0
M  V30 6449 H 631.656 1.0373 -1.07519 0
M  V30 6450 H 633.538 4.16773 -0.62278 0
M  V30 6451 H 632.213 3.23458 0.125139 0
M  V30 6452 H 631.12 3.03746 -2.18378 0
M  V30 6453 H 632.453 4.00782 -2.85718 0
M  V30 6454 N 634.105 1.10431 1.1244 0
M  V30 6455 C 635.33 0.869089 1.88313 0
M  V30 6456 C 635.755 -0.574912 1.79099 0
M  V30 6457 O 635.113 -1.40496 1.14589 0
M  V30 6458 C 635.161 1.32208 3.3549 0
M  V30 6459 O 634.265 0.487092 4.09513 0
M  V30 6460 H 633.606 0.313894 0.585121 0
M  V30 6461 H 636.136 1.47111 1.42195 0
M  V30 6462 H 636.146 1.31201 3.86329 0
M  V30 6463 H 634.821 2.37364 3.41513 0
M  V30 6464 H 633.398 0.562372 3.68635 0
M  V30 6465 N 635.583 -1.29855 0.893053 0
M  V30 6466 C 636.811 -1.99976 0.530788 0
M  V30 6467 C 637.226 -1.66889 -0.882799 0
M  V30 6468 O 636.583 -0.910352 -1.58173 0
M  V30 6469 C 636.634 -3.54547 0.705587 0
M  V30 6470 O 636.355 -3.86458 2.06353 0
M  V30 6471 C 637.856 -4.41937 0.347387 0
M  V30 6472 H 635.076 -0.639129 0.204339 0
M  V30 6473 H 637.62 -1.65549 1.20057 0
M  V30 6474 H 635.775 -3.87311 0.0830685 0
M  V30 6475 H 636.189 -4.81146 2.08803 0
M  V30 6476 H 637.663 -5.4954 0.520557 0
M  V30 6477 H 638.14 -4.33339 -0.715139 0
M  V30 6478 H 638.746 -4.14633 0.946567 0
M  V30 6479 N 637.061 -0.65484 -1.43351 0
M  V30 6480 C 638.472 -0.248506 -1.85039 0
M  V30 6481 C 638.823 1.20526 -1.54816 0
M  V30 6482 O 637.948 1.92016 -0.99794 0
M  V30 6483 C 638.543 -0.444241 -3.35875 0
M  V30 6484 C 637.102 -0.0922108 -3.76287 0
M  V30 6485 C 636.249 -0.746327 -2.67068 0
M  V30 6486 H 639.2 -0.8584 -1.33481 0
M  V30 6487 H 639.221 0.309762 -3.79237 0
M  V30 6488 H 638.733 -1.50239 -3.5784 0
M  V30 6489 H 636.834 0.96328 -3.59933 0
M  V30 6490 H 636.947 -0.518807 -4.76283 0
M  V30 6491 H 635.311 -0.179416 -2.54067 0
M  V30 6492 H 636.094 -1.80754 -2.91861 0
M  V30 6493 N 638.539 1.52521 -0.396863 0
M  V30 6494 C 639.767 2.06091 0.18275 0
M  V30 6495 C 640.182 1.26796 1.39886 0
M  V30 6496 O 639.539 0.316585 1.79733 0
M  V30 6497 C 639.59 3.57362 0.545377 0
M  V30 6498 O 639.311 4.33656 -0.622428 0
M  V30 6499 C 640.812 4.27305 1.18004 0
M  V30 6500 H 638.032 0.670504 0.025789 0
M  V30 6501 H 640.576 1.96561 -0.564276 0
M  V30 6502 H 638.731 3.66941 1.2423 0
M  V30 6503 H 639.145 5.23507 -0.322662 0
M  V30 6504 H 640.619 5.34366 1.38408 0
M  V30 6505 H 641.096 3.83 2.1496 0
M  V30 6506 H 641.702 4.22064 0.523671 0
M  V30 6507 N 640.017 0.126909 1.57088 0
M  V30 6508 C 641.263 -0.529952 1.95753 0
M  V30 6509 C 641.596 -1.65823 1.01077 0
M  V30 6510 O 640.871 -1.94437 0.0494162 0
M  V30 6511 C 641.154 -1.05517 3.44294 0
M  V30 6512 C 641.007 0.0702253 4.49745 0
M  V30 6513 C 642.326 -1.9435 3.94862 0
M  V30 6514 H 639.445 -0.191168 0.711775 0
M  V30 6515 H 642.087 0.204071 1.88901 0
M  V30 6516 H 640.237 -1.68069 3.50264 0
M  V30 6517 H 641.909 0.705834 4.55868 0
M  V30 6518 H 640.152 0.732259 4.27575 0
M  V30 6519 H 640.823 -0.338642 5.5096 0
M  V30 6520 H 643.299 -1.41658 3.91244 0
M  V30 6521 H 642.175 -2.28015 4.993 0
M  V30 6522 H 642.436 -2.87299 3.36024 0
M  V30 6523 N 641.495 -1.56914 -0.146875 0
M  V30 6524 C 642.725 -1.87243 -0.873126 0
M  V30 6525 C 643.133 -0.713127 -1.75246 0
M  V30 6526 O 642.476 0.326228 -1.8078 0
M  V30 6527 C 642.538 -3.12279 -1.78107 0
M  V30 6528 C 642.202 -4.44082 -1.07889 0
M  V30 6529 C 643.199 -5.18096 -0.432734 0
M  V30 6530 C 640.884 -4.90807 -1.06836 0
M  V30 6531 C 642.878 -6.37039 0.214569 0
M  V30 6532 C 640.565 -6.09674 -0.417243 0
M  V30 6533 C 641.563 -6.82636 0.223093 0
M  V30 6534 O 641.251 -7.99245 0.863884 0
M  V30 6535 H 640.983 -0.624896 -0.257839 0
M  V30 6536 H 643.537 -2.04892 -0.14434 0
M  V30 6537 H 641.767 -2.90639 -2.5508 0
M  V30 6538 H 643.456 -3.28854 -2.37929 0
M  V30 6539 H 644.222 -4.83066 -0.432677 0
M  V30 6540 H 640.101 -4.3394 -1.55618 0
M  V30 6541 H 643.645 -6.93927 0.714965 0
M  V30 6542 H 639.542 -6.44165 -0.414967 0
M  V30 6543 H 640.31 -8.14912 0.765564 0
M  V30 6544 N 642.974 0.416227 -1.52004 0
M  V30 6545 C 644.39 0.754319 -1.40649 0
M  V30 6546 C 644.59 1.95059 -0.505392 0
M  V30 6547 O 643.646 2.5248 0.0315057 0
M  V30 6548 C 644.959 1.0149 -2.83055 0
M  V30 6549 C 646.507 1.11805 -2.9235 0
M  V30 6550 C 646.982 1.41144 -4.35709 0
M  V30 6551 N 648.473 1.48024 -4.38911 0
M  V30 6552 C 649.208 1.72338 -5.46889 0
M  V30 6553 N 648.704 1.94303 -6.64995 0
M  V30 6554 N 650.497 1.74294 -5.34395 0
M  V30 6555 H 642.648 -0.371324 -2.09129 0
M  V30 6556 H 644.911 -0.103811 -0.942299 0
M  V30 6557 H 644.617 0.208345 -3.51082 0
M  V30 6558 H 644.491 1.93697 -3.23668 0
M  V30 6559 H 646.878 1.91521 -2.24508 0
M  V30 6560 H 646.959 0.17451 -2.55204 0
M  V30 6561 H 646.603 0.619484 -5.04108 0
M  V30 6562 H 646.533 2.36739 -4.70385 0
M  V30 6563 H 649.024 1.32868 -3.53772 0
M  V30 6564 H 649.337 2.12286 -7.43071 0
M  V30 6565 H 647.682 1.91582 -6.68073 0
M  V30 6566 H 650.873 1.56667 -4.41104 0
M  V30 6567 H 651.046 1.92904 -6.18621 0
M  V30 6568 N 644.452 1.42507 0.673017 0
M  V30 6569 C 645.868 1.25472 0.986355 0
M  V30 6570 C 646.068 0.160181 2.00862 0
M  V30 6571 O 645.124 -0.467993 2.48125 0
M  V30 6572 C 646.437 2.61219 1.48947 0
M  V30 6573 C 647.985 2.68589 1.60715 0
M  V30 6574 C 648.46 4.04707 2.14422 0
M  V30 6575 N 649.951 4.0667 2.21752 0
M  V30 6576 C 650.686 5.0881 2.64386 0
M  V30 6577 N 650.182 6.21332 3.0646 0
M  V30 6578 N 651.975 4.96166 2.64151 0
M  V30 6579 H 644.126 2.124 -0.00378532 0
M  V30 6580 H 646.389 0.946046 0.0608367 0
M  V30 6581 H 646.095 3.42179 0.812812 0
M  V30 6582 H 645.969 2.85261 2.46791 0
M  V30 6583 H 648.356 1.87974 2.27486 0
M  V30 6584 H 648.437 2.48333 0.613552 0
M  V30 6585 H 648.081 4.8578 1.48258 0
M  V30 6586 H 648.011 4.22315 3.14575 0
M  V30 6587 H 650.502 3.25438 1.92089 0
M  V30 6588 H 650.815 6.95118 3.37684 0
M  V30 6589 H 649.16 6.24835 3.04313 0
M  V30 6590 H 652.351 4.07334 2.30644 0
M  V30 6591 H 652.524 5.759 2.97057 0
M  V30 6592 N 645.93 -0.909495 1.28709 0
M  V30 6593 C 647.179 -1.65365 1.15487 0
M  V30 6594 C 647.492 -1.93364 -0.294941 0
M  V30 6595 O 648.698 -2.65905 -0.548338 0
M  V30 6596 C 647.154 -2.97923 2.01916 0
M  V30 6597 C 646.762 -2.77556 3.51663 0
M  V30 6598 C 648.506 -3.75814 1.97393 0
M  V30 6599 C 646.413 -4.0578 4.30229 0
M  V30 6600 H 645.343 -0.620323 0.42862 0
M  V30 6601 H 647.994 -1.00894 1.53273 0
M  V30 6602 H 646.376 -3.63552 1.5699 0
M  V30 6603 H 647.55 -2.2058 4.04575 0
M  V30 6604 H 645.865 -2.13072 3.57756 0
M  V30 6605 H 648.462 -4.70866 2.53357 0
M  V30 6606 H 648.805 -4.05277 0.951643 0
M  V30 6607 H 649.338 -3.1701 2.40311 0
M  V30 6608 H 646.077 -3.81488 5.33055 0
M  V30 6609 H 645.597 -4.62351 3.82089 0
M  V30 6610 H 647.276 -4.74004 4.40374 0
M  V30 6611 N 647.408 -1.11026 -1.11852 0
M  V30 6612 C 648.633 -0.879064 -1.87849 0
M  V30 6613 C 649.058 0.565406 -1.79401 0
M  V30 6614 O 648.416 1.39886 -1.15333 0
M  V30 6615 C 648.464 -1.33985 -3.34784 0
M  V30 6616 O 647.568 -0.508803 -4.09249 0
M  V30 6617 H 646.909 -0.316992 -0.583448 0
M  V30 6618 H 649.439 -1.47863 -1.41413 0
M  V30 6619 H 649.449 -1.33248 -3.85628 0
M  V30 6620 H 648.124 -2.39172 -3.40249 0
M  V30 6621 H 646.701 -0.581913 -3.68332 0
M  V30 6622 N 648.886 1.2938 -0.899927 0
M  V30 6623 C 649.796 2.31462 -0.382437 0
M  V30 6624 C 650.812 1.65956 0.522929 0
M  V30 6625 O 651.988 1.97131 0.412454 0
M  V30 6626 C 649.053 3.44595 0.381472 0
M  V30 6627 C 648.114 4.25692 -0.555444 0
M  V30 6628 C 647.347 5.33422 0.172102 0
M  V30 6629 O 647.57 5.53053 1.396 0
M  V30 6630 O 646.504 5.99939 -0.485491 0
M  V30 6631 H 650.33 2.77706 -1.22934 0
M  V30 6632 H 647.915 1.33821 -0.664259 0
M  V30 6633 H 649.797 4.13474 0.813442 0
M  V30 6634 H 648.472 3.00458 1.20443 0
M  V30 6635 H 647.379 3.59453 -1.03653 0
M  V30 6636 H 648.712 4.73471 -1.34483 0
M  V30 6637 O 650.403 0.801822 1.40189 0
M  V30 6638 H 651.094 0.376359 1.90008 0
M  V30 END ATOM
M  V30 BEGIN BOND
M  V30 END BOND
M  V30 END CTAB
M  END
$$$$
