drugbank_target|O14764 Gamma-aminobutyric acid receptor subunit delta (DB00186; DB00189; DB00228; DB00231; DB00237; DB00241; DB00252; DB00292; DB00306; DB00312; DB00349; DB00371; DB00402; DB00404; DB00463; DB00475; DB00543; DB00546; DB00555; DB00603; DB00628; DB00659; DB00683; DB00690; DB00753; DB00794; DB00801; DB00818; DB00829; DB00842; DB00897; DB01028; DB01043; DB01068; DB01107; DB01159; DB01189; DB01205; DB01215; DB01236; DB01437; DB01489; DB01511; DB01544; DB01545; DB01553; DB01558; DB01559; DB01587; DB01588; DB01589; DB01594; DB01595; DB01708; DB01956; DB09017; DB09118; DB09166; DB11582; DB11859; DB11901; DB12404; DB12537; DB13335; DB13437; DB13643; DB13837; DB13872; DB14028; DB14672; DB14715; DB14719; DB15489)
 OpenBabel12092120353D

  0  0  0     0  0            999 V3000
M  V30 BEGIN CTAB
M  V30 COUNTS 7143 7226 0 0 0
M  V30 BEGIN ATOM
M  V30 1 H -0.908 1.98254 -0.117106 0
M  V30 2 N 0 1.576 0 0
M  V30 3 C 0.933 2.03868 1.02534 0
M  V30 4 C 1.911 0.928543 1.3348 0
M  V30 5 O 3.095 1.19667 1.45644 0
M  V30 6 C 0.222 2.43627 2.35294 0
M  V30 7 C -0.732 3.65373 2.2001 0
M  V30 8 S 0.101 5.13292 1.52614 0
M  V30 9 C 1.257 5.56322 2.86805 0
M  V30 10 H 1.49 2.90518 0.631377 0
M  V30 11 H -0.977 1.52953 0.210867 0
M  V30 12 H 0.981 2.67203 3.11629 0
M  V30 13 H -0.358 1.57376 2.7183 0
M  V30 14 H -1.165 3.90944 3.18086 0
M  V30 15 H -1.563 3.418 1.51819 0
M  V30 16 H 0.729 5.58782 3.83104 0
M  V30 17 H 1.672 6.56266 2.65933 0
M  V30 18 H 2.08 4.83886 2.90714 0
M  V30 19 N 1.4781 -0.272755 1.55222 0
M  V30 20 C 2.7551 -1.02562 1.66555 0
M  V30 21 C 3.1351 -2.04282 0.532189 0
M  V30 22 O 2.4831 -2.23662 -0.467717 0
M  V30 23 C 2.6931 -1.6822 3.05782 0
M  V30 24 C 4.0411 -2.19373 3.63539 0
M  V30 25 O 5.0651 -1.78206 3.08417 0
M  V30 26 O 3.9241 -2.94883 4.60115 0
M  V30 27 H 1.0181 -0.475755 0.676451 0
M  V30 28 H 3.5641 -0.268593 1.67561 0
M  V30 29 H 2.3361 -0.945112 3.79715 0
M  V30 30 H 1.9591 -2.50609 3.08676 0
M  V30 31 N 2.9562 -1.48159 -0.537278 0
M  V30 32 C 3.9192 -1.61665 -1.62472 0
M  V30 33 C 4.9192 -0.490395 -1.5314 0
M  V30 34 O 6.1092 -0.755998 -1.5694 0
M  V30 35 C 3.2412 -1.57997 -3.02076 0
M  V30 36 H 4.4342 -2.58621 -1.51839 0
M  V30 37 H 1.9872 -1.36647 -0.758771 0
M  V30 38 H 2.7222 -0.624913 -3.18222 0
M  V30 39 H 2.5072 -2.39755 -3.10258 0
M  V30 40 H 3.9972 -1.70627 -3.81151 0
M  V30 41 N 4.4343 0.785586 -1.36625 0
M  V30 42 C 5.8453 1.36101 -1.27803 0
M  V30 43 C 6.1963 1.96035 0.0804875 0
M  V30 44 O 5.3213 1.92834 0.982042 0
M  V30 45 C 5.9163 2.47442 -2.31426 0
M  V30 46 C 4.4753 3.00789 -2.26281 0
M  V30 47 C 3.6223 1.73896 -2.15999 0
M  V30 48 H 6.5733 0.586928 -1.47448 0
M  V30 49 H 6.5943 3.2656 -1.95291 0
M  V30 50 H 6.1063 2.03791 -3.30289 0
M  V30 51 H 4.2073 3.48851 -1.30896 0
M  V30 52 H 4.3203 3.57343 -3.19128 0
M  V30 53 H 2.6843 1.9628 -1.62316 0
M  V30 54 H 3.4673 1.32368 -3.16755 0
M  V30 55 N 5.9124 1.20967 1.01018 0
M  V30 56 C 6.8754 0.965918 2.07853 0
M  V30 57 C 7.8754 -0.0610545 1.60684 0
M  V30 58 O 9.0654 0.175681 1.73312 0
M  V30 59 C 6.1974 0.455513 3.37843 0
M  V30 60 H 7.3904 1.91365 2.3091 0
M  V30 61 H 4.9434 1.02594 1.17916 0
M  V30 62 H 5.6784 -0.497381 3.20463 0
M  V30 63 H 5.4634 1.19622 3.73407 0
M  V30 64 H 6.9534 0.304667 4.16487 0
M  V30 65 N 7.3905 -1.2043 1.01659 0
M  V30 66 C 8.8065 -1.41852 0.731442 0
M  V30 67 C 9.0065 -1.89358 -0.688898 0
M  V30 68 O 8.0625 -2.06247 -1.45666 0
M  V30 69 C 9.3755 -2.44019 1.75714 0
M  V30 70 C 10.9235 -2.57785 1.77527 0
M  V30 71 C 11.3985 -3.63194 2.79023 0
M  V30 72 N 12.8895 -3.70678 2.77763 0
M  V30 73 C 13.6245 -4.51897 3.52954 0
M  V30 74 N 13.1205 -5.36921 4.37821 0
M  V30 75 N 14.9135 -4.4643 3.41551 0
M  V30 76 H 7.0645 -0.879093 1.93354 0
M  V30 77 H 9.3275 -0.448425 0.835236 0
M  V30 78 H 9.0335 -2.1611 2.77469 0
M  V30 79 H 8.9075 -3.43007 1.56927 0
M  V30 80 H 11.2945 -2.85023 0.764569 0
M  V30 81 H 11.3755 -1.58992 2.00387 0
M  V30 82 H 11.0195 -3.36699 3.80258 0
M  V30 83 H 10.9495 -4.61609 2.53425 0
M  V30 84 H 13.4405 -3.09944 2.16201 0
M  V30 85 H 13.7535 -5.95981 4.91962 0
M  V30 86 H 12.0985 -5.36424 4.41899 0
M  V30 87 H 15.2895 -3.79042 2.74672 0
M  V30 88 H 15.4625 -5.09491 4.00404 0
M  V30 89 N 8.8686 -0.792821 -1.36206 0
M  V30 90 C 9.7986 -0.207853 -2.32573 0
M  V30 91 C 10.7796 0.659055 -1.56813 0
M  V30 92 O 11.9646 0.592176 -1.84951 0
M  V30 93 C 9.0946 0.655449 -3.41059 0
M  V30 94 C 8.0486 -0.111842 -4.27854 0
M  V30 95 C 7.3746 0.872274 -5.27537 0
M  V30 96 C 8.6746 -1.30299 -5.05786 0
M  V30 97 H 10.3686 -1.01294 -2.81744 0
M  V30 98 H 7.9146 -0.48854 -1.3546 0
M  V30 99 H 9.8676 1.07464 -4.07467 0
M  V30 100 H 8.5916 1.49328 -2.90463 0
M  V30 101 H 7.2506 -0.512053 -3.63006 0
M  V30 102 H 6.8986 1.70523 -4.73214 0
M  V30 103 H 6.5986 0.363291 -5.86476 0
M  V30 104 H 8.1226 1.28996 -5.96818 0
M  V30 105 H 9.5366 -0.959379 -5.65216 0
M  V30 106 H 7.9336 -1.7455 -5.74154 0
M  V30 107 H 9.0036 -2.09663 -4.37229 0
M  V30 108 N 10.3467 1.47872 -0.545128 0
M  V30 109 C 11.2767 2.32661 0.197793 0
M  V30 110 C 12.2577 1.43041 0.920504 0
M  V30 111 O 13.4427 1.71912 0.90333 0
M  V30 112 C 10.5727 3.24569 1.23582 0
M  V30 113 C 9.5267 4.23333 0.630323 0
M  V30 114 C 8.8527 5.0448 1.77211 0
M  V30 115 C 10.1527 5.20704 -0.407974 0
M  V30 116 H 11.8467 2.95024 -0.510045 0
M  V30 117 H 9.3927 1.4187 -0.246731 0
M  V30 118 H 11.3457 3.8272 1.76362 0
M  V30 119 H 10.0697 2.60236 1.97344 0
M  V30 120 H 8.7287 3.6639 0.123922 0
M  V30 121 H 8.3767 4.36561 2.49847 0
M  V30 122 H 8.0767 5.71339 1.37281 0
M  V30 123 H 9.6007 5.65487 2.3034 0
M  V30 124 H 11.0147 5.7329 0.033305 0
M  V30 125 H 9.4117 5.95699 -0.725486 0
M  V30 126 H 10.4817 4.66917 -1.30828 0
M  V30 127 N 11.8248 0.280983 1.55075 0
M  V30 128 C 12.7878 -0.590896 2.21452 0
M  V30 129 C 13.7878 -1.07682 1.19421 0
M  V30 130 O 14.9778 -0.97605 1.44288 0
M  V30 131 C 12.1098 -1.81587 2.88511 0
M  V30 132 H 13.3028 -0.0112554 2.99898 0
M  V30 133 H 10.8558 0.0316438 1.56268 0
M  V30 134 H 11.5908 -2.43587 2.14093 0
M  V30 135 H 11.3758 -1.4753 3.63287 0
M  V30 136 H 12.8658 -2.43575 3.39206 0
M  V30 137 N 13.3029 -1.57598 0.00835791 0
M  V30 138 C 14.7139 -1.7892 -0.53333 0
M  V30 139 C 15.0649 -0.916609 -1.73473 0
M  V30 140 O 14.1899 -0.121336 -2.1606 0
M  V30 141 C 14.7849 -3.24488 -0.974313 0
M  V30 142 C 13.3439 -3.46878 -1.46125 0
M  V30 143 C 12.4909 -2.74157 -0.416302 0
M  V30 144 H 15.4419 -1.56958 0.234495 0
M  V30 145 H 15.4629 -3.3306 -1.83988 0
M  V30 146 H 14.9749 -3.87972 -0.099718 0
M  V30 147 H 13.0759 -2.8862 -2.35646 0
M  V30 148 H 13.1889 -4.55572 -1.48295 0
M  V30 149 H 11.5529 -2.39022 -0.87981 0
M  V30 150 H 12.3359 -3.40345 0.44947 0
M  V30 151 N 14.781 0.264519 -1.55364 0
M  V30 152 C 15.711 1.33121 -1.91836 0
M  V30 153 C 16.692 1.51101 -0.781192 0
M  V30 154 O 17.877 1.64003 -1.04003 0
M  V30 155 C 15.007 2.68921 -2.19769 0
M  V30 156 C 13.961 2.65661 -3.35571 0
M  V30 157 C 13.287 4.05093 -3.49004 0
M  V30 158 C 14.587 2.24187 -4.71739 0
M  V30 159 H 16.281 1.02844 -2.81182 0
M  V30 160 H 13.827 0.493286 -1.35287 0
M  V30 161 H 15.78 3.43663 -2.43872 0
M  V30 162 H 14.504 3.00799 -1.27231 0
M  V30 163 H 13.163 1.93377 -3.1145 0
M  V30 164 H 12.811 4.34206 -2.53917 0
M  V30 165 H 12.511 4.03804 -4.26868 0
M  V30 166 H 14.035 4.81561 -3.75408 0
M  V30 167 H 15.449 2.88654 -4.9533 0
M  V30 168 H 13.846 2.34044 -5.52579 0
M  V30 169 H 14.916 1.19327 -4.69988 0
M  V30 170 N 16.2591 1.48442 0.529413 0
M  V30 171 C 17.1891 1.65902 1.64313 0
M  V30 172 C 18.1701 0.507897 1.6234 0
M  V30 173 O 19.3551 0.740503 1.79528 0
M  V30 174 C 16.4851 1.69911 3.02898 0
M  V30 175 C 15.4391 2.8453 3.19729 0
M  V30 176 C 14.7651 2.73629 4.59381 0
M  V30 177 C 16.0651 4.25821 3.02447 0
M  V30 178 H 17.7591 2.5914 1.49955 0
M  V30 179 H 15.3051 1.24709 0.719982 0
M  V30 180 H 17.2581 1.80715 3.80684 0
M  V30 181 H 15.9821 0.732524 3.18279 0
M  V30 182 H 14.6411 2.73283 2.44361 0
M  V30 183 H 14.2891 1.74938 4.71599 0
M  V30 184 H 13.9891 3.50541 4.71588 0
M  V30 185 H 15.5131 2.86401 5.39265 0
M  V30 186 H 16.9271 4.37898 3.70024 0
M  V30 187 H 15.3241 5.03735 3.26146 0
M  V30 188 H 16.3941 4.42244 1.98867 0
M  V30 189 N 17.7372 -0.778329 1.37039 0
M  V30 190 C 18.6672 -1.90546 1.34962 0
M  V30 191 C 19.6482 -1.68681 0.219274 0
M  V30 192 O 20.8332 -1.89634 0.418624 0
M  V30 193 C 17.9632 -3.27734 1.14925 0
M  V30 194 C 16.9172 -3.64147 2.24902 0
M  V30 195 C 16.2432 -4.99806 1.89996 0
M  V30 196 C 17.5432 -3.71579 3.67051 0
M  V30 197 H 19.2372 -1.92541 2.29277 0
M  V30 198 H 16.7832 -0.924948 1.10366 0
M  V30 199 H 18.7362 -4.06215 1.12104 0
M  V30 200 H 17.4602 -3.26154 0.170631 0
M  V30 201 H 16.1192 -2.8797 2.26868 0
M  V30 202 H 15.7672 -4.94759 0.906796 0
M  V30 203 H 15.4672 -5.25139 2.63634 0
M  V30 204 H 16.9912 -5.80694 1.88749 0
M  V30 205 H 18.4052 -4.40227 3.67251 0
M  V30 206 H 16.8022 -4.08405 4.39688 0
M  V30 207 H 17.8722 -2.72404 4.01154 0
M  V30 208 N 19.2153 -1.21501 -1.00376 0
M  V30 209 C 20.1453 -0.999478 -2.11028 0
M  V30 210 C 21.1263 0.0759671 -1.6993 0
M  V30 211 O 22.3113 -0.0841106 -1.94018 0
M  V30 212 C 19.4413 -0.564709 -3.42678 0
M  V30 213 C 18.3953 -1.58486 -3.97576 0
M  V30 214 C 17.7213 -1.00628 -5.25146 0
M  V30 215 C 19.0213 -2.97204 -4.29496 0
M  V30 216 H 20.7153 -1.92495 -2.29317 0
M  V30 217 H 18.2613 -0.92693 -1.102 0
M  V30 218 H 20.2143 -0.401091 -4.19487 0
M  V30 219 H 18.9383 0.396411 -3.24185 0
M  V30 220 H 17.5973 -1.73606 -3.22888 0
M  V30 221 H 17.2453 -0.0368439 -5.02987 0
M  V30 222 H 16.9453 -1.68771 -5.62841 0
M  V30 223 H 18.4693 -0.854015 -6.04598 0
M  V30 224 H 19.8833 -2.8552 -4.97143 0
M  V30 225 H 18.2803 -3.62372 -4.78338 0
M  V30 226 H 19.3503 -3.47956 -3.3772 0
M  V30 227 N 20.6934 1.19889 -1.02296 0
M  V30 228 C 21.9334 1.91125 -0.724602 0
M  V30 229 C 22.2974 1.77464 0.732835 0
M  V30 230 O 23.4984 2.43241 1.144 0
M  V30 231 C 21.7694 3.38187 -1.15604 0
M  V30 232 S 23.3284 4.27702 -0.980621 0
M  V30 233 H 20.1464 0.66018 -0.263976 0
M  V30 234 H 22.7484 1.44978 -1.31155 0
M  V30 235 H 21.4524 3.45653 -2.21251 0
M  V30 236 H 20.9834 3.89363 -0.562131 0
M  V30 237 H 22.9984 4.96073 0.112225 0
M  V30 238 N 22.1715 0.800033 1.35784 0
M  V30 239 C 23.1345 0.211565 2.28221 0
M  V30 240 C 24.1345 -0.59728 1.49296 0
M  V30 241 O 25.3245 -0.416721 1.69142 0
M  V30 242 C 22.4565 -0.705846 3.33513 0
M  V30 243 H 23.6495 1.02677 2.81776 0
M  V30 244 H 21.2025 0.570211 1.45528 0
M  V30 245 H 21.9375 -1.54498 2.85133 0
M  V30 246 H 21.7225 -0.127655 3.91892 0
M  V30 247 H 23.2125 -1.11211 4.02519 0
M  V30 248 N 23.6496 -1.47581 0.552962 0
M  V30 249 C 24.5816 -2.27997 -0.234533 0
M  V30 250 C 25.5946 -1.36753 -0.883321 0
M  V30 251 O 26.7836 -1.61612 -0.757889 0
M  V30 252 C 23.8836 -3.10879 -1.34935 0
M  V30 253 C 23.0566 -4.30056 -0.798158 0
M  V30 254 C 22.1156 -4.94567 -1.79694 0
M  V30 255 O 21.1416 -5.53087 -1.34474 0
M  V30 256 N 22.3436 -4.88878 -3.13015 0
M  V30 257 H 25.1086 -2.96222 0.455255 0
M  V30 258 H 22.6696 -1.57163 0.388761 0
M  V30 259 H 24.6616 -3.50903 -2.01616 0
M  V30 260 H 23.2316 -2.44924 -1.94244 0
M  V30 261 H 22.4516 -3.94174 0.0453079 0
M  V30 262 H 23.7396 -5.07152 -0.409173 0
M  V30 263 H 23.1376 -4.42526 -3.52402 0
M  V30 264 H 21.6946 -5.32934 -3.75266 0
M  V30 265 N 25.1277 -0.289203 -1.54924 0
M  V30 266 C 26.0597 0.625583 -2.20497 0
M  V30 267 C 27.0727 1.10667 -1.19402 0
M  V30 268 O 28.2617 1.02615 -1.46056 0
M  V30 269 C 25.3617 1.86702 -2.82835 0
M  V30 270 C 24.5347 1.5304 -4.09753 0
M  V30 271 C 23.5937 2.62576 -4.56005 0
M  V30 272 O 22.6197 2.28167 -5.21468 0
M  V30 273 N 23.8217 3.92901 -4.27328 0
M  V30 274 H 26.5867 0.0642801 -2.99631 0
M  V30 275 H 24.1477 -0.110896 -1.6152 0
M  V30 276 H 26.1397 2.59304 -3.10715 0
M  V30 277 H 24.7097 2.33702 -2.07611 0
M  V30 278 H 23.9297 0.637564 -3.8901 0
M  V30 279 H 25.2177 1.28072 -4.92418 0
M  V30 280 H 24.6157 4.23671 -3.74859 0
M  V30 281 H 23.1727 4.61837 -4.59946 0
M  V30 282 N 26.6058 1.57591 -0.0167156 0
M  V30 283 C 27.5358 2.12496 0.967858 0
M  V30 284 C 28.5168 1.03807 1.34752 0
M  V30 285 O 29.7018 1.31577 1.42833 0
M  V30 286 C 26.8318 2.64194 2.25431 0
M  V30 287 C 25.7858 3.77559 2.01576 0
M  V30 288 C 25.1118 4.15636 3.36379 0
M  V30 289 C 26.4118 5.04151 1.36489 0
M  V30 290 H 28.1058 2.95013 0.510643 0
M  V30 291 H 25.6518 1.41915 0.244181 0
M  V30 292 H 27.6048 3.01236 2.94678 0
M  V30 293 H 26.3288 1.78821 2.73296 0
M  V30 294 H 24.9878 3.40937 1.34751 0
M  V30 295 H 24.6358 3.27263 3.81979 0
M  V30 296 H 24.3358 4.92022 3.21229 0
M  V30 297 H 25.8598 4.5525 4.06915 0
M  V30 298 H 27.2738 5.38857 1.95718 0
M  V30 299 H 25.6708 5.85453 1.31776 0
M  V30 300 H 26.7408 4.83733 0.336219 0
M  V30 301 N 28.0839 -0.256276 1.55502 0
M  V30 302 C 29.4999 -0.604325 1.47716 0
M  V30 303 C 29.6999 -1.88763 0.705039 0
M  V30 304 O 28.7559 -2.51445 0.230613 0
M  V30 305 C 30.0689 -0.715756 2.92057 0
M  V30 306 C 31.6169 -0.808706 3.02372 0
M  V30 307 C 32.0919 -0.951777 4.48001 0
M  V30 308 N 33.5829 -1.01688 4.519 0
M  V30 309 C 34.3179 -1.14668 5.61817 0
M  V30 310 N 33.8139 -1.24261 6.81565 0
M  V30 311 N 35.6069 -1.1791 5.49594 0
M  V30 312 H 27.7579 0.586291 2.04148 0
M  V30 313 H 30.0209 0.201015 0.926443 0
M  V30 314 H 29.7269 0.157027 3.51349 0
M  V30 315 H 29.6009 -1.59071 3.42018 0
M  V30 316 H 31.9879 -1.67195 2.43166 0
M  V30 317 H 32.0689 0.0912063 2.55637 0
M  V30 318 H 31.7129 -0.0931291 5.07815 0
M  V30 319 H 31.6429 -1.86659 4.92408 0
M  V30 320 H 34.1339 -0.954468 3.65648 0
M  V30 321 H 34.4469 -1.34046 7.61086 0
M  V30 322 H 32.7919 -1.21236 6.84344 0
M  V30 323 H 35.9829 -1.10057 4.54978 0
M  V30 324 H 36.1559 -1.27681 6.35296 0
M  V30 325 N 29.562 -1.4872 -0.521534 0
M  V30 326 C 30.81 -1.56857 -1.27437 0
M  V30 327 C 31.131 -0.247982 -1.93417 0
M  V30 328 O 30.401 0.731151 -1.81744 0
M  V30 329 H 28.981 -0.577885 -0.473347 0
M  V30 330 H 31.643 -1.85233 -0.606205 0
M  V30 331 H 30.739 -2.35402 -2.0492 0
M  V30 332 N 31.0401 0.771051 -1.3745 0
M  V30 333 C 32.2681 1.56015 -1.35893 0
M  V30 334 C 32.6831 1.88718 0.0555523 0
M  V30 335 O 32.0401 1.51502 1.01752 0
M  V30 336 C 32.0911 2.87001 -2.19801 0
M  V30 337 O 31.8121 2.557 -3.55738 0
M  V30 338 C 33.3131 3.81228 -2.26231 0
M  V30 339 H 30.5331 0.483317 -0.465453 0
M  V30 340 H 33.0771 0.955611 -1.80799 0
M  V30 341 H 31.2321 3.43877 -1.78402 0
M  V30 342 H 31.6461 3.39584 -3.99729 0
M  V30 343 H 33.1201 4.70139 -2.89263 0
M  V30 344 H 33.5971 4.20409 -1.27093 0
M  V30 345 H 34.2031 3.30281 -2.67945 0
M  V30 346 N 32.5182 1.22032 0.997298 0
M  V30 347 C 33.9342 0.979326 1.26021 0
M  V30 348 C 34.1342 -0.32972 1.98784 0
M  V30 349 O 33.1902 -1.05345 2.29475 0
M  V30 350 C 34.5032 2.17509 2.07631 0
M  V30 351 C 36.0512 2.21817 2.2083 0
M  V30 352 C 36.5262 3.40933 3.05825 0
M  V30 353 N 38.0172 3.41067 3.13412 0
M  V30 354 C 38.7522 4.29885 3.79455 0
M  V30 355 N 38.2482 5.28914 4.47462 0
M  V30 356 N 40.0412 4.17673 3.76173 0
M  V30 357 H 32.1922 2.06202 0.509352 0
M  V30 358 H 34.4552 0.90334 0.287541 0
M  V30 359 H 34.1612 3.12415 1.61524 0
M  V30 360 H 34.0352 2.17206 3.08385 0
M  V30 361 H 36.4222 1.27462 2.66153 0
M  V30 362 H 36.5032 2.2616 1.1952 0
M  V30 363 H 36.1472 4.35586 2.61203 0
M  V30 364 H 36.0772 3.33829 4.07266 0
M  V30 365 H 38.5682 2.69406 2.65007 0
M  V30 366 H 38.8812 5.92973 4.95583 0
M  V30 367 H 37.2262 5.32831 4.46224 0
M  V30 368 H 40.4172 3.39564 3.22202 0
M  V30 369 H 40.5902 4.87098 4.27363 0
M  V30 370 N 33.9963 -1.19345 1.0293 0
M  V30 371 C 34.9593 -2.20793 0.615069 0
M  V30 372 C 35.9593 -1.57553 -0.321533 0
M  V30 373 O 37.1493 -1.73862 -0.108483 0
M  V30 374 C 34.2813 -3.40754 -0.0999222 0
M  V30 375 H 35.4743 -2.58955 1.51269 0
M  V30 376 H 33.0273 -1.3303 0.820534 0
M  V30 377 H 33.7623 -3.0811 -1.01187 0
M  V30 378 H 33.5473 -3.87889 0.57309 0
M  V30 379 H 35.0373 -4.15898 -0.376645 0
M  V30 380 N 35.4744 -0.807222 -1.35358 0
M  V30 381 C 36.4074 -0.163572 -2.27613 0
M  V30 382 C 37.3854 0.670817 -1.48118 0
M  V30 383 O 38.5694 0.63796 -1.77376 0
M  V30 384 C 35.6964 0.773015 -3.29761 0
M  V30 385 C 34.7424 0.0181653 -4.26496 0
M  V30 386 S 35.5754 -1.31831 -5.19019 0
M  V30 387 C 36.7314 -0.38619 -6.24707 0
M  V30 388 H 36.9644 -0.945757 -2.81856 0
M  V30 389 H 34.4974 -0.602315 -1.42167 0
M  V30 390 H 36.4554 1.30788 -3.89108 0
M  V30 391 H 35.1164 1.52859 -2.74396 0
M  V30 392 H 34.3094 0.729534 -4.98692 0
M  V30 393 H 33.9114 -0.446761 -3.71322 0
M  V30 394 H 36.2034 0.428295 -6.76145 0
M  V30 395 H 37.1464 -1.07736 -6.99856 0
M  V30 396 H 37.5544 0.018398 -5.64497 0
M  V30 397 N 36.9525 1.47285 -0.560781 0
M  V30 398 C 37.9005 2.31756 0.197942 0
M  V30 399 C 38.8945 1.43146 0.905854 0
M  V30 400 O 40.1005 1.59891 0.826733 0
M  V30 401 H 36.4755 0.747438 0.0827049 0
M  V30 402 H 38.4465 2.9359 -0.533629 0
M  V30 403 C 37.1955 3.25874 1.21249 0
M  V30 404 H 36.5185 3.94023 0.67719 0
M  V30 405 H 37.9585 3.87803 1.71419 0
M  V30 406 C 36.4175 2.49651 2.26221 0
M  V30 407 O 36.9475 2.24355 3.33208 0
M  V30 408 N 35.1535 2.10597 2.00243 0
M  V30 409 H 34.7005 2.31369 1.13252 0
M  V30 410 H 34.6585 1.59913 2.70694 0
M  V30 411 N 38.4306 0.297415 1.54768 0
M  V30 412 C 39.7076 -0.365847 1.92148 0
M  V30 413 C 40.0876 -1.71975 1.22424 0
M  V30 414 O 39.4356 -2.25666 0.358739 0
M  V30 415 C 39.6456 -0.484056 3.45627 0
M  V30 416 C 40.9936 -0.756594 4.17805 0
M  V30 417 O 42.0176 -0.568007 3.51642 0
M  V30 418 O 40.8766 -1.11863 5.34929 0
M  V30 419 H 37.9706 -0.203919 0.801465 0
M  V30 420 H 40.5166 0.34521 1.66152 0
M  V30 421 H 39.2886 0.467865 3.88493 0
M  V30 422 H 38.9116 -1.24372 3.77647 0
M  V30 423 N 39.9087 -1.5758 0.0250728 0
M  V30 424 C 41.1577 -1.90811 -0.653767 0
M  V30 425 C 41.4707 -0.90273 -1.73523 0
M  V30 426 O 42.6767 -1.12614 -2.47043 0
M  V30 427 C 41.1327 -3.38804 -1.21409 0
M  V30 428 C 40.7407 -4.47692 -0.166126 0
M  V30 429 C 42.4847 -3.81108 -1.86967 0
M  V30 430 C 40.3917 -5.86779 -0.737856 0
M  V30 431 H 39.3217 -0.712063 -0.247956 0
M  V30 432 H 41.9727 -1.83281 0.0897137 0
M  V30 433 H 40.3547 -3.41252 -2.00905 0
M  V30 434 H 41.5287 -4.56797 0.606079 0
M  V30 435 H 39.8437 -4.14565 0.390466 0
M  V30 436 H 42.4407 -4.82375 -2.30692 0
M  V30 437 H 42.7837 -3.15953 -2.71071 0
M  V30 438 H 43.3167 -3.81065 -1.14167 0
M  V30 439 H 40.0557 -6.55468 0.0649577 0
M  V30 440 H 39.5757 -5.81288 -1.47864 0
M  V30 441 H 41.2547 -6.35223 -1.22884 0
M  V30 442 N 41.3868 0.248026 -1.55636 0
M  V30 443 C 42.6348 0.974295 -1.77065 0
M  V30 444 C 42.9558 1.85897 -0.588849 0
M  V30 445 O 42.2258 1.91868 0.395407 0
M  V30 446 H 40.8058 0.362733 -0.653019 0
M  V30 447 H 43.4678 0.266244 -1.93073 0
M  V30 448 H 42.5638 1.59667 -2.68166 0
M  V30 449 N 42.8649 1.48995 0.513639 0
M  V30 450 C 44.1419 1.48338 1.27495 0
M  V30 451 C 44.5219 0.204065 2.10111 0
M  V30 452 O 43.8699 -0.813881 2.13514 0
M  V30 453 C 44.0799 2.75498 2.14247 0
M  V30 454 C 45.4279 3.24484 2.73852 0
M  V30 455 O 46.4519 2.76528 2.24523 0
M  V30 456 O 45.3109 4.07974 3.6362 0
M  V30 457 H 42.4049 0.593149 0.576284 0
M  V30 458 H 44.9509 1.61246 0.528948 0
M  V30 459 H 43.7229 3.60109 1.53092 0
M  V30 460 H 43.3459 2.6539 2.96064 0
M  V30 461 N 44.343 -0.763751 1.37857 0
M  V30 462 C 45.573 -1.55067 1.3652 0
M  V30 463 C 45.981 -1.89135 -0.0494227 0
M  V30 464 O 45.324 -1.52529 -1.02375 0
M  V30 465 C 45.386 -2.8838 2.14656 0
M  V30 466 C 45.05 -2.76905 3.63555 0
M  V30 467 C 46.047 -2.4739 4.57268 0
M  V30 468 C 43.732 -2.94676 4.06781 0
M  V30 469 C 45.726 -2.35786 5.92186 0
M  V30 470 C 43.413 -2.82692 5.41782 0
M  V30 471 C 44.411 -2.53289 6.34298 0
M  V30 472 O 44.099 -2.41345 7.66817 0
M  V30 473 H 43.831 -0.486776 0.469069 0
M  V30 474 H 46.385 -0.953812 1.81911 0
M  V30 475 H 44.615 -3.50217 1.63967 0
M  V30 476 H 46.304 -3.49828 2.05852 0
M  V30 477 H 47.07 -2.33339 4.2518 0
M  V30 478 H 42.949 -3.16563 3.35126 0
M  V30 479 H 46.493 -2.12757 6.64365 0
M  V30 480 H 42.39 -2.96314 5.7347 0
M  V30 481 H 43.158 -2.56634 7.77226 0
M  V30 482 N 45.8211 -1.22559 -0.990812 0
M  V30 483 C 47.0671 -1.05297 -1.73322 0
M  V30 484 C 47.4001 0.410655 -1.89808 0
M  V30 485 O 46.6751 1.30439 -1.44277 0
M  V30 486 C 46.9581 -1.76713 -3.13759 0
M  V30 487 C 46.8111 -3.30684 -3.04907 0
M  V30 488 C 48.1301 -1.52121 -4.12974 0
M  V30 489 H 45.2491 -0.38392 -0.629106 0
M  V30 490 H 47.8911 -1.50926 -1.15418 0
M  V30 491 H 46.0411 -1.37924 -3.63193 0
M  V30 492 H 47.7131 -3.7893 -2.63077 0
M  V30 493 H 45.9561 -3.60253 -2.41661 0
M  V30 494 H 46.6271 -3.75833 -4.04294 0
M  V30 495 H 49.1031 -1.85819 -3.72304 0
M  V30 496 H 47.9791 -2.04582 -5.0935 0
M  V30 497 H 48.2401 -0.454257 -4.3976 0
M  V30 498 N 47.2992 1.18797 -1.03562 0
M  V30 499 C 48.5472 1.88278 -0.734569 0
M  V30 500 C 48.8682 1.8043 0.739586 0
M  V30 501 O 48.1382 1.21925 1.53333 0
M  V30 502 H 46.7182 0.696991 -0.268725 0
M  V30 503 H 49.3802 1.44192 -1.31129 0
M  V30 504 H 48.4762 2.94443 -1.03489 0
M  V30 505 N 48.7773 0.814389 1.34928 0
M  V30 506 C 50.0023 0.410097 2.03305 0
M  V30 507 C 50.4273 -0.973464 1.60951 0
M  V30 508 O 49.7853 -1.63185 0.789964 0
M  V30 509 C 49.8333 0.51049 3.56968 0
M  V30 510 O 48.9373 -0.473035 4.09678 0
M  V30 511 H 48.2783 0.170088 0.641846 0
M  V30 512 H 50.8083 1.10244 1.72358 0
M  V30 513 H 50.8183 0.383135 4.06197 0
M  V30 514 H 49.4933 1.51963 3.87144 0
M  V30 515 H 48.0703 -0.305272 3.71648 0
M  V30 516 N 50.2554 -1.46986 0.568584 0
M  V30 517 C 51.2034 -2.31858 -0.185649 0
M  V30 518 C 52.1974 -1.43624 -0.898249 0
M  V30 519 O 53.4034 -1.60327 -0.818242 0
M  V30 520 H 49.7784 -0.747866 -0.0787399 0
M  V30 521 H 51.7494 -2.93303 0.549191 0
M  V30 522 C 50.4984 -3.26513 -1.19519 0
M  V30 523 H 49.8214 -3.94377 -0.656285 0
M  V30 524 H 51.2614 -3.88707 -1.6936 0
M  V30 525 C 49.7204 -2.50847 -2.24894 0
M  V30 526 O 50.2504 -2.26119 -3.32014 0
M  V30 527 N 48.4564 -2.11656 -1.99124 0
M  V30 528 H 48.0034 -2.31966 -1.12024 0
M  V30 529 H 47.9614 -1.61347 -2.69842 0
M  V30 530 N 51.7335 -0.305618 -1.54608 0
M  V30 531 C 52.6635 0.561482 -2.26649 0
M  V30 532 C 53.6445 1.13415 -1.26772 0
M  V30 533 O 54.8295 1.16262 -1.55553 0
M  V30 534 C 51.9595 1.73122 -3.01075 0
M  V30 535 C 50.9135 1.2887 -4.08138 0
M  V30 536 C 50.2395 2.54396 -4.70305 0
M  V30 537 C 51.5395 0.416578 -5.20636 0
M  V30 538 H 53.2335 -0.0393902 -2.99374 0
M  V30 539 H 50.7795 -0.020385 -1.43986 0
M  V30 540 H 52.7325 2.34396 -3.50195 0
M  V30 541 H 51.4565 2.3584 -2.25936 0
M  V30 542 H 50.1155 0.698991 -3.59875 0
M  V30 543 H 49.7635 3.15439 -3.918 0
M  V30 544 H 49.4635 2.25486 -5.42614 0
M  V30 545 H 50.9875 3.16464 -5.2219 0
M  V30 546 H 52.4015 0.935116 -5.65622 0
M  V30 547 H 50.7985 0.221046 -5.99693 0
M  V30 548 H 51.8685 -0.557162 -4.81688 0
M  V30 549 N 53.2116 1.57565 -0.0334293 0
M  V30 550 C 54.1216 2.13943 0.962572 0
M  V30 551 C 55.1376 1.09276 1.35406 0
M  V30 552 O 56.3136 1.41355 1.4346 0
M  V30 553 C 53.3786 2.65887 2.22497 0
M  V30 554 C 52.4396 3.85286 1.8935 0
M  V30 555 C 51.6726 4.34743 3.09571 0
M  V30 556 O 51.8956 3.83352 4.22371 0
M  V30 557 O 50.8296 5.26538 2.91618 0
M  V30 558 H 54.6556 2.99333 0.513169 0
M  V30 559 H 52.2406 1.4822 0.18743 0
M  V30 560 H 54.1226 2.99346 2.96598 0
M  V30 561 H 52.7976 1.83578 2.6661 0
M  V30 562 H 51.7046 3.56746 1.1262 0
M  V30 563 H 53.0376 4.68771 1.5005 0
M  V30 564 N 54.6897 -0.239769 1.55765 0
M  V30 565 C 55.9387 -0.964754 1.77131 0
M  V30 566 C 56.2517 -1.86213 0.59868 0
M  V30 567 O 57.4577 -2.6244 0.695522 0
M  V30 568 C 55.9137 -1.76552 3.1362 0
M  V30 569 C 55.5217 -0.915185 4.38553 0
M  V30 570 C 57.2657 -2.48281 3.44321 0
M  V30 571 C 55.1727 -1.71225 5.66071 0
M  V30 572 H 54.1027 -0.363953 0.660344 0
M  V30 573 H 56.7537 -0.219181 1.82186 0
M  V30 574 H 55.1357 -2.55331 3.02691 0
M  V30 575 H 56.3097 -0.169217 4.60489 0
M  V30 576 H 54.6247 -0.310889 4.15238 0
M  V30 577 H 57.2217 -3.08382 4.36812 0
M  V30 578 H 57.5647 -3.20256 2.65973 0
M  V30 579 H 58.0977 -1.76507 3.56497 0
M  V30 580 H 54.8367 -1.03612 6.4726 0
M  V30 581 H 54.3567 -2.43331 5.48224 0
M  V30 582 H 56.0357 -2.27758 6.05587 0
M  V30 583 N 56.1678 -1.49265 -0.50573 0
M  V30 584 C 57.3928 -1.62478 -1.28902 0
M  V30 585 C 57.8178 -0.294332 -1.85783 0
M  V30 586 O 57.1758 0.737412 -1.65626 0
M  V30 587 C 57.2238 -2.69268 -2.39848 0
M  V30 588 O 56.3278 -2.28113 -3.43567 0
M  V30 589 H 55.6688 -0.54399 -0.380751 0
M  V30 590 H 58.1988 -1.95421 -0.605952 0
M  V30 591 H 58.2088 -2.91291 -2.85681 0
M  V30 592 H 56.8838 -3.65846 -1.97812 0
M  V30 593 H 55.4608 -2.16401 -3.03685 0
M  V30 594 N 57.6459 0.756429 -1.3826 0
M  V30 595 C 58.8919 1.5168 -1.35517 0
M  V30 596 C 59.2469 1.9232 0.0554451 0
M  V30 597 O 58.5399 1.62352 1.01746 0
M  V30 598 C 58.7339 2.78313 -2.24224 0
M  V30 599 C 58.5629 2.50053 -3.7377 0
M  V30 600 C 57.3329 2.43414 -4.42807 0
M  V30 601 C 59.5309 2.1702 -4.66269 0
M  V30 602 N 57.5129 2.07398 -5.77805 0
M  V30 603 C 58.8839 1.91271 -5.89759 0
M  V30 604 C 60.9389 2.03305 -4.54501 0
M  V30 605 C 59.6419 1.53192 -7.02798 0
M  V30 606 C 61.6679 1.66627 -5.67441 0
M  V30 607 C 61.0299 1.4175 -6.8999 0
M  V30 608 H 57.1289 0.554735 -0.551174 0
M  V30 609 H 59.7129 0.881106 -1.73622 0
M  V30 610 H 57.8839 3.39696 -1.88311 0
M  V30 611 H 59.6159 3.44343 -2.12627 0
M  V30 612 H 56.3709 2.59789 -3.95988 0
M  V30 613 H 56.7949 1.92044 -6.4919 0
M  V30 614 H 61.4369 2.21215 -3.60311 0
M  V30 615 H 59.1549 1.34022 -7.96909 0
M  V30 616 H 62.7409 1.56652 -5.60314 0
M  V30 617 H 61.6209 1.1379 -7.759 0
M  V30 618 N 59.124 1.23083 0.984299 0
M  V30 619 C 60.054 1.03292 2.09411 0
M  V30 620 C 61.035 -0.048923 1.7003 0
M  V30 621 O 62.22 0.114967 1.93859 0
M  V30 622 C 59.35 0.619155 3.41736 0
M  V30 623 C 58.304 1.64791 3.95004 0
M  V30 624 C 57.63 1.0897 5.23478 0
M  V30 625 C 58.93 3.03999 4.24714 0
M  V30 626 H 60.624 1.96119 2.26225 0
M  V30 627 H 58.17 0.944344 1.08711 0
M  V30 628 H 60.123 0.467777 4.18796 0
M  V30 629 H 58.847 -0.344786 3.24775 0
M  V30 630 H 57.506 1.78721 3.20085 0
M  V30 631 H 57.154 0.11686 5.02864 0
M  V30 632 H 56.854 1.77704 5.60085 0
M  V30 633 H 58.378 0.950093 6.03163 0
M  V30 634 H 59.792 2.93393 4.92538 0
M  V30 635 H 58.189 3.69936 4.72512 0
M  V30 636 H 59.259 3.53285 3.32142 0
M  V30 637 N 60.6021 -1.18246 1.0419 0
M  V30 638 C 62.0131 -1.69914 0.773698 0
M  V30 639 C 62.3641 -1.83085 -0.705297 0
M  V30 640 O 61.4891 -1.51123 -1.5489 0
M  V30 641 C 62.0841 -3.08619 1.39784 0
M  V30 642 C 60.6431 -3.57494 1.17792 0
M  V30 643 C 59.7901 -2.34013 1.48773 0
M  V30 644 H 62.7411 -1.02904 1.20816 0
M  V30 645 H 62.7621 -3.71958 0.801714 0
M  V30 646 H 62.2741 -2.99001 2.47426 0
M  V30 647 H 60.3751 -3.72406 0.120295 0
M  V30 648 H 60.4881 -4.40852 1.87581 0
M  V30 649 H 58.8521 -2.37986 0.907463 0
M  V30 650 H 59.6351 -2.27013 2.57527 0
M  V30 651 N 62.0802 -0.821533 -1.34494 0
M  V30 652 C 63.0282 -0.230702 -2.31453 0
M  V30 653 C 64.0222 0.627793 -1.57338 0
M  V30 654 O 65.2282 0.519288 -1.72347 0
M  V30 655 H 61.6032 -0.0558577 -0.749923 0
M  V30 656 H 63.5742 -1.06332 -2.78812 0
M  V30 657 C 62.3232 0.59391 -3.4259 0
M  V30 658 H 61.6462 -0.0573588 -3.99759 0
M  V30 659 H 63.0862 0.973446 -4.12674 0
M  V30 660 C 61.5452 1.76568 -2.86924 0
M  V30 661 O 62.0752 2.8638 -2.81691 0
M  V30 662 N 60.2812 1.58198 -2.43766 0
M  V30 663 H 59.8282 0.68872 -2.48222 0
M  V30 664 H 59.7862 2.36752 -2.06871 0
M  V30 665 N 63.5583 1.46682 -0.576371 0
M  V30 666 C 64.4883 2.33028 0.148397 0
M  V30 667 C 65.4693 1.44961 0.889956 0
M  V30 668 O 66.6543 1.73789 0.866662 0
M  V30 669 C 63.7843 3.27117 1.1667 0
M  V30 670 C 62.7383 4.24575 0.540386 0
M  V30 671 C 62.0643 5.08126 1.6647 0
M  V30 672 C 63.3643 5.19722 -0.518331 0
M  V30 673 H 65.0583 2.93875 -0.572509 0
M  V30 674 H 62.6043 1.41315 -0.276768 0
M  V30 675 H 64.5573 3.86374 1.68204 0
M  V30 676 H 63.2813 2.64364 1.9178 0
M  V30 677 H 61.9403 3.66571 0.0461769 0
M  V30 678 H 61.5883 4.41762 2.40531 0
M  V30 679 H 61.2883 5.74122 1.25131 0
M  V30 680 H 62.8123 5.70246 2.18293 0
M  V30 681 H 64.2263 5.73232 -0.0883058 0
M  V30 682 H 62.6233 5.94026 -0.851679 0
M  V30 683 H 63.6933 4.64037 -1.40703 0
M  V30 684 N 65.0364 0.313813 1.54444 0
M  V30 685 C 66.3134 -0.345447 1.92525 0
M  V30 686 C 66.6934 -1.70667 1.24242 0
M  V30 687 O 66.0414 -2.25273 0.382654 0
M  V30 688 C 66.2514 -0.44737 3.46121 0
M  V30 689 C 67.5994 -0.712238 4.18584 0
M  V30 690 O 68.6234 -0.530678 3.52225 0
M  V30 691 O 67.4824 -1.06183 5.36085 0
M  V30 692 H 64.5764 -0.195407 0.803583 0
M  V30 693 H 67.1224 0.362813 1.65776 0
M  V30 694 H 65.8944 0.509043 3.87975 0
M  V30 695 H 65.5174 -1.20359 3.78945 0
M  V30 696 N 66.5145 -1.57545 0.0417849 0
M  V30 697 C 67.7625 -1.91937 -0.632829 0
M  V30 698 C 68.0835 -0.919978 -1.71934 0
M  V30 699 O 67.3535 0.0366064 -1.95866 0
M  V30 700 H 65.9335 -0.708493 -0.236742 0
M  V30 701 H 68.5955 -1.9468 0.0925745 0
M  V30 702 H 67.6915 -2.92912 -1.07746 0
M  V30 703 N 67.9926 0.231505 -1.5589 0
M  V30 704 C 68.9226 1.29022 -1.94617 0
M  V30 705 C 69.9036 1.4941 -0.813067 0
M  V30 706 O 71.0886 1.6176 -1.07459 0
M  V30 707 C 68.2186 2.64199 -2.25424 0
M  V30 708 C 67.1726 2.58484 -3.41131 0
M  V30 709 C 66.4986 3.97599 -3.57518 0
M  V30 710 C 67.7986 2.1413 -4.76388 0
M  V30 711 H 69.4926 0.968563 -2.83301 0
M  V30 712 H 67.0386 0.464479 -1.36303 0
M  V30 713 H 68.9916 3.38413 -2.51107 0
M  V30 714 H 67.7156 2.98032 -1.33583 0
M  V30 715 H 66.3746 1.86727 -3.15481 0
M  V30 716 H 66.0226 4.28723 -2.6307 0
M  V30 717 H 65.7226 3.94659 -4.35337 0
M  V30 718 H 67.2466 4.7349 -3.85538 0
M  V30 719 H 68.6606 2.78083 -5.01341 0
M  V30 720 H 67.0576 2.2227 -5.57419 0
M  V30 721 H 68.1276 1.09331 -4.72414 0
M  V30 722 N 69.4707 1.49531 0.497807 0
M  V30 723 C 70.7197 1.58426 1.24837 0
M  V30 724 C 71.0327 0.277643 1.93619 0
M  V30 725 O 72.2387 0.24517 2.70391 0
M  V30 726 C 70.6947 2.79538 2.26686 0
M  V30 727 C 70.3027 4.16971 1.63828 0
M  V30 728 C 72.0467 2.97764 3.0255 0
M  V30 729 C 69.9537 5.29301 2.63807 0
M  V30 730 H 68.8837 0.58989 0.469623 0
M  V30 731 H 71.5347 1.75923 0.521857 0
M  V30 732 H 69.9167 2.55542 3.02514 0
M  V30 733 H 71.0907 4.51116 0.939711 0
M  V30 734 H 69.4057 4.04129 1.00342 0
M  V30 735 H 72.0027 3.78856 3.77323 0
M  V30 736 H 72.3457 2.08448 3.60354 0
M  V30 737 H 72.8787 3.21815 2.33838 0
M  V30 738 H 69.6177 6.20687 2.10779 0
M  V30 739 H 69.1377 4.99606 3.31894 0
M  V30 740 H 70.8167 5.58768 3.2617 0
M  V30 741 N 70.9488 -0.749086 1.3866 0
M  V30 742 C 71.9118 -1.84457 1.36045 0
M  V30 743 C 72.9118 -1.58682 0.260122 0
M  V30 744 O 74.1018 -1.66343 0.517261 0
M  V30 745 C 71.2338 -3.22008 1.11911 0
M  V30 746 H 72.4268 -1.88182 2.33512 0
M  V30 747 H 69.9798 -0.951266 1.24019 0
M  V30 748 H 70.7148 -3.2395 0.150686 0
M  V30 749 H 70.4998 -3.42111 1.91579 0
M  V30 750 H 71.9898 -4.0208 1.12788 0
M  V30 751 N 72.4269 -1.23603 -0.977757 0
M  V30 752 C 73.6749 -1.06759 -1.71601 0
M  V30 753 C 73.9959 0.395929 -1.90938 0
M  V30 754 O 73.2659 1.28356 -1.47992 0
M  V30 755 H 71.8459 -0.392062 -0.635843 0
M  V30 756 H 74.5079 -1.55362 -1.1768 0
M  V30 757 H 73.6039 -1.55763 -2.70452 0
M  V30 758 N 73.905 1.17692 -1.04816 0
M  V30 759 C 75.135 1.91508 -0.775128 0
M  V30 760 C 75.543 1.76844 0.67253 0
M  V30 761 O 74.886 1.10057 1.47082 0
M  V30 762 C 74.948 3.43167 -1.0713 0
M  V30 763 C 74.612 3.81612 -2.51438 0
M  V30 764 C 75.609 3.84772 -3.49638 0
M  V30 765 C 73.294 4.12687 -2.86348 0
M  V30 766 C 75.288 4.18469 -4.80794 0
M  V30 767 C 72.975 4.46053 -4.17708 0
M  V30 768 C 73.973 4.48921 -5.14741 0
M  V30 769 O 73.661 4.81504 -6.43746 0
M  V30 770 H 73.393 0.614575 -0.281555 0
M  V30 771 H 75.947 1.50206 -1.40098 0
M  V30 772 H 74.177 3.84745 -0.388342 0
M  V30 773 H 75.866 3.98239 -0.784883 0
M  V30 774 H 76.632 3.60893 -3.24008 0
M  V30 775 H 72.511 4.09627 -2.11486 0
M  V30 776 H 76.055 4.20623 -5.56527 0
M  V30 777 H 71.952 4.69393 -4.43103 0
M  V30 778 H 72.72 4.99377 -6.4851 0
M  V30 779 N 75.3831 0.828654 1.34056 0
M  V30 780 C 76.3461 0.259927 2.27721 0
M  V30 781 C 77.3461 -0.565478 1.50529 0
M  V30 782 O 78.5361 -0.38075 1.69988 0
M  V30 783 C 75.6681 -0.634944 3.34935 0
M  V30 784 H 76.8611 1.0863 2.79534 0
M  V30 785 H 74.4141 0.600951 1.44285 0
M  V30 786 H 75.1491 -1.48416 2.88346 0
M  V30 787 H 74.9341 -0.0444999 3.92075 0
M  V30 788 H 76.4241 -1.02648 4.04788 0
M  V30 789 N 76.8612 -1.46375 0.584142 0
M  V30 790 C 78.2772 -1.57694 0.245929 0
M  V30 791 C 78.4772 -1.57903 -1.25175 0
M  V30 792 O 77.5332 -1.49676 -2.03355 0
M  V30 793 C 78.8462 -2.87028 0.896402 0
M  V30 794 C 80.3942 -3.00662 0.870127 0
M  V30 795 C 80.8692 -4.32734 1.50017 0
M  V30 796 N 82.3602 -4.39436 1.46458 0
M  V30 797 C 83.0952 -5.40248 1.92144 0
M  V30 798 N 82.5912 -6.47726 2.4581 0
M  V30 799 N 84.3842 -5.31459 1.83052 0
M  V30 800 H 76.5352 -1.44483 1.55687 0
M  V30 801 H 78.7982 -0.689291 0.650831 0
M  V30 802 H 78.5042 -2.9269 1.95002 0
M  V30 803 H 78.3782 -3.75014 0.405486 0
M  V30 804 H 80.7652 -2.94581 -0.174871 0
M  V30 805 H 80.8462 -2.14148 1.39908 0
M  V30 806 H 80.4902 -4.39573 2.54437 0
M  V30 807 H 80.4202 -5.18025 0.946432 0
M  V30 808 H 82.9112 -3.62367 1.07231 0
M  V30 809 H 83.2242 -7.20863 2.78525 0
M  V30 810 H 81.5692 -6.48542 2.49836 0
M  V30 811 H 84.7602 -4.46396 1.40883 0
M  V30 812 H 84.9332 -6.09881 2.18973 0
M  V30 813 N 78.3393 -0.321999 -1.54275 0
M  V30 814 C 79.2873 0.560206 -2.25753 0
M  V30 815 C 80.2813 1.11984 -1.27106 0
M  V30 816 O 81.4873 1.06806 -1.44888 0
M  V30 817 H 77.8623 0.199304 -0.725108 0
M  V30 818 H 79.8333 -0.0649365 -2.98329 0
M  V30 819 C 78.5823 1.71023 -3.02731 0
M  V30 820 H 77.9053 1.28885 -3.78456 0
M  V30 821 H 79.3453 2.30314 -3.55993 0
M  V30 822 C 77.8043 2.62692 -2.10938 0
M  V30 823 O 78.3343 3.64364 -1.6912 0
M  V30 824 N 76.5403 2.30891 -1.76459 0
M  V30 825 H 76.0873 1.48253 -2.10663 0
M  V30 826 H 76.0453 2.92487 -1.1532 0
M  V30 827 N 79.8174 1.5752 -0.0501392 0
M  V30 828 C 81.0644 1.9265 0.623874 0
M  V30 829 C 81.3924 0.928411 1.70912 0
M  V30 830 O 80.6474 -0.0594525 1.9561 0
M  V30 831 C 80.9464 3.34467 1.25963 0
M  V30 832 C 80.6124 4.49883 0.302689 0
M  V30 833 C 79.2744 4.81184 0.0393636 0
M  V30 834 C 81.6264 5.20002 -0.353205 0
M  V30 835 C 78.9544 5.79951 -0.887308 0
M  V30 836 C 81.3064 6.1976 -1.26806 0
M  V30 837 C 79.9704 6.49491 -1.54007 0
M  V30 838 H 79.2404 0.704957 0.228292 0
M  V30 839 H 81.8874 1.91146 -0.116398 0
M  V30 840 H 80.1924 3.32333 2.07514 0
M  V30 841 H 81.8894 3.58928 1.78806 0
M  V30 842 H 78.4794 4.25457 0.518109 0
M  V30 843 H 82.6634 4.96033 -0.162854 0
M  V30 844 H 77.9194 6.01322 -1.10553 0
M  V30 845 H 82.0934 6.73205 -1.78236 0
M  V30 846 H 79.7204 7.25837 -2.25976 0
M  V30 847 N 81.2955 -0.223234 1.56011 0
M  V30 848 C 82.7115 -0.572856 1.48965 0
M  V30 849 C 82.9115 -1.87225 0.74492 0
M  V30 850 O 81.9675 -2.50899 0.283896 0
M  V30 851 C 83.2805 -0.653646 2.9351 0
M  V30 852 C 84.8285 -0.744386 3.0402 0
M  V30 853 C 85.3035 -0.856535 4.49919 0
M  V30 854 N 86.7945 -0.9208 4.53955 0
M  V30 855 C 87.5295 -1.02726 5.64123 0
M  V30 856 N 87.0255 -1.09777 6.84047 0
M  V30 857 N 88.8185 -1.06226 5.51971 0
M  V30 858 H 80.9695 0.629462 2.02858 0
M  V30 859 H 83.2325 0.220621 0.921971 0
M  V30 860 H 82.9385 0.231518 3.50937 0
M  V30 861 H 82.8125 -1.51781 3.45315 0
M  V30 862 H 85.1995 -1.61999 2.46658 0
M  V30 863 H 85.2805 0.14541 2.55386 0
M  V30 864 H 84.9245 0.0146069 5.07898 0
M  V30 865 H 84.8545 -1.76172 4.96257 0
M  V30 866 H 87.3455 -0.876694 3.6759 0
M  V30 867 H 87.6585 -1.17872 7.63758 0
M  V30 868 H 86.0035 -1.06693 6.86762 0
M  V30 869 H 89.1945 -1.00382 4.5721 0
M  V30 870 H 89.3675 -1.14177 6.37862 0
M  V30 871 N 82.7736 -1.49793 -0.48987 0
M  V30 872 C 84.1846 -1.52914 -1.07118 0
M  V30 873 C 84.5356 -0.321738 -1.93544 0
M  V30 874 O 83.6606 0.567338 -2.08831 0
M  V30 875 C 84.2556 -2.771 -1.94938 0
M  V30 876 C 82.8146 -2.82963 -2.48212 0
M  V30 877 C 81.9616 -2.46972 -1.26096 0
M  V30 878 H 84.9126 -1.56329 -0.273289 0
M  V30 879 H 84.9336 -2.57892 -2.79771 0
M  V30 880 H 84.4456 -3.64959 -1.32009 0
M  V30 881 H 82.5466 -1.99411 -3.14748 0
M  V30 882 H 82.6596 -3.85406 -2.84603 0
M  V30 883 H 81.0236 -1.98994 -1.58976 0
M  V30 884 H 81.8066 -3.37118 -0.648581 0
M  V30 885 N 84.2517 0.741722 -1.39055 0
M  V30 886 C 85.4997 1.49818 -1.35643 0
M  V30 887 C 85.8207 1.94938 0.0491642 0
M  V30 888 O 85.0907 1.68505 0.999141 0
M  V30 889 H 83.6707 0.555755 -0.499144 0
M  V30 890 H 86.3327 0.880957 -1.73854 0
M  V30 891 H 85.4287 2.38348 -2.01486 0
M  V30 892 N 85.7298 1.2412 0.971189 0
M  V30 893 C 86.9788 1.07284 1.70801 0
M  V30 894 C 87.2918 -0.388902 1.91695 0
M  V30 895 O 88.4978 -0.677379 2.62914 0
M  V30 896 C 86.9538 1.87145 3.07416 0
M  V30 897 C 86.5618 3.37707 2.94377 0
M  V30 898 C 88.3058 1.78828 3.84995 0
M  V30 899 C 86.2128 4.09925 4.26281 0
M  V30 900 H 85.1428 0.397854 0.64049 0
M  V30 901 H 87.7938 1.4817 1.0825 0
M  V30 902 H 86.1758 1.39071 3.70777 0
M  V30 903 H 87.3498 3.93335 2.4005 0
M  V30 904 H 85.6648 3.46938 2.30267 0
M  V30 905 H 88.2618 2.30089 4.82662 0
M  V30 906 H 88.6048 0.75284 4.09436 0
M  V30 907 H 89.1378 2.24563 3.28354 0
M  V30 908 H 85.8768 5.13813 4.07033 0
M  V30 909 H 85.3968 3.59083 4.80437 0
M  V30 910 H 87.0758 4.1673 4.94919 0
M  V30 911 N 87.2079 -1.17134 1.05439 0
M  V30 912 C 88.4559 -1.87085 0.764429 0
M  V30 913 C 88.7769 -1.81584 -0.710787 0
M  V30 914 O 88.0469 -1.24349 -1.51374 0
M  V30 915 H 86.6269 -0.692627 0.279779 0
M  V30 916 H 89.2889 -1.42087 1.33406 0
M  V30 917 H 88.3849 -2.92759 1.0816 0
M  V30 918 N 88.686 -0.835752 -1.33615 0
M  V30 919 C 89.934 -0.429109 -1.97492 0
M  V30 920 C 90.255 1.01433 -1.66543 0
M  V30 921 O 89.525 1.70611 -0.962744 0
M  V30 922 H 88.105 -0.155686 -0.730596 0
M  V30 923 H 90.767 -1.06802 -1.63031 0
M  V30 924 H 89.863 -0.55861 -3.0706 0
M  V30 925 N 90.1641 1.46063 -0.591896 0
M  V30 926 C 91.5751 1.85944 -0.167822 0
M  V30 927 C 91.9261 1.49429 1.27143 0
M  V30 928 O 91.0511 0.913515 1.96173 0
M  V30 929 C 91.6461 3.37489 -0.297794 0
M  V30 930 C 90.2051 3.76332 0.0714732 0
M  V30 931 C 89.3521 2.7006 -0.629509 0
M  V30 932 H 92.3031 1.37087 -0.799555 0
M  V30 933 H 92.3241 3.77532 0.474349 0
M  V30 934 H 91.8361 3.64034 -1.3454 0
M  V30 935 H 89.9371 3.55405 1.11886 0
M  V30 936 H 90.0501 4.78088 -0.311245 0
M  V30 937 H 88.4141 2.54607 -0.0687867 0
M  V30 938 H 89.1971 2.99444 -1.67894 0
M  V30 939 N 91.6422 0.330177 1.54103 0
M  V30 940 C 93.0532 -0.15652 1.86043 0
M  V30 941 C 93.4042 -1.51086 1.2517 0
M  V30 942 O 92.5292 -2.09023 0.560217 0
M  V30 943 C 93.1242 -0.290784 3.3755 0
M  V30 944 C 91.6832 -0.721705 3.69416 0
M  V30 945 C 90.8302 0.152622 2.7688 0
M  V30 946 H 93.7812 0.550237 1.48856 0
M  V30 947 H 93.8022 -1.12058 3.63625 0
M  V30 948 H 93.3142 0.695068 3.81825 0
M  V30 949 H 91.4152 -1.71706 3.30678 0
M  V30 950 H 91.5282 -0.520869 4.7626 0
M  V30 951 H 89.8922 -0.372894 2.51956 0
M  V30 952 H 90.6752 1.13536 3.23982 0
M  V30 953 N 93.1203 -1.57491 0.0584922 0
M  V30 954 C 94.3663 -1.93264 -0.614558 0
M  V30 955 C 94.6993 -0.937717 -1.7006 0
M  V30 956 O 93.9743 0.0351652 -1.94468 0
M  V30 957 C 94.2573 -3.3938 -1.20386 0
M  V30 958 C 94.1103 -4.49625 -0.125375 0
M  V30 959 C 95.4293 -3.86039 -2.11334 0
M  V30 960 H 92.5483 -0.702791 -0.221933 0
M  V30 961 H 95.1903 -1.8961 0.12175 0
M  V30 962 H 93.3403 -3.42626 -1.83139 0
M  V30 963 H 95.0123 -4.58506 0.506971 0
M  V30 964 H 93.2553 -4.30354 0.545672 0
M  V30 965 H 93.9263 -5.48967 -0.577861 0
M  V30 966 H 96.4023 -3.84716 -1.58534 0
M  V30 967 H 95.2783 -4.88914 -2.49507 0
M  V30 968 H 95.5393 -3.23215 -3.01636 0
M  V30 969 N 94.5984 0.214957 -1.56127 0
M  V30 970 C 95.5464 1.28601 -1.93816 0
M  V30 971 C 96.5404 1.48175 -0.821016 0
M  V30 972 O 97.7464 1.49271 -1.0059 0
M  V30 973 H 94.1214 0.431302 -0.616022 0
M  V30 974 H 96.0924 0.940991 -2.83175 0
M  V30 975 C 94.8414 2.62779 -2.27689 0
M  V30 976 H 94.1644 2.48527 -3.13168 0
M  V30 977 H 95.6044 3.36517 -2.57939 0
M  V30 978 C 94.0634 3.18285 -1.10436 0
M  V30 979 O 94.5934 4.00002 -0.368945 0
M  V30 980 N 92.7994 2.7675 -0.886433 0
M  V30 981 H 92.3464 2.10404 -1.48619 0
M  V30 982 H 92.3044 3.14229 -0.103656 0
M  V30 983 N 96.0765 1.50051 0.48192 0
M  V30 984 C 97.3225 1.60736 1.2366 0
M  V30 985 C 97.6555 0.301786 1.91841 0
M  V30 986 O 96.9305 -0.696025 1.8162 0
M  V30 987 C 97.2135 2.78009 2.28874 0
M  V30 988 C 97.0665 4.18416 1.65069 0
M  V30 989 C 98.3855 2.90867 3.30279 0
M  V30 990 H 95.5045 0.585031 0.448228 0
M  V30 991 H 98.1465 1.82402 0.531946 0
M  V30 992 H 96.2965 2.59667 2.88973 0
M  V30 993 H 97.9685 4.48322 1.0865 0
M  V30 994 H 96.2115 4.23177 0.954148 0
M  V30 995 H 96.8825 4.96381 2.41474 0
M  V30 996 H 99.3585 3.07623 2.80191 0
M  V30 997 H 98.2345 3.74566 4.01238 0
M  V30 998 H 98.4955 2.01021 3.93755 0
M  V30 999 N 97.5546 -0.734337 1.39446 0
M  V30 1000 C 98.5176 -1.83004 1.37994 0
M  V30 1001 C 99.5176 -1.58397 0.276938 0
M  V30 1002 O 100.708 -1.65785 0.534875 0
M  V30 1003 C 97.8396 -3.20802 1.1532 0
M  V30 1004 H 99.0326 -1.85694 2.35494 0
M  V30 1005 H 96.5856 -0.938059 1.25021 0
M  V30 1006 H 97.3206 -3.23772 0.185036 0
M  V30 1007 H 97.1056 -3.4006 1.95197 0
M  V30 1008 H 98.5956 -4.00862 1.17046 0
M  V30 1009 N 99.0327 -1.24633 -0.964593 0
M  V30 1010 C 99.9627 -1.06611 -2.07741 0
M  V30 1011 C 100.944 0.0218666 -1.70086 0
M  V30 1012 O 102.129 -0.145793 -1.93652 0
M  V30 1013 C 99.2587 -0.673444 -3.40708 0
M  V30 1014 C 98.2127 -1.71054 -3.92332 0
M  V30 1015 C 97.5387 -1.17285 -5.21678 0
M  V30 1016 C 98.8387 -3.10718 -4.19824 0
M  V30 1017 H 100.533 -1.99693 -2.23076 0
M  V30 1018 H 98.0787 -0.96152 -1.07195 0
M  V30 1019 H 100.032 -0.534345 -4.17998 0
M  V30 1020 H 98.7557 0.293073 -3.25282 0
M  V30 1021 H 97.4147 -1.83791 -3.17201 0
M  V30 1022 H 97.0627 -0.196847 -5.02615 0
M  V30 1023 H 96.7627 -1.86592 -5.57187 0
M  V30 1024 H 98.2867 -1.04593 -6.01575 0
M  V30 1025 H 99.7007 -3.01192 -4.87808 0
M  V30 1026 H 98.0977 -3.77406 -4.66567 0
M  V30 1027 H 99.1677 -3.58524 -3.26479 0
M  V30 1028 N 100.511 1.16574 -1.06058 0
M  V30 1029 C 101.474 2.19085 -0.673392 0
M  V30 1030 C 102.474 1.5835 0.279648 0
M  V30 1031 O 103.664 1.74088 0.0623488 0
M  V30 1032 C 100.796 3.40899 0.00954234 0
M  V30 1033 H 101.989 2.54853 -1.58081 0
M  V30 1034 H 99.5418 1.30808 -0.855516 0
M  V30 1035 H 100.277 3.10684 0.929826 0
M  V30 1036 H 100.062 3.86233 -0.67573 0
M  V30 1037 H 101.552 4.1675 0.266245 0
M  V30 1038 N 101.989 0.842826 1.3317 0
M  V30 1039 C 102.919 0.294028 2.31641 0
M  V30 1040 C 103.9 -0.600401 1.59151 0
M  V30 1041 O 105.085 -0.523124 1.87022 0
M  V30 1042 C 102.215 -0.528416 3.43257 0
M  V30 1043 C 101.169 0.27056 4.27144 0
M  V30 1044 C 100.495 -0.675881 5.30411 0
M  V30 1045 C 101.795 1.48981 5.00602 0
M  V30 1046 H 103.489 1.11681 2.77791 0
M  V30 1047 H 101.035 0.538478 1.33553 0
M  V30 1048 H 102.988 -0.922674 4.11175 0
M  V30 1049 H 101.712 -1.38445 2.95805 0
M  V30 1050 H 100.371 0.646427 3.60856 0
M  V30 1051 H 100.019 -1.52842 4.79216 0
M  V30 1052 H 99.7189 -0.145374 5.8742 0
M  V30 1053 H 101.243 -1.06757 6.01195 0
M  V30 1054 H 102.657 1.16849 5.61266 0
M  V30 1055 H 101.054 1.95739 5.6728 0
M  V30 1056 H 102.124 2.25746 4.29147 0
M  V30 1057 N 103.467 -1.45747 0.599634 0
M  V30 1058 C 104.377 -2.34262 -0.125888 0
M  V30 1059 C 105.393 -1.50768 -0.868625 0
M  V30 1060 O 106.569 -1.83592 -0.828003 0
M  V30 1061 C 103.634 -3.28252 -1.11587 0
M  V30 1062 C 102.695 -4.27651 -0.375956 0
M  V30 1063 C 101.928 -5.1715 -1.31877 0
M  V30 1064 O 102.151 -5.09916 -2.55621 0
M  V30 1065 O 101.085 -5.96286 -0.820157 0
M  V30 1066 H 104.911 -2.97688 0.601315 0
M  V30 1067 H 102.496 -1.44999 0.359934 0
M  V30 1068 H 104.378 -3.86191 -1.68626 0
M  V30 1069 H 103.053 -2.67401 -1.82424 0
M  V30 1070 H 101.96 -3.7335 0.236698 0
M  V30 1071 H 103.293 -4.91334 0.29177 0
M  V30 1072 N 104.945 -0.338344 -1.53925 0
M  V30 1073 C 106.191 0.260143 -2.01125 0
M  V30 1074 C 106.524 1.50617 -1.22589 0
M  V30 1075 O 105.799 1.91979 -0.312113 0
M  V30 1076 C 106.082 0.579499 -3.55407 0
M  V30 1077 C 105.935 -0.678264 -4.44657 0
M  V30 1078 C 107.254 1.39122 -4.17532 0
M  V30 1079 H 104.373 0.0930772 -0.731099 0
M  V30 1080 H 107.015 -0.457852 -1.84401 0
M  V30 1081 H 105.165 1.19118 -3.69788 0
M  V30 1082 H 106.837 -1.31631 -4.42121 0
M  V30 1083 H 105.08 -1.3042 -4.13731 0
M  V30 1084 H 105.751 -0.410143 -5.50474 0
M  V30 1085 H 108.227 0.874035 -4.06817 0
M  V30 1086 H 107.103 1.58342 -5.25565 0
M  V30 1087 H 107.364 2.39178 -3.71815 0
M  V30 1088 N 106.423 1.57458 -0.0668435 0
M  V30 1089 C 107.386 2.11323 0.887422 0
M  V30 1090 C 108.386 1.03618 1.22964 0
M  V30 1091 O 109.576 1.29626 1.16373 0
M  V30 1092 C 106.708 2.61048 2.19242 0
M  V30 1093 H 107.901 2.96942 0.420194 0
M  V30 1094 H 105.454 1.55239 0.181793 0
M  V30 1095 H 106.189 1.78868 2.70512 0
M  V30 1096 H 105.974 3.39769 1.95702 0
M  V30 1097 H 107.464 3.02814 2.87565 0
M  V30 1098 N 107.901 -0.206675 1.56239 0
M  V30 1099 C 109.126 -0.949474 1.8439 0
M  V30 1100 C 109.551 -1.76549 0.649016 0
M  V30 1101 O 108.909 -1.76782 -0.402231 0
M  V30 1102 C 108.957 -1.83078 3.10668 0
M  V30 1103 O 108.061 -2.9281 2.90407 0
M  V30 1104 H 107.402 -0.268033 0.607499 0
M  V30 1105 H 109.932 -0.215488 2.03462 0
M  V30 1106 H 109.942 -2.2377 3.41161 0
M  V30 1107 H 108.617 -1.23112 3.97261 0
M  V30 1108 H 107.194 -2.55956 2.71184 0
M  V30 1109 N 109.379 -1.50304 -0.473955 0
M  V30 1110 C 110.628 -1.60392 -1.22301 0
M  V30 1111 C 110.941 -0.308411 -1.93153 0
M  V30 1112 O 112.147 -0.288156 -2.69966 0
M  V30 1113 C 110.603 -2.83109 -2.2221 0
M  V30 1114 C 110.211 -4.19524 -1.57173 0
M  V30 1115 C 111.955 -3.0254 -2.97775 0
M  V30 1116 C 109.862 -5.33431 -2.55353 0
M  V30 1117 H 108.792 -0.597286 -0.460179 0
M  V30 1118 H 111.443 -1.76731 -0.493803 0
M  V30 1119 H 109.825 -2.60322 -2.9841 0
M  V30 1120 H 110.999 -4.52554 -0.867824 0
M  V30 1121 H 109.314 -4.05674 -0.939002 0
M  V30 1122 H 111.911 -3.84811 -3.71248 0
M  V30 1123 H 112.254 -2.14154 -3.56992 0
M  V30 1124 H 112.787 -3.25494 -2.28688 0
M  V30 1125 H 109.526 -6.23962 -2.00878 0
M  V30 1126 H 109.046 -5.04823 -3.23904 0
M  V30 1127 H 110.725 -5.63887 -3.17239 0
M  V30 1128 N 110.857 0.726932 -1.39834 0
M  V30 1129 C 112.134 1.47902 -1.28001 0
M  V30 1130 C 112.514 2.1083 0.106789 0
M  V30 1131 O 111.862 1.99242 1.11869 0
M  V30 1132 C 112.072 2.52392 -2.41038 0
M  V30 1133 C 113.42 3.18546 -2.80737 0
M  V30 1134 O 114.444 2.62708 -2.40547 0
M  V30 1135 O 113.303 4.19604 -3.50135 0
M  V30 1136 H 110.397 0.657163 -0.502062 0
M  V30 1137 H 112.943 0.760071 -1.51727 0
M  V30 1138 H 111.715 2.04329 -3.33715 0
M  V30 1139 H 111.338 3.31837 -2.19021 0
M  V30 1140 N 112.336 1.25143 0.95797 0
M  V30 1141 C 113.286 1.01924 2.0395 0
M  V30 1142 C 114.27 -0.0427175 1.60843 0
M  V30 1143 O 115.462 0.17221 1.7616 0
M  V30 1144 C 112.591 0.636373 3.3735 0
M  V30 1145 C 111.677 1.73492 3.8699 0
M  V30 1146 N 112.068 2.96945 4.0946 0
M  V30 1147 C 110.366 1.61467 4.15746 0
M  V30 1148 C 111.067 3.68228 4.50315 0
M  V30 1149 N 110.043 2.95833 4.56053 0
M  V30 1150 H 113.845 1.95653 2.19311 0
M  V30 1151 H 111.359 1.15413 1.14253 0
M  V30 1152 H 113.356 0.451233 4.14451 0
M  V30 1153 H 112.016 -0.293621 3.2337 0
M  V30 1154 H 113.027 3.33025 3.96629 0
M  V30 1155 H 109.704 0.753394 4.10646 0
M  V30 1156 H 111.094 4.74178 4.76031 0
M  V30 1157 N 113.814 -1.1601 1.06675 0
M  V30 1158 C 115.063 -1.85973 0.780818 0
M  V30 1159 C 115.376 -1.82819 -0.695444 0
M  V30 1160 O 116.582 -2.484 -1.09589 0
M  V30 1161 C 115.038 -3.33757 1.34665 0
M  V30 1162 C 114.646 -3.45374 2.85343 0
M  V30 1163 C 116.39 -4.0895 1.13843 0
M  V30 1164 C 114.297 -4.87266 3.35151 0
M  V30 1165 H 113.227 -0.696661 0.288407 0
M  V30 1166 H 115.878 -1.30903 1.28595 0
M  V30 1167 H 114.26 -3.88456 0.769274 0
M  V30 1168 H 115.434 -3.00816 3.49065 0
M  V30 1169 H 113.749 -2.83619 3.04876 0
M  V30 1170 H 116.346 -5.13654 1.4854 0
M  V30 1171 H 116.689 -4.16229 0.0770282 0
M  V30 1172 H 117.222 -3.605 1.68179 0
M  V30 1173 H 113.961 -4.85168 4.40786 0
M  V30 1174 H 113.481 -5.32433 2.76179 0
M  V30 1175 H 115.16 -5.56097 3.30704 0
M  V30 1176 N 115.292 -0.849877 -1.32721 0
M  V30 1177 C 116.517 -0.463856 -2.02146 0
M  V30 1178 C 116.942 0.930449 -1.63476 0
M  V30 1179 O 116.3 1.61033 -0.832952 0
M  V30 1180 C 116.348 -0.604955 -3.55489 0
M  V30 1181 O 115.452 0.36425 -4.10788 0
M  V30 1182 H 114.793 -0.187046 -0.637111 0
M  V30 1183 H 117.323 -1.14775 -1.69375 0
M  V30 1184 H 117.333 -0.490696 -4.05038 0
M  V30 1185 H 116.008 -1.62174 -3.82978 0
M  V30 1186 H 114.585 0.206628 -3.72327 0
M  V30 1187 N 116.77 1.45427 -0.607355 0
M  V30 1188 C 117.68 2.34325 0.113463 0
M  V30 1189 C 118.696 1.51226 0.860617 0
M  V30 1190 O 119.872 1.84029 0.818255 0
M  V30 1191 C 116.937 3.28839 1.09844 0
M  V30 1192 C 115.998 4.27844 0.353271 0
M  V30 1193 C 115.231 5.17842 1.29133 0
M  V30 1194 O 115.454 5.11264 2.52913 0
M  V30 1195 O 114.388 5.96713 0.788523 0
M  V30 1196 H 118.214 2.97364 -0.617094 0
M  V30 1197 H 115.799 1.44807 -0.367619 0
M  V30 1198 H 117.681 3.8708 1.66575 0
M  V30 1199 H 116.356 2.68365 1.81003 0
M  V30 1200 H 115.263 3.7322 -0.256494 0
M  V30 1201 H 116.596 4.91173 -0.317822 0
M  V30 1202 N 118.248 0.346503 1.53744 0
M  V30 1203 C 119.211 -0.496439 2.23759 0
M  V30 1204 C 120.211 -1.0252 1.2388 0
M  V30 1205 O 121.401 -0.913974 1.48297 0
M  V30 1206 C 118.533 -1.69187 2.95954 0
M  V30 1207 H 119.726 0.115952 2.99676 0
M  V30 1208 H 117.279 0.0978939 1.55993 0
M  V30 1209 H 118.014 -2.34288 2.24231 0
M  V30 1210 H 117.799 -1.31989 3.69217 0
M  V30 1211 H 119.289 -2.28969 3.49232 0
M  V30 1212 N 119.726 -1.57421 0.075193 0
M  V30 1213 C 120.674 -2.14124 -0.908508 0
M  V30 1214 C 121.668 -1.07898 -1.30592 0
M  V30 1215 O 122.874 -1.26273 -1.28277 0
M  V30 1216 H 119.249 -0.684707 -0.310935 0
M  V30 1217 H 121.22 -2.95634 -0.405374 0
M  V30 1218 C 119.969 -2.72044 -2.16535 0
M  V30 1219 H 119.292 -3.53456 -1.86839 0
M  V30 1220 H 120.732 -3.15311 -2.83469 0
M  V30 1221 C 119.191 -1.66968 -2.92615 0
M  V30 1222 O 119.721 -1.0967 -3.86439 0
M  V30 1223 N 117.927 -1.37923 -2.55784 0
M  V30 1224 H 117.474 -1.84706 -1.79559 0
M  V30 1225 H 117.432 -0.67852 -3.06991 0
M  V30 1226 N 121.204 0.198386 -1.56346 0
M  V30 1227 C 122.137 1.27381 -1.89339 0
M  V30 1228 C 123.115 1.44106 -0.753134 0
M  V30 1229 O 124.299 1.59549 -1.00381 0
M  V30 1230 C 121.426 2.6409 -2.12071 0
M  V30 1231 C 120.472 2.64253 -3.34772 0
M  V30 1232 S 121.305 2.16013 -4.89999 0
M  V30 1233 C 122.461 3.54553 -5.15794 0
M  V30 1234 H 122.694 0.992058 -2.8026 0
M  V30 1235 H 120.227 0.401726 -1.49082 0
M  V30 1236 H 122.185 3.42786 -2.2585 0
M  V30 1237 H 120.846 2.89478 -1.21906 0
M  V30 1238 H 120.039 3.64768 -3.47794 0
M  V30 1239 H 119.641 1.93637 -3.1997 0
M  V30 1240 H 121.933 4.50396 -5.06112 0
M  V30 1241 H 122.876 3.46428 -6.1757 0
M  V30 1242 H 123.284 3.49313 -4.43442 0
M  V30 1243 N 122.682 1.50554 0.465978 0
M  V30 1244 C 123.592 1.72585 1.58907 0
M  V30 1245 C 124.608 0.60911 1.6299 0
M  V30 1246 O 125.784 0.88804 1.80765 0
M  V30 1247 C 122.849 1.81995 2.95091 0
M  V30 1248 C 121.91 3.05751 3.01355 0
M  V30 1249 C 121.143 3.14702 4.31043 0
M  V30 1250 O 121.366 2.30313 5.21835 0
M  V30 1251 O 120.3 4.07468 4.43005 0
M  V30 1252 H 124.126 2.67799 1.43239 0
M  V30 1253 H 121.711 1.34711 0.646013 0
M  V30 1254 H 123.593 1.90335 3.75966 0
M  V30 1255 H 122.268 0.899659 3.10947 0
M  V30 1256 H 121.175 3.02908 2.19539 0
M  V30 1257 H 122.508 3.97375 2.90437 0
M  V30 1258 N 124.16 -0.719506 1.40217 0
M  V30 1259 C 125.39 -1.50646 1.41384 0
M  V30 1260 C 125.798 -1.89197 0.0107743 0
M  V30 1261 O 125.141 -1.55709 -0.974708 0
M  V30 1262 C 125.203 -2.81405 2.23722 0
M  V30 1263 C 124.867 -2.65199 3.72181 0
M  V30 1264 C 125.864 -2.32717 4.64907 0
M  V30 1265 C 123.549 -2.81586 4.1595 0
M  V30 1266 C 125.543 -2.16827 5.99387 0
M  V30 1267 C 123.23 -2.65313 5.50502 0
M  V30 1268 C 124.228 -2.32981 6.42035 0
M  V30 1269 O 123.916 -2.16827 7.74107 0
M  V30 1270 H 123.648 -0.471606 0.484318 0
M  V30 1271 H 126.202 -0.895456 1.84853 0
M  V30 1272 H 124.432 -3.44823 1.75026 0
M  V30 1273 H 126.121 -3.43102 2.16878 0
M  V30 1274 H 126.887 -2.19694 4.32388 0
M  V30 1275 H 122.766 -3.0574 3.45027 0
M  V30 1276 H 126.31 -1.91513 6.70797 0
M  V30 1277 H 122.207 -2.7792 5.82607 0
M  V30 1278 H 122.975 -2.31778 7.84998 0
M  V30 1279 N 125.638 -1.25649 -0.95132 0
M  V30 1280 C 126.866 -1.13343 -1.73092 0
M  V30 1281 C 127.281 0.312434 -1.86197 0
M  V30 1282 O 126.638 1.21465 -1.36207 0
M  V30 1283 C 126.689 -1.78602 -3.14299 0
M  V30 1284 O 126.41 -3.17537 -3.01831 0
M  V30 1285 C 127.911 -1.72119 -4.08522 0
M  V30 1286 H 125.131 -0.395181 -0.542285 0
M  V30 1287 H 127.675 -1.66076 -1.19328 0
M  V30 1288 H 125.83 -1.29832 -3.64996 0
M  V30 1289 H 126.244 -3.49676 -3.90931 0
M  V30 1290 H 127.718 -2.22435 -5.052 0
M  V30 1291 H 128.195 -0.685635 -4.33815 0
M  V30 1292 H 128.801 -2.20393 -3.63741 0
M  V30 1293 N 127.117 1.15442 -1.07289 0
M  V30 1294 C 128.05 2.19135 -0.636798 0
M  V30 1295 C 129.028 1.58884 0.34562 0
M  V30 1296 O 130.212 1.86805 0.252195 0
M  V30 1297 C 127.339 3.38638 0.0650014 0
M  V30 1298 C 126.385 4.17412 -0.87576 0
M  V30 1299 S 127.218 4.79882 -2.37642 0
M  V30 1300 C 128.374 6.02753 -1.6864 0
M  V30 1301 H 128.607 2.55787 -1.51526 0
M  V30 1302 H 126.14 1.26394 -0.886793 0
M  V30 1303 H 128.098 4.07873 0.463664 0
M  V30 1304 H 126.759 3.00331 0.919801 0
M  V30 1305 H 125.952 5.02909 -0.33143 0
M  V30 1306 H 125.554 3.53722 -1.21478 0
M  V30 1307 H 127.846 6.70113 -0.997753 0
M  V30 1308 H 128.789 6.61754 -2.51967 0
M  V30 1309 H 129.197 5.52355 -1.16465 0
M  V30 1310 N 128.595 0.856903 1.32268 0
M  V30 1311 C 129.823 0.475439 2.01363 0
M  V30 1312 C 130.238 -0.928486 1.64392 0
M  V30 1313 O 129.595 -1.60624 0.866387 0
M  V30 1314 C 129.646 0.607545 3.56358 0
M  V30 1315 O 129.367 1.95617 3.92002 0
M  V30 1316 C 130.868 0.225382 4.42727 0
M  V30 1317 H 128.088 0.186636 0.644521 0
M  V30 1318 H 130.632 1.15446 1.68797 0
M  V30 1319 H 128.787 -0.0237719 3.87393 0
M  V30 1320 H 129.201 1.95455 4.86721 0
M  V30 1321 H 130.675 0.368813 5.50767 0
M  V30 1322 H 131.152 -0.834369 4.31202 0
M  V30 1323 H 131.758 0.831864 4.17085 0
M  V30 1324 N 130.073 -1.45103 0.615059 0
M  V30 1325 C 131.319 -2.02483 0.113347 0
M  V30 1326 C 131.652 -1.48146 -1.25564 0
M  V30 1327 O 130.927 -0.659104 -1.82992 0
M  V30 1328 C 131.21 -3.60005 0.0825278 0
M  V30 1329 C 131.063 -4.2466 1.48271 0
M  V30 1330 C 132.382 -4.35972 -0.601401 0
M  V30 1331 H 129.501 -0.735764 0.0426632 0
M  V30 1332 H 132.143 -1.72868 0.788461 0
M  V30 1333 H 130.293 -3.85367 -0.492378 0
M  V30 1334 H 131.965 -4.10458 2.10527 0
M  V30 1335 H 130.208 -3.82772 2.04127 0
M  V30 1336 H 130.879 -5.336 1.41332 0
M  V30 1337 H 133.355 -4.15947 -0.112666 0
M  V30 1338 H 132.231 -5.45697 -0.592097 0
M  V30 1339 H 132.492 -4.09391 -1.66887 0
M  V30 1340 N 131.551 -0.354651 -1.53558 0
M  V30 1341 C 132.798 0.238443 -2.01091 0
M  V30 1342 C 133.126 1.49663 -1.24222 0
M  V30 1343 O 132.381 1.93049 -0.321003 0
M  V30 1344 C 132.68 0.587121 -3.52545 0
M  V30 1345 C 132.346 -0.575472 -4.47213 0
M  V30 1346 C 131.008 -0.894497 -4.72813 0
M  V30 1347 C 133.36 -1.35489 -5.03281 0
M  V30 1348 C 130.688 -1.99511 -5.51736 0
M  V30 1349 C 133.04 -2.44583 -5.83405 0
M  V30 1350 C 131.704 -2.77033 -6.07296 0
M  V30 1351 H 130.974 0.0872526 -0.735845 0
M  V30 1352 H 133.621 -0.484859 -1.8526 0
M  V30 1353 H 131.926 1.39129 -3.66265 0
M  V30 1354 H 133.623 1.05809 -3.86789 0
M  V30 1355 H 130.213 -0.316774 -4.27428 0
M  V30 1356 H 134.397 -1.12167 -4.83459 0
M  V30 1357 H 129.653 -2.25063 -5.68469 0
M  V30 1358 H 133.827 -3.05401 -6.25862 0
M  V30 1359 H 131.454 -3.6244 -6.68237 0
M  V30 1360 N 133.029 1.57378 -0.0835403 0
M  V30 1361 C 133.959 2.1641 0.87686 0
M  V30 1362 C 134.94 1.09429 1.30228 0
M  V30 1363 O 136.125 1.37516 1.37124 0
M  V30 1364 C 133.255 2.73517 2.14022 0
M  V30 1365 C 132.209 3.85769 1.85381 0
M  V30 1366 C 131.535 4.29529 3.18448 0
M  V30 1367 C 132.835 5.09486 1.14984 0
M  V30 1368 H 134.529 2.96914 0.385059 0
M  V30 1369 H 132.075 1.42823 0.18377 0
M  V30 1370 H 134.028 3.13463 2.81636 0
M  V30 1371 H 132.752 1.90252 2.65465 0
M  V30 1372 H 131.411 3.46345 1.20169 0
M  V30 1373 H 131.059 3.43169 3.67755 0
M  V30 1374 H 130.759 5.05204 3.00071 0
M  V30 1375 H 132.283 4.72099 3.8724 0
M  V30 1376 H 133.697 5.46674 1.72687 0
M  V30 1377 H 132.094 5.90515 1.06826 0
M  V30 1378 H 133.164 4.84724 0.130749 0
M  V30 1379 N 134.507 -0.190092 1.56449 0
M  V30 1380 C 135.457 -1.23977 1.91347 0
M  V30 1381 C 136.441 -1.40747 0.779693 0
M  V30 1382 O 137.633 -1.43033 1.04262 0
M  V30 1383 C 134.762 -2.58347 2.26079 0
M  V30 1384 C 133.848 -2.4535 3.45925 0
M  V30 1385 N 134.239 -2.02039 4.63696 0
M  V30 1386 C 132.537 -2.76229 3.50162 0
M  V30 1387 C 133.238 -2.01053 5.4585 0
M  V30 1388 N 132.214 -2.42747 4.8639 0
M  V30 1389 H 136.016 -0.896318 2.79899 0
M  V30 1390 H 133.53 -0.398496 1.57435 0
M  V30 1391 H 135.527 -3.34173 2.49267 0
M  V30 1392 H 134.187 -2.93512 1.38856 0
M  V30 1393 H 135.198 -1.7267 4.88268 0
M  V30 1394 H 131.875 -3.15556 2.73369 0
M  V30 1395 H 133.265 -1.69426 6.50188 0
M  V30 1396 N 135.985 -1.50799 -0.457987 0
M  V30 1397 C 136.917 -1.66786 -1.57211 0
M  V30 1398 C 137.93 -0.548962 -1.53265 0
M  V30 1399 O 139.119 -0.8226 -1.58416 0
M  V30 1400 C 136.219 -1.64834 -2.96113 0
M  V30 1401 C 135.392 -2.92971 -3.24787 0
M  V30 1402 C 134.451 -2.83485 -4.43309 0
M  V30 1403 O 133.477 -3.5744 -4.42973 0
M  V30 1404 N 134.679 -1.97929 -5.45714 0
M  V30 1405 H 137.444 -2.62889 -1.43909 0
M  V30 1406 H 135.005 -1.48427 -0.646617 0
M  V30 1407 H 136.997 -1.56084 -3.7339 0
M  V30 1408 H 135.567 -0.764118 -3.03117 0
M  V30 1409 H 134.787 -3.15749 -2.36 0
M  V30 1410 H 136.075 -3.77834 -3.40762 0
M  V30 1411 H 135.473 -1.37182 -5.48815 0
M  V30 1412 H 134.03 -1.95073 -6.21924 0
M  V30 1413 N 137.463 0.71206 -1.40597 0
M  V30 1414 C 138.688 1.50617 -1.42581 0
M  V30 1415 C 139.113 1.88079 -0.0282102 0
M  V30 1416 O 138.471 1.53511 0.964579 0
M  V30 1417 C 138.519 2.7557 -2.3258 0
M  V30 1418 O 137.623 3.72414 -1.77148 0
M  V30 1419 H 136.964 0.453966 -0.484573 0
M  V30 1420 H 139.494 0.876649 -1.84868 0
M  V30 1421 H 139.504 3.2406 -2.47889 0
M  V30 1422 H 138.179 2.47639 -3.34138 0
M  V30 1423 H 136.756 3.31276 -1.71204 0
M  V30 1424 N 138.941 1.26152 0.944643 0
M  V30 1425 C 140.187 1.12665 1.69346 0
M  V30 1426 C 140.542 -0.3273 1.89596 0
M  V30 1427 O 139.835 -1.23717 1.46303 0
M  V30 1428 C 140.029 1.82541 3.07268 0
M  V30 1429 C 139.858 3.34582 3.00475 0
M  V30 1430 C 138.628 4.03863 3.03681 0
M  V30 1431 C 140.826 4.30828 2.80877 0
M  V30 1432 N 138.808 5.42603 2.87151 0
M  V30 1433 C 140.179 5.5672 2.7288 0
M  V30 1434 C 142.234 4.21122 2.65633 0
M  V30 1435 C 140.937 6.74013 2.51196 0
M  V30 1436 C 142.963 5.38118 2.45323 0
M  V30 1437 C 142.325 6.62955 2.38055 0
M  V30 1438 H 138.424 0.467041 0.627214 0
M  V30 1439 H 141.008 1.59391 1.11815 0
M  V30 1440 H 139.179 1.38296 3.62945 0
M  V30 1441 H 140.911 1.61708 3.70989 0
M  V30 1442 H 137.666 3.55198 3.1326 0
M  V30 1443 H 138.09 6.15443 2.82063 0
M  V30 1444 H 142.732 3.25344 2.70021 0
M  V30 1445 H 140.45 7.6989 2.4555 0
M  V30 1446 H 144.036 5.32475 2.34439 0
M  V30 1447 H 142.916 7.51959 2.22546 0
M  V30 1448 N 140.419 -1.14872 1.07899 0
M  V30 1449 C 141.835 -1.37776 0.805606 0
M  V30 1450 C 142.035 -1.92743 -0.587555 0
M  V30 1451 O 141.091 -2.13678 -1.34528 0
M  V30 1452 C 142.404 -2.34361 1.88402 0
M  V30 1453 C 143.952 -2.48012 1.90942 0
M  V30 1454 C 144.427 -3.47893 2.97883 0
M  V30 1455 N 145.918 -3.55433 2.97021 0
M  V30 1456 C 146.653 -4.32553 3.76412 0
M  V30 1457 N 146.149 -5.12959 4.65666 0
M  V30 1458 N 147.942 -4.27697 3.64735 0
M  V30 1459 H 140.093 -0.775365 1.97742 0
M  V30 1460 H 142.356 -0.403521 0.857831 0
M  V30 1461 H 142.062 -2.01098 2.88535 0
M  V30 1462 H 141.936 -3.34206 1.74889 0
M  V30 1463 H 144.323 -2.8057 0.914579 0
M  V30 1464 H 144.404 -1.48147 2.08534 0
M  V30 1465 H 144.048 -3.16069 3.97571 0
M  V30 1466 H 143.978 -4.47527 2.77538 0
M  V30 1467 H 146.469 -2.98048 2.32326 0
M  V30 1468 H 146.782 -5.69065 5.22862 0
M  V30 1469 H 145.127 -5.12245 4.69712 0
M  V30 1470 H 148.318 -3.63949 2.94378 0
M  V30 1471 H 148.491 -4.8755 4.26848 0
M  V30 1472 N 141.898 -0.863906 -1.31812 0
M  V30 1473 C 143.175 -0.39275 -1.91616 0
M  V30 1474 C 143.555 1.12461 -1.7865 0
M  V30 1475 O 142.903 1.95045 -1.19037 0
M  V30 1476 C 143.113 -0.867385 -3.38049 0
M  V30 1477 C 144.461 -0.889966 -4.15168 0
M  V30 1478 O 145.485 -0.812635 -3.46806 0
M  V30 1479 O 144.344 -1.00079 -5.37258 0
M  V30 1480 H 141.438 -0.116358 -0.818773 0
M  V30 1481 H 143.984 -0.951418 -1.40521 0
M  V30 1482 H 142.756 -1.91081 -3.41473 0
M  V30 1483 H 142.379 -0.286687 -3.96565 0
M  V30 1484 N 143.376 1.44774 -0.622745 0
M  V30 1485 C 144.601 2.06999 -0.128968 0
M  V30 1486 C 145.026 1.4617 1.1839 0
M  V30 1487 O 144.384 0.560007 1.72434 0
M  V30 1488 C 144.432 3.60595 -0.0188351 0
M  V30 1489 O 143.536 3.99398 1.02739 0
M  V30 1490 H 142.877 0.659047 -0.0809544 0
M  V30 1491 H 145.407 1.85784 -0.85705 0
M  V30 1492 H 145.417 4.07627 0.174476 0
M  V30 1493 H 144.092 4.04252 -0.977384 0
M  V30 1494 H 142.669 3.64011 0.809326 0
M  V30 1495 N 144.854 0.36279 1.53368 0
M  V30 1496 C 146.27 0.0116182 1.59596 0
M  V30 1497 C 146.47 -1.47012 1.37803 0
M  V30 1498 O 145.526 -2.23136 1.18181 0
M  V30 1499 C 146.839 0.465052 2.97082 0
M  V30 1500 C 148.387 0.419033 3.10182 0
M  V30 1501 C 148.862 0.848235 4.50077 0
M  V30 1502 N 150.353 0.803183 4.56183 0
M  V30 1503 C 151.088 1.107 5.62613 0
M  V30 1504 N 150.584 1.47996 6.76808 0
M  V30 1505 N 152.377 1.02998 5.52583 0
M  V30 1506 H 144.528 1.32775 1.65785 0
M  V30 1507 H 146.791 0.542518 0.777417 0
M  V30 1508 H 146.497 1.49892 3.18159 0
M  V30 1509 H 146.371 -0.149786 3.76902 0
M  V30 1510 H 148.758 -0.605696 2.88817 0
M  V30 1511 H 148.839 1.06933 2.32377 0
M  V30 1512 H 148.483 1.87107 4.7218 0
M  V30 1513 H 148.413 0.175218 5.26308 0
M  V30 1514 H 150.904 0.52838 3.74188 0
M  V30 1515 H 151.217 1.69613 7.53957 0
M  V30 1516 H 149.562 1.51859 6.78206 0
M  V30 1517 H 152.753 0.737817 4.62249 0
M  V30 1518 H 152.926 1.2701 6.35431 0
M  V30 1519 N 146.332 -1.57332 0.0918853 0
M  V30 1520 C 147.262 -2.16872 -0.865371 0
M  V30 1521 C 148.243 -1.10118 -1.29646 0
M  V30 1522 O 149.428 -1.38242 -1.36392 0
M  V30 1523 C 146.558 -2.74649 -2.12569 0
M  V30 1524 C 145.512 -3.86747 -1.83333 0
M  V30 1525 C 144.838 -4.31212 -3.16166 0
M  V30 1526 C 146.138 -5.10089 -1.1228 0
M  V30 1527 H 147.832 -2.97114 -0.369307 0
M  V30 1528 H 145.378 -1.42918 -0.176194 0
M  V30 1529 H 147.331 -3.14952 -2.7997 0
M  V30 1530 H 146.055 -1.91657 -2.64452 0
M  V30 1531 H 144.714 -3.46978 -1.18331 0
M  V30 1532 H 144.362 -3.45115 -3.6593 0
M  V30 1533 H 144.062 -5.06788 -2.97388 0
M  V30 1534 H 145.586 -4.74146 -3.84731 0
M  V30 1535 H 147 -5.47582 -1.69785 0
M  V30 1536 H 145.397 -5.91073 -1.03693 0
M  V30 1537 H 146.467 -4.84786 -0.105041 0
M  V30 1538 N 147.81 0.181792 -1.56548 0
M  V30 1539 C 149.035 0.920019 -1.85877 0
M  V30 1540 C 149.46 1.75494 -0.677021 0
M  V30 1541 O 148.818 1.77399 0.374056 0
M  V30 1542 C 148.866 1.78112 -3.13542 0
M  V30 1543 O 147.97 2.88152 -2.95029 0
M  V30 1544 H 147.311 0.258334 -0.611686 0
M  V30 1545 H 149.841 0.183092 -2.03779 0
M  V30 1546 H 149.851 2.18314 -3.44678 0
M  V30 1547 H 148.526 1.16777 -3.99169 0
M  V30 1548 H 147.103 2.51609 -2.75222 0
M  V30 1549 N 149.288 1.51039 0.449983 0
M  V30 1550 C 150.518 1.66627 1.22143 0
M  V30 1551 C 150.926 0.357776 1.85786 0
M  V30 1552 O 150.269 -0.672424 1.70951 0
M  V30 1553 C 150.331 2.71562 2.35573 0
M  V30 1554 C 149.995 4.14526 1.92399 0
M  V30 1555 C 150.992 4.99717 1.43453 0
M  V30 1556 C 148.677 4.60559 2.00475 0
M  V30 1557 C 150.671 6.28998 1.03155 0
M  V30 1558 C 148.358 5.8984 1.59788 0
M  V30 1559 C 149.356 6.73886 1.11208 0
M  V30 1560 O 149.044 8.0075 0.710935 0
M  V30 1561 H 148.776 0.562635 0.374724 0
M  V30 1562 H 151.33 1.98146 0.541036 0
M  V30 1563 H 149.56 2.3533 3.06849 0
M  V30 1564 H 151.249 2.76156 2.97478 0
M  V30 1565 H 152.015 4.65361 1.36618 0
M  V30 1566 H 147.894 3.95273 2.37235 0
M  V30 1567 H 151.438 6.9455 0.651663 0
M  V30 1568 H 147.335 6.23713 1.66289 0
M  V30 1569 H 148.103 8.142 0.837913 0
M  V30 1570 N 150.766 -0.704594 1.40972 0
M  V30 1571 C 151.714 -1.83994 1.42299 0
M  V30 1572 C 152.708 -1.66684 0.302111 0
M  V30 1573 O 153.914 -1.73655 0.473697 0
M  V30 1574 H 150.289 -0.606171 0.44504 0
M  V30 1575 H 152.26 -1.79992 2.38003 0
M  V30 1576 C 151.009 -3.21946 1.31323 0
M  V30 1577 H 150.332 -3.35878 2.16855 0
M  V30 1578 H 151.772 -4.01491 1.36311 0
M  V30 1579 C 150.231 -3.36891 0.0245977 0
M  V30 1580 O 150.761 -3.90687 -0.934153 0
M  V30 1581 N 148.967 -2.90559 -0.0485243 0
M  V30 1582 H 148.514 -2.46968 0.732419 0
M  V30 1583 H 148.472 -3.00937 -0.910171 0
M  V30 1584 N 152.244 -1.26651 -0.937939 0
M  V30 1585 C 153.194 -1.05156 -2.02302 0
M  V30 1586 C 154.178 0.0171233 -1.60891 0
M  V30 1587 O 155.37 -0.200213 -1.75864 0
M  V30 1588 C 152.499 -0.689962 -3.36295 0
M  V30 1589 C 151.585 -1.79626 -3.84181 0
M  V30 1590 N 151.976 -3.03422 -4.04684 0
M  V30 1591 C 150.274 -1.6806 -4.13124 0
M  V30 1592 C 150.975 -3.75345 -4.444 0
M  V30 1593 N 149.951 -3.03051 -4.51288 0
M  V30 1594 H 153.753 -1.99117 -2.1617 0
M  V30 1595 H 151.267 -1.17216 -1.12402 0
M  V30 1596 H 153.264 -0.517112 -4.13681 0
M  V30 1597 H 151.924 0.242139 -3.23796 0
M  V30 1598 H 152.935 -3.39293 -3.91281 0
M  V30 1599 H 149.612 -0.818629 -4.09396 0
M  V30 1600 H 151.002 -4.81691 -4.68427 0
M  V30 1601 N 153.722 1.14298 -1.08507 0
M  V30 1602 C 154.95 1.89219 -0.836876 0
M  V30 1603 C 155.365 1.78638 0.611054 0
M  V30 1604 O 154.722 1.14643 1.41998 0
M  V30 1605 C 154.773 3.39158 -1.25116 0
M  V30 1606 O 154.494 3.49449 -2.64229 0
M  V30 1607 C 155.995 4.31073 -1.03398 0
M  V30 1608 H 153.215 0.599328 -0.301739 0
M  V30 1609 H 155.759 1.44746 -1.44461 0
M  V30 1610 H 153.914 3.81251 -0.687514 0
M  V30 1611 H 154.328 4.42589 -2.81452 0
M  V30 1612 H 155.802 5.34646 -1.37323 0
M  V30 1613 H 156.279 4.3919 0.0289259 0
M  V30 1614 H 156.885 3.94738 -1.58311 0
M  V30 1615 N 155.201 0.870884 1.31352 0
M  V30 1616 C 156.149 0.316445 2.30437 0
M  V30 1617 C 157.143 -0.568965 1.59559 0
M  V30 1618 O 158.349 -0.454964 1.74155 0
M  V30 1619 H 154.724 0.0836521 0.747333 0
M  V30 1620 H 156.695 1.16606 2.74673 0
M  V30 1621 C 155.444 -0.46635 3.44558 0
M  V30 1622 H 154.767 0.205687 3.99271 0
M  V30 1623 H 156.207 -0.819614 4.16003 0
M  V30 1624 C 154.666 -1.65797 2.9328 0
M  V30 1625 O 155.196 -2.75728 2.92125 0
M  V30 1626 N 153.402 -1.49041 2.4947 0
M  V30 1627 H 152.949 -0.59612 2.50608 0
M  V30 1628 H 152.907 -2.28911 2.15516 0
M  V30 1629 N 156.679 -1.44442 0.630414 0
M  V30 1630 C 157.589 -2.34476 -0.0761693 0
M  V30 1631 C 158.605 -1.52576 -0.836449 0
M  V30 1632 O 159.781 -1.85307 -0.788874 0
M  V30 1633 C 156.846 -3.30545 -1.04599 0
M  V30 1634 C 155.907 -4.28352 -0.28516 0
M  V30 1635 C 155.14 -5.19831 -1.20878 0
M  V30 1636 O 155.363 -5.15223 -2.44747 0
M  V30 1637 O 154.297 -5.97892 -0.693491 0
M  V30 1638 H 158.123 -2.96345 0.664324 0
M  V30 1639 H 155.708 -1.44203 0.39061 0
M  V30 1640 H 157.59 -3.89681 -1.60396 0
M  V30 1641 H 156.265 -2.7121 -1.76711 0
M  V30 1642 H 155.172 -3.72764 0.315837 0
M  V30 1643 H 156.505 -4.90605 0.395924 0
M  V30 1644 N 158.157 -0.370918 -1.53173 0
M  V30 1645 C 159.385 0.217704 -2.05751 0
M  V30 1646 C 159.8 1.42018 -1.24404 0
M  V30 1647 O 159.157 1.80245 -0.286033 0
M  V30 1648 C 159.208 0.605954 -3.56385 0
M  V30 1649 O 158.929 -0.548734 -4.3465 0
M  V30 1650 C 160.43 1.2524 -4.25241 0
M  V30 1651 H 157.65 0.0371659 -0.66997 0
M  V30 1652 H 160.194 -0.530832 -1.9749 0
M  V30 1653 H 158.349 1.3044 -3.6478 0
M  V30 1654 H 158.763 -0.23376 -5.23979 0
M  V30 1655 H 160.237 1.47458 -5.3194 0
M  V30 1656 H 160.714 2.2143 -3.79296 0
M  V30 1657 H 161.32 0.595233 -4.21114 0
M  V30 1658 N 159.635 1.57281 -0.100228 0
M  V30 1659 C 160.565 2.17328 0.853857 0
M  V30 1660 C 161.546 1.10804 1.2906 0
M  V30 1661 O 162.731 1.38963 1.35657 0
M  V30 1662 C 159.861 2.75772 2.11109 0
M  V30 1663 C 158.815 3.87713 1.81279 0
M  V30 1664 C 158.141 4.32882 3.13874 0
M  V30 1665 C 159.441 5.10677 1.09574 0
M  V30 1666 H 161.135 2.97305 0.353545 0
M  V30 1667 H 158.681 1.43009 0.168612 0
M  V30 1668 H 160.634 3.16433 2.78296 0
M  V30 1669 H 159.358 1.93057 2.63432 0
M  V30 1670 H 158.017 3.476 1.16489 0
M  V30 1671 H 157.665 3.47051 3.64095 0
M  V30 1672 H 157.365 5.08358 2.94696 0
M  V30 1673 H 158.889 4.7618 3.82211 0
M  V30 1674 H 160.303 5.48474 1.66879 0
M  V30 1675 H 158.7 5.91615 1.00557 0
M  V30 1676 H 159.77 4.84835 0.0793299 0
M  V30 1677 N 161.113 -0.173488 1.56642 0
M  V30 1678 C 162.361 -0.888706 1.81512 0
M  V30 1679 C 162.682 -1.82875 0.676872 0
M  V30 1680 O 161.952 -1.93536 -0.303414 0
M  V30 1681 H 160.532 -0.331164 0.669582 0
M  V30 1682 H 163.194 -0.173823 1.94123 0
M  V30 1683 H 162.29 -1.46691 2.75478 0
M  V30 1684 N 162.591 -1.51276 -0.441967 0
M  V30 1685 C 163.521 -1.752 -1.54361 0
M  V30 1686 C 164.502 -0.601682 -1.59103 0
M  V30 1687 O 165.687 -0.843913 -1.74905 0
M  V30 1688 C 162.817 -1.87282 -2.92477 0
M  V30 1689 C 161.771 -3.02687 -3.02596 0
M  V30 1690 C 161.097 -2.99947 -4.42647 0
M  V30 1691 C 162.397 -4.4273 -2.77106 0
M  V30 1692 H 164.091 -2.67442 -1.34592 0
M  V30 1693 H 161.637 -1.28694 -0.646048 0
M  V30 1694 H 163.59 -2.02602 -3.695 0
M  V30 1695 H 162.314 -0.916844 -3.13467 0
M  V30 1696 H 160.973 -2.87065 -2.28012 0
M  V30 1697 H 160.621 -2.02136 -4.60597 0
M  V30 1698 H 160.321 -3.77439 -4.50348 0
M  V30 1699 H 161.845 -3.17354 -5.2165 0
M  V30 1700 H 163.259 -4.58727 -3.43864 0
M  V30 1701 H 161.656 -5.21893 -2.96222 0
M  V30 1702 H 162.726 -4.53087 -1.72744 0
M  V30 1703 N 164.069 0.697108 -1.41344 0
M  V30 1704 C 165.346 1.45154 -1.31109 0
M  V30 1705 C 165.726 2.11009 0.0620449 0
M  V30 1706 O 165.074 2.01571 1.07618 0
M  V30 1707 C 165.284 2.47223 -2.46337 0
M  V30 1708 C 166.632 3.1252 -2.87431 0
M  V30 1709 O 167.656 2.57547 -2.46065 0
M  V30 1710 O 166.515 4.12083 -3.58957 0
M  V30 1711 H 163.609 0.646365 -0.515889 0
M  V30 1712 H 166.155 0.727716 -1.53305 0
M  V30 1713 H 164.927 1.97204 -3.37974 0
M  V30 1714 H 164.55 3.27116 -2.2601 0
M  V30 1715 N 165.547 1.27147 0.931209 0
M  V30 1716 C 166.772 1.16191 1.71797 0
M  V30 1717 C 167.197 -0.278004 1.86034 0
M  V30 1718 O 166.555 -1.20137 1.35782 0
M  V30 1719 C 166.603 1.84673 3.09723 0
M  V30 1720 O 165.707 1.14231 3.96264 0
M  V30 1721 H 165.048 0.404303 0.526721 0
M  V30 1722 H 167.578 1.68152 1.1656 0
M  V30 1723 H 167.588 1.91893 3.60057 0
M  V30 1724 H 166.263 2.89421 2.98677 0
M  V30 1725 H 164.84 1.15056 3.54706 0
M  V30 1726 N 167.025 -1.13721 1.09112 0
M  V30 1727 C 168.441 -1.36914 0.820174 0
M  V30 1728 C 168.641 -1.93356 -0.567079 0
M  V30 1729 O 167.697 -2.15093 -1.32255 0
M  V30 1730 C 169.01 -2.3235 1.90877 0
M  V30 1731 C 170.558 -2.45973 1.93562 0
M  V30 1732 C 171.033 -3.44714 3.01556 0
M  V30 1733 N 172.524 -3.52263 3.00775 0
M  V30 1734 C 173.259 -4.28536 3.80978 0
M  V30 1735 N 172.755 -5.07991 4.71081 0
M  V30 1736 N 174.548 -4.23804 3.69251 0
M  V30 1737 H 166.699 -0.754348 1.98553 0
M  V30 1738 H 168.962 -0.3944 0.862063 0
M  V30 1739 H 168.668 -1.98027 2.90651 0
M  V30 1740 H 168.542 -3.32332 1.78424 0
M  V30 1741 H 170.929 -2.79584 0.944286 0
M  V30 1742 H 171.01 -1.45926 2.10093 0
M  V30 1743 H 170.654 -3.11835 4.00901 0
M  V30 1744 H 170.584 -4.44558 2.82269 0
M  V30 1745 H 173.075 -2.95567 2.35475 0
M  V30 1746 H 173.388 -5.63487 5.28869 0
M  V30 1747 H 171.733 -5.07235 4.75119 0
M  V30 1748 H 174.924 -3.60806 2.98222 0
M  V30 1749 H 175.097 -4.82995 4.31995 0
M  V30 1750 N 168.503 -0.877838 -1.30888 0
M  V30 1751 C 169.75 -0.492696 -1.96415 0
M  V30 1752 C 170.078 0.956671 -1.69346 0
M  V30 1753 O 169.333 1.68993 -0.986913 0
M  V30 1754 C 169.632 -0.705748 -3.50363 0
M  V30 1755 C 169.298 -2.1291 -3.97467 0
M  V30 1756 C 167.96 -2.51834 -4.1004 0
M  V30 1757 C 170.312 -3.05702 -4.22132 0
M  V30 1758 C 167.64 -3.82775 -4.44635 0
M  V30 1759 C 169.992 -4.36166 -4.58194 0
M  V30 1760 C 168.656 -4.74993 -4.68975 0
M  V30 1761 H 167.926 -0.18029 -0.718733 0
M  V30 1762 H 170.573 -1.11233 -1.55883 0
M  V30 1763 H 168.878 -0.00303058 -3.918 0
M  V30 1764 H 170.575 -0.387456 -3.99124 0
M  V30 1765 H 167.165 -1.81694 -3.88182 0
M  V30 1766 H 171.349 -2.76853 -4.11906 0
M  V30 1767 H 166.605 -4.12609 -4.51181 0
M  V30 1768 H 170.779 -5.08111 -4.76231 0
M  V30 1769 H 168.406 -5.76495 -4.95537 0
M  V30 1770 N 169.982 1.44106 -0.638065 0
M  V30 1771 C 171.228 2.02277 -0.145546 0
M  V30 1772 C 171.561 1.50125 1.23191 0
M  V30 1773 O 170.836 0.688133 1.8192 0
M  V30 1774 C 171.119 3.59829 -0.139791 0
M  V30 1775 C 170.972 4.22247 -1.55008 0
M  V30 1776 C 172.291 4.36873 0.531966 0
M  V30 1777 H 169.41 0.734992 -0.0543632 0
M  V30 1778 H 172.052 1.71592 -0.815863 0
M  V30 1779 H 170.202 3.86102 0.431007 0
M  V30 1780 H 171.874 4.07057 -2.1703 0
M  V30 1781 H 170.117 3.79476 -2.10191 0
M  V30 1782 H 170.788 5.31284 -1.49804 0
M  V30 1783 H 173.264 4.16074 0.0464781 0
M  V30 1784 H 172.14 5.4657 0.505206 0
M  V30 1785 H 172.401 4.11995 1.60352 0
M  V30 1786 N 171.46 0.379036 1.52974 0
M  V30 1787 C 172.737 -0.263479 1.93817 0
M  V30 1788 C 173.117 -1.65244 1.31368 0
M  V30 1789 O 172.465 -2.23448 0.477856 0
M  V30 1790 C 172.675 -0.300166 3.47707 0
M  V30 1791 C 174.023 -0.534061 4.21228 0
M  V30 1792 O 175.047 -0.38081 3.54159 0
M  V30 1793 O 173.906 -0.833501 5.40106 0
M  V30 1794 H 171 -0.161149 0.811147 0
M  V30 1795 H 173.546 0.432798 1.64088 0
M  V30 1796 H 172.318 0.673138 3.85467 0
M  V30 1797 H 171.941 -1.04179 3.83709 0
M  V30 1798 N 172.938 -1.57226 0.108567 0
M  V30 1799 C 173.885 -2.14756 -0.845481 0
M  V30 1800 C 174.855 -1.06971 -1.27068 0
M  V30 1801 O 176.04 -1.34827 -1.35005 0
M  V30 1802 C 173.18 -2.74298 -2.09415 0
M  V30 1803 C 172.293 -3.96358 -1.71826 0
M  V30 1804 C 171.428 -4.44021 -2.9158 0
M  V30 1805 C 170.467 -5.58637 -2.50181 0
M  V30 1806 N 169.604 -6.01091 -3.62814 0
M  V30 1807 H 174.444 -2.95961 -0.348035 0
M  V30 1808 H 171.981 -1.46226 -0.160106 0
M  V30 1809 H 173.939 -3.06945 -2.82561 0
M  V30 1810 H 172.569 -1.95801 -2.56636 0
M  V30 1811 H 171.621 -3.69939 -0.885947 0
M  V30 1812 H 172.933 -4.79504 -1.37394 0
M  V30 1813 H 172.087 -4.78522 -3.72963 0
M  V30 1814 H 170.826 -3.59803 -3.29231 0
M  V30 1815 H 169.831 -5.23751 -1.67228 0
M  V30 1816 H 171.056 -6.44613 -2.13659 0
M  V30 1817 H 169.002 -5.19817 -4.00158 0
M  V30 1818 H 168.919 -6.79066 -3.32273 0
M  V30 1819 H 170.187 -6.40227 -4.44668 0
M  V30 1820 N 174.416 0.165178 -1.56732 0
M  V30 1821 C 175.346 1.20651 -1.99914 0
M  V30 1822 C 176.327 1.45827 -0.875705 0
M  V30 1823 O 177.512 1.57057 -1.14223 0
M  V30 1824 C 174.642 2.54401 -2.36427 0
M  V30 1825 C 173.596 2.43782 -3.51787 0
M  V30 1826 C 172.922 3.82078 -3.7406 0
M  V30 1827 C 174.222 1.93732 -4.85041 0
M  V30 1828 H 175.916 0.847534 -2.87154 0
M  V30 1829 H 173.462 0.40625 -1.38151 0
M  V30 1830 H 175.415 3.27458 -2.65234 0
M  V30 1831 H 174.139 2.92098 -1.46103 0
M  V30 1832 H 172.798 1.73178 -3.23117 0
M  V30 1833 H 172.446 4.17179 -2.81017 0
M  V30 1834 H 172.146 3.7584 -4.51684 0
M  V30 1835 H 173.67 4.56712 -4.05274 0
M  V30 1836 H 175.084 2.56569 -5.12684 0
M  V30 1837 H 173.481 1.98428 -5.66345 0
M  V30 1838 H 174.551 0.891962 -4.76626 0
M  V30 1839 N 175.894 1.51508 0.433938 0
M  V30 1840 C 177.14 1.65549 1.18173 0
M  V30 1841 C 177.495 0.368751 1.88833 0
M  V30 1842 O 176.788 -0.635616 1.8075 0
M  V30 1843 C 176.982 2.79928 2.22205 0
M  V30 1844 C 176.811 4.19601 1.61756 0
M  V30 1845 C 175.581 4.85489 1.40101 0
M  V30 1846 C 177.779 5.02574 1.09194 0
M  V30 1847 N 175.761 6.09266 0.752859 0
M  V30 1848 C 177.132 6.17381 0.569255 0
M  V30 1849 C 179.187 4.88079 0.984025 0
M  V30 1850 C 177.89 7.19282 -0.0507472 0
M  V30 1851 C 179.916 5.90191 0.377912 0
M  V30 1852 C 179.278 7.04272 -0.134216 0
M  V30 1853 H 175.377 0.659653 0.419979 0
M  V30 1854 H 177.961 1.88746 0.477818 0
M  V30 1855 H 176.132 2.5839 2.89982 0
M  V30 1856 H 177.864 2.83132 2.89168 0
M  V30 1857 H 174.619 4.43417 1.66369 0
M  V30 1858 H 175.043 6.75528 0.446123 0
M  V30 1859 H 179.685 4.00131 1.36583 0
M  V30 1860 H 177.403 8.06876 -0.444676 0
M  V30 1861 H 180.989 5.81045 0.296269 0
M  V30 1862 H 179.869 7.81933 -0.59585 0
M  V30 1863 N 177.372 -0.689602 1.41712 0
M  V30 1864 C 178.302 -1.81577 1.46806 0
M  V30 1865 C 179.283 -1.66945 0.326105 0
M  V30 1866 O 180.468 -1.86588 0.538377 0
M  V30 1867 C 177.598 -3.19762 1.35535 0
M  V30 1868 C 176.552 -3.49107 2.47605 0
M  V30 1869 C 175.878 -4.86711 2.21397 0
M  V30 1870 C 177.178 -3.47483 3.89939 0
M  V30 1871 H 178.872 -1.7757 2.41058 0
M  V30 1872 H 176.418 -0.852887 1.16025 0
M  V30 1873 H 178.371 -3.98263 1.3771 0
M  V30 1874 H 177.095 -3.24409 0.377708 0
M  V30 1875 H 175.754 -2.72959 2.44722 0
M  V30 1876 H 175.402 -4.8799 1.21961 0
M  V30 1877 H 175.102 -5.0731 2.96497 0
M  V30 1878 H 176.626 -5.67515 2.25297 0
M  V30 1879 H 178.04 -4.1598 3.94505 0
M  V30 1880 H 176.437 -3.79615 4.64771 0
M  V30 1881 H 177.507 -2.46341 4.17665 0
M  V30 1882 N 178.85 -1.27639 -0.924453 0
M  V30 1883 C 180.261 -1.12834 -1.48746 0
M  V30 1884 C 180.612 0.285505 -1.94112 0
M  V30 1885 O 179.737 1.17874 -1.81479 0
M  V30 1886 C 180.332 -2.04217 -2.70334 0
M  V30 1887 C 178.891 -1.93509 -3.22848 0
M  V30 1888 C 178.038 -1.96583 -1.95577 0
M  V30 1889 H 180.989 -1.40484 -0.738233 0
M  V30 1890 H 181.01 -1.59989 -3.4523 0
M  V30 1891 H 180.522 -3.07111 -2.37285 0
M  V30 1892 H 178.623 -0.936131 -3.60649 0
M  V30 1893 H 178.736 -2.79917 -3.88823 0
M  V30 1894 H 177.1 -1.4085 -2.12211 0
M  V30 1895 H 177.883 -3.01137 -1.64837 0
M  V30 1896 N 180.328 1.1314 -1.09713 0
M  V30 1897 C 181.605 1.80762 -0.747302 0
M  V30 1898 C 181.985 1.96663 0.767265 0
M  V30 1899 O 181.333 1.53706 1.69076 0
M  V30 1900 C 181.543 3.15606 -1.48975 0
M  V30 1901 C 182.891 3.90914 -1.65746 0
M  V30 1902 O 183.915 3.25239 -1.45251 0
M  V30 1903 O 182.774 5.08718 -1.9967 0
M  V30 1904 H 179.868 0.782103 -0.268782 0
M  V30 1905 H 182.414 1.20041 -1.19951 0
M  V30 1906 H 181.186 2.99278 -2.52088 0
M  V30 1907 H 180.809 3.84029 -1.02991 0
M  V30 1908 N 181.806 0.884767 1.30421 0
M  V30 1909 C 183.034 0.518044 2.0031 0
M  V30 1910 C 183.449 -0.893408 1.66324 0
M  V30 1911 O 182.806 -1.5875 0.900262 0
M  V30 1912 C 182.857 0.682997 3.54989 0
M  V30 1913 O 182.578 2.03888 3.87764 0
M  V30 1914 C 184.079 0.31924 4.42149 0
M  V30 1915 H 181.299 0.200265 0.640418 0
M  V30 1916 H 183.843 1.19001 1.6631 0
M  V30 1917 H 181.998 0.0584052 3.87356 0
M  V30 1918 H 182.412 2.05735 4.82466 0
M  V30 1919 H 183.886 0.485555 5.4986 0
M  V30 1920 H 184.363 -0.742717 4.32875 0
M  V30 1921 H 184.969 0.920147 4.15227 0
M  V30 1922 N 183.284 -1.43765 0.645699 0
M  V30 1923 C 184.531 -2.01898 0.15604 0
M  V30 1924 C 184.859 -1.50887 -1.22733 0
M  V30 1925 O 184.114 -0.689271 -1.8316 0
M  V30 1926 C 184.413 -3.57238 0.107679 0
M  V30 1927 C 184.079 -4.27564 1.43178 0
M  V30 1928 C 182.741 -4.46492 1.7944 0
M  V30 1929 C 185.093 -4.67454 2.30513 0
M  V30 1930 C 182.421 -5.02573 3.02716 0
M  V30 1931 C 184.773 -5.24901 3.53074 0
M  V30 1932 C 183.437 -5.42046 3.89541 0
M  V30 1933 H 182.707 -0.738797 0.057099 0
M  V30 1934 H 185.354 -1.72341 0.834912 0
M  V30 1935 H 183.659 -3.86293 -0.654618 0
M  V30 1936 H 185.356 -3.99965 -0.287938 0
M  V30 1937 H 181.946 -4.13171 1.13963 0
M  V30 1938 H 186.13 -4.5253 2.0379 0
M  V30 1939 H 181.386 -5.14033 3.31028 0
M  V30 1940 H 185.56 -5.54758 4.20971 0
M  V30 1941 H 183.187 -5.85268 4.85145 0
M  V30 1942 N 184.763 -0.387143 -1.52771 0
M  V30 1943 C 186.012 0.19697 -2.00736 0
M  V30 1944 C 186.325 1.48082 -1.27793 0
M  V30 1945 O 187.531 2.14485 -1.66458 0
M  V30 1946 C 185.987 0.401568 -3.57653 0
M  V30 1947 C 185.595 -0.868907 -4.39493 0
M  V30 1948 C 187.339 0.942164 -4.13912 0
M  V30 1949 C 185.246 -0.632705 -5.88006 0
M  V30 1950 H 184.176 0.0773827 -0.750019 0
M  V30 1951 H 186.827 -0.50921 -1.76293 0
M  V30 1952 H 185.209 1.16954 -3.78335 0
M  V30 1953 H 186.383 -1.64133 -4.30577 0
M  V30 1954 H 184.698 -1.33429 -3.94443 0
M  V30 1955 H 187.295 1.13455 -5.22525 0
M  V30 1956 H 187.638 1.9106 -3.69867 0
M  V30 1957 H 188.171 0.233814 -3.97112 0
M  V30 1958 H 184.91 -1.57208 -6.36369 0
M  V30 1959 H 184.43 0.100825 -5.99715 0
M  V30 1960 H 186.109 -0.26642 -6.46451 0
M  V30 1961 N 186.241 1.57166 -0.116904 0
M  V30 1962 C 187.487 1.95412 0.542405 0
M  V30 1963 C 187.82 1.00019 1.66463 0
M  V30 1964 O 187.095 0.0370346 1.94465 0
M  V30 1965 C 187.378 3.43615 1.07708 0
M  V30 1966 C 187.231 4.49781 -0.0415868 0
M  V30 1967 C 188.55 3.93616 1.96861 0
M  V30 1968 H 185.669 0.710543 0.195696 0
M  V30 1969 H 188.311 1.89027 -0.192038 0
M  V30 1970 H 186.461 3.49187 1.70296 0
M  V30 1971 H 188.133 4.56308 -0.676793 0
M  V30 1972 H 186.376 4.28033 -0.705019 0
M  V30 1973 H 187.047 5.50733 0.373717 0
M  V30 1974 H 189.523 3.90335 1.44146 0
M  V30 1975 H 188.399 4.97838 2.3119 0
M  V30 1976 H 188.66 3.34188 2.89432 0
M  V30 1977 N 187.719 -0.156864 1.56817 0
M  V30 1978 C 188.667 -1.21319 1.98455 0
M  V30 1979 C 189.661 -1.45025 0.875444 0
M  V30 1980 O 190.867 -1.45435 1.0606 0
M  V30 1981 H 187.242 -0.408142 0.631605 0
M  V30 1982 H 189.213 -0.835244 2.86472 0
M  V30 1983 C 187.962 -2.54148 2.37285 0
M  V30 1984 H 187.285 -2.36733 3.22176 0
M  V30 1985 H 188.725 -3.26712 2.70251 0
M  V30 1986 C 187.184 -3.13967 1.22173 0
M  V30 1987 O 187.714 -3.98357 0.517149 0
M  V30 1988 N 185.92 -2.7327 0.988536 0
M  V30 1989 H 185.467 -2.04744 1.56326 0
M  V30 1990 H 185.425 -3.13628 0.220209 0
M  V30 1991 N 189.197 -1.51736 -0.425897 0
M  V30 1992 C 190.16 -1.73271 -1.50032 0
M  V30 1993 C 191.16 -0.602639 -1.4908 0
M  V30 1994 O 192.35 -0.87033 -1.509 0
M  V30 1995 C 189.482 -1.79969 -2.89523 0
M  V30 1996 H 190.675 -2.69172 -1.32237 0
M  V30 1997 H 188.228 -1.41899 -0.65532 0
M  V30 1998 H 188.963 -0.859241 -3.1271 0
M  V30 1999 H 188.748 -2.62109 -2.91619 0
M  V30 2000 H 190.238 -1.9843 -3.67444 0
M  V30 2001 N 190.675 0.682077 -1.42076 0
M  V30 2002 C 191.622 1.79578 -1.44984 0
M  V30 2003 C 192.592 1.6332 -0.302614 0
M  V30 2004 O 193.777 1.83978 -0.505633 0
M  V30 2005 C 190.917 3.1756 -1.35091 0
M  V30 2006 C 190.03 3.45156 -2.59791 0
M  V30 2007 C 189.165 4.72826 -2.42093 0
M  V30 2008 C 188.204 4.93433 -3.62202 0
M  V30 2009 N 187.341 6.12338 -3.43491 0
M  V30 2010 H 192.181 1.76427 -2.40161 0
M  V30 2011 H 189.718 0.861376 -1.19242 0
M  V30 2012 H 191.676 3.97287 -1.27354 0
M  V30 2013 H 190.306 3.19854 -0.435133 0
M  V30 2014 H 189.358 2.59736 -2.77923 0
M  V30 2015 H 190.67 3.5628 -3.49094 0
M  V30 2016 H 189.824 5.60631 -2.319 0
M  V30 2017 H 188.563 4.63973 -1.50268 0
M  V30 2018 H 187.568 4.04073 -3.72834 0
M  V30 2019 H 188.793 5.04136 -4.54998 0
M  V30 2020 H 186.739 6.04672 -2.54377 0
M  V30 2021 H 186.656 6.2429 -4.26377 0
M  V30 2022 H 187.924 7.02841 -3.37097 0
M  V30 2023 N 192.153 1.28127 0.917671 0
M  V30 2024 C 193.378 1.18007 1.70555 0
M  V30 2025 C 193.803 -0.258257 1.86319 0
M  V30 2026 O 193.161 -1.1869 1.37049 0
M  V30 2027 C 193.209 1.87948 3.07746 0
M  V30 2028 O 192.313 1.18427 3.9503 0
M  V30 2029 H 191.654 0.409867 0.522403 0
M  V30 2030 H 194.184 1.69379 1.1477 0
M  V30 2031 H 194.194 1.95701 3.58001 0
M  V30 2032 H 192.869 2.92573 2.95591 0
M  V30 2033 H 191.446 1.18811 3.53466 0
M  V30 2034 N 193.631 -1.12557 1.10312 0
M  V30 2035 C 194.594 -2.16434 0.75424 0
M  V30 2036 C 195.594 -1.59278 -0.220685 0
M  V30 2037 O 196.784 -1.742 0.00230591 0
M  V30 2038 C 193.916 -3.40699 0.116987 0
M  V30 2039 H 195.109 -2.48811 1.67431 0
M  V30 2040 H 192.662 -1.27542 0.903475 0
M  V30 2041 H 193.397 -3.13921 -0.813877 0
M  V30 2042 H 193.182 -3.83459 0.818613 0
M  V30 2043 H 194.672 -4.17451 -0.111387 0
M  V30 2044 N 195.109 -0.891671 -1.2995 0
M  V30 2045 C 196.355 -0.523649 -1.96544 0
M  V30 2046 C 196.71 0.918394 -1.69066 0
M  V30 2047 O 196.003 1.64122 -0.988659 0
M  V30 2048 C 196.197 -0.742868 -3.49594 0
M  V30 2049 C 196.026 -2.20467 -3.9195 0
M  V30 2050 C 194.796 -2.85055 -4.17219 0
M  V30 2051 C 196.994 -3.17912 -4.04273 0
M  V30 2052 N 194.976 -4.21762 -4.46083 0
M  V30 2053 C 196.347 -4.39712 -4.37097 0
M  V30 2054 C 198.402 -3.1361 -3.86721 0
M  V30 2055 C 197.105 -5.5776 -4.54199 0
M  V30 2056 C 199.131 -4.30936 -4.05028 0
M  V30 2057 C 198.493 -5.51504 -4.38204 0
M  V30 2058 H 194.592 -0.241072 -0.743914 0
M  V30 2059 H 197.176 -1.15081 -1.5705 0
M  V30 2060 H 195.347 -0.14515 -3.88129 0
M  V30 2061 H 197.079 -0.341081 -4.0326 0
M  V30 2062 H 193.834 -2.35889 -4.10674 0
M  V30 2063 H 194.258 -4.92382 -4.64638 0
M  V30 2064 H 198.9 -2.21489 -3.60142 0
M  V30 2065 H 196.618 -6.50379 -4.79618 0
M  V30 2066 H 200.204 -4.29085 -3.92909 0
M  V30 2067 H 199.084 -6.40778 -4.52077 0
M  V30 2068 N 196.587 1.43421 -0.653314 0
M  V30 2069 C 197.834 2.01812 -0.166745 0
M  V30 2070 C 198.162 1.51535 1.21931 0
M  V30 2071 O 197.417 0.698975 1.82792 0
M  V30 2072 C 197.716 3.57176 -0.126623 0
M  V30 2073 C 197.382 4.26798 -1.45444 0
M  V30 2074 C 196.044 4.45534 -1.81805 0
M  V30 2075 C 198.396 4.66225 -2.32989 0
M  V30 2076 C 195.724 5.00961 -3.05377 0
M  V30 2077 C 198.076 5.23021 -3.55853 0
M  V30 2078 C 196.74 5.39973 -3.9241 0
M  V30 2079 H 196.01 0.738484 -0.0610162 0
M  V30 2080 H 198.657 1.71896 -0.84404 0
M  V30 2081 H 196.962 3.86634 0.634123 0
M  V30 2082 H 198.659 4.00112 0.266723 0
M  V30 2083 H 195.249 4.12561 -1.16153 0
M  V30 2084 H 199.433 4.51443 -2.06187 0
M  V30 2085 H 194.689 5.12271 -3.3375 0
M  V30 2086 H 198.863 5.52518 -4.23907 0
M  V30 2087 H 196.49 5.82687 -4.88242 0
M  V30 2088 N 198.065 0.39524 1.52563 0
M  V30 2089 C 199.015 -0.4541 2.23432 0
M  V30 2090 C 199.999 -1.02482 1.24042 0
M  V30 2091 O 201.191 -0.949938 1.49349 0
M  V30 2092 C 198.32 -1.57769 3.049 0
M  V30 2093 C 197.406 -1.01842 4.1169 0
M  V30 2094 N 197.797 -0.184613 5.05463 0
M  V30 2095 C 196.095 -1.29033 4.26927 0
M  V30 2096 C 196.796 0.125013 5.81566 0
M  V30 2097 N 195.772 -0.480498 5.41472 0
M  V30 2098 H 199.574 0.189413 2.93289 0
M  V30 2099 H 197.088 0.204877 1.61102 0
M  V30 2100 H 199.085 -2.19862 3.54212 0
M  V30 2101 H 197.745 -2.22397 2.36579 0
M  V30 2102 H 198.756 0.178602 5.17592 0
M  V30 2103 H 195.433 -1.93721 3.69836 0
M  V30 2104 H 196.823 0.800962 6.67109 0
M  V30 2105 N 199.544 -1.57102 0.125237 0
M  V30 2106 C 200.821 -1.86953 -0.575142 0
M  V30 2107 C 201.201 -1.02749 -1.84407 0
M  V30 2108 O 200.549 -0.108144 -2.28244 0
M  V30 2109 C 200.759 -3.38198 -0.861583 0
M  V30 2110 C 202.107 -4.06937 -1.21192 0
M  V30 2111 O 203.131 -3.43252 -0.951645 0
M  V30 2112 O 201.99 -5.19364 -1.70068 0
M  V30 2113 H 199.084 -0.774147 -0.290906 0
M  V30 2114 H 201.63 -1.68942 0.160211 0
M  V30 2115 H 200.402 -3.91282 0.0373647 0
M  V30 2116 H 200.025 -3.61661 -1.65188 0
M  V30 2117 N 201.022 0.148545 -1.56898 0
M  V30 2118 C 202.268 0.862694 -1.83536 0
M  V30 2119 C 202.601 1.80889 -0.706604 0
M  V30 2120 O 201.876 1.92328 0.289885 0
M  V30 2121 C 202.159 1.63853 -3.20662 0
M  V30 2122 C 202.012 0.713925 -4.44098 0
M  V30 2123 C 203.331 2.60133 -3.54991 0
M  V30 2124 H 200.45 0.312179 -0.667618 0
M  V30 2125 H 203.092 0.127953 -1.89569 0
M  V30 2126 H 201.242 2.26489 -3.1565 0
M  V30 2127 H 202.914 0.098686 -4.61194 0
M  V30 2128 H 201.157 0.0234019 -4.33794 0
M  V30 2129 H 201.828 1.29278 -5.36648 0
M  V30 2130 H 204.304 2.07616 -3.60603 0
M  V30 2131 H 203.18 3.11468 -4.51972 0
M  V30 2132 H 203.441 3.41417 -2.80868 0
M  V30 2133 N 202.5 1.5196 0.417844 0
M  V30 2134 C 203.728 1.69426 1.18753 0
M  V30 2135 C 204.143 0.399955 1.84515 0
M  V30 2136 O 203.5 -0.623288 1.71527 0
M  V30 2137 C 203.551 2.82375 2.25714 0
M  V30 2138 O 203.272 4.06793 1.62638 0
M  V30 2139 C 204.773 3.11277 3.15628 0
M  V30 2140 H 201.993 0.568031 0.357186 0
M  V30 2141 H 204.537 1.98475 0.49273 0
M  V30 2142 H 202.692 2.5587 2.90877 0
M  V30 2143 H 203.106 4.69667 2.3348 0
M  V30 2144 H 204.58 3.93843 3.86771 0
M  V30 2145 H 205.057 2.24473 3.77503 0
M  V30 2146 H 205.663 3.39515 2.56144 0
M  V30 2147 N 203.978 -0.674533 1.42435 0
M  V30 2148 C 205.224 -1.43671 1.43131 0
M  V30 2149 C 205.557 -1.94142 0.0476021 0
M  V30 2150 O 204.832 -1.70924 -0.928188 0
M  V30 2151 C 205.115 -2.63355 2.45594 0
M  V30 2152 C 204.968 -2.18514 3.93156 0
M  V30 2153 C 206.287 -3.65571 2.45043 0
M  V30 2154 H 203.406 -0.521077 0.521198 0
M  V30 2155 H 206.048 -0.766551 1.7385 0
M  V30 2156 H 204.198 -3.2053 2.19528 0
M  V30 2157 H 205.87 -1.66504 4.30202 0
M  V30 2158 H 204.113 -1.50086 4.07009 0
M  V30 2159 H 204.784 -3.04484 4.60428 0
M  V30 2160 H 207.26 -3.18113 2.68223 0
M  V30 2161 H 206.136 -4.46893 3.18713 0
M  V30 2162 H 206.397 -4.16716 1.47649 0
M  V30 2163 N 205.456 -1.28612 -0.910864 0
M  V30 2164 C 206.366 -1.14643 -2.0468 0
M  V30 2165 C 207.382 -0.0723121 -1.7385 0
M  V30 2166 O 208.558 -0.282178 -1.99413 0
M  V30 2167 C 205.623 -0.812561 -3.37044 0
M  V30 2168 C 204.684 -1.96935 -3.81465 0
M  V30 2169 C 203.917 -1.65131 -5.07511 0
M  V30 2170 O 204.14 -0.567013 -5.67575 0
M  V30 2171 O 203.074 -2.49585 -5.47714 0
M  V30 2172 H 206.9 -2.1001 -2.19384 0
M  V30 2173 H 204.485 -1.07958 -1.03274 0
M  V30 2174 H 206.367 -0.640441 -4.16505 0
M  V30 2175 H 205.042 0.111426 -3.23508 0
M  V30 2176 H 203.949 -2.19664 -3.02818 0
M  V30 2177 H 205.282 -2.87414 -3.99567 0
M  V30 2178 N 206.934 1.1197 -1.10907 0
M  V30 2179 C 207.882 2.19927 -0.757303 0
M  V30 2180 C 208.876 1.67564 0.248747 0
M  V30 2181 O 210.082 1.79672 0.108605 0
M  V30 2182 H 206.457 0.716925 -0.226987 0
M  V30 2183 H 208.428 2.46847 -1.67658 0
M  V30 2184 C 207.177 3.47061 -0.210671 0
M  V30 2185 H 206.5 3.87703 -0.976049 0
M  V30 2186 H 207.94 4.24 -0.0026584 0
M  V30 2187 C 206.399 3.19864 1.05777 0
M  V30 2188 O 206.929 3.40049 2.13845 0
M  V30 2189 N 205.135 2.73636 0.978349 0
M  V30 2190 H 204.682 2.5741 0.0988246 0
M  V30 2191 H 204.64 2.55815 1.82773 0
M  V30 2192 N 208.412 0.89855 1.29475 0
M  V30 2193 C 209.359 0.373819 2.27753 0
M  V30 2194 C 210.329 -0.543444 1.56958 0
M  V30 2195 O 211.514 -0.468934 1.84948 0
M  V30 2196 C 208.654 -0.393648 3.42848 0
M  V30 2197 C 207.767 0.554379 4.28428 0
M  V30 2198 C 206.902 -0.230026 5.30702 0
M  V30 2199 C 205.941 0.712599 6.07938 0
M  V30 2200 N 205.078 -0.0373283 7.0209 0
M  V30 2201 H 209.918 1.21699 2.72017 0
M  V30 2202 H 207.455 0.611456 1.33789 0
M  V30 2203 H 209.413 -0.85466 4.08352 0
M  V30 2204 H 208.043 -1.20128 2.99615 0
M  V30 2205 H 207.095 1.13391 3.63107 0
M  V30 2206 H 208.407 1.27597 4.82204 0
M  V30 2207 H 207.561 -0.752288 6.02018 0
M  V30 2208 H 206.3 -0.984758 4.77654 0
M  V30 2209 H 205.305 1.24637 5.35486 0
M  V30 2210 H 206.53 1.46664 6.63074 0
M  V30 2211 H 204.476 -0.774348 6.51414 0
M  V30 2212 H 204.393 0.624374 7.53417 0
M  V30 2213 H 205.661 -0.539891 7.77628 0
M  V30 2214 N 209.89 -1.43072 0.660911 0
M  V30 2215 C 210.82 -2.33497 -0.0122829 0
M  V30 2216 C 211.801 -1.49903 -0.803925 0
M  V30 2217 O 212.986 -1.78546 -0.763864 0
M  V30 2218 C 210.116 -3.33363 -0.973994 0
M  V30 2219 C 209.07 -4.27003 -0.291928 0
M  V30 2220 C 208.396 -5.16967 -1.36562 0
M  V30 2221 C 209.696 -5.15816 0.820462 0
M  V30 2222 H 211.39 -2.90038 0.742873 0
M  V30 2223 H 208.936 -1.39461 0.358688 0
M  V30 2224 H 210.889 -3.95524 -1.45392 0
M  V30 2225 H 209.613 -2.75095 -1.7604 0
M  V30 2226 H 208.272 -3.66217 0.167623 0
M  V30 2227 H 207.92 -4.55034 -2.14366 0
M  V30 2228 H 207.62 -5.80441 -0.914454 0
M  V30 2229 H 209.144 -5.82003 -1.84675 0
M  V30 2230 H 210.558 -5.71742 0.422366 0
M  V30 2231 H 208.955 -5.8805 1.19656 0
M  V30 2232 H 210.025 -4.55045 1.67518 0
M  V30 2233 N 211.368 -0.403325 -1.52352 0
M  V30 2234 C 212.617 0.175668 -2.00934 0
M  V30 2235 C 212.93 1.46718 -1.29356 0
M  V30 2236 O 214.136 2.12708 -1.68724 0
M  V30 2237 C 212.592 0.363612 -3.58058 0
M  V30 2238 C 212.2 -0.915472 -4.38547 0
M  V30 2239 C 213.944 0.89821 -4.14888 0
M  V30 2240 C 211.851 -0.695035 -5.87302 0
M  V30 2241 H 210.781 0.0694234 -0.750797 0
M  V30 2242 H 213.432 -0.527879 -1.75743 0
M  V30 2243 H 211.814 1.12935 -3.79555 0
M  V30 2244 H 212.988 -1.68691 -4.28812 0
M  V30 2245 H 211.303 -1.37606 -3.93006 0
M  V30 2246 H 213.9 1.07907 -5.23699 0
M  V30 2247 H 214.243 1.87126 -3.71873 0
M  V30 2248 H 214.776 0.191681 -3.97338 0
M  V30 2249 H 211.515 -1.63948 -6.34666 0
M  V30 2250 H 211.035 0.0372116 -5.99788 0
M  V30 2251 H 212.714 -0.33497 -6.46132 0
M  V30 2252 N 212.846 1.57033 -0.133567 0
M  V30 2253 C 214.262 1.58035 0.222944 0
M  V30 2254 C 214.462 1.14713 1.6566 0
M  V30 2255 O 213.518 0.841218 2.38075 0
M  V30 2256 C 214.831 3.00691 -0.0236116 0
M  V30 2257 C 216.379 3.12973 0.0411512 0
M  V30 2258 C 216.854 4.57654 -0.177899 0
M  V30 2259 N 218.345 4.63033 -0.124365 0
M  V30 2260 C 219.08 5.72771 -0.268553 0
M  V30 2261 N 218.576 6.91206 -0.46972 0
M  V30 2262 N 220.369 5.61718 -0.2071 0
M  V30 2263 H 212.52 1.8349 -1.06981 0
M  V30 2264 H 214.783 0.848677 -0.422436 0
M  V30 2265 H 214.489 3.36726 -1.0153 0
M  V30 2266 H 214.363 3.70614 0.701808 0
M  V30 2267 H 216.75 2.76787 1.02338 0
M  V30 2268 H 216.831 2.45564 -0.716383 0
M  V30 2269 H 216.475 4.94542 -1.15717 0
M  V30 2270 H 216.405 5.23173 0.599797 0
M  V30 2271 H 218.896 3.7789 0.027011 0
M  V30 2272 H 219.209 7.70693 -0.570212 0
M  V30 2273 H 217.554 6.93156 -0.505876 0
M  V30 2274 H 220.745 4.68072 -0.0507986 0
M  V30 2275 H 220.918 6.47195 -0.322909 0
M  V30 2276 N 214.325 -0.140222 1.56975 0
M  V30 2277 C 215.255 -1.17456 2.01808 0
M  V30 2278 C 216.236 -1.44415 0.898794 0
M  V30 2279 O 217.421 -1.5522 1.16707 0
M  V30 2280 C 214.551 -2.50607 2.40444 0
M  V30 2281 C 213.505 -2.38155 3.55621 0
M  V30 2282 C 212.831 -3.76078 3.80091 0
M  V30 2283 C 214.131 -1.85991 4.88062 0
M  V30 2284 H 215.825 -0.801743 2.88466 0
M  V30 2285 H 213.371 -0.38422 1.38779 0
M  V30 2286 H 215.324 -3.23197 2.7041 0
M  V30 2287 H 214.048 -2.89737 1.50732 0
M  V30 2288 H 212.707 -1.68016 3.25832 0
M  V30 2289 H 212.355 -4.12656 2.87618 0
M  V30 2290 H 212.055 -3.68606 4.57606 0
M  V30 2291 H 213.579 -4.50206 4.12488 0
M  V30 2292 H 214.993 -2.4838 5.16701 0
M  V30 2293 H 213.39 -1.89393 5.6943 0
M  V30 2294 H 214.46 -0.816023 4.77984 0
M  V30 2295 N 215.803 -1.52179 -0.40978 0
M  V30 2296 C 216.735 -1.71703 -1.51825 0
M  V30 2297 C 217.748 -0.597445 -1.51441 0
M  V30 2298 O 218.937 -0.872582 -1.55719 0
M  V30 2299 C 216.037 -1.74171 -2.90719 0
M  V30 2300 C 215.21 -3.03156 -3.15302 0
M  V30 2301 C 214.269 -2.97445 -4.34065 0
M  V30 2302 O 213.295 -3.71352 -4.31377 0
M  V30 2303 N 214.497 -2.15191 -5.39141 0
M  V30 2304 H 217.262 -2.67334 -1.35472 0
M  V30 2305 H 214.823 -1.50409 -0.599069 0
M  V30 2306 H 216.815 -1.67884 -3.68235 0
M  V30 2307 H 215.385 -0.860166 -3.00533 0
M  V30 2308 H 214.605 -3.23097 -2.25836 0
M  V30 2309 H 215.893 -3.88484 -3.28569 0
M  V30 2310 H 215.291 -1.54573 -5.44173 0
M  V30 2311 H 213.848 -2.1476 -6.15403 0
M  V30 2312 N 217.281 0.66697 -1.42791 0
M  V30 2313 C 218.692 1.2478 -1.38877 0
M  V30 2314 C 219.043 1.96012 -0.0859426 0
M  V30 2315 O 218.168 2.00463 0.815081 0
M  V30 2316 C 218.763 2.26938 -2.51564 0
M  V30 2317 C 217.322 2.80529 -2.50959 0
M  V30 2318 C 216.469 1.54965 -2.29959 0
M  V30 2319 H 219.42 0.459853 -1.51892 0
M  V30 2320 H 219.441 3.08834 -2.22265 0
M  V30 2321 H 218.953 1.75065 -3.46372 0
M  V30 2322 H 217.054 3.36502 -1.59991 0
M  V30 2323 H 217.167 3.29012 -3.48265 0
M  V30 2324 H 215.531 1.81817 -1.78366 0
M  V30 2325 H 216.314 1.05047 -3.26833 0
M  V30 2326 N 218.759 1.29093 0.90403 0
M  V30 2327 C 220.036 1.075 1.63411 0
M  V30 2328 C 220.416 -0.382346 2.07609 0
M  V30 2329 O 219.764 -1.37031 1.82851 0
M  V30 2330 C 219.974 2.05858 2.81822 0
M  V30 2331 C 221.322 2.36539 3.52611 0
M  V30 2332 O 222.346 2.04019 2.91984 0
M  V30 2333 O 221.205 2.92085 4.61897 0
M  V30 2334 H 218.299 0.411547 0.717327 0
M  V30 2335 H 220.845 1.40449 0.952479 0
M  V30 2336 H 219.617 3.04037 2.46327 0
M  V30 2337 H 219.24 1.73613 3.57693 0
M  V30 2338 N 220.237 -1.11381 1.11499 0
M  V30 2339 C 221.485 -1.8277 0.862524 0
M  V30 2340 C 221.806 -1.85097 -0.613534 0
M  V30 2341 O 221.076 -1.32198 -1.4457 0
M  V30 2342 H 219.656 -0.676823 0.316101 0
M  V30 2343 H 222.318 -1.34816 1.4075 0
M  V30 2344 H 221.414 -2.86614 1.23527 0
M  V30 2345 N 221.715 -0.905404 -1.28997 0
M  V30 2346 C 222.961 -0.535039 -1.95615 0
M  V30 2347 C 223.294 0.917404 -1.71165 0
M  V30 2348 O 222.569 1.65123 -1.02785 0
M  V30 2349 C 222.852 -0.834918 -3.50287 0
M  V30 2350 C 222.705 -2.33948 -3.84172 0
M  V30 2351 C 224.024 -0.325318 -4.38896 0
M  V30 2352 H 221.143 -0.195861 -0.710498 0
M  V30 2353 H 223.785 -1.13313 -1.52513 0
M  V30 2354 H 221.935 -0.325904 -3.87131 0
M  V30 2355 H 223.607 -2.91847 -3.57243 0
M  V30 2356 H 221.85 -2.79789 -3.31513 0
M  V30 2357 H 222.521 -2.49987 -4.92149 0
M  V30 2358 H 224.997 -0.761256 -4.09077 0
M  V30 2359 H 223.873 -0.564295 -5.45992 0
M  V30 2360 H 224.134 0.774144 -4.35269 0
M  V30 2361 N 223.193 1.4272 -0.668489 0
M  V30 2362 C 224.442 2.00846 -0.185389 0
M  V30 2363 C 224.755 1.53442 1.21305 0
M  V30 2364 O 225.961 2.03944 1.79218 0
M  V30 2365 C 224.417 3.58805 -0.280591 0
M  V30 2366 C 224.025 4.15198 -1.68268 0
M  V30 2367 C 225.769 4.24255 0.14412 0
M  V30 2368 C 223.676 5.655 -1.73099 0
M  V30 2369 H 222.606 0.751145 -0.0655475 0
M  V30 2370 H 225.257 1.63516 -0.832752 0
M  V30 2371 H 223.639 3.93608 0.434553 0
M  V30 2372 H 224.813 3.91866 -2.42441 0
M  V30 2373 H 223.128 3.62176 -2.05469 0
M  V30 2374 H 225.725 5.34547 0.128086 0
M  V30 2375 H 226.068 3.99277 1.17827 0
M  V30 2376 H 226.601 3.94389 -0.519798 0
M  V30 2377 H 223.34 5.95268 -2.74475 0
M  V30 2378 H 222.86 5.90842 -1.03274 0
M  V30 2379 H 224.539 6.29808 -1.48158 0
M  V30 2380 N 224.671 0.411399 1.52136 0
M  V30 2381 C 225.601 -0.404015 2.29978 0
M  V30 2382 C 226.582 -1.04412 1.34284 0
M  V30 2383 O 227.767 -1.0527 1.63192 0
M  V30 2384 C 224.897 -1.5197 3.12286 0
M  V30 2385 C 223.851 -1.00448 4.16046 0
M  V30 2386 C 223.177 -2.21393 4.86712 0
M  V30 2387 C 224.477 -0.0569336 5.22269 0
M  V30 2388 H 226.171 0.245529 2.98392 0
M  V30 2389 H 223.717 0.119525 1.43503 0
M  V30 2390 H 225.67 -2.09715 3.6551 0
M  V30 2391 H 224.394 -2.19716 2.41646 0
M  V30 2392 H 223.053 -0.449421 3.63835 0
M  V30 2393 H 222.701 -2.87699 4.12599 0
M  V30 2394 H 222.401 -1.87571 5.56858 0
M  V30 2395 H 223.925 -2.7974 5.4275 0
M  V30 2396 H 225.339 -0.54325 5.7072 0
M  V30 2397 H 223.736 0.192594 5.99791 0
M  V30 2398 H 224.806 0.887663 4.76706 0
M  V30 2399 N 226.149 -1.5696 0.141893 0
M  V30 2400 C 227.379 -2.00031 -0.516828 0
M  V30 2401 C 227.787 -1.02091 -1.59293 0
M  V30 2402 O 227.13 -0.00909657 -1.83698 0
M  V30 2403 C 227.192 -3.39534 -1.1814 0
M  V30 2404 C 226.856 -4.56313 -0.250513 0
M  V30 2405 C 227.853 -5.17295 0.519839 0
M  V30 2406 C 225.538 -5.02061 -0.154907 0
M  V30 2407 C 227.532 -6.2243 1.3733 0
M  V30 2408 C 225.219 -6.07053 0.702161 0
M  V30 2409 C 226.217 -6.67106 1.46487 0
M  V30 2410 O 225.905 -7.70066 2.30767 0
M  V30 2411 H 225.637 -0.661451 -0.139493 0
M  V30 2412 H 228.191 -2.04086 0.231926 0
M  V30 2413 H 226.421 -3.32302 -1.97769 0
M  V30 2414 H 228.11 -3.66745 -1.73933 0
M  V30 2415 H 228.876 -4.82852 0.45598 0
M  V30 2416 H 224.755 -4.5505 -0.7383 0
M  V30 2417 H 228.299 -6.69233 1.96909 0
M  V30 2418 H 224.196 -6.40923 0.76733 0
M  V30 2419 H 224.964 -7.87264 2.23959 0
M  V30 2420 N 227.627 0.131896 -1.57047 0
M  V30 2421 C 228.852 0.860418 -1.8871 0
M  V30 2422 C 229.277 1.73251 -0.73251 0
M  V30 2423 O 228.635 1.785 0.317429 0
M  V30 2424 C 228.683 1.68047 -3.19049 0
M  V30 2425 O 227.787 2.7862 -3.04047 0
M  V30 2426 H 227.128 0.238743 -0.619595 0
M  V30 2427 H 229.658 0.118169 -2.04258 0
M  V30 2428 H 229.668 2.07238 -3.51449 0
M  V30 2429 H 228.343 1.04018 -4.02682 0
M  V30 2430 H 226.92 2.42726 -2.83088 0
M  V30 2431 N 229.106 1.52395 0.401703 0
M  V30 2432 C 230.355 1.66044 1.14509 0
M  V30 2433 C 230.668 0.400216 1.91462 0
M  V30 2434 O 231.874 0.416632 2.68284 0
M  V30 2435 C 230.33 2.93388 2.0845 0
M  V30 2436 C 229.938 4.26545 1.36978 0
M  V30 2437 C 231.682 3.16402 2.83001 0
M  V30 2438 C 229.589 5.45007 2.29611 0
M  V30 2439 H 228.519 0.618562 0.431158 0
M  V30 2440 H 231.17 1.78886 0.40892 0
M  V30 2441 H 229.552 2.74263 2.8565 0
M  V30 2442 H 230.726 4.56179 0.650916 0
M  V30 2443 H 229.041 4.09692 0.74438 0
M  V30 2444 H 231.638 4.02085 3.52465 0
M  V30 2445 H 231.981 2.30943 3.46368 0
M  V30 2446 H 232.514 3.36034 2.12898 0
M  V30 2447 H 229.253 6.32835 1.70879 0
M  V30 2448 H 228.773 5.19702 2.9945 0
M  V30 2449 H 230.452 5.7838 2.89974 0
M  V30 2450 N 230.584 -0.659388 1.43143 0
M  V30 2451 C 232 -0.974337 1.26407 0
M  V30 2452 C 232.2 -2.007 0.179341 0
M  V30 2453 O 231.256 -2.4856 -0.444295 0
M  V30 2454 C 232.569 -1.46447 2.62628 0
M  V30 2455 C 234.117 -1.58144 2.7011 0
M  V30 2456 C 234.592 -2.1055 4.06734 0
M  V30 2457 N 236.083 -2.17861 4.08767 0
M  V30 2458 C 236.818 -2.59519 5.1131 0
M  V30 2459 N 236.314 -3.00518 6.24228 0
M  V30 2460 N 238.107 -2.59404 4.98664 0
M  V30 2461 H 230.258 0.0240528 2.12386 0
M  V30 2462 H 232.521 -0.0518065 0.946583 0
M  V30 2463 H 232.227 -0.780123 3.42939 0
M  V30 2464 H 232.101 -2.44058 2.87603 0
M  V30 2465 H 234.488 -2.25682 1.90136 0
M  V30 2466 H 234.569 -0.589828 2.48907 0
M  V30 2467 H 234.213 -1.43616 4.87172 0
M  V30 2468 H 234.143 -3.10531 4.25298 0
M  V30 2469 H 236.634 -1.88975 3.27257 0
M  V30 2470 H 236.947 -3.31036 6.98309 0
M  V30 2471 H 235.292 -2.98337 6.2771 0
M  V30 2472 H 238.483 -2.26747 4.09516 0
M  V30 2473 H 238.656 -2.91548 5.78709 0
M  V30 2474 N 232.062 -1.29571 -0.897171 0
M  V30 2475 C 233.311 -1.1706 -1.64256 0
M  V30 2476 C 233.624 0.276476 -1.93636 0
M  V30 2477 O 234.83 0.52294 -2.66416 0
M  V30 2478 C 233.286 -2.0475 -2.95982 0
M  V30 2479 C 232.894 -3.54295 -2.74187 0
M  V30 2480 C 234.638 -2.0097 -3.73914 0
M  V30 2481 C 232.545 -4.34081 -4.01656 0
M  V30 2482 H 231.475 -0.43452 -0.616205 0
M  V30 2483 H 234.126 -1.54229 -0.994268 0
M  V30 2484 H 232.508 -1.60452 -3.62038 0
M  V30 2485 H 233.682 -4.06662 -2.1671 0
M  V30 2486 H 231.997 -3.59773 -2.09648 0
M  V30 2487 H 234.594 -2.57838 -4.68427 0
M  V30 2488 H 234.937 -0.990273 -4.0435 0
M  V30 2489 H 235.47 -2.43325 -3.14703 0
M  V30 2490 H 232.209 -5.36671 -3.76384 0
M  V30 2491 H 231.729 -3.86483 -4.58684 0
M  V30 2492 H 233.408 -4.44877 -4.69781 0
M  V30 2493 N 233.54 1.10788 -1.12088 0
M  V30 2494 C 234.768 1.86461 -0.896651 0
M  V30 2495 C 235.183 1.80492 0.553912 0
M  V30 2496 O 234.54 1.19102 1.38278 0
M  V30 2497 C 234.591 3.35006 -1.35843 0
M  V30 2498 O 234.312 3.40866 -2.75213 0
M  V30 2499 C 235.813 4.27565 -1.1706 0
M  V30 2500 H 233.033 0.589425 -0.320654 0
M  V30 2501 H 235.577 1.40076 -1.48993 0
M  V30 2502 H 233.732 3.7887 -0.808458 0
M  V30 2503 H 234.146 4.33411 -2.9539 0
M  V30 2504 H 235.62 5.30007 -1.54263 0
M  V30 2505 H 236.097 4.3906 -0.110814 0
M  V30 2506 H 236.703 3.89501 -1.70789 0
M  V30 2507 N 235.018 0.912232 1.28515 0
M  V30 2508 C 236.243 0.559774 1.99703 0
M  V30 2509 C 236.668 -0.851393 1.67729 0
M  V30 2510 O 236.026 -1.56875 0.908834 0
M  V30 2511 C 236.074 0.773874 3.52198 0
M  V30 2512 O 235.178 -0.167842 4.12058 0
M  V30 2513 H 234.519 0.21723 0.627461 0
M  V30 2514 H 237.049 1.22725 1.63706 0
M  V30 2515 H 237.059 0.683386 4.02236 0
M  V30 2516 H 235.734 1.80261 3.74805 0
M  V30 2517 H 234.311 -0.0287509 3.72889 0
M  V30 2518 N 236.496 -1.42363 0.676048 0
M  V30 2519 C 237.724 -2.05859 0.207268 0
M  V30 2520 C 238.139 -1.50796 -1.13605 0
M  V30 2521 O 237.496 -0.648265 -1.70598 0
M  V30 2522 C 237.547 -3.61248 0.134975 0
M  V30 2523 O 237.268 -4.1427 1.42521 0
M  V30 2524 C 238.769 -4.41859 -0.357151 0
M  V30 2525 H 235.989 -0.663431 0.100503 0
M  V30 2526 H 238.533 -1.82479 0.923136 0
M  V30 2527 H 236.688 -3.83735 -0.531588 0
M  V30 2528 H 237.102 -5.0815 1.29939 0
M  V30 2529 H 238.576 -5.50847 -0.356641 0
M  V30 2530 H 239.053 -4.16536 -1.39264 0
M  V30 2531 H 239.659 -4.24392 0.27772 0
M  V30 2532 N 237.974 -0.419461 -1.51915 0
M  V30 2533 C 239.22 0.153166 -2.02221 0
M  V30 2534 C 239.553 1.43907 -1.30401 0
M  V30 2535 O 238.828 1.90055 -0.413438 0
M  V30 2536 C 239.111 0.390291 -3.57979 0
M  V30 2537 C 238.964 -0.913014 -4.40436 0
M  V30 2538 C 240.283 1.16794 -4.2432 0
M  V30 2539 H 237.402 0.0541924 -0.735005 0
M  V30 2540 H 240.044 -0.554955 -1.81715 0
M  V30 2541 H 238.194 0.993491 -3.75582 0
M  V30 2542 H 239.866 -1.54882 -4.34522 0
M  V30 2543 H 238.109 -1.52168 -4.06236 0
M  V30 2544 H 238.78 -0.701361 -5.47526 0
M  V30 2545 H 241.256 0.657161 -4.10878 0
M  V30 2546 H 240.132 1.3026 -5.3322 0
M  V30 2547 H 240.393 2.19132 -3.83971 0
M  V30 2548 N 239.452 1.56882 -0.150215 0
M  V30 2549 C 240.415 2.1573 0.774157 0
M  V30 2550 C 241.415 1.0999 1.17298 0
M  V30 2551 O 242.605 1.35613 1.09338 0
M  V30 2552 C 239.737 2.72302 2.05096 0
M  V30 2553 H 240.93 2.98752 0.262201 0
M  V30 2554 H 238.483 1.55985 0.099248 0
M  V30 2555 H 239.218 1.92956 2.6065 0
M  V30 2556 H 239.003 3.49665 1.77416 0
M  V30 2557 H 240.493 3.17632 2.71109 0
M  V30 2558 N 240.93 -0.123565 1.57115 0
M  V30 2559 C 242.17 -0.838097 1.86428 0
M  V30 2560 C 242.534 -1.77266 0.737611 0
M  V30 2561 O 243.735 -2.52842 0.912389 0
M  V30 2562 C 242.006 -1.57219 3.20962 0
M  V30 2563 S 243.565 -2.32893 3.71896 0
M  V30 2564 H 240.383 -0.279811 0.653626 0
M  V30 2565 H 242.985 -0.0967034 1.95261 0
M  V30 2566 H 241.689 -0.877522 4.00909 0
M  V30 2567 H 241.22 -2.35405 3.15195 0
M  V30 2568 H 243.235 -3.5853 3.43032 0
M  V30 2569 N 242.408 -1.52605 -0.393616 0
M  V30 2570 C 243.685 -1.58001 -1.15304 0
M  V30 2571 C 244.065 -0.370385 -2.07825 0
M  V30 2572 O 243.413 0.641638 -2.19306 0
M  V30 2573 C 243.623 -2.91652 -1.91677 0
M  V30 2574 C 244.971 -3.4522 -2.47201 0
M  V30 2575 O 245.995 -2.93495 -2.01839 0
M  V30 2576 O 244.854 -4.35579 -3.3005 0
M  V30 2577 H 241.948 -0.637068 -0.527327 0
M  V30 2578 H 244.494 -1.64939 -0.399141 0
M  V30 2579 H 243.266 -3.71136 -1.23992 0
M  V30 2580 H 242.889 -2.88077 -2.74039 0
M  V30 2581 N 243.887 0.651787 -1.4349 0
M  V30 2582 C 244.82 1.77668 -1.43211 0
M  V30 2583 C 245.798 1.59931 -0.29338 0
M  V30 2584 O 246.982 1.82095 -0.487191 0
M  V30 2585 C 244.109 3.14986 -1.24505 0
M  V30 2586 C 243.155 3.51421 -2.41673 0
M  V30 2587 S 243.988 3.51234 -4.04222 0
M  V30 2588 C 245.144 4.91206 -3.87902 0
M  V30 2589 H 245.377 1.77635 -2.38397 0
M  V30 2590 H 242.91 0.824558 -1.30539 0
M  V30 2591 H 244.868 3.94237 -1.144 0
M  V30 2592 H 243.529 3.1258 -0.308651 0
M  V30 2593 H 242.722 4.51291 -2.24393 0
M  V30 2594 H 242.324 2.79585 -2.48411 0
M  V30 2595 H 244.616 5.79902 -3.50315 0
M  V30 2596 H 245.559 5.13537 -4.8753 0
M  V30 2597 H 245.967 4.64808 -3.20334 0
M  V30 2598 N 245.365 1.30045 0.890287 0
M  V30 2599 C 246.642 1.09227 1.62262 0
M  V30 2600 C 247.022 -0.360305 2.08002 0
M  V30 2601 O 246.37 -1.35084 1.84295 0
M  V30 2602 C 246.58 2.08835 2.79623 0
M  V30 2603 C 247.928 2.40266 3.50082 0
M  V30 2604 O 248.952 2.07104 2.89804 0
M  V30 2605 O 247.811 2.96967 4.58773 0
M  V30 2606 H 244.905 0.419132 0.712922 0
M  V30 2607 H 247.451 1.41451 0.937529 0
M  V30 2608 H 246.223 3.06633 2.43089 0
M  V30 2609 H 245.846 1.77397 3.55832 0
M  V30 2610 N 246.843 -1.10192 1.12674 0
M  V30 2611 C 247.773 -2.18652 0.819362 0
M  V30 2612 C 248.754 -1.68698 -0.217915 0
M  V30 2613 O 249.939 -1.94041 -0.0785581 0
M  V30 2614 C 247.069 -3.46202 0.27594 0
M  V30 2615 C 246.023 -4.09444 1.24656 0
M  V30 2616 C 245.349 -5.31725 0.563258 0
M  V30 2617 C 246.649 -4.52863 2.60217 0
M  V30 2618 H 248.343 -2.44622 1.72628 0
M  V30 2619 H 245.889 -1.17571 0.831451 0
M  V30 2620 H 247.842 -4.21372 0.0486149 0
M  V30 2621 H 246.566 -3.1973 -0.666331 0
M  V30 2622 H 245.225 -3.36284 1.45974 0
M  V30 2623 H 244.873 -5.0153 -0.384235 0
M  V30 2624 H 244.573 -5.74991 1.21075 0
M  V30 2625 H 246.097 -6.09624 0.34503 0
M  V30 2626 H 247.511 -5.19294 2.42913 0
M  V30 2627 H 245.908 -5.06986 3.21068 0
M  V30 2628 H 246.978 -3.65656 3.18471 0
M  V30 2629 N 248.321 -0.919034 -1.28029 0
M  V30 2630 C 249.284 -0.416182 -2.2539 0
M  V30 2631 C 250.284 0.460438 -1.54067 0
M  V30 2632 O 251.474 0.262744 -1.72207 0
M  V30 2633 C 248.606 0.402707 -3.38513 0
M  V30 2634 H 249.799 -1.27629 -2.71387 0
M  V30 2635 H 247.352 -0.698919 -1.39803 0
M  V30 2636 H 248.087 1.282 -2.97885 0
M  V30 2637 H 247.872 -0.225698 -3.9145 0
M  V30 2638 H 249.362 0.745191 -4.10897 0
M  V30 2639 N 249.799 1.42003 -0.683588 0
M  V30 2640 C 250.746 2.30798 -0.0107309 0
M  V30 2641 C 251.716 1.4645 0.783688 0
M  V30 2642 O 252.901 1.75263 0.754156 0
M  V30 2643 C 250.041 3.3238 0.928306 0
M  V30 2644 C 249.154 4.31814 0.126776 0
M  V30 2645 C 248.289 5.20468 1.06236 0
M  V30 2646 C 247.328 6.11577 0.253035 0
M  V30 2647 N 246.465 6.92754 1.14179 0
M  V30 2648 H 251.305 2.8778 -0.773727 0
M  V30 2649 H 248.842 1.41745 -0.393283 0
M  V30 2650 H 250.8 3.89813 1.48666 0
M  V30 2651 H 249.43 2.76976 1.65783 0
M  V30 2652 H 248.482 3.76427 -0.54833 0
M  V30 2653 H 249.794 4.96276 -0.501192 0
M  V30 2654 H 248.948 5.82677 1.69035 0
M  V30 2655 H 247.687 4.56204 1.7242 0
M  V30 2656 H 246.692 5.48428 -0.388108 0
M  V30 2657 H 247.917 6.77892 -0.404839 0
M  V30 2658 H 245.863 6.3111 1.78987 0
M  V30 2659 H 245.78 7.53855 0.569111 0
M  V30 2660 H 247.048 7.59441 1.75697 0
M  V30 2661 N 251.277 0.427512 1.51691 0
M  V30 2662 C 252.507 -0.140986 2.06118 0
M  V30 2663 C 252.915 -1.37854 1.29588 0
M  V30 2664 O 252.258 -1.80411 0.346036 0
M  V30 2665 C 252.32 -0.538276 3.55447 0
M  V30 2666 C 251.984 0.591095 4.53161 0
M  V30 2667 C 252.981 1.46027 4.98971 0
M  V30 2668 C 250.666 0.769028 4.96378 0
M  V30 2669 C 252.66 2.49216 5.8666 0
M  V30 2670 C 250.347 1.80421 5.83859 0
M  V30 2671 C 251.345 2.66417 6.28897 0
M  V30 2672 O 251.033 3.68159 7.14643 0
M  V30 2673 H 250.765 -0.0157455 0.675817 0
M  V30 2674 H 253.319 0.602495 1.96365 0
M  V30 2675 H 251.549 -1.33432 3.6295 0
M  V30 2676 H 253.238 -1.0368 3.92435 0
M  V30 2677 H 254.004 1.33429 4.66285 0
M  V30 2678 H 249.883 0.109273 4.6087 0
M  V30 2679 H 253.427 3.16372 6.21735 0
M  V30 2680 H 249.324 1.93042 6.15959 0
M  V30 2681 H 250.092 3.64622 7.32798 0
M  V30 2682 N 252.755 -1.56801 0.158532 0
M  V30 2683 C 254.166 -1.83189 -0.360366 0
M  V30 2684 C 254.517 -1.07778 -1.63946 0
M  V30 2685 O 253.642 -0.326718 -2.13919 0
M  V30 2686 C 254.237 -3.32297 -0.660595 0
M  V30 2687 C 252.796 -3.59227 -1.12398 0
M  V30 2688 C 251.943 -2.76877 -0.153097 0
M  V30 2689 H 254.894 -1.54008 0.383031 0
M  V30 2690 H 254.915 -3.4908 -1.51405 0
M  V30 2691 H 254.427 -3.87156 0.270527 0
M  V30 2692 H 252.528 -3.09766 -2.07064 0
M  V30 2693 H 252.641 -4.67632 -1.04197 0
M  V30 2694 H 251.005 -2.46319 -0.647983 0
M  V30 2695 H 251.788 -3.34511 0.77182 0
M  V30 2696 N 254.233 0.115231 -1.57178 0
M  V30 2697 C 255.166 1.17166 -1.95825 0
M  V30 2698 C 256.144 1.39912 -0.828463 0
M  V30 2699 O 257.328 1.54004 -1.08697 0
M  V30 2700 C 254.455 2.52478 -2.25771 0
M  V30 2701 C 253.501 2.46136 -3.48309 0
M  V30 2702 S 254.334 1.89736 -5.0076 0
M  V30 2703 C 255.49 3.26713 -5.33863 0
M  V30 2704 H 255.723 0.842103 -2.85124 0
M  V30 2705 H 253.256 0.322136 -1.51002 0
M  V30 2706 H 255.214 3.30332 -2.43702 0
M  V30 2707 H 253.875 2.82609 -1.37079 0
M  V30 2708 H 253.068 3.45819 -3.66641 0
M  V30 2709 H 252.67 1.76404 -3.29784 0
M  V30 2710 H 254.962 4.22935 -5.29275 0
M  V30 2711 H 255.905 3.13205 -6.35065 0
M  V30 2712 H 256.313 3.25316 -4.61335 0
M  V30 2713 N 255.711 1.52812 0.385517 0
M  V30 2714 C 256.988 1.5861 1.14465 0
M  V30 2715 C 257.368 0.381402 2.07626 0
M  V30 2716 O 256.716 -0.629999 2.19643 0
M  V30 2717 C 256.926 2.92664 1.90128 0
M  V30 2718 C 258.274 3.46526 2.45367 0
M  V30 2719 O 259.298 2.94562 2.0028 0
M  V30 2720 O 258.157 4.37323 3.27736 0
M  V30 2721 H 255.251 0.639855 0.523941 0
M  V30 2722 H 257.797 1.65149 0.390389 0
M  V30 2723 H 256.569 3.71788 1.22022 0
M  V30 2724 H 256.192 2.89527 2.72507 0
M  V30 2725 N 257.189 -0.644168 1.43834 0
M  V30 2726 C 258.099 -1.78563 1.52159 0
M  V30 2727 C 259.115 -1.69147 0.408069 0
M  V30 2728 O 260.291 -1.90156 0.663524 0
M  V30 2729 C 257.356 -3.14888 1.45073 0
M  V30 2730 C 256.417 -3.36034 2.6717 0
M  V30 2731 C 255.65 -4.65855 2.60413 0
M  V30 2732 O 255.873 -5.45805 1.65689 0
M  V30 2733 O 254.807 -4.88918 3.5106 0
M  V30 2734 H 258.633 -1.74494 2.48567 0
M  V30 2735 H 256.218 -0.80378 1.25935 0
M  V30 2736 H 258.1 -3.96179 1.43597 0
M  V30 2737 H 256.775 -3.19528 0.518037 0
M  V30 2738 H 255.682 -2.54472 2.74217 0
M  V30 2739 H 257.015 -3.36247 3.59442 0
M  V30 2740 N 258.668 -1.30515 -0.883378 0
M  V30 2741 C 259.6 -1.12846 -1.99496 0
M  V30 2742 C 260.613 -0.0712571 -1.62644 0
M  V30 2743 O 261.802 -0.317432 -1.75655 0
M  V30 2744 C 258.902 -0.699123 -3.3161 0
M  V30 2745 C 258.075 -1.83842 -3.96889 0
M  V30 2746 C 257.134 -1.39737 -5.07307 0
M  V30 2747 O 256.16 -2.10485 -5.28852 0
M  V30 2748 N 257.362 -0.277279 -5.79837 0
M  V30 2749 H 260.127 -2.08585 -2.15203 0
M  V30 2750 H 257.688 -1.22672 -1.05656 0
M  V30 2751 H 259.68 -0.387044 -4.02845 0
M  V30 2752 H 258.25 0.166276 -3.12157 0
M  V30 2753 H 257.47 -2.31853 -3.18807 0
M  V30 2754 H 258.758 -2.60187 -4.37241 0
M  V30 2755 H 258.156 0.3122 -5.64838 0
M  V30 2756 H 256.713 -0.0246623 -6.51795 0
M  V30 2757 N 260.146 1.09593 -1.13257 0
M  V30 2758 C 261.056 2.19739 -0.821691 0
M  V30 2759 C 262.072 1.72926 0.19302 0
M  V30 2760 O 263.248 2.01385 0.0244895 0
M  V30 2761 C 260.313 3.45482 -0.290333 0
M  V30 2762 C 259.374 4.06985 -1.36607 0
M  V30 2763 C 258.607 5.26726 -0.859975 0
M  V30 2764 O 258.83 5.69594 0.303082 0
M  V30 2765 O 257.764 5.7931 -1.63351 0
M  V30 2766 H 261.59 2.48781 -1.74189 0
M  V30 2767 H 259.175 1.18496 -0.909894 0
M  V30 2768 H 261.057 4.214 0.000674022 0
M  V30 2769 H 259.732 3.18047 0.602306 0
M  V30 2770 H 258.639 3.32712 -1.71037 0
M  V30 2771 H 259.972 4.38643 -2.23279 0
M  V30 2772 N 261.624 0.925811 1.2754 0
M  V30 2773 C 262.864 0.572521 1.96218 0
M  V30 2774 C 263.228 -0.869719 1.71172 0
M  V30 2775 O 264.429 -1.33119 2.33523 0
M  V30 2776 C 262.7 0.887325 3.4621 0
M  V30 2777 S 264.259 0.642266 4.34074 0
M  V30 2778 H 261.077 0.211403 0.678845 0
M  V30 2779 H 263.679 1.19384 1.54815 0
M  V30 2780 H 262.383 1.93469 3.61936 0
M  V30 2781 H 261.914 0.255123 3.92572 0
M  V30 2782 H 263.929 -0.500822 4.93666 0
M  V30 2783 N 263.102 -1.41638 0.69111 0
M  V30 2784 C 264.035 -2.28183 -0.0274913 0
M  V30 2785 C 265.013 -1.41984 -0.792424 0
M  V30 2786 O 266.197 -1.71415 -0.784169 0
M  V30 2787 C 263.324 -3.22135 -1.04628 0
M  V30 2788 C 262.37 -4.24848 -0.375037 0
M  V30 2789 S 263.203 -5.28231 0.879321 0
M  V30 2790 C 264.359 -6.25748 -0.137983 0
M  V30 2791 H 264.592 -2.88782 0.706553 0
M  V30 2792 H 262.125 -1.46709 0.481222 0
M  V30 2793 H 264.083 -3.76797 -1.62894 0
M  V30 2794 H 262.744 -2.6064 -1.75287 0
M  V30 2795 H 261.937 -4.90837 -1.14433 0
M  V30 2796 H 261.539 -3.73758 0.134434 0
M  V30 2797 H 263.831 -6.70188 -0.992659 0
M  V30 2798 H 264.774 -7.06417 0.487867 0
M  V30 2799 H 265.182 -5.62363 -0.490762 0
M  V30 2800 N 264.58 -0.43555 -1.51462 0
M  V30 2801 C 265.51 0.367376 -2.30592 0
M  V30 2802 C 266.491 1.02263 -1.35928 0
M  V30 2803 O 267.676 1.02661 -1.64847 0
M  V30 2804 C 264.806 1.46983 -3.14664 0
M  V30 2805 C 263.76 0.938161 -4.17591 0
M  V30 2806 C 263.086 2.13622 -4.90173 0
M  V30 2807 C 264.386 -0.0261621 -5.22293 0
M  V30 2808 H 266.08 -0.292969 -2.97963 0
M  V30 2809 H 263.626 -0.14234 -1.43295 0
M  V30 2810 H 265.579 2.03873 -3.688 0
M  V30 2811 H 264.303 2.15843 -2.4511 0
M  V30 2812 H 262.962 0.391481 -3.64504 0
M  V30 2813 H 262.61 2.81098 -4.17124 0
M  V30 2814 H 262.31 1.78688 -5.59772 0
M  V30 2815 H 263.834 2.7107 -5.47132 0
M  V30 2816 H 265.248 0.452384 -5.71512 0
M  V30 2817 H 263.645 -0.287992 -5.99409 0
M  V30 2818 H 264.715 -0.963391 -4.75233 0
M  V30 2819 N 266.058 1.56714 -0.166846 0
M  V30 2820 C 267.335 1.88412 0.525373 0
M  V30 2821 C 267.715 1.07602 1.81618 0
M  V30 2822 O 267.063 0.168621 2.27877 0
M  V30 2823 C 267.273 3.40363 0.771613 0
M  V30 2824 C 268.621 4.10007 1.1036 0
M  V30 2825 O 269.645 3.45655 0.860304 0
M  V30 2826 O 268.504 5.2369 1.56239 0
M  V30 2827 H 265.598 0.781587 0.270278 0
M  V30 2828 H 268.144 1.68458 -0.204946 0
M  V30 2829 H 266.916 3.91046 -0.141093 0
M  V30 2830 H 266.539 3.65914 1.55541 0
M  V30 2831 N 267.536 -0.106894 1.57237 0
M  V30 2832 C 268.466 -1.13148 2.04254 0
M  V30 2833 C 269.447 -1.42476 0.929224 0
M  V30 2834 O 270.632 -1.52709 1.19973 0
M  V30 2835 C 267.762 -2.4545 2.45706 0
M  V30 2836 C 266.716 -2.30558 3.60592 0
M  V30 2837 C 266.042 -3.67931 3.87983 0
M  V30 2838 C 267.342 -1.75597 4.91897 0
M  V30 2839 H 269.036 -0.740374 2.90101 0
M  V30 2840 H 266.582 -0.354696 1.39563 0
M  V30 2841 H 268.535 -3.17389 2.77205 0
M  V30 2842 H 267.259 -2.86475 1.56843 0
M  V30 2843 H 265.918 -1.61067 3.29322 0
M  V30 2844 H 265.566 -4.06462 2.96306 0
M  V30 2845 H 265.266 -3.58817 4.65322 0
M  V30 2846 H 266.79 -4.41356 4.21945 0
M  V30 2847 H 268.204 -2.37364 5.21854 0
M  V30 2848 H 266.601 -1.77272 5.73319 0
M  V30 2849 H 267.671 -0.714451 4.79608 0
M  V30 2850 N 269.014 -1.53014 -0.377408 0
M  V30 2851 C 269.924 -1.81557 -1.48574 0
M  V30 2852 C 270.94 -0.703102 -1.59162 0
M  V30 2853 O 272.116 -0.99192 -1.75279 0
M  V30 2854 C 269.181 -1.9889 -2.83978 0
M  V30 2855 C 268.242 -3.22801 -2.83016 0
M  V30 2856 C 267.475 -3.39298 -4.11962 0
M  V30 2857 O 267.698 -2.60345 -5.0752 0
M  V30 2858 O 266.632 -4.32604 -4.18494 0
M  V30 2859 H 270.458 -2.75695 -1.27382 0
M  V30 2860 H 268.043 -1.38248 -0.566373 0
M  V30 2861 H 269.925 -2.11931 -3.6423 0
M  V30 2862 H 268.6 -1.07942 -3.05172 0
M  V30 2863 H 267.507 -3.15193 -2.01505 0
M  V30 2864 H 268.84 -4.13632 -2.66775 0
M  V30 2865 N 270.492 0.636531 -1.44174 0
M  V30 2866 C 271.717 1.42847 -1.50364 0
M  V30 2867 C 272.142 1.87665 -0.127867 0
M  V30 2868 O 271.5 1.58408 0.88185 0
M  V30 2869 C 271.548 2.62854 -2.4686 0
M  V30 2870 O 270.652 3.62501 -1.9664 0
M  V30 2871 H 269.993 0.427642 -0.507955 0
M  V30 2872 H 272.523 0.777422 -1.89255 0
M  V30 2873 H 272.533 3.10465 -2.64718 0
M  V30 2874 H 271.208 2.29578 -3.46795 0
M  V30 2875 H 269.785 3.21735 -1.88523 0
M  V30 2876 N 271.97 1.30982 0.876444 0
M  V30 2877 C 273.2 1.23063 1.65949 0
M  V30 2878 C 273.608 -0.207537 1.88058 0
M  V30 2879 O 272.951 -1.14781 1.43426 0
M  V30 2880 C 273.013 1.89768 3.05333 0
M  V30 2881 C 272.677 3.39106 3.0636 0
M  V30 2882 C 273.674 4.3496 2.84791 0
M  V30 2883 C 271.359 3.80693 3.27686 0
M  V30 2884 C 273.353 5.70375 2.84519 0
M  V30 2885 C 271.04 5.16223 3.27043 0
M  V30 2886 C 272.038 6.10875 3.05485 0
M  V30 2887 O 271.726 7.43928 3.04674 0
M  V30 2888 H 271.458 0.426685 0.524324 0
M  V30 2889 H 274.012 1.7329 1.10271 0
M  V30 2890 H 272.242 1.34082 3.6271 0
M  V30 2891 H 273.931 1.75853 3.65829 0
M  V30 2892 H 274.697 4.0416 2.68103 0
M  V30 2893 H 270.576 3.07457 3.43499 0
M  V30 2894 H 274.12 6.44228 2.67611 0
M  V30 2895 H 270.017 5.4666 3.43269 0
M  V30 2896 H 270.785 7.53022 3.2078 0
M  V30 2897 N 273.449 -1.08991 1.13837 0
M  V30 2898 C 274.697 -1.80899 0.901098 0
M  V30 2899 C 275.018 -1.86356 -0.574134 0
M  V30 2900 O 274.288 -1.35235 -1.41733 0
M  V30 2901 H 272.868 -0.669966 0.330386 0
M  V30 2902 H 275.53 -1.318 1.43578 0
M  V30 2903 H 274.626 -2.83929 1.29578 0
M  V30 2904 N 274.927 -0.932562 -1.27047 0
M  V30 2905 C 276.157 -0.591173 -1.97961 0
M  V30 2906 C 276.565 0.836219 -1.69717 0
M  V30 2907 O 275.908 1.56801 -0.957036 0
M  V30 2908 C 275.97 -0.743082 -3.51736 0
M  V30 2909 C 275.634 -2.1435 -4.03613 0
M  V30 2910 C 276.631 -3.11815 -4.16014 0
M  V30 2911 C 274.316 -2.46175 -4.37839 0
M  V30 2912 C 276.31 -4.39211 -4.61923 0
M  V30 2913 C 273.997 -3.73806 -4.83438 0
M  V30 2914 C 274.995 -4.70137 -4.95439 0
M  V30 2915 O 274.683 -5.95496 -5.40037 0
M  V30 2916 H 274.415 -0.222375 -0.638377 0
M  V30 2917 H 276.969 -1.25317 -1.62742 0
M  V30 2918 H 275.199 -0.0239739 -3.86693 0
M  V30 2919 H 276.888 -0.40603 -4.03864 0
M  V30 2920 H 277.654 -2.88549 -3.89826 0
M  V30 2921 H 273.533 -1.71936 -4.27737 0
M  V30 2922 H 277.077 -5.14404 -4.71205 0
M  V30 2923 H 272.974 -3.96888 -5.09068 0
M  V30 2924 H 273.742 -5.98554 -5.58279 0
M  V30 2925 N 276.405 1.4127 -0.698611 0
M  V30 2926 C 277.63 2.06024 -0.238512 0
M  V30 2927 C 278.055 1.5224 1.10475 0
M  V30 2928 O 277.413 0.650623 1.69223 0
M  V30 2929 C 277.461 3.59988 -0.209952 0
M  V30 2930 O 276.565 4.04282 0.814235 0
M  V30 2931 H 275.906 0.653829 -0.115775 0
M  V30 2932 H 278.436 1.8098 -0.954326 0
M  V30 2933 H 278.446 4.07979 -0.0418436 0
M  V30 2934 H 277.121 3.98503 -1.1903 0
M  V30 2935 H 275.698 3.6779 0.615234 0
M  V30 2936 N 277.883 0.443576 1.51229 0
M  V30 2937 C 279.108 -0.121648 2.07043 0
M  V30 2938 C 279.533 -1.35156 1.30823 0
M  V30 2939 O 278.891 -1.7793 0.347934 0
M  V30 2940 C 278.939 -0.41624 3.5819 0
M  V30 2941 O 278.043 -1.50163 3.8409 0
M  V30 2942 H 277.384 0.000871367 0.663999 0
M  V30 2943 H 279.914 0.626706 1.94765 0
M  V30 2944 H 279.924 -0.664867 4.02546 0
M  V30 2945 H 278.599 0.482653 4.1309 0
M  V30 2946 H 277.176 -1.24248 3.51592 0
M  V30 2947 N 279.361 -1.56624 0.175154 0
M  V30 2948 C 280.271 -2.21741 -0.766042 0
M  V30 2949 C 281.287 -1.21023 -1.25018 0
M  V30 2950 O 282.463 -1.53697 -1.3015 0
M  V30 2951 C 279.528 -2.84839 -1.97655 0
M  V30 2952 C 278.589 -4.00769 -1.53892 0
M  V30 2953 C 277.822 -4.60849 -2.69173 0
M  V30 2954 O 278.045 -4.19823 -3.86141 0
M  V30 2955 O 276.979 -5.50655 -2.43028 0
M  V30 2956 H 280.805 -3.02738 -0.241585 0
M  V30 2957 H 278.39 -1.49305 -0.053222 0
M  V30 2958 H 280.272 -3.24834 -2.68442 0
M  V30 2959 H 278.947 -2.06836 -2.48999 0
M  V30 2960 H 277.854 -3.65436 -0.80044 0
M  V30 2961 H 279.187 -4.80376 -1.07236 0
M  V30 2962 N 280.839 0.0985539 -1.57292 0
M  V30 2963 C 282.116 0.834155 -1.76921 0
M  V30 2964 C 282.496 1.97101 -0.755928 0
M  V30 2965 O 281.844 2.27474 0.216245 0
M  V30 2966 C 282.054 1.33194 -3.22584 0
M  V30 2967 C 283.402 1.77611 -3.85668 0
M  V30 2968 O 284.426 1.42825 -3.26312 0
M  V30 2969 O 283.285 2.4192 -4.90038 0
M  V30 2970 H 280.379 0.397628 -0.725135 0
M  V30 2971 H 282.925 0.0807044 -1.69508 0
M  V30 2972 H 281.697 0.517248 -3.87866 0
M  V30 2973 H 281.32 2.1475 -3.34616 0
M  V30 2974 N 282.317 1.53212 0.369288 0
M  V30 2975 C 283.566 1.68436 1.10961 0
M  V30 2976 C 283.879 0.440738 1.9057 0
M  V30 2977 O 285.085 0.473446 2.6734 0
M  V30 2978 C 283.541 2.97744 2.0218 0
M  V30 2979 C 283.149 4.29355 1.279 0
M  V30 2980 C 284.893 3.22334 2.76226 0
M  V30 2981 C 282.8 5.49755 2.17999 0
M  V30 2982 H 281.73 0.627568 0.41794 0
M  V30 2983 H 284.381 1.79713 0.370884 0
M  V30 2984 H 282.763 2.8026 2.79768 0
M  V30 2985 H 283.937 4.57458 0.554007 0
M  V30 2986 H 282.252 4.11179 0.657311 0
M  V30 2987 H 284.849 4.09471 3.43857 0
M  V30 2988 H 285.192 2.38238 3.41392 0
M  V30 2989 H 285.725 3.40475 2.05723 0
M  V30 2990 H 282.464 6.36318 1.57417 0
M  V30 2991 H 281.984 5.25937 2.88359 0
M  V30 2992 H 283.663 5.84401 2.77641 0
M  V30 2993 N 283.795 -0.628877 1.44509 0
M  V30 2994 C 285.041 -1.39045 1.47629 0
M  V30 2995 C 285.374 -1.93892 0.109343 0
M  V30 2996 O 284.649 -1.7379 -0.87334 0
M  V30 2997 C 284.932 -2.55408 2.53848 0
M  V30 2998 C 284.785 -2.05896 3.99909 0
M  V30 2999 C 286.104 -3.5759 2.56549 0
M  V30 3000 H 283.223 -0.504232 0.537512 0
M  V30 3001 H 285.865 -0.710854 1.76201 0
M  V30 3002 H 284.015 -3.13384 2.29615 0
M  V30 3003 H 285.687 -1.52734 4.35282 0
M  V30 3004 H 283.93 -1.37061 4.11578 0
M  V30 3005 H 284.601 -2.89681 4.69882 0
M  V30 3006 H 287.077 -3.09419 2.78207 0
M  V30 3007 H 285.953 -4.36527 3.32769 0
M  V30 3008 H 286.214 -4.11808 1.60832 0
M  V30 3009 N 285.273 -1.31445 -0.869486 0
M  V30 3010 C 286.503 -1.23942 -1.65294 0
M  V30 3011 C 286.911 0.197561 -1.88166 0
M  V30 3012 O 286.254 1.14019 -1.44033 0
M  V30 3013 C 286.316 -1.91385 -3.04322 0
M  V30 3014 C 285.98 -3.40726 -3.04557 0
M  V30 3015 C 286.977 -4.36464 -2.82481 0
M  V30 3016 C 284.662 -3.82425 -3.25663 0
M  V30 3017 C 286.656 -5.71876 -2.8149 0
M  V30 3018 C 284.343 -5.1795 -3.243 0
M  V30 3019 C 285.341 -6.12486 -3.02241 0
M  V30 3020 O 285.029 -7.45534 -3.00724 0
M  V30 3021 H 284.761 -0.429459 -0.522054 0
M  V30 3022 H 287.315 -1.73873 -1.0935 0
M  V30 3023 H 285.545 -1.36004 -3.61994 0
M  V30 3024 H 287.234 -1.77791 -3.64891 0
M  V30 3025 H 288 -4.05576 -2.65956 0
M  V30 3026 H 283.879 -3.09274 -3.41863 0
M  V30 3027 H 287.423 -6.45638 -2.64191 0
M  V30 3028 H 283.32 -5.48473 -3.40365 0
M  V30 3029 H 284.088 -7.54713 -3.16782 0
M  V30 3030 N 286.751 1.08385 -1.14413 0
M  V30 3031 C 287.981 1.8425 -0.934644 0
M  V30 3032 C 288.389 1.81907 0.520234 0
M  V30 3033 O 287.732 1.22126 1.37226 0
M  V30 3034 C 287.794 3.32853 -1.35828 0
M  V30 3035 C 287.458 3.5893 -2.82875 0
M  V30 3036 C 288.455 3.53756 -3.80989 0
M  V30 3037 C 286.14 3.86934 -3.20293 0
M  V30 3038 C 288.134 3.76216 -5.14529 0
M  V30 3039 C 285.821 4.09047 -4.54008 0
M  V30 3040 C 286.819 4.03682 -5.50936 0
M  V30 3041 O 286.507 4.25214 -6.82238 0
M  V30 3042 H 286.239 0.588502 -0.332628 0
M  V30 3043 H 288.793 1.37792 -1.52324 0
M  V30 3044 H 287.023 3.8007 -0.713019 0
M  V30 3045 H 288.712 3.90154 -1.11957 0
M  V30 3046 H 289.478 3.32135 -3.53428 0
M  V30 3047 H 285.357 3.9023 -2.45442 0
M  V30 3048 H 288.901 3.71943 -5.90173 0
M  V30 3049 H 284.798 4.30151 -4.8129 0
M  V30 3050 H 285.566 4.42619 -6.88499 0
M  V30 3051 N 288.23 0.939286 1.26551 0
M  V30 3052 C 289.476 0.596234 1.94465 0
M  V30 3053 C 289.831 -0.855013 1.72358 0
M  V30 3054 O 289.124 -1.6034 1.04889 0
M  V30 3055 C 289.318 0.872106 3.46596 0
M  V30 3056 C 289.147 2.34862 3.83497 0
M  V30 3057 C 287.917 3.00344 4.06352 0
M  V30 3058 C 290.115 3.32697 3.92195 0
M  V30 3059 N 288.097 4.38027 4.30123 0
M  V30 3060 C 289.468 4.55631 4.20476 0
M  V30 3061 C 291.523 3.27747 3.74815 0
M  V30 3062 C 290.226 5.74233 4.33185 0
M  V30 3063 C 292.252 4.45672 3.88755 0
M  V30 3064 C 291.614 5.67388 4.17433 0
M  V30 3065 H 287.713 0.268515 0.734455 0
M  V30 3066 H 290.297 1.2083 1.5267 0
M  V30 3067 H 288.468 0.289102 3.87323 0
M  V30 3068 H 290.2 0.490513 4.01716 0
M  V30 3069 H 286.955 2.50969 4.01636 0
M  V30 3070 H 287.379 5.09288 4.46044 0
M  V30 3071 H 292.021 2.34703 3.51673 0
M  V30 3072 H 289.739 6.67731 4.55149 0
M  V30 3073 H 293.325 4.43372 3.76713 0
M  V30 3074 H 292.205 6.57115 4.27983 0
M  V30 3075 N 289.708 -1.40897 0.706093 0
M  V30 3076 C 290.933 -2.05895 0.249435 0
M  V30 3077 C 291.358 -1.52823 -1.09666 0
M  V30 3078 O 290.716 -0.659589 -1.68876 0
M  V30 3079 C 290.764 -3.59872 0.22904 0
M  V30 3080 O 289.868 -4.04708 -0.792784 0
M  V30 3081 H 289.209 -0.653206 0.119241 0
M  V30 3082 H 291.739 -1.80471 0.96391 0
M  V30 3083 H 291.749 -4.07951 0.0634791 0
M  V30 3084 H 290.424 -3.97866 1.21141 0
M  V30 3085 H 289.001 -3.68111 -0.59572 0
M  V30 3086 N 291.186 -0.45159 -1.50991 0
M  V30 3087 C 292.096 0.358431 -2.31846 0
M  V30 3088 C 293.112 1.01438 -1.41373 0
M  V30 3089 O 294.288 1.00663 -1.74439 0
M  V30 3090 C 291.353 1.43704 -3.15515 0
M  V30 3091 C 290.414 0.799742 -4.21785 0
M  V30 3092 C 289.647 1.82696 -5.01456 0
M  V30 3093 O 289.87 3.05105 -4.81941 0
M  V30 3094 O 288.804 1.40958 -5.85162 0
M  V30 3095 H 292.63 -0.302032 -3.02194 0
M  V30 3096 H 290.215 -0.213825 -1.47862 0
M  V30 3097 H 292.097 2.06227 -3.67489 0
M  V30 3098 H 290.772 2.08133 -2.47916 0
M  V30 3099 H 289.679 0.136084 -3.73852 0
M  V30 3100 H 291.012 0.198718 -4.91799 0
M  V30 3101 N 292.664 1.56529 -0.183458 0
M  V30 3102 C 293.889 2.02064 0.467428 0
M  V30 3103 C 294.314 1.06282 1.55196 0
M  V30 3104 O 293.672 0.0443565 1.81246 0
M  V30 3105 C 293.72 3.46122 1.01153 0
M  V30 3106 O 292.824 3.53437 2.12499 0
M  V30 3107 H 292.165 0.654726 0.110588 0
M  V30 3108 H 294.695 2.02521 -0.290917 0
M  V30 3109 H 294.705 3.85676 1.33108 0
M  V30 3110 H 293.38 4.15331 0.217533 0
M  V30 3111 H 291.957 3.2575 1.81497 0
M  V30 3112 N 294.142 -0.090211 1.57342 0
M  V30 3113 C 295.074 -1.13541 1.99101 0
M  V30 3114 C 296.087 -1.3604 0.894258 0
M  V30 3115 O 297.276 -1.34606 1.17233 0
M  V30 3116 C 294.376 -2.49001 2.29895 0
M  V30 3117 C 293.549 -2.46712 3.61182 0
M  V30 3118 C 292.608 -3.64136 3.79857 0
M  V30 3119 O 291.634 -3.46405 4.51655 0
M  V30 3120 N 292.836 -4.83802 3.20806 0
M  V30 3121 H 295.601 -0.779942 2.89373 0
M  V30 3122 H 293.162 -0.279125 1.59476 0
M  V30 3123 H 295.154 -3.26166 2.39578 0
M  V30 3124 H 293.724 -2.76619 1.45605 0
M  V30 3125 H 292.944 -1.55058 3.62423 0
M  V30 3126 H 294.232 -2.42265 4.4742 0
M  V30 3127 H 293.63 -5.01112 2.62494 0
M  V30 3128 H 292.187 -5.58543 3.35966 0
M  V30 3129 N 295.62 -1.53406 -0.361157 0
M  V30 3130 C 296.53 -1.83122 -1.4664 0
M  V30 3131 C 297.546 -0.719943 -1.58407 0
M  V30 3132 O 298.722 -1.01046 -1.74218 0
M  V30 3133 C 295.787 -2.01891 -2.81853 0
M  V30 3134 C 294.848 -3.25784 -2.79577 0
M  V30 3135 C 294.081 -3.43648 -4.0834 0
M  V30 3136 O 294.304 -2.65714 -5.0473 0
M  V30 3137 O 293.238 -4.37018 -4.13883 0
M  V30 3138 H 297.064 -2.7703 -1.24451 0
M  V30 3139 H 294.649 -1.38841 -0.551678 0
M  V30 3140 H 296.531 -2.15782 -3.61962 0
M  V30 3141 H 295.206 -1.11173 -3.0401 0
M  V30 3142 H 294.113 -3.17312 -1.98151 0
M  V30 3143 H 295.446 -4.16439 -2.62373 0
M  V30 3144 N 297.098 0.621204 -1.44841 0
M  V30 3145 C 298.048 1.72663 -1.48901 0
M  V30 3146 C 299.032 1.56964 -0.353702 0
M  V30 3147 O 300.224 1.66532 -0.599669 0
M  V30 3148 C 297.353 3.11381 -1.44557 0
M  V30 3149 C 296.439 3.32514 -2.6324 0
M  V30 3150 N 296.83 3.23969 -3.8843 0
M  V30 3151 C 295.128 3.63343 -2.58647 0
M  V30 3152 C 295.829 3.46062 -4.67564 0
M  V30 3153 N 294.805 3.69407 -3.98797 0
M  V30 3154 H 298.607 1.64529 -2.43531 0
M  V30 3155 H 296.121 0.82401 -1.39942 0
M  V30 3156 H 298.118 3.90667 -1.4555 0
M  V30 3157 H 296.778 3.20674 -0.509731 0
M  V30 3158 H 297.789 3.02669 -4.20252 0
M  V30 3159 H 294.466 3.79556 -1.73906 0
M  V30 3160 H 295.856 3.44963 -5.76585 0
M  V30 3161 N 298.576 1.31904 0.862503 0
M  V30 3162 C 299.825 1.21373 1.61094 0
M  V30 3163 C 300.138 -0.22504 1.94301 0
M  V30 3164 O 301.344 -0.452121 2.67709 0
M  V30 3165 C 299.8 2.12525 2.9045 0
M  V30 3166 C 299.408 3.61441 2.64697 0
M  V30 3167 C 301.152 2.10813 3.68454 0
M  V30 3168 C 299.059 4.44578 3.90006 0
M  V30 3169 H 297.989 0.450705 0.604468 0
M  V30 3170 H 300.64 1.56811 0.953027 0
M  V30 3171 H 299.022 1.69994 3.57656 0
M  V30 3172 H 300.196 4.12264 2.05851 0
M  V30 3173 H 298.511 3.65205 2.00036 0
M  V30 3174 H 301.108 2.70167 4.61426 0
M  V30 3175 H 301.451 1.09713 4.01583 0
M  V30 3176 H 301.984 2.51583 3.08141 0
M  V30 3177 H 298.723 5.46461 3.62023 0
M  V30 3178 H 298.243 3.98508 4.48276 0
M  V30 3179 H 299.922 4.57176 4.5782 0
M  V30 3180 N 300.054 -1.07777 1.14986 0
M  V30 3181 C 301.004 -2.13082 0.811181 0
M  V30 3182 C 301.988 -1.59619 -0.202597 0
M  V30 3183 O 303.18 -1.77 -0.00398275 0
M  V30 3184 C 300.309 -3.42009 0.297439 0
M  V30 3185 C 299.395 -4.02337 1.34112 0
M  V30 3186 N 299.786 -4.36982 2.54716 0
M  V30 3187 C 298.084 -4.29752 1.19285 0
M  V30 3188 C 298.785 -4.84729 3.21578 0
M  V30 3189 N 297.761 -4.83233 2.48972 0
M  V30 3190 H 301.563 -2.37696 1.72853 0
M  V30 3191 H 299.077 -1.25173 1.03468 0
M  V30 3192 H 301.074 -4.16884 0.0364777 0
M  V30 3193 H 299.734 -3.18841 -0.614022 0
M  V30 3194 H 300.745 -4.27807 2.91894 0
M  V30 3195 H 297.422 -4.16106 0.340926 0
M  V30 3196 H 298.812 -5.20863 4.24442 0
M  V30 3197 N 301.532 -0.945985 -1.26051 0
M  V30 3198 C 302.78 -0.594941 -1.93145 0
M  V30 3199 C 303.101 0.86953 -1.7454 0
M  V30 3200 O 302.371 1.61838 -1.10387 0
M  V30 3201 H 300.951 -0.217044 -0.714773 0
M  V30 3202 H 303.613 -1.20235 -1.53393 0
M  V30 3203 H 302.709 -0.816835 -3.01221 0
M  V30 3204 N 303.011 1.40521 -0.713556 0
M  V30 3205 C 303.941 2.33381 -0.0743864 0
M  V30 3206 C 304.922 1.52784 0.747735 0
M  V30 3207 O 306.107 1.81258 0.697071 0
M  V30 3208 C 303.237 3.36748 0.849598 0
M  V30 3209 C 302.191 4.27793 0.133247 0
M  V30 3210 C 301.517 5.21679 1.17281 0
M  V30 3211 C 302.817 5.12415 -1.01134 0
M  V30 3212 H 304.511 2.87081 -0.850007 0
M  V30 3213 H 302.057 1.38034 -0.410201 0
M  V30 3214 H 304.01 4.00648 1.30612 0
M  V30 3215 H 302.734 2.81439 1.65709 0
M  V30 3216 H 301.393 3.65342 -0.303426 0
M  V30 3217 H 301.041 4.62677 1.9733 0
M  V30 3218 H 300.741 5.83435 0.698397 0
M  V30 3219 H 302.265 5.88456 1.62947 0
M  V30 3220 H 303.679 5.69781 -0.634274 0
M  V30 3221 H 302.076 5.83203 -1.41399 0
M  V30 3222 H 303.146 4.48514 -1.84292 0
M  V30 3223 N 304.489 0.459591 1.5075 0
M  V30 3224 C 305.766 -0.160371 1.94941 0
M  V30 3225 C 306.146 -1.58048 1.39943 0
M  V30 3226 O 305.494 -2.206 0.595629 0
M  V30 3227 C 305.704 -0.115432 3.48809 0
M  V30 3228 C 307.052 -0.310026 4.23467 0
M  V30 3229 O 308.076 -0.192543 3.55679 0
M  V30 3230 O 306.935 -0.546031 5.43765 0
M  V30 3231 H 304.029 -0.117925 0.818549 0
M  V30 3232 H 306.575 0.519169 1.61563 0
M  V30 3233 H 305.347 0.87652 3.81357 0
M  V30 3234 H 304.97 -0.836928 3.88692 0
M  V30 3235 N 305.967 -1.56429 0.191757 0
M  V30 3236 C 306.914 -2.18936 -0.730454 0
M  V30 3237 C 307.884 -1.13557 -1.21219 0
M  V30 3238 O 309.069 -1.41794 -1.27668 0
M  V30 3239 C 306.209 -2.85013 -1.9458 0
M  V30 3240 C 305.322 -4.04909 -1.50574 0
M  V30 3241 C 304.457 -4.58853 -2.67634 0
M  V30 3242 C 303.496 -5.71114 -2.20217 0
M  V30 3243 N 302.633 -6.19478 -3.30442 0
M  V30 3244 H 307.473 -2.97389 -0.190664 0
M  V30 3245 H 305.01 -1.46869 -0.0823694 0
M  V30 3246 H 306.968 -3.21492 -2.65893 0
M  V30 3247 H 305.598 -2.09129 -2.45896 0
M  V30 3248 H 304.65 -3.74115 -0.688605 0
M  V30 3249 H 305.962 -4.86113 -1.11784 0
M  V30 3250 H 305.116 -4.97619 -3.47074 0
M  V30 3251 H 303.855 -3.76749 -3.09696 0
M  V30 3252 H 302.86 -5.31879 -1.3923 0
M  V30 3253 H 304.085 -6.55033 -1.79189 0
M  V30 3254 H 302.031 -5.40297 -3.72041 0
M  V30 3255 H 301.948 -6.95725 -2.9581 0
M  V30 3256 H 303.216 -6.62898 -4.10106 0
M  V30 3257 N 307.445 0.0818655 -1.57387 0
M  V30 3258 C 308.375 1.09885 -2.06028 0
M  V30 3259 C 309.356 1.4098 -0.951774 0
M  V30 3260 O 310.541 1.50781 -1.22387 0
M  V30 3261 C 307.671 2.4151 -2.4958 0
M  V30 3262 C 306.625 2.24792 -3.64215 0
M  V30 3263 C 305.951 3.61712 -3.93787 0
M  V30 3264 C 307.251 1.67749 -4.94629 0
M  V30 3265 H 308.945 0.694128 -2.91243 0
M  V30 3266 H 306.491 0.332448 -1.4011 0
M  V30 3267 H 308.444 3.12939 -2.82219 0
M  V30 3268 H 307.168 2.83943 -1.61381 0
M  V30 3269 H 305.827 1.55807 -3.31843 0
M  V30 3270 H 305.475 4.01697 -3.02735 0
M  V30 3271 H 305.175 3.51368 -4.70971 0
M  V30 3272 H 306.699 4.34587 -4.28913 0
M  V30 3273 H 308.113 2.29032 -5.25564 0
M  V30 3274 H 306.51 1.68128 -5.76067 0
M  V30 3275 H 307.58 0.638059 -4.80684 0
M  V30 3276 N 308.923 1.53595 0.353017 0
M  V30 3277 C 309.855 1.77219 1.45348 0
M  V30 3278 C 310.868 0.65324 1.49119 0
M  V30 3279 O 312.057 0.929775 1.52373 0
M  V30 3280 C 309.157 1.84841 2.84055 0
M  V30 3281 C 308.33 3.14649 3.03833 0
M  V30 3282 C 307.389 3.13351 4.22727 0
M  V30 3283 O 306.415 3.87107 4.17297 0
M  V30 3284 N 307.617 2.35052 5.30783 0
M  V30 3285 H 310.382 2.72178 1.25457 0
M  V30 3286 H 307.943 1.52528 0.542833 0
M  V30 3287 H 309.935 1.81435 3.61751 0
M  V30 3288 H 308.505 0.971114 2.97133 0
M  V30 3289 H 307.725 3.31256 2.13689 0
M  V30 3290 H 309.013 4.00411 3.13925 0
M  V30 3291 H 308.411 1.74663 5.38061 0
M  V30 3292 H 306.968 2.37453 6.07009 0
M  V30 3293 N 310.401 -0.613514 1.45168 0
M  V30 3294 C 311.331 -1.7354 1.56225 0
M  V30 3295 C 312.312 -1.64981 0.41414 0
M  V30 3296 O 313.497 -1.83472 0.636526 0
M  V30 3297 C 310.627 -3.12128 1.52295 0
M  V30 3298 C 309.581 -3.35491 2.65762 0
M  V30 3299 C 308.907 -4.74291 2.46885 0
M  V30 3300 C 310.207 -3.26325 4.0781 0
M  V30 3301 H 311.901 -1.64543 2.50132 0
M  V30 3302 H 309.447 -0.790185 1.20383 0
M  V30 3303 H 311.4 -3.90404 1.58628 0
M  V30 3304 H 310.124 -3.2195 0.549139 0
M  V30 3305 H 308.783 -2.59603 2.58847 0
M  V30 3306 H 308.431 -4.80839 1.47657 0
M  V30 3307 H 308.131 -4.9088 3.22972 0
M  V30 3308 H 309.655 -5.54775 2.55063 0
M  V30 3309 H 311.069 -3.94483 4.16 0
M  V30 3310 H 309.466 -3.54445 4.8424 0
M  V30 3311 H 310.536 -2.23855 4.30136 0
M  V30 3312 N 311.879 -1.3236 -0.855495 0
M  V30 3313 C 312.842 -1.21164 -1.94556 0
M  V30 3314 C 313.842 -0.134908 -1.60233 0
M  V30 3315 O 315.032 -0.385249 -1.69887 0
M  V30 3316 C 312.164 -0.863192 -3.29791 0
M  V30 3317 H 313.357 -2.18038 -2.05911 0
M  V30 3318 H 310.91 -1.16179 -1.04557 0
M  V30 3319 H 311.645 0.103769 -3.24134 0
M  V30 3320 H 311.43 -1.64166 -3.56078 0
M  V30 3321 H 312.92 -0.809156 -4.09686 0
M  V30 3322 N 313.357 1.07166 -1.15556 0
M  V30 3323 C 314.289 2.14341 -0.811815 0
M  V30 3324 C 315.302 1.61835 0.177015 0
M  V30 3325 O 316.491 1.78439 -0.0464996 0
M  V30 3326 C 313.591 3.38387 -0.186481 0
M  V30 3327 C 312.764 4.20238 -1.21321 0
M  V30 3328 C 311.823 5.2266 -0.609302 0
M  V30 3329 O 310.849 5.54719 -1.27576 0
M  V30 3330 N 312.051 5.77306 0.608099 0
M  V30 3331 H 314.816 2.44431 -1.73417 0
M  V30 3332 H 312.377 1.23089 -1.0517 0
M  V30 3333 H 314.369 4.04044 0.230339 0
M  V30 3334 H 312.939 3.05994 0.639249 0
M  V30 3335 H 312.159 3.50369 -1.80652 0
M  V30 3336 H 313.447 4.71736 -1.90638 0
M  V30 3337 H 312.845 5.53513 1.1679 0
M  V30 3338 H 311.402 6.44583 0.96725 0
M  V30 3339 N 314.835 0.952656 1.25548 0
M  V30 3340 C 316.082 0.606373 1.93208 0
M  V30 3341 C 316.41 -0.85631 1.74636 0
M  V30 3342 O 315.665 -1.62951 1.08376 0
M  V30 3343 C 315.964 0.908818 3.45652 0
M  V30 3344 C 315.63 2.35722 3.84378 0
M  V30 3345 C 314.292 2.75312 3.9466 0
M  V30 3346 C 316.644 3.29793 4.03591 0
M  V30 3347 C 313.972 4.08047 4.21562 0
M  V30 3348 C 316.324 4.62138 4.31985 0
M  V30 3349 C 314.988 5.01528 4.40484 0
M  V30 3350 H 314.258 0.221888 0.706998 0
M  V30 3351 H 316.905 1.20132 1.49133 0
M  V30 3352 H 315.21 0.231456 3.91116 0
M  V30 3353 H 316.907 0.619498 3.96186 0
M  V30 3354 H 313.497 2.04017 3.76928 0
M  V30 3355 H 317.681 3.00397 3.95064 0
M  V30 3356 H 312.937 4.38212 4.26357 0
M  V30 3357 H 317.111 5.35012 4.45797 0
M  V30 3358 H 314.738 6.04406 4.61083 0
M  V30 3359 N 316.313 -1.40141 0.720998 0
M  V30 3360 C 317.541 -2.05096 0.272656 0
M  V30 3361 C 317.956 -1.54334 -1.0875 0
M  V30 3362 O 317.313 -0.702211 -1.6845 0
M  V30 3363 C 317.364 -3.60636 0.249835 0
M  V30 3364 O 317.085 -4.09526 1.55629 0
M  V30 3365 C 318.586 -4.42772 -0.216396 0
M  V30 3366 H 315.806 -0.659897 0.121558 0
M  V30 3367 H 318.35 -1.79449 0.980723 0
M  V30 3368 H 316.505 -3.85232 -0.409237 0
M  V30 3369 H 316.919 -5.03758 1.4604 0
M  V30 3370 H 318.393 -5.51702 -0.181212 0
M  V30 3371 H 318.87 -4.20756 -1.25941 0
M  V30 3372 H 319.476 -4.23294 0.412596 0
M  V30 3373 N 317.792 -0.46758 -1.50504 0
M  V30 3374 C 319.041 0.0902868 -2.01498 0
M  V30 3375 C 319.354 1.411 -1.35463 0
M  V30 3376 O 320.56 2.0536 -1.77594 0
M  V30 3377 C 319.016 0.21142 -3.59278 0
M  V30 3378 C 318.624 -1.10065 -4.34269 0
M  V30 3379 C 320.368 0.721433 -4.18325 0
M  V30 3380 C 318.275 -0.943505 -5.83825 0
M  V30 3381 H 317.205 0.037517 -0.753066 0
M  V30 3382 H 319.856 -0.601943 -1.73346 0
M  V30 3383 H 318.238 0.967352 -3.84003 0
M  V30 3384 H 319.412 -1.86726 -4.21272 0
M  V30 3385 H 317.727 -1.5415 -3.86816 0
M  V30 3386 H 320.324 0.85598 -5.27804 0
M  V30 3387 H 320.667 1.71186 -3.79475 0
M  V30 3388 H 321.2 0.0229843 -3.97793 0
M  V30 3389 H 317.939 -1.90719 -6.27141 0
M  V30 3390 H 317.459 -0.217213 -5.99407 0
M  V30 3391 H 319.138 -0.608715 -6.4413 0
M  V30 3392 N 319.27 1.56325 -0.20005 0
M  V30 3393 C 320.498 2.02105 0.442874 0
M  V30 3394 C 320.913 1.08014 1.5485 0
M  V30 3395 O 320.27 0.0858797 1.82298 0
M  V30 3396 C 320.321 3.47549 0.994583 0
M  V30 3397 O 320.042 4.38049 -0.0669322 0
M  V30 3398 C 321.543 4.0887 1.7129 0
M  V30 3399 H 318.763 0.661807 0.110691 0
M  V30 3400 H 321.307 2.02134 -0.310207 0
M  V30 3401 H 319.462 3.48204 1.69803 0
M  V30 3402 H 319.876 5.23368 0.344462 0
M  V30 3403 H 321.35 5.12475 2.05118 0
M  V30 3404 H 321.827 3.52615 2.61838 0
M  V30 3405 H 322.433 4.12002 1.05518 0
M  V30 3406 N 320.748 -0.0735177 1.57428 0
M  V30 3407 C 321.973 -0.789787 1.91774 0
M  V30 3408 C 322.398 -1.70413 0.796306 0
M  V30 3409 O 321.756 -1.79555 -0.250961 0
M  V30 3410 C 321.804 -1.5609 3.25067 0
M  V30 3411 O 320.908 -2.67144 3.14178 0
M  V30 3412 H 320.249 -0.215582 0.628029 0
M  V30 3413 H 322.779 -0.0422781 2.04556 0
M  V30 3414 H 322.789 -1.94052 3.58898 0
M  V30 3415 H 321.464 -0.890015 4.06265 0
M  V30 3416 H 320.041 -2.32052 2.91901 0
M  V30 3417 N 322.226 -1.5378 -0.344866 0
M  V30 3418 C 323.456 -1.74646 -1.10374 0
M  V30 3419 C 323.864 -0.48491 -1.8288 0
M  V30 3420 O 323.207 0.553062 -1.75177 0
M  V30 3421 C 323.269 -2.87145 -2.16306 0
M  V30 3422 C 322.933 -4.26795 -1.63386 0
M  V30 3423 C 323.93 -5.08412 -1.08688 0
M  V30 3424 C 321.615 -4.73276 -1.68272 0
M  V30 3425 C 323.609 -6.34609 -0.595792 0
M  V30 3426 C 321.296 -5.99446 -1.18776 0
M  V30 3427 C 322.294 -6.79946 -0.645215 0
M  V30 3428 O 321.982 -8.03745 -0.157626 0
M  V30 3429 H 321.714 -0.587112 -0.335075 0
M  V30 3430 H 324.268 -2.01403 -0.403252 0
M  V30 3431 H 322.498 -2.55909 -2.89909 0
M  V30 3432 H 324.187 -2.95992 -2.77747 0
M  V30 3433 H 324.953 -4.73666 -1.04236 0
M  V30 3434 H 320.832 -4.10677 -2.09442 0
M  V30 3435 H 324.376 -6.97389 -0.171654 0
M  V30 3436 H 320.273 -6.33687 -1.22928 0
M  V30 3437 H 321.041 -8.18038 -0.275037 0
M  V30 3438 N 323.704 0.605807 -1.45491 0
M  V30 3439 C 325.12 0.926751 -1.29936 0
M  V30 3440 C 325.32 1.99896 -0.253706 0
M  V30 3441 O 324.376 2.50038 0.351737 0
M  V30 3442 C 325.689 1.36599 -2.67883 0
M  V30 3443 C 327.237 1.4801 -2.75793 0
M  V30 3444 C 327.712 1.95309 -4.14268 0
M  V30 3445 N 329.203 2.0254 -4.16571 0
M  V30 3446 C 329.938 2.40363 -5.20589 0
M  V30 3447 N 329.434 2.77143 -6.34952 0
M  V30 3448 N 331.227 2.40718 -5.07948 0
M  V30 3449 H 323.378 -0.102862 -2.12151 0
M  V30 3450 H 325.641 0.016639 -0.947854 0
M  V30 3451 H 325.347 0.652306 -3.45598 0
M  V30 3452 H 325.221 2.33215 -2.96463 0
M  V30 3453 H 327.608 2.1847 -1.98381 0
M  V30 3454 H 327.689 0.497041 -2.50925 0
M  V30 3455 H 327.333 1.25436 -4.92167 0
M  V30 3456 H 327.263 2.94532 -4.3653 0
M  V30 3457 H 329.754 1.76699 -3.34045 0
M  V30 3458 H 330.067 3.0489 -7.10114 0
M  V30 3459 H 328.412 2.74834 -6.3835 0
M  V30 3460 H 331.603 2.11392 -4.1765 0
M  V30 3461 H 331.776 2.69869 -5.89131 0
M  V30 3462 N 325.182 1.32811 0.848464 0
M  V30 3463 C 326.429 1.23724 1.60308 0
M  V30 3464 C 326.757 -0.1994 1.93475 0
M  V30 3465 O 326.012 -1.15406 1.5805 0
M  V30 3466 C 326.311 2.04831 2.92881 0
M  V30 3467 C 325.977 3.54125 2.79117 0
M  V30 3468 C 324.639 3.94829 2.7507 0
M  V30 3469 C 326.991 4.49036 2.64606 0
M  V30 3470 C 324.319 5.28675 2.544 0
M  V30 3471 C 326.671 5.83033 2.4547 0
M  V30 3472 C 325.335 6.22931 2.39819 0
M  V30 3473 H 324.605 0.452737 0.586609 0
M  V30 3474 H 327.252 1.64301 0.983743 0
M  V30 3475 H 325.557 1.57001 3.58968 0
M  V30 3476 H 327.254 1.95164 3.50303 0
M  V30 3477 H 323.844 3.21801 2.83094 0
M  V30 3478 H 328.028 4.18505 2.66772 0
M  V30 3479 H 323.284 5.58637 2.48465 0
M  V30 3480 H 327.458 6.56186 2.33222 0
M  V30 3481 H 325.085 7.26584 2.23562 0
M  V30 3482 N 326.66 -1.06551 1.16123 0
M  V30 3483 C 327.888 -1.83005 0.965237 0
M  V30 3484 C 328.303 -1.82423 -0.486542 0
M  V30 3485 O 327.66 -1.24152 -1.33763 0
M  V30 3486 C 327.711 -3.29733 1.48183 0
M  V30 3487 O 327.432 -3.30416 2.87674 0
M  V30 3488 C 328.933 -4.22926 1.32848 0
M  V30 3489 H 326.153 -0.577118 0.342309 0
M  V30 3490 H 328.697 -1.3445 1.54089 0
M  V30 3491 H 326.852 -3.75609 0.948517 0
M  V30 3492 H 327.266 -4.22149 3.11272 0
M  V30 3493 H 328.74 -5.23916 1.73827 0
M  V30 3494 H 329.217 -4.38346 0.273692 0
M  V30 3495 H 329.823 -3.82894 1.85127 0
M  V30 3496 N 328.138 -0.959301 -1.25041 0
M  V30 3497 C 329.366 -0.633949 -1.96948 0
M  V30 3498 C 329.781 0.794916 -1.7125 0
M  V30 3499 O 329.138 1.53231 -0.991287 0
M  V30 3500 C 329.189 -0.888805 -3.50403 0
M  V30 3501 O 328.91 -2.26149 -3.75218 0
M  V30 3502 C 330.411 -0.576482 -4.39536 0
M  V30 3503 H 327.631 -0.237263 -0.627652 0
M  V30 3504 H 330.175 -1.28495 -1.59089 0
M  V30 3505 H 328.33 -0.284145 -3.86357 0
M  V30 3506 H 328.744 -2.33514 -4.6965 0
M  V30 3507 H 330.218 -0.805314 -5.46094 0
M  V30 3508 H 330.695 0.489075 -4.36468 0
M  V30 3509 H 331.301 -1.16067 -4.09156 0
M  V30 3510 N 329.616 1.39756 -0.72842 0
M  V30 3511 C 330.526 2.34444 -0.0855374 0
M  V30 3512 C 331.542 1.57976 0.729356 0
M  V30 3513 O 332.718 1.90301 0.659346 0
M  V30 3514 C 329.783 3.36965 0.815798 0
M  V30 3515 C 328.844 4.29299 -0.0105996 0
M  V30 3516 C 328.077 5.26923 0.84781 0
M  V30 3517 O 328.3 5.30859 2.08673 0
M  V30 3518 O 327.234 6.01249 0.279969 0
M  V30 3519 H 331.06 2.91065 -0.866892 0
M  V30 3520 H 328.645 1.4117 -0.48902 0
M  V30 3521 H 330.527 3.99804 1.33171 0
M  V30 3522 H 329.202 2.82739 1.57608 0
M  V30 3523 H 328.109 3.69703 -0.571877 0
M  V30 3524 H 329.442 4.86712 -0.73295 0
M  V30 3525 N 331.094 0.475555 1.50254 0
M  V30 3526 C 332.024 -0.30611 2.31485 0
M  V30 3527 C 333.005 -0.986228 1.38591 0
M  V30 3528 O 334.19 -0.982541 1.67511 0
M  V30 3529 C 331.32 -1.38588 3.1845 0
M  V30 3530 C 330.274 -0.827115 4.19932 0
M  V30 3531 C 329.6 -2.00551 4.95665 0
M  V30 3532 C 330.9 0.16463 5.2204 0
M  V30 3533 H 332.594 0.371866 2.97082 0
M  V30 3534 H 330.14 0.180282 1.42867 0
M  V30 3535 H 332.093 -1.94023 3.74076 0
M  V30 3536 H 330.817 -2.09269 2.50747 0
M  V30 3537 H 329.476 -0.294702 3.65414 0
M  V30 3538 H 329.124 -2.6994 4.2443 0
M  V30 3539 H 328.824 -1.63784 5.64313 0
M  V30 3540 H 330.348 -2.56468 5.54127 0
M  V30 3541 H 331.762 -0.300699 5.72511 0
M  V30 3542 H 330.159 0.446813 5.98434 0
M  V30 3543 H 331.229 1.08905 4.72512 0
M  V30 3544 N 332.573 -1.56217 0.208337 0
M  V30 3545 C 333.506 -2.15633 -0.746842 0
M  V30 3546 C 334.484 -1.09685 -1.20034 0
M  V30 3547 O 335.668 -1.3787 -1.28547 0
M  V30 3548 C 332.795 -2.72594 -2.01023 0
M  V30 3549 C 331.841 -3.91251 -1.69779 0
M  V30 3550 S 332.674 -5.28962 -0.834209 0
M  V30 3551 C 333.83 -5.89353 -2.10745 0
M  V30 3552 H 334.063 -2.96315 -0.241789 0
M  V30 3553 H 331.596 -1.54398 -0.00682183 0
M  V30 3554 H 333.554 -3.06053 -2.73572 0
M  V30 3555 H 332.215 -1.91929 -2.48641 0
M  V30 3556 H 331.408 -4.29562 -2.63614 0
M  V30 3557 H 331.01 -3.58869 -1.05303 0
M  V30 3558 H 333.302 -6.04522 -3.05875 0
M  V30 3559 H 334.245 -6.85661 -1.76845 0
M  V30 3560 H 334.653 -5.1807 -2.24196 0
M  V30 3561 N 334.051 0.0651679 -1.57465 0
M  V30 3562 C 334.999 1.09542 -2.05191 0
M  V30 3563 C 335.993 1.39675 -0.958509 0
M  V30 3564 O 337.199 1.39003 -1.14359 0
M  V30 3565 H 333.574 0.370623 -0.654326 0
M  V30 3566 H 335.545 0.666802 -2.90854 0
M  V30 3567 C 334.294 2.39881 -2.51699 0
M  V30 3568 H 333.617 2.17547 -3.3543 0
M  V30 3569 H 335.057 3.104 -2.88839 0
M  V30 3570 C 333.516 3.0631 -1.40271 0
M  V30 3571 O 334.046 3.94664 -0.748523 0
M  V30 3572 N 332.252 2.67041 -1.14618 0
M  V30 3573 H 331.799 1.95281 -1.67997 0
M  V30 3574 H 331.757 3.1181 -0.402688 0
M  V30 3575 N 335.529 1.53961 0.336706 0
M  V30 3576 C 336.776 1.71536 1.07618 0
M  V30 3577 C 337.104 0.482125 1.8843 0
M  V30 3578 O 336.359 -0.536142 1.88213 0
M  V30 3579 C 336.658 2.93493 2.03953 0
M  V30 3580 C 336.324 4.28811 1.39399 0
M  V30 3581 C 334.986 4.65602 1.21523 0
M  V30 3582 C 337.338 5.12844 0.929541 0
M  V30 3583 C 334.666 5.84037 0.558312 0
M  V30 3584 C 337.018 6.31951 0.286505 0
M  V30 3585 C 335.682 6.67432 0.0954869 0
M  V30 3586 H 334.952 0.627696 0.393801 0
M  V30 3587 H 337.599 1.88186 0.354715 0
M  V30 3588 H 335.904 2.71475 2.82504 0
M  V30 3589 H 337.601 3.04285 2.61174 0
M  V30 3590 H 334.191 3.99858 1.54311 0
M  V30 3591 H 338.375 4.84947 1.05548 0
M  V30 3592 H 333.631 6.10097 0.398995 0
M  V30 3593 H 337.805 6.96352 -0.0814376 0
M  V30 3594 H 335.432 7.59063 -0.415579 0
M  V30 3595 N 337.007 -0.598083 1.45811 0
M  V30 3596 C 337.954 -1.7082 1.55207 0
M  V30 3597 C 338.924 -1.61278 0.39732 0
M  V30 3598 O 340.109 -1.80717 0.612038 0
M  V30 3599 C 337.249 -3.09144 1.53376 0
M  V30 3600 C 336.362 -3.29423 2.79472 0
M  V30 3601 C 335.497 -4.57907 2.69248 0
M  V30 3602 C 334.536 -4.71476 3.90354 0
M  V30 3603 N 333.673 -5.9127 3.78608 0
M  V30 3604 H 338.513 -1.62125 2.50039 0
M  V30 3605 H 336.05 -0.790389 1.24062 0
M  V30 3606 H 338.008 -3.89186 1.50301 0
M  V30 3607 H 336.638 -3.16773 0.620876 0
M  V30 3608 H 335.69 -2.43091 2.92594 0
M  V30 3609 H 337.002 -3.3532 3.69272 0
M  V30 3610 H 336.156 -5.46157 2.64192 0
M  V30 3611 H 334.895 -4.54423 1.77063 0
M  V30 3612 H 333.9 -3.81648 3.95759 0
M  V30 3613 H 335.125 -4.76751 4.83617 0
M  V30 3614 H 333.071 -5.88813 2.89199 0
M  V30 3615 H 332.988 -5.98369 4.6205 0
M  V30 3616 H 334.256 -6.81992 3.77501 0
M  V30 3617 N 338.485 -1.33259 -0.841409 0
M  V30 3618 C 339.71 -1.2775 -1.63385 0
M  V30 3619 C 340.135 0.149188 -1.87507 0
M  V30 3620 O 339.493 1.10498 -1.43736 0
M  V30 3621 C 339.541 -2.05571 -2.96265 0
M  V30 3622 O 338.645 -1.41257 -3.87453 0
M  V30 3623 H 337.986 -0.439627 -0.497618 0
M  V30 3624 H 340.516 -1.75782 -1.04699 0
M  V30 3625 H 340.526 -2.16241 -3.45982 0
M  V30 3626 H 339.201 -3.09309 -2.7803 0
M  V30 3627 H 337.778 -1.39217 -3.45938 0
M  V30 3628 N 339.963 1.05934 -1.16686 0
M  V30 3629 C 340.926 2.11669 -0.879144 0
M  V30 3630 C 341.926 1.60294 0.127445 0
M  V30 3631 O 343.116 1.7389 -0.103865 0
M  V30 3632 C 340.248 3.39438 -0.315425 0
M  V30 3633 H 341.441 2.38626 -1.81653 0
M  V30 3634 H 338.994 1.22058 -0.976299 0
M  V30 3635 H 339.729 3.18132 0.629468 0
M  V30 3636 H 339.514 3.78034 -1.04079 0
M  V30 3637 H 341.004 4.17391 -0.132189 0
M  V30 3638 N 341.441 0.965919 1.2453 0
M  V30 3639 C 342.689 0.625593 1.92174 0
M  V30 3640 C 343.01 -0.841652 1.75901 0
M  V30 3641 O 342.28 -1.60061 1.12948 0
M  V30 3642 H 340.86 0.228388 0.71123 0
M  V30 3643 H 343.522 1.2266 1.51461 0
M  V30 3644 H 342.618 0.864653 2.99884 0
M  V30 3645 N 342.919 -1.39368 0.735821 0
M  V30 3646 C 343.851 -2.2913 0.0567723 0
M  V30 3647 C 344.864 -1.46859 -0.702589 0
M  V30 3648 O 346.053 -1.69925 -0.546616 0
M  V30 3649 C 343.153 -3.25492 -0.943823 0
M  V30 3650 C 342.326 -4.36709 -0.24581 0
M  V30 3651 C 341.385 -5.13376 -1.15463 0
M  V30 3652 O 340.411 -5.65683 -0.631803 0
M  V30 3653 N 341.613 -5.24656 -2.48427 0
M  V30 3654 H 344.378 -2.88047 0.827582 0
M  V30 3655 H 341.939 -1.50957 0.585112 0
M  V30 3656 H 343.931 -3.73657 -1.55443 0
M  V30 3657 H 342.501 -2.676 -1.61583 0
M  V30 3658 H 341.721 -3.9041 0.545286 0
M  V30 3659 H 343.009 -5.08244 0.237891 0
M  V30 3660 H 342.407 -4.83679 -2.93379 0
M  V30 3661 H 340.964 -5.76258 -3.04582 0
M  V30 3662 N 344.397 -0.483516 -1.5 0
M  V30 3663 C 345.644 0.0671597 -2.02389 0
M  V30 3664 C 345.972 1.38597 -1.36459 0
M  V30 3665 O 345.227 1.89634 -0.483458 0
M  V30 3666 C 345.526 0.286226 -3.56252 0
M  V30 3667 C 345.192 -0.952416 -4.40726 0
M  V30 3668 C 343.854 -1.29199 -4.63531 0
M  V30 3669 C 346.206 -1.77655 -4.89988 0
M  V30 3670 C 343.534 -2.45553 -5.32842 0
M  V30 3671 C 345.886 -2.93147 -5.60578 0
M  V30 3672 C 344.55 -3.27505 -5.81633 0
M  V30 3673 H 343.82 0.0245755 -0.740592 0
M  V30 3674 H 346.467 -0.640124 -1.80485 0
M  V30 3675 H 344.772 1.07587 -3.76739 0
M  V30 3676 H 346.469 0.726473 -3.94365 0
M  V30 3677 H 343.059 -0.677881 -4.23205 0
M  V30 3678 H 347.243 -1.52737 -4.72213 0
M  V30 3679 H 342.499 -2.72431 -5.47349 0
M  V30 3680 H 346.673 -3.57344 -5.97727 0
M  V30 3681 H 344.3 -4.1777 -6.35116 0
M  V30 3682 N 345.875 1.56104 -0.216619 0
M  V30 3683 C 347.286 1.844 0.292128 0
M  V30 3684 C 347.637 1.13788 1.59833 0
M  V30 3685 O 346.762 0.405888 2.12559 0
M  V30 3686 C 347.357 3.3452 0.53681 0
M  V30 3687 C 345.916 3.63151 0.989876 0
M  V30 3688 C 345.063 2.77255 0.0502302 0
M  V30 3689 H 348.014 1.52481 -0.439926 0
M  V30 3690 H 348.035 3.54459 1.38345 0
M  V30 3691 H 347.547 3.85885 -0.414031 0
M  V30 3692 H 345.648 3.17238 1.95425 0
M  V30 3693 H 345.761 4.71177 0.867698 0
M  V30 3694 H 344.125 2.48555 0.556117 0
M  V30 3695 H 344.908 3.31416 -0.89544 0
M  V30 3696 N 347.353 -0.0568162 1.57498 0
M  V30 3697 C 348.769 -0.411933 1.54192 0
M  V30 3698 C 348.969 -1.78287 0.938942 0
M  V30 3699 O 348.025 -2.46483 0.547919 0
M  V30 3700 C 349.338 -0.339244 2.9878 0
M  V30 3701 C 350.886 -0.418348 3.10192 0
M  V30 3702 C 351.361 -0.375407 4.56459 0
M  V30 3703 N 352.852 -0.435038 4.61153 0
M  V30 3704 C 353.587 -0.424265 5.71828 0
M  V30 3705 N 353.083 -0.367418 6.91825 0
M  V30 3706 N 354.876 -0.471938 5.60115 0
M  V30 3707 H 347.027 0.840684 1.95055 0
M  V30 3708 H 349.29 0.316987 0.893433 0
M  V30 3709 H 348.996 0.601742 3.46514 0
M  V30 3710 H 348.87 -1.14371 3.59443 0
M  V30 3711 H 351.257 -1.34976 2.62422 0
M  V30 3712 H 351.338 0.414962 2.52412 0
M  V30 3713 H 350.982 0.552219 5.04889 0
M  V30 3714 H 350.912 -1.22645 5.12119 0
M  V30 3715 H 353.403 -0.482612 3.74806 0
M  V30 3716 H 353.716 -0.363535 7.71944 0
M  V30 3717 H 352.061 -0.333879 6.94198 0
M  V30 3718 H 355.252 -0.514145 4.65268 0
M  V30 3719 H 355.425 -0.460073 6.46365 0
M  V30 3720 N 348.832 -1.54138 -0.328536 0
M  V30 3721 C 349.762 -1.86167 -1.40939 0
M  V30 3722 C 350.743 -0.718044 -1.54202 0
M  V30 3723 O 351.928 -0.971328 -1.68163 0
M  V30 3724 C 349.058 -2.08461 -2.77779 0
M  V30 3725 C 348.012 -3.24299 -2.7931 0
M  V30 3726 C 347.338 -3.31955 -4.19178 0
M  V30 3727 C 348.638 -4.62065 -2.43502 0
M  V30 3728 H 350.332 -2.76689 -1.14383 0
M  V30 3729 H 347.878 -1.33132 -0.548806 0
M  V30 3730 H 349.831 -2.29453 -3.53454 0
M  V30 3731 H 348.555 -1.14684 -3.05802 0
M  V30 3732 H 347.214 -3.03187 -2.0609 0
M  V30 3733 H 346.862 -2.35745 -4.44335 0
M  V30 3734 H 346.562 -4.09805 -4.2111 0
M  V30 3735 H 348.086 -3.55175 -4.96672 0
M  V30 3736 H 349.5 -4.8297 -3.08889 0
M  V30 3737 H 347.897 -5.42429 -2.56693 0
M  V30 3738 H 348.967 -4.64652 -1.38659 0
M  V30 3739 N 350.31 0.590341 -1.46126 0
M  V30 3740 C 351.535 1.37991 -1.54833 0
M  V30 3741 C 351.96 1.87163 -0.187506 0
M  V30 3742 O 351.318 1.61133 0.831008 0
M  V30 3743 C 351.366 2.54867 -2.55098 0
M  V30 3744 O 350.47 3.56061 -2.08073 0
M  V30 3745 H 349.811 0.411265 -0.521303 0
M  V30 3746 H 352.341 0.716819 -1.91632 0
M  V30 3747 H 352.351 3.01886 -2.74461 0
M  V30 3748 H 351.026 2.18429 -3.53923 0
M  V30 3749 H 349.603 3.15574 -1.98664 0
M  V30 3750 N 351.788 1.33704 0.83433 0
M  V30 3751 C 352.718 1.26967 1.95963 0
M  V30 3752 C 353.699 0.149337 1.69443 0
M  V30 3753 O 354.884 0.339852 1.91203 0
M  V30 3754 C 352.014 1.01275 3.32206 0
M  V30 3755 C 350.968 2.09652 3.73136 0
M  V30 3756 C 350.294 1.69166 5.07235 0
M  V30 3757 C 351.594 3.51372 3.86439 0
M  V30 3758 H 353.288 2.2112 2.01857 0
M  V30 3759 H 350.834 1.06447 0.969793 0
M  V30 3760 H 352.787 0.952106 4.10503 0
M  V30 3761 H 351.511 0.0356203 3.26581 0
M  V30 3762 H 350.17 2.14766 2.97104 0
M  V30 3763 H 349.818 0.701437 4.98085 0
M  V30 3764 H 349.518 2.41694 5.35591 0
M  V30 3765 H 351.042 1.64576 5.88003 0
M  V30 3766 H 352.456 3.48734 4.55036 0
M  V30 3767 H 350.853 4.22425 4.26236 0
M  V30 3768 H 351.923 3.89546 2.88759 0
M  V30 3769 N 353.266 -1.05314 1.17247 0
M  V30 3770 C 354.216 -2.11313 0.856196 0
M  V30 3771 C 355.2 -1.60013 -0.168694 0
M  V30 3772 O 356.392 -1.76968 0.0335624 0
M  V30 3773 C 353.521 -3.41301 0.369917 0
M  V30 3774 C 352.607 -3.99401 1.42616 0
M  V30 3775 N 352.998 -4.31481 2.63928 0
M  V30 3776 C 351.296 -4.27126 1.28373 0
M  V30 3777 C 351.997 -4.77799 3.31787 0
M  V30 3778 N 350.973 -4.77843 2.59166 0
M  V30 3779 H 354.775 -2.33976 1.77856 0
M  V30 3780 H 352.289 -1.2295 1.06099 0
M  V30 3781 H 354.286 -4.16713 0.124897 0
M  V30 3782 H 352.946 -3.20072 -0.546253 0
M  V30 3783 H 353.957 -4.21519 3.00902 0
M  V30 3784 H 350.634 -4.15289 0.429111 0
M  V30 3785 H 352.024 -5.11743 4.35395 0
M  V30 3786 N 354.744 -0.972509 -1.24016 0
M  V30 3787 C 355.991 -0.637034 -1.92219 0
M  V30 3788 C 356.319 0.828418 -1.75976 0
M  V30 3789 O 355.574 1.61206 -1.10955 0
M  V30 3790 C 355.873 -0.963694 -3.44162 0
M  V30 3791 C 355.539 -2.41807 -3.80579 0
M  V30 3792 C 354.201 -2.81556 -3.9023 0
M  V30 3793 C 356.553 -3.36172 -3.98293 0
M  V30 3794 C 353.881 -4.14702 -4.15017 0
M  V30 3795 C 356.233 -4.68952 -4.24578 0
M  V30 3796 C 354.897 -5.08472 -4.32449 0
M  V30 3797 H 354.167 -0.233107 -0.703379 0
M  V30 3798 H 356.814 -1.2249 -1.47202 0
M  V30 3799 H 355.119 -0.29365 -3.90698 0
M  V30 3800 H 356.816 -0.682449 -3.9515 0
M  V30 3801 H 353.406 -2.09988 -3.73635 0
M  V30 3802 H 357.59 -3.06644 -3.90234 0
M  V30 3803 H 352.846 -4.4494 -4.19331 0
M  V30 3804 H 357.02 -5.42037 -4.37229 0
M  V30 3805 H 354.647 -6.11665 -4.51409 0
M  V30 3806 N 356.222 1.38976 -0.743202 0
M  V30 3807 C 357.172 2.27843 -0.084513 0
M  V30 3808 C 358.156 1.44677 0.704094 0
M  V30 3809 O 359.348 1.67511 0.571755 0
M  V30 3810 C 356.477 3.33466 0.815781 0
M  V30 3811 C 355.563 4.24095 0.0208844 0
M  V30 3812 N 355.954 4.95609 -1.0102 0
M  V30 3813 C 354.252 4.45303 0.249293 0
M  V30 3814 C 354.953 5.62287 -1.49024 0
M  V30 3815 N 353.929 5.37571 -0.807377 0
M  V30 3816 H 357.731 2.80593 -0.87436 0
M  V30 3817 H 355.245 1.51755 -0.578283 0
M  V30 3818 H 357.242 3.96008 1.30321 0
M  V30 3819 H 355.902 2.82276 1.6047 0
M  V30 3820 H 356.913 4.98849 -1.39176 0
M  V30 3821 H 353.59 4.0504 1.01237 0
M  V30 3822 H 354.98 6.29519 -2.34853 0
M  V30 3823 N 357.7 0.491464 1.49741 0
M  V30 3824 C 358.63 -0.28154 2.31796 0
M  V30 3825 C 359.611 -0.971473 1.3963 0
M  V30 3826 O 360.796 -0.964719 1.68543 0
M  V30 3827 C 357.926 -1.35203 3.19902 0
M  V30 3828 C 356.88 -0.782529 4.20786 0
M  V30 3829 C 356.206 -1.95283 4.97764 0
M  V30 3830 C 357.506 0.21999 5.21837 0
M  V30 3831 H 359.2 0.403355 2.96671 0
M  V30 3832 H 356.746 0.195425 1.42668 0
M  V30 3833 H 358.699 -1.90045 3.76113 0
M  V30 3834 H 357.423 -2.06598 2.52953 0
M  V30 3835 H 356.082 -0.255928 3.65706 0
M  V30 3836 H 355.73 -2.65423 4.2727 0
M  V30 3837 H 355.43 -1.57789 5.66018 0
M  V30 3838 H 356.954 -2.50577 5.56816 0
M  V30 3839 H 358.368 -0.23996 5.72798 0
M  V30 3840 H 356.765 0.51026 5.97927 0
M  V30 3841 H 357.835 1.13911 4.7133 0
M  V30 3842 N 359.178 -1.55987 0.224894 0
M  V30 3843 C 360.594 -1.59066 -0.130426 0
M  V30 3844 C 360.794 -1.24176 -1.5869 0
M  V30 3845 O 359.85 -0.978592 -2.32766 0
M  V30 3846 C 361.163 -3.00042 0.198883 0
M  V30 3847 C 362.711 -3.1268 0.141391 0
M  V30 3848 C 363.186 -4.55839 0.444422 0
M  V30 3849 N 364.677 -4.6152 0.394115 0
M  V30 3850 C 365.412 -5.70231 0.602038 0
M  V30 3851 N 364.908 -6.87291 0.871914 0
M  V30 3852 N 366.701 -5.59555 0.534245 0
M  V30 3853 H 358.852 -1.76941 1.17497 0
M  V30 3854 H 361.115 -0.822604 0.471197 0
M  V30 3855 H 360.821 -3.30234 1.2099 0
M  V30 3856 H 360.695 -3.74075 -0.484535 0
M  V30 3857 H 363.082 -2.82283 -0.860265 0
M  V30 3858 H 363.163 -2.40969 0.858335 0
M  V30 3859 H 362.807 -4.86954 1.44353 0
M  V30 3860 H 362.737 -5.2578 -0.293752 0
M  V30 3861 H 365.228 -3.77405 0.193356 0
M  V30 3862 H 365.541 -7.66058 1.01858 0
M  V30 3863 H 363.886 -6.89028 0.909145 0
M  V30 3864 H 367.077 -4.6698 0.323612 0
M  V30 3865 H 367.25 -6.44211 0.699693 0
M  V30 3866 N 360.656 0.0484629 -1.57525 0
M  V30 3867 C 362.072 0.40375 -1.54409 0
M  V30 3868 C 362.272 1.77786 -0.948384 0
M  V30 3869 O 361.328 2.46189 -0.560983 0
M  V30 3870 C 362.641 0.323394 -2.98956 0
M  V30 3871 C 364.189 0.401892 -3.10409 0
M  V30 3872 C 364.664 0.351195 -4.56652 0
M  V30 3873 N 366.155 0.410576 -4.61377 0
M  V30 3874 C 366.89 0.393933 -5.72045 0
M  V30 3875 N 366.386 0.330724 -6.9201 0
M  V30 3876 N 368.179 0.442227 -5.60358 0
M  V30 3877 H 360.33 -0.851016 -1.94606 0
M  V30 3878 H 362.593 -0.321721 -0.89174 0
M  V30 3879 H 362.299 -0.62011 -3.4619 0
M  V30 3880 H 362.173 1.12463 -3.60044 0
M  V30 3881 H 364.56 1.33582 -2.63134 0
M  V30 3882 H 364.641 -0.428342 -2.52188 0
M  V30 3883 H 364.285 -0.578987 -5.04589 0
M  V30 3884 H 364.215 1.19928 -5.12762 0
M  V30 3885 H 366.706 0.462729 -3.75056 0
M  V30 3886 H 367.019 0.322592 -7.72126 0
M  V30 3887 H 365.364 0.29706 -6.94365 0
M  V30 3888 H 368.555 0.489464 -4.65534 0
M  V30 3889 H 368.728 0.425788 -6.466 0
M  V30 3890 N 362.134 1.5431 0.320358 0
M  V30 3891 C 363.082 1.84647 1.4145 0
M  V30 3892 C 364.076 0.718624 1.53402 0
M  V30 3893 O 365.282 0.902335 1.5575 0
M  V30 3894 H 361.657 0.585349 0.472091 0
M  V30 3895 H 363.628 2.7614 1.13089 0
M  V30 3896 C 362.377 2.09341 2.77617 0
M  V30 3897 H 361.7 2.9559 2.69196 0
M  V30 3898 H 363.14 2.3452 3.53237 0
M  V30 3899 C 361.599 0.885939 3.25043 0
M  V30 3900 O 362.129 0.0967891 4.01583 0
M  V30 3901 N 360.335 0.696682 2.82125 0
M  V30 3902 H 359.882 1.34006 2.2 0
M  V30 3903 H 359.84 -0.109712 3.14209 0
M  V30 3904 N 363.613 -0.582584 1.46437 0
M  V30 3905 C 365.029 -0.905962 1.31394 0
M  V30 3906 C 365.229 -1.99468 0.285476 0
M  V30 3907 O 364.285 -2.50566 -0.311914 0
M  V30 3908 C 365.598 -1.3232 2.70022 0
M  V30 3909 C 367.146 -1.43604 2.78113 0
M  V30 3910 C 367.621 -1.88694 4.17323 0
M  V30 3911 N 369.112 -1.95887 4.19741 0
M  V30 3912 C 369.847 -2.32051 5.24347 0
M  V30 3913 N 369.343 -2.67006 6.39281 0
M  V30 3914 N 371.136 -2.32606 5.11713 0
M  V30 3915 H 363.287 0.1366 2.1196 0
M  V30 3916 H 365.55 -0.00155736 0.947999 0
M  V30 3917 H 365.256 -0.597242 3.46592 0
M  V30 3918 H 365.13 -2.28469 3.00136 0
M  V30 3919 H 367.517 -2.15286 2.01832 0
M  V30 3920 H 367.598 -0.457059 2.51684 0
M  V30 3921 H 367.242 -1.1759 4.941 0
M  V30 3922 H 367.172 -2.8755 4.4116 0
M  V30 3923 H 369.663 -1.71362 3.36814 0
M  V30 3924 H 369.976 -2.93554 7.14875 0
M  V30 3925 H 368.321 -2.64644 6.42642 0
M  V30 3926 H 371.512 -2.04721 4.2096 0
M  V30 3927 H 371.685 -2.60462 5.93349 0
M  V30 3928 N 365.091 -1.34144 -0.827227 0
M  V30 3929 C 366.339 -1.26009 -1.58007 0
M  V30 3930 C 366.66 0.170971 -1.94249 0
M  V30 3931 O 365.93 1.10256 -1.61927 0
M  V30 3932 H 364.51 -0.463414 -0.585881 0
M  V30 3933 H 367.172 -1.68005 -0.987951 0
M  V30 3934 H 366.268 -1.86187 -2.50481 0
M  V30 3935 N 366.569 1.04691 -1.17803 0
M  V30 3936 C 367.815 1.78045 -0.970969 0
M  V30 3937 C 368.148 1.87686 0.498751 0
M  V30 3938 O 367.423 1.38035 1.37027 0
M  V30 3939 C 367.706 3.2166 -1.61884 0
M  V30 3940 C 367.559 3.20001 -3.161 0
M  V30 3941 C 368.878 4.1962 -1.3269 0
M  V30 3942 H 365.997 0.64633 -0.354155 0
M  V30 3943 H 368.639 1.22333 -1.45378 0
M  V30 3944 H 366.789 3.69232 -1.20831 0
M  V30 3945 H 368.461 2.80467 -3.66246 0
M  V30 3946 H 366.704 2.58203 -3.48588 0
M  V30 3947 H 367.375 4.21386 -3.56564 0
M  V30 3948 H 369.851 3.80567 -1.68249 0
M  V30 3949 H 368.727 5.18339 -1.80599 0
M  V30 3950 H 368.988 4.414 -0.248622 0
M  V30 3951 N 368.047 0.979072 1.23499 0
M  V30 3952 C 369.277 0.664237 1.95631 0
M  V30 3953 C 369.685 -0.772653 1.72704 0
M  V30 3954 O 369.028 -1.53141 1.01457 0
M  V30 3955 C 369.09 0.873115 3.48736 0
M  V30 3956 C 368.754 2.29182 3.95379 0
M  V30 3957 C 369.751 3.2704 4.04155 0
M  V30 3958 C 367.436 2.62256 4.28401 0
M  V30 3959 C 369.43 4.56052 4.45304 0
M  V30 3960 C 367.117 3.91491 4.69231 0
M  V30 3961 C 368.115 4.88201 4.77649 0
M  V30 3962 O 367.803 6.15129 5.17563 0
M  V30 3963 H 367.535 0.245915 0.629684 0
M  V30 3964 H 370.089 1.3127 1.57979 0
M  V30 3965 H 368.319 0.167476 3.86337 0
M  V30 3966 H 370.008 0.555642 4.02079 0
M  V30 3967 H 370.774 3.02819 3.78848 0
M  V30 3968 H 366.653 1.87692 4.21061 0
M  V30 3969 H 370.197 5.31538 4.51789 0
M  V30 3970 H 366.094 4.15508 4.93987 0
M  V30 3971 H 366.862 6.18862 5.35679 0
M  V30 3972 N 369.525 -1.3858 0.750561 0
M  V30 3973 C 370.774 -1.99424 0.302172 0
M  V30 3974 C 371.087 -1.60254 -1.12152 0
M  V30 3975 O 372.293 -2.14046 -1.67023 0
M  V30 3976 C 370.749 -3.56558 0.489307 0
M  V30 3977 C 370.357 -4.04682 1.92189 0
M  V30 3978 C 372.101 -4.24374 0.103478 0
M  V30 3979 C 370.008 -5.54446 2.05775 0
M  V30 3980 H 368.938 -0.746046 0.10923 0
M  V30 3981 H 371.589 -1.58383 0.92667 0
M  V30 3982 H 369.971 -3.95472 -0.204329 0
M  V30 3983 H 371.145 -3.77065 2.64875 0
M  V30 3984 H 369.46 -3.4958 2.26236 0
M  V30 3985 H 372.057 -5.34384 0.183787 0
M  V30 3986 H 372.4 -4.05468 -0.943481 0
M  V30 3987 H 372.933 -3.90688 0.748854 0
M  V30 3988 H 369.672 -5.78252 3.08714 0
M  V30 3989 H 369.192 -5.83816 1.37546 0
M  V30 3990 H 370.871 -6.20099 1.84626 0
M  V30 3991 N 371.003 -0.499398 -1.49478 0
M  V30 3992 C 372.252 0.0475259 -2.01644 0
M  V30 3993 C 372.565 1.38195 -1.38425 0
M  V30 3994 O 373.771 2.01547 -1.8191 0
M  V30 3995 C 372.227 0.135164 -3.59646 0
M  V30 3996 C 371.835 -1.19252 -4.31837 0
M  V30 3997 C 373.579 0.632538 -4.19761 0
M  V30 3998 C 371.486 -1.06713 -5.81693 0
M  V30 3999 H 370.416 0.0215349 -0.753692 0
M  V30 4000 H 373.067 -0.638577 -1.7203 0
M  V30 4001 H 371.449 0.885681 -3.85969 0
M  V30 4002 H 372.623 -1.9562 -4.17216 0
M  V30 4003 H 370.938 -1.62321 -3.83459 0
M  V30 4004 H 373.535 0.743833 -5.29501 0
M  V30 4005 H 373.878 1.63098 -3.83021 0
M  V30 4006 H 374.411 -0.0613987 -3.97753 0
M  V30 4007 H 371.15 -2.03979 -6.22955 0
M  V30 4008 H 370.67 -0.344307 -5.98811 0
M  V30 4009 H 372.349 -0.745208 -6.42694 0
M  V30 4010 N 372.481 1.55866 -0.233164 0
M  V30 4011 C 373.413 2.18099 0.704668 0
M  V30 4012 C 374.426 1.15334 1.14899 0
M  V30 4013 O 375.615 1.42262 1.07814 0
M  V30 4014 C 372.715 2.7592 1.96777 0
M  V30 4015 C 371.888 4.03969 1.67713 0
M  V30 4016 C 370.947 4.46242 2.78845 0
M  V30 4017 O 369.973 5.12903 2.46818 0
M  V30 4018 N 371.175 4.12886 4.08051 0
M  V30 4019 H 373.94 2.99205 0.172258 0
M  V30 4020 H 371.501 1.61815 -0.0525945 0
M  V30 4021 H 373.493 3.01165 2.70337 0
M  V30 4022 H 372.063 1.99051 2.41034 0
M  V30 4023 H 371.283 3.86459 0.777391 0
M  V30 4024 H 372.571 4.8748 1.4574 0
M  V30 4025 H 371.969 3.59342 4.3691 0
M  V30 4026 H 370.526 4.42997 4.78118 0
M  V30 4027 N 373.959 -0.0401083 1.57549 0
M  V30 4028 C 375.184 -0.748931 1.93406 0
M  V30 4029 C 375.609 -1.68686 0.832274 0
M  V30 4030 O 374.967 -1.80047 -0.212818 0
M  V30 4031 C 375.015 -1.4916 3.28304 0
M  V30 4032 O 374.119 -2.6042 3.19774 0
M  V30 4033 H 373.46 -0.202212 0.63246 0
M  V30 4034 H 375.99 0.00112086 2.046 0
M  V30 4035 H 376 -1.86395 3.62934 0
M  V30 4036 H 374.675 -0.80364 4.08062 0
M  V30 4037 H 373.252 -2.25808 2.96758 0
M  V30 4038 N 375.437 -1.54477 -0.31217 0
M  V30 4039 C 376.667 -1.76948 -1.06645 0
M  V30 4040 C 377.075 -0.523593 -1.81811 0
M  V30 4041 O 376.418 0.51578 -1.76311 0
M  V30 4042 C 376.48 -2.91668 -2.10166 0
M  V30 4043 C 376.144 -4.30165 -1.54296 0
M  V30 4044 C 377.141 -5.10603 -0.978793 0
M  V30 4045 C 374.826 -4.76738 -1.58196 0
M  V30 4046 C 376.82 -6.3573 -0.461048 0
M  V30 4047 C 374.507 -6.01831 -1.06034 0
M  V30 4048 C 375.505 -6.81161 -0.500844 0
M  V30 4049 O 375.193 -8.03899 0.0128958 0
M  V30 4050 H 374.925 -0.594088 -0.322546 0
M  V30 4051 H 377.479 -2.02213 -0.360441 0
M  V30 4052 H 375.709 -2.62001 -2.84416 0
M  V30 4053 H 377.398 -3.01817 -2.71406 0
M  V30 4054 H 378.164 -4.75771 -0.941651 0
M  V30 4055 H 374.043 -4.15027 -2.00683 0
M  V30 4056 H 377.587 -6.97596 -0.0236894 0
M  V30 4057 H 373.484 -6.36152 -1.09459 0
M  V30 4058 H 374.252 -8.18437 -0.101457 0
M  V30 4059 N 376.915 0.57481 -1.46744 0
M  V30 4060 C 377.848 1.69827 -1.52427 0
M  V30 4061 C 378.826 1.58151 -0.377744 0
M  V30 4062 O 380.01 1.79257 -0.58303 0
M  V30 4063 C 377.137 3.07943 -1.41027 0
M  V30 4064 C 376.183 3.38116 -2.59961 0
M  V30 4065 S 377.016 3.29313 -4.22272 0
M  V30 4066 C 378.172 4.69953 -4.13394 0
M  V30 4067 H 378.405 1.64748 -2.47478 0
M  V30 4068 H 375.938 0.754203 -1.34726 0
M  V30 4069 H 377.896 3.87619 -1.35137 0
M  V30 4070 H 376.557 3.10504 -0.473909 0
M  V30 4071 H 375.75 4.38762 -2.47999 0
M  V30 4072 H 375.352 2.66024 -2.62882 0
M  V30 4073 H 377.644 5.60517 -3.80562 0
M  V30 4074 H 378.587 4.86972 -5.14066 0
M  V30 4075 H 378.995 4.47174 -3.44522 0
M  V30 4076 N 378.394 1.34581 0.820102 0
M  V30 4077 C 379.805 1.24298 1.39309 0
M  V30 4078 C 380.156 -0.130351 1.95767 0
M  V30 4079 O 379.281 -1.0308 1.90272 0
M  V30 4080 C 379.876 2.25054 2.53251 0
M  V30 4081 C 378.435 2.18552 3.0645 0
M  V30 4082 C 377.582 2.11503 1.79337 0
M  V30 4083 H 380.533 1.45906 0.624262 0
M  V30 4084 H 380.554 1.86917 3.31425 0
M  V30 4085 H 380.066 3.24996 2.1213 0
M  V30 4086 H 378.167 1.21976 3.52069 0
M  V30 4087 H 378.28 3.0993 3.65349 0
M  V30 4088 H 376.644 1.57268 2.00347 0
M  V30 4089 H 377.427 3.13284 1.40386 0
M  V30 4090 N 379.872 -1.04064 1.18357 0
M  V30 4091 C 381.097 -1.81454 1.00445 0
M  V30 4092 C 381.522 -1.82823 -0.442423 0
M  V30 4093 O 380.88 -1.24555 -1.31741 0
M  V30 4094 C 380.928 -3.24925 1.56384 0
M  V30 4095 O 380.032 -4.04856 0.785209 0
M  V30 4096 H 379.373 -0.560604 0.355835 0
M  V30 4097 H 381.903 -1.31059 1.57114 0
M  V30 4098 H 381.913 -3.75702 1.59097 0
M  V30 4099 H 380.588 -3.23244 2.61699 0
M  V30 4100 H 379.165 -3.63537 0.830399 0
M  V30 4101 N 381.35 -0.985608 -1.22978 0
M  V30 4102 C 382.596 -0.65836 -1.91816 0
M  V30 4103 C 382.929 0.806692 -1.76653 0
M  V30 4104 O 382.204 1.58252 -1.13078 0
M  V30 4105 C 382.487 -1.056 -3.44268 0
M  V30 4106 C 382.34 -2.57906 -3.68516 0
M  V30 4107 C 383.659 -0.603781 -4.35939 0
M  V30 4108 H 380.778 -0.24065 -0.696604 0
M  V30 4109 H 383.42 -1.22783 -1.44998 0
M  V30 4110 H 381.57 -0.571445 -3.84274 0
M  V30 4111 H 383.242 -3.13976 -3.3796 0
M  V30 4112 H 381.485 -3.00305 -3.13048 0
M  V30 4113 H 382.156 -2.80779 -4.75255 0
M  V30 4114 H 384.632 -1.01987 -4.03408 0
M  V30 4115 H 383.508 -0.910383 -5.41298 0
M  V30 4116 H 383.769 0.495761 -4.39312 0
M  V30 4117 N 382.828 1.3818 -0.7579 0
M  V30 4118 C 383.758 2.33027 -0.148597 0
M  V30 4119 C 384.739 1.55085 0.69875 0
M  V30 4120 O 385.924 1.83384 0.639053 0
M  V30 4121 C 383.054 3.3928 0.742034 0
M  V30 4122 C 382.008 4.28 -0.00291946 0
M  V30 4123 C 381.334 5.25146 1.00625 0
M  V30 4124 C 382.634 5.08938 -1.17385 0
M  V30 4125 H 384.328 2.84231 -0.940909 0
M  V30 4126 H 381.874 1.36659 -0.453908 0
M  V30 4127 H 383.827 4.046 1.17799 0
M  V30 4128 H 382.551 2.86569 1.56671 0
M  V30 4129 H 381.21 3.64192 -0.419504 0
M  V30 4130 H 380.858 4.68721 1.8251 0
M  V30 4131 H 380.558 5.85361 0.512428 0
M  V30 4132 H 382.082 5.93342 1.44143 0
M  V30 4133 H 383.496 5.67474 -0.815224 0
M  V30 4134 H 381.893 5.7841 -1.59882 0
M  V30 4135 H 382.963 4.42424 -1.98468 0
M  V30 4136 N 384.306 0.507319 1.49211 0
M  V30 4137 C 385.236 -0.256939 2.32082 0
M  V30 4138 C 386.217 -0.956609 1.40652 0
M  V30 4139 O 387.402 -0.946788 1.69557 0
M  V30 4140 C 384.532 -1.31802 3.21318 0
M  V30 4141 C 383.486 -0.737855 4.21592 0
M  V30 4142 C 382.812 -1.89992 4.99807 0
M  V30 4143 C 384.112 0.275325 5.21574 0
M  V30 4144 H 385.806 0.434798 2.96226 0
M  V30 4145 H 383.352 0.210546 1.42452 0
M  V30 4146 H 385.305 -1.86045 3.78107 0
M  V30 4147 H 384.029 -2.03903 2.5513 0
M  V30 4148 H 382.688 -0.217126 3.65956 0
M  V30 4149 H 382.336 -2.60877 4.30061 0
M  V30 4150 H 382.036 -1.51777 5.6766 0
M  V30 4151 H 383.56 -2.44657 5.59442 0
M  V30 4152 H 384.974 -0.179193 5.7302 0
M  V30 4153 H 383.371 0.573649 5.97352 0
M  V30 4154 H 384.441 1.18903 4.70096 0
M  V30 4155 N 385.784 -1.5574 0.241426 0
M  V30 4156 C 387.03 -1.99104 -0.385406 0
M  V30 4157 C 387.363 -1.1293 -1.57988 0
M  V30 4158 O 386.638 -0.191449 -1.93555 0
M  V30 4159 C 386.921 -3.51087 -0.800616 0
M  V30 4160 C 386.774 -4.48028 0.398874 0
M  V30 4161 C 388.093 -4.08015 -1.64959 0
M  V30 4162 H 385.212 -0.723848 -0.138614 0
M  V30 4163 H 387.854 -1.86903 0.341642 0
M  V30 4164 H 386.004 -3.61615 -1.4201 0
M  V30 4165 H 387.676 -4.49487 1.03726 0
M  V30 4166 H 385.919 -4.21077 1.04293 0
M  V30 4167 H 386.59 -5.51962 0.0651056 0
M  V30 4168 H 389.066 -4.00555 -1.12672 0
M  V30 4169 H 387.942 -5.14635 -1.90898 0
M  V30 4170 H 388.203 -3.56131 -2.61961 0
M  V30 4171 N 387.262 0.0317525 -1.57568 0
M  V30 4172 C 388.225 1.01783 -2.0536 0
M  V30 4173 C 389.225 1.29203 -0.957253 0
M  V30 4174 O 390.415 1.24251 -1.22095 0
M  V30 4175 C 387.547 2.35137 -2.46827 0
M  V30 4176 H 388.74 0.605062 -2.93733 0
M  V30 4177 H 386.293 0.278514 -1.53799 0
M  V30 4178 H 387.028 2.81168 -1.61602 0
M  V30 4179 H 386.813 2.16566 -3.26866 0
M  V30 4180 H 388.303 3.05938 -2.84239 0
M  V30 4181 N 388.74 1.54641 0.303973 0
M  V30 4182 C 389.673 1.80263 1.3993 0
M  V30 4183 C 390.651 0.653657 1.48883 0
M  V30 4184 O 391.835 0.893284 1.6599 0
M  V30 4185 C 388.962 1.9367 2.77866 0
M  V30 4186 C 388.008 3.16078 2.86351 0
M  V30 4187 S 388.841 4.74219 2.4875 0
M  V30 4188 C 389.997 4.90558 3.88721 0
M  V30 4189 H 390.23 2.72886 1.17986 0
M  V30 4190 H 387.763 1.46014 0.501918 0
M  V30 4191 H 389.721 2.0208 3.57315 0
M  V30 4192 H 388.382 1.01991 2.9708 0
M  V30 4193 H 387.575 3.22252 3.87517 0
M  V30 4194 H 387.177 3.06099 2.14893 0
M  V30 4195 H 389.469 4.74398 4.83687 0
M  V30 4196 H 390.412 5.92651 3.87518 0
M  V30 4197 H 390.82 4.18728 3.78585 0
M  V30 4198 N 390.218 -0.567019 1.47046 0
M  V30 4199 C 391.443 -1.3551 1.57009 0
M  V30 4200 C 391.868 -1.86841 0.217259 0
M  V30 4201 O 391.226 -1.62435 -0.805268 0
M  V30 4202 C 391.274 -2.50777 2.5912 0
M  V30 4203 O 390.378 -3.52706 2.13711 0
M  V30 4204 H 389.719 -0.402919 0.52778 0
M  V30 4205 H 392.249 -0.686241 1.92748 0
M  V30 4206 H 392.259 -2.97481 2.79229 0
M  V30 4207 H 390.934 -2.12771 3.57353 0
M  V30 4208 H 389.511 -3.12374 2.03659 0
M  V30 4209 N 391.696 -1.35014 -0.812953 0
M  V30 4210 C 392.942 -1.29129 -1.57154 0
M  V30 4211 C 393.297 0.134922 -1.91926 0
M  V30 4212 O 392.59 1.08373 -1.58006 0
M  V30 4213 C 392.784 -2.12524 -2.87347 0
M  V30 4214 C 392.613 -3.6311 -2.65294 0
M  V30 4215 C 391.383 -4.32363 -2.61516 0
M  V30 4216 C 393.581 -4.56897 -2.36114 0
M  V30 4217 N 391.563 -5.68735 -2.31113 0
M  V30 4218 C 392.934 -5.81345 -2.15494 0
M  V30 4219 C 394.989 -4.45706 -2.21925 0
M  V30 4220 C 393.692 -6.95862 -1.82122 0
M  V30 4221 C 395.718 -5.60066 -1.89948 0
M  V30 4222 C 395.08 -6.83539 -1.7016 0
M  V30 4223 H 391.179 -0.527764 -0.577052 0
M  V30 4224 H 393.763 -1.6983 -0.952146 0
M  V30 4225 H 391.934 -1.74104 -3.47192 0
M  V30 4226 H 393.666 -1.98207 -3.5284 0
M  V30 4227 H 390.421 -3.84907 -2.75941 0
M  V30 4228 H 390.845 -6.40694 -2.18724 0
M  V30 4229 H 395.487 -3.50855 -2.35925 0
M  V30 4230 H 393.205 -7.90685 -1.6686 0
M  V30 4231 H 396.791 -5.53357 -1.79687 0
M  V30 4232 H 395.671 -7.70531 -1.45777 0
M  V30 4233 N 393.175 1.03435 -1.18907 0
M  V30 4234 C 394.421 1.77005 -0.989798 0
M  V30 4235 C 394.754 1.88205 0.478816 0
M  V30 4236 O 394.029 1.39481 1.35556 0
M  V30 4237 C 394.312 3.19925 -1.65287 0
M  V30 4238 C 394.165 3.1663 -3.19477 0
M  V30 4239 C 395.484 4.18189 -1.37134 0
M  V30 4240 H 392.603 0.642538 -0.360991 0
M  V30 4241 H 395.245 1.20784 -1.46667 0
M  V30 4242 H 393.395 3.67929 -1.24741 0
M  V30 4243 H 395.067 2.76567 -3.692 0
M  V30 4244 H 393.31 2.54491 -3.51307 0
M  V30 4245 H 393.981 4.1758 -3.61013 0
M  V30 4246 H 396.457 3.78761 -1.72276 0
M  V30 4247 H 395.333 5.16394 -1.86087 0
M  V30 4248 H 395.594 4.41112 -0.295424 0
M  V30 4249 N 394.653 0.992116 1.22453 0
M  V30 4250 C 395.878 0.685644 1.95739 0
M  V30 4251 C 396.303 -0.743 1.72804 0
M  V30 4252 O 395.661 -1.50778 1.00676 0
M  V30 4253 C 395.709 0.996293 3.46564 0
M  V30 4254 O 394.813 0.0945512 4.12292 0
M  V30 4255 H 394.154 0.256694 0.612376 0
M  V30 4256 H 396.684 1.32888 1.5557 0
M  V30 4257 H 396.694 0.93781 3.97076 0
M  V30 4258 H 395.369 2.03733 3.62582 0
M  V30 4259 H 393.946 0.208451 3.72317 0
M  V30 4260 N 396.131 -1.37776 0.765217 0
M  V30 4261 C 397.378 -1.99849 0.326588 0
M  V30 4262 C 397.706 -1.60746 -1.09504 0
M  V30 4263 O 396.961 -0.84202 -1.76659 0
M  V30 4264 C 397.26 -3.5504 0.410053 0
M  V30 4265 C 396.926 -4.13891 1.78899 0
M  V30 4266 C 395.588 -4.29678 2.16635 0
M  V30 4267 C 397.94 -4.46236 2.69301 0
M  V30 4268 C 395.268 -4.7511 3.44221 0
M  V30 4269 C 397.62 -4.93089 3.9629 0
M  V30 4270 C 396.284 -5.07082 4.34078 0
M  V30 4271 H 395.554 -0.7313 0.119507 0
M  V30 4272 H 398.201 -1.64645 0.977968 0
M  V30 4273 H 396.506 -3.90451 -0.324878 0
M  V30 4274 H 398.203 -4.00966 0.0520699 0
M  V30 4275 H 394.793 -4.02026 1.48569 0
M  V30 4276 H 398.977 -4.3363 2.41409 0
M  V30 4277 H 394.233 -4.84129 3.73402 0
M  V30 4278 H 398.407 -5.17084 4.66472 0
M  V30 4279 H 396.034 -5.42046 5.33001 0
M  V30 4280 N 397.609 -0.515225 -1.4894 0
M  V30 4281 C 398.855 0.016187 -2.03394 0
M  V30 4282 C 399.21 1.33377 -1.38666 0
M  V30 4283 O 398.503 1.84461 -0.518141 0
M  V30 4284 C 398.697 0.210595 -3.56779 0
M  V30 4285 C 398.526 -1.08659 -4.36375 0
M  V30 4286 C 397.296 -1.64237 -4.77864 0
M  V30 4287 C 399.494 -1.9935 -4.74093 0
M  V30 4288 N 397.476 -2.88398 -5.41941 0
M  V30 4289 C 398.847 -3.08088 -5.38035 0
M  V30 4290 C 400.902 -1.99856 -4.56029 0
M  V30 4291 C 399.605 -4.17377 -5.85823 0
M  V30 4292 C 401.631 -3.08129 -5.04787 0
M  V30 4293 C 400.993 -4.15586 -5.68742 0
M  V30 4294 H 397.092 -0.0352107 -0.781207 0
M  V30 4295 H 399.676 -0.693237 -1.8194 0
M  V30 4296 H 397.847 0.889088 -3.78087 0
M  V30 4297 H 399.579 0.740287 -3.97872 0
M  V30 4298 H 396.334 -1.18566 -4.58518 0
M  V30 4299 H 396.758 -3.51572 -5.78555 0
M  V30 4300 H 401.4 -1.18079 -4.05977 0
M  V30 4301 H 399.118 -4.99943 -6.34888 0
M  V30 4302 H 402.704 -3.09557 -4.92611 0
M  V30 4303 H 401.584 -4.97987 -6.05787 0
M  V30 4304 N 399.087 1.5561 -0.249682 0
M  V30 4305 C 400.336 1.98187 0.37479 0
M  V30 4306 C 400.649 1.14111 1.58865 0
M  V30 4307 O 401.855 1.46714 2.28445 0
M  V30 4308 C 400.311 3.52661 0.718192 0
M  V30 4309 C 399.919 4.45481 -0.474428 0
M  V30 4310 C 401.663 4.03888 1.3067 0
M  V30 4311 C 399.57 5.91303 -0.107026 0
M  V30 4312 H 398.5 0.740159 0.143808 0
M  V30 4313 H 401.151 1.80125 -0.350336 0
M  V30 4314 H 399.533 3.66429 1.50152 0
M  V30 4315 H 400.707 4.43473 -1.25172 0
M  V30 4316 H 399.022 4.04751 -0.978052 0
M  V30 4317 H 401.619 5.10358 1.59496 0
M  V30 4318 H 401.962 3.51401 2.23211 0
M  V30 4319 H 402.495 3.93457 0.586211 0
M  V30 4320 H 399.234 6.47833 -0.999642 0
M  V30 4321 H 398.754 5.9644 0.634013 0
M  V30 4322 H 400.433 6.46258 0.309807 0
M  V30 4323 N 400.565 -0.0233959 1.57583 0
M  V30 4324 C 401.79 -0.728376 1.94189 0
M  V30 4325 C 402.215 -1.67793 0.850119 0
M  V30 4326 O 401.573 -1.80262 -0.19371 0
M  V30 4327 C 401.621 -1.45669 3.29868 0
M  V30 4328 O 400.725 -2.57013 3.22518 0
M  V30 4329 H 400.066 -0.195493 0.63457 0
M  V30 4330 H 402.596 0.0228214 2.04587 0
M  V30 4331 H 402.606 -1.82535 3.6489 0
M  V30 4332 H 401.281 -0.760314 4.08891 0
M  V30 4333 H 399.858 -2.22648 2.99136 0
M  V30 4334 N 402.043 -1.548 -0.295768 0
M  V30 4335 C 402.975 -1.82492 -1.3867 0
M  V30 4336 C 403.988 -0.708134 -1.46592 0
M  V30 4337 O 405.177 -0.985686 -1.48817 0
M  V30 4338 C 402.277 -1.95256 -2.76999 0
M  V30 4339 C 401.45 -3.25709 -2.91946 0
M  V30 4340 C 400.509 -3.28824 -4.10806 0
M  V30 4341 O 399.535 -4.02328 -4.02643 0
M  V30 4342 N 400.737 -2.5459 -5.21694 0
M  V30 4343 H 403.502 -2.76646 -1.15269 0
M  V30 4344 H 401.063 -1.54438 -0.485849 0
M  V30 4345 H 403.055 -1.94736 -3.54768 0
M  V30 4346 H 401.625 -1.08072 -2.93324 0
M  V30 4347 H 400.845 -3.38959 -2.01247 0
M  V30 4348 H 402.133 -4.11786 -2.98847 0
M  V30 4349 H 401.531 -1.94512 -5.31208 0
M  V30 4350 H 400.088 -2.59818 -5.97778 0
M  V30 4351 N 403.521 0.559213 -1.47345 0
M  V30 4352 C 404.484 1.64854 -1.59235 0
M  V30 4353 C 405.484 1.53851 -0.467607 0
M  V30 4354 O 406.674 1.58045 -0.732617 0
M  V30 4355 C 403.806 3.04388 -1.53496 0
M  V30 4356 H 404.999 1.55662 -2.56339 0
M  V30 4357 H 402.552 0.778973 -1.35505 0
M  V30 4358 H 403.287 3.19115 -0.577604 0
M  V30 4359 H 403.072 3.13783 -2.35123 0
M  V30 4360 H 404.562 3.83642 -1.6495 0
M  V30 4361 N 404.999 1.35443 0.805782 0
M  V30 4362 C 405.962 1.28301 1.89925 0
M  V30 4363 C 406.962 0.194285 1.59622 0
M  V30 4364 O 408.152 0.448036 1.6834 0
M  V30 4365 C 405.284 0.984997 3.2636 0
M  V30 4366 H 406.477 2.2553 1.97677 0
M  V30 4367 H 404.03 1.19979 1.00173 0
M  V30 4368 H 404.765 0.016603 3.24296 0
M  V30 4369 H 404.55 1.77269 3.4974 0
M  V30 4370 H 406.04 0.960651 4.064 0
M  V30 4371 N 406.477 -1.02803 1.19454 0
M  V30 4372 C 407.723 -1.76478 0.999171 0
M  V30 4373 C 408.056 -1.88456 -0.468828 0
M  V30 4374 O 407.331 -1.40198 -1.34814 0
M  V30 4375 C 407.614 -3.19044 1.66981 0
M  V30 4376 C 407.467 -3.14932 3.21151 0
M  V30 4377 C 408.786 -4.17456 1.39349 0
M  V30 4378 H 405.905 -0.640614 0.364393 0
M  V30 4379 H 408.547 -1.20005 1.47305 0
M  V30 4380 H 406.697 -3.67263 1.2669 0
M  V30 4381 H 408.369 -2.74605 3.70661 0
M  V30 4382 H 406.612 -2.52625 3.52652 0
M  V30 4383 H 407.283 -4.1566 3.63223 0
M  V30 4384 H 409.759 -3.77842 1.74283 0
M  V30 4385 H 408.635 -5.154 1.88823 0
M  V30 4386 H 408.896 -4.40949 0.318813 0
M  V30 4387 N 407.956 -0.998596 -1.21925 0
M  V30 4388 C 409.367 -0.711939 -1.72593 0
M  V30 4389 C 409.718 0.770842 -1.80423 0
M  V30 4390 O 408.843 1.60237 -1.4544 0
M  V30 4391 C 409.438 -1.28567 -3.13458 0
M  V30 4392 C 407.997 -1.04828 -3.61508 0
M  V30 4393 C 407.144 -1.4024 -2.39224 0
M  V30 4394 H 410.095 -1.17027 -1.07193 0
M  V30 4395 H 410.116 -0.667098 -3.74607 0
M  V30 4396 H 409.628 -2.36486 -3.07727 0
M  V30 4397 H 407.729 0.0140383 -3.72597 0
M  V30 4398 H 407.842 -1.71566 -4.47328 0
M  V30 4399 H 406.206 -0.821077 -2.41103 0
M  V30 4400 H 406.989 -2.49176 -2.36149 0
M  V30 4401 N 409.434 1.37368 -0.772513 0
M  V30 4402 C 410.397 2.28601 -0.165541 0
M  V30 4403 C 411.397 1.48062 0.627238 0
M  V30 4404 O 412.587 1.68268 0.450715 0
M  V30 4405 C 409.719 3.32023 0.772897 0
M  V30 4406 H 410.912 2.83787 -0.969787 0
M  V30 4407 H 408.465 1.46647 -0.540775 0
M  V30 4408 H 409.2 2.81962 1.60212 0
M  V30 4409 H 408.985 3.91555 0.206585 0
M  V30 4410 H 410.475 4.00197 1.19298 0
M  V30 4411 N 410.912 0.523116 1.48665 0
M  V30 4412 C 412.328 0.180511 1.58576 0
M  V30 4413 C 412.528 -1.31597 1.52592 0
M  V30 4414 O 411.584 -2.0937 1.4114 0
M  V30 4415 C 412.897 0.776949 2.90489 0
M  V30 4416 C 414.445 0.745058 3.04003 0
M  V30 4417 C 414.92 1.31995 4.38567 0
M  V30 4418 N 416.411 1.28162 4.45117 0
M  V30 4419 C 417.146 1.6964 5.47731 0
M  V30 4420 N 416.642 2.18816 6.57337 0
M  V30 4421 N 418.435 1.6092 5.38573 0
M  V30 4422 H 410.586 1.4958 1.50797 0
M  V30 4423 H 412.849 0.621772 0.715614 0
M  V30 4424 H 412.555 1.82732 3.00503 0
M  V30 4425 H 412.429 0.25007 3.7637 0
M  V30 4426 H 414.816 -0.296532 2.93606 0
M  V30 4427 H 414.897 1.30933 2.1975 0
M  V30 4428 H 414.541 2.36043 4.49718 0
M  V30 4429 H 414.471 0.731418 5.21496 0
M  V30 4430 H 416.962 0.92155 3.66491 0
M  V30 4431 H 417.275 2.48478 7.31764 0
M  V30 4432 H 415.62 2.22805 6.58318 0
M  V30 4433 H 418.811 1.22304 4.5184 0
M  V30 4434 H 418.984 1.93567 6.18414 0
M  V30 4435 N 412.39 -1.55475 0.257931 0
M  V30 4436 C 413.636 -1.99502 -0.364266 0
M  V30 4437 C 413.969 -1.146 -1.56782 0
M  V30 4438 O 413.244 -0.211968 -1.93342 0
M  V30 4439 C 413.527 -3.51917 -0.763333 0
M  V30 4440 C 413.38 -4.4758 0.446371 0
M  V30 4441 C 414.699 -4.09742 -1.60623 0
M  V30 4442 H 411.818 -0.725277 -0.130929 0
M  V30 4443 H 414.46 -1.8653 0.361446 0
M  V30 4444 H 412.61 -3.63101 -1.38166 0
M  V30 4445 H 414.282 -4.48362 1.08487 0
M  V30 4446 H 412.525 -4.19947 1.08753 0
M  V30 4447 H 413.196 -5.51862 0.123645 0
M  V30 4448 H 415.672 -4.01727 -1.08418 0
M  V30 4449 H 414.548 -5.16631 -1.85429 0
M  V30 4450 H 414.809 -3.58889 -2.58169 0
M  V30 4451 N 413.868 0.0150385 -1.57593 0
M  V30 4452 C 415.093 0.718067 -1.94573 0
M  V30 4453 C 415.518 1.6734 -0.859005 0
M  V30 4454 O 414.876 1.80362 0.184147 0
M  V30 4455 C 414.924 1.43918 -3.30636 0
M  V30 4456 O 414.028 2.55299 -3.23876 0
M  V30 4457 H 413.369 0.192125 -0.635597 0
M  V30 4458 H 415.899 -0.0336708 -2.04572 0
M  V30 4459 H 415.909 1.80598 -3.65853 0
M  V30 4460 H 414.584 0.738619 -4.09289 0
M  V30 4461 H 413.161 2.21058 -3.00312 0
M  V30 4462 N 415.346 1.54954 0.287554 0
M  V30 4463 C 416.276 1.89839 1.35954 0
M  V30 4464 C 417.257 0.758675 1.52244 0
M  V30 4465 O 418.442 1.01557 1.65529 0
M  V30 4466 C 415.572 2.15753 2.72154 0
M  V30 4467 C 414.526 3.3159 2.70614 0
M  V30 4468 C 413.852 3.42952 4.10229 0
M  V30 4469 C 415.152 4.68359 2.31165 0
M  V30 4470 H 416.846 2.79625 1.07007 0
M  V30 4471 H 414.392 1.3454 0.513316 0
M  V30 4472 H 416.345 2.38743 3.47246 0
M  V30 4473 H 415.069 1.22752 3.02654 0
M  V30 4474 H 413.728 3.08545 1.97979 0
M  V30 4475 H 413.376 2.47443 4.37928 0
M  V30 4476 H 413.076 4.20826 4.10097 0
M  V30 4477 H 414.6 3.68218 4.87081 0
M  V30 4478 H 416.014 4.9099 2.95976 0
M  V30 4479 H 414.411 5.49044 2.42221 0
M  V30 4480 H 415.481 4.68165 1.26291 0
M  V30 4481 N 416.824 -0.551391 1.4764 0
M  V30 4482 C 418.072 -1.30572 1.54258 0
M  V30 4483 C 418.393 -1.93877 0.208963 0
M  V30 4484 O 417.663 -1.80234 -0.767619 0
M  V30 4485 H 416.243 -0.484894 0.568231 0
M  V30 4486 H 418.905 -0.643402 1.83974 0
M  V30 4487 H 418.001 -2.09621 2.31226 0
M  V30 4488 N 418.302 -1.35869 -0.798587 0
M  V30 4489 C 419.551 -1.28921 -1.5512 0
M  V30 4490 C 419.864 0.13208 -1.95154 0
M  V30 4491 O 421.07 0.323879 -2.69561 0
M  V30 4492 C 419.526 -2.26141 -2.79979 0
M  V30 4493 C 419.134 -3.73658 -2.47151 0
M  V30 4494 C 420.878 -2.28152 -3.57976 0
M  V30 4495 C 418.785 -4.62679 -3.6835 0
M  V30 4496 H 417.715 -0.479031 -0.582276 0
M  V30 4497 H 420.366 -1.61179 -0.877125 0
M  V30 4498 H 418.748 -1.86865 -3.49138 0
M  V30 4499 H 419.922 -4.21616 -1.85947 0
M  V30 4500 H 418.237 -3.74333 -1.82383 0
M  V30 4501 H 420.834 -2.91875 -4.4801 0
M  V30 4502 H 421.177 -1.28748 -3.95891 0
M  V30 4503 H 421.71 -2.65998 -2.95787 0
M  V30 4504 H 418.449 -5.63111 -3.35538 0
M  V30 4505 H 417.969 -4.19442 -4.28752 0
M  V30 4506 H 419.648 -4.78498 -4.35487 0
M  V30 4507 N 419.78 1.02168 -1.19998 0
M  V30 4508 C 421.008 1.79296 -1.03249 0
M  V30 4509 C 421.423 1.84103 0.418502 0
M  V30 4510 O 420.78 1.29031 1.29063 0
M  V30 4511 C 420.831 3.24007 -1.60319 0
M  V30 4512 O 420.552 3.19512 -2.99739 0
M  V30 4513 C 422.053 4.17704 -1.48453 0
M  V30 4514 H 419.273 0.564016 -0.363493 0
M  V30 4515 H 421.817 1.28639 -1.58973 0
M  V30 4516 H 419.972 3.7183 -1.08727 0
M  V30 4517 H 420.386 4.10306 -3.26725 0
M  V30 4518 H 421.86 5.17104 -1.93153 0
M  V30 4519 H 422.337 4.37029 -0.436193 0
M  V30 4520 H 422.943 3.7576 -1.99211 0
M  V30 4521 N 421.258 1.00505 1.21394 0
M  V30 4522 C 422.486 0.706609 1.9446 0
M  V30 4523 C 422.901 -0.73081 1.74082 0
M  V30 4524 O 422.258 -1.49446 1.04747 0
M  V30 4525 C 422.309 1.01824 3.46863 0
M  V30 4526 O 422.03 2.39919 3.66566 0
M  V30 4527 C 423.531 0.739216 4.37093 0
M  V30 4528 H 420.751 0.260394 0.618414 0
M  V30 4529 H 423.295 1.34311 1.54211 0
M  V30 4530 H 421.45 0.427343 3.85036 0
M  V30 4531 H 421.864 2.50784 4.6066 0
M  V30 4532 H 423.338 1.00744 5.42729 0
M  V30 4533 H 423.815 -0.326746 4.37983 0
M  V30 4534 H 424.421 1.31173 4.04566 0
M  V30 4535 N 422.737 -1.36956 0.779787 0
M  V30 4536 C 423.983 -1.99787 0.348281 0
M  V30 4537 C 424.316 -1.61756 -1.07465 0
M  V30 4538 O 423.591 -0.867639 -1.74075 0
M  V30 4539 C 423.874 -3.56597 0.50104 0
M  V30 4540 C 423.727 -4.04513 1.96697 0
M  V30 4541 C 425.046 -4.40008 -0.0898097 0
M  V30 4542 H 422.165 -0.725796 0.128022 0
M  V30 4543 H 424.807 -1.62514 0.984331 0
M  V30 4544 H 422.957 -3.88479 -0.0404347 0
M  V30 4545 H 424.629 -3.83161 2.56876 0
M  V30 4546 H 422.872 -3.56408 2.47297 0
M  V30 4547 H 423.543 -5.1352 2.02486 0
M  V30 4548 H 426.019 -4.14431 0.372293 0
M  V30 4549 H 424.895 -5.4888 0.0471605 0
M  V30 4550 H 425.156 -4.26035 -1.18096 0
M  V30 4551 N 424.215 -0.530993 -1.48385 0
M  V30 4552 C 425.145 0.219985 -2.32461 0
M  V30 4553 C 426.126 0.934111 -1.42156 0
M  V30 4554 O 427.311 0.919694 -1.71042 0
M  V30 4555 C 424.441 1.26674 -3.23375 0
M  V30 4556 C 423.395 0.67069 -4.22712 0
M  V30 4557 C 422.721 1.82017 -5.02766 0
M  V30 4558 C 424.021 -0.358268 -5.2107 0
M  V30 4559 H 425.715 -0.48187 -2.95497 0
M  V30 4560 H 423.261 -0.233182 -1.42099 0
M  V30 4561 H 425.214 1.80006 -3.81019 0
M  V30 4562 H 423.938 1.99818 -2.58341 0
M  V30 4563 H 422.597 0.158878 -3.66256 0
M  V30 4564 H 422.245 2.54002 -4.34157 0
M  V30 4565 H 421.945 1.42727 -5.70003 0
M  V30 4566 H 423.469 2.35725 -5.63264 0
M  V30 4567 H 424.883 0.0880081 -5.73232 0
M  V30 4568 H 423.28 -0.66861 -5.96364 0
M  V30 4569 H 424.35 -1.26367 -4.68145 0
M  V30 4570 N 425.693 1.55336 -0.266172 0
M  V30 4571 C 426.921 2.03801 0.356756 0
M  V30 4572 C 427.336 1.14485 1.50129 0
M  V30 4573 O 426.693 0.163121 1.8177 0
M  V30 4574 C 426.744 3.51455 0.846281 0
M  V30 4575 O 426.465 4.37371 -0.252663 0
M  V30 4576 C 427.966 4.15767 1.53794 0
M  V30 4577 H 425.186 0.665906 0.0825218 0
M  V30 4578 H 427.73 2.00636 -0.39566 0
M  V30 4579 H 425.885 3.55092 1.54881 0
M  V30 4580 H 426.299 5.24358 0.122173 0
M  V30 4581 H 427.773 5.20714 1.83198 0
M  V30 4582 H 428.25 3.63404 2.46646 0
M  V30 4583 H 428.856 4.16107 0.879488 0
M  V30 4584 N 427.171 -0.0066808 1.57599 0
M  V30 4585 C 428.104 -1.03397 2.03431 0
M  V30 4586 C 429.082 -1.33872 0.922877 0
M  V30 4587 O 430.266 -1.4615 1.19048 0
M  V30 4588 C 427.393 -2.36325 2.42628 0
M  V30 4589 C 426.439 -2.21557 3.64438 0
M  V30 4590 S 427.272 -1.54789 5.12641 0
M  V30 4591 C 428.428 -2.8916 5.55101 0
M  V30 4592 H 428.661 -0.643687 2.90248 0
M  V30 4593 H 426.194 -0.217349 1.52863 0
M  V30 4594 H 428.152 -3.12759 2.65879 0
M  V30 4595 H 426.813 -2.72495 1.56222 0
M  V30 4596 H 426.006 -3.1974 3.89592 0
M  V30 4597 H 425.608 -1.53267 3.41153 0
M  V30 4598 H 427.9 -3.8547 5.57153 0
M  V30 4599 H 428.843 -2.68713 6.55133 0
M  V30 4600 H 429.251 -2.92762 4.82649 0
M  V30 4601 N 428.649 -1.55105 -0.279332 0
M  V30 4602 C 429.877 -1.7943 -1.03017 0
M  V30 4603 C 430.292 -0.564456 -1.80165 0
M  V30 4604 O 429.649 0.466326 -1.76442 0
M  V30 4605 C 429.7 -3.0155 -1.99374 0
M  V30 4606 O 429.421 -4.19784 -1.25352 0
M  V30 4607 C 430.922 -3.3843 -2.86321 0
M  V30 4608 H 428.142 -0.597882 -0.304594 0
M  V30 4609 H 430.686 -2.02105 -0.312035 0
M  V30 4610 H 428.841 -2.81019 -2.66659 0
M  V30 4611 H 429.255 -4.88781 -1.90246 0
M  V30 4612 H 430.729 -4.27066 -3.49741 0
M  V30 4613 H 431.206 -2.57549 -3.5576 0
M  V30 4614 H 431.812 -3.61197 -2.24536 0
M  V30 4615 N 430.127 0.543554 -1.4793 0
M  V30 4616 C 431.355 1.32516 -1.58894 0
M  V30 4617 C 431.77 1.87215 -0.244131 0
M  V30 4618 O 431.127 1.65709 0.764652 0
M  V30 4619 C 431.178 2.48554 -2.62494 0
M  V30 4620 O 430.899 1.96112 -3.91755 0
M  V30 4621 C 432.4 3.40572 -2.8377 0
M  V30 4622 H 429.62 0.403472 -0.536145 0
M  V30 4623 H 432.164 0.657106 -1.93655 0
M  V30 4624 H 430.319 3.1127 -2.30629 0
M  V30 4625 H 430.733 2.71967 -4.4848 0
M  V30 4626 H 432.207 4.18375 -3.60093 0
M  V30 4627 H 432.684 3.94965 -1.92092 0
M  V30 4628 H 433.29 2.8366 -3.16887 0
M  V30 4629 N 431.605 1.3629 0.791371 0
M  V30 4630 C 432.535 1.33137 1.91825 0
M  V30 4631 C 433.516 0.203168 1.68882 0
M  V30 4632 O 434.701 0.400509 1.90025 0
M  V30 4633 C 431.831 1.11793 3.28816 0
M  V30 4634 C 430.785 2.21417 3.66277 0
M  V30 4635 C 430.111 1.85218 5.01596 0
M  V30 4636 C 431.411 3.63489 3.75064 0
M  V30 4637 H 433.105 2.2743 1.9472 0
M  V30 4638 H 430.651 1.09479 0.935437 0
M  V30 4639 H 432.604 1.08222 4.07266 0
M  V30 4640 H 431.328 0.139501 3.26302 0
M  V30 4641 H 429.987 2.2411 2.90121 0
M  V30 4642 H 429.635 0.859544 4.95602 0
M  V30 4643 H 429.335 2.58611 5.27631 0
M  V30 4644 H 430.859 1.832 5.82469 0
M  V30 4645 H 432.273 3.63034 4.43711 0
M  V30 4646 H 430.67 4.35771 4.12582 0
M  V30 4647 H 431.74 3.98536 2.76219 0
M  V30 4648 N 433.083 -1.0153 1.20538 0
M  V30 4649 C 434.016 -2.09759 0.898695 0
M  V30 4650 C 434.994 -1.61909 -0.149733 0
M  V30 4651 O 436.178 -1.88486 -0.0230293 0
M  V30 4652 C 433.305 -3.36913 0.347512 0
M  V30 4653 C 432.351 -4.03655 1.37713 0
M  V30 4654 S 433.184 -4.47402 2.94265 0
M  V30 4655 C 434.34 -5.77756 2.40726 0
M  V30 4656 H 434.573 -2.3545 1.81523 0
M  V30 4657 H 432.106 -1.14665 1.03399 0
M  V30 4658 H 434.064 -4.10484 0.0360518 0
M  V30 4659 H 432.725 -3.09291 -0.547546 0
M  V30 4660 H 431.918 -4.9514 0.940872 0
M  V30 4661 H 431.52 -3.36313 1.63614 0
M  V30 4662 H 433.812 -6.52994 1.80569 0
M  V30 4663 H 434.755 -6.2618 3.30612 0
M  V30 4664 H 435.163 -5.34081 1.82806 0
M  V30 4665 N 434.561 -1.01147 -1.20859 0
M  V30 4666 C 435.807 -0.698899 -1.90377 0
M  V30 4667 C 436.14 0.76904 -1.78324 0
M  V30 4668 O 435.415 1.55817 -1.16409 0
M  V30 4669 C 435.698 -1.12878 -3.41951 0
M  V30 4670 C 435.551 -2.65665 -3.62963 0
M  V30 4671 C 436.87 -0.696114 -4.3456 0
M  V30 4672 H 433.989 -0.255372 -0.691342 0
M  V30 4673 H 436.631 -1.25831 -1.42361 0
M  V30 4674 H 434.781 -0.652827 -3.82976 0
M  V30 4675 H 436.453 -3.21074 -3.31224 0
M  V30 4676 H 434.696 -3.06878 -3.06608 0
M  V30 4677 H 435.367 -2.90797 -4.69192 0
M  V30 4678 H 437.843 -1.10521 -4.01154 0
M  V30 4679 H 436.719 -1.025 -5.39245 0
M  V30 4680 H 436.98 0.402465 -4.40264 0
M  V30 4681 N 436.039 1.36541 -0.78704 0
M  V30 4682 C 437.264 2.0409 -0.369053 0
M  V30 4683 C 437.689 1.58957 1.00569 0
M  V30 4684 O 437.047 0.756926 1.64743 0
M  V30 4685 C 437.095 3.57924 -0.438466 0
M  V30 4686 O 436.199 4.08642 0.555479 0
M  V30 4687 H 435.54 0.645142 -0.157122 0
M  V30 4688 H 438.07 1.74545 -1.06749 0
M  V30 4689 H 438.08 4.06887 -0.301218 0
M  V30 4690 H 436.755 3.90127 -1.44132 0
M  V30 4691 H 435.332 3.70958 0.380088 0
M  V30 4692 N 437.518 0.538854 1.48102 0
M  V30 4693 C 438.481 -0.208395 2.28251 0
M  V30 4694 C 439.481 -0.859656 1.35892 0
M  V30 4695 O 440.671 -0.71834 1.58699 0
M  V30 4696 C 437.803 -1.30252 3.15035 0
M  V30 4697 H 438.996 0.495407 2.9578 0
M  V30 4698 H 436.549 0.295112 1.53489 0
M  V30 4699 H 437.284 -2.0393 2.52157 0
M  V30 4700 H 437.069 -0.840551 3.82985 0
M  V30 4701 H 438.559 -1.82787 3.75471 0
M  V30 4702 N 438.996 -1.55193 0.274407 0
M  V30 4703 C 440.412 -1.59401 -0.0797543 0
M  V30 4704 C 440.612 -1.29162 -1.54659 0
M  V30 4705 O 439.668 -1.05215 -2.29534 0
M  V30 4706 C 440.981 -2.99257 0.294238 0
M  V30 4707 C 442.529 -3.12072 0.240796 0
M  V30 4708 C 443.004 -4.54194 0.589218 0
M  V30 4709 N 444.495 -4.60033 0.540744 0
M  V30 4710 C 445.23 -5.68027 0.783147 0
M  V30 4711 N 444.726 -6.8417 1.09013 0
M  V30 4712 N 446.519 -5.57572 0.711993 0
M  V30 4713 H 438.67 -1.73113 1.23067 0
M  V30 4714 H 440.933 -0.807197 0.497129 0
M  V30 4715 H 440.639 -3.26217 1.31435 0
M  V30 4716 H 440.513 -3.75427 -0.365281 0
M  V30 4717 H 442.9 -2.84877 -0.770024 0
M  V30 4718 H 442.981 -2.38117 0.934563 0
M  V30 4719 H 442.625 -4.82115 1.59772 0
M  V30 4720 H 442.555 -5.26448 -0.126331 0
M  V30 4721 H 445.046 -3.76599 0.313327 0
M  V30 4722 H 445.359 -7.6243 1.26178 0
M  V30 4723 H 443.704 -6.85787 1.12789 0
M  V30 4724 H 446.895 -4.65714 0.472014 0
M  V30 4725 H 447.068 -6.41659 0.90429 0
M  V30 4726 N 440.474 -0.00167713 -1.576 0
M  V30 4727 C 441.699 0.69739 -1.95323 0
M  V30 4728 C 442.124 1.6642 -0.876706 0
M  V30 4729 O 441.482 1.80548 0.165007 0
M  V30 4730 C 441.53 1.40403 -3.32144 0
M  V30 4731 O 440.634 2.5185 -3.26566 0
M  V30 4732 H 439.975 0.185373 -0.637599 0
M  V30 4733 H 442.505 -0.0553665 -2.04525 0
M  V30 4734 H 442.515 1.76707 -3.67748 0
M  V30 4735 H 441.19 0.695167 -4.10049 0
M  V30 4736 H 439.767 2.17861 -3.0264 0
M  V30 4737 N 441.952 1.55251 0.271103 0
M  V30 4738 C 443.177 1.80306 1.02491 0
M  V30 4739 C 443.602 0.575457 1.79081 0
M  V30 4740 O 442.96 -0.474987 1.74967 0
M  V30 4741 C 443.008 3.02832 1.95768 0
M  V30 4742 O 442.112 2.78051 3.04568 0
M  V30 4743 H 441.453 0.595896 0.292923 0
M  V30 4744 H 443.983 2.02397 0.299436 0
M  V30 4745 H 443.993 3.31616 2.37686 0
M  V30 4746 H 442.668 3.9183 1.39434 0
M  V30 4747 H 441.245 2.60369 2.66951 0
M  V30 4748 N 443.43 -0.535701 1.48216 0
M  V30 4749 C 444.36 -1.65014 1.65204 0
M  V30 4750 C 445.341 -1.62554 0.501011 0
M  V30 4751 O 446.526 -1.7984 0.732886 0
M  V30 4752 C 443.656 -3.03616 1.68626 0
M  V30 4753 C 442.61 -3.20932 2.83172 0
M  V30 4754 C 441.936 -4.60537 2.71679 0
M  V30 4755 C 443.236 -3.04249 4.24535 0
M  V30 4756 H 444.93 -1.51053 2.58502 0
M  V30 4757 H 442.476 -0.725262 1.24402 0
M  V30 4758 H 444.429 -3.81446 1.79099 0
M  V30 4759 H 443.153 -3.18587 0.719026 0
M  V30 4760 H 441.812 -2.45517 2.72244 0
M  V30 4761 H 441.46 -4.72336 1.72937 0
M  V30 4762 H 441.16 -4.73069 3.48538 0
M  V30 4763 H 442.684 -5.40475 2.84112 0
M  V30 4764 H 444.098 -3.71877 4.36326 0
M  V30 4765 H 442.495 -3.28278 5.02348 0
M  V30 4766 H 443.565 -2.00739 4.41397 0
M  V30 4767 N 444.908 -1.36708 -0.784132 0
M  V30 4768 C 446.319 -1.27947 -1.35965 0
M  V30 4769 C 446.67 0.0784013 -1.96043 0
M  V30 4770 O 445.795 0.979989 -1.92938 0
M  V30 4771 C 446.39 -2.31689 -2.47195 0
M  V30 4772 C 444.949 -2.26601 -3.00548 0
M  V30 4773 C 444.096 -2.16184 -1.73666 0
M  V30 4774 H 447.047 -1.4751 -0.585358 0
M  V30 4775 H 447.068 -1.95638 -3.26352 0
M  V30 4776 H 446.58 -3.30506 -2.03439 0
M  V30 4777 H 444.681 -1.31268 -3.48711 0
M  V30 4778 H 444.794 -3.19508 -3.57004 0
M  V30 4779 H 443.158 -1.62524 -1.96107 0
M  V30 4780 H 443.941 -3.16896 -1.32031 0
M  V30 4781 N 446.386 1.0089 -1.21074 0
M  V30 4782 C 447.802 1.2695 -0.967257 0
M  V30 4783 C 448.002 1.9846 0.348673 0
M  V30 4784 O 447.058 2.28459 1.0753 0
M  V30 4785 C 448.371 2.09697 -2.15517 0
M  V30 4786 C 449.919 2.22937 -2.197 0
M  V30 4787 C 450.394 3.09064 -3.37999 0
M  V30 4788 N 451.885 3.16653 -3.38061 0
M  V30 4789 C 452.62 3.8354 -4.26245 0
M  V30 4790 N 452.116 4.52488 -5.2462 0
M  V30 4791 N 453.909 3.80141 -4.14064 0
M  V30 4792 H 446.06 0.529005 -2.05707 0
M  V30 4793 H 448.323 0.296148 -0.900556 0
M  V30 4794 H 448.029 1.64497 -3.10859 0
M  V30 4795 H 447.903 3.10444 -2.14253 0
M  V30 4796 H 450.29 2.67357 -1.24916 0
M  V30 4797 H 450.371 1.21673 -2.2501 0
M  V30 4798 H 450.015 2.65347 -4.33074 0
M  V30 4799 H 449.945 4.10433 -3.29928 0
M  V30 4800 H 452.436 2.67566 -2.66865 0
M  V30 4801 H 452.749 5.01219 -5.88217 0
M  V30 4802 H 451.094 4.51288 -5.28549 0
M  V30 4803 H 454.285 3.25427 -3.36474 0
M  V30 4804 H 454.458 4.31992 -4.82998 0
M  V30 4805 N 447.864 1.01787 1.20321 0
M  V30 4806 C 448.827 0.593972 2.2137 0
M  V30 4807 C 449.827 -0.336553 1.57239 0
M  V30 4808 O 451.017 -0.125069 1.7375 0
M  V30 4809 C 448.149 -0.132433 3.40643 0
M  V30 4810 H 449.342 1.48791 2.60387 0
M  V30 4811 H 446.895 0.807803 1.33807 0
M  V30 4812 H 447.63 -1.04123 3.0713 0
M  V30 4813 H 447.415 0.53605 3.88418 0
M  V30 4814 H 448.905 -0.416314 4.1552 0
M  V30 4815 N 449.342 -1.36122 0.79427 0
M  V30 4816 C 450.567 -2.03891 0.379871 0
M  V30 4817 C 450.992 -1.59488 -0.997251 0
M  V30 4818 O 450.35 -0.765652 -1.64339 0
M  V30 4819 C 450.398 -3.57687 0.457442 0
M  V30 4820 O 449.502 -4.08931 -0.5338 0
M  V30 4821 H 448.843 -0.6443 0.160541 0
M  V30 4822 H 451.373 -1.73976 1.07673 0
M  V30 4823 H 451.383 -4.06721 0.322792 0
M  V30 4824 H 450.058 -3.89357 1.46199 0
M  V30 4825 H 448.635 -3.71154 -0.360409 0
M  V30 4826 N 450.82 -0.546701 -1.47814 0
M  V30 4827 C 451.783 0.196287 -2.28358 0
M  V30 4828 C 452.783 0.852437 -1.36346 0
M  V30 4829 O 453.973 0.709913 -1.59078 0
M  V30 4830 C 451.105 1.28579 -3.15722 0
M  V30 4831 H 452.298 -0.511086 -2.95513 0
M  V30 4832 H 449.851 -0.303248 -1.5333 0
M  V30 4833 H 450.586 2.0259 -2.53235 0
M  V30 4834 H 450.371 0.820229 -3.83425 0
M  V30 4835 H 451.861 1.80793 -3.76435 0
M  V30 4836 N 452.299 1.55045 -0.282633 0
M  V30 4837 C 453.548 1.98938 0.332667 0
M  V30 4838 C 453.861 1.17455 1.56409 0
M  V30 4839 O 455.067 1.51527 2.25282 0
M  V30 4840 C 453.523 3.54105 0.643226 0
M  V30 4841 C 453.131 4.44374 -0.568814 0
M  V30 4842 C 454.875 4.06569 1.22074 0
M  V30 4843 C 452.782 5.90943 -0.232426 0
M  V30 4844 H 451.712 0.743043 0.128075 0
M  V30 4845 H 454.363 1.79341 -0.388464 0
M  V30 4846 H 452.745 3.69532 1.42346 0
M  V30 4847 H 453.919 4.40718 -1.34551 0
M  V30 4848 H 452.234 4.02585 -1.06369 0
M  V30 4849 H 454.831 5.13626 1.48635 0
M  V30 4850 H 455.174 3.56057 2.15707 0
M  V30 4851 H 455.707 3.94612 0.502621 0
M  V30 4852 H 452.446 6.45567 -1.13683 0
M  V30 4853 H 451.966 5.9765 0.507357 0
M  V30 4854 H 453.645 6.4677 0.172657 0
M  V30 4855 N 453.777 0.010035 1.57597 0
M  V30 4856 C 454.724 -0.978122 2.09049 0
M  V30 4857 C 455.694 -1.33509 0.988159 0
M  V30 4858 O 456.879 -1.43172 1.26121 0
M  V30 4859 C 454.019 -2.26158 2.60666 0
M  V30 4860 C 453.132 -1.96275 3.84838 0
M  V30 4861 C 452.267 -3.18776 4.24918 0
M  V30 4862 C 451.306 -2.84625 5.41899 0
M  V30 4863 N 450.443 -3.99693 5.77226 0
M  V30 4864 H 455.283 -0.532431 2.93205 0
M  V30 4865 H 452.82 -0.251234 1.44939 0
M  V30 4866 H 454.778 -3.01202 2.88675 0
M  V30 4867 H 453.408 -2.68378 1.79369 0
M  V30 4868 H 452.46 -1.11555 3.63675 0
M  V30 4869 H 453.772 -1.67111 4.69974 0
M  V30 4870 H 452.926 -4.02157 4.54262 0
M  V30 4871 H 451.665 -3.51087 3.38511 0
M  V30 4872 H 450.67 -1.99653 5.12268 0
M  V30 4873 H 451.895 -2.53551 6.29991 0
M  V30 4874 H 449.841 -4.31882 4.93776 0
M  V30 4875 H 449.758 -3.74087 6.56959 0
M  V30 4876 H 451.026 -4.83834 6.11167 0
M  V30 4877 N 455.255 -1.55392 -0.262866 0
M  V30 4878 C 456.218 -1.88181 -1.30846 0
M  V30 4879 C 457.218 -0.757079 -1.41862 0
M  V30 4880 O 458.408 -1.02519 -1.40838 0
M  V30 4881 C 455.54 -2.09609 -2.68844 0
M  V30 4882 H 456.733 -2.81659 -1.02997 0
M  V30 4883 H 454.286 -1.48039 -0.501414 0
M  V30 4884 H 455.021 -1.18547 -3.01856 0
M  V30 4885 H 454.806 -2.91508 -2.62231 0
M  V30 4886 H 456.296 -2.36215 -3.44372 0
M  V30 4887 N 456.733 0.527833 -1.48498 0
M  V30 4888 C 457.663 1.64136 -1.66077 0
M  V30 4889 C 458.644 1.62286 -0.509625 0
M  V30 4890 O 459.829 1.79449 -0.742413 0
M  V30 4891 C 456.959 3.02717 -1.70234 0
M  V30 4892 C 455.913 3.19426 -2.8487 0
M  V30 4893 C 455.239 4.5909 -2.74118 0
M  V30 4894 C 456.539 3.01993 -4.26142 0
M  V30 4895 H 458.233 1.4968 -2.593 0
M  V30 4896 H 455.779 0.718654 -1.24785 0
M  V30 4897 H 457.732 3.80491 -1.8112 0
M  V30 4898 H 456.456 3.18201 -0.735911 0
M  V30 4899 H 455.115 2.4407 -2.73542 0
M  V30 4900 H 454.763 4.71413 -1.7544 0
M  V30 4901 H 454.463 4.71214 -3.51042 0
M  V30 4902 H 455.987 5.3896 -2.86974 0
M  V30 4903 H 457.401 3.69558 -4.38292 0
M  V30 4904 H 455.798 3.2561 -5.04082 0
M  V30 4905 H 456.868 1.98396 -4.42456 0
M  V30 4906 N 458.211 1.37122 0.776871 0
M  V30 4907 C 459.488 1.22586 1.52421 0
M  V30 4908 C 459.868 -0.182726 2.10308 0
M  V30 4909 O 459.216 -1.18979 1.9508 0
M  V30 4910 C 459.426 2.31782 2.60918 0
M  V30 4911 C 460.774 2.69071 3.2846 0
M  V30 4912 O 461.798 2.3092 2.71209 0
M  V30 4913 O 460.657 3.3478 4.31954 0
M  V30 4914 H 457.751 0.478045 0.674835 0
M  V30 4915 H 460.297 1.48888 0.814275 0
M  V30 4916 H 459.069 3.26131 2.16227 0
M  V30 4917 H 458.692 2.06916 3.39517 0
M  V30 4918 N 459.689 -1.00246 1.21608 0
M  V30 4919 C 460.935 -1.74319 1.03638 0
M  V30 4920 C 461.268 -1.89408 -0.428749 0
M  V30 4921 O 460.543 -1.43026 -1.3181 0
M  V30 4922 C 460.826 -3.15431 1.73711 0
M  V30 4923 C 460.679 -3.08049 3.27759 0
M  V30 4924 C 461.998 -4.14407 1.48173 0
M  V30 4925 H 459.117 -0.632741 0.377899 0
M  V30 4926 H 461.759 -1.16853 1.49818 0
M  V30 4927 H 459.909 -3.64493 1.34452 0
M  V30 4928 H 461.581 -2.66681 3.76403 0
M  V30 4929 H 459.824 -2.45088 3.57931 0
M  V30 4930 H 460.495 -4.07862 3.71958 0
M  V30 4931 H 462.971 -3.74061 1.82258 0
M  V30 4932 H 461.847 -5.11279 1.99713 0
M  V30 4933 H 462.108 -4.40174 0.412273 0
M  V30 4934 N 461.167 -1.02423 -1.1978 0
M  V30 4935 C 462.397 -0.736387 -1.93031 0
M  V30 4936 C 462.805 0.708023 -1.75453 0
M  V30 4937 O 462.148 1.4927 -1.07071 0
M  V30 4938 C 462.21 -1.00194 -3.45255 0
M  V30 4939 C 461.874 -2.43698 -3.86601 0
M  V30 4940 C 462.871 -3.41814 -3.91738 0
M  V30 4941 C 460.556 -2.77975 -4.18372 0
M  V30 4942 C 462.55 -4.72265 -4.28071 0
M  V30 4943 C 460.237 -4.08636 -4.54378 0
M  V30 4944 C 461.235 -5.05592 -4.59201 0
M  V30 4945 O 460.923 -6.33914 -4.94376 0
M  V30 4946 H 460.655 -0.269116 -0.620123 0
M  V30 4947 H 463.209 -1.37043 -1.52998 0
M  V30 4948 H 461.439 -0.310747 -3.85449 0
M  V30 4949 H 463.128 -0.704488 -3.9974 0
M  V30 4950 H 463.894 -3.16671 -3.67348 0
M  V30 4951 H 459.773 -2.0319 -4.13805 0
M  V30 4952 H 463.317 -5.4794 -4.3175 0
M  V30 4953 H 459.214 -4.33556 -4.78226 0
M  V30 4954 H 459.982 -6.38317 -5.12341 0
M  V30 4955 N 462.645 1.35699 -0.801477 0
M  V30 4956 C 463.892 1.98913 -0.379459 0
M  V30 4957 C 464.22 1.63592 1.05204 0
M  V30 4958 O 463.475 0.888563 1.74365 0
M  V30 4959 C 463.774 3.53828 -0.504041 0
M  V30 4960 C 463.44 4.09002 -1.8981 0
M  V30 4961 C 462.102 4.23783 -2.27951 0
M  V30 4962 C 464.454 4.38939 -2.81038 0
M  V30 4963 C 461.782 4.65816 -3.56696 0
M  V30 4964 C 464.134 4.82409 -4.09224 0
M  V30 4965 C 462.798 4.95395 -4.4737 0
M  V30 4966 H 462.068 0.727874 -0.138854 0
M  V30 4967 H 464.715 1.61994 -1.02128 0
M  V30 4968 H 463.02 3.91175 0.221242 0
M  V30 4969 H 464.717 4.00687 -0.158361 0
M  V30 4970 H 461.307 3.97946 -1.59176 0
M  V30 4971 H 465.491 4.27077 -2.52821 0
M  V30 4972 H 460.747 4.74059 -3.86106 0
M  V30 4973 H 464.921 5.04535 -4.80018 0
M  V30 4974 H 462.548 5.27724 -5.47185 0
M  V30 4975 N 464.123 0.554532 1.47522 0
M  V30 4976 C 465.369 0.0377449 2.03365 0
M  V30 4977 C 465.724 -1.29654 1.42154 0
M  V30 4978 O 465.017 -1.83022 0.566865 0
M  V30 4979 C 465.211 -0.115927 3.57212 0
M  V30 4980 C 465.04 1.20191 4.33341 0
M  V30 4981 C 463.81 1.76849 4.73342 0
M  V30 4982 C 466.008 2.11849 4.68641 0
M  V30 4983 N 463.99 3.02665 5.34104 0
M  V30 4984 C 465.361 3.22245 5.29677 0
M  V30 4985 C 467.416 2.11876 4.5057 0
M  V30 4986 C 466.119 4.32763 5.74551 0
M  V30 4987 C 468.145 3.21405 4.9644 0
M  V30 4988 C 467.507 4.30519 5.57523 0
M  V30 4989 H 463.606 0.0559107 0.779999 0
M  V30 4990 H 466.19 0.741232 1.80038 0
M  V30 4991 H 464.361 -0.788533 3.80311 0
M  V30 4992 H 466.093 -0.634538 3.99695 0
M  V30 4993 H 462.848 1.30681 4.55214 0
M  V30 4994 H 463.272 3.66788 5.69031 0
M  V30 4995 H 467.914 1.28801 4.02704 0
M  V30 4996 H 465.632 5.166 6.2141 0
M  V30 4997 H 469.218 3.22509 4.8423 0
M  V30 4998 H 468.098 5.13873 5.92371 0
M  V30 4999 N 465.601 -1.54893 0.290851 0
M  V30 5000 C 466.85 -1.99111 -0.322113 0
M  V30 5001 C 467.163 -1.18283 -1.55784 0
M  V30 5002 O 468.369 -1.5272 -2.24475 0
M  V30 5003 C 466.825 -3.54442 -0.624438 0
M  V30 5004 C 466.433 -4.44066 0.592373 0
M  V30 5005 C 468.177 -4.07211 -1.19916 0
M  V30 5006 C 466.084 -5.90812 0.263762 0
M  V30 5007 H 465.014 -0.743712 -0.124133 0
M  V30 5008 H 467.665 -1.79132 0.39797 0
M  V30 5009 H 466.047 -3.70281 -1.40384 0
M  V30 5010 H 467.221 -4.39999 1.36886 0
M  V30 5011 H 465.536 -4.02015 1.08502 0
M  V30 5012 H 468.133 -5.14407 -1.45909 0
M  V30 5013 H 468.476 -3.57196 -2.13815 0
M  V30 5014 H 469.009 -3.94873 -0.481687 0
M  V30 5015 H 465.748 -6.44955 1.17105 0
M  V30 5016 H 465.268 -5.97911 -0.475655 0
M  V30 5017 H 466.947 -6.46852 -0.138354 0
M  V30 5018 N 467.08 -0.0183926 -1.57589 0
M  V30 5019 C 468.32 0.666846 -1.93216 0
M  V30 5020 C 468.684 1.69905 -0.894215 0
M  V30 5021 O 469.885 2.436 -1.13633 0
M  V30 5022 C 468.156 1.27684 -3.33814 0
M  V30 5023 S 469.715 1.98464 -3.91353 0
M  V30 5024 H 466.533 0.219826 -0.676164 0
M  V30 5025 H 469.135 -0.0794893 -1.95338 0
M  V30 5026 H 467.839 0.513006 -4.07181 0
M  V30 5027 H 467.37 2.06071 -3.3511 0
M  V30 5028 H 469.385 3.26189 -3.73918 0
M  V30 5029 N 468.558 1.5553 0.254621 0
M  V30 5030 C 469.788 1.80784 1.00004 0
M  V30 5031 C 470.196 0.59071 1.79742 0
M  V30 5032 O 469.539 -0.449988 1.78103 0
M  V30 5033 C 469.601 2.99268 1.99196 0
M  V30 5034 C 469.265 4.35595 1.38224 0
M  V30 5035 C 470.262 5.13884 0.788611 0
M  V30 5036 C 467.947 4.82281 1.40393 0
M  V30 5037 C 469.941 6.37004 0.224783 0
M  V30 5038 C 467.628 6.05351 0.836243 0
M  V30 5039 C 468.626 6.82551 0.24769 0
M  V30 5040 O 468.314 8.03297 -0.311249 0
M  V30 5041 H 468.046 0.60565 0.300274 0
M  V30 5042 H 470.6 2.03411 0.285143 0
M  V30 5043 H 468.83 2.72377 2.74496 0
M  V30 5044 H 470.519 3.11682 2.60018 0
M  V30 5045 H 471.285 4.78938 0.764423 0
M  V30 5046 H 467.164 4.22189 1.85142 0
M  V30 5047 H 470.708 6.97203 -0.235235 0
M  V30 5048 H 466.605 6.39776 0.857733 0
M  V30 5049 H 467.373 8.1825 -0.20237 0
M  V30 5050 N 470.036 -0.519951 1.48776 0
M  V30 5051 C 471.282 -1.27711 1.57536 0
M  V30 5052 C 471.615 -1.92547 0.252866 0
M  V30 5053 O 470.89 -1.7979 -0.742021 0
M  V30 5054 C 471.173 -2.35875 2.72094 0
M  V30 5055 C 471.026 -1.75664 4.1408 0
M  V30 5056 C 472.345 -3.37575 2.82367 0
M  V30 5057 H 469.464 -0.462971 0.573434 0
M  V30 5058 H 472.106 -0.578194 1.80989 0
M  V30 5059 H 470.256 -2.95488 2.52228 0
M  V30 5060 H 471.928 -1.20025 4.45412 0
M  V30 5061 H 470.171 -1.06154 4.20611 0
M  V30 5062 H 470.842 -2.54029 4.90075 0
M  V30 5063 H 473.318 -2.87929 3.00393 0
M  V30 5064 H 472.194 -4.1064 3.64233 0
M  V30 5065 H 472.455 -3.98743 1.90936 0
M  V30 5066 N 471.514 -1.37532 -0.769588 0
M  V30 5067 C 472.761 -1.3286 -1.52822 0
M  V30 5068 C 473.089 0.0862597 -1.94309 0
M  V30 5069 O 472.344 1.05995 -1.6451 0
M  V30 5070 C 472.643 -2.21558 -2.8044 0
M  V30 5071 C 472.309 -3.69796 -2.57996 0
M  V30 5072 C 470.971 -4.10194 -2.51583 0
M  V30 5073 C 473.323 -4.63699 -2.37976 0
M  V30 5074 C 470.651 -5.42608 -2.23144 0
M  V30 5075 C 473.003 -5.96353 -2.1106 0
M  V30 5076 C 471.667 -6.35853 -2.03093 0
M  V30 5077 H 470.937 -0.486168 -0.559215 0
M  V30 5078 H 473.584 -1.69757 -0.886277 0
M  V30 5079 H 471.889 -1.77663 -3.49204 0
M  V30 5080 H 473.586 -2.15256 -3.38328 0
M  V30 5081 H 470.176 -3.37759 -2.63851 0
M  V30 5082 H 474.36 -4.33346 -2.41919 0
M  V30 5083 H 469.616 -5.72173 -2.15472 0
M  V30 5084 H 473.79 -6.68667 -1.94568 0
M  V30 5085 H 471.417 -7.38382 -1.8082 0
M  V30 5086 N 472.992 0.995999 -1.22138 0
M  V30 5087 C 474.238 1.73767 -1.04561 0
M  V30 5088 C 474.571 1.89633 0.418698 0
M  V30 5089 O 473.846 1.43723 1.3105 0
M  V30 5090 C 474.129 3.14505 -1.75382 0
M  V30 5091 C 473.982 3.06306 -3.29388 0
M  V30 5092 C 475.301 4.13615 -1.50369 0
M  V30 5093 H 472.42 0.630728 -0.38125 0
M  V30 5094 H 475.062 1.16057 -1.50435 0
M  V30 5095 H 473.212 3.63775 -1.36383 0
M  V30 5096 H 474.884 2.64681 -3.77812 0
M  V30 5097 H 473.127 2.43186 -3.59226 0
M  V30 5098 H 473.798 4.05884 -3.74116 0
M  V30 5099 H 476.274 3.73089 -1.84239 0
M  V30 5100 H 475.15 5.10212 -2.02421 0
M  V30 5101 H 475.411 4.39949 -0.435611 0
M  V30 5102 N 474.47 1.03057 1.19235 0
M  V30 5103 C 475.717 0.728019 1.88961 0
M  V30 5104 C 476.045 -0.743515 1.79728 0
M  V30 5105 O 475.3 -1.55729 1.1852 0
M  V30 5106 C 475.599 1.1268 3.39172 0
M  V30 5107 C 475.265 2.5969 3.68608 0
M  V30 5108 C 473.927 2.99854 3.76352 0
M  V30 5109 C 476.279 3.54793 3.81801 0
M  V30 5110 C 473.607 4.34031 3.94758 0
M  V30 5111 C 475.959 4.88675 4.0172 0
M  V30 5112 C 474.623 5.28526 4.07697 0
M  V30 5113 H 473.893 0.266401 0.691456 0
M  V30 5114 H 476.54 1.29373 1.41191 0
M  V30 5115 H 474.845 0.479722 3.88852 0
M  V30 5116 H 476.542 0.870203 3.91444 0
M  V30 5117 H 473.132 2.27575 3.63191 0
M  V30 5118 H 477.316 3.24914 3.7516 0
M  V30 5119 H 472.572 4.6444 3.97625 0
M  V30 5120 H 476.746 5.6228 4.1087 0
M  V30 5121 H 474.373 6.32506 4.21712 0
M  V30 5122 N 475.948 -1.35272 0.808662 0
M  V30 5123 C 476.911 -2.28082 0.226093 0
M  V30 5124 C 477.911 -1.49673 -0.587762 0
M  V30 5125 O 479.101 -1.69404 -0.405943 0
M  V30 5126 C 476.233 -3.33955 -0.684596 0
M  V30 5127 H 477.426 -2.81116 1.04469 0
M  V30 5128 H 474.979 -1.45162 0.579466 0
M  V30 5129 H 475.714 -2.86111 -1.5268 0
M  V30 5130 H 475.499 -3.91965 -0.102699 0
M  V30 5131 H 476.989 -4.03219 -1.08646 0
M  V30 5132 N 477.426 -0.562348 -1.47226 0
M  V30 5133 C 478.389 0.172056 -2.28553 0
M  V30 5134 C 479.389 0.837928 -1.37242 0
M  V30 5135 O 480.579 0.693001 -1.59822 0
M  V30 5136 C 477.711 1.25223 -3.17068 0
M  V30 5137 H 478.904 -0.542401 -2.94954 0
M  V30 5138 H 476.457 -0.319493 -1.53 0
M  V30 5139 H 477.192 1.99892 -2.55369 0
M  V30 5140 H 476.977 0.779515 -3.84273 0
M  V30 5141 H 478.467 1.76791 -3.78332 0
M  V30 5142 N 478.904 1.54736 -0.299062 0
M  V30 5143 C 479.834 2.26409 0.571085 0
M  V30 5144 C 480.815 1.2629 1.13951 0
M  V30 5145 O 482 1.55059 1.16921 0
M  V30 5146 C 479.13 3.00338 1.74396 0
M  V30 5147 C 478.084 4.07588 1.30599 0
M  V30 5148 C 477.41 4.69222 2.56387 0
M  V30 5149 C 478.71 5.20455 0.438645 0
M  V30 5150 H 480.404 2.99388 -0.0266991 0
M  V30 5151 H 477.95 1.43993 -0.0142812 0
M  V30 5152 H 479.903 3.49198 2.35878 0
M  V30 5153 H 478.627 2.24934 2.36796 0
M  V30 5154 H 477.286 3.59575 0.71424 0
M  V30 5155 H 476.934 3.9046 3.17097 0
M  V30 5156 H 476.634 5.41653 2.27784 0
M  V30 5157 H 478.158 5.20844 3.18675 0
M  V30 5158 H 479.572 5.65221 0.959085 0
M  V30 5159 H 477.969 5.99594 0.246466 0
M  V30 5160 H 479.039 4.8192 -0.536738 0
M  V30 5161 N 480.382 0.0267497 1.57577 0
M  V30 5162 C 481.628 -0.653371 1.91987 0
M  V30 5163 C 481.961 -1.71915 0.903263 0
M  V30 5164 O 481.236 -1.94358 -0.0743387 0
M  V30 5165 C 481.519 -1.272 3.36886 0
M  V30 5166 C 481.372 -0.215938 4.49281 0
M  V30 5167 C 482.691 -2.19069 3.81703 0
M  V30 5168 H 479.81 -0.236047 0.698177 0
M  V30 5169 H 482.452 0.0835236 1.89816 0
M  V30 5170 H 480.602 -1.90005 3.38866 0
M  V30 5171 H 482.274 0.41449 4.59434 0
M  V30 5172 H 480.517 0.458855 4.31366 0
M  V30 5173 H 481.188 -0.688347 5.47691 0
M  V30 5174 H 483.664 -1.66253 3.81444 0
M  V30 5175 H 482.54 -2.59307 4.83788 0
M  V30 5176 H 482.801 -3.08087 3.17072 0
M  V30 5177 N 481.861 -1.55662 -0.24637 0
M  V30 5178 C 482.771 -1.93495 -1.32653 0
M  V30 5179 C 483.787 -0.835462 -1.5263 0
M  V30 5180 O 484.963 -1.1369 -1.66242 0
M  V30 5181 C 482.028 -2.22242 -2.66101 0
M  V30 5182 C 481.089 -3.45625 -2.54641 0
M  V30 5183 C 480.322 -3.72991 -3.81724 0
M  V30 5184 O 480.545 -3.02421 -4.8363 0
M  V30 5185 O 479.479 -4.66515 -3.80325 0
M  V30 5186 H 483.305 -2.85498 -1.03559 0
M  V30 5187 H 480.89 -1.42551 -0.44717 0
M  V30 5188 H 482.772 -2.42037 -3.44958 0
M  V30 5189 H 481.447 -1.33417 -2.94926 0
M  V30 5190 H 480.354 -3.31136 -1.74067 0
M  V30 5191 H 481.687 -4.34754 -2.3076 0
M  V30 5192 N 483.339 0.512053 -1.4905 0
M  V30 5193 C 484.569 1.28928 -1.61434 0
M  V30 5194 C 484.977 1.87107 -0.280647 0
M  V30 5195 O 484.32 1.68024 0.742537 0
M  V30 5196 C 484.382 2.466 -2.61588 0
M  V30 5197 C 484.046 2.09375 -4.06216 0
M  V30 5198 C 485.043 1.63994 -4.93358 0
M  V30 5199 C 482.728 2.19348 -4.51876 0
M  V30 5200 C 484.722 1.29076 -6.24194 0
M  V30 5201 C 482.409 1.84041 -5.82728 0
M  V30 5202 C 483.407 1.38978 -6.68711 0
M  V30 5203 O 483.095 1.04144 -7.97126 0
M  V30 5204 H 482.827 0.397668 -0.546659 0
M  V30 5205 H 485.381 0.622507 -1.9574 0
M  V30 5206 H 483.611 3.16318 -2.22441 0
M  V30 5207 H 485.3 3.08642 -2.63619 0
M  V30 5208 H 486.066 1.55744 -4.59313 0
M  V30 5209 H 481.945 2.53376 -3.85125 0
M  V30 5210 H 485.489 0.938303 -6.91261 0
M  V30 5211 H 481.386 1.91938 -6.16304 0
M  V30 5212 H 482.154 1.17387 -8.10039 0
M  V30 5213 N 484.817 1.37938 0.762283 0
M  V30 5214 C 485.78 1.34279 1.85747 0
M  V30 5215 C 486.78 0.244969 1.58923 0
M  V30 5216 O 487.97 0.501365 1.66829 0
M  V30 5217 C 485.102 1.08833 3.23061 0
M  V30 5218 H 486.295 2.31705 1.90401 0
M  V30 5219 H 483.848 1.23105 0.963057 0
M  V30 5220 H 484.583 0.119767 3.24079 0
M  V30 5221 H 484.368 1.88306 3.43923 0
M  V30 5222 H 485.858 1.08946 4.03138 0
M  V30 5223 N 486.295 -0.989507 1.22664 0
M  V30 5224 C 487.542 -1.72953 1.05325 0
M  V30 5225 C 487.87 -1.90104 -0.411168 0
M  V30 5226 O 487.125 -1.44386 -1.32103 0
M  V30 5227 C 487.424 -3.13649 1.71345 0
M  V30 5228 C 487.09 -3.16403 3.21248 0
M  V30 5229 C 485.752 -3.16862 3.62149 0
M  V30 5230 C 488.104 -3.12428 4.17179 0
M  V30 5231 C 485.432 -3.11051 4.97458 0
M  V30 5232 C 487.784 -3.08159 5.52468 0
M  V30 5233 C 486.448 -3.06935 5.92746 0
M  V30 5234 H 485.718 -0.632881 0.385412 0
M  V30 5235 H 488.365 -1.15863 1.52473 0
M  V30 5236 H 486.67 -3.74069 1.16532 0
M  V30 5237 H 488.367 -3.69658 1.55416 0
M  V30 5238 H 484.957 -3.16798 2.88682 0
M  V30 5239 H 489.141 -3.11221 3.86595 0
M  V30 5240 H 484.397 -3.0845 5.27891 0
M  V30 5241 H 488.571 -3.04039 6.26525 0
M  V30 5242 H 486.198 -3.02186 6.97558 0
M  V30 5243 N 487.773 -1.03688 -1.18687 0
M  V30 5244 C 488.736 -0.629115 -2.20397 0
M  V30 5245 C 489.736 0.311495 -1.57754 0
M  V30 5246 O 490.926 0.0974107 -1.73927 0
M  V30 5247 C 488.058 0.0782231 -3.4081 0
M  V30 5248 H 489.251 -1.52915 -2.57987 0
M  V30 5249 H 486.804 -0.828988 -1.32505 0
M  V30 5250 H 487.539 0.992233 -3.08748 0
M  V30 5251 H 487.324 -0.597776 -3.87517 0
M  V30 5252 H 488.814 0.350156 -4.16129 0
M  V30 5253 N 489.251 1.34841 -0.815825 0
M  V30 5254 C 490.201 2.27075 -0.205169 0
M  V30 5255 C 491.185 1.48205 0.626414 0
M  V30 5256 O 492.377 1.70306 0.482157 0
M  V30 5257 C 489.506 3.37322 0.637871 0
M  V30 5258 C 488.592 4.23609 -0.203948 0
M  V30 5259 N 488.983 4.89558 -1.27149 0
M  V30 5260 C 487.281 4.45998 0.0128971 0
M  V30 5261 C 487.982 5.53597 -1.7862 0
M  V30 5262 N 486.958 5.32535 -1.0912 0
M  V30 5263 H 490.76 2.75563 -1.02187 0
M  V30 5264 H 488.274 1.48477 -0.657912 0
M  V30 5265 H 490.271 4.02359 1.09146 0
M  V30 5266 H 488.931 2.90385 1.45281 0
M  V30 5267 H 489.942 4.9077 -1.65423 0
M  V30 5268 H 486.619 4.09837 0.79624 0
M  V30 5269 H 488.009 6.16184 -2.67892 0
M  V30 5270 N 490.729 0.570148 1.46925 0
M  V30 5271 C 491.976 0.0509529 2.02436 0
M  V30 5272 C 492.304 -1.30405 1.44308 0
M  V30 5273 O 491.559 -1.86493 0.593198 0
M  V30 5274 C 491.858 -0.0780336 3.57315 0
M  V30 5275 C 491.524 1.20775 4.34424 0
M  V30 5276 C 490.186 1.56004 4.5521 0
M  V30 5277 C 492.538 2.0592 4.78797 0
M  V30 5278 C 489.866 2.76201 5.17619 0
M  V30 5279 C 492.218 3.25332 5.42533 0
M  V30 5280 C 490.882 3.60859 5.61549 0
M  V30 5281 H 490.152 0.018645 0.740765 0
M  V30 5282 H 492.799 0.744262 1.76445 0
M  V30 5283 H 491.104 -0.854394 3.82371 0
M  V30 5284 H 492.801 -0.495312 3.97929 0
M  V30 5285 H 489.391 0.923469 4.18533 0
M  V30 5286 H 493.575 1.80008 4.62505 0
M  V30 5287 H 488.831 3.0388 5.30535 0
M  V30 5288 H 493.005 3.91586 5.75876 0
M  V30 5289 H 490.632 4.54088 6.09678 0
M  V30 5290 N 492.207 -1.54576 0.307264 0
M  V30 5291 C 493.155 -2.25208 -0.581723 0
M  V30 5292 C 494.149 -1.26031 -1.13192 0
M  V30 5293 O 495.355 -1.43862 -1.08184 0
M  V30 5294 H 491.73 -0.723173 -0.206214 0
M  V30 5295 H 493.701 -2.98378 0.0364663 0
M  V30 5296 C 492.45 -3.01086 -1.73904 0
M  V30 5297 H 491.773 -3.77208 -1.32491 0
M  V30 5298 H 493.213 -3.5378 -2.33701 0
M  V30 5299 C 491.672 -2.08422 -2.64692 0
M  V30 5300 O 492.202 -1.65636 -3.65961 0
M  V30 5301 N 490.408 -1.74247 -2.32564 0
M  V30 5302 H 489.955 -2.09238 -1.50257 0
M  V30 5303 H 489.913 -1.12524 -2.93574 0
M  V30 5304 N 493.685 -0.035106 -1.57561 0
M  V30 5305 C 494.648 0.929819 -2.09492 0
M  V30 5306 C 495.648 1.25026 -1.01119 0
M  V30 5307 O 496.838 1.18961 -1.27255 0
M  V30 5308 C 493.97 2.24457 -2.56577 0
M  V30 5309 H 495.163 0.479935 -2.96035 0
M  V30 5310 H 492.716 0.213033 -1.54841 0
M  V30 5311 H 493.451 2.74061 -1.73382 0
M  V30 5312 H 493.236 2.02508 -3.35757 0
M  V30 5313 H 494.726 2.93607 -2.96959 0
M  V30 5314 N 495.163 1.55791 0.238111 0
M  V30 5315 C 496.44 1.68798 0.98826 0
M  V30 5316 C 496.82 0.577562 2.03045 0
M  V30 5317 O 496.168 -0.41778 2.24648 0
M  V30 5318 C 496.378 3.09454 1.61367 0
M  V30 5319 C 497.726 3.68335 2.11221 0
M  V30 5320 O 498.75 3.1231 1.71292 0
M  V30 5321 O 497.609 4.6657 2.84561 0
M  V30 5322 H 494.703 0.686881 0.460568 0
M  V30 5323 H 497.249 1.68118 0.231202 0
M  V30 5324 H 496.021 3.81726 0.860295 0
M  V30 5325 H 495.644 3.14182 2.4367 0
M  V30 5326 N 496.642 -0.504142 1.49319 0
M  V30 5327 C 497.872 -1.28071 1.62116 0
M  V30 5328 C 498.28 -1.86955 0.290566 0
M  V30 5329 O 497.623 -1.68415 -0.733616 0
M  V30 5330 C 497.685 -2.4521 2.62893 0
M  V30 5331 C 497.349 -2.07218 4.0732 0
M  V30 5332 C 498.346 -1.61375 4.94221 0
M  V30 5333 C 496.031 -2.16949 4.53033 0
M  V30 5334 C 498.025 -1.25763 6.2487 0
M  V30 5335 C 495.712 -1.80949 5.83696 0
M  V30 5336 C 496.71 -1.3543 6.69438 0
M  V30 5337 O 496.398 -0.99915 7.97667 0
M  V30 5338 H 496.13 -0.394763 0.54876 0
M  V30 5339 H 498.684 -0.612118 1.96067 0
M  V30 5340 H 496.914 -3.15134 2.24115 0
M  V30 5341 H 498.603 -3.0724 2.65252 0
M  V30 5342 H 499.369 -1.53306 4.60133 0
M  V30 5343 H 495.248 -2.5133 3.86463 0
M  V30 5344 H 498.792 -0.901631 6.91749 0
M  V30 5345 H 494.689 -1.88667 6.17313 0
M  V30 5346 H 495.457 -1.13089 8.1065 0
M  V30 5347 N 498.12 -1.38341 -0.754957 0
M  V30 5348 C 499.536 -1.19508 -1.05783 0
M  V30 5349 C 499.736 -0.0428005 -2.01455 0
M  V30 5350 O 498.792 0.611861 -2.44975 0
M  V30 5351 C 500.105 -2.52091 -1.63923 0
M  V30 5352 C 501.653 -2.58762 -1.76101 0
M  V30 5353 C 502.128 -3.91517 -2.37652 0
M  V30 5354 N 503.619 -3.93049 -2.45085 0
M  V30 5355 C 504.354 -4.9253 -2.93602 0
M  V30 5356 N 503.85 -6.02408 -3.42165 0
M  V30 5357 N 505.643 -4.79921 -2.92629 0
M  V30 5358 H 497.794 -2.1206 -0.120056 0
M  V30 5359 H 500.057 -0.94089 -0.11589 0
M  V30 5360 H 499.763 -3.36858 -1.01093 0
M  V30 5361 H 499.637 -2.70388 -2.63003 0
M  V30 5362 H 502.024 -1.74391 -2.38058 0
M  V30 5363 H 502.105 -2.44333 -0.757294 0
M  V30 5364 H 501.749 -4.76309 -1.76329 0
M  V30 5365 H 501.679 -4.03256 -3.38662 0
M  V30 5366 H 504.17 -3.13685 -2.10736 0
M  V30 5367 H 504.483 -6.74248 -3.77637 0
M  V30 5368 H 502.828 -6.0603 -3.40225 0
M  V30 5369 H 506.019 -3.93194 -2.54001 0
M  V30 5370 H 506.192 -5.57601 -3.30128 0
M  V30 5371 N 499.598 0.982988 -1.23187 0
M  V30 5372 C 500.545 2.07491 -1.01075 0
M  V30 5373 C 501.515 1.65949 0.070905 0
M  V30 5374 O 502.7 1.90629 -0.0806822 0
M  V30 5375 C 499.84 3.39751 -0.605261 0
M  V30 5376 C 498.953 3.94578 -1.75876 0
M  V30 5377 C 498.088 5.15039 -1.3003 0
M  V30 5378 C 497.127 5.62027 -2.42472 0
M  V30 5379 N 496.264 6.73719 -1.97602 0
M  V30 5380 H 501.104 2.25739 -1.9454 0
M  V30 5381 H 498.641 1.10659 -0.969179 0
M  V30 5382 H 500.599 4.15719 -0.351279 0
M  V30 5383 H 499.229 3.21473 0.292382 0
M  V30 5384 H 498.281 3.1539 -2.12681 0
M  V30 5385 H 499.593 4.25422 -2.60418 0
M  V30 5386 H 498.747 5.9833 -1.00429 0
M  V30 5387 H 497.486 4.85843 -0.425216 0
M  V30 5388 H 496.491 4.77318 -2.7285 0
M  V30 5389 H 497.716 5.93244 -3.30512 0
M  V30 5390 H 495.662 6.46287 -1.1247 0
M  V30 5391 H 495.579 7.03934 -2.75705 0
M  V30 5392 H 496.847 7.6049 -1.71098 0
M  V30 5393 N 501.076 1.04316 1.18135 0
M  V30 5394 C 502.023 0.636398 2.21853 0
M  V30 5395 C 502.993 -0.357039 1.62217 0
M  V30 5396 O 504.178 -0.250453 1.89149 0
M  V30 5397 C 501.318 0.00812779 3.45099 0
M  V30 5398 C 500.431 1.04933 4.19062 0
M  V30 5399 C 499.566 0.389313 5.29771 0
M  V30 5400 C 498.605 1.41544 5.9551 0
M  V30 5401 N 497.742 0.78021 6.97751 0
M  V30 5402 H 502.582 1.52536 2.56002 0
M  V30 5403 H 500.119 0.76304 1.25762 0
M  V30 5404 H 502.077 -0.373497 4.15525 0
M  V30 5405 H 500.707 -0.844336 3.11562 0
M  V30 5406 H 499.759 1.54888 3.47439 0
M  V30 5407 H 501.071 1.82862 4.64072 0
M  V30 5408 H 500.225 -0.0463805 6.06682 0
M  V30 5409 H 498.964 -0.422038 4.8587 0
M  V30 5410 H 497.969 1.86124 5.17337 0
M  V30 5411 H 499.194 2.22854 6.41493 0
M  V30 5412 H 497.14 -0.0107899 6.55999 0
M  V30 5413 H 497.057 1.49716 7.41027 0
M  V30 5414 H 498.325 0.368996 7.78626 0
M  V30 5415 N 502.554 -1.34406 0.822964 0
M  V30 5416 C 503.486 -2.28305 0.202375 0
M  V30 5417 C 504.499 -1.5103 -0.60777 0
M  V30 5418 O 505.688 -1.73057 -0.437444 0
M  V30 5419 C 502.788 -3.30836 -0.734911 0
M  V30 5420 C 501.961 -4.37388 0.0324177 0
M  V30 5421 C 501.02 -5.1968 -0.825803 0
M  V30 5422 O 500.046 -5.68556 -0.270771 0
M  V30 5423 N 501.248 -5.39393 -2.14558 0
M  V30 5424 H 504.013 -2.82201 1.00909 0
M  V30 5425 H 501.574 -1.4693 0.67993 0
M  V30 5426 H 503.566 -3.82786 -1.31365 0
M  V30 5427 H 502.136 -2.77334 -1.44238 0
M  V30 5428 H 501.356 -3.86152 0.792469 0
M  V30 5429 H 502.644 -5.05702 0.560633 0
M  V30 5430 H 502.042 -5.01357 -2.62025 0
M  V30 5431 H 500.599 -5.94461 -2.67318 0
M  V30 5432 N 504.032 -0.577932 -1.46621 0
M  V30 5433 C 504.979 0.158048 -2.30258 0
M  V30 5434 C 505.949 0.888669 -1.40328 0
M  V30 5435 O 507.134 0.880283 -1.6928 0
M  V30 5436 C 504.274 1.16884 -3.24703 0
M  V30 5437 C 503.387 0.442163 -4.29731 0
M  V30 5438 C 502.522 1.44007 -5.11308 0
M  V30 5439 C 501.561 0.69952 -6.0809 0
M  V30 5440 N 500.698 1.64525 -6.82551 0
M  V30 5441 H 505.538 -0.561242 -2.92667 0
M  V30 5442 H 503.075 -0.288591 -1.44241 0
M  V30 5443 H 505.033 1.7677 -3.779 0
M  V30 5444 H 503.663 1.85591 -2.64113 0
M  V30 5445 H 502.715 -0.271632 -3.79429 0
M  V30 5446 H 504.027 -0.136992 -4.98612 0
M  V30 5447 H 503.181 2.11186 -5.68758 0
M  V30 5448 H 501.92 2.05315 -4.42377 0
M  V30 5449 H 500.925 0.0139217 -5.49798 0
M  V30 5450 H 502.15 0.091894 -6.79038 0
M  V30 5451 H 500.096 2.24653 -6.16334 0
M  V30 5452 H 500.013 1.11878 -7.47676 0
M  V30 5453 H 501.281 2.30754 -7.44562 0
M  V30 5454 N 505.51 1.54411 -0.315457 0
M  V30 5455 C 506.473 2.22713 0.54142 0
M  V30 5456 C 507.473 1.2179 1.04995 0
M  V30 5457 O 508.663 1.46426 0.943667 0
M  V30 5458 C 505.795 2.92485 1.75116 0
M  V30 5459 H 506.988 2.99849 -0.0555508 0
M  V30 5460 H 504.541 1.56159 -0.0664453 0
M  V30 5461 H 505.276 2.19466 2.38758 0
M  V30 5462 H 505.061 3.66483 1.39401 0
M  V30 5463 H 506.551 3.44548 2.35959 0
M  V30 5464 N 506.988 0.0434614 1.5754 0
M  V30 5465 C 507.935 -0.93356 2.11077 0
M  V30 5466 C 508.905 -1.31383 1.01626 0
M  V30 5467 O 510.09 -1.40465 1.29129 0
M  V30 5468 C 507.23 -2.20578 2.65404 0
M  V30 5469 C 506.343 -1.88068 3.88914 0
M  V30 5470 C 505.478 -3.09691 4.31584 0
M  V30 5471 C 504.517 -2.73067 5.47815 0
M  V30 5472 N 503.654 -3.87359 5.85574 0
M  V30 5473 H 508.494 -0.470118 2.94268 0
M  V30 5474 H 506.031 -0.220434 1.45439 0
M  V30 5475 H 507.989 -2.95011 2.94999 0
M  V30 5476 H 506.619 -2.64513 1.85021 0
M  V30 5477 H 505.671 -1.03816 3.6596 0
M  V30 5478 H 506.983 -1.57104 4.73413 0
M  V30 5479 H 506.137 -3.92431 4.62691 0
M  V30 5480 H 504.876 -3.43827 3.45882 0
M  V30 5481 H 503.881 -1.88742 5.16388 0
M  V30 5482 H 505.106 -2.40131 6.35227 0
M  V30 5483 H 503.052 -4.21311 5.02825 0
M  V30 5484 H 502.969 -3.60068 6.64746 0
M  V30 5485 H 504.237 -4.70761 6.21292 0
M  V30 5486 N 508.466 -1.55915 -0.229846 0
M  V30 5487 C 509.712 -1.78807 -0.956868 0
M  V30 5488 C 510.045 -0.611687 -1.84315 0
M  V30 5489 O 509.32 0.389398 -1.90562 0
M  V30 5490 C 509.603 -3.11718 -1.80288 0
M  V30 5491 C 509.456 -4.3979 -0.943649 0
M  V30 5492 C 510.775 -3.40999 -2.78222 0
M  V30 5493 H 507.894 -0.6505 -0.346437 0
M  V30 5494 H 510.536 -1.88648 -0.226252 0
M  V30 5495 H 508.686 -3.03459 -2.42579 0
M  V30 5496 H 510.358 -4.60059 -0.338121 0
M  V30 5497 H 508.601 -4.33086 -0.248705 0
M  V30 5498 H 509.272 -5.29208 -1.5698 0
M  V30 5499 H 511.748 -3.49332 -2.26067 0
M  V30 5500 H 510.624 -4.35183 -3.34526 0
M  V30 5501 H 510.885 -2.62754 -3.55546 0
M  V30 5502 N 509.944 0.496216 -1.49584 0
M  V30 5503 C 510.891 1.59722 -1.66606 0
M  V30 5504 C 511.861 1.58158 -0.507477 0
M  V30 5505 O 513.046 1.76072 -0.735076 0
M  V30 5506 C 510.186 2.97844 -1.74308 0
M  V30 5507 C 509.299 3.09388 -3.01502 0
M  V30 5508 C 508.434 4.38271 -3.00153 0
M  V30 5509 C 507.473 4.43466 -4.21906 0
M  V30 5510 N 506.61 5.63784 -4.1844 0
M  V30 5511 H 511.45 1.44515 -2.60613 0
M  V30 5512 H 508.987 0.703048 -1.29212 0
M  V30 5513 H 510.945 3.77907 -1.76754 0
M  V30 5514 H 509.575 3.11743 -0.837619 0
M  V30 5515 H 508.627 2.22357 -3.08645 0
M  V30 5516 H 509.939 3.09085 -3.91494 0
M  V30 5517 H 509.093 5.2666 -3.01188 0
M  V30 5518 H 507.832 4.41146 -2.07947 0
M  V30 5519 H 506.837 3.53478 -4.21109 0
M  V30 5520 H 508.062 4.42303 -5.1531 0
M  V30 5521 H 506.008 5.67491 -3.29074 0
M  V30 5522 H 505.925 5.65118 -5.02173 0
M  V30 5523 H 507.193 6.54367 -4.23585 0
M  V30 5524 N 511.423 1.38739 0.74761 0
M  V30 5525 C 512.669 1.35475 1.50912 0
M  V30 5526 C 513.002 -0.0533093 1.94127 0
M  V30 5527 O 512.277 -1.01572 1.65871 0
M  V30 5528 C 512.56 2.31582 2.75757 0
M  V30 5529 C 512.413 3.81274 2.38642 0
M  V30 5530 C 513.732 2.25722 3.77806 0
M  V30 5531 H 510.851 0.493427 0.547447 0
M  V30 5532 H 513.493 1.69634 0.855823 0
M  V30 5533 H 511.643 2.02582 3.31501 0
M  V30 5534 H 513.315 4.20972 1.88626 0
M  V30 5535 H 511.558 3.98664 1.71025 0
M  V30 5536 H 512.229 4.4399 3.27989 0
M  V30 5537 H 514.705 2.51336 3.31616 0
M  V30 5538 H 513.581 2.95069 4.62845 0
M  V30 5539 H 513.842 1.25803 4.23823 0
M  V30 5540 N 512.901 -0.976442 1.23707 0
M  V30 5541 C 514.126 -1.75875 1.09922 0
M  V30 5542 C 514.551 -1.84911 -0.34489 0
M  V30 5543 O 513.909 -1.31363 -1.24954 0
M  V30 5544 C 513.957 -3.16179 1.73388 0
M  V30 5545 O 513.061 -4.00124 0.99871 0
M  V30 5546 H 512.402 -0.540954 0.385052 0
M  V30 5547 H 514.932 -1.22546 1.6384 0
M  V30 5548 H 514.942 -3.66741 1.78788 0
M  V30 5549 H 513.617 -3.08917 2.78466 0
M  V30 5550 H 512.194 -3.58624 1.02193 0
M  V30 5551 N 514.379 -1.04941 -1.1758 0
M  V30 5552 C 515.795 -0.770282 -1.39781 0
M  V30 5553 C 515.995 0.636417 -1.91186 0
M  V30 5554 O 515.051 1.39923 -2.10185 0
M  V30 5555 C 516.364 -1.82376 -2.3908 0
M  V30 5556 C 517.912 -1.84569 -2.52791 0
M  V30 5557 C 518.387 -2.88933 -3.55361 0
M  V30 5558 N 519.878 -2.8788 -3.62877 0
M  V30 5559 C 520.613 -3.65282 -4.41992 0
M  V30 5560 N 520.109 -4.52461 -5.24643 0
M  V30 5561 N 521.902 -3.53732 -4.36841 0
M  V30 5562 H 514.053 -1.95705 -0.825438 0
M  V30 5563 H 516.316 -0.847284 -0.425222 0
M  V30 5564 H 516.022 -2.83323 -2.08376 0
M  V30 5565 H 515.896 -1.66327 -3.38549 0
M  V30 5566 H 518.283 -0.842879 -2.82807 0
M  V30 5567 H 518.364 -2.04696 -1.53406 0
M  V30 5568 H 518.008 -3.89398 -3.26085 0
M  V30 5569 H 517.938 -2.66059 -4.54445 0
M  V30 5570 H 520.429 -2.24666 -3.03864 0
M  V30 5571 H 520.742 -5.08211 -5.82187 0
M  V30 5572 H 519.087 -4.56524 -5.24033 0
M  V30 5573 H 522.278 -2.85021 -3.71323 0
M  V30 5574 H 522.451 -4.14302 -4.98255 0
M  V30 5575 N 515.857 1.33968 -0.830081 0
M  V30 5576 C 517.268 1.80439 -0.479455 0
M  V30 5577 C 517.619 1.68756 1.00079 0
M  V30 5578 O 516.744 1.23171 1.77927 0
M  V30 5579 C 517.339 3.27611 -0.863505 0
M  V30 5580 C 515.898 3.72133 -0.565145 0
M  V30 5581 C 515.045 2.55549 -1.07657 0
M  V30 5582 H 517.996 1.21614 -1.0196 0
M  V30 5583 H 518.017 3.8012 -0.170083 0
M  V30 5584 H 517.529 3.36082 -1.94089 0
M  V30 5585 H 515.63 3.69196 0.502536 0
M  V30 5586 H 515.743 4.65963 -1.11422 0
M  V30 5587 H 514.107 2.49788 -0.497807 0
M  V30 5588 H 514.89 2.66786 -2.16055 0
M  V30 5589 N 517.335 0.585699 1.46312 0
M  V30 5590 C 518.751 0.247607 1.57668 0
M  V30 5591 C 518.951 -1.25007 1.58037 0
M  V30 5592 O 518.007 -2.03196 1.49893 0
M  V30 5593 C 519.32 0.899456 2.86933 0
M  V30 5594 C 520.868 0.873326 3.00569 0
M  V30 5595 C 521.343 1.50477 4.32574 0
M  V30 5596 N 522.834 1.46925 4.3928 0
M  V30 5597 C 523.569 1.92719 5.40044 0
M  V30 5598 N 523.065 2.46499 6.47464 0
M  V30 5599 N 524.858 1.83617 5.31264 0
M  V30 5600 H 517.009 1.55841 1.44317 0
M  V30 5601 H 519.272 0.651564 0.688599 0
M  V30 5602 H 518.978 1.95313 2.92482 0
M  V30 5603 H 518.852 0.409476 3.74971 0
M  V30 5604 H 521.239 -0.171736 2.946 0
M  V30 5605 H 521.32 1.40136 2.13999 0
M  V30 5606 H 520.964 2.54905 4.39302 0
M  V30 5607 H 520.894 0.951944 5.17924 0
M  V30 5608 H 523.385 1.07616 3.62253 0
M  V30 5609 H 523.698 2.79291 7.20567 0
M  V30 5610 H 522.043 2.50526 6.48276 0
M  V30 5611 H 525.234 1.41358 4.46246 0
M  V30 5612 H 525.407 2.19622 6.09648 0
M  V30 5613 N 518.813 -1.54241 0.323641 0
M  V30 5614 C 519.776 -2.22997 -0.529602 0
M  V30 5615 C 520.776 -1.22345 -1.04347 0
M  V30 5616 O 521.966 -1.46924 -0.935889 0
M  V30 5617 C 519.098 -2.93409 -1.73562 0
M  V30 5618 H 520.291 -2.99815 0.0714518 0
M  V30 5619 H 517.844 -1.56121 0.0747258 0
M  V30 5620 H 518.579 -2.20729 -2.37591 0
M  V30 5621 H 518.364 -3.67217 -1.37456 0
M  V30 5622 H 519.854 -3.45794 -2.34128 0
M  V30 5623 N 520.291 -0.0518155 -1.57515 0
M  V30 5624 C 521.201 0.937539 -2.15052 0
M  V30 5625 C 522.217 1.34121 -1.10849 0
M  V30 5626 O 523.393 1.418 -1.4302 0
M  V30 5627 C 520.458 2.19379 -2.68466 0
M  V30 5628 C 519.519 1.84841 -3.87469 0
M  V30 5629 C 518.752 3.04477 -4.38326 0
M  V30 5630 O 518.975 4.17868 -3.88256 0
M  V30 5631 O 517.909 2.85453 -5.29906 0
M  V30 5632 H 521.735 0.478201 -2.99912 0
M  V30 5633 H 519.32 0.17012 -1.48428 0
M  V30 5634 H 521.202 2.93084 -3.02787 0
M  V30 5635 H 519.877 2.64449 -1.86677 0
M  V30 5636 H 518.784 1.08449 -3.58036 0
M  V30 5637 H 520.117 1.44569 -4.7049 0
M  V30 5638 N 521.769 1.56035 0.221574 0
M  V30 5639 C 522.702 1.87427 1.30178 0
M  V30 5640 C 523.68 0.731658 1.45209 0
M  V30 5641 O 524.864 0.980016 1.61022 0
M  V30 5642 C 521.991 2.08127 2.67209 0
M  V30 5643 C 521.037 3.30813 2.69194 0
M  V30 5644 S 521.87 4.86738 2.23263 0
M  V30 5645 C 523.026 5.10474 3.62171 0
M  V30 5646 H 523.259 2.78756 1.03355 0
M  V30 5647 H 520.792 1.48469 0.423813 0
M  V30 5648 H 522.75 2.20736 3.46101 0
M  V30 5649 H 521.411 1.17595 2.91256 0
M  V30 5650 H 520.604 3.42341 3.6989 0
M  V30 5651 H 520.206 3.1706 1.98366 0
M  V30 5652 H 522.498 4.9937 4.5786 0
M  V30 5653 H 523.441 6.12359 3.55558 0
M  V30 5654 H 523.849 4.38208 3.55857 0
M  V30 5655 N 523.247 -0.488276 1.49845 0
M  V30 5656 C 524.524 -1.24959 1.50481 0
M  V30 5657 C 524.904 -2.09735 0.239698 0
M  V30 5658 O 524.252 -2.14865 -0.777524 0
M  V30 5659 C 524.462 -2.0954 2.79095 0
M  V30 5660 C 525.81 -2.68305 3.29086 0
M  V30 5661 O 526.834 -2.19797 2.80299 0
M  V30 5662 O 525.693 -3.56643 4.14087 0
M  V30 5663 H 522.787 -0.566133 0.602845 0
M  V30 5664 H 525.333 -0.501504 1.6212 0
M  V30 5665 H 524.105 -1.46958 3.62656 0
M  V30 5666 H 523.728 -2.91517 2.70377 0
M  V30 5667 N 524.725 -1.39134 -0.740242 0
M  V30 5668 C 525.971 -1.36273 -1.50192 0
M  V30 5669 C 526.304 0.0430136 -1.94152 0
M  V30 5670 O 525.579 1.00691 -1.66408 0
M  V30 5671 C 525.862 -2.33041 -2.74525 0
M  V30 5672 C 525.715 -3.82535 -2.36617 0
M  V30 5673 C 527.034 -2.27723 -3.76604 0
M  V30 5674 H 524.153 -0.496323 -0.544823 0
M  V30 5675 H 526.795 -1.70085 -0.846815 0
M  V30 5676 H 524.945 -2.04337 -3.30422 0
M  V30 5677 H 526.617 -4.21967 -1.86391 0
M  V30 5678 H 524.86 -3.99565 -1.68909 0
M  V30 5679 H 525.531 -4.45723 -3.2563 0
M  V30 5680 H 528.007 -2.53091 -3.30279 0
M  V30 5681 H 526.883 -2.97519 -4.61274 0
M  V30 5682 H 527.144 -1.28049 -4.2315 0
M  V30 5683 N 526.204 0.969867 -1.24223 0
M  V30 5684 C 527.62 1.23809 -1.00716 0
M  V30 5685 C 527.82 1.99469 0.285358 0
M  V30 5686 O 526.876 2.31764 1.00207 0
M  V30 5687 C 528.189 2.02734 -2.2208 0
M  V30 5688 C 529.737 2.15834 -2.26681 0
M  V30 5689 C 530.212 2.98154 -3.47661 0
M  V30 5690 N 531.703 3.05737 -3.47964 0
M  V30 5691 C 532.438 3.69785 -4.38231 0
M  V30 5692 N 531.934 4.35569 -5.3875 0
M  V30 5693 N 533.727 3.66775 -4.25949 0
M  V30 5694 H 525.878 0.463294 -2.07286 0
M  V30 5695 H 528.141 0.267348 -0.909521 0
M  V30 5696 H 527.847 1.54524 -3.15935 0
M  V30 5697 H 527.721 3.0347 -2.24021 0
M  V30 5698 H 530.108 2.63248 -1.33359 0
M  V30 5699 H 530.189 1.14453 -2.28767 0
M  V30 5700 H 529.833 2.51435 -4.41297 0
M  V30 5701 H 529.763 3.99729 -3.42818 0
M  V30 5702 H 532.254 2.58941 -2.75242 0
M  V30 5703 H 532.567 4.82251 -6.03866 0
M  V30 5704 H 530.912 4.34244 -5.42639 0
M  V30 5705 H 534.103 3.14558 -3.46657 0
M  V30 5706 H 534.276 4.16407 -4.96497 0
M  V30 5707 N 527.682 1.05563 1.17022 0
M  V30 5708 C 528.63 0.653887 2.2322 0
M  V30 5709 C 529.624 -0.326642 1.66221 0
M  V30 5710 O 530.83 -0.192301 1.7897 0
M  V30 5711 H 527.205 0.193297 0.726733 0
M  V30 5712 H 529.176 1.5596 2.54399 0
M  V30 5713 C 527.925 0.0485434 3.47666 0
M  V30 5714 H 527.248 0.79413 3.91834 0
M  V30 5715 H 528.688 -0.195133 4.23551 0
M  V30 5716 C 527.147 -1.20583 3.14581 0
M  V30 5717 O 527.677 -2.29475 3.29703 0
M  V30 5718 N 525.883 -1.10493 2.68774 0
M  V30 5719 H 525.43 -0.218795 2.56669 0
M  V30 5720 H 525.388 -1.94507 2.47011 0
M  V30 5721 N 529.16 -1.33526 0.837174 0
M  V30 5722 C 530.123 -2.27551 0.274421 0
M  V30 5723 C 531.123 -1.50886 -0.555881 0
M  V30 5724 O 532.313 -1.70227 -0.369918 0
M  V30 5725 C 529.445 -3.35332 -0.613605 0
M  V30 5726 H 530.638 -2.78837 1.10408 0
M  V30 5727 H 528.191 -1.439 0.610126 0
M  V30 5728 H 528.926 -2.89285 -1.46577 0
M  V30 5729 H 528.711 -3.92095 -0.0195341 0
M  V30 5730 H 530.201 -4.05433 -1.00068 0
M  V30 5731 N 530.638 -0.59345 -1.46 0
M  V30 5732 C 531.887 -0.0808084 -2.01538 0
M  V30 5733 C 532.2 1.29112 -1.46934 0
M  V30 5734 O 533.406 1.8957 -1.94359 0
M  V30 5735 C 531.862 -0.0938311 -3.59778 0
M  V30 5736 C 531.47 -1.46474 -4.23379 0
M  V30 5737 C 533.214 0.364306 -4.22934 0
M  V30 5738 C 531.121 -1.4349 -5.73729 0
M  V30 5739 H 530.051 -0.0264407 -0.753536 0
M  V30 5740 H 532.702 -0.746689 -1.67621 0
M  V30 5741 H 531.084 0.638427 -3.9082 0
M  V30 5742 H 532.258 -2.21758 -4.03931 0
M  V30 5743 H 530.573 -1.86379 -3.7236 0
M  V30 5744 H 533.17 0.405584 -5.3316 0
M  V30 5745 H 533.513 1.38409 -3.92618 0
M  V30 5746 H 534.046 -0.31423 -3.96557 0
M  V30 5747 H 530.785 -2.43184 -6.08722 0
M  V30 5748 H 530.305 -0.724431 -5.95409 0
M  V30 5749 H 531.984 -1.15243 -6.36654 0
M  V30 5750 N 532.116 1.54067 -0.331816 0
M  V30 5751 C 533.362 2.01012 0.268667 0
M  V30 5752 C 533.695 1.2195 1.51136 0
M  V30 5753 O 532.97 0.303972 1.9211 0
M  V30 5754 C 533.253 3.55158 0.59456 0
M  V30 5755 C 533.106 4.4494 -0.659409 0
M  V30 5756 C 534.425 4.16939 1.4089 0
M  V30 5757 H 531.544 0.730698 0.0961756 0
M  V30 5758 H 534.186 1.84593 -0.450031 0
M  V30 5759 H 532.336 3.6928 1.20685 0
M  V30 5760 H 534.008 4.42675 -1.29756 0
M  V30 5761 H 532.251 4.1428 -1.28665 0
M  V30 5762 H 532.922 5.50643 -0.386804 0
M  V30 5763 H 535.398 4.06443 0.891272 0
M  V30 5764 H 534.274 5.24889 1.60569 0
M  V30 5765 H 534.535 3.70798 2.40752 0
M  V30 5766 N 533.594 0.0601682 1.57485 0
M  V30 5767 C 534.524 -0.90889 2.15085 0
M  V30 5768 C 535.505 -1.31838 1.07484 0
M  V30 5769 O 536.69 -1.3915 1.35466 0
M  V30 5770 C 533.82 -2.18059 2.7031 0
M  V30 5771 C 532.774 -1.91088 3.82974 0
M  V30 5772 C 532.1 -3.24789 4.24754 0
M  V30 5773 C 533.4 -1.22535 5.07723 0
M  V30 5774 H 535.094 -0.429093 2.96309 0
M  V30 5775 H 532.64 -0.204952 1.42534 0
M  V30 5776 H 534.593 -2.86258 3.09248 0
M  V30 5777 H 533.317 -2.6826 1.8629 0
M  V30 5778 H 531.976 -1.25297 3.44523 0
M  V30 5779 H 531.624 -3.72809 3.37672 0
M  V30 5780 H 531.324 -3.07538 5.00694 0
M  V30 5781 H 532.848 -3.94205 4.66299 0
M  V30 5782 H 534.262 -1.80783 5.4405 0
M  V30 5783 H 532.659 -1.1558 5.88864 0
M  V30 5784 H 533.729 -0.202692 4.84476 0
M  V30 5785 N 535.072 -1.5615 -0.213296 0
M  V30 5786 C 536.319 -1.79546 -0.936462 0
M  V30 5787 C 536.647 -0.630337 -1.84003 0
M  V30 5788 O 535.902 0.384883 -1.91878 0
M  V30 5789 C 536.201 -3.08772 -1.79985 0
M  V30 5790 C 535.867 -4.38532 -1.04882 0
M  V30 5791 C 534.529 -4.73787 -0.841393 0
M  V30 5792 C 536.881 -5.18609 -0.51907 0
M  V30 5793 C 534.209 -5.86627 -0.0924403 0
M  V30 5794 C 536.561 -6.32229 0.216581 0
M  V30 5795 C 535.225 -6.6608 0.435191 0
M  V30 5796 H 534.495 -0.657004 -0.342676 0
M  V30 5797 H 537.142 -1.9041 -0.204051 0
M  V30 5798 H 535.447 -2.93065 -2.60038 0
M  V30 5799 H 537.144 -3.24077 -2.36168 0
M  V30 5800 H 533.734 -4.10855 -1.22048 0
M  V30 5801 H 537.918 -4.91801 -0.666775 0
M  V30 5802 H 533.174 -6.11338 0.087081 0
M  V30 5803 H 537.348 -6.93503 0.634538 0
M  V30 5804 H 534.975 -7.5336 1.01746 0
M  V30 5805 N 536.55 0.480323 -1.50102 0
M  V30 5806 C 537.775 1.26126 -1.64642 0
M  V30 5807 C 538.2 1.85257 -0.325823 0
M  V30 5808 O 537.558 1.66854 0.709194 0
M  V30 5809 C 537.606 2.35243 -2.73301 0
M  V30 5810 O 536.71 3.39646 -2.33911 0
M  V30 5811 H 536.051 0.371463 -0.550374 0
M  V30 5812 H 538.581 0.572696 -1.96421 0
M  V30 5813 H 538.591 2.80695 -2.96098 0
M  V30 5814 H 537.266 1.91574 -3.6915 0
M  V30 5815 H 535.843 2.99969 -2.21525 0
M  V30 5816 N 538.028 1.39524 0.732853 0
M  V30 5817 C 538.958 1.41153 1.86005 0
M  V30 5818 C 539.939 0.274614 1.67869 0
M  V30 5819 O 541.124 0.480745 1.88155 0
M  V30 5820 C 538.254 1.25638 3.23778 0
M  V30 5821 C 537.208 2.36752 3.56556 0
M  V30 5822 C 536.534 2.06326 4.93289 0
M  V30 5823 C 537.834 3.79069 3.5931 0
M  V30 5824 H 539.528 2.35484 1.84899 0
M  V30 5825 H 537.074 1.13348 0.888162 0
M  V30 5826 H 539.027 1.25398 4.0231 0
M  V30 5827 H 537.751 0.277772 3.25417 0
M  V30 5828 H 536.41 2.36213 2.80355 0
M  V30 5829 H 536.058 1.06897 4.9151 0
M  V30 5830 H 535.758 2.80757 5.16187 0
M  V30 5831 H 537.282 2.07739 5.74175 0
M  V30 5832 H 538.696 3.81526 4.27914 0
M  V30 5833 H 537.093 4.52878 3.93728 0
M  V30 5834 H 538.163 4.09893 2.59068 0
M  V30 5835 N 539.506 -0.963266 1.24736 0
M  V30 5836 C 540.731 -1.74699 1.11781 0
M  V30 5837 C 541.156 -1.85267 -0.325258 0
M  V30 5838 O 540.514 -1.32681 -1.23553 0
M  V30 5839 C 540.562 -3.14322 1.76731 0
M  V30 5840 O 539.666 -3.99043 1.04109 0
M  V30 5841 H 539.007 -0.53684 0.390767 0
M  V30 5842 H 541.537 -1.20801 1.65131 0
M  V30 5843 H 541.547 -3.64824 1.82668 0
M  V30 5844 H 540.222 -3.05946 2.81726 0
M  V30 5845 H 538.799 -3.5752 1.05991 0
M  V30 5846 N 540.985 -1.06182 -1.16461 0
M  V30 5847 C 541.948 -0.675723 -2.19013 0
M  V30 5848 C 542.948 0.277963 -1.58379 0
M  V30 5849 O 544.138 0.0604962 -1.74095 0
M  V30 5850 C 541.27 0.00591459 -3.40899 0
M  V30 5851 H 542.463 -1.58353 -2.54685 0
M  V30 5852 H 540.016 -0.856908 -1.30716 0
M  V30 5853 H 540.751 0.92652 -3.10783 0
M  V30 5854 H 540.536 -0.67984 -3.86161 0
M  V30 5855 H 542.026 0.26181 -4.16778 0
M  V30 5856 N 542.463 1.3308 -0.844243 0
M  V30 5857 C 543.426 2.27403 -0.286485 0
M  V30 5858 C 544.426 1.51179 0.547872 0
M  V30 5859 O 545.616 1.70421 0.360886 0
M  V30 5860 C 542.748 3.35653 0.595813 0
M  V30 5861 H 543.941 2.78248 -1.11885 0
M  V30 5862 H 541.494 1.43574 -0.617749 0
M  V30 5863 H 542.229 2.90058 1.4504 0
M  V30 5864 H 542.014 3.921 -0.00125994 0
M  V30 5865 H 543.504 4.05958 0.979168 0
M  V30 5866 N 543.941 0.601185 1.45683 0
M  V30 5867 C 545.189 0.0936957 2.01883 0
M  V30 5868 C 545.51 -1.2779 1.47291 0
M  V30 5869 O 544.78 -1.84279 0.664691 0
M  V30 5870 H 543.36 0.0316466 0.746329 0
M  V30 5871 H 546.022 0.781137 1.78562 0
M  V30 5872 H 545.118 0.0386297 3.12076 0
M  V30 5873 N 545.419 -1.53889 0.339982 0
M  V30 5874 C 546.665 -2.01152 -0.258003 0
M  V30 5875 C 546.998 -1.22749 -1.50487 0
M  V30 5876 O 546.273 -0.314156 -1.91946 0
M  V30 5877 C 546.556 -3.55468 -0.575717 0
M  V30 5878 C 546.409 -4.44584 0.682996 0
M  V30 5879 C 547.728 -4.1768 -1.38677 0
M  V30 5880 H 544.847 -0.731198 -0.0922992 0
M  V30 5881 H 547.489 -1.84352 0.459814 0
M  V30 5882 H 545.639 -3.69914 -1.18725 0
M  V30 5883 H 547.311 -4.41981 1.32102 0
M  V30 5884 H 545.554 -4.13592 1.3086 0
M  V30 5885 H 546.225 -5.5043 0.416001 0
M  V30 5886 H 548.701 -4.0691 -0.869705 0
M  V30 5887 H 547.577 -5.25734 -1.57783 0
M  V30 5888 H 547.838 -3.72069 -2.38782 0
M  V30 5889 N 546.897 -0.0685191 -1.57451 0
M  V30 5890 C 548.125 0.610462 -1.97689 0
M  V30 5891 C 548.54 1.63346 -0.946758 0
M  V30 5892 O 547.897 1.82377 0.0669868 0
M  V30 5893 C 547.948 1.28196 -3.38006 0
M  V30 5894 O 547.669 0.299906 -4.37072 0
M  V30 5895 C 549.17 2.04907 -3.931 0
M  V30 5896 H 546.39 0.165689 -0.650222 0
M  V30 5897 H 548.934 -0.139953 -2.04021 0
M  V30 5898 H 547.089 1.98348 -3.32771 0
M  V30 5899 H 547.503 0.78126 -5.18649 0
M  V30 5900 H 548.977 2.47287 -4.93511 0
M  V30 5901 H 549.454 2.9043 -3.29465 0
M  V30 5902 H 550.06 1.39629 -4.01726 0
M  V30 5903 N 548.375 1.56261 0.205012 0
M  V30 5904 C 549.307 1.90266 1.27795 0
M  V30 5905 C 550.32 0.792397 1.42214 0
M  V30 5906 O 551.509 1.07077 1.42817 0
M  V30 5907 C 548.609 2.11074 2.65143 0
M  V30 5908 C 547.782 3.42176 2.7246 0
M  V30 5909 C 546.841 3.52216 3.90936 0
M  V30 5910 O 545.867 4.25119 3.78501 0
M  V30 5911 N 547.069 2.84573 5.05963 0
M  V30 5912 H 549.834 2.82896 0.989434 0
M  V30 5913 H 547.395 1.57008 0.394981 0
M  V30 5914 H 549.387 2.15089 3.4281 0
M  V30 5915 H 547.957 1.2499 2.86524 0
M  V30 5916 H 547.177 3.50116 1.81142 0
M  V30 5917 H 548.465 4.28509 2.74331 0
M  V30 5918 H 547.863 2.25152 5.18963 0
M  V30 5919 H 546.42 2.94228 5.81613 0
M  V30 5920 N 549.853 -0.472356 1.50355 0
M  V30 5921 C 550.763 -1.59637 1.7191 0
M  V30 5922 C 551.779 -1.63247 0.602195 0
M  V30 5923 O 552.955 -1.81139 0.880369 0
M  V30 5924 C 550.02 -2.9586 1.80742 0
M  V30 5925 C 549.081 -3.02649 3.04471 0
M  V30 5926 C 548.314 -4.32374 3.12872 0
M  V30 5927 O 548.537 -5.22807 2.28099 0
M  V30 5928 O 547.471 -4.44728 4.05587 0
M  V30 5929 H 551.297 -1.44373 2.67189 0
M  V30 5930 H 548.882 -0.651717 1.34436 0
M  V30 5931 H 550.764 -3.7677 1.88739 0
M  V30 5932 H 549.439 -3.11325 0.88647 0
M  V30 5933 H 548.346 -2.20821 3.01975 0
M  V30 5934 H 549.679 -2.92119 3.9614 0
M  V30 5935 N 551.331 -1.39911 -0.725443 0
M  V30 5936 C 552.261 -1.42138 -1.85254 0
M  V30 5937 C 553.242 -0.283513 -1.67721 0
M  V30 5938 O 554.427 -0.490717 -1.87898 0
M  V30 5939 C 551.557 -1.27354 -3.23107 0
M  V30 5940 C 550.511 -2.3864 -3.55296 0
M  V30 5941 C 549.837 -2.08939 -4.92188 0
M  V30 5942 C 551.137 -3.8097 -3.57295 0
M  V30 5943 H 552.831 -2.36461 -1.83648 0
M  V30 5944 H 550.377 -1.13817 -0.882138 0
M  V30 5945 H 552.33 -1.2753 -4.01639 0
M  V30 5946 H 551.054 -0.295025 -3.25265 0
M  V30 5947 H 549.713 -2.37696 -2.79099 0
M  V30 5948 H 549.361 -1.09502 -4.90936 0
M  V30 5949 H 549.061 -2.83491 -5.14691 0
M  V30 5950 H 550.585 -2.10781 -5.73065 0
M  V30 5951 H 551.999 -3.8379 -4.25885 0
M  V30 5952 H 550.396 -4.5496 -3.9132 0
M  V30 5953 H 551.466 -4.11261 -2.5689 0
M  V30 5954 N 552.809 0.956637 -1.25245 0
M  V30 5955 C 553.772 2.03457 -1.05537 0
M  V30 5956 C 554.772 1.60798 -0.00886317 0
M  V30 5957 O 555.962 1.72384 -0.250865 0
M  V30 5958 C 553.094 3.35543 -0.601965 0
M  V30 5959 H 554.287 2.22372 -2.01223 0
M  V30 5960 H 551.84 1.13344 -1.07623 0
M  V30 5961 H 552.575 3.22323 0.357584 0
M  V30 5962 H 552.36 3.67854 -1.35743 0
M  V30 5963 H 553.85 4.14769 -0.485454 0
M  V30 5964 N 554.287 1.06798 1.15896 0
M  V30 5965 C 555.536 0.782796 1.8589 0
M  V30 5966 C 555.849 -0.693498 1.82893 0
M  V30 5967 O 557.055 -1.09325 2.48516 0
M  V30 5968 C 555.511 1.3502 3.33613 0
M  V30 5969 C 555.119 2.8571 3.45071 0
M  V30 5970 C 556.863 1.14278 4.08829 0
M  V30 5971 C 554.77 3.35669 4.86909 0
M  V30 5972 H 553.7 0.289149 0.696354 0
M  V30 5973 H 556.351 1.28734 1.30766 0
M  V30 5974 H 554.733 0.773407 3.88374 0
M  V30 5975 H 555.907 3.49385 3.00445 0
M  V30 5976 H 554.222 3.05178 2.83294 0
M  V30 5977 H 556.819 1.49087 5.13495 0
M  V30 5978 H 557.162 0.0814575 4.1622 0
M  V30 5979 H 557.695 1.68563 3.60321 0
M  V30 5980 H 554.434 4.41302 4.84698 0
M  V30 5981 H 553.954 2.76745 5.32139 0
M  V30 5982 H 555.633 3.31296 5.55745 0
M  V30 5983 N 555.766 -1.3263 0.851289 0
M  V30 5984 C 556.991 -2.02097 0.466006 0
M  V30 5985 C 557.416 -1.63574 -0.928709 0
M  V30 5986 O 556.774 -0.834665 -1.60944 0
M  V30 5987 C 556.822 -3.55425 0.608737 0
M  V30 5988 O 555.926 -4.10827 -0.359878 0
M  V30 5989 H 555.267 -0.636911 0.187724 0
M  V30 5990 H 557.797 -1.69253 1.14955 0
M  V30 5991 H 557.807 -4.04986 0.495006 0
M  V30 5992 H 556.482 -3.82806 1.62581 0
M  V30 5993 H 555.059 -3.72349 -0.202666 0
M  V30 5994 N 557.244 -0.608902 -1.45362 0
M  V30 5995 C 558.66 -0.272659 -1.57254 0
M  V30 5996 C 558.86 1.22477 -1.60005 0
M  V30 5997 O 557.916 2.00785 -1.53106 0
M  V30 5998 C 559.229 -0.944991 -2.85465 0
M  V30 5999 C 560.777 -0.921033 -2.99142 0
M  V30 6000 C 561.252 -1.5734 -4.30126 0
M  V30 6001 N 562.743 -1.53895 -4.36887 0
M  V30 6002 C 563.478 -2.01286 -5.36909 0
M  V30 6003 N 562.974 -2.56768 -6.43461 0
M  V30 6004 N 564.767 -1.92046 -5.28275 0
M  V30 6005 H 556.918 -1.58117 -1.4182 0
M  V30 6006 H 559.181 -0.662437 -0.678146 0
M  V30 6007 H 558.887 -1.99941 -2.89338 0
M  V30 6008 H 558.761 -0.469079 -3.74272 0
M  V30 6009 H 561.148 0.124846 -2.94836 0
M  V30 6010 H 561.229 -1.43522 -2.11743 0
M  V30 6011 H 560.873 -2.61862 -4.35191 0
M  V30 6012 H 560.803 -1.03422 -5.16344 0
M  V30 6013 H 563.294 -1.13366 -3.60495 0
M  V30 6014 H 563.607 -2.9072 -7.16032 0
M  V30 6015 H 561.952 -2.60808 -6.44208 0
M  V30 6016 H 565.143 -1.48439 -4.43941 0
M  V30 6017 H 565.316 -2.29293 -6.06077 0
M  V30 6018 N 558.722 1.53707 -0.348139 0
M  V30 6019 C 560.138 1.596 0.00361134 0
M  V30 6020 C 560.338 1.36394 1.4832 0
M  V30 6021 O 559.394 1.16046 2.24253 0
M  V30 6022 C 560.707 2.97512 -0.436682 0
M  V30 6023 C 562.255 3.10568 -0.389416 0
M  V30 6024 C 562.73 4.50866 -0.805249 0
M  V30 6025 N 564.221 4.56929 -0.759616 0
M  V30 6026 C 564.956 5.63643 -1.05327 0
M  V30 6027 N 564.452 6.78189 -1.41531 0
M  V30 6028 N 566.245 5.5354 -0.977207 0
M  V30 6029 H 558.396 1.67044 -1.31187 0
M  V30 6030 H 560.659 0.782559 -0.535075 0
M  V30 6031 H 560.365 3.19575 -1.46849 0
M  V30 6032 H 560.239 3.76742 0.185744 0
M  V30 6033 H 562.626 2.88226 0.633228 0
M  V30 6034 H 562.707 2.33387 -1.04711 0
M  V30 6035 H 562.351 4.73943 -1.82593 0
M  V30 6036 H 562.281 5.26452 -0.124989 0
M  V30 6037 H 564.772 3.74675 -0.49265 0
M  V30 6038 H 565.085 7.55541 -1.62411 0
M  V30 6039 H 563.43 6.79624 -1.45381 0
M  V30 6040 H 566.621 4.62932 -0.693675 0
M  V30 6041 H 566.794 6.36614 -1.2094 0
M  V30 6042 N 560.2 0.0768682 1.57412 0
M  V30 6043 C 561.132 -0.918248 2.10002 0
M  V30 6044 C 562.145 -1.25808 1.03325 0
M  V30 6045 O 563.334 -1.21438 1.30824 0
M  V30 6046 C 560.434 -2.23263 2.54964 0
M  V30 6047 C 559.607 -2.07088 3.8527 0
M  V30 6048 C 558.666 -3.21876 4.16272 0
M  V30 6049 O 557.692 -2.96643 4.8579 0
M  V30 6050 N 558.894 -4.4712 3.70221 0
M  V30 6051 H 561.659 -0.469209 2.96004 0
M  V30 6052 H 559.22 -0.108725 1.61535 0
M  V30 6053 H 561.212 -2.9897 2.72762 0
M  V30 6054 H 559.782 -2.59649 1.74072 0
M  V30 6055 H 559.002 -1.15818 3.76802 0
M  V30 6056 H 560.29 -1.93537 4.70554 0
M  V30 6057 H 559.688 -4.70506 3.1407 0
M  V30 6058 H 558.245 -5.19837 3.93209 0
M  V30 6059 N 561.678 -1.56367 -0.196722 0
M  V30 6060 C 563.094 -1.49916 -0.54749 0
M  V30 6061 C 563.294 -0.77659 -1.85934 0
M  V30 6062 O 562.35 -0.32644 -2.50381 0
M  V30 6063 C 563.663 -2.94577 -0.603734 0
M  V30 6064 C 565.211 -3.05239 -0.692677 0
M  V30 6065 C 565.686 -4.51308 -0.780046 0
M  V30 6066 N 567.177 -4.55453 -0.843616 0
M  V30 6067 C 567.912 -5.65786 -0.931358 0
M  V30 6068 N 567.408 -6.85812 -0.981503 0
M  V30 6069 N 569.201 -5.53695 -0.968421 0
M  V30 6070 H 561.352 -2.01761 0.663803 0
M  V30 6071 H 563.615 -0.918094 0.236238 0
M  V30 6072 H 563.321 -3.50494 0.29105 0
M  V30 6073 H 563.195 -3.47841 -1.45898 0
M  V30 6074 H 565.582 -2.49372 -1.57789 0
M  V30 6075 H 565.663 -2.55103 0.188736 0
M  V30 6076 H 565.307 -5.078 0.100811 0
M  V30 6077 H 565.237 -4.99176 -1.67724 0
M  V30 6078 H 567.728 -3.69025 -0.814176 0
M  V30 6079 H 568.041 -7.65648 -1.04892 0
M  V30 6080 H 566.386 -6.88474 -0.950208 0
M  V30 6081 H 569.577 -4.58848 -0.926072 0
M  V30 6082 H 569.75 -6.39708 -1.03334 0
M  V30 6083 N 563.156 0.464375 -1.50603 0
M  V30 6084 C 564.572 0.798684 -1.38178 0
M  V30 6085 C 564.772 1.96568 -0.44308 0
M  V30 6086 O 563.828 2.52252 0.111814 0
M  V30 6087 C 565.141 1.10444 -2.79683 0
M  V30 6088 C 566.689 1.2105 -2.88645 0
M  V30 6089 C 567.164 1.54934 -4.30998 0
M  V30 6090 N 568.655 1.61913 -4.3398 0
M  V30 6091 C 569.39 1.8965 -5.41129 0
M  V30 6092 N 568.886 2.15361 -6.58477 0
M  V30 6093 N 570.679 1.91207 -5.28579 0
M  V30 6094 H 562.83 -0.304603 -2.10204 0
M  V30 6095 H 565.093 -0.0737804 -0.945125 0
M  V30 6096 H 564.799 0.319934 -3.50242 0
M  V30 6097 H 564.673 2.03896 -3.17342 0
M  V30 6098 H 567.06 1.98567 -2.18301 0
M  V30 6099 H 567.141 0.255613 -2.5452 0
M  V30 6100 H 566.785 0.779549 -5.01882 0
M  V30 6101 H 566.715 2.51584 -4.62615 0
M  V30 6102 H 569.206 1.44055 -3.49366 0
M  V30 6103 H 569.519 2.35818 -7.35941 0
M  V30 6104 H 567.864 2.1274 -6.6164 0
M  V30 6105 H 571.055 1.70622 -4.35897 0
M  V30 6106 H 571.228 2.12488 -6.12171 0
M  V30 6107 N 564.634 1.40294 0.718013 0
M  V30 6108 C 565.88 1.38645 1.48005 0
M  V30 6109 C 566.213 -0.0121202 1.94196 0
M  V30 6110 O 565.488 -0.980309 1.67989 0
M  V30 6111 C 565.771 2.37379 2.70782 0
M  V30 6112 C 565.624 3.8625 2.30501 0
M  V30 6113 C 566.943 2.33685 3.72933 0
M  V30 6114 H 564.062 0.504928 0.536858 0
M  V30 6115 H 566.704 1.71411 0.819649 0
M  V30 6116 H 564.854 2.09568 3.27129 0
M  V30 6117 H 566.526 4.24879 1.79655 0
M  V30 6118 H 564.769 4.02202 1.6253 0
M  V30 6119 H 565.44 4.50847 3.18498 0
M  V30 6120 H 567.916 2.58314 3.2621 0
M  V30 6121 H 566.792 3.0482 4.56482 0
M  V30 6122 H 567.053 1.34765 4.21059 0
M  V30 6123 N 566.112 -0.949982 1.2575 0
M  V30 6124 C 567.523 -1.50989 1.09815 0
M  V30 6125 C 567.874 -1.93497 -0.324556 0
M  V30 6126 O 566.999 -1.79068 -1.21506 0
M  V30 6127 C 567.594 -2.74394 1.98729 0
M  V30 6128 C 566.153 -3.26682 1.86965 0
M  V30 6129 C 565.3 -1.99498 1.92603 0
M  V30 6130 H 568.251 -0.766387 1.38968 0
M  V30 6131 H 568.272 -3.48383 1.53001 0
M  V30 6132 H 567.784 -2.43425 3.02268 0
M  V30 6133 H 565.885 -3.62461 0.863279 0
M  V30 6134 H 565.998 -3.94383 2.72027 0
M  V30 6135 H 564.362 -2.15005 1.36546 0
M  V30 6136 H 565.145 -1.70871 2.97755 0
M  V30 6137 N 567.59 -1.07411 -1.15328 0
M  V30 6138 C 568.838 -0.796073 -1.85761 0
M  V30 6139 C 569.159 0.679864 -1.82764 0
M  V30 6140 O 568.429 1.49242 -1.269 0
M  V30 6141 H 567.009 -0.291495 -0.687779 0
M  V30 6142 H 569.671 -1.35799 -1.39802 0
M  V30 6143 H 568.767 -1.13114 -2.90881 0
M  V30 6144 N 569.068 1.32177 -0.85831 0
M  V30 6145 C 570.016 2.30729 -0.294442 0
M  V30 6146 C 571.01 1.59009 0.584165 0
M  V30 6147 O 572.216 1.73713 0.471562 0
M  V30 6148 H 568.591 0.748097 -0.0765171 0
M  V30 6149 H 570.562 2.75774 -1.1398 0
M  V30 6150 C 569.311 3.44098 0.499208 0
M  V30 6151 H 568.634 3.99449 -0.167579 0
M  V30 6152 H 570.074 4.15202 0.859273 0
M  V30 6153 C 568.533 2.91684 1.68588 0
M  V30 6154 O 569.063 2.89481 2.78503 0
M  V30 6155 N 567.269 2.48036 1.51415 0
M  V30 6156 H 566.816 2.50027 0.620006 0
M  V30 6157 H 566.774 2.13322 2.30957 0
M  V30 6158 N 570.547 0.616602 1.45037 0
M  V30 6159 C 571.477 -0.0840787 2.33349 0
M  V30 6160 C 572.458 -0.849641 1.4736 0
M  V30 6161 O 573.643 -0.818407 1.76113 0
M  V30 6162 C 570.773 -1.07604 3.3021 0
M  V30 6163 C 569.727 -0.423096 4.25904 0
M  V30 6164 C 569.053 -1.52394 5.12523 0
M  V30 6165 C 570.353 0.661457 5.18095 0
M  V30 6166 H 572.047 0.653333 2.92185 0
M  V30 6167 H 569.593 0.315634 1.40498 0
M  V30 6168 H 571.546 -1.57485 3.90866 0
M  V30 6169 H 570.27 -1.84416 2.69552 0
M  V30 6170 H 568.929 0.05493 3.66559 0
M  V30 6171 H 568.577 -2.28257 4.48227 0
M  V30 6172 H 568.277 -1.09251 5.77354 0
M  V30 6173 H 569.801 -2.02485 5.76049 0
M  V30 6174 H 571.215 0.246353 5.7277 0
M  V30 6175 H 569.612 1.01517 5.91451 0
M  V30 6176 H 570.682 1.53446 4.59981 0
M  V30 6177 N 572.025 -1.5352 0.356285 0
M  V30 6178 C 572.958 -2.2177 -0.537913 0
M  V30 6179 C 573.936 -1.20626 -1.09033 0
M  V30 6180 O 575.12 -1.49494 -1.1482 0
M  V30 6181 C 572.247 -2.90513 -1.74126 0
M  V30 6182 C 571.293 -4.05652 -1.31715 0
M  V30 6183 S 572.126 -5.34505 -0.326236 0
M  V30 6184 C 573.282 -6.06757 -1.53612 0
M  V30 6185 H 573.515 -2.97271 0.0417411 0
M  V30 6186 H 571.048 -1.53761 0.140372 0
M  V30 6187 H 573.006 -3.30735 -2.43155 0
M  V30 6188 H 571.667 -2.14754 -2.29215 0
M  V30 6189 H 570.86 -4.52733 -2.21471 0
M  V30 6190 H 570.462 -3.67272 -0.706183 0
M  V30 6191 H 572.754 -6.30924 -2.46863 0
M  V30 6192 H 573.697 -6.99395 -1.10687 0
M  V30 6193 H 574.105 -5.3708 -1.73796 0
M  V30 6194 N 573.503 -0.0852151 -1.57369 0
M  V30 6195 C 574.751 0.579658 -1.93609 0
M  V30 6196 C 575.072 1.69332 -0.967043 0
M  V30 6197 O 574.342 1.95892 -0.0174215 0
M  V30 6198 H 572.922 0.217113 -0.714752 0
M  V30 6199 H 575.584 -0.146226 -1.94351 0
M  V30 6200 H 574.68 0.996276 -2.95771 0
M  V30 6201 N 574.981 1.5647 0.188427 0
M  V30 6202 C 576.206 1.85486 0.927891 0
M  V30 6203 C 576.631 0.669575 1.75779 0
M  V30 6204 O 575.989 -0.381573 1.77239 0
M  V30 6205 C 576.037 3.12784 1.7944 0
M  V30 6206 O 575.141 2.93805 2.894 0
M  V30 6207 H 574.482 0.610585 0.260925 0
M  V30 6208 H 577.012 2.037 0.191729 0
M  V30 6209 H 577.022 3.43749 2.19774 0
M  V30 6210 H 575.697 3.98671 1.18468 0
M  V30 6211 H 574.274 2.74153 2.52774 0
M  V30 6212 N 576.459 -0.456382 1.50847 0
M  V30 6213 C 577.689 -1.22848 1.66108 0
M  V30 6214 C 578.097 -1.85936 0.349897 0
M  V30 6215 O 577.44 -1.70664 -0.679665 0
M  V30 6216 C 577.502 -2.36722 2.70561 0
M  V30 6217 C 577.166 -1.94154 4.13707 0
M  V30 6218 C 578.163 -1.4557 4.99105 0
M  V30 6219 C 575.848 -2.02426 4.59705 0
M  V30 6220 C 577.842 -1.0582 6.28555 0
M  V30 6221 C 575.529 -1.62287 5.89157 0
M  V30 6222 C 576.527 -1.14064 6.73408 0
M  V30 6223 O 576.215 -0.744873 8.00442 0
M  V30 6224 H 575.947 -0.377105 0.561042 0
M  V30 6225 H 578.501 -0.549431 1.97915 0
M  V30 6226 H 576.731 -3.07844 2.34027 0
M  V30 6227 H 578.42 -2.98646 2.74892 0
M  V30 6228 H 579.186 -1.38589 4.64777 0
M  V30 6229 H 575.065 -2.38908 3.94264 0
M  V30 6230 H 578.609 -0.6811 6.94267 0
M  V30 6231 H 574.506 -1.68932 6.23003 0
M  V30 6232 H 575.274 -0.87242 8.13837 0
M  V30 6233 N 577.937 -1.40673 -0.710563 0
M  V30 6234 C 579.353 -1.22813 -1.01928 0
M  V30 6235 C 579.553 -0.10687 -2.01216 0
M  V30 6236 O 578.609 0.533614 -2.46797 0
M  V30 6237 C 579.922 -2.57178 -1.5582 0
M  V30 6238 C 581.47 -2.64233 -1.67779 0
M  V30 6239 C 581.945 -3.98879 -2.25076 0
M  V30 6240 N 583.436 -4.00647 -2.32456 0
M  V30 6241 C 584.171 -5.01621 -2.77784 0
M  V30 6242 N 583.667 -6.12989 -3.22826 0
M  V30 6243 N 585.46 -4.88988 -2.77213 0
M  V30 6244 H 577.611 -2.12335 -0.05253 0
M  V30 6245 H 579.874 -0.9441 -0.085898 0
M  V30 6246 H 579.58 -3.39903 -0.903249 0
M  V30 6247 H 579.454 -2.78618 -2.54267 0
M  V30 6248 H 581.841 -1.81876 -2.3239 0
M  V30 6249 H 581.922 -2.46619 -0.679178 0
M  V30 6250 H 581.566 -4.81678 -1.61086 0
M  V30 6251 H 581.496 -4.13826 -3.25661 0
M  V30 6252 H 583.987 -3.20231 -2.0065 0
M  V30 6253 H 584.3 -6.85921 -3.55995 0
M  V30 6254 H 582.645 -6.16547 -3.20773 0
M  V30 6255 H 585.836 -4.01075 -2.41363 0
M  V30 6256 H 586.009 -5.67822 -3.12221 0
M  V30 6257 N 579.415 0.9433 -1.26252 0
M  V30 6258 C 580.64 1.72898 -1.14547 0
M  V30 6259 C 581.065 1.85761 0.295743 0
M  V30 6260 O 580.423 1.3463 1.21427 0
M  V30 6261 C 580.471 3.11471 -1.8171 0
M  V30 6262 O 579.575 3.97336 -1.10445 0
M  V30 6263 H 578.916 0.530555 -0.399259 0
M  V30 6264 H 581.446 1.18159 -1.67032 0
M  V30 6265 H 581.456 3.61872 -1.88449 0
M  V30 6266 H 580.131 3.01425 -2.86558 0
M  V30 6267 H 578.708 3.55788 -1.11666 0
M  V30 6268 N 580.893 1.08022 1.14757 0
M  V30 6269 C 582.139 0.808705 1.85978 0
M  V30 6270 C 582.472 -0.663764 1.82504 0
M  V30 6271 O 581.747 -1.48765 1.25296 0
M  V30 6272 C 582.03 1.32623 3.34788 0
M  V30 6273 C 581.883 2.86375 3.46856 0
M  V30 6274 C 583.202 0.948291 4.29762 0
M  V30 6275 H 580.321 0.295244 0.675278 0
M  V30 6276 H 582.963 1.33917 1.34783 0
M  V30 6277 H 581.113 0.875002 3.78518 0
M  V30 6278 H 582.785 3.39839 3.11941 0
M  V30 6279 H 581.028 3.24232 2.88194 0
M  V30 6280 H 581.699 3.17658 4.51439 0
M  V30 6281 H 584.175 1.33722 3.94028 0
M  V30 6282 H 583.051 1.33765 5.32352 0
M  V30 6283 H 583.312 -0.145094 4.41862 0
M  V30 6284 N 582.371 -1.3172 0.865308 0
M  V30 6285 C 583.619 -1.96487 0.472995 0
M  V30 6286 C 583.94 -1.68761 -0.976975 0
M  V30 6287 O 583.21 -1.00051 -1.68424 0
M  V30 6288 H 581.79 -0.726947 0.171922 0
M  V30 6289 H 584.452 -1.60612 1.10407 0
M  V30 6290 H 583.548 -3.0574 0.62687 0
M  V30 6291 N 583.85 -0.624285 -1.44708 0
M  V30 6292 C 585.096 -0.126237 -2.02407 0
M  V30 6293 C 585.428 1.24618 -1.48943 0
M  V30 6294 O 584.704 1.82569 -0.670742 0
M  V30 6295 C 584.986 -0.105449 -3.59946 0
M  V30 6296 C 584.84 -1.50972 -4.23707 0
M  V30 6297 C 586.159 0.573629 -4.36346 0
M  V30 6298 H 583.278 -0.0473472 -0.735478 0
M  V30 6299 H 585.92 -0.799452 -1.72362 0
M  V30 6300 H 584.07 0.46783 -3.85673 0
M  V30 6301 H 585.742 -2.13136 -4.0911 0
M  V30 6302 H 583.985 -2.0656 -3.81465 0
M  V30 6303 H 584.656 -1.44727 -5.32689 0
M  V30 6304 H 587.132 0.0861787 -4.16011 0
M  V30 6305 H 586.008 0.557338 -5.46063 0
M  V30 6306 H 586.269 1.64276 -4.10446 0
M  V30 6307 N 585.328 1.53329 -0.364422 0
M  V30 6308 C 586.238 2.29414 0.490552 0
M  V30 6309 C 587.254 1.35335 1.09363 0
M  V30 6310 O 588.43 1.68391 1.10483 0
M  V30 6311 C 585.495 3.06772 1.61529 0
M  V30 6312 C 584.556 4.16516 1.03986 0
M  V30 6313 C 583.789 4.90176 2.111 0
M  V30 6314 O 584.012 4.63687 3.32191 0
M  V30 6315 O 582.946 5.76134 1.74222 0
M  V30 6316 H 586.772 3.03428 -0.12856 0
M  V30 6317 H 584.357 1.48843 -0.128837 0
M  V30 6318 H 586.239 3.55082 2.26924 0
M  V30 6319 H 584.914 2.35596 2.21983 0
M  V30 6320 H 583.821 3.7246 0.349856 0
M  V30 6321 H 585.154 4.89855 0.4799 0
M  V30 6322 N 586.806 0.0935595 1.57322 0
M  V30 6323 C 588.034 -0.578934 1.98635 0
M  V30 6324 C 588.449 -1.61819 0.972626 0
M  V30 6325 O 587.806 -1.82461 -0.0379638 0
M  V30 6326 C 587.857 -1.22802 3.40003 0
M  V30 6327 O 587.578 -0.230334 4.37494 0
M  V30 6328 C 589.079 -1.98627 3.96311 0
M  V30 6329 H 586.299 -0.155324 0.652775 0
M  V30 6330 H 588.843 0.172393 2.03772 0
M  V30 6331 H 586.998 -1.93029 3.35885 0
M  V30 6332 H 587.412 -0.698649 5.19826 0
M  V30 6333 H 588.886 -2.39405 4.97382 0
M  V30 6334 H 589.363 -2.85151 3.34044 0
M  V30 6335 H 589.969 -1.3322 4.03897 0
M  V30 6336 N 588.284 -1.56567 -0.180126 0
M  V30 6337 C 589.532 -1.81133 -0.896392 0
M  V30 6338 C 589.853 -0.669114 -1.83161 0
M  V30 6339 O 589.123 0.311616 -1.93406 0
M  V30 6340 H 587.703 -0.668172 -0.333999 0
M  V30 6341 H 590.365 -1.94048 -0.182051 0
M  V30 6342 H 589.461 -2.74854 -1.47857 0
M  V30 6343 N 589.762 0.448376 -1.51087 0
M  V30 6344 C 590.672 1.56882 -1.74428 0
M  V30 6345 C 591.688 1.62268 -0.62809 0
M  V30 6346 O 592.864 1.79716 -0.909075 0
M  V30 6347 C 589.929 2.92947 -1.85426 0
M  V30 6348 C 588.99 2.97766 -3.09247 0
M  V30 6349 C 588.223 4.27341 -3.19711 0
M  V30 6350 O 588.446 5.19112 -2.36387 0
M  V30 6351 O 587.38 4.38219 -4.12611 0
M  V30 6352 H 591.206 1.40104 -2.69452 0
M  V30 6353 H 588.791 0.630247 -1.35456 0
M  V30 6354 H 590.673 3.73719 -1.94709 0
M  V30 6355 H 589.348 3.09876 -0.935887 0
M  V30 6356 H 588.255 2.15989 -3.0545 0
M  V30 6357 H 589.588 2.8578 -4.00738 0
M  V30 6358 N 591.24 1.41047 0.703093 0
M  V30 6359 C 592.468 1.4334 1.49202 0
M  V30 6360 C 592.883 0.0365596 1.88765 0
M  V30 6361 O 592.24 -0.942419 1.56284 0
M  V30 6362 C 592.291 2.33538 2.75939 0
M  V30 6363 O 592.012 3.67786 2.38045 0
M  V30 6364 C 593.513 2.44555 3.6974 0
M  V30 6365 H 590.733 0.488472 0.460039 0
M  V30 6366 H 593.277 1.85245 0.86629 0
M  V30 6367 H 591.432 1.94962 3.34766 0
M  V30 6368 H 591.846 4.15816 3.19683 0
M  V30 6369 H 593.32 3.11849 4.55471 0
M  V30 6370 H 593.797 1.47447 4.1371 0
M  V30 6371 H 594.403 2.83735 3.16819 0
M  V30 6372 N 592.718 -0.936591 1.26751 0
M  V30 6373 C 593.665 -2.03597 1.08706 0
M  V30 6374 C 594.635 -1.66097 -0.00926542 0
M  V30 6375 O 595.82 -1.90199 0.151377 0
M  V30 6376 C 592.96 -3.3727 0.73094 0
M  V30 6377 C 592.073 -3.87778 1.90399 0
M  V30 6378 C 591.208 -5.09859 1.49056 0
M  V30 6379 C 590.247 -5.5264 2.63164 0
M  V30 6380 N 589.384 -6.65921 2.22471 0
M  V30 6381 H 594.224 -2.18364 2.02784 0
M  V30 6382 H 591.761 -1.06985 1.00958 0
M  V30 6383 H 593.719 -4.14128 0.505328 0
M  V30 6384 H 592.349 -3.22337 -0.172868 0
M  V30 6385 H 591.401 -3.07279 2.2424 0
M  V30 6386 H 592.713 -4.15464 2.76028 0
M  V30 6387 H 591.867 -5.9419 1.22567 0
M  V30 6388 H 590.606 -4.8393 0.60524 0
M  V30 6389 H 589.611 -4.66863 2.90377 0
M  V30 6390 H 590.836 -5.80568 3.52303 0
M  V30 6391 H 588.782 -6.41667 1.36379 0
M  V30 6392 H 588.699 -6.93216 3.01641 0
M  V30 6393 H 589.967 -7.53616 1.99205 0
M  V30 6394 N 594.196 -1.08629 -1.14182 0
M  V30 6395 C 595.143 -0.718299 -2.19338 0
M  V30 6396 C 596.113 0.296587 -1.63431 0
M  V30 6397 O 597.298 0.180079 -1.89948 0
M  V30 6398 C 594.438 -0.136203 -3.44831 0
M  V30 6399 C 593.551 -1.20414 -4.14879 0
M  V30 6400 C 592.686 -0.585666 -5.27962 0
M  V30 6401 C 591.725 -1.63548 -5.89846 0
M  V30 6402 N 590.862 -1.03864 -6.94375 0
M  V30 6403 H 595.702 -1.61932 -2.50164 0
M  V30 6404 H 593.239 -0.80919 -1.22844 0
M  V30 6405 H 595.197 0.219021 -4.16625 0
M  V30 6406 H 593.827 0.728121 -3.14481 0
M  V30 6407 H 592.879 -1.67676 -3.41451 0
M  V30 6408 H 594.191 -1.99959 -4.56966 0
M  V30 6409 H 593.345 -0.178818 -6.06436 0
M  V30 6410 H 592.084 0.24142 -4.87102 0
M  V30 6411 H 591.089 -2.05197 -5.10073 0
M  V30 6412 H 592.314 -2.46509 -6.3278 0
M  V30 6413 H 590.26 -0.232687 -6.55587 0
M  V30 6414 H 590.177 -1.77116 -7.3496 0
M  V30 6415 H 591.445 -0.657724 -7.7672 0
M  V30 6416 N 595.674 1.31259 -0.872281 0
M  V30 6417 C 596.584 2.32221 -0.333255 0
M  V30 6418 C 597.6 1.6481 0.558013 0
M  V30 6419 O 598.776 1.96212 0.454175 0
M  V30 6420 C 595.841 3.43708 0.454479 0
M  V30 6421 C 594.902 4.26774 -0.465024 0
M  V30 6422 C 594.135 5.32937 0.28521 0
M  V30 6423 O 594.358 5.49968 1.513 0
M  V30 6424 O 593.292 6.00834 -0.358126 0
M  V30 6425 H 597.118 2.80252 -1.17016 0
M  V30 6426 H 594.703 1.352 -0.635724 0
M  V30 6427 H 596.585 4.11656 0.900963 0
M  V30 6428 H 595.26 2.97836 1.26789 0
M  V30 6429 H 594.167 3.61571 -0.960055 0
M  V30 6430 H 595.5 4.76217 -1.2441 0
M  V30 6431 N 597.152 0.631951 1.44375 0
M  V30 6432 C 598.4 0.136497 2.01639 0
M  V30 6433 C 598.721 -1.24637 1.49969 0
M  V30 6434 O 597.991 -1.82827 0.70363 0
M  V30 6435 H 596.571 0.0474703 0.74549 0
M  V30 6436 H 599.233 0.818837 1.76865 0
M  V30 6437 H 598.329 0.104817 3.11924 0
M  V30 6438 N 598.631 -1.53133 0.372548 0
M  V30 6439 C 599.594 -2.24569 -0.458389 0
M  V30 6440 C 600.594 -1.25603 -1.00402 0
M  V30 6441 O 601.784 -1.49827 -0.888672 0
M  V30 6442 C 598.916 -2.98783 -1.6414 0
M  V30 6443 H 600.109 -2.99436 0.166799 0
M  V30 6444 H 597.662 -1.55805 0.124357 0
M  V30 6445 H 598.397 -2.28176 -2.30448 0
M  V30 6446 H 598.182 -3.71404 -1.25704 0
M  V30 6447 H 599.672 -3.53068 -2.23008 0
M  V30 6448 N 600.109 -0.101901 -1.5727 0
M  V30 6449 C 601.072 0.840129 -2.13247 0
M  V30 6450 C 602.072 1.20625 -1.06331 0
M  V30 6451 O 603.262 1.13456 -1.32186 0
M  V30 6452 C 600.394 2.13372 -2.65867 0
M  V30 6453 H 601.587 0.353945 -2.97804 0
M  V30 6454 H 599.14 0.147167 -1.55606 0
M  V30 6455 H 599.875 2.66461 -1.84849 0
M  V30 6456 H 599.66 1.88085 -3.44044 0
M  V30 6457 H 601.15 2.80748 -3.09145 0
M  V30 6458 N 601.587 1.56661 0.17182 0
M  V30 6459 C 603.003 1.50768 0.52357 0
M  V30 6460 C 603.203 0.806072 1.84675 0
M  V30 6461 O 602.259 0.366233 2.4983 0
M  V30 6462 C 603.572 2.955 0.556793 0
M  V30 6463 C 605.12 3.06303 0.644029 0
M  V30 6464 C 605.595 4.52492 0.708148 0
M  V30 6465 N 607.086 4.56737 0.771051 0
M  V30 6466 C 607.821 5.67196 0.841229 0
M  V30 6467 N 607.317 6.87287 0.872272 0
M  V30 6468 N 609.11 5.55165 0.88021 0
M  V30 6469 H 601.261 2.00679 -0.695817 0
M  V30 6470 H 603.524 0.914219 -0.250814 0
M  V30 6471 H 603.23 3.49986 -0.346774 0
M  V30 6472 H 603.104 3.50119 1.40346 0
M  V30 6473 H 605.491 2.51851 1.53802 0
M  V30 6474 H 605.572 2.5477 -0.229297 0
M  V30 6475 H 605.216 5.07575 -0.181585 0
M  V30 6476 H 605.146 5.01781 1.59761 0
M  V30 6477 H 607.637 3.70274 0.755364 0
M  V30 6478 H 607.95 7.6722 0.92698 0
M  V30 6479 H 606.295 6.89898 0.840557 0
M  V30 6480 H 609.486 4.60263 0.852956 0
M  V30 6481 H 609.659 6.41271 0.931439 0
M  V30 6482 N 603.065 -0.440357 1.51323 0
M  V30 6483 C 604.29 -1.21716 1.67928 0
M  V30 6484 C 604.715 -1.84328 0.374826 0
M  V30 6485 O 604.073 -1.68675 -0.664706 0
M  V30 6486 C 604.121 -2.27914 2.79442 0
M  V30 6487 O 603.225 -3.33325 2.42834 0
M  V30 6488 H 602.566 -0.35674 0.560029 0
M  V30 6489 H 605.096 -0.520417 1.97871 0
M  V30 6490 H 605.106 -2.72746 3.03436 0
M  V30 6491 H 603.781 -1.8172 3.741 0
M  V30 6492 H 602.358 -2.9399 2.294 0
M  V30 6493 N 604.543 -1.41418 -0.695603 0
M  V30 6494 C 605.791 -1.40496 -1.45277 0
M  V30 6495 C 606.112 -0.0149538 -1.94994 0
M  V30 6496 O 605.382 0.9432 -1.71699 0
M  V30 6497 H 603.962 -0.517147 -0.539044 0
M  V30 6498 H 606.624 -1.76656 -0.823321 0
M  V30 6499 H 605.72 -2.09214 -2.31595 0
M  V30 6500 N 606.021 0.929856 -1.27246 0
M  V30 6501 C 607.269 1.674 -1.13233 0
M  V30 6502 C 607.59 1.92311 0.322744 0
M  V30 6503 O 606.86 1.52784 1.22612 0
M  V30 6504 H 605.44 0.620411 -0.416052 0
M  V30 6505 H 608.102 1.11663 -1.59741 0
M  V30 6506 H 607.198 2.64308 -1.65975 0
M  V30 6507 N 607.499 1.09233 1.13605 0
M  V30 6508 C 608.431 0.687794 2.18637 0
M  V30 6509 C 609.444 -0.26936 1.60556 0
M  V30 6510 O 610.633 -0.0557162 1.78413 0
M  V30 6511 C 607.733 -0.00751901 3.38899 0
M  V30 6512 C 606.906 0.97067 4.26494 0
M  V30 6513 C 605.965 0.309129 5.25291 0
M  V30 6514 O 604.991 0.956149 5.61112 0
M  V30 6515 N 606.193 -0.937555 5.72879 0
M  V30 6516 H 608.958 1.59141 2.53957 0
M  V30 6517 H 606.519 0.979515 1.28907 0
M  V30 6518 H 608.511 -0.461238 4.02063 0
M  V30 6519 H 607.081 -0.813353 3.01833 0
M  V30 6520 H 606.301 1.603 3.60135 0
M  V30 6521 H 607.589 1.63323 4.81875 0
M  V30 6522 H 606.987 -1.48281 5.4592 0
M  V30 6523 H 605.544 -1.33463 6.3799 0
M  V30 6524 N 608.977 -1.30795 0.87923 0
M  V30 6525 C 610.225 -1.95974 0.493809 0
M  V30 6526 C 610.546 -1.69787 -0.959021 0
M  V30 6527 O 609.816 -1.01832 -1.67353 0
M  V30 6528 H 608.396 -0.725083 0.179622 0
M  V30 6529 H 611.058 -1.59432 1.12105 0
M  V30 6530 H 610.154 -3.05058 0.659263 0
M  V30 6531 N 610.455 -0.639598 -1.44038 0
M  V30 6532 C 611.703 -0.147188 -2.01563 0
M  V30 6533 C 612.024 1.2384 -1.50628 0
M  V30 6534 O 611.294 1.82452 -0.713316 0
M  V30 6535 H 609.874 -0.0514231 -0.745228 0
M  V30 6536 H 612.536 -0.828205 -1.76428 0
M  V30 6537 H 611.632 -0.121358 -3.11864 0
M  V30 6538 N 611.933 1.52934 -0.380664 0
M  V30 6539 C 613.182 2.00651 0.205477 0
M  V30 6540 C 613.495 1.27164 1.48623 0
M  V30 6541 O 614.701 1.65547 2.15189 0
M  V30 6542 C 613.157 3.57479 0.416726 0
M  V30 6543 C 612.765 4.39857 -0.850268 0
M  V30 6544 C 614.509 4.13509 0.959702 0
M  V30 6545 C 612.416 5.88269 -0.607773 0
M  V30 6546 H 611.346 0.749684 0.0805614 0
M  V30 6547 H 613.997 1.76508 -0.501732 0
M  V30 6548 H 612.379 3.77836 1.18557 0
M  V30 6549 H 613.553 4.31269 -1.62307 0
M  V30 6550 H 611.868 3.95005 -1.31756 0
M  V30 6551 H 614.465 5.22039 1.15669 0
M  V30 6552 H 614.808 3.69054 1.92626 0
M  V30 6553 H 615.341 3.9701 0.250645 0
M  V30 6554 H 612.08 6.3703 -1.54509 0
M  V30 6555 H 611.6 5.99667 0.126247 0
M  V30 6556 H 613.279 6.46558 -0.239014 0
M  V30 6557 N 613.412 0.11024 1.57214 0
M  V30 6558 C 614.828 -0.24638 1.57687 0
M  V30 6559 C 615.028 -1.67344 1.12241 0
M  V30 6560 O 614.084 -2.39298 0.805783 0
M  V30 6561 C 615.397 -0.0210288 3.00693 0
M  V30 6562 C 616.945 -0.0876077 3.12877 0
M  V30 6563 C 617.42 0.10994 4.57868 0
M  V30 6564 N 618.911 0.0556135 4.63167 0
M  V30 6565 C 619.646 0.183495 5.73106 0
M  V30 6566 N 619.142 0.367058 6.91827 0
M  V30 6567 N 620.935 0.123689 5.61964 0
M  V30 6568 H 613.086 1.04246 1.85058 0
M  V30 6569 H 615.349 0.40979 0.854854 0
M  V30 6570 H 615.055 0.965203 3.38196 0
M  V30 6571 H 614.929 -0.756748 3.69531 0
M  V30 6572 H 617.316 -1.06436 2.75237 0
M  V30 6573 H 617.397 0.67985 2.466 0
M  V30 6574 H 617.041 1.08362 4.96206 0
M  V30 6575 H 616.971 -0.677397 5.22225 0
M  V30 6576 H 619.462 -0.0831062 3.77809 0
M  V30 6577 H 619.775 0.455739 7.71455 0
M  V30 6578 H 618.12 0.40292 6.93831 0
M  V30 6579 H 621.311 -0.0186928 4.68096 0
M  V30 6580 H 621.484 0.226797 6.47603 0
M  V30 6581 N 614.89 -1.56749 -0.16351 0
M  V30 6582 C 615.853 -1.96121 -1.18613 0
M  V30 6583 C 616.853 -0.845765 -1.36761 0
M  V30 6584 O 618.043 -1.11268 -1.34033 0
M  V30 6585 C 615.175 -2.26282 -2.54969 0
M  V30 6586 H 616.368 -2.87639 -0.848764 0
M  V30 6587 H 613.921 -1.50928 -0.406251 0
M  V30 6588 H 614.656 -1.37504 -2.93706 0
M  V30 6589 H 614.441 -3.07595 -2.43162 0
M  V30 6590 H 615.931 -2.57638 -3.28653 0
M  V30 6591 N 616.368 0.432326 -1.51554 0
M  V30 6592 C 617.784 0.769195 -1.39841 0
M  V30 6593 C 617.984 1.95584 -0.484675 0
M  V30 6594 O 617.04 2.52433 0.0582829 0
M  V30 6595 C 618.353 1.04487 -2.81963 0
M  V30 6596 C 619.901 1.149 -2.91148 0
M  V30 6597 C 620.376 1.45758 -4.34187 0
M  V30 6598 N 621.867 1.52671 -4.37317 0
M  V30 6599 C 622.602 1.78129 -5.4503 0
M  V30 6600 N 622.098 2.01345 -6.62897 0
M  V30 6601 N 623.891 1.79953 -5.32516 0
M  V30 6602 H 616.042 -0.349122 -2.09511 0
M  V30 6603 H 618.305 -0.0938113 -0.943347 0
M  V30 6604 H 618.011 0.24557 -3.50842 0
M  V30 6605 H 617.885 1.97119 -3.21596 0
M  V30 6606 H 620.272 1.93891 -2.22464 0
M  V30 6607 H 620.353 0.201568 -2.55005 0
M  V30 6608 H 619.997 0.672917 -5.03423 0
M  V30 6609 H 619.927 2.41715 -4.67848 0
M  V30 6610 H 622.418 1.36612 -3.52343 0
M  V30 6611 H 622.731 2.20155 -7.40778 0
M  V30 6612 H 621.076 1.98657 -6.66003 0
M  V30 6613 H 624.267 1.61337 -4.39418 0
M  V30 6614 H 624.44 1.99455 -6.1654 0
M  V30 6615 N 617.846 1.41785 0.688094 0
M  V30 6616 C 618.776 1.47 1.8142 0
M  V30 6617 C 619.757 0.327881 1.6691 0
M  V30 6618 O 620.942 0.540362 1.86531 0
M  V30 6619 C 618.072 1.35876 3.19617 0
M  V30 6620 C 617.026 2.47976 3.48844 0
M  V30 6621 C 616.352 2.21915 4.86475 0
M  V30 6622 C 617.652 3.90309 3.47068 0
M  V30 6623 H 619.346 2.41247 1.77314 0
M  V30 6624 H 616.892 1.16116 0.851651 0
M  V30 6625 H 618.845 1.38134 3.98117 0
M  V30 6626 H 617.569 0.38116 3.24368 0
M  V30 6627 H 616.228 2.45013 2.72698 0
M  V30 6628 H 615.876 1.2248 4.8786 0
M  V30 6629 H 615.576 2.97037 5.06994 0
M  V30 6630 H 617.1 2.25901 5.67275 0
M  V30 6631 H 618.514 3.94947 4.1556 0
M  V30 6632 H 616.911 4.65175 3.7912 0
M  V30 6633 H 617.981 4.17927 2.45896 0
M  V30 6634 N 619.324 -0.923095 1.27737 0
M  V30 6635 C 620.74 -1.19985 1.05241 0
M  V30 6636 C 620.94 -2.00391 -0.21113 0
M  V30 6637 O 619.996 -2.35324 -0.915366 0
M  V30 6638 C 621.309 -1.94352 2.29451 0
M  V30 6639 C 622.857 -2.07273 2.34536 0
M  V30 6640 C 623.332 -2.85046 3.58487 0
M  V30 6641 N 624.823 -2.92612 3.59072 0
M  V30 6642 C 625.558 -3.53266 4.51654 0
M  V30 6643 N 625.054 -4.15274 5.54545 0
M  V30 6644 N 626.847 -3.50714 4.39268 0
M  V30 6645 H 618.998 -0.386042 2.08862 0
M  V30 6646 H 621.261 -0.233407 0.918817 0
M  V30 6647 H 620.967 -1.42692 3.21453 0
M  V30 6648 H 620.841 -2.94947 2.3513 0
M  V30 6649 H 623.228 -2.58117 1.43037 0
M  V30 6650 H 623.309 -1.05884 2.32857 0
M  V30 6651 H 622.953 -2.34884 4.50324 0
M  V30 6652 H 622.883 -3.8673 3.57418 0
M  V30 6653 H 625.374 -2.48547 2.84663 0
M  V30 6654 H 625.687 -4.59507 6.21348 0
M  V30 6655 H 624.032 -4.13806 5.58382 0
M  V30 6656 H 627.223 -3.01475 3.58093 0
M  V30 6657 H 627.396 -3.97693 5.1161 0
M  V30 6658 N 620.802 -1.09834 -1.13024 0
M  V30 6659 C 622.213 -0.855651 -1.65938 0
M  V30 6660 C 622.564 0.615159 -1.86307 0
M  V30 6661 O 621.689 1.47335 -1.58497 0
M  V30 6662 C 622.284 -1.5467 -3.01434 0
M  V30 6663 C 620.843 -1.35088 -3.51323 0
M  V30 6664 C 619.99 -1.6001 -2.26478 0
M  V30 6665 H 622.941 -1.25691 -0.968889 0
M  V30 6666 H 622.962 -0.982179 -3.67605 0
M  V30 6667 H 622.474 -2.61715 -2.86578 0
M  V30 6668 H 620.575 -0.30179 -3.71376 0
M  V30 6669 H 620.688 -2.0886 -4.31178 0
M  V30 6670 H 619.052 -1.02246 -2.33276 0
M  V30 6671 H 619.835 -2.68293 -2.14182 0
M  V30 6672 N 622.28 1.30327 -0.886154 0
M  V30 6673 C 623.529 1.95373 -0.501243 0
M  V30 6674 C 623.842 1.70722 0.954634 0
M  V30 6675 O 625.048 2.29761 1.44644 0
M  V30 6676 C 623.504 3.49828 -0.845493 0
M  V30 6677 C 623.112 3.83296 -2.31922 0
M  V30 6678 C 624.856 4.2118 -0.529838 0
M  V30 6679 C 622.763 5.30935 -2.60504 0
M  V30 6680 H 621.693 0.731274 -0.183722 0
M  V30 6681 H 624.344 1.48258 -1.08129 0
M  V30 6682 H 622.726 3.95522 -0.19452 0
M  V30 6683 H 623.9 3.48508 -3.01461 0
M  V30 6684 H 622.215 3.2505 -2.60253 0
M  V30 6685 H 624.812 5.29825 -0.720401 0
M  V30 6686 H 625.155 4.12902 0.530828 0
M  V30 6687 H 625.688 3.81173 -1.13806 0
M  V30 6688 H 622.427 5.44265 -3.65316 0
M  V30 6689 H 621.947 5.67019 -1.95575 0
M  V30 6690 H 623.626 5.98381 -2.46066 0
M  V30 6691 N 623.758 0.647228 1.43697 0
M  V30 6692 C 625.035 0.0883758 1.954 0
M  V30 6693 C 625.415 -1.39006 1.58873 0
M  V30 6694 O 624.763 -2.11255 0.87083 0
M  V30 6695 C 624.973 0.328263 3.47453 0
M  V30 6696 C 626.321 0.230009 4.23977 0
M  V30 6697 O 627.345 0.260496 3.55246 0
M  V30 6698 O 626.204 0.148615 5.46298 0
M  V30 6699 H 623.298 -0.0130683 0.826897 0
M  V30 6700 H 625.844 0.72005 1.53666 0
M  V30 6701 H 624.616 1.3535 3.67146 0
M  V30 6702 H 624.239 -0.336772 3.96171 0
M  V30 6703 N 625.236 -1.5273 0.388769 0
M  V30 6704 C 626.199 -2.25043 -0.434544 0
M  V30 6705 C 627.199 -1.26661 -0.990644 0
M  V30 6706 O 628.389 -1.50762 -0.872731 0
M  V30 6707 C 625.521 -3.00507 -1.60961 0
M  V30 6708 H 626.714 -2.99242 0.198549 0
M  V30 6709 H 624.267 -1.55664 0.140875 0
M  V30 6710 H 625.002 -2.30607 -2.28015 0
M  V30 6711 H 624.787 -3.72716 -1.21757 0
M  V30 6712 H 626.277 -3.55413 -2.19251 0
M  V30 6713 N 626.714 -0.118576 -1.57153 0
M  V30 6714 C 627.991 0.583062 -1.86708 0
M  V30 6715 C 628.371 1.84841 -1.01967 0
M  V30 6716 O 627.719 2.28288 -0.0984673 0
M  V30 6717 C 627.929 0.875912 -3.3783 0
M  V30 6718 C 629.277 1.22916 -4.0642 0
M  V30 6719 O 630.301 0.966188 -3.42846 0
M  V30 6720 O 629.16 1.72269 -5.18638 0
M  V30 6721 H 626.254 0.294185 -0.772906 0
M  V30 6722 H 628.8 -0.153048 -1.69008 0
M  V30 6723 H 627.572 -0.0207776 -3.91294 0
M  V30 6724 H 627.195 1.66719 -3.60958 0
M  V30 6725 N 628.193 1.56834 0.155195 0
M  V30 6726 C 629.421 1.87049 0.884326 0
M  V30 6727 C 629.836 0.705839 1.7511 0
M  V30 6728 O 629.193 -0.324641 1.79589 0
M  V30 6729 C 629.244 3.1644 1.74781 0
M  V30 6730 O 628.965 4.28417 0.915978 0
M  V30 6731 C 630.466 3.60113 2.58522 0
M  V30 6732 H 627.686 0.620196 0.25612 0
M  V30 6733 H 630.23 2.03946 0.150445 0
M  V30 6734 H 628.385 3.01321 2.43484 0
M  V30 6735 H 628.799 5.02353 1.50803 0
M  V30 6736 H 630.273 4.53508 3.14698 0
M  V30 6737 H 630.75 2.85005 3.34169 0
M  V30 6738 H 631.356 3.77898 1.95124 0
M  V30 6739 N 629.671 -0.424282 1.51781 0
M  V30 6740 C 630.92 -1.16961 1.64326 0
M  V30 6741 C 631.233 -1.92035 0.371749 0
M  V30 6742 O 632.439 -2.68873 0.37676 0
M  V30 6743 C 630.895 -2.12782 2.90262 0
M  V30 6744 C 630.503 -1.43295 4.24465 0
M  V30 6745 C 632.247 -2.87667 3.12166 0
M  V30 6746 C 630.154 -2.37676 5.41538 0
M  V30 6747 H 629.084 -0.440293 0.612093 0
M  V30 6748 H 631.735 -0.435431 1.78259 0
M  V30 6749 H 630.117 -2.8969 2.69992 0
M  V30 6750 H 631.291 -0.718564 4.55163 0
M  V30 6751 H 629.606 -0.805118 4.08542 0
M  V30 6752 H 632.203 -3.58395 3.96808 0
M  V30 6753 H 632.546 -3.49758 2.25776 0
M  V30 6754 H 633.079 -2.17863 3.32837 0
M  V30 6755 H 629.818 -1.80255 6.30229 0
M  V30 6756 H 629.338 -3.07132 5.15199 0
M  V30 6757 H 631.017 -2.98529 5.74012 0
M  V30 6758 N 631.149 -1.42148 -0.680565 0
M  V30 6759 C 632.426 -1.32795 -1.43614 0
M  V30 6760 C 632.806 0.037415 -2.11067 0
M  V30 6761 O 632.154 1.05258 -2.02813 0
M  V30 6762 C 632.364 -2.49206 -2.44331 0
M  V30 6763 C 633.712 -2.91059 -3.09144 0
M  V30 6764 O 634.736 -2.49054 -2.54657 0
M  V30 6765 O 633.595 -3.63741 -4.07866 0
M  V30 6766 H 630.689 -0.523397 -0.640301 0
M  V30 6767 H 633.235 -1.54144 -0.709775 0
M  V30 6768 H 632.007 -3.40252 -1.93247 0
M  V30 6769 H 631.63 -2.29813 -3.24456 0
M  V30 6770 N 632.627 0.916307 -1.28225 0
M  V30 6771 C 633.876 1.65975 -1.14608 0
M  V30 6772 C 634.189 1.93204 0.305191 0
M  V30 6773 O 635.395 2.65611 0.562432 0
M  V30 6774 C 633.851 2.98989 -2.00333 0
M  V30 6775 C 633.459 2.79417 -3.50186 0
M  V30 6776 C 635.203 3.76856 -1.95397 0
M  V30 6777 C 633.11 4.08056 -4.28071 0
M  V30 6778 H 632.04 0.622587 -0.425324 0
M  V30 6779 H 634.691 1.01705 -1.52736 0
M  V30 6780 H 633.073 3.6438 -1.5506 0
M  V30 6781 H 634.247 2.22723 -4.034 0
M  V30 6782 H 632.562 2.14966 -3.56621 0
M  V30 6783 H 635.159 4.72203 -2.50856 0
M  V30 6784 H 635.502 4.05776 -0.930137 0
M  V30 6785 H 636.035 3.1828 -2.38626 0
M  V30 6786 H 632.774 3.8431 -5.31024 0
M  V30 6787 H 632.294 4.64371 -3.79631 0
M  V30 6788 H 633.973 4.76333 -4.37854 0
M  V30 6789 N 634.105 1.10431 1.1244 0
M  V30 6790 C 635.335 0.867612 1.87499 0
M  V30 6791 C 635.743 -0.585475 1.79913 0
M  V30 6792 O 635.086 -1.41539 1.171 0
M  V30 6793 C 635.148 1.2374 3.37533 0
M  V30 6794 C 634.812 2.69751 3.68895 0
M  V30 6795 C 635.809 3.67988 3.67261 0
M  V30 6796 C 633.494 3.06135 3.98229 0
M  V30 6797 C 635.488 5.00632 3.9452 0
M  V30 6798 C 633.175 4.38967 4.25149 0
M  V30 6799 C 634.173 5.36025 4.23281 0
M  V30 6800 O 633.861 6.66465 4.49533 0
M  V30 6801 H 633.593 0.311196 0.600111 0
M  V30 6802 H 636.147 1.47257 1.43194 0
M  V30 6803 H 634.377 0.575537 3.82393 0
M  V30 6804 H 636.066 0.978187 3.93937 0
M  V30 6805 H 636.832 3.41224 3.44661 0
M  V30 6806 H 632.711 2.31214 3.98825 0
M  V30 6807 H 636.255 5.7638 3.92978 0
M  V30 6808 H 632.152 4.6547 4.47223 0
M  V30 6809 H 632.92 6.72095 4.67152 0
M  V30 6810 N 635.583 -1.29855 0.893053 0
M  V30 6811 C 636.546 -2.26183 0.370687 0
M  V30 6812 C 637.546 -1.53108 -0.491385 0
M  V30 6813 O 638.736 -1.71643 -0.297386 0
M  V30 6814 C 635.868 -3.37633 -0.470827 0
M  V30 6815 H 637.061 -2.73903 1.22135 0
M  V30 6816 H 634.614 -1.41183 0.67061 0
M  V30 6817 H 635.349 -2.95241 -1.34175 0
M  V30 6818 H 635.134 -3.91825 0.146784 0
M  V30 6819 H 636.624 -4.09313 -0.827825 0
M  V30 6820 N 637.061 -0.65484 -1.43351 0
M  V30 6821 C 638.477 -0.32255 -1.56307 0
M  V30 6822 C 638.677 1.17324 -1.63821 0
M  V30 6823 O 637.733 1.95813 -1.59417 0
M  V30 6824 C 639.046 -1.03533 -2.82314 0
M  V30 6825 C 640.594 -1.01574 -2.9606 0
M  V30 6826 C 641.069 -1.70945 -4.24902 0
M  V30 6827 N 642.56 -1.67716 -4.3177 0
M  V30 6828 C 643.295 -2.18265 -5.30234 0
M  V30 6829 N 642.791 -2.7711 -6.34966 0
M  V30 6830 N 644.584 -2.08756 -5.21898 0
M  V30 6831 H 636.735 -1.62549 -1.36717 0
M  V30 6832 H 638.998 -0.683676 -0.656727 0
M  V30 6833 H 638.704 -2.09045 -2.8283 0
M  V30 6834 H 638.578 -0.587913 -3.7259 0
M  V30 6835 H 640.965 0.0309834 -2.95084 0
M  V30 6836 H 641.046 -1.50186 -2.07069 0
M  V30 6837 H 640.69 -2.75574 -4.26639 0
M  V30 6838 H 640.62 -1.19797 -5.12793 0
M  V30 6839 H 643.111 -1.24777 -3.56706 0
M  V30 6840 H 643.424 -3.13353 -7.06421 0
M  V30 6841 H 641.769 -2.81171 -6.35585 0
M  V30 6842 H 644.96 -1.62488 -4.38994 0
M  V30 6843 H 645.133 -2.48459 -5.98475 0
M  V30 6844 N 638.539 1.52521 -0.396863 0
M  V30 6845 C 639.502 2.2527 0.422604 0
M  V30 6846 C 640.502 1.27184 0.983913 0
M  V30 6847 O 641.692 1.51222 0.864723 0
M  V30 6848 C 638.824 3.01356 1.59365 0
M  V30 6849 H 640.017 2.99133 -0.214416 0
M  V30 6850 H 637.57 1.55587 -0.149128 0
M  V30 6851 H 638.305 2.31813 2.26789 0
M  V30 6852 H 638.09 3.73357 1.19779 0
M  V30 6853 H 639.58 3.56571 2.17363 0
M  V30 6854 N 640.017 0.126909 1.57088 0
M  V30 6855 C 641.263 -0.529952 1.95753 0
M  V30 6856 C 641.596 -1.65823 1.01077 0
M  V30 6857 O 640.871 -1.94437 0.0494162 0
M  V30 6858 C 641.154 -1.05517 3.44294 0
M  V30 6859 C 641.007 0.0702253 4.49745 0
M  V30 6860 C 642.326 -1.9435 3.94862 0
M  V30 6861 H 639.445 -0.191168 0.711775 0
M  V30 6862 H 642.087 0.204071 1.88901 0
M  V30 6863 H 640.237 -1.68069 3.50264 0
M  V30 6864 H 641.909 0.705834 4.55868 0
M  V30 6865 H 640.152 0.732259 4.27575 0
M  V30 6866 H 640.823 -0.338642 5.5096 0
M  V30 6867 H 643.299 -1.41658 3.91244 0
M  V30 6868 H 642.175 -2.28015 4.993 0
M  V30 6869 H 642.436 -2.87299 3.36024 0
M  V30 6870 N 641.495 -1.56914 -0.146875 0
M  V30 6871 C 642.742 -1.83356 -0.859467 0
M  V30 6872 C 643.07 -0.707811 -1.81164 0
M  V30 6873 O 642.325 0.303155 -1.93338 0
M  V30 6874 C 642.624 -3.16128 -1.66727 0
M  V30 6875 C 642.29 -4.42586 -0.861881 0
M  V30 6876 C 640.952 -4.76929 -0.639687 0
M  V30 6877 C 643.304 -5.20344 -0.298643 0
M  V30 6878 C 640.632 -5.86491 0.156451 0
M  V30 6879 C 642.984 -6.30742 0.484536 0
M  V30 6880 C 641.648 -6.63635 0.717306 0
M  V30 6881 H 640.918 -0.670947 -0.314501 0
M  V30 6882 H 643.565 -1.91104 -0.123108 0
M  V30 6883 H 641.87 -3.03831 -2.47374 0
M  V30 6884 H 643.567 -3.33802 -2.2221 0
M  V30 6885 H 640.157 -4.15662 -1.04513 0
M  V30 6886 H 644.341 -4.94186 -0.457585 0
M  V30 6887 H 639.597 -6.10419 0.346292 0
M  V30 6888 H 643.771 -6.90188 0.928105 0
M  V30 6889 H 641.398 -7.48367 1.33607 0
M  V30 6890 N 642.974 0.416227 -1.52004 0
M  V30 6891 C 644.385 0.995319 -1.57957 0
M  V30 6892 C 644.736 1.91744 -0.415754 0
M  V30 6893 O 643.861 2.11349 0.464808 0
M  V30 6894 C 644.456 1.81191 -2.86278 0
M  V30 6895 C 643.015 2.34115 -2.94732 0
M  V30 6896 C 642.162 1.139 -2.52828 0
M  V30 6897 H 645.113 0.196716 -1.57476 0
M  V30 6898 H 645.134 2.66859 -2.71231 0
M  V30 6899 H 644.646 1.14051 -3.70963 0
M  V30 6900 H 642.747 3.04647 -2.14525 0
M  V30 6901 H 642.86 2.65466 -3.98829 0
M  V30 6902 H 641.224 1.49081 -2.06511 0
M  V30 6903 H 642.007 0.483383 -3.3988 0
M  V30 6904 N 644.452 1.42507 0.673017 0
M  V30 6905 C 645.415 1.4582 1.76831 0
M  V30 6906 C 646.415 0.345542 1.57043 0
M  V30 6907 O 647.605 0.606447 1.63303 0
M  V30 6908 C 644.737 1.29158 3.15485 0
M  V30 6909 H 645.93 2.43345 1.7528 0
M  V30 6910 H 643.483 1.28981 0.882817 0
M  V30 6911 H 644.218 0.325626 3.22661 0
M  V30 6912 H 644.003 2.09797 3.31252 0
M  V30 6913 H 645.493 1.34363 3.95394 0
M  V30 6914 N 645.93 -0.909495 1.28709 0
M  V30 6915 C 646.893 -1.99399 1.13016 0
M  V30 6916 C 647.893 -1.60654 0.068536 0
M  V30 6917 O 649.083 -1.71334 0.314671 0
M  V30 6918 C 646.215 -3.33078 0.726085 0
M  V30 6919 H 647.408 -2.14751 2.09338 0
M  V30 6920 H 644.961 -1.09272 1.11756 0
M  V30 6921 H 645.696 -3.23428 -0.23771 0
M  V30 6922 H 645.481 -3.62562 1.49302 0
M  V30 6923 H 646.971 -4.12681 0.639058 0
M  V30 6924 N 647.408 -1.11026 -1.11852 0
M  V30 6925 C 648.655 -0.85646 -1.83497 0
M  V30 6926 C 648.983 0.617938 -1.84423 0
M  V30 6927 O 648.238 1.47194 -1.28966 0
M  V30 6928 C 648.537 -1.35777 -3.30604 0
M  V30 6929 C 648.203 -2.84465 -3.49843 0
M  V30 6930 C 646.865 -3.25068 -3.54802 0
M  V30 6931 C 649.217 -3.80251 -3.56453 0
M  V30 6932 C 646.545 -4.60194 -3.63921 0
M  V30 6933 C 648.897 -5.15188 -3.67102 0
M  V30 6934 C 647.561 -5.55356 -3.70319 0
M  V30 6935 H 646.831 -0.313401 -0.671462 0
M  V30 6936 H 649.478 -1.38792 -1.31943 0
M  V30 6937 H 647.783 -0.746455 -3.84624 0
M  V30 6938 H 649.48 -1.13779 -3.8452 0
M  V30 6939 H 646.07 -2.52054 -3.46651 0
M  V30 6940 H 650.254 -3.49986 -3.51886 0
M  V30 6941 H 645.51 -4.90728 -3.64686 0
M  V30 6942 H 649.684 -5.89248 -3.71159 0
M  V30 6943 H 647.311 -6.60054 -3.77138 0
M  V30 6944 N 648.886 1.2938 -0.899927 0
M  V30 6945 C 649.849 2.25983 -0.382677 0
M  V30 6946 C 650.849 1.53366 0.483259 0
M  V30 6947 O 652.039 1.71798 0.28828 0
M  V30 6948 C 649.171 3.37878 0.452915 0
M  V30 6949 H 650.364 2.73252 -1.23586 0
M  V30 6950 H 647.917 1.40825 -0.678088 0
M  V30 6951 H 648.652 2.95949 1.32608 0
M  V30 6952 H 648.437 3.91742 -0.167562 0
M  V30 6953 H 649.927 4.09746 0.806107 0
M  V30 6954 N 650.364 0.662433 1.43002 0
M  V30 6955 C 651.327 -0.0142016 2.29196 0
M  V30 6956 C 652.327 -0.741394 1.42688 0
M  V30 6957 O 653.517 -0.581257 1.64216 0
M  V30 6958 C 650.649 -1.03084 3.24941 0
M  V30 6959 H 651.842 0.7443 2.90517 0
M  V30 6960 H 649.395 0.424133 1.50435 0
M  V30 6961 H 650.13 -1.81826 2.68533 0
M  V30 6962 H 649.915 -0.512946 3.8873 0
M  V30 6963 H 651.405 -1.50308 3.89612 0
M  V30 6964 N 651.842 -1.52309 0.404946 0
M  V30 6965 C 653.088 -2.02065 -0.172455 0
M  V30 6966 C 653.421 -1.29022 -1.45145 0
M  V30 6967 O 652.696 -0.395284 -1.90441 0
M  V30 6968 C 652.979 -3.5759 -0.424433 0
M  V30 6969 C 652.832 -4.41287 0.870945 0
M  V30 6970 C 654.151 -4.23186 -1.20837 0
M  V30 6971 H 651.27 -0.734454 -0.0612035 0
M  V30 6972 H 653.912 -1.82236 0.53759 0
M  V30 6973 H 652.062 -3.74617 -1.02929 0
M  V30 6974 H 653.734 -4.3598 1.50729 0
M  V30 6975 H 651.977 -4.07669 1.48284 0
M  V30 6976 H 652.648 -5.48171 0.649083 0
M  V30 6977 H 655.124 -4.10232 -0.696338 0
M  V30 6978 H 654 -5.31953 -1.35343 0
M  V30 6979 H 654.261 -3.81862 -2.22786 0
M  V30 6980 N 653.32 -0.135238 -1.57019 0
M  V30 6981 C 654.268 0.826099 -2.17436 0
M  V30 6982 C 655.262 1.26378 -1.12805 0
M  V30 6983 O 656.468 1.23363 -1.31079 0
M  V30 6984 H 652.843 0.284568 -0.696078 0
M  V30 6985 H 654.814 0.292212 -2.96966 0
M  V30 6986 C 653.563 2.05991 -2.80112 0
M  V30 6987 H 652.886 1.73209 -3.60331 0
M  V30 6988 H 654.326 2.71225 -3.25903 0
M  V30 6989 C 652.785 2.86027 -1.78017 0
M  V30 6990 O 653.315 3.81971 -1.24344 0
M  V30 6991 N 651.521 2.50332 -1.47588 0
M  V30 6992 H 651.068 1.72377 -1.91426 0
M  V30 6993 H 651.026 3.04177 -0.795228 0
M  V30 6994 N 654.798 1.5699 0.138552 0
M  V30 6995 C 656.044 1.84081 0.85099 0
M  V30 6996 C 656.377 0.718107 1.80435 0
M  V30 6997 O 655.652 -0.277633 1.92508 0
M  V30 6998 C 655.935 3.21699 1.61808 0
M  V30 6999 C 655.788 4.44544 0.685633 0
M  V30 7000 C 657.107 3.5664 2.57868 0
M  V30 7001 H 654.226 0.669592 0.307922 0
M  V30 7002 H 656.868 1.89646 0.11588 0
M  V30 7003 H 655.018 3.17086 2.24474 0
M  V30 7004 H 656.69 4.61248 0.0693179 0
M  V30 7005 H 654.933 4.338 -0.00421993 0
M  V30 7006 H 655.604 5.3746 1.25858 0
M  V30 7007 H 658.08 3.61918 2.05316 0
M  V30 7008 H 656.956 4.53946 3.08584 0
M  V30 7009 H 657.217 2.83036 3.39622 0
M  V30 7010 N 656.276 -0.40816 1.52223 0
M  V30 7011 C 657.525 -1.15212 1.65557 0
M  V30 7012 C 657.838 -1.9163 0.392096 0
M  V30 7013 O 659.044 -2.68458 0.405256 0
M  V30 7014 C 657.5 -2.09691 2.92502 0
M  V30 7015 C 657.108 -1.38785 4.25961 0
M  V30 7016 C 658.852 -2.8434 3.152 0
M  V30 7017 C 656.759 -2.31919 5.44029 0
M  V30 7018 H 655.689 -0.433776 0.616729 0
M  V30 7019 H 658.34 -0.4165 1.78711 0
M  V30 7020 H 656.722 -2.8681 2.7305 0
M  V30 7021 H 657.896 -0.670248 4.55899 0
M  V30 7022 H 656.211 -0.761741 4.09373 0
M  V30 7023 H 658.808 -3.54166 4.00587 0
M  V30 7024 H 659.151 -3.47344 2.29473 0
M  V30 7025 H 659.684 -2.14321 3.35129 0
M  V30 7026 H 656.423 -1.7356 6.32105 0
M  V30 7027 H 655.943 -3.0165 5.18428 0
M  V30 7028 H 657.622 -2.92424 5.77146 0
M  V30 7029 N 657.755 -1.42862 -0.66545 0
M  V30 7030 C 658.985 -1.47032 -1.45138 0
M  V30 7031 C 659.393 -0.0829977 -1.89018 0
M  V30 7032 O 658.736 0.914551 -1.59316 0
M  V30 7033 C 658.798 -2.34302 -2.72659 0
M  V30 7034 C 658.462 -3.82034 -2.50796 0
M  V30 7035 C 659.459 -4.73453 -2.14799 0
M  V30 7036 C 657.144 -4.26397 -2.655 0
M  V30 7037 C 659.138 -6.07228 -1.93785 0
M  V30 7038 C 656.825 -5.6023 -2.44103 0
M  V30 7039 C 657.823 -6.50462 -2.08299 0
M  V30 7040 O 657.511 -7.8182 -1.87116 0
M  V30 7041 H 657.243 -0.501969 -0.452772 0
M  V30 7042 H 659.797 -1.88137 -0.82423 0
M  V30 7043 H 658.027 -1.88063 -3.37889 0
M  V30 7044 H 659.716 -2.29818 -3.34572 0
M  V30 7045 H 660.482 -4.4046 -2.03026 0
M  V30 7046 H 656.361 -3.56448 -2.92345 0
M  V30 7047 H 659.905 -6.7762 -1.65763 0
M  V30 7048 H 655.802 -5.92793 -2.55475 0
M  V30 7049 H 656.57 -7.93274 -2.01639 0
M  V30 7050 N 659.233 0.902656 -1.29189 0
M  V30 7051 C 660.479 1.6555 -1.18172 0
M  V30 7052 C 660.834 1.90569 0.264788 0
M  V30 7053 O 660.127 1.50292 1.1884 0
M  V30 7054 C 660.321 3.011 -1.92545 0
M  V30 7055 C 660.15 2.89312 -3.4428 0
M  V30 7056 C 658.92 2.90239 -4.1363 0
M  V30 7057 C 661.118 2.6656 -4.3983 0
M  V30 7058 N 659.1 2.69156 -5.5175 0
M  V30 7059 C 660.471 2.54429 -5.6539 0
M  V30 7060 C 662.526 2.51644 -4.29627 0
M  V30 7061 C 661.229 2.289 -6.81907 0
M  V30 7062 C 663.255 2.27498 -5.45892 0
M  V30 7063 C 662.617 2.16129 -6.70423 0
M  V30 7064 H 658.716 0.611519 -0.48741 0
M  V30 7065 H 661.3 1.06514 -1.62981 0
M  V30 7066 H 659.471 3.58202 -1.50154 0
M  V30 7067 H 661.203 3.65471 -1.73818 0
M  V30 7068 H 657.958 3.01412 -3.65305 0
M  V30 7069 H 658.382 2.61676 -6.24383 0
M  V30 7070 H 663.024 2.59178 -3.34045 0
M  V30 7071 H 660.742 2.20104 -7.77547 0
M  V30 7072 H 664.328 2.16805 -5.39895 0
M  V30 7073 H 663.208 1.97703 -7.5887 0
M  V30 7074 N 660.711 1.11618 1.11262 0
M  V30 7075 C 661.674 0.779447 2.15539 0
M  V30 7076 C 662.674 -0.202081 1.59525 0
M  V30 7077 O 663.864 0.0226356 1.74185 0
M  V30 7078 C 660.996 0.15674 3.40539 0
M  V30 7079 H 662.189 1.70324 2.4684 0
M  V30 7080 H 659.742 0.918298 1.26479 0
M  V30 7081 H 660.477 -0.777186 3.1485 0
M  V30 7082 H 660.262 0.863308 3.82478 0
M  V30 7083 H 661.752 -0.062661 4.17553 0
M  V30 7084 N 662.189 -1.289 0.906776 0
M  V30 7085 C 663.152 -2.25777 0.394656 0
M  V30 7086 C 664.152 -1.53621 -0.475119 0
M  V30 7087 O 665.342 -1.71949 -0.279165 0
M  V30 7088 C 662.474 -3.38113 -0.43499 0
M  V30 7089 H 663.667 -2.72592 1.25033 0
M  V30 7090 H 661.22 -1.40463 0.685547 0
M  V30 7091 H 661.955 -2.96648 -1.31036 0
M  V30 7092 H 661.74 -3.91647 0.188334 0
M  V30 7093 H 663.23 -4.10168 -0.784365 0
M  V30 7094 N 663.667 -0.670007 -1.42649 0
M  V30 7095 C 664.897 -0.198252 -2.05647 0
M  V30 7096 C 665.305 1.14786 -1.50402 0
M  V30 7097 O 664.648 1.72316 -0.636634 0
M  V30 7098 C 664.71 -0.0507132 -3.59464 0
M  V30 7099 C 664.374 -1.32478 -4.37377 0
M  V30 7100 C 665.371 -2.2572 -4.68344 0
M  V30 7101 C 663.056 -1.57104 -4.77099 0
M  V30 7102 C 665.05 -3.4187 -5.37963 0
M  V30 7103 C 662.737 -2.73543 -5.46459 0
M  V30 7104 C 663.735 -3.65751 -5.76815 0
M  V30 7105 O 663.423 -4.80154 -6.44753 0
M  V30 7106 H 663.155 -0.0950721 -0.669281 0
M  V30 7107 H 665.709 -0.915745 -1.83857 0
M  V30 7108 H 663.939 0.722314 -3.79894 0
M  V30 7109 H 665.628 0.380552 -4.04112 0
M  V30 7110 H 666.394 -2.07943 -4.38161 0
M  V30 7111 H 662.273 -0.862069 -4.52868 0
M  V30 7112 H 665.817 -4.13861 -5.61574 0
M  V30 7113 H 661.714 -2.91248 -5.7606 0
M  V30 7114 H 662.482 -4.79637 -6.63243 0
M  V30 7115 N 665.145 1.52092 -0.413018 0
M  V30 7116 C 666.108 2.25706 0.398687 0
M  V30 7117 C 667.108 1.28221 0.970368 0
M  V30 7118 O 668.298 1.52131 0.848635 0
M  V30 7119 C 665.43 3.03029 1.5616 0
M  V30 7120 H 666.623 2.98888 -0.246131 0
M  V30 7121 H 664.176 1.5542 -0.165622 0
M  V30 7122 H 664.911 2.34205 2.24317 0
M  V30 7123 H 664.696 3.74606 1.15812 0
M  V30 7124 H 666.186 3.58857 2.13569 0
M  V30 7125 N 666.623 0.143563 1.56945 0
M  V30 7126 C 667.556 -0.835367 2.1236 0
M  V30 7127 C 668.534 -1.24466 1.04627 0
M  V30 7128 O 669.718 -1.34138 1.32436 0
M  V30 7129 C 666.845 -2.12123 2.64048 0
M  V30 7130 C 665.891 -1.85812 3.83896 0
M  V30 7131 S 666.724 -1.05222 5.25061 0
M  V30 7132 C 667.88 -2.34935 5.80135 0
M  V30 7133 H 668.113 -0.364109 2.95062 0
M  V30 7134 H 665.646 -0.0706601 1.54238 0
M  V30 7135 H 667.604 -2.85993 2.94479 0
M  V30 7136 H 666.265 -2.56364 1.81483 0
M  V30 7137 H 665.458 -2.81151 4.18294 0
M  V30 7138 H 665.06 -1.20052 3.54208 0
M  V30 7139 H 667.352 -3.3061 5.91357 0
M  V30 7140 H 668.295 -2.05046 6.77762 0
M  V30 7141 H 668.703 -2.45426 5.08356 0
M  V30 7142 O 668.14 -1.61499 0.00487092 0
M  V30 7143 H 668.831 -1.83807 -0.611124 0
M  V30 END ATOM
M  V30 BEGIN BOND
M  V30 END BOND
M  V30 END CTAB
M  END
$$$$
