drugbank_target|Q92953 Potassium voltage-gated channel subfamily B member 2 (DB00228; DB01069; DB01110)
 OpenBabel12092120583D

  0  0  0     0  0            999 V3000
M  V30 BEGIN CTAB
M  V30 COUNTS 14311 14465 0 0 0
M  V30 BEGIN ATOM
M  V30 1 H -0.908 1.98254 -0.117106 0
M  V30 2 N 0 1.576 0 0
M  V30 3 C 0.933 2.03868 1.02534 0
M  V30 4 C 1.911 0.928543 1.3348 0
M  V30 5 O 3.095 1.19667 1.45644 0
M  V30 6 C 0.222 2.43627 2.35294 0
M  V30 7 C -0.732 3.65373 2.2001 0
M  V30 8 S 0.101 5.13292 1.52614 0
M  V30 9 C 1.257 5.56322 2.86805 0
M  V30 10 H 1.49 2.90518 0.631377 0
M  V30 11 H -0.977 1.52953 0.210867 0
M  V30 12 H 0.981 2.67203 3.11629 0
M  V30 13 H -0.358 1.57376 2.7183 0
M  V30 14 H -1.165 3.90944 3.18086 0
M  V30 15 H -1.563 3.418 1.51819 0
M  V30 16 H 0.729 5.58782 3.83104 0
M  V30 17 H 1.672 6.56266 2.65933 0
M  V30 18 H 2.08 4.83886 2.90714 0
M  V30 19 N 1.4781 -0.272755 1.55222 0
M  V30 20 C 2.4411 -1.32041 1.87344 0
M  V30 21 C 3.4411 -1.42342 0.74803 0
M  V30 22 O 4.6311 -1.41488 1.0162 0
M  V30 23 C 1.7631 -2.70173 2.07893 0
M  V30 24 H 2.9561 -1.04789 2.80997 0
M  V30 25 H 0.5091 -0.51083 1.47717 0
M  V30 26 H 1.2441 -3.02605 1.16622 0
M  V30 27 H 1.0291 -2.64082 2.89833 0
M  V30 28 H 2.5191 -3.45869 2.34017 0
M  V30 29 N 2.9562 -1.48159 -0.537278 0
M  V30 30 C 3.8662 -1.64807 -1.6696 0
M  V30 31 C 4.8822 -0.530651 -1.65711 0
M  V30 32 O 6.0582 -0.800784 -1.84796 0
M  V30 33 C 3.1232 -1.67708 -3.03438 0
M  V30 34 C 2.1842 -2.91025 -3.156 0
M  V30 35 C 1.4172 -2.93778 -4.45567 0
M  V30 36 O 1.6402 -2.05153 -5.3223 0
M  V30 37 O 0.5742 -3.85868 -4.61941 0
M  V30 38 H 4.4002 -2.6066 -1.55853 0
M  V30 39 H 1.9852 -1.31475 -0.709549 0
M  V30 40 H 3.8672 -1.7218 -3.84619 0
M  V30 41 H 2.5422 -0.750278 -3.14885 0
M  V30 42 H 1.4492 -2.92089 -2.33741 0
M  V30 43 H 2.7822 -3.83065 -3.09066 0
M  V30 44 N 4.4343 0.785586 -1.36625 0
M  V30 45 C 5.3813 1.89838 -1.31264 0
M  V30 46 C 6.3513 1.65115 -0.180633 0
M  V30 47 O 7.5363 1.87222 -0.36777 0
M  V30 48 C 4.6763 3.26706 -1.11163 0
M  V30 49 C 3.7893 3.63476 -2.33472 0
M  V30 50 C 2.9243 4.89481 -2.06353 0
M  V30 51 C 1.9633 5.18941 -3.24602 0
M  V30 52 N 1.1003 6.36131 -2.97123 0
M  V30 53 H 5.9403 1.93756 -2.26413 0
M  V30 54 H 3.4773 0.947454 -1.12524 0
M  V30 55 H 5.4353 4.05639 -0.975337 0
M  V30 56 H 4.0653 3.222 -0.196674 0
M  V30 57 H 3.1173 2.79636 -2.57891 0
M  V30 58 H 4.4293 3.81193 -3.21704 0
M  V30 59 H 3.5833 5.76288 -1.89675 0
M  V30 60 H 2.3223 4.73841 -1.15437 0
M  V30 61 H 1.3273 4.30615 -3.41834 0
M  V30 62 H 2.5523 5.36498 -4.16349 0
M  V30 63 H 0.4983 6.21875 -2.08823 0
M  V30 64 H 0.4153 6.54198 -3.78894 0
M  V30 65 H 1.6833 7.2591 -2.84033 0
M  V30 66 N 5.9124 1.20967 1.01018 0
M  V30 67 C 6.8754 0.965918 2.07853 0
M  V30 68 C 7.8754 -0.0610545 1.60684 0
M  V30 69 O 9.0654 0.175681 1.73312 0
M  V30 70 C 6.1974 0.455513 3.37843 0
M  V30 71 H 7.3904 1.91365 2.3091 0
M  V30 72 H 4.9434 1.02594 1.17916 0
M  V30 73 H 5.6784 -0.497381 3.20463 0
M  V30 74 H 5.4634 1.19622 3.73407 0
M  V30 75 H 6.9534 0.304667 4.16487 0
M  V30 76 N 7.3905 -1.2043 1.01659 0
M  V30 77 C 8.8015 -1.71517 0.737482 0
M  V30 78 C 9.1525 -1.81547 -0.743973 0
M  V30 79 O 8.2775 -1.47803 -1.58061 0
M  V30 80 C 8.8725 -3.11515 1.33206 0
M  V30 81 C 7.4315 -3.59912 1.10183 0
M  V30 82 C 6.5785 -2.37116 1.43776 0
M  V30 83 H 9.5295 -1.05444 1.18606 0
M  V30 84 H 9.5505 -3.73575 0.722636 0
M  V30 85 H 9.0625 -3.04182 2.41028 0
M  V30 86 H 7.1635 -3.72577 0.0412756 0
M  V30 87 H 7.2765 -4.44731 1.78188 0
M  V30 88 H 5.6405 -2.39857 0.856778 0
M  V30 89 H 6.4235 -2.32424 2.52654 0
M  V30 90 N 8.8686 -0.792821 -1.36206 0
M  V30 91 C 10.2796 -0.429513 -1.81692 0
M  V30 92 C 10.6306 1.04695 -1.65932 0
M  V30 93 O 9.7556 1.81256 -1.18218 0
M  V30 94 C 10.3506 -0.772831 -3.29868 0
M  V30 95 C 8.9096 -0.462307 -3.7355 0
M  V30 96 C 8.0566 -1.00569 -2.5842 0
M  V30 97 H 11.0076 -0.985672 -1.24379 0
M  V30 98 H 11.0286 -0.0651928 -3.80444 0
M  V30 99 H 10.5406 -1.84747 -3.41307 0
M  V30 100 H 8.6416 0.604158 -3.67669 0
M  V30 101 H 8.7546 -0.985299 -4.68859 0
M  V30 102 H 7.1186 -0.428734 -2.51066 0
M  V30 103 H 7.9016 -2.08616 -2.72643 0
M  V30 104 N 10.3467 1.47872 -0.545128 0
M  V30 105 C 11.5947 2.02093 -0.016553 0
M  V30 106 C 11.9157 1.42305 1.3332 0
M  V30 107 O 11.1857 0.593853 1.86682 0
M  V30 108 H 9.7657 0.746993 -0.00313038 0
M  V30 109 H 12.4277 1.81414 -0.712397 0
M  V30 110 H 11.5237 3.11996 0.0805422 0
M  V30 111 N 11.8248 0.280983 1.55075 0
M  V30 112 C 12.7548 -0.597469 2.25727 0
M  V30 113 C 13.7358 -1.15417 1.24952 0
M  V30 114 O 14.9208 -1.18722 1.53684 0
M  V30 115 C 12.0508 -1.7789 2.98283 0
M  V30 116 C 11.0048 -1.35347 4.06036 0
M  V30 117 C 10.3308 -2.61846 4.66198 0
M  V30 118 C 11.6308 -0.499354 5.19907 0
M  V30 119 H 13.3248 -0.00824265 2.99399 0
M  V30 120 H 10.8708 -0.0025244 1.44 0
M  V30 121 H 12.8238 -2.39937 3.46422 0
M  V30 122 H 11.5478 -2.39405 2.22155 0
M  V30 123 H 10.2068 -0.756156 3.58717 0
M  V30 124 H 9.8548 -3.21632 3.86732 0
M  V30 125 H 9.5548 -2.3409 5.38958 0
M  V30 126 H 11.0788 -3.24732 5.1709 0
M  V30 127 H 12.4928 -1.02498 5.64063 0
M  V30 128 H 10.8898 -0.316424 5.99265 0
M  V30 129 H 11.9598 0.480459 4.82514 0
M  V30 130 N 13.3029 -1.57598 0.00835791 0
M  V30 131 C 14.2509 -2.10078 -0.998508 0
M  V30 132 C 15.2449 -1.02262 -1.35051 0
M  V30 133 O 16.4509 -1.20719 -1.33518 0
M  V30 134 H 12.8259 -0.670903 -0.339696 0
M  V30 135 H 14.7969 -2.93648 -0.530398 0
M  V30 136 C 13.5459 -2.62615 -2.27879 0
M  V30 137 H 12.8689 -3.45213 -2.01662 0
M  V30 138 H 14.3089 -3.03004 -2.96588 0
M  V30 139 C 12.7679 -1.54407 -2.99433 0
M  V30 140 O 13.2979 -0.931812 -3.90743 0
M  V30 141 N 11.5039 -1.2695 -2.61404 0
M  V30 142 H 11.0509 -1.76924 -1.87232 0
M  V30 143 H 11.0089 -0.547704 -3.09593 0
M  V30 144 N 14.781 0.264519 -1.55364 0
M  V30 145 C 16.197 0.61215 -1.47394 0
M  V30 146 C 16.397 1.89134 -0.695018 0
M  V30 147 O 15.453 2.51563 -0.217275 0
M  V30 148 C 16.766 0.731235 -2.91674 0
M  V30 149 C 18.314 0.82473 -3.01939 0
M  V30 150 C 18.789 0.975522 -4.4749 0
M  V30 151 N 20.28 1.04083 -4.51354 0
M  V30 152 C 21.015 1.17646 -5.61201 0
M  V30 153 N 20.511 1.27874 -6.80896 0
M  V30 154 N 22.304 1.20823 -5.48961 0
M  V30 155 H 14.455 -0.575456 -2.04456 0
M  V30 156 H 16.718 -0.196099 -0.927496 0
M  V30 157 H 16.424 -0.138392 -3.51428 0
M  V30 158 H 16.298 1.60883 -3.41169 0
M  V30 159 H 18.685 1.68482 -2.42276 0
M  V30 160 H 18.766 -0.0776479 -2.55682 0
M  V30 161 H 18.41 0.120058 -5.07758 0
M  V30 162 H 18.34 1.89268 -4.91412 0
M  V30 163 H 20.831 0.973846 -3.65136 0
M  V30 164 H 21.144 1.38081 -7.60364 0
M  V30 165 H 19.489 1.24863 -6.83692 0
M  V30 166 H 22.68 1.12469 -4.54388 0
M  V30 167 H 22.853 1.31049 -6.3461 0
M  V30 168 N 16.2591 1.48442 0.529413 0
M  V30 169 C 17.2061 1.63007 1.63394 0
M  V30 170 C 18.1761 0.47212 1.59249 0
M  V30 171 O 19.3611 0.695673 1.77666 0
M  V30 172 C 16.5011 1.6763 3.01653 0
M  V30 173 C 15.6141 2.94535 3.16027 0
M  V30 174 C 14.7491 2.90316 4.44849 0
M  V30 175 C 13.7881 4.11923 4.52754 0
M  V30 176 N 12.9251 4.05777 5.72965 0
M  V30 177 H 17.7651 2.5733 1.50285 0
M  V30 178 H 15.3021 1.27613 0.731656 0
M  V30 179 H 17.2601 1.68292 3.81751 0
M  V30 180 H 15.8901 0.76797 3.13532 0
M  V30 181 H 14.9421 3.03615 2.29177 0
M  V30 182 H 16.2541 3.84512 3.17729 0
M  V30 183 H 15.4081 2.89382 5.33238 0
M  V30 184 H 14.1471 1.98068 4.45668 0
M  V30 185 H 13.1521 4.13131 3.62771 0
M  V30 186 H 14.3771 5.0533 4.53672 0
M  V30 187 H 12.3231 3.16351 5.74681 0
M  V30 188 H 12.2401 4.8946 5.76164 0
M  V30 189 H 13.5081 4.08904 6.6364 0
M  V30 190 N 17.7372 -0.778329 1.37039 0
M  V30 191 C 18.9652 -1.56734 1.35063 0
M  V30 192 C 19.3802 -1.88686 -0.0655597 0
M  V30 193 O 18.7372 -1.5096 -1.02554 0
M  V30 194 C 18.7882 -2.88163 2.18276 0
M  V30 195 O 18.5092 -2.57583 3.54376 0
M  V30 196 C 20.0102 -3.82422 2.24206 0
M  V30 197 H 17.2302 -0.485778 0.462883 0
M  V30 198 H 19.7742 -0.965185 1.8029 0
M  V30 199 H 17.9292 -3.44818 1.76576 0
M  V30 200 H 18.3432 -3.41699 3.97922 0
M  V30 201 H 19.8172 -4.71667 2.86765 0
M  V30 202 H 20.2942 -4.21078 1.24861 0
M  V30 203 H 20.9002 -3.31697 2.6619 0
M  V30 204 N 19.2153 -1.21501 -1.00376 0
M  V30 205 C 20.4403 -1.05977 -1.78279 0
M  V30 206 C 20.8653 0.385994 -1.84097 0
M  V30 207 O 20.2233 1.27849 -1.28547 0
M  V30 208 C 20.2713 -1.66302 -3.19963 0
M  V30 209 O 19.3753 -0.909333 -4.0225 0
M  V30 210 H 18.7163 -0.372906 -0.549397 0
M  V30 211 H 21.2463 -1.6107 -1.26165 0
M  V30 212 H 21.2563 -1.70574 -3.70632 0
M  V30 213 H 19.9313 -2.71515 -3.15043 0
M  V30 214 H 18.5083 -0.941795 -3.60811 0
M  V30 215 N 20.6934 1.19889 -1.02296 0
M  V30 216 C 22.1094 1.41462 -0.738954 0
M  V30 217 C 22.3094 1.89721 0.678846 0
M  V30 218 O 21.3654 2.07016 1.4457 0
M  V30 219 C 22.6784 2.43083 -1.77005 0
M  V30 220 C 24.2264 2.5684 -1.78892 0
M  V30 221 C 24.7014 3.61709 -2.80945 0
M  V30 222 N 26.1924 3.69199 -2.79725 0
M  V30 223 C 26.9274 4.50019 -3.55345 0
M  V30 224 N 26.4234 5.34592 -4.40662 0
M  V30 225 N 28.2164 4.44612 -3.43914 0
M  V30 226 H 20.3674 0.868827 -1.93817 0
M  V30 227 H 22.6304 0.44399 -0.837602 0
M  V30 228 H 22.3364 2.14636 -2.78612 0
M  V30 229 H 22.2104 3.4217 -1.58744 0
M  V30 230 H 24.5974 2.84614 -0.779674 0
M  V30 231 H 24.6784 1.57927 -2.01228 0
M  V30 232 H 24.3224 3.34678 -3.82038 0
M  V30 233 H 24.2524 4.60259 -2.5587 0
M  V30 234 H 26.7434 3.08794 -2.17842 0
M  V30 235 H 27.0564 5.93363 -4.95116 0
M  V30 236 H 25.4014 5.34073 -4.44737 0
M  V30 237 H 28.5924 3.7758 -2.76679 0
M  V30 238 H 28.7654 5.0736 -4.031 0
M  V30 239 N 22.1715 0.800033 1.35784 0
M  V30 240 C 23.3965 0.388511 2.03729 0
M  V30 241 C 23.8215 -0.990481 1.5991 0
M  V30 242 O 23.1795 -1.64013 0.772612 0
M  V30 243 C 23.2275 0.4726 3.5749 0
M  V30 244 O 22.3315 -0.51646 4.09153 0
M  V30 245 H 21.6725 0.163271 0.643614 0
M  V30 246 H 24.2025 1.0841 1.73518 0
M  V30 247 H 24.2125 0.34003 4.06581 0
M  V30 248 H 22.8875 1.47848 3.88734 0
M  V30 249 H 21.4645 -0.344673 3.71304 0
M  V30 250 N 23.6496 -1.47581 0.552962 0
M  V30 251 C 24.8776 -2.06875 0.0320556 0
M  V30 252 C 25.2926 -1.40625 -1.25976 0
M  V30 253 O 24.6496 -0.501349 -1.75479 0
M  V30 254 C 24.7006 -3.61092 -0.17167 0
M  V30 255 O 24.4216 -4.24858 1.06899 0
M  V30 256 C 25.9226 -4.37242 -0.730344 0
M  V30 257 H 23.1426 -0.669561 0.043915 0
M  V30 258 H 25.6866 -1.89646 0.765163 0
M  V30 259 H 23.8416 -3.7785 -0.854894 0
M  V30 260 H 24.2556 -5.17334 0.864059 0
M  V30 261 H 25.7296 -5.45842 -0.822203 0
M  V30 262 H 26.2066 -4.03235 -1.74064 0
M  V30 263 H 26.8126 -4.25219 -0.0829543 0
M  V30 264 N 25.1277 -0.289203 -1.54924 0
M  V30 265 C 26.0577 0.58549 -2.2604 0
M  V30 266 C 27.0387 1.14753 -1.25562 0
M  V30 267 O 28.2237 1.17906 -1.54311 0
M  V30 268 C 25.3537 1.76305 -2.99222 0
M  V30 269 C 24.3077 1.33191 -4.06748 0
M  V30 270 C 23.6337 2.5937 -4.6758 0
M  V30 271 C 24.9337 0.471775 -5.20165 0
M  V30 272 H 26.6277 -0.00763532 -2.99399 0
M  V30 273 H 24.1737 -0.00511229 -1.43999 0
M  V30 274 H 26.1267 2.38097 -3.47689 0
M  V30 275 H 24.8507 2.38223 -2.23422 0
M  V30 276 H 23.5097 0.737121 -3.59113 0
M  V30 277 H 23.1577 3.19576 -3.88433 0
M  V30 278 H 22.8577 2.31228 -5.40192 0
M  V30 279 H 24.3817 3.21985 -5.18804 0
M  V30 280 H 25.7957 0.995056 -5.64599 0
M  V30 281 H 24.1927 0.284639 -5.99425 0
M  V30 282 H 25.2627 -0.506041 -4.82252 0
M  V30 283 N 26.6058 1.57591 -0.0167156 0
M  V30 284 C 27.8308 1.9598 0.67872 0
M  V30 285 C 28.2558 0.892546 1.65575 0
M  V30 286 O 27.6138 -0.147772 1.80697 0
M  V30 287 C 27.6618 3.33468 1.37227 0
M  V30 288 O 26.7658 3.28954 2.48722 0
M  V30 289 H 26.1068 0.639339 0.17928 0
M  V30 290 H 28.6368 2.04463 -0.0748802 0
M  V30 291 H 28.6468 3.69417 1.7319 0
M  V30 292 H 27.3218 4.10694 0.656007 0
M  V30 293 H 25.8988 3.04705 2.14963 0
M  V30 294 N 28.0839 -0.256276 1.55502 0
M  V30 295 C 29.0139 -1.32102 1.92539 0
M  V30 296 C 29.9949 -1.50684 0.789194 0
M  V30 297 O 31.1799 -1.63449 1.04872 0
M  V30 298 C 28.3099 -2.67752 2.21192 0
M  V30 299 C 27.2639 -2.63878 3.36975 0
M  V30 300 C 26.5899 -4.03236 3.51147 0
M  V30 301 C 27.8899 -2.21682 4.72921 0
M  V30 302 H 29.5839 -1.01351 2.81724 0
M  V30 303 H 27.1299 -0.486105 1.35547 0
M  V30 304 H 29.0829 -3.42365 2.45691 0
M  V30 305 H 27.8069 -3.0012 1.28824 0
M  V30 306 H 26.4659 -1.91722 3.12471 0
M  V30 307 H 26.1139 -4.32854 2.56216 0
M  V30 308 H 25.8139 -4.01535 4.29003 0
M  V30 309 H 27.3379 -4.79563 3.77957 0
M  V30 310 H 28.7519 -2.86023 4.96854 0
M  V30 311 H 27.1489 -2.3111 5.53812 0
M  V30 312 H 28.2189 -1.16833 4.70615 0
M  V30 313 N 29.562 -1.4872 -0.521534 0
M  V30 314 C 30.973 -1.50607 -1.10337 0
M  V30 315 C 31.324 -0.280612 -1.94183 0
M  V30 316 O 30.449 0.611507 -2.0758 0
M  V30 317 C 31.044 -2.72903 -2.00772 0
M  V30 318 C 29.603 -2.77634 -2.54158 0
M  V30 319 C 28.75 -2.44241 -1.31307 0
M  V30 320 H 31.701 -1.55714 -0.306388 0
M  V30 321 H 31.722 -2.519 -2.85178 0
M  V30 322 H 31.234 -3.62077 -1.39721 0
M  V30 323 H 29.335 -1.92689 -3.18907 0
M  V30 324 H 29.448 -3.79283 -2.92714 0
M  V30 325 H 27.812 -1.95577 -1.63161 0
M  V30 326 H 28.595 -3.35666 -0.719943 0
M  V30 327 N 31.0401 0.771051 -1.3745 0
M  V30 328 C 32.4511 1.34737 -1.29239 0
M  V30 329 C 32.8021 1.96109 0.0596908 0
M  V30 330 O 31.9271 1.93865 0.961534 0
M  V30 331 C 32.5221 2.44973 -2.34037 0
M  V30 332 C 31.0811 2.98372 -2.29458 0
M  V30 333 C 30.2281 1.71595 -2.17831 0
M  V30 334 H 33.1791 0.571256 -1.48062 0
M  V30 335 H 33.2001 3.24471 -1.98744 0
M  V30 336 H 32.7121 2.00276 -3.32432 0
M  V30 337 H 30.8131 3.47443 -1.34589 0
M  V30 338 H 30.9261 3.53939 -3.229 0
M  V30 339 H 29.2901 1.94547 -1.64388 0
M  V30 340 H 30.0731 1.29001 -3.18141 0
M  V30 341 N 32.5182 1.22032 0.997298 0
M  V30 342 C 33.4282 1.00271 2.12092 0
M  V30 343 C 34.4442 -0.047621 1.73935 0
M  V30 344 O 35.6202 0.144136 2.00884 0
M  V30 345 C 32.6852 0.578449 3.4184 0
M  V30 346 C 31.7462 1.70189 3.94125 0
M  V30 347 C 30.9792 1.29778 5.17681 0
M  V30 348 O 31.2022 0.174676 5.70132 0
M  V30 349 O 30.1362 2.11261 5.63607 0
M  V30 350 H 33.9622 1.94398 2.3333 0
M  V30 351 H 31.5472 1.00587 1.10465 0
M  V30 352 H 33.4292 0.351998 4.19927 0
M  V30 353 H 32.1042 -0.334019 3.21972 0
M  V30 354 H 31.0112 1.98282 3.1723 0
M  V30 355 H 32.3442 2.59206 4.18417 0
M  V30 356 N 33.9963 -1.19345 1.0293 0
M  V30 357 C 35.4073 -1.70725 0.755633 0
M  V30 358 C 35.7583 -1.82326 -0.724676 0
M  V30 359 O 34.8833 -1.49471 -1.56484 0
M  V30 360 C 35.4783 -3.10084 1.36503 0
M  V30 361 C 34.0373 -3.58723 1.13994 0
M  V30 362 C 33.1843 -2.35577 1.46283 0
M  V30 363 H 36.1353 -1.0418 1.19718 0
M  V30 364 H 36.1563 -3.72787 0.762217 0
M  V30 365 H 35.6683 -3.01609 2.44241 0
M  V30 366 H 33.7693 -3.72512 0.0807901 0
M  V30 367 H 33.8823 -4.42816 1.82894 0
M  V30 368 H 32.2463 -2.38935 0.88217 0
M  V30 369 H 33.0293 -2.29731 2.55105 0
M  V30 370 N 35.4744 -0.807222 -1.35358 0
M  V30 371 C 36.7204 -0.388463 -1.99045 0
M  V30 372 C 37.0534 1.04184 -1.63888 0
M  V30 373 O 36.3284 1.72292 -0.902535 0
M  V30 374 C 36.6114 -0.572783 -3.55515 0
M  V30 375 C 36.4644 -2.04807 -4.00468 0
M  V30 376 C 37.7834 0.00114064 -4.401 0
M  V30 377 H 34.9024 -0.142619 -0.723069 0
M  V30 378 H 37.5444 -1.01687 -1.60498 0
M  V30 379 H 35.6944 -0.0378425 -3.88482 0
M  V30 380 H 37.3664 -2.64544 -3.77908 0
M  V30 381 H 35.6094 -2.54427 -3.51353 0
M  V30 382 H 36.2804 -2.12792 -5.09337 0
M  V30 383 H 38.7564 -0.455716 -4.13597 0
M  V30 384 H 37.6324 -0.157737 -5.48673 0
M  V30 385 H 37.8934 1.09488 -4.28328 0
M  V30 386 N 36.9525 1.47285 -0.560781 0
M  V30 387 C 38.2295 1.9558 0.0277798 0
M  V30 388 C 38.6095 1.5034 1.48192 0
M  V30 389 O 37.9575 0.743882 2.16052 0
M  V30 390 C 38.1675 3.48789 -0.121418 0
M  V30 391 C 39.5155 4.24594 0.0220912 0
M  V30 392 O 40.5395 3.56166 -0.0491439 0
M  V30 393 O 39.3985 5.46217 0.175958 0
M  V30 394 H 36.4925 0.824663 0.0621342 0
M  V30 395 H 39.0385 1.5767 -0.627556 0
M  V30 396 H 37.8105 3.74533 -1.13316 0
M  V30 397 H 37.4335 3.93473 0.571366 0
M  V30 398 N 38.4306 0.297415 1.54768 0
M  V30 399 C 39.6796 -0.313669 1.99246 0
M  V30 400 C 39.9926 -1.55281 1.18942 0
M  V30 401 O 41.1986 -2.23825 1.5367 0
M  V30 402 C 39.6546 -0.609407 3.54703 0
M  V30 403 C 39.2626 0.611192 4.43811 0
M  V30 404 C 41.0066 -1.18188 4.07715 0
M  V30 405 C 38.9136 0.288805 5.90694 0
M  V30 406 H 37.8436 -0.120979 0.744231 0
M  V30 407 H 40.4946 0.40556 1.78962 0
M  V30 408 H 38.8766 -1.38813 3.70873 0
M  V30 409 H 40.0506 1.3875 4.39414 0
M  V30 410 H 38.3656 1.10205 4.01552 0
M  V30 411 H 40.9626 -1.43727 5.15021 0
M  V30 412 H 41.3056 -2.12299 3.58099 0
M  V30 413 H 41.8386 -0.464944 3.95074 0
M  V30 414 H 38.5776 1.19838 6.44453 0
M  V30 415 H 38.0976 -0.450305 5.98107 0
M  V30 416 H 39.7766 -0.110933 6.46905 0
M  V30 417 N 39.9087 -1.5758 0.0250728 0
M  V30 418 C 41.1577 -1.90811 -0.653767 0
M  V30 419 C 41.4707 -0.90273 -1.73523 0
M  V30 420 O 42.6767 -1.12614 -2.47043 0
M  V30 421 C 41.1327 -3.38804 -1.21409 0
M  V30 422 C 40.7407 -4.47692 -0.166126 0
M  V30 423 C 42.4847 -3.81108 -1.86967 0
M  V30 424 C 40.3917 -5.86779 -0.737856 0
M  V30 425 H 39.3217 -0.712063 -0.247956 0
M  V30 426 H 41.9727 -1.83281 0.0897137 0
M  V30 427 H 40.3547 -3.41252 -2.00905 0
M  V30 428 H 41.5287 -4.56797 0.606079 0
M  V30 429 H 39.8437 -4.14565 0.390466 0
M  V30 430 H 42.4407 -4.82375 -2.30692 0
M  V30 431 H 42.7837 -3.15953 -2.71071 0
M  V30 432 H 43.3167 -3.81065 -1.14167 0
M  V30 433 H 40.0557 -6.55468 0.0649577 0
M  V30 434 H 39.5757 -5.81288 -1.47864 0
M  V30 435 H 41.2547 -6.35223 -1.22884 0
M  V30 436 N 41.3868 0.248026 -1.55636 0
M  V30 437 C 42.8028 0.596483 -1.48035 0
M  V30 438 C 43.0028 1.88386 -0.715039 0
M  V30 439 O 42.0588 2.51319 -0.243944 0
M  V30 440 C 43.3718 0.700258 -2.92433 0
M  V30 441 C 44.9198 0.792659 -3.02797 0
M  V30 442 C 45.3948 0.928005 -4.485 0
M  V30 443 N 46.8858 0.992903 -4.52433 0
M  V30 444 C 47.6208 1.11687 -5.62418 0
M  V30 445 N 47.1168 1.20645 -6.82214 0
M  V30 446 N 48.9098 1.14994 -5.50212 0
M  V30 447 H 41.0608 -0.597109 -2.03834 0
M  V30 448 H 43.3238 -0.205925 -0.925364 0
M  V30 449 H 43.0298 -0.175658 -3.51261 0
M  V30 450 H 42.9038 1.57255 -3.42857 0
M  V30 451 H 45.2908 1.65903 -2.4405 0
M  V30 452 H 45.3718 -0.104762 -2.55585 0
M  V30 453 H 45.0158 0.0661971 -5.07857 0
M  V30 454 H 44.9458 1.84045 -4.93391 0
M  V30 455 H 47.4368 0.935064 -3.66149 0
M  V30 456 H 47.7498 1.30008 -7.61786 0
M  V30 457 H 46.0948 1.17605 -6.84977 0
M  V30 458 H 49.2858 1.07643 -4.55555 0
M  V30 459 H 49.4588 1.24311 -6.35965 0
M  V30 460 N 42.8649 1.48995 0.513639 0
M  V30 461 C 44.0899 1.61792 1.29762 0
M  V30 462 C 44.5149 0.284475 1.85936 0
M  V30 463 O 43.8729 -0.746185 1.65232 0
M  V30 464 C 43.9209 2.67993 2.41272 0
M  V30 465 O 43.0249 2.26287 3.44772 0
M  V30 466 H 42.3659 0.541963 0.38363 0
M  V30 467 H 44.8959 1.95097 0.616307 0
M  V30 468 H 44.9059 2.89772 2.87221 0
M  V30 469 H 43.5809 3.64791 1.9975 0
M  V30 470 H 42.1579 2.14788 3.04829 0
M  V30 471 N 44.343 -0.763751 1.37857 0
M  V30 472 C 45.29 -1.87726 1.34267 0
M  V30 473 C 46.26 -1.64807 0.206879 0
M  V30 474 O 47.445 -1.86613 0.397508 0
M  V30 475 C 44.585 -3.24896 1.16346 0
M  V30 476 C 43.698 -3.59716 2.39225 0
M  V30 477 C 42.833 -4.86137 2.14114 0
M  V30 478 C 41.872 -5.13711 3.32817 0
M  V30 479 N 41.009 -6.31323 3.07206 0
M  V30 480 H 45.849 -1.90129 2.29466 0
M  V30 481 H 43.386 -0.929433 1.14017 0
M  V30 482 H 45.344 -4.04036 1.03975 0
M  V30 483 H 43.974 -3.21847 0.247909 0
M  V30 484 H 43.026 -2.75498 2.62307 0
M  V30 485 H 44.338 -3.76027 3.27728 0
M  V30 486 H 43.492 -5.73198 1.9882 0
M  V30 487 H 42.231 -4.71945 1.22961 0
M  V30 488 H 41.236 -4.25123 3.48641 0
M  V30 489 H 42.461 -5.29807 4.24832 0
M  V30 490 H 40.407 -6.18474 2.1869 0
M  V30 491 H 40.324 -6.48087 3.89254 0
M  V30 492 H 41.592 -7.213 2.95546 0
M  V30 493 N 45.8211 -1.22559 -0.990812 0
M  V30 494 C 47.0491 -1.07779 -1.76611 0
M  V30 495 C 47.4641 0.371513 -1.85109 0
M  V30 496 O 46.8211 1.25737 -1.32274 0
M  V30 497 C 46.8721 -1.68512 -3.19822 0
M  V30 498 O 46.5931 -3.07774 -3.1178 0
M  V30 499 C 48.0941 -1.59035 -4.13791 0
M  V30 500 H 45.3141 -0.377729 -0.554583 0
M  V30 501 H 47.8581 -1.62195 -1.24551 0
M  V30 502 H 46.0131 -1.18154 -3.68942 0
M  V30 503 H 46.4271 -3.37062 -4.01858 0
M  V30 504 H 47.9011 -2.0625 -5.1202 0
M  V30 505 H 48.3781 -0.547273 -4.35777 0
M  V30 506 H 48.9841 -2.08709 -3.70568 0
M  V30 507 N 47.2992 1.18797 -1.03562 0
M  V30 508 C 48.5392 1.90346 -0.744832 0
M  V30 509 C 48.9032 1.78231 0.713972 0
M  V30 510 O 50.1042 2.44441 1.11813 0
M  V30 511 C 48.3752 3.36942 -1.19184 0
M  V30 512 S 49.9342 4.26638 -1.02593 0
M  V30 513 H 46.7522 0.657343 -0.270963 0
M  V30 514 H 49.3542 1.43579 -1.32685 0
M  V30 515 H 48.0582 3.43287 -2.24905 0
M  V30 516 H 47.5892 3.88745 -0.603397 0
M  V30 517 H 49.6042 4.96164 0.0596033 0
M  V30 518 N 48.7773 0.814389 1.34928 0
M  V30 519 C 50.0023 0.410097 2.03305 0
M  V30 520 C 50.4273 -0.973464 1.60951 0
M  V30 521 O 49.7853 -1.63185 0.789964 0
M  V30 522 C 49.8333 0.51049 3.56968 0
M  V30 523 O 48.9373 -0.473035 4.09678 0
M  V30 524 H 48.2783 0.170088 0.641846 0
M  V30 525 H 50.8083 1.10244 1.72358 0
M  V30 526 H 50.8183 0.383135 4.06197 0
M  V30 527 H 49.4933 1.51963 3.87144 0
M  V30 528 H 48.0703 -0.305272 3.71648 0
M  V30 529 N 50.2554 -1.46986 0.568584 0
M  V30 530 C 51.6714 -1.57946 0.229189 0
M  V30 531 C 51.8714 -1.56567 -1.26843 0
M  V30 532 O 50.9274 -1.47511 -2.04931 0
M  V30 533 C 52.2404 -2.87963 0.865909 0
M  V30 534 C 53.7884 -3.01568 0.838188 0
M  V30 535 C 54.2634 -4.34301 1.45419 0
M  V30 536 N 55.7544 -4.40965 1.41788 0
M  V30 537 C 56.4894 -5.42256 1.86403 0
M  V30 538 N 55.9854 -6.50297 2.38926 0
M  V30 539 N 57.7784 -5.3337 1.77405 0
M  V30 540 H 49.9294 -1.46126 1.54146 0
M  V30 541 H 52.1924 -0.696156 0.643484 0
M  V30 542 H 51.8984 -2.94742 1.91886 0
M  V30 543 H 51.7724 -3.75423 0.365687 0
M  V30 544 H 54.1594 -2.94379 -0.206106 0
M  V30 545 H 54.2404 -2.1562 1.37629 0
M  V30 546 H 53.8844 -4.42247 2.49761 0
M  V30 547 H 53.8144 -5.19 0.891435 0
M  V30 548 H 56.3054 -3.63484 1.03381 0
M  V30 549 H 56.6184 -7.23777 2.70863 0
M  V30 550 H 54.9634 -6.51155 2.42944 0
M  V30 551 H 58.1544 -4.47865 1.3614 0
M  V30 552 H 58.3274 -6.12169 2.12492 0
M  V30 553 N 51.7335 -0.305618 -1.54608 0
M  V30 554 C 53.1495 0.0476228 -1.59529 0
M  V30 555 C 53.3495 1.52025 -1.32252 0
M  V30 556 O 52.4055 2.27368 -1.09818 0
M  V30 557 C 53.7185 -0.354471 -2.98603 0
M  V30 558 C 55.2665 -0.303622 -3.11524 0
M  V30 559 C 55.7415 -0.680608 -4.52915 0
M  V30 560 N 57.2325 -0.63332 -4.5885 0
M  V30 561 C 57.9675 -0.897432 -5.66334 0
M  V30 562 N 57.4635 -1.22775 -6.81834 0
M  V30 563 N 59.2565 -0.824186 -5.56025 0
M  V30 564 H 51.4075 -1.2653 -1.70599 0
M  V30 565 H 53.6705 -0.513291 -0.797017 0
M  V30 566 H 53.3765 -1.3798 -3.23503 0
M  V30 567 H 53.2505 0.289568 -3.76087 0
M  V30 568 H 55.6375 0.712472 -2.8637 0
M  V30 569 H 55.7185 -0.982348 -2.36185 0
M  V30 570 H 55.3625 -1.69453 -4.78799 0
M  V30 571 H 55.2925 0.0202385 -5.26596 0
M  V30 572 H 57.7835 -0.389138 -3.75891 0
M  V30 573 H 58.0965 -1.41513 -7.59733 0
M  V30 574 H 56.4415 -1.26583 -6.83375 0
M  V30 575 H 59.6325 -0.565748 -4.64669 0
M  V30 576 H 59.8055 -1.03338 -6.39707 0
M  V30 577 N 53.2116 1.57565 -0.0334293 0
M  V30 578 C 54.4576 1.92262 0.645226 0
M  V30 579 C 54.7906 0.910543 1.71531 0
M  V30 580 O 54.0656 -0.066099 1.94388 0
M  V30 581 C 54.3486 3.37422 1.2577 0
M  V30 582 C 54.2016 4.49369 0.196891 0
M  V30 583 C 55.5206 3.82628 2.17449 0
M  V30 584 H 52.6396 0.699171 0.233085 0
M  V30 585 H 55.2816 1.89779 -0.0915694 0
M  V30 586 H 53.4316 3.39669 1.88566 0
M  V30 587 H 55.1036 4.59254 -0.433962 0
M  V30 588 H 53.3466 4.31168 -0.477137 0
M  V30 589 H 54.0176 5.47978 0.665124 0
M  V30 590 H 56.4936 3.82145 1.64634 0
M  V30 591 H 55.3696 4.84883 2.57254 0
M  V30 592 H 55.6306 3.18376 3.0674 0
M  V30 593 N 54.6897 -0.239769 1.55765 0
M  V30 594 C 55.6367 -1.29696 1.90913 0
M  V30 595 C 56.6067 -1.47478 0.764164 0
M  V30 596 O 57.7917 -1.61345 1.01845 0
M  V30 597 C 54.9317 -2.64598 2.21544 0
M  V30 598 C 54.0447 -2.54765 3.48882 0
M  V30 599 C 53.1797 -3.82069 3.69049 0
M  V30 600 C 52.2187 -3.66883 4.89963 0
M  V30 601 N 51.3557 -4.86094 5.06614 0
M  V30 602 H 56.1957 -0.990224 2.81067 0
M  V30 603 H 53.7327 -0.477684 1.39128 0
M  V30 604 H 55.6907 -3.43132 2.3731 0
M  V30 605 H 54.3207 -2.93405 1.34585 0
M  V30 606 H 53.3727 -1.67763 3.41409 0
M  V30 607 H 54.6847 -2.39457 4.37563 0
M  V30 608 H 53.8387 -4.69046 3.84812 0
M  V30 609 H 52.5777 -4.00282 2.78614 0
M  V30 610 H 51.5827 -2.78289 4.74168 0
M  V30 611 H 52.8077 -3.50157 5.81865 0
M  V30 612 H 50.7537 -5.04655 4.19117 0
M  V30 613 H 50.6707 -4.73443 5.89396 0
M  V30 614 H 51.9387 -5.74549 5.26795 0
M  V30 615 N 56.1678 -1.49265 -0.50573 0
M  V30 616 C 57.4168 -1.57761 -1.25675 0
M  V30 617 C 57.7298 -0.267371 -1.93764 0
M  V30 618 O 58.9358 -0.230827 -2.70517 0
M  V30 619 C 57.3918 -2.78332 -2.28165 0
M  V30 620 C 56.9998 -4.16096 -1.66037 0
M  V30 621 C 58.7438 -2.96155 -3.04125 0
M  V30 622 C 56.6508 -5.27895 -2.6661 0
M  V30 623 H 55.5808 -0.587391 -0.472745 0
M  V30 624 H 58.2318 -1.75644 -0.53118 0
M  V30 625 H 56.6138 -2.53934 -3.03865 0
M  V30 626 H 57.7878 -4.50612 -0.963622 0
M  V30 627 H 56.1028 -4.03591 -1.02484 0
M  V30 628 H 58.6998 -3.76849 -3.79327 0
M  V30 629 H 59.0428 -2.06534 -3.61455 0
M  V30 630 H 59.5758 -3.2057 -2.35541 0
M  V30 631 H 56.3148 -6.1956 -2.14068 0
M  V30 632 H 55.8348 -4.97839 -3.34539 0
M  V30 633 H 57.5138 -5.57031 -3.29129 0
M  V30 634 N 57.6459 0.756429 -1.3826 0
M  V30 635 C 58.5939 1.89149 -1.35372 0
M  V30 636 C 59.5879 1.67691 -0.24004 0
M  V30 637 O 60.7939 1.75294 -0.408919 0
M  V30 638 H 57.1689 0.622271 -0.422236 0
M  V30 639 H 59.1399 1.88701 -2.31159 0
M  V30 640 C 57.8889 3.26599 -1.19284 0
M  V30 641 H 57.2119 3.43695 -2.0424 0
M  V30 642 H 58.6519 4.06274 -1.21316 0
M  V30 643 C 57.1109 3.3675 0.100454 0
M  V30 644 O 57.6409 3.86951 1.07851 0
M  V30 645 N 55.8469 2.90179 0.15633 0
M  V30 646 H 55.3939 2.49517 -0.640253 0
M  V30 647 H 55.3519 2.97352 1.02123 0
M  V30 648 N 59.124 1.23083 0.984299 0
M  V30 649 C 60.37 1.06214 1.72761 0
M  V30 650 C 60.703 -0.400584 1.90024 0
M  V30 651 O 59.978 -1.29672 1.44967 0
M  V30 652 C 60.261 1.78375 3.12817 0
M  V30 653 C 60.114 3.32296 3.03149 0
M  V30 654 C 61.433 1.54309 4.12161 0
M  V30 655 H 58.552 0.387251 0.627061 0
M  V30 656 H 61.194 1.51536 1.14616 0
M  V30 657 H 59.344 1.39848 3.62457 0
M  V30 658 H 61.016 3.8032 2.61064 0
M  V30 659 H 59.259 3.6153 2.39747 0
M  V30 660 H 59.93 3.77972 4.02295 0
M  V30 661 H 62.406 1.87791 3.71314 0
M  V30 662 H 61.282 2.07281 5.08258 0
M  V30 663 H 61.543 0.477572 4.39513 0
M  V30 664 N 60.6021 -1.18246 1.0419 0
M  V30 665 C 61.8501 -1.87886 0.744543 0
M  V30 666 C 62.1711 -1.8082 -0.730006 0
M  V30 667 O 61.4411 -1.22736 -1.52685 0
M  V30 668 H 60.0211 -0.695556 0.272417 0
M  V30 669 H 62.6831 -1.43494 1.31892 0
M  V30 670 H 61.7791 -2.9389 1.05049 0
M  V30 671 N 62.0802 -0.821533 -1.34494 0
M  V30 672 C 63.3282 -0.408139 -1.97936 0
M  V30 673 C 63.6492 1.03193 -1.65457 0
M  V30 674 O 62.9192 1.71622 -0.944595 0
M  V30 675 H 61.4992 -0.147928 -0.732206 0
M  V30 676 H 64.1612 -1.05067 -1.64155 0
M  V30 677 H 63.2572 -0.52601 -3.07635 0
M  V30 678 N 63.5583 1.46682 -0.576371 0
M  V30 679 C 64.4883 2.33028 0.148397 0
M  V30 680 C 65.4693 1.44961 0.889956 0
M  V30 681 O 66.6543 1.73789 0.866662 0
M  V30 682 C 63.7843 3.27117 1.1667 0
M  V30 683 C 62.7383 4.24575 0.540386 0
M  V30 684 C 62.0643 5.08126 1.6647 0
M  V30 685 C 63.3643 5.19722 -0.518331 0
M  V30 686 H 65.0583 2.93875 -0.572509 0
M  V30 687 H 62.6043 1.41315 -0.276768 0
M  V30 688 H 64.5573 3.86374 1.68204 0
M  V30 689 H 63.2813 2.64364 1.9178 0
M  V30 690 H 61.9403 3.66571 0.0461769 0
M  V30 691 H 61.5883 4.41762 2.40531 0
M  V30 692 H 61.2883 5.74122 1.25131 0
M  V30 693 H 62.8123 5.70246 2.18293 0
M  V30 694 H 64.2263 5.73232 -0.0883058 0
M  V30 695 H 62.6233 5.94026 -0.851679 0
M  V30 696 H 63.6933 4.64037 -1.40703 0
M  V30 697 N 65.0364 0.313813 1.54444 0
M  V30 698 C 65.9844 -0.572171 2.25453 0
M  V30 699 C 66.9784 -1.12657 1.2651 0
M  V30 700 O 68.1844 -1.07573 1.44319 0
M  V30 701 H 64.5594 -0.203146 0.724041 0
M  V30 702 H 66.5304 0.0491145 2.9836 0
M  V30 703 C 65.2794 -1.72626 3.0182 0
M  V30 704 H 64.6024 -1.30891 3.77767 0
M  V30 705 H 66.0424 -2.32199 3.54767 0
M  V30 706 C 64.5014 -2.63806 2.09542 0
M  V30 707 O 65.0314 -3.65256 1.67185 0
M  V30 708 N 63.2374 -2.31824 1.75232 0
M  V30 709 H 62.7844 -1.49368 2.09873 0
M  V30 710 H 62.7424 -2.93095 1.13767 0
M  V30 711 N 66.5145 -1.57545 0.0417849 0
M  V30 712 C 67.4645 -2.07483 -0.945247 0
M  V30 713 C 68.4485 -0.977983 -1.27767 0
M  V30 714 O 69.6405 -1.24142 -1.26166 0
M  V30 715 C 66.7695 -2.61576 -2.22335 0
M  V30 716 C 65.8555 -3.78213 -1.91874 0
M  V30 717 N 66.2465 -4.88344 -1.31733 0
M  V30 718 C 64.5445 -3.8694 -2.21796 0
M  V30 719 C 65.2455 -5.69462 -1.1869 0
M  V30 720 N 64.2215 -5.16771 -1.68666 0
M  V30 721 H 68.0235 -2.90029 -0.475441 0
M  V30 722 H 65.5375 -1.61581 -0.162911 0
M  V30 723 H 67.5345 -2.95651 -2.93932 0
M  V30 724 H 66.1945 -1.80465 -2.69931 0
M  V30 725 H 67.2055 -5.08335 -0.990729 0
M  V30 726 H 63.8825 -3.16757 -2.71977 0
M  V30 727 H 65.2725 -6.68023 -0.720793 0
M  V30 728 N 67.9926 0.231505 -1.5589 0
M  V30 729 C 68.9026 1.308 -1.94752 0
M  V30 730 C 69.9186 1.51826 -0.849989 0
M  V30 731 O 71.0946 1.6515 -1.15271 0
M  V30 732 C 68.1596 2.63968 -2.24771 0
M  V30 733 C 67.2206 2.51331 -3.48039 0
M  V30 734 C 66.4536 3.78148 -3.76616 0
M  V30 735 O 66.6766 4.80722 -3.07022 0
M  V30 736 O 65.6106 3.75857 -4.70123 0
M  V30 737 H 69.4366 1.0083 -2.86474 0
M  V30 738 H 67.0216 0.433547 -1.42971 0
M  V30 739 H 68.9036 3.42633 -2.45318 0
M  V30 740 H 67.5786 2.9364 -1.36225 0
M  V30 741 H 66.4856 1.709 -3.32782 0
M  V30 742 H 67.8186 2.26601 -4.36936 0
M  V30 743 N 69.4707 1.49531 0.497807 0
M  V30 744 C 70.7167 1.59415 1.25358 0
M  V30 745 C 71.0497 0.281422 1.9215 0
M  V30 746 O 70.3247 -0.715249 1.80871 0
M  V30 747 C 70.6077 2.75566 2.3181 0
M  V30 748 C 70.4607 4.16642 1.69498 0
M  V30 749 C 71.7797 2.87347 3.33346 0
M  V30 750 H 68.8987 0.580244 0.454408 0
M  V30 751 H 71.5407 1.81827 0.551262 0
M  V30 752 H 69.6907 2.56587 2.91711 0
M  V30 753 H 71.3627 4.47145 1.13399 0
M  V30 754 H 69.6057 4.22141 0.998978 0
M  V30 755 H 70.2767 4.93792 2.46725 0
M  V30 756 H 72.7527 3.04634 2.83438 0
M  V30 757 H 71.6287 3.70289 4.05188 0
M  V30 758 H 71.8897 1.96834 3.95865 0
M  V30 759 N 70.9488 -0.749086 1.3866 0
M  V30 760 C 71.8788 -1.8764 1.38973 0
M  V30 761 C 72.8598 -1.68178 0.255004 0
M  V30 762 O 74.0448 -1.88704 0.458754 0
M  V30 763 C 71.1748 -3.25222 1.21851 0
M  V30 764 C 70.1288 -3.59295 2.32575 0
M  V30 765 C 69.4548 -4.95663 2.00555 0
M  V30 766 C 70.7548 -3.63709 3.7485 0
M  V30 767 H 72.4488 -1.87635 2.3331 0
M  V30 768 H 69.9948 -0.901329 1.12303 0
M  V30 769 H 71.9478 -4.03746 1.20695 0
M  V30 770 H 70.6718 -3.25719 0.239775 0
M  V30 771 H 69.3308 -2.83093 2.32925 0
M  V30 772 H 68.9788 -4.92724 1.01154 0
M  V30 773 H 68.6788 -5.19429 2.74714 0
M  V30 774 H 70.2028 -5.7656 2.01024 0
M  V30 775 H 71.6168 -4.32338 3.76506 0
M  V30 776 H 70.0138 -3.98986 4.48252 0
M  V30 777 H 71.0838 -2.63834 4.06841 0
M  V30 778 N 72.4269 -1.23603 -0.977757 0
M  V30 779 C 73.6729 -1.08136 -1.72274 0
M  V30 780 C 74.0279 0.377453 -1.88661 0
M  V30 781 O 73.3209 1.27552 -1.42972 0
M  V30 782 C 73.5149 -1.7433 -3.11999 0
M  V30 783 C 73.3439 -3.26498 -3.0924 0
M  V30 784 C 72.1139 -3.9567 -3.14282 0
M  V30 785 C 74.3119 -4.2323 -2.92201 0
M  V30 786 N 72.2939 -5.34799 -3.01436 0
M  V30 787 C 73.6649 -5.49289 -2.87544 0
M  V30 788 C 75.7199 -4.13931 -2.76705 0
M  V30 789 C 74.4229 -6.67116 -2.68978 0
M  V30 790 C 76.4489 -5.31424 -2.59504 0
M  V30 791 C 75.8109 -6.5641 -2.55548 0
M  V30 792 H 71.9099 -0.450247 -0.639376 0
M  V30 793 H 74.4939 -1.5637 -1.16002 0
M  V30 794 H 72.6649 -1.28624 -3.66484 0
M  V30 795 H 74.3969 -1.51815 -3.75146 0
M  V30 796 H 71.1519 -3.46767 -3.22567 0
M  V30 797 H 71.5759 -6.07748 -2.98281 0
M  V30 798 H 76.2179 -3.1807 -2.78552 0
M  V30 799 H 73.9359 -7.63109 -2.65876 0
M  V30 800 H 77.5219 -5.26072 -2.48474 0
M  V30 801 H 76.4019 -7.45795 -2.42405 0
M  V30 802 N 73.905 1.17692 -1.04816 0
M  V30 803 C 75.321 1.39863 -0.768794 0
M  V30 804 C 75.521 1.91118 0.638451 0
M  V30 805 O 74.577 2.10036 1.40146 0
M  V30 806 C 75.89 2.39274 -1.82122 0
M  V30 807 C 77.438 2.52987 -1.843 0
M  V30 808 C 77.913 3.55669 -2.88555 0
M  V30 809 N 79.404 3.63183 -2.87493 0
M  V30 810 C 80.139 4.42381 -3.64811 0
M  V30 811 N 79.635 5.25125 -4.51903 0
M  V30 812 N 81.428 4.37217 -3.53267 0
M  V30 813 H 73.579 0.82752 -1.95617 0
M  V30 814 H 75.842 0.426123 -0.846831 0
M  V30 815 H 75.548 2.08678 -2.83102 0
M  V30 816 H 75.422 3.38725 -1.65967 0
M  V30 817 H 77.809 2.82896 -0.839869 0
M  V30 818 H 77.89 1.53623 -2.04532 0
M  V30 819 H 77.534 3.26499 -3.89051 0
M  V30 820 H 77.464 4.54728 -2.65575 0
M  V30 821 H 79.955 3.04103 -2.24343 0
M  V30 822 H 80.268 5.82728 -5.07591 0
M  V30 823 H 78.613 5.24519 -4.55966 0
M  V30 824 H 81.804 3.71626 -2.84625 0
M  V30 825 H 81.977 4.98696 -4.13771 0
M  V30 826 N 75.3831 0.828654 1.34056 0
M  V30 827 C 76.6111 0.43262 2.02326 0
M  V30 828 C 77.0261 -0.963147 1.62385 0
M  V30 829 O 76.3831 -1.62425 0.832121 0
M  V30 830 C 76.4341 0.53182 3.57567 0
M  V30 831 O 76.1551 1.87258 3.96063 0
M  V30 832 C 77.6561 0.131422 4.43105 0
M  V30 833 H 74.8761 0.172923 0.648335 0
M  V30 834 H 77.4201 1.1184 1.71208 0
M  V30 835 H 75.5751 -0.105938 3.87255 0
M  V30 836 H 75.9891 1.85087 4.90758 0
M  V30 837 H 77.4631 0.251904 5.51425 0
M  V30 838 H 77.9401 -0.925645 4.29335 0
M  V30 839 H 78.5461 0.743207 4.18756 0
M  V30 840 N 76.8612 -1.46375 0.584142 0
M  V30 841 C 77.7912 -2.33103 -0.136037 0
M  V30 842 C 78.7722 -1.45431 -0.882255 0
M  V30 843 O 79.9572 -1.74246 -0.857434 0
M  V30 844 C 77.0872 -3.27731 -1.14933 0
M  V30 845 C 76.0412 -4.24855 -0.517862 0
M  V30 846 C 75.3672 -5.09001 -1.63773 0
M  V30 847 C 76.6672 -5.19439 0.545886 0
M  V30 848 H 78.3612 -2.93568 0.588086 0
M  V30 849 H 75.9072 -1.41166 0.284259 0
M  V30 850 H 77.8602 -3.87261 -1.66153 0
M  V30 851 H 76.5842 -2.65377 -1.90375 0
M  V30 852 H 75.2432 -3.6659 -0.0267361 0
M  V30 853 H 74.8912 -4.43031 -2.38185 0
M  V30 854 H 74.5912 -5.74777 -1.22085 0
M  V30 855 H 76.1152 -5.71396 -2.15266 0
M  V30 856 H 77.5292 -5.73177 0.118704 0
M  V30 857 H 75.9262 -5.93566 0.88317 0
M  V30 858 H 76.9962 -4.63285 1.43162 0
M  V30 859 N 78.3393 -0.321999 -1.54275 0
M  V30 860 C 79.6163 0.335232 -1.92706 0
M  V30 861 C 79.9963 1.70006 -1.25145 0
M  V30 862 O 79.3443 2.25067 -0.394596 0
M  V30 863 C 79.5543 0.429008 -3.46353 0
M  V30 864 C 80.9023 0.690029 -4.18956 0
M  V30 865 O 81.9263 0.511992 -3.52501 0
M  V30 866 O 80.7853 1.03338 -5.36641 0
M  V30 867 H 77.8793 0.191143 -0.804608 0
M  V30 868 H 80.4253 -0.3716 -1.65581 0
M  V30 869 H 79.1973 -0.529611 -3.87699 0
M  V30 870 H 78.8203 1.18348 -3.79578 0
M  V30 871 N 79.8174 1.5752 -0.0501392 0
M  V30 872 C 81.2334 1.56631 0.306402 0
M  V30 873 C 81.4334 1.0577 1.71508 0
M  V30 874 O 80.4894 0.713837 2.422 0
M  V30 875 C 81.8024 3.00393 0.135811 0
M  V30 876 C 83.3504 3.12315 0.206993 0
M  V30 877 C 83.8254 4.57954 0.064944 0
M  V30 878 N 85.3164 4.63041 0.121254 0
M  V30 879 C 86.0514 5.73389 0.0354381 0
M  V30 880 N 85.5474 6.92724 -0.102666 0
M  V30 881 N 87.3404 5.62026 0.090946 0
M  V30 882 H 79.4914 1.88903 -0.971046 0
M  V30 883 H 81.7544 0.869876 -0.376855 0
M  V30 884 H 81.4604 3.41635 -0.835384 0
M  V30 885 H 81.3344 3.66373 0.897275 0
M  V30 886 H 83.7214 2.70973 1.16866 0
M  V30 887 H 83.8024 2.49016 -0.585208 0
M  V30 888 H 83.4464 4.99981 -0.893394 0
M  V30 889 H 83.3764 5.19258 0.876277 0
M  V30 890 H 85.8674 3.77216 0.227284 0
M  V30 891 H 86.1804 7.72633 -0.160882 0
M  V30 892 H 84.5254 6.94864 -0.137737 0
M  V30 893 H 87.7164 4.67684 0.197388 0
M  V30 894 H 87.8894 6.47997 0.0206089 0
M  V30 895 N 81.2955 -0.223234 1.56011 0
M  V30 896 C 82.2255 -1.27988 1.95298 0
M  V30 897 C 83.2065 -1.48976 0.820979 0
M  V30 898 O 84.3915 -1.61188 1.08315 0
M  V30 899 C 81.5215 -2.63 2.26822 0
M  V30 900 C 80.4755 -2.56671 3.42497 0
M  V30 901 C 79.8015 -3.95697 3.59622 0
M  V30 902 C 81.1015 -2.11601 4.77517 0
M  V30 903 H 82.7955 -0.953525 2.8381 0
M  V30 904 H 80.3415 -0.457244 1.36548 0
M  V30 905 H 82.2945 -3.37077 2.52898 0
M  V30 906 H 81.0185 -2.9732 1.35161 0
M  V30 907 H 79.6775 -1.85051 3.16467 0
M  V30 908 H 79.3255 -4.27322 2.6534 0
M  V30 909 H 79.0255 -3.92345 4.37424 0
M  V30 910 H 80.5495 -4.71438 3.88044 0
M  V30 911 H 81.9635 -2.7542 5.02809 0
M  V30 912 H 80.3605 -2.19311 5.5859 0
M  V30 913 H 81.4305 -1.06824 4.72987 0
M  V30 914 N 82.7736 -1.49793 -0.48987 0
M  V30 915 C 84.1846 -1.52914 -1.07118 0
M  V30 916 C 84.5356 -0.321738 -1.93544 0
M  V30 917 O 83.6606 0.567338 -2.08831 0
M  V30 918 C 84.2556 -2.771 -1.94938 0
M  V30 919 C 82.8146 -2.82963 -2.48212 0
M  V30 920 C 81.9616 -2.46972 -1.26096 0
M  V30 921 H 84.9126 -1.56329 -0.273289 0
M  V30 922 H 84.9336 -2.57892 -2.79771 0
M  V30 923 H 84.4456 -3.64959 -1.32009 0
M  V30 924 H 82.5466 -1.99411 -3.14748 0
M  V30 925 H 82.6596 -3.85406 -2.84603 0
M  V30 926 H 81.0236 -1.98994 -1.58976 0
M  V30 927 H 81.8066 -3.37118 -0.648581 0
M  V30 928 N 84.2517 0.741722 -1.39055 0
M  V30 929 C 85.6677 1.04638 -1.20512 0
M  V30 930 C 85.8677 2.01405 -0.0620218 0
M  V30 931 O 84.9237 2.45547 0.588457 0
M  V30 932 C 86.2367 1.6151 -2.53643 0
M  V30 933 C 87.7847 1.73623 -2.6043 0
M  V30 934 C 88.2597 2.33906 -3.93767 0
M  V30 935 N 89.7507 2.41323 -3.9537 0
M  V30 936 C 90.4857 2.88888 -4.95309 0
M  V30 937 N 89.9817 3.36401 -6.05645 0
M  V30 938 N 91.7747 2.88037 -4.82692 0
M  V30 939 H 83.9257 0.0998155 -2.12165 0
M  V30 940 H 86.1887 0.106907 -0.941953 0
M  V30 941 H 85.8947 0.978739 -3.37807 0
M  V30 942 H 85.7687 2.60411 -2.72885 0
M  V30 943 H 88.1557 2.36384 -1.76655 0
M  V30 944 H 88.2367 0.733945 -2.45045 0
M  V30 945 H 87.8807 1.71776 -4.7797 0
M  V30 946 H 87.8107 3.34799 -4.06469 0
M  V30 947 H 90.3017 2.07734 -3.15682 0
M  V30 948 H 90.6147 3.71186 -6.77821 0
M  V30 949 H 88.9597 3.34427 -6.09248 0
M  V30 950 H 92.1507 2.50237 -3.95599 0
M  V30 951 H 92.3237 3.24792 -5.60726 0
M  V30 952 N 85.7298 1.2412 0.971189 0
M  V30 953 C 86.9578 1.10575 1.74874 0
M  V30 954 C 87.3728 -0.342017 1.85676 0
M  V30 955 O 86.7298 -1.23617 1.34258 0
M  V30 956 C 86.7808 1.73579 3.171 0
M  V30 957 O 86.5018 3.12695 3.06844 0
M  V30 958 C 88.0028 1.65598 4.11208 0
M  V30 959 H 85.2228 0.386504 0.548503 0
M  V30 960 H 87.7668 1.64156 1.21955 0
M  V30 961 H 85.9218 1.24009 3.67016 0
M  V30 962 H 86.3358 3.43412 3.96445 0
M  V30 963 H 87.8098 2.1437 5.08674 0
M  V30 964 H 88.2868 0.616532 4.34851 0
M  V30 965 H 88.8928 2.14578 3.67201 0
M  V30 966 N 87.2079 -1.17134 1.05439 0
M  V30 967 C 88.6239 -1.39454 0.776201 0
M  V30 968 C 88.8239 -1.91454 -0.628307 0
M  V30 969 O 87.8799 -2.10777 -1.39031 0
M  V30 970 C 89.1929 -2.38305 1.83388 0
M  V30 971 C 90.7409 -2.52006 1.85639 0
M  V30 972 C 91.2159 -3.54133 2.90437 0
M  V30 973 N 92.7069 -3.61653 2.89415 0
M  V30 974 C 93.4419 -4.4044 3.67152 0
M  V30 975 N 92.9379 -5.22721 4.54681 0
M  V30 976 N 94.7309 -4.35337 3.55581 0
M  V30 977 H 86.8819 -0.817134 1.96053 0
M  V30 978 H 89.1449 -0.421626 0.849079 0
M  V30 979 H 88.8509 -2.07173 2.84204 0
M  V30 980 H 88.7249 -3.37841 1.67761 0
M  V30 981 H 91.1119 -2.82447 0.85486 0
M  V30 982 H 91.1929 -1.52537 2.05344 0
M  V30 983 H 90.8369 -3.24431 3.90777 0
M  V30 984 H 90.7669 -4.53313 2.67983 0
M  V30 985 H 93.2579 -3.02909 2.25952 0
M  V30 986 H 93.5709 -5.80027 5.10674 0
M  V30 987 H 91.9159 -5.22093 4.58741 0
M  V30 988 H 95.1069 -3.70112 2.86592 0
M  V30 989 H 95.2799 -4.96494 4.1641 0
M  V30 990 N 88.686 -0.835752 -1.33615 0
M  V30 991 C 89.616 -0.281739 -2.31794 0
M  V30 992 C 90.597 0.608833 -1.58831 0
M  V30 993 O 91.782 0.533035 -1.86741 0
M  V30 994 C 88.912 0.546612 -3.42971 0
M  V30 995 C 87.866 -0.247904 -4.27281 0
M  V30 996 C 87.192 0.704001 -5.30045 0
M  V30 997 C 88.492 -1.46324 -5.01385 0
M  V30 998 H 90.186 -1.10206 -2.78379 0
M  V30 999 H 87.732 -0.531388 -1.33837 0
M  V30 1000 H 89.685 0.944467 -4.1068 0
M  V30 1001 H 88.409 1.40011 -2.95067 0
M  V30 1002 H 87.068 -0.627281 -3.61194 0
M  V30 1003 H 86.716 1.55381 -4.78399 0
M  V30 1004 H 86.416 0.176524 -5.87335 0
M  V30 1005 H 87.94 1.09944 -6.0062 0
M  V30 1006 H 89.354 -1.13871 -5.61877 0
M  V30 1007 H 87.751 -1.92728 -5.6831 0
M  V30 1008 H 88.821 -2.23467 -4.30338 0
M  V30 1009 N 90.1641 1.46063 -0.591896 0
M  V30 1010 C 91.4121 2.01938 -0.0808391 0
M  V30 1011 C 91.7331 1.46475 1.28725 0
M  V30 1012 O 91.0031 0.652944 1.84698 0
M  V30 1013 H 89.5831 0.746516 -0.0268938 0
M  V30 1014 H 92.2451 1.79055 -0.769752 0
M  V30 1015 H 91.3411 3.12094 -0.0187578 0
M  V30 1016 N 91.6422 0.330177 1.54103 0
M  V30 1017 C 92.5892 -0.532762 2.24567 0
M  V30 1018 C 93.5592 -1.10635 1.23892 0
M  V30 1019 O 94.7442 -1.14546 1.5259 0
M  V30 1020 C 91.8842 -1.6845 3.01195 0
M  V30 1021 C 90.9972 -1.13951 4.167 0
M  V30 1022 C 90.1322 -2.25746 4.80845 0
M  V30 1023 C 89.1712 -1.6853 5.88442 0
M  V30 1024 N 88.3082 -2.74014 6.46421 0
M  V30 1025 H 93.1482 0.0746905 2.97906 0
M  V30 1026 H 90.6852 0.048632 1.4702 0
M  V30 1027 H 92.6432 -2.36234 3.43874 0
M  V30 1028 H 91.2732 -2.26314 2.30178 0
M  V30 1029 H 90.3252 -0.35301 3.78758 0
M  V30 1030 H 91.6372 -0.680892 4.94131 0
M  V30 1031 H 90.7912 -3.01422 5.26526 0
M  V30 1032 H 89.5302 -2.74947 4.0281 0
M  V30 1033 H 88.5352 -0.913543 5.42157 0
M  V30 1034 H 89.7602 -1.20198 6.68378 0
M  V30 1035 H 87.7062 -3.22494 5.71256 0
M  V30 1036 H 87.6232 -2.32735 7.19285 0
M  V30 1037 H 88.8912 -3.49499 6.96757 0
M  V30 1038 N 93.1203 -1.57491 0.0584922 0
M  V30 1039 C 94.0503 -2.14988 -0.911178 0
M  V30 1040 C 95.0313 -1.07343 -1.31952 0
M  V30 1041 O 96.2163 -1.35318 -1.39294 0
M  V30 1042 C 93.3463 -2.70078 -2.18347 0
M  V30 1043 C 92.3003 -3.82771 -1.91495 0
M  V30 1044 C 91.6263 -4.24408 -3.25241 0
M  V30 1045 C 92.9263 -5.07592 -1.23075 0
M  V30 1046 H 94.6203 -2.96263 -0.432246 0
M  V30 1047 H 92.1663 -1.42512 -0.206469 0
M  V30 1048 H 94.1193 -3.08943 -2.86587 0
M  V30 1049 H 92.8433 -1.86005 -2.68458 0
M  V30 1050 H 91.5023 -3.44389 -1.25664 0
M  V30 1051 H 91.1503 -3.37275 -3.73168 0
M  V30 1052 H 90.8503 -5.00366 -3.08071 0
M  V30 1053 H 92.3743 -4.65879 -3.94701 0
M  V30 1054 H 93.7883 -5.43857 -1.81362 0
M  V30 1055 H 92.1853 -5.88741 -1.16207 0
M  V30 1056 H 93.2553 -4.84454 -0.207847 0
M  V30 1057 N 94.5984 0.214957 -1.56127 0
M  V30 1058 C 96.0144 0.564948 -1.49267 0
M  V30 1059 C 96.2144 1.86827 -0.754838 0
M  V30 1060 O 95.2704 2.50745 -0.297198 0
M  V30 1061 C 96.5834 0.638071 -2.93852 0
M  V30 1062 C 98.1314 0.728253 -3.0441 0
M  V30 1063 C 98.6064 0.832663 -4.50367 0
M  V30 1064 N 100.097 0.896712 -4.54437 0
M  V30 1065 C 100.832 0.997324 -5.6466 0
M  V30 1066 N 100.328 1.06147 -6.8462 0
M  V30 1067 N 102.121 1.03297 -5.52527 0
M  V30 1068 H 94.2724 -0.640211 -2.02522 0
M  V30 1069 H 96.5354 -0.225507 -0.920788 0
M  V30 1070 H 96.2414 -0.250126 -3.50809 0
M  V30 1071 H 96.1154 1.49947 -3.46115 0
M  V30 1072 H 98.5024 1.60689 -2.47514 0
M  V30 1073 H 98.5834 -0.158952 -2.55306 0
M  V30 1074 H 98.2274 -0.0415417 -5.07883 0
M  V30 1075 H 98.1574 1.73538 -4.97184 0
M  V30 1076 H 100.648 0.857188 -3.6805 0
M  V30 1077 H 100.961 1.1382 -7.64372 0
M  V30 1078 H 99.3064 1.03049 -6.87318 0
M  V30 1079 H 102.497 0.979558 -4.57736 0
M  V30 1080 H 102.67 1.10793 -6.38458 0
M  V30 1081 N 96.0765 1.50051 0.48192 0
M  V30 1082 C 97.3535 1.51009 1.2432 0
M  V30 1083 C 97.7335 0.248587 2.09631 0
M  V30 1084 O 97.0815 -0.768409 2.15192 0
M  V30 1085 C 97.2915 2.79981 2.08355 0
M  V30 1086 C 98.6395 3.3022 2.66908 0
M  V30 1087 O 99.6635 2.81228 2.18607 0
M  V30 1088 O 98.5225 4.15595 3.54884 0
M  V30 1089 H 95.6165 0.605239 0.563573 0
M  V30 1090 H 98.1625 1.62332 0.494627 0
M  V30 1091 H 96.9345 3.63275 1.45419 0
M  V30 1092 H 96.5575 2.7161 2.90368 0
M  V30 1093 N 97.5546 -0.734337 1.39446 0
M  V30 1094 C 98.7946 -1.50655 1.38139 0
M  V30 1095 C 99.1586 -1.91986 -0.0228701 0
M  V30 1096 O 100.36 -2.68318 -0.160947 0
M  V30 1097 C 98.6306 -2.71251 2.32718 0
M  V30 1098 S 100.19 -3.60892 2.49605 0
M  V30 1099 H 97.0076 -0.515315 0.489869 0
M  V30 1100 H 99.6096 -0.860392 1.75549 0
M  V30 1101 H 98.3136 -2.39027 3.33608 0
M  V30 1102 H 97.8446 -3.40795 1.96526 0
M  V30 1103 H 99.8596 -4.64899 1.73446 0
M  V30 1104 N 99.0327 -1.24633 -0.964593 0
M  V30 1105 C 99.9807 -1.03917 -2.08096 0
M  V30 1106 C 100.975 0.0268581 -1.69379 0
M  V30 1107 O 102.181 -0.127952 -1.79545 0
M  V30 1108 H 98.5557 -0.319044 -0.680966 0
M  V30 1109 H 100.527 -1.98581 -2.22729 0
M  V30 1110 C 99.2757 -0.663983 -3.41301 0
M  V30 1111 H 98.5987 -1.47605 -3.71555 0
M  V30 1112 H 100.039 -0.558663 -4.20303 0
M  V30 1113 C 98.4977 0.629169 -3.30973 0
M  V30 1114 O 99.0277 1.67404 -3.65156 0
M  V30 1115 N 97.2337 0.611057 -2.84103 0
M  V30 1116 H 96.7807 -0.239593 -2.56483 0
M  V30 1117 H 96.7387 1.47647 -2.77575 0
M  V30 1118 N 100.511 1.16574 -1.06058 0
M  V30 1119 C 101.739 1.90952 -0.796552 0
M  V30 1120 C 102.154 1.77302 0.648808 0
M  V30 1121 O 101.511 1.11605 1.44397 0
M  V30 1122 C 101.562 3.41736 -1.17894 0
M  V30 1123 O 101.283 3.54975 -2.56758 0
M  V30 1124 C 102.784 4.33169 -0.942308 0
M  V30 1125 H 100.004 0.605594 -0.288959 0
M  V30 1126 H 102.548 1.47777 -1.41358 0
M  V30 1127 H 100.703 3.82623 -0.606491 0
M  V30 1128 H 101.117 4.4846 -2.72 0
M  V30 1129 H 102.591 5.37439 -1.25952 0
M  V30 1130 H 103.068 4.3903 0.122078 0
M  V30 1131 H 103.674 3.98007 -1.49902 0
M  V30 1132 N 101.989 0.842826 1.3317 0
M  V30 1133 C 102.939 0.250877 2.26616 0
M  V30 1134 C 103.923 -0.596427 1.49437 0
M  V30 1135 O 105.115 -0.447747 1.71243 0
M  V30 1136 C 102.244 -0.569779 3.38539 0
M  V30 1137 C 101.33 0.289254 4.23112 0
M  V30 1138 N 101.721 1.36987 4.86897 0
M  V30 1139 C 100.019 0.0769631 4.45934 0
M  V30 1140 C 100.72 1.89737 5.49886 0
M  V30 1141 N 99.6959 1.19827 5.30229 0
M  V30 1142 H 103.498 1.07718 2.73448 0
M  V30 1143 H 101.012 0.687693 1.47121 0
M  V30 1144 H 103.009 -1.01018 4.04476 0
M  V30 1145 H 101.669 -1.39401 2.93253 0
M  V30 1146 H 102.68 1.75277 4.87338 0
M  V30 1147 H 99.3569 -0.713507 4.11358 0
M  V30 1148 H 100.747 2.80253 6.10662 0
M  V30 1149 N 103.467 -1.45747 0.599634 0
M  V30 1150 C 104.377 -2.34262 -0.125888 0
M  V30 1151 C 105.393 -1.50768 -0.868625 0
M  V30 1152 O 106.569 -1.83592 -0.828003 0
M  V30 1153 C 103.634 -3.28252 -1.11587 0
M  V30 1154 C 102.695 -4.27651 -0.375956 0
M  V30 1155 C 101.928 -5.1715 -1.31877 0
M  V30 1156 O 102.151 -5.09916 -2.55621 0
M  V30 1157 O 101.085 -5.96286 -0.820157 0
M  V30 1158 H 104.911 -2.97688 0.601315 0
M  V30 1159 H 102.496 -1.44999 0.359934 0
M  V30 1160 H 104.378 -3.86191 -1.68626 0
M  V30 1161 H 103.053 -2.67401 -1.82424 0
M  V30 1162 H 101.96 -3.7335 0.236698 0
M  V30 1163 H 103.293 -4.91334 0.29177 0
M  V30 1164 N 104.945 -0.338344 -1.53925 0
M  V30 1165 C 106.17 0.263987 -2.05713 0
M  V30 1166 C 106.595 1.43847 -1.21201 0
M  V30 1167 O 105.953 1.79904 -0.224535 0
M  V30 1168 C 106.001 0.662 -3.54471 0
M  V30 1169 O 105.105 1.76265 -3.72833 0
M  V30 1170 H 104.446 0.0448722 -0.662482 0
M  V30 1171 H 106.976 -0.491048 -1.9862 0
M  V30 1172 H 106.986 0.940594 -3.9701 0
M  V30 1173 H 105.661 -0.196937 -4.15433 0
M  V30 1174 H 104.238 1.48173 -3.42198 0
M  V30 1175 N 106.423 1.57458 -0.0668435 0
M  V30 1176 C 107.353 2.15468 0.899764 0
M  V30 1177 C 108.334 1.08042 1.31381 0
M  V30 1178 O 109.519 1.36054 1.38574 0
M  V30 1179 C 106.649 2.71232 2.16911 0
M  V30 1180 C 105.603 3.83781 1.89463 0
M  V30 1181 C 104.929 4.26127 3.22986 0
M  V30 1182 C 106.229 5.08238 1.20381 0
M  V30 1183 H 107.923 2.96488 0.416529 0
M  V30 1184 H 105.469 1.4262 0.198908 0
M  V30 1185 H 107.422 3.10458 2.84945 0
M  V30 1186 H 106.146 1.87426 2.67468 0
M  V30 1187 H 104.805 3.45051 1.23836 0
M  V30 1188 H 104.453 3.39249 3.71374 0
M  V30 1189 H 104.153 5.01993 3.05413 0
M  V30 1190 H 105.677 4.67966 3.92225 0
M  V30 1191 H 107.091 5.44811 1.78475 0
M  V30 1192 H 105.488 5.89349 1.13083 0
M  V30 1193 H 106.558 4.84558 0.182153 0
M  V30 1194 N 107.901 -0.206675 1.56239 0
M  V30 1195 C 108.831 -1.25909 1.96645 0
M  V30 1196 C 109.812 -1.48097 0.836734 0
M  V30 1197 O 110.997 -1.6003 1.10019 0
M  V30 1198 C 108.127 -2.6058 2.29599 0
M  V30 1199 C 107.081 -2.53024 3.452 0
M  V30 1200 C 106.407 -3.91861 3.63798 0
M  V30 1201 C 107.707 -2.06524 4.79734 0
M  V30 1202 H 109.401 -0.923369 2.84806 0
M  V30 1203 H 106.947 -0.442735 1.37025 0
M  V30 1204 H 108.9 -3.34375 2.56459 0
M  V30 1205 H 107.624 -2.95869 1.38307 0
M  V30 1206 H 106.283 -1.81684 3.18412 0
M  V30 1207 H 105.931 -4.24483 2.69857 0
M  V30 1208 H 105.631 -3.87683 4.4156 0
M  V30 1209 H 107.155 -4.67296 3.93022 0
M  V30 1210 H 108.569 -2.70072 5.05702 0
M  V30 1211 H 106.966 -2.13374 5.60885 0
M  V30 1212 H 108.036 -1.01802 4.74093 0
M  V30 1213 N 109.379 -1.50304 -0.473955 0
M  V30 1214 C 110.289 -1.7174 -1.5982 0
M  V30 1215 C 111.305 -0.600457 -1.63311 0
M  V30 1216 O 112.481 -0.878441 -1.81233 0
M  V30 1217 C 109.546 -1.80427 -2.96052 0
M  V30 1218 C 108.607 -3.04148 -3.02972 0
M  V30 1219 C 107.84 -3.12411 -4.32706 0
M  V30 1220 O 108.063 -2.27542 -5.23049 0
M  V30 1221 O 106.997 -4.05113 -4.45159 0
M  V30 1222 H 110.823 -2.67035 -1.44657 0
M  V30 1223 H 108.408 -1.34366 -0.653148 0
M  V30 1224 H 110.29 -1.88338 -3.7697 0
M  V30 1225 H 108.965 -0.883156 -3.11419 0
M  V30 1226 H 107.872 -3.0174 -2.21142 0
M  V30 1227 H 109.205 -3.95829 -2.92541 0
M  V30 1228 N 110.857 0.726932 -1.39834 0
M  V30 1229 C 112.103 1.48884 -1.377 0
M  V30 1230 C 112.436 1.94185 0.0244852 0
M  V30 1231 O 111.711 1.67361 0.990986 0
M  V30 1232 C 111.994 2.72288 -2.3565 0
M  V30 1233 C 111.847 2.32956 -3.84775 0
M  V30 1234 C 113.166 3.74414 -2.31306 0
M  V30 1235 H 110.285 0.540062 -0.5015 0
M  V30 1236 H 112.927 0.830547 -1.70886 0
M  V30 1237 H 111.077 3.28457 -2.07481 0
M  V30 1238 H 112.749 1.82356 -4.23726 0
M  V30 1239 H 110.992 1.65088 -4.01159 0
M  V30 1240 H 111.663 3.21362 -4.4881 0
M  V30 1241 H 114.139 3.27849 -2.56231 0
M  V30 1242 H 113.015 4.58414 -3.01907 0
M  V30 1243 H 113.276 4.21909 -1.32081 0
M  V30 1244 N 112.336 1.25143 0.95797 0
M  V30 1245 C 113.576 1.10893 1.71703 0
M  V30 1246 C 113.94 -0.34478 1.88879 0
M  V30 1247 O 115.141 -0.609014 2.6181 0
M  V30 1248 C 113.412 1.83889 3.06463 0
M  V30 1249 S 114.971 1.85491 3.97666 0
M  V30 1250 H 111.789 0.396428 0.590226 0
M  V30 1251 H 114.391 1.58618 1.14283 0
M  V30 1252 H 113.095 2.88756 2.9163 0
M  V30 1253 H 112.626 1.36538 3.68946 0
M  V30 1254 H 114.641 0.929553 4.87415 0
M  V30 1255 N 113.814 -1.1601 1.06675 0
M  V30 1256 C 115.091 -1.82679 0.699114 0
M  V30 1257 C 115.471 -1.94559 -0.819137 0
M  V30 1258 O 114.819 -1.49169 -1.73092 0
M  V30 1259 C 115.029 -3.19445 1.40555 0
M  V30 1260 C 116.377 -3.95171 1.55323 0
M  V30 1261 O 117.401 -3.28976 1.36577 0
M  V30 1262 O 116.26 -5.13833 1.86112 0
M  V30 1263 H 113.354 -0.788954 0.247951 0
M  V30 1264 H 115.9 -1.23179 1.16726 0
M  V30 1265 H 114.672 -3.05856 2.44065 0
M  V30 1266 H 114.295 -3.86625 0.927733 0
M  V30 1267 N 115.292 -0.849877 -1.32721 0
M  V30 1268 C 116.569 -0.372405 -1.92022 0
M  V30 1269 C 116.949 1.1435 -1.77447 0
M  V30 1270 O 116.297 1.96296 -1.16962 0
M  V30 1271 C 116.507 -0.831482 -3.3895 0
M  V30 1272 C 117.855 -0.845882 -4.16089 0
M  V30 1273 O 118.879 -0.775806 -3.47649 0
M  V30 1274 O 117.738 -0.943753 -5.38289 0
M  V30 1275 H 114.832 -0.107667 -0.819961 0
M  V30 1276 H 117.378 -0.93646 -1.41522 0
M  V30 1277 H 116.15 -1.87448 -3.4348 0
M  V30 1278 H 115.773 -0.24461 -3.96847 0
M  V30 1279 N 116.77 1.45427 -0.607355 0
M  V30 1280 C 118 2.06314 -0.108656 0
M  V30 1281 C 118.408 1.45269 1.21217 0
M  V30 1282 O 117.751 0.561115 1.74921 0
M  V30 1283 C 117.813 3.59345 0.105618 0
M  V30 1284 C 117.477 4.42723 -1.13337 0
M  V30 1285 C 118.474 4.77715 -2.05145 0
M  V30 1286 C 116.159 4.83478 -1.36213 0
M  V30 1287 C 118.153 5.52317 -3.18158 0
M  V30 1288 C 115.84 5.57835 -2.49527 0
M  V30 1289 C 116.838 5.92171 -3.40327 0
M  V30 1290 O 116.526 6.65019 -4.51669 0
M  V30 1291 H 116.258 0.672782 -0.0658842 0
M  V30 1292 H 118.812 1.87664 -0.834945 0
M  V30 1293 H 117.042 3.76394 0.886796 0
M  V30 1294 H 118.731 4.02076 0.555886 0
M  V30 1295 H 119.497 4.46787 -1.88697 0
M  V30 1296 H 115.376 4.56188 -0.664362 0
M  V30 1297 H 118.92 5.79036 -3.89054 0
M  V30 1298 H 114.817 5.88177 -2.65928 0
M  V30 1299 H 115.585 6.83469 -4.50348 0
M  V30 1300 N 118.248 0.346503 1.53744 0
M  V30 1301 C 119.196 -0.52422 2.26616 0
M  V30 1302 C 120.19 -1.09948 1.28871 0
M  V30 1303 O 121.396 -1.04488 1.46568 0
M  V30 1304 H 117.771 -0.187743 0.728187 0
M  V30 1305 H 119.742 0.11239 2.98188 0
M  V30 1306 C 118.491 -1.66186 3.05414 0
M  V30 1307 H 117.814 -1.22848 3.80458 0
M  V30 1308 H 119.254 -2.24622 3.59612 0
M  V30 1309 C 117.713 -2.59302 2.1509 0
M  V30 1310 O 118.243 -3.61628 1.74895 0
M  V30 1311 N 116.449 -2.28055 1.8011 0
M  V30 1312 H 115.996 -1.44883 2.12994 0
M  V30 1313 H 115.954 -2.90615 1.19958 0
M  V30 1314 N 119.726 -1.57421 0.075193 0
M  V30 1315 C 120.656 -2.15942 -0.888324 0
M  V30 1316 C 121.637 -1.08737 -1.30806 0
M  V30 1317 O 122.822 -1.36787 -1.37851 0
M  V30 1318 C 119.952 -2.72379 -2.1547 0
M  V30 1319 C 118.906 -3.8478 -1.87425 0
M  V30 1320 C 118.232 -4.27834 -3.20721 0
M  V30 1321 C 119.532 -5.08869 -1.17684 0
M  V30 1322 H 121.226 -2.96705 -0.400799 0
M  V30 1323 H 118.772 -1.42723 -0.191342 0
M  V30 1324 H 120.725 -3.11965 -2.83295 0
M  V30 1325 H 119.449 -1.88841 -2.6647 0
M  V30 1326 H 118.108 -3.45703 -1.22004 0
M  V30 1327 H 117.756 -3.41214 -3.6957 0
M  V30 1328 H 117.456 -5.03605 -3.02746 0
M  V30 1329 H 118.98 -4.70039 -3.89738 0
M  V30 1330 H 120.394 -5.4575 -1.75584 0
M  V30 1331 H 118.791 -5.8994 -1.09956 0
M  V30 1332 H 119.861 -4.84648 -0.156453 0
M  V30 1333 N 121.204 0.198386 -1.56346 0
M  V30 1334 C 122.152 1.26538 -1.95169 0
M  V30 1335 C 123.146 1.47295 -0.836685 0
M  V30 1336 O 124.352 1.48195 -1.02167 0
M  V30 1337 H 120.727 0.424744 -0.620561 0
M  V30 1338 H 122.698 0.910904 -2.84157 0
M  V30 1339 C 121.447 2.6035 -2.30463 0
M  V30 1340 H 120.77 2.45192 -3.15786 0
M  V30 1341 H 122.21 3.33762 -2.61494 0
M  V30 1342 C 120.669 3.17096 -1.13806 0
M  V30 1343 O 121.199 3.99588 -0.41135 0
M  V30 1344 N 119.405 2.75795 -0.915736 0
M  V30 1345 H 118.952 2.08816 -1.50843 0
M  V30 1346 H 118.91 3.14101 -0.136979 0
M  V30 1347 N 122.682 1.50554 0.465978 0
M  V30 1348 C 123.592 1.72585 1.58907 0
M  V30 1349 C 124.608 0.60911 1.6299 0
M  V30 1350 O 125.784 0.88804 1.80765 0
M  V30 1351 C 122.849 1.81995 2.95091 0
M  V30 1352 C 121.91 3.05751 3.01355 0
M  V30 1353 C 121.143 3.14702 4.31043 0
M  V30 1354 O 121.366 2.30313 5.21835 0
M  V30 1355 O 120.3 4.07468 4.43005 0
M  V30 1356 H 124.126 2.67799 1.43239 0
M  V30 1357 H 121.711 1.34711 0.646013 0
M  V30 1358 H 123.593 1.90335 3.75966 0
M  V30 1359 H 122.268 0.899659 3.10947 0
M  V30 1360 H 121.175 3.02908 2.19539 0
M  V30 1361 H 122.508 3.97375 2.90437 0
M  V30 1362 N 124.16 -0.719506 1.40217 0
M  V30 1363 C 125.108 -1.85493 1.40339 0
M  V30 1364 C 126.102 -1.66995 0.284415 0
M  V30 1365 O 127.308 -1.74148 0.455252 0
M  V30 1366 H 123.683 -0.610857 0.438586 0
M  V30 1367 H 125.654 -1.82506 2.36081 0
M  V30 1368 C 124.403 -3.23321 1.27901 0
M  V30 1369 H 123.726 -3.38159 2.1328 0
M  V30 1370 H 125.166 -4.02914 1.32045 0
M  V30 1371 C 123.625 -3.36898 -0.0111355 0
M  V30 1372 O 124.155 -3.89674 -0.975538 0
M  V30 1373 N 122.361 -2.90492 -0.0793393 0
M  V30 1374 H 121.908 -2.47731 0.706183 0
M  V30 1375 H 121.866 -2.99955 -0.942038 0
M  V30 1376 N 125.638 -1.25649 -0.95132 0
M  V30 1377 C 126.548 -1.08073 -2.08224 0
M  V30 1378 C 127.564 -0.0169666 -1.73992 0
M  V30 1379 O 128.74 -0.218593 -2.0021 0
M  V30 1380 C 125.805 -0.704922 -3.39458 0
M  V30 1381 C 124.866 -1.84699 -3.87537 0
M  V30 1382 C 124.099 -1.48902 -5.12508 0
M  V30 1383 O 124.322 -0.386156 -5.69091 0
M  V30 1384 O 123.256 -2.32033 -5.55378 0
M  V30 1385 H 127.082 -2.02924 -2.25954 0
M  V30 1386 H 124.667 -1.04618 -1.06656 0
M  V30 1387 H 126.549 -0.507609 -4.18332 0
M  V30 1388 H 125.224 0.214291 -3.2299 0
M  V30 1389 H 124.131 -2.09919 -3.09653 0
M  V30 1390 H 125.464 -2.74557 -4.08509 0
M  V30 1391 N 127.117 1.15442 -1.07289 0
M  V30 1392 C 128.347 1.89821 -0.815576 0
M  V30 1393 C 128.755 1.7823 0.634867 0
M  V30 1394 O 128.098 1.13152 1.44715 0
M  V30 1395 C 128.16 3.40817 -1.14385 0
M  V30 1396 C 127.824 3.76193 -2.59476 0
M  V30 1397 C 128.821 3.77269 -3.57721 0
M  V30 1398 C 126.506 4.0652 -2.95037 0
M  V30 1399 C 128.5 4.08176 -4.89562 0
M  V30 1400 C 126.187 4.37092 -4.27076 0
M  V30 1401 C 127.185 4.37902 -5.24148 0
M  V30 1402 O 126.873 4.67741 -6.53815 0
M  V30 1403 H 126.605 0.608465 -0.294528 0
M  V30 1404 H 129.159 1.472 -1.43252 0
M  V30 1405 H 127.389 3.83835 -0.469865 0
M  V30 1406 H 129.078 3.96485 -0.869179 0
M  V30 1407 H 129.844 3.5394 -3.3159 0
M  V30 1408 H 125.723 4.05049 -2.20128 0
M  V30 1409 H 129.267 4.08723 -5.65324 0
M  V30 1410 H 125.164 4.59889 -4.5296 0
M  V30 1411 H 125.932 4.85509 -6.58957 0
M  V30 1412 N 128.595 0.856903 1.32268 0
M  V30 1413 C 129.842 0.461386 1.97174 0
M  V30 1414 C 130.17 -0.983491 1.67803 0
M  V30 1415 O 129.425 -1.70541 0.959903 0
M  V30 1416 C 129.724 0.649919 3.51441 0
M  V30 1417 C 129.39 2.0656 4.00804 0
M  V30 1418 C 128.052 2.45279 4.13995 0
M  V30 1419 C 130.404 2.98947 4.26943 0
M  V30 1420 C 127.732 3.75653 4.50668 0
M  V30 1421 C 130.084 4.28822 4.65075 0
M  V30 1422 C 128.748 4.67472 4.76472 0
M  V30 1423 H 128.018 0.168833 0.72151 0
M  V30 1424 H 130.665 1.08739 1.57633 0
M  V30 1425 H 128.97 -0.0593018 3.91755 0
M  V30 1426 H 130.667 0.32391 3.9969 0
M  V30 1427 H 127.257 1.75495 3.91024 0
M  V30 1428 H 131.441 2.70265 4.16258 0
M  V30 1429 H 126.697 4.05379 4.57688 0
M  V30 1430 H 130.871 5.0047 4.84255 0
M  V30 1431 H 128.498 5.68539 5.04646 0
M  V30 1432 N 130.073 -1.45103 0.615059 0
M  V30 1433 C 131.32 -2.02183 0.113179 0
M  V30 1434 C 131.648 -1.48249 -1.25906 0
M  V30 1435 O 130.903 -0.650265 -1.84581 0
M  V30 1436 C 131.202 -3.57386 0.0318797 0
M  V30 1437 C 130.868 -4.30505 1.34077 0
M  V30 1438 C 129.53 -4.50197 1.69929 0
M  V30 1439 C 131.882 -4.72238 2.20546 0
M  V30 1440 C 129.21 -5.08881 2.91988 0
M  V30 1441 C 131.562 -5.32272 3.41861 0
M  V30 1442 C 130.226 -5.50187 3.77956 0
M  V30 1443 H 129.496 -0.739842 0.0414151 0
M  V30 1444 H 132.143 -1.74073 0.798168 0
M  V30 1445 H 130.448 -3.84817 -0.736409 0
M  V30 1446 H 132.145 -3.99264 -0.372712 0
M  V30 1447 H 128.735 -4.15496 1.05173 0
M  V30 1448 H 132.919 -4.56751 1.94146 0
M  V30 1449 H 128.175 -5.20939 3.2005 0
M  V30 1450 H 132.349 -5.63563 4.09109 0
M  V30 1451 H 129.976 -5.95427 4.72622 0
M  V30 1452 N 131.551 -0.354651 -1.53558 0
M  V30 1453 C 132.828 0.294281 -1.93374 0
M  V30 1454 C 133.208 1.67313 -1.28723 0
M  V30 1455 O 132.556 2.24179 -0.442247 0
M  V30 1456 C 132.766 0.355445 -3.47185 0
M  V30 1457 C 134.114 0.601007 -4.20325 0
M  V30 1458 O 135.138 0.437106 -3.53508 0
M  V30 1459 O 133.997 0.919322 -5.38712 0
M  V30 1460 H 131.091 0.174033 -0.808481 0
M  V30 1461 H 133.637 -0.406638 -1.64756 0
M  V30 1462 H 132.409 -0.611729 -3.86489 0
M  V30 1463 H 132.032 1.1027 -3.82003 0
M  V30 1464 N 133.029 1.57378 -0.0835403 0
M  V30 1465 C 134.445 1.57246 0.273109 0
M  V30 1466 C 134.645 1.09385 1.69225 0
M  V30 1467 O 133.701 0.765051 2.40631 0
M  V30 1468 C 135.014 3.00614 0.0720628 0
M  V30 1469 C 136.562 3.12684 0.1407 0
M  V30 1470 C 137.037 4.57989 -0.0322094 0
M  V30 1471 N 138.528 4.63194 0.0230085 0
M  V30 1472 C 139.263 5.73335 -0.0861941 0
M  V30 1473 N 138.759 6.9235 -0.24958 0
M  V30 1474 N 140.552 5.62093 -0.0282886 0
M  V30 1475 H 132.703 1.86801 -1.0109 0
M  V30 1476 H 134.966 0.861687 -0.395222 0
M  V30 1477 H 134.672 3.39786 -0.907662 0
M  V30 1478 H 134.546 3.68193 0.81936 0
M  V30 1479 H 136.933 2.73391 1.11092 0
M  V30 1480 H 137.014 2.47719 -0.637896 0
M  V30 1481 H 136.658 4.97973 -0.999247 0
M  V30 1482 H 136.588 5.21 0.765937 0
M  V30 1483 H 139.079 3.77613 0.14722 0
M  V30 1484 H 139.392 7.72117 -0.324733 0
M  V30 1485 H 137.737 6.94415 -0.285097 0
M  V30 1486 H 140.928 4.67997 0.0981408 0
M  V30 1487 H 141.101 6.47895 -0.116845 0
M  V30 1488 N 134.507 -0.190092 1.56449 0
M  V30 1489 C 135.457 -1.23977 1.91347 0
M  V30 1490 C 136.441 -1.40747 0.779693 0
M  V30 1491 O 137.633 -1.43033 1.04262 0
M  V30 1492 C 134.762 -2.58347 2.26079 0
M  V30 1493 C 133.848 -2.4535 3.45925 0
M  V30 1494 N 134.239 -2.02039 4.63696 0
M  V30 1495 C 132.537 -2.76229 3.50162 0
M  V30 1496 C 133.238 -2.01053 5.4585 0
M  V30 1497 N 132.214 -2.42747 4.8639 0
M  V30 1498 H 136.016 -0.896318 2.79899 0
M  V30 1499 H 133.53 -0.398496 1.57435 0
M  V30 1500 H 135.527 -3.34173 2.49267 0
M  V30 1501 H 134.187 -2.93512 1.38856 0
M  V30 1502 H 135.198 -1.7267 4.88268 0
M  V30 1503 H 131.875 -3.15556 2.73369 0
M  V30 1504 H 133.265 -1.69426 6.50188 0
M  V30 1505 N 135.985 -1.50799 -0.457987 0
M  V30 1506 C 137.396 -1.55152 -1.0385 0
M  V30 1507 C 137.747 -0.362719 -1.92818 0
M  V30 1508 O 136.872 0.522915 -2.09987 0
M  V30 1509 C 137.467 -2.81173 -1.89017 0
M  V30 1510 C 136.026 -2.88164 -2.42154 0
M  V30 1511 C 135.173 -2.49591 -1.20829 0
M  V30 1512 H 138.124 -1.56874 -0.240068 0
M  V30 1513 H 138.145 -2.63769 -2.74238 0
M  V30 1514 H 137.657 -3.67677 -1.24238 0
M  V30 1515 H 135.758 -2.06042 -3.10447 0
M  V30 1516 H 135.871 -3.91356 -2.76364 0
M  V30 1517 H 134.235 -2.02322 -1.54719 0
M  V30 1518 H 135.018 -3.38418 -0.576927 0
M  V30 1519 N 137.463 0.71206 -1.40597 0
M  V30 1520 C 138.711 1.46907 -1.38791 0
M  V30 1521 C 139.032 1.94998 0.00780391 0
M  V30 1522 O 138.302 1.70587 0.963174 0
M  V30 1523 H 136.882 0.545043 -0.51082 0
M  V30 1524 H 139.544 0.843882 -1.75683 0
M  V30 1525 H 138.64 2.34021 -2.06496 0
M  V30 1526 N 138.941 1.26152 0.944643 0
M  V30 1527 C 139.904 1.07474 2.0244 0
M  V30 1528 C 140.904 0.0242064 1.60782 0
M  V30 1529 O 142.094 0.267302 1.72137 0
M  V30 1530 C 139.226 0.633956 3.34953 0
M  V30 1531 H 140.419 2.03336 2.20442 0
M  V30 1532 H 137.972 1.087 1.12312 0
M  V30 1533 H 138.707 -0.326811 3.22649 0
M  V30 1534 H 138.492 1.39247 3.66542 0
M  V30 1535 H 139.982 0.52501 4.14287 0
M  V30 1536 N 140.419 -1.14872 1.07899 0
M  V30 1537 C 141.666 -1.85789 0.805532 0
M  V30 1538 C 141.994 -1.82649 -0.668561 0
M  V30 1539 O 141.249 -1.24858 -1.50695 0
M  V30 1540 C 141.548 -3.34223 1.26609 0
M  V30 1541 C 141.214 -3.57555 2.74709 0
M  V30 1542 C 139.876 -3.63631 3.1516 0
M  V30 1543 C 142.228 -3.66803 3.70277 0
M  V30 1544 C 139.556 -3.76473 4.49983 0
M  V30 1545 C 141.908 -3.8117 5.04869 0
M  V30 1546 C 140.572 -3.85494 5.44932 0
M  V30 1547 H 139.842 -0.679849 0.294765 0
M  V30 1548 H 142.489 -1.3572 1.35101 0
M  V30 1549 H 140.794 -3.86536 0.640103 0
M  V30 1550 H 142.491 -3.87511 1.03132 0
M  V30 1551 H 139.081 -3.5347 2.42398 0
M  V30 1552 H 143.265 -3.61404 3.40149 0
M  V30 1553 H 138.521 -3.7808 4.80484 0
M  V30 1554 H 142.695 -3.87268 5.78789 0
M  V30 1555 H 140.322 -3.95197 6.49403 0
M  V30 1556 N 141.898 -0.863906 -1.31812 0
M  V30 1557 C 143.126 -0.486111 -2.01108 0
M  V30 1558 C 143.541 0.919755 -1.64882 0
M  V30 1559 O 142.898 1.60162 -0.874893 0
M  V30 1560 C 142.949 -0.626435 -3.56031 0
M  V30 1561 O 142.67 -1.97693 -3.90959 0
M  V30 1562 C 144.171 -0.248857 -4.42601 0
M  V30 1563 H 141.391 -0.190052 -0.643523 0
M  V30 1564 H 143.935 -1.1634 -1.68182 0
M  V30 1565 H 142.09 0.00322717 -3.874 0
M  V30 1566 H 142.504 -1.98034 -4.85678 0
M  V30 1567 H 143.978 -0.398016 -5.50563 0
M  V30 1568 H 144.455 0.811489 -4.31638 0
M  V30 1569 H 145.061 -0.853971 -4.16638 0
M  V30 1570 N 143.376 1.44774 -0.622745 0
M  V30 1571 C 144.601 2.06999 -0.128968 0
M  V30 1572 C 145.026 1.4617 1.1839 0
M  V30 1573 O 144.384 0.560007 1.72434 0
M  V30 1574 C 144.432 3.60595 -0.0188351 0
M  V30 1575 O 143.536 3.99398 1.02739 0
M  V30 1576 H 142.877 0.659047 -0.0809544 0
M  V30 1577 H 145.407 1.85784 -0.85705 0
M  V30 1578 H 145.417 4.07627 0.174476 0
M  V30 1579 H 144.092 4.04252 -0.977384 0
M  V30 1580 H 142.669 3.64011 0.809326 0
M  V30 1581 N 144.854 0.36279 1.53368 0
M  V30 1582 C 146.103 -0.22888 2.00397 0
M  V30 1583 C 146.416 -1.50096 1.25421 0
M  V30 1584 O 147.622 -2.17106 1.63025 0
M  V30 1585 C 146.078 -0.458417 3.56969 0
M  V30 1586 C 145.686 0.798877 4.4082 0
M  V30 1587 C 147.43 -1.00789 4.12361 0
M  V30 1588 C 145.337 0.539078 5.88938 0
M  V30 1589 H 144.267 -0.089305 0.748693 0
M  V30 1590 H 146.918 0.481099 1.77081 0
M  V30 1591 H 145.3 -1.22959 3.76427 0
M  V30 1592 H 146.474 1.57262 4.33134 0
M  V30 1593 H 144.789 1.27137 3.96516 0
M  V30 1594 H 147.386 -1.21754 5.20653 0
M  V30 1595 H 147.729 -1.9692 3.66781 0
M  V30 1596 H 148.262 -0.296961 3.9669 0
M  V30 1597 H 145.001 1.47064 6.3879 0
M  V30 1598 H 144.521 -0.196222 5.99479 0
M  V30 1599 H 146.2 0.163542 6.46793 0
M  V30 1600 N 146.332 -1.57332 0.0918853 0
M  V30 1601 C 147.262 -2.16872 -0.865371 0
M  V30 1602 C 148.243 -1.10118 -1.29646 0
M  V30 1603 O 149.428 -1.38242 -1.36392 0
M  V30 1604 C 146.558 -2.74649 -2.12569 0
M  V30 1605 C 145.512 -3.86747 -1.83333 0
M  V30 1606 C 144.838 -4.31212 -3.16166 0
M  V30 1607 C 146.138 -5.10089 -1.1228 0
M  V30 1608 H 147.832 -2.97114 -0.369307 0
M  V30 1609 H 145.378 -1.42918 -0.176194 0
M  V30 1610 H 147.331 -3.14952 -2.7997 0
M  V30 1611 H 146.055 -1.91657 -2.64452 0
M  V30 1612 H 144.714 -3.46978 -1.18331 0
M  V30 1613 H 144.362 -3.45115 -3.6593 0
M  V30 1614 H 144.062 -5.06788 -2.97388 0
M  V30 1615 H 145.586 -4.74146 -3.84731 0
M  V30 1616 H 147 -5.47582 -1.69785 0
M  V30 1617 H 145.397 -5.91073 -1.03693 0
M  V30 1618 H 146.467 -4.84786 -0.105041 0
M  V30 1619 N 147.81 0.181792 -1.56548 0
M  V30 1620 C 148.758 1.24461 -1.965 0
M  V30 1621 C 149.752 1.464 -0.852261 0
M  V30 1622 O 150.958 1.47103 -1.03733 0
M  V30 1623 H 147.333 0.418138 -0.625031 0
M  V30 1624 H 149.304 0.880714 -2.85107 0
M  V30 1625 C 148.053 2.57891 -2.33212 0
M  V30 1626 H 147.376 2.41829 -3.18369 0
M  V30 1627 H 148.816 3.3097 -2.65019 0
M  V30 1628 C 147.275 3.15871 -1.17163 0
M  V30 1629 O 147.805 3.9913 -0.453708 0
M  V30 1630 N 146.011 2.74808 -0.944936 0
M  V30 1631 H 145.558 2.07205 -1.53049 0
M  V30 1632 H 145.516 3.13939 -0.170286 0
M  V30 1633 N 149.288 1.51039 0.449983 0
M  V30 1634 C 150.535 1.63081 1.20045 0
M  V30 1635 C 150.863 0.341024 1.91487 0
M  V30 1636 O 150.118 -0.674276 1.83717 0
M  V30 1637 C 150.417 2.77556 2.25161 0
M  V30 1638 C 150.083 4.17289 1.70823 0
M  V30 1639 C 148.745 4.55305 1.55725 0
M  V30 1640 C 151.097 5.04536 1.3074 0
M  V30 1641 C 148.425 5.78287 0.989999 0
M  V30 1642 C 150.777 6.28085 0.754482 0
M  V30 1643 C 149.441 6.64885 0.590308 0
M  V30 1644 H 148.711 0.596755 0.439277 0
M  V30 1645 H 151.358 1.85037 0.49333 0
M  V30 1646 H 149.663 2.49771 3.01863 0
M  V30 1647 H 151.36 2.84073 2.83026 0
M  V30 1648 H 147.95 3.8731 1.83546 0
M  V30 1649 H 152.134 4.75782 1.41229 0
M  V30 1650 H 147.39 6.05456 0.850451 0
M  V30 1651 H 151.564 6.95038 0.435324 0
M  V30 1652 H 149.191 7.60055 0.14862 0
M  V30 1653 N 150.766 -0.704594 1.40972 0
M  V30 1654 C 151.996 -1.49138 1.42974 0
M  V30 1655 C 152.404 -1.89175 0.0308406 0
M  V30 1656 O 151.747 -1.56734 -0.958138 0
M  V30 1657 C 151.809 -2.79016 2.26694 0
M  V30 1658 C 151.473 -2.61236 3.74973 0
M  V30 1659 C 152.47 -2.27773 4.67349 0
M  V30 1660 C 150.155 -2.77158 4.18914 0
M  V30 1661 C 152.149 -2.10457 6.01653 0
M  V30 1662 C 149.836 -2.59459 5.53285 0
M  V30 1663 C 150.834 -2.26158 6.4447 0
M  V30 1664 O 150.522 -2.08605 7.76363 0
M  V30 1665 H 150.254 -0.466443 0.489292 0
M  V30 1666 H 152.808 -0.8758 1.85793 0
M  V30 1667 H 151.038 -3.42947 1.78673 0
M  V30 1668 H 152.727 -3.40782 2.20504 0
M  V30 1669 H 153.493 -2.15095 4.34694 0
M  V30 1670 H 149.372 -3.02064 3.48251 0
M  V30 1671 H 152.916 -1.84387 6.72791 0
M  V30 1672 H 148.813 -2.71725 5.85522 0
M  V30 1673 H 149.581 -2.23439 7.87412 0
M  V30 1674 N 152.244 -1.26651 -0.937939 0
M  V30 1675 C 153.66 -1.03834 -1.21205 0
M  V30 1676 C 153.86 0.234502 -2.00131 0
M  V30 1677 O 152.916 0.942767 -2.3424 0
M  V30 1678 C 154.229 -2.27167 -1.97017 0
M  V30 1679 C 155.777 -2.32101 -2.09996 0
M  V30 1680 C 156.252 -3.55136 -2.8921 0
M  V30 1681 N 157.743 -3.55632 -2.96783 0
M  V30 1682 C 158.478 -4.475 -3.58512 0
M  V30 1683 N 157.974 -5.4966 -4.21717 0
M  V30 1684 N 159.767 -4.35145 -3.55816 0
M  V30 1685 H 151.918 -2.08398 -0.410391 0
M  V30 1686 H 154.181 -0.916031 -0.244114 0
M  V30 1687 H 153.887 -3.19765 -1.46434 0
M  V30 1688 H 153.761 -2.31672 -2.97671 0
M  V30 1689 H 156.148 -1.40015 -2.59769 0
M  V30 1690 H 156.229 -2.31605 -1.08594 0
M  V30 1691 H 155.873 -4.47553 -2.40123 0
M  V30 1692 H 155.803 -3.5288 -3.90875 0
M  V30 1693 H 158.294 -2.81743 -2.51852 0
M  V30 1694 H 158.607 -6.15943 -4.66727 0
M  V30 1695 H 156.952 -5.53514 -4.20294 0
M  V30 1696 H 160.143 -3.5455 -3.05634 0
M  V30 1697 H 160.316 -5.06934 -4.03636 0
M  V30 1698 N 153.722 1.14298 -1.08507 0
M  V30 1699 C 154.95 1.89219 -0.836876 0
M  V30 1700 C 155.365 1.78638 0.611054 0
M  V30 1701 O 154.722 1.14643 1.41998 0
M  V30 1702 C 154.773 3.39158 -1.25116 0
M  V30 1703 O 154.494 3.49449 -2.64229 0
M  V30 1704 C 155.995 4.31073 -1.03398 0
M  V30 1705 H 153.215 0.599328 -0.301739 0
M  V30 1706 H 155.759 1.44746 -1.44461 0
M  V30 1707 H 153.914 3.81251 -0.687514 0
M  V30 1708 H 154.328 4.42589 -2.81452 0
M  V30 1709 H 155.802 5.34646 -1.37323 0
M  V30 1710 H 156.279 4.3919 0.0289259 0
M  V30 1711 H 156.885 3.94738 -1.58311 0
M  V30 1712 N 155.201 0.870884 1.31352 0
M  V30 1713 C 156.449 0.48132 1.96285 0
M  V30 1714 C 156.77 -0.969813 1.69173 0
M  V30 1715 O 156.04 -1.67998 1.00764 0
M  V30 1716 H 154.62 0.175002 0.726212 0
M  V30 1717 H 157.282 1.11087 1.60143 0
M  V30 1718 H 156.378 0.639825 3.05471 0
M  V30 1719 N 156.679 -1.44442 0.630414 0
M  V30 1720 C 157.626 -2.30678 -0.0749355 0
M  V30 1721 C 158.596 -1.4344 -0.837502 0
M  V30 1722 O 159.781 -1.72343 -0.818684 0
M  V30 1723 C 156.921 -3.28706 -1.05103 0
M  V30 1724 C 156.034 -4.31046 -0.286954 0
M  V30 1725 C 155.169 -5.16167 -1.2548 0
M  V30 1726 C 154.208 -6.10216 -0.479843 0
M  V30 1727 N 153.345 -6.88039 -1.39811 0
M  V30 1728 H 158.185 -2.90454 0.666386 0
M  V30 1729 H 155.722 -1.43107 0.340404 0
M  V30 1730 H 157.68 -3.84027 -1.63031 0
M  V30 1731 H 156.31 -2.70632 -1.75949 0
M  V30 1732 H 155.362 -3.78203 0.408243 0
M  V30 1733 H 156.674 -4.97794 0.316657 0
M  V30 1734 H 155.828 -5.76002 -1.90544 0
M  V30 1735 H 154.567 -4.49491 -1.89233 0
M  V30 1736 H 153.572 -5.49491 0.184295 0
M  V30 1737 H 154.797 -6.78928 0.152965 0
M  V30 1738 H 152.743 -6.24032 -2.02287 0
M  V30 1739 H 152.66 -7.51223 -0.848508 0
M  V30 1740 H 153.928 -7.52397 -2.03762 0
M  V30 1741 N 158.157 -0.370918 -1.53173 0
M  V30 1742 C 159.087 0.464847 -2.28826 0
M  V30 1743 C 160.068 1.07936 -1.31468 0
M  V30 1744 O 161.253 1.0956 -1.60344 0
M  V30 1745 C 158.383 1.60196 -3.08147 0
M  V30 1746 C 157.337 1.11443 -4.13237 0
M  V30 1747 C 156.663 2.3422 -4.80672 0
M  V30 1748 C 157.963 0.195384 -5.21934 0
M  V30 1749 H 159.657 -0.166329 -2.98938 0
M  V30 1750 H 157.203 -0.0814359 -1.4377 0
M  V30 1751 H 159.156 2.19332 -3.59822 0
M  V30 1752 H 157.88 2.26045 -2.35735 0
M  V30 1753 H 156.539 0.545727 -3.62515 0
M  V30 1754 H 156.187 2.98537 -4.04827 0
M  V30 1755 H 155.887 2.02269 -5.51689 0
M  V30 1756 H 157.411 2.94032 -5.35143 0
M  V30 1757 H 158.825 0.694375 -5.69079 0
M  V30 1758 H 157.222 -0.0335027 -6.00091 0
M  V30 1759 H 158.292 -0.760961 -4.78892 0
M  V30 1760 N 159.635 1.57281 -0.100228 0
M  V30 1761 C 160.585 2.10848 0.86759 0
M  V30 1762 C 161.569 1.02473 1.24049 0
M  V30 1763 O 162.761 1.28739 1.21471 0
M  V30 1764 C 159.89 2.69648 2.12474 0
M  V30 1765 C 158.976 3.85074 1.77704 0
M  V30 1766 N 159.367 4.92897 1.13518 0
M  V30 1767 C 157.665 3.94905 2.07282 0
M  V30 1768 C 158.366 5.73475 0.974735 0
M  V30 1769 N 157.342 5.22675 1.4937 0
M  V30 1770 H 161.144 2.91594 0.367471 0
M  V30 1771 H 158.658 1.62074 0.102829 0
M  V30 1772 H 160.655 3.06356 2.82757 0
M  V30 1773 H 159.315 1.90359 2.63047 0
M  V30 1774 H 160.326 5.11662 0.801381 0
M  V30 1775 H 157.003 3.26633 2.60033 0
M  V30 1776 H 158.393 6.70238 0.472364 0
M  V30 1777 N 161.113 -0.173488 1.56642 0
M  V30 1778 C 162.046 -1.24353 1.91342 0
M  V30 1779 C 163.024 -1.4289 0.775965 0
M  V30 1780 O 164.208 -1.57932 1.02907 0
M  V30 1781 C 161.335 -2.60683 2.16245 0
M  V30 1782 C 160.381 -2.58894 3.38934 0
M  V30 1783 S 161.214 -2.0819 4.93373 0
M  V30 1784 C 162.37 -3.46302 5.21369 0
M  V30 1785 H 162.603 -0.947345 2.81803 0
M  V30 1786 H 160.136 -0.377958 1.49703 0
M  V30 1787 H 162.094 -3.39149 2.31275 0
M  V30 1788 H 160.755 -2.87502 1.26496 0
M  V30 1789 H 159.948 -3.59188 3.53553 0
M  V30 1790 H 159.55 -1.88522 3.2301 0
M  V30 1791 H 161.842 -4.42287 5.13214 0
M  V30 1792 H 162.785 -3.3656 6.23003 0
M  V30 1793 H 163.193 -3.42214 4.48943 0
M  V30 1794 N 162.591 -1.51276 -0.441967 0
M  V30 1795 C 163.524 -1.66933 -1.55591 0
M  V30 1796 C 164.502 -0.516958 -1.54163 0
M  V30 1797 O 165.686 -0.740209 -1.73358 0
M  V30 1798 C 162.813 -1.67866 -2.94174 0
M  V30 1799 C 161.859 -2.89013 -3.13646 0
M  V30 1800 S 162.692 -4.49897 -2.90436 0
M  V30 1801 C 163.848 -4.53568 -4.31308 0
M  V30 1802 H 164.081 -2.61155 -1.42076 0
M  V30 1803 H 161.614 -1.40902 -0.631341 0
M  V30 1804 H 163.572 -1.69089 -3.74058 0
M  V30 1805 H 162.233 -0.748296 -3.05056 0
M  V30 1806 H 161.426 -2.86054 -4.14957 0
M  V30 1807 H 161.028 -2.85509 -2.4158 0
M  V30 1808 H 163.32 -4.28924 -5.24434 0
M  V30 1809 H 164.263 -5.55355 -4.39303 0
M  V30 1810 H 164.671 -3.82943 -4.14747 0
M  V30 1811 N 164.069 0.697108 -1.41344 0
M  V30 1812 C 164.979 1.84088 -1.45427 0
M  V30 1813 C 165.995 1.70545 -0.34501 0
M  V30 1814 O 167.171 1.92488 -0.592492 0
M  V30 1815 C 164.236 3.20056 -1.33286 0
M  V30 1816 C 163.297 3.45718 -2.54514 0
M  V30 1817 C 162.53 4.75199 -2.42944 0
M  V30 1818 O 162.753 5.51579 -1.45318 0
M  V30 1819 O 161.687 5.0161 -3.32672 0
M  V30 1820 H 165.513 1.836 -2.41919 0
M  V30 1821 H 163.098 0.849966 -1.22866 0
M  V30 1822 H 164.98 4.01236 -1.28794 0
M  V30 1823 H 163.655 3.2123 -0.39909 0
M  V30 1824 H 162.562 2.64474 -2.64583 0
M  V30 1825 H 163.895 3.49356 -3.46715 0
M  V30 1826 N 165.547 1.27147 0.931209 0
M  V30 1827 C 166.457 1.11372 2.06478 0
M  V30 1828 C 167.473 0.044645 1.73943 0
M  V30 1829 O 168.649 0.250417 1.99837 0
M  V30 1830 C 165.714 0.758838 3.38294 0
M  V30 1831 C 164.775 1.90841 3.84549 0
M  V30 1832 C 164.008 1.57036 5.10074 0
M  V30 1833 O 164.231 0.476645 5.68405 0
M  V30 1834 O 163.165 2.40839 5.51616 0
M  V30 1835 H 166.991 2.06493 2.22698 0
M  V30 1836 H 164.576 1.06301 1.04978 0
M  V30 1837 H 166.458 0.574098 4.17471 0
M  V30 1838 H 165.133 -0.162879 3.2329 0
M  V30 1839 H 164.04 2.14819 3.06274 0
M  V30 1840 H 165.373 2.81021 4.04089 0
M  V30 1841 N 167.025 -1.13721 1.09112 0
M  V30 1842 C 167.958 -2.18094 0.67158 0
M  V30 1843 C 168.936 -1.59414 -0.320299 0
M  V30 1844 O 170.12 -1.87183 -0.222444 0
M  V30 1845 C 167.247 -3.38698 -0.0111189 0
M  V30 1846 C 166.293 -4.15966 0.942055 0
M  V30 1847 S 167.126 -4.7604 2.45246 0
M  V30 1848 C 168.282 -5.99994 1.78208 0
M  V30 1849 H 168.515 -2.53344 1.55577 0
M  V30 1850 H 166.048 -1.24967 0.906789 0
M  V30 1851 H 168.006 -4.08559 -0.398716 0
M  V30 1852 H 166.667 -3.01756 -0.871905 0
M  V30 1853 H 165.86 -5.02318 0.411396 0
M  V30 1854 H 165.462 -3.51745 1.2709 0
M  V30 1855 H 167.754 -6.68441 1.10424 0
M  V30 1856 H 168.697 -6.57662 2.62463 0
M  V30 1857 H 169.105 -5.50432 1.25238 0
M  V30 1858 N 168.503 -0.877838 -1.30888 0
M  V30 1859 C 169.743 -0.499301 -1.98208 0
M  V30 1860 C 170.107 0.932649 -1.67826 0
M  V30 1861 O 171.308 1.41694 -2.28421 0
M  V30 1862 C 169.579 -0.758221 -3.49265 0
M  V30 1863 S 171.138 -0.480719 -4.36159 0
M  V30 1864 H 167.956 -0.186062 -0.686223 0
M  V30 1865 H 170.558 -1.13556 -1.59139 0
M  V30 1866 H 169.262 -1.79903 -3.68867 0
M  V30 1867 H 168.793 -0.109247 -3.93248 0
M  V30 1868 H 170.808 0.683698 -4.91467 0
M  V30 1869 N 169.982 1.44106 -0.638065 0
M  V30 1870 C 170.945 2.29138 0.0531013 0
M  V30 1871 C 171.945 1.41409 0.765506 0
M  V30 1872 O 173.135 1.63206 0.609046 0
M  V30 1873 C 170.267 3.23144 1.08584 0
M  V30 1874 H 171.46 2.91739 -0.694883 0
M  V30 1875 H 169.013 1.51134 -0.398538 0
M  V30 1876 H 169.748 2.65408 1.86357 0
M  V30 1877 H 169.533 3.87804 0.578852 0
M  V30 1878 H 171.023 3.87004 1.56899 0
M  V30 1879 N 171.46 0.379036 1.52974 0
M  V30 1880 C 172.39 -0.452706 2.29069 0
M  V30 1881 C 173.371 -1.07237 1.32039 0
M  V30 1882 O 174.556 -1.08708 1.60923 0
M  V30 1883 C 171.686 -1.5856 3.08992 0
M  V30 1884 C 170.64 -1.0925 4.13822 0
M  V30 1885 C 169.966 -2.31668 4.81907 0
M  V30 1886 C 171.266 -0.167702 5.22031 0
M  V30 1887 H 172.96 0.182181 2.98845 0
M  V30 1888 H 170.506 0.0890592 1.43724 0
M  V30 1889 H 172.459 -2.1742 3.6098 0
M  V30 1890 H 171.183 -2.24792 2.36931 0
M  V30 1891 H 169.842 -0.526494 3.628 0
M  V30 1892 H 169.49 -2.96386 4.06404 0
M  V30 1893 H 169.19 -1.9934 5.52754 0
M  V30 1894 H 170.714 -2.91189 5.36695 0
M  V30 1895 H 172.128 -0.664186 5.6944 0
M  V30 1896 H 170.525 0.0653265 6.00064 0
M  V30 1897 H 171.595 0.786347 4.78482 0
M  V30 1898 N 172.938 -1.57226 0.108567 0
M  V30 1899 C 174.163 -1.99604 -0.563303 0
M  V30 1900 C 174.588 -0.987563 -1.6009 0
M  V30 1901 O 173.946 0.0421687 -1.81251 0
M  V30 1902 C 173.994 -3.40902 -1.17552 0
M  V30 1903 O 173.098 -3.42896 -2.2912 0
M  V30 1904 H 172.439 -0.648704 -0.1417 0
M  V30 1905 H 174.969 -2.03679 0.193961 0
M  V30 1906 H 174.979 -3.78886 -1.51357 0
M  V30 1907 H 173.654 -4.1382 -0.415445 0
M  V30 1908 H 172.231 -3.1672 -1.96832 0
M  V30 1909 N 174.416 0.165178 -1.56732 0
M  V30 1910 C 175.663 0.880807 -1.8234 0
M  V30 1911 C 175.991 1.81977 -0.686621 0
M  V30 1912 O 175.246 1.92971 0.325697 0
M  V30 1913 C 175.545 1.70405 -3.1416 0
M  V30 1914 C 175.211 0.913475 -4.4155 0
M  V30 1915 C 173.873 0.695303 -4.7615 0
M  V30 1916 C 176.225 0.359349 -5.1996 0
M  V30 1917 C 173.553 -0.0879947 -5.86634 0
M  V30 1918 C 175.905 -0.410893 -6.31264 0
M  V30 1919 C 174.569 -0.639808 -6.64427 0
M  V30 1920 H 173.839 0.32231 -0.667231 0
M  V30 1921 H 176.486 0.145402 -1.90947 0
M  V30 1922 H 174.791 2.50903 -3.00923 0
M  V30 1923 H 176.488 2.26091 -3.31186 0
M  V30 1924 H 173.078 1.09357 -4.14414 0
M  V30 1925 H 177.262 0.515228 -4.93618 0
M  V30 1926 H 172.518 -0.27503 -6.10781 0
M  V30 1927 H 176.692 -0.847494 -6.91224 0
M  V30 1928 H 174.319 -1.24864 -7.49875 0
M  V30 1929 N 175.894 1.51508 0.433938 0
M  V30 1930 C 177.142 1.6402 1.18075 0
M  V30 1931 C 177.463 0.360328 1.91642 0
M  V30 1932 O 176.733 -0.623945 1.85698 0
M  V30 1933 H 175.313 0.6045 0.43885 0
M  V30 1934 H 177.975 1.88452 0.497178 0
M  V30 1935 H 177.071 2.46949 1.90847 0
M  V30 1936 N 177.372 -0.689602 1.41712 0
M  V30 1937 C 178.304 -1.815 1.39966 0
M  V30 1938 C 179.317 -1.59995 0.300917 0
M  V30 1939 O 180.506 -1.69387 0.563039 0
M  V30 1940 C 177.606 -3.18364 1.16179 0
M  V30 1941 C 176.779 -3.66847 2.38206 0
M  V30 1942 C 175.838 -4.82398 2.10186 0
M  V30 1943 O 174.864 -4.93706 2.83272 0
M  V30 1944 N 176.066 -5.70064 1.0958 0
M  V30 1945 H 178.831 -1.83488 2.36965 0
M  V30 1946 H 176.392 -0.872149 1.36401 0
M  V30 1947 H 178.384 -3.93301 0.953756 0
M  V30 1948 H 176.954 -3.11365 0.27756 0
M  V30 1949 H 176.174 -2.82751 2.74673 0
M  V30 1950 H 177.462 -3.95978 3.19498 0
M  V30 1951 H 176.86 -5.63565 0.491019 0
M  V30 1952 H 175.417 -6.44874 0.947656 0
M  V30 1953 N 178.85 -1.27639 -0.924453 0
M  V30 1954 C 179.76 -1.12466 -2.05885 0
M  V30 1955 C 180.776 -0.053869 -1.73917 0
M  V30 1956 O 181.952 -0.261012 -1.99702 0
M  V30 1957 C 179.017 -0.776768 -3.37886 0
M  V30 1958 C 178.078 -1.92878 -3.83532 0
M  V30 1959 C 177.311 -1.59739 -5.09234 0
M  V30 1960 O 177.534 -0.506782 -5.68144 0
M  V30 1961 O 176.468 -2.43761 -5.50331 0
M  V30 1962 H 180.294 -2.07671 -2.21599 0
M  V30 1963 H 177.879 -1.06857 -1.04413 0
M  V30 1964 H 179.761 -0.596229 -4.17161 0
M  V30 1965 H 178.436 0.145732 -3.23372 0
M  V30 1966 H 177.343 -2.1644 -3.0513 0
M  V30 1967 H 178.676 -2.8316 -4.02593 0
M  V30 1968 N 180.328 1.1314 -1.09713 0
M  V30 1969 C 181.258 2.20748 -0.761102 0
M  V30 1970 C 182.239 1.68061 0.262566 0
M  V30 1971 O 183.424 1.93765 0.129977 0
M  V30 1972 C 180.554 3.46812 -0.184054 0
M  V30 1973 C 179.508 4.12606 -1.13757 0
M  V30 1974 C 178.834 5.33031 -0.422083 0
M  V30 1975 C 180.134 4.59603 -2.48118 0
M  V30 1976 H 181.828 2.49113 -1.66082 0
M  V30 1977 H 179.374 1.19734 -0.799987 0
M  V30 1978 H 181.327 4.21353 0.0631215 0
M  V30 1979 H 180.051 3.17851 0.750868 0
M  V30 1980 H 178.71 3.40036 -1.37007 0
M  V30 1981 H 178.358 5.00335 0.517072 0
M  V30 1982 H 178.058 5.77999 -1.05788 0
M  V30 1983 H 179.582 6.10325 -0.183277 0
M  V30 1984 H 180.996 5.25552 -2.29059 0
M  V30 1985 H 179.393 5.15321 -3.07514 0
M  V30 1986 H 180.463 3.73971 -3.08665 0
M  V30 1987 N 181.806 0.884767 1.30421 0
M  V30 1988 C 183.083 0.423185 1.90967 0
M  V30 1989 C 183.463 -1.09605 1.80416 0
M  V30 1990 O 182.811 -1.93126 1.22125 0
M  V30 1991 C 183.021 0.921056 3.36627 0
M  V30 1992 C 184.369 0.955903 4.137 0
M  V30 1993 O 185.393 0.867706 3.4547 0
M  V30 1994 O 184.252 1.08614 5.35598 0
M  V30 1995 H 181.346 0.129369 0.816819 0
M  V30 1996 H 183.892 0.973653 1.3899 0
M  V30 1997 H 182.664 1.96489 3.3839 0
M  V30 1998 H 182.287 0.349741 3.96059 0
M  V30 1999 N 183.284 -1.43765 0.645699 0
M  V30 2000 C 184.514 -2.05953 0.163318 0
M  V30 2001 C 184.922 -1.48432 -1.17322 0
M  V30 2002 O 184.265 -0.607295 -1.73371 0
M  V30 2003 C 184.327 -3.59499 -0.0103065 0
M  V30 2004 C 183.991 -4.39563 1.25035 0
M  V30 2005 C 184.988 -4.72108 2.17739 0
M  V30 2006 C 182.673 -4.79697 1.48983 0
M  V30 2007 C 184.667 -5.43688 3.3269 0
M  V30 2008 C 182.354 -5.51023 2.64229 0
M  V30 2009 C 183.352 -5.8294 3.55908 0
M  V30 2010 O 183.04 -6.5281 4.69142 0
M  V30 2011 H 182.772 -0.670798 0.0836986 0
M  V30 2012 H 185.326 -1.85384 0.884407 0
M  V30 2013 H 183.556 -3.78613 -0.78669 0
M  V30 2014 H 185.245 -4.03408 -0.449087 0
M  V30 2015 H 186.011 -4.41627 2.00476 0
M  V30 2016 H 181.89 -4.54266 0.785078 0
M  V30 2017 H 185.434 -5.68517 4.04269 0
M  V30 2018 H 181.331 -5.8092 2.81429 0
M  V30 2019 H 182.099 -6.71288 4.6831 0
M  V30 2020 N 184.763 -0.387143 -1.52771 0
M  V30 2021 C 186.009 0.188506 -2.02525 0
M  V30 2022 C 186.364 1.44649 -1.26864 0
M  V30 2023 O 185.657 1.88189 -0.359945 0
M  V30 2024 C 185.851 0.512209 -3.53711 0
M  V30 2025 C 185.68 -0.712855 -4.44014 0
M  V30 2026 C 184.45 -1.23147 -4.90064 0
M  V30 2027 C 186.648 -1.58453 -4.89282 0
M  V30 2028 N 184.63 -2.41431 -5.64433 0
M  V30 2029 C 186.001 -2.61381 -5.6221 0
M  V30 2030 C 188.056 -1.60488 -4.71326 0
M  V30 2031 C 186.759 -3.66227 -6.19088 0
M  V30 2032 C 188.785 -2.6424 -5.29085 0
M  V30 2033 C 188.147 -3.6589 -6.01917 0
M  V30 2034 H 184.246 0.0311236 -0.78138 0
M  V30 2035 H 186.83 -0.536548 -1.87161 0
M  V30 2036 H 185.001 1.20632 -3.69192 0
M  V30 2037 H 186.733 1.07482 -3.90166 0
M  V30 2038 H 183.488 -0.792795 -4.66917 0
M  V30 2039 H 183.912 -3.01274 -6.0627 0
M  V30 2040 H 188.554 -0.83247 -4.14524 0
M  V30 2041 H 186.272 -4.44337 -6.74974 0
M  V30 2042 H 189.858 -2.66695 -5.17074 0
M  V30 2043 H 188.738 -4.44855 -6.45813 0
M  V30 2044 N 186.241 1.57166 -0.116904 0
M  V30 2045 C 187.489 1.94737 0.540533 0
M  V30 2046 C 187.81 1.00096 1.67349 0
M  V30 2047 O 187.08 0.0568854 1.95817 0
M  V30 2048 H 185.66 0.718981 0.202669 0
M  V30 2049 H 188.322 1.94017 -0.185353 0
M  V30 2050 H 187.418 2.97719 0.936483 0
M  V30 2051 N 187.719 -0.156864 1.56817 0
M  V30 2052 C 188.968 -0.869504 1.81996 0
M  V30 2053 C 189.281 -1.82777 0.696545 0
M  V30 2054 O 190.487 -2.58384 0.833658 0
M  V30 2055 C 188.943 -1.59679 3.22538 0
M  V30 2056 C 188.551 -0.681431 4.42787 0
M  V30 2057 C 190.295 -2.2968 3.56997 0
M  V30 2058 C 188.202 -1.40978 5.74351 0
M  V30 2059 H 187.132 -0.328438 0.678708 0
M  V30 2060 H 189.783 -0.1223 1.83092 0
M  V30 2061 H 188.165 -2.38927 3.158 0
M  V30 2062 H 189.339 0.0751166 4.60739 0
M  V30 2063 H 187.654 -0.0903431 4.16302 0
M  V30 2064 H 190.251 -2.84794 4.52544 0
M  V30 2065 H 190.594 -3.05707 2.82576 0
M  V30 2066 H 191.127 -1.57361 3.65352 0
M  V30 2067 H 187.866 -0.691561 6.51842 0
M  V30 2068 H 187.386 -2.13929 5.60352 0
M  V30 2069 H 189.065 -1.95337 6.16808 0
M  V30 2070 N 189.197 -1.51736 -0.425897 0
M  V30 2071 C 190.474 -1.55519 -1.1863 0
M  V30 2072 C 190.854 -0.326219 -2.08564 0
M  V30 2073 O 190.202 0.688012 -2.17896 0
M  V30 2074 C 190.412 -2.87521 -1.9782 0
M  V30 2075 C 191.76 -3.39899 -2.54468 0
M  V30 2076 O 192.784 -2.89148 -2.08019 0
M  V30 2077 O 191.643 -4.2848 -3.39215 0
M  V30 2078 H 188.737 -0.625739 -0.540721 0
M  V30 2079 H 191.283 -1.64055 -0.434038 0
M  V30 2080 H 190.055 -3.68422 -1.31836 0
M  V30 2081 H 189.678 -2.822 -2.80088 0
M  V30 2082 N 190.675 0.682077 -1.42076 0
M  V30 2083 C 191.585 1.82535 -1.47371 0
M  V30 2084 C 192.601 1.7017 -0.363079 0
M  V30 2085 O 193.777 1.91848 -0.612875 0
M  V30 2086 C 190.842 3.18624 -1.36674 0
M  V30 2087 C 189.903 3.42999 -2.58167 0
M  V30 2088 C 189.136 4.72595 -2.4797 0
M  V30 2089 O 189.359 5.50006 -1.5116 0
M  V30 2090 O 188.293 4.98054 -3.37974 0
M  V30 2091 H 192.119 1.81023 -2.43853 0
M  V30 2092 H 189.704 0.836887 -1.2376 0
M  V30 2093 H 191.586 3.99847 -1.33043 0
M  V30 2094 H 190.261 3.20789 -0.433138 0
M  V30 2095 H 189.168 2.61653 -2.67373 0
M  V30 2096 H 190.501 3.45659 -3.50401 0
M  V30 2097 N 192.153 1.28127 0.917671 0
M  V30 2098 C 193.402 1.14432 1.66097 0
M  V30 2099 C 193.715 -0.307247 1.93172 0
M  V30 2100 O 194.921 -0.565259 2.65551 0
M  V30 2101 C 193.377 2.00015 2.99202 0
M  V30 2102 C 192.985 3.49889 2.79789 0
M  V30 2103 C 194.729 1.94996 3.77064 0
M  V30 2104 C 192.636 4.27636 4.08511 0
M  V30 2105 H 191.566 0.424662 0.62304 0
M  V30 2106 H 194.217 1.52628 1.01868 0
M  V30 2107 H 192.599 1.54672 3.64544 0
M  V30 2108 H 193.773 4.03162 2.23152 0
M  V30 2109 H 192.088 3.56392 2.15345 0
M  V30 2110 H 194.685 2.50354 4.72469 0
M  V30 2111 H 195.028 0.925819 4.05875 0
M  V30 2112 H 195.561 2.38287 3.18534 0
M  V30 2113 H 192.3 5.30615 3.84874 0
M  V30 2114 H 191.82 3.79137 4.64774 0
M  V30 2115 H 193.499 4.37346 4.76799 0
M  V30 2116 N 193.631 -1.12557 1.10312 0
M  V30 2117 C 194.861 -1.87592 0.865617 0
M  V30 2118 C 195.269 -1.79851 -0.587389 0
M  V30 2119 O 194.612 -1.16949 -1.41664 0
M  V30 2120 C 194.674 -3.37665 1.23381 0
M  V30 2121 C 194.338 -3.69181 2.69359 0
M  V30 2122 C 195.335 -3.67652 3.67597 0
M  V30 2123 C 193.02 -3.98555 3.05711 0
M  V30 2124 C 195.014 -3.95053 5.00212 0
M  V30 2125 C 192.701 -4.25616 4.38514 0
M  V30 2126 C 193.699 -4.23851 5.35574 0
M  V30 2127 O 193.387 -4.50242 6.65986 0
M  V30 2128 H 193.119 -0.600442 0.310557 0
M  V30 2129 H 195.673 -1.4335 1.47105 0
M  V30 2130 H 193.903 -3.82454 0.571467 0
M  V30 2131 H 195.592 -3.94041 0.973994 0
M  V30 2132 H 196.358 -3.45024 3.40857 0
M  V30 2133 H 192.237 -3.99071 2.30789 0
M  V30 2134 H 195.781 -3.93591 5.75962 0
M  V30 2135 H 191.678 -4.47718 4.64994 0
M  V30 2136 H 192.446 -4.67867 6.71597 0
M  V30 2137 N 195.109 -0.891671 -1.2995 0
M  V30 2138 C 196.039 -0.379797 -2.30391 0
M  V30 2139 C 197.02 0.540919 -1.6127 0
M  V30 2140 O 198.205 0.453352 -1.88834 0
M  V30 2141 C 195.335 0.400654 -3.44981 0
M  V30 2142 C 194.289 -0.428905 -4.25846 0
M  V30 2143 C 193.615 0.478557 -5.32554 0
M  V30 2144 C 194.915 -1.67458 -4.94727 0
M  V30 2145 H 196.609 -1.21914 -2.73454 0
M  V30 2146 H 194.155 -0.587675 -1.31462 0
M  V30 2147 H 196.108 0.769434 -4.14316 0
M  V30 2148 H 194.832 1.27371 -3.0074 0
M  V30 2149 H 193.491 -0.779911 -3.58208 0
M  V30 2150 H 193.139 1.34951 -4.84559 0
M  V30 2151 H 192.839 -0.0727433 -5.87555 0
M  V30 2152 H 194.363 0.843705 -6.04743 0
M  V30 2153 H 195.777 -1.376 -5.56542 0
M  V30 2154 H 194.174 -2.16659 -5.59624 0
M  V30 2155 H 195.244 -2.41518 -4.20473 0
M  V30 2156 N 196.587 1.43421 -0.653314 0
M  V30 2157 C 197.497 2.34568 0.0388565 0
M  V30 2158 C 198.513 1.53888 0.81207 0
M  V30 2159 O 199.689 1.86539 0.759294 0
M  V30 2160 C 196.754 3.32167 0.993269 0
M  V30 2161 C 195.815 4.28751 0.216977 0
M  V30 2162 C 195.048 5.21688 1.12593 0
M  V30 2163 O 195.271 5.19052 2.36519 0
M  V30 2164 O 194.205 5.98919 0.598284 0
M  V30 2165 H 198.031 2.95251 -0.711386 0
M  V30 2166 H 195.616 1.43564 -0.413502 0
M  V30 2167 H 197.498 3.92183 1.54176 0
M  V30 2168 H 196.173 2.73987 1.72374 0
M  V30 2169 H 195.08 3.72215 -0.375101 0
M  V30 2170 H 196.413 4.89913 -0.473924 0
M  V30 2171 N 198.065 0.39524 1.52563 0
M  V30 2172 C 199.29 -0.187456 2.06551 0
M  V30 2173 C 199.715 -1.39249 1.26457 0
M  V30 2174 O 199.073 -1.78947 0.291151 0
M  V30 2175 C 199.121 -0.529985 3.56684 0
M  V30 2176 O 198.225 -1.62307 3.79118 0
M  V30 2177 H 197.566 -0.0202537 0.663691 0
M  V30 2178 H 200.096 0.564426 1.96661 0
M  V30 2179 H 200.106 -0.792598 4.00227 0
M  V30 2180 H 198.781 0.350987 4.14416 0
M  V30 2181 H 197.358 -1.3537 3.47461 0
M  V30 2182 N 199.544 -1.57102 0.125237 0
M  V30 2183 C 200.784 -1.97294 -0.534259 0
M  V30 2184 C 201.148 -1.0074 -1.63449 0
M  V30 2185 O 202.349 -1.29893 -2.35332 0
M  V30 2186 C 200.62 -3.41705 -1.04748 0
M  V30 2187 S 202.179 -4.03913 -1.71463 0
M  V30 2188 H 198.997 -0.689517 -0.173458 0
M  V30 2189 H 201.599 -1.94349 0.211797 0
M  V30 2190 H 200.303 -4.09723 -0.235649 0
M  V30 2191 H 199.834 -3.48315 -1.82867 0
M  V30 2192 H 201.849 -3.95182 -3.00077 0
M  V30 2193 N 201.022 0.148545 -1.56898 0
M  V30 2194 C 202.262 0.86765 -1.85071 0
M  V30 2195 C 202.626 1.78417 -0.709317 0
M  V30 2196 O 203.827 2.54261 -0.872049 0
M  V30 2197 C 202.098 1.62306 -3.1842 0
M  V30 2198 S 203.657 2.3878 -3.68143 0
M  V30 2199 H 200.475 0.290174 -0.649092 0
M  V30 2200 H 203.077 0.127755 -1.95082 0
M  V30 2201 H 201.781 0.941192 -3.99462 0
M  V30 2202 H 201.312 2.4039 -3.1141 0
M  V30 2203 H 203.327 3.63942 -3.37285 0
M  V30 2204 N 202.5 1.5196 0.417844 0
M  V30 2205 C 203.432 1.70895 1.52733 0
M  V30 2206 C 204.445 0.589405 1.51756 0
M  V30 2207 O 205.634 0.864312 1.56179 0
M  V30 2208 C 202.734 1.72627 2.91639 0
M  V30 2209 C 201.907 3.01479 3.16905 0
M  V30 2210 C 200.966 2.95139 4.35637 0
M  V30 2211 O 199.992 3.69059 4.3334 0
M  V30 2212 N 201.194 2.12328 5.40275 0
M  V30 2213 H 203.959 2.66612 1.36888 0
M  V30 2214 H 201.52 1.50089 0.607037 0
M  V30 2215 H 203.512 1.65928 3.6912 0
M  V30 2216 H 202.082 0.844216 3.00985 0
M  V30 2217 H 201.302 3.21895 2.27546 0
M  V30 2218 H 202.59 3.86736 3.30625 0
M  V30 2219 H 201.988 1.51685 5.44985 0
M  V30 2220 H 200.545 2.11494 6.16534 0
M  V30 2221 N 203.978 -0.674533 1.42435 0
M  V30 2222 C 204.941 -1.76986 1.45632 0
M  V30 2223 C 205.941 -1.5708 0.343871 0
M  V30 2224 O 207.131 -1.63367 0.604709 0
M  V30 2225 C 204.263 -3.15623 1.28822 0
M  V30 2226 H 205.456 -1.75539 2.43158 0
M  V30 2227 H 203.009 -0.884189 1.28887 0
M  V30 2228 H 203.744 -3.22696 0.322193 0
M  V30 2229 H 203.529 -3.31475 2.09444 0
M  V30 2230 H 205.019 -3.95537 1.33942 0
M  V30 2231 N 205.456 -1.28612 -0.910864 0
M  V30 2232 C 206.872 -1.06381 -1.18976 0
M  V30 2233 C 207.072 0.191998 -2.00583 0
M  V30 2234 O 206.128 0.892869 -2.36187 0
M  V30 2235 C 207.441 -2.31295 -1.92154 0
M  V30 2236 C 208.989 -2.36503 -2.05025 0
M  V30 2237 C 209.464 -3.61191 -2.81612 0
M  V30 2238 N 210.955 -3.61847 -2.89172 0
M  V30 2239 C 211.69 -4.55004 -3.4894 0
M  V30 2240 N 211.186 -5.58482 -4.09963 0
M  V30 2241 N 212.979 -4.42594 -3.46506 0
M  V30 2242 H 205.13 -2.09221 -0.366094 0
M  V30 2243 H 207.393 -0.921003 -0.224629 0
M  V30 2244 H 207.099 -3.228 -1.39618 0
M  V30 2245 H 206.973 -2.37934 -2.9269 0
M  V30 2246 H 209.36 -1.45494 -2.5674 0
M  V30 2247 H 209.441 -2.33857 -1.03657 0
M  V30 2248 H 209.085 -4.52545 -2.30576 0
M  V30 2249 H 209.015 -3.61092 -3.83302 0
M  V30 2250 H 211.506 -2.87022 -2.45819 0
M  V30 2251 H 211.819 -6.25704 -4.53557 0
M  V30 2252 H 210.164 -5.62305 -4.08459 0
M  V30 2253 H 213.355 -3.60953 -2.98045 0
M  V30 2254 H 213.528 -5.15381 -3.92793 0
M  V30 2255 N 206.934 1.1197 -1.10907 0
M  V30 2256 C 208.164 1.8713 -0.875553 0
M  V30 2257 C 208.572 1.8016 0.577843 0
M  V30 2258 O 207.915 1.17699 1.41042 0
M  V30 2259 C 207.977 3.37005 -1.2517 0
M  V30 2260 C 207.641 3.67748 -2.71313 0
M  V30 2261 C 208.638 3.65698 -3.69542 0
M  V30 2262 C 206.323 3.96928 -3.07821 0
M  V30 2263 C 208.317 3.92395 -5.023 0
M  V30 2264 C 206.004 4.23284 -4.40765 0
M  V30 2265 C 207.002 4.21005 -5.37814 0
M  V30 2266 O 206.69 4.46704 -6.68364 0
M  V30 2267 H 206.422 0.598786 -0.313737 0
M  V30 2268 H 208.976 1.42568 -1.47863 0
M  V30 2269 H 207.206 3.82146 -0.591741 0
M  V30 2270 H 208.895 3.93519 -0.994877 0
M  V30 2271 H 209.661 3.43211 -3.42682 0
M  V30 2272 H 205.54 3.97841 -2.32902 0
M  V30 2273 H 209.084 3.90531 -5.78041 0
M  V30 2274 H 204.981 4.45246 -4.67361 0
M  V30 2275 H 205.749 4.64299 -6.74069 0
M  V30 2276 N 208.412 0.89855 1.29475 0
M  V30 2277 C 209.362 0.346767 2.25348 0
M  V30 2278 C 210.346 -0.532509 1.51833 0
M  V30 2279 O 211.538 -0.374714 1.72988 0
M  V30 2280 C 208.667 -0.425681 3.40651 0
M  V30 2281 C 207.753 0.46845 4.21505 0
M  V30 2282 N 208.144 1.57514 4.80648 0
M  V30 2283 C 206.442 0.26603 4.45206 0
M  V30 2284 C 207.143 2.12889 5.41344 0
M  V30 2285 N 206.119 1.42208 5.24669 0
M  V30 2286 H 209.921 1.19219 2.68634 0
M  V30 2287 H 207.435 0.749473 1.44072 0
M  V30 2288 H 209.432 -0.837716 4.08397 0
M  V30 2289 H 208.092 -1.26838 2.98902 0
M  V30 2290 H 209.103 1.95789 4.79465 0
M  V30 2291 H 205.78 -0.538394 4.14014 0
M  V30 2292 H 207.17 3.05901 5.98226 0
M  V30 2293 N 209.89 -1.43072 0.660911 0
M  V30 2294 C 210.822 -2.29108 -0.0647641 0
M  V30 2295 C 211.835 -1.42928 -0.779448 0
M  V30 2296 O 213.024 -1.66788 -0.635921 0
M  V30 2297 C 210.124 -3.20032 -1.11503 0
M  V30 2298 C 209.297 -4.34792 -0.476955 0
M  V30 2299 C 208.356 -5.06534 -1.42513 0
M  V30 2300 O 207.382 -5.61538 -0.930771 0
M  V30 2301 N 208.584 -5.1075 -2.75889 0
M  V30 2302 H 211.349 -2.92029 0.673731 0
M  V30 2303 H 208.91 -1.53846 0.50427 0
M  V30 2304 H 210.902 -3.64892 -1.75032 0
M  V30 2305 H 209.472 -2.58658 -1.75541 0
M  V30 2306 H 208.692 -3.92752 0.337572 0
M  V30 2307 H 209.98 -5.0879 -0.0318525 0
M  V30 2308 H 209.378 -4.67447 -3.18606 0
M  V30 2309 H 207.935 -5.59302 -3.347 0
M  V30 2310 N 211.368 -0.403325 -1.52352 0
M  V30 2311 C 212.315 0.425011 -2.26853 0
M  V30 2312 C 213.285 1.04598 -1.29029 0
M  V30 2313 O 214.47 1.07135 -1.57882 0
M  V30 2314 C 211.61 1.53888 -3.08889 0
M  V30 2315 C 210.723 0.939396 -4.21663 0
M  V30 2316 C 209.858 2.02547 -4.91068 0
M  V30 2317 C 208.897 1.40263 -5.95813 0
M  V30 2318 N 208.034 2.4286 -6.58759 0
M  V30 2319 H 212.874 -0.21674 -2.97211 0
M  V30 2320 H 210.411 -0.118722 -1.4662 0
M  V30 2321 H 212.369 2.19558 -3.54753 0
M  V30 2322 H 210.999 2.15074 -2.40714 0
M  V30 2323 H 210.051 0.171898 -3.80011 0
M  V30 2324 H 211.363 0.44436 -4.96817 0
M  V30 2325 H 210.517 2.75958 -5.40308 0
M  V30 2326 H 209.256 2.55415 -4.15469 0
M  V30 2327 H 208.261 0.653833 -5.45898 0
M  V30 2328 H 209.486 0.881719 -6.73352 0
M  V30 2329 H 207.432 2.94871 -5.85992 0
M  V30 2330 H 207.349 1.98152 -7.2957 0
M  V30 2331 H 208.617 3.15858 -7.12639 0
M  V30 2332 N 212.846 1.57033 -0.133567 0
M  V30 2333 C 213.793 2.16074 0.811208 0
M  V30 2334 C 214.763 1.08979 1.2535 0
M  V30 2335 O 215.948 1.36958 1.32843 0
M  V30 2336 C 213.088 2.77595 2.05024 0
M  V30 2337 C 212.201 3.99042 1.65498 0
M  V30 2338 C 211.336 4.48603 2.84479 0
M  V30 2339 C 210.375 5.62547 2.41262 0
M  V30 2340 N 209.512 6.06787 3.53206 0
M  V30 2341 H 214.352 2.96477 0.300906 0
M  V30 2342 H 211.889 1.46462 0.136822 0
M  V30 2343 H 213.847 3.11402 2.77642 0
M  V30 2344 H 212.477 1.99859 2.53488 0
M  V30 2345 H 211.529 3.71302 0.826981 0
M  V30 2346 H 212.841 4.81629 1.29748 0
M  V30 2347 H 211.995 4.84395 3.65303 0
M  V30 2348 H 210.734 3.64995 3.23465 0
M  V30 2349 H 209.739 5.26345 1.58874 0
M  V30 2350 H 210.964 6.47931 2.03377 0
M  V30 2351 H 208.91 5.26117 3.91838 0
M  V30 2352 H 208.827 6.84266 3.21427 0
M  V30 2353 H 210.095 6.4722 4.34427 0
M  V30 2354 N 214.325 -0.140222 1.56975 0
M  V30 2355 C 215.235 -1.19223 2.02047 0
M  V30 2356 C 216.251 -1.46612 0.937062 0
M  V30 2357 O 217.427 -1.58148 1.24704 0
M  V30 2358 C 214.492 -2.50414 2.39778 0
M  V30 2359 C 213.553 -2.30612 3.621 0
M  V30 2360 C 212.786 -3.55547 3.98023 0
M  V30 2361 O 213.009 -4.62004 3.34528 0
M  V30 2362 O 211.943 -3.47808 4.91237 0
M  V30 2363 H 215.769 -0.839559 2.91865 0
M  V30 2364 H 213.354 -0.349453 1.45256 0
M  V30 2365 H 215.236 -3.27747 2.64877 0
M  V30 2366 H 213.911 -2.85198 1.53114 0
M  V30 2367 H 212.818 -1.51207 3.4218 0
M  V30 2368 H 214.151 -2.00741 4.49404 0
M  V30 2369 N 215.803 -1.52179 -0.40978 0
M  V30 2370 C 216.735 -1.71703 -1.51825 0
M  V30 2371 C 217.748 -0.597445 -1.51441 0
M  V30 2372 O 218.937 -0.872582 -1.55719 0
M  V30 2373 C 216.037 -1.74171 -2.90719 0
M  V30 2374 C 215.21 -3.03156 -3.15302 0
M  V30 2375 C 214.269 -2.97445 -4.34065 0
M  V30 2376 O 213.295 -3.71352 -4.31377 0
M  V30 2377 N 214.497 -2.15191 -5.39141 0
M  V30 2378 H 217.262 -2.67334 -1.35472 0
M  V30 2379 H 214.823 -1.50409 -0.599069 0
M  V30 2380 H 216.815 -1.67884 -3.68235 0
M  V30 2381 H 215.385 -0.860166 -3.00533 0
M  V30 2382 H 214.605 -3.23097 -2.25836 0
M  V30 2383 H 215.893 -3.88484 -3.28569 0
M  V30 2384 H 215.291 -1.54573 -5.44173 0
M  V30 2385 H 213.848 -2.1476 -6.15403 0
M  V30 2386 N 217.281 0.66697 -1.42791 0
M  V30 2387 C 218.214 1.79177 -1.41318 0
M  V30 2388 C 219.192 1.60234 -0.276401 0
M  V30 2389 O 220.376 1.82602 -0.46785 0
M  V30 2390 C 217.503 3.16289 -1.21157 0
M  V30 2391 C 216.549 3.53964 -2.37932 0
M  V30 2392 S 217.382 3.55501 -4.00474 0
M  V30 2393 C 218.538 4.95292 -3.8267 0
M  V30 2394 H 218.771 1.80153 -2.365 0
M  V30 2395 H 216.304 0.838357 -1.29657 0
M  V30 2396 H 218.262 3.95428 -1.10212 0
M  V30 2397 H 216.923 3.1289 -0.275481 0
M  V30 2398 H 216.116 4.53646 -2.19594 0
M  V30 2399 H 215.718 2.82204 -2.45432 0
M  V30 2400 H 218.01 5.83584 -3.44145 0
M  V30 2401 H 218.953 5.18679 -4.82055 0
M  V30 2402 H 219.361 4.68179 -3.15386 0
M  V30 2403 N 218.759 1.29093 0.90403 0
M  V30 2404 C 219.707 1.13727 2.02901 0
M  V30 2405 C 220.701 0.0539853 1.69314 0
M  V30 2406 O 221.907 0.213469 1.7873 0
M  V30 2407 H 218.282 0.35117 0.664969 0
M  V30 2408 H 220.253 2.08982 2.13001 0
M  V30 2409 C 219.002 0.826066 3.37745 0
M  V30 2410 H 218.325 1.65164 3.64089 0
M  V30 2411 H 219.765 0.758559 4.17159 0
M  V30 2412 C 218.224 -0.470541 3.33598 0
M  V30 2413 O 218.754 -1.49792 3.72727 0
M  V30 2414 N 216.96 -0.474812 2.86695 0
M  V30 2415 H 216.507 0.361692 2.55048 0
M  V30 2416 H 216.465 -1.34236 2.84303 0
M  V30 2417 N 220.237 -1.11381 1.11499 0
M  V30 2418 C 221.147 -2.21019 0.786628 0
M  V30 2419 C 222.163 -1.72597 -0.220507 0
M  V30 2420 O 223.339 -2.01321 -0.0565251 0
M  V30 2421 C 220.404 -3.459 0.235333 0
M  V30 2422 C 219.465 -4.09107 1.30115 0
M  V30 2423 C 218.698 -5.28027 0.776068 0
M  V30 2424 O 218.921 -5.6904 -0.393661 0
M  V30 2425 O 217.855 -5.81835 1.54114 0
M  V30 2426 H 221.681 -2.51521 1.70209 0
M  V30 2427 H 219.266 -1.19928 0.890928 0
M  V30 2428 H 221.148 -4.21346 -0.067715 0
M  V30 2429 H 219.823 -3.17049 -0.652828 0
M  V30 2430 H 218.73 -3.35391 1.65722 0
M  V30 2431 H 220.063 -4.42139 2.16273 0
M  V30 2432 N 221.715 -0.905404 -1.28997 0
M  V30 2433 C 222.625 -0.392246 -2.31298 0
M  V30 2434 C 223.641 0.515889 -1.66176 0
M  V30 2435 O 224.817 0.404093 -1.97304 0
M  V30 2436 C 221.882 0.36686 -3.44754 0
M  V30 2437 C 220.943 -0.573485 -4.25452 0
M  V30 2438 C 220.176 0.149488 -5.33491 0
M  V30 2439 O 220.399 1.37255 -5.5364 0
M  V30 2440 O 219.333 -0.510919 -5.99728 0
M  V30 2441 H 223.159 -1.2411 -2.77183 0
M  V30 2442 H 220.744 -0.669926 -1.33538 0
M  V30 2443 H 222.626 0.795907 -4.13816 0
M  V30 2444 H 221.301 1.19169 -3.00966 0
M  V30 2445 H 220.208 -1.05176 -3.59011 0
M  V30 2446 H 221.541 -1.36489 -4.72897 0
M  V30 2447 N 223.193 1.4272 -0.668489 0
M  V30 2448 C 224.123 2.335 -0.000100175 0
M  V30 2449 C 225.104 1.50328 0.795964 0
M  V30 2450 O 226.289 1.78949 0.754385 0
M  V30 2451 C 223.419 3.33874 0.956302 0
M  V30 2452 C 222.373 4.27152 0.269278 0
M  V30 2453 C 221.699 5.17684 1.33818 0
M  V30 2454 C 222.999 5.15373 -0.847805 0
M  V30 2455 H 224.693 2.89639 -0.758244 0
M  V30 2456 H 222.239 1.39269 -0.366079 0
M  V30 2457 H 224.192 3.9629 1.43292 0
M  V30 2458 H 222.916 2.76025 1.74579 0
M  V30 2459 H 221.575 3.66123 -0.187042 0
M  V30 2460 H 221.223 4.56165 2.1195 0
M  V30 2461 H 220.923 5.80918 0.883659 0
M  V30 2462 H 222.447 5.82974 1.81586 0
M  V30 2463 H 223.861 5.7151 -0.452681 0
M  V30 2464 H 222.258 5.87407 -1.22773 0
M  V30 2465 H 223.328 4.5415 -1.69929 0
M  V30 2466 N 224.671 0.411399 1.52136 0
M  V30 2467 C 226.087 0.0623865 1.59478 0
M  V30 2468 C 226.287 -1.42554 1.4241 0
M  V30 2469 O 225.343 -2.19263 1.2522 0
M  V30 2470 C 226.656 0.559331 2.95452 0
M  V30 2471 C 228.204 0.517503 3.08692 0
M  V30 2472 C 228.679 0.990994 4.4715 0
M  V30 2473 N 230.17 0.947908 4.53397 0
M  V30 2474 C 230.905 1.28544 5.58806 0
M  V30 2475 N 230.401 1.69454 6.71757 0
M  V30 2476 N 232.194 1.20526 5.49026 0
M  V30 2477 H 224.345 1.37982 1.61477 0
M  V30 2478 H 226.608 0.566977 0.759764 0
M  V30 2479 H 226.314 1.59938 3.1323 0
M  V30 2480 H 226.188 -0.0298014 3.77188 0
M  V30 2481 H 228.575 -0.513505 2.90598 0
M  V30 2482 H 228.656 1.14272 2.28857 0
M  V30 2483 H 228.3 2.02034 4.65988 0
M  V30 2484 H 228.23 0.34257 5.25485 0
M  V30 2485 H 230.721 0.647157 3.72317 0
M  V30 2486 H 231.034 1.93513 7.48179 0
M  V30 2487 H 229.379 1.73359 6.73032 0
M  V30 2488 H 232.57 0.884505 4.59667 0
M  V30 2489 H 232.743 1.47161 6.31069 0
M  V30 2490 N 226.149 -1.5696 0.141893 0
M  V30 2491 C 227.565 -1.58151 -0.21456 0
M  V30 2492 C 227.765 -1.1559 -1.65049 0
M  V30 2493 O 226.821 -0.853832 -2.37626 0
M  V30 2494 C 228.134 -3.00674 0.0395576 0
M  V30 2495 C 229.682 -3.1299 -0.0245529 0
M  V30 2496 C 230.157 -4.57554 0.202167 0
M  V30 2497 N 231.648 -4.62961 0.148919 0
M  V30 2498 C 232.383 -5.7262 0.298924 0
M  V30 2499 N 231.879 -6.90947 0.50637 0
M  V30 2500 N 233.672 -5.61601 0.236886 0
M  V30 2501 H 225.823 -1.8292 1.07953 0
M  V30 2502 H 228.086 -0.846425 0.42693 0
M  V30 2503 H 227.792 -3.36183 1.03315 0
M  V30 2504 H 227.666 -3.70981 -0.682143 0
M  V30 2505 H 230.053 -2.77326 -1.00869 0
M  V30 2506 H 230.134 -2.4518 0.729396 0
M  V30 2507 H 229.778 -4.93922 1.18338 0
M  V30 2508 H 229.708 -5.23484 -0.572044 0
M  V30 2509 H 232.199 -3.77899 -0.00697015 0
M  V30 2510 H 232.512 -7.7038 0.611076 0
M  V30 2511 H 230.857 -6.92878 0.542628 0
M  V30 2512 H 234.048 -4.68039 0.0756209 0
M  V30 2513 H 234.221 -6.47015 0.357227 0
M  V30 2514 N 227.627 0.131896 -1.57047 0
M  V30 2515 C 228.537 1.1815 -2.02676 0
M  V30 2516 C 229.553 1.46113 -0.944824 0
M  V30 2517 O 230.729 1.57485 -1.25541 0
M  V30 2518 C 227.794 2.49139 -2.41103 0
M  V30 2519 C 226.855 2.28688 -3.63318 0
M  V30 2520 C 226.088 3.53431 -3.99903 0
M  V30 2521 O 226.311 4.60223 -3.36973 0
M  V30 2522 O 225.245 3.45198 -4.93074 0
M  V30 2523 H 229.071 0.824069 -2.92306 0
M  V30 2524 H 226.656 0.341745 -1.45439 0
M  V30 2525 H 228.538 3.26338 -2.66611 0
M  V30 2526 H 227.213 2.84382 -1.54624 0
M  V30 2527 H 226.12 1.4939 -3.42977 0
M  V30 2528 H 227.453 1.98355 -4.50462 0
M  V30 2529 N 229.106 1.52395 0.401703 0
M  V30 2530 C 230.069 1.75636 1.47257 0
M  V30 2531 C 231.069 0.62628 1.48103 0
M  V30 2532 O 232.259 0.894227 1.49497 0
M  V30 2533 C 229.391 1.84553 2.86624 0
M  V30 2534 H 230.584 2.71241 1.27938 0
M  V30 2535 H 228.137 1.42923 0.632662 0
M  V30 2536 H 228.872 0.908882 3.11303 0
M  V30 2537 H 228.657 2.66715 2.87412 0
M  V30 2538 H 230.147 2.04251 3.64241 0
M  V30 2539 N 230.584 -0.659388 1.43143 0
M  V30 2540 C 231.494 -1.80167 1.50256 0
M  V30 2541 C 232.51 -1.69571 0.390106 0
M  V30 2542 O 233.686 -1.90849 0.643319 0
M  V30 2543 C 230.751 -3.16409 1.41725 0
M  V30 2544 C 229.812 -3.38848 2.63591 0
M  V30 2545 C 229.045 -4.68591 2.55458 0
M  V30 2546 O 229.268 -5.47532 1.59891 0
M  V30 2547 O 228.202 -4.92614 3.45854 0
M  V30 2548 H 232.028 -1.77121 2.46702 0
M  V30 2549 H 229.613 -0.817092 1.25076 0
M  V30 2550 H 231.495 -3.9768 1.39387 0
M  V30 2551 H 230.17 -3.20059 0.484118 0
M  V30 2552 H 229.077 -2.57366 2.71502 0
M  V30 2553 H 230.41 -3.4004 3.55856 0
M  V30 2554 N 232.062 -1.29571 -0.897171 0
M  V30 2555 C 233.29 -1.20583 -1.68129 0
M  V30 2556 C 233.705 0.233181 -1.87354 0
M  V30 2557 O 233.062 1.15579 -1.41236 0
M  V30 2558 C 233.113 -1.91772 -3.06441 0
M  V30 2559 O 232.834 -3.30053 -2.88091 0
M  V30 2560 C 234.335 -1.89291 -4.00854 0
M  V30 2561 H 231.555 -0.417826 -0.525036 0
M  V30 2562 H 234.099 -1.70987 -1.12177 0
M  V30 2563 H 232.254 -1.45196 -3.59161 0
M  V30 2564 H 232.668 -3.65942 -3.75748 0
M  V30 2565 H 234.142 -2.43662 -4.95311 0
M  V30 2566 H 234.619 -0.869014 -4.30517 0
M  V30 2567 H 235.225 -2.35622 -3.54066 0
M  V30 2568 N 233.54 1.10788 -1.12088 0
M  V30 2569 C 234.473 2.16237 -0.729168 0
M  V30 2570 C 235.451 1.60207 0.277921 0
M  V30 2571 O 236.635 1.87707 0.172737 0
M  V30 2572 C 233.762 3.38609 -0.0786848 0
M  V30 2573 C 232.808 4.13322 -1.05201 0
M  V30 2574 S 233.641 4.69371 -2.57781 0
M  V30 2575 C 234.797 5.95058 -1.94053 0
M  V30 2576 H 235.03 2.4913 -1.62239 0
M  V30 2577 H 232.563 1.22519 -0.939603 0
M  V30 2578 H 234.521 4.09473 0.290254 0
M  V30 2579 H 233.182 3.03962 0.791593 0
M  V30 2580 H 232.375 5.01051 -0.544433 0
M  V30 2581 H 231.977 3.48251 -1.36371 0
M  V30 2582 H 234.269 6.65278 -1.28107 0
M  V30 2583 H 235.212 6.50472 -2.79807 0
M  V30 2584 H 235.62 5.46918 -1.39787 0
M  V30 2585 N 235.018 0.912232 1.28515 0
M  V30 2586 C 236.434 0.610159 1.47476 0
M  V30 2587 C 236.634 -0.844955 1.82928 0
M  V30 2588 O 235.69 -1.62416 1.93332 0
M  V30 2589 C 237.003 1.54675 2.57868 0
M  V30 2590 C 238.551 1.55331 2.71738 0
M  V30 2591 C 239.026 2.47649 3.85272 0
M  V30 2592 N 240.517 2.45767 3.92623 0
M  V30 2593 C 241.252 3.13896 4.79851 0
M  V30 2594 N 240.748 3.9135 5.71679 0
M  V30 2595 N 242.541 3.02991 4.73448 0
M  V30 2596 H 234.692 1.85318 1.03783 0
M  V30 2597 H 236.955 0.794777 0.516753 0
M  V30 2598 H 236.661 2.5841 2.38574 0
M  V30 2599 H 236.535 1.27671 3.54937 0
M  V30 2600 H 238.922 0.52335 2.90422 0
M  V30 2601 H 239.003 1.86378 1.75205 0
M  V30 2602 H 238.647 3.50745 3.67342 0
M  V30 2603 H 238.577 2.13904 4.81199 0
M  V30 2604 H 241.068 1.89503 3.26951 0
M  V30 2605 H 241.381 4.40359 6.35062 0
M  V30 2606 H 239.726 3.95455 5.71524 0
M  V30 2607 H 242.917 2.41987 4.007 0
M  V30 2608 H 243.09 3.5636 5.41213 0
M  V30 2609 N 236.496 -1.42363 0.676048 0
M  V30 2610 C 237.406 -2.346 -0.00153389 0
M  V30 2611 C 238.422 -1.5516 -0.787485 0
M  V30 2612 O 239.598 -1.87723 -0.729521 0
M  V30 2613 C 236.663 -3.33705 -0.940298 0
M  V30 2614 C 235.724 -4.29042 -0.148739 0
M  V30 2615 C 234.957 -5.23413 -1.04279 0
M  V30 2616 O 235.18 -5.22749 -2.28232 0
M  V30 2617 O 234.114 -5.99795 -0.502925 0
M  V30 2618 H 237.94 -2.94082 0.758268 0
M  V30 2619 H 235.525 -1.42888 0.436289 0
M  V30 2620 H 237.407 -3.94586 -1.47917 0
M  V30 2621 H 236.082 -2.76695 -1.67993 0
M  V30 2622 H 234.989 -3.71571 0.43427 0
M  V30 2623 H 236.322 -4.89097 0.551805 0
M  V30 2624 N 237.974 -0.419461 -1.51915 0
M  V30 2625 C 239.39 -0.0708431 -1.59443 0
M  V30 2626 C 239.59 1.41796 -1.43164 0
M  V30 2627 O 238.646 2.18596 -1.26381 0
M  V30 2628 C 239.959 -0.574991 -2.95151 0
M  V30 2629 C 241.507 -0.533867 -3.08413 0
M  V30 2630 C 241.982 -1.01469 -4.46618 0
M  V30 2631 N 243.473 -0.971939 -4.52888 0
M  V30 2632 C 244.208 -1.31505 -5.58116 0
M  V30 2633 N 243.704 -1.73014 -6.70849 0
M  V30 2634 N 245.497 -1.23436 -5.48379 0
M  V30 2635 H 237.648 -1.38836 -1.60743 0
M  V30 2636 H 239.911 -0.570998 -0.756747 0
M  V30 2637 H 239.617 -1.61597 -3.12377 0
M  V30 2638 H 239.491 0.00979777 -3.77199 0
M  V30 2639 H 241.878 0.498086 -2.90866 0
M  V30 2640 H 241.959 -1.15484 -2.28248 0
M  V30 2641 H 241.603 -2.04502 -4.6491 0
M  V30 2642 H 241.533 -0.370433 -5.25295 0
M  V30 2643 H 244.024 -0.666893 -3.71969 0
M  V30 2644 H 244.337 -1.97479 -7.47143 0
M  V30 2645 H 242.682 -1.76926 -6.72103 0
M  V30 2646 H 245.873 -0.908869 -4.59192 0
M  V30 2647 H 246.046 -1.50506 -6.30279 0
M  V30 2648 N 239.452 1.56882 -0.150215 0
M  V30 2649 C 240.362 2.20494 0.801222 0
M  V30 2650 C 241.378 1.19019 1.26927 0
M  V30 2651 O 242.554 1.51607 1.32579 0
M  V30 2652 C 239.619 2.81659 2.02161 0
M  V30 2653 C 238.68 3.9827 1.60249 0
M  V30 2654 C 237.913 4.56508 2.7647 0
M  V30 2655 O 238.136 4.13627 3.92771 0
M  V30 2656 O 237.07 5.46719 2.51757 0
M  V30 2657 H 240.896 3.02315 0.289717 0
M  V30 2658 H 238.481 1.49202 0.0769684 0
M  V30 2659 H 240.363 3.20522 2.73576 0
M  V30 2660 H 239.038 2.02849 2.52258 0
M  V30 2661 H 237.945 3.64117 0.858477 0
M  V30 2662 H 239.278 4.78609 1.14864 0
M  V30 2663 N 240.93 -0.123565 1.57115 0
M  V30 2664 C 242.178 -0.83051 1.84247 0
M  V30 2665 C 242.499 -1.80629 0.73471 0
M  V30 2666 O 241.769 -1.94403 -0.241688 0
M  V30 2667 H 240.349 -0.309694 0.679778 0
M  V30 2668 H 243.011 -0.111976 1.94578 0
M  V30 2669 H 242.107 -1.37852 2.80006 0
M  V30 2670 N 242.408 -1.52605 -0.393616 0
M  V30 2671 C 243.318 -1.79971 -1.50492 0
M  V30 2672 C 244.334 -0.686181 -1.59899 0
M  V30 2673 O 245.51 -0.973274 -1.76322 0
M  V30 2674 C 242.575 -1.95867 -2.86072 0
M  V30 2675 C 241.636 -3.19781 -2.86424 0
M  V30 2676 C 240.869 -3.34909 -4.15538 0
M  V30 2677 O 241.092 -2.54948 -5.10253 0
M  V30 2678 O 240.026 -4.28141 -4.23059 0
M  V30 2679 H 243.852 -2.74328 -1.30299 0
M  V30 2680 H 241.437 -1.3764 -0.581005 0
M  V30 2681 H 243.319 -2.08056 -3.66457 0
M  V30 2682 H 241.994 -1.04699 -3.063 0
M  V30 2683 H 240.901 -3.13038 -2.04837 0
M  V30 2684 H 242.234 -4.1078 -2.71147 0
M  V30 2685 N 243.887 0.651787 -1.4349 0
M  V30 2686 C 244.797 1.79368 -1.5121 0
M  V30 2687 C 245.813 1.69361 -0.399093 0
M  V30 2688 O 246.989 1.90505 -0.653431 0
M  V30 2689 C 244.054 3.15653 -1.43401 0
M  V30 2690 C 243.115 3.37446 -2.65384 0
M  V30 2691 C 242.348 4.67229 -2.57939 0
M  V30 2692 O 242.571 5.46676 -1.62792 0
M  V30 2693 O 241.505 4.90773 -3.48462 0
M  V30 2694 H 245.331 1.7581 -2.47638 0
M  V30 2695 H 242.916 0.810447 -1.25507 0
M  V30 2696 H 244.798 3.96935 -1.41494 0
M  V30 2697 H 243.473 3.19798 -0.501085 0
M  V30 2698 H 242.38 2.55923 -2.72863 0
M  V30 2699 H 243.713 3.38148 -3.57654 0
M  V30 2700 N 245.365 1.30045 0.890287 0
M  V30 2701 C 246.612 1.18561 1.64163 0
M  V30 2702 C 246.94 -0.260852 1.92743 0
M  V30 2703 O 246.195 -1.20376 1.54299 0
M  V30 2704 C 246.494 1.95409 2.99249 0
M  V30 2705 C 246.16 3.45066 2.90242 0
M  V30 2706 C 244.822 3.85878 2.87492 0
M  V30 2707 C 247.174 4.4039 2.78758 0
M  V30 2708 C 244.502 5.20314 2.7109 0
M  V30 2709 C 246.854 5.74928 2.63894 0
M  V30 2710 C 245.518 6.14986 2.59516 0
M  V30 2711 H 244.788 0.433846 0.600715 0
M  V30 2712 H 247.435 1.61088 1.03552 0
M  V30 2713 H 245.74 1.45501 3.63781 0
M  V30 2714 H 247.437 1.8392 3.56334 0
M  V30 2715 H 244.027 3.12631 2.93189 0
M  V30 2716 H 248.211 4.09806 2.79952 0
M  V30 2717 H 243.467 5.50449 2.66112 0
M  V30 2718 H 247.641 6.48434 2.53981 0
M  V30 2719 H 245.268 7.19104 2.46565 0
M  V30 2720 N 246.843 -1.10192 1.12674 0
M  V30 2721 C 248.12 -1.78717 0.794965 0
M  V30 2722 C 248.5 -1.98628 -0.714853 0
M  V30 2723 O 247.848 -1.58135 -1.64941 0
M  V30 2724 C 248.058 -3.11546 1.5729 0
M  V30 2725 C 249.406 -3.86382 1.76052 0
M  V30 2726 O 250.43 -3.21274 1.53823 0
M  V30 2727 O 249.289 -5.03246 2.13087 0
M  V30 2728 H 246.383 -0.774702 0.289423 0
M  V30 2729 H 248.929 -1.16819 1.23091 0
M  V30 2730 H 247.701 -2.92489 2.59935 0
M  V30 2731 H 247.324 -3.81164 1.13137 0
M  V30 2732 N 248.321 -0.919034 -1.28029 0
M  V30 2733 C 249.269 -0.401753 -2.29104 0
M  V30 2734 C 250.263 0.509354 -1.61561 0
M  V30 2735 O 251.469 0.390014 -1.75724 0
M  V30 2736 H 247.844 -0.111331 -0.743713 0
M  V30 2737 H 249.815 -1.2672 -2.70156 0
M  V30 2738 C 248.564 0.338148 -3.46052 0
M  V30 2739 H 247.887 -0.353732 -3.98232 0
M  V30 2740 H 249.327 0.664653 -4.18758 0
M  V30 2741 C 247.786 1.54798 -2.99231 0
M  V30 2742 O 248.316 2.64696 -3.02157 0
M  V30 2743 N 246.522 1.3968 -2.54829 0
M  V30 2744 H 246.069 0.502698 -2.52647 0
M  V30 2745 H 246.027 2.20755 -2.23863 0
M  V30 2746 N 249.799 1.42003 -0.683588 0
M  V30 2747 C 251.027 2.05746 -0.218182 0
M  V30 2748 C 251.442 1.51396 1.12804 0
M  V30 2749 O 250.799 0.657303 1.70252 0
M  V30 2750 C 250.85 3.61171 -0.154131 0
M  V30 2751 O 250.571 4.13508 -1.44716 0
M  V30 2752 C 252.072 4.42042 0.333713 0
M  V30 2753 H 249.292 0.662888 -0.10402 0
M  V30 2754 H 251.836 1.81987 -0.9328 0
M  V30 2755 H 249.991 3.84012 0.511231 0
M  V30 2756 H 250.405 5.07453 -1.32632 0
M  V30 2757 H 251.879 5.51028 0.327423 0
M  V30 2758 H 252.356 4.17269 1.37053 0
M  V30 2759 H 252.962 4.24239 -0.300222 0
M  V30 2760 N 251.277 0.427512 1.51691 0
M  V30 2761 C 252.517 -0.141524 2.03909 0
M  V30 2762 C 252.881 -1.40811 1.30523 0
M  V30 2763 O 254.082 -2.05676 1.73063 0
M  V30 2764 C 252.353 -0.364962 3.55532 0
M  V30 2765 S 253.912 -0.898812 4.29496 0
M  V30 2766 H 250.73 -0.0364542 0.710065 0
M  V30 2767 H 253.332 0.584659 1.86553 0
M  V30 2768 H 252.036 0.56336 4.06515 0
M  V30 2769 H 251.567 -1.1185 3.77164 0
M  V30 2770 H 253.582 -2.17747 4.45871 0
M  V30 2771 N 252.755 -1.56801 0.158532 0
M  V30 2772 C 253.995 -1.98383 -0.49229 0
M  V30 2773 C 254.359 -1.04184 -1.61275 0
M  V30 2774 O 255.56 -1.34856 -2.32524 0
M  V30 2775 C 253.831 -3.4385 -0.974766 0
M  V30 2776 S 255.39 -4.07459 -1.62857 0
M  V30 2777 H 252.208 -0.693041 -0.158794 0
M  V30 2778 H 254.81 -1.93856 0.252974 0
M  V30 2779 H 253.514 -4.10131 -0.148688 0
M  V30 2780 H 253.045 -3.52115 -1.75438 0
M  V30 2781 H 255.06 -4.01458 -2.91627 0
M  V30 2782 N 254.233 0.115231 -1.57178 0
M  V30 2783 C 255.644 0.67197 -1.74188 0
M  V30 2784 C 255.995 1.80125 -0.777777 0
M  V30 2785 O 255.12 2.16346 0.0484376 0
M  V30 2786 C 255.715 1.22573 -3.1585 0
M  V30 2787 C 254.274 1.72872 -3.34353 0
M  V30 2788 C 253.421 0.629972 -2.70049 0
M  V30 2789 H 256.372 -0.110712 -1.58313 0
M  V30 2790 H 256.393 2.09535 -3.17609 0
M  V30 2791 H 255.905 0.403598 -3.85996 0
M  V30 2792 H 254.006 2.5755 -2.69256 0
M  V30 2793 H 254.119 1.83557 -4.42542 0
M  V30 2794 H 252.483 1.0645 -2.31388 0
M  V30 2795 H 253.266 -0.181241 -3.42821 0
M  V30 2796 N 255.711 1.52812 0.385517 0
M  V30 2797 C 256.988 1.5861 1.14465 0
M  V30 2798 C 257.368 0.381402 2.07626 0
M  V30 2799 O 256.716 -0.629999 2.19643 0
M  V30 2800 C 256.926 2.92664 1.90128 0
M  V30 2801 C 258.274 3.46526 2.45367 0
M  V30 2802 O 259.298 2.94562 2.0028 0
M  V30 2803 O 258.157 4.37323 3.27736 0
M  V30 2804 H 255.251 0.639855 0.523941 0
M  V30 2805 H 257.797 1.65149 0.390389 0
M  V30 2806 H 256.569 3.71788 1.22022 0
M  V30 2807 H 256.192 2.89527 2.72507 0
M  V30 2808 N 257.189 -0.644168 1.43834 0
M  V30 2809 C 258.136 -1.75671 1.49694 0
M  V30 2810 C 259.106 -1.6246 0.345809 0
M  V30 2811 O 260.291 -1.82573 0.554234 0
M  V30 2812 C 257.431 -3.13867 1.43463 0
M  V30 2813 C 256.544 -3.38147 2.6885 0
M  V30 2814 C 255.679 -4.66241 2.54544 0
M  V30 2815 C 254.718 -4.83657 3.75157 0
M  V30 2816 N 253.855 -6.03016 3.59605 0
M  V30 2817 H 258.695 -1.69998 2.44754 0
M  V30 2818 H 256.232 -0.829458 1.21484 0
M  V30 2819 H 258.19 -3.9377 1.37843 0
M  V30 2820 H 256.82 -3.18588 0.519783 0
M  V30 2821 H 255.872 -2.52276 2.84712 0
M  V30 2822 H 257.184 -3.46899 3.58417 0
M  V30 2823 H 256.338 -5.54285 2.46683 0
M  V30 2824 H 255.077 -4.59826 1.62516 0
M  V30 2825 H 254.082 -3.94046 3.83416 0
M  V30 2826 H 255.307 -4.91896 4.68204 0
M  V30 2827 H 253.253 -5.97715 2.7032 0
M  V30 2828 H 253.17 -6.12766 4.42779 0
M  V30 2829 H 254.438 -6.93657 3.55613 0
M  V30 2830 N 258.668 -1.30515 -0.883378 0
M  V30 2831 C 260.084 -1.08881 -1.16692 0
M  V30 2832 C 260.284 0.149409 -2.00945 0
M  V30 2833 O 259.34 0.84257 -2.38027 0
M  V30 2834 C 260.653 -2.35319 -1.87204 0
M  V30 2835 C 262.201 -2.40799 -1.99962 0
M  V30 2836 C 262.676 -3.67083 -2.73887 0
M  V30 2837 N 264.167 -3.679 -2.81432 0
M  V30 2838 C 264.902 -4.62303 -3.3921 0
M  V30 2839 N 264.398 -5.67052 -3.98025 0
M  V30 2840 N 266.191 -4.49845 -3.3704 0
M  V30 2841 H 258.342 -2.09951 -0.321633 0
M  V30 2842 H 260.605 -0.92556 -0.205043 0
M  V30 2843 H 260.311 -3.25689 -1.3274 0
M  V30 2844 H 260.185 -2.44089 -2.87577 0
M  V30 2845 H 262.572 -1.50907 -2.53597 0
M  V30 2846 H 262.653 -2.36003 -0.98673 0
M  V30 2847 H 262.297 -4.57334 -2.20925 0
M  V30 2848 H 262.227 -3.69141 -3.75556 0
M  V30 2849 H 264.718 -2.92171 -2.39676 0
M  V30 2850 H 265.031 -6.35184 -4.40183 0
M  V30 2851 H 263.376 -5.70842 -3.96439 0
M  V30 2852 H 266.567 -3.67194 -2.90321 0
M  V30 2853 H 266.74 -5.23597 -3.81772 0
M  V30 2854 N 260.146 1.09593 -1.13257 0
M  V30 2855 C 261.093 2.1618 -0.808381 0
M  V30 2856 C 262.063 1.64517 0.228754 0
M  V30 2857 O 263.248 1.9053 0.101381 0
M  V30 2858 C 260.388 3.43973 -0.278675 0
M  V30 2859 C 259.501 4.09545 -1.37466 0
M  V30 2860 C 258.636 5.25088 -0.803479 0
M  V30 2861 C 257.675 5.82579 -1.87799 0
M  V30 2862 N 256.812 6.89486 -1.32488 0
M  V30 2863 H 261.652 2.43254 -1.72138 0
M  V30 2864 H 259.189 1.19392 -0.859294 0
M  V30 2865 H 261.147 4.17174 0.0465583 0
M  V30 2866 H 259.777 3.17223 0.597459 0
M  V30 2867 H 258.829 3.34226 -1.81652 0
M  V30 2868 H 260.141 4.48307 -2.18684 0
M  V30 2869 H 259.295 6.05178 -0.429427 0
M  V30 2870 H 258.034 4.87684 0.0397956 0
M  V30 2871 H 257.039 5.01152 -2.26113 0
M  V30 2872 H 258.264 6.22045 -2.72463 0
M  V30 2873 H 256.21 6.54064 -0.503575 0
M  V30 2874 H 256.127 7.27007 -2.07355 0
M  V30 2875 H 257.395 7.73336 -0.978336 0
M  V30 2876 N 261.624 0.925811 1.2754 0
M  V30 2877 C 262.571 0.422045 2.26908 0
M  V30 2878 C 263.541 -0.510029 1.58076 0
M  V30 2879 O 264.726 -0.429599 1.85901 0
M  V30 2880 C 261.866 -0.320837 3.43605 0
M  V30 2881 C 260.979 0.64513 4.27156 0
M  V30 2882 C 260.114 -0.117405 5.3107 0
M  V30 2883 C 259.153 0.841391 6.0629 0
M  V30 2884 N 258.29 0.111604 7.02011 0
M  V30 2885 H 263.13 1.27441 2.69375 0
M  V30 2886 H 260.667 0.639697 1.32462 0
M  V30 2887 H 262.625 -0.76785 4.10073 0
M  V30 2888 H 261.255 -1.13745 3.02096 0
M  V30 2889 H 260.307 1.21067 3.6062 0
M  V30 2890 H 261.619 1.37797 4.79389 0
M  V30 2891 H 260.773 -0.624422 6.03478 0
M  V30 2892 H 259.512 -0.883219 4.79636 0
M  V30 2893 H 258.517 1.35967 5.32722 0
M  V30 2894 H 259.742 1.60696 6.59813 0
M  V30 2895 H 257.688 -0.635999 6.5291 0
M  V30 2896 H 257.605 0.784044 7.51923 0
M  V30 2897 H 258.873 -0.374823 7.78598 0
M  V30 2898 N 263.102 -1.41638 0.69111 0
M  V30 2899 C 264.032 -2.3347 0.037248 0
M  V30 2900 C 265.013 -1.51575 -0.771947 0
M  V30 2901 O 266.198 -1.80126 -0.72582 0
M  V30 2902 C 263.328 -3.35354 -0.903064 0
M  V30 2903 C 262.282 -4.27526 -0.201288 0
M  V30 2904 C 261.608 -5.19747 -1.25565 0
M  V30 2905 C 262.908 -5.13959 0.929689 0
M  V30 2906 H 264.602 -2.88397 0.804227 0
M  V30 2907 H 262.148 -1.38669 0.388189 0
M  V30 2908 H 264.101 -3.98519 -1.36969 0
M  V30 2909 H 262.825 -2.78767 -1.70166 0
M  V30 2910 H 261.484 -3.65779 0.245265 0
M  V30 2911 H 261.132 -4.59479 -2.04666 0
M  V30 2912 H 260.832 -5.8225 -0.791128 0
M  V30 2913 H 262.356 -5.85789 -1.72288 0
M  V30 2914 H 263.77 -5.70718 0.543546 0
M  V30 2915 H 262.167 -5.85379 1.32103 0
M  V30 2916 H 263.237 -4.51389 1.77133 0
M  V30 2917 N 264.58 -0.43555 -1.51462 0
M  V30 2918 C 265.826 0.123979 -2.03022 0
M  V30 2919 C 266.181 1.4054 -1.31401 0
M  V30 2920 O 265.474 1.86948 -0.419634 0
M  V30 2921 C 265.668 0.39942 -3.55161 0
M  V30 2922 C 265.497 -0.853754 -4.41521 0
M  V30 2923 C 264.267 -1.38675 -4.85898 0
M  V30 2924 C 266.465 -1.73939 -4.83994 0
M  V30 2925 N 264.447 -2.59265 -5.56466 0
M  V30 2926 C 265.818 -2.79135 -5.5361 0
M  V30 2927 C 267.873 -1.75402 -4.65981 0
M  V30 2928 C 266.576 -3.85737 -6.07124 0
M  V30 2929 C 268.602 -2.80938 -5.20411 0
M  V30 2930 C 267.964 -3.84854 -5.89972 0
M  V30 2931 H 264.063 0.00624887 -0.781975 0
M  V30 2932 H 266.647 -0.59582 -1.85359 0
M  V30 2933 H 264.818 1.08825 -3.72843 0
M  V30 2934 H 266.55 0.95015 -3.93388 0
M  V30 2935 H 263.305 -0.94094 -4.64159 0
M  V30 2936 H 263.729 -3.2041 -5.96378 0
M  V30 2937 H 268.371 -0.963926 -4.11665 0
M  V30 2938 H 266.089 -4.65586 -6.60496 0
M  V30 2939 H 269.675 -2.8301 -5.08327 0
M  V30 2940 H 268.555 -4.65176 -6.31333 0
M  V30 2941 N 266.058 1.56714 -0.166846 0
M  V30 2942 C 267.335 1.88412 0.525373 0
M  V30 2943 C 267.715 1.07602 1.81618 0
M  V30 2944 O 267.063 0.168621 2.27877 0
M  V30 2945 C 267.273 3.40363 0.771613 0
M  V30 2946 C 268.621 4.10007 1.1036 0
M  V30 2947 O 269.645 3.45655 0.860304 0
M  V30 2948 O 268.504 5.2369 1.56239 0
M  V30 2949 H 265.598 0.781587 0.270278 0
M  V30 2950 H 268.144 1.68458 -0.204946 0
M  V30 2951 H 266.916 3.91046 -0.141093 0
M  V30 2952 H 266.539 3.65914 1.55541 0
M  V30 2953 N 267.536 -0.106894 1.57237 0
M  V30 2954 C 268.466 -1.13148 2.04254 0
M  V30 2955 C 269.447 -1.42476 0.929224 0
M  V30 2956 O 270.632 -1.52709 1.19973 0
M  V30 2957 C 267.762 -2.4545 2.45706 0
M  V30 2958 C 266.716 -2.30558 3.60592 0
M  V30 2959 C 266.042 -3.67931 3.87983 0
M  V30 2960 C 267.342 -1.75597 4.91897 0
M  V30 2961 H 269.036 -0.740374 2.90101 0
M  V30 2962 H 266.582 -0.354696 1.39563 0
M  V30 2963 H 268.535 -3.17389 2.77205 0
M  V30 2964 H 267.259 -2.86475 1.56843 0
M  V30 2965 H 265.918 -1.61067 3.29322 0
M  V30 2966 H 265.566 -4.06462 2.96306 0
M  V30 2967 H 265.266 -3.58817 4.65322 0
M  V30 2968 H 266.79 -4.41356 4.21945 0
M  V30 2969 H 268.204 -2.37364 5.21854 0
M  V30 2970 H 266.601 -1.77272 5.73319 0
M  V30 2971 H 267.671 -0.714451 4.79608 0
M  V30 2972 N 269.014 -1.53014 -0.377408 0
M  V30 2973 C 269.944 -1.81589 -1.46791 0
M  V30 2974 C 270.925 -0.668622 -1.56408 0
M  V30 2975 O 272.11 -0.917337 -1.71168 0
M  V30 2976 C 269.24 -1.99519 -2.8427 0
M  V30 2977 C 268.194 -3.15249 -2.89486 0
M  V30 2978 C 267.52 -3.18451 -4.29527 0
M  V30 2979 C 268.82 -4.54084 -2.58079 0
M  V30 2980 H 270.514 -2.7291 -1.23127 0
M  V30 2981 H 268.06 -1.31319 -0.590883 0
M  V30 2982 H 270.013 -2.18092 -3.60575 0
M  V30 2983 H 268.737 -1.04897 -3.09296 0
M  V30 2984 H 267.396 -2.96477 -2.15631 0
M  V30 2985 H 267.044 -2.2149 -4.5161 0
M  V30 2986 H 266.744 -3.962 -4.33934 0
M  V30 2987 H 268.268 -3.39193 -5.07721 0
M  V30 2988 H 269.682 -4.72899 -3.24098 0
M  V30 2989 H 268.079 -5.33987 -2.7382 0
M  V30 2990 H 269.149 -4.60006 -1.53372 0
M  V30 2991 N 270.492 0.636531 -1.44174 0
M  V30 2992 C 271.402 1.77754 -1.53103 0
M  V30 2993 C 272.418 1.68928 -0.417034 0
M  V30 2994 O 273.594 1.89801 -0.6736 0
M  V30 2995 C 270.659 3.14115 -1.46741 0
M  V30 2996 C 269.72 3.34612 -2.68948 0
M  V30 2997 C 268.953 4.64467 -2.6288 0
M  V30 2998 O 269.176 5.44919 -1.68581 0
M  V30 2999 O 268.11 4.87049 -3.53648 0
M  V30 3000 H 271.936 1.73174 -2.49489 0
M  V30 3001 H 269.521 0.79709 -1.2636 0
M  V30 3002 H 271.403 3.95412 -1.45696 0
M  V30 3003 H 270.078 3.19249 -0.534975 0
M  V30 3004 H 268.985 2.53014 -2.75562 0
M  V30 3005 H 270.318 3.34336 -3.61221 0
M  V30 3006 N 271.97 1.30982 0.876444 0
M  V30 3007 C 272.917 1.18085 1.98304 0
M  V30 3008 C 273.887 0.0682263 1.6596 0
M  V30 3009 O 275.072 0.239937 1.89285 0
M  V30 3010 C 272.212 0.887475 3.33493 0
M  V30 3011 C 271.325 2.08281 3.78475 0
M  V30 3012 C 270.46 1.72678 5.0235 0
M  V30 3013 C 269.499 2.88657 5.39762 0
M  V30 3014 N 268.636 2.53292 6.54819 0
M  V30 3015 H 273.476 2.1275 2.08666 0
M  V30 3016 H 271.013 1.05839 1.02159 0
M  V30 3017 H 272.971 0.697961 4.1132 0
M  V30 3018 H 271.601 -0.022315 3.22792 0
M  V30 3019 H 270.653 2.3833 2.96484 0
M  V30 3020 H 271.965 2.95108 4.02135 0
M  V30 3021 H 271.119 1.50151 5.87826 0
M  V30 3022 H 269.858 0.830327 4.8058 0
M  V30 3023 H 268.863 3.1184 4.52809 0
M  V30 3024 H 270.088 3.79002 5.63502 0
M  V30 3025 H 268.034 1.66163 6.34607 0
M  V30 3026 H 267.951 3.3365 6.7839 0
M  V30 3027 H 269.219 2.34143 7.43503 0
M  V30 3028 N 273.449 -1.08991 1.13837 0
M  V30 3029 C 274.86 -1.62746 0.914917 0
M  V30 3030 C 275.211 -1.88403 -0.547594 0
M  V30 3031 O 274.336 -1.63706 -1.41525 0
M  V30 3032 C 274.931 -2.95662 1.65437 0
M  V30 3033 C 273.49 -3.46225 1.47666 0
M  V30 3034 C 272.637 -2.20562 1.6807 0
M  V30 3035 H 275.588 -0.922946 1.29102 0
M  V30 3036 H 275.609 -3.63825 1.11407 0
M  V30 3037 H 275.121 -2.76956 2.71877 0
M  V30 3038 H 273.222 -3.70046 0.435478 0
M  V30 3039 H 273.335 -4.23368 2.24268 0
M  V30 3040 H 271.699 -2.29439 1.10589 0
M  V30 3041 H 272.482 -2.0437 2.7584 0
M  V30 3042 N 274.927 -0.932562 -1.27047 0
M  V30 3043 C 275.875 -0.42603 -2.28665 0
M  V30 3044 C 276.869 0.49219 -1.62092 0
M  V30 3045 O 278.075 0.371355 -1.76128 0
M  V30 3046 H 274.45 -0.119213 -0.742491 0
M  V30 3047 H 276.421 -1.29579 -2.68797 0
M  V30 3048 C 275.17 0.301426 -3.46391 0
M  V30 3049 H 274.493 -0.39595 -3.97834 0
M  V30 3050 H 275.933 0.6202 -4.1944 0
M  V30 3051 C 274.392 1.51616 -3.00856 0
M  V30 3052 O 274.922 2.61476 -3.04948 0
M  V30 3053 N 273.128 1.36969 -2.56296 0
M  V30 3054 H 272.675 0.475873 -2.53166 0
M  V30 3055 H 272.633 2.18368 -2.26192 0
M  V30 3056 N 276.405 1.4127 -0.698611 0
M  V30 3057 C 277.63 2.06024 -0.238512 0
M  V30 3058 C 278.055 1.5224 1.10475 0
M  V30 3059 O 277.413 0.650623 1.69223 0
M  V30 3060 C 277.461 3.59988 -0.209952 0
M  V30 3061 O 276.565 4.04282 0.814235 0
M  V30 3062 H 275.906 0.653829 -0.115775 0
M  V30 3063 H 278.436 1.8098 -0.954326 0
M  V30 3064 H 278.446 4.07979 -0.0418436 0
M  V30 3065 H 277.121 3.98503 -1.1903 0
M  V30 3066 H 275.698 3.6779 0.615234 0
M  V30 3067 N 277.883 0.443576 1.51229 0
M  V30 3068 C 279.108 -0.121648 2.07043 0
M  V30 3069 C 279.533 -1.35156 1.30823 0
M  V30 3070 O 278.891 -1.7793 0.347934 0
M  V30 3071 C 278.939 -0.41624 3.5819 0
M  V30 3072 O 278.043 -1.50163 3.8409 0
M  V30 3073 H 277.384 0.000871367 0.663999 0
M  V30 3074 H 279.914 0.626706 1.94765 0
M  V30 3075 H 279.924 -0.664867 4.02546 0
M  V30 3076 H 278.599 0.482653 4.1309 0
M  V30 3077 H 277.176 -1.24248 3.51592 0
M  V30 3078 N 279.361 -1.56624 0.175154 0
M  V30 3079 C 280.607 -1.9729 -0.469506 0
M  V30 3080 C 280.94 -1.06128 -1.62636 0
M  V30 3081 O 280.215 -0.109183 -1.94193 0
M  V30 3082 C 280.498 -3.47375 -0.948804 0
M  V30 3083 C 280.351 -4.49317 0.208491 0
M  V30 3084 C 281.67 -4.00652 -1.82116 0
M  V30 3085 H 278.789 -0.717317 -0.16919 0
M  V30 3086 H 281.431 -1.88184 0.262062 0
M  V30 3087 H 279.581 -3.55267 -1.57219 0
M  V30 3088 H 281.253 -4.53482 0.845682 0
M  V30 3089 H 279.496 -4.25121 0.863395 0
M  V30 3090 H 280.167 -5.51741 -0.169059 0
M  V30 3091 H 282.643 -3.95416 -1.2956 0
M  V30 3092 H 281.519 -5.06075 -2.12554 0
M  V30 3093 H 281.78 -3.44699 -2.7683 0
M  V30 3094 N 280.839 0.0985539 -1.57292 0
M  V30 3095 C 281.802 1.10402 -2.00858 0
M  V30 3096 C 282.802 1.33146 -0.901593 0
M  V30 3097 O 283.992 1.29318 -1.16716 0
M  V30 3098 C 281.124 2.45394 -2.36632 0
M  V30 3099 H 282.317 0.729099 -2.90902 0
M  V30 3100 H 279.87 0.343495 -1.52479 0
M  V30 3101 H 280.605 2.87769 -1.49531 0
M  V30 3102 H 280.39 2.30235 -3.17387 0
M  V30 3103 H 281.88 3.17718 -2.71007 0
M  V30 3104 N 282.317 1.53212 0.369288 0
M  V30 3105 C 283.28 1.7872 1.43498 0
M  V30 3106 C 284.28 0.657554 1.46741 0
M  V30 3107 O 285.47 0.925736 1.47566 0
M  V30 3108 C 282.602 1.90591 2.82645 0
M  V30 3109 H 283.795 2.73894 1.22156 0
M  V30 3110 H 281.348 1.44233 0.602203 0
M  V30 3111 H 282.083 0.974709 3.09306 0
M  V30 3112 H 281.868 2.72751 2.8169 0
M  V30 3113 H 283.358 2.11931 3.59826 0
M  V30 3114 N 283.795 -0.628877 1.44509 0
M  V30 3115 C 284.742 -1.74074 1.51549 0
M  V30 3116 C 285.712 -1.62084 0.363021 0
M  V30 3117 O 286.897 -1.81975 0.573567 0
M  V30 3118 C 284.037 -3.12328 1.46784 0
M  V30 3119 C 283.15 -3.35277 2.72422 0
M  V30 3120 C 282.285 -4.63515 2.59475 0
M  V30 3121 C 281.324 -4.7965 3.80266 0
M  V30 3122 N 280.461 -5.99168 3.65981 0
M  V30 3123 H 285.301 -1.67392 2.46544 0
M  V30 3124 H 282.838 -0.816527 1.22357 0
M  V30 3125 H 284.796 -3.92286 1.42012 0
M  V30 3126 H 283.426 -3.18018 0.553544 0
M  V30 3127 H 282.478 -2.49242 2.87372 0
M  V30 3128 H 283.79 -3.43078 3.62076 0
M  V30 3129 H 282.944 -5.51638 2.52548 0
M  V30 3130 H 281.683 -4.58076 1.67384 0
M  V30 3131 H 280.688 -3.89957 3.87574 0
M  V30 3132 H 281.913 -4.86902 4.73395 0
M  V30 3133 H 279.859 -5.94814 2.76644 0
M  V30 3134 H 279.776 -6.08035 4.49254 0
M  V30 3135 H 281.044 -6.89846 3.6295 0
M  V30 3136 N 285.273 -1.31445 -0.869486 0
M  V30 3137 C 286.522 -1.20517 -1.61736 0
M  V30 3138 C 286.835 0.235341 -1.94179 0
M  V30 3139 O 288.041 0.466312 -2.67465 0
M  V30 3140 C 286.497 -2.10982 -2.91573 0
M  V30 3141 C 286.105 -3.60032 -2.66611 0
M  V30 3142 C 287.849 -2.08856 -3.69567 0
M  V30 3143 C 285.756 -4.42503 -3.92358 0
M  V30 3144 H 284.686 -0.447493 -0.606849 0
M  V30 3145 H 287.337 -1.56303 -0.96133 0
M  V30 3146 H 285.719 -1.68095 -3.58553 0
M  V30 3147 H 286.893 -4.11167 -2.08035 0
M  V30 3148 H 285.208 -3.64139 -2.0197 0
M  V30 3149 H 287.805 -2.67716 -4.62852 0
M  V30 3150 H 288.148 -1.07582 -4.02159 0
M  V30 3151 H 288.681 -2.49945 -3.09471 0
M  V30 3152 H 285.42 -5.44533 -3.64916 0
M  V30 3153 H 284.94 -3.96125 -4.50383 0
M  V30 3154 H 286.619 -4.54741 -4.60238 0
M  V30 3155 N 286.751 1.08385 -1.14413 0
M  V30 3156 C 287.681 2.17321 -0.854044 0
M  V30 3157 C 288.662 1.69024 0.191049 0
M  V30 3158 O 289.847 1.94141 0.0476779 0
M  V30 3159 C 286.977 3.45719 -0.330983 0
M  V30 3160 C 285.931 4.07409 -1.31155 0
M  V30 3161 C 285.257 5.30762 -0.64778 0
M  V30 3162 C 286.557 4.48665 -2.67388 0
M  V30 3163 H 288.251 2.41845 -1.76498 0
M  V30 3164 H 285.797 1.16233 -0.850051 0
M  V30 3165 H 287.75 4.21241 -0.115645 0
M  V30 3166 H 286.474 3.2075 0.615381 0
M  V30 3167 H 285.133 3.33919 -1.51306 0
M  V30 3168 H 284.781 5.02078 0.304398 0
M  V30 3169 H 284.481 5.72992 -1.30207 0
M  V30 3170 H 286.005 6.08998 -0.441972 0
M  V30 3171 H 287.419 5.15364 -2.51143 0
M  V30 3172 H 285.816 5.01814 -3.29093 0
M  V30 3173 H 286.886 3.60543 -3.24248 0
M  V30 3174 N 288.23 0.939286 1.26551 0
M  V30 3175 C 289.193 0.451987 2.24699 0
M  V30 3176 C 290.193 -0.435869 1.5478 0
M  V30 3177 O 291.383 -0.235314 1.72603 0
M  V30 3178 C 288.515 -0.348801 3.39111 0
M  V30 3179 H 289.708 1.3193 2.69322 0
M  V30 3180 H 287.261 0.721072 1.38673 0
M  V30 3181 H 287.996 -1.23444 2.99887 0
M  V30 3182 H 287.781 0.287945 3.91041 0
M  V30 3183 H 289.271 -0.679726 4.12031 0
M  V30 3184 N 289.708 -1.40897 0.706093 0
M  V30 3185 C 290.957 -2.00284 0.238574 0
M  V30 3186 C 291.27 -1.56604 -1.17194 0
M  V30 3187 O 292.476 -2.08624 -1.73748 0
M  V30 3188 C 290.932 -3.57934 0.375623 0
M  V30 3189 C 290.54 -4.10591 1.79217 0
M  V30 3190 C 292.284 -4.24488 -0.0315857 0
M  V30 3191 C 290.191 -5.60712 1.88032 0
M  V30 3192 H 289.121 -0.749144 0.0854398 0
M  V30 3193 H 291.772 -1.61251 0.875813 0
M  V30 3194 H 290.154 -3.94622 -0.330042 0
M  V30 3195 H 291.328 -3.85301 2.52745 0
M  V30 3196 H 289.643 -3.56601 2.15 0
M  V30 3197 H 292.24 -5.34698 0.0136842 0
M  V30 3198 H 292.583 -4.02261 -1.072 0
M  V30 3199 H 293.116 -3.92873 0.624181 0
M  V30 3200 H 289.855 -5.87781 2.90161 0
M  V30 3201 H 289.375 -5.87896 1.18903 0
M  V30 3202 H 291.054 -6.25658 1.64805 0
M  V30 3203 N 291.186 -0.45159 -1.50991 0
M  V30 3204 C 292.432 0.110237 -2.025 0
M  V30 3205 C 292.765 1.41109 -1.33424 0
M  V30 3206 O 292.04 1.89135 -0.453659 0
M  V30 3207 C 292.323 0.314271 -3.58726 0
M  V30 3208 C 292.176 -1.00623 -4.38401 0
M  V30 3209 C 293.495 1.07767 -4.26702 0
M  V30 3210 H 290.614 0.0385897 -0.735989 0
M  V30 3211 H 293.256 -0.593374 -1.80497 0
M  V30 3212 H 291.406 0.913601 -3.77605 0
M  V30 3213 H 293.078 -1.64064 -4.31139 0
M  V30 3214 H 291.321 -1.6075 -4.02917 0
M  V30 3215 H 291.992 -0.817341 -5.45915 0
M  V30 3216 H 294.468 0.56986 -4.12179 0
M  V30 3217 H 293.344 1.18921 -5.35863 0
M  V30 3218 H 293.605 2.10939 -3.88532 0
M  V30 3219 N 292.664 1.56529 -0.183458 0
M  V30 3220 C 293.889 2.02064 0.467428 0
M  V30 3221 C 294.314 1.06282 1.55196 0
M  V30 3222 O 293.672 0.0443565 1.81246 0
M  V30 3223 C 293.72 3.46122 1.01153 0
M  V30 3224 O 292.824 3.53437 2.12499 0
M  V30 3225 H 292.165 0.654726 0.110588 0
M  V30 3226 H 294.695 2.02521 -0.290917 0
M  V30 3227 H 294.705 3.85676 1.33108 0
M  V30 3228 H 293.38 4.15331 0.217533 0
M  V30 3229 H 291.957 3.2575 1.81497 0
M  V30 3230 N 294.142 -0.090211 1.57342 0
M  V30 3231 C 295.391 -0.791531 1.8552 0
M  V30 3232 C 295.704 -1.79659 0.773441 0
M  V30 3233 O 296.91 -2.54616 0.942497 0
M  V30 3234 C 295.366 -1.45856 3.2902 0
M  V30 3235 C 294.974 -0.493017 4.45279 0
M  V30 3236 C 296.718 -2.14332 3.66418 0
M  V30 3237 C 294.625 -1.16491 5.79814 0
M  V30 3238 H 293.555 -0.299356 0.692027 0
M  V30 3239 H 296.206 -0.0445343 1.83446 0
M  V30 3240 H 294.588 -2.25318 3.2565 0
M  V30 3241 H 295.762 0.270464 4.60006 0
M  V30 3242 H 294.077 0.0863061 4.16311 0
M  V30 3243 H 296.674 -2.65344 4.64216 0
M  V30 3244 H 297.017 -2.93447 2.95287 0
M  V30 3245 H 297.55 -1.41724 3.71698 0
M  V30 3246 H 294.289 -0.41447 6.54188 0
M  V30 3247 H 293.809 -1.8997 5.68921 0
M  V30 3248 H 295.488 -1.69001 6.24538 0
M  V30 3249 N 295.62 -1.53406 -0.361157 0
M  V30 3250 C 296.55 -1.83136 -1.44857 0
M  V30 3251 C 297.531 -0.685174 -1.5569 0
M  V30 3252 O 298.716 -0.93544 -1.70186 0
M  V30 3253 C 295.846 -2.02522 -2.82138 0
M  V30 3254 C 294.8 -3.18302 -2.86126 0
M  V30 3255 C 294.126 -3.22989 -4.26125 0
M  V30 3256 C 295.426 -4.56796 -2.53248 0
M  V30 3257 H 297.12 -2.74201 -1.20226 0
M  V30 3258 H 294.666 -1.31938 -0.576922 0
M  V30 3259 H 296.619 -2.21904 -3.58241 0
M  V30 3260 H 295.343 -1.08172 -3.08166 0
M  V30 3261 H 294.002 -2.98747 -2.12475 0
M  V30 3262 H 293.65 -2.26267 -4.49235 0
M  V30 3263 H 293.35 -4.00781 -4.29708 0
M  V30 3264 H 294.874 -3.44559 -5.04094 0
M  V30 3265 H 296.288 -4.7631 -3.19064 0
M  V30 3266 H 294.685 -5.36862 -2.68141 0
M  V30 3267 H 295.755 -4.61606 -1.48484 0
M  V30 3268 N 297.098 0.621204 -1.44841 0
M  V30 3269 C 298.345 1.38055 -1.48145 0
M  V30 3270 C 298.673 1.94143 -0.117867 0
M  V30 3271 O 297.928 1.74713 0.881694 0
M  V30 3272 C 298.227 2.55675 -2.4973 0
M  V30 3273 C 297.893 2.17817 -3.94799 0
M  V30 3274 C 296.555 2.07205 -4.34303 0
M  V30 3275 C 298.907 1.88065 -4.86087 0
M  V30 3276 C 296.235 1.65045 -5.63007 0
M  V30 3277 C 298.587 1.47394 -6.15189 0
M  V30 3278 C 297.251 1.35331 -6.53637 0
M  V30 3279 H 296.521 0.505181 -0.542101 0
M  V30 3280 H 299.168 0.703477 -1.78111 0
M  V30 3281 H 297.473 3.2866 -2.13284 0
M  V30 3282 H 299.17 3.13904 -2.4953 0
M  V30 3283 H 295.76 2.26998 -3.63552 0
M  V30 3284 H 299.944 1.95168 -4.56315 0
M  V30 3285 H 295.2 1.54317 -5.91605 0
M  V30 3286 H 299.374 1.23415 -6.85377 0
M  V30 3287 H 297.001 1.02435 -7.53267 0
M  V30 3288 N 298.576 1.31904 0.862503 0
M  V30 3289 C 299.825 1.21373 1.61094 0
M  V30 3290 C 300.138 -0.22504 1.94301 0
M  V30 3291 O 301.344 -0.452121 2.67709 0
M  V30 3292 C 299.8 2.12525 2.9045 0
M  V30 3293 C 299.408 3.61441 2.64697 0
M  V30 3294 C 301.152 2.10813 3.68454 0
M  V30 3295 C 299.059 4.44578 3.90006 0
M  V30 3296 H 297.989 0.450705 0.604468 0
M  V30 3297 H 300.64 1.56811 0.953027 0
M  V30 3298 H 299.022 1.69994 3.57656 0
M  V30 3299 H 300.196 4.12264 2.05851 0
M  V30 3300 H 298.511 3.65205 2.00036 0
M  V30 3301 H 301.108 2.70167 4.61426 0
M  V30 3302 H 301.451 1.09713 4.01583 0
M  V30 3303 H 301.984 2.51583 3.08141 0
M  V30 3304 H 298.723 5.46461 3.62023 0
M  V30 3305 H 298.243 3.98508 4.48276 0
M  V30 3306 H 299.922 4.57176 4.5782 0
M  V30 3307 N 300.054 -1.07777 1.14986 0
M  V30 3308 C 301.3 -1.80557 0.923422 0
M  V30 3309 C 301.633 -1.86298 -0.548337 0
M  V30 3310 O 300.908 -1.34354 -1.40639 0
M  V30 3311 C 301.191 -3.25839 1.53299 0
M  V30 3312 C 301.044 -3.28269 3.07505 0
M  V30 3313 C 302.363 -4.22991 1.21518 0
M  V30 3314 H 299.482 -0.655493 0.336894 0
M  V30 3315 H 302.124 -1.26144 1.42083 0
M  V30 3316 H 300.274 -3.72306 1.10999 0
M  V30 3317 H 301.946 -2.90079 3.58681 0
M  V30 3318 H 300.189 -2.67355 3.4162 0
M  V30 3319 H 300.86 -4.30691 3.45266 0
M  V30 3320 H 303.336 -3.84894 1.581 0
M  V30 3321 H 302.212 -5.22945 1.66793 0
M  V30 3322 H 302.473 -4.41904 0.131505 0
M  V30 3323 N 301.532 -0.945985 -1.26051 0
M  V30 3324 C 302.462 -0.477172 -2.28572 0
M  V30 3325 C 303.443 0.472032 -1.63419 0
M  V30 3326 O 304.628 0.372853 -1.90587 0
M  V30 3327 C 301.758 0.253975 -3.4637 0
M  V30 3328 C 300.712 -0.609135 -4.23643 0
M  V30 3329 C 300.038 0.252252 -5.34105 0
M  V30 3330 C 301.338 -1.8829 -4.8718 0
M  V30 3331 H 303.032 -1.33402 -2.68038 0
M  V30 3332 H 300.578 -0.642904 -1.28852 0
M  V30 3333 H 302.531 0.593016 -4.17207 0
M  V30 3334 H 301.255 1.145 -3.05871 0
M  V30 3335 H 299.914 -0.931138 -3.54578 0
M  V30 3336 H 299.562 1.14278 -4.89846 0
M  V30 3337 H 299.262 -0.32188 -5.86718 0
M  V30 3338 H 300.786 0.586454 -6.07777 0
M  V30 3339 H 302.2 -1.61081 -5.50205 0
M  V30 3340 H 300.597 -2.40199 -5.49931 0
M  V30 3341 H 301.667 -2.59134 -4.09851 0
M  V30 3342 N 303.011 1.40521 -0.713556 0
M  V30 3343 C 304.236 2.05759 -0.26035 0
M  V30 3344 C 304.661 1.53403 1.08854 0
M  V30 3345 O 304.019 0.668535 1.68524 0
M  V30 3346 C 304.067 3.59745 -0.248122 0
M  V30 3347 O 303.171 4.05123 0.77131 0
M  V30 3348 H 302.512 0.652564 -0.122703 0
M  V30 3349 H 305.042 1.79958 -0.973467 0
M  V30 3350 H 305.052 4.07911 -0.0851129 0
M  V30 3351 H 303.727 3.97218 -1.2325 0
M  V30 3352 H 302.304 3.68422 0.57619 0
M  V30 3353 N 304.489 0.459591 1.5075 0
M  V30 3354 C 305.717 -0.0973749 2.06671 0
M  V30 3355 C 306.132 -1.34524 1.32472 0
M  V30 3356 O 305.489 -1.7827 0.390634 0
M  V30 3357 C 305.54 -0.39714 3.59312 0
M  V30 3358 O 305.261 0.801214 4.30711 0
M  V30 3359 C 306.762 -1.00234 4.31819 0
M  V30 3360 H 303.982 0.00195854 0.670997 0
M  V30 3361 H 306.526 0.645072 1.94059 0
M  V30 3362 H 304.681 -1.08951 3.71764 0
M  V30 3363 H 305.095 0.538857 5.21725 0
M  V30 3364 H 306.569 -1.16193 5.39632 0
M  V30 3365 H 307.046 -1.98939 3.91561 0
M  V30 3366 H 307.652 -0.348699 4.23868 0
M  V30 3367 N 305.967 -1.56429 0.191757 0
M  V30 3368 C 307.216 -1.9666 -0.448088 0
M  V30 3369 C 307.529 -1.08136 -1.62991 0
M  V30 3370 O 308.735 -1.38135 -2.33733 0
M  V30 3371 C 307.191 -3.49753 -0.848585 0
M  V30 3372 C 306.799 -4.46935 0.308764 0
M  V30 3373 C 308.543 -3.9876 -1.4557 0
M  V30 3374 C 306.45 -5.91293 -0.112506 0
M  V30 3375 H 305.38 -0.734312 -0.171179 0
M  V30 3376 H 308.031 -1.81301 0.283242 0
M  V30 3377 H 306.413 -3.60604 -1.63649 0
M  V30 3378 H 307.587 -4.47813 1.08627 0
M  V30 3379 H 305.902 -4.08102 0.827158 0
M  V30 3380 H 308.499 -5.04086 -1.78328 0
M  V30 3381 H 308.842 -3.42875 -2.36099 0
M  V30 3382 H 309.375 -3.9101 -0.731836 0
M  V30 3383 H 306.114 -6.51097 0.758514 0
M  V30 3384 H 305.634 -5.93676 -0.854941 0
M  V30 3385 H 307.313 -6.44663 -0.549448 0
M  V30 3386 N 307.445 0.0818655 -1.57387 0
M  V30 3387 C 308.408 1.08265 -2.02018 0
M  V30 3388 C 309.408 1.32183 -0.915664 0
M  V30 3389 O 310.598 1.28073 -1.18081 0
M  V30 3390 C 307.73 2.42871 -2.39221 0
M  V30 3391 H 308.923 0.698204 -2.91659 0
M  V30 3392 H 306.476 0.327303 -1.52835 0
M  V30 3393 H 307.211 2.86167 -1.52575 0
M  V30 3394 H 306.996 2.26855 -3.19811 0
M  V30 3395 H 308.486 3.14826 -2.74362 0
M  V30 3396 N 308.923 1.53595 0.353017 0
M  V30 3397 C 309.853 1.83902 1.43883 0
M  V30 3398 C 310.834 0.693421 1.55324 0
M  V30 3399 O 312.019 0.944452 1.69687 0
M  V30 3400 C 309.149 2.04016 2.8106 0
M  V30 3401 C 308.103 3.19814 2.84434 0
M  V30 3402 C 307.429 3.25244 4.24406 0
M  V30 3403 C 308.729 4.58133 2.50822 0
M  V30 3404 H 310.423 2.74835 1.1877 0
M  V30 3405 H 307.969 1.32242 0.569917 0
M  V30 3406 H 309.922 2.238 3.57059 0
M  V30 3407 H 308.646 1.09804 3.07588 0
M  V30 3408 H 307.305 2.9987 2.10887 0
M  V30 3409 H 306.953 2.28646 4.48029 0
M  V30 3410 H 306.653 4.03054 4.27576 0
M  V30 3411 H 308.177 3.47228 5.0226 0
M  V30 3412 H 309.591 4.77995 3.16534 0
M  V30 3413 H 307.988 5.38276 2.6529 0
M  V30 3414 H 309.058 4.62387 1.46034 0
M  V30 3415 N 310.401 -0.613514 1.45168 0
M  V30 3416 C 311.626 -1.40437 1.52618 0
M  V30 3417 C 312.051 -1.87438 0.157707 0
M  V30 3418 O 311.409 -1.59791 -0.856537 0
M  V30 3419 C 311.457 -2.58894 2.51011 0
M  V30 3420 O 310.561 -3.59326 2.02382 0
M  V30 3421 H 309.902 -0.419506 0.514695 0
M  V30 3422 H 312.432 -0.747215 1.90467 0
M  V30 3423 H 312.442 -3.06214 2.69624 0
M  V30 3424 H 311.117 -2.24032 3.50403 0
M  V30 3425 H 309.694 -3.18695 1.93618 0
M  V30 3426 N 311.879 -1.3236 -0.855495 0
M  V30 3427 C 312.809 -1.23833 -1.97958 0
M  V30 3428 C 313.79 -0.122361 -1.69659 0
M  V30 3429 O 314.975 -0.30939 -1.9172 0
M  V30 3430 C 312.105 -0.959772 -3.33775 0
M  V30 3431 C 311.059 -2.03689 -3.76424 0
M  V30 3432 C 310.385 -1.61075 -5.09862 0
M  V30 3433 C 311.685 -3.4518 -3.9198 0
M  V30 3434 H 313.379 -2.1788 -2.0535 0
M  V30 3435 H 310.925 -1.04891 -0.986605 0
M  V30 3436 H 312.878 -0.886678 -4.11966 0
M  V30 3437 H 311.602 0.0163404 -3.26596 0
M  V30 3438 H 310.261 -2.10012 -3.00484 0
M  V30 3439 H 309.909 -0.622107 -4.99138 0
M  V30 3440 H 309.609 -2.33143 -5.39368 0
M  V30 3441 H 311.133 -1.55201 -5.90546 0
M  V30 3442 H 312.547 -3.4145 -4.60526 0
M  V30 3443 H 310.944 -4.1559 -4.32903 0
M  V30 3444 H 312.014 -3.84903 -2.94919 0
M  V30 3445 N 313.357 1.07166 -1.15556 0
M  V30 3446 C 314.305 2.16517 -0.8499 0
M  V30 3447 C 315.299 1.68468 0.177454 0
M  V30 3448 O 316.505 1.79971 0.0323026 0
M  V30 3449 H 312.88 0.706652 -0.25719 0
M  V30 3450 H 314.851 2.39514 -1.77976 0
M  V30 3451 C 313.6 3.45855 -0.357682 0
M  V30 3452 H 312.923 3.83214 -1.13961 0
M  V30 3453 H 314.363 4.23607 -0.182489 0
M  V30 3454 C 312.822 3.24062 0.921152 0
M  V30 3455 O 313.352 3.48813 1.9923 0
M  V30 3456 N 311.558 2.77539 0.86141 0
M  V30 3457 H 311.105 2.57598 -0.0104408 0
M  V30 3458 H 311.063 2.63337 1.71758 0
M  V30 3459 N 314.835 0.952656 1.25548 0
M  V30 3460 C 316.063 0.623496 1.97282 0
M  V30 3461 C 316.478 -0.803987 1.70826 0
M  V30 3462 O 315.835 -1.53755 0.983147 0
M  V30 3463 C 315.886 0.870209 3.5087 0
M  V30 3464 O 315.607 2.24156 3.76412 0
M  V30 3465 C 317.108 0.553164 4.39835 0
M  V30 3466 H 314.328 0.233931 0.628902 0
M  V30 3467 H 316.872 1.27649 1.59768 0
M  V30 3468 H 315.027 0.263652 3.86502 0
M  V30 3469 H 315.441 2.31021 4.70882 0
M  V30 3470 H 316.915 0.776342 5.46513 0
M  V30 3471 H 317.392 -0.512215 4.36203 0
M  V30 3472 H 317.998 1.13896 4.09766 0
M  V30 3473 N 316.313 -1.40141 0.720998 0
M  V30 3474 C 317.243 -2.33339 0.0867621 0
M  V30 3475 C 318.224 -1.53178 -0.739622 0
M  V30 3476 O 319.409 -1.81625 -0.687449 0
M  V30 3477 C 316.539 -3.37194 -0.831728 0
M  V30 3478 C 315.493 -4.27857 -0.110558 0
M  V30 3479 C 314.819 -5.22294 -1.14513 0
M  V30 3480 C 316.119 -5.11872 1.0385 0
M  V30 3481 H 317.813 -2.86626 0.865219 0
M  V30 3482 H 315.359 -1.37814 0.417516 0
M  V30 3483 H 317.312 -4.01335 -1.28485 0
M  V30 3484 H 316.036 -2.82314 -1.64214 0
M  V30 3485 H 314.695 -3.65176 0.322797 0
M  V30 3486 H 314.343 -4.63717 -1.94874 0
M  V30 3487 H 314.043 -5.83797 -0.667446 0
M  V30 3488 H 315.567 -5.89312 -1.59824 0
M  V30 3489 H 316.981 -5.69436 0.664482 0
M  V30 3490 H 315.378 -5.82445 1.4449 0
M  V30 3491 H 316.448 -4.4753 1.86668 0
M  V30 3492 N 317.792 -0.46758 -1.50504 0
M  V30 3493 C 319.203 -0.0116166 -1.86696 0
M  V30 3494 C 319.554 1.39202 -1.38265 0
M  V30 3495 O 318.679 2.0313 -0.746132 0
M  V30 3496 C 319.274 -0.0143044 -3.38797 0
M  V30 3497 C 317.833 0.386175 -3.74414 0
M  V30 3498 C 316.98 -0.401287 -2.74381 0
M  V30 3499 H 319.931 -0.682022 -1.43297 0
M  V30 3500 H 319.952 0.788641 -3.72237 0
M  V30 3501 H 319.464 -1.03602 -3.74016 0
M  V30 3502 H 317.565 1.41237 -3.44794 0
M  V30 3503 H 317.678 0.0899596 -4.79016 0
M  V30 3504 H 316.042 0.144536 -2.5429 0
M  V30 3505 H 316.825 -1.42244 -3.12444 0
M  V30 3506 N 319.27 1.56325 -0.20005 0
M  V30 3507 C 320.18 2.22931 0.730668 0
M  V30 3508 C 321.196 1.22997 1.23076 0
M  V30 3509 O 322.372 1.55748 1.27689 0
M  V30 3510 C 319.437 2.87948 1.93098 0
M  V30 3511 C 318.498 4.03166 1.47497 0
M  V30 3512 C 317.731 4.65073 2.61807 0
M  V30 3513 O 317.954 4.25913 3.79413 0
M  V30 3514 O 316.888 5.54452 2.34237 0
M  V30 3515 H 320.714 3.03084 0.193391 0
M  V30 3516 H 318.299 1.49371 0.0294621 0
M  V30 3517 H 320.181 3.29063 2.6324 0
M  V30 3518 H 318.856 2.10771 2.45677 0
M  V30 3519 H 317.763 3.66664 0.742201 0
M  V30 3520 H 319.096 4.82022 0.995796 0
M  V30 3521 N 320.748 -0.0735177 1.57428 0
M  V30 3522 C 321.678 -1.0879 2.06608 0
M  V30 3523 C 322.659 -1.40473 0.959237 0
M  V30 3524 O 323.844 -1.5013 1.23185 0
M  V30 3525 C 320.974 -2.40183 2.50857 0
M  V30 3526 C 319.928 -2.22858 3.65402 0
M  V30 3527 C 319.254 -3.59619 3.957 0
M  V30 3528 C 320.554 -1.65123 4.95511 0
M  V30 3529 H 322.248 -0.678673 2.91607 0
M  V30 3530 H 319.794 -0.325013 1.40284 0
M  V30 3531 H 321.747 -3.11437 2.83874 0
M  V30 3532 H 320.471 -2.83083 1.62885 0
M  V30 3533 H 319.13 -1.54045 3.32664 0
M  V30 3534 H 318.778 -4.00086 3.04861 0
M  V30 3535 H 318.478 -3.48866 4.72828 0
M  V30 3536 H 320.002 -4.32306 4.31212 0
M  V30 3537 H 321.416 -2.26241 5.26771 0
M  V30 3538 H 319.813 -1.65071 5.7695 0
M  V30 3539 H 320.883 -0.612559 4.81015 0
M  V30 3540 N 322.226 -1.5378 -0.344866 0
M  V30 3541 C 323.158 -1.77988 -1.44406 0
M  V30 3542 C 324.171 -0.661138 -1.48771 0
M  V30 3543 O 325.36 -0.937842 -1.51877 0
M  V30 3544 C 322.46 -1.86345 -2.8307 0
M  V30 3545 C 321.633 -3.16256 -3.0216 0
M  V30 3546 C 320.692 -3.15588 -4.21059 0
M  V30 3547 O 319.718 -3.89314 -4.15239 0
M  V30 3548 N 320.92 -2.37864 -5.29529 0
M  V30 3549 H 323.685 -2.72839 -1.24012 0
M  V30 3550 H 321.246 -1.52814 -0.534737 0
M  V30 3551 H 323.238 -1.83351 -3.60783 0
M  V30 3552 H 321.808 -0.986858 -2.96614 0
M  V30 3553 H 321.028 -3.32385 -2.11929 0
M  V30 3554 H 322.316 -4.0207 -3.11797 0
M  V30 3555 H 321.714 -1.77514 -5.37127 0
M  V30 3556 H 320.271 -2.40668 -6.05741 0
M  V30 3557 N 323.704 0.605807 -1.45491 0
M  V30 3558 C 324.614 1.74466 -1.56839 0
M  V30 3559 C 325.63 1.68006 -0.452772 0
M  V30 3560 O 326.806 1.8833 -0.713708 0
M  V30 3561 C 323.871 3.10931 -1.53371 0
M  V30 3562 C 322.932 3.28832 -2.75986 0
M  V30 3563 C 322.165 4.58787 -2.72673 0
M  V30 3564 O 322.388 5.4122 -1.80102 0
M  V30 3565 O 321.322 4.79438 -3.63899 0
M  V30 3566 H 325.148 1.67843 -2.53106 0
M  V30 3567 H 322.733 0.770108 -1.28022 0
M  V30 3568 H 324.615 3.92233 -1.54051 0
M  V30 3569 H 323.29 3.18042 -0.602572 0
M  V30 3570 H 322.197 2.47112 -2.80867 0
M  V30 3571 H 323.53 3.26599 -3.68231 0
M  V30 3572 N 325.182 1.32811 0.848464 0
M  V30 3573 C 326.41 1.26739 1.63538 0
M  V30 3574 C 326.825 -0.163484 1.88091 0
M  V30 3575 O 326.182 -1.10258 1.45429 0
M  V30 3576 C 326.233 2.03013 2.99112 0
M  V30 3577 O 325.954 3.40518 2.75643 0
M  V30 3578 C 327.455 2.04038 3.93552 0
M  V30 3579 H 324.675 0.437024 0.509167 0
M  V30 3580 H 327.219 1.75033 1.05753 0
M  V30 3581 H 325.374 1.58426 3.53525 0
M  V30 3582 H 325.788 3.79635 3.61908 0
M  V30 3583 H 327.262 2.61877 4.85926 0
M  V30 3584 H 327.739 1.0282 4.26995 0
M  V30 3585 H 328.345 2.486 3.45077 0
M  V30 3586 N 326.66 -1.06551 1.16123 0
M  V30 3587 C 327.937 -1.76097 0.85142 0
M  V30 3588 C 328.317 -2.00802 -0.6513 0
M  V30 3589 O 327.665 -1.63302 -1.59827 0
M  V30 3590 C 327.875 -3.06384 1.67122 0
M  V30 3591 C 329.223 -3.80585 1.88255 0
M  V30 3592 O 330.247 -3.16218 1.63966 0
M  V30 3593 O 329.106 -4.96212 2.2899 0
M  V30 3594 H 326.2 -0.765102 0.313923 0
M  V30 3595 H 328.746 -1.12844 1.26745 0
M  V30 3596 H 327.518 -2.84071 2.69108 0
M  V30 3597 H 327.141 -3.77371 1.25206 0
M  V30 3598 N 328.138 -0.959301 -1.25041 0
M  V30 3599 C 329.048 -0.489994 -2.29426 0
M  V30 3600 C 330.064 0.444944 -1.68215 0
M  V30 3601 O 331.24 0.320046 -1.98841 0
M  V30 3602 C 328.305 0.220309 -3.45999 0
M  V30 3603 C 327.366 -0.753418 -4.22637 0
M  V30 3604 C 326.599 -0.076918 -5.33645 0
M  V30 3605 O 326.822 1.13649 -5.58963 0
M  V30 3606 O 325.756 -0.764824 -5.97021 0
M  V30 3607 H 329.582 -1.35755 -2.71669 0
M  V30 3608 H 327.167 -0.725961 -1.30576 0
M  V30 3609 H 329.049 0.619677 -4.16819 0
M  V30 3610 H 327.724 1.06296 -3.0575 0
M  V30 3611 H 326.631 -1.20308 -3.54227 0
M  V30 3612 H 327.964 -1.56423 -4.66683 0
M  V30 3613 N 329.616 1.39756 -0.72842 0
M  V30 3614 C 330.863 2.00645 -0.273487 0
M  V30 3615 C 331.191 1.57786 1.13727 0
M  V30 3616 O 330.446 0.794886 1.7883 0
M  V30 3617 C 330.745 3.56002 -0.315776 0
M  V30 3618 C 330.411 4.18489 -1.67863 0
M  V30 3619 C 329.073 4.3527 -2.05166 0
M  V30 3620 C 331.425 4.53219 -2.57375 0
M  V30 3621 C 328.753 4.84069 -3.31503 0
M  V30 3622 C 331.105 5.03423 -3.83077 0
M  V30 3623 C 329.769 5.18413 -4.20481 0
M  V30 3624 H 329.039 0.734211 -0.100076 0
M  V30 3625 H 331.686 1.6718 -0.933972 0
M  V30 3626 H 329.991 3.89452 0.428285 0
M  V30 3627 H 331.688 4.00963 0.0542575 0
M  V30 3628 H 328.278 4.05824 -1.37858 0
M  V30 3629 H 332.462 4.39878 -2.29827 0
M  V30 3630 H 327.718 4.93859 -3.60435 0
M  V30 3631 H 331.892 5.2927 -4.52599 0
M  V30 3632 H 329.519 5.55987 -5.18443 0
M  V30 3633 N 331.094 0.475555 1.50254 0
M  V30 3634 C 332.342 -0.077738 2.0195 0
M  V30 3635 C 332.663 -1.39813 1.35931 0
M  V30 3636 O 331.933 -1.89249 0.506123 0
M  V30 3637 H 330.513 -0.031719 0.746326 0
M  V30 3638 H 333.175 0.626995 1.84539 0
M  V30 3639 H 332.271 -0.225995 3.11281 0
M  V30 3640 N 332.573 -1.56217 0.208337 0
M  V30 3641 C 333.505 -2.1695 -0.739276 0
M  V30 3642 C 334.518 -1.13492 -1.1672 0
M  V30 3643 O 335.707 -1.40529 -1.10063 0
M  V30 3644 C 332.807 -2.72755 -2.01142 0
M  V30 3645 C 331.98 -4.0125 -1.74118 0
M  V30 3646 C 331.039 -4.41749 -2.85909 0
M  V30 3647 O 330.065 -5.08912 -2.54946 0
M  V30 3648 N 331.267 -4.06342 -4.14568 0
M  V30 3649 H 334.032 -2.98893 -0.219837 0
M  V30 3650 H 331.593 -1.61878 0.0268445 0
M  V30 3651 H 333.585 -2.96826 -2.75094 0
M  V30 3652 H 332.155 -1.95191 -2.4417 0
M  V30 3653 H 331.375 -3.85173 -0.838775 0
M  V30 3654 H 332.663 -4.851 -1.53477 0
M  V30 3655 H 332.061 -3.52345 -4.42571 0
M  V30 3656 H 330.618 -4.35335 -4.85105 0
M  V30 3657 N 334.051 0.0651679 -1.57465 0
M  V30 3658 C 334.981 1.07693 -2.07182 0
M  V30 3659 C 335.962 1.39962 -0.966673 0
M  V30 3660 O 337.147 1.49475 -1.2398 0
M  V30 3661 C 334.277 2.3885 -2.52127 0
M  V30 3662 C 333.231 2.20917 -3.66579 0
M  V30 3663 C 332.557 3.57515 -3.97601 0
M  V30 3664 C 333.857 1.62493 -4.9638 0
M  V30 3665 H 335.551 0.663199 -2.91962 0
M  V30 3666 H 333.097 0.317569 -1.40455 0
M  V30 3667 H 335.05 3.09928 -2.85522 0
M  V30 3668 H 333.774 2.82215 -1.64384 0
M  V30 3669 H 332.433 1.52279 -3.33477 0
M  V30 3670 H 332.081 3.98463 -3.06979 0
M  V30 3671 H 331.781 3.46353 -4.74672 0
M  V30 3672 H 333.305 4.30013 -4.33499 0
M  V30 3673 H 334.719 2.23445 -5.27963 0
M  V30 3674 H 333.116 1.62009 -5.77818 0
M  V30 3675 H 334.186 0.587041 -4.81333 0
M  V30 3676 N 335.529 1.53961 0.336706 0
M  V30 3677 C 336.477 1.83136 1.43401 0
M  V30 3678 C 337.471 0.702313 1.54156 0
M  V30 3679 O 338.677 0.885765 1.56698 0
M  V30 3680 H 335.052 0.580309 0.478273 0
M  V30 3681 H 337.023 2.74925 1.16012 0
M  V30 3682 C 335.772 2.06385 2.79822 0
M  V30 3683 H 335.095 2.92718 2.72316 0
M  V30 3684 H 336.535 2.30761 3.55704 0
M  V30 3685 C 334.994 0.851414 3.25964 0
M  V30 3686 O 335.524 0.0541904 4.01663 0
M  V30 3687 N 333.73 0.66672 2.82848 0
M  V30 3688 H 333.277 1.31665 2.21409 0
M  V30 3689 H 333.235 -0.143032 3.14074 0
M  V30 3690 N 337.007 -0.598083 1.45811 0
M  V30 3691 C 338.284 -1.35777 1.40797 0
M  V30 3692 C 338.664 -2.10935 0.083462 0
M  V30 3693 O 338.012 -2.08505 -0.934763 0
M  V30 3694 C 338.222 -2.29666 2.62783 0
M  V30 3695 C 339.57 -2.91977 3.08277 0
M  V30 3696 O 340.594 -2.39984 2.63223 0
M  V30 3697 O 339.453 -3.86376 3.86491 0
M  V30 3698 H 336.547 -0.609291 0.55919 0
M  V30 3699 H 339.093 -0.620379 1.57954 0
M  V30 3700 H 337.865 -1.73454 3.50756 0
M  V30 3701 H 337.488 -3.1077 2.48008 0
M  V30 3702 N 338.485 -1.33259 -0.841409 0
M  V30 3703 C 339.433 -1.23279 -1.97244 0
M  V30 3704 C 340.427 -0.134706 -1.68864 0
M  V30 3705 O 341.633 -0.298501 -1.77508 0
M  V30 3706 H 338.008 -0.382497 -0.647457 0
M  V30 3707 H 339.979 -2.18906 -2.02787 0
M  V30 3708 C 338.728 -0.986268 -3.33419 0
M  V30 3709 H 338.051 -1.82347 -3.55794 0
M  V30 3710 H 339.491 -0.956728 -4.13065 0
M  V30 3711 C 337.95 0.310842 -3.35463 0
M  V30 3712 O 338.48 1.31838 -3.79449 0
M  V30 3713 N 336.686 0.337485 -2.88634 0
M  V30 3714 H 336.233 -0.482967 -2.53032 0
M  V30 3715 H 336.191 1.20518 -2.90384 0
M  V30 3716 N 339.963 1.05934 -1.16686 0
M  V30 3717 C 341.379 1.30938 -0.912542 0
M  V30 3718 C 341.579 1.96803 0.432533 0
M  V30 3719 O 340.635 2.23693 1.17123 0
M  V30 3720 C 341.948 2.18649 -2.06429 0
M  V30 3721 C 343.496 2.32055 -2.10047 0
M  V30 3722 C 343.971 3.23122 -3.24586 0
M  V30 3723 N 345.462 3.30706 -3.24327 0
M  V30 3724 C 346.197 4.01273 -4.09594 0
M  V30 3725 N 345.693 4.74332 -5.04956 0
M  V30 3726 N 347.486 3.97361 -3.97569 0
M  V30 3727 H 339.637 0.615777 -2.03278 0
M  V30 3728 H 341.9 0.334077 -0.887185 0
M  V30 3729 H 341.606 1.77534 -3.03603 0
M  V30 3730 H 341.48 3.19252 -2.00894 0
M  V30 3731 H 343.867 2.72415 -1.13464 0
M  V30 3732 H 343.948 1.31107 -2.19647 0
M  V30 3733 H 343.592 2.83477 -4.2143 0
M  V30 3734 H 343.522 4.24057 -3.12223 0
M  V30 3735 H 346.013 2.78644 -2.55276 0
M  V30 3736 H 346.326 5.25716 -5.6643 0
M  V30 3737 H 344.671 4.733 -5.08933 0
M  V30 3738 H 347.862 3.39405 -3.22369 0
M  V30 3739 H 348.035 4.52089 -4.64241 0
M  V30 3740 N 341.441 0.965919 1.2453 0
M  V30 3741 C 342.373 0.452465 2.2469 0
M  V30 3742 C 343.386 -0.437821 1.56802 0
M  V30 3743 O 344.575 -0.244283 1.76821 0
M  V30 3744 C 341.675 -0.366258 3.36915 0
M  V30 3745 C 340.848 0.513701 4.34373 0
M  V30 3746 C 339.907 -0.248716 5.25612 0
M  V30 3747 O 338.933 0.356745 5.68081 0
M  V30 3748 N 340.135 -1.53877 5.59734 0
M  V30 3749 H 342.9 1.31361 2.69378 0
M  V30 3750 H 340.461 0.837541 1.38553 0
M  V30 3751 H 342.453 -0.884297 3.94921 0
M  V30 3752 H 341.023 -1.12832 2.91526 0
M  V30 3753 H 340.243 1.21273 3.75082 0
M  V30 3754 H 341.531 1.11391 4.96457 0
M  V30 3755 H 340.929 -2.05243 5.27154 0
M  V30 3756 H 339.486 -2.00254 6.20275 0
M  V30 3757 N 342.919 -1.39368 0.735821 0
M  V30 3758 C 343.849 -2.33234 0.111506 0
M  V30 3759 C 344.83 -1.53954 -0.723334 0
M  V30 3760 O 346.015 -1.82344 -0.668147 0
M  V30 3761 C 343.145 -3.38057 -0.795917 0
M  V30 3762 C 342.099 -4.2795 -0.065172 0
M  V30 3763 C 341.425 -5.23479 -1.08967 0
M  V30 3764 C 342.725 -5.10741 1.09273 0
M  V30 3765 H 344.419 -2.85692 0.895571 0
M  V30 3766 H 341.965 -1.37364 0.432109 0
M  V30 3767 H 343.918 -4.02675 -1.24221 0
M  V30 3768 H 342.642 -2.8404 -1.61211 0
M  V30 3769 H 341.301 -3.64813 0.361511 0
M  V30 3770 H 340.949 -4.65758 -1.89944 0
M  V30 3771 H 340.649 -5.84472 -0.605489 0
M  V30 3772 H 342.173 -5.90974 -1.53565 0
M  V30 3773 H 343.587 -5.68699 0.724841 0
M  V30 3774 H 341.984 -5.8088 1.50659 0
M  V30 3775 H 343.054 -4.45525 1.91404 0
M  V30 3776 N 344.397 -0.483516 -1.5 0
M  V30 3777 C 345.36 0.292965 -2.2732 0
M  V30 3778 C 346.36 0.909499 -1.32608 0
M  V30 3779 O 347.55 0.776745 -1.55924 0
M  V30 3780 C 344.682 1.41854 -3.09984 0
M  V30 3781 H 345.875 -0.385289 -2.97415 0
M  V30 3782 H 343.428 -0.237942 -1.54478 0
M  V30 3783 H 344.163 2.13148 -2.44414 0
M  V30 3784 H 343.948 0.982114 -3.79601 0
M  V30 3785 H 345.438 1.96597 -3.68429 0
M  V30 3786 N 345.875 1.56104 -0.216619 0
M  V30 3787 C 346.825 2.16703 0.708798 0
M  V30 3788 C 347.809 1.11392 1.16106 0
M  V30 3789 O 349.001 1.37395 1.11587 0
M  V30 3790 C 346.13 2.84666 1.91886 0
M  V30 3791 C 345.216 3.97195 1.48651 0
M  V30 3792 N 345.607 4.99959 0.766434 0
M  V30 3793 C 343.905 4.09193 1.77418 0
M  V30 3794 C 344.606 5.79126 0.546659 0
M  V30 3795 N 343.582 5.32315 1.10188 0
M  V30 3796 H 347.384 2.93516 0.150162 0
M  V30 3797 H 344.898 1.6239 -0.0176768 0
M  V30 3798 H 346.895 3.26486 2.59253 0
M  V30 3799 H 345.555 2.09347 2.48202 0
M  V30 3800 H 346.566 5.16197 0.419634 0
M  V30 3801 H 343.243 3.45021 2.35088 0
M  V30 3802 H 344.633 6.71895 -0.026103 0
M  V30 3803 N 347.353 -0.0568162 1.57498 0
M  V30 3804 C 348.599 -0.75422 1.88253 0
M  V30 3805 C 348.932 -1.76461 0.810865 0
M  V30 3806 O 348.207 -1.93691 -0.177259 0
M  V30 3807 C 348.49 -1.44878 3.2967 0
M  V30 3808 C 348.343 -0.453789 4.47505 0
M  V30 3809 C 349.662 -2.38994 3.69554 0
M  V30 3810 H 346.781 -0.272724 0.684683 0
M  V30 3811 H 349.423 -0.0172113 1.89992 0
M  V30 3812 H 347.573 -2.077 3.28318 0
M  V30 3813 H 349.245 0.170371 4.60985 0
M  V30 3814 H 347.488 0.229552 4.33192 0
M  V30 3815 H 348.159 -0.977699 5.43273 0
M  V30 3816 H 350.635 -1.86239 3.72095 0
M  V30 3817 H 349.511 -2.84587 4.69363 0
M  V30 3818 H 349.772 -3.24461 3.00296 0
M  V30 3819 N 348.832 -1.54138 -0.328536 0
M  V30 3820 C 349.742 -1.86192 -1.42723 0
M  V30 3821 C 350.758 -0.753382 -1.56844 0
M  V30 3822 O 351.934 -1.04718 -1.72035 0
M  V30 3823 C 348.999 -2.07824 -2.77507 0
M  V30 3824 C 348.06 -3.31641 -2.72603 0
M  V30 3825 C 347.293 -3.52232 -4.00959 0
M  V30 3826 O 347.516 -2.7636 -4.9898 0
M  V30 3827 O 346.45 -4.45699 -4.0452 0
M  V30 3828 H 350.276 -2.79608 -1.18547 0
M  V30 3829 H 347.861 -1.3998 -0.522104 0
M  V30 3830 H 349.743 -2.23411 -3.57303 0
M  V30 3831 H 348.418 -1.17596 -3.01584 0
M  V30 3832 H 347.325 -3.21444 -1.91376 0
M  V30 3833 H 348.658 -4.2191 -2.53481 0
M  V30 3834 N 350.31 0.590341 -1.46126 0
M  V30 3835 C 351.273 1.68194 -1.55703 0
M  V30 3836 C 352.273 1.54808 -0.434868 0
M  V30 3837 O 353.463 1.59564 -0.698928 0
M  V30 3838 C 350.595 3.07575 -1.47005 0
M  V30 3839 H 351.788 1.61064 -2.52979 0
M  V30 3840 H 349.341 0.807541 -1.33823 0
M  V30 3841 H 350.076 3.20268 -0.509785 0
M  V30 3842 H 349.861 3.187 -2.28414 0
M  V30 3843 H 351.351 3.87055 -1.56776 0
M  V30 3844 N 351.788 1.33704 0.83433 0
M  V30 3845 C 353.034 1.25603 1.59222 0
M  V30 3846 C 353.367 -0.176659 1.93395 0
M  V30 3847 O 352.642 -1.11915 1.59076 0
M  V30 3848 C 352.925 2.13576 2.89926 0
M  V30 3849 C 352.778 3.65326 2.62406 0
M  V30 3850 C 354.097 2.01238 3.91397 0
M  V30 3851 H 351.216 0.457613 0.577719 0
M  V30 3852 H 353.858 1.63848 0.961972 0
M  V30 3853 H 352.008 1.8109 3.43713 0
M  V30 3854 H 353.68 4.08124 2.15017 0
M  V30 3855 H 351.923 3.8698 1.96033 0
M  V30 3856 H 352.594 4.22232 3.55562 0
M  V30 3857 H 355.07 2.29738 3.46929 0
M  V30 3858 H 353.946 2.65036 4.80673 0
M  V30 3859 H 354.207 0.985951 4.30966 0
M  V30 3860 N 353.266 -1.05314 1.17247 0
M  V30 3861 C 354.506 -1.79869 0.970898 0
M  V30 3862 C 354.87 -1.85594 -0.491808 0
M  V30 3863 O 356.071 -2.56229 -0.812409 0
M  V30 3864 C 354.342 -3.19937 1.59295 0
M  V30 3865 S 355.901 -4.10986 1.53741 0
M  V30 3866 H 352.719 -0.61949 0.348931 0
M  V30 3867 H 355.321 -1.26368 1.49169 0
M  V30 3868 H 354.025 -3.13372 2.65003 0
M  V30 3869 H 353.556 -3.78515 1.07191 0
M  V30 3870 H 355.571 -4.93203 0.544537 0
M  V30 3871 N 354.744 -0.972509 -1.24016 0
M  V30 3872 C 355.993 -0.632603 -1.91523 0
M  V30 3873 C 356.306 0.836641 -1.76804 0
M  V30 3874 O 357.512 1.28728 -2.39043 0
M  V30 3875 C 355.968 -1.08082 -3.43287 0
M  V30 3876 C 355.576 -2.57386 -3.66683 0
M  V30 3877 C 357.32 -0.814288 -4.16617 0
M  V30 3878 C 355.227 -2.95915 -5.12043 0
M  V30 3879 H 354.157 -0.232898 -0.717129 0
M  V30 3880 H 356.808 -1.17936 -1.40582 0
M  V30 3881 H 355.19 -0.462339 -3.93292 0
M  V30 3882 H 356.364 -3.24405 -3.27258 0
M  V30 3883 H 354.679 -2.81701 -3.06649 0
M  V30 3884 H 357.276 -1.0781 -5.23718 0
M  V30 3885 H 357.619 0.24955 -4.15551 0
M  V30 3886 H 358.152 -1.39397 -3.72577 0
M  V30 3887 H 354.891 -4.0139 -5.18234 0
M  V30 3888 H 354.411 -2.33584 -5.52448 0
M  V30 3889 H 356.09 -2.86086 -5.80314 0
M  V30 3890 N 356.222 1.38976 -0.743202 0
M  V30 3891 C 357.185 2.28901 -0.117014 0
M  V30 3892 C 358.185 1.46698 0.658503 0
M  V30 3893 O 359.375 1.67274 0.486305 0
M  V30 3894 C 356.507 3.30309 0.84315 0
M  V30 3895 H 357.7 2.8578 -0.909373 0
M  V30 3896 H 355.253 1.47761 -0.509547 0
M  V30 3897 H 355.988 2.785 1.66157 0
M  V30 3898 H 355.773 3.91029 0.289594 0
M  V30 3899 H 357.263 3.97577 1.2776 0
M  V30 3900 N 357.7 0.491464 1.49741 0
M  V30 3901 C 358.946 -0.0485431 2.03342 0
M  V30 3902 C 359.301 -1.35566 1.36527 0
M  V30 3903 O 358.594 -1.85262 0.488729 0
M  V30 3904 C 358.788 -0.267329 3.56399 0
M  V30 3905 C 358.617 1.01703 4.38049 0
M  V30 3906 C 357.387 1.56614 4.80417 0
M  V30 3907 C 359.585 1.91782 4.77204 0
M  V30 3908 N 357.567 2.7974 5.4646 0
M  V30 3909 C 358.938 2.99489 5.42868 0
M  V30 3910 C 360.993 1.92575 4.5915 0
M  V30 3911 C 359.696 4.08005 5.92389 0
M  V30 3912 C 361.722 3.0006 5.09626 0
M  V30 3913 C 361.084 4.06485 5.75282 0
M  V30 3914 H 357.183 0.0227779 0.781668 0
M  V30 3915 H 359.767 0.664204 1.8302 0
M  V30 3916 H 357.938 -0.949126 3.76625 0
M  V30 3917 H 359.67 -0.803492 3.96644 0
M  V30 3918 H 356.425 1.11256 4.60347 0
M  V30 3919 H 356.849 3.42323 5.84075 0
M  V30 3920 H 361.491 1.11605 4.07804 0
M  V30 3921 H 359.209 4.89779 6.42761 0
M  V30 3922 H 362.795 3.01681 4.97473 0
M  V30 3923 H 361.675 4.88287 6.13633 0
M  V30 3924 N 359.178 -1.55987 0.224894 0
M  V30 3925 C 360.425 -1.9839 -0.4059 0
M  V30 3926 C 360.753 -1.11261 -1.59535 0
M  V30 3927 O 360.008 -0.158314 -1.95059 0
M  V30 3928 C 360.307 -3.46394 -0.880106 0
M  V30 3929 C 359.973 -4.5046 0.19918 0
M  V30 3930 C 358.635 -4.7864 0.495661 0
M  V30 3931 C 360.987 -5.12855 0.928939 0
M  V30 3932 C 358.315 -5.66497 1.52636 0
M  V30 3933 C 360.667 -6.01828 1.949 0
M  V30 3934 C 359.331 -6.28351 2.25236 0
M  V30 3935 H 358.601 -0.725961 -0.148529 0
M  V30 3936 H 361.248 -1.88668 0.328113 0
M  V30 3937 H 359.553 -3.53337 -1.69294 0
M  V30 3938 H 361.25 -3.76577 -1.37808 0
M  V30 3939 H 357.84 -4.28579 -0.0420526 0
M  V30 3940 H 362.024 -4.9115 0.713129 0
M  V30 3941 H 357.28 -5.8531 1.76698 0
M  V30 3942 H 361.454 -6.49225 2.51951 0
M  V30 3943 H 359.081 -6.96226 3.05244 0
M  V30 3944 N 360.656 0.0484629 -1.57525 0
M  V30 3945 C 361.884 0.755421 -1.92616 0
M  V30 3946 C 362.299 1.69919 -0.822984 0
M  V30 3947 O 361.656 1.81378 0.202085 0
M  V30 3948 C 361.707 1.52915 -3.27566 0
M  V30 3949 O 361.428 0.62329 -4.33644 0
M  V30 3950 C 362.929 2.33502 -3.76818 0
M  V30 3951 H 360.149 0.213465 -0.63614 0
M  V30 3952 H 362.693 0.0117698 -2.04497 0
M  V30 3953 H 360.848 2.22486 -3.17142 0
M  V30 3954 H 361.262 1.16383 -5.11425 0
M  V30 3955 H 362.736 2.83214 -4.73808 0
M  V30 3956 H 363.213 3.14068 -3.07014 0
M  V30 3957 H 363.819 1.69043 -3.90262 0
M  V30 3958 N 362.134 1.5431 0.320358 0
M  V30 3959 C 363.067 1.78769 1.41834 0
M  V30 3960 C 364.045 0.63783 1.49568 0
M  V30 3961 O 365.229 0.875628 1.66928 0
M  V30 3962 C 362.356 1.90712 2.79905 0
M  V30 3963 C 361.402 3.13023 2.89687 0
M  V30 3964 S 362.235 4.71554 2.53766 0
M  V30 3965 C 363.391 4.86408 3.93902 0
M  V30 3966 H 363.624 2.71619 1.20874 0
M  V30 3967 H 361.157 1.45474 0.517377 0
M  V30 3968 H 363.115 1.98279 3.59438 0
M  V30 3969 H 361.776 0.988343 2.98145 0
M  V30 3970 H 360.969 3.18124 3.90913 0
M  V30 3971 H 360.571 3.03803 2.18128 0
M  V30 3972 H 362.863 4.69241 4.88691 0
M  V30 3973 H 363.806 5.88508 3.93782 0
M  V30 3974 H 364.214 4.14689 3.83005 0
M  V30 3975 N 363.613 -0.582584 1.46437 0
M  V30 3976 C 364.523 -1.71949 1.59595 0
M  V30 3977 C 365.539 -1.67264 0.479443 0
M  V30 3978 O 366.715 -1.87171 0.743579 0
M  V30 3979 C 363.78 -3.08452 1.58298 0
M  V30 3980 C 362.841 -3.244 2.81182 0
M  V30 3981 C 362.074 -4.54391 2.79937 0
M  V30 3982 O 362.297 -5.38287 1.8869 0
M  V30 3983 O 361.231 -4.73588 3.71481 0
M  V30 3984 H 365.057 -1.63795 2.55744 0
M  V30 3985 H 362.642 -0.749643 1.29231 0
M  V30 3986 H 364.524 -3.89732 1.60271 0
M  V30 3987 H 363.199 -3.17043 0.653094 0
M  V30 3988 H 362.106 -2.42613 2.84763 0
M  V30 3989 H 363.439 -3.20699 3.7338 0
M  V30 3990 N 365.091 -1.34144 -0.827227 0
M  V30 3991 C 366.321 -1.29138 -1.61267 0
M  V30 3992 C 366.729 0.137597 -1.88699 0
M  V30 3993 O 366.072 1.09379 -1.47587 0
M  V30 3994 C 366.134 -2.0097 -2.9808 0
M  V30 3995 C 365.798 -3.50242 -2.93563 0
M  V30 3996 C 366.795 -4.4523 -2.68452 0
M  V30 3997 C 364.48 -3.92592 -3.13331 0
M  V30 3998 C 366.474 -5.80542 -2.63154 0
M  V30 3999 C 364.161 -5.28005 -3.07658 0
M  V30 4000 C 365.159 -6.21792 -2.82602 0
M  V30 4001 O 364.847 -7.54723 -2.76853 0
M  V30 4002 H 364.579 -0.445851 -0.508127 0
M  V30 4003 H 367.133 -1.77263 -1.03763 0
M  V30 4004 H 365.363 -1.47451 -3.57484 0
M  V30 4005 H 367.052 -1.89309 -3.5905 0
M  V30 4006 H 367.818 -4.13832 -2.52919 0
M  V30 4007 H 363.697 -3.19994 -3.31851 0
M  V30 4008 H 367.241 -6.53717 -2.43516 0
M  V30 4009 H 363.138 -5.59023 -3.22743 0
M  V30 4010 H 363.906 -7.64409 -2.92611 0
M  V30 4011 N 366.569 1.04691 -1.17803 0
M  V30 4012 C 367.499 2.14494 -0.92275 0
M  V30 4013 C 368.48 1.69546 0.137179 0
M  V30 4014 O 369.665 1.94195 -0.0141108 0
M  V30 4015 C 366.795 3.44491 -0.440803 0
M  V30 4016 C 365.749 4.03031 -1.4405 0
M  V30 4017 C 365.075 5.28432 -0.81631 0
M  V30 4018 C 366.375 4.39932 -2.81527 0
M  V30 4019 H 368.069 2.36107 -1.84103 0
M  V30 4020 H 365.615 1.1347 -0.886599 0
M  V30 4021 H 367.568 4.2066 -0.249602 0
M  V30 4022 H 366.292 3.22546 0.513025 0
M  V30 4023 H 364.951 3.28937 -1.61853 0
M  V30 4024 H 364.599 5.02792 0.144511 0
M  V30 4025 H 364.299 5.68559 -1.48371 0
M  V30 4026 H 365.823 6.07284 -0.635496 0
M  V30 4027 H 367.237 5.07113 -2.67412 0
M  V30 4028 H 365.634 4.9109 -3.44892 0
M  V30 4029 H 366.704 3.50045 -3.35554 0
M  V30 4030 N 368.047 0.979072 1.23499 0
M  V30 4031 C 368.977 0.537606 2.27227 0
M  V30 4032 C 369.958 -0.428539 1.64613 0
M  V30 4033 O 371.143 -0.322191 1.91509 0
M  V30 4034 C 368.273 -0.162052 3.46922 0
M  V30 4035 C 367.227 0.721242 4.21879 0
M  V30 4036 C 366.553 -0.110555 5.34586 0
M  V30 4037 C 367.853 2.01141 4.82016 0
M  V30 4038 H 369.547 1.40462 2.64406 0
M  V30 4039 H 367.093 0.67684 1.27102 0
M  V30 4040 H 369.046 -0.482192 4.18632 0
M  V30 4041 H 367.77 -1.06351 3.08799 0
M  V30 4042 H 366.429 1.02482 3.51984 0
M  V30 4043 H 366.077 -1.0125 4.92704 0
M  V30 4044 H 365.777 0.477325 5.85658 0
M  V30 4045 H 367.301 -0.425107 6.09118 0
M  V30 4046 H 368.715 1.75612 5.45741 0
M  V30 4047 H 367.112 2.54695 5.43369 0
M  V30 4048 H 368.182 2.69909 4.02836 0
M  V30 4049 N 369.525 -1.3858 0.750561 0
M  V30 4050 C 370.941 -1.53759 0.427824 0
M  V30 4051 C 371.141 -1.71401 -1.05943 0
M  V30 4052 O 370.197 -1.72331 -1.84549 0
M  V30 4053 C 371.51 -2.74642 1.22443 0
M  V30 4054 C 373.058 -2.88489 1.2142 0
M  V30 4055 C 373.533 -4.12329 1.9937 0
M  V30 4056 N 375.024 -4.194 1.96616 0
M  V30 4057 C 375.759 -5.14209 2.53727 0
M  V30 4058 N 375.255 -6.14709 3.19539 0
M  V30 4059 N 377.048 -5.06537 2.43673 0
M  V30 4060 H 369.199 -1.25377 1.71447 0
M  V30 4061 H 371.462 -0.608844 0.726645 0
M  V30 4062 H 371.168 -2.68 2.27747 0
M  V30 4063 H 371.042 -3.67745 0.839273 0
M  V30 4064 H 373.429 -2.94614 0.169232 0
M  V30 4065 H 373.51 -1.96406 1.63885 0
M  V30 4066 H 373.154 -4.06966 3.03877 0
M  V30 4067 H 373.084 -5.03486 1.54302 0
M  V30 4068 H 375.575 -3.47421 1.48684 0
M  V30 4069 H 375.888 -6.8354 3.60545 0
M  V30 4070 H 374.233 -6.1505 3.23633 0
M  V30 4071 H 377.424 -4.26962 1.91889 0
M  V30 4072 H 377.597 -5.80245 2.88479 0
M  V30 4073 N 371.003 -0.499398 -1.49478 0
M  V30 4074 C 372.25 0.0456899 -2.02448 0
M  V30 4075 C 372.578 1.37142 -1.37921 0
M  V30 4076 O 371.833 1.89111 -0.503544 0
M  V30 4077 C 372.132 0.248424 -3.56536 0
M  V30 4078 C 371.798 -0.999107 -4.39692 0
M  V30 4079 C 370.46 -1.34108 -4.62135 0
M  V30 4080 C 372.812 -1.82842 -4.88076 0
M  V30 4081 C 370.14 -2.51191 -5.30208 0
M  V30 4082 C 372.492 -2.99076 -5.57437 0
M  V30 4083 C 371.156 -3.33655 -5.78127 0
M  V30 4084 H 370.426 0.0167191 -0.740811 0
M  V30 4085 H 373.073 -0.65923 -1.79795 0
M  V30 4086 H 371.378 1.03586 -3.77859 0
M  V30 4087 H 373.075 0.684605 -3.95113 0
M  V30 4088 H 369.665 -0.722729 -4.22463 0
M  V30 4089 H 373.849 -1.57737 -4.70566 0
M  V30 4090 H 369.105 -2.78221 -5.44429 0
M  V30 4091 H 373.279 -3.63664 -5.93904 0
M  V30 4092 H 370.906 -4.24483 -6.30649 0
M  V30 4093 N 372.481 1.55866 -0.233164 0
M  V30 4094 C 373.411 2.23783 0.666599 0
M  V30 4095 C 374.392 1.21343 1.19205 0
M  V30 4096 O 375.577 1.4996 1.23392 0
M  V30 4097 C 372.707 2.92671 1.86978 0
M  V30 4098 C 371.661 4.01682 1.47768 0
M  V30 4099 C 370.987 4.57926 2.76058 0
M  V30 4100 C 372.287 5.18126 0.658993 0
M  V30 4101 H 373.981 2.99232 0.100306 0
M  V30 4102 H 371.527 1.43924 0.046804 0
M  V30 4103 H 373.48 3.3888 2.50476 0
M  V30 4104 H 372.204 2.14688 2.46123 0
M  V30 4105 H 370.863 3.56222 0.866106 0
M  V30 4106 H 370.511 3.76659 3.33372 0
M  V30 4107 H 370.211 5.31505 2.50552 0
M  V30 4108 H 371.735 5.06859 3.40479 0
M  V30 4109 H 373.149 5.60644 1.19795 0
M  V30 4110 H 371.546 5.98009 0.500552 0
M  V30 4111 H 372.616 4.83763 -0.331856 0
M  V30 4112 N 373.959 -0.0401083 1.57549 0
M  V30 4113 C 375.184 -0.748931 1.93406 0
M  V30 4114 C 375.609 -1.68686 0.832274 0
M  V30 4115 O 374.967 -1.80047 -0.212818 0
M  V30 4116 C 375.015 -1.4916 3.28304 0
M  V30 4117 O 374.119 -2.6042 3.19774 0
M  V30 4118 H 373.46 -0.202212 0.63246 0
M  V30 4119 H 375.99 0.00112086 2.046 0
M  V30 4120 H 376 -1.86395 3.62934 0
M  V30 4121 H 374.675 -0.80364 4.08062 0
M  V30 4122 H 373.252 -2.25808 2.96758 0
M  V30 4123 N 375.437 -1.54477 -0.31217 0
M  V30 4124 C 376.662 -1.77526 -1.07235 0
M  V30 4125 C 377.087 -0.527775 -1.80544 0
M  V30 4126 O 376.445 0.52121 -1.73646 0
M  V30 4127 C 376.493 -2.97535 -2.03728 0
M  V30 4128 O 375.597 -2.69878 -3.11833 0
M  V30 4129 H 374.938 -0.58792 -0.30862 0
M  V30 4130 H 377.468 -2.01532 -0.352993 0
M  V30 4131 H 377.478 -3.25198 -2.46395 0
M  V30 4132 H 376.153 -3.87996 -1.49774 0
M  V30 4133 H 374.73 -2.53199 -2.7376 0
M  V30 4134 N 376.915 0.57481 -1.46744 0
M  V30 4135 C 378.326 1.15695 -1.46532 0
M  V30 4136 C 378.677 1.95068 -0.210425 0
M  V30 4137 O 377.802 2.05241 0.685944 0
M  V30 4138 C 378.397 2.1048 -2.65487 0
M  V30 4139 C 376.956 2.64002 -2.68291 0
M  V30 4140 C 376.103 1.40026 -2.39349 0
M  V30 4141 H 379.054 0.362325 -1.54509 0
M  V30 4142 H 379.075 2.94074 -2.41455 0
M  V30 4143 H 378.587 1.52683 -3.56805 0
M  V30 4144 H 376.688 3.25646 -1.81067 0
M  V30 4145 H 376.801 3.06197 -3.68483 0
M  V30 4146 H 375.165 1.70106 -1.89568 0
M  V30 4147 H 375.948 0.840485 -3.32852 0
M  V30 4148 N 378.394 1.34581 0.820102 0
M  V30 4149 C 379.342 1.26401 1.95258 0
M  V30 4150 C 380.336 0.161553 1.68628 0
M  V30 4151 O 381.542 0.326703 1.7701 0
M  V30 4152 H 377.917 0.392749 0.64129 0
M  V30 4153 H 379.888 2.22105 1.99279 0
M  V30 4154 C 378.637 1.03919 3.31807 0
M  V30 4155 H 377.96 1.87984 3.52848 0
M  V30 4156 H 379.4 1.02232 4.11491 0
M  V30 4157 C 377.859 -0.257433 3.35915 0
M  V30 4158 O 378.389 -1.25784 3.81499 0
M  V30 4159 N 376.595 -0.291524 2.89134 0
M  V30 4160 H 376.142 0.523161 2.52232 0
M  V30 4161 H 376.1 -1.15883 2.92264 0
M  V30 4162 N 379.872 -1.04064 1.18357 0
M  V30 4163 C 380.819 -2.12077 0.910603 0
M  V30 4164 C 381.789 -1.65421 -0.15 0
M  V30 4165 O 382.974 -1.90797 -0.0103614 0
M  V30 4166 C 380.114 -3.42252 0.442472 0
M  V30 4167 C 379.227 -4.0252 1.5685 0
M  V30 4168 C 378.362 -5.20657 1.05309 0
M  V30 4169 C 377.401 -5.72955 2.1538 0
M  V30 4170 N 376.538 -6.8238 1.65233 0
M  V30 4171 H 381.378 -2.34764 1.83548 0
M  V30 4172 H 378.915 -1.15157 0.915279 0
M  V30 4173 H 380.873 -4.16921 0.152534 0
M  V30 4174 H 379.503 -3.19712 -0.445428 0
M  V30 4175 H 378.555 -3.25178 1.97391 0
M  V30 4176 H 379.867 -4.37362 2.39824 0
M  V30 4177 H 379.021 -6.0244 0.717677 0
M  V30 4178 H 377.76 -4.87318 0.19293 0
M  V30 4179 H 376.765 -4.89793 2.49766 0
M  V30 4180 H 377.99 -6.08337 3.01832 0
M  V30 4181 H 375.936 -6.50917 0.815064 0
M  V30 4182 H 375.853 -7.16286 2.41805 0
M  V30 4183 H 377.121 -7.67788 1.34619 0
M  V30 4184 N 381.35 -0.985608 -1.22978 0
M  V30 4185 C 382.596 -0.667998 -1.92118 0
M  V30 4186 C 382.951 0.790454 -1.75413 0
M  V30 4187 O 382.244 1.56336 -1.10768 0
M  V30 4188 C 382.438 -1.00014 -3.43121 0
M  V30 4189 C 382.267 -2.48933 -3.74516 0
M  V30 4190 C 381.037 -3.15218 -3.94925 0
M  V30 4191 C 383.235 -3.47024 -3.79577 0
M  V30 4192 N 381.217 -4.53689 -4.13569 0
M  V30 4193 C 382.588 -4.70923 -4.03276 0
M  V30 4194 C 384.643 -3.41432 -3.62393 0
M  V30 4195 C 383.346 -5.89914 -4.11574 0
M  V30 4196 C 385.372 -4.59793 -3.71947 0
M  V30 4197 C 384.734 -5.82489 -3.96088 0
M  V30 4198 H 380.833 -0.295589 -0.723983 0
M  V30 4199 H 383.417 -1.26413 -1.4808 0
M  V30 4200 H 381.588 -0.432655 -3.85983 0
M  V30 4201 H 383.32 -0.63927 -3.99619 0
M  V30 4202 H 380.075 -2.65702 -3.92045 0
M  V30 4203 H 380.499 -5.25492 -4.26834 0
M  V30 4204 H 385.141 -2.47594 -3.4272 0
M  V30 4205 H 382.859 -6.84164 -4.30053 0
M  V30 4206 H 386.445 -4.57048 -3.59998 0
M  V30 4207 H 385.325 -6.72546 -4.033 0
M  V30 4208 N 382.828 1.3818 -0.7579 0
M  V30 4209 C 383.775 2.30416 -0.133057 0
M  V30 4210 C 384.745 1.50398 0.704957 0
M  V30 4211 O 385.93 1.79014 0.660192 0
M  V30 4212 C 383.07 3.36834 0.750813 0
M  V30 4213 C 382.183 4.31879 -0.102297 0
M  V30 4214 C 381.318 5.25368 0.784979 0
M  V30 4215 C 380.357 6.12058 -0.0715046 0
M  V30 4216 N 379.494 6.97832 0.772972 0
M  V30 4217 H 384.334 2.83274 -0.925186 0
M  V30 4218 H 381.871 1.39461 -0.467866 0
M  V30 4219 H 383.829 3.97145 1.27794 0
M  V30 4220 H 382.459 2.85374 1.50868 0
M  V30 4221 H 381.511 3.72991 -0.747095 0
M  V30 4222 H 382.823 4.92921 -0.763552 0
M  V30 4223 H 381.977 5.90818 1.37911 0
M  V30 4224 H 380.716 4.64703 1.47996 0
M  V30 4225 H 379.721 5.456 -0.678272 0
M  V30 4226 H 380.946 6.74793 -0.763606 0
M  V30 4227 H 378.892 6.3971 1.45282 0
M  V30 4228 H 378.809 7.55812 0.168709 0
M  V30 4229 H 380.077 7.67687 1.35194 0
M  V30 4230 N 384.306 0.507319 1.49211 0
M  V30 4231 C 385.553 -0.0349529 2.0247 0
M  V30 4232 C 385.881 -1.36409 1.38647 0
M  V30 4233 O 385.136 -1.88841 0.513566 0
M  V30 4234 C 385.435 -0.229513 3.56662 0
M  V30 4235 C 385.101 1.02241 4.39156 0
M  V30 4236 C 383.763 1.36557 4.61417 0
M  V30 4237 C 386.115 1.85428 4.871 0
M  V30 4238 C 383.443 2.53999 5.28868 0
M  V30 4239 C 385.795 3.02028 5.55843 0
M  V30 4240 C 384.459 3.36717 5.76349 0
M  V30 4241 H 383.729 -0.0127902 0.74089 0
M  V30 4242 H 386.376 0.668756 1.79443 0
M  V30 4243 H 384.681 -1.0158 3.78403 0
M  V30 4244 H 386.378 -0.663641 3.9547 0
M  V30 4245 H 382.968 0.745124 4.22073 0
M  V30 4246 H 387.152 1.6023 4.69723 0
M  V30 4247 H 382.408 2.81105 5.42946 0
M  V30 4248 H 386.582 3.66808 5.91967 0
M  V30 4249 H 384.209 4.27821 6.28389 0
M  V30 4250 N 385.784 -1.5574 0.241426 0
M  V30 4251 C 387.031 -1.9881 -0.384836 0
M  V30 4252 C 387.359 -1.12947 -1.58346 0
M  V30 4253 O 386.614 -0.178993 -1.9488 0
M  V30 4254 C 386.913 -3.47308 -0.843317 0
M  V30 4255 C 386.579 -4.50223 0.246946 0
M  V30 4256 C 385.241 -4.78088 0.546399 0
M  V30 4257 C 387.593 -5.11841 0.983282 0
M  V30 4258 C 384.921 -5.64846 1.58636 0
M  V30 4259 C 387.273 -5.99727 2.01272 0
M  V30 4260 C 385.937 -6.25927 2.31888 0
M  V30 4261 H 385.207 -0.727496 -0.140821 0
M  V30 4262 H 387.854 -1.8831 0.348106 0
M  V30 4263 H 386.159 -3.55112 -1.65537 0
M  V30 4264 H 387.856 -3.78017 -1.33806 0
M  V30 4265 H 384.446 -4.286 0.00340639 0
M  V30 4266 H 388.63 -4.90366 0.765182 0
M  V30 4267 H 383.886 -5.83403 1.82896 0
M  V30 4268 H 388.06 -6.46517 2.58823 0
M  V30 4269 H 385.687 -6.92949 3.12611 0
M  V30 4270 N 387.262 0.0317525 -1.57568 0
M  V30 4271 C 388.209 1.0332 -2.06382 0
M  V30 4272 C 389.179 1.36082 -0.952414 0
M  V30 4273 O 390.364 1.46466 -1.2228 0
M  V30 4274 C 387.504 2.32989 -2.54578 0
M  V30 4275 C 386.617 2.0641 -3.79498 0
M  V30 4276 C 385.752 3.2993 -4.16317 0
M  V30 4277 C 384.791 2.98893 -5.34162 0
M  V30 4278 N 383.928 4.14857 -5.66426 0
M  V30 4279 H 388.768 0.609982 -2.9169 0
M  V30 4280 H 386.305 0.289573 -1.44222 0
M  V30 4281 H 388.263 3.0875 -2.80587 0
M  V30 4282 H 386.893 2.73039 -1.7219 0
M  V30 4283 H 385.945 1.21158 -3.6059 0
M  V30 4284 H 387.257 1.79513 -4.65378 0
M  V30 4285 H 386.411 4.1406 -4.4344 0
M  V30 4286 H 385.15 3.59938 -3.29083 0
M  V30 4287 H 384.155 2.13164 -5.06795 0
M  V30 4288 H 385.38 2.70165 -6.23047 0
M  V30 4289 H 383.326 4.44821 -4.82151 0
M  V30 4290 H 383.243 3.91374 -6.4681 0
M  V30 4291 H 384.511 4.99868 -5.98124 0
M  V30 4292 N 388.74 1.54641 0.303973 0
M  V30 4293 C 389.988 1.73437 1.0375 0
M  V30 4294 C 390.309 0.521449 1.87899 0
M  V30 4295 O 389.579 -0.46432 1.90318 0
M  V30 4296 H 388.159 0.639518 0.386039 0
M  V30 4297 H 390.821 1.91988 0.335675 0
M  V30 4298 H 389.917 2.62235 1.69231 0
M  V30 4299 N 390.218 -0.567019 1.47046 0
M  V30 4300 C 391.629 -1.14916 1.47143 0
M  V30 4301 C 391.98 -1.94954 0.220767 0
M  V30 4302 O 391.105 -2.05602 -0.67505 0
M  V30 4303 C 391.7 -2.09069 2.666 0
M  V30 4304 C 390.259 -2.62575 2.69687 0
M  V30 4305 C 389.406 -1.38755 2.40088 0
M  V30 4306 H 392.357 -0.354126 1.54699 0
M  V30 4307 H 392.378 -2.92789 2.43011 0
M  V30 4308 H 391.89 -1.50789 3.57609 0
M  V30 4309 H 389.991 -3.24681 1.82792 0
M  V30 4310 H 390.104 -3.04239 3.70102 0
M  V30 4311 H 388.468 -1.69098 1.90468 0
M  V30 4312 H 389.251 -0.822822 3.33293 0
M  V30 4313 N 391.696 -1.35014 -0.812953 0
M  V30 4314 C 392.626 -1.30069 -1.93919 0
M  V30 4315 C 393.607 -0.176275 -1.69184 0
M  V30 4316 O 394.792 -0.370227 -1.90638 0
M  V30 4317 C 391.922 -1.06547 -3.30552 0
M  V30 4318 C 390.876 -2.15561 -3.69753 0
M  V30 4319 C 390.202 -1.77214 -5.04479 0
M  V30 4320 C 391.502 -3.57476 -3.808 0
M  V30 4321 H 393.196 -2.24303 -1.98314 0
M  V30 4322 H 390.742 -1.07977 -0.952736 0
M  V30 4323 H 392.695 -1.01729 -4.08937 0
M  V30 4324 H 391.419 -0.0875719 -3.26483 0
M  V30 4325 H 390.078 -2.19466 -2.9365 0
M  V30 4326 H 389.726 -0.780589 -4.96906 0
M  V30 4327 H 389.426 -2.50184 -5.31678 0
M  V30 4328 H 390.95 -1.7391 -5.8531 0
M  V30 4329 H 392.364 -3.55929 -4.4943 0
M  V30 4330 H 390.761 -4.29152 -4.19462 0
M  V30 4331 H 391.831 -3.94091 -2.82525 0
M  V30 4332 N 393.175 1.03435 -1.18907 0
M  V30 4333 C 394.123 2.13703 -0.918353 0
M  V30 4334 C 395.117 1.68947 0.123767 0
M  V30 4335 O 396.323 1.79983 -0.0249701 0
M  V30 4336 H 392.698 0.698112 -0.279542 0
M  V30 4337 H 394.669 2.33731 -1.85506 0
M  V30 4338 C 393.418 3.44542 -0.467532 0
M  V30 4339 H 392.741 3.79394 -1.26095 0
M  V30 4340 H 394.181 4.22812 -0.317164 0
M  V30 4341 C 392.64 3.26829 0.817588 0
M  V30 4342 O 393.17 3.54975 1.88031 0
M  V30 4343 N 391.376 2.80139 0.772677 0
M  V30 4344 H 390.923 2.57434 -0.0923883 0
M  V30 4345 H 390.881 2.68668 1.63294 0
M  V30 4346 N 394.653 0.992116 1.22453 0
M  V30 4347 C 395.899 0.668523 1.91464 0
M  V30 4348 C 396.232 -0.797313 1.77078 0
M  V30 4349 O 395.507 -1.5765 1.13916 0
M  V30 4350 C 395.79 1.07424 3.43703 0
M  V30 4351 C 395.643 2.59857 3.67143 0
M  V30 4352 C 396.962 0.626891 4.35612 0
M  V30 4353 H 394.081 0.244341 0.695318 0
M  V30 4354 H 396.723 1.2355 1.44345 0
M  V30 4355 H 394.873 0.591816 3.83966 0
M  V30 4356 H 396.545 3.15764 3.3629 0
M  V30 4357 H 394.788 3.01961 3.11451 0
M  V30 4358 H 395.459 2.83296 4.73759 0
M  V30 4359 H 397.935 1.04125 4.02861 0
M  V30 4360 H 396.811 0.939076 5.40807 0
M  V30 4361 H 397.072 -0.472457 4.39568 0
M  V30 4362 N 396.131 -1.37776 0.765217 0
M  V30 4363 C 397.38 -1.99092 0.323307 0
M  V30 4364 C 397.693 -1.61434 -1.10446 0
M  V30 4365 O 398.899 -2.15805 -1.64743 0
M  V30 4366 C 397.355 -3.56019 0.527098 0
M  V30 4367 C 396.963 -4.0262 1.96471 0
M  V30 4368 C 398.707 -4.2424 0.148483 0
M  V30 4369 C 396.614 -5.52233 2.11644 0
M  V30 4370 H 395.544 -0.744846 0.117137 0
M  V30 4371 H 398.195 -1.57391 0.943417 0
M  V30 4372 H 396.577 -3.95667 -0.162372 0
M  V30 4373 H 397.751 -3.74234 2.68859 0
M  V30 4374 H 396.066 -3.47161 2.29931 0
M  V30 4375 H 398.663 -5.34159 0.240456 0
M  V30 4376 H 399.006 -4.06446 -0.900422 0
M  V30 4377 H 399.539 -3.89872 0.79025 0
M  V30 4378 H 396.278 -5.74945 3.1483 0
M  V30 4379 H 395.798 -5.82324 1.4373 0
M  V30 4380 H 397.477 -6.18106 1.91193 0
M  V30 4381 N 397.609 -0.515225 -1.4894 0
M  V30 4382 C 398.886 0.0879088 -1.95402 0
M  V30 4383 C 399.266 1.52745 -1.45712 0
M  V30 4384 O 398.614 2.18238 -0.677093 0
M  V30 4385 C 398.824 -0.0141055 -3.48997 0
M  V30 4386 C 400.172 0.152646 -4.24326 0
M  V30 4387 O 401.196 0.0604025 -3.56149 0
M  V30 4388 O 400.055 0.34384 -5.45417 0
M  V30 4389 H 397.149 0.0874636 -0.822362 0
M  V30 4390 H 399.695 -0.578775 -1.59525 0
M  V30 4391 H 398.467 -1.01745 -3.77841 0
M  V30 4392 H 398.09 0.692091 -3.9153 0
M  V30 4393 N 399.087 1.5561 -0.249682 0
M  V30 4394 C 400.017 2.24477 0.642826 0
M  V30 4395 C 400.998 1.22601 1.17911 0
M  V30 4396 O 402.183 1.5126 1.21795 0
M  V30 4397 C 399.313 2.94638 1.83863 0
M  V30 4398 C 398.267 4.03227 1.435 0
M  V30 4399 C 397.593 4.60828 2.71186 0
M  V30 4400 C 398.893 5.18796 0.604002 0
M  V30 4401 H 400.587 2.99321 0.0685625 0
M  V30 4402 H 398.133 1.43965 0.0315363 0
M  V30 4403 H 400.086 3.41517 2.46868 0
M  V30 4404 H 398.81 2.17287 2.43832 0
M  V30 4405 H 397.469 3.57121 0.828275 0
M  V30 4406 H 397.117 3.80174 3.29358 0
M  V30 4407 H 396.817 5.34132 2.44901 0
M  V30 4408 H 398.341 5.10442 3.35084 0
M  V30 4409 H 399.755 5.61883 1.13842 0
M  V30 4410 H 398.152 5.98506 0.437097 0
M  V30 4411 H 399.222 4.83384 -0.383147 0
M  V30 4412 N 400.565 -0.0233959 1.57583 0
M  V30 4413 C 401.495 -1.02162 2.09965 0
M  V30 4414 C 402.476 -1.3735 1.00344 0
M  V30 4415 O 403.661 -1.46135 1.27899 0
M  V30 4416 C 400.791 -2.32081 2.58371 0
M  V30 4417 C 399.745 -2.1112 3.72307 0
M  V30 4418 C 399.071 -3.46848 4.06941 0
M  V30 4419 C 400.371 -1.49276 5.00514 0
M  V30 4420 H 402.065 -0.585557 2.93618 0
M  V30 4421 H 399.611 -0.280218 1.41247 0
M  V30 4422 H 401.564 -3.02249 2.93639 0
M  V30 4423 H 400.288 -2.77758 1.71808 0
M  V30 4424 H 398.947 -1.43384 3.37397 0
M  V30 4425 H 398.595 -3.90184 3.17436 0
M  V30 4426 H 398.295 -3.33646 4.83688 0
M  V30 4427 H 399.819 -4.18369 4.44747 0
M  V30 4428 H 401.233 -2.09368 5.33702 0
M  V30 4429 H 399.63 -1.46632 5.8191 0
M  V30 4430 H 400.7 -0.459217 4.82721 0
M  V30 4431 N 402.043 -1.548 -0.295768 0
M  V30 4432 C 403.006 -1.85363 -1.34808 0
M  V30 4433 C 404.006 -0.726817 -1.43436 0
M  V30 4434 O 405.196 -0.995088 -1.42981 0
M  V30 4435 C 402.328 -2.03859 -2.73229 0
M  V30 4436 H 403.521 -2.7941 -1.08949 0
M  V30 4437 H 401.074 -1.46942 -0.532702 0
M  V30 4438 H 401.809 -1.12117 -3.04303 0
M  V30 4439 H 401.594 -2.8588 -2.68356 0
M  V30 4440 H 403.084 -2.28857 -3.49305 0
M  V30 4441 N 403.521 0.559213 -1.47345 0
M  V30 4442 C 404.77 1.31281 -1.53128 0
M  V30 4443 C 405.083 1.94602 -0.197344 0
M  V30 4444 O 406.289 2.71173 -0.133154 0
M  V30 4445 C 404.745 2.38051 -2.69925 0
M  V30 4446 C 404.353 1.8093 -4.0984 0
M  V30 4447 C 406.097 3.14604 -2.84999 0
M  V30 4448 C 404.004 2.85468 -5.1794 0
M  V30 4449 H 402.934 0.493614 -0.569966 0
M  V30 4450 H 405.585 0.594155 -1.73615 0
M  V30 4451 H 403.967 3.12822 -2.42814 0
M  V30 4452 H 405.141 1.12544 -4.46845 0
M  V30 4453 H 403.456 1.16967 -3.99634 0
M  V30 4454 H 406.053 3.92666 -3.62929 0
M  V30 4455 H 406.396 3.68665 -1.93369 0
M  V30 4456 H 406.929 2.46945 -3.1187 0
M  V30 4457 H 403.668 2.36264 -6.1144 0
M  V30 4458 H 403.188 3.52269 -4.85455 0
M  V30 4459 H 404.867 3.48996 -5.44803 0
M  V30 4460 N 404.999 1.35443 0.805782 0
M  V30 4461 C 405.929 1.31095 1.93226 0
M  V30 4462 C 406.91 0.185244 1.69088 0
M  V30 4463 O 408.095 0.380332 1.90439 0
M  V30 4464 C 405.225 1.08299 3.29983 0
M  V30 4465 C 404.179 2.17519 3.68605 0
M  V30 4466 C 403.505 1.79887 5.03532 0
M  V30 4467 C 404.805 3.5949 3.78898 0
M  V30 4468 H 406.499 2.25352 1.97122 0
M  V30 4469 H 404.045 1.0848 0.946996 0
M  V30 4470 H 405.998 1.03897 4.08391 0
M  V30 4471 H 404.722 0.104885 3.26432 0
M  V30 4472 H 403.381 2.2102 2.92482 0
M  V30 4473 H 403.029 0.80693 4.96485 0
M  V30 4474 H 402.729 2.53001 5.30344 0
M  V30 4475 H 404.253 1.77011 5.84379 0
M  V30 4476 H 405.667 3.58307 4.47536 0
M  V30 4477 H 404.064 4.31371 4.1718 0
M  V30 4478 H 405.134 3.95584 2.80431 0
M  V30 4479 N 406.477 -1.02803 1.19454 0
M  V30 4480 C 407.888 -1.57667 0.999899 0
M  V30 4481 C 408.239 -1.91041 -0.446956 0
M  V30 4482 O 407.364 -1.70978 -1.32648 0
M  V30 4483 C 407.959 -2.86477 1.80877 0
M  V30 4484 C 406.518 -3.37911 1.65811 0
M  V30 4485 C 405.665 -2.11343 1.79526 0
M  V30 4486 H 408.616 -0.853214 1.33813 0
M  V30 4487 H 408.637 -3.57408 1.30536 0
M  V30 4488 H 408.149 -2.62155 2.86175 0
M  V30 4489 H 406.25 -3.67218 0.63102 0
M  V30 4490 H 406.363 -4.10885 2.46395 0
M  V30 4491 H 404.727 -2.23254 1.22596 0
M  V30 4492 H 405.51 -1.89461 2.86285 0
M  V30 4493 N 407.956 -0.998596 -1.21925 0
M  V30 4494 C 409.186 -0.695276 -1.94549 0
M  V30 4495 C 409.594 0.745079 -1.73911 0
M  V30 4496 O 408.937 1.51507 -1.03881 0
M  V30 4497 C 408.999 -0.928485 -3.47303 0
M  V30 4498 C 408.663 -2.35443 -3.91683 0
M  V30 4499 C 409.66 -3.33428 -3.98901 0
M  V30 4500 C 407.345 -2.69038 -4.24174 0
M  V30 4501 C 409.339 -4.63079 -4.37992 0
M  V30 4502 C 407.026 -3.98906 -4.62944 0
M  V30 4503 C 408.024 -4.95738 -4.69822 0
M  V30 4504 O 407.712 -6.23285 -5.07711 0
M  V30 4505 H 407.444 -0.255902 -0.625692 0
M  V30 4506 H 409.998 -1.33767 -1.5587 0
M  V30 4507 H 408.228 -0.228917 -3.86022 0
M  V30 4508 H 409.917 -0.619539 -4.01144 0
M  V30 4509 H 410.683 -3.08807 -3.73983 0
M  V30 4510 H 406.562 -1.94367 -4.18022 0
M  V30 4511 H 410.106 -5.38658 -4.43275 0
M  V30 4512 H 406.003 -4.23314 -4.87314 0
M  V30 4513 H 406.771 -6.27306 -5.25766 0
M  V30 4514 N 409.434 1.37368 -0.772513 0
M  V30 4515 C 410.664 2.03647 -0.348082 0
M  V30 4516 C 411.072 1.58392 1.03482 0
M  V30 4517 O 410.415 0.760921 1.672 0
M  V30 4518 C 410.477 3.58131 -0.313404 0
M  V30 4519 C 410.141 4.2652 -1.64102 0
M  V30 4520 C 411.138 4.50587 -2.5936 0
M  V30 4521 C 408.823 4.64335 -1.91567 0
M  V30 4522 C 410.817 5.11526 -3.80289 0
M  V30 4523 C 408.504 5.24996 -3.12766 0
M  V30 4524 C 409.502 5.48529 -4.06946 0
M  V30 4525 O 409.19 6.07921 -5.26011 0
M  V30 4526 H 408.922 0.660538 -0.143753 0
M  V30 4527 H 411.476 1.76669 -1.04772 0
M  V30 4528 H 409.706 3.84159 0.442617 0
M  V30 4529 H 411.395 4.05813 0.0840613 0
M  V30 4530 H 412.161 4.21784 -2.39423 0
M  V30 4531 H 408.04 4.45353 -1.19088 0
M  V30 4532 H 411.584 5.29811 -4.53813 0
M  V30 4533 H 407.481 5.53223 -3.32588 0
M  V30 4534 H 408.249 6.26398 -5.26847 0
M  V30 4535 N 410.912 0.523116 1.48665 0
M  V30 4536 C 412.158 -0.0134963 2.02796 0
M  V30 4537 C 412.491 -1.34582 1.40004 0
M  V30 4538 O 411.766 -1.86756 0.543381 0
M  V30 4539 C 412.049 -0.14276 3.59817 0
M  V30 4540 C 411.902 1.21425 4.331 0
M  V30 4541 C 413.221 -0.872856 4.31357 0
M  V30 4542 H 410.34 -0.00343074 0.736992 0
M  V30 4543 H 412.982 0.678816 1.7746 0
M  V30 4544 H 411.132 -0.732401 3.81534 0
M  V30 4545 H 412.804 1.84447 4.2282 0
M  V30 4546 H 411.047 1.79791 3.94788 0
M  V30 4547 H 411.718 1.07687 5.41394 0
M  V30 4548 H 414.194 -0.372555 4.14429 0
M  V30 4549 H 413.07 -0.932185 5.40927 0
M  V30 4550 H 413.331 -1.92161 3.98154 0
M  V30 4551 N 412.39 -1.55475 0.257931 0
M  V30 4552 C 413.618 -2.03609 -0.367559 0
M  V30 4553 C 414.033 -1.13687 -1.50734 0
M  V30 4554 O 413.39 -0.153479 -1.81853 0
M  V30 4555 C 413.441 -3.51001 -0.864908 0
M  V30 4556 O 413.162 -4.37499 0.229465 0
M  V30 4557 C 414.663 -4.14946 -1.55997 0
M  V30 4558 H 411.883 -0.665459 -0.0860521 0
M  V30 4559 H 414.427 -2.00843 0.385014 0
M  V30 4560 H 412.582 -3.54266 -1.56762 0
M  V30 4561 H 412.996 -5.24286 -0.14998 0
M  V30 4562 H 414.47 -5.19735 -1.85956 0
M  V30 4563 H 414.947 -3.6209 -2.4857 0
M  V30 4564 H 415.553 -4.15635 -0.901543 0
M  V30 4565 N 413.868 0.0150385 -1.57593 0
M  V30 4566 C 415.117 0.702115 -1.89085 0
M  V30 4567 C 415.43 1.75764 -0.858277 0
M  V30 4568 O 416.636 2.49829 -1.0629 0
M  V30 4569 C 415.092 1.29992 -3.35604 0
M  V30 4570 C 414.7 0.280007 -4.47124 0
M  V30 4571 C 416.444 1.96606 -3.76227 0
M  V30 4572 C 414.351 0.886949 -5.84711 0
M  V30 4573 H 413.281 0.265997 -0.705522 0
M  V30 4574 H 415.932 -0.0430408 -1.8345 0
M  V30 4575 H 414.314 2.09525 -3.36029 0
M  V30 4576 H 415.488 -0.489631 -4.58191 0
M  V30 4577 H 413.803 -0.284835 -4.15425 0
M  V30 4578 H 416.4 2.42893 -4.76347 0
M  V30 4579 H 416.743 2.79024 -3.08952 0
M  V30 4580 H 417.276 1.23828 -3.78036 0
M  V30 4581 H 414.015 0.101876 -6.55421 0
M  V30 4582 H 413.535 1.6261 -5.77337 0
M  V30 4583 H 415.214 1.39011 -6.3189 0
M  V30 4584 N 415.346 1.54954 0.287554 0
M  V30 4585 C 416.593 1.74873 1.02106 0
M  V30 4586 C 416.921 0.541829 1.86801 0
M  V30 4587 O 416.176 -0.475992 1.89823 0
M  V30 4588 C 416.475 2.99833 1.94512 0
M  V30 4589 C 416.141 4.33029 1.25686 0
M  V30 4590 C 414.803 4.69233 1.06649 0
M  V30 4591 C 417.155 5.15542 0.765913 0
M  V30 4592 C 414.483 5.85518 0.372222 0
M  V30 4593 C 416.835 6.32542 0.0853101 0
M  V30 4594 C 415.499 6.67398 -0.1169 0
M  V30 4595 H 414.769 0.639906 0.373632 0
M  V30 4596 H 417.416 1.89219 0.294665 0
M  V30 4597 H 415.721 2.80325 2.73725 0
M  V30 4598 H 417.418 3.1244 2.51361 0
M  V30 4599 H 414.008 4.04564 1.41512 0
M  V30 4600 H 418.192 4.88059 0.90066 0
M  V30 4601 H 413.448 6.11057 0.204695 0
M  V30 4602 H 417.622 6.95741 -0.302936 0
M  V30 4603 H 415.249 7.57357 -0.656859 0
M  V30 4604 N 416.824 -0.551391 1.4764 0
M  V30 4605 C 417.754 -1.66757 1.63445 0
M  V30 4606 C 418.735 -1.63077 0.483742 0
M  V30 4607 O 419.92 -1.80607 0.71377 0
M  V30 4608 C 417.05 -3.05387 1.65396 0
M  V30 4609 C 416.004 -3.23918 2.79752 0
M  V30 4610 C 415.33 -4.63393 2.66779 0
M  V30 4611 C 416.63 -3.08735 4.21284 0
M  V30 4612 H 418.324 -1.53786 2.56886 0
M  V30 4613 H 415.87 -0.738415 1.23626 0
M  V30 4614 H 417.823 -3.83325 1.75043 0
M  V30 4615 H 416.547 -3.19332 0.685195 0
M  V30 4616 H 415.206 -2.48391 2.69625 0
M  V30 4617 H 414.854 -4.74144 1.67918 0
M  V30 4618 H 414.554 -4.7674 3.43501 0
M  V30 4619 H 416.078 -5.43458 2.78364 0
M  V30 4620 H 417.492 -3.76484 4.32357 0
M  V30 4621 H 415.889 -3.33588 4.98838 0
M  V30 4622 H 416.959 -2.0541 4.39243 0
M  V30 4623 N 418.302 -1.35869 -0.798587 0
M  V30 4624 C 419.53 -1.32722 -1.58722 0
M  V30 4625 C 419.945 0.0935631 -1.88568 0
M  V30 4626 O 419.302 1.04784 -1.49421 0
M  V30 4627 C 419.353 -2.13974 -2.91371 0
M  V30 4628 O 419.074 -3.50514 -2.62815 0
M  V30 4629 C 420.575 -2.18504 -3.85708 0
M  V30 4630 H 417.795 -0.45562 -0.492596 0
M  V30 4631 H 420.339 -1.78837 -0.991843 0
M  V30 4632 H 418.494 -1.71438 -3.47402 0
M  V30 4633 H 418.908 -3.92806 -3.47568 0
M  V30 4634 H 420.382 -2.79732 -4.75872 0
M  V30 4635 H 420.859 -1.18597 -4.22885 0
M  V30 4636 H 421.465 -2.61236 -3.35612 0
M  V30 4637 N 419.78 1.02168 -1.19998 0
M  V30 4638 C 420.69 2.14069 -0.959774 0
M  V30 4639 C 421.706 1.73804 0.082655 0
M  V30 4640 O 422.882 2.01133 -0.103633 0
M  V30 4641 C 419.947 3.42936 -0.509459 0
M  V30 4642 C 419.008 3.97474 -1.62213 0
M  V30 4643 C 418.241 5.2019 -1.19321 0
M  V30 4644 O 418.464 5.70369 -0.0597726 0
M  V30 4645 O 417.398 5.67749 -1.99863 0
M  V30 4646 H 421.224 2.37199 -1.89658 0
M  V30 4647 H 418.809 1.12469 -0.983411 0
M  V30 4648 H 420.691 4.20551 -0.267322 0
M  V30 4649 H 419.366 3.21234 0.398821 0
M  V30 4650 H 418.273 3.21161 -1.9185 0
M  V30 4651 H 419.606 4.23555 -2.50723 0
M  V30 4652 N 421.258 1.00505 1.21394 0
M  V30 4653 C 422.483 0.706367 1.95001 0
M  V30 4654 C 422.908 -0.72463 1.73582 0
M  V30 4655 O 422.266 -1.49702 1.0227 0
M  V30 4656 C 422.314 1.03299 3.45487 0
M  V30 4657 O 421.418 0.138275 4.12168 0
M  V30 4658 H 420.759 0.263175 0.609619 0
M  V30 4659 H 423.289 1.34531 1.54151 0
M  V30 4660 H 423.299 0.979872 3.96059 0
M  V30 4661 H 421.974 2.07567 3.60401 0
M  V30 4662 H 420.551 0.247928 3.72075 0
M  V30 4663 N 422.737 -1.36956 0.779787 0
M  V30 4664 C 423.685 -2.32053 0.15942 0
M  V30 4665 C 424.679 -1.55333 -0.675878 0
M  V30 4666 O 425.885 -1.70668 -0.57204 0
M  V30 4667 H 422.26 -0.751286 0.0327707 0
M  V30 4668 H 424.231 -2.8195 0.977078 0
M  V30 4669 C 422.98 -3.40602 -0.698977 0
M  V30 4670 H 422.303 -3.99746 -0.0655966 0
M  V30 4671 H 423.743 -4.09486 -1.09989 0
M  V30 4672 C 422.202 -2.81359 -1.85307 0
M  V30 4673 O 422.732 -2.72751 -2.94906 0
M  V30 4674 N 420.938 -2.38786 -1.65619 0
M  V30 4675 H 420.485 -2.45987 -0.764725 0
M  V30 4676 H 420.443 -1.99493 -2.43002 0
M  V30 4677 N 424.215 -0.530993 -1.48385 0
M  V30 4678 C 425.162 0.231223 -2.29639 0
M  V30 4679 C 426.132 0.932864 -1.37429 0
M  V30 4680 O 427.317 0.933692 -1.66394 0
M  V30 4681 C 424.457 1.27155 -3.2082 0
M  V30 4682 C 423.57 0.578655 -4.28107 0
M  V30 4683 C 422.705 1.602 -5.06467 0
M  V30 4684 C 421.744 0.892625 -6.05556 0
M  V30 4685 N 420.881 1.86157 -6.76971 0
M  V30 4686 H 425.721 -0.467848 -2.94305 0
M  V30 4687 H 423.258 -0.242556 -1.45086 0
M  V30 4688 H 425.216 1.88703 -3.72085 0
M  V30 4689 H 423.846 1.939 -2.58075 0
M  V30 4690 H 422.898 -0.150782 -3.80101 0
M  V30 4691 H 424.21 0.0217065 -4.98795 0
M  V30 4692 H 423.364 2.29173 -5.61751 0
M  V30 4693 H 422.103 2.19285 -4.35621 0
M  V30 4694 H 421.108 0.188829 -5.49476 0
M  V30 4695 H 422.333 0.307878 -6.78402 0
M  V30 4696 H 420.279 2.44147 -6.08875 0
M  V30 4697 H 420.196 1.35608 -7.43738 0
M  V30 4698 H 421.464 2.54325 -7.36844 0
M  V30 4699 N 425.693 1.55336 -0.266172 0
M  V30 4700 C 426.918 2.04258 0.359661 0
M  V30 4701 C 427.343 1.14359 1.49344 0
M  V30 4702 O 426.701 0.140369 1.80756 0
M  V30 4703 C 426.749 3.50997 0.826635 0
M  V30 4704 O 425.853 3.64204 1.93466 0
M  V30 4705 H 425.194 0.659668 0.075727 0
M  V30 4706 H 427.724 2.00694 -0.39786 0
M  V30 4707 H 427.734 3.9219 1.12477 0
M  V30 4708 H 426.409 4.159 -0.00293032 0
M  V30 4709 H 424.986 3.34913 1.63974 0
M  V30 4710 N 427.171 -0.0066808 1.57599 0
M  V30 4711 C 428.417 -0.693947 1.90558 0
M  V30 4712 C 428.75 -1.73792 0.866594 0
M  V30 4713 O 428.025 -1.94156 -0.115548 0
M  V30 4714 C 428.308 -1.34317 3.34112 0
M  V30 4715 C 428.161 -0.311189 4.48722 0
M  V30 4716 C 429.48 -2.27116 3.7697 0
M  V30 4717 H 426.599 -0.250803 0.693013 0
M  V30 4718 H 429.241 0.043242 1.89951 0
M  V30 4719 H 427.391 -1.9715 3.3476 0
M  V30 4720 H 429.063 0.316944 4.6021 0
M  V30 4721 H 427.306 0.367253 4.32243 0
M  V30 4722 H 427.977 -0.804366 5.46108 0
M  V30 4723 H 430.453 -1.74306 3.77831 0
M  V30 4724 H 429.329 -2.69511 4.78179 0
M  V30 4725 H 429.59 -3.14743 3.10466 0
M  V30 4726 N 428.649 -1.55105 -0.279332 0
M  V30 4727 C 429.579 -1.90557 -1.34945 0
M  V30 4728 C 430.56 -0.766738 -1.51839 0
M  V30 4729 O 431.745 -1.02434 -1.64988 0
M  V30 4730 C 428.875 -2.17193 -2.71006 0
M  V30 4731 C 427.829 -3.33021 -2.68851 0
M  V30 4732 C 427.155 -3.45123 -4.08405 0
M  V30 4733 C 428.455 -4.69578 -2.28678 0
M  V30 4734 H 430.149 -2.80188 -1.05522 0
M  V30 4735 H 427.695 -1.34811 -0.506173 0
M  V30 4736 H 429.648 -2.40581 -3.45975 0
M  V30 4737 H 428.372 -1.24355 -3.01999 0
M  V30 4738 H 427.031 -3.0959 -1.9634 0
M  V30 4739 H 426.679 -2.49762 -4.3661 0
M  V30 4740 H 426.379 -4.22995 -4.07859 0
M  V30 4741 H 427.903 -3.70796 -4.85121 0
M  V30 4742 H 429.317 -4.92553 -2.93368 0
M  V30 4743 H 427.714 -5.5032 -2.39306 0
M  V30 4744 H 428.784 -4.68828 -1.23807 0
M  V30 4745 N 430.127 0.543554 -1.4793 0
M  V30 4746 C 431.059 1.665 -1.57513 0
M  V30 4747 C 432.072 1.56156 -0.460333 0
M  V30 4748 O 433.261 1.62865 -0.730573 0
M  V30 4749 C 430.361 3.05063 -1.47614 0
M  V30 4750 C 429.534 3.41024 -2.739 0
M  V30 4751 C 428.593 4.58809 -2.57645 0
M  V30 4752 O 427.619 4.62707 -3.31498 0
M  V30 4753 N 428.821 5.56149 -1.66368 0
M  V30 4754 H 431.586 1.5872 -2.5422 0
M  V30 4755 H 429.147 0.730517 -1.44482 0
M  V30 4756 H 431.139 3.81712 -1.34455 0
M  V30 4757 H 429.709 3.06994 -0.589359 0
M  V30 4758 H 428.929 2.53687 -3.01723 0
M  V30 4759 H 430.217 3.61831 -3.57709 0
M  V30 4760 H 429.615 5.55767 -1.05543 0
M  V30 4761 H 428.172 6.32071 -1.59154 0
M  V30 4762 N 431.605 1.3629 0.791371 0
M  V30 4763 C 432.852 1.30412 1.54916 0
M  V30 4764 C 433.18 -0.117162 1.94147 0
M  V30 4765 O 432.435 -1.08599 1.62803 0
M  V30 4766 C 432.734 2.17068 2.8393 0
M  V30 4767 C 432.4 3.65645 2.63846 0
M  V30 4768 C 431.062 4.0614 2.58077 0
M  V30 4769 C 433.414 4.59855 2.45322 0
M  V30 4770 C 430.742 5.3899 2.31748 0
M  V30 4771 C 433.094 5.9292 2.2052 0
M  V30 4772 C 431.758 6.32542 2.13183 0
M  V30 4773 H 431.028 0.47721 0.566879 0
M  V30 4774 H 433.675 1.68325 0.913172 0
M  V30 4775 H 431.98 1.72085 3.51986 0
M  V30 4776 H 433.677 2.09846 3.4171 0
M  V30 4777 H 430.267 3.33518 2.69191 0
M  V30 4778 H 434.451 4.29443 2.48782 0
M  V30 4779 H 429.707 5.68672 2.24548 0
M  V30 4780 H 433.881 6.65487 2.05182 0
M  V30 4781 H 431.508 7.35412 1.92544 0
M  V30 4782 N 433.083 -1.0153 1.20538 0
M  V30 4783 C 434.015 -2.10224 0.913155 0
M  V30 4784 C 435.028 -1.62495 -0.0995998 0
M  V30 4785 O 436.217 -1.78014 0.131582 0
M  V30 4786 C 433.317 -3.37111 0.347717 0
M  V30 4787 C 432.49 -4.13971 1.41233 0
M  V30 4788 C 431.549 -5.19158 0.857976 0
M  V30 4789 O 430.575 -5.48 1.53897 0
M  V30 4790 N 431.777 -5.7955 -0.331966 0
M  V30 4791 H 434.542 -2.35879 1.84881 0
M  V30 4792 H 432.103 -1.17931 1.10923 0
M  V30 4793 H 434.095 -4.04683 -0.0373026 0
M  V30 4794 H 432.665 -3.08696 -0.492527 0
M  V30 4795 H 431.885 -3.41351 1.97163 0
M  V30 4796 H 433.173 -4.62103 2.12928 0
M  V30 4797 H 432.571 -5.58455 -0.902478 0
M  V30 4798 H 431.128 -6.48464 -0.65861 0
M  V30 4799 N 434.561 -1.01147 -1.20859 0
M  V30 4800 C 435.509 -0.57059 -2.25493 0
M  V30 4801 C 436.503 0.388109 -1.64894 0
M  V30 4802 O 437.709 0.258592 -1.78133 0
M  V30 4803 H 434.084 -0.166191 -0.733406 0
M  V30 4804 H 436.055 -1.46411 -2.60012 0
M  V30 4805 C 434.804 0.0805241 -3.47607 0
M  V30 4806 H 434.127 -0.648156 -3.94511 0
M  V30 4807 H 435.567 0.352197 -4.22535 0
M  V30 4808 C 434.026 1.32175 -3.09889 0
M  V30 4809 O 434.556 2.41553 -3.20959 0
M  V30 4810 N 432.762 1.20392 -2.64488 0
M  V30 4811 H 432.309 0.313905 -2.5568 0
M  V30 4812 H 432.267 2.03541 -2.39621 0
M  V30 4813 N 436.039 1.36541 -0.78704 0
M  V30 4814 C 437.285 1.99599 -0.358872 0
M  V30 4815 C 437.618 1.62323 1.06606 0
M  V30 4816 O 436.893 0.876858 1.73613 0
M  V30 4817 C 437.176 3.56327 -0.519944 0
M  V30 4818 C 437.029 4.03464 -1.98839 0
M  V30 4819 C 438.348 4.4005 0.0664737 0
M  V30 4820 H 435.467 0.725107 -0.131869 0
M  V30 4821 H 438.109 1.6199 -0.992936 0
M  V30 4822 H 436.259 3.88495 0.0198321 0
M  V30 4823 H 437.931 3.81793 -2.58905 0
M  V30 4824 H 436.174 3.55092 -2.49183 0
M  V30 4825 H 436.845 5.12439 -2.05207 0
M  V30 4826 H 439.321 4.14228 -0.394267 0
M  V30 4827 H 438.197 5.48847 -0.0762682 0
M  V30 4828 H 438.458 4.26655 1.15835 0
M  V30 4829 N 437.518 0.538854 1.48102 0
M  V30 4830 C 438.934 0.19732 1.58376 0
M  V30 4831 C 439.134 -1.29971 1.5398 0
M  V30 4832 O 438.19 -2.07861 1.43352 0
M  V30 4833 C 439.503 0.807716 2.89649 0
M  V30 4834 C 441.051 0.77726 3.03196 0
M  V30 4835 C 441.526 1.36639 4.37143 0
M  V30 4836 N 443.017 1.32875 4.43732 0
M  V30 4837 C 443.752 1.7544 5.45901 0
M  V30 4838 N 443.248 2.25776 6.54979 0
M  V30 4839 N 445.041 1.66623 5.36836 0
M  V30 4840 H 437.192 1.5117 1.49202 0
M  V30 4841 H 439.455 0.629327 0.708979 0
M  V30 4842 H 439.161 1.85909 2.98548 0
M  V30 4843 H 439.035 0.289975 3.76084 0
M  V30 4844 H 441.422 -0.265374 2.93904 0
M  V30 4845 H 441.503 1.33256 2.18349 0
M  V30 4846 H 441.147 2.408 4.47189 0
M  V30 4847 H 441.077 0.786689 5.20691 0
M  V30 4848 H 443.568 0.96037 3.65493 0
M  V30 4849 H 443.881 2.56226 7.29087 0
M  V30 4850 H 442.226 2.29775 6.55918 0
M  V30 4851 H 445.417 1.27089 4.50517 0
M  V30 4852 H 445.59 2.00115 6.16326 0
M  V30 4853 N 438.996 -1.55193 0.274407 0
M  V30 4854 C 440.412 -1.59401 -0.0797543 0
M  V30 4855 C 440.612 -1.29162 -1.54659 0
M  V30 4856 O 439.668 -1.05215 -2.29534 0
M  V30 4857 C 440.981 -2.99257 0.294238 0
M  V30 4858 C 442.529 -3.12072 0.240796 0
M  V30 4859 C 443.004 -4.54194 0.589218 0
M  V30 4860 N 444.495 -4.60033 0.540744 0
M  V30 4861 C 445.23 -5.68027 0.783147 0
M  V30 4862 N 444.726 -6.8417 1.09013 0
M  V30 4863 N 446.519 -5.57572 0.711993 0
M  V30 4864 H 438.67 -1.73113 1.23067 0
M  V30 4865 H 440.933 -0.807197 0.497129 0
M  V30 4866 H 440.639 -3.26217 1.31435 0
M  V30 4867 H 440.513 -3.75427 -0.365281 0
M  V30 4868 H 442.9 -2.84877 -0.770024 0
M  V30 4869 H 442.981 -2.38117 0.934563 0
M  V30 4870 H 442.625 -4.82115 1.59772 0
M  V30 4871 H 442.555 -5.26448 -0.126331 0
M  V30 4872 H 445.046 -3.76599 0.313327 0
M  V30 4873 H 445.359 -7.6243 1.26178 0
M  V30 4874 H 443.704 -6.85787 1.12789 0
M  V30 4875 H 446.895 -4.65714 0.472014 0
M  V30 4876 H 447.068 -6.41659 0.90429 0
M  V30 4877 N 440.474 -0.00167713 -1.576 0
M  V30 4878 C 441.72 0.683832 -1.90923 0
M  V30 4879 C 442.053 1.7333 -0.875799 0
M  V30 4880 O 441.328 1.94215 0.10525 0
M  V30 4881 C 441.611 1.32543 -3.3482 0
M  V30 4882 C 441.464 0.287387 -4.48881 0
M  V30 4883 C 442.783 2.25114 -3.78169 0
M  V30 4884 H 439.902 0.247125 -0.694333 0
M  V30 4885 H 442.544 -0.0533149 -1.89925 0
M  V30 4886 H 440.694 1.95372 -3.35801 0
M  V30 4887 H 442.366 -0.341346 -4.60035 0
M  V30 4888 H 440.609 -0.39017 -4.32042 0
M  V30 4889 H 441.28 0.775393 -5.46527 0
M  V30 4890 H 443.756 1.723 -3.7875 0
M  V30 4891 H 442.632 2.66971 -4.79602 0
M  V30 4892 H 442.893 3.13092 -3.12131 0
M  V30 4893 N 441.952 1.55251 0.271103 0
M  V30 4894 C 443.198 1.76207 1.00394 0
M  V30 4895 C 443.531 0.562604 1.85872 0
M  V30 4896 O 442.806 -0.439785 1.89463 0
M  V30 4897 C 443.089 3.06828 1.8849 0
M  V30 4898 C 442.942 4.37134 1.05992 0
M  V30 4899 C 444.261 3.33503 2.87165 0
M  V30 4900 H 441.38 0.641086 0.363562 0
M  V30 4901 H 444.022 1.87982 0.276189 0
M  V30 4902 H 442.172 2.96921 2.5054 0
M  V30 4903 H 443.844 4.59001 0.459978 0
M  V30 4904 H 442.087 4.32275 0.363443 0
M  V30 4905 H 442.758 5.2486 1.70955 0
M  V30 4906 H 445.234 3.43215 2.3525 0
M  V30 4907 H 444.11 4.2616 3.45946 0
M  V30 4908 H 444.371 2.53235 3.62387 0
M  V30 4909 N 443.43 -0.535701 1.48216 0
M  V30 4910 C 444.362 -1.65662 1.58394 0
M  V30 4911 C 445.375 -1.5591 0.468607 0
M  V30 4912 O 446.564 -1.62475 0.7392 0
M  V30 4913 C 443.664 -3.04276 1.4923 0
M  V30 4914 C 442.837 -3.39567 2.75705 0
M  V30 4915 C 441.896 -4.57436 2.60075 0
M  V30 4916 O 440.922 -4.60942 3.33948 0
M  V30 4917 N 442.124 -5.55259 1.69315 0
M  V30 4918 H 444.889 -1.5737 2.55058 0
M  V30 4919 H 442.45 -0.722845 1.44867 0
M  V30 4920 H 444.442 -3.80994 1.36477 0
M  V30 4921 H 443.012 -3.06677 0.605632 0
M  V30 4922 H 442.232 -2.52083 3.03064 0
M  V30 4923 H 443.52 -3.59929 3.59623 0
M  V30 4924 H 442.918 -5.552 1.08489 0
M  V30 4925 H 441.475 -6.31218 1.62504 0
M  V30 4926 N 444.908 -1.36708 -0.784132 0
M  V30 4927 C 446.157 -1.30559 -1.53744 0
M  V30 4928 C 446.47 0.111374 -1.95283 0
M  V30 4929 O 447.676 0.29527 -2.6989 0
M  V30 4930 C 446.132 -2.29098 -2.77565 0
M  V30 4931 C 445.74 -3.76258 -2.43174 0
M  V30 4932 C 447.484 -2.31936 -3.55536 0
M  V30 4933 C 445.391 -4.6656 -3.63422 0
M  V30 4934 H 444.321 -0.48518 -0.577162 0
M  V30 4935 H 446.972 -1.62101 -0.859981 0
M  V30 4936 H 445.354 -1.90557 -3.47137 0
M  V30 4937 H 446.528 -4.23565 -1.81465 0
M  V30 4938 H 444.843 -3.76246 -1.78403 0
M  V30 4939 H 447.44 -2.9661 -4.44889 0
M  V30 4940 H 447.783 -1.3294 -3.94503 0
M  V30 4941 H 448.316 -2.6912 -2.92949 0
M  V30 4942 H 445.055 -5.66638 -3.29547 0
M  V30 4943 H 444.575 -4.23966 -4.24279 0
M  V30 4944 H 446.254 -4.8309 -4.30387 0
M  V30 4945 N 446.386 1.0089 -1.21074 0
M  V30 4946 C 447.633 1.74607 -1.0256 0
M  V30 4947 C 447.961 1.89426 0.44136 0
M  V30 4948 O 447.216 1.42266 1.34384 0
M  V30 4949 C 447.515 3.16335 -1.66334 0
M  V30 4950 C 447.181 3.21474 -3.16173 0
M  V30 4951 C 445.843 3.22583 -3.57062 0
M  V30 4952 C 448.195 3.19025 -4.12156 0
M  V30 4953 C 445.523 3.18925 -4.92446 0
M  V30 4954 C 447.875 3.16909 -5.47496 0
M  V30 4955 C 446.539 3.16326 -5.87787 0
M  V30 4956 H 445.809 0.638933 -0.375294 0
M  V30 4957 H 448.456 1.18274 -1.50611 0
M  V30 4958 H 446.761 3.75876 -1.10566 0
M  V30 4959 H 448.458 3.72083 -1.49516 0
M  V30 4960 H 445.048 3.2135 -2.83605 0
M  V30 4961 H 449.232 3.17332 -3.81595 0
M  V30 4962 H 444.488 3.16809 -5.22917 0
M  V30 4963 H 448.662 3.13968 -6.21609 0
M  V30 4964 H 446.289 3.13246 -6.92662 0
M  V30 4965 N 447.864 1.01787 1.20321 0
M  V30 4966 C 449.28 0.732951 1.41774 0
M  V30 4967 C 449.48 -0.686883 1.89431 0
M  V30 4968 O 448.536 -1.45446 2.06402 0
M  V30 4969 C 449.849 1.75973 2.43832 0
M  V30 4970 C 451.397 1.77802 2.57596 0
M  V30 4971 C 451.872 2.7941 3.62897 0
M  V30 4972 N 453.363 2.78157 3.70382 0
M  V30 4973 C 454.098 3.53434 4.51521 0
M  V30 4974 N 453.594 4.38392 5.36455 0
M  V30 4975 N 455.387 3.42026 4.46066 0
M  V30 4976 H 447.538 1.93447 0.877035 0
M  V30 4977 H 449.801 0.835712 0.447536 0
M  V30 4978 H 449.507 2.77699 2.15815 0
M  V30 4979 H 449.381 1.57292 3.4284 0
M  V30 4980 H 451.768 0.767602 2.84942 0
M  V30 4981 H 451.849 2.00557 1.58779 0
M  V30 4982 H 451.493 3.80616 3.36295 0
M  V30 4983 H 451.423 2.53916 4.61339 0
M  V30 4984 H 453.914 2.16531 3.09714 0
M  V30 4985 H 454.227 4.92596 5.95457 0
M  V30 4986 H 452.572 4.4247 5.35953 0
M  V30 4987 H 455.763 2.75075 3.78749 0
M  V30 4988 H 455.936 4.00946 5.09064 0
M  V30 4989 N 449.342 -1.36122 0.79427 0
M  V30 4990 C 450.591 -1.98361 0.365464 0
M  V30 4991 C 450.904 -1.6374 -1.06997 0
M  V30 4992 O 452.11 -2.19251 -1.60129 0
M  V30 4993 C 450.566 -3.54821 0.602496 0
M  V30 4994 C 450.174 -3.98362 2.04967 0
M  V30 4995 C 451.918 -4.2383 0.238437 0
M  V30 4996 C 449.825 -5.47619 2.2331 0
M  V30 4997 H 448.755 -0.742193 0.13291 0
M  V30 4998 H 451.406 -1.55354 0.976589 0
M  V30 4999 H 449.788 -3.95922 -0.078409 0
M  V30 5000 H 450.962 -3.68447 2.76737 0
M  V30 5001 H 449.277 -3.42206 2.37243 0
M  V30 5002 H 451.874 -5.33529 0.353705 0
M  V30 5003 H 452.217 -4.08264 -0.814006 0
M  V30 5004 H 452.75 -3.88108 0.872769 0
M  V30 5005 H 449.489 -5.68138 3.26955 0
M  V30 5006 H 449.009 -5.79145 1.5605 0
M  V30 5007 H 450.688 -6.13911 2.0426 0
M  V30 5008 N 450.82 -0.546701 -1.47814 0
M  V30 5009 C 451.753 0.254472 -2.26777 0
M  V30 5010 C 452.731 0.929809 -1.33392 0
M  V30 5011 O 453.915 0.950889 -1.62759 0
M  V30 5012 C 451.042 1.36171 -3.10121 0
M  V30 5013 C 450.088 0.796038 -4.19005 0
M  V30 5014 S 450.921 -0.349191 -5.3436 0
M  V30 5015 C 452.077 0.760122 -6.21267 0
M  V30 5016 H 452.31 -0.415612 -2.94381 0
M  V30 5017 H 449.843 -0.332809 -1.5077 0
M  V30 5018 H 451.801 1.99588 -3.58713 0
M  V30 5019 H 450.462 2.00359 -2.41899 0
M  V30 5020 H 449.655 1.62719 -4.7701 0
M  V30 5021 H 449.257 0.238246 -3.7324 0
M  V30 5022 H 451.549 1.65479 -6.5698 0
M  V30 5023 H 452.492 0.217673 -7.07765 0
M  V30 5024 H 452.9 1.04806 -5.54685 0
M  V30 5025 N 452.299 1.55045 -0.282633 0
M  V30 5026 C 453.715 1.59441 0.0712997 0
M  V30 5027 C 453.915 1.2998 1.53972 0
M  V30 5028 O 452.971 1.06431 2.28973 0
M  V30 5029 C 454.284 2.99097 -0.310104 0
M  V30 5030 C 455.832 3.1194 -0.257343 0
M  V30 5031 C 456.307 4.53875 -0.613297 0
M  V30 5032 N 457.798 4.5974 -0.565134 0
M  V30 5033 C 458.533 5.67603 -0.81326 0
M  V30 5034 N 458.029 6.83582 -1.1264 0
M  V30 5035 N 459.822 5.57187 -0.741553 0
M  V30 5036 H 451.973 1.72458 -1.23984 0
M  V30 5037 H 454.236 0.804549 -0.501403 0
M  V30 5038 H 453.942 3.25516 -1.33163 0
M  V30 5039 H 453.816 3.75616 0.345366 0
M  V30 5040 H 456.203 2.85281 0.754905 0
M  V30 5041 H 456.284 2.37618 -0.947178 0
M  V30 5042 H 455.928 4.81261 -1.62327 0
M  V30 5043 H 455.858 5.26508 0.09841 0
M  V30 5044 H 458.349 3.76427 -0.333294 0
M  V30 5045 H 458.662 7.6175 -1.30219 0
M  V30 5046 H 457.007 6.85179 -1.16425 0
M  V30 5047 H 460.198 4.65457 -0.496705 0
M  V30 5048 H 460.371 6.41171 -0.938306 0
M  V30 5049 N 453.777 0.010035 1.57597 0
M  V30 5050 C 455.026 -0.671945 1.90178 0
M  V30 5051 C 455.339 -1.74376 0.886131 0
M  V30 5052 O 456.545 -2.48107 1.10252 0
M  V30 5053 C 455.001 -1.24636 3.3763 0
M  V30 5054 C 454.609 -0.208838 4.47513 0
M  V30 5055 C 456.353 -1.90595 3.79307 0
M  V30 5056 C 454.26 -0.793814 5.86048 0
M  V30 5057 H 453.19 -0.25474 0.709665 0
M  V30 5058 H 455.841 0.0722206 1.83358 0
M  V30 5059 H 454.223 -2.04152 3.3932 0
M  V30 5060 H 455.397 0.562463 4.57354 0
M  V30 5061 H 453.712 0.350889 4.14919 0
M  V30 5062 H 456.309 -2.35284 4.80151 0
M  V30 5063 H 456.652 -2.74074 3.13352 0
M  V30 5064 H 457.185 -1.17798 3.79958 0
M  V30 5065 H 453.924 0.00240855 6.555 0
M  V30 5066 H 453.444 -1.53404 5.79851 0
M  V30 5067 H 455.123 -1.2894 6.34022 0
M  V30 5068 N 455.255 -1.55392 -0.262866 0
M  V30 5069 C 456.185 -1.91978 -1.32917 0
M  V30 5070 C 457.166 -0.7828 -1.51017 0
M  V30 5071 O 458.351 -1.04178 -1.63892 0
M  V30 5072 C 455.481 -2.20055 -2.68687 0
M  V30 5073 C 454.435 -3.35854 -2.65304 0
M  V30 5074 C 453.761 -3.49435 -4.04721 0
M  V30 5075 C 455.061 -4.71977 -2.23685 0
M  V30 5076 H 456.755 -2.81292 -1.02544 0
M  V30 5077 H 454.301 -1.3534 -0.491846 0
M  V30 5078 H 456.254 -2.44237 -3.43404 0
M  V30 5079 H 454.978 -1.27551 -3.00663 0
M  V30 5080 H 453.637 -3.11655 -1.93045 0
M  V30 5081 H 453.285 -2.54379 -4.33936 0
M  V30 5082 H 452.985 -4.27297 -4.0335 0
M  V30 5083 H 454.509 -3.7592 -4.81161 0
M  V30 5084 H 455.923 -4.95637 -2.88127 0
M  V30 5085 H 454.32 -5.52828 -2.33456 0
M  V30 5086 H 455.39 -4.70115 -1.18827 0
M  V30 5087 N 456.733 0.527833 -1.48498 0
M  V30 5088 C 458.149 0.856571 -1.34666 0
M  V30 5089 C 458.349 1.98271 -0.35931 0
M  V30 5090 O 457.405 2.51551 0.218703 0
M  V30 5091 C 458.718 1.22207 -2.74747 0
M  V30 5092 C 460.266 1.33183 -2.83251 0
M  V30 5093 C 460.741 1.73075 -4.24039 0
M  V30 5094 N 462.232 1.80174 -4.26722 0
M  V30 5095 C 462.967 2.1243 -5.32598 0
M  V30 5096 N 462.463 2.43096 -6.4875 0
M  V30 5097 N 464.256 2.13454 -5.19994 0
M  V30 5098 H 456.407 -0.215174 -2.11307 0
M  V30 5099 H 458.67 -0.0336281 -0.947403 0
M  V30 5100 H 458.376 0.468195 -3.4857 0
M  V30 5101 H 458.25 2.17173 -3.08409 0
M  V30 5102 H 460.637 2.07647 -2.09683 0
M  V30 5103 H 460.718 0.363333 -2.53206 0
M  V30 5104 H 460.362 0.991712 -4.98124 0
M  V30 5105 H 460.292 2.70979 -4.51529 0
M  V30 5106 H 462.783 1.58744 -3.42942 0
M  V30 5107 H 463.096 2.6682 -7.25277 0
M  V30 5108 H 461.441 2.40611 -6.52021 0
M  V30 5109 H 464.632 1.88956 -4.28268 0
M  V30 5110 H 464.805 2.38261 -6.02608 0
M  V30 5111 N 458.211 1.37122 0.776871 0
M  V30 5112 C 459.46 1.31373 1.53049 0
M  V30 5113 C 459.773 -0.101016 1.95339 0
M  V30 5114 O 460.979 -0.280953 2.70042 0
M  V30 5115 C 459.435 2.30567 2.76346 0
M  V30 5116 C 459.043 3.77543 2.41175 0
M  V30 5117 C 460.787 2.33818 3.54301 0
M  V30 5118 C 458.694 4.68481 3.60943 0
M  V30 5119 H 457.624 0.488234 0.574581 0
M  V30 5120 H 460.275 1.62554 0.851372 0
M  V30 5121 H 458.657 1.92396 3.46121 0
M  V30 5122 H 459.831 4.24521 1.79216 0
M  V30 5123 H 458.146 3.77187 1.76405 0
M  V30 5124 H 460.743 2.98965 4.4331 0
M  V30 5125 H 461.086 1.3503 3.93793 0
M  V30 5126 H 461.619 2.7067 2.91518 0
M  V30 5127 H 458.358 5.68378 3.26537 0
M  V30 5128 H 457.878 4.2621 4.22025 0
M  V30 5129 H 459.557 4.85366 4.27819 0
M  V30 5130 N 459.689 -1.00246 1.21608 0
M  V30 5131 C 460.619 -2.10921 1.00172 0
M  V30 5132 C 461.6 -1.69938 -0.0741587 0
M  V30 5133 O 462.785 -1.94009 0.0861753 0
M  V30 5134 C 459.915 -3.42618 0.568355 0
M  V30 5135 C 458.869 -3.97407 1.58909 0
M  V30 5136 C 458.195 -5.25038 1.01187 0
M  V30 5137 C 459.495 -4.2918 2.97661 0
M  V30 5138 H 461.189 -2.29112 1.92739 0
M  V30 5139 H 458.735 -1.10101 0.928102 0
M  V30 5140 H 460.688 -4.19444 0.405555 0
M  V30 5141 H 459.412 -3.24227 -0.392961 0
M  V30 5142 H 458.071 -3.22703 1.73949 0
M  V30 5143 H 457.719 -5.02982 0.0421965 0
M  V30 5144 H 457.419 -5.62661 1.6937 0
M  V30 5145 H 458.943 -6.04507 0.860448 0
M  V30 5146 H 460.357 -4.96839 2.86049 0
M  V30 5147 H 458.754 -4.77952 3.6288 0
M  V30 5148 H 459.824 -3.3735 3.48315 0
M  V30 5149 N 461.167 -1.02423 -1.1978 0
M  V30 5150 C 462.114 -0.601023 -2.22837 0
M  V30 5151 C 463.084 0.382801 -1.61629 0
M  V30 5152 O 464.269 0.280514 -1.88727 0
M  V30 5153 C 461.409 0.0467755 -3.45068 0
M  V30 5154 C 460.522 -0.98253 -4.20678 0
M  V30 5155 C 459.657 -0.304982 -5.30324 0
M  V30 5156 C 458.696 -1.32052 -5.97686 0
M  V30 5157 N 457.833 -0.669105 -6.98904 0
M  V30 5158 H 462.673 -1.48444 -2.58396 0
M  V30 5159 H 460.21 -0.742936 -1.2696 0
M  V30 5160 H 462.168 0.439556 -4.14878 0
M  V30 5161 H 460.798 0.893796 -3.10179 0
M  V30 5162 H 459.85 -1.49341 -3.49859 0
M  V30 5163 H 461.162 -1.75455 -4.66923 0
M  V30 5164 H 460.316 0.142893 -6.06532 0
M  V30 5165 H 459.055 0.499283 -4.85138 0
M  V30 5166 H 458.06 -1.7787 -5.20233 0
M  V30 5167 H 459.285 -2.1262 -6.44957 0
M  V30 5168 H 457.231 0.115152 -6.55899 0
M  V30 5169 H 457.148 -1.37908 -7.43315 0
M  V30 5170 H 458.416 -0.245076 -7.79115 0
M  V30 5171 N 462.645 1.35699 -0.801477 0
M  V30 5172 C 463.575 2.32436 -0.222658 0
M  V30 5173 C 464.556 1.5723 0.649057 0
M  V30 5174 O 465.741 1.85324 0.580387 0
M  V30 5175 C 462.871 3.41469 0.633719 0
M  V30 5176 C 461.825 4.27774 -0.139083 0
M  V30 5177 C 461.151 5.28082 0.838666 0
M  V30 5178 C 462.451 5.04946 -1.33517 0
M  V30 5179 H 464.145 2.81094 -1.03086 0
M  V30 5180 H 461.691 1.35146 -0.497155 0
M  V30 5181 H 463.644 4.08143 1.04868 0
M  V30 5182 H 462.368 2.91408 1.47475 0
M  V30 5183 H 461.027 3.62673 -0.535156 0
M  V30 5184 H 460.675 4.7429 1.67506 0
M  V30 5185 H 460.375 5.86695 0.32594 0
M  V30 5186 H 461.899 5.97628 1.25194 0
M  V30 5187 H 463.313 5.64593 -0.995349 0
M  V30 5188 H 461.71 5.7303 -1.78202 0
M  V30 5189 H 462.78 4.35886 -2.12442 0
M  V30 5190 N 464.123 0.554532 1.47522 0
M  V30 5191 C 465.086 -0.184174 2.28459 0
M  V30 5192 C 466.086 -0.845195 1.36796 0
M  V30 5193 O 467.276 -0.701467 1.59452 0
M  V30 5194 C 464.408 -1.26903 3.16399 0
M  V30 5195 H 465.601 0.526751 2.95238 0
M  V30 5196 H 463.154 0.311375 1.53167 0
M  V30 5197 H 463.889 -2.01244 2.54306 0
M  V30 5198 H 463.674 -0.799883 3.83854 0
M  V30 5199 H 465.164 -1.78794 3.77389 0
M  V30 5200 N 465.601 -1.54893 0.290851 0
M  V30 5201 C 467.017 -1.59476 -0.0628432 0
M  V30 5202 C 467.217 -1.30795 -1.5328 0
M  V30 5203 O 466.273 -1.07644 -2.28406 0
M  V30 5204 C 467.586 -2.98928 0.325962 0
M  V30 5205 C 469.134 -3.11799 0.273882 0
M  V30 5206 C 469.609 -4.53544 0.637359 0
M  V30 5207 N 471.1 -4.59433 0.589507 0
M  V30 5208 C 471.835 -5.67164 0.84335 0
M  V30 5209 N 471.331 -6.82975 1.16263 0
M  V30 5210 N 473.124 -5.56786 0.771091 0
M  V30 5211 H 465.275 -1.71798 1.24896 0
M  V30 5212 H 467.538 -0.801879 0.505663 0
M  V30 5213 H 467.244 -3.24805 1.34887 0
M  V30 5214 H 467.118 -3.75793 -0.325441 0
M  V30 5215 H 469.505 -2.85677 -0.739765 0
M  V30 5216 H 469.586 -2.37112 0.959766 0
M  V30 5217 H 469.23 -4.80394 1.64877 0
M  V30 5218 H 469.16 -5.26553 -0.0704866 0
M  V30 5219 H 471.651 -3.76245 0.353252 0
M  V30 5220 H 471.964 -7.61048 1.34257 0
M  V30 5221 H 470.309 -6.84552 1.20057 0
M  V30 5222 H 473.5 -4.65187 0.521383 0
M  V30 5223 H 473.673 -6.40664 0.972295 0
M  V30 5224 N 467.08 -0.0183926 -1.57589 0
M  V30 5225 C 468.03 0.975944 -2.06057 0
M  V30 5226 C 469.014 1.29204 -0.958908 0
M  V30 5227 O 470.206 1.27995 -1.22255 0
M  V30 5228 C 467.335 2.26194 -2.58247 0
M  V30 5229 C 466.421 1.97467 -3.75323 0
M  V30 5230 N 466.812 1.38968 -4.86335 0
M  V30 5231 C 465.11 2.27515 -3.83605 0
M  V30 5232 C 465.811 1.27131 -5.67638 0
M  V30 5233 N 464.787 1.76319 -5.14211 0
M  V30 5234 H 468.589 0.518444 -2.89291 0
M  V30 5235 H 466.103 0.18688 -1.61321 0
M  V30 5236 H 468.1 2.98289 -2.91255 0
M  V30 5237 H 466.76 2.7258 -1.76438 0
M  V30 5238 H 467.771 1.06608 -5.06809 0
M  V30 5239 H 464.448 2.76649 -3.12684 0
M  V30 5240 H 465.838 0.819882 -6.66879 0
M  V30 5241 N 468.558 1.5553 0.254621 0
M  V30 5242 C 469.783 1.81383 1.00573 0
M  V30 5243 C 470.208 0.594419 1.78461 0
M  V30 5244 O 469.566 -0.456403 1.75461 0
M  V30 5245 C 469.614 3.04892 1.92545 0
M  V30 5246 O 468.718 2.81266 3.01601 0
M  V30 5247 H 468.059 0.598969 0.286587 0
M  V30 5248 H 470.589 2.02703 0.277952 0
M  V30 5249 H 470.599 3.34119 2.34155 0
M  V30 5250 H 469.274 3.93287 1.3527 0
M  V30 5251 H 467.851 2.63185 2.64174 0
M  V30 5252 N 470.036 -0.519951 1.48776 0
M  V30 5253 C 471.264 -1.29971 1.60982 0
M  V30 5254 C 471.679 -1.86803 0.273885 0
M  V30 5255 O 471.036 -1.66904 -0.738193 0
M  V30 5256 C 471.087 -2.44346 2.66415 0
M  V30 5257 O 470.808 -1.89855 3.94825 0
M  V30 5258 C 472.309 -3.36014 2.89153 0
M  V30 5259 H 469.529 -0.394891 0.542496 0
M  V30 5260 H 472.073 -0.626214 1.94676 0
M  V30 5261 H 470.228 -3.07562 2.35552 0
M  V30 5262 H 470.642 -2.64798 4.5275 0
M  V30 5263 H 472.116 -4.12593 3.66703 0
M  V30 5264 H 472.593 -3.91859 1.98351 0
M  V30 5265 H 473.199 -2.78582 3.21359 0
M  V30 5266 N 471.514 -1.37532 -0.769588 0
M  V30 5267 C 472.762 -1.32597 -1.5252 0
M  V30 5268 C 473.083 0.0884294 -1.94799 0
M  V30 5269 O 472.353 1.03289 -1.66458 0
M  V30 5270 H 470.933 -0.487846 -0.565699 0
M  V30 5271 H 473.595 -1.72044 -0.915806 0
M  V30 5272 H 472.691 -1.96643 -2.42359 0
M  V30 5273 N 472.992 0.995999 -1.22138 0
M  V30 5274 C 473.922 2.10387 -1.01289 0
M  V30 5275 C 474.903 1.69975 0.0651454 0
M  V30 5276 O 476.088 1.9396 -0.0964628 0
M  V30 5277 C 473.218 3.42312 -0.586517 0
M  V30 5278 C 472.172 3.96558 -1.61014 0
M  V30 5279 C 471.498 5.24494 -1.0397 0
M  V30 5280 C 472.798 4.27595 -2.99933 0
M  V30 5281 H 474.492 2.28086 -1.93951 0
M  V30 5282 H 472.038 1.09607 -0.933928 0
M  V30 5283 H 473.991 4.19223 -0.427793 0
M  V30 5284 H 472.715 3.24431 0.375761 0
M  V30 5285 H 471.374 3.21776 -1.75658 0
M  V30 5286 H 471.022 5.02953 -0.0688703 0
M  V30 5287 H 470.722 5.61755 -1.72352 0
M  V30 5288 H 472.246 6.04042 -0.892494 0
M  V30 5289 H 473.66 4.95315 -2.8868 0
M  V30 5290 H 472.057 4.76021 -3.6541 0
M  V30 5291 H 473.127 3.35498 -3.50099 0
M  V30 5292 N 474.47 1.03057 1.19235 0
M  V30 5293 C 475.402 0.570932 2.21975 0
M  V30 5294 C 476.415 -0.354088 1.58903 0
M  V30 5295 O 477.604 -0.150211 1.77867 0
M  V30 5296 C 474.704 -0.187152 3.38383 0
M  V30 5297 C 473.877 0.743231 4.31039 0
M  V30 5298 C 472.936 0.0302493 5.26191 0
M  V30 5299 O 471.962 0.657371 5.65391 0
M  V30 5300 N 473.164 -1.23991 5.67104 0
M  V30 5301 H 475.929 1.45456 2.62036 0
M  V30 5302 H 473.49 0.909807 1.33918 0
M  V30 5303 H 475.482 -0.673715 3.99053 0
M  V30 5304 H 474.052 -0.972205 2.97098 0
M  V30 5305 H 473.272 1.40985 3.68126 0
M  V30 5306 H 474.56 1.3755 4.89854 0
M  V30 5307 H 473.958 -1.77011 5.37293 0
M  V30 5308 H 472.515 -1.67093 6.30018 0
M  V30 5309 N 475.948 -1.35272 0.808662 0
M  V30 5310 C 477.173 -2.03477 0.401475 0
M  V30 5311 C 477.598 -1.60537 -0.980279 0
M  V30 5312 O 476.956 -0.78304 -1.63518 0
M  V30 5313 C 477.004 -3.57181 0.495354 0
M  V30 5314 O 476.108 -4.09474 -0.490397 0
M  V30 5315 H 475.449 -0.642561 0.167366 0
M  V30 5316 H 477.979 -1.72824 1.09512 0
M  V30 5317 H 477.989 -4.06356 0.365912 0
M  V30 5318 H 476.664 -3.87784 1.5032 0
M  V30 5319 H 475.241 -3.71516 -0.321023 0
M  V30 5320 N 477.426 -0.562348 -1.47226 0
M  V30 5321 C 478.356 0.170627 -2.32876 0
M  V30 5322 C 479.337 0.903748 -1.44106 0
M  V30 5323 O 480.522 0.883206 -1.72954 0
M  V30 5324 C 477.652 1.19786 -3.25989 0
M  V30 5325 C 476.606 0.580875 -4.2404 0
M  V30 5326 C 475.932 1.71311 -5.06514 0
M  V30 5327 C 477.232 -0.468714 -5.20193 0
M  V30 5328 H 478.926 -0.544441 -2.94408 0
M  V30 5329 H 476.472 -0.263271 -1.41573 0
M  V30 5330 H 478.425 1.71884 -3.84752 0
M  V30 5331 H 477.149 1.94294 -2.62521 0
M  V30 5332 H 475.808 0.0811538 -3.6651 0
M  V30 5333 H 475.456 2.44736 -4.39447 0
M  V30 5334 H 475.156 1.30604 -5.72902 0
M  V30 5335 H 476.68 2.23725 -5.68137 0
M  V30 5336 H 478.094 -0.0336028 -5.7329 0
M  V30 5337 H 476.491 -0.794957 -5.94811 0
M  V30 5338 H 477.561 -1.36269 -4.65359 0
M  V30 5339 N 478.904 1.54736 -0.299062 0
M  V30 5340 C 480.152 1.99706 0.31017 0
M  V30 5341 C 480.473 1.18896 1.54559 0
M  V30 5342 O 479.743 0.284445 1.93824 0
M  V30 5343 H 478.323 0.737686 0.117596 0
M  V30 5344 H 480.985 1.9054 -0.409943 0
M  V30 5345 H 480.081 3.06596 0.58355 0
M  V30 5346 N 480.382 0.0267497 1.57577 0
M  V30 5347 C 481.629 -0.652404 1.91703 0
M  V30 5348 C 481.957 -1.72271 0.902936 0
M  V30 5349 O 481.212 -1.955 -0.0884843 0
M  V30 5350 C 481.511 -1.30914 3.3256 0
M  V30 5351 C 481.177 -0.369441 4.49384 0
M  V30 5352 C 479.839 -0.110791 4.81072 0
M  V30 5353 C 482.191 0.275971 5.20469 0
M  V30 5354 C 479.519 0.801116 5.81205 0
M  V30 5355 C 481.871 1.17592 6.21575 0
M  V30 5356 C 480.535 1.44348 6.51705 0
M  V30 5357 H 479.805 -0.238732 0.70149 0
M  V30 5358 H 482.452 0.0880091 1.91298 0
M  V30 5359 H 480.757 -2.12425 3.29216 0
M  V30 5360 H 482.454 -1.84115 3.56234 0
M  V30 5361 H 479.044 -0.581211 4.24641 0
M  V30 5362 H 483.228 0.0892 4.9622 0
M  V30 5363 H 478.484 1.01614 6.02897 0
M  V30 5364 H 482.658 1.68223 6.75777 0
M  V30 5365 H 480.285 2.15176 7.29111 0
M  V30 5366 N 481.861 -1.55662 -0.24637 0
M  V30 5367 C 483.089 -1.81575 -0.991876 0
M  V30 5368 C 483.504 -0.602545 -1.78927 0
M  V30 5369 O 482.861 0.428795 -1.77391 0
M  V30 5370 C 482.912 -3.05711 -1.92933 0
M  V30 5371 O 482.633 -4.22348 -1.1642 0
M  V30 5372 C 484.134 -3.44428 -2.79078 0
M  V30 5373 H 481.354 -0.604209 -0.291844 0
M  V30 5374 H 483.898 -2.02722 -0.269095 0
M  V30 5375 H 482.053 -2.86612 -2.60638 0
M  V30 5376 H 482.467 -4.92706 -1.79835 0
M  V30 5377 H 483.941 -4.34388 -3.40603 0
M  V30 5378 H 484.418 -2.65037 -3.50217 0
M  V30 5379 H 485.024 -3.65879 -2.16824 0
M  V30 5380 N 483.339 0.512053 -1.4905 0
M  V30 5381 C 484.269 1.62365 -1.67809 0
M  V30 5382 C 485.25 1.61737 -0.526809 0
M  V30 5383 O 486.435 1.78651 -0.761404 0
M  V30 5384 C 483.565 3.00895 -1.73435 0
M  V30 5385 C 482.519 3.16387 -2.88242 0
M  V30 5386 C 481.845 4.56157 -2.78971 0
M  V30 5387 C 483.145 2.97457 -4.29321 0
M  V30 5388 H 484.839 1.46921 -2.60873 0
M  V30 5389 H 482.385 0.705379 -1.2554 0
M  V30 5390 H 484.338 3.78549 -1.85145 0
M  V30 5391 H 483.062 3.17403 -0.769619 0
M  V30 5392 H 481.721 2.41155 -2.76116 0
M  V30 5393 H 481.369 4.69525 -1.8043 0
M  V30 5394 H 481.069 4.67465 -3.5602 0
M  V30 5395 H 482.593 5.35886 -2.92675 0
M  V30 5396 H 484.007 3.64888 -4.42187 0
M  V30 5397 H 482.404 3.20245 -5.07507 0
M  V30 5398 H 483.474 1.93692 -4.44535 0
M  V30 5399 N 484.817 1.37938 0.762283 0
M  V30 5400 C 486.233 1.18945 1.06415 0
M  V30 5401 C 486.433 0.0321163 2.01474 0
M  V30 5402 O 485.489 -0.624844 2.44647 0
M  V30 5403 C 486.802 2.51218 1.65258 0
M  V30 5404 C 488.35 2.57824 1.7747 0
M  V30 5405 C 488.825 3.90251 2.39725 0
M  V30 5406 N 490.316 3.91744 2.47166 0
M  V30 5407 C 491.051 4.90966 2.96209 0
M  V30 5408 N 490.547 6.00585 3.45354 0
M  V30 5409 N 492.34 4.78363 2.9517 0
M  V30 5410 H 484.491 2.11994 0.131301 0
M  V30 5411 H 486.754 0.940262 0.120879 0
M  V30 5412 H 486.46 3.36317 1.02878 0
M  V30 5413 H 486.334 2.68989 2.64433 0
M  V30 5414 H 488.721 1.73126 2.3898 0
M  V30 5415 H 488.802 2.43928 0.770241 0
M  V30 5416 H 488.446 4.75368 1.78852 0
M  V30 5417 H 488.376 4.01454 3.40796 0
M  V30 5418 H 490.867 3.12563 2.12397 0
M  V30 5419 H 491.18 6.72236 3.81207 0
M  V30 5420 H 489.525 6.04217 3.43434 0
M  V30 5421 H 492.716 3.91841 2.56082 0
M  V30 5422 H 492.889 5.55843 3.33081 0
M  V30 5423 N 486.295 -0.989507 1.22664 0
M  V30 5424 C 487.711 -1.25395 0.987331 0
M  V30 5425 C 487.911 -1.9899 -0.317056 0
M  V30 5426 O 486.967 -2.30141 -1.03882 0
M  V30 5427 C 488.28 -2.06242 2.18826 0
M  V30 5428 C 489.828 -2.19413 2.23219 0
M  V30 5429 C 490.303 -3.03648 3.42873 0
M  V30 5430 N 491.794 -3.11234 3.43056 0
M  V30 5431 C 492.529 -3.7671 4.32293 0
M  V30 5432 N 492.025 -4.44085 5.31752 0
M  V30 5433 N 493.818 -3.73505 4.2006 0
M  V30 5434 H 485.969 -0.496212 2.06522 0
M  V30 5435 H 488.232 -0.281784 0.905153 0
M  V30 5436 H 487.938 -1.59531 3.13437 0
M  V30 5437 H 487.812 -3.06996 2.19165 0
M  V30 5438 H 490.199 -2.65336 1.29154 0
M  V30 5439 H 490.28 -1.18078 2.26917 0
M  V30 5440 H 489.924 -2.58424 4.37241 0
M  V30 5441 H 489.854 -4.05132 3.36416 0
M  V30 5442 H 492.345 -2.63287 2.71088 0
M  V30 5443 H 492.658 -4.91797 5.96117 0
M  V30 5444 H 491.003 -4.42822 5.35662 0
M  V30 5445 H 494.194 -3.20033 3.41609 0
M  V30 5446 H 494.367 -4.24253 4.8981 0
M  V30 5447 N 487.773 -1.03688 -1.18687 0
M  V30 5448 C 488.998 -0.757819 -1.93059 0
M  V30 5449 C 489.423 0.678353 -1.75442 0
M  V30 5450 O 488.781 1.46938 -1.06203 0
M  V30 5451 C 488.829 -1.12423 -3.42627 0
M  V30 5452 O 487.933 -0.247505 -4.11657 0
M  V30 5453 H 487.274 -0.279245 -0.602427 0
M  V30 5454 H 489.804 -1.3857 -1.5053 0
M  V30 5455 H 489.814 -1.08454 -3.93322 0
M  V30 5456 H 488.489 -2.17049 -3.54771 0
M  V30 5457 H 487.066 -0.34649 -3.71287 0
M  V30 5458 N 489.251 1.34841 -0.815825 0
M  V30 5459 C 490.481 2.02436 -0.412695 0
M  V30 5460 C 490.889 1.61604 0.983906 0
M  V30 5461 O 490.232 0.813729 1.64694 0
M  V30 5462 C 490.294 3.56953 -0.427182 0
M  V30 5463 C 489.958 4.21083 -1.77589 0
M  V30 5464 C 490.955 4.42107 -2.73564 0
M  V30 5465 C 488.64 4.58006 -2.06243 0
M  V30 5466 C 490.634 4.99169 -3.9637 0
M  V30 5467 C 488.321 5.1478 -3.2931 0
M  V30 5468 C 489.319 5.35304 -4.24191 0
M  V30 5469 O 489.007 5.90878 -5.45086 0
M  V30 5470 H 488.739 0.655631 -0.164695 0
M  V30 5471 H 491.293 1.73246 -1.1034 0
M  V30 5472 H 489.523 3.85372 0.320175 0
M  V30 5473 H 491.212 4.05875 -0.0450875 0
M  V30 5474 H 491.978 4.13953 -2.52721 0
M  V30 5475 H 487.857 4.41339 -1.33196 0
M  V30 5476 H 491.401 5.15105 -4.70439 0
M  V30 5477 H 487.298 5.42362 -3.5002 0
M  V30 5478 H 488.066 6.0932 -5.46508 0
M  V30 5479 N 490.729 0.570148 1.46925 0
M  V30 5480 C 491.677 -0.183181 2.31878 0
M  V30 5481 C 492.671 -0.896721 1.43719 0
M  V30 5482 O 493.877 -0.816536 1.60414 0
M  V30 5483 H 490.252 -0.077944 0.74795 0
M  V30 5484 H 492.223 0.552312 2.93244 0
M  V30 5485 C 490.972 -1.19172 3.2664 0
M  V30 5486 H 490.295 -0.652088 3.94446 0
M  V30 5487 H 491.735 -1.68946 3.88887 0
M  V30 5488 C 490.194 -2.24627 2.51086 0
M  V30 5489 O 490.724 -3.31773 2.26472 0
M  V30 5490 N 488.93 -1.98898 2.11867 0
M  V30 5491 H 488.477 -1.11777 2.32086 0
M  V30 5492 H 488.435 -2.6967 1.61634 0
M  V30 5493 N 492.207 -1.54576 0.307264 0
M  V30 5494 C 493.117 -2.27435 -0.57536 0
M  V30 5495 C 494.133 -1.31183 -1.14311 0
M  V30 5496 O 495.309 -1.64175 -1.16656 0
M  V30 5497 C 492.374 -3.00566 -1.72803 0
M  V30 5498 C 491.435 -4.12369 -1.19373 0
M  V30 5499 C 490.668 -4.82003 -2.29147 0
M  V30 5500 O 490.891 -4.51038 -3.49171 0
M  V30 5501 O 489.825 -5.69271 -1.95485 0
M  V30 5502 H 493.651 -3.03696 0.0158558 0
M  V30 5503 H 491.236 -1.49219 0.0735064 0
M  V30 5504 H 493.118 -3.46416 -2.39946 0
M  V30 5505 H 491.793 -2.27195 -2.30574 0
M  V30 5506 H 490.7 -3.70905 -0.487851 0
M  V30 5507 H 492.033 -4.87736 -0.661376 0
M  V30 5508 N 493.685 -0.035106 -1.57561 0
M  V30 5509 C 494.615 0.942993 -2.13612 0
M  V30 5510 C 495.596 1.33531 -1.05373 0
M  V30 5511 O 496.781 1.41287 -1.33235 0
M  V30 5512 C 493.911 2.22332 -2.66807 0
M  V30 5513 C 492.865 1.97156 -3.79886 0
M  V30 5514 C 492.191 3.31506 -4.19533 0
M  V30 5515 C 493.491 1.30596 -5.05709 0
M  V30 5516 H 495.185 0.476179 -2.95589 0
M  V30 5517 H 492.731 0.227602 -1.4219 0
M  V30 5518 H 494.684 2.91142 -3.04654 0
M  V30 5519 H 493.408 2.7119 -1.81999 0
M  V30 5520 H 492.067 1.30763 -3.42486 0
M  V30 5521 H 491.715 3.78134 -3.31698 0
M  V30 5522 H 491.415 3.15465 -4.95738 0
M  V30 5523 H 492.939 4.01574 -4.59968 0
M  V30 5524 H 494.353 1.89416 -5.41105 0
M  V30 5525 H 492.75 1.24934 -5.86951 0
M  V30 5526 H 493.82 0.279742 -4.84092 0
M  V30 5527 N 495.163 1.55791 0.238111 0
M  V30 5528 C 496.411 1.77681 0.963001 0
M  V30 5529 C 496.732 0.600674 1.85518 0
M  V30 5530 O 496.002 -0.383182 1.92116 0
M  V30 5531 H 494.582 0.655315 0.358568 0
M  V30 5532 H 497.244 1.93239 0.253945 0
M  V30 5533 H 496.34 2.69177 1.57956 0
M  V30 5534 N 496.642 -0.504142 1.49319 0
M  V30 5535 C 497.572 -1.61473 1.68667 0
M  V30 5536 C 498.553 -1.61455 0.535378 0
M  V30 5537 O 499.738 -1.78245 0.770868 0
M  V30 5538 C 496.868 -2.99971 1.75028 0
M  V30 5539 C 495.822 -3.14854 2.89916 0
M  V30 5540 C 495.148 -4.54671 2.81387 0
M  V30 5541 C 496.448 -2.95176 4.30893 0
M  V30 5542 H 498.142 -1.45535 2.61648 0
M  V30 5543 H 495.688 -0.698711 1.25913 0
M  V30 5544 H 497.641 -3.77562 1.8715 0
M  V30 5545 H 496.365 -3.1699 0.786441 0
M  V30 5546 H 495.024 -2.39687 2.77391 0
M  V30 5547 H 494.672 -4.68562 1.82917 0
M  V30 5548 H 494.372 -4.6557 3.58494 0
M  V30 5549 H 495.896 -5.34327 2.95512 0
M  V30 5550 H 497.31 -3.62538 4.44116 0
M  V30 5551 H 495.707 -3.17549 5.09198 0
M  V30 5552 H 496.777 -1.91332 4.45556 0
M  V30 5553 N 498.12 -1.38341 -0.754957 0
M  V30 5554 C 499.05 -1.38176 -1.88227 0
M  V30 5555 C 500.031 -0.247873 -1.68284 0
M  V30 5556 O 501.216 -0.45075 -1.88896 0
M  V30 5557 C 498.346 -1.20471 -3.25736 0
M  V30 5558 C 497.3 -2.3105 -3.60278 0
M  V30 5559 C 496.626 -1.98452 -4.96509 0
M  V30 5560 C 497.926 -3.73305 -3.65295 0
M  V30 5561 H 499.62 -2.32512 -1.88622 0
M  V30 5562 H 497.166 -1.1192 -0.906082 0
M  V30 5563 H 499.119 -1.18982 -4.04254 0
M  V30 5564 H 497.843 -0.225965 -3.25817 0
M  V30 5565 H 496.502 -2.31723 -2.84078 0
M  V30 5566 H 496.15 -0.990641 -4.93148 0
M  V30 5567 H 495.85 -2.7251 -5.20588 0
M  V30 5568 H 497.374 -1.98578 -5.77407 0
M  V30 5569 H 498.788 -3.7467 -4.3393 0
M  V30 5570 H 497.185 -4.46557 -4.00883 0
M  V30 5571 H 498.255 -4.05719 -2.65556 0
M  V30 5572 N 499.598 0.982988 -1.23187 0
M  V30 5573 C 500.847 1.71817 -1.05649 0
M  V30 5574 C 501.16 1.91315 0.407176 0
M  V30 5575 O 502.366 2.62256 0.702436 0
M  V30 5576 C 500.822 3.09188 -1.84203 0
M  V30 5577 C 500.43 2.97586 -3.34882 0
M  V30 5578 C 502.174 3.86684 -1.75146 0
M  V30 5579 C 500.081 4.30173 -4.05839 0
M  V30 5580 H 499.011 0.644258 -0.391724 0
M  V30 5581 H 501.662 1.09659 -1.4713 0
M  V30 5582 H 500.044 3.72087 -1.35527 0
M  V30 5583 H 501.218 2.43793 -3.91026 0
M  V30 5584 H 499.533 2.33567 -3.44725 0
M  V30 5585 H 502.13 4.84836 -2.25473 0
M  V30 5586 H 502.473 4.10136 -0.713737 0
M  V30 5587 H 503.006 3.30482 -2.21419 0
M  V30 5588 H 499.745 4.11918 -5.09906 0
M  V30 5589 H 499.265 4.83841 -3.54482 0
M  V30 5590 H 500.944 4.98873 -4.11989 0
M  V30 5591 N 501.076 1.04316 1.18135 0
M  V30 5592 C 502.006 0.657299 2.24058 0
M  V30 5593 C 502.987 -0.340678 1.66654 0
M  V30 5594 O 504.172 -0.220223 1.92947 0
M  V30 5595 C 501.302 0.0220715 3.47293 0
M  V30 5596 C 500.256 0.943857 4.17463 0
M  V30 5597 C 499.582 0.172973 5.3442 0
M  V30 5598 C 500.882 2.26409 4.70677 0
M  V30 5599 H 502.576 1.5428 2.56589 0
M  V30 5600 H 500.122 0.743263 1.23335 0
M  V30 5601 H 502.075 -0.259607 4.206 0
M  V30 5602 H 500.799 -0.898323 3.14003 0
M  V30 5603 H 499.458 1.20996 3.46057 0
M  V30 5604 H 499.106 -0.749907 4.97379 0
M  V30 5605 H 498.806 0.787098 5.82304 0
M  V30 5606 H 500.33 -0.101628 6.10515 0
M  V30 5607 H 501.744 2.04294 5.35665 0
M  V30 5608 H 500.141 2.8314 5.29105 0
M  V30 5609 H 501.211 2.90883 3.87962 0
M  V30 5610 N 502.554 -1.34406 0.822964 0
M  V30 5611 C 503.801 -1.98284 0.411057 0
M  V30 5612 C 504.129 -1.65245 -1.02588 0
M  V30 5613 O 503.384 -0.91619 -1.72929 0
M  V30 5614 C 503.683 -3.52981 0.560268 0
M  V30 5615 C 503.349 -4.05931 1.96293 0
M  V30 5616 C 502.011 -4.20103 2.34664 0
M  V30 5617 C 504.363 -4.34412 2.87985 0
M  V30 5618 C 501.691 -4.60082 3.64062 0
M  V30 5619 C 504.043 -4.75838 4.16847 0
M  V30 5620 C 502.707 -4.88215 4.55195 0
M  V30 5621 H 501.977 -0.725573 0.150416 0
M  V30 5622 H 504.624 -1.60349 1.04692 0
M  V30 5623 H 502.929 -3.91477 -0.158982 0
M  V30 5624 H 504.626 -4.00385 0.222087 0
M  V30 5625 H 501.216 -3.95363 1.65487 0
M  V30 5626 H 505.4 -4.23001 2.59584 0
M  V30 5627 H 500.656 -4.67856 3.93599 0
M  V30 5628 H 504.83 -4.96834 4.87984 0
M  V30 5629 H 502.457 -5.18952 5.55512 0
M  V30 5630 N 504.032 -0.577932 -1.46621 0
M  V30 5631 C 504.962 0.145917 -2.33044 0
M  V30 5632 C 505.943 0.888412 -1.45056 0
M  V30 5633 O 507.128 0.864812 -1.73881 0
M  V30 5634 C 504.258 1.16322 -3.27241 0
M  V30 5635 C 503.212 0.535868 -4.24632 0
M  V30 5636 C 502.538 1.65929 -5.08303 0
M  V30 5637 C 503.838 -0.523861 -5.19666 0
M  V30 5638 H 505.532 -0.575636 -2.93814 0
M  V30 5639 H 503.078 -0.278272 -1.41286 0
M  V30 5640 H 505.031 1.67793 -3.86553 0
M  V30 5641 H 503.755 1.91498 -2.64567 0
M  V30 5642 H 502.414 0.0422759 -3.66576 0
M  V30 5643 H 502.062 2.40061 -4.42018 0
M  V30 5644 H 501.762 1.2452 -5.74255 0
M  V30 5645 H 503.286 2.17686 -5.70478 0
M  V30 5646 H 504.7 -0.0944059 -5.73222 0
M  V30 5647 H 503.097 -0.858 -5.93935 0
M  V30 5648 H 504.167 -1.41197 -4.63887 0
M  V30 5649 N 505.51 1.54411 -0.315457 0
M  V30 5650 C 506.473 2.22713 0.54142 0
M  V30 5651 C 507.473 1.2179 1.04995 0
M  V30 5652 O 508.663 1.46426 0.943667 0
M  V30 5653 C 505.795 2.92485 1.75116 0
M  V30 5654 H 506.988 2.99849 -0.0555508 0
M  V30 5655 H 504.541 1.56159 -0.0664453 0
M  V30 5656 H 505.276 2.19466 2.38758 0
M  V30 5657 H 505.061 3.66483 1.39401 0
M  V30 5658 H 506.551 3.44548 2.35959 0
M  V30 5659 N 506.988 0.0434614 1.5754 0
M  V30 5660 C 507.921 -0.968729 2.06618 0
M  V30 5661 C 508.899 -1.30868 0.965 0
M  V30 5662 O 510.083 -1.42288 1.23638 0
M  V30 5663 C 507.21 -2.28486 2.50023 0
M  V30 5664 C 506.256 -2.09851 3.71302 0
M  V30 5665 S 507.089 -1.38401 5.17306 0
M  V30 5666 C 508.245 -2.71354 5.64019 0
M  V30 5667 H 508.478 -0.551021 2.92149 0
M  V30 5668 H 506.011 -0.168607 1.53477 0
M  V30 5669 H 507.969 -3.04142 2.75695 0
M  V30 5670 H 506.63 -2.67387 1.64812 0
M  V30 5671 H 505.823 -3.07184 3.99567 0
M  V30 5672 H 505.425 -1.42336 3.45856 0
M  V30 5673 H 507.717 -3.67549 5.69134 0
M  V30 5674 H 508.66 -2.47734 6.6335 0
M  V30 5675 H 509.068 -2.77259 4.91719 0
M  V30 5676 N 508.466 -1.55915 -0.229846 0
M  V30 5677 C 509.714 -1.7819 -0.953565 0
M  V30 5678 C 510.035 -0.610504 -1.85197 0
M  V30 5679 O 509.305 0.372988 -1.92316 0
M  V30 5680 H 507.885 -0.657208 -0.355087 0
M  V30 5681 H 510.547 -1.9337 -0.243693 0
M  V30 5682 H 509.643 -2.70011 -1.56527 0
M  V30 5683 N 509.944 0.496216 -1.49584 0
M  V30 5684 C 511.193 1.24668 -1.58558 0
M  V30 5685 C 511.506 1.9359 -0.279703 0
M  V30 5686 O 512.712 2.70365 -0.248048 0
M  V30 5687 C 511.168 2.26388 -2.79779 0
M  V30 5688 C 510.776 1.63384 -4.17145 0
M  V30 5689 C 512.52 3.02233 -2.98086 0
M  V30 5690 C 510.427 2.63243 -5.29582 0
M  V30 5691 H 509.357 0.468995 -0.590389 0
M  V30 5692 H 512.008 0.519985 -1.75978 0
M  V30 5693 H 510.39 3.02241 -2.55863 0
M  V30 5694 H 511.564 0.93491 -4.51216 0
M  V30 5695 H 509.879 0.999121 -4.04236 0
M  V30 5696 H 512.476 3.76919 -3.79257 0
M  V30 5697 H 512.819 3.60132 -2.08831 0
M  V30 5698 H 513.352 2.33495 -3.22063 0
M  V30 5699 H 510.091 2.10119 -6.20911 0
M  V30 5700 H 509.611 3.31363 -4.99959 0
M  V30 5701 H 511.29 3.25575 -5.59115 0
M  V30 5702 N 511.423 1.38739 0.74761 0
M  V30 5703 C 512.356 1.3083 1.86972 0
M  V30 5704 C 513.334 0.184229 1.61553 0
M  V30 5705 O 514.518 0.36256 1.8498 0
M  V30 5706 C 511.645 1.02854 3.22705 0
M  V30 5707 C 510.691 2.17281 3.67003 0
M  V30 5708 S 511.524 3.79468 3.77842 0
M  V30 5709 C 512.68 3.53692 5.16385 0
M  V30 5710 H 512.913 2.258 1.93395 0
M  V30 5711 H 510.446 1.24646 0.911199 0
M  V30 5712 H 512.404 0.87397 4.01089 0
M  V30 5713 H 511.065 0.0959295 3.13953 0
M  V30 5714 H 510.258 1.93267 4.65472 0
M  V30 5715 H 509.86 2.28876 2.9579 0
M  V30 5716 H 512.152 3.10176 6.02327 0
M  V30 5717 H 513.095 4.51576 5.45422 0
M  V30 5718 H 513.503 2.8807 4.85464 0
M  V30 5719 N 512.901 -0.976442 1.23707 0
M  V30 5720 C 514.15 -1.71254 1.06559 0
M  V30 5721 C 514.463 -1.91528 -0.397024 0
M  V30 5722 O 515.669 -2.62625 -0.688518 0
M  V30 5723 C 514.125 -3.08207 1.8584 0
M  V30 5724 C 513.733 -2.95806 3.36456 0
M  V30 5725 C 515.477 -3.85749 1.77194 0
M  V30 5726 C 513.384 -4.28015 4.08114 0
M  V30 5727 H 512.314 -0.642171 0.395136 0
M  V30 5728 H 514.965 -1.08877 1.4771 0
M  V30 5729 H 513.347 -3.71363 1.37498 0
M  V30 5730 H 514.521 -2.41716 3.92314 0
M  V30 5731 H 512.836 -2.31736 3.45959 0
M  V30 5732 H 515.433 -4.83633 2.28041 0
M  V30 5733 H 515.776 -4.09752 0.735477 0
M  V30 5734 H 516.309 -3.29303 2.23169 0
M  V30 5735 H 513.048 -4.09208 5.12083 0
M  V30 5736 H 512.568 -4.81955 3.57043 0
M  V30 5737 H 514.247 -4.96681 4.14629 0
M  V30 5738 N 514.379 -1.04941 -1.1758 0
M  V30 5739 C 515.626 -0.757989 -1.87779 0
M  V30 5740 C 515.954 0.714827 -1.80888 0
M  V30 5741 O 515.209 1.53824 -1.20982 0
M  V30 5742 C 515.508 -1.18062 -3.37337 0
M  V30 5743 C 515.174 -2.65521 -3.6443 0
M  V30 5744 C 513.836 -3.05804 -3.71534 0
M  V30 5745 C 516.188 -3.60822 -3.76108 0
M  V30 5746 C 513.516 -4.40256 -3.87803 0
M  V30 5747 C 515.868 -4.95005 -3.93895 0
M  V30 5748 C 514.532 -5.34945 -3.99237 0
M  V30 5749 H 513.802 -0.277368 -0.68713 0
M  V30 5750 H 516.449 -1.31603 -1.39115 0
M  V30 5751 H 514.754 -0.541525 -3.8804 0
M  V30 5752 H 516.451 -0.932368 -3.9001 0
M  V30 5753 H 513.041 -2.33324 -3.59524 0
M  V30 5754 H 517.225 -3.30841 -3.69943 0
M  V30 5755 H 512.481 -4.70707 -3.90186 0
M  V30 5756 H 516.655 -5.68746 -4.01872 0
M  V30 5757 H 514.282 -6.39135 -4.11596 0
M  V30 5758 N 515.857 1.33968 -0.830081 0
M  V30 5759 C 517.082 2.02813 -0.433796 0
M  V30 5760 C 517.507 1.62076 0.954614 0
M  V30 5761 O 516.865 0.808955 1.62252 0
M  V30 5762 C 516.913 3.56348 -0.552115 0
M  V30 5763 O 516.017 4.10202 0.425191 0
M  V30 5764 H 515.358 0.639817 -0.177567 0
M  V30 5765 H 517.888 1.7106 -1.12248 0
M  V30 5766 H 517.898 4.05722 -0.430513 0
M  V30 5767 H 516.573 3.85344 -1.56471 0
M  V30 5768 H 515.15 3.71979 0.261878 0
M  V30 5769 N 517.335 0.585699 1.46312 0
M  V30 5770 C 518.56 0.0762461 2.0726 0
M  V30 5771 C 518.985 -1.22071 1.43109 0
M  V30 5772 O 518.343 -1.73804 0.515942 0
M  V30 5773 C 518.391 -0.0729404 3.60526 0
M  V30 5774 O 517.495 -1.1287 3.96654 0
M  V30 5775 H 516.836 0.0641558 0.660893 0
M  V30 5776 H 519.366 0.809492 1.87905 0
M  V30 5777 H 519.376 -0.278158 4.07051 0
M  V30 5778 H 518.051 0.874188 4.06609 0
M  V30 5779 H 516.628 -0.901703 3.61834 0
M  V30 5780 N 518.813 -1.54241 0.323641 0
M  V30 5781 C 519.743 -2.27289 -0.534993 0
M  V30 5782 C 520.724 -1.28087 -1.11927 0
M  V30 5783 O 521.909 -1.56899 -1.14439 0
M  V30 5784 C 519.039 -3.03075 -1.69596 0
M  V30 5785 C 517.993 -4.09614 -1.24098 0
M  V30 5786 C 517.319 -4.73242 -2.4889 0
M  V30 5787 C 518.619 -5.21087 -0.355789 0
M  V30 5788 H 520.313 -2.99308 0.0743257 0
M  V30 5789 H 517.859 -1.43952 0.0371874 0
M  V30 5790 H 519.812 -3.52907 -2.30293 0
M  V30 5791 H 518.536 -2.28673 -2.33187 0
M  V30 5792 H 517.195 -3.60666 -0.656945 0
M  V30 5793 H 516.843 -3.95455 -3.10845 0
M  V30 5794 H 516.543 -5.45209 -2.19138 0
M  V30 5795 H 518.067 -5.25848 -3.10348 0
M  V30 5796 H 519.481 -5.66675 -0.869042 0
M  V30 5797 H 517.878 -5.9991 -0.151045 0
M  V30 5798 H 518.948 -4.81005 0.613339 0
M  V30 5799 N 520.291 -0.0518155 -1.57515 0
M  V30 5800 C 521.537 0.622745 -1.93002 0
M  V30 5801 C 521.87 1.70456 -0.930499 0
M  V30 5802 O 521.145 1.94452 0.0434086 0
M  V30 5803 C 521.428 1.21824 -3.38867 0
M  V30 5804 C 521.281 0.144434 -4.49568 0
M  V30 5805 C 522.6 2.12968 -3.8514 0
M  V30 5806 H 519.719 0.22491 -0.701844 0
M  V30 5807 H 522.361 -0.113711 -1.89659 0
M  V30 5808 H 520.511 1.8459 -3.41846 0
M  V30 5809 H 522.183 -0.48753 -4.58717 0
M  V30 5810 H 520.426 -0.527424 -4.30582 0
M  V30 5811 H 521.097 0.601127 -5.48717 0
M  V30 5812 H 523.573 1.60163 -3.8404 0
M  V30 5813 H 522.449 2.51578 -4.87852 0
M  V30 5814 H 522.71 3.03004 -3.21934 0
M  V30 5815 N 521.769 1.56035 0.221574 0
M  V30 5816 C 523.016 1.79047 0.94597 0
M  V30 5817 C 523.344 0.62057 1.84334 0
M  V30 5818 O 522.599 -0.395053 1.91671 0
M  V30 5819 C 522.898 3.07813 1.8162 0
M  V30 5820 C 522.564 4.3797 1.07206 0
M  V30 5821 C 521.226 4.73334 0.866508 0
M  V30 5822 C 523.578 5.18326 0.546565 0
M  V30 5823 C 520.906 5.8657 0.123549 0
M  V30 5824 C 523.258 6.32335 -0.18305 0
M  V30 5825 C 521.922 6.66301 -0.399861 0
M  V30 5826 H 521.192 0.655178 0.346155 0
M  V30 5827 H 523.839 1.90299 0.214146 0
M  V30 5828 H 522.144 2.91682 2.61589 0
M  V30 5829 H 523.841 3.2282 2.37884 0
M  V30 5830 H 520.431 4.10202 1.24226 0
M  V30 5831 H 524.615 4.9144 0.692847 0
M  V30 5832 H 519.871 6.11376 -0.0546591 0
M  V30 5833 H 524.045 6.9383 -0.59775 0
M  V30 5834 H 521.672 7.53889 -0.977489 0
M  V30 5835 N 523.247 -0.488276 1.49845 0
M  V30 5836 C 524.494 -1.24157 1.59973 0
M  V30 5837 C 524.822 -1.92293 0.292182 0
M  V30 5838 O 524.077 -1.81942 -0.720813 0
M  V30 5839 C 524.376 -2.32152 2.71735 0
M  V30 5840 C 524.042 -1.81387 4.12807 0
M  V30 5841 C 522.704 -1.67262 4.51195 0
M  V30 5842 C 525.056 -1.43537 5.01045 0
M  V30 5843 C 522.384 -1.13685 5.7558 0
M  V30 5844 C 524.736 -0.914081 6.25961 0
M  V30 5845 C 523.4 -0.759327 6.63167 0
M  V30 5846 H 522.67 -0.454322 0.585383 0
M  V30 5847 H 525.317 -0.540261 1.83721 0
M  V30 5848 H 523.622 -3.08122 2.42008 0
M  V30 5849 H 525.319 -2.90164 2.76778 0
M  V30 5850 H 521.909 -1.93344 3.82513 0
M  V30 5851 H 526.093 -1.53292 4.72033 0
M  V30 5852 H 521.349 -1.00426 6.03096 0
M  V30 5853 H 525.523 -0.612066 6.93705 0
M  V30 5854 H 523.15 -0.342002 7.5943 0
M  V30 5855 N 524.725 -1.39134 -0.740242 0
M  V30 5856 C 525.688 -1.37217 -1.83587 0
M  V30 5857 C 526.688 -0.270221 -1.58513 0
M  V30 5858 O 527.878 -0.527843 -1.6601 0
M  V30 5859 C 525.01 -1.13959 -3.21288 0
M  V30 5860 H 526.203 -2.34705 -1.86691 0
M  V30 5861 H 523.756 -1.24622 -0.94335 0
M  V30 5862 H 524.491 -0.17131 -3.23847 0
M  V30 5863 H 524.276 -1.93754 -3.40884 0
M  V30 5864 H 525.766 -1.15346 -4.01354 0
M  V30 5865 N 526.204 0.969867 -1.24223 0
M  V30 5866 C 527.114 2.09806 -1.0497 0
M  V30 5867 C 528.13 1.73998 0.00886455 0
M  V30 5868 O 529.306 2.00513 -0.188848 0
M  V30 5869 C 526.371 3.40467 -0.654452 0
M  V30 5870 C 525.432 3.90236 -1.78926 0
M  V30 5871 C 524.665 5.14662 -1.41277 0
M  V30 5872 O 524.888 5.69602 -0.301632 0
M  V30 5873 O 523.822 5.58761 -2.23763 0
M  V30 5874 H 527.648 2.28942 -1.99548 0
M  V30 5875 H 525.233 1.08197 -1.03023 0
M  V30 5876 H 527.115 4.19039 -0.445452 0
M  V30 5877 H 525.79 3.22636 0.262216 0
M  V30 5878 H 524.697 3.12735 -2.05299 0
M  V30 5879 H 526.03 4.1254 -2.68462 0
M  V30 5880 N 527.682 1.05563 1.17022 0
M  V30 5881 C 528.629 0.659893 2.21165 0
M  V30 5882 C 529.599 -0.339813 1.62587 0
M  V30 5883 O 530.784 -0.230378 1.89404 0
M  V30 5884 C 527.924 0.0447297 3.45071 0
M  V30 5885 C 527.037 1.09372 4.17926 0
M  V30 5886 C 526.172 0.445481 5.29329 0
M  V30 5887 C 525.211 1.47852 5.93975 0
M  V30 5888 N 524.348 0.854172 6.96885 0
M  V30 5889 H 529.188 1.55243 2.54369 0
M  V30 5890 H 526.725 0.776336 1.24946 0
M  V30 5891 H 528.683 -0.329404 4.15898 0
M  V30 5892 H 527.313 -0.811244 3.1244 0
M  V30 5893 H 526.365 1.58564 3.45777 0
M  V30 5894 H 527.677 1.87773 4.62107 0
M  V30 5895 H 526.831 0.0179688 6.06697 0
M  V30 5896 H 525.57 -0.370481 4.86291 0
M  V30 5897 H 524.575 1.91601 5.15334 0
M  V30 5898 H 525.8 2.29645 6.39093 0
M  V30 5899 H 523.746 0.0587882 6.55974 0
M  V30 5900 H 523.663 1.57567 7.39397 0
M  V30 5901 H 524.931 0.451559 7.78191 0
M  V30 5902 N 529.16 -1.33526 0.837174 0
M  V30 5903 C 530.437 -1.92369 0.354065 0
M  V30 5904 C 530.817 -1.76348 -1.16038 0
M  V30 5905 O 530.165 -1.15083 -1.97403 0
M  V30 5906 C 530.375 -3.39728 0.799101 0
M  V30 5907 C 531.723 -4.16877 0.806139 0
M  V30 5908 O 532.747 -3.48373 0.742597 0
M  V30 5909 O 531.606 -5.39166 0.892345 0
M  V30 5910 H 528.7 -0.820952 0.0998378 0
M  V30 5911 H 531.246 -1.42409 0.922913 0
M  V30 5912 H 530.018 -3.45254 1.84162 0
M  V30 5913 H 529.641 -3.97062 0.206731 0
M  V30 5914 N 530.638 -0.59345 -1.46 0
M  V30 5915 C 531.548 0.135817 -2.34207 0
M  V30 5916 C 532.564 0.875008 -1.50398 0
M  V30 5917 O 533.74 0.835778 -1.83239 0
M  V30 5918 C 530.805 1.12977 -3.27776 0
M  V30 5919 C 529.866 0.394081 -4.27487 0
M  V30 5920 C 529.099 1.34068 -5.16586 0
M  V30 5921 O 529.322 2.5778 -5.08828 0
M  V30 5922 O 528.256 0.845426 -5.95933 0
M  V30 5923 H 532.082 -0.588691 -2.9794 0
M  V30 5924 H 529.667 -0.353784 -1.45151 0
M  V30 5925 H 531.549 1.70261 -3.85473 0
M  V30 5926 H 530.224 1.83556 -2.66625 0
M  V30 5927 H 529.131 -0.220869 -3.73447 0
M  V30 5928 H 530.464 -0.270939 -4.91454 0
M  V30 5929 N 532.116 1.54067 -0.331816 0
M  V30 5930 C 533.393 1.92915 0.322955 0
M  V30 5931 C 533.773 1.26225 1.69205 0
M  V30 5932 O 533.121 0.408919 2.24811 0
M  V30 5933 C 533.331 3.46619 0.406946 0
M  V30 5934 C 534.679 4.19386 0.663339 0
M  V30 5935 O 535.703 3.5282 0.489536 0
M  V30 5936 O 534.562 5.37288 0.999193 0
M  V30 5937 H 531.656 0.805808 0.186016 0
M  V30 5938 H 534.202 1.65342 -0.382135 0
M  V30 5939 H 532.974 3.87354 -0.554287 0
M  V30 5940 H 532.597 3.80324 1.15929 0
M  V30 5941 N 533.594 0.0601682 1.57485 0
M  V30 5942 C 534.557 -0.896373 2.10945 0
M  V30 5943 C 535.557 -1.23402 1.03095 0
M  V30 5944 O 536.747 -1.16921 1.29132 0
M  V30 5945 C 533.879 -2.20346 2.60116 0
M  V30 5946 H 535.072 -0.432778 2.96761 0
M  V30 5947 H 532.625 -0.188372 1.55161 0
M  V30 5948 H 533.36 -2.71268 1.7772 0
M  V30 5949 H 533.145 -1.9714 3.38937 0
M  V30 5950 H 534.635 -2.88846 3.01592 0
M  V30 5951 N 535.072 -1.5615 -0.213296 0
M  V30 5952 C 536.3 -1.83638 -0.953139 0
M  V30 5953 C 536.715 -0.640362 -1.77609 0
M  V30 5954 O 536.072 0.391071 -1.78261 0
M  V30 5955 C 536.123 -3.09735 -1.86405 0
M  V30 5956 O 535.844 -4.24723 -1.07435 0
M  V30 5957 C 537.345 -3.5027 -2.71709 0
M  V30 5958 H 534.565 -0.610263 -0.278962 0
M  V30 5959 H 537.109 -2.03247 -0.226035 0
M  V30 5960 H 535.264 -2.92077 -2.545 0
M  V30 5961 H 535.678 -4.9641 -1.69343 0
M  V30 5962 H 537.152 -4.41515 -3.31313 0
M  V30 5963 H 537.629 -2.72406 -3.44516 0
M  V30 5964 H 538.235 -3.70396 -2.09015 0
M  V30 5965 N 536.55 0.480323 -1.50102 0
M  V30 5966 C 537.497 1.57946 -1.6829 0
M  V30 5967 C 538.467 1.57611 -0.524223 0
M  V30 5968 O 539.652 1.75282 -0.753709 0
M  V30 5969 C 536.792 2.95978 -1.77457 0
M  V30 5970 C 535.905 3.06173 -3.04766 0
M  V30 5971 C 535.04 4.35063 -3.04784 0
M  V30 5972 C 534.079 4.38966 -4.26586 0
M  V30 5973 N 533.216 5.59314 -4.24396 0
M  V30 5974 H 538.056 1.41743 -2.62131 0
M  V30 5975 H 535.593 0.689304 -1.2995 0
M  V30 5976 H 537.551 3.76011 -1.80752 0
M  V30 5977 H 536.181 3.10837 -0.870637 0
M  V30 5978 H 535.233 2.19071 -3.10986 0
M  V30 5979 H 536.545 3.04916 -3.9475 0
M  V30 5980 H 535.699 5.23436 -3.06757 0
M  V30 5981 H 534.438 4.38915 -2.12614 0
M  V30 5982 H 533.443 3.48992 -4.24835 0
M  V30 5983 H 534.668 4.36813 -5.19972 0
M  V30 5984 H 532.614 5.63969 -3.35074 0
M  V30 5985 H 532.531 5.5976 -5.08138 0
M  V30 5986 H 533.799 6.49837 -4.30502 0
M  V30 5987 N 538.028 1.39524 0.732853 0
M  V30 5988 C 539.275 1.36865 1.49246 0
M  V30 5989 C 539.603 -0.0347118 1.94469 0
M  V30 5990 O 538.858 -1.01596 1.67262 0
M  V30 5991 C 539.157 2.28916 2.74468 0
M  V30 5992 C 538.823 3.76506 2.481 0
M  V30 5993 C 537.485 4.16721 2.40619 0
M  V30 5994 C 539.837 4.69846 2.25598 0
M  V30 5995 C 537.165 5.48334 2.08679 0
M  V30 5996 C 539.517 6.01739 1.95174 0
M  V30 5997 C 538.181 6.41015 1.86163 0
M  V30 5998 H 537.451 0.500824 0.546129 0
M  V30 5999 H 540.098 1.72047 0.840958 0
M  V30 6000 H 538.403 1.86859 3.4437 0
M  V30 6001 H 540.1 2.2415 3.32502 0
M  V30 6002 H 536.69 3.44635 2.54803 0
M  V30 6003 H 540.874 4.39608 2.30344 0
M  V30 6004 H 536.13 5.77685 2.00226 0
M  V30 6005 H 540.304 6.73591 1.76771 0
M  V30 6006 H 537.931 7.42917 1.61179 0
M  V30 6007 N 539.506 -0.963266 1.24736 0
M  V30 6008 C 540.734 -1.74166 1.11686 0
M  V30 6009 C 541.149 -1.8589 -0.330187 0
M  V30 6010 O 540.506 -1.35042 -1.2276 0
M  V30 6011 C 540.557 -3.15989 1.75595 0
M  V30 6012 O 540.278 -3.04847 3.14642 0
M  V30 6013 C 541.779 -4.10145 1.68213 0
M  V30 6014 H 538.999 -0.546031 0.389989 0
M  V30 6015 H 541.543 -1.20907 1.64929 0
M  V30 6016 H 539.698 -3.66219 1.26343 0
M  V30 6017 H 540.112 -3.9425 3.4593 0
M  V30 6018 H 541.586 -5.07299 2.17604 0
M  V30 6019 H 542.063 -4.3445 0.644208 0
M  V30 6020 H 542.669 -3.65827 2.16912 0
M  V30 6021 N 540.985 -1.06182 -1.16461 0
M  V30 6022 C 542.21 -0.798599 -1.91408 0
M  V30 6023 C 542.635 0.640987 -1.76842 0
M  V30 6024 O 541.993 1.44652 -1.09296 0
M  V30 6025 C 542.041 -1.19665 -3.40165 0
M  V30 6026 O 541.145 -0.334768 -4.11039 0
M  V30 6027 H 540.486 -0.291961 -0.596368 0
M  V30 6028 H 543.016 -1.41732 -1.47557 0
M  V30 6029 H 543.026 -1.16772 -3.90933 0
M  V30 6030 H 541.701 -2.24526 -3.50087 0
M  V30 6031 H 540.278 -0.425168 -3.70468 0
M  V30 6032 N 542.463 1.3308 -0.844243 0
M  V30 6033 C 543.712 1.96868 -0.438833 0
M  V30 6034 C 544.025 1.67599 1.00846 0
M  V30 6035 O 545.231 2.25043 1.51881 0
M  V30 6036 C 543.687 3.5234 -0.73377 0
M  V30 6037 C 543.295 3.90481 -2.1961 0
M  V30 6038 C 545.039 4.22653 -0.395574 0
M  V30 6039 C 542.946 5.38954 -2.43481 0
M  V30 6040 H 541.876 0.736749 -0.160364 0
M  V30 6041 H 544.527 1.51623 -1.03358 0
M  V30 6042 H 542.909 3.95941 -0.068589 0
M  V30 6043 H 544.083 3.57922 -2.90221 0
M  V30 6044 H 542.398 3.33165 -2.4978 0
M  V30 6045 H 544.995 5.31848 -0.551477 0
M  V30 6046 H 545.338 4.11004 0.661921 0
M  V30 6047 H 545.871 3.84601 -1.01621 0
M  V30 6048 H 542.61 5.55612 -3.47816 0
M  V30 6049 H 542.13 5.72954 -1.77437 0
M  V30 6050 H 543.809 6.05907 -2.26905 0
M  V30 6051 N 543.941 0.601185 1.45683 0
M  V30 6052 C 545.352 0.179659 1.85834 0
M  V30 6053 C 545.703 -1.26189 1.50236 0
M  V30 6054 O 544.828 -1.95587 0.925987 0
M  V30 6055 C 545.423 0.319277 3.37292 0
M  V30 6056 C 543.982 -0.0475092 3.7637 0
M  V30 6057 C 543.129 0.646692 2.69654 0
M  V30 6058 H 546.08 0.808268 1.36575 0
M  V30 6059 H 546.101 -0.4503 3.77826 0
M  V30 6060 H 545.613 1.36855 3.6317 0
M  V30 6061 H 543.714 -1.0962 3.5611 0
M  V30 6062 H 543.827 0.34168 4.7788 0
M  V30 6063 H 542.191 0.0849971 2.54558 0
M  V30 6064 H 542.974 1.69797 2.98369 0
M  V30 6065 N 545.419 -1.53889 0.339982 0
M  V30 6066 C 546.382 -2.23547 -0.50592 0
M  V30 6067 C 547.382 -1.23445 -1.03044 0
M  V30 6068 O 548.572 -1.47909 -0.920253 0
M  V30 6069 C 545.704 -2.95234 -1.7044 0
M  V30 6070 H 546.897 -2.99722 0.103247 0
M  V30 6071 H 544.45 -1.56033 0.0912804 0
M  V30 6072 H 545.185 -2.23236 -2.35236 0
M  V30 6073 H 544.97 -3.68654 -1.33553 0
M  V30 6074 H 546.46 -3.48258 -2.30447 0
M  V30 6075 N 546.897 -0.0685191 -1.57451 0
M  V30 6076 C 548.122 0.613919 -1.98106 0
M  V30 6077 C 548.547 1.62551 -0.946501 0
M  V30 6078 O 547.905 1.81085 0.0882824 0
M  V30 6079 C 547.953 1.26189 -3.378 0
M  V30 6080 O 547.057 2.37773 -3.36954 0
M  V30 6081 H 546.398 0.158163 -0.644888 0
M  V30 6082 H 548.928 -0.142063 -2.04106 0
M  V30 6083 H 548.938 1.60951 -3.74912 0
M  V30 6084 H 547.613 0.520625 -4.12629 0
M  V30 6085 H 546.19 2.04829 -3.11608 0
M  V30 6086 N 548.375 1.56261 0.205012 0
M  V30 6087 C 549.622 1.8004 0.926927 0
M  V30 6088 C 549.95 0.640086 1.83666 0
M  V30 6089 O 549.205 -0.374702 1.92079 0
M  V30 6090 C 549.504 3.09722 1.78345 0
M  V30 6091 C 549.17 4.39082 1.02555 0
M  V30 6092 C 547.832 4.74226 0.816256 0
M  V30 6093 C 550.184 5.18877 0.491559 0
M  V30 6094 C 547.512 5.86668 0.0613287 0
M  V30 6095 C 549.864 6.32105 -0.250107 0
M  V30 6096 C 548.528 6.6584 -0.470508 0
M  V30 6097 H 547.798 0.658812 0.339187 0
M  V30 6098 H 550.445 1.90515 0.19395 0
M  V30 6099 H 548.75 2.9444 2.5848 0
M  V30 6100 H 550.447 3.25324 2.34446 0
M  V30 6101 H 547.037 4.11497 1.19868 0
M  V30 6102 H 551.221 4.92147 0.640684 0
M  V30 6103 H 546.477 6.11283 -0.119501 0
M  V30 6104 H 550.651 6.93157 -0.671307 0
M  V30 6105 H 548.278 7.5281 -1.05739 0
M  V30 6106 N 549.853 -0.472356 1.50355 0
M  V30 6107 C 551.099 -1.22348 1.62488 0
M  V30 6108 C 551.454 -1.89711 0.320574 0
M  V30 6109 O 550.747 -1.79074 -0.68141 0
M  V30 6110 C 550.941 -2.29257 2.74182 0
M  V30 6111 C 550.77 -1.72383 4.15348 0
M  V30 6112 C 549.54 -1.52411 4.81766 0
M  V30 6113 C 551.738 -1.21949 4.99633 0
M  V30 6114 N 549.72 -0.907669 6.07153 0
M  V30 6115 C 551.091 -0.726191 6.15732 0
M  V30 6116 C 553.146 -1.10792 4.85417 0
M  V30 6117 C 551.849 -0.132322 7.19178 0
M  V30 6118 C 553.875 -0.52799 5.89038 0
M  V30 6119 C 553.237 -0.0450604 7.04386 0
M  V30 6120 H 549.336 -0.436631 0.648751 0
M  V30 6121 H 551.92 -0.525698 1.87469 0
M  V30 6122 H 550.091 -2.96464 2.50926 0
M  V30 6123 H 551.823 -2.9628 2.75681 0
M  V30 6124 H 548.578 -1.776 4.39039 0
M  V30 6125 H 549.002 -0.617897 6.74174 0
M  V30 6126 H 553.644 -1.46722 3.96525 0
M  V30 6127 H 551.362 0.239187 8.07746 0
M  V30 6128 H 554.948 -0.444046 5.80103 0
M  V30 6129 H 553.828 0.396659 7.83196 0
M  V30 6130 N 551.331 -1.39911 -0.725443 0
M  V30 6131 C 552.577 -1.38862 -1.48624 0
M  V30 6132 C 552.932 0.0125913 -1.92396 0
M  V30 6133 O 552.225 0.981046 -1.64578 0
M  V30 6134 C 552.419 -2.30368 -2.7325 0
M  V30 6135 C 552.248 -3.79247 -2.41665 0
M  V30 6136 C 551.018 -4.48119 -2.3349 0
M  V30 6137 C 553.216 -4.70988 -2.06579 0
M  V30 6138 N 551.198 -5.82282 -1.94476 0
M  V30 6139 C 552.569 -5.93873 -1.78087 0
M  V30 6140 C 554.624 -4.58917 -1.9313 0
M  V30 6141 C 553.327 -7.06036 -1.37499 0
M  V30 6142 C 555.353 -5.71012 -1.53946 0
M  V30 6143 C 554.715 -6.92976 -1.26345 0
M  V30 6144 H 550.814 -0.563394 -0.54232 0
M  V30 6145 H 553.398 -1.75542 -0.842213 0
M  V30 6146 H 551.569 -1.95831 -3.35417 0
M  V30 6147 H 553.301 -2.20245 -3.39521 0
M  V30 6148 H 550.056 -4.01677 -2.50904 0
M  V30 6149 H 550.48 -6.53307 -1.77535 0
M  V30 6150 H 555.122 -3.65149 -2.13134 0
M  V30 6151 H 552.84 -7.99697 -1.16237 0
M  V30 6152 H 556.426 -5.63664 -1.44132 0
M  V30 6153 H 555.306 -7.78243 -0.964787 0
M  V30 6154 N 552.809 0.956637 -1.25245 0
M  V30 6155 C 553.772 2.03457 -1.05537 0
M  V30 6156 C 554.772 1.60798 -0.00886317 0
M  V30 6157 O 555.962 1.72384 -0.250865 0
M  V30 6158 C 553.094 3.35543 -0.601965 0
M  V30 6159 H 554.287 2.22372 -2.01223 0
M  V30 6160 H 551.84 1.13344 -1.07623 0
M  V30 6161 H 552.575 3.22323 0.357584 0
M  V30 6162 H 552.36 3.67854 -1.35743 0
M  V30 6163 H 553.85 4.14769 -0.485454 0
M  V30 6164 N 554.287 1.06798 1.15896 0
M  V30 6165 C 555.515 0.808694 1.90441 0
M  V30 6166 C 555.93 -0.637506 1.77711 0
M  V30 6167 O 555.287 -1.43684 1.12522 0
M  V30 6168 C 555.338 1.20068 3.40978 0
M  V30 6169 O 555.059 2.59013 3.53333 0
M  V30 6170 C 556.56 0.96987 4.3256 0
M  V30 6171 H 553.78 0.292809 0.603742 0
M  V30 6172 H 556.324 1.42296 1.46874 0
M  V30 6173 H 554.479 0.630842 3.82229 0
M  V30 6174 H 554.893 2.7485 4.46719 0
M  V30 6175 H 556.367 1.29371 5.36626 0
M  V30 6176 H 556.844 -0.0941209 4.39099 0
M  V30 6177 H 557.45 1.52433 3.97044 0
M  V30 6178 N 555.766 -1.3263 0.851289 0
M  V30 6179 C 557.015 -1.96633 0.449267 0
M  V30 6180 C 557.328 -1.68131 -0.999562 0
M  V30 6181 O 558.534 -2.25845 -1.50685 0
M  V30 6182 C 556.99 -3.51946 0.752446 0
M  V30 6183 C 556.598 -3.89311 2.21678 0
M  V30 6184 C 558.342 -4.22437 0.417983 0
M  V30 6185 C 556.249 -5.37655 2.46336 0
M  V30 6186 H 555.179 -0.735888 0.164269 0
M  V30 6187 H 557.83 -1.51073 1.0416 0
M  V30 6188 H 556.212 -3.95899 0.0895858 0
M  V30 6189 H 557.386 -3.56378 2.92115 0
M  V30 6190 H 555.701 -3.31836 2.51543 0
M  V30 6191 H 558.298 -5.31549 0.579674 0
M  V30 6192 H 558.641 -4.11349 -0.640115 0
M  V30 6193 H 559.174 -3.84057 1.03659 0
M  V30 6194 H 555.913 -5.5376 3.50757 0
M  V30 6195 H 555.433 -5.72005 1.80473 0
M  V30 6196 H 557.112 -6.04695 2.30115 0
M  V30 6197 N 557.244 -0.608902 -1.45362 0
M  V30 6198 C 558.472 -0.111013 -2.06602 0
M  V30 6199 C 558.887 1.20516 -1.45332 0
M  V30 6200 O 558.244 1.73437 -0.567978 0
M  V30 6201 C 558.295 0.033688 -3.61484 0
M  V30 6202 O 558.016 -1.23041 -4.20467 0
M  V30 6203 C 559.517 0.562882 -4.39712 0
M  V30 6204 H 556.737 -0.0694453 -0.667397 0
M  V30 6205 H 559.281 -0.837008 -1.86586 0
M  V30 6206 H 557.436 0.710016 -3.80838 0
M  V30 6207 H 557.85 -1.06094 -5.13658 0
M  V30 6208 H 559.324 0.613213 -5.48583 0
M  V30 6209 H 559.801 1.58543 -4.09586 0
M  V30 6210 H 560.407 -0.0794454 -4.25226 0
M  V30 6211 N 558.722 1.53707 -0.348139 0
M  V30 6212 C 559.655 2.21481 0.549667 0
M  V30 6213 C 560.633 1.20046 1.09671 0
M  V30 6214 O 561.817 1.48883 1.15612 0
M  V30 6215 C 558.944 2.89585 1.75664 0
M  V30 6216 C 557.99 4.04948 1.33864 0
M  V30 6217 S 558.823 5.34325 0.354577 0
M  V30 6218 C 559.979 6.05934 1.56828 0
M  V30 6219 H 560.212 2.97289 -0.0259755 0
M  V30 6220 H 557.745 1.53833 -0.132216 0
M  V30 6221 H 559.703 3.29441 2.44906 0
M  V30 6222 H 558.364 2.13535 2.30351 0
M  V30 6223 H 557.557 4.51552 2.23868 0
M  V30 6224 H 557.159 3.66893 0.725651 0
M  V30 6225 H 559.451 6.29606 2.50205 0
M  V30 6226 H 560.394 6.98799 1.14395 0
M  V30 6227 H 560.802 5.36151 1.76642 0
M  V30 6228 N 560.2 0.0768682 1.57412 0
M  V30 6229 C 561.428 -0.59997 1.9801 0
M  V30 6230 C 561.843 -1.62842 0.955408 0
M  V30 6231 O 561.2 -1.8241 -0.057314 0
M  V30 6232 C 561.251 -1.26401 3.38681 0
M  V30 6233 O 560.972 -0.276723 4.37225 0
M  V30 6234 C 562.473 -2.0282 3.94182 0
M  V30 6235 H 559.693 -0.162239 0.651091 0
M  V30 6236 H 562.237 0.150771 2.03943 0
M  V30 6237 H 560.392 -1.96581 3.33819 0
M  V30 6238 H 560.806 -0.753744 5.19056 0
M  V30 6239 H 562.28 -2.44667 4.94815 0
M  V30 6240 H 562.757 -2.88678 3.31001 0
M  V30 6241 H 563.363 -1.37496 4.02461 0
M  V30 6242 N 561.678 -1.56367 -0.196722 0
M  V30 6243 C 562.906 -1.84639 -0.933608 0
M  V30 6244 C 563.321 -0.659164 -1.76919 0
M  V30 6245 O 562.678 0.372142 -1.78665 0
M  V30 6246 C 562.729 -3.11694 -1.83109 0
M  V30 6247 O 562.45 -4.25838 -1.02924 0
M  V30 6248 C 563.951 -3.53132 -2.67979 0
M  V30 6249 H 561.171 -0.613188 -0.272473 0
M  V30 6250 H 563.715 -2.03475 -0.204465 0
M  V30 6251 H 561.87 -2.94759 -2.51387 0
M  V30 6252 H 562.284 -4.98178 -1.64069 0
M  V30 6253 H 563.758 -4.45005 -3.26611 0
M  V30 6254 H 564.235 -2.76045 -3.41608 0
M  V30 6255 H 564.841 -3.72592 -2.05074 0
M  V30 6256 N 563.156 0.464375 -1.50603 0
M  V30 6257 C 564.402 1.21776 -1.62168 0
M  V30 6258 C 564.735 1.91476 -0.324154 0
M  V30 6259 O 564.01 1.8242 0.674782 0
M  V30 6260 C 564.293 2.25614 -2.80661 0
M  V30 6261 C 564.146 1.60175 -4.20314 0
M  V30 6262 C 565.465 3.26862 -2.94702 0
M  V30 6263 H 562.584 0.44137 -0.590222 0
M  V30 6264 H 565.226 0.510623 -1.8301 0
M  V30 6265 H 563.376 2.85923 -2.63021 0
M  V30 6266 H 565.048 1.03411 -4.4956 0
M  V30 6267 H 563.291 0.904697 -4.24261 0
M  V30 6268 H 563.962 2.35665 -4.99165 0
M  V30 6269 H 566.438 2.76582 -3.10872 0
M  V30 6270 H 565.314 3.96839 -3.79223 0
M  V30 6271 H 565.575 3.91382 -2.05603 0
M  V30 6272 N 564.634 1.40294 0.718013 0
M  V30 6273 C 565.882 1.38167 1.47494 0
M  V30 6274 C 566.203 -0.01607 1.94993 0
M  V30 6275 O 565.473 -0.970396 1.70177 0
M  V30 6276 H 564.053 0.508505 0.547203 0
M  V30 6277 H 566.715 1.75324 0.851322 0
M  V30 6278 H 565.811 2.05503 2.34894 0
M  V30 6279 N 566.112 -0.949982 1.2575 0
M  V30 6280 C 567.342 -1.72721 1.13363 0
M  V30 6281 C 567.75 -1.86562 -0.314842 0
M  V30 6282 O 567.093 -1.36621 -1.22803 0
M  V30 6283 C 567.155 -3.15695 1.7198 0
M  V30 6284 C 566.819 -3.25268 3.21014 0
M  V30 6285 C 567.816 -3.09222 4.17945 0
M  V30 6286 C 565.501 -3.4894 3.61312 0
M  V30 6287 C 567.495 -3.16701 5.53154 0
M  V30 6288 C 565.182 -3.56055 4.96657 0
M  V30 6289 C 566.18 -3.3995 5.92387 0
M  V30 6290 O 565.868 -3.46757 7.25269 0
M  V30 6291 H 565.6 -0.547888 0.395973 0
M  V30 6292 H 568.154 -1.20009 1.66694 0
M  V30 6293 H 566.384 -3.69791 1.13101 0
M  V30 6294 H 568.073 -3.75295 1.54624 0
M  V30 6295 H 568.839 -2.90798 3.88151 0
M  V30 6296 H 564.718 -3.60534 2.87291 0
M  V30 6297 H 568.262 -3.04048 6.27854 0
M  V30 6298 H 564.159 -3.73997 5.26115 0
M  V30 6299 H 564.927 -3.63358 7.33426 0
M  V30 6300 N 567.59 -1.07411 -1.15328 0
M  V30 6301 C 568.838 -0.796073 -1.85761 0
M  V30 6302 C 569.159 0.679864 -1.82764 0
M  V30 6303 O 568.429 1.49242 -1.269 0
M  V30 6304 H 567.009 -0.291495 -0.687779 0
M  V30 6305 H 569.671 -1.35799 -1.39802 0
M  V30 6306 H 568.767 -1.13114 -2.90881 0
M  V30 6307 N 569.068 1.32177 -0.85831 0
M  V30 6308 C 570.345 1.91781 -0.384624 0
M  V30 6309 C 570.725 1.78171 1.13217 0
M  V30 6310 O 570.073 1.18209 1.95548 0
M  V30 6311 C 570.283 3.38414 -0.853047 0
M  V30 6312 C 571.631 4.15542 -0.872359 0
M  V30 6313 O 572.655 3.47148 -0.797926 0
M  V30 6314 O 571.514 5.37678 -0.978009 0
M  V30 6315 H 568.608 0.819259 -0.112886 0
M  V30 6316 H 571.154 1.40923 -0.945453 0
M  V30 6317 H 569.926 3.4228 -1.89632 0
M  V30 6318 H 569.549 3.96683 -0.269874 0
M  V30 6319 N 570.547 0.616602 1.45037 0
M  V30 6320 C 571.796 0.112861 2.01384 0
M  V30 6321 C 572.109 -1.26758 1.48969 0
M  V30 6322 O 573.315 -1.86454 1.9735 0
M  V30 6323 C 571.771 0.151057 3.59583 0
M  V30 6324 C 571.379 1.53191 4.20995 0
M  V30 6325 C 573.123 -0.296974 4.2346 0
M  V30 6326 C 571.03 1.526 5.71373 0
M  V30 6327 H 569.96 0.0384254 0.75302 0
M  V30 6328 H 572.611 0.773262 1.66412 0
M  V30 6329 H 570.993 -0.57617 3.91786 0
M  V30 6330 H 572.167 2.28156 4.00352 0
M  V30 6331 H 570.482 1.92279 3.69348 0
M  V30 6332 H 573.079 -0.320712 5.33737 0
M  V30 6333 H 573.422 -1.32145 3.9477 0
M  V30 6334 H 573.955 0.377279 3.96007 0
M  V30 6335 H 570.694 2.52837 6.04776 0
M  V30 6336 H 570.214 0.819064 5.94181 0
M  V30 6337 H 571.893 1.25357 6.3474 0
M  V30 6338 N 572.025 -1.5352 0.356285 0
M  V30 6339 C 573.255 -2.05236 -0.236983 0
M  V30 6340 C 573.663 -1.23016 -1.43749 0
M  V30 6341 O 573.006 -0.2615 -1.81829 0
M  V30 6342 C 573.068 -3.52549 -0.7035 0
M  V30 6343 C 572.732 -4.55425 0.379059 0
M  V30 6344 C 573.729 -5.0524 1.22592 0
M  V30 6345 C 571.414 -4.99425 0.536638 0
M  V30 6346 C 573.408 -5.97647 2.21578 0
M  V30 6347 C 571.095 -5.9164 1.52988 0
M  V30 6348 C 572.093 -6.4064 2.3679 0
M  V30 6349 O 571.781 -7.31039 3.34421 0
M  V30 6350 H 571.513 -0.674346 -0.047254 0
M  V30 6351 H 574.067 -1.98962 0.510238 0
M  V30 6352 H 572.297 -3.56331 -1.50217 0
M  V30 6353 H 573.986 -3.87171 -1.21873 0
M  V30 6354 H 574.752 -4.72002 1.11532 0
M  V30 6355 H 570.631 -4.60879 -0.105834 0
M  V30 6356 H 574.175 -6.35816 2.87025 0
M  V30 6357 H 570.072 -6.24293 1.64099 0
M  V30 6358 H 570.84 -7.49009 3.30041 0
M  V30 6359 N 573.503 -0.0852151 -1.57369 0
M  V30 6360 C 574.914 0.445428 -1.81309 0
M  V30 6361 C 575.265 1.68795 -1.00013 0
M  V30 6362 O 574.39 2.15211 -0.226573 0
M  V30 6363 C 574.985 0.814887 -3.28854 0
M  V30 6364 C 573.544 1.29032 -3.53592 0
M  V30 6365 C 572.691 0.282089 -2.75861 0
M  V30 6366 H 575.642 -0.310771 -1.55627 0
M  V30 6367 H 575.663 1.67524 -3.41637 0
M  V30 6368 H 575.175 -0.0896309 -3.87996 0
M  V30 6369 H 573.276 2.21289 -2.9977 0
M  V30 6370 H 573.389 1.25898 -4.62262 0
M  V30 6371 H 571.753 0.762182 -2.43029 0
M  V30 6372 H 572.536 -0.614936 -3.37748 0
M  V30 6373 N 574.981 1.5647 0.188427 0
M  V30 6374 C 575.928 1.95073 1.23349 0
M  V30 6375 C 576.898 0.812238 1.44886 0
M  V30 6376 O 578.083 1.07095 1.57909 0
M  V30 6377 C 575.223 2.30124 2.57171 0
M  V30 6378 C 574.336 3.57069 2.43157 0
M  V30 6379 C 573.471 3.81411 3.69729 0
M  V30 6380 C 572.51 5.0176 3.50575 0
M  V30 6381 N 571.647 5.22321 4.69175 0
M  V30 6382 H 576.487 2.84171 0.89728 0
M  V30 6383 H 574.024 1.40623 0.431683 0
M  V30 6384 H 575.982 2.48463 3.35145 0
M  V30 6385 H 574.612 1.44159 2.88822 0
M  V30 6386 H 573.664 3.4674 1.56447 0
M  V30 6387 H 574.976 4.452 2.24942 0
M  V30 6388 H 574.13 4.00026 4.56141 0
M  V30 6389 H 572.869 2.91624 3.90905 0
M  V30 6390 H 571.874 4.83061 2.62549 0
M  V30 6391 H 573.099 5.93063 3.30837 0
M  V30 6392 H 571.045 4.35483 4.90602 0
M  V30 6393 H 570.962 6.04643 4.53809 0
M  V30 6394 H 572.23 5.45401 5.56919 0
M  V30 6395 N 576.459 -0.456382 1.50847 0
M  V30 6396 C 577.687 -1.23026 1.66349 0
M  V30 6397 C 578.102 -1.85473 0.352868 0
M  V30 6398 O 577.459 -1.69885 -0.666739 0
M  V30 6399 C 577.51 -2.32827 2.76539 0
M  V30 6400 O 577.231 -1.72938 4.02522 0
M  V30 6401 C 578.732 -3.23448 3.03144 0
M  V30 6402 H 575.952 -0.371527 0.558756 0
M  V30 6403 H 578.496 -0.543082 1.97157 0
M  V30 6404 H 576.651 -2.97294 2.48384 0
M  V30 6405 H 577.065 -2.45357 4.63573 0
M  V30 6406 H 578.539 -3.96669 3.83872 0
M  V30 6407 H 579.016 -3.83094 2.14793 0
M  V30 6408 H 579.622 -2.64702 3.32886 0
M  V30 6409 N 577.937 -1.40673 -0.710563 0
M  V30 6410 C 578.867 -1.44095 -1.83736 0
M  V30 6411 C 579.848 -0.301286 -1.67411 0
M  V30 6412 O 581.033 -0.510618 -1.87367 0
M  V30 6413 C 578.163 -1.30773 -3.21738 0
M  V30 6414 C 577.117 -2.42395 -3.52745 0
M  V30 6415 C 576.443 -2.14147 -4.89944 0
M  V30 6416 C 577.743 -3.84738 -3.53234 0
M  V30 6417 H 579.437 -2.38396 -1.81129 0
M  V30 6418 H 576.983 -1.14746 -0.870017 0
M  V30 6419 H 578.936 -1.31783 -4.00264 0
M  V30 6420 H 577.66 -0.329507 -3.24934 0
M  V30 6421 H 576.319 -2.40643 -2.76562 0
M  V30 6422 H 575.967 -1.14703 -4.89747 0
M  V30 6423 H 575.667 -2.88934 -5.11655 0
M  V30 6424 H 577.191 -2.16848 -5.70797 0
M  V30 6425 H 578.605 -3.88286 -4.2179 0
M  V30 6426 H 577.002 -4.59085 -3.86473 0
M  V30 6427 H 578.072 -4.13962 -2.52514 0
M  V30 6428 N 579.415 0.9433 -1.26252 0
M  V30 6429 C 580.345 2.05902 -1.10122 0
M  V30 6430 C 581.326 1.70099 -0.00700552 0
M  V30 6431 O 582.511 1.93377 -0.178641 0
M  V30 6432 C 579.641 3.39516 -0.731175 0
M  V30 6433 C 578.595 3.89372 -1.77688 0
M  V30 6434 C 577.921 5.19613 -1.26122 0
M  V30 6435 C 579.221 4.14489 -3.17799 0
M  V30 6436 H 580.915 2.19655 -2.03451 0
M  V30 6437 H 578.461 1.05548 -0.979576 0
M  V30 6438 H 580.414 4.17031 -0.605215 0
M  V30 6439 H 579.138 3.25733 0.23782 0
M  V30 6440 H 577.797 3.14036 -1.89148 0
M  V30 6441 H 577.445 5.02208 -0.282128 0
M  V30 6442 H 577.145 5.53939 -1.96023 0
M  V30 6443 H 578.669 5.99713 -1.14789 0
M  V30 6444 H 580.083 4.82625 -3.09428 0
M  V30 6445 H 578.48 4.60094 -3.85271 0
M  V30 6446 H 579.55 3.20347 -3.64014 0
M  V30 6447 N 580.893 1.08022 1.14757 0
M  V30 6448 C 582.141 0.805913 1.85336 0
M  V30 6449 C 582.462 -0.670162 1.83122 0
M  V30 6450 O 581.732 -1.48567 1.2769 0
M  V30 6451 H 580.312 0.295138 0.686223 0
M  V30 6452 H 582.974 1.36538 1.3908 0
M  V30 6453 H 582.07 1.14655 2.90277 0
M  V30 6454 N 582.371 -1.3172 0.865308 0
M  V30 6455 C 583.318 -2.2863 0.315736 0
M  V30 6456 C 584.288 -1.55524 -0.583213 0
M  V30 6457 O 585.473 -1.83694 -0.51585 0
M  V30 6458 C 582.613 -3.41735 -0.480773 0
M  V30 6459 C 581.726 -4.297 0.445167 0
M  V30 6460 C 580.861 -5.29944 -0.365012 0
M  V30 6461 C 579.9 -6.09554 0.557651 0
M  V30 6462 N 579.037 -7.01768 -0.215994 0
M  V30 6463 H 583.877 -2.75026 1.14736 0
M  V30 6464 H 581.414 -1.35302 0.577209 0
M  V30 6465 H 583.372 -4.06045 -0.958306 0
M  V30 6466 H 582.002 -2.96461 -1.27714 0
M  V30 6467 H 581.054 -3.65875 1.04113 0
M  V30 6468 H 582.366 -4.85295 1.15284 0
M  V30 6469 H 581.52 -5.99908 -0.905255 0
M  V30 6470 H 580.259 -4.74994 -1.106 0
M  V30 6471 H 579.264 -5.38485 1.10969 0
M  V30 6472 H 580.489 -6.66591 1.29742 0
M  V30 6473 H 578.435 -6.49232 -0.939878 0
M  V30 6474 H 578.352 -7.54762 0.432431 0
M  V30 6475 H 579.62 -7.76002 -0.737618 0
M  V30 6476 N 583.85 -0.624285 -1.44708 0
M  V30 6477 C 585.099 -0.123539 -2.01321 0
M  V30 6478 C 585.412 1.25966 -1.49639 0
M  V30 6479 O 586.618 1.85405 -1.98336 0
M  V30 6480 C 585.074 -0.170124 -3.59498 0
M  V30 6481 C 584.682 -1.55421 -4.20176 0
M  V30 6482 C 586.426 0.274513 -4.23611 0
M  V30 6483 C 584.332 -1.55628 -5.70556 0
M  V30 6484 H 583.263 -0.0424183 -0.752806 0
M  V30 6485 H 585.913 -0.782076 -1.65999 0
M  V30 6486 H 584.296 0.555385 -3.92086 0
M  V30 6487 H 585.47 -2.30276 -3.99136 0
M  V30 6488 H 583.784 -1.94235 -3.68323 0
M  V30 6489 H 586.382 0.292402 -5.339 0
M  V30 6490 H 586.725 1.3005 -3.95465 0
M  V30 6491 H 587.258 -0.398275 -3.95801 0
M  V30 6492 H 583.997 -2.56041 -6.03426 0
M  V30 6493 H 583.517 -0.850563 -5.93739 0
M  V30 6494 H 585.196 -1.28721 -6.34066 0
M  V30 6495 N 585.328 1.53329 -0.364422 0
M  V30 6496 C 586.574 2.01537 0.225969 0
M  V30 6497 C 586.907 1.25128 1.48515 0
M  V30 6498 O 586.182 0.344653 1.91422 0
M  V30 6499 C 586.465 3.56339 0.519092 0
M  V30 6500 C 586.318 4.43441 -0.753639 0
M  V30 6501 C 587.637 4.19833 1.32015 0
M  V30 6502 H 584.756 0.732573 0.0806548 0
M  V30 6503 H 587.398 1.83597 -0.489084 0
M  V30 6504 H 585.548 3.71756 1.12825 0
M  V30 6505 H 587.22 4.39823 -1.39116 0
M  V30 6506 H 585.463 4.11457 -1.37424 0
M  V30 6507 H 586.134 5.49699 -0.503517 0
M  V30 6508 H 588.61 4.08242 0.804859 0
M  V30 6509 H 587.486 5.28177 1.49399 0
M  V30 6510 H 587.747 3.75821 2.32832 0
M  V30 6511 N 586.806 0.0935595 1.57322 0
M  V30 6512 C 588.054 -0.569383 1.93913 0
M  V30 6513 C 588.375 -1.68817 0.976009 0
M  V30 6514 O 587.645 -1.9588 0.0278099 0
M  V30 6515 H 586.225 -0.21332 0.715894 0
M  V30 6516 H 588.887 0.156531 1.9427 0
M  V30 6517 H 587.983 -0.980577 2.96296 0
M  V30 6518 N 588.284 -1.56567 -0.180126 0
M  V30 6519 C 589.532 -1.81133 -0.896392 0
M  V30 6520 C 589.853 -0.669114 -1.83161 0
M  V30 6521 O 589.123 0.311616 -1.93406 0
M  V30 6522 H 587.703 -0.668172 -0.333999 0
M  V30 6523 H 590.365 -1.94048 -0.182051 0
M  V30 6524 H 589.461 -2.74854 -1.47857 0
M  V30 6525 N 589.762 0.448376 -1.51087 0
M  V30 6526 C 590.692 1.55102 -1.74544 0
M  V30 6527 C 591.673 1.59357 -0.594932 0
M  V30 6528 O 592.858 1.75261 -0.836491 0
M  V30 6529 C 589.988 2.93268 -1.86041 0
M  V30 6530 C 588.942 3.03877 -3.01402 0
M  V30 6531 C 588.268 4.43914 -2.98068 0
M  V30 6532 C 589.568 2.7898 -4.41551 0
M  V30 6533 H 591.262 1.35724 -2.66869 0
M  V30 6534 H 588.808 0.651498 -1.28419 0
M  V30 6535 H 590.761 3.70356 -2.01034 0
M  V30 6536 H 589.485 3.13853 -0.903548 0
M  V30 6537 H 588.144 2.29227 -2.86096 0
M  V30 6538 H 587.792 4.6145 -2.00182 0
M  V30 6539 H 587.492 4.51944 -3.75527 0
M  V30 6540 H 589.016 5.22991 -3.1514 0
M  V30 6541 H 590.43 3.45805 -4.57265 0
M  V30 6542 H 588.827 2.98431 -5.20633 0
M  V30 6543 H 589.897 1.74663 -4.5235 0
M  V30 6544 N 591.24 1.41047 0.703093 0
M  V30 6545 C 592.48 1.41461 1.4754 0
M  V30 6546 C 592.844 0.0199013 1.9199 0
M  V30 6547 O 594.045 -0.101138 2.6861 0
M  V30 6548 C 592.316 2.38703 2.66 0
M  V30 6549 S 593.875 2.57582 3.55242 0
M  V30 6550 H 590.693 0.501226 0.504275 0
M  V30 6551 H 593.295 1.77422 0.821074 0
M  V30 6552 H 591.999 3.3885 2.31536 0
M  V30 6553 H 591.53 2.04069 3.36333 0
M  V30 6554 H 593.545 1.83758 4.6092 0
M  V30 6555 N 592.718 -0.936591 1.26751 0
M  V30 6556 C 593.958 -1.69796 1.13792 0
M  V30 6557 C 594.322 -1.89437 -0.312671 0
M  V30 6558 O 595.523 -2.62806 -0.564489 0
M  V30 6559 C 593.794 -3.03297 1.89065 0
M  V30 6560 S 595.353 -3.94461 1.92214 0
M  V30 6561 H 592.171 -0.583412 0.406389 0
M  V30 6562 H 594.773 -1.11575 1.60535 0
M  V30 6563 H 593.477 -2.86687 2.93665 0
M  V30 6564 H 593.008 -3.66575 1.42781 0
M  V30 6565 H 595.023 -4.85767 1.01215 0
M  V30 6566 N 594.196 -1.08629 -1.14182 0
M  V30 6567 C 595.445 -0.812271 -1.84621 0
M  V30 6568 C 595.758 0.664313 -1.83973 0
M  V30 6569 O 596.964 1.05357 -2.50224 0
M  V30 6570 C 595.42 -1.4031 -3.31423 0
M  V30 6571 C 595.028 -2.91164 -3.40481 0
M  V30 6572 C 596.772 -1.20767 -4.06959 0
M  V30 6573 C 594.679 -3.43373 -4.81507 0
M  V30 6574 H 593.609 -0.30019 -0.691666 0
M  V30 6575 H 596.26 -1.30798 -1.28701 0
M  V30 6576 H 594.642 -0.835096 -3.87094 0
M  V30 6577 H 595.816 -3.5412 -2.94848 0
M  V30 6578 H 594.131 -3.09646 -2.78403 0
M  V30 6579 H 596.728 -1.57237 -5.11058 0
M  V30 6580 H 597.071 -0.147664 -4.16038 0
M  V30 6581 H 597.604 -1.74274 -3.57594 0
M  V30 6582 H 594.343 -4.48958 -4.77616 0
M  V30 6583 H 593.863 -2.85176 -5.27669 0
M  V30 6584 H 595.542 -3.40095 -5.50404 0
M  V30 6585 N 595.674 1.31259 -0.872281 0
M  V30 6586 C 596.637 2.26744 -0.334656 0
M  V30 6587 C 597.637 1.52307 0.515681 0
M  V30 6588 O 598.827 1.71148 0.324656 0
M  V30 6589 C 595.959 3.36841 0.524482 0
M  V30 6590 H 597.152 2.75812 -1.17762 0
M  V30 6591 H 594.705 1.42232 -0.648064 0
M  V30 6592 H 595.44 2.93069 1.38855 0
M  V30 6593 H 595.225 3.92009 -0.0844299 0
M  V30 6594 H 596.715 4.07944 0.892838 0
M  V30 6595 N 597.152 0.631951 1.44375 0
M  V30 6596 C 598.4 0.136497 2.01639 0
M  V30 6597 C 598.721 -1.24637 1.49969 0
M  V30 6598 O 597.991 -1.82827 0.70363 0
M  V30 6599 H 596.571 0.0474703 0.74549 0
M  V30 6600 H 599.233 0.818837 1.76865 0
M  V30 6601 H 598.329 0.104817 3.11924 0
M  V30 6602 N 598.631 -1.53133 0.372548 0
M  V30 6603 C 599.877 -2.01654 -0.215277 0
M  V30 6604 C 600.21 -1.25914 -1.47849 0
M  V30 6605 O 599.485 -0.3548 -1.91237 0
M  V30 6606 C 599.768 -3.56609 -0.500187 0
M  V30 6607 C 599.621 -4.43036 0.777145 0
M  V30 6608 C 600.94 -4.20528 -1.29786 0
M  V30 6609 H 598.059 -0.732991 -0.0767686 0
M  V30 6610 H 600.701 -1.83335 0.498814 0
M  V30 6611 H 598.851 -3.7235 -1.10852 0
M  V30 6612 H 600.523 -4.39079 1.41447 0
M  V30 6613 H 598.766 -4.10723 1.39604 0
M  V30 6614 H 599.437 -5.49424 0.532662 0
M  V30 6615 H 601.913 -4.08663 -0.783198 0
M  V30 6616 H 600.789 -5.28962 -1.46596 0
M  V30 6617 H 601.05 -3.77051 -2.30836 0
M  V30 6618 N 600.109 -0.101901 -1.5727 0
M  V30 6619 C 601.039 0.851544 -2.17419 0
M  V30 6620 C 602.02 1.28942 -1.10941 0
M  V30 6621 O 603.205 1.35509 -1.39107 0
M  V30 6622 C 600.335 2.10816 -2.75996 0
M  V30 6623 C 599.289 1.80867 -3.87906 0
M  V30 6624 C 598.615 3.13413 -4.33216 0
M  V30 6625 C 599.915 1.0903 -5.10793 0
M  V30 6626 H 601.609 0.350381 -2.97343 0
M  V30 6627 H 599.155 0.16709 -1.43027 0
M  V30 6628 H 601.108 2.77959 -3.16729 0
M  V30 6629 H 599.832 2.63227 -1.93337 0
M  V30 6630 H 598.491 1.16119 -3.47724 0
M  V30 6631 H 598.139 3.63725 -3.47438 0
M  V30 6632 H 597.839 2.94155 -5.08671 0
M  V30 6633 H 599.363 3.81704 -4.76586 0
M  V30 6634 H 600.777 1.66295 -5.48652 0
M  V30 6635 H 599.174 0.99927 -5.91722 0
M  V30 6636 H 600.244 0.0741704 -4.84843 0
M  V30 6637 N 601.587 1.56661 0.17182 0
M  V30 6638 C 602.833 1.82235 0.889845 0
M  V30 6639 C 603.166 0.679673 1.81918 0
M  V30 6640 O 602.441 -0.318404 1.91876 0
M  V30 6641 C 602.724 3.18195 1.68595 0
M  V30 6642 C 602.577 4.42989 0.779773 0
M  V30 6643 C 603.896 3.5109 2.65375 0
M  V30 6644 H 601.015 0.66291 0.322056 0
M  V30 6645 H 603.657 1.89358 0.15608 0
M  V30 6646 H 601.807 3.12253 2.3115 0
M  V30 6647 H 603.479 4.60997 0.16714 0
M  V30 6648 H 601.722 4.33711 0.0877964 0
M  V30 6649 H 602.393 5.3467 1.3723 0
M  V30 6650 H 604.869 3.57482 2.12946 0
M  V30 6651 H 603.745 4.47298 3.18144 0
M  V30 6652 H 604.006 2.75768 3.45549 0
M  V30 6653 N 603.065 -0.440357 1.51323 0
M  V30 6654 C 604.314 -1.18697 1.63076 0
M  V30 6655 C 604.627 -1.92418 0.35136 0
M  V30 6656 O 605.833 -2.69258 0.348221 0
M  V30 6657 C 604.289 -2.15849 2.87988 0
M  V30 6658 C 603.897 -1.47789 4.22921 0
M  V30 6659 C 605.641 -2.90962 3.09098 0
M  V30 6660 C 603.548 -2.43407 5.38987 0
M  V30 6661 H 602.478 -0.44676 0.607389 0
M  V30 6662 H 605.129 -0.454313 1.77787 0
M  V30 6663 H 603.511 -2.92537 2.66905 0
M  V30 6664 H 604.685 -0.7668 4.54375 0
M  V30 6665 H 603 -0.848404 4.07665 0
M  V30 6666 H 605.597 -3.62584 3.92985 0
M  V30 6667 H 605.94 -3.52133 2.22053 0
M  V30 6668 H 606.473 -2.21381 3.30507 0
M  V30 6669 H 603.212 -1.86929 6.28282 0
M  V30 6670 H 602.732 -3.12579 5.11913 0
M  V30 6671 H 604.411 -3.046 5.70813 0
M  V30 6672 N 604.543 -1.41418 -0.695603 0
M  V30 6673 C 605.506 -1.42988 -1.79129 0
M  V30 6674 C 606.506 -0.320514 -1.57573 0
M  V30 6675 O 607.696 -0.58039 -1.64247 0
M  V30 6676 C 604.828 -1.24122 -3.175 0
M  V30 6677 H 606.021 -2.40526 -1.7913 0
M  V30 6678 H 603.574 -1.2756 -0.903225 0
M  V30 6679 H 604.309 -0.274253 -3.23138 0
M  V30 6680 H 604.094 -2.045 -3.34547 0
M  V30 6681 H 605.584 -1.28056 -3.97481 0
M  V30 6682 N 606.021 0.929856 -1.27246 0
M  V30 6683 C 606.951 2.04722 -1.12299 0
M  V30 6684 C 607.932 1.70082 -0.0250464 0
M  V30 6685 O 609.117 1.93176 -0.199141 0
M  V30 6686 C 606.247 3.38721 -0.767145 0
M  V30 6687 C 605.201 3.87466 -1.81808 0
M  V30 6688 C 604.527 5.18246 -1.31626 0
M  V30 6689 C 605.827 4.11095 -3.22177 0
M  V30 6690 H 607.521 2.17485 -2.05769 0
M  V30 6691 H 605.067 1.04503 -0.990715 0
M  V30 6692 H 607.02 4.16366 -0.649413 0
M  V30 6693 H 605.744 3.25967 0.203259 0
M  V30 6694 H 604.403 3.12012 -1.92468 0
M  V30 6695 H 604.051 5.01881 -0.335378 0
M  V30 6696 H 603.751 5.51829 -2.01887 0
M  V30 6697 H 605.275 5.98462 -1.21143 0
M  V30 6698 H 606.689 4.79316 -3.1453 0
M  V30 6699 H 605.086 4.55982 -3.90129 0
M  V30 6700 H 606.156 3.16468 -3.67391 0
M  V30 6701 N 607.499 1.09233 1.13605 0
M  V30 6702 C 608.91 0.846839 1.6639 0
M  V30 6703 C 609.261 -0.625031 1.85978 0
M  V30 6704 O 608.386 -1.48173 1.57714 0
M  V30 6705 C 608.981 1.5307 3.0225 0
M  V30 6706 C 607.54 1.33223 3.52035 0
M  V30 6707 C 606.687 1.58806 2.27323 0
M  V30 6708 H 609.638 1.25175 0.975541 0
M  V30 6709 H 609.659 0.96267 3.68121 0
M  V30 6710 H 609.171 2.60192 2.87961 0
M  V30 6711 H 607.272 0.282091 3.71531 0
M  V30 6712 H 607.385 2.0657 4.32279 0
M  V30 6713 H 605.749 1.01007 2.33815 0
M  V30 6714 H 606.532 2.67153 2.15602 0
M  V30 6715 N 608.977 -1.30795 0.87923 0
M  V30 6716 C 610.226 -1.95636 0.490875 0
M  V30 6717 C 610.539 -1.70214 -0.963674 0
M  V30 6718 O 611.745 -2.28991 -1.45861 0
M  V30 6719 C 610.201 -3.50271 0.826929 0
M  V30 6720 C 609.809 -3.84521 2.29886 0
M  V30 6721 C 611.553 -4.21456 0.507494 0
M  V30 6722 C 609.46 -5.32309 2.57685 0
M  V30 6723 H 608.39 -0.732238 0.179841 0
M  V30 6724 H 611.041 -1.48829 1.07341 0
M  V30 6725 H 609.423 -3.9562 0.173542 0
M  V30 6726 H 610.597 -3.50102 2.99609 0
M  V30 6727 H 608.912 -3.26425 2.58526 0
M  V30 6728 H 611.509 -5.30199 0.692293 0
M  V30 6729 H 611.852 -4.12614 -0.552718 0
M  V30 6730 H 612.385 -3.81772 1.11782 0
M  V30 6731 H 609.124 -5.46195 3.62424 0
M  V30 6732 H 608.644 -5.68048 1.92566 0
M  V30 6733 H 610.323 -5.99678 2.42889 0
M  V30 6734 N 610.455 -0.639598 -1.44038 0
M  V30 6735 C 611.866 -0.228866 -1.85292 0
M  V30 6736 C 612.217 1.22161 -1.53529 0
M  V30 6737 O 611.342 1.93064 -0.977518 0
M  V30 6738 C 611.937 -0.408592 -3.36327 0
M  V30 6739 C 610.496 -0.0522953 -3.76364 0
M  V30 6740 C 609.643 -0.717959 -2.67844 0
M  V30 6741 H 612.594 -0.844194 -1.34384 0
M  V30 6742 H 612.615 0.349968 -3.78887 0
M  V30 6743 H 612.127 -1.46435 -3.59414 0
M  V30 6744 H 610.228 1.0014 -3.58891 0
M  V30 6745 H 610.341 -0.468261 -4.76806 0
M  V30 6746 H 608.705 -0.152459 -2.54243 0
M  V30 6747 H 609.488 -1.77648 -2.93762 0
M  V30 6748 N 611.933 1.52934 -0.380664 0
M  V30 6749 C 613.182 2.00651 0.205477 0
M  V30 6750 C 613.495 1.27164 1.48623 0
M  V30 6751 O 614.701 1.65547 2.15189 0
M  V30 6752 C 613.157 3.57479 0.416726 0
M  V30 6753 C 612.765 4.39857 -0.850268 0
M  V30 6754 C 614.509 4.13509 0.959702 0
M  V30 6755 C 612.416 5.88269 -0.607773 0
M  V30 6756 H 611.346 0.749684 0.0805614 0
M  V30 6757 H 613.997 1.76508 -0.501732 0
M  V30 6758 H 612.379 3.77836 1.18557 0
M  V30 6759 H 613.553 4.31269 -1.62307 0
M  V30 6760 H 611.868 3.95005 -1.31756 0
M  V30 6761 H 614.465 5.22039 1.15669 0
M  V30 6762 H 614.808 3.69054 1.92626 0
M  V30 6763 H 615.341 3.9701 0.250645 0
M  V30 6764 H 612.08 6.3703 -1.54509 0
M  V30 6765 H 611.6 5.99667 0.126247 0
M  V30 6766 H 613.279 6.46558 -0.239014 0
M  V30 6767 N 613.412 0.11024 1.57214 0
M  V30 6768 C 614.661 -0.549638 1.94067 0
M  V30 6769 C 614.974 -1.68388 0.995234 0
M  V30 6770 O 616.18 -2.40593 1.25807 0
M  V30 6771 C 614.636 -1.02912 3.44873 0
M  V30 6772 C 614.244 0.0761861 4.47935 0
M  V30 6773 C 615.988 -1.66087 3.9066 0
M  V30 6774 C 613.895 -0.419502 5.8991 0
M  V30 6775 H 612.825 -0.209092 0.724428 0
M  V30 6776 H 615.476 0.188683 1.82527 0
M  V30 6777 H 613.858 -1.82159 3.51616 0
M  V30 6778 H 615.032 0.852185 4.52851 0
M  V30 6779 H 613.347 0.614052 4.11847 0
M  V30 6780 H 615.944 -2.04272 4.94143 0
M  V30 6781 H 616.287 -2.53591 3.30148 0
M  V30 6782 H 616.82 -0.933959 3.86681 0
M  V30 6783 H 613.559 0.419277 6.54158 0
M  V30 6784 H 613.079 -1.16217 5.88433 0
M  V30 6785 H 614.758 -0.883577 6.40938 0
M  V30 6786 N 614.89 -1.56749 -0.16351 0
M  V30 6787 C 616.136 -1.82704 -0.880168 0
M  V30 6788 C 616.469 -0.689311 -1.81555 0
M  V30 6789 O 615.744 0.308224 -1.92042 0
M  V30 6790 C 616.027 -3.19084 -1.66905 0
M  V30 6791 C 615.88 -4.43397 -0.756269 0
M  V30 6792 C 617.199 -3.52493 -2.63509 0
M  V30 6793 H 614.318 -0.664608 -0.318535 0
M  V30 6794 H 616.96 -1.89438 -0.146036 0
M  V30 6795 H 615.11 -3.13475 -2.2949 0
M  V30 6796 H 616.782 -4.61079 -0.14269 0
M  V30 6797 H 615.025 -4.33752 -0.0647944 0
M  V30 6798 H 615.696 -5.3539 -1.34393 0
M  V30 6799 H 618.172 -3.58606 -2.11047 0
M  V30 6800 H 617.048 -4.48979 -3.15767 0
M  V30 6801 H 617.309 -2.77597 -3.44082 0
M  V30 6802 N 616.368 0.432326 -1.51554 0
M  V30 6803 C 617.316 1.54572 -1.73811 0
M  V30 6804 C 618.31 1.58246 -0.604539 0
M  V30 6805 O 619.516 1.6193 -0.786041 0
M  V30 6806 H 615.891 0.513626 -0.549265 0
M  V30 6807 H 617.862 1.32977 -2.67132 0
M  V30 6808 C 616.611 2.92181 -1.88483 0
M  V30 6809 H 615.934 2.90088 -2.75116 0
M  V30 6810 H 617.374 3.69439 -2.08065 0
M  V30 6811 C 615.833 3.3065 -0.645909 0
M  V30 6812 O 616.363 4.01216 0.197093 0
M  V30 6813 N 614.569 2.86464 -0.488538 0
M  V30 6814 H 614.116 2.29209 -1.17562 0
M  V30 6815 H 614.074 3.12565 0.339156 0
M  V30 6816 N 617.846 1.41785 0.688094 0
M  V30 6817 C 618.794 1.44436 1.82321 0
M  V30 6818 C 619.788 0.321544 1.6632 0
M  V30 6819 O 620.994 0.493931 1.73091 0
M  V30 6820 H 617.369 0.452084 0.600936 0
M  V30 6821 H 619.34 2.40087 1.77202 0
M  V30 6822 C 618.089 1.35071 3.20392 0
M  V30 6823 H 617.412 2.2076 3.33324 0
M  V30 6824 H 618.852 1.40988 3.99873 0
M  V30 6825 C 617.311 0.0639127 3.36839 0
M  V30 6826 O 617.841 -0.888495 3.91751 0
M  V30 6827 N 616.047 -0.0146114 2.90596 0
M  V30 6828 H 615.594 0.761191 2.46097 0
M  V30 6829 H 615.552 -0.874988 3.01979 0
M  V30 6830 N 619.324 -0.923095 1.27737 0
M  V30 6831 C 620.571 -1.67127 1.14345 0
M  V30 6832 C 620.899 -1.92017 -0.30982 0
M  V30 6833 O 620.154 -1.51185 -1.24264 0
M  V30 6834 C 620.453 -3.04125 1.8773 0
M  V30 6835 C 620.119 -2.98929 3.37568 0
M  V30 6836 C 618.781 -2.9722 3.78436 0
M  V30 6837 C 621.133 -2.89875 4.33154 0
M  V30 6838 C 618.461 -2.84244 5.13247 0
M  V30 6839 C 620.813 -2.7844 5.68026 0
M  V30 6840 C 619.477 -2.75083 6.08182 0
M  V30 6841 H 618.747 -0.611562 0.418417 0
M  V30 6842 H 621.394 -1.07618 1.584 0
M  V30 6843 H 619.699 -3.67366 1.36196 0
M  V30 6844 H 621.396 -3.609 1.74792 0
M  V30 6845 H 617.986 -3.0105 3.05069 0
M  V30 6846 H 622.17 -2.9029 4.02548 0
M  V30 6847 H 617.426 -2.80034 5.43499 0
M  V30 6848 H 621.6 -2.70401 6.4176 0
M  V30 6849 H 619.227 -2.64786 7.12596 0
M  V30 6850 N 620.802 -1.09834 -1.13024 0
M  V30 6851 C 622.027 -0.85909 -1.88771 0
M  V30 6852 C 622.452 0.584402 -1.78791 0
M  V30 6853 O 621.81 1.41101 -1.13842 0
M  V30 6854 C 621.858 -1.30427 -3.36186 0
M  V30 6855 O 620.962 -0.465368 -4.09766 0
M  V30 6856 H 620.303 -0.310786 -0.586778 0
M  V30 6857 H 622.833 -1.46355 -1.42973 0
M  V30 6858 H 622.843 -1.2915 -3.8702 0
M  V30 6859 H 621.518 -2.3555 -3.42767 0
M  V30 6860 H 620.095 -0.542814 -3.68928 0
M  V30 6861 N 622.28 1.30327 -0.886154 0
M  V30 6862 C 623.19 2.31854 -0.357866 0
M  V30 6863 C 624.206 1.65392 0.540502 0
M  V30 6864 O 625.382 1.96683 0.433339 0
M  V30 6865 C 622.447 3.44171 0.417999 0
M  V30 6866 C 621.508 4.26257 -0.510263 0
M  V30 6867 C 620.741 5.3321 0.228669 0
M  V30 6868 O 620.964 5.51542 1.45458 0
M  V30 6869 O 619.898 6.0042 -0.421832 0
M  V30 6870 H 623.724 2.78995 -1.19982 0
M  V30 6871 H 621.309 1.34518 -0.650028 0
M  V30 6872 H 623.191 4.12588 0.857251 0
M  V30 6873 H 621.866 2.99164 1.23623 0
M  V30 6874 H 620.773 3.60533 -0.99835 0
M  V30 6875 H 622.106 4.74871 -1.29454 0
M  V30 6876 N 623.758 0.647228 1.43697 0
M  V30 6877 C 625.005 0.158188 2.01881 0
M  V30 6878 C 625.333 -1.22573 1.51017 0
M  V30 6879 O 624.588 -1.83086 0.69122 0
M  V30 6880 C 624.887 0.111481 3.57226 0
M  V30 6881 C 624.553 1.43633 4.27411 0
M  V30 6882 C 623.215 1.79915 4.463 0
M  V30 6883 C 625.567 2.31011 4.67208 0
M  V30 6884 C 622.895 3.03251 5.02251 0
M  V30 6885 C 625.247 3.53633 5.24525 0
M  V30 6886 C 623.911 3.90118 5.41631 0
M  V30 6887 H 623.181 0.0578851 0.738736 0
M  V30 6888 H 625.828 0.836746 1.72252 0
M  V30 6889 H 624.133 -0.650507 3.86362 0
M  V30 6890 H 625.83 -0.283682 3.99995 0
M  V30 6891 H 622.42 1.14403 4.1305 0
M  V30 6892 H 626.604 2.04272 4.52313 0
M  V30 6893 H 621.86 3.31575 5.13681 0
M  V30 6894 H 626.034 4.21561 5.5431 0
M  V30 6895 H 623.661 4.85768 5.84751 0
M  V30 6896 N 625.236 -1.5273 0.388769 0
M  V30 6897 C 626.466 -2.05693 -0.193397 0
M  V30 6898 C 626.874 -1.26038 -1.41107 0
M  V30 6899 O 626.217 -0.30001 -1.81234 0
M  V30 6900 C 626.279 -3.53962 -0.628561 0
M  V30 6901 C 625.943 -4.54519 0.475576 0
M  V30 6902 C 626.94 -5.02526 1.33281 0
M  V30 6903 C 624.625 -4.98174 0.642453 0
M  V30 6904 C 626.619 -5.92812 2.34205 0
M  V30 6905 C 624.306 -5.88262 1.65503 0
M  V30 6906 C 625.304 -6.35473 2.50325 0
M  V30 6907 O 624.992 -7.23781 3.49852 0
M  V30 6908 H 624.724 -0.675197 -0.0329395 0
M  V30 6909 H 627.278 -1.97835 0.552326 0
M  V30 6910 H 625.508 -3.59437 -1.42625 0
M  V30 6911 H 627.197 -3.89669 -1.13633 0
M  V30 6912 H 627.963 -4.6953 1.21519 0
M  V30 6913 H 623.842 -4.60999 -0.00805093 0
M  V30 6914 H 627.386 -6.29585 3.00447 0
M  V30 6915 H 623.283 -6.20672 1.77304 0
M  V30 6916 H 624.051 -7.4184 3.45855 0
M  V30 6917 N 626.714 -0.118576 -1.57153 0
M  V30 6918 C 627.661 0.831789 -2.1529 0
M  V30 6919 C 628.631 1.26385 -1.07778 0
M  V30 6920 O 629.816 1.34144 -1.35684 0
M  V30 6921 C 626.956 2.07664 -2.75626 0
M  V30 6922 C 626.069 1.69298 -3.97444 0
M  V30 6923 C 625.204 2.88747 -4.45868 0
M  V30 6924 C 624.243 2.46619 -5.60219 0
M  V30 6925 N 623.38 3.5898 -6.03389 0
M  V30 6926 H 628.22 0.329183 -2.96176 0
M  V30 6927 H 625.757 0.150792 -1.46325 0
M  V30 6928 H 627.715 2.80601 -3.08738 0
M  V30 6929 H 626.345 2.55384 -1.97431 0
M  V30 6930 H 625.397 0.862374 -3.70496 0
M  V30 6931 H 626.709 1.34338 -4.80369 0
M  V30 6932 H 625.863 3.69909 -4.80887 0
M  V30 6933 H 624.602 3.26933 -3.61892 0
M  V30 6934 H 623.607 1.63889 -5.24805 0
M  V30 6935 H 624.832 2.0955 -6.45961 0
M  V30 6936 H 622.778 3.9684 -5.22354 0
M  V30 6937 H 622.695 3.27942 -6.81168 0
M  V30 6938 H 623.963 4.40583 -6.43045 0
M  V30 6939 N 628.193 1.56834 0.155195 0
M  V30 6940 C 629.103 2.009 1.21146 0
M  V30 6941 C 630.119 0.923029 1.475 0
M  V30 6942 O 631.295 1.23189 1.59331 0
M  V30 6943 C 628.36 2.37378 2.52691 0
M  V30 6944 C 627.421 3.59883 2.34057 0
M  V30 6945 C 626.654 3.94612 3.59329 0
M  V30 6946 O 626.877 3.30104 4.65175 0
M  V30 6947 O 625.811 4.87895 3.52479 0
M  V30 6948 H 629.637 2.9105 0.867371 0
M  V30 6949 H 627.222 1.44916 0.363298 0
M  V30 6950 H 629.104 2.61737 3.3026 0
M  V30 6951 H 627.779 1.50385 2.86646 0
M  V30 6952 H 626.686 3.40722 1.54465 0
M  V30 6953 H 628.019 4.47468 2.0502 0
M  V30 6954 N 629.671 -0.424282 1.51781 0
M  V30 6955 C 630.603 -1.53457 1.70246 0
M  V30 6956 C 631.616 -1.52004 0.582967 0
M  V30 6957 O 632.805 -1.56544 0.857683 0
M  V30 6958 C 629.905 -2.92368 1.71389 0
M  V30 6959 C 629.078 -3.1818 3.00133 0
M  V30 6960 C 628.137 -4.36884 2.9329 0
M  V30 6961 O 627.163 -4.34901 3.67219 0
M  V30 6962 N 628.365 -5.4117 2.10036 0
M  V30 6963 H 631.13 -1.38017 2.66029 0
M  V30 6964 H 628.691 -0.613394 1.4983 0
M  V30 6965 H 630.683 -3.6982 1.64362 0
M  V30 6966 H 629.253 -3.0134 0.831449 0
M  V30 6967 H 628.473 -2.28908 3.20928 0
M  V30 6968 H 629.761 -3.32261 3.85331 0
M  V30 6969 H 629.159 -5.45623 1.49373 0
M  V30 6970 H 627.716 -6.17425 2.08878 0
M  V30 6971 N 631.149 -1.42148 -0.680565 0
M  V30 6972 C 632.096 -1.45175 -1.79424 0
M  V30 6973 C 633.066 -0.304352 -1.63288 0
M  V30 6974 O 634.251 -0.507591 -1.83924 0
M  V30 6975 C 631.391 -1.35429 -3.17416 0
M  V30 6976 C 630.504 -2.60158 -3.4488 0
M  V30 6977 C 629.639 -2.42596 -4.72568 0
M  V30 6978 C 628.678 -3.62727 -4.93047 0
M  V30 6979 N 627.815 -3.44143 -6.11973 0
M  V30 6980 H 632.655 -2.40349 -1.76172 0
M  V30 6981 H 630.192 -1.19334 -0.860107 0
M  V30 6982 H 632.15 -1.27777 -3.97151 0
M  V30 6983 H 630.78 -0.438536 -3.19807 0
M  V30 6984 H 629.832 -2.78199 -2.5944 0
M  V30 6985 H 631.144 -3.49473 -3.55908 0
M  V30 6986 H 630.298 -2.32497 -5.60384 0
M  V30 6987 H 629.037 -1.50761 -4.63813 0
M  V30 6988 H 628.042 -3.73264 -4.03676 0
M  V30 6989 H 629.267 -4.55534 -5.03652 0
M  V30 6990 H 627.213 -2.5502 -6.04401 0
M  V30 6991 H 627.13 -4.27041 -6.23836 0
M  V30 6992 H 628.398 -3.37845 -7.02482 0
M  V30 6993 N 632.627 0.916307 -1.28225 0
M  V30 6994 C 634.043 1.19425 -1.05876 0
M  V30 6995 C 634.243 2.005 0.2005 0
M  V30 6996 O 633.299 2.35806 0.902873 0
M  V30 6997 C 634.612 1.93133 -2.30478 0
M  V30 6998 C 636.16 2.06026 -2.35632 0
M  V30 6999 C 636.635 2.83141 -3.59994 0
M  V30 7000 N 638.126 2.90704 -3.60618 0
M  V30 7001 C 638.861 3.50865 -4.53521 0
M  V30 7002 N 638.357 4.12327 -5.56739 0
M  V30 7003 N 640.15 3.48379 -4.41122 0
M  V30 7004 H 632.301 0.37496 -2.09064 0
M  V30 7005 H 634.564 0.228531 -0.920042 0
M  V30 7006 H 634.27 1.40985 -3.22205 0
M  V30 7007 H 634.144 2.93696 -2.36691 0
M  V30 7008 H 636.531 2.57355 -1.44404 0
M  V30 7009 H 636.612 1.04647 -2.33415 0
M  V30 7010 H 636.256 2.32492 -4.51564 0
M  V30 7011 H 636.186 3.84829 -3.59464 0
M  V30 7012 H 638.677 2.47034 -2.85977 0
M  V30 7013 H 638.99 4.56205 -6.23776 0
M  V30 7014 H 637.335 4.10839 -5.60568 0
M  V30 7015 H 640.526 2.99572 -3.59686 0
M  V30 7016 H 640.699 3.94974 -5.13712 0
M  V30 7017 N 634.105 1.10431 1.1244 0
M  V30 7018 C 635.037 0.710945 2.17895 0
M  V30 7019 C 636.05 -0.252315 1.60833 0
M  V30 7020 O 637.239 -0.03679 1.78462 0
M  V30 7021 C 634.339 0.0284262 3.38888 0
M  V30 7022 C 633.512 1.01585 4.2544 0
M  V30 7023 C 632.571 0.364826 5.24934 0
M  V30 7024 O 631.597 1.01561 5.60066 0
M  V30 7025 N 632.799 -0.87674 5.73841 0
M  V30 7026 H 635.564 1.61826 2.52255 0
M  V30 7027 H 633.125 0.993132 1.27861 0
M  V30 7028 H 635.117 -0.418568 4.0253 0
M  V30 7029 H 633.687 -0.781294 3.02679 0
M  V30 7030 H 632.907 1.64111 3.58415 0
M  V30 7031 H 634.195 1.68425 4.80115 0
M  V30 7032 H 633.593 -1.42483 5.47462 0
M  V30 7033 H 632.15 -1.26688 6.39369 0
M  V30 7034 N 635.583 -1.29855 0.893053 0
M  V30 7035 C 636.493 -2.31661 0.370157 0
M  V30 7036 C 637.509 -1.65677 -0.531723 0
M  V30 7037 O 638.685 -1.9691 -0.422902 0
M  V30 7038 C 635.75 -3.44388 -0.399741 0
M  V30 7039 C 634.811 -4.2598 0.532861 0
M  V30 7040 C 634.044 -5.33324 -0.200388 0
M  V30 7041 O 634.267 -5.52305 -1.42531 0
M  V30 7042 O 633.201 -6.00188 0.453668 0
M  V30 7043 H 637.027 -2.78354 1.2146 0
M  V30 7044 H 634.612 -1.34171 0.657153 0
M  V30 7045 H 636.494 -4.13037 -0.835358 0
M  V30 7046 H 635.169 -2.99815 -1.22035 0
M  V30 7047 H 634.076 -3.59998 1.01746 0
M  V30 7048 H 635.409 -4.74178 1.3197 0
M  V30 7049 N 637.061 -0.65484 -1.43351 0
M  V30 7050 C 638.008 0.0357713 -2.30772 0
M  V30 7051 C 638.978 0.813035 -1.44841 0
M  V30 7052 O 640.163 0.789314 -1.73708 0
M  V30 7053 C 637.303 0.995084 -3.30442 0
M  V30 7054 C 636.416 0.21375 -4.31471 0
M  V30 7055 C 635.551 1.16701 -5.18222 0
M  V30 7056 C 634.59 0.376201 -6.10943 0
M  V30 7057 N 633.727 1.28113 -6.90313 0
M  V30 7058 H 638.567 -0.71559 -2.89281 0
M  V30 7059 H 636.104 -0.364645 -1.42509 0
M  V30 7060 H 638.062 1.5649 -3.86739 0
M  V30 7061 H 636.692 1.7133 -2.7358 0
M  V30 7062 H 635.744 -0.472377 -3.77456 0
M  V30 7063 H 637.056 -0.401103 -4.97185 0
M  V30 7064 H 636.21 1.8074 -5.79153 0
M  V30 7065 H 634.949 1.81577 -4.52638 0
M  V30 7066 H 633.954 -0.277534 -5.49099 0
M  V30 7067 H 635.179 -0.268178 -6.7857 0
M  V30 7068 H 633.125 1.91666 -6.27376 0
M  V30 7069 H 633.042 0.720879 -7.52555 0
M  V30 7070 H 634.31 1.90962 -7.55747 0
M  V30 7071 N 638.539 1.52521 -0.396863 0
M  V30 7072 C 639.502 2.2527 0.422604 0
M  V30 7073 C 640.502 1.27184 0.983913 0
M  V30 7074 O 641.692 1.51222 0.864723 0
M  V30 7075 C 638.824 3.01356 1.59365 0
M  V30 7076 H 640.017 2.99133 -0.214416 0
M  V30 7077 H 637.57 1.55587 -0.149128 0
M  V30 7078 H 638.305 2.31813 2.26789 0
M  V30 7079 H 638.09 3.73357 1.19779 0
M  V30 7080 H 639.58 3.56571 2.17363 0
M  V30 7081 N 640.017 0.126909 1.57088 0
M  V30 7082 C 641.266 -0.529024 1.94639 0
M  V30 7083 C 641.579 -1.67323 1.01304 0
M  V30 7084 O 642.785 -2.39245 1.28352 0
M  V30 7085 C 641.241 -0.992483 3.45945 0
M  V30 7086 C 640.849 0.123691 4.47829 0
M  V30 7087 C 642.593 -1.61934 3.924 0
M  V30 7088 C 640.5 -0.356911 5.90322 0
M  V30 7089 H 639.43 -0.201397 0.726605 0
M  V30 7090 H 642.081 0.208032 1.82317 0
M  V30 7091 H 640.463 -1.7842 3.53528 0
M  V30 7092 H 641.637 0.900168 4.51922 0
M  V30 7093 H 639.952 0.657699 4.11173 0
M  V30 7094 H 642.549 -1.9902 4.96281 0
M  V30 7095 H 642.892 -2.50075 3.32819 0
M  V30 7096 H 643.425 -0.892894 3.8765 0
M  V30 7097 H 640.164 0.488636 6.53676 0
M  V30 7098 H 639.684 -1.0997 5.89633 0
M  V30 7099 H 641.363 -0.815547 6.41839 0
M  V30 7100 N 641.495 -1.56914 -0.146875 0
M  V30 7101 C 642.442 -1.98275 -1.18134 0
M  V30 7102 C 643.412 -0.850367 -1.42681 0
M  V30 7103 O 644.597 -1.11244 -1.55014 0
M  V30 7104 C 641.737 -2.36861 -2.5098 0
M  V30 7105 C 640.85 -3.63391 -2.33605 0
M  V30 7106 C 639.985 -3.91079 -3.59486 0
M  V30 7107 C 639.024 -5.10879 -3.37149 0
M  V30 7108 N 638.161 -5.34577 -4.55161 0
M  V30 7109 H 643.001 -2.8645 -0.821622 0
M  V30 7110 H 640.538 -1.41718 -0.394248 0
M  V30 7111 H 642.496 -2.57262 -3.28439 0
M  V30 7112 H 641.126 -1.51766 -2.84898 0
M  V30 7113 H 640.178 -3.50766 -1.47199 0
M  V30 7114 H 641.49 -4.51007 -2.13059 0
M  V30 7115 H 640.644 -4.11979 -4.45374 0
M  V30 7116 H 639.383 -3.01885 -3.83036 0
M  V30 7117 H 638.388 -4.89853 -2.49649 0
M  V30 7118 H 639.613 -6.01626 -3.14997 0
M  V30 7119 H 637.559 -4.48337 -4.78884 0
M  V30 7120 H 637.476 -6.16463 -4.37618 0
M  V30 7121 H 638.744 -5.59975 -5.42263 0
M  V30 7122 N 642.974 0.416227 -1.52004 0
M  V30 7123 C 644.39 0.754319 -1.40649 0
M  V30 7124 C 644.59 1.95059 -0.505392 0
M  V30 7125 O 643.646 2.5248 0.0315057 0
M  V30 7126 C 644.959 1.0149 -2.83055 0
M  V30 7127 C 646.507 1.11805 -2.9235 0
M  V30 7128 C 646.982 1.41144 -4.35709 0
M  V30 7129 N 648.473 1.48024 -4.38911 0
M  V30 7130 C 649.208 1.72338 -5.46889 0
M  V30 7131 N 648.704 1.94303 -6.64995 0
M  V30 7132 N 650.497 1.74294 -5.34395 0
M  V30 7133 H 642.648 -0.371324 -2.09129 0
M  V30 7134 H 644.911 -0.103811 -0.942299 0
M  V30 7135 H 644.617 0.208345 -3.51082 0
M  V30 7136 H 644.491 1.93697 -3.23668 0
M  V30 7137 H 646.878 1.91521 -2.24508 0
M  V30 7138 H 646.959 0.17451 -2.55204 0
M  V30 7139 H 646.603 0.619484 -5.04108 0
M  V30 7140 H 646.533 2.36739 -4.70385 0
M  V30 7141 H 649.024 1.32868 -3.53772 0
M  V30 7142 H 649.337 2.12286 -7.43071 0
M  V30 7143 H 647.682 1.91582 -6.68073 0
M  V30 7144 H 650.873 1.56667 -4.41104 0
M  V30 7145 H 651.046 1.92904 -6.18621 0
M  V30 7146 N 644.452 1.42507 0.673017 0
M  V30 7147 C 645.868 1.25472 0.986355 0
M  V30 7148 C 646.068 0.160181 2.00862 0
M  V30 7149 O 645.124 -0.467993 2.48125 0
M  V30 7150 C 646.437 2.61219 1.48947 0
M  V30 7151 C 647.985 2.68589 1.60715 0
M  V30 7152 C 648.46 4.04707 2.14422 0
M  V30 7153 N 649.951 4.0667 2.21752 0
M  V30 7154 C 650.686 5.0881 2.64386 0
M  V30 7155 N 650.182 6.21332 3.0646 0
M  V30 7156 N 651.975 4.96166 2.64151 0
M  V30 7157 H 644.126 2.124 -0.00378532 0
M  V30 7158 H 646.389 0.946046 0.0608367 0
M  V30 7159 H 646.095 3.42179 0.812812 0
M  V30 7160 H 645.969 2.85261 2.46791 0
M  V30 7161 H 648.356 1.87974 2.27486 0
M  V30 7162 H 648.437 2.48333 0.613552 0
M  V30 7163 H 648.081 4.8578 1.48258 0
M  V30 7164 H 648.011 4.22315 3.14575 0
M  V30 7165 H 650.502 3.25438 1.92089 0
M  V30 7166 H 650.815 6.95118 3.37684 0
M  V30 7167 H 649.16 6.24835 3.04313 0
M  V30 7168 H 652.351 4.07334 2.30644 0
M  V30 7169 H 652.524 5.759 2.97057 0
M  V30 7170 N 645.93 -0.909495 1.28709 0
M  V30 7171 C 646.84 -2.04558 1.14861 0
M  V30 7172 C 647.856 -1.73842 0.0741621 0
M  V30 7173 O 649.032 -1.99383 0.2843 0
M  V30 7174 C 646.097 -3.36957 0.816148 0
M  V30 7175 C 645.158 -3.81255 1.97341 0
M  V30 7176 C 644.391 -5.07335 1.65671 0
M  V30 7177 O 644.614 -5.67514 0.573053 0
M  V30 7178 O 643.548 -5.47449 2.50167 0
M  V30 7179 H 647.374 -2.19161 2.10243 0
M  V30 7180 H 644.959 -1.03159 1.08068 0
M  V30 7181 H 646.841 -4.16436 0.644873 0
M  V30 7182 H 645.516 -3.2352 -0.107983 0
M  V30 7183 H 644.423 -3.02584 2.19986 0
M  V30 7184 H 645.756 -3.99261 2.87839 0
M  V30 7185 N 647.408 -1.11026 -1.11852 0
M  V30 7186 C 648.371 -0.768006 -2.1595 0
M  V30 7187 C 649.371 0.210538 -1.59416 0
M  V30 7188 O 650.561 -0.0133978 -1.74195 0
M  V30 7189 C 647.693 -0.138678 -3.40618 0
M  V30 7190 H 648.886 -1.69012 -2.4774 0
M  V30 7191 H 646.439 -0.911578 -1.26964 0
M  V30 7192 H 647.174 0.793872 -3.14433 0
M  V30 7193 H 646.959 -0.843012 -3.8293 0
M  V30 7194 H 648.449 0.0848039 -4.17514 0
M  V30 7195 N 648.886 1.2938 -0.899927 0
M  V30 7196 C 649.816 2.30144 -0.39446 0
M  V30 7197 C 650.797 1.61611 0.530639 0
M  V30 7198 O 651.982 1.89119 0.441319 0
M  V30 7199 C 649.112 3.45229 0.37868 0
M  V30 7200 C 648.066 4.25564 -0.456012 0
M  V30 7201 C 647.392 5.32848 0.444637 0
M  V30 7202 C 648.692 4.93651 -1.70605 0
M  V30 7203 H 650.386 2.72673 -1.23653 0
M  V30 7204 H 647.932 1.31086 -0.596034 0
M  V30 7205 H 649.885 4.14797 0.743037 0
M  V30 7206 H 648.609 3.01545 1.25453 0
M  V30 7207 H 647.268 3.57704 -0.802704 0
M  V30 7208 H 646.916 4.85408 1.31863 0
M  V30 7209 H 646.616 5.87497 -0.110154 0
M  V30 7210 H 648.14 6.05268 0.805182 0
M  V30 7211 H 649.554 5.55655 -1.41141 0
M  V30 7212 H 647.951 5.58233 -2.20217 0
M  V30 7213 H 649.021 4.18926 -2.4419 0
M  V30 7214 N 650.364 0.662433 1.43002 0
M  V30 7215 C 651.274 -0.0239199 2.34588 0
M  V30 7216 C 652.29 -0.802255 1.54402 0
M  V30 7217 O 653.466 -0.747401 1.87018 0
M  V30 7218 C 650.531 -0.972098 3.32793 0
M  V30 7219 C 649.592 -0.189673 4.28881 0
M  V30 7220 C 648.825 -1.09269 5.22395 0
M  V30 7221 O 649.048 -2.33209 5.20547 0
M  V30 7222 O 647.982 -0.560136 5.99288 0
M  V30 7223 H 651.808 0.730171 2.94792 0
M  V30 7224 H 649.393 0.422635 1.43297 0
M  V30 7225 H 651.275 -1.51676 3.93157 0
M  V30 7226 H 649.95 -1.70626 2.75079 0
M  V30 7227 H 648.857 0.398794 3.71968 0
M  V30 7228 H 650.19 0.50511 4.89601 0
M  V30 7229 N 651.842 -1.52309 0.404946 0
M  V30 7230 C 653.258 -1.59503 0.0556255 0
M  V30 7231 C 653.458 -1.41805 -1.43156 0
M  V30 7232 O 652.514 -1.2429 -2.19792 0
M  V30 7233 C 653.827 -2.95687 0.546801 0
M  V30 7234 C 655.375 -3.08909 0.504413 0
M  V30 7235 C 655.85 -4.47566 0.97203 0
M  V30 7236 N 657.341 -4.53795 0.928679 0
M  V30 7237 C 658.076 -5.59346 1.26174 0
M  V30 7238 N 657.572 -6.72469 1.66604 0
M  V30 7239 N 659.365 -5.49532 1.18198 0
M  V30 7240 H 651.516 -1.6206 1.37296 0
M  V30 7241 H 653.779 -0.762161 0.563751 0
M  V30 7242 H 653.485 -3.13905 1.58609 0
M  V30 7243 H 653.359 -3.77172 -0.0457905 0
M  V30 7244 H 655.746 -2.90378 -0.525819 0
M  V30 7245 H 655.827 -2.2934 1.13301 0
M  V30 7246 H 655.471 -4.6684 2.00057 0
M  V30 7247 H 655.401 -5.25625 0.320292 0
M  V30 7248 H 657.892 -3.72588 0.631369 0
M  V30 7249 H 658.205 -7.48993 1.9034 0
M  V30 7250 H 656.55 -6.73761 1.70504 0
M  V30 7251 H 659.741 -4.60038 0.865011 0
M  V30 7252 H 659.914 -6.31687 1.44485 0
M  V30 7253 N 653.32 -0.135238 -1.57019 0
M  V30 7254 C 654.283 0.794707 -2.14981 0
M  V30 7255 C 655.283 1.18342 -1.08866 0
M  V30 7256 O 656.473 1.10627 -1.34563 0
M  V30 7257 C 653.605 2.07685 -2.70333 0
M  V30 7258 H 654.798 0.290696 -2.98488 0
M  V30 7259 H 652.351 0.114128 -1.55883 0
M  V30 7260 H 653.086 2.6248 -1.9046 0
M  V30 7261 H 652.871 1.80745 -3.47957 0
M  V30 7262 H 654.361 2.74127 -3.1503 0
M  V30 7263 N 654.798 1.5699 0.138552 0
M  V30 7264 C 655.745 1.98899 1.17081 0
M  V30 7265 C 656.715 0.857922 1.42228 0
M  V30 7266 O 657.9 1.12065 1.54422 0
M  V30 7267 C 655.04 2.38189 2.4972 0
M  V30 7268 C 654.153 3.64624 2.31674 0
M  V30 7269 C 653.288 3.9298 3.57407 0
M  V30 7270 C 652.327 5.1266 3.34435 0
M  V30 7271 N 651.464 5.36983 4.5232 0
M  V30 7272 H 656.304 2.86881 0.80642 0
M  V30 7273 H 653.841 1.41925 0.386727 0
M  V30 7274 H 655.799 2.59 3.2707 0
M  V30 7275 H 654.429 1.53275 2.84089 0
M  V30 7276 H 653.481 3.51542 1.45337 0
M  V30 7277 H 654.793 4.52131 2.10664 0
M  V30 7278 H 653.947 4.14335 4.43183 0
M  V30 7279 H 652.686 3.03912 3.8143 0
M  V30 7280 H 651.691 4.9117 2.47048 0
M  V30 7281 H 652.916 6.03288 3.11802 0
M  V30 7282 H 650.862 4.50871 4.76499 0
M  V30 7283 H 650.779 6.18775 4.34343 0
M  V30 7284 H 652.047 5.62842 5.39285 0
M  V30 7285 N 656.276 -0.40816 1.52223 0
M  V30 7286 C 657.692 -0.74685 1.41047 0
M  V30 7287 C 657.892 -1.94788 0.51573 0
M  V30 7288 O 656.948 -2.52494 -0.0181156 0
M  V30 7289 C 658.261 -0.999878 2.83589 0
M  V30 7290 C 659.809 -1.10253 2.92939 0
M  V30 7291 C 660.284 -1.38832 4.36451 0
M  V30 7292 N 661.775 -1.45694 4.3969 0
M  V30 7293 C 662.51 -1.69435 5.47795 0
M  V30 7294 N 662.006 -1.90774 6.66016 0
M  V30 7295 N 663.799 -1.71458 5.35312 0
M  V30 7296 H 655.95 0.382409 2.08929 0
M  V30 7297 H 658.213 0.108807 0.941735 0
M  V30 7298 H 657.919 -0.189723 3.51188 0
M  V30 7299 H 657.793 -1.91978 3.24691 0
M  V30 7300 H 660.18 -1.90328 2.2552 0
M  V30 7301 H 660.261 -0.160973 2.55293 0
M  V30 7302 H 659.905 -0.592741 5.04429 0
M  V30 7303 H 659.835 -2.34241 4.71634 0
M  V30 7304 H 662.326 -1.3099 3.54472 0
M  V30 7305 H 662.639 -2.08342 7.44186 0
M  V30 7306 H 660.984 -1.88037 6.69079 0
M  V30 7307 H 664.175 -1.54326 4.41929 0
M  V30 7308 H 664.348 -1.89621 6.19635 0
M  V30 7309 N 657.755 -1.42862 -0.66545 0
M  V30 7310 C 658.703 -1.47319 -1.8 0
M  V30 7311 C 659.697 -0.347963 -1.65788 0
M  V30 7312 O 660.903 -0.521406 -1.72283 0
M  V30 7313 H 657.278 -0.461588 -0.593667 0
M  V30 7314 H 659.249 -2.42876 -1.7336 0
M  V30 7315 C 657.998 -1.40152 -3.18203 0
M  V30 7316 H 657.321 -2.26035 -3.2977 0
M  V30 7317 H 658.761 -1.47331 -3.9758 0
M  V30 7318 C 657.22 -0.117493 -3.36695 0
M  V30 7319 O 657.75 0.826058 -3.93115 0
M  V30 7320 N 655.956 -0.0316218 -2.90583 0
M  V30 7321 H 655.503 -0.800247 -2.44855 0
M  V30 7322 H 655.461 0.826835 -3.03333 0
M  V30 7323 N 659.233 0.902656 -1.29189 0
M  V30 7324 C 660.481 1.6496 -1.16758 0
M  V30 7325 C 660.802 1.92952 0.28188 0
M  V30 7326 O 660.072 1.55351 1.19344 0
M  V30 7327 H 658.652 0.611447 -0.429118 0
M  V30 7328 H 661.314 1.0825 -1.62074 0
M  V30 7329 H 660.41 2.60728 -1.71544 0
M  V30 7330 N 660.711 1.11618 1.11262 0
M  V30 7331 C 661.936 0.889013 1.8738 0
M  V30 7332 C 662.361 -0.555884 1.79698 0
M  V30 7333 O 661.719 -1.39272 1.16073 0
M  V30 7334 C 661.767 1.35759 3.34069 0
M  V30 7335 O 660.871 0.530499 4.08974 0
M  V30 7336 H 660.212 0.320082 0.581759 0
M  V30 7337 H 662.742 1.48611 1.40627 0
M  V30 7338 H 662.752 1.35291 3.84916 0
M  V30 7339 H 661.427 2.40973 3.38976 0
M  V30 7340 H 660.004 0.601439 3.68018 0
M  V30 7341 N 662.189 -1.289 0.906776 0
M  V30 7342 C 663.438 -1.9455 0.532262 0
M  V30 7343 C 663.751 -1.72219 -0.927353 0
M  V30 7344 O 664.957 -2.32033 -1.40971 0
M  V30 7345 C 663.413 -3.48438 0.901041 0
M  V30 7346 C 663.021 -3.79558 2.37991 0
M  V30 7347 C 664.765 -4.20284 0.596777 0
M  V30 7348 C 662.672 -5.26723 2.68918 0
M  V30 7349 H 661.602 -0.728259 0.195333 0
M  V30 7350 H 664.253 -1.46519 1.10474 0
M  V30 7351 H 662.635 -3.95162 0.257419 0
M  V30 7352 H 663.809 -3.43668 3.06967 0
M  V30 7353 H 662.124 -3.20868 2.65391 0
M  V30 7354 H 664.721 -5.28612 0.8046 0
M  V30 7355 H 665.064 -4.13694 -0.465072 0
M  V30 7356 H 665.597 -3.79315 1.19855 0
M  V30 7357 H 662.336 -5.38384 3.73928 0
M  V30 7358 H 661.856 -5.63836 2.04571 0
M  V30 7359 H 663.535 -5.94391 2.55555 0
M  V30 7360 N 663.667 -0.670007 -1.42649 0
M  V30 7361 C 664.913 -0.190568 -2.01903 0
M  V30 7362 C 665.246 1.19817 -1.52832 0
M  V30 7363 O 664.521 1.80342 -0.728485 0
M  V30 7364 C 664.804 -0.21991 -3.59428 0
M  V30 7365 C 664.657 -1.64376 -4.18689 0
M  V30 7366 C 665.976 0.434519 -4.3795 0
M  V30 7367 H 663.095 -0.0707219 -0.733599 0
M  V30 7368 H 665.737 -0.853883 -1.69732 0
M  V30 7369 H 663.887 0.344894 -3.86966 0
M  V30 7370 H 665.559 -2.26044 -4.02122 0
M  V30 7371 H 663.802 -2.18591 -3.747 0
M  V30 7372 H 664.473 -1.61601 -5.27815 0
M  V30 7373 H 666.949 -0.0462156 -4.16074 0
M  V30 7374 H 665.825 0.38333 -5.4756 0
M  V30 7375 H 666.086 1.51135 -4.15464 0
M  V30 7376 N 665.145 1.52092 -0.413018 0
M  V30 7377 C 666.37 2.06756 0.163338 0
M  V30 7378 C 666.795 1.28073 1.37764 0
M  V30 7379 O 666.153 0.312015 1.78595 0
M  V30 7380 C 666.201 3.57278 0.488322 0
M  V30 7381 O 665.305 3.80986 1.57871 0
M  V30 7382 H 664.646 0.663882 0.0125068 0
M  V30 7383 H 667.176 1.95988 -0.587339 0
M  V30 7384 H 667.186 4.01125 0.745836 0
M  V30 7385 H 665.861 4.13978 -0.399327 0
M  V30 7386 H 664.438 3.49017 1.31306 0
M  V30 7387 N 666.623 0.143563 1.56945 0
M  V30 7388 C 667.556 -0.835367 2.1236 0
M  V30 7389 C 668.534 -1.24466 1.04627 0
M  V30 7390 O 669.718 -1.34138 1.32436 0
M  V30 7391 C 666.845 -2.12123 2.64048 0
M  V30 7392 C 665.891 -1.85812 3.83896 0
M  V30 7393 S 666.724 -1.05222 5.25061 0
M  V30 7394 C 667.88 -2.34935 5.80135 0
M  V30 7395 H 668.113 -0.364109 2.95062 0
M  V30 7396 H 665.646 -0.0706601 1.54238 0
M  V30 7397 H 667.604 -2.85993 2.94479 0
M  V30 7398 H 666.265 -2.56364 1.81483 0
M  V30 7399 H 665.458 -2.81151 4.18294 0
M  V30 7400 H 665.06 -1.20052 3.54208 0
M  V30 7401 H 667.352 -3.3061 5.91357 0
M  V30 7402 H 668.295 -2.05046 6.77762 0
M  V30 7403 H 668.703 -2.45426 5.08356 0
M  V30 7404 N 668.101 -1.57061 -0.130224 0
M  V30 7405 C 669.049 -2.00486 -1.17933 0
M  V30 7406 C 670.043 -0.899933 -1.43519 0
M  V30 7407 O 671.249 -1.08514 -1.43613 0
M  V30 7408 H 667.624 -0.638441 -0.397363 0
M  V30 7409 H 669.595 -2.87848 -0.786501 0
M  V30 7410 C 668.344 -2.41565 -2.50084 0
M  V30 7411 H 667.667 -3.26148 -2.31231 0
M  V30 7412 H 669.107 -2.75757 -3.22078 0
M  V30 7413 C 667.566 -1.27485 -3.11848 0
M  V30 7414 O 668.096 -0.584688 -3.97422 0
M  V30 7415 N 666.302 -1.03478 -2.71552 0
M  V30 7416 H 665.849 -1.59779 -2.02061 0
M  V30 7417 H 665.807 -0.27341 -3.13209 0
M  V30 7418 N 669.579 0.400081 -1.52437 0
M  V30 7419 C 670.509 1.4947 -1.7939 0
M  V30 7420 C 671.49 1.57383 -0.645329 0
M  V30 7421 O 672.675 1.72511 -0.891826 0
M  V30 7422 C 669.805 2.87201 -1.95276 0
M  V30 7423 C 668.759 2.94134 -3.10917 0
M  V30 7424 C 668.085 4.34207 -3.1204 0
M  V30 7425 C 669.385 2.64791 -4.50203 0
M  V30 7426 H 671.079 1.27165 -2.71052 0
M  V30 7427 H 668.625 0.610312 -1.30427 0
M  V30 7428 H 670.578 3.63772 -2.12715 0
M  V30 7429 H 669.302 3.10819 -1.00294 0
M  V30 7430 H 667.961 2.20009 -2.93243 0
M  V30 7431 H 667.609 4.54848 -2.14761 0
M  V30 7432 H 667.309 4.39768 -3.89715 0
M  V30 7433 H 668.833 5.127 -3.31619 0
M  V30 7434 H 670.247 3.31083 -4.68035 0
M  V30 7435 H 668.644 2.81717 -5.29864 0
M  V30 7436 H 669.714 1.60184 -4.57678 0
M  V30 7437 N 671.057 1.43213 0.657864 0
M  V30 7438 C 672.004 1.48011 1.77092 0
M  V30 7439 C 672.974 0.330291 1.62783 0
M  V30 7440 O 674.159 0.536787 1.83094 0
M  V30 7441 C 671.299 1.40461 3.15222 0
M  V30 7442 C 670.412 2.65612 3.40697 0
M  V30 7443 C 669.547 2.50083 4.68649 0
M  V30 7444 C 668.586 3.70525 4.87214 0
M  V30 7445 N 667.723 3.53835 6.0642 0
M  V30 7446 H 672.563 2.43121 1.72326 0
M  V30 7447 H 670.1 1.20687 0.841013 0
M  V30 7448 H 672.058 1.34079 3.95068 0
M  V30 7449 H 670.688 0.489359 3.19069 0
M  V30 7450 H 669.74 2.82292 2.54982 0
M  V30 7451 H 671.052 3.5509 3.50303 0
M  V30 7452 H 670.206 2.41383 5.56614 0
M  V30 7453 H 668.945 1.58121 4.61356 0
M  V30 7454 H 667.95 3.79639 3.97686 0
M  V30 7455 H 669.175 4.63489 4.96341 0
M  V30 7456 H 667.121 2.64604 6.00267 0
M  V30 7457 H 667.038 4.36912 6.16963 0
M  V30 7458 H 668.306 3.48978 6.97019 0
M  V30 7459 N 672.536 -0.895792 1.29666 0
M  V30 7460 C 673.813 -1.62723 1.08538 0
M  V30 7461 C 674.193 -2.07848 -0.369119 0
M  V30 7462 O 673.541 -1.8372 -1.35864 0
M  V30 7463 C 673.751 -2.80505 2.07648 0
M  V30 7464 C 675.099 -3.51098 2.3878 0
M  V30 7465 O 676.123 -2.90679 2.05874 0
M  V30 7466 O 674.982 -4.60028 2.9502 0
M  V30 7467 H 672.076 -0.714692 0.416106 0
M  V30 7468 H 674.622 -0.943517 1.41053 0
M  V30 7469 H 673.394 -2.44386 3.05599 0
M  V30 7470 H 673.017 -3.5658 1.75887 0
M  V30 7471 N 674.014 -1.12206 -1.10668 0
M  V30 7472 C 674.977 -0.790867 -2.15123 0
M  V30 7473 C 675.977 0.193618 -1.5963 0
M  V30 7474 O 677.167 -0.0318728 -1.74171 0
M  V30 7475 C 674.299 -0.174797 -3.40452 0
M  V30 7476 H 675.492 -1.7163 -2.45933 0
M  V30 7477 H 673.045 -0.924993 -1.2599 0
M  V30 7478 H 673.78 0.760478 -3.15257 0
M  V30 7479 H 673.565 -0.88358 -3.82015 0
M  V30 7480 H 675.055 0.0405162 -4.1758 0
M  V30 7481 N 675.492 1.28418 -0.913599 0
M  V30 7482 C 676.739 1.94981 -0.546674 0
M  V30 7483 C 677.067 1.7192 0.909606 0
M  V30 7484 O 676.322 1.03314 1.66207 0
M  V30 7485 C 676.621 3.48283 -0.802099 0
M  V30 7486 C 676.287 3.91444 -2.2379 0
M  V30 7487 C 674.949 4.02939 -2.63046 0
M  V30 7488 C 677.301 4.13542 -3.17227 0
M  V30 7489 C 674.629 4.3391 -3.94891 0
M  V30 7490 C 676.981 4.45992 -4.48636 0
M  V30 7491 C 675.645 4.55698 -4.87746 0
M  V30 7492 H 674.915 0.713487 -0.200042 0
M  V30 7493 H 677.562 1.52756 -1.15489 0
M  V30 7494 H 675.867 3.91643 -0.111076 0
M  V30 7495 H 677.564 3.97903 -0.497375 0
M  V30 7496 H 674.154 3.83024 -1.9233 0
M  V30 7497 H 678.338 4.04114 -2.88107 0
M  V30 7498 H 673.594 4.39631 -4.24894 0
M  V30 7499 H 677.768 4.62038 -5.21051 0
M  V30 7500 H 675.395 4.79451 -5.89942 0
M  V30 7501 N 676.97 0.677563 1.42291 0
M  V30 7502 C 677.933 0.0101085 2.29198 0
M  V30 7503 C 678.933 -0.726219 1.43467 0
M  V30 7504 O 680.123 -0.563807 1.64824 0
M  V30 7505 C 677.255 -0.996316 3.26016 0
M  V30 7506 H 678.448 0.775071 2.89711 0
M  V30 7507 H 676.001 0.440065 1.49977 0
M  V30 7508 H 676.736 -1.78967 2.70446 0
M  V30 7509 H 676.521 -0.471687 3.89253 0
M  V30 7510 H 678.011 -1.46167 3.91184 0
M  V30 7511 N 678.448 -1.51871 0.421078 0
M  V30 7512 C 679.864 -1.59435 0.0725398 0
M  V30 7513 C 680.064 -1.43315 -1.41644 0
M  V30 7514 O 679.12 -1.26614 -2.18461 0
M  V30 7515 C 680.433 -2.9509 0.578132 0
M  V30 7516 C 681.981 -3.08356 0.537149 0
M  V30 7517 C 682.456 -4.4651 1.01945 0
M  V30 7518 N 683.947 -4.52784 0.976758 0
M  V30 7519 C 684.682 -5.57976 1.32099 0
M  V30 7520 N 684.178 -6.70664 1.73727 0
M  V30 7521 N 685.971 -5.48248 1.2402 0
M  V30 7522 H 678.122 -1.60595 1.39007 0
M  V30 7523 H 680.385 -0.756138 0.571803 0
M  V30 7524 H 680.091 -3.12205 1.61929 0
M  V30 7525 H 679.965 -3.772 -0.00578374 0
M  V30 7526 H 682.352 -2.90919 -0.494991 0
M  V30 7527 H 682.433 -2.28125 1.15727 0
M  V30 7528 H 682.077 -4.64692 2.04997 0
M  V30 7529 H 682.007 -5.25256 0.376023 0
M  V30 7530 H 684.498 -3.71898 0.670851 0
M  V30 7531 H 684.811 -7.46932 1.98274 0
M  V30 7532 H 683.156 -6.71914 1.77641 0
M  V30 7533 H 686.347 -4.59095 0.913756 0
M  V30 7534 H 686.52 -6.30119 1.51176 0
M  V30 7535 N 679.926 -0.151884 -1.56866 0
M  V30 7536 C 681.151 0.508044 -2.01081 0
M  V30 7537 C 681.576 1.57306 -1.03134 0
M  V30 7538 O 680.934 1.81298 -0.0078309 0
M  V30 7539 C 680.982 1.08106 -3.44014 0
M  V30 7540 O 680.086 2.19577 -3.49084 0
M  V30 7541 H 679.427 0.123757 -0.652365 0
M  V30 7542 H 681.957 -0.250055 -2.03066 0
M  V30 7543 H 681.967 1.40851 -3.82916 0
M  V30 7544 H 680.642 0.301168 -4.14808 0
M  V30 7545 H 679.219 1.88023 -3.22027 0
M  V30 7546 N 681.404 1.57128 0.121893 0
M  V30 7547 C 682.337 1.95327 1.17995 0
M  V30 7548 C 683.315 0.822524 1.40262 0
M  V30 7549 O 684.499 1.08044 1.54463 0
M  V30 7550 C 681.626 2.24699 2.53432 0
M  V30 7551 C 680.672 3.47263 2.4761 0
M  V30 7552 S 681.505 4.99951 1.91857 0
M  V30 7553 C 682.661 5.32473 3.28973 0
M  V30 7554 H 682.894 2.84765 0.854182 0
M  V30 7555 H 680.427 1.50864 0.328534 0
M  V30 7556 H 682.385 2.423 3.31362 0
M  V30 7557 H 681.046 1.3588 2.83188 0
M  V30 7558 H 680.239 3.65171 3.4737 0
M  V30 7559 H 679.841 3.29034 1.778 0
M  V30 7560 H 682.133 5.27478 4.25175 0
M  V30 7561 H 683.076 6.33732 3.15895 0
M  V30 7562 H 683.484 4.59952 3.27268 0
M  V30 7563 N 682.882 -0.391992 1.52647 0
M  V30 7564 C 683.792 -1.503 1.80131 0
M  V30 7565 C 684.808 -1.59825 0.687882 0
M  V30 7566 O 685.984 -1.76218 0.975149 0
M  V30 7567 C 683.049 -2.85863 1.96171 0
M  V30 7568 C 682.11 -2.86084 3.20085 0
M  V30 7569 C 681.343 -4.15181 3.35351 0
M  V30 7570 O 681.566 -5.09981 2.55491 0
M  V30 7571 O 680.5 -4.22603 4.28591 0
M  V30 7572 H 684.326 -1.30007 2.74466 0
M  V30 7573 H 681.911 -0.579539 1.37701 0
M  V30 7574 H 683.793 -3.66236 2.08445 0
M  V30 7575 H 682.468 -3.06189 1.05025 0
M  V30 7576 H 681.375 -2.04504 3.13256 0
M  V30 7577 H 682.708 -2.7071 4.11068 0
M  V30 7578 N 684.36 -1.4356 -0.65026 0
M  V30 7579 C 685.29 -1.51758 -1.77459 0
M  V30 7580 C 686.271 -0.372019 -1.65982 0
M  V30 7581 O 687.456 -0.589627 -1.85033 0
M  V30 7582 C 684.586 -1.44302 -3.15902 0
M  V30 7583 C 683.54 -2.57138 -3.42146 0
M  V30 7584 C 682.866 -2.34735 -4.8042 0
M  V30 7585 C 684.166 -3.99373 -3.36598 0
M  V30 7586 H 685.86 -2.45863 -1.70855 0
M  V30 7587 H 683.406 -1.18333 -0.820566 0
M  V30 7588 H 685.359 -1.48641 -3.94314 0
M  V30 7589 H 684.083 -0.467026 -3.23244 0
M  V30 7590 H 682.742 -2.52157 -2.66106 0
M  V30 7591 H 682.39 -1.35372 -4.84441 0
M  V30 7592 H 682.09 -3.10375 -4.9894 0
M  V30 7593 H 683.614 -2.40862 -5.61086 0
M  V30 7594 H 685.028 -4.05826 -4.04942 0
M  V30 7595 H 683.425 -4.75063 -3.66654 0
M  V30 7596 H 684.495 -4.243 -2.34729 0
M  V30 7597 N 685.838 0.888903 -1.30139 0
M  V30 7598 C 687.087 1.63507 -1.18103 0
M  V30 7599 C 687.4 1.93808 0.264141 0
M  V30 7600 O 688.606 2.66744 0.505966 0
M  V30 7601 C 687.062 2.94673 -2.0663 0
M  V30 7602 C 686.67 2.71926 -3.56034 0
M  V30 7603 C 688.414 3.72626 -2.03346 0
M  V30 7604 C 686.321 3.98884 -4.3663 0
M  V30 7605 H 685.251 0.613426 -0.438435 0
M  V30 7606 H 687.902 0.984427 -1.54859 0
M  V30 7607 H 686.284 3.61009 -1.62754 0
M  V30 7608 H 687.458 2.14116 -4.08033 0
M  V30 7609 H 685.773 2.07353 -3.61101 0
M  V30 7610 H 688.37 4.66775 -2.60816 0
M  V30 7611 H 688.713 4.03712 -1.016 0
M  V30 7612 H 689.246 3.13147 -2.45324 0
M  V30 7613 H 685.985 3.72959 -5.39056 0
M  V30 7614 H 685.505 4.56214 -3.89396 0
M  V30 7615 H 687.184 4.66938 -4.47859 0
M  V30 7616 N 687.317 1.12792 1.10072 0
M  V30 7617 C 688.594 0.796867 1.78632 0
M  V30 7618 C 688.974 -0.712739 1.98704 0
M  V30 7619 O 688.322 -1.64773 1.5831 0
M  V30 7620 C 688.532 1.57622 3.11378 0
M  V30 7621 C 689.88 1.76463 3.86194 0
M  V30 7622 O 690.904 1.54165 3.2111 0
M  V30 7623 O 689.763 2.13623 5.03018 0
M  V30 7624 H 686.857 0.290248 0.774394 0
M  V30 7625 H 689.403 1.23215 1.16688 0
M  V30 7626 H 688.175 2.60246 2.92212 0
M  V30 7627 H 687.798 1.13543 3.81043 0
M  V30 7628 N 688.795 -1.27931 0.920396 0
M  V30 7629 C 690.041 -1.94977 0.557832 0
M  V30 7630 C 690.374 -1.72224 -0.897365 0
M  V30 7631 O 689.649 -1.04705 -1.63912 0
M  V30 7632 C 689.932 -3.49289 0.875741 0
M  V30 7633 C 689.785 -3.81416 2.38416 0
M  V30 7634 C 691.104 -4.38486 0.376517 0
M  V30 7635 H 688.223 -0.708164 0.20414 0
M  V30 7636 H 690.865 -1.5118 1.15085 0
M  V30 7637 H 689.015 -3.86724 0.371062 0
M  V30 7638 H 690.687 -3.53813 2.95997 0
M  V30 7639 H 688.93 -3.28225 2.83639 0
M  V30 7640 H 689.601 -4.89198 2.55713 0
M  V30 7641 H 692.077 -4.08161 0.808945 0
M  V30 7642 H 690.953 -5.45296 0.627976 0
M  V30 7643 H 691.214 -4.36143 -0.723293 0
M  V30 7644 N 690.273 -0.685099 -1.4193 0
M  V30 7645 C 691.236 -0.0222632 -2.29189 0
M  V30 7646 C 692.236 0.7186 -1.4385 0
M  V30 7647 O 693.426 0.555058 -1.6512 0
M  V30 7648 C 690.558 0.979013 -3.2654 0
M  V30 7649 H 691.751 -0.790424 -2.89296 0
M  V30 7650 H 689.304 -0.448012 -1.49742 0
M  V30 7651 H 690.039 1.77531 -2.71392 0
M  V30 7652 H 689.824 0.451037 -3.89497 0
M  V30 7653 H 691.314 1.44091 -3.91954 0
M  V30 7654 N 691.751 1.51645 -0.429126 0
M  V30 7655 C 692.997 2.02314 0.140286 0
M  V30 7656 C 693.33 1.31314 1.43074 0
M  V30 7657 O 692.605 0.425531 1.89788 0
M  V30 7658 C 692.888 3.5822 0.36749 0
M  V30 7659 C 692.741 4.39846 -0.941039 0
M  V30 7660 C 694.06 4.25055 1.14089 0
M  V30 7661 H 691.179 0.735335 0.0495112 0
M  V30 7662 H 693.821 1.81358 -0.566514 0
M  V30 7663 H 691.971 3.76207 0.969556 0
M  V30 7664 H 693.643 4.33527 -1.57646 0
M  V30 7665 H 691.886 4.05259 -1.54751 0
M  V30 7666 H 692.557 5.47069 -0.73621 0
M  V30 7667 H 695.033 4.11288 0.630986 0
M  V30 7668 H 693.909 5.34038 1.26863 0
M  V30 7669 H 694.17 3.85358 2.16683 0
M  V30 7670 N 693.229 0.160201 1.56784 0
M  V30 7671 C 694.139 -0.787167 2.21 0
M  V30 7672 C 695.155 -1.26167 1.19825 0
M  V30 7673 O 696.331 -1.31611 1.52448 0
M  V30 7674 C 693.396 -2.00364 2.8294 0
M  V30 7675 C 692.457 -1.5771 3.99282 0
M  V30 7676 C 691.69 -2.73558 4.58259 0
M  V30 7677 O 691.913 -3.90129 4.16119 0
M  V30 7678 O 690.847 -2.48271 5.48311 0
M  V30 7679 H 694.673 -0.270462 3.02493 0
M  V30 7680 H 692.258 -0.0674666 1.49248 0
M  V30 7681 H 694.14 -2.71529 3.22257 0
M  V30 7682 H 692.815 -2.50961 2.04451 0
M  V30 7683 H 691.722 -0.835274 3.64656 0
M  V30 7684 H 693.055 -1.11815 4.79331 0
M  V30 7685 N 694.707 -1.5719 -0.113559 0
M  V30 7686 C 695.654 -2.00736 -1.13901 0
M  V30 7687 C 696.624 -0.88044 -1.40846 0
M  V30 7688 O 697.809 -1.14507 -1.5262 0
M  V30 7689 C 694.949 -2.42132 -2.45899 0
M  V30 7690 C 694.062 -3.68264 -2.25844 0
M  V30 7691 C 693.197 -3.98617 -3.5111 0
M  V30 7692 C 692.236 -5.17915 -3.26236 0
M  V30 7693 N 691.373 -5.44111 -4.4372 0
M  V30 7694 H 696.213 -2.88128 -0.760677 0
M  V30 7695 H 693.75 -1.42523 -0.364099 0
M  V30 7696 H 695.708 -2.6417 -3.22908 0
M  V30 7697 H 694.338 -1.57775 -2.81615 0
M  V30 7698 H 693.39 -3.53809 -1.39726 0
M  V30 7699 H 694.702 -4.55425 -2.03444 0
M  V30 7700 H 693.856 -4.21333 -4.36536 0
M  V30 7701 H 692.595 -3.09942 -3.76546 0
M  V30 7702 H 691.6 -4.95038 -2.39202 0
M  V30 7703 H 692.825 -6.08172 -3.02165 0
M  V30 7704 H 690.771 -4.58394 -4.69266 0
M  V30 7705 H 690.688 -6.25606 -4.24444 0
M  V30 7706 H 691.956 -5.71351 -5.30263 0
M  V30 7707 N 696.185 0.383891 -1.52853 0
M  V30 7708 C 697.148 1.45197 -1.77343 0
M  V30 7709 C 698.148 1.47362 -0.643522 0
M  V30 7710 O 699.338 1.48443 -0.911613 0
M  V30 7711 C 696.47 2.8445 -1.87885 0
M  V30 7712 H 697.663 1.24764 -2.72716 0
M  V30 7713 H 695.216 0.615939 -1.43652 0
M  V30 7714 H 695.951 3.10222 -0.94515 0
M  V30 7715 H 695.736 2.8428 -2.70051 0
M  V30 7716 H 697.226 3.61832 -2.08488 0
M  V30 7717 N 697.663 1.43903 0.642637 0
M  V30 7718 C 698.911 1.45791 1.39962 0
M  V30 7719 C 699.232 0.0873144 1.94804 0
M  V30 7720 O 698.502 -0.878825 1.75081 0
M  V30 7721 H 697.082 0.536797 0.519479 0
M  V30 7722 H 699.744 1.7959 0.757189 0
M  V30 7723 H 698.84 2.17665 2.2367 0
M  V30 7724 N 699.141 -0.881989 1.30609 0
M  V30 7725 C 700.051 -2.02076 1.19174 0
M  V30 7726 C 701.067 -1.73645 0.11102 0
M  V30 7727 O 702.243 -1.98735 0.326528 0
M  V30 7728 C 699.308 -3.3515 0.887438 0
M  V30 7729 C 698.369 -3.76983 2.05383 0
M  V30 7730 C 697.602 -5.03707 1.76395 0
M  V30 7731 O 697.825 -5.66171 0.693302 0
M  V30 7732 O 696.759 -5.42019 2.61723 0
M  V30 7733 H 700.585 -2.14652 2.14845 0
M  V30 7734 H 698.17 -1.00843 1.10232 0
M  V30 7735 H 700.052 -4.14975 0.73306 0
M  V30 7736 H 698.727 -3.23676 -0.0393354 0
M  V30 7737 H 697.634 -2.97849 2.26355 0
M  V30 7738 H 698.967 -3.93066 2.96243 0
M  V30 7739 N 700.619 -1.13374 -1.09472 0
M  V30 7740 C 701.844 -0.918711 -1.85942 0
M  V30 7741 C 702.269 0.527225 -1.8056 0
M  V30 7742 O 701.627 1.37408 -1.18274 0
M  V30 7743 C 701.675 -1.41056 -3.31867 0
M  V30 7744 O 700.779 -0.595496 -4.08078 0
M  V30 7745 H 700.12 -0.329297 -0.576593 0
M  V30 7746 H 702.65 -1.50829 -1.38245 0
M  V30 7747 H 702.66 -1.41398 -3.82715 0
M  V30 7748 H 701.335 -2.46335 -3.35099 0
M  V30 7749 H 699.912 -0.659911 -3.67014 0
M  V30 7750 N 702.098 1.27442 -0.927168 0
M  V30 7751 C 703.061 2.2512 -0.430525 0
M  V30 7752 C 704.061 1.54357 0.450619 0
M  V30 7753 O 705.251 1.72371 0.251774 0
M  V30 7754 C 702.383 3.38763 0.381144 0
M  V30 7755 H 703.576 2.70569 -1.29354 0
M  V30 7756 H 701.129 1.39355 -0.707806 0
M  V30 7757 H 701.864 2.98695 1.263 0
M  V30 7758 H 701.649 3.91298 -0.250618 0
M  V30 7759 H 703.139 4.11364 0.719012 0
M  V30 7760 N 703.576 0.692616 1.41565 0
M  V30 7761 C 704.524 0.0139952 2.32596 0
M  V30 7762 C 705.518 -0.771691 1.50802 0
M  V30 7763 O 706.724 -0.677646 1.66757 0
M  V30 7764 H 703.099 -0.0142745 0.751865 0
M  V30 7765 H 705.07 0.798851 2.87508 0
M  V30 7766 C 703.819 -0.910602 3.35564 0
M  V30 7767 H 703.142 -0.315446 3.98554 0
M  V30 7768 H 704.582 -1.3538 4.01806 0
M  V30 7769 C 703.041 -2.02539 2.6922 0
M  V30 7770 O 703.571 -3.11386 2.53775 0
M  V30 7771 N 701.777 -1.80227 2.27962 0
M  V30 7772 H 701.324 -0.917054 2.40724 0
M  V30 7773 H 701.282 -2.55001 1.83907 0
M  V30 7774 N 705.054 -1.51416 0.437162 0
M  V30 7775 C 706.282 -2.06503 -0.128045 0
M  V30 7776 C 706.697 -1.30461 -1.36475 0
M  V30 7777 O 706.054 -0.364127 -1.78831 0
M  V30 7778 C 706.105 -3.58683 -0.450437 0
M  V30 7779 O 705.826 -4.31853 0.737186 0
M  V30 7780 C 707.327 -4.30284 -1.06633 0
M  V30 7781 H 704.547 -0.670952 -0.00800269 0
M  V30 7782 H 707.091 -1.94996 0.616193 0
M  V30 7783 H 705.246 -3.70106 -1.14457 0
M  V30 7784 H 705.66 -5.22467 0.461347 0
M  V30 7785 H 707.134 -5.37848 -1.24191 0
M  V30 7786 H 707.611 -3.88564 -2.0473 0
M  V30 7787 H 708.217 -4.23304 -0.411585 0
M  V30 7788 N 706.532 -0.168513 -1.56696 0
M  V30 7789 C 707.479 0.762875 -2.17828 0
M  V30 7790 C 708.449 1.22892 -1.11745 0
M  V30 7791 O 709.634 1.29759 -1.39883 0
M  V30 7792 C 706.774 1.9879 -2.82093 0
M  V30 7793 C 705.887 1.56568 -4.02629 0
M  V30 7794 C 705.022 2.74416 -4.54829 0
M  V30 7795 C 704.061 2.28671 -5.67782 0
M  V30 7796 N 703.198 3.39602 -6.14504 0
M  V30 7797 H 708.038 0.23479 -2.97074 0
M  V30 7798 H 705.575 0.104163 -1.46731 0
M  V30 7799 H 707.533 2.70636 -3.17509 0
M  V30 7800 H 706.163 2.48973 -2.05456 0
M  V30 7801 H 705.215 0.744067 -3.73052 0
M  V30 7802 H 706.527 1.18988 -4.844 0
M  V30 7803 H 705.681 3.54423 -4.92412 0
M  V30 7804 H 704.42 3.15254 -3.7211 0
M  V30 7805 H 703.425 1.4711 -5.29753 0
M  V30 7806 H 704.65 1.88894 -6.52301 0
M  V30 7807 H 702.596 3.80021 -5.34715 0
M  V30 7808 H 702.513 3.06105 -6.91257 0
M  V30 7809 H 703.781 4.19902 -6.56737 0
M  V30 7810 N 708.01 1.57248 0.105221 0
M  V30 7811 C 709.287 1.76566 0.841647 0
M  V30 7812 C 709.667 0.747566 1.9742 0
M  V30 7813 O 709.015 -0.225886 2.27381 0
M  V30 7814 C 709.225 3.22016 1.3456 0
M  V30 7815 C 710.573 3.84911 1.79244 0
M  V30 7816 O 711.597 3.25703 1.44207 0
M  V30 7817 O 710.456 4.89008 2.43995 0
M  V30 7818 H 707.55 0.723443 0.400698 0
M  V30 7819 H 710.096 1.69472 0.0878893 0
M  V30 7820 H 708.868 3.87644 0.533685 0
M  V30 7821 H 708.491 3.33703 2.16167 0
M  V30 7822 N 709.488 -0.375779 1.53054 0
M  V30 7823 C 710.713 -1.14484 1.7294 0
M  V30 7824 C 711.138 -1.82572 0.452668 0
M  V30 7825 O 710.496 -1.71343 -0.592567 0
M  V30 7826 C 710.544 -2.15857 2.88857 0
M  V30 7827 O 709.648 -3.22725 2.56753 0
M  V30 7828 H 708.989 -0.332666 0.574656 0
M  V30 7829 H 711.519 -0.436025 1.999 0
M  V30 7830 H 711.529 -2.59631 3.14731 0
M  V30 7831 H 710.204 -1.65689 3.81471 0
M  V30 7832 H 708.781 -2.83996 2.41663 0
M  V30 7833 N 710.966 -1.44241 -0.634997 0
M  V30 7834 C 711.929 -1.50457 -1.72903 0
M  V30 7835 C 712.929 -0.387058 -1.56072 0
M  V30 7836 O 714.119 -0.649531 -1.61638 0
M  V30 7837 C 711.251 -1.37477 -3.1195 0
M  V30 7838 H 712.444 -2.47907 -1.68767 0
M  V30 7839 H 709.997 -1.31276 -0.84831 0
M  V30 7840 H 710.732 -0.41106 -3.21684 0
M  V30 7841 H 710.517 -2.18506 -3.25573 0
M  V30 7842 H 712.007 -1.44799 -3.91692 0
M  V30 7843 N 712.444 0.87505 -1.31075 0
M  V30 7844 C 713.721 1.60976 -1.11113 0
M  V30 7845 C 714.101 2.08409 0.336006 0
M  V30 7846 O 713.449 1.85858 1.32924 0
M  V30 7847 C 713.659 2.77166 -2.12085 0
M  V30 7848 C 715.007 3.47254 -2.44335 0
M  V30 7849 O 716.031 2.87367 -2.10472 0
M  V30 7850 O 714.89 4.55276 -3.02301 0
M  V30 7851 H 711.984 0.707982 -0.427424 0
M  V30 7852 H 714.53 0.920957 -1.42536 0
M  V30 7853 H 713.302 2.39494 -3.09449 0
M  V30 7854 H 712.925 3.53737 -1.81538 0
M  V30 7855 N 713.922 1.13953 1.08869 0
M  V30 7856 C 715.199 0.815768 1.77777 0
M  V30 7857 C 715.579 -0.691624 1.99449 0
M  V30 7858 O 714.927 -1.63085 1.60049 0
M  V30 7859 C 715.137 1.60916 3.09689 0
M  V30 7860 C 716.485 1.80549 3.84301 0
M  V30 7861 O 717.509 1.57562 3.19457 0
M  V30 7862 O 716.368 2.18946 5.00724 0
M  V30 7863 H 713.462 0.298445 0.771271 0
M  V30 7864 H 716.008 1.24446 1.15374 0
M  V30 7865 H 714.78 2.6333 2.89435 0
M  V30 7866 H 714.403 1.17578 3.79817 0
M  V30 7867 N 715.4 -1.26948 0.933913 0
M  V30 7868 C 716.348 -2.2862 0.428463 0
M  V30 7869 C 717.342 -1.62144 -0.490464 0
M  V30 7870 O 718.548 -1.76167 -0.36948 0
M  V30 7871 H 714.923 -0.742363 0.120003 0
M  V30 7872 H 716.894 -2.68659 1.29865 0
M  V30 7873 C 715.643 -3.46423 -0.29774 0
M  V30 7874 H 714.966 -3.97792 0.400183 0
M  V30 7875 H 716.406 -4.19505 -0.615736 0
M  V30 7876 C 714.865 -3.01017 -1.51295 0
M  V30 7877 O 715.395 -3.05226 -2.61151 0
M  V30 7878 N 713.601 -2.56442 -1.36696 0
M  V30 7879 H 713.148 -2.53217 -0.473178 0
M  V30 7880 H 713.106 -2.26424 -2.18127 0
M  V30 7881 N 716.879 -0.700114 -1.41195 0
M  V30 7882 C 717.829 -0.0144098 -2.27995 0
M  V30 7883 C 718.813 0.748249 -1.42443 0
M  V30 7884 O 720.005 0.622995 -1.65674 0
M  V30 7885 C 717.134 0.917938 -3.308 0
M  V30 7886 C 716.22 0.151286 -4.2383 0
M  V30 7887 N 716.611 -0.85732 -4.98481 0
M  V30 7888 C 714.909 0.386108 -4.44326 0
M  V30 7889 C 715.61 -1.31663 -5.66604 0
M  V30 7890 N 714.586 -0.641689 -5.39799 0
M  V30 7891 H 718.388 -0.787662 -2.83149 0
M  V30 7892 H 715.902 -0.531344 -1.53462 0
M  V30 7893 H 717.899 1.42437 -3.91813 0
M  V30 7894 H 716.559 1.69074 -2.77208 0
M  V30 7895 H 717.57 -1.2377 -5.02893 0
M  V30 7896 H 714.247 1.13644 -4.01735 0
M  V30 7897 H 715.637 -2.15384 -6.36443 0
M  V30 7898 N 718.357 1.51182 -0.445186 0
M  V30 7899 C 719.287 2.30821 0.352686 0
M  V30 7900 C 720.268 1.36576 1.01395 0
M  V30 7901 O 721.453 1.65497 1.01609 0
M  V30 7902 C 718.583 3.15593 1.44976 0
M  V30 7903 C 717.537 4.1818 0.911553 0
M  V30 7904 C 716.863 4.91523 2.10497 0
M  V30 7905 C 718.163 5.22266 -0.059418 0
M  V30 7906 H 719.857 2.97771 -0.311936 0
M  V30 7907 H 717.403 1.43201 -0.151461 0
M  V30 7908 H 719.356 3.70091 2.01521 0
M  V30 7909 H 718.08 2.4648 2.14278 0
M  V30 7910 H 716.739 3.64746 0.368264 0
M  V30 7911 H 716.387 4.18906 2.78437 0
M  V30 7912 H 716.087 5.60898 1.7512 0
M  V30 7913 H 717.611 5.48847 2.6758 0
M  V30 7914 H 719.025 5.71789 0.415985 0
M  V30 7915 H 717.422 5.99213 -0.326152 0
M  V30 7916 H 718.492 4.7461 -0.993631 0
M  V30 7917 N 719.835 0.176821 1.56605 0
M  V30 7918 C 721.06 -0.47599 2.01864 0
M  V30 7919 C 721.485 -1.55645 1.05623 0
M  V30 7920 O 720.843 -1.81263 0.0366729 0
M  V30 7921 C 720.891 -1.02619 3.4569 0
M  V30 7922 O 719.995 -2.13996 3.52533 0
M  V30 7923 H 719.336 -0.113363 0.654251 0
M  V30 7924 H 721.866 0.28233 2.02643 0
M  V30 7925 H 721.876 -1.34742 3.85109 0
M  V30 7926 H 720.551 -0.235138 4.15235 0
M  V30 7927 H 719.128 -1.82876 3.24978 0
M  V30 7928 N 721.313 -1.57302 -0.09688 0
M  V30 7929 C 722.724 -1.7496 -0.651595 0
M  V30 7930 C 723.075 -0.798746 -1.79205 0
M  V30 7931 O 722.2 0.0231858 -2.16388 0
M  V30 7932 C 722.795 -3.17259 -1.18878 0
M  V30 7933 C 721.354 -3.36348 -1.68958 0
M  V30 7934 C 720.501 -2.70766 -0.598413 0
M  V30 7935 H 723.452 -1.58173 0.12918 0
M  V30 7936 H 723.473 -3.20033 -2.05814 0
M  V30 7937 H 722.985 -3.8644 -0.358523 0
M  V30 7938 H 721.086 -2.72243 -2.5439 0
M  V30 7939 H 721.199 -4.44654 -1.7838 0
M  V30 7940 H 719.563 -2.32615 -1.03743 0
M  V30 7941 H 720.346 -3.42586 0.221238 0
M  V30 7942 N 722.791 0.367657 -1.53252 0
M  V30 7943 C 724.016 1.13566 -1.73544 0
M  V30 7944 C 724.441 1.82329 -0.462344 0
M  V30 7945 O 723.799 1.71655 0.583472 0
M  V30 7946 C 723.847 2.14322 -2.89997 0
M  V30 7947 O 722.951 3.21359 -2.58461 0
M  V30 7948 H 722.292 0.329614 -0.576412 0
M  V30 7949 H 724.822 0.425417 -2.00128 0
M  V30 7950 H 724.832 2.57958 -3.16104 0
M  V30 7951 H 723.507 1.63664 -3.82344 0
M  V30 7952 H 722.084 2.8271 -2.43165 0
M  V30 7953 N 724.269 1.44576 0.627338 0
M  V30 7954 C 725.685 1.28546 0.945938 0
M  V30 7955 C 725.885 0.224003 2.00251 0
M  V30 7956 O 724.941 -0.388817 2.49488 0
M  V30 7957 C 726.254 2.65825 1.40561 0
M  V30 7958 C 727.802 2.73566 1.52088 0
M  V30 7959 C 728.277 4.11323 2.01438 0
M  V30 7960 N 729.768 4.13519 2.08702 0
M  V30 7961 C 730.503 5.16964 2.48065 0
M  V30 7962 N 729.999 6.30768 2.86538 0
M  V30 7963 N 731.792 5.04319 2.48232 0
M  V30 7964 H 723.943 2.1228 -0.0713567 0
M  V30 7965 H 726.206 0.947503 0.0307081 0
M  V30 7966 H 725.912 3.44591 0.703539 0
M  V30 7967 H 725.786 2.92969 2.37591 0
M  V30 7968 H 728.173 1.95116 2.21391 0
M  V30 7969 H 728.254 2.50159 0.534237 0
M  V30 7970 H 727.898 4.9025 1.32729 0
M  V30 7971 H 727.828 4.32109 3.0098 0
M  V30 7972 H 730.319 3.31385 1.81638 0
M  V30 7973 H 730.632 7.0551 3.15398 0
M  V30 7974 H 728.977 6.342 2.84281 0
M  V30 7975 H 732.168 4.14465 2.17569 0
M  V30 7976 H 732.341 5.85059 2.78585 0
M  V30 7977 N 725.747 -0.868086 1.31537 0
M  V30 7978 C 726.993 -1.62359 1.2252 0
M  V30 7979 C 727.348 -1.91204 -0.214169 0
M  V30 7980 O 726.641 -1.5339 -1.14813 0
M  V30 7981 C 726.835 -2.95889 2.0046 0
M  V30 7982 C 726.664 -2.80082 3.5183 0
M  V30 7983 C 725.434 -2.7917 4.21179 0
M  V30 7984 C 727.632 -2.54805 4.46743 0
M  V30 7985 N 725.614 -2.54433 5.58692 0
M  V30 7986 C 726.985 -2.39349 5.71937 0
M  V30 7987 C 729.04 -2.40165 4.36148 0
M  V30 7988 C 727.743 -2.1074 6.87736 0
M  V30 7989 C 729.769 -2.12945 5.51732 0
M  V30 7990 C 729.131 -1.98278 6.75918 0
M  V30 7991 H 725.23 -0.598381 0.503452 0
M  V30 7992 H 727.814 -1.02156 1.65748 0
M  V30 7993 H 725.985 -3.54095 1.59598 0
M  V30 7994 H 727.717 -3.60734 1.83447 0
M  V30 7995 H 724.472 -2.91621 3.73168 0
M  V30 7996 H 724.896 -2.45029 6.31102 0
M  V30 7997 H 729.538 -2.50231 3.408 0
M  V30 7998 H 727.256 -1.99412 7.8311 0
M  V30 7999 H 730.842 -2.02415 5.45454 0
M  V30 8000 H 729.722 -1.77514 7.63845 0
M  V30 8001 N 727.225 -1.14528 -1.08264 0
M  V30 8002 C 728.172 -0.833556 -2.15222 0
M  V30 8003 C 729.142 0.209539 -1.64773 0
M  V30 8004 O 730.327 0.0791388 -1.90636 0
M  V30 8005 C 727.467 -0.318799 -3.43624 0
M  V30 8006 C 726.58 -1.42237 -4.07913 0
M  V30 8007 C 725.715 -0.864704 -5.24115 0
M  V30 8008 C 724.754 -1.94585 -5.80347 0
M  V30 8009 N 723.891 -1.40525 -6.87893 0
M  V30 8010 H 728.731 -1.74965 -2.41228 0
M  V30 8011 H 726.268 -0.873169 -1.18381 0
M  V30 8012 H 728.226 -0.00213088 -4.172 0
M  V30 8013 H 726.856 0.560397 -3.17898 0
M  V30 8014 H 725.908 -1.8554 -3.32083 0
M  V30 8015 H 727.22 -2.23901 -4.45724 0
M  V30 8016 H 726.374 -0.500025 -6.04636 0
M  V30 8017 H 725.113 -0.0171219 -4.87697 0
M  V30 8018 H 724.118 -2.31946 -4.98479 0
M  V30 8019 H 725.343 -2.79704 -6.18823 0
M  V30 8020 H 723.289 -0.579873 -6.53432 0
M  V30 8021 H 723.206 -2.15825 -7.24538 0
M  V30 8022 H 724.474 -1.06852 -7.72142 0
M  V30 8023 N 728.703 1.26451 -0.940633 0
M  V30 8024 C 729.949 1.94401 -0.598303 0
M  V30 8025 C 730.304 1.72449 0.853178 0
M  V30 8026 O 729.597 1.0506 1.60228 0
M  V30 8027 C 729.791 3.46503 -0.875794 0
M  V30 8028 C 729.62 3.83247 -2.3527 0
M  V30 8029 C 728.39 4.06032 -3.00776 0
M  V30 8030 C 730.588 3.91841 -3.33114 0
M  V30 8031 N 728.57 4.29656 -4.38485 0
M  V30 8032 C 729.941 4.19991 -4.56078 0
M  V30 8033 C 731.996 3.74466 -3.28146 0
M  V30 8034 C 730.699 4.32574 -5.74693 0
M  V30 8035 C 732.725 3.88281 -4.46085 0
M  V30 8036 C 732.087 4.16829 -5.67831 0
M  V30 8037 H 728.186 0.734168 -0.269297 0
M  V30 8038 H 730.77 1.52541 -1.20992 0
M  V30 8039 H 728.941 3.87292 -0.293223 0
M  V30 8040 H 730.673 4.01664 -0.494788 0
M  V30 8041 H 727.428 4.01369 -2.51396 0
M  V30 8042 H 727.852 4.45501 -5.09762 0
M  V30 8043 H 732.494 3.51424 -2.35077 0
M  V30 8044 H 730.212 4.54438 -6.68215 0
M  V30 8045 H 733.798 3.76241 -4.43773 0
M  V30 8046 H 732.678 4.27284 -6.5757 0
M  V30 8047 N 730.181 0.707592 1.40822 0
M  V30 8048 C 731.144 0.0587224 2.29125 0
M  V30 8049 C 732.144 -0.695624 1.44975 0
M  V30 8050 O 733.334 -0.528718 1.65983 0
M  V30 8051 C 730.466 -0.926939 3.28056 0
M  V30 8052 H 731.659 0.836349 2.88002 0
M  V30 8053 H 729.212 0.471778 1.4901 0
M  V30 8054 H 729.947 -1.7319 2.74182 0
M  V30 8055 H 729.732 -0.389015 3.90165 0
M  V30 8056 H 731.222 -1.37837 3.94196 0
M  V30 8057 N 731.66 -1.50943 0.453197 0
M  V30 8058 C 733.076 -1.59245 0.106342 0
M  V30 8059 C 733.276 -1.46287 -1.38572 0
M  V30 8060 O 732.332 -1.31219 -2.15726 0
M  V30 8061 C 733.645 -2.93797 0.640595 0
M  V30 8062 C 735.193 -3.07148 0.602435 0
M  V30 8063 C 735.668 -4.44247 1.11393 0
M  V30 8064 N 737.159 -4.50611 1.07258 0
M  V30 8065 C 737.894 -5.55049 1.43905 0
M  V30 8066 N 737.39 -6.66828 1.87914 0
M  V30 8067 N 739.183 -5.45494 1.35621 0
M  V30 8068 H 731.334 -1.5761 1.42382 0
M  V30 8069 H 733.597 -0.74384 0.587713 0
M  V30 8070 H 733.303 -3.087 1.68515 0
M  V30 8071 H 733.177 -3.77127 0.0742272 0
M  V30 8072 H 735.564 -2.91903 -0.433171 0
M  V30 8073 H 735.645 -2.25619 1.20539 0
M  V30 8074 H 735.289 -4.60239 2.14808 0
M  V30 8075 H 735.219 -5.2434 0.487353 0
M  V30 8076 H 737.71 -3.70391 0.749585 0
M  V30 8077 H 738.023 -7.42558 2.14072 0
M  V30 8078 H 736.368 -6.67995 1.91853 0
M  V30 8079 H 739.559 -4.57053 1.01093 0
M  V30 8080 H 739.732 -6.2677 1.64508 0
M  V30 8081 N 733.138 -0.185124 -1.56509 0
M  V30 8082 C 734.085 0.739729 -2.18624 0
M  V30 8083 C 735.055 1.217 -1.13042 0
M  V30 8084 O 736.24 1.28268 -1.41251 0
M  V30 8085 C 733.38 1.95787 -2.84186 0
M  V30 8086 C 732.493 1.52289 -4.04267 0
M  V30 8087 C 731.628 2.69576 -4.57714 0
M  V30 8088 C 730.667 2.22636 -5.70175 0
M  V30 8089 N 729.804 3.33065 -6.18071 0
M  V30 8090 H 734.644 0.203269 -2.97306 0
M  V30 8091 H 732.181 0.0885946 -1.46833 0
M  V30 8092 H 734.139 2.67253 -3.20361 0
M  V30 8093 H 732.769 2.4678 -2.08085 0
M  V30 8094 H 731.821 0.704458 -3.7382 0
M  V30 8095 H 733.133 1.13843 -4.85635 0
M  V30 8096 H 732.287 3.4918 -4.96143 0
M  V30 8097 H 731.026 3.1129 -3.75433 0
M  V30 8098 H 730.031 1.41483 -5.31284 0
M  V30 8099 H 731.256 1.81964 -6.54267 0
M  V30 8100 H 729.202 3.74328 -5.38715 0
M  V30 8101 H 729.119 2.98756 -6.94464 0
M  V30 8102 H 730.387 4.12912 -6.61153 0
M  V30 8103 N 734.616 1.57351 0.0885366 0
M  V30 8104 C 735.579 2.01557 1.09121 0
M  V30 8105 C 736.579 0.910052 1.3257 0
M  V30 8106 O 737.769 1.17537 1.28572 0
M  V30 8107 C 734.901 2.38189 2.43883 0
M  V30 8108 H 736.094 2.91361 0.710562 0
M  V30 8109 H 733.647 1.52694 0.333779 0
M  V30 8110 H 734.382 1.5136 2.86811 0
M  V30 8111 H 734.167 3.18846 2.28209 0
M  V30 8112 H 735.657 2.73025 3.15986 0
M  V30 8113 N 736.094 -0.359525 1.53444 0
M  V30 8114 C 737.024 -1.44662 1.8329 0
M  V30 8115 C 738.005 -1.55617 0.68683 0
M  V30 8116 O 739.19 -1.70086 0.93725 0
M  V30 8117 C 736.32 -2.81923 2.02822 0
M  V30 8118 C 735.274 -2.85787 3.18606 0
M  V30 8119 C 734.6 -4.25781 3.23442 0
M  V30 8120 C 735.9 -2.52762 4.57065 0
M  V30 8121 H 737.594 -1.19934 2.74329 0
M  V30 8122 H 735.14 -0.575517 1.31999 0
M  V30 8123 H 737.093 -3.58005 2.22285 0
M  V30 8124 H 735.817 -3.08051 1.085 0
M  V30 8125 H 734.476 -2.12157 2.98973 0
M  V30 8126 H 734.124 -4.48994 2.26745 0
M  V30 8127 H 733.824 -4.29281 4.01238 0
M  V30 8128 H 735.348 -5.03727 3.45096 0
M  V30 8129 H 736.762 -3.18557 4.76649 0
M  V30 8130 H 735.159 -2.67569 5.37147 0
M  V30 8131 H 736.229 -1.47993 4.61764 0
M  V30 8132 N 737.572 -1.44907 -0.619662 0
M  V30 8133 C 738.797 -1.52021 -1.41083 0
M  V30 8134 C 739.222 -0.14976 -1.87503 0
M  V30 8135 O 738.58 0.863303 -1.59426 0
M  V30 8136 C 738.628 -2.49911 -2.59955 0
M  V30 8137 O 737.732 -2.00857 -3.60181 0
M  V30 8138 H 737.073 -0.512912 -0.421684 0
M  V30 8139 H 739.603 -1.90149 -0.755282 0
M  V30 8140 H 739.613 -2.68323 -3.07354 0
M  V30 8141 H 738.288 -3.4945 -2.25516 0
M  V30 8142 H 736.865 -1.92265 -3.19513 0
M  V30 8143 N 739.05 0.861098 -1.31996 0
M  V30 8144 C 739.96 2.00154 -1.22374 0
M  V30 8145 C 740.976 1.73447 -0.138631 0
M  V30 8146 O 742.152 1.98191 -0.358104 0
M  V30 8147 C 739.217 3.33696 -0.940645 0
M  V30 8148 C 738.278 3.73668 -2.11355 0
M  V30 8149 C 737.511 5.00837 -1.84386 0
M  V30 8150 O 737.734 5.64996 -0.783287 0
M  V30 8151 O 736.668 5.37787 -2.70313 0
M  V30 8152 H 740.494 2.11207 -2.18233 0
M  V30 8153 H 738.079 0.990768 -1.11822 0
M  V30 8154 H 739.961 4.13756 -0.798987 0
M  V30 8155 H 738.636 3.23698 -0.0121636 0
M  V30 8156 H 737.543 2.94211 -2.31065 0
M  V30 8157 H 738.876 3.88303 -3.02459 0
M  V30 8158 N 740.528 1.15101 1.07655 0
M  V30 8159 C 741.756 0.947731 1.83918 0
M  V30 8160 C 742.171 -0.503927 1.81951 0
M  V30 8161 O 741.528 -1.34941 1.2287 0
M  V30 8162 C 741.579 1.4503 3.31132 0
M  V30 8163 O 741.3 2.84508 3.33146 0
M  V30 8164 C 742.801 1.28806 4.24174 0
M  V30 8165 H 740.021 0.336786 0.580358 0
M  V30 8166 H 742.565 1.52799 1.35914 0
M  V30 8167 H 740.72 0.912632 3.76497 0
M  V30 8168 H 741.134 3.0723 4.251 0
M  V30 8169 H 742.608 1.6882 5.25551 0
M  V30 8170 H 743.085 0.231851 4.38588 0
M  V30 8171 H 743.691 1.81465 3.84643 0
M  V30 8172 N 742.006 -1.2595 0.947325 0
M  V30 8173 C 743.231 -1.98083 0.614633 0
M  V30 8174 C 743.656 -1.70013 -0.804815 0
M  V30 8175 O 743.014 -0.95175 -1.54309 0
M  V30 8176 C 743.062 -3.4993 0.870706 0
M  V30 8177 O 742.166 -4.12364 -0.0541451 0
M  V30 8178 H 741.507 -0.621232 0.234451 0
M  V30 8179 H 744.037 -1.60259 1.27193 0
M  V30 8180 H 744.047 -4.00198 0.794051 0
M  V30 8181 H 742.722 -3.69691 1.90529 0
M  V30 8182 H 741.299 -3.72826 0.0740917 0
M  V30 8183 N 743.484 -0.715051 -1.40445 0
M  V30 8184 C 744.709 -0.26254 -2.05732 0
M  V30 8185 C 745.134 1.08691 -1.53519 0
M  V30 8186 O 744.492 1.68453 -0.670328 0
M  V30 8187 C 744.54 -0.25195 -3.59719 0
M  V30 8188 O 743.644 0.766998 -4.05205 0
M  V30 8189 H 742.985 -0.123398 -0.652433 0
M  V30 8190 H 745.515 -0.975382 -1.79854 0
M  V30 8191 H 745.525 -0.0894537 -4.07902 0
M  V30 8192 H 744.2 -1.23672 -3.97087 0
M  V30 8193 H 742.777 0.572269 -3.68483 0
M  V30 8194 N 744.962 1.50701 -0.461195 0
M  V30 8195 C 745.91 2.29918 0.352231 0
M  V30 8196 C 746.904 1.36778 0.999403 0
M  V30 8197 O 748.11 1.54015 0.931639 0
M  V30 8198 H 744.485 0.740249 0.132423 0
M  V30 8199 H 746.456 2.96497 -0.336424 0
M  V30 8200 C 745.205 3.17052 1.42736 0
M  V30 8201 H 744.528 3.88623 0.938747 0
M  V30 8202 H 745.968 3.75493 1.96928 0
M  V30 8203 C 744.427 2.3399 2.42384 0
M  V30 8204 O 744.957 2.01608 3.47444 0
M  V30 8205 N 743.163 1.96758 2.13857 0
M  V30 8206 H 742.71 2.23292 1.28447 0
M  V30 8207 H 742.668 1.41484 2.80766 0
M  V30 8208 N 746.441 0.193421 1.56409 0
M  V30 8209 C 747.388 -0.728124 2.19014 0
M  V30 8210 C 748.358 -1.21098 1.13686 0
M  V30 8211 O 749.543 -1.27517 1.4193 0
M  V30 8212 C 746.683 -1.94277 2.8522 0
M  V30 8213 C 745.796 -1.50143 4.05069 0
M  V30 8214 C 744.931 -2.67145 4.59137 0
M  V30 8215 C 743.97 -2.19609 5.71348 0
M  V30 8216 N 743.107 -3.29782 6.19829 0
M  V30 8217 H 747.947 -0.187499 2.9741 0
M  V30 8218 H 745.484 -0.0808064 1.46878 0
M  V30 8219 H 747.442 -2.65551 3.21774 0
M  V30 8220 H 746.072 -2.45673 2.09391 0
M  V30 8221 H 745.124 -0.684624 3.74189 0
M  V30 8222 H 746.436 -1.11266 4.86232 0
M  V30 8223 H 745.59 -3.46544 4.97988 0
M  V30 8224 H 744.329 -3.09295 3.77078 0
M  V30 8225 H 743.334 -1.38664 5.32027 0
M  V30 8226 H 744.559 -1.78492 6.55223 0
M  V30 8227 H 742.505 -3.71466 5.40693 0
M  V30 8228 H 742.422 -2.95069 6.96039 0
M  V30 8229 H 743.69 -4.094 6.63334 0
M  V30 8230 N 747.919 -1.57396 -0.0801906 0
M  V30 8231 C 749.144 -1.91437 -0.797909 0
M  V30 8232 C 749.569 -0.789075 -1.70749 0
M  V30 8233 O 748.927 0.25857 -1.79447 0
M  V30 8234 C 748.975 -3.24402 -1.57467 0
M  V30 8235 O 748.079 -3.13043 -2.68473 0
M  V30 8236 H 747.42 -0.627109 -0.218243 0
M  V30 8237 H 749.95 -2.04537 -0.050949 0
M  V30 8238 H 749.96 -3.58072 -1.95571 0
M  V30 8239 H 748.635 -4.05884 -0.907229 0
M  V30 8240 H 747.212 -2.90915 -2.33287 0
M  V30 8241 N 749.397 0.351382 -1.53633 0
M  V30 8242 C 750.644 1.0925 -1.70502 0
M  V30 8243 C 750.972 1.88881 -0.464123 0
M  V30 8244 O 750.227 1.87693 0.554077 0
M  V30 8245 C 750.526 2.06744 -2.91533 0
M  V30 8246 C 750.192 1.43484 -4.27461 0
M  V30 8247 C 748.854 1.2596 -4.64422 0
M  V30 8248 C 751.206 0.978436 -5.11934 0
M  V30 8249 C 748.534 0.614017 -5.83478 0
M  V30 8250 C 750.886 0.346795 -6.31649 0
M  V30 8251 C 749.55 0.15917 -6.6731 0
M  V30 8252 H 748.82 0.399773 -0.623909 0
M  V30 8253 H 751.467 0.372656 -1.87839 0
M  V30 8254 H 749.772 2.85082 -2.68767 0
M  V30 8255 H 751.469 2.64066 -3.01778 0
M  V30 8256 H 748.059 1.5812 -3.98367 0
M  V30 8257 H 752.243 1.1017 -4.83918 0
M  V30 8258 H 747.499 0.457194 -6.09688 0
M  V30 8259 H 751.673 -0.0149864 -6.96398 0
M  V30 8260 H 749.3 -0.343129 -7.59425 0
M  V30 8261 N 750.875 1.45233 0.611969 0
M  V30 8262 C 751.785 1.56098 1.7513 0
M  V30 8263 C 752.801 0.445646 1.68196 0
M  V30 8264 O 753.977 0.705718 1.88631 0
M  V30 8265 C 751.042 1.52052 3.11579 0
M  V30 8266 C 750.103 2.74589 3.29999 0
M  V30 8267 C 749.336 2.70726 4.59938 0
M  V30 8268 O 749.559 1.77806 5.41979 0
M  V30 8269 O 748.493 3.61864 4.80976 0
M  V30 8270 H 752.319 2.52392 1.68914 0
M  V30 8271 H 749.904 1.27695 0.775528 0
M  V30 8272 H 751.786 1.52387 3.92882 0
M  V30 8273 H 750.461 0.589085 3.18295 0
M  V30 8274 H 749.368 2.79817 2.48301 0
M  V30 8275 H 750.701 3.66843 3.28157 0
M  V30 8276 N 752.353 -0.854086 1.3245 0
M  V30 8277 C 753.301 -1.98411 1.21391 0
M  V30 8278 C 754.295 -1.68984 0.118586 0
M  V30 8279 O 755.501 -1.77784 0.281549 0
M  V30 8280 H 751.876 -0.651077 0.376301 0
M  V30 8281 H 753.847 -2.04867 2.16961 0
M  V30 8282 C 752.596 -3.34345 0.954407 0
M  V30 8283 H 751.919 -3.57518 1.78944 0
M  V30 8284 H 753.359 -4.13959 0.917269 0
M  V30 8285 C 751.818 -3.35151 -0.342838 0
M  V30 8286 O 752.348 -3.78174 -1.35452 0
M  V30 8287 N 750.554 -2.88298 -0.365012 0
M  V30 8288 H 750.101 -2.53481 0.4588 0
M  V30 8289 H 750.059 -2.8922 -1.23284 0
M  V30 8290 N 753.831 -1.1567 -1.07043 0
M  V30 8291 C 754.778 -0.856336 -2.14326 0
M  V30 8292 C 755.748 0.192051 -1.64986 0
M  V30 8293 O 756.933 0.0589148 -1.90709 0
M  V30 8294 C 754.073 -0.355227 -3.43267 0
M  V30 8295 C 753.186 -1.46555 -4.06381 0
M  V30 8296 C 752.321 -0.920245 -5.23168 0
M  V30 8297 C 751.36 -2.00729 -5.78251 0
M  V30 8298 N 750.497 -1.47813 -6.86364 0
M  V30 8299 H 755.337 -1.77514 -2.39359 0
M  V30 8300 H 752.874 -0.885676 -1.17449 0
M  V30 8301 H 754.832 -0.0463804 -4.17174 0
M  V30 8302 H 753.462 0.526649 -3.18475 0
M  V30 8303 H 752.514 -1.89052 -3.30096 0
M  V30 8304 H 753.826 -2.28616 -4.43324 0
M  V30 8305 H 752.98 -0.564127 -6.04072 0
M  V30 8306 H 751.719 -0.0688477 -4.87651 0
M  V30 8307 H 750.724 -2.3722 -4.95991 0
M  V30 8308 H 751.949 -2.86252 -6.15822 0
M  V30 8309 H 749.895 -0.649145 -6.5278 0
M  V30 8310 H 749.812 -2.23498 -7.22208 0
M  V30 8311 H 751.08 -1.15036 -7.70965 0
M  V30 8312 N 755.309 1.25446 -0.953992 0
M  V30 8313 C 756.539 1.96929 -0.624688 0
M  V30 8314 C 756.947 1.71112 0.807292 0
M  V30 8315 O 756.29 0.983512 1.55154 0
M  V30 8316 C 756.352 3.50425 -0.802676 0
M  V30 8317 C 756.016 3.99916 -2.21169 0
M  V30 8318 C 757.013 4.10662 -3.18831 0
M  V30 8319 C 754.698 4.33598 -2.53571 0
M  V30 8320 C 756.692 4.54401 -4.46988 0
M  V30 8321 C 754.379 4.77024 -3.81958 0
M  V30 8322 C 755.377 4.87388 -4.78478 0
M  V30 8323 O 755.065 5.29851 -6.04577 0
M  V30 8324 H 754.797 0.634511 -0.233179 0
M  V30 8325 H 757.351 1.60591 -1.28061 0
M  V30 8326 H 755.581 3.86596 -0.0896044 0
M  V30 8327 H 757.27 4.03117 -0.47452 0
M  V30 8328 H 758.036 3.84872 -2.95124 0
M  V30 8329 H 753.915 4.24757 -1.79171 0
M  V30 8330 H 757.459 4.62406 -5.22328 0
M  V30 8331 H 753.356 5.02258 -4.05471 0
M  V30 8332 H 754.124 5.48039 -6.07944 0
M  V30 8333 N 756.787 0.722489 1.40064 0
M  V30 8334 C 757.719 0.0349057 2.29173 0
M  V30 8335 C 758.732 -0.716571 1.46182 0
M  V30 8336 O 759.921 -0.562806 1.69395 0
M  V30 8337 C 757.021 -0.974839 3.24577 0
M  V30 8338 C 756.194 -0.287471 4.36454 0
M  V30 8339 C 755.253 -1.20356 5.12251 0
M  V30 8340 O 754.279 -0.685753 5.65054 0
M  V30 8341 N 755.481 -2.53422 5.22262 0
M  V30 8342 H 758.246 0.800058 2.88824 0
M  V30 8343 H 755.807 0.57068 1.51509 0
M  V30 8344 H 757.799 -1.59002 3.72157 0
M  V30 8345 H 756.369 -1.6413 2.66046 0
M  V30 8346 H 755.589 0.508008 3.90913 0
M  V30 8347 H 756.877 0.189382 5.08447 0
M  V30 8348 H 756.275 -2.97981 4.80857 0
M  V30 8349 H 754.832 -3.10067 5.73325 0
M  V30 8350 N 758.265 -1.50454 0.469181 0
M  V30 8351 C 759.175 -2.32248 -0.331349 0
M  V30 8352 C 760.191 -1.42548 -0.997807 0
M  V30 8353 O 761.367 -1.75602 -0.9862 0
M  V30 8354 C 758.432 -3.17171 -1.40012 0
M  V30 8355 C 757.493 -4.2269 -0.750463 0
M  V30 8356 C 756.726 -5.03554 -1.76831 0
M  V30 8357 O 756.949 -4.85469 -2.99459 0
M  V30 8358 O 755.883 -5.86767 -1.3412 0
M  V30 8359 H 759.709 -3.01821 0.337279 0
M  V30 8360 H 757.294 -1.47602 0.231066 0
M  V30 8361 H 759.176 -3.69871 -2.01924 0
M  V30 8362 H 757.851 -2.50328 -2.05226 0
M  V30 8363 H 756.758 -3.73986 -0.0924446 0
M  V30 8364 H 758.091 -4.91997 -0.14131 0
M  V30 8365 N 759.743 -0.201713 -1.56304 0
M  V30 8366 C 760.989 0.435952 -1.98059 0
M  V30 8367 C 761.322 1.60811 -1.08873 0
M  V30 8368 O 760.597 1.9398 -0.142128 0
M  V30 8369 C 760.88 0.889706 -3.48936 0
M  V30 8370 C 760.733 -0.284725 -4.48898 0
M  V30 8371 C 762.052 1.7529 -4.03685 0
M  V30 8372 H 759.171 0.15699 -0.720085 0
M  V30 8373 H 761.813 -0.293965 -1.87712 0
M  V30 8374 H 759.963 1.51166 -3.57884 0
M  V30 8375 H 761.635 -0.922531 -4.51981 0
M  V30 8376 H 759.878 -0.935427 -4.23594 0
M  V30 8377 H 760.549 0.0753865 -5.51949 0
M  V30 8378 H 763.025 1.2283 -3.97558 0
M  V30 8379 H 761.901 2.03933 -5.0961 0
M  V30 8380 H 762.162 2.70939 -3.49348 0
M  V30 8381 N 761.222 1.57436 0.0718424 0
M  V30 8382 C 762.447 1.91858 0.787745 0
M  V30 8383 C 762.872 0.798119 1.70328 0
M  V30 8384 O 762.23 -0.24905 1.79581 0
M  V30 8385 C 762.278 3.25232 1.55744 0
M  V30 8386 O 761.382 3.14462 2.6681 0
M  V30 8387 H 760.723 0.628258 0.214914 0
M  V30 8388 H 763.253 2.04561 0.0401012 0
M  V30 8389 H 763.263 3.59105 1.9367 0
M  V30 8390 H 761.938 4.0636 0.885691 0
M  V30 8391 H 760.515 2.92148 2.31741 0
M  V30 8392 N 762.7 -0.34323 1.53817 0
M  V30 8393 C 763.632 -1.44216 1.78141 0
M  V30 8394 C 764.645 -1.48701 0.662721 0
M  V30 8395 O 765.834 -1.51778 0.939458 0
M  V30 8396 C 762.934 -2.82872 1.86646 0
M  V30 8397 C 762.107 -3.01824 3.16577 0
M  V30 8398 C 761.166 -4.20723 3.16036 0
M  V30 8399 O 760.192 -4.14824 3.89756 0
M  V30 8400 N 761.394 -5.29276 2.38427 0
M  V30 8401 H 764.159 -1.23721 2.72971 0
M  V30 8402 H 761.72 -0.53311 1.52871 0
M  V30 8403 H 763.712 -3.60588 1.83735 0
M  V30 8404 H 762.282 -2.96509 0.990014 0
M  V30 8405 H 761.502 -2.11575 3.3261 0
M  V30 8406 H 762.79 -3.11369 4.02402 0
M  V30 8407 H 762.188 -5.36938 1.78085 0
M  V30 8408 H 760.745 -6.05484 2.41313 0
M  V30 8409 N 764.178 -1.45556 -0.604258 0
M  V30 8410 C 765.125 -1.54482 -1.71476 0
M  V30 8411 C 766.095 -0.390479 -1.61445 0
M  V30 8412 O 767.28 -0.604371 -1.80975 0
M  V30 8413 C 764.42 -1.52064 -3.09791 0
M  V30 8414 C 763.533 -2.78073 -3.30604 0
M  V30 8415 C 762.668 -2.67304 -4.59044 0
M  V30 8416 C 761.707 -3.88352 -4.73127 0
M  V30 8417 N 760.844 -3.76098 -5.9287 0
M  V30 8418 H 765.684 -2.49349 -1.63184 0
M  V30 8419 H 763.221 -1.23725 -0.795641 0
M  V30 8420 H 765.179 -1.48649 -3.89819 0
M  V30 8421 H 763.809 -0.607442 -3.17033 0
M  V30 8422 H 762.861 -2.91561 -2.44329 0
M  V30 8423 H 764.173 -3.67847 -3.36883 0
M  V30 8424 H 763.327 -2.61875 -5.47272 0
M  V30 8425 H 762.066 -1.75135 -4.55169 0
M  V30 8426 H 761.071 -3.94137 -3.83322 0
M  V30 8427 H 762.296 -4.81591 -4.78797 0
M  V30 8428 H 760.242 -2.867 -5.90033 0
M  V30 8429 H 760.159 -4.59509 -6.00323 0
M  V30 8430 H 761.427 -3.74607 -6.83586 0
M  V30 8431 N 765.656 0.84705 -1.32902 0
M  V30 8432 C 766.933 1.58583 -1.14503 0
M  V30 8433 C 767.313 2.09075 0.291724 0
M  V30 8434 O 766.661 1.88636 1.28952 0
M  V30 8435 C 766.871 2.72605 -2.17916 0
M  V30 8436 C 768.219 3.41993 -2.51646 0
M  V30 8437 O 769.243 2.82838 -2.1652 0
M  V30 8438 O 768.102 4.48761 -3.1189 0
M  V30 8439 H 765.196 0.698756 -0.442345 0
M  V30 8440 H 767.742 0.890516 -1.44457 0
M  V30 8441 H 766.514 2.32876 -3.14459 0
M  V30 8442 H 766.137 3.49807 -1.89 0
M  V30 8443 N 767.134 1.16236 1.06428 0
M  V30 8444 C 768.359 0.967688 1.83441 0
M  V30 8445 C 768.784 -0.479167 1.81894 0
M  V30 8446 O 768.142 -1.34224 1.21875 0
M  V30 8447 C 768.19 1.49806 3.2801 0
M  V30 8448 O 767.294 0.703481 4.06356 0
M  V30 8449 H 766.635 0.344468 0.56766 0
M  V30 8450 H 769.165 1.54442 1.34197 0
M  V30 8451 H 769.175 1.51495 3.78831 0
M  V30 8452 H 767.85 2.55133 3.2845 0
M  V30 8453 H 766.427 0.756986 3.65136 0
M  V30 8454 N 768.612 -1.24939 0.960631 0
M  V30 8455 C 769.562 -2.23388 0.456266 0
M  V30 8456 C 770.546 -1.54249 -0.45782 0
M  V30 8457 O 771.738 -1.7461 -0.289894 0
M  V30 8458 C 768.867 -3.42321 -0.259024 0
M  V30 8459 C 767.953 -4.18718 0.673478 0
M  V30 8460 N 768.344 -4.72394 1.8077 0
M  V30 8461 C 766.642 -4.43378 0.482859 0
M  V30 8462 C 767.343 -5.30316 2.3904 0
M  V30 8463 N 766.319 -5.17109 1.67629 0
M  V30 8464 H 770.121 -2.62499 1.32179 0
M  V30 8465 H 767.635 -1.40245 0.818851 0
M  V30 8466 H 769.632 -4.11997 -0.637527 0
M  V30 8467 H 768.292 -3.04732 -1.12108 0
M  V30 8468 H 769.303 -4.69345 2.18942 0
M  V30 8469 H 765.98 -4.16147 -0.335821 0
M  V30 8470 H 767.37 -5.82594 3.34715 0
M  V30 8471 N 770.09 -0.729906 -1.39679 0
M  V30 8472 C 771 -0.0880322 -2.34435 0
M  V30 8473 C 772.016 0.727674 -1.58053 0
M  V30 8474 O 773.192 0.657321 -1.90371 0
M  V30 8475 C 770.257 0.812211 -3.37052 0
M  V30 8476 C 769.318 -0.0151681 -4.29297 0
M  V30 8477 C 768.551 0.842202 -5.27013 0
M  V30 8478 O 768.774 2.08108 -5.31081 0
M  V30 8479 O 767.708 0.27357 -6.01278 0
M  V30 8480 H 771.534 -0.869989 -2.90972 0
M  V30 8481 H 769.119 -0.490522 -1.41118 0
M  V30 8482 H 771.001 1.32745 -3.99946 0
M  V30 8483 H 769.676 1.57307 -2.82907 0
M  V30 8484 H 768.583 -0.575811 -3.69642 0
M  V30 8485 H 769.916 -0.738129 -4.86634 0
M  V30 8486 N 771.568 1.50203 -0.477153 0
M  V30 8487 C 772.5 2.26508 0.350239 0
M  V30 8488 C 773.513 1.32081 0.95176 0
M  V30 8489 O 774.702 1.57546 0.839139 0
M  V30 8490 C 771.802 3.0361 1.50579 0
M  V30 8491 C 770.975 4.25438 1.01595 0
M  V30 8492 C 770.034 4.84783 2.04626 0
M  V30 8493 O 769.06 5.45528 1.62442 0
M  V30 8494 N 770.262 4.72318 3.37485 0
M  V30 8495 H 773.027 2.98155 -0.30394 0
M  V30 8496 H 770.588 1.58938 -0.308289 0
M  V30 8497 H 772.58 3.4019 2.1921 0
M  V30 8498 H 771.15 2.34724 2.06455 0
M  V30 8499 H 770.37 3.93894 0.155316 0
M  V30 8500 H 771.658 5.04413 0.666694 0
M  V30 8501 H 771.056 4.24022 3.74462 0
M  V30 8502 H 769.613 5.13149 4.01897 0
M  V30 8503 N 773.046 0.209999 1.56195 0
M  V30 8504 C 773.976 -0.699746 2.22769 0
M  V30 8505 C 774.957 -1.20993 1.1956 0
M  V30 8506 O 776.142 -1.25605 1.48112 0
M  V30 8507 C 773.272 -1.91302 2.89863 0
M  V30 8508 C 772.226 -1.53715 3.99444 0
M  V30 8509 C 771.552 -2.82826 4.53777 0
M  V30 8510 C 772.852 -0.735836 5.17091 0
M  V30 8511 H 774.546 -0.144716 2.9905 0
M  V30 8512 H 772.092 -0.0681645 1.43839 0
M  V30 8513 H 774.045 -2.5548 3.35124 0
M  V30 8514 H 772.769 -2.49283 2.11011 0
M  V30 8515 H 771.428 -0.918892 3.54897 0
M  V30 8516 H 771.076 -3.38927 3.71669 0
M  V30 8517 H 770.776 -2.58415 5.27727 0
M  V30 8518 H 772.3 -3.47966 5.01749 0
M  V30 8519 H 773.714 -1.28105 5.58804 0
M  V30 8520 H 772.111 -0.589272 5.972 0
M  V30 8521 H 773.181 0.260004 4.84202 0
M  V30 8522 N 774.524 -1.57472 -0.0634922 0
M  V30 8523 C 775.472 -2.05307 -1.09323 0
M  V30 8524 C 776.466 -0.959995 -1.39572 0
M  V30 8525 O 777.672 -1.14507 -1.38882 0
M  V30 8526 H 774.047 -0.65472 -0.369927 0
M  V30 8527 H 776.018 -2.90925 -0.663707 0
M  V30 8528 C 774.767 -2.51954 -2.39613 0
M  V30 8529 H 774.09 -3.35662 -2.1719 0
M  V30 8530 H 775.53 -2.89169 -3.10092 0
M  V30 8531 C 773.989 -1.40596 -3.06161 0
M  V30 8532 O 774.519 -0.752722 -3.94585 0
M  V30 8533 N 772.725 -1.14902 -2.66919 0
M  V30 8534 H 772.272 -1.68205 -1.95102 0
M  V30 8535 H 772.23 -0.406006 -3.11767 0
M  V30 8536 N 776.003 0.335068 -1.53997 0
M  V30 8537 C 776.951 1.43206 -1.83289 0
M  V30 8538 C 777.945 1.54081 -0.703953 0
M  V30 8539 O 779.151 1.56603 -0.887432 0
M  V30 8540 H 775.526 0.477655 -0.580818 0
M  V30 8541 H 777.497 1.15719 -2.75049 0
M  V30 8542 C 776.246 2.79602 -2.06683 0
M  V30 8543 H 775.569 2.72004 -2.93008 0
M  V30 8544 H 777.009 3.55459 -2.31139 0
M  V30 8545 C 775.468 3.25873 -0.854883 0
M  V30 8546 O 775.998 4.01657 -0.0584648 0
M  V30 8547 N 774.204 2.82777 -0.669729 0
M  V30 8548 H 773.751 2.21269 -1.31901 0
M  V30 8549 H 773.709 3.1409 0.13969 0
M  V30 8550 N 777.481 1.45874 0.596531 0
M  V30 8551 C 778.709 1.54013 1.38158 0
M  V30 8552 C 779.124 0.17648 1.87973 0
M  V30 8553 O 778.481 -0.823895 1.62844 0
M  V30 8554 C 778.532 2.53363 2.57855 0
M  V30 8555 O 778.253 3.8443 2.10108 0
M  V30 8556 C 779.754 2.71308 3.50581 0
M  V30 8557 H 776.974 0.521251 0.422538 0
M  V30 8558 H 779.518 1.9116 0.726493 0
M  V30 8559 H 777.673 2.19257 3.19382 0
M  V30 8560 H 778.087 4.38384 2.87958 0
M  V30 8561 H 779.561 3.44776 4.31084 0
M  V30 8562 H 780.038 1.77728 4.01633 0
M  V30 8563 H 780.644 3.06455 2.94899 0
M  V30 8564 N 778.959 -0.83999 1.33349 0
M  V30 8565 C 780.184 -1.63249 1.27924 0
M  V30 8566 C 780.609 -1.87523 -0.147193 0
M  V30 8567 O 779.967 -1.43853 -1.10345 0
M  V30 8568 C 780.015 -2.96046 2.05886 0
M  V30 8569 O 779.119 -3.87303 1.4167 0
M  V30 8570 H 778.46 -0.49715 0.440157 0
M  V30 8571 H 780.99 -1.04512 1.75893 0
M  V30 8572 H 781 -3.45752 2.16609 0
M  V30 8573 H 779.675 -2.77701 3.09605 0
M  V30 8574 H 778.252 -3.45789 1.39585 0
M  V30 8575 N 780.437 -1.16799 -1.0581 0
M  V30 8576 C 781.662 -0.977402 -1.82925 0
M  V30 8577 C 782.087 0.469514 -1.82146 0
M  V30 8578 O 781.445 1.33576 -1.22585 0
M  V30 8579 C 781.493 -1.51543 -3.27211 0
M  V30 8580 O 780.597 -0.725021 -4.05977 0
M  V30 8581 H 779.938 -0.347474 -0.565825 0
M  V30 8582 H 782.468 -1.55151 -1.33376 0
M  V30 8583 H 782.478 -1.53502 -3.78023 0
M  V30 8584 H 781.153 -2.56872 -3.27093 0
M  V30 8585 H 779.73 -0.77634 -3.64729 0
M  V30 8586 N 781.915 1.24427 -0.967243 0
M  V30 8587 C 783.14 1.9708 -0.646069 0
M  V30 8588 C 783.565 1.71272 0.777665 0
M  V30 8589 O 782.923 0.976179 1.52776 0
M  V30 8590 C 782.971 3.48501 -0.926266 0
M  V30 8591 O 782.075 4.12398 -0.0114653 0
M  V30 8592 H 781.416 0.617423 -0.244304 0
M  V30 8593 H 783.946 1.58215 -1.29727 0
M  V30 8594 H 783.956 3.98885 -0.857619 0
M  V30 8595 H 782.631 3.66613 -1.96386 0
M  V30 8596 H 781.208 3.72661 -0.133396 0
M  V30 8597 N 783.393 0.737304 1.3929 0
M  V30 8598 C 784.618 0.295237 2.05288 0
M  V30 8599 C 785.043 -1.06235 1.55228 0
M  V30 8600 O 784.401 -1.67365 0.697043 0
M  V30 8601 C 784.449 0.309146 3.59272 0
M  V30 8602 O 783.553 -0.702437 4.06374 0
M  V30 8603 H 782.894 0.133762 0.650387 0
M  V30 8604 H 785.424 1.00387 1.78279 0
M  V30 8605 H 785.434 0.154336 4.07708 0
M  V30 8606 H 784.109 1.29974 3.95069 0
M  V30 8607 H 782.686 -0.513574 3.69346 0
M  V30 8608 N 784.871 -1.49948 0.485112 0
M  V30 8609 C 786.282 -1.8667 0.0334041 0
M  V30 8610 C 786.633 -1.3988 -1.37579 0
M  V30 8611 O 785.758 -0.769788 -2.02245 0
M  V30 8612 C 786.353 -3.38757 0.0538426 0
M  V30 8613 C 784.912 -3.74839 -0.342453 0
M  V30 8614 C 784.059 -2.73894 0.433281 0
M  V30 8615 H 787.01 -1.42492 0.698699 0
M  V30 8616 H 787.031 -3.73132 -0.745146 0
M  V30 8617 H 786.543 -3.72782 1.07959 0
M  V30 8618 H 784.644 -3.46419 -1.37203 0
M  V30 8619 H 784.757 -4.79088 -0.0340503 0
M  V30 8620 H 783.121 -2.54441 -0.114849 0
M  V30 8621 H 783.904 -3.10763 1.45881 0
M  V30 8622 N 786.349 -0.21828 -1.56081 0
M  V30 8623 C 787.281 0.725447 -2.17416 0
M  V30 8624 C 788.294 1.15995 -1.14233 0
M  V30 8625 O 789.483 1.09166 -1.41227 0
M  V30 8626 C 786.583 1.99401 -2.7403 0
M  V30 8627 C 785.756 1.7156 -4.02351 0
M  V30 8628 C 784.815 2.8309 -4.43561 0
M  V30 8629 O 783.841 2.51701 -5.10525 0
M  V30 8630 N 785.043 4.11972 -4.08973 0
M  V30 8631 H 787.808 0.200801 -2.99027 0
M  V30 8632 H 785.369 -0.0371514 -1.61857 0
M  V30 8633 H 787.361 2.73198 -2.98571 0
M  V30 8634 H 785.931 2.42923 -1.96742 0
M  V30 8635 H 785.151 0.814233 -3.85699 0
M  V30 8636 H 786.439 1.50385 -4.86068 0
M  V30 8637 H 785.837 4.40319 -3.55156 0
M  V30 8638 H 784.394 4.82323 -4.38415 0
M  V30 8639 N 787.827 1.57504 0.0551401 0
M  V30 8640 C 788.777 2.0128 1.071 0
M  V30 8641 C 789.761 0.897592 1.33537 0
M  V30 8642 O 790.953 1.16151 1.33558 0
M  V30 8643 C 788.082 2.47414 2.37994 0
M  V30 8644 C 787.168 3.65703 2.14761 0
M  V30 8645 N 787.559 4.79323 1.61504 0
M  V30 8646 C 785.857 3.72574 2.45162 0
M  V30 8647 C 786.558 5.61089 1.53472 0
M  V30 8648 N 785.534 5.05426 2.00114 0
M  V30 8649 H 789.336 2.86558 0.652829 0
M  V30 8650 H 786.85 1.60274 0.26193 0
M  V30 8651 H 788.847 2.77023 3.11551 0
M  V30 8652 H 787.507 1.6353 2.80514 0
M  V30 8653 H 788.518 5.01284 1.30134 0
M  V30 8654 H 785.195 2.99439 2.90934 0
M  V30 8655 H 786.585 6.62328 1.13008 0
M  V30 8656 N 789.305 -0.326896 1.54172 0
M  V30 8657 C 790.235 -1.40741 1.86317 0
M  V30 8658 C 791.216 -1.54125 0.719684 0
M  V30 8659 O 792.401 -1.6806 0.973117 0
M  V30 8660 C 789.531 -2.77557 2.08757 0
M  V30 8661 C 788.485 -2.78965 3.24596 0
M  V30 8662 C 787.811 -4.18824 3.32401 0
M  V30 8663 C 789.111 -2.4301 4.62324 0
M  V30 8664 H 790.805 -1.14088 2.76811 0
M  V30 8665 H 788.351 -0.547389 1.3319 0
M  V30 8666 H 790.304 -3.53209 2.29829 0
M  V30 8667 H 789.028 -3.0568 1.15009 0
M  V30 8668 H 787.687 -2.05767 3.03406 0
M  V30 8669 H 787.335 -4.44083 2.36218 0
M  V30 8670 H 787.035 -4.20673 4.10253 0
M  V30 8671 H 788.559 -4.96294 3.55703 0
M  V30 8672 H 789.973 -3.08375 4.83299 0
M  V30 8673 H 788.37 -2.56116 5.42701 0
M  V30 8674 H 789.44 -1.38165 4.64799 0
M  V30 8675 N 790.784 -1.46188 -0.588786 0
M  V30 8676 C 792.009 -1.5498 -1.37826 0
M  V30 8677 C 792.434 -0.189498 -1.87143 0
M  V30 8678 O 791.792 0.829293 -1.61222 0
M  V30 8679 C 791.84 -2.55369 -2.54596 0
M  V30 8680 O 790.944 -2.08452 -3.55839 0
M  V30 8681 H 790.285 -0.521741 -0.41071 0
M  V30 8682 H 792.815 -1.91708 -0.714779 0
M  V30 8683 H 792.825 -2.74782 -3.01594 0
M  V30 8684 H 791.5 -3.54155 -2.18052 0
M  V30 8685 H 790.077 -1.98999 -3.15363 0
M  V30 8686 N 792.262 0.832906 -1.33792 0
M  V30 8687 C 793.225 1.92471 -1.24449 0
M  V30 8688 C 794.225 1.59981 -0.162085 0
M  V30 8689 O 795.415 1.69208 -0.414029 0
M  V30 8690 C 792.547 3.28278 -0.919044 0
M  V30 8691 H 793.74 2.0218 -2.21502 0
M  V30 8692 H 791.293 1.0257 -1.17936 0
M  V30 8693 H 792.028 3.24263 0.048738 0
M  V30 8694 H 791.813 3.53241 -1.70187 0
M  V30 8695 H 793.303 4.08253 -0.878576 0
M  V30 8696 N 793.74 1.17359 1.05189 0
M  V30 8697 C 794.672 0.848078 2.12933 0
M  V30 8698 C 795.685 -0.149521 1.62112 0
M  V30 8699 O 796.874 0.0767797 1.78335 0
M  V30 8700 C 793.974 0.243889 3.38021 0
M  V30 8701 C 793.147 1.28436 4.18118 0
M  V30 8702 C 792.206 0.697926 5.21551 0
M  V30 8703 O 791.232 1.36973 5.52473 0
M  V30 8704 N 792.434 -0.510024 5.78255 0
M  V30 8705 H 795.199 1.7754 2.41453 0
M  V30 8706 H 792.76 1.07244 1.21286 0
M  V30 8707 H 794.752 -0.161727 4.04377 0
M  V30 8708 H 793.322 -0.58722 3.07035 0
M  V30 8709 H 792.542 1.86573 3.47252 0
M  V30 8710 H 793.83 1.98617 4.68432 0
M  V30 8711 H 793.228 -1.07378 5.55416 0
M  V30 8712 H 791.785 -0.857705 6.46132 0
M  V30 8713 N 795.218 -1.23913 0.973828 0
M  V30 8714 C 796.165 -2.25132 0.508366 0
M  V30 8715 C 797.135 -1.59908 -0.449307 0
M  V30 8716 O 798.32 -1.87405 -0.358313 0
M  V30 8717 C 795.46 -3.4458 -0.189422 0
M  V30 8718 C 794.573 -4.24381 0.807738 0
M  V30 8719 C 793.708 -5.31131 0.0854315 0
M  V30 8720 C 792.747 -6.02635 1.07225 0
M  V30 8721 N 791.884 -7.01073 0.379535 0
M  V30 8722 H 796.724 -2.64313 1.37632 0
M  V30 8723 H 794.261 -1.29924 0.689802 0
M  V30 8724 H 796.219 -4.12706 -0.610733 0
M  V30 8725 H 794.849 -3.06218 -1.02129 0
M  V30 8726 H 793.901 -3.55735 1.34747 0
M  V30 8727 H 795.213 -4.73778 1.55998 0
M  V30 8728 H 794.367 -6.05422 -0.393572 0
M  V30 8729 H 793.106 -4.82658 -0.699461 0
M  V30 8730 H 792.111 -5.27143 1.56207 0
M  V30 8731 H 793.336 -6.53197 1.85769 0
M  V30 8732 H 791.282 -6.54862 -0.386269 0
M  V30 8733 H 791.199 -7.48382 1.07054 0
M  V30 8734 H 792.467 -7.79462 -0.0772984 0
M  V30 8735 N 796.696 -0.74468 -1.38897 0
M  V30 8736 C 797.626 -0.126355 -2.33158 0
M  V30 8737 C 798.607 0.713517 -1.54412 0
M  V30 8738 O 799.792 0.656523 -1.82766 0
M  V30 8739 C 796.922 0.774375 -3.38557 0
M  V30 8740 C 795.876 0.0379214 -4.27983 0
M  V30 8741 C 795.202 1.05631 -5.24162 0
M  V30 8742 C 796.502 -1.12523 -5.10035 0
M  V30 8743 H 798.196 -0.913744 -2.85116 0
M  V30 8744 H 795.742 -0.440847 -1.37086 0
M  V30 8745 H 797.695 1.21655 -4.03458 0
M  V30 8746 H 796.419 1.59399 -2.85061 0
M  V30 8747 H 795.078 -0.384733 -3.64576 0
M  V30 8748 H 794.726 1.86975 -4.66958 0
M  V30 8749 H 794.426 0.568261 -5.84846 0
M  V30 8750 H 795.95 1.49799 -5.9194 0
M  V30 8751 H 797.364 -0.761037 -5.68226 0
M  V30 8752 H 795.761 -1.54355 -5.79909 0
M  V30 8753 H 796.831 -1.94237 -4.44297 0
M  V30 8754 N 798.174 1.49689 -0.493057 0
M  V30 8755 C 799.084 2.32746 0.294358 0
M  V30 8756 C 800.1 1.44117 0.975003 0
M  V30 8757 O 801.276 1.77149 0.958138 0
M  V30 8758 C 798.341 3.19358 1.34949 0
M  V30 8759 C 797.402 4.2383 0.683122 0
M  V30 8760 C 796.635 5.06303 1.68798 0
M  V30 8761 O 796.858 4.90172 2.91698 0
M  V30 8762 O 795.792 5.88826 1.24768 0
M  V30 8763 H 799.618 3.01247 -0.385254 0
M  V30 8764 H 797.203 1.47216 -0.254519 0
M  V30 8765 H 799.085 3.73037 1.96014 0
M  V30 8766 H 797.76 2.53561 2.01217 0
M  V30 8767 H 796.667 3.74086 0.0329351 0
M  V30 8768 H 798 4.9216 0.0630192 0
M  V30 8769 N 799.652 0.226554 1.55963 0
M  V30 8770 C 800.585 -0.721625 2.1649 0
M  V30 8771 C 801.563 -1.18745 1.11078 0
M  V30 8772 O 802.747 -1.26929 1.3936 0
M  V30 8773 C 799.874 -1.97828 2.74921 0
M  V30 8774 C 798.92 -1.65202 3.93206 0
M  V30 8775 S 799.753 -0.772419 5.299 0
M  V30 8776 C 800.909 -2.03853 5.91773 0
M  V30 8777 H 801.142 -0.207192 2.96577 0
M  V30 8778 H 798.675 0.0111976 1.54396 0
M  V30 8779 H 800.633 -2.69982 3.09225 0
M  V30 8780 H 799.294 -2.46384 1.94817 0
M  V30 8781 H 798.487 -2.58583 4.32609 0
M  V30 8782 H 798.089 -1.01108 3.60074 0
M  V30 8783 H 800.381 -2.98799 6.08051 0
M  V30 8784 H 801.324 -1.68831 6.87678 0
M  V30 8785 H 801.732 -2.18134 5.20651 0
M  V30 8786 N 801.13 -1.57531 -0.0467866 0
M  V30 8787 C 802.06 -2.08425 -1.05268 0
M  V30 8788 C 803.041 -0.982941 -1.38825 0
M  V30 8789 O 804.226 -1.25716 -1.48018 0
M  V30 8790 C 801.356 -2.54897 -2.35891 0
M  V30 8791 C 800.31 -3.69132 -2.16623 0
M  V30 8792 C 799.636 -4.01747 -3.52851 0
M  V30 8793 C 800.936 -4.98243 -1.56689 0
M  V30 8794 H 802.63 -2.92716 -0.62908 0
M  V30 8795 H 800.176 -1.40816 -0.301156 0
M  V30 8796 H 802.129 -2.8912 -3.06574 0
M  V30 8797 H 800.853 -1.67666 -2.80278 0
M  V30 8798 H 799.512 -3.35231 -1.48377 0
M  V30 8799 H 799.16 -3.11608 -3.94853 0
M  V30 8800 H 798.86 -4.78681 -3.4079 0
M  V30 8801 H 800.384 -4.38487 -4.24925 0
M  V30 8802 H 801.798 -5.30535 -2.17268 0
M  V30 8803 H 800.195 -5.79669 -1.55255 0
M  V30 8804 H 801.265 -4.81986 -0.530827 0
M  V30 8805 N 802.608 0.318715 -1.54344 0
M  V30 8806 C 803.838 1.07394 -1.76494 0
M  V30 8807 C 804.246 1.82031 -0.515881 0
M  V30 8808 O 803.589 1.7609 0.52325 0
M  V30 8809 C 803.651 2.11401 -2.90775 0
M  V30 8810 C 803.315 1.56118 -4.29507 0
M  V30 8811 C 804.312 1.00043 -5.10184 0
M  V30 8812 C 801.997 1.60215 -4.76063 0
M  V30 8813 C 803.991 0.487993 -6.35529 0
M  V30 8814 C 801.678 1.08584 -6.01376 0
M  V30 8815 C 802.676 0.529714 -6.80943 0
M  V30 8816 O 802.364 0.0211823 -8.03897 0
M  V30 8817 H 802.096 0.325061 -0.592715 0
M  V30 8818 H 804.65 0.36901 -2.02058 0
M  V30 8819 H 802.88 2.85524 -2.60793 0
M  V30 8820 H 804.569 2.72683 -3.00664 0
M  V30 8821 H 805.335 0.961811 -4.75367 0
M  V30 8822 H 801.214 2.02441 -4.14172 0
M  V30 8823 H 804.758 0.0532608 -6.9758 0
M  V30 8824 H 800.655 1.12155 -6.35682 0
M  V30 8825 H 801.423 0.136151 -8.18387 0
M  V30 8826 N 804.086 1.46499 0.581025 0
M  V30 8827 C 805.034 1.57562 1.71105 0
M  V30 8828 C 806.028 0.44403 1.63477 0
M  V30 8829 O 807.234 0.620964 1.6895 0
M  V30 8830 H 803.609 0.495415 0.565746 0
M  V30 8831 H 805.58 2.5257 1.58905 0
M  V30 8832 C 804.329 1.58465 3.0949 0
M  V30 8833 H 803.652 2.44877 3.16031 0
M  V30 8834 H 805.092 1.70261 3.88313 0
M  V30 8835 C 803.551 0.313596 3.35437 0
M  V30 8836 O 804.081 -0.595456 3.97262 0
M  V30 8837 N 802.287 0.200986 2.89904 0
M  V30 8838 H 801.834 0.941643 2.39773 0
M  V30 8839 H 801.792 -0.648577 3.07638 0
M  V30 8840 N 805.565 -0.825799 1.34232 0
M  V30 8841 C 806.475 -1.9684 1.27638 0
M  V30 8842 C 807.491 -1.73018 0.184569 0
M  V30 8843 O 808.667 -1.97172 0.410525 0
M  V30 8844 C 805.732 -3.31084 1.02879 0
M  V30 8845 C 804.793 -3.67933 2.21188 0
M  V30 8846 C 804.026 -4.95772 1.976 0
M  V30 8847 O 804.249 -5.62721 0.93281 0
M  V30 8848 O 803.183 -5.30431 2.84477 0
M  V30 8849 H 807.009 -2.05346 2.23756 0
M  V30 8850 H 804.594 -0.960772 1.1441 0
M  V30 8851 H 806.476 -4.11492 0.908406 0
M  V30 8852 H 805.151 -3.23552 0.0979821 0
M  V30 8853 H 804.058 -2.87981 2.38784 0
M  V30 8854 H 805.391 -3.80147 3.12648 0
M  V30 8855 N 807.043 -1.17915 -1.04565 0
M  V30 8856 C 808.292 -0.965816 -1.77073 0
M  V30 8857 C 808.605 0.506005 -1.88942 0
M  V30 8858 O 809.811 0.837717 -2.58253 0
M  V30 8859 C 808.267 -1.67894 -3.18339 0
M  V30 8860 C 807.875 -3.18972 -3.1458 0
M  V30 8861 C 809.619 -1.54823 -3.9526 0
M  V30 8862 C 807.526 -3.82946 -4.50674 0
M  V30 8863 H 806.456 -0.357729 -0.663736 0
M  V30 8864 H 809.107 -1.41235 -1.17153 0
M  V30 8865 H 807.489 -1.16016 -3.78624 0
M  V30 8866 H 808.663 -3.77835 -2.63776 0
M  V30 8867 H 806.978 -3.32127 -2.51159 0
M  V30 8868 H 809.575 -1.99984 -4.95894 0
M  V30 8869 H 809.918 -0.499727 -4.1329 0
M  V30 8870 H 810.451 -2.03953 -3.41538 0
M  V30 8871 H 807.19 -4.8782 -4.37849 0
M  V30 8872 H 806.71 -3.2887 -5.01602 0
M  V30 8873 H 808.389 -3.85518 -5.196 0
M  V30 8874 N 808.521 1.23394 -0.980386 0
M  V30 8875 C 809.749 1.95844 -0.667286 0
M  V30 8876 C 810.164 1.72574 0.765735 0
M  V30 8877 O 809.521 1.01715 1.51526 0
M  V30 8878 C 809.572 3.48844 -0.948151 0
M  V30 8879 O 809.293 3.71325 -2.32485 0
M  V30 8880 C 810.794 4.38494 -0.651002 0
M  V30 8881 H 808.014 0.623535 -0.247882 0
M  V30 8882 H 810.558 1.56885 -1.31176 0
M  V30 8883 H 808.713 3.85819 -0.349681 0
M  V30 8884 H 809.127 4.65619 -2.41452 0
M  V30 8885 H 810.601 5.44648 -0.897887 0
M  V30 8886 H 811.078 4.37236 0.414922 0
M  V30 8887 H 811.684 4.07127 -1.22995 0
M  V30 8888 N 809.999 0.752036 1.385 0
M  V30 8889 C 810.946 0.123288 2.3047 0
M  V30 8890 C 811.916 -0.711326 1.50098 0
M  V30 8891 O 813.101 -0.667775 1.78733 0
M  V30 8892 C 810.241 -0.765085 3.36512 0
M  V30 8893 C 809.354 0.0839885 4.31918 0
M  V30 8894 C 808.489 -0.807243 5.25031 0
M  V30 8895 C 807.528 0.0455583 6.12083 0
M  V30 8896 N 806.665 -0.802547 6.97498 0
M  V30 8897 H 811.505 0.913169 2.83664 0
M  V30 8898 H 809.042 0.46195 1.39658 0
M  V30 8899 H 811 -1.29476 3.966 0
M  V30 8900 H 809.63 -1.52077 2.84732 0
M  V30 8901 H 808.682 0.731276 3.73305 0
M  V30 8902 H 809.994 0.74265 4.9324 0
M  V30 8903 H 809.148 -1.40414 5.90228 0
M  V30 8904 H 807.887 -1.49964 4.64071 0
M  V30 8905 H 806.892 0.655137 5.45883 0
M  V30 8906 H 808.117 0.734994 6.75111 0
M  V30 8907 H 806.063 -1.47992 6.39089 0
M  V30 8908 H 805.98 -0.200747 7.55733 0
M  V30 8909 H 807.248 -1.38447 7.67107 0
M  V30 8910 N 811.477 -1.49425 0.500989 0
M  V30 8911 C 812.705 -2.06861 -0.0403443 0
M  V30 8912 C 813.12 -1.36132 -1.30819 0
M  V30 8913 O 812.477 -0.439647 -1.77125 0
M  V30 8914 C 812.528 -3.6027 -0.297902 0
M  V30 8915 O 812.249 -4.28338 0.919686 0
M  V30 8916 C 813.75 -4.34419 -0.882876 0
M  V30 8917 H 810.97 -0.670688 0.0204619 0
M  V30 8918 H 813.514 -1.92207 0.698342 0
M  V30 8919 H 811.669 -3.74627 -0.98657 0
M  V30 8920 H 812.083 -5.2004 0.682528 0
M  V30 8921 H 813.557 -5.42631 -1.01268 0
M  V30 8922 H 814.034 -3.96898 -1.88066 0
M  V30 8923 H 814.64 -4.24669 -0.231677 0
M  V30 8924 N 812.955 -0.234822 -1.55841 0
M  V30 8925 C 813.887 0.702346 -2.18174 0
M  V30 8926 C 814.9 1.14776 -1.15457 0
M  V30 8927 O 816.089 1.07662 -1.42377 0
M  V30 8928 C 813.189 1.96483 -2.76129 0
M  V30 8929 C 812.362 1.67283 -4.04148 0
M  V30 8930 C 811.421 2.7837 -4.46539 0
M  V30 8931 O 810.447 2.46272 -5.13166 0
M  V30 8932 N 811.649 4.07611 -4.1332 0
M  V30 8933 H 814.414 0.169074 -2.99223 0
M  V30 8934 H 811.975 -0.0543164 -1.61809 0
M  V30 8935 H 813.967 2.70016 -3.01452 0
M  V30 8936 H 812.537 2.40822 -1.99307 0
M  V30 8937 H 811.757 0.773278 -3.86541 0
M  V30 8938 H 813.045 1.45222 -4.87635 0
M  V30 8939 H 812.443 4.36527 -3.59806 0
M  V30 8940 H 811 4.77646 -4.43506 0
M  V30 8941 N 814.433 1.57553 0.0384317 0
M  V30 8942 C 815.844 1.77258 0.586211 0
M  V30 8943 C 816.195 0.864706 1.76117 0
M  V30 8944 O 815.32 0.057141 2.16325 0
M  V30 8945 C 815.915 3.21453 1.07021 0
M  V30 8946 C 814.474 3.42387 1.56358 0
M  V30 8947 C 813.621 2.72801 0.497508 0
M  V30 8948 H 816.572 1.57585 -0.187796 0
M  V30 8949 H 816.593 3.27451 1.93794 0
M  V30 8950 H 816.105 3.87505 0.214851 0
M  V30 8951 H 814.206 2.81497 2.44111 0
M  V30 8952 H 814.319 4.50968 1.61754 0
M  V30 8953 H 812.683 2.36305 0.95038 0
M  V30 8954 H 813.466 3.41529 -0.348234 0
M  V30 8955 N 815.911 -0.310526 1.54511 0
M  V30 8956 C 816.861 -1.38405 1.81185 0
M  V30 8957 C 817.845 -1.46355 0.668499 0
M  V30 8958 O 819.037 -1.50668 0.928873 0
M  V30 8959 C 816.166 -2.75059 2.0542 0
M  V30 8960 C 815.252 -2.7137 3.25913 0
M  V30 8961 N 815.643 -2.37298 4.4668 0
M  V30 8962 C 813.941 -3.02484 3.27749 0
M  V30 8963 C 814.642 -2.42669 5.28665 0
M  V30 8964 N 813.618 -2.79639 4.66158 0
M  V30 8965 H 817.42 -1.11012 2.72128 0
M  V30 8966 H 814.934 -0.519068 1.53881 0
M  V30 8967 H 816.931 -3.52451 2.22674 0
M  V30 8968 H 815.591 -3.03372 1.15739 0
M  V30 8969 H 816.602 -2.09917 4.73451 0
M  V30 8970 H 813.279 -3.35754 2.48144 0
M  V30 8971 H 814.669 -2.19206 6.35136 0
M  V30 8972 N 817.389 -1.46805 -0.573248 0
M  V30 8973 C 818.614 -1.56433 -1.36175 0
M  V30 8974 C 819.039 -0.209336 -1.86932 0
M  V30 8975 O 818.397 0.812146 -1.62092 0
M  V30 8976 C 818.445 -2.58055 -2.51873 0
M  V30 8977 O 817.549 -2.12214 -3.53609 0
M  V30 8978 H 816.89 -0.526068 -0.405153 0
M  V30 8979 H 819.42 -1.92456 -0.694405 0
M  V30 8980 H 819.43 -2.77966 -2.98662 0
M  V30 8981 H 818.105 -3.56448 -2.14284 0
M  V30 8982 H 816.682 -2.02333 -3.13234 0
M  V30 8983 N 818.867 0.818669 -1.34668 0
M  V30 8984 C 819.817 1.91882 -1.23147 0
M  V30 8985 C 820.801 1.60378 -0.129509 0
M  V30 8986 O 821.993 1.73309 -0.359581 0
M  V30 8987 C 819.122 3.28612 -0.993436 0
M  V30 8988 C 818.208 3.66221 -2.13876 0
M  V30 8989 N 818.599 3.75361 -3.39024 0
M  V30 8990 C 816.897 3.96098 -2.04994 0
M  V30 8991 C 817.598 4.0836 -4.14266 0
M  V30 8992 N 816.574 4.21806 -3.429 0
M  V30 8993 H 820.376 1.97133 -2.17981 0
M  V30 8994 H 817.89 1.01257 -1.26967 0
M  V30 8995 H 819.887 4.0725 -0.891797 0
M  V30 8996 H 818.547 3.24655 -0.053824 0
M  V30 8997 H 819.558 3.58747 -3.73525 0
M  V30 8998 H 816.235 4.00236 -1.18816 0
M  V30 8999 H 817.625 4.226 -5.22359 0
M  V30 9000 N 820.346 1.18468 1.03938 0
M  V30 9001 C 821.757 0.984808 1.58614 0
M  V30 9002 C 822.108 -0.465165 1.90606 0
M  V30 9003 O 821.233 -1.34274 1.69704 0
M  V30 9004 C 821.828 1.78135 2.8819 0
M  V30 9005 C 820.387 1.62579 3.39478 0
M  V30 9006 C 819.534 1.77501 2.13046 0
M  V30 9007 H 822.485 1.32993 0.865944 0
M  V30 9008 H 822.506 1.27119 3.58638 0
M  V30 9009 H 822.018 2.83661 2.64874 0
M  V30 9010 H 820.119 0.59595 3.67803 0
M  V30 9011 H 820.232 2.42463 4.13217 0
M  V30 9012 H 818.596 1.2046 2.24414 0
M  V30 9013 H 819.379 2.84464 1.92185 0
M  V30 9014 N 821.824 -1.22873 0.986916 0
M  V30 9015 C 822.772 -2.26597 0.525043 0
M  V30 9016 C 823.766 -1.64079 -0.421252 0
M  V30 9017 O 824.972 -1.77576 -0.294429 0
M  V30 9018 H 821.347 -0.736606 0.151381 0
M  V30 9019 H 823.318 -2.62909 1.41142 0
M  V30 9020 C 822.067 -3.47374 -0.150542 0
M  V30 9021 H 821.39 -3.95737 0.568541 0
M  V30 9022 H 822.83 -4.21739 -0.437256 0
M  V30 9023 C 821.289 -3.07163 -1.38392 0
M  V30 9024 O 821.819 -3.16028 -2.47971 0
M  V30 9025 N 820.025 -2.62009 -1.25697 0
M  V30 9026 H 819.572 -2.54996 -0.365355 0
M  V30 9027 H 819.53 -2.35472 -2.08327 0
M  V30 9028 N 823.302 -0.75937 -1.38099 0
M  V30 9029 C 824.713 -0.385078 -1.82686 0
M  V30 9030 C 825.064 1.0871 -1.6333 0
M  V30 9031 O 824.189 1.84084 -1.13762 0
M  V30 9032 C 824.784 -0.692161 -3.31654 0
M  V30 9033 C 823.343 -0.371077 -3.74566 0
M  V30 9034 C 822.49 -0.942375 -2.60796 0
M  V30 9035 H 825.441 -0.955048 -1.26746 0
M  V30 9036 H 825.462 0.0276001 -3.8049 0
M  V30 9037 H 824.974 -1.76369 -3.4571 0
M  V30 9038 H 823.075 0.693637 -3.66087 0
M  V30 9039 H 823.188 -0.870672 -4.71122 0
M  V30 9040 H 821.552 -0.367383 -2.52036 0
M  V30 9041 H 822.335 -2.01905 -2.77649 0
M  V30 9042 N 824.78 1.49157 -0.508906 0
M  V30 9043 C 826.057 1.95363 0.0961913 0
M  V30 9044 C 826.437 1.45064 1.53362 0
M  V30 9045 O 825.785 0.667835 2.18523 0
M  V30 9046 C 825.995 3.49 0.000688881 0
M  V30 9047 C 827.343 4.24257 0.170632 0
M  V30 9048 O 828.367 3.5612 0.0754994 0
M  V30 9049 O 827.226 5.45267 0.366957 0
M  V30 9050 H 824.32 0.821984 0.0909489 0
M  V30 9051 H 826.866 1.59769 -0.572007 0
M  V30 9052 H 825.638 3.78269 -1.00143 0
M  V30 9053 H 825.261 3.91233 0.708682 0
M  V30 9054 N 826.258 0.243083 1.55714 0
M  V30 9055 C 827.498 -0.384303 2.00755 0
M  V30 9056 C 827.862 -1.55406 1.12752 0
M  V30 9057 O 829.063 -2.24892 1.47231 0
M  V30 9058 C 827.334 -0.787419 3.48618 0
M  V30 9059 S 828.893 -1.40587 4.15669 0
M  V30 9060 H 825.711 -0.121088 0.700613 0
M  V30 9061 H 828.313 0.357423 1.92205 0
M  V30 9062 H 827.017 0.0732892 4.10335 0
M  V30 9063 H 826.548 -1.56142 3.61086 0
M  V30 9064 H 828.563 -2.69493 4.16639 0
M  V30 9065 N 827.736 -1.57571 -0.0300757 0
M  V30 9066 C 828.668 -2.0329 -1.05857 0
M  V30 9067 C 829.681 -0.945543 -1.32527 0
M  V30 9068 O 830.87 -1.22287 -1.30032 0
M  V30 9069 C 827.97 -2.39234 -2.40042 0
M  V30 9070 C 827.143 -3.70337 -2.32743 0
M  V30 9071 C 826.202 -3.93482 -3.49369 0
M  V30 9072 O 825.228 -4.64551 -3.28909 0
M  V30 9073 N 826.43 -3.39042 -4.71201 0
M  V30 9074 H 829.195 -2.9214 -0.668897 0
M  V30 9075 H 826.756 -1.60425 -0.218038 0
M  V30 9076 H 828.748 -2.51856 -3.16782 0
M  V30 9077 H 827.318 -1.5606 -2.70858 0
M  V30 9078 H 826.538 -3.68079 -1.41109 0
M  V30 9079 H 827.826 -4.56343 -2.25007 0
M  V30 9080 H 827.224 -2.81434 -4.90725 0
M  V30 9081 H 825.781 -3.57045 -5.45309 0
M  V30 9082 N 829.214 0.302327 -1.54673 0
M  V30 9083 C 830.124 1.39542 -1.88587 0
M  V30 9084 C 831.14 1.55543 -0.779895 0
M  V30 9085 O 832.316 1.70233 -1.07623 0
M  V30 9086 C 829.381 2.7394 -2.12504 0
M  V30 9087 C 828.442 2.66935 -3.3622 0
M  V30 9088 C 827.675 3.94923 -3.58987 0
M  V30 9089 O 827.898 4.94218 -2.84789 0
M  V30 9090 O 826.832 3.96896 -4.52501 0
M  V30 9091 H 830.658 1.13784 -2.81579 0
M  V30 9092 H 828.243 0.49827 -1.40846 0
M  V30 9093 H 830.125 3.5346 -2.29443 0
M  V30 9094 H 828.8 2.99544 -1.22698 0
M  V30 9095 H 827.707 1.85892 -3.24646 0
M  V30 9096 H 829.04 2.46283 -4.26152 0
M  V30 9097 N 830.692 1.47107 0.565454 0
M  V30 9098 C 831.639 1.58974 1.6732 0
M  V30 9099 C 832.609 0.433146 1.60353 0
M  V30 9100 O 833.794 0.652141 1.79309 0
M  V30 9101 C 830.934 1.60224 3.05651 0
M  V30 9102 C 830.047 2.86741 3.23116 0
M  V30 9103 C 829.182 2.79381 4.51796 0
M  V30 9104 C 828.221 4.0076 4.62664 0
M  V30 9105 N 827.358 3.91685 5.8269 0
M  V30 9106 H 832.198 2.53588 1.56515 0
M  V30 9107 H 829.735 1.25791 0.762558 0
M  V30 9108 H 831.693 1.58933 3.85741 0
M  V30 9109 H 830.323 0.691285 3.15311 0
M  V30 9110 H 829.375 2.97936 2.36513 0
M  V30 9111 H 830.687 3.7665 3.27011 0
M  V30 9112 H 829.841 2.76293 5.40136 0
M  V30 9113 H 828.58 1.87142 4.50366 0
M  V30 9114 H 827.585 4.04162 3.72738 0
M  V30 9115 H 828.81 4.94117 4.6586 0
M  V30 9116 H 826.756 3.02243 5.82224 0
M  V30 9117 H 826.673 4.75264 5.87929 0
M  V30 9118 H 827.941 3.92599 6.73414 0
M  V30 9119 N 832.17 -0.811516 1.35101 0
M  V30 9120 C 833.581 -1.38515 1.25182 0
M  V30 9121 C 833.932 -1.95846 -0.117883 0
M  V30 9122 O 833.057 -1.90925 -1.01866 0
M  V30 9123 C 833.652 -2.51813 2.26662 0
M  V30 9124 C 832.211 -3.05052 2.20499 0
M  V30 9125 C 831.358 -1.77987 2.12641 0
M  V30 9126 H 834.309 -0.614959 1.46301 0
M  V30 9127 H 834.33 -3.30228 1.89023 0
M  V30 9128 H 833.842 -2.10057 3.2634 0
M  V30 9129 H 831.943 -3.51285 1.24215 0
M  V30 9130 H 832.056 -3.63368 3.1225 0
M  V30 9131 H 830.42 -1.99342 1.5854 0
M  V30 9132 H 831.203 -1.38389 3.14171 0
M  V30 9133 N 833.648 -1.19017 -1.03309 0
M  V30 9134 C 834.558 -0.939303 -2.14975 0
M  V30 9135 C 835.574 0.0992359 -1.73717 0
M  V30 9136 O 836.75 -0.0844362 -2.01223 0
M  V30 9137 C 833.815 -0.476712 -3.43407 0
M  V30 9138 C 832.876 -1.58413 -3.99003 0
M  V30 9139 C 832.109 -1.14352 -5.21305 0
M  V30 9140 O 832.332 -0.00534408 -5.704 0
M  V30 9141 O 831.266 -1.94436 -5.6963 0
M  V30 9142 H 835.092 -1.87386 -2.38998 0
M  V30 9143 H 832.677 -0.972635 -1.13403 0
M  V30 9144 H 834.559 -0.22718 -4.20787 0
M  V30 9145 H 833.234 0.429455 -3.20839 0
M  V30 9146 H 832.141 -1.88777 -3.22977 0
M  V30 9147 H 833.474 -2.4667 -4.25928 0
M  V30 9148 N 835.127 1.22348 -0.993418 0
M  V30 9149 C 836.543 1.43222 -0.704238 0
M  V30 9150 C 836.743 1.88009 0.724909 0
M  V30 9151 O 835.799 2.03429 1.49575 0
M  V30 9152 C 837.112 2.47328 -1.71025 0
M  V30 9153 C 838.66 2.61126 -1.72576 0
M  V30 9154 C 839.135 3.68453 -2.72041 0
M  V30 9155 N 840.626 3.75911 -2.70639 0
M  V30 9156 C 841.361 4.58551 -3.44266 0
M  V30 9157 N 840.857 5.45179 -4.27495 0
M  V30 9158 N 842.65 4.52866 -3.32969 0
M  V30 9159 H 834.801 0.915832 -1.91641 0
M  V30 9160 H 837.064 0.464283 -0.826526 0
M  V30 9161 H 836.77 2.21366 -2.73295 0
M  V30 9162 H 836.644 3.45939 -1.50353 0
M  V30 9163 H 839.031 2.86431 -0.710037 0
M  V30 9164 H 839.112 1.62787 -1.97317 0
M  V30 9165 H 838.756 3.43895 -3.73763 0
M  V30 9166 H 838.686 4.66362 -2.4457 0
M  V30 9167 H 841.177 3.14014 -2.10247 0
M  V30 9168 H 841.49 6.0526 -4.80499 0
M  V30 9169 H 839.835 5.44759 -4.31582 0
M  V30 9170 H 843.026 3.84215 -2.67389 0
M  V30 9171 H 843.199 5.17039 -3.90608 0
M  V30 9172 N 836.605 0.766683 1.37694 0
M  V30 9173 C 838.016 0.394761 1.82479 0
M  V30 9174 C 838.367 -1.07842 1.63904 0
M  V30 9175 O 837.492 -1.83479 1.14737 0
M  V30 9176 C 838.087 0.70974 3.31283 0
M  V30 9177 C 836.646 0.390936 3.74364 0
M  V30 9178 C 835.793 0.956192 2.60293 0
M  V30 9179 H 838.744 0.961756 1.26238 0
M  V30 9180 H 838.765 -0.00742144 3.80499 0
M  V30 9181 H 838.277 1.782 3.4477 0
M  V30 9182 H 836.378 -0.674213 3.66449 0
M  V30 9183 H 836.491 0.895645 4.70654 0
M  V30 9184 H 834.855 0.380744 2.51838 0
M  V30 9185 H 835.638 2.03375 2.76575 0
M  V30 9186 N 838.083 -1.48885 0.516809 0
M  V30 9187 C 839.308 -2.0739 -0.0205201 0
M  V30 9188 C 839.733 -1.37259 -1.28614 0
M  V30 9189 O 839.091 -0.434304 -1.76021 0
M  V30 9190 C 839.139 -3.59793 -0.24104 0
M  V30 9191 O 838.243 -3.90957 -1.31251 0
M  V30 9192 H 837.584 -0.663167 0.0332564 0
M  V30 9193 H 840.114 -1.91477 0.720956 0
M  V30 9194 H 840.124 -4.0531 -0.467737 0
M  V30 9195 H 838.799 -4.10244 0.68356 0
M  V30 9196 H 837.376 -3.57234 -1.06951 0
M  V30 9197 N 839.561 -0.251338 -1.55583 0
M  V30 9198 C 840.524 0.63305 -2.20284 0
M  V30 9199 C 841.524 1.09941 -1.17344 0
M  V30 9200 O 842.714 1.00341 -1.42399 0
M  V30 9201 C 839.846 1.8706 -2.84993 0
M  V30 9202 H 841.039 0.0684846 -2.99822 0
M  V30 9203 H 838.592 -0.00181653 -1.563 0
M  V30 9204 H 839.327 2.47629 -2.09405 0
M  V30 9205 H 839.112 1.54436 -3.60405 0
M  V30 9206 H 840.602 2.50004 -3.34496 0
M  V30 9207 N 841.039 1.57585 0.0217189 0
M  V30 9208 C 842.269 1.9359 0.721572 0
M  V30 9209 C 842.677 0.850132 1.69025 0
M  V30 9210 O 842.02 -0.181539 1.82801 0
M  V30 9211 C 842.082 3.25445 1.52729 0
M  V30 9212 C 841.746 4.51251 0.722586 0
M  V30 9213 C 842.743 5.19896 0.0196598 0
M  V30 9214 C 840.428 4.97745 0.674959 0
M  V30 9215 C 842.422 6.33319 -0.720114 0
M  V30 9216 C 840.109 6.11062 -0.068555 0
M  V30 9217 C 841.107 6.78704 -0.764845 0
M  V30 9218 O 840.795 7.89852 -1.49627 0
M  V30 9219 H 840.527 0.643409 0.207366 0
M  V30 9220 H 843.081 2.05391 -0.0189346 0
M  V30 9221 H 841.311 3.0999 2.31178 0
M  V30 9222 H 843 3.46721 2.11044 0
M  V30 9223 H 843.766 4.84977 0.0474394 0
M  V30 9224 H 839.645 4.44934 1.20643 0
M  V30 9225 H 843.189 6.86051 -1.26413 0
M  V30 9226 H 839.086 6.45425 -0.0982318 0
M  V30 9227 H 839.854 8.06251 -1.41071 0
M  V30 9228 N 842.517 -0.29412 1.54831 0
M  V30 9229 C 843.427 -1.3854 1.89325 0
M  V30 9230 C 844.443 -1.55127 0.788133 0
M  V30 9231 O 845.619 -1.6966 1.08524 0
M  V30 9232 C 842.684 -2.72809 2.13954 0
M  V30 9233 C 841.745 -2.65148 3.37631 0
M  V30 9234 C 840.978 -3.93014 3.61076 0
M  V30 9235 O 841.201 -4.927 2.87406 0
M  V30 9236 O 840.135 -3.94491 4.54599 0
M  V30 9237 H 843.961 -1.12289 2.82179 0
M  V30 9238 H 841.546 -0.490793 1.41108 0
M  V30 9239 H 843.428 -3.52238 2.31315 0
M  V30 9240 H 842.103 -2.9889 1.24285 0
M  V30 9241 H 841.01 -1.84168 3.25627 0
M  V30 9242 H 842.343 -2.4402 4.27452 0
M  V30 9243 N 843.995 -1.47404 -0.557645 0
M  V30 9244 C 844.905 -1.62491 -1.69216 0
M  V30 9245 C 845.921 -0.507764 -1.66426 0
M  V30 9246 O 847.097 -0.775241 -1.85882 0
M  V30 9247 C 844.162 -1.63511 -3.05721 0
M  V30 9248 C 843.223 -2.86648 -3.1958 0
M  V30 9249 C 842.456 -2.87609 -4.49574 0
M  V30 9250 O 842.679 -1.97799 -5.35006 0
M  V30 9251 O 841.613 -3.79465 -4.67215 0
M  V30 9252 H 845.439 -2.58487 -1.59431 0
M  V30 9253 H 843.024 -1.30485 -0.7276 0
M  V30 9254 H 844.906 -1.66863 -3.86956 0
M  V30 9255 H 843.581 -0.706812 -3.15889 0
M  V30 9256 H 842.488 -2.8884 -2.37744 0
M  V30 9257 H 843.821 -3.7877 -3.14316 0
M  V30 9258 N 845.473 0.80434 -1.35529 0
M  V30 9259 C 846.383 1.94784 -1.30753 0
M  V30 9260 C 847.399 1.72703 -0.212071 0
M  V30 9261 O 848.575 1.96494 -0.441841 0
M  V30 9262 C 845.64 3.29406 -1.08133 0
M  V30 9263 C 844.701 3.64367 -2.27013 0
M  V30 9264 C 843.934 4.92566 -2.05463 0
M  V30 9265 O 844.157 5.61166 -1.02222 0
M  V30 9266 O 843.091 5.25838 -2.92879 0
M  V30 9267 H 846.917 2.01761 -2.26994 0
M  V30 9268 H 844.502 0.942448 -1.15924 0
M  V30 9269 H 846.384 4.09995 -0.973756 0
M  V30 9270 H 845.059 3.23355 -0.149444 0
M  V30 9271 H 843.966 2.84146 -2.43335 0
M  V30 9272 H 845.299 3.75125 -3.18656 0
M  V30 9273 N 846.951 1.19563 1.02676 0
M  V30 9274 C 848.2 0.993864 1.75514 0
M  V30 9275 C 848.513 -0.475882 1.89723 0
M  V30 9276 O 849.719 -0.796525 2.59553 0
M  V30 9277 C 848.175 1.72937 3.15628 0
M  V30 9278 C 847.783 3.23937 3.09466 0
M  V30 9279 C 849.527 1.61092 3.92746 0
M  V30 9280 C 847.434 3.90067 4.44524 0
M  V30 9281 H 846.364 0.368244 0.657961 0
M  V30 9282 H 849.015 1.43081 1.14891 0
M  V30 9283 H 847.397 1.22025 3.76731 0
M  V30 9284 H 848.571 3.81983 2.57731 0
M  V30 9285 H 846.886 3.3608 2.45843 0
M  V30 9286 H 849.483 2.07848 4.92649 0
M  V30 9287 H 849.826 0.565415 4.12442 0
M  V30 9288 H 850.359 2.09361 3.3825 0
M  V30 9289 H 847.098 4.94725 4.30032 0
M  V30 9290 H 846.618 3.36809 4.96306 0
M  V30 9291 H 848.297 3.93736 5.13401 0
M  V30 9292 N 848.429 -1.21819 0.999893 0
M  V30 9293 C 849.339 -2.27691 0.565159 0
M  V30 9294 C 850.355 -1.69587 -0.389398 0
M  V30 9295 O 851.531 -1.99786 -0.254499 0
M  V30 9296 C 848.596 -3.46537 -0.106432 0
M  V30 9297 C 847.657 -4.19932 0.891964 0
M  V30 9298 C 846.89 -5.33103 0.252327 0
M  V30 9299 O 847.113 -5.62398 -0.952103 0
M  V30 9300 O 846.047 -5.94184 0.960698 0
M  V30 9301 H 849.873 -2.67059 1.44613 0
M  V30 9302 H 847.458 -1.28119 0.768499 0
M  V30 9303 H 849.34 -4.18631 -0.482301 0
M  V30 9304 H 848.015 -3.09079 -0.961865 0
M  V30 9305 H 846.922 -3.5008 1.3189 0
M  V30 9306 H 848.255 -4.61287 1.71682 0
M  V30 9307 N 849.908 -0.773975 -1.37286 0
M  V30 9308 C 850.841 -0.108019 -2.27944 0
M  V30 9309 C 851.819 0.706737 -1.46438 0
M  V30 9310 O 853.003 0.681025 -1.75768 0
M  V30 9311 C 850.13 0.853199 -3.27778 0
M  V30 9312 C 849.176 0.122164 -4.26325 0
M  V30 9313 S 850.009 -1.19136 -5.22079 0
M  V30 9314 C 851.165 -0.233737 -6.25463 0
M  V30 9315 H 851.398 -0.876743 -2.84078 0
M  V30 9316 H 848.931 -0.567468 -1.43594 0
M  V30 9317 H 850.889 1.40238 -3.85803 0
M  V30 9318 H 849.55 1.59505 -2.70586 0
M  V30 9319 H 848.743 0.850926 -4.96765 0
M  V30 9320 H 848.345 -0.356079 -3.72301 0
M  V30 9321 H 850.637 0.59305 -6.74899 0
M  V30 9322 H 851.58 -0.906373 -7.02275 0
M  V30 9323 H 851.988 0.156048 -5.64284 0
M  V30 9324 N 851.386 1.48609 -0.524698 0
M  V30 9325 C 852.296 2.33318 0.244923 0
M  V30 9326 C 853.312 1.46153 0.944214 0
M  V30 9327 O 854.488 1.79141 0.920347 0
M  V30 9328 C 851.553 3.22149 1.28144 0
M  V30 9329 C 850.614 4.25184 0.593068 0
M  V30 9330 C 849.847 5.0977 1.5802 0
M  V30 9331 O 850.07 4.96249 2.81235 0
M  V30 9332 O 849.004 5.9134 1.1225 0
M  V30 9333 H 852.83 3.00362 -0.449066 0
M  V30 9334 H 850.415 1.46643 -0.285689 0
M  V30 9335 H 852.297 3.77111 1.88057 0
M  V30 9336 H 850.972 2.57772 1.95793 0
M  V30 9337 H 849.879 3.74071 -0.0464214 0
M  V30 9338 H 851.212 4.92183 -0.0413893 0
M  V30 9339 N 852.864 0.259585 1.55447 0
M  V30 9340 C 853.774 -0.645026 2.25558 0
M  V30 9341 C 854.79 -1.18291 1.27606 0
M  V30 9342 O 855.966 -1.21649 1.6051 0
M  V30 9343 C 853.031 -1.81964 2.9511 0
M  V30 9344 C 852.092 -1.31997 4.08504 0
M  V30 9345 C 851.325 -2.43861 4.74729 0
M  V30 9346 O 851.548 -3.62876 4.40088 0
M  V30 9347 O 850.482 -2.12898 5.6299 0
M  V30 9348 H 854.308 -0.0775399 3.03601 0
M  V30 9349 H 851.893 0.0275859 1.49375 0
M  V30 9350 H 853.775 -2.50485 3.38873 0
M  V30 9351 H 852.45 -2.37451 2.19997 0
M  V30 9352 H 851.357 -0.601676 3.6923 0
M  V30 9353 H 852.69 -0.811045 4.85472 0
M  V30 9354 N 854.342 -1.57594 -0.0133615 0
M  V30 9355 C 855.588 -1.90262 -0.702019 0
M  V30 9356 C 855.921 -0.859219 -1.74158 0
M  V30 9357 O 855.196 0.123778 -1.94106 0
M  V30 9358 C 855.479 -3.3354 -1.35732 0
M  V30 9359 C 855.332 -4.48586 -0.330208 0
M  V30 9360 C 856.651 -3.76004 -2.28712 0
M  V30 9361 H 853.77 -0.691943 -0.253739 0
M  V30 9362 H 856.412 -1.89967 0.0351894 0
M  V30 9363 H 854.562 -3.33921 -1.98567 0
M  V30 9364 H 856.234 -4.6034 0.297433 0
M  V30 9365 H 854.477 -4.32394 0.348926 0
M  V30 9366 H 855.148 -5.45762 -0.827508 0
M  V30 9367 H 857.624 -3.77089 -1.75906 0
M  V30 9368 H 856.5 -4.77032 -2.71535 0
M  V30 9369 H 856.761 -3.09129 -3.16056 0
M  V30 9370 N 855.82 0.285905 -1.54985 0
M  V30 9371 C 857.066 1.02071 -1.75241 0
M  V30 9372 C 857.399 1.864 -0.544842 0
M  V30 9373 O 856.674 1.89034 0.457844 0
M  V30 9374 C 856.957 1.91409 -3.05016 0
M  V30 9375 C 856.81 1.10158 -4.36102 0
M  V30 9376 C 858.129 2.90335 -3.30747 0
M  V30 9377 H 855.248 0.369663 -0.637588 0
M  V30 9378 H 857.89 0.294114 -1.8771 0
M  V30 9379 H 856.04 2.53362 -2.94517 0
M  V30 9380 H 857.712 0.503756 -4.58541 0
M  V30 9381 H 855.955 0.404675 -4.31908 0
M  V30 9382 H 856.626 1.75956 -5.23205 0
M  V30 9383 H 859.102 2.38514 -3.40955 0
M  V30 9384 H 857.978 3.49997 -4.2284 0
M  V30 9385 H 858.239 3.64787 -2.49765 0
M  V30 9386 N 857.298 1.47698 0.54982 0
M  V30 9387 C 858.538 1.56286 1.31735 0
M  V30 9388 C 858.902 0.223042 1.907 0
M  V30 9389 O 860.103 0.183798 2.68171 0
M  V30 9390 C 858.374 2.65522 2.39234 0
M  V30 9391 S 859.933 2.93742 3.25977 0
M  V30 9392 H 856.751 0.551795 0.448378 0
M  V30 9393 H 859.353 1.85118 0.628629 0
M  V30 9394 H 858.057 3.61457 1.94362 0
M  V30 9395 H 857.588 2.38528 3.12838 0
M  V30 9396 H 859.603 2.31522 4.38876 0
M  V30 9397 N 858.776 -0.797141 1.35954 0
M  V30 9398 C 860.187 -1.37179 1.26644 0
M  V30 9399 C 860.538 -1.9596 -0.0971046 0
M  V30 9400 O 859.663 -1.91994 -0.998355 0
M  V30 9401 C 860.258 -2.49395 2.2932 0
M  V30 9402 C 858.817 -3.02697 2.23722 0
M  V30 9403 C 857.964 -1.75721 2.14517 0
M  V30 9404 H 860.915 -0.599407 1.46945 0
M  V30 9405 H 860.936 -3.28204 1.92515 0
M  V30 9406 H 860.448 -2.06584 3.2855 0
M  V30 9407 H 858.549 -3.49948 1.27934 0
M  V30 9408 H 858.662 -3.60036 3.16087 0
M  V30 9409 H 857.026 -1.97649 1.60646 0
M  V30 9410 H 857.809 -1.35049 3.15621 0
M  V30 9411 N 860.254 -1.20106 -1.0204 0
M  V30 9412 C 861.186 -0.904236 -2.10609 0
M  V30 9413 C 862.199 0.106487 -1.62451 0
M  V30 9414 O 863.388 -0.124035 -1.78069 0
M  V30 9415 C 860.488 -0.333423 -3.37256 0
M  V30 9416 C 859.661 -1.39476 -4.14566 0
M  V30 9417 C 858.72 -0.835961 -5.19517 0
M  V30 9418 O 857.746 -1.51573 -5.48648 0
M  V30 9419 N 858.948 0.356531 -5.79404 0
M  V30 9420 H 861.713 -1.8388 -2.36661 0
M  V30 9421 H 859.274 -1.10422 -1.184 0
M  V30 9422 H 861.266 0.0544571 -4.04663 0
M  V30 9423 H 859.836 0.505608 -3.08484 0
M  V30 9424 H 859.056 -1.95714 -3.42184 0
M  V30 9425 H 860.344 -2.10967 -4.63001 0
M  V30 9426 H 859.742 0.926143 -5.58067 0
M  V30 9427 H 858.299 0.686093 -6.48179 0
M  V30 9428 N 861.732 1.21287 -1.00634 0
M  V30 9429 C 862.642 2.27388 -0.577226 0
M  V30 9430 C 863.658 1.69791 0.380399 0
M  V30 9431 O 864.834 1.99918 0.2439 0
M  V30 9432 C 861.899 3.46588 0.0880532 0
M  V30 9433 C 860.96 4.19453 -0.914222 0
M  V30 9434 C 860.193 5.32962 -0.280596 0
M  V30 9435 O 860.416 5.62895 0.922265 0
M  V30 9436 O 859.35 5.93666 -0.992196 0
M  V30 9437 H 863.176 2.66289 -1.46028 0
M  V30 9438 H 860.761 1.2771 -0.775283 0
M  V30 9439 H 862.643 4.18881 0.460094 0
M  V30 9440 H 861.318 3.09585 0.945461 0
M  V30 9441 H 860.225 3.49376 -1.33744 0
M  V30 9442 H 861.558 4.6037 -1.74126 0
M  V30 9443 N 863.21 0.781244 1.36873 0
M  V30 9444 C 864.142 0.132075 2.28819 0
M  V30 9445 C 865.155 -0.653925 1.49089 0
M  V30 9446 O 866.344 -0.490453 1.7163 0
M  V30 9447 C 863.444 -0.836297 3.28419 0
M  V30 9448 C 862.617 -0.102097 4.37281 0
M  V30 9449 C 861.676 -0.985217 5.16894 0
M  V30 9450 O 860.702 -0.445478 5.67454 0
M  V30 9451 N 861.904 -2.31043 5.3254 0
M  V30 9452 H 864.669 0.921838 2.85171 0
M  V30 9453 H 862.23 0.634427 1.48952 0
M  V30 9454 H 864.222 -1.43074 3.78566 0
M  V30 9455 H 862.792 -1.52698 2.72767 0
M  V30 9456 H 862.012 0.67335 3.88407 0
M  V30 9457 H 863.3 0.404862 5.07187 0
M  V30 9458 H 862.698 -2.77318 4.93063 0
M  V30 9459 H 861.255 -2.85472 5.8596 0
M  V30 9460 N 864.689 -1.48329 0.532571 0
M  V30 9461 C 865.619 -2.32485 -0.217511 0
M  V30 9462 C 866.6 -1.42255 -0.932598 0
M  V30 9463 O 867.785 -1.7114 -0.917873 0
M  V30 9464 C 864.915 -3.23509 -1.26329 0
M  V30 9465 C 863.869 -4.22784 -0.666191 0
M  V30 9466 C 863.195 -5.0296 -1.81482 0
M  V30 9467 C 864.495 -5.21031 0.363813 0
M  V30 9468 H 866.189 -2.95445 0.485014 0
M  V30 9469 H 863.735 -1.42075 0.234694 0
M  V30 9470 H 865.688 -3.81211 -1.79601 0
M  V30 9471 H 864.412 -2.58554 -1.99543 0
M  V30 9472 H 863.071 -3.66272 -0.15498 0
M  V30 9473 H 862.719 -4.34427 -2.5354 0
M  V30 9474 H 862.419 -5.70154 -1.4212 0
M  V30 9475 H 863.943 -5.63514 -2.35126 0
M  V30 9476 H 865.357 -5.73241 -0.0819079 0
M  V30 9477 H 863.754 -5.96292 0.674956 0
M  V30 9478 H 864.824 -4.6801 1.26865 0
M  V30 9479 N 866.167 -0.267825 -1.55308 0
M  V30 9480 C 867.13 0.60965 -2.20943 0
M  V30 9481 C 868.13 1.0869 -1.18504 0
M  V30 9482 O 869.32 0.988248 -1.43455 0
M  V30 9483 C 866.452 1.84027 -2.86961 0
M  V30 9484 H 867.645 0.0366806 -2.99878 0
M  V30 9485 H 865.198 -0.0183941 -1.56289 0
M  V30 9486 H 865.933 2.45394 -2.1202 0
M  V30 9487 H 865.718 1.50605 -3.62023 0
M  V30 9488 H 867.208 2.46442 -3.37129 0
M  V30 9489 N 867.645 1.57599 0.00500368 0
M  V30 9490 C 868.891 1.90631 0.691919 0
M  V30 9491 C 869.224 0.868443 1.737 0
M  V30 9492 O 868.499 -0.113482 1.94169 0
M  V30 9493 C 868.782 3.34255 1.33961 0
M  V30 9494 C 868.635 4.48755 0.306413 0
M  V30 9495 C 869.954 3.77211 2.26715 0
M  V30 9496 H 867.073 0.693279 0.250066 0
M  V30 9497 H 869.715 1.89946 -0.0452634 0
M  V30 9498 H 867.865 3.3497 1.96793 0
M  V30 9499 H 869.537 4.60176 -0.321841 0
M  V30 9500 H 867.78 4.32203 -0.371852 0
M  V30 9501 H 868.451 5.46193 0.798554 0
M  V30 9502 H 870.927 3.78017 1.73904 0
M  V30 9503 H 869.803 4.78466 2.69002 0
M  V30 9504 H 870.064 3.10801 3.14413 0
M  V30 9505 N 869.123 -0.277682 1.55134 0
M  V30 9506 C 870.086 -1.32635 1.86924 0
M  V30 9507 C 871.086 -1.42578 0.743507 0
M  V30 9508 O 872.276 -1.4181 1.01171 0
M  V30 9509 C 869.408 -2.70832 2.07034 0
M  V30 9510 H 870.601 -1.0568 2.80663 0
M  V30 9511 H 868.154 -0.515517 1.47554 0
M  V30 9512 H 868.889 -3.02974 1.15661 0
M  V30 9513 H 868.674 -2.65001 2.88993 0
M  V30 9514 H 870.164 -3.46611 2.32918 0
M  V30 9515 N 870.601 -1.47988 -0.541979 0
M  V30 9516 C 871.533 -1.5769 -1.66332 0
M  V30 9517 C 872.546 -0.461994 -1.56107 0
M  V30 9518 O 873.735 -0.732306 -1.62787 0
M  V30 9519 C 870.835 -1.47939 -3.04905 0
M  V30 9520 C 870.008 -2.74263 -3.40733 0
M  V30 9521 C 869.067 -2.58133 -4.58534 0
M  V30 9522 O 868.093 -3.31991 -4.62354 0
M  V30 9523 N 869.295 -1.6696 -5.55972 0
M  V30 9524 H 872.06 -2.54389 -1.5845 0
M  V30 9525 H 869.621 -1.4456 -0.728979 0
M  V30 9526 H 871.613 -1.34861 -3.81569 0
M  V30 9527 H 870.183 -0.592626 -3.06931 0
M  V30 9528 H 869.403 -3.01992 -2.53366 0
M  V30 9529 H 870.691 -3.58094 -3.6145 0
M  V30 9530 H 870.089 -1.06134 -5.55655 0
M  V30 9531 H 868.646 -1.59826 -6.31901 0
M  V30 9532 N 872.079 0.78992 -1.36375 0
M  V30 9533 C 873.307 1.57873 -1.3373 0
M  V30 9534 C 873.722 1.88624 0.0815544 0
M  V30 9535 O 873.079 1.50085 1.03831 0
M  V30 9536 C 873.13 2.90003 -2.15825 0
M  V30 9537 O 872.851 2.60578 -3.5218 0
M  V30 9538 C 874.352 3.84309 -2.20955 0
M  V30 9539 H 871.572 0.489685 -0.458748 0
M  V30 9540 H 874.116 0.980436 -1.79465 0
M  V30 9541 H 872.271 3.46303 -1.73646 0
M  V30 9542 H 872.685 3.4506 -3.95011 0
M  V30 9543 H 874.159 4.74081 -2.82756 0
M  V30 9544 H 874.636 4.22121 -1.21287 0
M  V30 9545 H 875.242 3.33942 -2.63368 0
M  V30 9546 N 873.557 1.20646 1.01402 0
M  V30 9547 C 874.467 0.973385 2.13453 0
M  V30 9548 C 875.483 -0.0715865 1.73853 0
M  V30 9549 O 876.659 0.116438 2.01063 0
M  V30 9550 C 873.724 0.531285 3.42605 0
M  V30 9551 C 872.785 1.64741 3.96433 0
M  V30 9552 C 872.018 1.22631 5.1942 0
M  V30 9553 O 872.241 0.0960891 5.70319 0
M  V30 9554 O 871.175 2.03474 5.66465 0
M  V30 9555 H 875.001 1.91164 2.35987 0
M  V30 9556 H 872.586 0.990553 1.11841 0
M  V30 9557 H 874.468 0.294095 4.20373 0
M  V30 9558 H 873.143 -0.378358 3.21481 0
M  V30 9559 H 872.05 1.93891 3.19933 0
M  V30 9560 H 873.383 2.53415 4.2195 0
M  V30 9561 N 875.035 -1.20752 1.01276 0
M  V30 9562 C 876.281 -1.90302 0.700924 0
M  V30 9563 C 876.614 -1.78406 -0.767142 0
M  V30 9564 O 875.889 -1.16575 -1.55694 0
M  V30 9565 C 876.172 -3.41831 1.13242 0
M  V30 9566 C 876.025 -3.6268 2.66051 0
M  V30 9567 C 877.344 -4.34486 0.700738 0
M  V30 9568 H 874.463 -0.69107 0.256107 0
M  V30 9569 H 877.105 -1.42227 1.25982 0
M  V30 9570 H 875.255 -3.82906 0.656902 0
M  V30 9571 H 876.927 -3.30882 3.21426 0
M  V30 9572 H 875.17 -3.06281 3.07204 0
M  V30 9573 H 875.841 -4.68882 2.91296 0
M  V30 9574 H 878.317 -4.01036 1.10948 0
M  V30 9575 H 877.193 -5.39136 1.03073 0
M  V30 9576 H 877.454 -4.40307 -0.39778 0
M  V30 9577 N 876.513 -0.788492 -1.36457 0
M  V30 9578 C 877.762 -0.357052 -1.98515 0
M  V30 9579 C 878.075 1.0769 -1.63285 0
M  V30 9580 O 879.281 1.61057 -2.1857 0
M  V30 9581 C 877.737 -0.587449 -3.55073 0
M  V30 9582 C 877.345 -2.03276 -3.99228 0
M  V30 9583 C 879.089 -0.220468 -4.23927 0
M  V30 9584 C 876.996 -2.20987 -5.48561 0
M  V30 9585 H 875.926 -0.129762 -0.74275 0
M  V30 9586 H 878.577 -0.969995 -1.55767 0
M  V30 9587 H 876.959 0.0951918 -3.95886 0
M  V30 9588 H 878.133 -2.75173 -3.69617 0
M  V30 9589 H 876.448 -2.3579 -3.43208 0
M  V30 9590 H 879.045 -0.331085 -5.33674 0
M  V30 9591 H 879.388 0.831306 -4.07915 0
M  V30 9592 H 879.921 -0.856309 -3.88474 0
M  V30 9593 H 876.66 -3.24543 -5.69519 0
M  V30 9594 H 876.18 -1.53594 -5.79801 0
M  V30 9595 H 877.859 -2.01656 -6.14771 0
M  V30 9596 N 877.991 1.48044 -0.54043 0
M  V30 9597 C 879.237 2.02797 -0.0101718 0
M  V30 9598 C 879.57 1.41565 1.32939 0
M  V30 9599 O 878.845 0.565139 1.86109 0
M  V30 9600 C 879.128 3.59959 0.100758 0
M  V30 9601 C 878.981 4.31654 -1.26471 0
M  V30 9602 C 880.3 4.32347 0.822455 0
M  V30 9603 H 877.419 0.736982 -0.00517052 0
M  V30 9604 H 880.061 1.76656 -0.69948 0
M  V30 9605 H 878.211 3.82363 0.687824 0
M  V30 9606 H 879.883 4.20639 -1.89369 0
M  V30 9607 H 878.126 3.92663 -1.84386 0
M  V30 9608 H 878.797 5.401 -1.13998 0
M  V30 9609 H 881.273 4.14835 0.324164 0
M  V30 9610 H 880.149 5.41978 0.868993 0
M  V30 9611 H 880.41 4.00369 1.87501 0
M  V30 9612 N 879.47 0.276058 1.55163 0
M  V30 9613 C 880.747 -0.392292 1.91626 0
M  V30 9614 C 881.127 -1.73646 1.20043 0
M  V30 9615 O 880.475 -2.26139 0.327606 0
M  V30 9616 C 880.685 -0.531641 3.44927 0
M  V30 9617 C 882.033 -0.8141 4.16722 0
M  V30 9618 O 883.057 -0.616413 3.50826 0
M  V30 9619 O 881.916 -1.19224 5.33337 0
M  V30 9620 H 879.01 -0.214945 0.798579 0
M  V30 9621 H 881.556 0.32228 1.66612 0
M  V30 9622 H 880.328 0.414282 3.89101 0
M  V30 9623 H 879.951 -1.29564 3.75897 0
M  V30 9624 N 880.948 -1.576 0.00335426 0
M  V30 9625 C 881.881 -2.04085 -1.021 0
M  V30 9626 C 882.859 -0.931382 -1.33282 0
M  V30 9627 O 884.043 -1.19976 -1.45389 0
M  V30 9628 C 881.17 -2.44128 -2.34775 0
M  V30 9629 C 880.216 -3.65841 -2.19232 0
M  V30 9630 S 881.049 -5.13616 -1.51521 0
M  V30 9631 C 882.205 -5.56931 -2.8562 0
M  V30 9632 H 882.438 -2.90652 -0.625192 0
M  V30 9633 H 879.971 -1.52998 -0.207611 0
M  V30 9634 H 881.929 -2.67866 -3.1106 0
M  V30 9635 H 880.59 -1.57954 -2.71495 0
M  V30 9636 H 879.783 -3.9162 -3.17253 0
M  V30 9637 H 879.385 -3.42122 -1.51091 0
M  V30 9638 H 881.677 -5.59596 -3.81914 0
M  V30 9639 H 882.62 -6.5683 -2.64536 0
M  V30 9640 H 883.028 -4.84504 -2.89683 0
M  V30 9641 N 882.426 0.269451 -1.5528 0
M  V30 9642 C 883.373 1.33316 -1.88403 0
M  V30 9643 C 884.343 1.48909 -0.735881 0
M  V30 9644 O 885.528 1.63259 -0.987479 0
M  V30 9645 C 882.668 2.68778 -2.16454 0
M  V30 9646 C 881.781 2.61377 -3.43956 0
M  V30 9647 C 880.916 3.89042 -3.6169 0
M  V30 9648 C 879.955 3.76166 -4.82872 0
M  V30 9649 N 879.092 4.95673 -4.97245 0
M  V30 9650 H 883.932 1.04368 -2.79126 0
M  V30 9651 H 881.469 0.504147 -1.38191 0
M  V30 9652 H 883.427 3.47599 -2.30719 0
M  V30 9653 H 882.057 2.9592 -1.28961 0
M  V30 9654 H 881.109 1.74247 -3.38145 0
M  V30 9655 H 882.421 2.47764 -4.32914 0
M  V30 9656 H 881.575 4.76304 -3.75791 0
M  V30 9657 H 880.314 4.05526 -2.70924 0
M  V30 9658 H 879.319 2.87287 -4.68771 0
M  V30 9659 H 880.544 3.61198 -5.75077 0
M  V30 9660 H 878.49 5.12561 -4.09411 0
M  V30 9661 H 878.407 4.84605 -5.80254 0
M  V30 9662 H 879.675 5.84498 -5.15735 0
M  V30 9663 N 883.904 1.48273 0.534124 0
M  V30 9664 C 885.129 1.59988 1.31979 0
M  V30 9665 C 885.554 0.258824 1.86311 0
M  V30 9666 O 884.912 -0.768885 1.64188 0
M  V30 9667 C 884.96 2.64642 2.44943 0
M  V30 9668 O 884.064 2.21515 3.47858 0
M  V30 9669 H 883.405 0.536625 0.391063 0
M  V30 9670 H 885.935 1.94229 0.643135 0
M  V30 9671 H 885.945 2.85786 2.91187 0
M  V30 9672 H 884.62 3.62004 2.04758 0
M  V30 9673 H 883.197 2.10567 3.0776 0
M  V30 9674 N 885.382 -0.782676 1.36792 0
M  V30 9675 C 886.61 -1.57162 1.34565 0
M  V30 9676 C 887.025 -1.88664 -0.0715501 0
M  V30 9677 O 886.382 -1.50633 -1.03033 0
M  V30 9678 C 886.433 -2.88854 2.1736 0
M  V30 9679 O 886.154 -2.58707 3.53557 0
M  V30 9680 C 887.655 -3.83132 2.2299 0
M  V30 9681 H 884.875 -0.487245 0.461338 0
M  V30 9682 H 887.419 -0.970905 1.79982 0
M  V30 9683 H 885.574 -3.45377 1.7548 0
M  V30 9684 H 885.988 -3.42961 3.96835 0
M  V30 9685 H 887.462 -4.72575 2.85266 0
M  V30 9686 H 887.939 -4.21472 1.23524 0
M  V30 9687 H 888.545 -3.32541 2.65135 0
M  V30 9688 N 886.86 -1.21182 -1.00761 0
M  V30 9689 C 888.085 -1.05411 -1.78615 0
M  V30 9690 C 888.51 0.391837 -1.83973 0
M  V30 9691 O 887.868 1.28256 -1.28141 0
M  V30 9692 C 887.916 -1.65285 -3.20489 0
M  V30 9693 O 887.02 -0.896558 -4.02536 0
M  V30 9694 H 886.361 -0.37116 -0.550578 0
M  V30 9695 H 888.891 -1.60669 -1.26676 0
M  V30 9696 H 888.901 -1.69397 -3.71172 0
M  V30 9697 H 887.576 -2.70514 -3.15904 0
M  V30 9698 H 886.153 -0.930335 -3.61108 0
M  V30 9699 N 888.338 1.20213 -1.01915 0
M  V30 9700 C 889.563 1.94163 -0.729076 0
M  V30 9701 C 889.988 1.74416 0.704323 0
M  V30 9702 O 889.346 1.0401 1.48498 0
M  V30 9703 C 889.394 3.44258 -1.07324 0
M  V30 9704 O 888.498 4.11979 -0.186367 0
M  V30 9705 H 887.839 0.606506 -0.270272 0
M  V30 9706 H 890.369 1.52571 -1.3632 0
M  V30 9707 H 890.379 3.94888 -1.02603 0
M  V30 9708 H 889.054 3.57954 -2.11759 0
M  V30 9709 H 887.631 3.7176 -0.291334 0
M  V30 9710 N 889.816 0.795718 1.36037 0
M  V30 9711 C 891.065 0.367575 1.98322 0
M  V30 9712 C 891.378 -1.06823 1.63854 0
M  V30 9713 O 892.584 -1.59895 2.19421 0
M  V30 9714 C 891.04 0.606272 3.54757 0
M  V30 9715 C 890.648 2.0539 3.98144 0
M  V30 9716 C 892.392 0.242947 4.23804 0
M  V30 9717 C 890.299 2.23893 5.47381 0
M  V30 9718 H 889.229 0.133699 0.742052 0
M  V30 9719 H 891.88 0.978242 1.5525 0
M  V30 9720 H 890.262 -0.0741957 3.9593 0
M  V30 9721 H 891.436 2.77129 3.68152 0
M  V30 9722 H 889.751 2.37607 3.41953 0
M  V30 9723 H 892.348 0.359382 5.33491 0
M  V30 9724 H 892.691 -0.809661 4.08351 0
M  V30 9725 H 893.224 0.876899 3.88015 0
M  V30 9726 H 889.963 3.27559 5.6779 0
M  V30 9727 H 889.483 1.56666 5.78978 0
M  V30 9728 H 891.162 2.04914 6.13693 0
M  V30 9729 N 891.294 -1.47756 0.548274 0
M  V30 9730 C 892.571 -1.9555 -0.0443603 0
M  V30 9731 C 892.951 -1.49079 -1.49462 0
M  V30 9732 O 892.299 -0.725538 -2.16675 0
M  V30 9733 C 892.509 -3.48879 0.0918425 0
M  V30 9734 C 893.857 -4.2456 -0.0580879 0
M  V30 9735 O 894.881 -3.56195 0.018946 0
M  V30 9736 O 893.74 -5.46048 -0.222261 0
M  V30 9737 H 890.834 -0.824106 -0.0691235 0
M  V30 9738 H 893.38 -1.58196 0.614166 0
M  V30 9739 H 892.152 -3.7548 1.10137 0
M  V30 9740 H 891.775 -3.92975 -0.604704 0
M  V30 9741 N 892.772 -0.284283 -1.55015 0
M  V30 9742 C 893.997 0.335799 -2.04664 0
M  V30 9743 C 894.422 1.47999 -1.16094 0
M  V30 9744 O 893.78 1.8058 -0.161454 0
M  V30 9745 C 893.828 0.785615 -3.51938 0
M  V30 9746 O 892.932 1.89202 -3.66437 0
M  V30 9747 H 892.273 0.0680233 -0.660506 0
M  V30 9748 H 894.803 -0.421255 -2.00216 0
M  V30 9749 H 894.813 1.07892 -3.93476 0
M  V30 9750 H 893.488 -0.0514675 -4.15868 0
M  V30 9751 H 892.065 1.60055 -3.36804 0
M  V30 9752 N 894.251 1.57596 -0.0117121 0
M  V30 9753 C 895.498 1.91071 0.670667 0
M  V30 9754 C 895.826 0.886457 1.73125 0
M  V30 9755 O 895.081 -0.107135 1.95407 0
M  V30 9756 C 895.38 3.31296 1.34082 0
M  V30 9757 C 895.046 4.49011 0.412305 0
M  V30 9758 C 893.708 4.80945 0.156691 0
M  V30 9759 C 896.06 5.20709 -0.226294 0
M  V30 9760 C 893.388 5.81943 -0.745619 0
M  V30 9761 C 895.74 6.22668 -1.11655 0
M  V30 9762 C 894.404 6.53053 -1.38123 0
M  V30 9763 H 893.674 0.69918 0.245415 0
M  V30 9764 H 896.321 1.91373 -0.0697511 0
M  V30 9765 H 894.626 3.27174 2.15557 0
M  V30 9766 H 896.323 3.54461 1.87506 0
M  V30 9767 H 892.913 4.24067 0.621705 0
M  V30 9768 H 897.097 4.96282 -0.0418456 0
M  V30 9769 H 892.353 6.03839 -0.958566 0
M  V30 9770 H 896.527 6.77351 -1.61767 0
M  V30 9771 H 894.154 7.31132 -2.08208 0
M  V30 9772 N 895.729 -0.261212 1.5542 0
M  V30 9773 C 896.957 -1.00916 1.8062 0
M  V30 9774 C 897.372 -1.79494 0.585444 0
M  V30 9775 O 896.729 -1.76974 -0.445702 0
M  V30 9776 C 896.78 -1.95841 3.03856 0
M  V30 9777 O 896.501 -1.20445 4.21218 0
M  V30 9778 C 898.002 -2.82352 3.41749 0
M  V30 9779 H 895.222 -0.297596 0.601397 0
M  V30 9780 H 897.766 -0.288427 2.02456 0
M  V30 9781 H 895.921 -2.63361 2.84112 0
M  V30 9782 H 896.335 -1.84528 4.90968 0
M  V30 9783 H 897.809 -3.44733 4.31118 0
M  V30 9784 H 898.286 -3.5273 2.61683 0
M  V30 9785 H 898.892 -2.20306 3.63793 0
M  V30 9786 N 897.207 -1.48554 -0.526253 0
M  V30 9787 C 898.432 -1.60686 -1.31129 0
M  V30 9788 C 898.857 -0.268701 -1.86171 0
M  V30 9789 O 898.215 0.760167 -1.64594 0
M  V30 9790 C 898.263 -2.65938 -2.43536 0
M  V30 9791 O 897.367 -2.23356 -3.46678 0
M  V30 9792 H 896.708 -0.538691 -0.388211 0
M  V30 9793 H 899.238 -1.94567 -0.632826 0
M  V30 9794 H 899.248 -2.87327 -2.89668 0
M  V30 9795 H 897.923 -3.63085 -2.02835 0
M  V30 9796 H 896.5 -2.12196 -3.06639 0
M  V30 9797 N 898.685 0.775411 -1.37205 0
M  V30 9798 C 899.925 1.54689 -1.33606 0
M  V30 9799 C 900.289 1.91834 0.0798549 0
M  V30 9800 O 901.49 2.67722 0.240531 0
M  V30 9801 C 899.761 2.7804 -2.24563 0
M  V30 9802 S 901.32 3.68143 -2.38781 0
M  V30 9803 H 898.138 0.529631 -0.474355 0
M  V30 9804 H 900.74 0.912128 -1.72918 0
M  V30 9805 H 899.444 2.48825 -3.26365 0
M  V30 9806 H 898.975 3.46479 -1.86322 0
M  V30 9807 H 900.99 4.69843 -1.59568 0
M  V30 9808 N 900.163 1.21714 1.00117 0
M  V30 9809 C 901.126 0.981338 2.07129 0
M  V30 9810 C 902.126 -0.0491116 1.60725 0
M  V30 9811 O 903.316 0.188555 1.73177 0
M  V30 9812 C 900.448 0.480608 3.37495 0
M  V30 9813 H 901.641 1.93075 2.29482 0
M  V30 9814 H 899.194 1.03467 1.17151 0
M  V30 9815 H 899.929 -0.473552 3.20824 0
M  V30 9816 H 899.714 1.22393 3.72508 0
M  V30 9817 H 901.204 0.33561 4.16249 0
M  V30 9818 N 901.641 -1.19671 1.02551 0
M  V30 9819 C 902.869 -1.93233 0.739513 0
M  V30 9820 C 903.284 -1.75298 -0.701158 0
M  V30 9821 O 902.641 -1.07269 -1.47647 0
M  V30 9822 C 902.692 -3.45085 1.07697 0
M  V30 9823 O 902.413 -3.62441 2.46106 0
M  V30 9824 C 903.914 -4.35776 0.813298 0
M  V30 9825 H 901.134 -0.613905 0.270853 0
M  V30 9826 H 903.678 -1.51909 1.36909 0
M  V30 9827 H 901.833 -3.84255 0.492635 0
M  V30 9828 H 902.247 -4.56337 2.58567 0
M  V30 9829 H 903.721 -5.40941 1.09941 0
M  V30 9830 H 904.198 -4.38474 -0.252359 0
M  V30 9831 H 904.804 -4.02282 1.38021 0
M  V30 9832 N 903.119 -0.802921 -1.35613 0
M  V30 9833 C 904.396 -0.304993 -1.93208 0
M  V30 9834 C 904.776 1.20488 -1.73337 0
M  V30 9835 O 904.124 2.00268 -1.10022 0
M  V30 9836 C 904.334 -0.712383 -3.41652 0
M  V30 9837 C 905.682 -0.699785 -4.18794 0
M  V30 9838 O 906.706 -0.653698 -3.5015 0
M  V30 9839 O 905.565 -0.754842 -5.41262 0
M  V30 9840 H 902.659 -0.0789127 -0.823226 0
M  V30 9841 H 905.205 -0.886372 -1.44712 0
M  V30 9842 H 903.977 -1.75316 -3.49829 0
M  V30 9843 H 903.6 -0.105614 -3.9746 0
M  V30 9844 N 904.597 1.47463 -0.556102 0
M  V30 9845 C 905.844 2.02475 -0.0316337 0
M  V30 9846 C 906.172 1.43057 1.31777 0
M  V30 9847 O 905.427 0.575376 1.87051 0
M  V30 9848 C 905.726 3.57224 0.112126 0
M  V30 9849 C 905.392 4.35557 -1.16624 0
M  V30 9850 C 904.054 4.56678 -1.51654 0
M  V30 9851 C 906.406 4.8074 -2.01342 0
M  V30 9852 C 903.734 5.20231 -2.7125 0
M  V30 9853 C 906.086 5.45613 -3.2014 0
M  V30 9854 C 904.75 5.64967 -3.55484 0
M  V30 9855 H 904.02 0.74091 -0.0115756 0
M  V30 9856 H 906.667 1.77148 -0.727392 0
M  V30 9857 H 904.972 3.81538 0.890842 0
M  V30 9858 H 906.669 3.97438 0.533261 0
M  V30 9859 H 903.259 4.19395 -0.883489 0
M  V30 9860 H 907.443 4.64201 -1.75587 0
M  V30 9861 H 902.699 5.3341 -2.98804 0
M  V30 9862 H 906.873 5.79587 -3.86073 0
M  V30 9863 H 904.5 6.13984 -4.4825 0
M  V30 9864 N 906.075 0.2925 1.54862 0
M  V30 9865 C 907.303 -0.322113 2.04377 0
M  V30 9866 C 907.718 -1.48164 1.17016 0
M  V30 9867 O 907.075 -1.81466 0.19395 0
M  V30 9868 C 907.126 -0.786506 3.5284 0
M  V30 9869 O 906.847 0.326863 4.36879 0
M  V30 9870 C 908.348 -1.46715 4.18318 0
M  V30 9871 H 905.568 -0.0712074 0.667211 0
M  V30 9872 H 908.112 0.429657 1.99935 0
M  V30 9873 H 906.267 -1.48832 3.5767 0
M  V30 9874 H 906.681 -0.0331558 5.2449 0
M  V30 9875 H 908.155 -1.74333 5.23748 0
M  V30 9876 H 908.632 -2.40443 3.67538 0
M  V30 9877 H 909.238 -0.808735 4.1754 0
M  V30 9878 N 907.553 -1.57587 0.0200696 0
M  V30 9879 C 908.463 -2.13119 -0.980676 0
M  V30 9880 C 909.479 -1.08124 -1.36328 0
M  V30 9881 O 910.655 -1.40134 -1.44653 0
M  V30 9882 C 907.72 -2.63991 -2.24743 0
M  V30 9883 C 906.781 -3.83667 -1.9261 0
M  V30 9884 C 906.014 -4.32103 -3.13246 0
M  V30 9885 O 906.237 -3.79758 -4.25606 0
M  V30 9886 O 905.171 -5.24047 -2.96072 0
M  V30 9887 H 908.997 -2.98887 -0.538528 0
M  V30 9888 H 906.582 -1.48055 -0.19999 0
M  V30 9889 H 908.464 -2.9682 -2.99125 0
M  V30 9890 H 907.139 -1.81311 -2.68157 0
M  V30 9891 H 906.046 -3.55778 -1.15641 0
M  V30 9892 H 907.379 -4.67482 -1.54019 0
M  V30 9893 N 909.032 0.252966 -1.55557 0
M  V30 9894 C 910.26 0.999565 -1.81153 0
M  V30 9895 C 910.675 1.79181 -0.594955 0
M  V30 9896 O 910.032 1.77208 0.436311 0
M  V30 9897 C 910.083 1.94227 -3.04891 0
M  V30 9898 O 909.804 1.18209 -4.21851 0
M  V30 9899 C 911.305 2.80536 -3.43241 0
M  V30 9900 H 908.525 0.294402 -0.602966 0
M  V30 9901 H 911.069 0.277686 -2.02606 0
M  V30 9902 H 909.224 2.6185 -2.85505 0
M  V30 9903 H 909.638 1.81922 -4.9194 0
M  V30 9904 H 911.112 3.42442 -4.32941 0
M  V30 9905 H 911.589 3.51337 -2.6355 0
M  V30 9906 H 912.195 2.18373 -3.64956 0
M  V30 9907 N 910.51 1.48831 0.518367 0
M  V30 9908 C 911.42 1.6692 1.64848 0
M  V30 9909 C 912.436 0.551711 1.65022 0
M  V30 9910 O 913.612 0.824251 1.83761 0
M  V30 9911 C 910.677 1.71559 3.01278 0
M  V30 9912 C 909.738 2.9502 3.11868 0
M  V30 9913 C 908.971 2.99428 4.4179 0
M  V30 9914 O 909.194 2.11914 5.29574 0
M  V30 9915 O 908.128 3.91719 4.5699 0
M  V30 9916 H 911.954 2.62623 1.52521 0
M  V30 9917 H 909.539 1.32368 0.692749 0
M  V30 9918 H 911.421 1.77064 3.82396 0
M  V30 9919 H 910.096 0.790316 3.13904 0
M  V30 9920 H 909.003 2.95042 2.30003 0
M  V30 9921 H 910.336 3.8697 3.04163 0
M  V30 9922 N 911.988 -0.768124 1.37614 0
M  V30 9923 C 913.404 -1.06919 1.18493 0
M  V30 9924 C 913.604 -2.01486 0.0235753 0
M  V30 9925 O 912.66 -2.4438 -0.635209 0
M  V30 9926 C 913.973 -1.66321 2.50515 0
M  V30 9927 C 915.521 -1.78562 2.57069 0
M  V30 9928 C 915.996 -2.41377 3.89231 0
M  V30 9929 N 917.487 -2.48824 3.90693 0
M  V30 9930 C 918.222 -2.98288 4.89706 0
M  V30 9931 N 917.718 -3.47897 5.99115 0
M  V30 9932 N 919.511 -2.97196 4.77107 0
M  V30 9933 H 911.662 -0.140286 2.11936 0
M  V30 9934 H 913.925 -0.124863 0.939741 0
M  V30 9935 H 913.631 -1.04303 3.35878 0
M  V30 9936 H 913.505 -2.65571 2.67866 0
M  V30 9937 H 915.892 -2.39712 1.72111 0
M  V30 9938 H 915.973 -0.780574 2.43599 0
M  V30 9939 H 915.617 -1.80866 4.74605 0
M  V30 9940 H 915.547 -3.42495 4.00006 0
M  V30 9941 H 918.038 -2.1372 3.1166 0
M  V30 9942 H 918.351 -3.84053 6.70614 0
M  V30 9943 H 916.696 -3.45993 6.02755 0
M  V30 9944 H 919.887 -2.57741 3.90752 0
M  V30 9945 H 920.06 -3.35434 5.54426 0
M  V30 9946 N 913.466 -1.22244 -0.994698 0
M  V30 9947 C 914.691 -1.07299 -1.77487 0
M  V30 9948 C 915.116 0.372302 -1.84379 0
M  V30 9949 O 914.474 1.2689 -1.29494 0
M  V30 9950 C 914.522 -1.68675 -3.18718 0
M  V30 9951 O 913.626 -0.939202 -4.01563 0
M  V30 9952 H 912.967 -0.376979 -0.546611 0
M  V30 9953 H 915.497 -1.62003 -1.24965 0
M  V30 9954 H 915.507 -1.73324 -3.69354 0
M  V30 9955 H 914.182 -2.73849 -3.13017 0
M  V30 9956 H 912.759 -0.968583 -3.60101 0
M  V30 9957 N 914.944 1.19125 -1.03184 0
M  V30 9958 C 916.355 1.70564 -0.759264 0
M  V30 9959 C 916.706 1.8248 0.720794 0
M  V30 9960 O 915.831 1.49804 1.56166 0
M  V30 9961 C 916.426 3.09793 -1.37163 0
M  V30 9962 C 914.985 3.5848 -1.14757 0
M  V30 9963 C 914.132 2.35265 -1.46784 0
M  V30 9964 H 917.083 1.03925 -1.19939 0
M  V30 9965 H 917.104 3.72624 -0.77015 0
M  V30 9966 H 916.616 3.01088 -2.44882 0
M  V30 9967 H 914.717 3.72494 -0.0887182 0
M  V30 9968 H 914.83 4.42426 -1.83836 0
M  V30 9969 H 913.194 2.38747 -0.887254 0
M  V30 9970 H 913.977 2.29188 -2.55593 0
M  V30 9971 N 916.422 0.810101 1.35185 0
M  V30 9972 C 917.352 0.237453 2.32289 0
M  V30 9973 C 918.333 -0.639032 1.5764 0
M  V30 9974 O 919.518 -0.568575 1.8569 0
M  V30 9975 C 916.648 -0.611964 3.41866 0
M  V30 9976 C 915.602 0.166318 4.27677 0
M  V30 9977 C 914.928 -0.805024 5.28605 0
M  V30 9978 C 916.228 1.36729 5.04086 0
M  V30 9979 H 917.922 1.04874 2.80432 0
M  V30 9980 H 915.468 0.505751 1.34826 0
M  V30 9981 H 917.421 -1.02267 4.08802 0
M  V30 9982 H 916.145 -1.45617 2.92341 0
M  V30 9983 H 914.804 0.558238 3.62325 0
M  V30 9984 H 914.452 -1.64483 4.75347 0
M  V30 9985 H 914.152 -0.288577 5.86891 0
M  V30 9986 H 915.676 -1.21386 5.98413 0
M  V30 9987 H 917.09 1.03128 5.63948 0
M  V30 9988 H 915.487 1.81848 5.71884 0
M  V30 9989 H 916.557 2.15214 4.34524 0
M  V30 9990 N 917.9 -1.47166 0.563914 0
M  V30 9991 C 919.311 -1.86231 0.132307 0
M  V30 9992 C 919.662 -1.46976 -1.29971 0
M  V30 9993 O 918.787 -0.875911 -1.97881 0
M  V30 9994 C 919.382 -3.37996 0.233335 0
M  V30 9995 C 917.941 -3.76127 -0.143278 0
M  V30 9996 C 917.088 -2.71212 0.577857 0
M  V30 9997 H 920.039 -1.38588 0.773249 0
M  V30 9998 H 920.06 -3.76558 -0.546309 0
M  V30 9999 H 919.572 -3.66535 1.27568 0
M  V30 10000 H 917.673 -3.53205 -1.18648 0
M  V30 10001 H 917.786 -4.78595 0.219952 0
M  V30 10002 H 916.15 -2.54692 0.020186 0
M  V30 10003 H 916.933 -3.02593 1.62149 0
M  V30 10004 N 919.378 -0.300708 -1.54705 0
M  V30 10005 C 920.789 0.191995 -1.8571 0
M  V30 10006 C 921.14 1.53447 -1.22264 0
M  V30 10007 O 920.265 2.10054 -0.520226 0
M  V30 10008 C 920.86 0.355148 -3.36933 0
M  V30 10009 C 919.419 0.792071 -3.67972 0
M  V30 10010 C 918.566 -0.099756 -2.77121 0
M  V30 10011 H 921.517 -0.521729 -1.49879 0
M  V30 10012 H 921.538 1.18977 -3.61421 0
M  V30 10013 H 921.05 -0.622075 -3.83082 0
M  V30 10014 H 919.151 1.77986 -3.27341 0
M  V30 10015 H 919.264 0.611661 -4.75179 0
M  V30 10016 H 917.628 0.420909 -2.51198 0
M  V30 10017 H 918.411 -1.07333 -3.2609 0
M  V30 10018 N 920.856 1.57574 -0.0284266 0
M  V30 10019 C 922.267 1.79585 0.510502 0
M  V30 10020 C 922.618 0.938625 1.72291 0
M  V30 10021 O 921.743 0.14884 2.15888 0
M  V30 10022 C 922.338 3.25703 0.932912 0
M  V30 10023 C 920.897 3.48711 1.41696 0
M  V30 10024 C 920.044 2.74665 0.381356 0
M  V30 10025 H 922.995 1.56647 -0.254464 0
M  V30 10026 H 923.016 3.35376 1.79731 0
M  V30 10027 H 922.528 3.88067 0.0503036 0
M  V30 10028 H 920.629 2.91597 2.31952 0
M  V30 10029 H 920.742 4.57423 1.42481 0
M  V30 10030 H 919.106 2.40123 0.8493 0
M  V30 10031 H 919.889 3.39745 -0.492775 0
M  V30 10032 N 922.334 -0.244713 1.55689 0
M  V30 10033 C 923.559 -0.994157 1.8202 0
M  V30 10034 C 923.984 -1.78079 0.60577 0
M  V30 10035 O 923.342 -1.75748 -0.445221 0
M  V30 10036 C 923.39 -1.90599 3.06111 0
M  V30 10037 O 922.494 -2.99804 2.8318 0
M  V30 10038 H 921.835 -0.282767 0.600782 0
M  V30 10039 H 924.365 -0.26504 2.02876 0
M  V30 10040 H 924.375 -2.32023 3.35603 0
M  V30 10041 H 923.05 -1.32763 3.9414 0
M  V30 10042 H 921.627 -2.62493 2.64862 0
M  V30 10043 N 923.813 -1.49104 -0.510467 0
M  V30 10044 C 924.776 -1.64569 -1.59529 0
M  V30 10045 C 925.776 -0.517937 -1.5223 0
M  V30 10046 O 926.966 -0.784183 -1.55551 0
M  V30 10047 C 924.098 -1.6342 -2.99177 0
M  V30 10048 H 925.291 -2.61318 -1.4715 0
M  V30 10049 H 922.844 -1.37993 -0.734001 0
M  V30 10050 H 923.579 -0.68221 -3.17043 0
M  V30 10051 H 923.364 -2.45312 -3.05883 0
M  V30 10052 H 924.854 -1.77474 -3.78011 0
M  V30 10053 N 925.291 0.760815 -1.38019 0
M  V30 10054 C 926.516 1.55513 -1.37224 0
M  V30 10055 C 926.941 1.88062 0.037611 0
M  V30 10056 O 926.299 1.50042 1.0177 0
M  V30 10057 C 926.347 2.83539 -2.22796 0
M  V30 10058 O 925.451 3.78384 -1.64009 0
M  V30 10059 H 924.792 0.470642 -0.468393 0
M  V30 10060 H 927.322 0.940792 -1.81687 0
M  V30 10061 H 927.332 3.32535 -2.36399 0
M  V30 10062 H 926.007 2.59178 -3.25269 0
M  V30 10063 H 924.584 3.37063 -1.59508 0
M  V30 10064 N 926.769 1.22769 0.988202 0
M  V30 10065 C 927.719 0.969202 2.06375 0
M  V30 10066 C 928.703 -0.0819274 1.60691 0
M  V30 10067 O 929.895 0.129201 1.76528 0
M  V30 10068 C 927.024 0.553919 3.38802 0
M  V30 10069 C 926.11 1.64003 3.91106 0
M  V30 10070 N 926.501 2.86872 4.16579 0
M  V30 10071 C 924.799 1.5128 4.1956 0
M  V30 10072 C 925.5 3.57137 4.5916 0
M  V30 10073 N 924.476 2.84624 4.63131 0
M  V30 10074 H 928.278 1.90247 2.24017 0
M  V30 10075 H 925.792 1.12592 1.17033 0
M  V30 10076 H 927.789 0.350033 4.15428 0
M  V30 10077 H 926.449 -0.37239 3.22558 0
M  V30 10078 H 927.46 3.23254 4.04632 0
M  V30 10079 H 924.137 0.653032 4.12361 0
M  V30 10080 H 925.527 4.62428 4.87452 0
M  V30 10081 N 928.247 -1.18576 1.03814 0
M  V30 10082 C 929.177 -2.24334 0.647795 0
M  V30 10083 C 930.158 -1.66508 -0.34774 0
M  V30 10084 O 931.343 -1.92852 -0.228401 0
M  V30 10085 C 928.473 -3.47299 0.00734922 0
M  V30 10086 C 927.427 -4.17859 0.926152 0
M  V30 10087 C 926.753 -5.34489 0.150317 0
M  V30 10088 C 928.053 -4.71632 2.24411 0
M  V30 10089 H 929.747 -2.57241 1.53191 0
M  V30 10090 H 927.293 -1.23649 0.738028 0
M  V30 10091 H 929.246 -4.20486 -0.277434 0
M  V30 10092 H 927.97 -3.13619 -0.911626 0
M  V30 10093 H 926.629 -3.46567 1.19528 0
M  V30 10094 H 926.277 -4.97056 -0.770985 0
M  V30 10095 H 925.977 -5.82633 0.762407 0
M  V30 10096 H 927.501 -6.10467 -0.127508 0
M  V30 10097 H 928.915 -5.36526 2.02021 0
M  V30 10098 H 927.312 -5.303 2.80894 0
M  V30 10099 H 928.382 -3.89192 2.89236 0
M  V30 10100 N 929.725 -0.817259 -1.34754 0
M  V30 10101 C 930.657 -0.192695 -2.28389 0
M  V30 10102 C 931.67 0.614167 -1.50771 0
M  V30 10103 O 932.859 0.444776 -1.7287 0
M  V30 10104 C 929.959 0.748929 -3.30521 0
M  V30 10105 C 929.132 -0.0138762 -4.37398 0
M  V30 10106 C 928.191 0.847825 -5.19325 0
M  V30 10107 O 927.217 0.29487 -5.68436 0
M  V30 10108 N 928.419 2.16843 -5.38479 0
M  V30 10109 H 931.184 -0.997122 -2.82626 0
M  V30 10110 H 928.745 -0.673696 -1.47217 0
M  V30 10111 H 930.737 1.32987 -3.82226 0
M  V30 10112 H 929.307 1.45412 -2.7672 0
M  V30 10113 H 928.527 -0.776093 -3.86485 0
M  V30 10114 H 929.815 -0.539191 -5.05935 0
M  V30 10115 H 929.213 2.64148 -5.00242 0
M  V30 10116 H 927.77 2.69835 -5.93323 0
M  V30 10117 N 931.203 1.46865 -0.571711 0
M  V30 10118 C 932.136 2.27176 0.215944 0
M  V30 10119 C 933.114 1.34951 0.907035 0
M  V30 10120 O 934.298 1.64349 0.923127 0
M  V30 10121 C 931.425 3.12388 1.30888 0
M  V30 10122 C 930.471 4.20296 0.724804 0
M  V30 10123 S 931.304 5.33691 -0.439839 0
M  V30 10124 C 932.46 6.22468 0.654564 0
M  V30 10125 H 932.693 2.93633 -0.465518 0
M  V30 10126 H 930.226 1.50184 -0.358351 0
M  V30 10127 H 932.184 3.62049 1.93471 0
M  V30 10128 H 930.845 2.45265 1.96224 0
M  V30 10129 H 930.038 4.79703 1.54599 0
M  V30 10130 H 929.64 3.73591 0.174861 0
M  V30 10131 H 931.932 6.59694 1.54304 0
M  V30 10132 H 932.875 7.08033 0.0975111 0
M  V30 10133 H 933.283 5.56384 0.953762 0
M  V30 10134 N 932.681 0.308908 1.54543 0
M  V30 10135 C 933.628 -0.563659 2.23811 0
M  V30 10136 C 934.598 -1.12332 1.22355 0
M  V30 10137 O 935.783 -1.16638 1.50997 0
M  V30 10138 C 932.923 -1.72585 2.98845 0
M  V30 10139 C 932.036 -1.19682 4.1509 0
M  V30 10140 C 931.171 -2.32351 4.77688 0
M  V30 10141 C 930.21 -1.76623 5.86064 0
M  V30 10142 N 929.347 -2.82896 6.42584 0
M  V30 10143 H 934.187 0.0336288 2.97981 0
M  V30 10144 H 931.724 0.0283666 1.47073 0
M  V30 10145 H 933.682 -2.40951 3.40586 0
M  V30 10146 H 932.312 -2.29464 2.27037 0
M  V30 10147 H 931.364 -0.405173 3.78236 0
M  V30 10148 H 932.676 -0.748923 4.93146 0
M  V30 10149 H 931.83 -3.0865 5.22322 0
M  V30 10150 H 930.569 -2.80472 3.98982 0
M  V30 10151 H 929.574 -0.988171 5.40847 0
M  V30 10152 H 930.799 -1.29398 6.66658 0
M  V30 10153 H 928.745 -3.30336 5.66758 0
M  V30 10154 H 928.662 -2.42626 7.16009 0
M  V30 10155 H 929.93 -3.59068 6.91875 0
M  V30 10156 N 934.159 -1.57557 0.0367827 0
M  V30 10157 C 935.406 -1.92114 -0.640185 0
M  V30 10158 C 935.734 -0.913887 -1.71693 0
M  V30 10159 O 934.989 0.0760343 -1.95552 0
M  V30 10160 C 935.288 -3.33387 -1.28794 0
M  V30 10161 C 934.954 -4.4961 -0.340819 0
M  V30 10162 C 933.616 -4.81133 -0.0801574 0
M  V30 10163 C 935.968 -5.20283 0.309106 0
M  V30 10164 C 933.296 -5.80683 0.838107 0
M  V30 10165 C 935.648 -6.20813 1.21547 0
M  V30 10166 C 934.312 -6.50773 1.48495 0
M  V30 10167 H 933.582 -0.702996 -0.23426 0
M  V30 10168 H 936.229 -1.91238 0.100188 0
M  V30 10169 H 934.534 -3.30561 -2.10324 0
M  V30 10170 H 936.231 -3.57399 -1.81843 0
M  V30 10171 H 932.821 -4.25002 -0.554161 0
M  V30 10172 H 937.005 -4.96153 0.120794 0
M  V30 10173 H 932.261 -6.02238 1.05451 0
M  V30 10174 H 936.435 -6.74692 1.72522 0
M  V30 10175 H 934.062 -7.27727 2.19814 0
M  V30 10176 N 935.637 0.236453 -1.55816 0
M  V30 10177 C 937.048 0.80468 -1.68469 0
M  V30 10178 C 937.399 1.85601 -0.636133 0
M  V30 10179 O 936.524 2.15323 0.215622 0
M  V30 10180 C 937.119 1.46634 -3.05424 0
M  V30 10181 C 935.678 1.98214 -3.19981 0
M  V30 10182 C 934.825 0.83695 -2.64368 0
M  V30 10183 H 937.776 0.0120647 -1.58695 0
M  V30 10184 H 937.797 2.33472 -3.00451 0
M  V30 10185 H 937.309 0.700931 -3.81718 0
M  V30 10186 H 935.41 2.77604 -2.4853 0
M  V30 10187 H 935.523 2.17235 -4.2702 0
M  V30 10188 H 933.887 1.24028 -2.22462 0
M  V30 10189 H 934.67 0.084451 -3.43196 0
M  V30 10190 N 937.115 1.49373 0.502552 0
M  V30 10191 C 938.343 1.62488 1.28084 0
M  V30 10192 C 938.758 0.295667 1.86471 0
M  V30 10193 O 938.115 -0.718664 1.67754 0
M  V30 10194 C 938.166 2.69249 2.4122 0
M  V30 10195 O 937.887 3.97014 1.85234 0
M  V30 10196 C 939.388 2.93054 3.32617 0
M  V30 10197 H 936.608 0.547068 0.388533 0
M  V30 10198 H 939.152 1.95394 0.603452 0
M  V30 10199 H 937.307 2.39125 3.04792 0
M  V30 10200 H 937.721 4.55809 2.59496 0
M  V30 10201 H 939.195 3.71493 4.08285 0
M  V30 10202 H 939.672 2.02911 3.89517 0
M  V30 10203 H 940.278 3.24589 2.74813 0
M  V30 10204 N 938.594 -0.753485 1.38421 0
M  V30 10205 C 939.871 -1.50318 1.25155 0
M  V30 10206 C 940.251 -2.10588 -0.147003 0
M  V30 10207 O 939.599 -1.97071 -1.15651 0
M  V30 10208 C 939.809 -2.56946 2.36177 0
M  V30 10209 C 941.157 -3.23846 2.74607 0
M  V30 10210 O 942.181 -2.67251 2.3549 0
M  V30 10211 O 941.04 -4.2621 3.42064 0
M  V30 10212 H 938.134 -0.666624 0.48943 0
M  V30 10213 H 940.68 -0.788887 1.50249 0
M  V30 10214 H 939.452 -2.1066 3.29754 0
M  V30 10215 H 939.075 -3.35956 2.12648 0
M  V30 10216 N 940.072 -1.23292 -0.981677 0
M  V30 10217 C 941.002 -1.03738 -2.09191 0
M  V30 10218 C 941.983 0.0453041 -1.7004 0
M  V30 10219 O 943.168 -0.119092 -1.93834 0
M  V30 10220 C 940.298 -0.626426 -3.41604 0
M  V30 10221 C 939.252 -1.65631 -3.94652 0
M  V30 10222 C 938.578 -1.10084 -5.23245 0
M  V30 10223 C 939.878 -3.04903 -4.24066 0
M  V30 10224 H 941.572 -1.966 -2.25807 0
M  V30 10225 H 939.118 -0.946656 -1.0851 0
M  V30 10226 H 941.071 -0.476689 -4.18695 0
M  V30 10227 H 939.795 0.337873 -3.24848 0
M  V30 10228 H 938.454 -1.79402 -3.19704 0
M  V30 10229 H 938.102 -0.127562 -5.02838 0
M  V30 10230 H 937.802 -1.78896 -5.59705 0
M  V30 10231 H 939.326 -0.962928 -6.02959 0
M  V30 10232 H 940.74 -2.94441 -4.91912 0
M  V30 10233 H 939.137 -3.70941 -4.71724 0
M  V30 10234 H 940.207 -3.53991 -3.31389 0
M  V30 10235 N 941.55 1.18024 -1.04442 0
M  V30 10236 C 942.961 1.69749 -0.777312 0
M  V30 10237 C 943.312 1.83234 0.701399 0
M  V30 10238 O 942.437 1.51452 1.54568 0
M  V30 10239 C 943.032 3.08321 -1.40441 0
M  V30 10240 C 941.591 3.57243 -1.18553 0
M  V30 10241 C 940.738 2.33695 -1.49271 0
M  V30 10242 H 943.689 1.02647 -1.21035 0
M  V30 10243 H 943.71 3.71787 -0.809628 0
M  V30 10244 H 943.222 2.98474 -2.48062 0
M  V30 10245 H 941.323 3.72379 -0.128221 0
M  V30 10246 H 941.436 4.40451 -1.88519 0
M  V30 10247 H 939.8 2.37792 -0.912526 0
M  V30 10248 H 940.583 2.26464 -2.5801 0
M  V30 10249 N 943.028 0.824394 1.34319 0
M  V30 10250 C 944.276 0.41235 1.97849 0
M  V30 10251 C 944.597 -1.02841 1.65677 0
M  V30 10252 O 943.867 -1.71421 0.948245 0
M  V30 10253 H 942.447 0.149486 0.73189 0
M  V30 10254 H 945.109 1.05416 1.63931 0
M  V30 10255 H 944.205 0.532557 3.07523 0
M  V30 10256 N 944.506 -1.46559 0.579492 0
M  V30 10257 C 945.734 -2.06784 0.0693648 0
M  V30 10258 C 946.149 -1.42875 -1.23419 0
M  V30 10259 O 945.506 -0.532919 -1.74546 0
M  V30 10260 C 945.557 -3.61343 -0.106511 0
M  V30 10261 O 945.278 -4.22861 1.14545 0
M  V30 10262 C 946.779 -4.38489 -0.651359 0
M  V30 10263 H 943.999 -0.66866 0.0559848 0
M  V30 10264 H 946.543 -1.88235 0.799245 0
M  V30 10265 H 944.698 -3.7933 -0.786601 0
M  V30 10266 H 945.112 -5.15691 0.95723 0
M  V30 10267 H 946.586 -5.47237 -0.723615 0
M  V30 10268 H 947.063 -4.06309 -1.66763 0
M  V30 10269 H 947.669 -4.253 -0.0062433 0
M  V30 10270 N 945.984 -0.3171 -1.54377 0
M  V30 10271 C 946.894 0.560867 -2.27797 0
M  V30 10272 C 947.91 1.13473 -1.31908 0
M  V30 10273 O 949.086 1.15608 -1.64914 0
M  V30 10274 C 946.151 1.70886 -3.0166 0
M  V30 10275 C 945.212 1.16745 -4.13121 0
M  V30 10276 C 944.445 2.26073 -4.83453 0
M  V30 10277 O 944.668 3.46292 -4.53252 0
M  V30 10278 O 943.602 1.91856 -5.70504 0
M  V30 10279 H 947.428 -0.035193 -3.0368 0
M  V30 10280 H 945.013 -0.0830062 -1.49169 0
M  V30 10281 H 946.895 2.37736 -3.47936 0
M  V30 10282 H 945.57 2.29122 -2.28658 0
M  V30 10283 H 944.477 0.464224 -3.71209 0
M  V30 10284 H 945.81 0.630307 -4.88147 0
M  V30 10285 N 947.462 1.57535 -0.0451378 0
M  V30 10286 C 948.372 2.14653 0.946646 0
M  V30 10287 C 949.388 1.10279 1.3459 0
M  V30 10288 O 950.564 1.42417 1.42405 0
M  V30 10289 C 947.629 2.67533 2.20515 0
M  V30 10290 C 946.69 3.86682 1.86481 0
M  V30 10291 C 945.923 4.37031 3.06332 0
M  V30 10292 O 946.146 3.86481 4.1951 0
M  V30 10293 O 945.08 5.28691 2.87697 0
M  V30 10294 H 948.906 2.99706 0.49091 0
M  V30 10295 H 946.491 1.48355 0.17641 0
M  V30 10296 H 948.373 3.01542 2.94365 0
M  V30 10297 H 947.048 1.85554 2.65238 0
M  V30 10298 H 945.955 3.57573 1.09966 0
M  V30 10299 H 947.288 4.69873 1.46562 0
M  V30 10300 N 948.94 -0.228186 1.55939 0
M  V30 10301 C 949.89 -1.28607 1.88267 0
M  V30 10302 C 950.874 -1.42606 0.745139 0
M  V30 10303 O 952.066 -1.45533 1.00743 0
M  V30 10304 C 949.195 -2.63783 2.19712 0
M  V30 10305 C 948.281 -2.53712 3.3984 0
M  V30 10306 N 948.672 -2.13287 4.58631 0
M  V30 10307 C 946.97 -2.84686 3.43322 0
M  V30 10308 C 947.671 -2.14305 5.40785 0
M  V30 10309 N 946.647 -2.54536 4.80325 0
M  V30 10310 H 950.449 -0.964307 2.7763 0
M  V30 10311 H 947.963 -0.436769 1.56416 0
M  V30 10312 H 949.96 -3.40152 2.41044 0
M  V30 10313 H 948.62 -2.9681 1.31657 0
M  V30 10314 H 949.631 -1.84525 4.83912 0
M  V30 10315 H 946.308 -3.22129 2.65592 0
M  V30 10316 H 947.698 -1.85231 6.45863 0
M  V30 10317 N 950.418 -1.49637 -0.494624 0
M  V30 10318 C 951.35 -1.62902 -1.61231 0
M  V30 10319 C 952.363 -0.511425 -1.54558 0
M  V30 10320 O 953.552 -0.783724 -1.60375 0
M  V30 10321 C 950.652 -1.57564 -3.00045 0
M  V30 10322 C 949.825 -2.84964 -3.31835 0
M  V30 10323 C 948.884 -2.72591 -4.5009 0
M  V30 10324 O 947.91 -3.46532 -4.51558 0
M  V30 10325 N 949.112 -1.84563 -5.50379 0
M  V30 10326 H 951.877 -2.59301 -1.50276 0
M  V30 10327 H 949.438 -1.46806 -0.68262 0
M  V30 10328 H 951.43 -1.46932 -3.77085 0
M  V30 10329 H 950 -0.689974 -3.0489 0
M  V30 10330 H 949.22 -3.099 -2.4363 0
M  V30 10331 H 950.508 -3.69412 -3.49875 0
M  V30 10332 H 949.906 -1.23758 -5.51997 0
M  V30 10333 H 948.463 -1.79849 -6.26496 0
M  V30 10334 N 951.896 0.746133 -1.38819 0
M  V30 10335 C 953.312 1.0502 -1.20179 0
M  V30 10336 C 953.512 2.01423 -0.0556271 0
M  V30 10337 O 952.568 2.45359 0.59625 0
M  V30 10338 C 953.881 1.62315 -2.53129 0
M  V30 10339 C 955.429 1.74449 -2.59878 0
M  V30 10340 C 955.904 2.35155 -3.93022 0
M  V30 10341 N 957.395 2.42577 -3.94602 0
M  V30 10342 C 958.13 2.9046 -4.94389 0
M  V30 10343 N 957.626 3.38322 -6.04574 0
M  V30 10344 N 959.419 2.89568 -4.81775 0
M  V30 10345 H 951.57 0.106551 -2.12133 0
M  V30 10346 H 953.833 0.109897 -0.941609 0
M  V30 10347 H 953.539 0.98946 -3.37495 0
M  V30 10348 H 953.413 2.61276 -2.72057 0
M  V30 10349 H 955.8 2.36943 -1.75903 0
M  V30 10350 H 955.881 0.741721 -2.4481 0
M  V30 10351 H 955.525 1.73292 -4.77422 0
M  V30 10352 H 955.455 3.36088 -4.05404 0
M  V30 10353 H 957.946 2.08735 -3.15021 0
M  V30 10354 H 958.259 3.73336 -6.76639 0
M  V30 10355 H 956.604 3.3636 -6.08184 0
M  V30 10356 H 959.795 2.51492 -3.94803 0
M  V30 10357 H 959.968 3.26571 -5.59692 0
M  V30 10358 N 953.375 1.23811 0.975125 0
M  V30 10359 C 954.338 1.02505 2.05001 0
M  V30 10360 C 955.338 -0.0150084 1.60793 0
M  V30 10361 O 956.528 0.225246 1.72738 0
M  V30 10362 C 953.66 0.552087 3.364 0
M  V30 10363 H 954.853 1.979 2.25335 0
M  V30 10364 H 952.406 1.05929 1.1493 0
M  V30 10365 H 953.141 -0.405394 3.21756 0
M  V30 10366 H 952.926 1.30267 3.69828 0
M  V30 10367 H 954.416 0.423828 4.15444 0
M  V30 10368 N 954.853 -1.17469 1.05066 0
M  V30 10369 C 956.269 -1.39699 0.771769 0
M  V30 10370 C 956.469 -1.91253 -0.634382 0
M  V30 10371 O 955.525 -2.10334 -1.39699 0
M  V30 10372 C 956.838 -2.38886 1.82631 0
M  V30 10373 C 958.386 -2.52595 1.84838 0
M  V30 10374 C 958.861 -3.55054 2.89311 0
M  V30 10375 N 960.352 -3.6257 2.88266 0
M  V30 10376 C 961.087 -4.41603 3.65752 0
M  V30 10377 N 960.583 -5.24162 4.53019 0
M  V30 10378 N 962.376 -4.36464 3.54197 0
M  V30 10379 H 954.527 -0.823355 1.95792 0
M  V30 10380 H 956.79 -0.42432 0.847736 0
M  V30 10381 H 956.496 -2.08075 2.83545 0
M  V30 10382 H 956.37 -3.38371 1.66687 0
M  V30 10383 H 958.757 -2.82717 0.845888 0
M  V30 10384 H 958.838 -1.53188 2.04859 0
M  V30 10385 H 958.482 -3.2567 3.89745 0
M  V30 10386 H 958.412 -4.54162 2.66542 0
M  V30 10387 H 960.903 -3.03625 2.24989 0
M  V30 10388 H 961.216 -5.81646 5.0883 0
M  V30 10389 H 959.561 -5.23547 4.57081 0
M  V30 10390 H 962.752 -3.7102 2.85416 0
M  V30 10391 H 962.925 -4.97814 4.14832 0
M  V30 10392 N 956.331 -0.831506 -1.3388 0
M  V30 10393 C 957.579 -0.422837 -1.97627 0
M  V30 10394 C 957.9 1.01961 -1.6622 0
M  V30 10395 O 957.17 1.70916 -0.957323 0
M  V30 10396 H 955.75 -0.153365 -0.731087 0
M  V30 10397 H 958.412 -1.06284 -1.6337 0
M  V30 10398 H 957.508 -0.548858 -3.07236 0
M  V30 10399 N 957.809 1.4625 -0.587256 0
M  V30 10400 C 959.22 1.85997 -0.161918 0
M  V30 10401 C 959.571 1.49025 1.27616 0
M  V30 10402 O 958.696 0.907282 1.96462 0
M  V30 10403 C 959.291 3.37582 -0.287077 0
M  V30 10404 C 957.85 3.76308 0.0834211 0
M  V30 10405 C 956.997 2.70259 -0.620932 0
M  V30 10406 H 959.948 1.3734 -0.795199 0
M  V30 10407 H 959.969 3.77379 0.486333 0
M  V30 10408 H 959.481 3.64459 -1.33383 0
M  V30 10409 H 957.582 3.55047 1.13013 0
M  V30 10410 H 957.695 4.78184 -0.296064 0
M  V30 10411 H 956.059 2.54628 -0.0607027 0
M  V30 10412 H 956.842 2.99975 -1.66942 0
M  V30 10413 N 959.287 0.325282 1.54207 0
M  V30 10414 C 960.698 -0.162426 1.85992 0
M  V30 10415 C 961.049 -1.51482 1.2469 0
M  V30 10416 O 960.174 -2.092 0.553578 0
M  V30 10417 C 960.769 -0.3015 3.37456 0
M  V30 10418 C 959.328 -0.73343 3.69185 0
M  V30 10419 C 958.475 0.143831 2.76927 0
M  V30 10420 H 961.426 0.545508 1.4903 0
M  V30 10421 H 961.447 -1.13212 3.63268 0
M  V30 10422 H 960.959 0.682942 3.82044 0
M  V30 10423 H 959.06 -1.72755 3.30131 0
M  V30 10424 H 959.173 -0.535987 4.76092 0
M  V30 10425 H 957.537 -0.380892 2.51836 0
M  V30 10426 H 958.32 1.12507 3.24341 0
M  V30 10427 N 960.765 -1.57509 0.0534917 0
M  V30 10428 C 962.012 -1.92782 -0.619772 0
M  V30 10429 C 962.34 -0.932046 -1.70714 0
M  V30 10430 O 961.595 0.0552891 -1.95622 0
M  V30 10431 C 961.894 -3.34734 -1.25251 0
M  V30 10432 C 961.56 -4.49946 -0.293113 0
M  V30 10433 C 960.222 -4.81191 -0.0291223 0
M  V30 10434 C 962.574 -5.19925 0.364271 0
M  V30 10435 C 959.902 -5.79761 0.899649 0
M  V30 10436 C 962.254 -6.19489 1.28125 0
M  V30 10437 C 960.918 -6.49161 1.55389 0
M  V30 10438 H 960.188 -0.705441 -0.226791 0
M  V30 10439 H 962.835 -1.91121 0.120466 0
M  V30 10440 H 961.14 -3.32774 -2.06807 0
M  V30 10441 H 962.837 -3.59308 -1.78042 0
M  V30 10442 H 959.427 -4.25566 -0.509053 0
M  V30 10443 H 963.611 -4.95997 0.173411 0
M  V30 10444 H 958.867 -6.01085 1.11833 0
M  V30 10445 H 963.041 -6.72824 1.79669 0
M  V30 10446 H 960.668 -7.25354 2.2752 0
M  V30 10447 N 962.243 0.219913 -1.56058 0
M  V30 10448 C 963.173 1.27572 -1.9557 0
M  V30 10449 C 964.154 1.48801 -0.824148 0
M  V30 10450 O 965.339 1.60957 -1.08658 0
M  V30 10451 C 962.469 2.62517 -2.27381 0
M  V30 10452 C 961.423 2.55941 -3.43042 0
M  V30 10453 C 960.749 3.94931 -3.60463 0
M  V30 10454 C 962.049 2.10584 -4.77966 0
M  V30 10455 H 963.743 0.947482 -2.84013 0
M  V30 10456 H 961.289 0.454337 -1.36645 0
M  V30 10457 H 963.242 3.36538 -2.53615 0
M  V30 10458 H 961.966 2.97031 -1.35794 0
M  V30 10459 H 960.625 1.84377 -3.1686 0
M  V30 10460 H 960.273 4.26756 -2.66249 0
M  V30 10461 H 959.973 3.91413 -4.38258 0
M  V30 10462 H 961.497 4.70611 -3.89046 0
M  V30 10463 H 962.911 2.74349 -5.03394 0
M  V30 10464 H 961.308 2.18122 -5.59055 0
M  V30 10465 H 962.378 1.05818 -4.73213 0
M  V30 10466 N 963.721 1.49897 0.486681 0
M  V30 10467 C 964.949 1.63837 1.26353 0
M  V30 10468 C 965.364 0.315428 1.86146 0
M  V30 10469 O 964.721 -0.700831 1.68507 0
M  V30 10470 C 964.772 2.71792 2.38351 0
M  V30 10471 O 964.493 3.98956 1.81013 0
M  V30 10472 C 965.994 2.96566 3.2949 0
M  V30 10473 H 963.214 0.551158 0.382709 0
M  V30 10474 H 965.758 1.96023 0.582694 0
M  V30 10475 H 963.913 2.42344 3.02238 0
M  V30 10476 H 964.327 4.58536 2.54647 0
M  V30 10477 H 965.801 3.75803 4.04322 0
M  V30 10478 H 966.278 2.07031 3.87343 0
M  V30 10479 H 966.884 3.27485 2.71355 0
M  V30 10480 N 965.199 -0.738761 1.39212 0
M  V30 10481 C 966.129 -1.86602 1.40364 0
M  V30 10482 C 967.11 -1.67984 0.267495 0
M  V30 10483 O 968.295 -1.88358 0.472765 0
M  V30 10484 C 965.425 -3.24308 1.24265 0
M  V30 10485 C 964.379 -3.57557 2.35239 0
M  V30 10486 C 963.705 -4.94159 2.04233 0
M  V30 10487 C 965.005 -3.60914 3.77543 0
M  V30 10488 H 966.699 -1.85896 2.34698 0
M  V30 10489 H 964.245 -0.892959 1.1297 0
M  V30 10490 H 966.198 -4.02838 1.23692 0
M  V30 10491 H 964.922 -3.25531 0.263974 0
M  V30 10492 H 963.581 -2.81354 2.35022 0
M  V30 10493 H 963.229 -4.91959 1.04813 0
M  V30 10494 H 962.929 -5.17373 2.78567 0
M  V30 10495 H 964.453 -5.7505 2.05303 0
M  V30 10496 H 965.867 -4.29528 3.79709 0
M  V30 10497 H 964.264 -3.95644 4.51205 0
M  V30 10498 H 965.334 -2.60803 4.08791 0
M  V30 10499 N 966.677 -1.24326 -0.968545 0
M  V30 10500 C 967.902 -1.1104 -1.75171 0
M  V30 10501 C 968.327 0.333109 -1.85127 0
M  V30 10502 O 967.685 1.24115 -1.32156 0
M  V30 10503 C 967.733 -1.75397 -3.15068 0
M  V30 10504 O 966.837 -1.02417 -3.9948 0
M  V30 10505 H 966.178 -0.388488 -0.538491 0
M  V30 10506 H 968.708 -1.64617 -1.215 0
M  V30 10507 H 968.718 -1.8112 -3.65595 0
M  V30 10508 H 967.393 -2.80427 -3.07138 0
M  V30 10509 H 965.97 -1.04475 -3.57966 0
M  V30 10510 N 968.156 1.1691 -1.05688 0
M  V30 10511 C 969.572 1.39288 -0.779167 0
M  V30 10512 C 969.772 1.91587 0.624231 0
M  V30 10513 O 968.828 2.11072 1.38582 0
M  V30 10514 C 970.141 2.37914 -1.83895 0
M  V30 10515 C 971.689 2.51611 -1.86175 0
M  V30 10516 C 972.164 3.53514 -2.9119 0
M  V30 10517 N 973.655 3.61036 -2.90184 0
M  V30 10518 C 974.39 4.39657 -3.68088 0
M  V30 10519 N 973.886 5.21752 -4.55793 0
M  V30 10520 N 975.679 4.3458 -3.56507 0
M  V30 10521 H 967.83 0.81296 -1.96226 0
M  V30 10522 H 970.093 0.419818 -0.849975 0
M  V30 10523 H 969.799 2.06568 -2.84645 0
M  V30 10524 H 969.673 3.37483 -1.68479 0
M  V30 10525 H 972.06 2.82264 -0.86087 0
M  V30 10526 H 972.141 1.52099 -2.05668 0
M  V30 10527 H 971.785 3.23599 -3.91467 0
M  V30 10528 H 971.715 4.52742 -2.68947 0
M  V30 10529 H 974.206 3.02428 -2.26596 0
M  V30 10530 H 974.519 5.78939 -5.11907 0
M  V30 10531 H 972.864 5.21116 -4.59851 0
M  V30 10532 H 976.055 3.69501 -2.87379 0
M  V30 10533 H 976.228 4.95607 -4.17466 0
M  V30 10534 N 969.634 0.838594 1.33437 0
M  V30 10535 C 970.544 0.274048 2.32994 0
M  V30 10536 C 971.56 -0.599776 1.63336 0
M  V30 10537 O 972.736 -0.503963 1.94993 0
M  V30 10538 C 969.801 -0.541804 3.4244 0
M  V30 10539 C 968.862 0.356262 4.27819 0
M  V30 10540 C 968.095 -0.420747 5.32039 0
M  V30 10541 O 968.318 -1.65247 5.45939 0
M  V30 10542 O 967.252 0.205101 6.0155 0
M  V30 10543 H 971.078 1.09846 2.83139 0
M  V30 10544 H 968.663 0.601111 1.36774 0
M  V30 10545 H 970.545 -1.00544 4.0923 0
M  V30 10546 H 969.22 -1.34328 2.94513 0
M  V30 10547 H 968.127 0.867726 3.63897 0
M  V30 10548 H 969.46 1.1225 4.79229 0
M  V30 10549 N 971.112 -1.45937 0.595003 0
M  V30 10550 C 972.059 -2.30427 -0.131165 0
M  V30 10551 C 973.029 -1.41355 -0.872232 0
M  V30 10552 O 974.214 -1.70296 -0.860467 0
M  V30 10553 C 971.354 -3.26045 -1.13087 0
M  V30 10554 C 970.467 -4.30218 -0.391982 0
M  V30 10555 C 969.602 -5.12953 -1.3803 0
M  V30 10556 C 968.641 -6.08865 -0.628505 0
M  V30 10557 N 967.778 -6.84425 -1.56548 0
M  V30 10558 H 972.618 -2.91992 0.595359 0
M  V30 10559 H 970.155 -1.43895 0.305405 0
M  V30 10560 H 972.113 -3.79937 -1.72348 0
M  V30 10561 H 970.743 -2.66261 -1.82496 0
M  V30 10562 H 969.795 -3.79086 0.315895 0
M  V30 10563 H 971.107 -4.98418 0.195173 0
M  V30 10564 H 970.261 -5.71184 -2.04534 0
M  V30 10565 H 969 -4.44743 -2.00138 0
M  V30 10566 H 968.005 -5.49777 0.0502431 0
M  V30 10567 H 969.23 -6.79099 -0.012641 0
M  V30 10568 H 967.176 -6.18913 -2.17444 0
M  V30 10569 H 967.093 -7.48931 -1.03145 0
M  V30 10570 H 968.361 -7.47204 -2.22049 0
M  V30 10571 N 972.59 -0.333456 -1.54032 0
M  V30 10572 C 973.838 0.265608 -2.00347 0
M  V30 10573 C 974.159 1.51873 -1.2231 0
M  V30 10574 O 973.429 1.93142 -0.327549 0
M  V30 10575 H 972.009 0.101135 -0.740122 0
M  V30 10576 H 974.671 -0.452285 -1.8958 0
M  V30 10577 H 973.767 0.51511 -3.0782 0
M  V30 10578 N 974.068 1.57479 -0.061844 0
M  V30 10579 C 975.479 1.80627 0.472295 0
M  V30 10580 C 975.83 0.97496 1.70261 0
M  V30 10581 O 974.955 0.1946 2.15523 0
M  V30 10582 C 975.55 3.27608 0.863616 0
M  V30 10583 C 974.109 3.51638 1.34267 0
M  V30 10584 C 973.256 2.75412 0.323009 0
M  V30 10585 H 976.207 1.56072 -0.287634 0
M  V30 10586 H 976.228 3.39113 1.72577 0
M  V30 10587 H 975.74 3.88087 -0.0320226 0
M  V30 10588 H 973.841 2.96452 2.25714 0
M  V30 10589 H 973.954 4.60342 1.32747 0
M  V30 10590 H 972.318 2.4187 0.798175 0
M  V30 10591 H 973.101 3.38623 -0.564729 0
M  V30 10592 N 975.546 -0.211634 1.56173 0
M  V30 10593 C 976.509 -1.24588 1.92381 0
M  V30 10594 C 977.509 -1.39297 0.803311 0
M  V30 10595 O 978.699 -1.37392 1.07094 0
M  V30 10596 C 975.831 -2.61807 2.18335 0
M  V30 10597 H 977.024 -0.936814 2.84893 0
M  V30 10598 H 974.577 -0.452471 1.49607 0
M  V30 10599 H 975.312 -2.97795 1.28407 0
M  V30 10600 H 975.097 -2.52506 2.99972 0
M  V30 10601 H 976.587 -3.3642 2.4741 0
M  V30 10602 N 977.024 -1.50153 -0.478725 0
M  V30 10603 C 977.987 -1.67916 -1.56003 0
M  V30 10604 C 978.987 -0.550111 -1.51097 0
M  V30 10605 O 980.177 -0.817001 -1.53853 0
M  V30 10606 C 977.309 -1.6973 -2.95643 0
M  V30 10607 H 978.502 -2.6438 -1.41573 0
M  V30 10608 H 976.055 -1.39519 -0.704565 0
M  V30 10609 H 976.79 -0.749306 -3.15525 0
M  V30 10610 H 976.575 -2.51745 -3.00611 0
M  V30 10611 H 978.065 -1.85453 -3.74162 0
M  V30 10612 N 978.502 0.731368 -1.39602 0
M  V30 10613 C 979.918 1.03739 -1.21286 0
M  V30 10614 C 980.118 2.01353 -0.0769875 0
M  V30 10615 O 979.174 2.45978 0.570193 0
M  V30 10616 C 980.487 1.59621 -2.54837 0
M  V30 10617 C 982.035 1.71683 -2.61713 0
M  V30 10618 C 982.51 2.30973 -3.95494 0
M  V30 10619 N 984.001 2.38378 -3.97153 0
M  V30 10620 C 984.736 2.852 -4.97442 0
M  V30 10621 N 984.232 3.31891 -6.08129 0
M  V30 10622 N 986.025 2.84441 -4.84819 0
M  V30 10623 H 978.176 0.0840456 -2.12234 0
M  V30 10624 H 980.439 0.0999038 -0.942721 0
M  V30 10625 H 980.145 0.953608 -3.38525 0
M  V30 10626 H 980.019 2.58375 -2.74813 0
M  V30 10627 H 982.406 2.35064 -1.78406 0
M  V30 10628 H 982.487 0.715714 -2.45583 0
M  V30 10629 H 982.131 1.68219 -4.79234 0
M  V30 10630 H 982.061 3.31769 -4.08946 0
M  V30 10631 H 984.552 2.05382 -3.17217 0
M  V30 10632 H 984.865 3.66138 -6.8056 0
M  V30 10633 H 983.21 3.2989 -6.11717 0
M  V30 10634 H 986.401 2.4729 -3.97448 0
M  V30 10635 H 986.574 3.20616 -5.63124 0
M  V30 10636 N 979.98 1.24838 0.961938 0
M  V30 10637 C 981.257 0.99939 1.68141 0
M  V30 10638 C 981.637 -0.476588 2.0565 0
M  V30 10639 O 980.985 -1.45224 1.76415 0
M  V30 10640 C 981.195 1.92797 2.90913 0
M  V30 10641 C 982.543 2.20219 3.63027 0
M  V30 10642 O 983.567 1.90496 3.00981 0
M  V30 10643 O 982.426 2.70725 4.74731 0
M  V30 10644 H 979.52 0.37842 0.735342 0
M  V30 10645 H 982.066 1.35961 1.01551 0
M  V30 10646 H 980.838 2.92492 2.59931 0
M  V30 10647 H 980.461 1.57127 3.65235 0
M  V30 10648 N 981.458 -1.16348 1.06306 0
M  V30 10649 C 982.706 -1.86512 0.778311 0
M  V30 10650 C 983.027 -1.82107 -0.697273 0
M  V30 10651 O 982.297 -1.2547 -1.50446 0
M  V30 10652 H 980.877 -0.690529 0.284919 0
M  V30 10653 H 983.539 -1.41092 1.34458 0
M  V30 10654 H 982.635 -2.91947 1.10333 0
M  V30 10655 N 982.937 -0.845659 -1.3299 0
M  V30 10656 C 984.165 -0.45835 -2.01759 0
M  V30 10657 C 984.58 0.94239 -1.63598 0
M  V30 10658 O 983.937 1.61353 -0.852738 0
M  V30 10659 C 983.988 -0.577311 -3.5686 0
M  V30 10660 O 983.709 -1.92287 -3.93646 0
M  V30 10661 C 985.21 -0.187839 -4.42902 0
M  V30 10662 H 982.43 -0.181165 -0.646081 0
M  V30 10663 H 984.974 -1.14011 -1.6977 0
M  V30 10664 H 983.129 0.0566146 -3.87359 0
M  V30 10665 H 983.543 -1.91322 -4.88361 0
M  V30 10666 H 985.017 -0.322105 -5.51059 0
M  V30 10667 H 985.494 0.870896 -4.30479 0
M  V30 10668 H 986.1 -0.796473 -4.17776 0
M  V30 10669 N 984.415 1.45619 -0.602734 0
M  V30 10670 C 985.345 2.33258 0.106342 0
M  V30 10671 C 986.326 1.46543 0.863664 0
M  V30 10672 O 987.511 1.75324 0.835175 0
M  V30 10673 C 984.641 3.29168 1.10751 0
M  V30 10674 C 983.595 4.25481 0.463717 0
M  V30 10675 C 982.921 5.11046 1.57278 0
M  V30 10676 C 984.221 5.18702 -0.61199 0
M  V30 10677 H 985.915 2.92795 -0.625423 0
M  V30 10678 H 983.461 1.40793 -0.302213 0
M  V30 10679 H 985.414 3.89346 1.61208 0
M  V30 10680 H 984.138 2.6778 1.8698 0
M  V30 10681 H 982.797 3.66595 -0.0199496 0
M  V30 10682 H 982.445 4.46029 2.32524 0
M  V30 10683 H 982.145 5.76286 1.14755 0
M  V30 10684 H 983.669 5.74091 2.07972 0
M  V30 10685 H 985.083 5.72979 -0.191686 0
M  V30 10686 H 983.48 5.92393 -0.958686 0
M  V30 10687 H 984.55 4.61424 -1.4905 0
M  V30 10688 N 985.893 0.34162 1.53853 0
M  V30 10689 C 986.803 -0.524555 2.2866 0
M  V30 10690 C 987.819 -1.1136 1.33697 0
M  V30 10691 O 988.995 -1.1297 1.66732 0
M  V30 10692 C 986.06 -1.66065 3.04341 0
M  V30 10693 C 985.121 -1.10158 4.14926 0
M  V30 10694 C 984.354 -2.18353 4.86988 0
M  V30 10695 O 984.577 -3.39038 4.58704 0
M  V30 10696 O 983.511 -1.82756 5.73484 0
M  V30 10697 H 987.337 0.0835014 3.03585 0
M  V30 10698 H 984.922 0.106727 1.49018 0
M  V30 10699 H 986.804 -2.3217 3.51674 0
M  V30 10700 H 985.479 -2.25456 2.32275 0
M  V30 10701 H 984.386 -0.405109 3.719 0
M  V30 10702 H 985.719 -0.552567 4.89088 0
M  V30 10703 N 987.371 -1.57444 0.0701946 0
M  V30 10704 C 988.601 -1.97467 -0.607476 0
M  V30 10705 C 989.009 -0.947232 -1.63781 0
M  V30 10706 O 988.352 0.074652 -1.83548 0
M  V30 10707 C 988.414 -3.33795 -1.33495 0
M  V30 10708 C 988.078 -4.54697 -0.458265 0
M  V30 10709 C 989.075 -5.19127 0.283488 0
M  V30 10710 C 986.76 -5.00833 -0.383612 0
M  V30 10711 C 988.754 -6.28043 1.08813 0
M  V30 10712 C 986.441 -6.09622 0.424705 0
M  V30 10713 C 987.439 -6.7309 1.15925 0
M  V30 10714 O 987.127 -7.79785 1.95423 0
M  V30 10715 H 986.859 -0.654405 -0.169501 0
M  V30 10716 H 989.413 -2.04931 0.138651 0
M  V30 10717 H 987.643 -3.22941 -2.12711 0
M  V30 10718 H 989.332 -3.58435 -1.9047 0
M  V30 10719 H 990.098 -4.84428 0.235397 0
M  V30 10720 H 985.977 -4.51211 -0.944968 0
M  V30 10721 H 989.521 -6.77513 1.66197 0
M  V30 10722 H 985.418 -6.43755 0.474366 0
M  V30 10723 H 986.186 -7.96655 1.87838 0
M  V30 10724 N 988.849 0.203349 -1.56283 0
M  V30 10725 C 989.812 1.23566 -1.93039 0
M  V30 10726 C 990.812 1.38869 -0.810687 0
M  V30 10727 O 992.002 1.36822 -1.07821 0
M  V30 10728 C 989.134 2.60645 -2.1972 0
M  V30 10729 H 990.327 0.921692 -2.85385 0
M  V30 10730 H 987.88 0.44453 -1.49845 0
M  V30 10731 H 988.615 2.9711 -1.29985 0
M  V30 10732 H 988.4 2.50911 -3.01307 0
M  V30 10733 H 989.89 3.35103 -2.4919 0
M  V30 10734 N 990.327 1.50405 0.470755 0
M  V30 10735 C 991.738 1.54266 1.05162 0
M  V30 10736 C 992.089 0.346359 1.93119 0
M  V30 10737 O 991.214 -0.540699 2.09536 0
M  V30 10738 C 991.809 2.7956 1.91394 0
M  V30 10739 C 990.368 2.86101 2.44588 0
M  V30 10740 C 989.515 2.48557 1.22941 0
M  V30 10741 H 992.466 1.56665 0.253359 0
M  V30 10742 H 992.487 2.61434 2.76464 0
M  V30 10743 H 991.999 3.66611 1.27351 0
M  V30 10744 H 990.1 2.03403 3.12183 0
M  V30 10745 H 990.213 3.88999 2.79672 0
M  V30 10746 H 988.577 2.01003 1.56429 0
M  V30 10747 H 989.36 3.37916 0.605598 0
M  V30 10748 N 991.805 -0.723954 1.39988 0
M  V30 10749 C 993.051 -1.48591 1.38017 0
M  V30 10750 C 993.384 -1.94189 -0.0203522 0
M  V30 10751 O 992.659 -1.67572 -0.987422 0
M  V30 10752 C 992.942 -2.71786 2.36229 0
M  V30 10753 C 992.795 -2.32136 3.8527 0
M  V30 10754 C 994.114 -3.73921 2.32102 0
M  V30 10755 H 991.233 -0.538993 0.502648 0
M  V30 10756 H 993.875 -0.826908 1.71062 0
M  V30 10757 H 992.025 -3.28015 2.0818 0
M  V30 10758 H 993.697 -1.81454 4.24113 0
M  V30 10759 H 991.94 -1.64234 4.01509 0
M  V30 10760 H 992.611 -3.20406 4.49493 0
M  V30 10761 H 995.087 -3.27303 2.56928 0
M  V30 10762 H 993.963 -4.5777 3.02882 0
M  V30 10763 H 994.224 -4.21627 1.32979 0
M  V30 10764 N 993.283 -1.25346 -0.955304 0
M  V30 10765 C 994.56 -1.00829 -1.67609 0
M  V30 10766 C 994.94 0.465675 -2.059 0
M  V30 10767 O 994.288 1.44287 -1.77182 0
M  V30 10768 C 994.498 -1.94337 -2.89886 0
M  V30 10769 C 995.846 -2.22142 -3.61854 0
M  V30 10770 O 996.87 -1.9209 -2.99967 0
M  V30 10771 O 995.729 -2.73239 -4.73289 0
M  V30 10772 H 992.823 -0.382314 -0.733325 0
M  V30 10773 H 995.369 -1.36498 -1.00829 0
M  V30 10774 H 994.141 -2.93867 -2.58376 0
M  V30 10775 H 993.764 -1.59062 -3.64397 0
M  V30 10776 N 994.761 1.15782 -1.06922 0
M  V30 10777 C 996.01 1.85807 -0.784774 0
M  V30 10778 C 996.323 1.82967 0.691551 0
M  V30 10779 O 997.529 2.48632 1.0906 0
M  V30 10780 C 995.985 3.33469 -1.35375 0
M  V30 10781 C 995.593 3.44766 -2.86077 0
M  V30 10782 C 997.337 4.08707 -1.14713 0
M  V30 10783 C 995.244 4.86551 -3.36187 0
M  V30 10784 H 994.174 0.696046 -0.28989 0
M  V30 10785 H 996.825 1.30629 -1.28873 0
M  V30 10786 H 995.207 3.88292 -0.77754 0
M  V30 10787 H 996.381 3.00073 -3.49704 0
M  V30 10788 H 994.696 2.82969 -3.05479 0
M  V30 10789 H 997.293 5.13336 -1.49633 0
M  V30 10790 H 997.636 4.16211 -0.0858868 0
M  V30 10791 H 998.169 3.60142 -1.68946 0
M  V30 10792 H 994.908 4.84229 -4.41818 0
M  V30 10793 H 994.428 5.31844 -2.77312 0
M  V30 10794 H 996.107 5.55392 -3.31887 0
M  V30 10795 N 996.239 0.8527 1.3254 0
M  V30 10796 C 997.467 0.469044 2.01513 0
M  V30 10797 C 997.882 -0.933701 1.64096 0
M  V30 10798 O 997.239 -1.60898 0.861283 0
M  V30 10799 C 997.29 0.596228 3.56549 0
M  V30 10800 O 997.011 1.94371 3.92621 0
M  V30 10801 C 998.512 0.211324 4.42796 0
M  V30 10802 H 995.732 0.184589 0.645111 0
M  V30 10803 H 998.276 1.1491 1.69163 0
M  V30 10804 H 996.431 -0.0360712 3.87383 0
M  V30 10805 H 996.845 1.93909 4.87339 0
M  V30 10806 H 998.319 0.351324 5.50881 0
M  V30 10807 H 998.796 -0.848055 4.30935 0
M  V30 10808 H 999.402 0.818617 4.17347 0
M  V30 10809 N 997.718 -1.45297 0.610449 0
M  V30 10810 C 998.964 -2.02518 0.106917 0
M  V30 10811 C 999.297 -1.47747 -1.26034 0
M  V30 10812 O 998.572 -0.65329 -1.832 0
M  V30 10813 C 998.855 -3.6003 0.0710975 0
M  V30 10814 C 998.708 -4.25128 1.46922 0
M  V30 10815 C 1000.03 -4.35778 -0.61524 0
M  V30 10816 H 997.146 -0.735896 0.040327 0
M  V30 10817 H 999.788 -1.73117 0.782968 0
M  V30 10818 H 997.938 -3.85209 -0.504611 0
M  V30 10819 H 999.61 -4.11125 2.09223 0
M  V30 10820 H 997.853 -3.83418 2.02911 0
M  V30 10821 H 998.524 -5.34046 1.39637 0
M  V30 10822 H 1001 -4.1591 -0.125871 0
M  V30 10823 H 999.876 -5.45506 -0.609419 0
M  V30 10824 H 1000.14 -4.08859 -1.68186 0
M  V30 10825 N 999.196 -0.349774 -1.5367 0
M  V30 10826 C 1000.14 0.519396 -2.26727 0
M  V30 10827 C 1001.14 1.09673 -1.29105 0
M  V30 10828 O 1002.34 1.04176 -1.46791 0
M  V30 10829 H 998.719 0.186192 -0.728585 0
M  V30 10830 H 1000.69 -0.118736 -2.98164 0
M  V30 10831 C 999.439 1.65535 -3.05767 0
M  V30 10832 H 998.762 1.22038 -3.80719 0
M  V30 10833 H 1000.2 2.23856 -3.6009 0
M  V30 10834 C 998.661 2.58844 -2.15642 0
M  V30 10835 O 999.191 3.61254 -1.75665 0
M  V30 10836 N 997.397 2.27671 -1.80595 0
M  V30 10837 H 996.944 1.44429 -2.13302 0
M  V30 10838 H 996.902 2.90359 -1.20577 0
M  V30 10839 N 1000.67 1.57404 -0.0785433 0
M  V30 10840 C 1001.6 2.16131 0.883726 0
M  V30 10841 C 1002.58 1.09015 1.30575 0
M  V30 10842 O 1003.77 1.3708 1.37559 0
M  V30 10843 C 1000.9 2.72836 2.1489 0
M  V30 10844 C 999.854 3.85178 1.86605 0
M  V30 10845 C 999.18 4.28516 3.1981 0
M  V30 10846 C 1000.48 5.09118 1.16601 0
M  V30 10847 H 1002.17 2.9679 0.394484 0
M  V30 10848 H 999.72 1.42763 0.188304 0
M  V30 10849 H 1001.67 3.12567 2.8263 0
M  V30 10850 H 1000.4 1.89408 2.66068 0
M  V30 10851 H 999.056 3.45962 1.21268 0
M  V30 10852 H 998.704 3.42 3.68843 0
M  V30 10853 H 998.404 5.04249 3.01674 0
M  V30 10854 H 999.928 4.70868 3.88737 0
M  V30 10855 H 1001.34 5.46123 1.74422 0
M  V30 10856 H 999.739 5.90173 1.087 0
M  V30 10857 H 1000.81 4.8468 0.146138 0
M  V30 10858 N 1002.15 -0.195058 1.56388 0
M  V30 10859 C 1003.43 -0.941335 1.71459 0
M  V30 10860 C 1003.81 -2.01375 0.633336 0
M  V30 10861 O 1003.16 -2.25715 -0.35567 0
M  V30 10862 C 1003.37 -1.52772 3.13786 0
M  V30 10863 C 1004.71 -2.00983 3.7402 0
M  V30 10864 O 1005.74 -1.62614 3.16915 0
M  V30 10865 O 1004.6 -2.71586 4.7424 0
M  V30 10866 H 1001.69 -0.441451 0.699321 0
M  V30 10867 H 1004.24 -0.184752 1.68691 0
M  V30 10868 H 1003.01 -0.754699 3.83953 0
M  V30 10869 H 1002.63 -2.34914 3.20782 0
M  V30 10870 N 1003.63 -1.50653 -0.462772 0
M  V30 10871 C 1004.59 -1.69561 -1.54213 0
M  V30 10872 C 1005.59 -0.566106 -1.50505 0
M  V30 10873 O 1006.78 -0.833273 -1.52978 0
M  V30 10874 C 1003.91 -1.72856 -2.93826 0
M  V30 10875 H 1005.11 -2.65867 -1.38761 0
M  V30 10876 H 1002.66 -1.40259 -0.689728 0
M  V30 10877 H 1003.4 -0.78273 -3.14712 0
M  V30 10878 H 1003.18 -2.54919 -2.97924 0
M  V30 10879 H 1004.67 -1.89411 -3.72174 0
M  V30 10880 N 1005.11 0.71652 -1.4037 0
M  V30 10881 C 1006.33 1.51069 -1.42102 0
M  V30 10882 C 1006.76 1.88087 -0.0222387 0
M  V30 10883 O 1006.12 1.53204 0.969448 0
M  V30 10884 C 1006.16 2.76307 -2.31704 0
M  V30 10885 O 1005.27 3.72975 -1.75964 0
M  V30 10886 H 1004.61 0.455502 -0.483129 0
M  V30 10887 H 1007.14 0.882514 -1.84588 0
M  V30 10888 H 1007.15 3.24846 -2.46859 0
M  V30 10889 H 1005.82 2.48698 -3.3335 0
M  V30 10890 H 1004.4 3.31818 -1.70151 0
M  V30 10891 N 1006.59 1.25851 0.948643 0
M  V30 10892 C 1007.83 1.10735 1.69062 0
M  V30 10893 C 1008.16 -0.351257 1.9181 0
M  V30 10894 O 1007.43 -1.24867 1.50947 0
M  V30 10895 H 1006.01 0.406796 0.626519 0
M  V30 10896 H 1008.67 1.58066 1.14022 0
M  V30 10897 H 1007.76 1.62033 2.66743 0
M  V30 10898 N 1008.06 -1.15214 1.07534 0
M  V30 10899 C 1009.29 -1.90463 0.820883 0
M  V30 10900 C 1009.71 -1.77578 -0.620305 0
M  V30 10901 O 1009.07 -1.10976 -1.43366 0
M  V30 10902 C 1009.12 -3.38746 1.23627 0
M  V30 10903 O 1008.22 -4.1062 0.382715 0
M  V30 10904 H 1007.57 -0.59292 0.298901 0
M  V30 10905 H 1010.1 -1.45893 1.43445 0
M  V30 10906 H 1010.11 -3.89543 1.21327 0
M  V30 10907 H 1008.78 -3.47443 2.28596 0
M  V30 10908 H 1007.36 -3.69947 0.468374 0
M  V30 10909 N 1009.54 -0.859717 -1.32086 0
M  V30 10910 C 1010.47 -0.265258 -2.2766 0
M  V30 10911 C 1011.49 0.565889 -1.52648 0
M  V30 10912 O 1012.68 0.389554 -1.74197 0
M  V30 10913 C 1009.78 0.643397 -3.32737 0
M  V30 10914 C 1008.95 -0.153024 -4.37132 0
M  V30 10915 C 1008.01 0.682176 -5.21759 0
M  V30 10916 O 1007.03 0.113878 -5.69086 0
M  V30 10917 N 1008.24 1.99602 -5.45105 0
M  V30 10918 H 1011 -1.08653 -2.79311 0
M  V30 10919 H 1008.56 -0.720191 -1.45 0
M  V30 10920 H 1010.55 1.20759 -3.86263 0
M  V30 10921 H 1009.12 1.36535 -2.81206 0
M  V30 10922 H 1008.34 -0.898657 -3.8382 0
M  V30 10923 H 1009.63 -0.699877 -5.03963 0
M  V30 10924 H 1009.03 2.481 -5.08393 0
M  V30 10925 H 1007.59 2.50823 -6.01607 0
M  V30 10926 N 1011.02 1.44971 -0.618145 0
M  V30 10927 C 1012.26 2.04044 -0.120625 0
M  V30 10928 C 1012.62 1.47472 1.22947 0
M  V30 10929 O 1013.83 1.97965 1.81834 0
M  V30 10930 C 1012.1 3.57279 -0.0930863 0
M  V30 10931 S 1013.66 4.37468 0.341705 0
M  V30 10932 H 1010.47 0.708891 -0.0547272 0
M  V30 10933 H 1013.08 1.77535 -0.818621 0
M  V30 10934 H 1011.78 3.95961 -1.07903 0
M  V30 10935 H 1011.31 3.88378 0.62657 0
M  V30 10936 H 1013.33 4.70073 1.58888 0
M  V30 10937 N 1012.5 0.357919 1.53482 0
M  V30 10938 C 1013.75 -0.2337 2.00744 0
M  V30 10939 C 1014.07 -1.49908 1.2471 0
M  V30 10940 O 1013.34 -1.92597 0.358235 0
M  V30 10941 H 1011.92 -0.0893474 0.741637 0
M  V30 10942 H 1014.58 0.482388 1.88836 0
M  V30 10943 H 1013.68 -0.466073 3.086 0
M  V30 10944 N 1013.98 -1.5736 0.0868897 0
M  V30 10945 C 1014.91 -2.16596 -0.872252 0
M  V30 10946 C 1015.89 -1.09706 -1.29995 0
M  V30 10947 O 1017.07 -1.37808 -1.36831 0
M  V30 10948 C 1014.2 -2.73972 -2.1344 0
M  V30 10949 C 1013.16 -3.86163 -1.8456 0
M  V30 10950 C 1012.48 -4.30206 -3.17533 0
M  V30 10951 C 1013.78 -5.0973 -1.13899 0
M  V30 10952 H 1015.48 -2.96995 -0.378738 0
M  V30 10953 H 1013.02 -1.42861 -0.18073 0
M  V30 10954 H 1014.98 -3.14062 -2.80968 0
M  V30 10955 H 1013.7 -1.90817 -2.6506 0
M  V30 10956 H 1012.36 -3.466 -1.19432 0
M  V30 10957 H 1012.01 -3.43951 -3.67024 0
M  V30 10958 H 1011.71 -5.05841 -2.98996 0
M  V30 10959 H 1013.23 -4.72922 -3.86234 0
M  V30 10960 H 1014.64 -5.4704 -1.71523 0
M  V30 10961 H 1013.04 -5.90741 -1.05569 0
M  V30 10962 H 1014.11 -4.8475 -0.120432 0
M  V30 10963 N 1015.45 0.186762 -1.56489 0
M  V30 10964 C 1016.4 1.2357 -1.9161 0
M  V30 10965 C 1017.39 1.4058 -0.782686 0
M  V30 10966 O 1018.58 1.42811 -1.04566 0
M  V30 10967 C 1015.71 2.57865 -2.26628 0
M  V30 10968 C 1014.8 2.44613 -3.46447 0
M  V30 10969 N 1015.19 2.01052 -4.64125 0
M  V30 10970 C 1013.48 2.75483 -3.50749 0
M  V30 10971 C 1014.19 1.99891 -5.46277 0
M  V30 10972 N 1013.16 2.41711 -4.86905 0
M  V30 10973 H 1016.96 0.890359 -2.80089 0
M  V30 10974 H 1014.48 0.395144 -1.57519 0
M  V30 10975 H 1016.47 3.33642 -2.49977 0
M  V30 10976 H 1015.13 2.93215 -1.39481 0
M  V30 10977 H 1016.15 1.7163 -4.88634 0
M  V30 10978 H 1012.82 3.14974 -2.7404 0
M  V30 10979 H 1014.21 1.68042 -6.50547 0
M  V30 10980 N 1016.93 1.50896 0.454776 0
M  V30 10981 C 1018.16 1.66759 1.23313 0
M  V30 10982 C 1018.58 0.35722 1.84677 0
M  V30 10983 O 1017.94 -0.680771 1.68033 0
M  V30 10984 C 1017.99 2.77254 2.3057 0
M  V30 10985 O 1017.09 2.39642 3.35627 0
M  V30 10986 H 1016.43 0.556599 0.362068 0
M  V30 10987 H 1018.96 1.97365 0.539274 0
M  V30 10988 H 1018.97 3.0082 2.75629 0
M  V30 10989 H 1017.65 3.72349 1.85281 0
M  V30 10990 H 1016.23 2.26584 2.96165 0
M  V30 10991 N 1018.41 -0.709066 1.40748 0
M  V30 10992 C 1019.82 -1.28847 1.35112 0
M  V30 10993 C 1020.17 -1.9618 0.0277149 0
M  V30 10994 O 1019.3 -1.97955 -0.874233 0
M  V30 10995 C 1019.89 -2.34306 2.44716 0
M  V30 10996 C 1018.45 -2.87856 2.4252 0
M  V30 10997 C 1017.6 -1.61723 2.25257 0
M  V30 10998 H 1020.55 -0.504742 1.50459 0
M  V30 10999 H 1020.57 -3.15297 2.12998 0
M  V30 11000 H 1020.08 -1.85271 3.41022 0
M  V30 11001 H 1018.18 -3.41103 1.49931 0
M  V30 11002 H 1018.3 -3.39205 3.38344 0
M  V30 11003 H 1016.66 -1.87032 1.7289 0
M  V30 11004 H 1017.44 -1.14703 3.23571 0
M  V30 11005 N 1019.89 -1.26353 -0.941956 0
M  V30 11006 C 1020.82 -1.10341 -2.05784 0
M  V30 11007 C 1021.8 -0.00881565 -1.70098 0
M  V30 11008 O 1022.99 -0.180699 -1.93357 0
M  V30 11009 C 1020.12 -0.734788 -3.39438 0
M  V30 11010 C 1019.07 -1.78103 -3.89183 0
M  V30 11011 C 1018.4 -1.26675 -5.19478 0
M  V30 11012 C 1019.7 -3.1824 -4.14151 0
M  V30 11013 H 1021.39 -2.03684 -2.19438 0
M  V30 11014 H 1018.94 -0.980698 -1.05443 0
M  V30 11015 H 1020.89 -0.609653 -4.16967 0
M  V30 11016 H 1019.61 0.234354 -3.25758 0
M  V30 11017 H 1018.27 -1.89482 -3.13835 0
M  V30 11018 H 1017.92 -0.287472 -5.02178 0
M  V30 11019 H 1017.62 -1.96612 -5.53731 0
M  V30 11020 H 1019.14 -1.15427 -5.99591 0
M  V30 11021 H 1020.56 -3.09942 -4.82296 0
M  V30 11022 H 1018.95 -3.8576 -4.59684 0
M  V30 11023 H 1020.02 -3.64354 -3.19959 0
M  V30 11024 N 1021.37 1.14642 -1.08144 0
M  V30 11025 C 1022.3 2.19283 -0.6669 0
M  V30 11026 C 1023.31 1.60292 0.284668 0
M  V30 11027 O 1024.5 1.78352 0.0727383 0
M  V30 11028 C 1021.6 3.38877 0.0398572 0
M  V30 11029 C 1020.77 4.274 -0.929929 0
M  V30 11030 C 1019.83 5.25562 -0.258991 0
M  V30 11031 O 1018.86 5.61999 -0.902563 0
M  V30 11032 N 1020.06 5.71958 0.992177 0
M  V30 11033 H 1022.83 2.55464 -1.5671 0
M  V30 11034 H 1020.39 1.29836 -0.96717 0
M  V30 11035 H 1022.38 4.01605 0.499583 0
M  V30 11036 H 1020.95 3.01043 0.842118 0
M  V30 11037 H 1020.17 3.61649 -1.56857 0
M  V30 11038 H 1021.46 4.83411 -1.58717 0
M  V30 11039 H 1020.86 5.44481 1.53484 0
M  V30 11040 H 1019.41 6.36687 1.39544 0
M  V30 11041 N 1022.85 0.866709 1.31628 0
M  V30 11042 C 1024.07 0.48956 2.01539 0
M  V30 11043 C 1024.5 -0.909556 1.64647 0
M  V30 11044 O 1023.85 -1.59959 0.853391 0
M  V30 11045 C 1023.9 0.650176 3.5469 0
M  V30 11046 O 1023.01 -0.311908 4.11219 0
M  V30 11047 H 1022.35 0.195144 0.634677 0
M  V30 11048 H 1024.88 1.16923 1.679 0
M  V30 11049 H 1024.89 0.542236 4.04381 0
M  V30 11050 H 1023.56 1.67038 3.80882 0
M  V30 11051 H 1022.14 -0.159197 3.7256 0
M  V30 11052 N 1024.32 -1.44642 0.625825 0
M  V30 11053 C 1025.6 -1.9551 0.0593587 0
M  V30 11054 C 1025.98 -1.56792 -1.41349 0
M  V30 11055 O 1025.33 -0.839373 -2.12525 0
M  V30 11056 C 1025.54 -3.47902 0.276647 0
M  V30 11057 C 1026.89 -4.24271 0.167044 0
M  V30 11058 O 1027.91 -3.55594 0.207731 0
M  V30 11059 O 1026.77 -5.46458 0.0675 0
M  V30 11060 H 1023.86 -0.826612 -0.0253422 0
M  V30 11061 H 1026.41 -1.54718 0.697159 0
M  V30 11062 H 1025.18 -3.69115 1.29885 0
M  V30 11063 H 1024.8 -3.95628 -0.395547 0
M  V30 11064 N 1025.8 -0.366053 -1.5329 0
M  V30 11065 C 1026.75 0.495319 -2.27265 0
M  V30 11066 C 1027.74 1.08298 -1.30261 0
M  V30 11067 O 1028.95 1.02613 -1.47887 0
M  V30 11068 H 1025.32 0.178454 -0.730519 0
M  V30 11069 H 1027.3 -0.150354 -2.98021 0
M  V30 11070 C 1026.04 1.62283 -3.07505 0
M  V30 11071 H 1025.37 1.17993 -3.81992 0
M  V30 11072 H 1026.81 2.20024 -3.62444 0
M  V30 11073 C 1025.27 2.56542 -2.18375 0
M  V30 11074 O 1025.8 3.59371 -1.79486 0
M  V30 11075 N 1024 2.25742 -1.82999 0
M  V30 11076 H 1023.55 1.42159 -2.14822 0
M  V30 11077 H 1023.51 2.89064 -1.2365 0
M  V30 11078 N 1027.28 1.57312 -0.0952337 0
M  V30 11079 C 1028.24 2.12889 0.849161 0
M  V30 11080 C 1029.24 1.05819 1.21075 0
M  V30 11081 O 1030.43 1.31704 1.14016 0
M  V30 11082 C 1027.56 2.6496 2.14498 0
M  V30 11083 H 1028.76 2.97651 0.366566 0
M  V30 11084 H 1026.31 1.55542 0.153762 0
M  V30 11085 H 1027.05 1.83718 2.67242 0
M  V30 11086 H 1026.83 3.43244 1.89542 0
M  V30 11087 H 1028.32 3.07952 2.82056 0
M  V30 11088 N 1028.76 -0.17846 1.56586 0
M  V30 11089 C 1029.99 -0.911996 1.85715 0
M  V30 11090 C 1030.4 -1.76138 0.679766 0
M  V30 11091 O 1029.76 -1.79088 -0.351266 0
M  V30 11092 C 1029.81 -1.79459 3.1381 0
M  V30 11093 O 1029.53 -0.979476 4.2701 0
M  V30 11094 C 1031.03 -2.6384 3.56235 0
M  V30 11095 H 1028.25 -0.265299 0.616326 0
M  V30 11096 H 1030.79 -0.180704 2.037 0
M  V30 11097 H 1028.95 -2.4793 2.97673 0
M  V30 11098 H 1029.36 -1.58244 5.00059 0
M  V30 11099 H 1030.84 -3.21396 4.48786 0
M  V30 11100 H 1031.31 -3.38363 2.80013 0
M  V30 11101 H 1031.92 -2.00712 3.7496 0
M  V30 11102 N 1030.24 -1.51135 -0.446768 0
M  V30 11103 C 1031.51 -1.5387 -1.20762 0
M  V30 11104 C 1031.89 -0.297446 -2.08994 0
M  V30 11105 O 1031.24 0.717975 -2.16927 0
M  V30 11106 C 1031.45 -2.84767 -2.01764 0
M  V30 11107 C 1032.8 -3.3636 -2.59128 0
M  V30 11108 O 1033.82 -2.86254 -2.11984 0
M  V30 11109 O 1032.68 -4.23765 -3.45088 0
M  V30 11110 H 1029.78 -0.618228 -0.549293 0
M  V30 11111 H 1032.32 -1.63442 -0.456605 0
M  V30 11112 H 1031.09 -3.6657 -1.36901 0
M  V30 11113 H 1030.72 -2.78313 -2.8395 0
M  V30 11114 N 1031.71 0.701592 -1.41122 0
M  V30 11115 C 1032.94 1.49553 -1.43696 0
M  V30 11116 C 1033.36 1.88053 -0.0421865 0
M  V30 11117 O 1032.72 1.54223 0.953144 0
M  V30 11118 C 1032.77 2.73834 -2.34622 0
M  V30 11119 O 1031.87 3.71088 -1.7991 0
M  V30 11120 H 1031.21 0.450352 -0.487933 0
M  V30 11121 H 1033.74 0.862886 -1.85514 0
M  V30 11122 H 1033.75 3.22209 -2.5029 0
M  V30 11123 H 1032.43 2.45149 -3.35969 0
M  V30 11124 H 1031.01 3.29994 -1.73661 0
M  V30 11125 N 1033.19 1.2685 0.935242 0
M  V30 11126 C 1034.6 1.11569 1.49697 0
M  V30 11127 C 1034.95 -0.301952 1.93863 0
M  V30 11128 O 1034.08 -1.19408 1.80473 0
M  V30 11129 C 1034.67 2.01918 2.72056 0
M  V30 11130 C 1033.23 1.90765 3.24477 0
M  V30 11131 C 1032.38 1.94918 1.97237 0
M  V30 11132 H 1035.33 1.39853 0.750116 0
M  V30 11133 H 1035.35 1.57056 3.46574 0
M  V30 11134 H 1034.86 3.05088 2.39881 0
M  V30 11135 H 1032.96 0.905521 3.61429 0
M  V30 11136 H 1033.08 2.76611 3.91182 0
M  V30 11137 H 1031.44 1.39046 2.13397 0
M  V30 11138 H 1032.22 2.99729 1.67385 0
M  V30 11139 N 1034.67 -1.14067 1.0875 0
M  V30 11140 C 1035.62 -2.19261 0.720633 0
M  V30 11141 C 1036.59 -1.63462 -0.294847 0
M  V30 11142 O 1037.77 -1.89967 -0.178058 0
M  V30 11143 C 1034.91 -3.44816 0.139873 0
M  V30 11144 C 1034.03 -4.1475 1.20856 0
M  V30 11145 C 1033.16 -5.27899 0.591285 0
M  V30 11146 C 1032.2 -5.89672 1.64176 0
M  V30 11147 N 1031.34 -6.94264 1.04603 0
M  V30 11148 H 1036.18 -2.49991 1.62198 0
M  V30 11149 H 1033.71 -1.22757 0.810497 0
M  V30 11150 H 1035.67 -4.16648 -0.214587 0
M  V30 11151 H 1034.3 -3.14558 -0.724774 0
M  V30 11152 H 1033.35 -3.41272 1.6804 0
M  V30 11153 H 1034.67 -4.56753 2.00446 0
M  V30 11154 H 1033.82 -6.06417 0.185271 0
M  V30 11155 H 1032.56 -4.87128 -0.236236 0
M  V30 11156 H 1031.56 -5.09854 2.05739 0
M  V30 11157 H 1032.79 -6.32517 2.47182 0
M  V30 11158 H 1030.73 -6.55562 0.239664 0
M  V30 11159 H 1030.65 -7.34771 1.77898 0
M  V30 11160 H 1031.92 -7.7665 0.665989 0
M  V30 11161 N 1036.15 -0.873678 -1.31166 0
M  V30 11162 C 1037.37 -0.500242 -2.01277 0
M  V30 11163 C 1037.8 0.900811 -1.65127 0
M  V30 11164 O 1037.16 1.59504 -0.861862 0
M  V30 11165 C 1037.2 -0.668976 -3.5434 0
M  V30 11166 O 1036.31 0.290096 -4.11378 0
M  V30 11167 H 1035.65 -0.198507 -0.633633 0
M  V30 11168 H 1038.18 -1.17811 -1.67277 0
M  V30 11169 H 1038.19 -0.563673 -4.04088 0
M  V30 11170 H 1036.86 -1.69055 -3.79991 0
M  V30 11171 H 1035.44 0.139437 -3.72639 0
M  V30 11172 N 1037.63 1.44308 -0.633487 0
M  V30 11173 C 1038.85 2.06897 -0.144347 0
M  V30 11174 C 1039.28 1.47045 1.173 0
M  V30 11175 O 1038.63 0.572806 1.72013 0
M  V30 11176 C 1038.68 3.60571 -0.0456324 0
M  V30 11177 O 1037.79 4.0015 0.997682 0
M  V30 11178 H 1037.13 0.658427 -0.0858499 0
M  V30 11179 H 1039.66 1.85142 -0.870833 0
M  V30 11180 H 1039.67 4.07745 0.144178 0
M  V30 11181 H 1038.34 4.03515 -1.0074 0
M  V30 11182 H 1036.92 3.64603 0.782252 0
M  V30 11183 N 1039.1 0.374177 1.53094 0
M  V30 11184 C 1040.03 -0.459976 2.28925 0
M  V30 11185 C 1041.02 -1.07656 1.31698 0
M  V30 11186 O 1042.2 -1.09219 1.60577 0
M  V30 11187 C 1039.33 -1.5954 3.08487 0
M  V30 11188 C 1038.28 -1.10563 4.13473 0
M  V30 11189 C 1037.61 -2.33196 4.81169 0
M  V30 11190 C 1038.91 -0.184275 5.21975 0
M  V30 11191 H 1040.6 0.172692 2.98902 0
M  V30 11192 H 1038.15 0.0844956 1.43752 0
M  V30 11193 H 1040.1 -2.18565 3.60288 0
M  V30 11194 H 1038.83 -2.25543 2.36216 0
M  V30 11195 H 1037.49 -0.53801 3.62631 0
M  V30 11196 H 1037.13 -2.97675 4.05461 0
M  V30 11197 H 1036.83 -2.01094 5.52119 0
M  V30 11198 H 1038.36 -2.92892 5.35767 0
M  V30 11199 H 1039.77 -0.682262 5.69226 0
M  V30 11200 H 1038.17 0.0462746 6.00082 0
M  V30 11201 H 1039.24 0.771152 4.78729 0
M  V30 11202 N 1040.58 -1.57259 0.103575 0
M  V30 11203 C 1041.53 -2.14487 -0.852295 0
M  V30 11204 C 1042.5 -1.06567 -1.27407 0
M  V30 11205 O 1043.68 -1.34398 -1.35432 0
M  V30 11206 C 1040.82 -2.73632 -2.10284 0
M  V30 11207 C 1039.94 -3.95811 -1.73083 0
M  V30 11208 C 1039.07 -4.43093 -2.92988 0
M  V30 11209 C 1038.11 -5.5784 -2.51953 0
M  V30 11210 N 1037.25 -5.99936 -3.64721 0
M  V30 11211 H 1042.09 -2.95849 -0.35743 0
M  V30 11212 H 1039.63 -1.46175 -0.164748 0
M  V30 11213 H 1041.58 -3.06046 -2.83534 0
M  V30 11214 H 1040.21 -1.94985 -2.57256 0
M  V30 11215 H 1039.27 -3.69656 -0.897688 0
M  V30 11216 H 1040.58 -4.79066 -1.38916 0
M  V30 11217 H 1039.73 -4.77335 -3.74481 0
M  V30 11218 H 1038.47 -3.58756 -3.30372 0
M  V30 11219 H 1037.48 -5.23217 -1.6889 0
M  V30 11220 H 1038.7 -6.43932 -2.15705 0
M  V30 11221 H 1036.65 -5.18543 -4.01807 0
M  V30 11222 H 1036.56 -6.78008 -3.34427 0
M  V30 11223 H 1037.83 -6.38812 -4.46699 0
M  V30 11224 N 1042.06 0.170153 -1.56679 0
M  V30 11225 C 1043.31 0.884841 -1.817 0
M  V30 11226 C 1043.63 1.82731 -0.680763 0
M  V30 11227 O 1042.9 1.936 0.299294 0
M  V30 11228 H 1041.48 0.329738 -0.670285 0
M  V30 11229 H 1044.14 0.169691 -1.9416 0
M  V30 11230 H 1043.24 1.46104 -2.7579 0
M  V30 11231 N 1043.54 1.5137 0.438746 0
M  V30 11232 C 1044.76 1.68058 1.21537 0
M  V30 11233 C 1045.19 0.376787 1.84288 0
M  V30 11234 O 1044.55 -0.662911 1.68746 0
M  V30 11235 C 1044.59 2.79684 2.27616 0
M  V30 11236 O 1043.7 2.43189 3.33066 0
M  V30 11237 H 1043.04 0.560408 0.356144 0
M  V30 11238 H 1045.57 1.97926 0.518311 0
M  V30 11239 H 1045.58 3.03726 2.72423 0
M  V30 11240 H 1044.25 3.74293 1.81321 0
M  V30 11241 H 1042.83 2.29713 2.93746 0
M  V30 11242 N 1045.02 -0.694098 1.41492 0
M  V30 11243 C 1045.96 -1.82932 1.43662 0
M  V30 11244 C 1046.96 -1.66455 0.31449 0
M  V30 11245 O 1048.16 -1.73298 0.486589 0
M  V30 11246 H 1044.54 -0.602847 0.449533 0
M  V30 11247 H 1046.51 -1.78218 2.39334 0
M  V30 11248 C 1045.26 -3.20962 1.33712 0
M  V30 11249 H 1044.58 -3.34257 2.19345 0
M  V30 11250 H 1046.02 -4.00467 1.39291 0
M  V30 11251 C 1044.48 -3.36863 0.0496332 0
M  V30 11252 O 1045.01 -3.91371 -0.905093 0
M  V30 11253 N 1043.22 -2.90588 -0.0269299 0
M  V30 11254 H 1042.76 -2.46417 0.750752 0
M  V30 11255 H 1042.72 -3.01605 -0.887781 0
M  V30 11256 N 1046.49 -1.27344 -0.928501 0
M  V30 11257 C 1047.91 -1.12361 -1.49103 0
M  V30 11258 C 1048.26 0.291667 -1.9402 0
M  V30 11259 O 1047.38 1.18449 -1.81104 0
M  V30 11260 C 1047.98 -2.03358 -2.70981 0
M  V30 11261 C 1046.54 -1.92483 -3.23461 0
M  V30 11262 C 1045.68 -1.95961 -1.962 0
M  V30 11263 H 1048.63 -1.40249 -0.742689 0
M  V30 11264 H 1048.65 -1.58892 -3.45736 0
M  V30 11265 H 1048.17 -3.06356 -2.38259 0
M  V30 11266 H 1046.27 -0.924676 -3.60944 0
M  V30 11267 H 1046.38 -2.78682 -3.89709 0
M  V30 11268 H 1044.74 -1.40175 -2.12657 0
M  V30 11269 H 1045.53 -3.00612 -1.65793 0
M  V30 11270 N 1047.97 1.13488 -1.09353 0
M  V30 11271 C 1048.9 2.20988 -0.75409 0
M  V30 11272 C 1049.88 1.67977 0.267901 0
M  V30 11273 O 1051.07 1.93722 0.136128 0
M  V30 11274 C 1048.2 3.46869 -0.173042 0
M  V30 11275 C 1047.15 4.12965 -1.12446 0
M  V30 11276 C 1046.48 5.33163 -0.405157 0
M  V30 11277 C 1047.78 4.60388 -2.46658 0
M  V30 11278 H 1049.47 2.49639 -1.6529 0
M  V30 11279 H 1047.02 1.19987 -0.796182 0
M  V30 11280 H 1048.97 4.21331 0.0764988 0
M  V30 11281 H 1047.7 3.17611 0.760956 0
M  V30 11282 H 1046.35 3.40469 -1.35927 0
M  V30 11283 H 1046 5.00169 0.532955 0
M  V30 11284 H 1045.7 5.78332 -1.03952 0
M  V30 11285 H 1047.23 6.1038 -0.163899 0
M  V30 11286 H 1048.64 5.26276 -2.27389 0
M  V30 11287 H 1047.04 5.16294 -3.05876 0
M  V30 11288 H 1048.11 3.74949 -3.07476 0
M  V30 11289 N 1049.45 0.880621 1.30701 0
M  V30 11290 C 1050.4 0.342397 2.28246 0
M  V30 11291 C 1051.37 -0.565023 1.56194 0
M  V30 11292 O 1052.55 -0.494377 1.84284 0
M  V30 11293 C 1049.69 -0.440859 3.42272 0
M  V30 11294 C 1048.81 0.495284 4.29151 0
M  V30 11295 C 1047.94 -0.303141 5.30334 0
M  V30 11296 C 1046.98 0.628751 6.08862 0
M  V30 11297 N 1046.12 -0.13408 7.01972 0
M  V30 11298 H 1050.96 1.17938 2.73669 0
M  V30 11299 H 1048.49 0.59296 1.34619 0
M  V30 11300 H 1050.45 -0.910854 4.07135 0
M  V30 11301 H 1049.08 -1.24245 2.97931 0
M  V30 11302 H 1048.13 1.08376 3.64635 0
M  V30 11303 H 1049.45 1.2094 4.83916 0
M  V30 11304 H 1048.6 -0.835181 6.00924 0
M  V30 11305 H 1047.34 -1.05049 4.76252 0
M  V30 11306 H 1046.34 1.17246 5.37153 0
M  V30 11307 H 1047.57 1.37512 6.65032 0
M  V30 11308 H 1045.52 -0.864046 6.50285 0
M  V30 11309 H 1045.43 0.520486 7.54206 0
M  V30 11310 H 1046.7 -0.647005 7.7681 0
M  V30 11311 N 1050.93 -1.4397 0.641131 0
M  V30 11312 C 1052.15 -2.06818 0.155318 0
M  V30 11313 C 1052.58 -1.47665 -1.16519 0
M  V30 11314 O 1051.94 -0.58192 -1.71707 0
M  V30 11315 C 1051.99 -3.60542 0.0647537 0
M  V30 11316 O 1051.09 -4.00674 -0.976447 0
M  V30 11317 H 1050.43 -0.657962 0.0893404 0
M  V30 11318 H 1052.96 -1.84678 0.88064 0
M  V30 11319 H 1052.97 -4.07816 -0.122552 0
M  V30 11320 H 1051.65 -4.02975 1.02878 0
M  V30 11321 H 1050.22 -3.65013 -0.762905 0
M  V30 11322 N 1052.41 -0.382291 -1.52893 0
M  V30 11323 C 1053.82 -0.031941 -1.59568 0
M  V30 11324 C 1054.02 1.45245 -1.39664 0
M  V30 11325 O 1053.08 2.21612 -1.21013 0
M  V30 11326 C 1054.39 -0.502846 -2.96466 0
M  V30 11327 C 1055.94 -0.4585 -3.09624 0
M  V30 11328 C 1056.42 -0.905481 -4.4896 0
M  V30 11329 N 1057.91 -0.861211 -4.55124 0
M  V30 11330 C 1058.64 -1.17856 -5.61157 0
M  V30 11331 N 1058.14 -1.56603 -6.74868 0
M  V30 11332 N 1059.93 -1.10027 -5.51226 0
M  V30 11333 H 1052.08 -1.34875 -1.64081 0
M  V30 11334 H 1054.34 -0.552375 -0.770446 0
M  V30 11335 H 1054.05 -1.53931 -3.16225 0
M  V30 11336 H 1053.92 0.101777 -3.77063 0
M  V30 11337 H 1056.31 0.568868 -2.89565 0
M  V30 11338 H 1056.39 -1.09884 -2.30996 0
M  V30 11339 H 1056.04 -1.93105 -4.69759 0
M  V30 11340 H 1055.97 -0.242227 -5.26043 0
M  V30 11341 H 1058.46 -0.575988 -3.73485 0
M  V30 11342 H 1058.77 -1.792 -7.51736 0
M  V30 11343 H 1057.12 -1.60484 -6.76217 0
M  V30 11344 H 1060.31 -0.796623 -4.61272 0
M  V30 11345 H 1060.48 -1.35091 -6.33762 0
M  V30 11346 N 1053.89 1.57202 -0.111913 0
M  V30 11347 C 1055.11 1.99723 0.559054 0
M  V30 11348 C 1055.54 0.990968 1.59879 0
M  V30 11349 O 1054.89 -0.038311 1.8126 0
M  V30 11350 C 1054.94 3.41151 1.16826 0
M  V30 11351 O 1054.05 3.43383 2.2839 0
M  V30 11352 H 1053.39 0.649004 0.140319 0
M  V30 11353 H 1055.92 2.03637 -0.198295 0
M  V30 11354 H 1055.93 3.79208 1.50551 0
M  V30 11355 H 1054.6 4.13907 0.406637 0
M  V30 11356 H 1053.18 3.17138 1.96158 0
M  V30 11357 N 1055.36 -0.161842 1.56767 0
M  V30 11358 C 1056.29 -1.20226 2.0017 0
M  V30 11359 C 1057.27 -1.4564 0.878807 0
M  V30 11360 O 1058.46 -1.56813 1.14557 0
M  V30 11361 C 1055.59 -2.53897 2.36968 0
M  V30 11362 C 1054.54 -2.43033 3.52305 0
M  V30 11363 C 1053.87 -3.81281 3.74872 0
M  V30 11364 C 1055.17 -1.927 4.85453 0
M  V30 11365 H 1056.86 -0.84142 2.87333 0
M  V30 11366 H 1054.41 -0.403309 1.38237 0
M  V30 11367 H 1056.36 -3.26893 2.6593 0
M  V30 11368 H 1055.09 -2.91787 1.46724 0
M  V30 11369 H 1053.75 -1.7249 3.23485 0
M  V30 11370 H 1053.39 -4.1658 2.81904 0
M  V30 11371 H 1053.09 -3.74877 4.52483 0
M  V30 11372 H 1054.62 -4.55848 4.06245 0
M  V30 11373 H 1056.03 -2.55477 5.13229 0
M  V30 11374 H 1054.43 -1.97222 5.66766 0
M  V30 11375 H 1055.5 -0.881816 4.76814 0
M  V30 11376 N 1056.84 -1.516 -0.430713 0
M  V30 11377 C 1057.79 -1.73392 -1.52328 0
M  V30 11378 C 1058.76 -0.575758 -1.55802 0
M  V30 11379 O 1059.94 -0.810931 -1.72709 0
M  V30 11380 C 1057.08 -1.87092 -2.89984 0
M  V30 11381 C 1056.2 -3.14668 -2.95987 0
M  V30 11382 C 1055.33 -3.18923 -4.24807 0
M  V30 11383 C 1054.37 -4.40787 -4.24703 0
M  V30 11384 N 1053.51 -4.42556 -5.45059 0
M  V30 11385 H 1058.35 -2.6665 -1.33048 0
M  V30 11386 H 1055.88 -1.32146 -0.646207 0
M  V30 11387 H 1057.84 -1.93017 -3.69865 0
M  V30 11388 H 1056.47 -0.972363 -3.07807 0
M  V30 11389 H 1055.52 -3.1802 -2.08728 0
M  V30 11390 H 1056.84 -4.04562 -2.91772 0
M  V30 11391 H 1055.99 -3.23801 -5.13067 0
M  V30 11392 H 1054.73 -2.2693 -4.31688 0
M  V30 11393 H 1053.73 -4.36079 -3.34836 0
M  V30 11394 H 1054.96 -5.34053 -4.19481 0
M  V30 11395 H 1052.91 -3.53435 -5.52648 0
M  V30 11396 H 1052.82 -5.26267 -5.42751 0
M  V30 11397 H 1054.09 -4.51634 -6.35332 0
M  V30 11398 N 1058.32 0.686584 -1.41858 0
M  V30 11399 C 1059.57 1.44879 -1.41908 0
M  V30 11400 C 1059.9 1.94175 -0.0311408 0
M  V30 11401 O 1059.17 1.70131 0.942646 0
M  V30 11402 C 1059.46 2.65428 -2.43352 0
M  V30 11403 C 1059.31 2.2184 -3.91289 0
M  V30 11404 C 1060.63 3.67635 -2.41934 0
M  V30 11405 H 1057.75 0.525477 -0.516762 0
M  V30 11406 H 1060.39 0.781263 -1.73194 0
M  V30 11407 H 1058.54 3.2238 -2.16803 0
M  V30 11408 H 1060.21 1.70146 -4.28775 0
M  V30 11409 H 1058.45 1.53531 -4.05722 0
M  V30 11410 H 1059.13 3.08376 -4.5783 0
M  V30 11411 H 1061.6 3.20376 -2.65516 0
M  V30 11412 H 1060.48 4.49579 -3.14913 0
M  V30 11413 H 1060.74 4.17953 -1.44111 0
M  V30 11414 N 1059.8 1.27835 0.921735 0
M  V30 11415 C 1060.75 1.1092 2.04449 0
M  V30 11416 C 1061.74 0.0306469 1.69372 0
M  V30 11417 O 1062.95 0.188818 1.79007 0
M  V30 11418 H 1059.32 0.341973 0.669745 0
M  V30 11419 H 1061.29 2.06026 2.1586 0
M  V30 11420 C 1060.04 0.779443 3.38851 0
M  V30 11421 H 1059.36 1.60131 3.66331 0
M  V30 11422 H 1060.8 0.700999 4.18165 0
M  V30 11423 C 1059.26 -0.51647 3.32918 0
M  V30 11424 O 1059.79 -1.54914 3.70627 0
M  V30 11425 N 1058 -0.514276 2.86013 0
M  V30 11426 H 1057.55 0.32651 2.55522 0
M  V30 11427 H 1057.5 -1.38141 2.82426 0
M  V30 11428 N 1061.28 -1.12907 1.09954 0
M  V30 11429 C 1062.52 -1.84306 0.838912 0
M  V30 11430 C 1062.85 -1.83825 -0.635508 0
M  V30 11431 O 1062.11 -1.27556 -1.48418 0
M  V30 11432 C 1062.4 -3.31885 1.32616 0
M  V30 11433 C 1062.07 -3.52542 2.81114 0
M  V30 11434 C 1060.73 -3.57888 3.21667 0
M  V30 11435 C 1063.08 -3.60065 3.76833 0
M  V30 11436 C 1060.41 -3.68296 4.567 0
M  V30 11437 C 1062.76 -3.72001 5.11662 0
M  V30 11438 C 1061.43 -3.75602 5.51797 0
M  V30 11439 H 1060.7 -0.674422 0.30698 0
M  V30 11440 H 1063.35 -1.33261 1.37527 0
M  V30 11441 H 1061.65 -3.85318 0.709719 0
M  V30 11442 H 1063.35 -3.85588 1.10105 0
M  V30 11443 H 1059.94 -3.4904 2.48735 0
M  V30 11444 H 1064.12 -3.55209 3.46612 0
M  V30 11445 H 1059.38 -3.69352 4.87226 0
M  V30 11446 H 1063.55 -3.76765 5.8568 0
M  V30 11447 H 1061.18 -3.83419 6.56425 0
M  V30 11448 N 1062.75 -0.88754 -1.30232 0
M  V30 11449 C 1063.7 -0.354497 -2.28061 0
M  V30 11450 C 1064.67 0.556732 -1.56492 0
M  V30 11451 O 1065.86 0.484597 -1.84543 0
M  V30 11452 C 1063 0.422701 -3.42501 0
M  V30 11453 C 1062.11 -0.518036 -4.28883 0
M  V30 11454 C 1061.24 0.275011 -5.30488 0
M  V30 11455 C 1060.28 -0.661032 -6.0852 0
M  V30 11456 N 1059.42 0.0968509 -7.02033 0
M  V30 11457 H 1064.26 -1.19388 -2.73039 0
M  V30 11458 H 1061.8 -0.600091 -1.34303 0
M  V30 11459 H 1063.75 0.889249 -4.07613 0
M  V30 11460 H 1062.38 1.22664 -2.98586 0
M  V30 11461 H 1061.44 -1.10308 -3.64055 0
M  V30 11462 H 1062.75 -1.23504 -4.83268 0
M  V30 11463 H 1061.9 0.803301 -6.01358 0
M  V30 11464 H 1060.64 1.02522 -4.76802 0
M  V30 11465 H 1059.65 -1.20093 -5.36524 0
M  V30 11466 H 1060.87 -1.41037 -6.64293 0
M  V30 11467 H 1058.82 0.829548 -6.50734 0
M  V30 11468 H 1058.73 -0.560476 -7.5392 0
M  V30 11469 H 1060 0.6058 -7.77142 0
M  V30 11470 N 1064.23 1.43628 -0.648757 0
M  V30 11471 C 1065.14 2.34554 0.0463037 0
M  V30 11472 C 1066.16 1.53629 0.816952 0
M  V30 11473 O 1067.33 1.86297 0.765212 0
M  V30 11474 C 1064.4 3.3185 1.00381 0
M  V30 11475 C 1063.46 4.2868 0.230589 0
M  V30 11476 C 1062.69 5.21328 1.14249 0
M  V30 11477 O 1062.92 5.18298 2.38166 0
M  V30 11478 O 1061.85 5.98726 0.617296 0
M  V30 11479 H 1065.68 2.95475 -0.702008 0
M  V30 11480 H 1063.26 1.43694 -0.408942 0
M  V30 11481 H 1065.14 3.91692 1.5542 0
M  V30 11482 H 1063.82 2.73439 1.73243 0
M  V30 11483 H 1062.73 3.72332 -0.363282 0
M  V30 11484 H 1064.06 4.90061 -0.458368 0
M  V30 11485 N 1065.71 0.390394 1.52688 0
M  V30 11486 C 1066.66 -0.4591 2.28024 0
M  V30 11487 C 1067.65 -1.06212 1.31967 0
M  V30 11488 O 1068.86 -1.00247 1.49501 0
M  V30 11489 H 1065.23 -0.16681 0.733266 0
M  V30 11490 H 1067.2 0.197747 2.97744 0
M  V30 11491 C 1065.95 -1.5737 3.10048 0
M  V30 11492 H 1065.28 -1.11901 3.83821 0
M  V30 11493 H 1066.72 -2.1423 3.65898 0
M  V30 11494 C 1065.18 -2.53036 2.22429 0
M  V30 11495 O 1065.71 -3.5647 1.85181 0
M  V30 11496 N 1063.91 -2.22802 1.86567 0
M  V30 11497 H 1063.46 -1.38723 2.17057 0
M  V30 11498 H 1063.42 -2.87061 1.28233 0
M  V30 11499 N 1067.19 -1.57141 0.120249 0
M  V30 11500 C 1068.6 -1.5784 -0.236335 0
M  V30 11501 C 1068.8 -1.13304 -1.66626 0
M  V30 11502 O 1067.86 -0.821004 -2.3878 0
M  V30 11503 C 1069.17 -3.007 -0.00188211 0
M  V30 11504 C 1070.72 -3.12927 -0.0676838 0
M  V30 11505 C 1071.2 -4.57789 0.139092 0
M  V30 11506 N 1072.69 -4.63122 0.085104 0
M  V30 11507 C 1073.42 -5.72978 0.219983 0
M  V30 11508 N 1072.92 -6.91579 0.411102 0
M  V30 11509 N 1074.71 -5.61874 0.159469 0
M  V30 11510 H 1066.86 -1.84391 1.05422 0
M  V30 11511 H 1069.13 -0.852228 0.415225 0
M  V30 11512 H 1068.83 -3.37575 0.986718 0
M  V30 11513 H 1068.71 -3.70005 -0.733203 0
M  V30 11514 H 1071.09 -2.75909 -1.04681 0
M  V30 11515 H 1071.17 -2.46162 0.695538 0
M  V30 11516 H 1070.82 -4.95506 1.1152 0
M  V30 11517 H 1070.75 -5.22646 -0.644131 0
M  V30 11518 H 1073.24 -3.77854 -0.0590479 0
M  V30 11519 H 1073.55 -7.71149 0.504851 0
M  V30 11520 H 1071.9 -6.9356 0.447091 0
M  V30 11521 H 1075.09 -4.68099 0.0111131 0
M  V30 11522 H 1075.26 -6.47445 0.268028 0
M  V30 11523 N 1068.67 0.153526 -1.5685 0
M  V30 11524 C 1069.91 0.865519 -1.82629 0
M  V30 11525 C 1070.24 1.81999 -0.700105 0
M  V30 11526 O 1069.51 1.93907 0.278744 0
M  V30 11527 H 1068.09 0.32261 -0.673745 0
M  V30 11528 H 1070.75 0.149088 -1.94329 0
M  V30 11529 H 1069.84 1.43171 -2.77324 0
M  V30 11530 N 1070.14 1.51827 0.422667 0
M  V30 11531 C 1071.37 1.69337 1.19748 0
M  V30 11532 C 1071.79 0.396312 1.83878 0
M  V30 11533 O 1071.15 -0.644976 1.6944 0
M  V30 11534 C 1071.2 2.82082 2.24637 0
M  V30 11535 O 1070.3 2.46708 3.30468 0
M  V30 11536 H 1069.65 0.564154 0.35018 0
M  V30 11537 H 1072.18 1.98465 0.497289 0
M  V30 11538 H 1072.19 3.06599 2.69186 0
M  V30 11539 H 1070.86 3.76195 1.77341 0
M  V30 11540 H 1069.44 2.32815 2.91293 0
M  V30 11541 N 1071.62 -0.679052 1.4222 0
M  V30 11542 C 1072.59 -1.77448 1.45069 0
M  V30 11543 C 1073.59 -1.57189 0.338882 0
M  V30 11544 O 1074.78 -1.63559 0.599519 0
M  V30 11545 C 1071.91 -3.1603 1.27819 0
M  V30 11546 H 1073.1 -1.7631 2.426 0
M  V30 11547 H 1070.65 -0.888277 1.28605 0
M  V30 11548 H 1071.39 -3.22796 0.311946 0
M  V30 11549 H 1071.17 -3.32138 2.08391 0
M  V30 11550 H 1072.66 -3.9596 1.32686 0
M  V30 11551 N 1073.1 -1.28322 -0.914942 0
M  V30 11552 C 1074.51 -1.13937 -1.47903 0
M  V30 11553 C 1074.86 0.271072 -1.94318 0
M  V30 11554 O 1073.99 1.16522 -1.8235 0
M  V30 11555 C 1074.58 -2.06221 -2.68809 0
M  V30 11556 C 1073.14 -1.95903 -3.21402 0
M  V30 11557 C 1072.29 -1.98031 -1.94111 0
M  V30 11558 H 1075.24 -1.41029 -0.727772 0
M  V30 11559 H 1075.26 -1.6255 -3.44031 0
M  V30 11560 H 1074.77 -3.08866 -2.34997 0
M  V30 11561 H 1072.87 -0.962907 -3.59943 0
M  V30 11562 H 1072.99 -2.82799 -3.86732 0
M  V30 11563 H 1071.35 -1.42423 -2.11158 0
M  V30 11564 H 1072.13 -3.02354 -1.62595 0
M  V30 11565 N 1074.58 1.12322 -1.10551 0
M  V30 11566 C 1075.51 2.17819 -0.713263 0
M  V30 11567 C 1076.52 1.6086 0.250604 0
M  V30 11568 O 1077.71 1.78466 0.0348909 0
M  V30 11569 C 1074.81 3.38885 -0.0320325 0
M  V30 11570 C 1073.99 4.25332 -1.02038 0
M  V30 11571 C 1073.04 5.24895 -0.370412 0
M  V30 11572 O 1072.07 5.59958 -1.02157 0
M  V30 11573 N 1073.27 5.73934 0.870633 0
M  V30 11574 H 1076.04 2.52083 -1.62094 0
M  V30 11575 H 1073.6 1.27755 -0.994492 0
M  V30 11576 H 1075.59 4.02574 0.414285 0
M  V30 11577 H 1074.16 3.02762 0.778072 0
M  V30 11578 H 1073.38 3.5824 -1.64492 0
M  V30 11579 H 1074.67 4.79936 -1.68936 0
M  V30 11580 H 1074.07 5.47614 1.419 0
M  V30 11581 H 1072.62 6.39504 1.26008 0
M  V30 11582 N 1076.06 0.894434 1.2976 0
M  V30 11583 C 1077.28 0.532916 1.99919 0
M  V30 11584 C 1077.7 -0.881022 1.66983 0
M  V30 11585 O 1077.06 -1.58076 0.912035 0
M  V30 11586 C 1077.11 0.70936 3.54472 0
M  V30 11587 O 1076.83 2.06764 3.86239 0
M  V30 11588 C 1078.33 0.352089 4.419 0
M  V30 11589 H 1075.55 0.205019 0.638912 0
M  V30 11590 H 1078.09 1.20233 1.65421 0
M  V30 11591 H 1076.25 0.0871901 3.87302 0
M  V30 11592 H 1076.66 2.09315 4.80924 0
M  V30 11593 H 1078.14 0.526405 5.49484 0
M  V30 11594 H 1078.61 -0.710527 4.33415 0
M  V30 11595 H 1079.22 0.950979 4.14532 0
M  V30 11596 N 1077.53 -1.43282 0.656365 0
M  V30 11597 C 1078.95 -1.85012 0.250475 0
M  V30 11598 C 1079.3 -1.54944 -1.20361 0
M  V30 11599 O 1078.42 -0.999983 -1.9191 0
M  V30 11600 C 1079.02 -3.35827 0.447815 0
M  V30 11601 C 1077.58 -3.76277 0.0962151 0
M  V30 11602 C 1076.72 -2.66988 0.749168 0
M  V30 11603 H 1079.67 -1.3339 0.85982 0
M  V30 11604 H 1079.69 -3.7927 -0.305726 0
M  V30 11605 H 1079.21 -3.5768 1.5062 0
M  V30 11606 H 1077.31 -3.60035 -0.959449 0
M  V30 11607 H 1077.42 -4.76227 0.523875 0
M  V30 11608 H 1075.78 -2.54048 0.18212 0
M  V30 11609 H 1076.57 -2.91669 1.81064 0
M  V30 11610 N 1079.01 -0.398486 -1.52479 0
M  V30 11611 C 1080.42 0.0735015 -1.86555 0
M  V30 11612 C 1080.78 1.45361 -1.31775 0
M  V30 11613 O 1079.9 2.0632 -0.652759 0
M  V30 11614 C 1080.5 0.140152 -3.3851 0
M  V30 11615 C 1079.05 0.556451 -3.72264 0
M  V30 11616 C 1078.2 -0.275792 -2.75925 0
M  V30 11617 H 1081.15 -0.615991 -1.46257 0
M  V30 11618 H 1081.17 0.957507 -3.68255 0
M  V30 11619 H 1080.69 -0.864442 -3.7835 0
M  V30 11620 H 1078.79 1.56808 -3.37997 0
M  V30 11621 H 1078.9 0.308227 -4.78107 0
M  V30 11622 H 1077.26 0.260304 -2.53366 0
M  V30 11623 H 1078.05 -1.27854 -3.18604 0
M  V30 11624 N 1080.49 1.57075 -0.12858 0
M  V30 11625 C 1081.72 2.00305 0.537839 0
M  V30 11626 C 1082.14 1.00787 1.58819 0
M  V30 11627 O 1081.5 -0.0190839 1.8129 0
M  V30 11628 C 1081.55 3.42371 1.13201 0
M  V30 11629 O 1080.65 3.45786 2.24735 0
M  V30 11630 H 1079.99 0.650456 0.133428 0
M  V30 11631 H 1082.52 2.03415 -0.219882 0
M  V30 11632 H 1082.53 3.80783 1.4652 0
M  V30 11633 H 1081.21 4.14315 0.362713 0
M  V30 11634 H 1079.78 3.19201 1.92783 0
M  V30 11635 N 1081.97 -0.145205 1.5693 0
M  V30 11636 C 1083.2 -0.872398 1.87608 0
M  V30 11637 C 1083.61 -1.74657 0.716975 0
M  V30 11638 O 1082.97 -1.79792 -0.3132 0
M  V30 11639 C 1083.02 -1.72762 3.17546 0
M  V30 11640 O 1082.74 -0.888681 4.28992 0
M  V30 11641 C 1084.24 -2.56224 3.61751 0
M  V30 11642 H 1081.46 -0.252166 0.621815 0
M  V30 11643 H 1084.01 -0.137456 2.04038 0
M  V30 11644 H 1082.16 -2.41561 3.02865 0
M  V30 11645 H 1082.58 -1.47601 5.03303 0
M  V30 11646 H 1084.05 -3.11804 4.55502 0
M  V30 11647 H 1084.53 -3.32347 2.87127 0
M  V30 11648 H 1085.13 -1.92714 3.79133 0
M  V30 11649 N 1083.45 -1.52049 -0.414609 0
M  V30 11650 C 1084.41 -1.74382 -1.4874 0
M  V30 11651 C 1085.41 -0.613701 -1.48628 0
M  V30 11652 O 1086.6 -0.88152 -1.50249 0
M  V30 11653 C 1083.73 -1.82116 -2.88178 0
M  V30 11654 H 1084.93 -2.70147 -1.30233 0
M  V30 11655 H 1082.48 -1.42382 -0.644756 0
M  V30 11656 H 1083.21 -0.882457 -3.12063 0
M  V30 11657 H 1083 -2.64268 -2.89663 0
M  V30 11658 H 1084.49 -2.01155 -3.65959 0
M  V30 11659 N 1084.93 0.6715 -1.42579 0
M  V30 11660 C 1086.34 0.985019 -1.25577 0
M  V30 11661 C 1086.54 2.00845 -0.162319 0
M  V30 11662 O 1085.6 2.48175 0.465352 0
M  V30 11663 C 1086.91 1.48668 -2.61377 0
M  V30 11664 C 1088.46 1.60429 -2.68759 0
M  V30 11665 C 1088.93 2.13991 -4.04935 0
M  V30 11666 N 1090.42 2.21319 -4.06906 0
M  V30 11667 C 1091.16 2.63845 -5.09091 0
M  V30 11668 N 1090.66 3.05799 -6.21658 0
M  V30 11669 N 1092.45 2.63623 -4.96447 0
M  V30 11670 H 1084.6 -0.00604561 -2.12399 0
M  V30 11671 H 1086.86 0.0598299 -0.94611 0
M  V30 11672 H 1086.57 0.80917 -3.42265 0
M  V30 11673 H 1086.44 2.46487 -2.85524 0
M  V30 11674 H 1088.83 2.27286 -1.88216 0
M  V30 11675 H 1088.91 0.610909 -2.48398 0
M  V30 11676 H 1088.55 1.47741 -4.85937 0
M  V30 11677 H 1088.48 3.14126 -4.2265 0
M  V30 11678 H 1090.98 1.91743 -3.25643 0
M  V30 11679 H 1091.29 3.36944 -6.95477 0
M  V30 11680 H 1089.63 3.03648 -6.25158 0
M  V30 11681 H 1092.82 2.30211 -4.07579 0
M  V30 11682 H 1093 2.96444 -5.76216 0
M  V30 11683 N 1086.4 1.28806 0.908124 0
M  V30 11684 C 1087.81 1.14719 1.47297 0
M  V30 11685 C 1088.17 -0.260763 1.94459 0
M  V30 11686 O 1087.29 -1.15553 1.82966 0
M  V30 11687 C 1087.89 2.07643 2.67712 0
M  V30 11688 C 1086.44 1.97605 3.20358 0
M  V30 11689 C 1085.59 1.99058 1.93058 0
M  V30 11690 H 1088.54 1.41413 0.720283 0
M  V30 11691 H 1088.56 1.64372 3.43165 0
M  V30 11692 H 1088.08 3.10108 2.33355 0
M  V30 11693 H 1086.18 0.981982 3.59427 0
M  V30 11694 H 1086.29 2.84846 3.85226 0
M  V30 11695 H 1084.65 1.43541 2.104 0
M  V30 11696 H 1085.44 3.03212 1.60989 0
M  V30 11697 N 1087.88 -1.11734 1.11145 0
M  V30 11698 C 1088.81 -2.1976 0.789152 0
M  V30 11699 C 1089.79 -1.68382 -0.241143 0
M  V30 11700 O 1090.98 -1.93914 -0.105292 0
M  V30 11701 C 1088.11 -3.46549 0.228204 0
M  V30 11702 C 1087.06 -4.11123 1.19002 0
M  V30 11703 C 1086.39 -5.32451 0.489928 0
M  V30 11704 C 1087.69 -4.56406 2.53951 0
M  V30 11705 H 1089.38 -2.46978 1.69241 0
M  V30 11706 H 1086.93 -1.18705 0.81517 0
M  V30 11707 H 1088.88 -4.21399 -0.00945908 0
M  V30 11708 H 1087.6 -3.18782 -0.71033 0
M  V30 11709 H 1086.26 -3.38264 1.41326 0
M  V30 11710 H 1085.91 -5.00953 -0.453315 0
M  V30 11711 H 1085.61 -5.76605 1.1314 0
M  V30 11712 H 1087.14 -6.10042 0.260984 0
M  V30 11713 H 1088.55 -5.22592 2.35733 0
M  V30 11714 H 1086.95 -5.11363 3.14051 0
M  V30 11715 H 1088.02 -3.7001 3.13402 0
M  V30 11716 N 1089.36 -0.901303 -1.29284 0
M  V30 11717 C 1090.77 -0.576317 -1.77582 0
M  V30 11718 C 1091.12 0.908078 -1.73921 0
M  V30 11719 O 1090.25 1.71006 -1.32611 0
M  V30 11720 C 1090.84 -1.03938 -3.22463 0
M  V30 11721 C 1089.4 -0.765533 -3.68533 0
M  V30 11722 C 1088.55 -1.21318 -2.49354 0
M  V30 11723 H 1091.5 -1.08386 -1.15923 0
M  V30 11724 H 1091.52 -0.375367 -3.78644 0
M  V30 11725 H 1091.03 -2.11977 -3.25096 0
M  V30 11726 H 1089.13 0.302176 -3.71373 0
M  V30 11727 H 1089.25 -1.36454 -4.59257 0
M  V30 11728 H 1087.61 -0.632141 -2.46731 0
M  V30 11729 H 1088.39 -2.30165 -2.54714 0
M  V30 11730 N 1090.84 1.42931 -0.663954 0
M  V30 11731 C 1092.08 2.01982 -0.182007 0
M  V30 11732 C 1092.42 1.52323 1.20463 0
M  V30 11733 O 1091.69 0.720834 1.80649 0
M  V30 11734 C 1091.97 3.59518 -0.204671 0
M  V30 11735 C 1091.83 4.19382 -1.62599 0
M  V30 11736 C 1093.15 4.37762 0.45308 0
M  V30 11737 H 1090.27 0.733892 -0.0676115 0
M  V30 11738 H 1092.91 1.70092 -0.84668 0
M  V30 11739 H 1091.06 3.86816 0.361295 0
M  V30 11740 H 1092.73 4.03076 -2.24337 0
M  V30 11741 H 1090.97 3.75623 -2.17001 0
M  V30 11742 H 1091.64 5.28496 -1.59362 0
M  V30 11743 H 1094.12 4.1609 -0.0285774 0
M  V30 11744 H 1093 5.47392 0.406538 0
M  V30 11745 H 1093.26 4.1482 1.52895 0
M  V30 11746 N 1092.32 0.406567 1.52266 0
M  V30 11747 C 1093.54 -0.169624 2.06204 0
M  V30 11748 C 1093.96 -1.39076 1.27684 0
M  V30 11749 O 1093.32 -1.79528 0.328023 0
M  V30 11750 C 1093.37 -0.522611 3.57702 0
M  V30 11751 O 1093.09 0.650028 4.33251 0
M  V30 11752 C 1094.59 -1.15281 4.28048 0
M  V30 11753 H 1091.81 -0.0215191 0.670655 0
M  V30 11754 H 1094.35 0.576781 1.96198 0
M  V30 11755 H 1092.51 -1.21891 3.67725 0
M  V30 11756 H 1092.92 0.355989 5.23291 0
M  V30 11757 H 1094.4 -1.35002 5.35237 0
M  V30 11758 H 1094.87 -2.12517 3.84361 0
M  V30 11759 H 1095.48 -0.496786 4.22389 0
M  V30 11760 N 1093.79 -1.57004 0.136909 0
M  V30 11761 C 1095.02 -2.00156 -0.523936 0
M  V30 11762 C 1095.44 -1.01688 -1.59075 0
M  V30 11763 O 1094.79 -0.0123678 -1.82496 0
M  V30 11764 C 1094.85 -3.4326 -1.13379 0
M  V30 11765 O 1094.57 -4.37963 -0.109598 0
M  V30 11766 C 1096.07 -4.01637 -1.87623 0
M  V30 11767 H 1093.29 -0.65681 -0.137263 0
M  V30 11768 H 1095.83 -2.03219 0.228522 0
M  V30 11769 H 1093.99 -3.4108 -1.83693 0
M  V30 11770 H 1094.4 -5.21555 -0.55503 0
M  V30 11771 H 1095.87 -5.03795 -2.25597 0
M  V30 11772 H 1096.35 -3.41781 -2.75831 0
M  V30 11773 H 1096.96 -4.07417 -1.22031 0
M  V30 11774 N 1095.27 0.136881 -1.57004 0
M  V30 11775 C 1096.24 1.15267 -1.98106 0
M  V30 11776 C 1097.24 1.35305 -0.868856 0
M  V30 11777 O 1098.43 1.32126 -1.13527 0
M  V30 11778 C 1095.56 2.51092 -2.30577 0
M  V30 11779 H 1096.75 0.799821 -2.89038 0
M  V30 11780 H 1094.3 0.380576 -1.51596 0
M  V30 11781 H 1095.04 2.9133 -1.42469 0
M  V30 11782 H 1094.82 2.37906 -3.11678 0
M  V30 11783 H 1096.31 3.24232 -2.63179 0
M  V30 11784 N 1096.75 1.52266 0.40654 0
M  V30 11785 C 1098.03 1.57018 1.1664 0
M  V30 11786 C 1098.41 0.352752 2.08132 0
M  V30 11787 O 1097.76 -0.660208 2.18754 0
M  V30 11788 C 1097.97 2.90016 1.94143 0
M  V30 11789 C 1099.31 3.43112 2.50119 0
M  V30 11790 O 1100.34 2.91773 2.0432 0
M  V30 11791 O 1099.2 4.32765 3.33731 0
M  V30 11792 H 1096.29 0.632574 0.532709 0
M  V30 11793 H 1098.84 1.64595 0.413111 0
M  V30 11794 H 1097.61 3.70071 1.27134 0
M  V30 11795 H 1097.23 2.85744 2.76471 0
M  V30 11796 N 1098.23 -0.663929 1.42933 0
M  V30 11797 C 1099.48 -1.42393 1.43981 0
M  V30 11798 C 1099.8 -1.94407 0.0601802 0
M  V30 11799 O 1099.06 -1.72019 -0.933172 0
M  V30 11800 C 1099.36 -2.62976 2.4203 0
M  V30 11801 C 1099.02 -2.29441 3.88159 0
M  V30 11802 C 1097.69 -2.20007 4.27961 0
M  V30 11803 C 1100.04 -2.02413 4.8029 0
M  V30 11804 C 1097.37 -1.81686 5.57859 0
M  V30 11805 C 1099.72 -1.65592 6.10542 0
M  V30 11806 C 1098.38 -1.54676 6.49332 0
M  V30 11807 H 1097.65 -0.521051 0.526865 0
M  V30 11808 H 1100.3 -0.756042 1.75944 0
M  V30 11809 H 1098.6 -3.34847 2.03433 0
M  V30 11810 H 1100.3 -3.21174 2.40101 0
M  V30 11811 H 1096.89 -2.3769 3.56653 0
M  V30 11812 H 1101.07 -2.08628 4.5032 0
M  V30 11813 H 1096.33 -1.71812 5.86763 0
M  V30 11814 H 1100.5 -1.43707 6.81411 0
M  V30 11815 H 1098.13 -1.24752 7.49894 0
M  V30 11816 N 1099.71 -1.29285 -0.901281 0
M  V30 11817 C 1100.93 -1.20169 -1.69039 0
M  V30 11818 C 1101.36 0.234509 -1.86632 0
M  V30 11819 O 1100.71 1.16935 -1.38549 0
M  V30 11820 C 1100.76 -1.91852 -3.05328 0
M  V30 11821 O 1099.87 -1.23448 -3.9349 0
M  V30 11822 H 1099.21 -0.416486 -0.517141 0
M  V30 11823 H 1101.74 -1.70826 -1.12603 0
M  V30 11824 H 1101.75 -2.00244 -3.5548 0
M  V30 11825 H 1100.42 -2.96313 -2.91841 0
M  V30 11826 H 1099 -1.23303 -3.51924 0
M  V30 11827 N 1101.18 1.11143 -1.11736 0
M  V30 11828 C 1102.11 2.19339 -0.800795 0
M  V30 11829 C 1103.1 1.68508 0.23221 0
M  V30 11830 O 1104.28 1.93967 0.0950063 0
M  V30 11831 C 1101.41 3.46424 -0.246579 0
M  V30 11832 C 1100.36 4.10487 -1.21181 0
M  V30 11833 C 1099.69 5.32183 -0.518158 0
M  V30 11834 C 1100.99 4.55052 -2.56368 0
M  V30 11835 H 1102.68 2.46077 -1.70548 0
M  V30 11836 H 1100.23 1.18271 -0.821454 0
M  V30 11837 H 1102.18 4.21398 -0.0128889 0
M  V30 11838 H 1100.91 3.19154 0.693415 0
M  V30 11839 H 1099.57 3.3751 -1.43118 0
M  V30 11840 H 1099.21 5.01187 0.426742 0
M  V30 11841 H 1098.91 5.75997 -1.16196 0
M  V30 11842 H 1100.44 6.09895 -0.293333 0
M  V30 11843 H 1101.85 5.21335 -2.38501 0
M  V30 11844 H 1100.25 5.0969 -3.16758 0
M  V30 11845 H 1101.32 3.68343 -3.1536 0
M  V30 11846 N 1102.66 0.908147 1.28804 0
M  V30 11847 C 1103.89 0.55409 1.99343 0
M  V30 11848 C 1104.31 -0.863262 1.67908 0
M  V30 11849 O 1103.66 -1.571 0.92875 0
M  V30 11850 C 1103.71 0.746916 3.537 0
M  V30 11851 O 1103.43 2.10849 3.84024 0
M  V30 11852 C 1104.94 0.398939 4.41501 0
M  V30 11853 H 1102.16 0.211784 0.636701 0
M  V30 11854 H 1104.7 1.21981 1.64137 0
M  V30 11855 H 1102.85 0.128264 3.87188 0
M  V30 11856 H 1103.27 2.14404 4.78676 0
M  V30 11857 H 1104.74 0.584656 5.48895 0
M  V30 11858 H 1105.22 -0.664517 4.34144 0
M  V30 11859 H 1105.83 0.994892 4.135 0
M  V30 11860 N 1104.14 -1.42577 0.671525 0
M  V30 11861 C 1105.37 -2.05924 0.200731 0
M  V30 11862 C 1105.78 -1.50434 -1.14083 0
M  V30 11863 O 1105.14 -0.642845 -1.70803 0
M  V30 11864 C 1105.19 -3.61289 0.123505 0
M  V30 11865 O 1104.91 -4.1472 1.41205 0
M  V30 11866 C 1106.41 -4.41743 -0.371178 0
M  V30 11867 H 1103.63 -0.663746 0.0983958 0
M  V30 11868 H 1106.18 -1.82771 0.917338 0
M  V30 11869 H 1104.33 -3.83565 -0.543769 0
M  V30 11870 H 1104.75 -5.0856 1.28325 0
M  V30 11871 H 1106.22 -5.50731 -0.374128 0
M  V30 11872 H 1106.7 -4.16092 -1.40585 0
M  V30 11873 H 1107.3 -4.24478 0.264244 0
M  V30 11874 N 1105.62 -0.414636 -1.52048 0
M  V30 11875 C 1107.03 0.0537107 -1.86623 0
M  V30 11876 C 1107.38 1.43955 -1.3331 0
M  V30 11877 O 1106.51 2.05616 -0.674606 0
M  V30 11878 C 1107.1 0.104241 -3.3864 0
M  V30 11879 C 1105.66 0.516936 -3.72833 0
M  V30 11880 C 1104.81 -0.305042 -2.75617 0
M  V30 11881 H 1107.76 -0.631469 -1.45596 0
M  V30 11882 H 1107.78 0.918395 -3.6925 0
M  V30 11883 H 1107.29 -0.904523 -3.77412 0
M  V30 11884 H 1105.39 1.53214 -3.39641 0
M  V30 11885 H 1105.5 0.2575 -4.78408 0
M  V30 11886 H 1103.87 0.233416 -2.53628 0
M  V30 11887 H 1104.65 -1.31226 -3.1723 0
M  V30 11888 N 1107.1 1.56929 -0.145233 0
M  V30 11889 C 1108.03 2.13796 0.826078 0
M  V30 11890 C 1109.04 1.08697 1.21197 0
M  V30 11891 O 1110.23 1.3598 1.15635 0
M  V30 11892 C 1107.33 2.6443 2.11967 0
M  V30 11893 C 1106.5 3.9391 1.90142 0
M  V30 11894 C 1105.56 4.29872 3.03474 0
M  V30 11895 O 1104.59 4.98227 2.75242 0
M  V30 11896 N 1105.79 3.8931 4.30602 0
M  V30 11897 H 1108.56 2.97764 0.340073 0
M  V30 11898 H 1106.12 1.61854 0.0383928 0
M  V30 11899 H 1108.11 2.85502 2.86829 0
M  V30 11900 H 1106.68 1.85196 2.51836 0
M  V30 11901 H 1105.9 3.81481 0.993268 0
M  V30 11902 H 1107.19 4.78523 1.72896 0
M  V30 11903 H 1106.58 3.34229 4.56407 0
M  V30 11904 H 1105.14 4.15438 5.0225 0
M  V30 11905 N 1108.58 -0.128553 1.57075 0
M  V30 11906 C 1109.53 -1.16373 1.96065 0
M  V30 11907 C 1110.51 -1.37579 0.834323 0
M  V30 11908 O 1111.7 -1.38831 1.09795 0
M  V30 11909 C 1108.83 -2.49276 2.36043 0
M  V30 11910 C 1107.92 -2.31586 3.55287 0
M  V30 11911 N 1108.31 -1.83688 4.71267 0
M  V30 11912 C 1106.61 -2.62275 3.60732 0
M  V30 11913 C 1107.31 -1.79479 5.53319 0
M  V30 11914 N 1106.28 -2.23474 4.95541 0
M  V30 11915 H 1110.08 -0.785792 2.832 0
M  V30 11916 H 1107.6 -0.33641 1.58877 0
M  V30 11917 H 1109.6 -3.24134 2.62188 0
M  V30 11918 H 1108.26 -2.87837 1.50267 0
M  V30 11919 H 1109.27 -1.53376 4.94668 0
M  V30 11920 H 1105.94 -3.04586 2.85541 0
M  V30 11921 H 1107.33 -1.43781 6.56336 0
M  V30 11922 N 1110.05 -1.5248 -0.398459 0
M  V30 11923 C 1111.3 -1.66287 -1.14155 0
M  V30 11924 C 1111.62 -0.40429 -1.91376 0
M  V30 11925 O 1112.82 -0.422341 -2.68195 0
M  V30 11926 C 1111.28 -2.93831 -2.07825 0
M  V30 11927 C 1110.89 -4.26836 -1.3607 0
M  V30 11928 C 1112.63 -3.17004 -2.82327 0
M  V30 11929 C 1110.54 -5.45495 -2.28451 0
M  V30 11930 H 1109.47 -0.619478 -0.42984 0
M  V30 11931 H 1112.12 -1.78972 -0.405112 0
M  V30 11932 H 1110.5 -2.7487 -2.85065 0
M  V30 11933 H 1111.67 -4.56317 -0.641205 0
M  V30 11934 H 1109.99 -4.0985 -0.735659 0
M  V30 11935 H 1112.59 -4.02834 -3.51609 0
M  V30 11936 H 1112.93 -2.3168 -3.45876 0
M  V30 11937 H 1113.46 -3.36487 -2.12183 0
M  V30 11938 H 1110.2 -6.33198 -1.69532 0
M  V30 11939 H 1109.72 -5.20338 -2.98343 0
M  V30 11940 H 1111.4 -5.78996 -2.88743 0
M  V30 11941 N 1111.53 0.65634 -1.43283 0
M  V30 11942 C 1112.76 1.44906 -1.48382 0
M  V30 11943 C 1113.18 1.87823 -0.101993 0
M  V30 11944 O 1112.54 1.57178 0.903597 0
M  V30 11945 C 1112.59 2.66231 -2.43215 0
M  V30 11946 O 1111.69 3.65176 -1.91625 0
M  V30 11947 H 1111.03 0.434601 -0.502014 0
M  V30 11948 H 1113.56 0.803429 -1.88165 0
M  V30 11949 H 1113.57 3.14083 -2.60414 0
M  V30 11950 H 1112.25 2.34336 -3.43598 0
M  V30 11951 H 1110.82 3.24302 -1.84072 0
M  V30 11952 N 1113.01 1.29761 0.894412 0
M  V30 11953 C 1114.24 1.2094 1.67872 0
M  V30 11954 C 1114.65 -0.229192 1.87404 0
M  V30 11955 O 1114.01 -1.15278 1.41482 0
M  V30 11956 C 1114.06 1.92424 3.06032 0
M  V30 11957 O 1113.78 3.30665 2.87388 0
M  V30 11958 C 1115.28 1.90144 4.0045 0
M  V30 11959 H 1112.5 0.418942 0.524145 0
M  V30 11960 H 1115.05 1.71226 1.11813 0
M  V30 11961 H 1113.2 1.4596 3.58851 0
M  V30 11962 H 1113.62 3.66741 3.74969 0
M  V30 11963 H 1115.09 2.44716 4.94791 0
M  V30 11964 H 1115.57 0.878175 4.30331 0
M  V30 11965 H 1116.17 2.36375 3.53563 0
M  V30 11966 N 1114.49 -1.10549 1.12324 0
M  V30 11967 C 1115.74 -1.81851 0.872531 0
M  V30 11968 C 1116.05 -1.86058 -0.603468 0
M  V30 11969 O 1117.26 -2.53553 -0.970736 0
M  V30 11970 C 1115.71 -3.26631 1.51131 0
M  V30 11971 C 1115.32 -3.30725 3.02201 0
M  V30 11972 C 1117.06 -4.02768 1.34082 0
M  V30 11973 C 1114.97 -4.69957 3.59018 0
M  V30 11974 H 1113.9 -0.681422 0.322769 0
M  V30 11975 H 1116.55 -1.24332 1.34959 0
M  V30 11976 H 1114.93 -3.8414 0.961913 0
M  V30 11977 H 1116.11 -2.83046 3.63623 0
M  V30 11978 H 1114.42 -2.68072 3.18632 0
M  V30 11979 H 1117.02 -5.05612 1.73955 0
M  V30 11980 H 1117.36 -4.15328 0.284369 0
M  V30 11981 H 1117.9 -3.51671 1.85937 0
M  V30 11982 H 1114.63 -4.62597 4.64418 0
M  V30 11983 H 1114.15 -5.18008 3.02371 0
M  V30 11984 H 1115.83 -5.38925 3.58007 0
M  V30 11985 N 1115.97 -0.914965 -1.28321 0
M  V30 11986 C 1116.9 -0.421292 -2.29668 0
M  V30 11987 C 1117.88 0.511743 -1.6222 0
M  V30 11988 O 1119.06 0.419218 -1.89621 0
M  V30 11989 C 1116.19 0.338364 -3.45648 0
M  V30 11990 C 1115.15 -0.505646 -4.25003 0
M  V30 11991 C 1114.47 0.382421 -5.33331 0
M  V30 11992 C 1115.77 -1.76354 -4.91626 0
M  V30 11993 H 1117.47 -1.26826 -2.71211 0
M  V30 11994 H 1115.01 -0.611291 -1.30381 0
M  V30 11995 H 1116.96 0.694578 -4.15636 0
M  V30 11996 H 1115.69 1.21925 -3.02988 0
M  V30 11997 H 1114.35 -0.844395 -3.56743 0
M  V30 11998 H 1114 1.26189 -4.86914 0
M  V30 11999 H 1113.7 -0.17871 -5.87328 0
M  V30 12000 H 1115.22 0.73449 -6.06166 0
M  V30 12001 H 1116.63 -1.47616 -5.5397 0
M  V30 12002 H 1115.03 -2.26717 -5.55625 0
M  V30 12003 H 1116.1 -2.49063 -4.16048 0
M  V30 12004 N 1117.44 1.42219 -0.679077 0
M  V30 12005 C 1118.37 2.33493 -0.0174528 0
M  V30 12006 C 1119.35 1.50915 0.78477 0
M  V30 12007 O 1120.54 1.79504 0.741065 0
M  V30 12008 C 1117.67 3.34576 0.931463 0
M  V30 12009 C 1116.62 4.2734 0.237527 0
M  V30 12010 C 1115.95 5.18664 1.29967 0
M  V30 12011 C 1117.25 5.14729 -0.886082 0
M  V30 12012 H 1118.94 2.89068 -0.779748 0
M  V30 12013 H 1116.49 1.38993 -0.376419 0
M  V30 12014 H 1118.44 3.97343 1.40343 0
M  V30 12015 H 1117.17 2.77315 1.72523 0
M  V30 12016 H 1115.83 3.65973 -0.214245 0
M  V30 12017 H 1115.47 4.57727 2.08554 0
M  V30 12018 H 1115.17 5.81558 0.840463 0
M  V30 12019 H 1116.7 5.84308 1.77249 0
M  V30 12020 H 1118.11 5.71158 -0.495141 0
M  V30 12021 H 1116.51 5.86478 -1.27135 0
M  V30 12022 H 1117.58 4.52874 -1.733 0
M  V30 12023 N 1118.92 0.422693 1.51826 0
M  V30 12024 C 1119.83 -0.40261 2.31119 0
M  V30 12025 C 1120.85 -1.04117 1.39412 0
M  V30 12026 O 1122.02 -1.03973 1.72486 0
M  V30 12027 C 1119.09 -1.49699 3.12716 0
M  V30 12028 C 1118.15 -0.880088 4.20182 0
M  V30 12029 C 1117.38 -1.92232 4.97878 0
M  V30 12030 O 1117.61 -3.14246 4.76031 0
M  V30 12031 O 1116.54 -1.521 5.82365 0
M  V30 12032 H 1120.37 0.244308 3.02716 0
M  V30 12033 H 1117.95 0.185569 1.48243 0
M  V30 12034 H 1119.83 -2.13202 3.63487 0
M  V30 12035 H 1118.51 -2.12826 2.43899 0
M  V30 12036 H 1117.41 -0.207404 3.73525 0
M  V30 12037 H 1118.75 -0.292535 4.9133 0
M  V30 12038 N 1120.4 -1.5685 0.153553 0
M  V30 12039 C 1121.31 -2.20664 -0.796528 0
M  V30 12040 C 1122.33 -1.19289 -1.26674 0
M  V30 12041 O 1123.5 -1.51889 -1.32256 0
M  V30 12042 C 1120.57 -2.82088 -2.01561 0
M  V30 12043 C 1119.63 -3.9861 -1.59401 0
M  V30 12044 C 1118.86 -4.57096 -2.75498 0
M  V30 12045 O 1119.08 -4.14462 -3.9189 0
M  V30 12046 O 1118.02 -5.47254 -2.50593 0
M  V30 12047 H 1121.84 -3.02376 -0.283282 0
M  V30 12048 H 1119.43 -1.49218 -0.0737927 0
M  V30 12049 H 1121.31 -3.21103 -2.72893 0
M  V30 12050 H 1119.99 -2.03385 -2.51826 0
M  V30 12051 H 1118.89 -3.64299 -0.850725 0
M  V30 12052 H 1120.23 -4.78853 -1.13845 0
M  V30 12053 N 1121.88 0.120221 -1.57141 0
M  V30 12054 C 1123.11 0.842441 -1.88972 0
M  V30 12055 C 1123.52 1.73494 -0.744671 0
M  V30 12056 O 1122.88 1.80268 0.284557 0
M  V30 12057 C 1122.93 1.67688 -3.20254 0
M  V30 12058 O 1122.65 0.820319 -4.30351 0
M  V30 12059 C 1124.15 2.50436 -3.65782 0
M  V30 12060 H 1121.37 0.242241 -0.625748 0
M  V30 12061 H 1123.91 0.104978 -2.0423 0
M  V30 12062 H 1122.07 2.36712 -3.0667 0
M  V30 12063 H 1122.48 1.39575 -5.05588 0
M  V30 12064 H 1123.96 3.04518 -4.60405 0
M  V30 12065 H 1124.43 3.27737 -2.92378 0
M  V30 12066 H 1125.04 1.86657 -3.82151 0
M  V30 12067 N 1123.36 1.52689 0.390367 0
M  V30 12068 C 1124.77 1.59623 0.968366 0
M  V30 12069 C 1125.12 0.44824 1.91011 0
M  V30 12070 O 1124.24 -0.428868 2.12108 0
M  V30 12071 C 1124.84 2.89312 1.76306 0
M  V30 12072 C 1123.4 2.98664 2.29079 0
M  V30 12073 C 1122.54 2.54725 1.09593 0
M  V30 12074 H 1125.5 1.57787 0.169959 0
M  V30 12075 H 1125.52 2.75721 2.62217 0
M  V30 12076 H 1125.03 3.72846 1.07738 0
M  V30 12077 H 1123.13 2.19665 3.00962 0
M  V30 12078 H 1123.24 4.03277 2.58659 0
M  V30 12079 H 1121.61 2.09012 1.45554 0
M  V30 12080 H 1122.39 3.40651 0.425625 0
M  V30 12081 N 1124.83 -0.648732 1.43629 0
M  V30 12082 C 1126.06 -1.44117 1.49148 0
M  V30 12083 C 1126.48 -1.87767 0.111952 0
M  V30 12084 O 1125.84 -1.57655 -0.895249 0
M  V30 12085 C 1125.89 -2.64938 2.44623 0
M  V30 12086 O 1124.99 -3.64155 1.93559 0
M  V30 12087 H 1124.34 -0.431933 0.504312 0
M  V30 12088 H 1126.87 -0.793439 1.88589 0
M  V30 12089 H 1126.88 -3.12698 2.62076 0
M  V30 12090 H 1125.55 -2.3251 3.44836 0
M  V30 12091 H 1124.13 -3.23322 1.85789 0
M  V30 12092 N 1126.31 -1.30234 -0.887518 0
M  V30 12093 C 1127.24 -1.12212 -1.99853 0
M  V30 12094 C 1128.26 -0.0660929 -1.62666 0
M  V30 12095 O 1129.45 -0.311853 -1.75755 0
M  V30 12096 C 1126.55 -0.688591 -3.31831 0
M  V30 12097 C 1125.72 -1.82581 -3.97471 0
M  V30 12098 C 1124.78 -1.38126 -5.07748 0
M  V30 12099 O 1123.8 -2.08805 -5.29518 0
M  V30 12100 N 1125.01 -0.258868 -5.79923 0
M  V30 12101 H 1127.77 -2.07901 -2.15864 0
M  V30 12102 H 1125.33 -1.22336 -1.06045 0
M  V30 12103 H 1127.32 -0.374252 -4.02966 0
M  V30 12104 H 1125.89 0.176185 -3.12103 0
M  V30 12105 H 1125.11 -2.3084 -3.19541 0
M  V30 12106 H 1126.4 -2.58798 -4.38065 0
M  V30 12107 H 1125.8 0.330131 -5.64736 0
M  V30 12108 H 1124.36 -0.00396813 -6.518 0
M  V30 12109 N 1127.79 1.09952 -1.12909 0
M  V30 12110 C 1129.04 1.81657 -0.885729 0
M  V30 12111 C 1129.36 1.85863 0.589913 0
M  V30 12112 O 1128.63 1.34028 1.42875 0
M  V30 12113 H 1127.21 0.672743 -0.324694 0
M  V30 12114 H 1129.87 1.33013 -1.42456 0
M  V30 12115 H 1128.97 2.85018 -1.27167 0
M  V30 12116 N 1129.27 0.921757 1.27833 0
M  V30 12117 C 1130.55 0.477706 1.89677 0
M  V30 12118 C 1130.93 -1.04392 1.83481 0
M  V30 12119 O 1130.27 -1.89549 1.27606 0
M  V30 12120 C 1130.48 1.01709 3.33851 0
M  V30 12121 C 1131.83 1.074 4.10792 0
M  V30 12122 O 1132.86 0.966295 3.42843 0
M  V30 12123 O 1131.71 1.23909 5.32268 0
M  V30 12124 H 1128.81 0.15271 0.812778 0
M  V30 12125 H 1131.35 1.01306 1.36144 0
M  V30 12126 H 1130.13 2.061 3.32623 0
M  V30 12127 H 1129.75 0.463031 3.94895 0
M  V30 12128 N 1130.75 -1.41857 0.686609 0
M  V30 12129 C 1132.16 -1.55549 0.357288 0
M  V30 12130 C 1132.36 -1.66394 -1.13646 0
M  V30 12131 O 1131.42 -1.63739 -1.92213 0
M  V30 12132 C 1132.73 -2.79938 1.09796 0
M  V30 12133 C 1134.28 -2.93724 1.08143 0
M  V30 12134 C 1134.75 -4.20989 1.80367 0
M  V30 12135 N 1136.25 -4.27927 1.77293 0
M  V30 12136 C 1136.98 -5.2524 2.30022 0
M  V30 12137 N 1136.48 -6.28636 2.91185 0
M  V30 12138 N 1138.27 -5.17118 2.20329 0
M  V30 12139 H 1130.42 -1.33063 1.65554 0
M  V30 12140 H 1132.68 -0.641335 0.698135 0
M  V30 12141 H 1132.39 -2.78104 2.15293 0
M  V30 12142 H 1132.26 -3.71188 0.670763 0
M  V30 12143 H 1134.65 -2.9508 0.0347554 0
M  V30 12144 H 1134.73 -2.03673 1.54761 0
M  V30 12145 H 1134.38 -4.20395 2.85009 0
M  V30 12146 H 1134.31 -5.09997 1.3119 0
M  V30 12147 H 1136.8 -3.53838 1.32692 0
M  V30 12148 H 1137.11 -6.99265 3.29011 0
M  V30 12149 H 1135.45 -6.29164 2.95259 0
M  V30 12150 H 1138.65 -4.35265 1.72226 0
M  V30 12151 H 1138.82 -5.92792 2.61728 0
M  V30 12152 N 1132.22 -0.430739 -1.51599 0
M  V30 12153 C 1133.64 0.0339139 -1.86669 0
M  V30 12154 C 1133.99 1.42533 -1.34829 0
M  V30 12155 O 1133.11 2.04889 -0.696376 0
M  V30 12156 C 1133.71 0.0683174 -3.38731 0
M  V30 12157 C 1132.27 0.477363 -3.73361 0
M  V30 12158 C 1131.41 -0.334258 -2.75278 0
M  V30 12159 H 1134.36 -0.646875 -1.44918 0
M  V30 12160 H 1134.38 0.879179 -3.70204 0
M  V30 12161 H 1133.9 -0.944501 -3.76432 0
M  V30 12162 H 1132 1.49603 -3.41247 0
M  V30 12163 H 1132.11 0.206744 -4.78654 0
M  V30 12164 H 1130.47 0.206503 -2.53861 0
M  V30 12165 H 1131.26 -1.34583 -3.1582 0
M  V30 12166 N 1133.7 1.56767 -0.161869 0
M  V30 12167 C 1134.63 2.20511 0.767918 0
M  V30 12168 C 1135.61 1.15783 1.24612 0
M  V30 12169 O 1136.8 1.44179 1.301 0
M  V30 12170 C 1133.93 2.83844 2.00125 0
M  V30 12171 C 1132.88 3.94528 1.65926 0
M  V30 12172 C 1132.21 4.44866 2.96646 0
M  V30 12173 C 1133.51 5.14583 0.894497 0
M  V30 12174 H 1135.2 2.98464 0.236607 0
M  V30 12175 H 1132.75 1.43561 0.112363 0
M  V30 12176 H 1134.7 3.27109 2.65664 0
M  V30 12177 H 1133.43 2.03246 2.55654 0
M  V30 12178 H 1132.08 3.51904 1.02759 0
M  V30 12179 H 1131.73 3.61071 3.50196 0
M  V30 12180 H 1131.43 5.19531 2.74521 0
M  V30 12181 H 1132.96 4.90812 3.6323 0
M  V30 12182 H 1134.37 5.54601 1.45228 0
M  V30 12183 H 1132.77 5.95105 0.772636 0
M  V30 12184 H 1133.84 4.84773 -0.110986 0
M  V30 12185 N 1135.18 -0.111886 1.57202 0
M  V30 12186 C 1136.11 -1.13796 2.03894 0
M  V30 12187 C 1137.09 -1.4277 0.924696 0
M  V30 12188 O 1138.28 -1.53089 1.19488 0
M  V30 12189 C 1135.41 -2.46229 2.44925 0
M  V30 12190 C 1134.36 -2.31702 3.59859 0
M  V30 12191 C 1133.69 -3.69161 3.86813 0
M  V30 12192 C 1134.99 -1.77158 4.91337 0
M  V30 12193 H 1136.68 -0.749581 2.89865 0
M  V30 12194 H 1134.23 -0.359126 1.3945 0
M  V30 12195 H 1136.18 -3.18267 2.76195 0
M  V30 12196 H 1134.9 -2.86971 1.55933 0
M  V30 12197 H 1133.56 -1.62112 3.28809 0
M  V30 12198 H 1133.21 -4.07401 2.95015 0
M  V30 12199 H 1132.91 -3.60292 4.6418 0
M  V30 12200 H 1134.43 -4.42693 4.20542 0
M  V30 12201 H 1135.85 -2.3902 5.21097 0
M  V30 12202 H 1134.25 -1.79091 5.72753 0
M  V30 12203 H 1135.32 -0.729675 4.79379 0
M  V30 12204 N 1136.66 -1.52894 -0.382264 0
M  V30 12205 C 1137.91 -1.67933 -1.1244 0
M  V30 12206 C 1138.23 -0.425166 -1.90309 0
M  V30 12207 O 1137.5 0.560557 -1.87709 0
M  V30 12208 H 1136.08 -0.619047 -0.418079 0
M  V30 12209 H 1138.74 -1.90031 -0.432928 0
M  V30 12210 H 1137.84 -2.53285 -1.82355 0
M  V30 12211 N 1138.14 0.641106 -1.43971 0
M  V30 12212 C 1139.37 1.42829 -1.49692 0
M  V30 12213 C 1139.78 1.88427 -0.118594 0
M  V30 12214 O 1139.14 1.60234 0.873581 0
M  V30 12215 C 1139.19 2.65524 -2.45314 0
M  V30 12216 O 1138.91 2.2183 -3.77787 0
M  V30 12217 C 1140.41 3.58758 -2.60399 0
M  V30 12218 H 1137.63 0.438367 -0.508011 0
M  V30 12219 H 1140.17 0.784933 -1.88836 0
M  V30 12220 H 1138.33 3.25973 -2.09332 0
M  V30 12221 H 1138.74 3.01303 -4.29321 0
M  V30 12222 H 1140.22 4.41483 -3.31357 0
M  V30 12223 H 1140.69 4.06909 -1.65294 0
M  V30 12224 H 1141.3 3.04184 -2.97241 0
M  V30 12225 N 1139.62 1.30703 0.880598 0
M  V30 12226 C 1140.53 1.19389 2.01949 0
M  V30 12227 C 1141.54 0.112868 1.73634 0
M  V30 12228 O 1142.72 0.328643 1.98701 0
M  V30 12229 C 1139.78 0.891004 3.35055 0
M  V30 12230 C 1138.84 2.05784 3.76764 0
M  V30 12231 C 1138.08 1.76931 5.03519 0
M  V30 12232 O 1138.3 0.699326 5.66097 0
M  V30 12233 O 1137.23 2.623 5.4174 0
M  V30 12234 H 1141.06 2.15073 2.14423 0
M  V30 12235 H 1138.64 1.10339 1.00726 0
M  V30 12236 H 1140.53 0.737476 4.14897 0
M  V30 12237 H 1139.2 -0.0358909 3.2368 0
M  V30 12238 H 1138.11 2.26672 2.97608 0
M  V30 12239 H 1139.44 2.96661 3.9275 0
M  V30 12240 N 1141.09 -1.09351 1.1349 0
M  V30 12241 C 1142.34 -1.81812 0.898452 0
M  V30 12242 C 1142.67 -1.85525 -0.573959 0
M  V30 12243 O 1141.95 -1.32403 -1.42477 0
M  V30 12244 C 1142.23 -3.27921 1.48794 0
M  V30 12245 C 1142.08 -3.32476 3.02952 0
M  V30 12246 C 1143.4 -4.24625 1.15678 0
M  V30 12247 H 1140.52 -0.660074 0.327829 0
M  V30 12248 H 1143.16 -1.28091 1.40331 0
M  V30 12249 H 1141.31 -3.738 1.05858 0
M  V30 12250 H 1142.99 -2.94994 3.54649 0
M  V30 12251 H 1141.23 -2.72037 3.37903 0
M  V30 12252 H 1141.9 -4.35409 3.39298 0
M  V30 12253 H 1144.38 -3.87036 1.52781 0
M  V30 12254 H 1143.25 -5.25194 1.59571 0
M  V30 12255 H 1143.51 -4.42044 0.0705933 0
M  V30 12256 N 1142.57 -0.928524 -1.27343 0
M  V30 12257 C 1143.8 -0.58516 -1.98974 0
M  V30 12258 C 1144.22 0.829964 -1.68799 0
M  V30 12259 O 1143.58 1.55705 -0.928738 0
M  V30 12260 C 1143.63 -0.818662 -3.51184 0
M  V30 12261 O 1142.73 0.115355 -4.12239 0
M  V30 12262 H 1142.07 -0.225203 -0.624644 0
M  V30 12263 H 1144.6 -1.248 -1.6213 0
M  V30 12264 H 1144.61 -0.734554 -4.01333 0
M  V30 12265 H 1143.29 -1.8502 -3.72479 0
M  V30 12266 H 1141.86 -0.0187371 -3.72895 0
M  V30 12267 N 1144.05 1.41491 -0.694123 0
M  V30 12268 C 1145.01 2.2917 -0.0368562 0
M  V30 12269 C 1146.01 1.44305 0.709426 0
M  V30 12270 O 1147.2 1.6547 0.544533 0
M  V30 12271 C 1144.33 3.27156 0.958201 0
M  V30 12272 H 1145.53 2.88787 -0.808829 0
M  V30 12273 H 1143.08 1.49453 -0.457538 0
M  V30 12274 H 1143.82 2.72516 1.75799 0
M  V30 12275 H 1143.6 3.89776 0.426227 0
M  V30 12276 H 1145.09 3.92863 1.41592 0
M  V30 12277 N 1145.53 0.438773 1.51369 0
M  V30 12278 C 1146.94 -0.0240139 1.86685 0
M  V30 12279 C 1147.29 -1.41816 1.35583 0
M  V30 12280 O 1146.41 -2.04517 0.707232 0
M  V30 12281 C 1147.01 -0.0503527 3.38763 0
M  V30 12282 C 1145.57 -0.457556 3.73609 0
M  V30 12283 C 1144.72 0.348852 2.75097 0
M  V30 12284 H 1147.67 0.654552 1.44573 0
M  V30 12285 H 1147.69 -0.859534 3.70665 0
M  V30 12286 H 1147.2 0.964451 3.75925 0
M  V30 12287 H 1145.3 -1.47791 3.42036 0
M  V30 12288 H 1145.41 -0.181357 4.78757 0
M  V30 12289 H 1143.78 -0.193037 2.53967 0
M  V30 12290 H 1144.56 1.36256 3.15102 0
M  V30 12291 N 1147.01 -1.56678 0.170181 0
M  V30 12292 C 1148.25 -1.98743 -0.477534 0
M  V30 12293 C 1148.61 -1.0538 -1.60497 0
M  V30 12294 O 1149.81 -1.3658 -2.31515 0
M  V30 12295 C 1148.08 -3.44565 -0.949186 0
M  V30 12296 S 1149.64 -4.08658 -1.59824 0
M  V30 12297 H 1146.46 -0.694202 -0.153639 0
M  V30 12298 H 1149.06 -1.93663 0.267373 0
M  V30 12299 H 1147.76 -4.1023 -0.118205 0
M  V30 12300 H 1147.3 -3.53409 -1.72816 0
M  V30 12301 H 1149.31 -4.03614 -2.88635 0
M  V30 12302 N 1148.48 0.103547 -1.57259 0
M  V30 12303 C 1149.42 1.15225 -1.98131 0
M  V30 12304 C 1150.43 1.36793 -0.882692 0
M  V30 12305 O 1151.62 1.35595 -1.16088 0
M  V30 12306 C 1148.72 2.50941 -2.27776 0
M  V30 12307 C 1147.89 2.49765 -3.59077 0
M  V30 12308 C 1146.95 3.67344 -3.76756 0
M  V30 12309 O 1145.98 3.50221 -4.48702 0
M  V30 12310 N 1147.18 4.86504 -3.16692 0
M  V30 12311 H 1149.94 0.804448 -2.88702 0
M  V30 12312 H 1147.5 0.292636 -1.59233 0
M  V30 12313 H 1149.5 3.28186 -2.36804 0
M  V30 12314 H 1148.07 2.77843 -1.43255 0
M  V30 12315 H 1147.29 1.58125 -3.61096 0
M  V30 12316 H 1148.57 2.4605 -4.4535 0
M  V30 12317 H 1147.97 5.03319 -2.58236 0
M  V30 12318 H 1146.53 5.61371 -3.31218 0
M  V30 12319 N 1149.96 1.53094 0.37415 0
M  V30 12320 C 1151.21 1.68527 1.11548 0
M  V30 12321 C 1151.53 0.435253 1.9008 0
M  V30 12322 O 1150.8 -0.550594 1.88003 0
M  V30 12323 H 1149.38 0.621255 0.41479 0
M  V30 12324 H 1152.04 1.90258 0.422844 0
M  V30 12325 H 1151.14 2.54248 1.81009 0
M  V30 12326 N 1151.44 -0.633461 1.44309 0
M  V30 12327 C 1152.85 -1.21504 1.41752 0
M  V30 12328 C 1153.2 -1.95758 0.131667 0
M  V30 12329 O 1152.33 -2.02311 -0.768072 0
M  V30 12330 C 1152.92 -2.21005 2.56792 0
M  V30 12331 C 1151.48 -2.74596 2.57438 0
M  V30 12332 C 1150.63 -1.49555 2.33513 0
M  V30 12333 H 1153.58 -0.424277 1.52923 0
M  V30 12334 H 1153.6 -3.03563 2.29412 0
M  V30 12335 H 1153.11 -1.66934 3.50364 0
M  V30 12336 H 1151.21 -3.32676 1.67801 0
M  V30 12337 H 1151.33 -3.20794 3.55849 0
M  V30 12338 H 1149.69 -1.77605 1.82561 0
M  V30 12339 H 1150.47 -0.973899 3.29196 0
M  V30 12340 N 1152.92 -1.31168 -0.873655 0
M  V30 12341 C 1154.14 -1.23728 -1.66452 0
M  V30 12342 C 1154.57 0.194869 -1.87088 0
M  V30 12343 O 1153.93 1.1397 -1.40998 0
M  V30 12344 C 1153.97 -1.98285 -3.0119 0
M  V30 12345 O 1153.08 -1.31767 -3.90783 0
M  V30 12346 H 1152.42 -0.427362 -0.508191 0
M  V30 12347 H 1154.95 -1.73176 -1.08955 0
M  V30 12348 H 1154.96 -2.0774 -3.51153 0
M  V30 12349 H 1153.63 -3.02437 -2.8549 0
M  V30 12350 H 1152.21 -1.3074 -3.4923 0
M  V30 12351 N 1154.4 1.08748 -1.14068 0
M  V30 12352 C 1155.34 2.15573 -0.824425 0
M  V30 12353 C 1156.31 1.64683 0.216522 0
M  V30 12354 O 1157.5 1.90601 0.0872193 0
M  V30 12355 C 1154.64 3.43756 -0.30423 0
M  V30 12356 C 1153.75 4.08512 -1.40506 0
M  V30 12357 C 1152.89 5.24477 -0.842479 0
M  V30 12358 C 1151.93 5.81167 -1.92123 0
M  V30 12359 N 1151.06 6.88483 -1.37608 0
M  V30 12360 H 1155.9 2.41968 -1.73941 0
M  V30 12361 H 1153.44 1.18751 -0.868143 0
M  V30 12362 H 1155.4 4.17197 0.0155546 0
M  V30 12363 H 1154.03 3.17658 0.573868 0
M  V30 12364 H 1153.08 3.32866 -1.84131 0
M  V30 12365 H 1154.39 4.46669 -2.2201 0
M  V30 12366 H 1153.55 6.04842 -0.474389 0
M  V30 12367 H 1152.28 4.877 0.00355212 0
M  V30 12368 H 1151.29 4.99458 -2.29831 0
M  V30 12369 H 1152.51 6.20003 -2.77079 0
M  V30 12370 H 1150.46 6.53672 -0.552168 0
M  V30 12371 H 1150.38 7.25446 -2.12752 0
M  V30 12372 H 1151.65 7.72588 -1.03578 0
M  V30 12373 N 1155.87 0.935264 1.26849 0
M  V30 12374 C 1157.12 0.578545 1.93642 0
M  V30 12375 C 1157.44 -0.884296 1.73796 0
M  V30 12376 O 1156.71 -1.62768 1.09011 0
M  V30 12377 H 1155.29 0.210976 0.716588 0
M  V30 12378 H 1157.96 1.1893 1.54407 0
M  V30 12379 H 1157.05 0.791268 3.01903 0
M  V30 12380 N 1157.35 -1.41121 0.701616 0
M  V30 12381 C 1158.28 -2.33436 0.0545974 0
M  V30 12382 C 1159.26 -1.52144 -0.760662 0
M  V30 12383 O 1160.45 -1.80661 -0.712414 0
M  V30 12384 C 1157.58 -3.36015 -0.878117 0
M  V30 12385 C 1156.53 -4.27664 -0.169511 0
M  V30 12386 C 1155.86 -5.20666 -1.21699 0
M  V30 12387 C 1157.16 -5.13254 0.967859 0
M  V30 12388 H 1158.85 -2.87791 0.825637 0
M  V30 12389 H 1156.4 -1.38377 0.398484 0
M  V30 12390 H 1158.35 -3.99526 -1.34004 0
M  V30 12391 H 1157.08 -2.80024 -1.68089 0
M  V30 12392 H 1155.73 -3.65586 0.272441 0
M  V30 12393 H 1155.38 -4.60987 -2.01246 0
M  V30 12394 H 1155.08 -5.82822 -0.747836 0
M  V30 12395 H 1156.61 -5.87053 -1.6793 0
M  V30 12396 H 1158.02 -5.70298 0.585944 0
M  V30 12397 H 1156.42 -5.84381 1.3645 0
M  V30 12398 H 1157.49 -4.5006 1.80483 0
M  V30 12399 N 1158.83 -0.446794 -1.51134 0
M  V30 12400 C 1160.06 0.117242 -2.07068 0
M  V30 12401 C 1160.48 1.34877 -1.3111 0
M  V30 12402 O 1159.84 1.77856 -0.35172 0
M  V30 12403 C 1159.89 0.408616 -3.58277 0
M  V30 12404 O 1158.99 1.49345 -3.84408 0
M  V30 12405 H 1158.33 -0.00228458 -0.663996 0
M  V30 12406 H 1160.86 -0.63085 -1.94632 0
M  V30 12407 H 1160.87 0.656298 -4.02687 0
M  V30 12408 H 1159.55 -0.491444 -4.12986 0
M  V30 12409 H 1158.12 1.23499 -3.51856 0
M  V30 12410 N 1160.31 1.56586 -0.178487 0
M  V30 12411 C 1161.72 1.83633 0.337009 0
M  V30 12412 C 1162.07 1.09857 1.6256 0
M  V30 12413 O 1161.2 0.353933 2.13486 0
M  V30 12414 C 1161.79 3.33112 0.618225 0
M  V30 12415 C 1160.35 3.60629 1.07814 0
M  V30 12416 C 1159.5 2.7705 0.117825 0
M  V30 12417 H 1162.45 1.53508 -0.402612 0
M  V30 12418 H 1162.47 3.5098 1.46947 0
M  V30 12419 H 1161.98 3.8678 -0.319808 0
M  V30 12420 H 1160.08 3.12378 2.03103 0
M  V30 12421 H 1160.19 4.68921 0.982339 0
M  V30 12422 H 1158.56 2.47125 0.616563 0
M  V30 12423 H 1159.34 3.33501 -0.814356 0
M  V30 12424 N 1161.79 -0.095206 1.57312 0
M  V30 12425 C 1163.2 -0.449411 1.53142 0
M  V30 12426 C 1163.4 -1.80523 0.895187 0
M  V30 12427 O 1162.46 -2.47746 0.487649 0
M  V30 12428 C 1163.77 -0.412002 2.97864 0
M  V30 12429 C 1165.32 -0.493866 3.09079 0
M  V30 12430 C 1165.79 -0.486606 4.55408 0
M  V30 12431 N 1167.29 -0.547363 4.59955 0
M  V30 12432 C 1168.02 -0.563582 5.70624 0
M  V30 12433 N 1167.52 -0.536015 6.90723 0
M  V30 12434 N 1169.31 -0.608385 5.58798 0
M  V30 12435 H 1161.46 0.792869 1.97047 0
M  V30 12436 H 1163.72 0.295106 0.900898 0
M  V30 12437 H 1163.43 0.517064 3.47878 0
M  V30 12438 H 1163.3 -1.23102 3.56547 0
M  V30 12439 H 1165.69 -1.41335 2.59053 0
M  V30 12440 H 1165.77 0.353286 2.53349 0
M  V30 12441 H 1165.42 0.428935 5.06086 0
M  V30 12442 H 1165.35 -1.35097 5.08976 0
M  V30 12443 H 1167.84 -0.573867 3.73517 0
M  V30 12444 H 1168.15 -0.551671 7.70828 0
M  V30 12445 H 1166.49 -0.503064 6.93177 0
M  V30 12446 H 1169.69 -0.627451 4.63876 0
M  V30 12447 H 1169.86 -0.617556 6.45051 0
M  V30 12448 N 1163.26 -1.53291 -0.366026 0
M  V30 12449 C 1164.51 -1.69451 -1.10872 0
M  V30 12450 C 1164.84 -0.446078 -1.89316 0
M  V30 12451 O 1164.09 0.571962 -1.87155 0
M  V30 12452 C 1164.39 -2.89547 -2.09517 0
M  V30 12453 C 1164.06 -4.26073 -1.47556 0
M  V30 12454 C 1162.72 -4.63199 -1.30386 0
M  V30 12455 C 1165.07 -5.10977 -1.02724 0
M  V30 12456 C 1162.4 -5.82866 -0.669666 0
M  V30 12457 C 1164.75 -6.31289 -0.407052 0
M  V30 12458 C 1163.42 -6.67128 -0.222839 0
M  V30 12459 H 1162.69 -0.620066 -0.405708 0
M  V30 12460 H 1165.33 -1.87475 -0.390563 0
M  V30 12461 H 1163.64 -2.66034 -2.87634 0
M  V30 12462 H 1165.34 -2.99245 -2.66933 0
M  V30 12463 H 1161.93 -3.9684 -1.61914 0
M  V30 12464 H 1166.11 -4.82844 -1.14783 0
M  V30 12465 H 1161.37 -6.09224 -0.515351 0
M  V30 12466 H 1165.54 -6.96381 -0.0514661 0
M  V30 12467 H 1163.17 -7.59718 0.270647 0
M  V30 12468 N 1164.74 0.6258 -1.44643 0
M  V30 12469 C 1166.15 1.20751 -1.42394 0
M  V30 12470 C 1166.5 1.95685 -0.142047 0
M  V30 12471 O 1165.63 2.02715 0.757332 0
M  V30 12472 C 1166.22 2.1964 -2.57961 0
M  V30 12473 C 1164.78 2.73227 -2.5889 0
M  V30 12474 C 1163.93 1.48315 -2.34303 0
M  V30 12475 H 1166.88 0.416162 -1.53146 0
M  V30 12476 H 1166.9 3.02342 -2.31019 0
M  V30 12477 H 1166.41 1.65073 -3.51244 0
M  V30 12478 H 1164.52 3.31782 -1.69563 0
M  V30 12479 H 1164.63 3.18902 -3.57545 0
M  V30 12480 H 1162.99 1.76634 -1.83501 0
M  V30 12481 H 1163.78 0.956427 -3.29708 0
M  V30 12482 N 1166.22 1.31629 0.866686 0
M  V30 12483 C 1167.17 1.19556 1.97421 0
M  V30 12484 C 1168.14 0.0805578 1.65905 0
M  V30 12485 O 1169.32 0.253997 1.89102 0
M  V30 12486 C 1166.46 0.912234 3.32825 0
M  V30 12487 C 1165.58 2.11088 3.76916 0
M  V30 12488 C 1164.71 1.76406 5.01053 0
M  V30 12489 C 1163.75 2.9266 5.37602 0
M  V30 12490 N 1162.89 2.58152 6.52918 0
M  V30 12491 H 1167.73 2.14294 2.0708 0
M  V30 12492 H 1165.26 1.06595 1.0137 0
M  V30 12493 H 1167.22 0.72851 4.1079 0
M  V30 12494 H 1165.85 0.00167404 3.228 0
M  V30 12495 H 1164.9 2.40527 2.94705 0
M  V30 12496 H 1166.22 2.98089 3.99931 0
M  V30 12497 H 1165.37 1.54515 5.86694 0
M  V30 12498 H 1164.11 0.866018 4.79949 0
M  V30 12499 H 1163.11 3.15196 4.50479 0
M  V30 12500 H 1164.34 3.83179 5.6067 0
M  V30 12501 H 1162.28 1.70874 6.33355 0
M  V30 12502 H 1162.2 3.38682 6.75892 0
M  V30 12503 H 1163.47 2.39662 7.41743 0
M  V30 12504 N 1167.7 -1.08142 1.14644 0
M  V30 12505 C 1168.63 -2.15022 0.793614 0
M  V30 12506 C 1169.64 -1.61679 -0.190729 0
M  V30 12507 O 1170.83 -1.78472 0.0313696 0
M  V30 12508 C 1167.93 -3.38532 0.157785 0
M  V30 12509 C 1167.11 -4.21252 1.17753 0
M  V30 12510 C 1166.17 -5.23158 0.564968 0
M  V30 12511 O 1165.19 -5.5578 1.22869 0
M  V30 12512 N 1166.39 -5.7677 -0.657022 0
M  V30 12513 H 1169.16 -2.45893 1.71338 0
M  V30 12514 H 1166.72 -1.23976 1.04122 0
M  V30 12515 H 1168.71 -4.03834 -0.264586 0
M  V30 12516 H 1167.28 -3.05441 -0.665168 0
M  V30 12517 H 1166.5 -3.51888 1.77675 0
M  V30 12518 H 1167.79 -4.73335 1.86632 0
M  V30 12519 H 1167.19 -5.52503 -1.21478 0
M  V30 12520 H 1165.74 -6.4374 -1.02186 0
M  V30 12521 N 1169.18 -0.941978 -1.26351 0
M  V30 12522 C 1170.12 -0.450906 -2.26353 0
M  V30 12523 C 1171.09 0.489857 -1.58712 0
M  V30 12524 O 1172.28 0.40589 -1.86433 0
M  V30 12525 C 1169.42 0.277054 -3.43986 0
M  V30 12526 C 1168.53 -0.699474 -4.263 0
M  V30 12527 C 1167.67 0.0497661 -5.31177 0
M  V30 12528 C 1166.71 -0.918531 -6.05169 0
M  V30 12529 N 1165.84 -0.200993 -7.01812 0
M  V30 12530 H 1170.68 -1.30861 -2.6773 0
M  V30 12531 H 1168.22 -0.656514 -1.31637 0
M  V30 12532 H 1170.18 0.715567 -4.11018 0
M  V30 12533 H 1168.81 1.09889 -3.0352 0
M  V30 12534 H 1167.86 -1.2565 -3.59049 0
M  V30 12535 H 1169.17 -1.4389 -4.77595 0
M  V30 12536 H 1168.33 0.547521 -6.04224 0
M  V30 12537 H 1167.07 0.822068 -4.80722 0
M  V30 12538 H 1166.07 -1.4274 -5.30947 0
M  V30 12539 H 1167.3 -1.69085 -6.57713 0
M  V30 12540 H 1165.24 0.552803 -6.53667 0
M  V30 12541 H 1165.16 -0.879735 -7.50864 0
M  V30 12542 H 1166.43 0.275642 -7.79012 0
M  V30 12543 N 1170.66 1.40747 -0.709091 0
M  V30 12544 C 1171.59 2.33404 -0.0669763 0
M  V30 12545 C 1172.57 1.52546 0.752582 0
M  V30 12546 O 1173.75 1.81036 0.702823 0
M  V30 12547 C 1170.88 3.36476 0.860285 0
M  V30 12548 C 1169.84 4.27748 0.146828 0
M  V30 12549 C 1169.16 5.21304 1.18937 0
M  V30 12550 C 1170.46 5.12734 -0.995064 0
M  V30 12551 H 1172.16 2.87349 -0.840888 0
M  V30 12552 H 1169.7 1.38163 -0.405817 0
M  V30 12553 H 1171.65 4.00231 1.31883 0
M  V30 12554 H 1170.38 2.80912 1.66602 0
M  V30 12555 H 1169.04 3.65437 -0.291826 0
M  V30 12556 H 1168.69 4.62048 1.98798 0
M  V30 12557 H 1168.39 5.8321 0.716917 0
M  V30 12558 H 1169.91 5.87936 1.64815 0
M  V30 12559 H 1171.32 5.69979 -0.61618 0
M  V30 12560 H 1169.72 5.83649 -1.39547 0
M  V30 12561 H 1170.79 4.49097 -1.82867 0
M  V30 12562 N 1172.13 0.454803 1.50895 0
M  V30 12563 C 1173.38 -0.10577 2.02224 0
M  V30 12564 C 1173.71 -1.41176 1.33789 0
M  V30 12565 O 1172.96 -1.90522 0.447181 0
M  V30 12566 C 1173.26 -0.354159 3.55641 0
M  V30 12567 C 1172.93 0.868136 4.42464 0
M  V30 12568 C 1171.59 1.2033 4.65912 0
M  V30 12569 C 1173.94 1.68272 4.93289 0
M  V30 12570 C 1171.27 2.3534 5.37431 0
M  V30 12571 C 1173.62 2.82396 5.6607 0
M  V30 12572 C 1172.29 3.16346 5.87777 0
M  V30 12573 H 1171.56 -0.0387041 0.739989 0
M  V30 12574 H 1174.2 0.605564 1.81673 0
M  V30 12575 H 1172.51 -1.14757 3.74617 0
M  V30 12576 H 1174.21 -0.8016 3.92906 0
M  V30 12577 H 1170.8 0.596995 4.24422 0
M  V30 12578 H 1174.98 1.43698 4.75042 0
M  V30 12579 H 1170.24 2.61936 5.52449 0
M  V30 12580 H 1174.41 3.45873 6.04438 0
M  V30 12581 H 1172.04 4.05574 6.42973 0
M  V30 12582 N 1173.61 -1.56489 0.186789 0
M  V30 12583 C 1175.02 -1.83809 -0.327265 0
M  V30 12584 C 1175.37 -1.10718 -1.61976 0
M  V30 12585 O 1174.5 -0.36525 -2.13295 0
M  V30 12586 C 1175.09 -3.33435 -0.600551 0
M  V30 12587 C 1173.65 -3.61195 -1.059 0
M  V30 12588 C 1172.8 -2.77108 -0.103131 0
M  V30 12589 H 1175.75 -1.53292 0.410747 0
M  V30 12590 H 1175.77 -3.51754 -1.45084 0
M  V30 12591 H 1175.28 -3.86605 0.340315 0
M  V30 12592 H 1173.38 -3.13451 -2.01443 0
M  V30 12593 H 1173.5 -4.69435 -0.957458 0
M  V30 12594 H 1171.86 -2.47448 -0.603449 0
M  V30 12595 H 1172.64 -3.33065 0.832031 0
M  V30 12596 N 1175.09 0.086862 -1.5736 0
M  V30 12597 C 1176.34 0.78884 -1.86504 0
M  V30 12598 C 1176.66 1.78329 -0.77646 0
M  V30 12599 O 1175.92 1.94354 0.229122 0
M  V30 12600 C 1176.22 1.54537 -3.22263 0
M  V30 12601 C 1175.88 0.692284 -4.45554 0
M  V30 12602 C 1174.55 0.45714 -4.79024 0
M  V30 12603 C 1176.9 0.0997695 -5.21105 0
M  V30 12604 C 1174.23 -0.380247 -5.85466 0
M  V30 12605 C 1176.58 -0.724986 -6.28432 0
M  V30 12606 C 1175.24 -0.970144 -6.60412 0
M  V30 12607 H 1174.51 0.288657 -0.682465 0
M  V30 12608 H 1177.16 0.050059 -1.91435 0
M  V30 12609 H 1175.46 2.35594 -3.13053 0
M  V30 12610 H 1177.16 2.09305 -3.42042 0
M  V30 12611 H 1173.75 0.885675 -4.19349 0
M  V30 12612 H 1177.94 0.268583 -4.95573 0
M  V30 12613 H 1173.19 -0.579084 -6.08651 0
M  V30 12614 H 1177.37 -1.19093 -6.86141 0
M  V30 12615 H 1174.99 -1.6208 -7.42721 0
M  V30 12616 N 1176.57 1.53483 0.357892 0
M  V30 12617 C 1177.79 1.74264 1.12458 0
M  V30 12618 C 1178.22 0.473944 1.82031 0
M  V30 12619 O 1177.58 -0.57253 1.72023 0
M  V30 12620 C 1177.62 2.91356 2.12471 0
M  V30 12621 O 1176.73 2.60502 3.19707 0
M  V30 12622 H 1176.07 0.578499 0.325937 0
M  V30 12623 H 1178.6 2.00395 0.412666 0
M  V30 12624 H 1178.61 3.1774 2.5594 0
M  V30 12625 H 1177.28 3.83378 1.61226 0
M  V30 12626 H 1175.86 2.44961 2.81156 0
M  V30 12627 N 1178.05 -0.61812 1.44973 0
M  V30 12628 C 1179.27 -1.40921 1.52171 0
M  V30 12629 C 1179.7 -1.87487 0.151755 0
M  V30 12630 O 1179.05 -1.59518 -0.861606 0
M  V30 12631 C 1179.1 -2.59689 2.50188 0
M  V30 12632 O 1178.21 -3.59967 2.0124 0
M  V30 12633 H 1177.55 -0.421138 0.51336 0
M  V30 12634 H 1180.08 -0.753258 1.90229 0
M  V30 12635 H 1180.09 -3.07069 2.6865 0
M  V30 12636 H 1178.76 -2.25144 3.4969 0
M  V30 12637 H 1177.34 -3.19308 1.92605 0
M  V30 12638 N 1179.52 -1.32087 -0.859693 0
M  V30 12639 C 1180.94 -1.10968 -1.14709 0
M  V30 12640 C 1181.14 0.113139 -2.01182 0
M  V30 12641 O 1180.2 0.799499 -2.39508 0
M  V30 12642 C 1181.51 -2.38657 -1.8293 0
M  V30 12643 C 1183.06 -2.44366 -1.95587 0
M  V30 12644 C 1183.53 -3.71963 -2.67222 0
M  V30 12645 N 1185.02 -3.72916 -2.7475 0
M  V30 12646 C 1185.76 -4.68346 -3.30816 0
M  V30 12647 N 1185.25 -5.74139 -3.87732 0
M  V30 12648 N 1187.05 -4.55851 -3.28872 0
M  V30 12649 H 1179.2 -2.10497 -0.283711 0
M  V30 12650 H 1181.46 -0.929108 -0.188315 0
M  V30 12651 H 1181.17 -3.2803 -1.26844 0
M  V30 12652 H 1181.04 -2.49236 -2.83128 0
M  V30 12653 H 1183.43 -1.55456 -2.50833 0
M  V30 12654 H 1183.51 -2.37744 -0.944001 0
M  V30 12655 H 1183.15 -4.61245 -2.1264 0
M  V30 12656 H 1183.08 -3.75855 -3.68837 0
M  V30 12657 H 1185.57 -2.96447 -2.34367 0
M  V30 12658 H 1185.89 -6.43021 -4.28654 0
M  V30 12659 H 1184.23 -5.779 -3.86078 0
M  V30 12660 H 1187.42 -3.72371 -2.83651 0
M  V30 12661 H 1187.6 -5.30398 -3.72266 0
M  V30 12662 N 1181 1.07532 -1.15215 0
M  V30 12663 C 1181.91 2.18222 -0.861192 0
M  V30 12664 C 1182.93 1.73246 0.161798 0
M  V30 12665 O 1184.1 2.01397 -0.0118386 0
M  V30 12666 C 1181.17 3.44902 -0.352601 0
M  V30 12667 C 1180.23 4.04455 -1.43926 0
M  V30 12668 C 1179.46 5.25089 -0.954841 0
M  V30 12669 O 1179.69 5.70048 0.200294 0
M  V30 12670 O 1178.62 5.76269 -1.73774 0
M  V30 12671 H 1182.45 2.45599 -1.78648 0
M  V30 12672 H 1180.03 1.16835 -0.93112 0
M  V30 12673 H 1181.91 4.21333 -0.0753347 0
M  V30 12674 H 1180.59 3.19082 0.544841 0
M  V30 12675 H 1179.49 3.29573 -1.7701 0
M  V30 12676 H 1180.83 4.34544 -2.31155 0
M  V30 12677 N 1182.48 0.948665 1.2585 0
M  V30 12678 C 1183.9 0.652147 1.45668 0
M  V30 12679 C 1184.1 -0.792217 1.85273 0
M  V30 12680 O 1183.15 -1.56812 1.97905 0
M  V30 12681 C 1184.47 1.61998 2.53332 0
M  V30 12682 C 1186.01 1.6305 2.67178 0
M  V30 12683 C 1186.49 2.58582 3.78021 0
M  V30 12684 N 1187.98 2.56911 3.85423 0
M  V30 12685 C 1188.71 3.27511 4.70664 0
M  V30 12686 N 1188.21 4.07563 5.60236 0
M  V30 12687 N 1190 3.16427 4.64576 0
M  V30 12688 H 1182.15 1.88215 0.984325 0
M  V30 12689 H 1184.42 0.809251 0.493778 0
M  V30 12690 H 1184.12 2.65137 2.31075 0
M  V30 12691 H 1184 1.37784 3.51134 0
M  V30 12692 H 1186.38 0.606315 2.88804 0
M  V30 12693 H 1186.47 1.9132 1.69795 0
M  V30 12694 H 1186.11 3.61122 3.57146 0
M  V30 12695 H 1186.04 2.27598 4.74875 0
M  V30 12696 H 1188.53 1.9879 3.21389 0
M  V30 12697 H 1188.84 4.58367 6.22189 0
M  V30 12698 H 1187.19 4.11662 5.59964 0
M  V30 12699 H 1190.38 2.53364 3.93604 0
M  V30 12700 H 1190.55 3.71714 5.30785 0
M  V30 12701 N 1183.96 -1.40369 0.716545 0
M  V30 12702 C 1185.37 -1.54757 0.390202 0
M  V30 12703 C 1185.57 -1.68767 -1.10091 0
M  V30 12704 O 1184.63 -1.67779 -1.88697 0
M  V30 12705 C 1185.94 -2.77546 1.15709 0
M  V30 12706 C 1187.49 -2.91364 1.14349 0
M  V30 12707 C 1187.97 -4.17068 1.89256 0
M  V30 12708 N 1189.46 -4.2407 1.8633 0
M  V30 12709 C 1190.19 -5.20243 2.41112 0
M  V30 12710 N 1189.69 -6.22318 3.04454 0
M  V30 12711 N 1191.48 -5.12328 2.31249 0
M  V30 12712 H 1183.63 -1.29521 1.68339 0
M  V30 12713 H 1185.9 -0.626382 0.711582 0
M  V30 12714 H 1185.6 -2.73474 2.21144 0
M  V30 12715 H 1185.48 -3.69682 0.749347 0
M  V30 12716 H 1187.86 -2.94939 0.0973383 0
M  V30 12717 H 1187.94 -2.00344 1.59047 0
M  V30 12718 H 1187.59 -4.14255 2.93863 0
M  V30 12719 H 1187.52 -5.07099 1.41978 0
M  V30 12720 H 1190.01 -3.50944 1.40168 0
M  V30 12721 H 1190.32 -6.92129 3.43769 0
M  V30 12722 H 1188.67 -6.22759 3.08538 0
M  V30 12723 H 1191.86 -4.31514 1.8142 0
M  V30 12724 H 1192.03 -5.87107 2.74243 0
M  V30 12725 N 1185.44 -0.462799 -1.50652 0
M  V30 12726 C 1186.66 0.0952726 -2.07181 0
M  V30 12727 C 1187.09 1.33479 -1.32533 0
M  V30 12728 O 1186.44 1.77473 -0.370564 0
M  V30 12729 C 1186.49 0.370592 -3.58691 0
M  V30 12730 O 1185.6 1.4526 -3.85971 0
M  V30 12731 H 1184.94 -0.00932702 -0.663934 0
M  V30 12732 H 1187.47 -0.651458 -1.93951 0
M  V30 12733 H 1187.48 0.613551 -4.0336 0
M  V30 12734 H 1186.15 -0.535219 -4.12442 0
M  V30 12735 H 1184.73 1.1976 -3.53146 0
M  V30 12736 N 1186.91 1.56388 -0.195085 0
M  V30 12737 C 1188.16 1.9758 0.443686 0
M  V30 12738 C 1188.49 1.08196 1.61629 0
M  V30 12739 O 1187.74 0.121061 1.95325 0
M  V30 12740 C 1188.04 3.44651 0.946051 0
M  V30 12741 C 1187.71 4.50758 -0.11318 0
M  V30 12742 C 1186.37 4.79499 -0.404229 0
M  V30 12743 C 1188.72 5.14534 -0.830899 0
M  V30 12744 C 1186.05 5.69307 -1.41797 0
M  V30 12745 C 1188.4 6.05438 -1.83379 0
M  V30 12746 C 1187.07 6.32535 -2.13204 0
M  V30 12747 H 1186.34 0.722995 0.162356 0
M  V30 12748 H 1188.98 1.8926 -0.292049 0
M  V30 12749 H 1187.29 3.50042 1.76006 0
M  V30 12750 H 1188.99 3.73878 1.44969 0
M  V30 12751 H 1185.58 4.28421 0.123833 0
M  V30 12752 H 1189.76 4.92421 -0.61927 0
M  V30 12753 H 1185.02 5.88575 -1.65496 0
M  V30 12754 H 1189.19 6.53915 -2.39516 0
M  V30 12755 H 1186.82 7.01924 -2.91902 0
M  V30 12756 N 1188.39 -0.0785156 1.57404 0
M  V30 12757 C 1189.62 -0.792042 1.9114 0
M  V30 12758 C 1190.04 -1.71458 0.790408 0
M  V30 12759 O 1189.39 -1.80959 -0.236662 0
M  V30 12760 C 1189.44 -1.59138 3.24588 0
M  V30 12761 O 1189.16 -0.705931 4.32375 0
M  V30 12762 C 1190.67 -2.4065 3.72293 0
M  V30 12763 H 1187.89 -0.225566 0.63195 0
M  V30 12764 H 1190.43 -0.0507929 2.04437 0
M  V30 12765 H 1188.58 -2.28498 3.12838 0
M  V30 12766 H 1189 -1.26121 5.09111 0
M  V30 12767 H 1190.47 -2.92204 4.68317 0
M  V30 12768 H 1190.95 -3.1987 3.00965 0
M  V30 12769 H 1191.56 -1.7646 3.86965 0
M  V30 12770 N 1189.87 -1.5367 -0.349747 0
M  V30 12771 C 1190.78 -1.84207 -1.45275 0
M  V30 12772 C 1191.8 -0.731695 -1.57868 0
M  V30 12773 O 1192.97 -1.02337 -1.73462 0
M  V30 12774 C 1190.04 -2.0398 -2.80345 0
M  V30 12775 C 1189.1 -3.27853 -2.77148 0
M  V30 12776 C 1188.33 -3.46673 -4.05775 0
M  V30 12777 O 1188.55 -2.69457 -5.02741 0
M  V30 12778 O 1187.49 -4.40082 -4.10623 0
M  V30 12779 H 1191.31 -2.77947 -1.22389 0
M  V30 12780 H 1188.9 -1.39247 -0.541345 0
M  V30 12781 H 1190.78 -2.18466 -3.60348 0
M  V30 12782 H 1189.46 -1.13429 -3.03176 0
M  V30 12783 H 1188.36 -3.18776 -1.95787 0
M  V30 12784 H 1189.7 -4.18377 -2.59271 0
M  V30 12785 N 1191.35 0.610423 -1.45298 0
M  V30 12786 C 1192.6 1.36558 -1.48441 0
M  V30 12787 C 1192.91 1.95173 -0.129137 0
M  V30 12788 O 1194.12 2.71473 -0.0381956 0
M  V30 12789 C 1192.57 2.47349 -2.61431 0
M  V30 12790 C 1192.18 1.95158 -4.03258 0
M  V30 12791 C 1193.92 3.24383 -2.73817 0
M  V30 12792 C 1191.83 3.03414 -5.07635 0
M  V30 12793 H 1190.76 0.513253 -0.552347 0
M  V30 12794 H 1193.41 0.654535 -1.7143 0
M  V30 12795 H 1191.79 3.21125 -2.31721 0
M  V30 12796 H 1192.97 1.2811 -4.42634 0
M  V30 12797 H 1191.28 1.30878 -3.95297 0
M  V30 12798 H 1193.88 4.05123 -3.48969 0
M  V30 12799 H 1194.22 3.75205 -1.80352 0
M  V30 12800 H 1194.76 2.57705 -3.03039 0
M  V30 12801 H 1191.5 2.57512 -6.028 0
M  V30 12802 H 1191.02 3.69039 -4.72833 0
M  V30 12803 H 1192.69 3.67844 -5.32259 0
M  V30 12804 N 1192.83 1.32541 0.852676 0
M  V30 12805 C 1194.1 1.1383 1.59067 0
M  V30 12806 C 1194.48 -0.300584 2.08949 0
M  V30 12807 O 1193.83 -1.29751 1.88088 0
M  V30 12808 C 1194.04 2.16758 2.73527 0
M  V30 12809 C 1195.39 2.50194 3.43057 0
M  V30 12810 O 1196.41 2.15319 2.83754 0
M  V30 12811 O 1195.27 3.09985 4.50079 0
M  V30 12812 H 1192.37 0.439379 0.700625 0
M  V30 12813 H 1194.91 1.44078 0.896632 0
M  V30 12814 H 1193.68 3.13469 2.34207 0
M  V30 12815 H 1193.31 1.87515 3.50605 0
M  V30 12816 N 1194.3 -1.0692 1.15784 0
M  V30 12817 C 1195.53 -1.8331 0.959422 0
M  V30 12818 C 1195.95 -1.82268 -0.492332 0
M  V30 12819 O 1195.3 -1.23727 -1.34156 0
M  V30 12820 C 1195.36 -3.30202 1.47135 0
M  V30 12821 O 1195.08 -3.31328 2.86624 0
M  V30 12822 C 1196.58 -4.23346 1.31504 0
M  V30 12823 H 1193.8 -0.578202 0.340475 0
M  V30 12824 H 1196.34 -1.34939 1.53661 0
M  V30 12825 H 1194.5 -3.75908 0.936587 0
M  V30 12826 H 1194.91 -4.23135 3.0993 0
M  V30 12827 H 1196.38 -5.24465 1.72163 0
M  V30 12828 H 1196.86 -4.38431 0.259773 0
M  V30 12829 H 1197.47 -3.8348 1.83911 0
M  V30 12830 N 1195.78 -0.955326 -1.25345 0
M  V30 12831 C 1197.03 -0.609278 -1.92697 0
M  V30 12832 C 1197.35 0.856535 -1.75181 0
M  V30 12833 O 1196.62 1.61013 -1.11587 0
M  V30 12834 H 1195.2 -0.22235 -0.713141 0
M  V30 12835 H 1197.86 -1.21372 -1.52496 0
M  V30 12836 H 1196.96 -0.839198 -3.00606 0
M  V30 12837 N 1197.26 1.39987 -0.723979 0
M  V30 12838 C 1198.54 1.94637 -0.1939 0
M  V30 12839 C 1198.92 1.66156 1.30212 0
M  V30 12840 O 1198.27 0.983783 2.06238 0
M  V30 12841 C 1198.48 3.4517 -0.515652 0
M  V30 12842 C 1199.82 4.22113 -0.458919 0
M  V30 12843 O 1200.85 3.53318 -0.452198 0
M  V30 12844 O 1199.71 5.44695 -0.443783 0
M  V30 12845 H 1196.8 0.826394 -0.0316615 0
M  V30 12846 H 1199.35 1.49548 -0.802085 0
M  V30 12847 H 1198.12 3.5929 -1.55004 0
M  V30 12848 H 1197.74 3.97413 0.122067 0
M  V30 12849 N 1198.74 0.470782 1.50404 0
M  V30 12850 C 1200.02 -0.145879 1.95055 0
M  V30 12851 C 1200.4 -1.57004 1.41114 0
M  V30 12852 O 1199.74 -2.20152 0.612006 0
M  V30 12853 C 1199.95 -0.0895071 3.48885 0
M  V30 12854 C 1201.3 -0.278548 4.23685 0
M  V30 12855 O 1202.33 -0.166105 3.55812 0
M  V30 12856 O 1201.19 -0.505606 5.44156 0
M  V30 12857 H 1198.28 -0.111838 0.819403 0
M  V30 12858 H 1200.83 0.531162 1.61173 0
M  V30 12859 H 1199.6 0.904836 3.80695 0
M  V30 12860 H 1199.22 -0.808019 3.89303 0
M  V30 12861 N 1200.22 -1.56282 0.203376 0
M  V30 12862 C 1201.13 -2.23086 -0.725922 0
M  V30 12863 C 1202.14 -1.23258 -1.22814 0
M  V30 12864 O 1203.32 -1.5602 -1.27357 0
M  V30 12865 C 1200.38 -2.88358 -1.92485 0
M  V30 12866 C 1199.45 -4.03479 -1.46639 0
M  V30 12867 C 1198.68 -4.65629 -2.60816 0
M  V30 12868 O 1198.9 -4.2672 -3.78506 0
M  V30 12869 O 1197.84 -5.54949 -2.33056 0
M  V30 12870 H 1201.66 -3.03124 -0.18694 0
M  V30 12871 H 1199.25 -1.49377 -0.0262829 0
M  V30 12872 H 1201.13 -3.29623 -2.62539 0
M  V30 12873 H 1199.8 -2.11294 -2.45228 0
M  V30 12874 H 1198.71 -3.66821 -0.734396 0
M  V30 12875 H 1200.04 -4.82232 -0.985535 0
M  V30 12876 N 1201.7 0.070167 -1.57444 0
M  V30 12877 C 1202.97 0.802108 -1.78397 0
M  V30 12878 C 1203.35 1.95706 -0.791356 0
M  V30 12879 O 1202.7 2.27827 0.17518 0
M  V30 12880 C 1202.91 1.27354 -3.24934 0
M  V30 12881 C 1204.26 1.70626 -3.88808 0
M  V30 12882 O 1205.28 1.36916 -3.28835 0
M  V30 12883 O 1204.14 2.33041 -4.94322 0
M  V30 12884 H 1201.24 0.384483 -0.73219 0
M  V30 12885 H 1203.78 0.0501168 -1.69626 0
M  V30 12886 H 1202.55 0.447204 -3.88736 0
M  V30 12887 H 1202.18 2.0868 -3.38435 0
M  V30 12888 N 1203.17 1.53854 0.341593 0
M  V30 12889 C 1204.42 1.71194 1.08162 0
M  V30 12890 C 1204.75 0.47614 1.88582 0
M  V30 12891 O 1204 -0.542115 1.88041 0
M  V30 12892 C 1204.3 2.92844 2.04884 0
M  V30 12893 C 1203.97 4.28366 1.40759 0
M  V30 12894 C 1202.63 4.65214 1.23 0
M  V30 12895 C 1204.98 5.12546 0.945819 0
M  V30 12896 C 1202.31 5.83857 0.576852 0
M  V30 12897 C 1204.66 6.31857 0.306568 0
M  V30 12898 C 1203.33 6.67398 0.116677 0
M  V30 12899 H 1202.6 0.626442 0.395792 0
M  V30 12900 H 1205.24 1.88073 0.360688 0
M  V30 12901 H 1203.55 2.70576 2.83365 0
M  V30 12902 H 1205.25 3.03454 2.62139 0
M  V30 12903 H 1201.84 3.99366 1.5558 0
M  V30 12904 H 1206.02 4.84609 1.07087 0
M  V30 12905 H 1201.28 6.09967 0.418363 0
M  V30 12906 H 1205.45 6.96375 -0.0593285 0
M  V30 12907 H 1203.08 7.59191 -0.391477 0
M  V30 12908 N 1204.65 -0.602709 1.4562 0
M  V30 12909 C 1205.58 -1.72374 1.5751 0
M  V30 12910 C 1206.56 -1.64669 0.426389 0
M  V30 12911 O 1207.75 -1.82994 0.650143 0
M  V30 12912 C 1204.88 -3.10987 1.5461 0
M  V30 12913 C 1203.83 -3.33507 2.68248 0
M  V30 12914 C 1203.16 -4.72443 2.50403 0
M  V30 12915 C 1204.46 -3.23285 4.10224 0
M  V30 12916 H 1206.15 -1.62679 2.51348 0
M  V30 12917 H 1203.7 -0.781217 1.20967 0
M  V30 12918 H 1205.65 -3.89214 1.61525 0
M  V30 12919 H 1204.37 -3.21533 0.573049 0
M  V30 12920 H 1203.03 -2.57672 2.60769 0
M  V30 12921 H 1202.68 -4.79729 1.51226 0
M  V30 12922 H 1202.38 -4.88466 3.26611 0
M  V30 12923 H 1203.91 -5.52864 2.59179 0
M  V30 12924 H 1205.32 -3.91381 4.1892 0
M  V30 12925 H 1203.72 -3.50837 4.86861 0
M  V30 12926 H 1204.79 -2.20652 4.31788 0
M  V30 12927 N 1206.13 -1.32992 -0.845635 0
M  V30 12928 C 1207.04 -1.24701 -1.98713 0
M  V30 12929 C 1208.06 -0.158864 -1.73273 0
M  V30 12930 O 1209.23 -0.381209 -1.97759 0
M  V30 12931 C 1206.3 -0.979524 -3.32575 0
M  V30 12932 C 1205.36 -2.15701 -3.71176 0
M  V30 12933 C 1204.59 -1.90219 -4.98651 0
M  V30 12934 O 1204.81 -0.849171 -5.64044 0
M  V30 12935 O 1203.75 -2.76571 -5.34595 0
M  V30 12936 H 1207.57 -2.20683 -2.08645 0
M  V30 12937 H 1205.16 -1.12971 -0.97765 0
M  V30 12938 H 1207.04 -0.847219 -4.12796 0
M  V30 12939 H 1205.72 -0.0499398 -3.23661 0
M  V30 12940 H 1204.62 -2.34483 -2.91494 0
M  V30 12941 H 1205.96 -3.0697 -3.84747 0
M  V30 12942 N 1207.61 1.06304 -1.1635 0
M  V30 12943 C 1208.54 2.15745 -0.893103 0
M  V30 12944 C 1209.52 1.69341 0.160531 0
M  V30 12945 O 1210.7 1.94196 0.0126526 0
M  V30 12946 C 1207.83 3.45066 -0.393287 0
M  V30 12947 C 1206.79 4.04978 -1.38482 0
M  V30 12948 C 1206.11 5.29507 -0.743409 0
M  V30 12949 C 1207.41 4.4377 -2.75438 0
M  V30 12950 H 1209.11 2.38622 -1.80831 0
M  V30 12951 H 1206.65 1.14681 -0.870878 0
M  V30 12952 H 1208.61 4.20964 -0.191607 0
M  V30 12953 H 1207.33 3.21808 0.557426 0
M  V30 12954 H 1205.99 3.31136 -1.57304 0
M  V30 12955 H 1205.64 5.02545 0.213787 0
M  V30 12956 H 1205.34 5.7055 -1.40521 0
M  V30 12957 H 1206.86 6.08102 -0.551746 0
M  V30 12958 H 1208.28 5.1075 -2.60398 0
M  V30 12959 H 1206.67 4.95797 -3.38091 0
M  V30 12960 H 1207.74 3.54636 -3.30699 0
M  V30 12961 N 1209.09 0.96196 1.24836 0
M  V30 12962 C 1210.5 0.660388 1.7463 0
M  V30 12963 C 1210.85 -0.824064 1.78055 0
M  V30 12964 O 1209.97 -1.64485 1.40619 0
M  V30 12965 C 1210.57 1.19205 3.17137 0
M  V30 12966 C 1209.13 0.940493 3.64461 0
M  V30 12967 C 1208.27 1.33076 2.43282 0
M  V30 12968 H 1211.22 1.13794 1.1062 0
M  V30 12969 H 1211.25 0.555595 3.76422 0
M  V30 12970 H 1210.76 2.27247 3.14612 0
M  V30 12971 H 1208.86 -0.124645 3.72391 0
M  V30 12972 H 1208.97 1.5821 4.52224 0
M  V30 12973 H 1207.34 0.749139 2.43434 0
M  V30 12974 H 1208.12 2.42055 2.43442 0
M  V30 12975 N 1210.56 -1.39601 0.731392 0
M  V30 12976 C 1211.81 -2.0019 0.277208 0
M  V30 12977 C 1212.13 -1.5832 -1.13841 0
M  V30 12978 O 1211.4 -0.829793 -1.77458 0
M  V30 12979 H 1209.98 -0.740344 0.0995006 0
M  V30 12980 H 1212.64 -1.70704 0.940547 0
M  V30 12981 H 1211.74 -3.10427 0.322749 0
M  V30 12982 N 1212.04 -0.478751 -1.50152 0
M  V30 12983 C 1213.01 0.300181 -2.27226 0
M  V30 12984 C 1214.01 0.913705 -1.32318 0
M  V30 12985 O 1215.2 0.781692 -1.55677 0
M  V30 12986 C 1212.33 1.42838 -3.09532 0
M  V30 12987 H 1213.52 -0.375845 -2.97536 0
M  V30 12988 H 1211.07 -0.233037 -1.54553 0
M  V30 12989 H 1211.81 2.13923 -2.43737 0
M  V30 12990 H 1211.59 0.994161 -3.79287 0
M  V30 12991 H 1213.08 1.97765 -3.67802 0
M  V30 12992 N 1213.52 1.56172 -0.211661 0
M  V30 12993 C 1214.94 1.5895 0.143907 0
M  V30 12994 C 1215.14 1.22826 1.59737 0
M  V30 12995 O 1214.19 0.958823 2.33587 0
M  V30 12996 C 1215.51 3.00199 -0.173438 0
M  V30 12997 C 1217.05 3.12789 -0.114877 0
M  V30 12998 C 1217.53 4.56199 -0.405759 0
M  V30 12999 N 1219.02 4.61838 -0.354973 0
M  V30 13000 C 1219.75 5.70721 -0.553671 0
M  V30 13001 N 1219.25 6.88006 -0.813613 0
M  V30 13002 N 1221.04 5.59988 -0.486787 0
M  V30 13003 H 1213.19 1.77931 -1.15993 0
M  V30 13004 H 1215.46 0.826569 -0.464206 0
M  V30 13005 H 1215.16 3.31248 -1.18186 0
M  V30 13006 H 1215.04 3.73651 0.516232 0
M  V30 13007 H 1217.42 2.81543 0.884166 0
M  V30 13008 H 1217.51 2.41688 -0.837875 0
M  V30 13009 H 1217.15 4.88161 -1.40219 0
M  V30 13010 H 1217.08 5.25512 0.338318 0
M  V30 13011 H 1219.57 3.77555 -0.161352 0
M  V30 13012 H 1219.88 7.66894 -0.953594 0
M  V30 13013 H 1218.23 6.89774 -0.850696 0
M  V30 13014 H 1221.42 4.67238 -0.284009 0
M  V30 13015 H 1221.59 6.44781 -0.645051 0
M  V30 13016 N 1215 -0.0618163 1.57479 0
M  V30 13017 C 1215.91 -1.09006 2.07738 0
M  V30 13018 C 1216.92 -1.4176 1.00896 0
M  V30 13019 O 1218.1 -1.51737 1.32431 0
M  V30 13020 C 1215.17 -2.38153 2.5196 0
M  V30 13021 C 1214.23 -2.12279 3.73143 0
M  V30 13022 C 1213.46 -3.35269 4.15248 0
M  V30 13023 O 1213.68 -4.44758 3.57137 0
M  V30 13024 O 1212.62 -3.22894 5.0796 0
M  V30 13025 H 1216.44 -0.693059 2.95686 0
M  V30 13026 H 1214.03 -0.276628 1.46817 0
M  V30 13027 H 1215.91 -3.14139 2.80882 0
M  V30 13028 H 1214.58 -2.77213 1.67137 0
M  V30 13029 H 1213.49 -1.33966 3.49291 0
M  V30 13030 H 1214.82 -1.78094 4.5885 0
M  V30 13031 N 1216.48 -1.54033 -0.333429 0
M  V30 13032 C 1217.39 -1.85737 -1.43314 0
M  V30 13033 C 1218.4 -0.748398 -1.57083 0
M  V30 13034 O 1219.58 -1.04171 -1.72367 0
M  V30 13035 C 1216.64 -2.06942 -2.78165 0
M  V30 13036 C 1215.7 -3.30774 -2.73655 0
M  V30 13037 C 1214.94 -3.50957 -4.02075 0
M  V30 13038 O 1215.16 -2.74774 -4.99855 0
M  V30 13039 O 1214.09 -4.44412 -4.05933 0
M  V30 13040 H 1217.92 -2.7923 -1.19434 0
M  V30 13041 H 1215.51 -1.39814 -0.526546 0
M  V30 13042 H 1217.39 -2.22276 -3.58011 0
M  V30 13043 H 1216.06 -1.16638 -3.01956 0
M  V30 13044 H 1214.97 -3.20835 -1.92395 0
M  V30 13045 H 1216.3 -4.21103 -2.54819 0
M  V30 13046 N 1217.95 0.594978 -1.45938 0
M  V30 13047 C 1218.9 1.70489 -1.5557 0
M  V30 13048 C 1219.87 1.61193 -0.400751 0
M  V30 13049 O 1221.06 1.80587 -0.615882 0
M  V30 13050 C 1218.2 3.08817 -1.54033 0
M  V30 13051 C 1217.31 3.28827 -2.80173 0
M  V30 13052 C 1216.44 4.57333 -2.70222 0
M  V30 13053 C 1215.48 4.70644 -3.91357 0
M  V30 13054 N 1214.62 5.90463 -3.79865 0
M  V30 13055 H 1219.46 1.61593 -2.50383 0
M  V30 13056 H 1217 0.787747 -1.24229 0
M  V30 13057 H 1218.96 3.88865 -1.51129 0
M  V30 13058 H 1217.59 3.1664 -0.627617 0
M  V30 13059 H 1216.64 2.42467 -2.9311 0
M  V30 13060 H 1217.95 3.34534 -3.69985 0
M  V30 13061 H 1217.1 5.45593 -2.65354 0
M  V30 13062 H 1215.84 4.54045 -1.7803 0
M  V30 13063 H 1214.85 3.80805 -3.9657 0
M  V30 13064 H 1216.07 4.75721 -4.8463 0
M  V30 13065 H 1214.02 5.88196 -2.90451 0
M  V30 13066 H 1213.94 5.97385 -4.63322 0
M  V30 13067 H 1215.2 6.81187 -3.78952 0
M  V30 13068 N 1219.43 1.33438 0.838571 0
M  V30 13069 C 1220.36 1.19552 1.9555 0
M  V30 13070 C 1221.38 0.12642 1.62308 0
M  V30 13071 O 1222.57 0.376868 1.74476 0
M  V30 13072 C 1219.67 0.811273 3.29046 0
M  V30 13073 C 1218.84 1.97207 3.9042 0
M  V30 13074 C 1217.9 1.56875 5.02271 0
M  V30 13075 O 1216.92 2.28314 5.21403 0
M  V30 13076 N 1218.13 0.473924 5.78562 0
M  V30 13077 H 1220.89 2.15769 2.07999 0
M  V30 13078 H 1218.45 1.26187 1.01432 0
M  V30 13079 H 1220.44 0.523553 4.01299 0
M  V30 13080 H 1219.01 -0.0602291 3.12542 0
M  V30 13081 H 1218.23 2.4254 3.10754 0
M  V30 13082 H 1219.52 2.74878 4.28158 0
M  V30 13083 H 1218.92 -0.120306 5.65572 0
M  V30 13084 H 1217.48 0.245877 6.51336 0
M  V30 13085 N 1220.91 -1.05686 1.16912 0
M  V30 13086 C 1222.16 -1.78862 0.955839 0
M  V30 13087 C 1222.49 -1.87257 -0.514645 0
M  V30 13088 O 1221.76 -1.36869 -1.38193 0
M  V30 13089 C 1222.05 -3.23021 1.59152 0
M  V30 13090 C 1221.9 -3.22669 3.13376 0
M  V30 13091 C 1223.22 -4.2073 1.29128 0
M  V30 13092 H 1220.34 -0.64931 0.348663 0
M  V30 13093 H 1222.98 -1.23561 1.44335 0
M  V30 13094 H 1221.13 -3.70243 1.17697 0
M  V30 13095 H 1222.8 -2.83562 3.63855 0
M  V30 13096 H 1221.05 -2.61149 3.46386 0
M  V30 13097 H 1221.72 -4.24394 3.52979 0
M  V30 13098 H 1224.19 -3.8198 1.65017 0
M  V30 13099 H 1223.07 -5.19851 1.76198 0
M  V30 13100 H 1223.33 -4.41595 0.21119 0
M  V30 13101 N 1222.39 -0.968567 -1.24324 0
M  V30 13102 C 1223.67 -0.547774 -1.87773 0
M  V30 13103 C 1224.05 0.975107 -1.87229 0
M  V30 13104 O 1223.39 1.84683 -1.34553 0
M  V30 13105 C 1223.6 -1.1403 -3.29846 0
M  V30 13106 C 1224.95 -1.22572 -4.06523 0
M  V30 13107 O 1225.98 -1.09287 -3.3902 0
M  V30 13108 O 1224.83 -1.43579 -5.27302 0
M  V30 13109 H 1221.93 -0.182771 -0.806551 0
M  V30 13110 H 1224.47 -1.06289 -1.3229 0
M  V30 13111 H 1223.25 -2.18303 -3.24745 0
M  V30 13112 H 1222.87 -0.609275 -3.92904 0
M  V30 13113 N 1223.87 1.39211 -0.738786 0
M  V30 13114 C 1225.09 2.05256 -0.297421 0
M  V30 13115 C 1225.52 1.55341 1.06069 0
M  V30 13116 O 1224.87 0.698823 1.67291 0
M  V30 13117 C 1224.92 3.59239 -0.312969 0
M  V30 13118 O 1224.03 4.06448 0.698112 0
M  V30 13119 H 1223.37 0.650245 -0.134454 0
M  V30 13120 H 1225.9 1.78173 -1.00577 0
M  V30 13121 H 1225.91 4.07691 -0.158675 0
M  V30 13122 H 1224.58 3.94931 -1.30394 0
M  V30 13123 H 1223.16 3.69401 0.509643 0
M  V30 13124 N 1225.34 0.486708 1.49896 0
M  V30 13125 C 1226.57 -0.0622999 2.07306 0
M  V30 13126 C 1226.99 -1.31353 1.3464 0
M  V30 13127 O 1226.35 -1.76861 0.398752 0
M  V30 13128 C 1226.4 -0.313481 3.59235 0
M  V30 13129 O 1225.5 -1.39101 3.88233 0
M  V30 13130 H 1224.85 0.0198885 0.663702 0
M  V30 13131 H 1227.38 0.682232 1.92891 0
M  V30 13132 H 1227.39 -0.549302 4.04285 0
M  V30 13133 H 1226.06 0.600767 4.11538 0
M  V30 13134 H 1224.64 -1.14127 3.55006 0
M  V30 13135 N 1226.82 -1.56058 0.219941 0
M  V30 13136 C 1228.23 -1.84462 -0.288203 0
M  V30 13137 C 1228.59 -1.14128 -1.59591 0
M  V30 13138 O 1227.71 -0.410411 -2.12473 0
M  V30 13139 C 1228.31 -3.34634 -0.529689 0
M  V30 13140 C 1226.86 -3.63361 -0.982145 0
M  V30 13141 C 1226.01 -2.77265 -0.0443292 0
M  V30 13142 H 1228.96 -1.52387 0.44317 0
M  V30 13143 H 1228.98 -3.54752 -1.3759 0
M  V30 13144 H 1228.5 -3.85796 0.422243 0
M  V30 13145 H 1226.6 -3.17653 -1.94749 0
M  V30 13146 H 1226.71 -4.71361 -0.857668 0
M  V30 13147 H 1225.07 -2.48672 -0.550825 0
M  V30 13148 H 1225.86 -3.31225 0.902491 0
M  V30 13149 N 1228.3 0.053464 -1.57509 0
M  V30 13150 C 1229.25 1.08014 -2.05999 0
M  V30 13151 C 1230.24 1.38958 -0.968862 0
M  V30 13152 O 1231.45 1.3815 -1.15389 0
M  V30 13153 H 1227.82 0.36575 -0.657062 0
M  V30 13154 H 1229.8 0.645169 -2.91342 0
M  V30 13155 C 1228.54 2.38004 -2.53475 0
M  V30 13156 H 1227.87 2.15048 -3.37038 0
M  V30 13157 H 1229.31 3.08244 -2.91138 0
M  V30 13158 C 1227.77 3.05259 -1.42543 0
M  V30 13159 O 1228.3 3.94097 -0.777832 0
M  V30 13160 N 1226.5 2.66182 -1.16599 0
M  V30 13161 H 1226.05 1.94027 -1.69444 0
M  V30 13162 H 1226.01 3.11503 -0.42585 0
M  V30 13163 N 1229.78 1.54207 0.325255 0
M  V30 13164 C 1231.02 1.74055 1.07164 0
M  V30 13165 C 1231.38 0.502722 1.85302 0
M  V30 13166 O 1232.58 0.578525 2.62501 0
M  V30 13167 C 1230.86 2.97994 1.97319 0
M  V30 13168 S 1232.41 3.38737 2.78931 0
M  V30 13169 H 1229.23 0.612059 0.361808 0
M  V30 13170 H 1231.83 1.92381 0.347837 0
M  V30 13171 H 1230.54 3.86235 1.38747 0
M  V30 13172 H 1230.07 2.82187 2.74106 0
M  V30 13173 H 1232.08 2.93904 3.99794 0
M  V30 13174 N 1231.26 -0.58723 1.46251 0
M  V30 13175 C 1232.5 -1.3456 1.51327 0
M  V30 13176 C 1232.83 -1.93815 0.163146 0
M  V30 13177 O 1232.09 -1.76723 -0.840677 0
M  V30 13178 C 1232.39 -2.49776 2.5563 0
M  V30 13179 C 1232.05 -2.08543 3.99776 0
M  V30 13180 C 1230.71 -1.97013 4.39021 0
M  V30 13181 C 1233.07 -1.76669 4.90344 0
M  V30 13182 C 1230.39 -1.5186 5.66706 0
M  V30 13183 C 1232.75 -1.32996 6.18462 0
M  V30 13184 C 1231.41 -1.20039 6.56618 0
M  V30 13185 H 1230.68 -0.492391 0.553744 0
M  V30 13186 H 1233.33 -0.661715 1.79704 0
M  V30 13187 H 1231.63 -3.23592 2.20897 0
M  V30 13188 H 1233.33 -3.07995 2.56788 0
M  V30 13189 H 1229.92 -2.18451 3.68751 0
M  V30 13190 H 1234.1 -1.84465 4.60746 0
M  V30 13191 H 1229.36 -1.40467 5.95045 0
M  V30 13192 H 1233.53 -1.07385 6.88071 0
M  V30 13193 H 1231.16 -0.848268 7.55452 0
M  V30 13194 N 1232.74 -1.33881 -0.831482 0
M  V30 13195 C 1233.7 -1.24654 -1.92339 0
M  V30 13196 C 1234.7 -0.163788 -1.59964 0
M  V30 13197 O 1235.89 -0.415829 -1.69164 0
M  V30 13198 C 1233.02 -0.922537 -3.2818 0
M  V30 13199 H 1234.21 -2.21717 -2.01944 0
M  V30 13200 H 1231.77 -1.18046 -1.02445 0
M  V30 13201 H 1232.5 0.0452872 -3.24268 0
M  V30 13202 H 1232.29 -1.70562 -3.53059 0
M  V30 13203 H 1233.78 -0.88292 -4.0816 0
M  V30 13204 N 1234.21 1.05064 -1.1747 0
M  V30 13205 C 1235.49 1.74999 -0.873776 0
M  V30 13206 C 1235.87 2.01615 0.625676 0
M  V30 13207 O 1235.22 1.65324 1.57734 0
M  V30 13208 C 1235.43 3.04231 -1.7101 0
M  V30 13209 C 1236.78 3.78157 -1.93087 0
M  V30 13210 O 1237.8 3.14104 -1.6798 0
M  V30 13211 O 1236.66 4.93255 -2.3529 0
M  V30 13212 H 1233.75 0.761042 -0.323641 0
M  V30 13213 H 1236.3 1.1122 -1.28172 0
M  V30 13214 H 1235.07 2.80621 -2.72704 0
M  V30 13215 H 1234.69 3.75746 -1.30002 0
M  V30 13216 N 1235.69 0.975146 1.23809 0
M  V30 13217 C 1236.64 0.510761 2.25077 0
M  V30 13218 C 1237.61 -0.447605 1.59955 0
M  V30 13219 O 1238.79 -0.356318 1.87443 0
M  V30 13220 C 1235.93 -0.185755 3.446 0
M  V30 13221 C 1235.05 0.812254 4.24295 0
M  V30 13222 C 1234.18 0.0910835 5.31122 0
M  V30 13223 C 1233.22 1.07866 6.02521 0
M  V30 13224 N 1232.36 0.386995 7.01033 0
M  V30 13225 H 1237.2 1.37913 2.64166 0
M  V30 13226 H 1234.73 0.691184 1.2985 0
M  V30 13227 H 1236.69 -0.606341 4.1277 0
M  V30 13228 H 1235.32 -1.01803 3.06327 0
M  V30 13229 H 1234.37 1.35125 3.55592 0
M  V30 13230 H 1235.69 1.56502 4.73612 0
M  V30 13231 H 1234.84 -0.387129 6.05464 0
M  V30 13232 H 1233.58 -0.694324 4.82732 0
M  V30 13233 H 1232.58 1.56767 5.26976 0
M  V30 13234 H 1233.81 1.86464 6.52999 0
M  V30 13235 H 1231.76 -0.3793 6.54903 0
M  V30 13236 H 1231.67 1.0785 7.48268 0
M  V30 13237 H 1232.94 -0.0690036 7.79469 0
M  V30 13238 N 1237.17 -1.38817 0.746158 0
M  V30 13239 C 1238.58 -1.83045 0.367629 0
M  V30 13240 C 1238.93 -1.62285 -1.10263 0
M  V30 13241 O 1238.06 -1.12001 -1.85162 0
M  V30 13242 C 1238.65 -3.323 0.660482 0
M  V30 13243 C 1237.21 -3.74903 0.335318 0
M  V30 13244 C 1236.36 -2.61683 0.917446 0
M  V30 13245 H 1239.31 -1.27651 0.94291 0
M  V30 13246 H 1239.33 -3.80446 -0.0639061 0
M  V30 13247 H 1238.84 -3.47377 1.73062 0
M  V30 13248 H 1236.94 -3.65408 -0.728538 0
M  V30 13249 H 1237.06 -4.71932 0.825677 0
M  V30 13250 H 1235.42 -2.52376 0.343316 0
M  V30 13251 H 1236.2 -2.79563 1.99247 0
M  V30 13252 N 1238.65 -0.49465 -1.49636 0
M  V30 13253 C 1239.87 0.051305 -2.07337 0
M  V30 13254 C 1240.3 1.30637 -1.35335 0
M  V30 13255 O 1239.66 1.76647 -0.408126 0
M  V30 13256 C 1239.7 0.294425 -3.59396 0
M  V30 13257 O 1238.81 1.3704 -3.88965 0
M  V30 13258 H 1238.15 -0.023408 -0.663587 0
M  V30 13259 H 1240.68 -0.692451 -1.92526 0
M  V30 13260 H 1240.69 0.527854 -4.04571 0
M  V30 13261 H 1239.36 -0.622583 -4.11214 0
M  V30 13262 H 1237.94 1.12242 -3.55607 0
M  V30 13263 N 1240.13 1.55939 -0.228214 0
M  V30 13264 C 1241.4 1.90329 0.451033 0
M  V30 13265 C 1241.78 1.14646 1.77255 0
M  V30 13266 O 1241.13 0.257912 2.2704 0
M  V30 13267 C 1241.34 3.43129 0.637456 0
M  V30 13268 C 1242.69 4.14022 0.94186 0
M  V30 13269 O 1243.71 3.48764 0.724002 0
M  V30 13270 O 1242.57 5.29418 1.35568 0
M  V30 13271 H 1239.67 0.791591 0.2394 0
M  V30 13272 H 1242.21 1.67524 -0.270893 0
M  V30 13273 H 1240.98 3.90191 -0.294435 0
M  V30 13274 H 1240.61 3.71735 1.41062 0
M  V30 13275 N 1241.6 -0.0451101 1.57535 0
M  V30 13276 C 1242.85 -0.737654 1.88157 0
M  V30 13277 C 1243.17 -1.76743 0.823817 0
M  V30 13278 O 1242.44 -1.95366 -0.144503 0
M  V30 13279 H 1241.02 -0.275431 0.694368 0
M  V30 13280 H 1243.69 -0.0148651 1.94894 0
M  V30 13281 H 1242.78 -1.23726 2.86528 0
M  V30 13282 N 1243.08 -1.54377 -0.317073 0
M  V30 13283 C 1244.5 -1.45232 -0.6618 0
M  V30 13284 C 1244.7 -0.630457 -1.91383 0
M  V30 13285 O 1243.75 -0.13181 -2.52156 0
M  V30 13286 C 1245.07 -2.89025 -0.829761 0
M  V30 13287 C 1246.62 -2.98967 -0.926685 0
M  V30 13288 C 1247.09 -4.43923 -1.12677 0
M  V30 13289 N 1248.58 -4.47564 -1.19335 0
M  V30 13290 C 1249.32 -5.56887 -1.36617 0
M  V30 13291 N 1248.81 -6.76167 -1.50899 0
M  V30 13292 N 1250.61 -5.44546 -1.39377 0
M  V30 13293 H 1242.76 -2.0629 0.505766 0
M  V30 13294 H 1245.02 -0.933615 0.164522 0
M  V30 13295 H 1244.73 -3.51695 0.0190945 0
M  V30 13296 H 1244.6 -3.35515 -1.72364 0
M  V30 13297 H 1246.99 -2.36421 -1.76604 0
M  V30 13298 H 1247.07 -2.55798 -0.00913402 0
M  V30 13299 H 1246.71 -5.07059 -0.29224 0
M  V30 13300 H 1246.64 -4.84708 -2.05829 0
M  V30 13301 H 1249.13 -3.61623 -1.09715 0
M  V30 13302 H 1249.45 -7.55242 -1.63796 0
M  V30 13303 H 1247.79 -6.79062 -1.47985 0
M  V30 13304 H 1250.98 -4.50311 -1.27819 0
M  V30 13305 H 1251.15 -6.29799 -1.52502 0
M  V30 13306 N 1244.56 0.579466 -1.4656 0
M  V30 13307 C 1245.84 1.33973 -1.42515 0
M  V30 13308 C 1246.22 2.10812 -0.110317 0
M  V30 13309 O 1245.57 2.09679 0.908135 0
M  V30 13310 C 1245.78 2.26301 -2.65686 0
M  V30 13311 C 1247.12 2.88027 -3.1197 0
M  V30 13312 O 1248.15 2.36612 -2.66257 0
M  V30 13313 O 1247.01 3.81423 -3.9138 0
M  V30 13314 H 1244.1 0.602121 -0.566903 0
M  V30 13315 H 1246.65 0.600214 -1.58731 0
M  V30 13316 H 1245.42 1.68973 -3.52936 0
M  V30 13317 H 1245.04 3.07586 -2.51945 0
M  V30 13318 N 1246.04 1.3432 0.824371 0
M  V30 13319 C 1247.45 1.23855 1.39703 0
M  V30 13320 C 1247.8 -0.136566 1.95724 0
M  V30 13321 O 1246.93 -1.03683 1.89944 0
M  V30 13322 C 1247.52 2.24249 2.53965 0
M  V30 13323 C 1246.08 2.17578 3.07143 0
M  V30 13324 C 1245.23 2.10933 1.80008 0
M  V30 13325 H 1248.18 1.45707 0.628891 0
M  V30 13326 H 1248.2 1.85864 3.32016 0
M  V30 13327 H 1247.71 3.24321 2.13161 0
M  V30 13328 H 1245.81 1.20858 3.52455 0
M  V30 13329 H 1245.92 3.08769 3.66331 0
M  V30 13330 H 1244.29 1.56631 2.00845 0
M  V30 13331 H 1245.07 3.12836 1.4138 0
M  V30 13332 N 1247.52 -1.0444 1.18026 0
M  V30 13333 C 1248.45 -2.14297 0.927314 0
M  V30 13334 C 1249.43 -1.69575 -0.13357 0
M  V30 13335 O 1250.61 -1.94191 0.0182439 0
M  V30 13336 C 1247.74 -3.44397 0.448134 0
M  V30 13337 C 1246.7 -4.02723 1.44907 0
M  V30 13338 C 1246.02 -5.28257 0.827555 0
M  V30 13339 C 1247.32 -4.39331 2.82463 0
M  V30 13340 H 1249.02 -2.35715 1.84605 0
M  V30 13341 H 1246.56 -1.13281 0.889012 0
M  V30 13342 H 1248.52 -4.20606 0.258554 0
M  V30 13343 H 1247.24 -3.22654 -0.506159 0
M  V30 13344 H 1245.9 -3.28591 1.62552 0
M  V30 13345 H 1245.55 -5.02822 -0.13381 0
M  V30 13346 H 1245.25 -5.68242 1.49581 0
M  V30 13347 H 1246.77 -6.07147 0.64842 0
M  V30 13348 H 1248.18 -5.06543 2.68491 0
M  V30 13349 H 1246.58 -4.90355 3.45936 0
M  V30 13350 H 1247.65 -3.4933 3.36299 0
M  V30 13351 N 1248.99 -0.981699 -1.2329 0
M  V30 13352 C 1250.41 -0.690539 -1.43888 0
M  V30 13353 C 1250.61 0.742816 -1.87309 0
M  V30 13354 O 1249.67 1.5151 -2.01993 0
M  V30 13355 C 1250.98 -1.68657 -2.48948 0
M  V30 13356 C 1252.53 -1.70076 -2.62761 0
M  V30 13357 C 1253 -2.68513 -3.71032 0
M  V30 13358 N 1254.49 -2.67039 -3.78476 0
M  V30 13359 C 1255.23 -3.39874 -4.61815 0
M  V30 13360 N 1254.72 -4.22273 -5.49233 0
M  V30 13361 N 1256.52 -3.28633 -4.56023 0
M  V30 13362 H 1248.67 -1.90758 -0.934077 0
M  V30 13363 H 1250.93 -0.822058 -0.472149 0
M  V30 13364 H 1250.64 -2.7117 -2.23964 0
M  V30 13365 H 1250.51 -1.47045 -3.47358 0
M  V30 13366 H 1252.9 -0.682673 -2.87095 0
M  V30 13367 H 1252.98 -1.95754 -1.64663 0
M  V30 13368 H 1252.62 -3.70464 -3.47446 0
M  V30 13369 H 1252.55 -2.40109 -4.68674 0
M  V30 13370 H 1255.04 -2.07241 -3.16006 0
M  V30 13371 H 1255.36 -4.74702 -6.09818 0
M  V30 13372 H 1253.7 -4.26364 -5.48852 0
M  V30 13373 H 1256.89 -2.6371 -3.86749 0
M  V30 13374 H 1257.07 -3.85656 -5.20743 0
M  V30 13375 N 1250.47 1.3842 -0.753509 0
M  V30 13376 C 1251.38 2.34252 -0.127811 0
M  V30 13377 C 1252.4 1.59266 0.700743 0
M  V30 13378 O 1253.57 1.9146 0.624914 0
M  V30 13379 C 1250.64 3.38382 0.754886 0
M  V30 13380 C 1249.7 4.2921 -0.0880312 0
M  V30 13381 C 1248.93 5.28367 0.75263 0
M  V30 13382 O 1249.16 5.34537 1.99064 0
M  V30 13383 O 1248.09 6.01656 0.171475 0
M  V30 13384 H 1251.92 2.89454 -0.91925 0
M  V30 13385 H 1249.5 1.40265 -0.514404 0
M  V30 13386 H 1251.38 4.02141 1.25938 0
M  V30 13387 H 1250.06 2.85536 1.52482 0
M  V30 13388 H 1248.97 3.68611 -0.638468 0
M  V30 13389 H 1250.3 4.85311 -0.82062 0
M  V30 13390 N 1251.95 0.502579 1.49372 0
M  V30 13391 C 1252.86 -0.279532 2.32929 0
M  V30 13392 C 1253.88 -0.965806 1.44735 0
M  V30 13393 O 1255.05 -0.946839 1.77755 0
M  V30 13394 C 1252.12 -1.32913 3.20211 0
M  V30 13395 C 1251.18 -0.656121 4.24256 0
M  V30 13396 C 1250.41 -1.65571 5.07368 0
M  V30 13397 O 1250.63 -2.88571 4.92019 0
M  V30 13398 O 1249.57 -1.21016 5.89609 0
M  V30 13399 H 1253.39 0.404427 3.00995 0
M  V30 13400 H 1250.98 0.263888 1.47051 0
M  V30 13401 H 1252.86 -1.93635 3.74277 0
M  V30 13402 H 1251.54 -1.99598 2.54837 0
M  V30 13403 H 1250.44 -0.00911489 3.74099 0
M  V30 13404 H 1251.78 -0.0316802 4.9219 0
M  V30 13405 N 1253.43 -1.55816 0.23648 0
M  V30 13406 C 1254.68 -1.98294 -0.390373 0
M  V30 13407 C 1255 -1.12573 -1.59224 0
M  V30 13408 O 1254.27 -0.206128 -1.94813 0
M  V30 13409 H 1252.85 -0.732349 -0.14722 0
M  V30 13410 H 1255.51 -1.92037 0.332848 0
M  V30 13411 H 1254.61 -3.03996 -0.706595 0
M  V30 13412 N 1254.91 0.036755 -1.57557 0
M  V30 13413 C 1256.13 0.744813 -1.93565 0
M  V30 13414 C 1256.56 1.68508 -0.835863 0
M  V30 13415 O 1255.91 1.80091 0.208986 0
M  V30 13416 C 1255.96 1.48461 -3.28621 0
M  V30 13417 O 1255.07 2.59739 -3.20327 0
M  V30 13418 H 1254.41 0.200866 -0.632889 0
M  V30 13419 H 1256.94 -0.00547543 -2.04599 0
M  V30 13420 H 1256.95 1.85622 -3.63329 0
M  V30 13421 H 1255.62 0.794953 -4.08232 0
M  V30 13422 H 1254.2 2.25176 -2.97237 0
M  V30 13423 N 1256.39 1.54543 0.308881 0
M  V30 13424 C 1257.63 1.73706 1.04661 0
M  V30 13425 C 1257.96 0.517111 1.87189 0
M  V30 13426 O 1257.24 -0.485856 1.88334 0
M  V30 13427 C 1257.52 3.02141 1.95916 0
M  V30 13428 C 1257.38 4.34419 1.1662 0
M  V30 13429 C 1258.69 3.26401 2.95213 0
M  V30 13430 H 1255.81 0.63203 0.379087 0
M  V30 13431 H 1258.46 1.87253 0.321947 0
M  V30 13432 H 1256.61 2.90723 2.57706 0
M  V30 13433 H 1258.28 4.57743 0.571772 0
M  V30 13434 H 1256.52 4.3126 0.468747 0
M  V30 13435 H 1257.19 5.20535 1.83704 0
M  V30 13436 H 1259.67 3.37377 2.43549 0
M  V30 13437 H 1258.54 4.17597 3.56235 0
M  V30 13438 H 1258.8 2.44322 3.68455 0
M  V30 13439 N 1257.86 -0.571685 1.46866 0
M  V30 13440 C 1259.11 -1.32685 1.52444 0
M  V30 13441 C 1259.43 -1.94147 0.182225 0
M  V30 13442 O 1258.7 -1.79159 -0.792385 0
M  V30 13443 H 1257.28 -0.492679 0.561495 0
M  V30 13444 H 1259.94 -0.668694 1.8307 0
M  V30 13445 H 1259.04 -2.12788 2.28315 0
M  V30 13446 N 1259.34 -1.34755 -0.817236 0
M  V30 13447 C 1260.57 -1.30676 -1.61054 0
M  V30 13448 C 1260.99 0.115343 -1.87746 0
M  V30 13449 O 1260.35 1.07887 -1.45705 0
M  V30 13450 C 1260.4 -2.10881 -2.92509 0
M  V30 13451 O 1259.5 -1.48223 -3.84842 0
M  V30 13452 H 1258.84 -0.448531 -0.489608 0
M  V30 13453 H 1261.37 -1.77642 -1.01512 0
M  V30 13454 H 1261.38 -2.22446 -3.42026 0
M  V30 13455 H 1260.06 -3.14274 -2.72406 0
M  V30 13456 H 1258.63 -1.45434 -3.4337 0
M  V30 13457 N 1260.82 1.03812 -1.18578 0
M  V30 13458 C 1262.04 1.8124 -1.00831 0
M  V30 13459 C 1262.47 1.82917 0.43853 0
M  V30 13460 O 1261.83 1.24835 1.31476 0
M  V30 13461 C 1261.88 3.24592 -1.57075 0
M  V30 13462 O 1260.98 4.04688 -0.793824 0
M  V30 13463 H 1260.32 0.559846 -0.357028 0
M  V30 13464 H 1262.85 1.30724 -1.57393 0
M  V30 13465 H 1262.86 3.75363 -1.59896 0
M  V30 13466 H 1261.54 3.22686 -2.62387 0
M  V30 13467 H 1260.11 3.63359 -0.838134 0
M  V30 13468 N 1262.3 0.988223 1.22768 0
M  V30 13469 C 1263.52 0.679426 1.95955 0
M  V30 13470 C 1263.95 -0.748483 1.72567 0
M  V30 13471 O 1263.31 -1.51097 1.00197 0
M  V30 13472 C 1263.35 0.985284 3.46878 0
M  V30 13473 O 1262.46 0.0814607 4.1232 0
M  V30 13474 H 1261.8 0.254749 0.613188 0
M  V30 13475 H 1264.33 1.32393 1.55991 0
M  V30 13476 H 1264.34 0.925198 3.97371 0
M  V30 13477 H 1263.01 2.02581 3.63227 0
M  V30 13478 H 1261.59 0.196629 3.72381 0
M  V30 13479 N 1263.78 -1.38018 0.760839 0
M  V30 13480 C 1265.19 -1.82645 0.387022 0
M  V30 13481 C 1265.54 -1.63445 -1.08536 0
M  V30 13482 O 1264.66 -1.13958 -1.83963 0
M  V30 13483 C 1265.26 -3.3158 0.69569 0
M  V30 13484 C 1263.82 -3.74527 0.375063 0
M  V30 13485 C 1262.96 -2.60696 0.94515 0
M  V30 13486 H 1265.91 -1.26644 0.956396 0
M  V30 13487 H 1265.94 -3.80493 -0.0235511 0
M  V30 13488 H 1265.45 -3.45522 1.76737 0
M  V30 13489 H 1263.55 -3.6616 -0.689741 0
M  V30 13490 H 1263.66 -4.71029 0.875685 0
M  V30 13491 H 1262.03 -2.51997 0.370065 0
M  V30 13492 H 1262.81 -2.77434 2.02201 0
M  V30 13493 N 1265.25 -0.510493 -1.49103 0
M  V30 13494 C 1266.19 0.299697 -2.27232 0
M  V30 13495 C 1267.2 0.922102 -1.34168 0
M  V30 13496 O 1268.39 0.803836 -1.59376 0
M  V30 13497 C 1265.49 1.43778 -3.06889 0
M  V30 13498 C 1264.66 0.920927 -4.27595 0
M  V30 13499 C 1263.72 1.93777 -4.89221 0
M  V30 13500 O 1262.75 1.5025 -5.49011 0
M  V30 13501 N 1263.95 3.2688 -4.79718 0
M  V30 13502 H 1266.71 -0.37028 -2.97404 0
M  V30 13503 H 1264.27 -0.343617 -1.58212 0
M  V30 13504 H 1266.27 2.11577 -3.44988 0
M  V30 13505 H 1264.84 2.01175 -2.39264 0
M  V30 13506 H 1264.06 0.0675358 -3.94142 0
M  V30 13507 H 1265.34 0.554168 -5.05773 0
M  V30 13508 H 1264.74 3.64924 -4.32258 0
M  V30 13509 H 1263.3 3.90366 -5.21974 0
M  V30 13510 N 1266.73 1.55688 -0.24474 0
M  V30 13511 C 1268.01 1.90796 0.430821 0
M  V30 13512 C 1268.39 1.1652 1.76029 0
M  V30 13513 O 1267.74 0.281978 2.26753 0
M  V30 13514 C 1267.95 3.43786 0.601027 0
M  V30 13515 C 1269.29 4.14998 0.897894 0
M  V30 13516 O 1270.32 3.49513 0.68697 0
M  V30 13517 O 1269.18 5.30826 1.29945 0
M  V30 13518 H 1266.27 0.794086 0.230991 0
M  V30 13519 H 1268.82 1.67227 -0.288646 0
M  V30 13520 H 1267.59 3.89856 -0.335804 0
M  V30 13521 H 1267.21 3.73211 1.37112 0
M  V30 13522 N 1268.21 -0.0283989 1.57574 0
M  V30 13523 C 1269.44 -0.730831 1.93563 0
M  V30 13524 C 1269.85 -1.68857 0.844556 0
M  V30 13525 O 1269.21 -1.8162 -0.178971 0
M  V30 13526 C 1269.26 -1.48731 3.29486 0
M  V30 13527 O 1268.98 -0.568017 4.34402 0
M  V30 13528 C 1270.48 -2.28684 3.79761 0
M  V30 13529 H 1267.7 -0.205346 0.638807 0
M  V30 13530 H 1270.25 0.0142728 2.04495 0
M  V30 13531 H 1268.4 -2.18429 3.19949 0
M  V30 13532 H 1268.82 -1.09861 5.12865 0
M  V30 13533 H 1270.29 -2.77157 4.77376 0
M  V30 13534 H 1270.77 -3.10133 3.10989 0
M  V30 13535 H 1271.37 -1.64059 3.92383 0
M  V30 13536 N 1269.69 -1.54705 -0.300681 0
M  V30 13537 C 1270.94 -1.73658 -1.0338 0
M  V30 13538 C 1271.26 -0.525447 -1.87787 0
M  V30 13539 O 1270.53 0.460269 -1.90416 0
M  V30 13540 H 1269.11 -0.640338 -0.384677 0
M  V30 13541 H 1271.77 -1.92059 -0.331588 0
M  V30 13542 H 1270.86 -2.62595 -1.68672 0
M  V30 13543 N 1271.17 0.563888 -1.47167 0
M  V30 13544 C 1272.12 1.66687 -1.55562 0
M  V30 13545 C 1273.1 1.55455 -0.415024 0
M  V30 13546 O 1274.29 1.64051 -0.664557 0
M  V30 13547 C 1271.42 3.05469 -1.56665 0
M  V30 13548 C 1270.51 3.21928 -2.76085 0
M  V30 13549 N 1270.9 3.08477 -4.00844 0
M  V30 13550 C 1269.2 3.52913 -2.72706 0
M  V30 13551 C 1269.9 3.27447 -4.80784 0
M  V30 13552 N 1268.87 3.53474 -4.12986 0
M  V30 13553 H 1272.68 1.54846 -2.498 0
M  V30 13554 H 1270.19 0.76846 -1.43068 0
M  V30 13555 H 1272.19 3.84655 -1.60768 0
M  V30 13556 H 1270.85 3.18427 -0.635174 0
M  V30 13557 H 1271.86 2.85944 -4.31806 0
M  V30 13558 H 1268.53 3.7244 -1.88666 0
M  V30 13559 H 1269.92 3.22072 -5.89677 0
M  V30 13560 N 1272.64 1.35187 0.810078 0
M  V30 13561 C 1273.59 1.27848 1.94313 0
M  V30 13562 C 1274.59 0.174081 1.68503 0
M  V30 13563 O 1275.79 0.339848 1.76763 0
M  V30 13564 H 1272.17 0.397504 0.638353 0
M  V30 13565 H 1274.14 2.23579 1.97623 0
M  V30 13566 C 1272.89 1.06382 3.31026 0
M  V30 13567 H 1272.21 1.90601 3.51441 0
M  V30 13568 H 1273.65 1.05287 4.1072 0
M  V30 13569 C 1272.11 -0.232462 3.36097 0
M  V30 13570 O 1272.64 -1.22946 3.82423 0
M  V30 13571 N 1270.85 -0.270028 2.89343 0
M  V30 13572 H 1270.39 0.541891 2.51836 0
M  V30 13573 H 1270.35 -1.13708 2.93117 0
M  V30 13574 N 1274.12 -1.03182 1.19127 0
M  V30 13575 C 1275.36 -1.78089 1.00318 0
M  V30 13576 C 1275.73 -1.86451 -0.458252 0
M  V30 13577 O 1276.93 -2.57653 -0.766061 0
M  V30 13578 C 1275.2 -3.17012 1.6504 0
M  V30 13579 S 1276.76 -4.08146 1.61129 0
M  V30 13580 H 1273.58 -0.613096 0.360048 0
M  V30 13581 H 1276.18 -1.23657 1.51424 0
M  V30 13582 H 1274.88 -3.08541 2.70612 0
M  V30 13583 H 1274.41 -3.7652 1.14001 0
M  V30 13584 H 1276.43 -4.92141 0.633408 0
M  V30 13585 N 1275.6 -0.99472 -1.22242 0
M  V30 13586 C 1277.02 -0.705762 -1.43147 0
M  V30 13587 C 1277.22 0.722908 -1.88086 0
M  V30 13588 O 1276.27 1.49359 -2.03588 0
M  V30 13589 C 1277.59 -1.71288 -2.47145 0
M  V30 13590 C 1279.13 -1.72853 -2.60942 0
M  V30 13591 C 1279.61 -2.72433 -3.68163 0
M  V30 13592 N 1281.1 -2.71039 -3.75623 0
M  V30 13593 C 1281.83 -3.44753 -4.58184 0
M  V30 13594 N 1281.33 -4.28075 -5.44724 0
M  V30 13595 N 1283.12 -3.33451 -4.52512 0
M  V30 13596 H 1275.27 -1.91738 -0.913792 0
M  V30 13597 H 1277.54 -0.82702 -0.463403 0
M  V30 13598 H 1277.24 -2.7353 -2.21075 0
M  V30 13599 H 1277.12 -1.50721 -3.45779 0
M  V30 13600 H 1279.5 -0.713085 -2.86355 0
M  V30 13601 H 1279.59 -1.9749 -1.62577 0
M  V30 13602 H 1279.23 -3.74129 -3.43497 0
M  V30 13603 H 1279.16 -2.45066 -4.66101 0
M  V30 13604 H 1281.65 -2.10581 -3.1379 0
M  V30 13605 H 1281.96 -4.81143 -6.04749 0
M  V30 13606 H 1280.31 -4.32161 -5.44299 0
M  V30 13607 H 1283.5 -2.67797 -3.8393 0
M  V30 13608 H 1283.67 -3.91158 -5.16623 0
M  V30 13609 N 1277.08 1.37613 -0.768148 0
M  V30 13610 C 1278.01 2.28935 -0.110234 0
M  V30 13611 C 1279.02 1.48459 0.668122 0
M  V30 13612 O 1280.21 1.71154 0.506808 0
M  V30 13613 C 1277.31 3.27606 0.867598 0
M  V30 13614 C 1276.49 4.37163 0.143819 0
M  V30 13615 C 1275.54 5.15931 1.03449 0
M  V30 13616 O 1274.57 5.67003 0.499605 0
M  V30 13617 N 1275.77 5.30311 2.36114 0
M  V30 13618 H 1278.54 2.86037 -0.894585 0
M  V30 13619 H 1276.1 1.4955 -0.620185 0
M  V30 13620 H 1278.09 3.77183 1.4668 0
M  V30 13621 H 1276.66 2.71298 1.55294 0
M  V30 13622 H 1275.88 3.89031 -0.636257 0
M  V30 13623 H 1277.17 5.0755 -0.356446 0
M  V30 13624 H 1276.57 4.90394 2.82011 0
M  V30 13625 H 1275.12 5.83209 2.9105 0
M  V30 13626 N 1278.56 0.518393 1.4883 0
M  V30 13627 C 1279.83 -0.0837498 1.95421 0
M  V30 13628 C 1280.21 -1.52435 1.46037 0
M  V30 13629 O 1279.56 -2.18093 0.681736 0
M  V30 13630 C 1279.77 0.0215333 3.48993 0
M  V30 13631 C 1281.12 -0.143615 4.24357 0
M  V30 13632 O 1282.14 -0.0528223 3.56161 0
M  V30 13633 O 1281 -0.332231 5.45489 0
M  V30 13634 H 1278.1 -0.0857132 0.822546 0
M  V30 13635 H 1280.64 0.582169 1.59402 0
M  V30 13636 H 1279.41 1.02549 3.77623 0
M  V30 13637 H 1279.04 -0.683756 3.91677 0
M  V30 13638 N 1280.03 -1.55556 0.252993 0
M  V30 13639 C 1281.28 -1.98267 -0.370571 0
M  V30 13640 C 1281.6 -1.14449 -1.58622 0
M  V30 13641 O 1282.8 -1.472 -2.28132 0
M  V30 13642 C 1281.26 -3.52813 -0.710685 0
M  V30 13643 C 1280.87 -4.45379 0.483908 0
M  V30 13644 C 1282.61 -4.04165 -1.2981 0
M  V30 13645 C 1280.52 -5.91279 0.119611 0
M  V30 13646 H 1279.45 -0.740463 -0.142232 0
M  V30 13647 H 1282.1 -1.8005 0.354169 0
M  V30 13648 H 1280.48 -3.66748 -1.49372 0
M  V30 13649 H 1281.65 -4.43206 1.26116 0
M  V30 13650 H 1279.97 -4.04542 0.986664 0
M  V30 13651 H 1282.57 -5.10696 -1.5841 0
M  V30 13652 H 1282.91 -3.51875 -2.22462 0
M  V30 13653 H 1283.44 -3.93581 -0.577836 0
M  V30 13654 H 1280.18 -6.47619 1.01343 0
M  V30 13655 H 1279.7 -5.96573 -0.621318 0
M  V30 13656 H 1281.38 -6.46322 -0.296052 0
M  V30 13657 N 1281.51 0.0200419 -1.57587 0
M  V30 13658 C 1282.74 0.719511 -1.93666 0
M  V30 13659 C 1283.15 1.68934 -0.85193 0
M  V30 13660 O 1282.49 1.8282 0.179593 0
M  V30 13661 C 1282.56 1.52382 -3.25607 0
M  V30 13662 C 1282.22 0.717784 -4.51328 0
M  V30 13663 C 1283.22 0.0141272 -5.19898 0
M  V30 13664 C 1280.9 0.669662 -4.97816 0
M  V30 13665 C 1282.9 -0.726853 -6.33242 0
M  V30 13666 C 1280.58 -0.0750577 -6.11054 0
M  V30 13667 C 1281.58 -0.772067 -6.78622 0
M  V30 13668 O 1281.27 -1.50468 -7.89693 0
M  V30 13669 H 1281 0.206681 -0.643629 0
M  V30 13670 H 1283.55 -0.0211203 -2.05389 0
M  V30 13671 H 1281.78 2.30848 -3.10236 0
M  V30 13672 H 1283.47 2.10675 -3.46945 0
M  V30 13673 H 1284.24 0.0422784 -4.84982 0
M  V30 13674 H 1280.12 1.20169 -4.45062 0
M  V30 13675 H 1283.66 -1.27143 -6.85916 0
M  V30 13676 H 1279.56 -0.1051 -6.45414 0
M  V30 13677 H 1280.33 -1.41929 -8.06101 0
M  V30 13678 N 1282.99 1.54862 0.292472 0
M  V30 13679 C 1283.94 1.82788 1.36281 0
M  V30 13680 C 1284.92 0.685534 1.45565 0
M  V30 13681 O 1286.12 0.946393 1.49574 0
M  V30 13682 C 1283.25 2.08616 2.72643 0
M  V30 13683 C 1282.33 3.29058 2.67548 0
M  V30 13684 N 1282.72 4.49419 2.32069 0
M  V30 13685 C 1281.02 3.31257 2.98639 0
M  V30 13686 C 1281.72 5.31461 2.36483 0
M  V30 13687 N 1280.7 4.69389 2.7418 0
M  V30 13688 H 1284.5 2.73405 1.07828 0
M  V30 13689 H 1282.01 1.54477 0.501074 0
M  V30 13690 H 1284.01 2.26772 3.49829 0
M  V30 13691 H 1282.67 1.19272 3.02001 0
M  V30 13692 H 1283.68 4.75868 2.04377 0
M  V30 13693 H 1280.36 2.52045 3.32836 0
M  V30 13694 H 1281.75 6.37651 2.11779 0
M  V30 13695 N 1284.47 -0.556076 1.47464 0
M  V30 13696 C 1285.43 -1.64515 1.59586 0
M  V30 13697 C 1286.43 -1.53751 0.470881 0
M  V30 13698 O 1287.62 -1.57889 0.735979 0
M  V30 13699 C 1284.75 -3.0406 1.54143 0
M  V30 13700 H 1285.95 -1.55116 2.56669 0
M  V30 13701 H 1283.5 -0.776087 1.35671 0
M  V30 13702 H 1284.23 -3.18991 0.584395 0
M  V30 13703 H 1284.02 -3.13282 2.3579 0
M  V30 13704 H 1285.51 -3.8329 1.65766 0
M  V30 13705 N 1285.95 -1.35615 -0.802897 0
M  V30 13706 C 1287.19 -1.29285 -1.56247 0
M  V30 13707 C 1287.53 0.131474 -1.93754 0
M  V30 13708 O 1286.8 1.08172 -1.61645 0
M  V30 13709 C 1287.08 -2.20285 -2.84863 0
M  V30 13710 C 1286.94 -3.71351 -2.53808 0
M  V30 13711 C 1288.26 -2.10318 -3.86593 0
M  V30 13712 H 1285.38 -0.470972 -0.566882 0
M  V30 13713 H 1288.02 -1.66048 -0.923469 0
M  V30 13714 H 1286.17 -1.89063 -3.39393 0
M  V30 13715 H 1287.84 -4.13031 -2.05433 0
M  V30 13716 H 1286.08 -3.9145 -1.86947 0
M  V30 13717 H 1286.75 -4.30416 -3.4561 0
M  V30 13718 H 1289.23 -2.37772 -3.41473 0
M  V30 13719 H 1288.11 -2.76183 -4.74357 0
M  V30 13720 H 1288.37 -1.08627 -4.28547 0
M  V30 13721 N 1287.43 1.02549 -1.19673 0
M  V30 13722 C 1288.65 1.8016 -1.02748 0
M  V30 13723 C 1289.08 1.83372 0.419105 0
M  V30 13724 O 1288.43 1.26222 1.30144 0
M  V30 13725 C 1288.48 3.22907 -1.60509 0
M  V30 13726 O 1287.59 4.03823 -0.836702 0
M  V30 13727 H 1286.93 0.556027 -0.362946 0
M  V30 13728 H 1289.46 1.29047 -1.5877 0
M  V30 13729 H 1289.47 3.73646 -1.63868 0
M  V30 13730 H 1288.14 3.19885 -2.65794 0
M  V30 13731 H 1286.72 3.6245 -0.876626 0
M  V30 13732 N 1288.9 1.00119 1.21713 0
M  V30 13733 C 1289.81 0.567582 2.27631 0
M  V30 13734 C 1290.83 -0.387593 1.69628 0
M  V30 13735 O 1292.01 -0.252372 1.99813 0
M  V30 13736 C 1289.07 -0.102745 3.46548 0
M  V30 13737 C 1288.13 0.896433 4.19836 0
M  V30 13738 C 1287.36 0.258 5.33076 0
M  V30 13739 O 1287.59 -0.946118 5.62499 0
M  V30 13740 O 1286.52 0.967021 5.94081 0
M  V30 13741 H 1290.35 1.44898 2.66905 0
M  V30 13742 H 1287.93 0.769862 1.28037 0
M  V30 13743 H 1289.81 -0.477846 4.18682 0
M  V30 13744 H 1288.49 -0.958576 3.09181 0
M  V30 13745 H 1287.4 1.32262 3.49939 0
M  V30 13746 H 1288.73 1.72173 4.61104 0
M  V30 13747 N 1290.38 -1.37203 0.775435 0
M  V30 13748 C 1291.63 -1.99897 0.341936 0
M  V30 13749 C 1291.96 -1.61414 -1.07978 0
M  V30 13750 O 1291.24 -0.862108 -1.7435 0
M  V30 13751 C 1291.52 -3.56755 0.489715 0
M  V30 13752 C 1291.37 -4.05135 1.95411 0
M  V30 13753 C 1292.69 -4.39978 -0.103779 0
M  V30 13754 H 1289.81 -0.726199 0.125717 0
M  V30 13755 H 1292.45 -1.62826 0.979167 0
M  V30 13756 H 1290.6 -3.88464 -0.0527684 0
M  V30 13757 H 1292.27 -3.83975 2.55658 0
M  V30 13758 H 1290.52 -3.57192 2.46164 0
M  V30 13759 H 1291.19 -5.14161 2.00855 0
M  V30 13760 H 1293.66 -4.14547 0.359134 0
M  V30 13761 H 1292.54 -5.48892 0.0297337 0
M  V30 13762 H 1292.8 -4.25658 -1.19448 0
M  V30 13763 N 1291.86 -0.526279 -1.48553 0
M  V30 13764 C 1292.81 0.238513 -2.29564 0
M  V30 13765 C 1293.78 0.937222 -1.37133 0
M  V30 13766 O 1294.96 0.93897 -1.66096 0
M  V30 13767 C 1292.1 1.28173 -3.20415 0
M  V30 13768 C 1291.21 0.592244 -4.27921 0
M  V30 13769 C 1290.35 1.61808 -5.05956 0
M  V30 13770 C 1289.39 0.911846 -6.0527 0
M  V30 13771 N 1288.53 1.88305 -6.76377 0
M  V30 13772 H 1293.37 -0.458502 -2.94452 0
M  V30 13773 H 1290.9 -0.237948 -1.45163 0
M  V30 13774 H 1292.86 1.89883 -3.71484 0
M  V30 13775 H 1291.49 1.94718 -2.57458 0
M  V30 13776 H 1290.54 -0.138714 -3.80147 0
M  V30 13777 H 1291.85 0.0375427 -4.98786 0
M  V30 13778 H 1291.01 2.30956 -5.61021 0
M  V30 13779 H 1289.75 2.20667 -4.34922 0
M  V30 13780 H 1288.75 0.206273 -5.49413 0
M  V30 13781 H 1289.98 0.329415 -6.78301 0
M  V30 13782 H 1287.92 2.46079 -6.08096 0
M  V30 13783 H 1287.84 1.37969 -7.43304 0
M  V30 13784 H 1289.11 2.56663 -7.36033 0
M  V30 13785 N 1293.34 1.5542 -0.261239 0
M  V30 13786 C 1294.28 2.21972 0.632216 0
M  V30 13787 C 1295.25 1.18843 1.16041 0
M  V30 13788 O 1296.44 1.47339 1.21226 0
M  V30 13789 C 1293.58 2.93397 1.81693 0
M  V30 13790 C 1292.69 4.11214 1.3239 0
M  V30 13791 C 1291.83 4.70318 2.46931 0
M  V30 13792 C 1290.87 5.80355 1.94561 0
M  V30 13793 N 1290 6.33581 3.02523 0
M  V30 13794 H 1294.84 2.97944 0.058018 0
M  V30 13795 H 1292.38 1.4709 0.0168725 0
M  V30 13796 H 1294.34 3.33015 2.5131 0
M  V30 13797 H 1292.97 2.19874 2.36337 0
M  V30 13798 H 1292.02 3.76811 0.521292 0
M  V30 13799 H 1293.33 4.90609 0.900214 0
M  V30 13800 H 1292.49 5.12584 3.24565 0
M  V30 13801 H 1291.23 3.90169 2.92608 0
M  V30 13802 H 1290.23 5.37552 1.15402 0
M  V30 13803 H 1291.46 6.62364 1.49836 0
M  V30 13804 H 1289.4 5.56332 3.47608 0
M  V30 13805 H 1289.32 7.08209 2.64529 0
M  V30 13806 H 1290.59 6.80506 3.80174 0
M  V30 13807 N 1294.82 -0.0116844 1.57596 0
M  V30 13808 C 1296.09 -0.735344 1.81251 0
M  V30 13809 C 1296.47 -1.92634 0.863446 0
M  V30 13810 O 1295.82 -2.28321 -0.0905028 0
M  V30 13811 C 1296.03 -1.15206 3.29437 0
M  V30 13812 C 1297.38 -1.56078 3.94873 0
M  V30 13813 O 1298.4 -1.24618 3.3369 0
M  V30 13814 O 1297.26 -2.14534 5.0263 0
M  V30 13815 H 1294.36 -0.357044 0.745955 0
M  V30 13816 H 1296.9 0.0128733 1.69695 0
M  V30 13817 H 1295.67 -0.302619 3.90128 0
M  V30 13818 H 1295.3 -1.95975 3.45947 0
M  V30 13819 N 1296.29 -1.55015 -0.284256 0
M  V30 13820 C 1297.52 -1.79431 -1.04016 0
M  V30 13821 C 1297.94 -0.560254 -1.79563 0
M  V30 13822 O 1297.3 0.489804 -1.74558 0
M  V30 13823 C 1297.35 -3.01162 -1.98328 0
M  V30 13824 O 1296.45 -2.75459 -3.06914 0
M  V30 13825 H 1295.79 -0.593391 -0.297965 0
M  V30 13826 H 1298.32 -2.02136 -0.316585 0
M  V30 13827 H 1298.33 -3.29589 -2.40489 0
M  V30 13828 H 1297.01 -3.90634 -1.42751 0
M  V30 13829 H 1295.59 -2.58096 -2.69148 0
M  V30 13830 N 1297.77 0.548248 -1.47757 0
M  V30 13831 C 1299 1.335 -1.58722 0
M  V30 13832 C 1299.42 1.86549 -0.241034 0
M  V30 13833 O 1298.78 1.63447 0.784517 0
M  V30 13834 C 1298.83 2.47457 -2.62293 0
M  V30 13835 O 1297.93 3.49956 -2.18185 0
M  V30 13836 H 1297.27 0.396166 -0.532868 0
M  V30 13837 H 1299.8 0.66164 -1.93607 0
M  V30 13838 H 1299.81 2.93901 -2.82995 0
M  V30 13839 H 1298.49 2.08203 -3.60034 0
M  V30 13840 H 1297.06 3.09755 -2.0762 0
M  V30 13841 N 1299.25 1.36039 0.795694 0
M  V30 13842 C 1300.18 1.25713 1.91648 0
M  V30 13843 C 1301.19 0.177993 1.61824 0
M  V30 13844 O 1302.38 0.432186 1.73189 0
M  V30 13845 C 1299.48 0.915546 3.26299 0
M  V30 13846 C 1298.66 2.09528 3.83949 0
M  V30 13847 C 1297.72 1.72775 4.97026 0
M  V30 13848 O 1296.74 2.44786 5.13876 0
M  V30 13849 N 1297.94 0.65775 5.76762 0
M  V30 13850 H 1300.71 2.22277 2.01029 0
M  V30 13851 H 1298.27 1.2935 0.973657 0
M  V30 13852 H 1300.26 0.650958 3.9943 0
M  V30 13853 H 1298.83 0.0392343 3.12575 0
M  V30 13854 H 1298.05 2.52304 3.0288 0
M  V30 13855 H 1299.34 2.88361 4.19196 0
M  V30 13856 H 1298.74 0.0596875 5.65669 0
M  V30 13857 H 1297.29 0.45297 6.50224 0
M  V30 13858 N 1300.73 -1.01913 1.20215 0
M  V30 13859 C 1301.64 -2.13864 0.964328 0
M  V30 13860 C 1302.65 -1.73821 -0.0789556 0
M  V30 13861 O 1303.83 -2.01111 0.107914 0
M  V30 13862 C 1300.9 -3.42827 0.516757 0
M  V30 13863 C 1299.96 -3.97127 1.63059 0
M  V30 13864 C 1299.19 -5.19935 1.20428 0
M  V30 13865 O 1299.41 -5.70355 0.0719119 0
M  V30 13866 O 1298.35 -5.67322 2.01071 0
M  V30 13867 H 1302.17 -2.36795 1.90162 0
M  V30 13868 H 1299.76 -1.1226 0.985803 0
M  V30 13869 H 1301.64 -4.20493 0.276272 0
M  V30 13870 H 1300.31 -3.21318 -0.391983 0
M  V30 13871 H 1299.22 -3.20752 1.92533 0
M  V30 13872 H 1300.55 -4.2302 2.51624 0
M  V30 13873 N 1302.21 -1.00763 -1.2118 0
M  V30 13874 C 1303.45 -0.690459 -1.8994 0
M  V30 13875 C 1303.78 0.781464 -1.78656 0
M  V30 13876 O 1303.05 1.56135 -1.18316 0
M  V30 13877 H 1301.63 -0.252397 -0.703068 0
M  V30 13878 H 1304.29 -1.2773 -1.47211 0
M  V30 13879 H 1303.38 -0.96594 -2.96776 0
M  V30 13880 N 1303.68 1.3679 -0.7827 0
M  V30 13881 C 1304.92 2.01252 -0.357327 0
M  V30 13882 C 1305.29 1.60782 1.04944 0
M  V30 13883 O 1306.49 2.17785 1.57553 0
M  V30 13884 C 1304.76 3.53766 -0.508352 0
M  V30 13885 S 1306.32 4.38471 -0.169862 0
M  V30 13886 H 1303.14 0.697701 -0.136875 0
M  V30 13887 H 1305.74 1.66799 -1.01972 0
M  V30 13888 H 1304.44 3.80708 -1.53262 0
M  V30 13889 H 1303.97 3.93032 0.170209 0
M  V30 13890 H 1305.99 4.85373 1.03088 0
M  V30 13891 N 1305.16 0.53415 1.48272 0
M  V30 13892 C 1306.11 -0.226335 2.29688 0
M  V30 13893 C 1307.08 -0.929937 1.37628 0
M  V30 13894 O 1308.26 -0.930149 1.66592 0
M  V30 13895 C 1305.4 -1.26472 3.2109 0
M  V30 13896 C 1304.52 -0.569542 4.28229 0
M  V30 13897 C 1303.65 -1.59122 5.06807 0
M  V30 13898 C 1302.69 -0.879734 6.05745 0
M  V30 13899 N 1301.83 -1.84715 6.77366 0
M  V30 13900 H 1306.67 0.474111 2.94204 0
M  V30 13901 H 1304.21 0.245643 1.45034 0
M  V30 13902 H 1306.16 -1.87911 3.72485 0
M  V30 13903 H 1304.79 -1.9335 2.58487 0
M  V30 13904 H 1303.85 0.158872 3.80068 0
M  V30 13905 H 1305.16 -0.0110904 4.98799 0
M  V30 13906 H 1304.31 -2.27977 5.62238 0
M  V30 13907 H 1303.05 -2.18357 4.36086 0
M  V30 13908 H 1302.06 -0.177134 5.49515 0
M  V30 13909 H 1303.28 -0.293439 6.78466 0
M  V30 13910 H 1301.23 -2.42851 6.09393 0
M  V30 13911 H 1301.14 -1.34025 7.44025 0
M  V30 13912 H 1302.41 -2.52756 7.37384 0
M  V30 13913 N 1306.64 -1.55279 0.269478 0
M  V30 13914 C 1307.57 -2.18397 -0.66165 0
M  V30 13915 C 1308.55 -1.1431 -1.15637 0
M  V30 13916 O 1309.74 -1.42808 -1.23037 0
M  V30 13917 C 1306.86 -2.80272 -1.90172 0
M  V30 13918 C 1305.91 -3.97612 -1.54295 0
M  V30 13919 S 1306.74 -5.31828 -0.625995 0
M  V30 13920 C 1307.9 -5.97169 -1.87456 0
M  V30 13921 H 1308.13 -2.97036 -0.125326 0
M  V30 13922 H 1305.66 -1.54306 0.0537711 0
M  V30 13923 H 1307.62 -3.16553 -2.61351 0
M  V30 13924 H 1306.28 -2.01538 -2.40918 0
M  V30 13925 H 1305.48 -4.39576 -2.46555 0
M  V30 13926 H 1305.08 -3.62725 -0.911395 0
M  V30 13927 H 1307.37 -6.16059 -2.81917 0
M  V30 13928 H 1308.31 -6.92073 -1.49803 0
M  V30 13929 H 1308.72 -5.26469 -2.03693 0
M  V30 13930 N 1308.12 0.00332656 -1.576 0
M  V30 13931 C 1309.03 1.01221 -2.1164 0
M  V30 13932 C 1310.04 1.37918 -1.06088 0
M  V30 13933 O 1311.22 1.46717 -1.37971 0
M  V30 13934 C 1308.29 2.28638 -2.60626 0
M  V30 13935 C 1307.35 1.98284 -3.80765 0
M  V30 13936 C 1306.58 3.19626 -4.27405 0
M  V30 13937 O 1306.8 4.31196 -3.73398 0
M  V30 13938 O 1305.74 3.03819 -5.19594 0
M  V30 13939 H 1309.56 0.582839 -2.98055 0
M  V30 13940 H 1307.15 0.221947 -1.47742 0
M  V30 13941 H 1309.03 3.03498 -2.92347 0
M  V30 13942 H 1307.7 2.70819 -1.7731 0
M  V30 13943 H 1306.61 1.2091 -3.54022 0
M  V30 13944 H 1307.94 1.60942 -4.65144 0
M  V30 13945 N 1309.6 1.55164 0.276031 0
M  V30 13946 C 1310.54 1.88623 1.36104 0
M  V30 13947 C 1311.54 0.762265 1.51281 0
M  V30 13948 O 1312.74 0.946573 1.53101 0
M  V30 13949 H 1309.12 0.59863 0.455133 0
M  V30 13950 H 1311.09 2.79266 1.05134 0
M  V30 13951 C 1309.84 2.17207 2.71508 0
M  V30 13952 H 1309.16 3.03179 2.6062 0
M  V30 13953 H 1310.6 2.44541 3.46375 0
M  V30 13954 C 1309.06 0.978671 3.22372 0
M  V30 13955 O 1309.59 0.211766 4.01141 0
M  V30 13956 N 1307.8 0.777199 2.80014 0
M  V30 13957 H 1307.34 1.40252 2.16072 0
M  V30 13958 H 1307.3 -0.0196754 3.14394 0
M  V30 13959 N 1311.07 -0.540404 1.48045 0
M  V30 13960 C 1312.02 -1.64191 1.58194 0
M  V30 13961 C 1313.01 -1.54775 0.439703 0
M  V30 13962 O 1314.2 -1.62973 0.690572 0
M  V30 13963 C 1311.33 -3.02937 1.61505 0
M  V30 13964 C 1310.42 -3.17495 2.81172 0
M  V30 13965 N 1310.81 -3.02061 4.05701 0
M  V30 13966 C 1309.1 -3.4853 2.78286 0
M  V30 13967 C 1309.81 -3.19757 4.85932 0
M  V30 13968 N 1308.78 -3.46859 4.18557 0
M  V30 13969 H 1312.58 -1.50852 2.52232 0
M  V30 13970 H 1310.1 -0.745602 1.44272 0
M  V30 13971 H 1312.09 -3.82048 1.66868 0
M  V30 13972 H 1310.75 -3.17376 0.685753 0
M  V30 13973 H 1311.77 -2.79038 4.363 0
M  V30 13974 H 1308.44 -3.69391 1.94567 0
M  V30 13975 H 1309.83 -3.1265 5.94727 0
M  V30 13976 N 1312.55 -1.36459 -0.788468 0
M  V30 13977 C 1313.48 -1.33545 -1.91541 0
M  V30 13978 C 1314.46 -0.206762 -1.68839 0
M  V30 13979 O 1315.65 -0.404553 -1.89939 0
M  V30 13980 C 1312.78 -1.12492 -3.28577 0
M  V30 13981 C 1311.73 -2.22196 -3.65805 0
M  V30 13982 C 1311.06 -1.86285 -5.01201 0
M  V30 13983 C 1312.36 -3.64286 -3.7429 0
M  V30 13984 H 1314.05 -2.27844 -1.94236 0
M  V30 13985 H 1311.6 -1.09677 -0.933105 0
M  V30 13986 H 1313.55 -1.09089 -4.07035 0
M  V30 13987 H 1312.28 -0.146446 -3.26272 0
M  V30 13988 H 1310.93 -2.24727 -2.89644 0
M  V30 13989 H 1310.58 -0.87009 -4.95417 0
M  V30 13990 H 1310.28 -2.59734 -5.27079 0
M  V30 13991 H 1311.81 -1.84439 -5.82078 0
M  V30 13992 H 1313.22 -3.63977 -4.42937 0
M  V30 13993 H 1311.62 -4.36648 -4.11653 0
M  V30 13994 H 1312.69 -3.99123 -2.75371 0
M  V30 13995 N 1314.03 1.01274 -1.20754 0
M  V30 13996 C 1315.28 1.74932 -1.02005 0
M  V30 13997 C 1315.61 1.89285 0.447372 0
M  V30 13998 O 1314.86 1.41838 1.34835 0
M  V30 13999 C 1315.16 3.16862 -1.65329 0
M  V30 14000 C 1314.83 3.22476 -3.15151 0
M  V30 14001 C 1313.49 3.23715 -3.56036 0
M  V30 14002 C 1315.84 3.20332 -4.11141 0
M  V30 14003 C 1313.17 3.20487 -4.91431 0
M  V30 14004 C 1315.52 3.18646 -5.46487 0
M  V30 14005 C 1314.18 3.18191 -5.8678 0
M  V30 14006 H 1313.45 0.640121 -0.373264 0
M  V30 14007 H 1316.1 1.18751 -1.50234 0
M  V30 14008 H 1314.41 3.76225 -1.09372 0
M  V30 14009 H 1316.1 3.72556 -1.48333 0
M  V30 14010 H 1312.69 3.22249 -2.82584 0
M  V30 14011 H 1316.88 3.18541 -3.80585 0
M  V30 14012 H 1312.13 3.18468 -5.21908 0
M  V30 14013 H 1316.31 3.1594 -6.20609 0
M  V30 14014 H 1313.93 3.15443 -6.91664 0
M  V30 14015 N 1315.51 1.01404 1.20644 0
M  V30 14016 C 1316.47 0.586941 2.21557 0
M  V30 14017 C 1317.47 -0.341543 1.57131 0
M  V30 14018 O 1318.66 -0.130585 1.7371 0
M  V30 14019 C 1315.79 -0.143248 3.40599 0
M  V30 14020 H 1316.99 1.47964 2.60858 0
M  V30 14021 H 1314.54 0.803551 1.34063 0
M  V30 14022 H 1315.28 -1.05097 3.06798 0
M  V30 14023 H 1315.06 0.523716 3.88587 0
M  V30 14024 H 1316.55 -0.429504 4.15385 0
M  V30 14025 N 1316.99 -1.36373 0.789944 0
M  V30 14026 C 1318.4 -1.81783 0.425677 0
M  V30 14027 C 1318.75 -1.65711 -1.05045 0
M  V30 14028 O 1317.87 -1.17835 -1.81505 0
M  V30 14029 C 1318.47 -3.3003 0.765866 0
M  V30 14030 C 1317.03 -3.73647 0.454421 0
M  V30 14031 C 1316.18 -2.58632 1.00023 0
M  V30 14032 H 1319.13 -1.24587 0.983044 0
M  V30 14033 H 1319.15 -3.80457 0.0571624 0
M  V30 14034 H 1318.66 -3.41696 1.84026 0
M  V30 14035 H 1316.76 -3.67541 -0.611918 0
M  V30 14036 H 1316.87 -4.69066 0.975401 0
M  V30 14037 H 1315.24 -2.51156 0.423434 0
M  V30 14038 H 1316.02 -2.73083 2.0804 0
M  V30 14039 N 1318.47 -0.542005 -1.47987 0
M  V30 14040 C 1319.38 0.217677 -2.33588 0
M  V30 14041 C 1320.39 0.927093 -1.47245 0
M  V30 14042 O 1321.57 0.899378 -1.80203 0
M  V30 14043 C 1318.63 1.24376 -3.23622 0
M  V30 14044 C 1317.69 0.543407 -4.25847 0
M  V30 14045 C 1316.93 1.5206 -5.11579 0
M  V30 14046 O 1317.15 2.75425 -4.99497 0
M  V30 14047 O 1316.08 1.05341 -5.9261 0
M  V30 14048 H 1319.91 -0.484089 -2.99817 0
M  V30 14049 H 1317.49 -0.302783 -1.463 0
M  V30 14050 H 1319.38 1.83644 -3.7928 0
M  V30 14051 H 1318.05 1.92772 -2.6004 0
M  V30 14052 H 1316.96 -0.090074 -3.73992 0
M  V30 14053 H 1318.29 -0.0988264 -4.92101 0
M  V30 14054 N 1319.94 1.55134 -0.277709 0
M  V30 14055 C 1321.19 1.98831 0.338982 0
M  V30 14056 C 1321.51 1.16958 1.56781 0
M  V30 14057 O 1322.71 1.50811 2.25762 0
M  V30 14058 C 1321.17 3.53899 0.654465 0
M  V30 14059 C 1320.78 4.44553 -0.554703 0
M  V30 14060 C 1322.52 4.06179 1.23364 0
M  V30 14061 C 1320.43 5.91014 -0.213663 0
M  V30 14062 H 1319.36 0.742632 0.130434 0
M  V30 14063 H 1322.01 1.79463 -0.382768 0
M  V30 14064 H 1320.39 3.69078 1.43519 0
M  V30 14065 H 1321.56 4.41143 -1.33151 0
M  V30 14066 H 1319.88 4.02921 -1.0509 0
M  V30 14067 H 1322.48 5.13152 1.50265 0
M  V30 14068 H 1322.82 3.5537 2.16836 0
M  V30 14069 H 1323.35 3.9445 0.515147 0
M  V30 14070 H 1320.09 6.45924 -1.11633 0
M  V30 14071 H 1319.61 5.97486 0.526329 0
M  V30 14072 H 1321.29 6.46712 0.19319 0
M  V30 14073 N 1321.42 0.00503138 1.57599 0
M  V30 14074 C 1322.37 -0.993379 2.05222 0
M  V30 14075 C 1323.36 -1.30013 0.947919 0
M  V30 14076 O 1324.55 -1.29027 1.21166 0
M  V30 14077 C 1321.68 -2.28375 2.5632 0
M  V30 14078 C 1320.76 -2.00642 3.73636 0
M  V30 14079 N 1321.15 -1.43087 4.85139 0
M  V30 14080 C 1319.45 -2.30759 3.81662 0
M  V30 14081 C 1320.15 -1.31939 5.66539 0
M  V30 14082 N 1319.13 -1.80672 5.12697 0
M  V30 14083 H 1322.93 -0.542951 2.88841 0
M  V30 14084 H 1320.44 -0.20055 1.61157 0
M  V30 14085 H 1322.44 -3.00748 2.88715 0
M  V30 14086 H 1321.1 -2.74066 1.74121 0
M  V30 14087 H 1322.11 -1.10901 5.05887 0
M  V30 14088 H 1318.79 -2.7929 3.10327 0
M  V30 14089 H 1320.18 -0.876391 6.6616 0
M  V30 14090 N 1322.9 -1.55308 -0.267798 0
M  V30 14091 C 1324.12 -1.80524 -1.02107 0
M  V30 14092 C 1324.55 -0.579268 -1.78958 0
M  V30 14093 O 1323.91 0.471262 -1.75068 0
M  V30 14094 C 1323.96 -3.03248 -1.95123 0
M  V30 14095 O 1323.06 -2.78699 -3.03975 0
M  V30 14096 H 1322.4 -0.596518 -0.291655 0
M  V30 14097 H 1324.93 -2.0246 -0.295128 0
M  V30 14098 H 1324.94 -3.32121 -2.3698 0
M  V30 14099 H 1323.62 -3.92126 -1.386 0
M  V30 14100 H 1322.19 -2.60936 -2.66396 0
M  V30 14101 N 1324.38 0.532545 -1.4833 0
M  V30 14102 C 1325.33 1.65832 -1.63103 0
M  V30 14103 C 1326.32 1.61929 -0.497538 0
M  V30 14104 O 1327.53 1.66817 -0.676176 0
M  V30 14105 H 1323.9 0.549152 -0.513748 0
M  V30 14106 H 1325.87 1.50515 -2.57658 0
M  V30 14107 C 1324.62 3.04113 -1.68555 0
M  V30 14108 H 1323.94 3.07809 -2.55135 0
M  V30 14109 H 1325.38 3.82506 -1.82936 0
M  V30 14110 C 1323.84 3.34225 -0.423711 0
M  V30 14111 O 1324.37 3.99005 0.464523 0
M  V30 14112 N 1322.58 2.89087 -0.296192 0
M  V30 14113 H 1322.13 2.36547 -1.01997 0
M  V30 14114 H 1322.08 3.09604 0.547082 0
M  V30 14115 N 1325.86 1.36875 0.78122 0
M  V30 14116 C 1327.27 1.28236 1.35692 0
M  V30 14117 C 1327.62 -0.0742286 1.9606 0
M  V30 14118 O 1326.74 -0.97588 1.93146 0
M  V30 14119 C 1327.34 2.32215 2.46702 0
M  V30 14120 C 1325.9 2.2724 3.00065 0
M  V30 14121 C 1325.04 2.16553 1.73206 0
M  V30 14122 H 1327.99 1.47634 0.582217 0
M  V30 14123 H 1328.02 1.96333 3.25935 0
M  V30 14124 H 1327.53 3.30938 2.02735 0
M  V30 14125 H 1325.63 1.3201 3.48431 0
M  V30 14126 H 1325.74 3.20267 3.56323 0
M  V30 14127 H 1324.11 1.62941 1.95761 0
M  V30 14128 H 1324.89 3.17176 1.31356 0
M  V30 14129 N 1327.33 -1.00632 1.21289 0
M  V30 14130 C 1328.58 -1.74044 1.02728 0
M  V30 14131 C 1328.9 -1.89963 -0.440351 0
M  V30 14132 O 1328.17 -1.44958 -1.31772 0
M  V30 14133 H 1326.75 -0.644813 0.377127 0
M  V30 14134 H 1329.41 -1.21272 1.52575 0
M  V30 14135 H 1328.51 -2.74011 1.49413 0
M  V30 14136 N 1328.81 -1.02043 -1.20104 0
M  V30 14137 C 1330.09 -0.626922 -1.85281 0
M  V30 14138 C 1330.47 0.894819 -1.91197 0
M  V30 14139 O 1329.82 1.7881 -1.42265 0
M  V30 14140 C 1330.03 -1.27917 -3.24713 0
M  V30 14141 C 1331.37 -1.39704 -4.00959 0
M  V30 14142 O 1332.4 -1.23568 -3.3408 0
M  V30 14143 O 1331.26 -1.65814 -5.20738 0
M  V30 14144 H 1328.35 -0.216815 -0.798073 0
M  V30 14145 H 1330.9 -1.11804 -1.27663 0
M  V30 14146 H 1329.67 -2.3188 -3.15194 0
M  V30 14147 H 1329.29 -0.775371 -3.89966 0
M  V30 14148 N 1330.29 1.35952 -0.797165 0
M  V30 14149 C 1331.52 2.0328 -0.385316 0
M  V30 14150 C 1331.93 1.60095 1.00076 0
M  V30 14151 O 1331.29 0.794014 1.64322 0
M  V30 14152 C 1331.34 3.5871 -0.448284 0
M  V30 14153 O 1331.06 4.00323 -1.7797 0
M  V30 14154 C 1332.56 4.43291 -0.0280465 0
M  V30 14155 H 1329.78 0.652192 -0.157756 0
M  V30 14156 H 1332.33 1.73769 -1.07817 0
M  V30 14157 H 1330.48 3.86903 0.196224 0
M  V30 14158 H 1330.9 4.94941 -1.73592 0
M  V30 14159 H 1332.37 5.51862 -0.123234 0
M  V30 14160 H 1332.85 4.27059 1.02552 0
M  V30 14161 H 1333.45 4.20375 -0.645343 0
M  V30 14162 N 1331.77 0.549846 1.47697 0
M  V30 14163 C 1333.02 0.0230048 2.02087 0
M  V30 14164 C 1333.34 -1.32865 1.4273 0
M  V30 14165 O 1332.61 -1.86492 0.59981 0
M  V30 14166 H 1331.19 0.00551514 0.74698 0
M  V30 14167 H 1333.85 0.718185 1.81185 0
M  V30 14168 H 1332.95 -0.0705813 3.1202 0
M  V30 14169 N 1333.25 -1.54984 0.285932 0
M  V30 14170 C 1334.48 -2.03943 -0.330295 0
M  V30 14171 C 1334.88 -1.16336 -1.49207 0
M  V30 14172 O 1334.23 -0.178341 -1.82832 0
M  V30 14173 C 1334.29 -3.48976 -0.863479 0
M  V30 14174 C 1333.95 -4.5668 0.171058 0
M  V30 14175 C 1334.95 -5.10303 0.994329 0
M  V30 14176 C 1332.64 -5.01352 0.308416 0
M  V30 14177 C 1334.63 -6.07126 1.94104 0
M  V30 14178 C 1332.32 -5.97999 1.25859 0
M  V30 14179 C 1333.31 -6.50768 2.0734 0
M  V30 14180 O 1333 -7.45524 3.00749 0
M  V30 14181 H 1332.73 -0.671491 -0.0779452 0
M  V30 14182 H 1335.29 -2.01081 0.419011 0
M  V30 14183 H 1333.52 -3.49113 -1.66305 0
M  V30 14184 H 1335.21 -3.81213 -1.39396 0
M  V30 14185 H 1335.97 -4.76595 0.899002 0
M  V30 14186 H 1331.85 -4.59917 -0.315817 0
M  V30 14187 H 1335.4 -6.48239 2.57743 0
M  V30 14188 H 1331.29 -6.31125 1.35469 0
M  V30 14189 H 1332.06 -7.63276 2.95554 0
M  V30 14190 N 1334.72 -0.0133892 -1.57594 0
M  V30 14191 C 1335.96 0.672977 -1.93004 0
M  V30 14192 C 1336.33 1.70188 -0.888816 0
M  V30 14193 O 1337.53 2.4396 -1.12859 0
M  V30 14194 C 1335.8 1.28743 -3.33407 0
M  V30 14195 S 1337.36 1.99706 -3.90721 0
M  V30 14196 H 1334.18 0.221972 -0.675462 0
M  V30 14197 H 1336.78 -0.0732871 -1.95363 0
M  V30 14198 H 1335.48 0.525931 -4.07016 0
M  V30 14199 H 1335.01 2.07134 -3.34454 0
M  V30 14200 H 1337.03 3.27375 -3.72881 0
M  V30 14201 N 1336.2 1.55448 0.259558 0
M  V30 14202 C 1337.61 1.67256 0.8296 0
M  V30 14203 C 1337.96 0.60851 1.86525 0
M  V30 14204 O 1337.09 -0.247563 2.14979 0
M  V30 14205 C 1337.68 3.03213 1.51152 0
M  V30 14206 C 1336.24 3.17004 2.02943 0
M  V30 14207 C 1335.39 2.63096 0.876103 0
M  V30 14208 H 1338.34 1.5866 0.0356218 0
M  V30 14209 H 1338.36 2.96952 2.37906 0
M  V30 14210 H 1337.87 3.80635 0.75752 0
M  V30 14211 H 1335.98 2.44381 2.81263 0
M  V30 14212 H 1336.09 4.23748 2.2355 0
M  V30 14213 H 1334.45 2.20596 1.27317 0
M  V30 14214 H 1335.24 3.43033 0.13539 0
M  V30 14215 N 1337.68 -0.524672 1.4861 0
M  V30 14216 C 1338.91 -1.30482 1.60568 0
M  V30 14217 C 1339.32 -1.86889 0.267952 0
M  V30 14218 O 1338.68 -1.66669 -0.743488 0
M  V30 14219 C 1338.73 -2.45191 2.65638 0
M  V30 14220 O 1338.45 -1.91107 3.9422 0
M  V30 14221 C 1339.95 -3.36931 2.88084 0
M  V30 14222 H 1337.17 -0.396612 0.541239 0
M  V30 14223 H 1339.72 -0.632392 1.94476 0
M  V30 14224 H 1337.87 -3.08308 2.34574 0
M  V30 14225 H 1338.29 -2.66234 4.51907 0
M  V30 14226 H 1339.76 -4.13755 3.65391 0
M  V30 14227 H 1340.24 -3.92487 1.97106 0
M  V30 14228 H 1340.84 -2.79601 3.20473 0
M  V30 14229 N 1339.16 -1.37287 -0.77395 0
M  V30 14230 C 1340.57 -1.18039 -1.0742 0
M  V30 14231 C 1340.77 -0.0150339 -2.01494 0
M  V30 14232 O 1339.83 0.645562 -2.44108 0
M  V30 14233 C 1341.14 -2.49808 -1.67382 0
M  V30 14234 C 1342.69 -2.5631 -1.7965 0
M  V30 14235 C 1343.17 -3.88204 -2.43025 0
M  V30 14236 N 1344.66 -3.89634 -2.50478 0
M  V30 14237 C 1345.39 -4.88437 -3.00361 0
M  V30 14238 N 1344.89 -5.97635 -3.50434 0
M  V30 14239 N 1346.68 -4.75843 -2.99215 0
M  V30 14240 H 1338.83 -2.11875 -0.149269 0
M  V30 14241 H 1341.1 -0.939203 -0.128846 0
M  V30 14242 H 1340.8 -3.35433 -1.05726 0
M  V30 14243 H 1340.68 -2.66737 -2.66704 0
M  V30 14244 H 1343.06 -1.71094 -2.40439 0
M  V30 14245 H 1343.14 -2.43266 -0.790894 0
M  V30 14246 H 1342.79 -4.73834 -1.82876 0
M  V30 14247 H 1342.72 -3.98551 -3.44187 0
M  V30 14248 H 1345.21 -3.10751 -2.15039 0
M  V30 14249 H 1345.52 -6.6898 -3.86893 0
M  V30 14250 H 1343.87 -6.01283 -3.48545 0
M  V30 14251 H 1347.06 -3.89656 -2.59395 0
M  V30 14252 H 1347.23 -5.52999 -3.37781 0
M  V30 14253 N 1340.64 0.999871 -1.21821 0
M  V30 14254 C 1341.55 2.12303 -0.99823 0
M  V30 14255 C 1342.56 1.73924 0.0512923 0
M  V30 14256 O 1343.74 2.00914 -0.139895 0
M  V30 14257 C 1340.8 3.41962 -0.571232 0
M  V30 14258 C 1339.86 3.94483 -1.69356 0
M  V30 14259 C 1339.1 5.17954 -1.28685 0
M  V30 14260 O 1339.32 5.70168 -0.162641 0
M  V30 14261 O 1338.25 5.64051 -2.10071 0
M  V30 14262 H 1342.08 2.3374 -1.93905 0
M  V30 14263 H 1339.67 1.10677 -1.00354 0
M  V30 14264 H 1341.55 4.20001 -0.343134 0
M  V30 14265 H 1340.22 3.21901 0.340814 0
M  V30 14266 H 1339.13 3.17648 -1.97612 0
M  V30 14267 H 1340.46 4.18964 -2.58322 0
M  V30 14268 N 1342.11 1.02678 1.19562 0
M  V30 14269 C 1343.34 0.741569 1.93154 0
M  V30 14270 C 1343.76 -0.699292 1.75372 0
M  V30 14271 O 1343.11 -1.47533 1.07426 0
M  V30 14272 C 1343.17 1.08064 3.4497 0
M  V30 14273 O 1342.89 2.46492 3.62179 0
M  V30 14274 C 1344.39 0.817935 4.35689 0
M  V30 14275 H 1341.61 0.271506 0.613617 0
M  V30 14276 H 1344.15 1.3707 1.51763 0
M  V30 14277 H 1342.31 0.496723 3.84202 0
M  V30 14278 H 1342.72 2.59053 4.56061 0
M  V30 14279 H 1344.19 1.10517 5.40823 0
M  V30 14280 H 1344.67 -0.247693 4.38501 0
M  V30 14281 H 1345.28 1.38449 4.02134 0
M  V30 14282 N 1343.59 -1.35528 0.804364 0
M  V30 14283 C 1344.82 -2.03604 0.395013 0
M  V30 14284 C 1345.24 -1.60225 -0.985371 0
M  V30 14285 O 1344.6 -0.777844 -1.63766 0
M  V30 14286 C 1344.65 -3.57337 0.484011 0
M  V30 14287 O 1343.75 -4.09316 -0.503395 0
M  V30 14288 H 1343.09 -0.643089 0.165325 0
M  V30 14289 H 1345.62 -1.73171 1.08963 0
M  V30 14290 H 1345.63 -4.0647 0.353009 0
M  V30 14291 H 1344.31 -3.8826 1.49088 0
M  V30 14292 H 1342.89 -3.71412 -0.332817 0
M  V30 14293 N 1345.07 -0.557671 -1.47404 0
M  V30 14294 C 1346 0.237612 -2.2696 0
M  V30 14295 C 1346.98 0.919871 -1.34079 0
M  V30 14296 O 1348.17 0.938767 -1.63461 0
M  V30 14297 C 1345.29 1.33863 -3.11124 0
M  V30 14298 C 1344.34 0.764877 -4.19585 0
M  V30 14299 S 1345.17 -0.388893 -5.34086 0
M  V30 14300 C 1346.33 0.713932 -6.21815 0
M  V30 14301 H 1346.56 -0.437477 -2.94064 0
M  V30 14302 H 1344.09 -0.344004 -1.50519 0
M  V30 14303 H 1346.05 1.96917 -3.60186 0
M  V30 14304 H 1344.71 1.98556 -2.43381 0
M  V30 14305 H 1343.91 1.5917 -4.78206 0
M  V30 14306 H 1343.51 0.210502 -3.73407 0
M  V30 14307 H 1345.8 1.60592 -6.58192 0
M  V30 14308 H 1346.74 0.165069 -7.07908 0
M  V30 14309 H 1347.15 1.00681 -5.55449 0
M  V30 14310 O 1346.59 1.55498 -0.436189 0
M  V30 14311 H 1347.28 1.93453 0.0978104 0
M  V30 END ATOM
M  V30 BEGIN BOND
M  V30 END BOND
M  V30 END CTAB
M  END
$$$$
