drugbank_target|P26918 Beta-lactamase (DB02032)
 OpenBabel12092120483D

  0  0  0     0  0            999 V3000
M  V30 BEGIN CTAB
M  V30 COUNTS 3958 4009 0 0 0
M  V30 BEGIN ATOM
M  V30 1 H -0.908 1.98254 -0.117106 0
M  V30 2 N 0 1.576 0 0
M  V30 3 C 0.933 2.03868 1.02534 0
M  V30 4 C 1.911 0.928543 1.3348 0
M  V30 5 O 3.095 1.19667 1.45644 0
M  V30 6 C 0.222 2.43627 2.35294 0
M  V30 7 C -0.732 3.65373 2.2001 0
M  V30 8 S 0.101 5.13292 1.52614 0
M  V30 9 C 1.257 5.56322 2.86805 0
M  V30 10 H 1.49 2.90518 0.631377 0
M  V30 11 H -0.977 1.52953 0.210867 0
M  V30 12 H 0.981 2.67203 3.11629 0
M  V30 13 H -0.358 1.57376 2.7183 0
M  V30 14 H -1.165 3.90944 3.18086 0
M  V30 15 H -1.563 3.418 1.51819 0
M  V30 16 H 0.729 5.58782 3.83104 0
M  V30 17 H 1.672 6.56266 2.65933 0
M  V30 18 H 2.08 4.83886 2.90714 0
M  V30 19 N 1.4781 -0.272755 1.55222 0
M  V30 20 C 2.4111 -1.3627 1.83046 0
M  V30 21 C 3.3891 -1.47536 0.683521 0
M  V30 22 O 4.5731 -1.64157 0.926545 0
M  V30 23 C 1.7001 -2.73908 1.99229 0
M  V30 24 C 0.7461 -2.79925 3.21783 0
M  V30 25 S 1.5791 -2.39146 4.79134 0
M  V30 26 C 2.7351 -3.78758 4.9829 0
M  V30 27 H 2.9681 -1.12464 2.75207 0
M  V30 28 H 0.5011 -0.472398 1.46996 0
M  V30 29 H 2.4591 -3.53171 2.09238 0
M  V30 30 H 1.1201 -2.94965 1.07956 0
M  V30 31 H 0.3131 -3.80946 3.29994 0
M  V30 32 H -0.0849 -2.08683 3.10367 0
M  V30 33 H 2.2071 -4.7403 4.84047 0
M  V30 34 H 3.1501 -3.75499 6.00338 0
M  V30 35 H 3.5581 -3.70072 4.26271 0
M  V30 36 N 2.9562 -1.48159 -0.537278 0
M  V30 37 C 3.9032 -1.62138 -1.64256 0
M  V30 38 C 4.8732 -0.463668 -1.59497 0
M  V30 39 O 6.0582 -0.686241 -1.78032 0
M  V30 40 C 3.1982 -1.66028 -3.02537 0
M  V30 41 C 2.3112 -2.92855 -3.17585 0
M  V30 42 C 1.4462 -2.87952 -4.46382 0
M  V30 43 C 0.4852 -4.09516 -4.54932 0
M  V30 44 N -0.3778 -4.02733 -5.75109 0
M  V30 45 H 4.4622 -2.56529 -1.51647 0
M  V30 46 H 1.9992 -1.27224 -0.738414 0
M  V30 47 H 3.9572 -1.66265 -3.82638 0
M  V30 48 H 2.5872 -0.751331 -3.13934 0
M  V30 49 H 1.6392 -3.02395 -2.30784 0
M  V30 50 H 2.9512 -3.82822 -3.19764 0
M  V30 51 H 2.1052 -2.8655 -5.34765 0
M  V30 52 H 0.8442 -1.95702 -4.46712 0
M  V30 53 H -0.1508 -4.11201 -3.64957 0
M  V30 54 H 1.0742 -5.02917 -4.56346 0
M  V30 55 H -0.9798 -3.13299 -5.76351 0
M  V30 56 H -1.0628 -4.86397 -5.78752 0
M  V30 57 H 0.2052 -4.05379 -6.65799 0
M  V30 58 N 4.4343 0.785586 -1.36625 0
M  V30 59 C 5.6823 1.54057 -1.30808 0
M  V30 60 C 6.0033 1.94683 0.111157 0
M  V30 61 O 5.2733 1.65241 1.05224 0
M  V30 62 H 3.8533 0.571354 -0.481211 0
M  V30 63 H 6.5153 0.935821 -1.70963 0
M  V30 64 H 5.6113 2.44637 -1.93801 0
M  V30 65 N 5.9124 1.20967 1.01018 0
M  V30 66 C 7.1584 1.0353 1.7508 0
M  V30 67 C 7.5134 -0.42734 1.87594 0
M  V30 68 O 6.8064 -1.31298 1.3954 0
M  V30 69 C 7.0004 1.65997 3.16512 0
M  V30 70 C 6.8294 3.18184 3.17788 0
M  V30 71 C 5.5994 3.87198 3.24662 0
M  V30 72 C 7.7974 4.15334 3.03319 0
M  V30 73 N 5.7794 5.26618 3.15509 0
M  V30 74 C 7.1504 5.41472 3.02007 0
M  V30 75 C 9.2054 4.06449 2.87583 0
M  V30 76 C 7.9084 6.5975 2.86571 0
M  V30 77 C 9.9344 5.24357 2.73503 0
M  V30 78 C 9.2964 6.49404 2.72862 0
M  V30 79 H 5.3954 0.433137 0.651089 0
M  V30 80 H 7.9794 1.5324 1.20107 0
M  V30 81 H 6.1504 1.18863 3.69765 0
M  V30 82 H 7.8824 1.41816 3.79039 0
M  V30 83 H 4.6374 3.38093 3.31648 0
M  V30 84 H 5.0614 5.99626 3.14289 0
M  V30 85 H 9.7034 3.10573 2.86887 0
M  V30 86 H 7.4214 7.55792 2.86015 0
M  V30 87 H 11.0074 5.19299 2.62334 0
M  V30 88 H 9.8874 7.39105 2.62093 0
M  V30 89 N 7.3905 -1.2043 1.01659 0
M  V30 90 C 8.3235 -2.21924 0.531521 0
M  V30 91 C 9.3015 -1.57054 -0.421032 0
M  V30 92 O 10.4855 -1.85389 -0.341035 0
M  V30 93 C 7.6125 -3.37942 -0.226496 0
M  V30 94 C 6.6585 -4.21115 0.67561 0
M  V30 95 S 7.4915 -4.90674 2.14475 0
M  V30 96 C 8.6475 -6.10113 1.3969 0
M  V30 97 H 8.8805 -2.62725 1.3915 0
M  V30 98 H 6.4135 -1.30481 0.825479 0
M  V30 99 H 8.3715 -4.05196 -0.657738 0
M  V30 100 H 7.0325 -2.956 -1.06205 0
M  V30 101 H 6.2255 -5.03918 0.091108 0
M  V30 102 H 5.8275 -3.59115 1.04463 0
M  V30 103 H 8.1195 -6.7411 0.676897 0
M  V30 104 H 9.0625 -6.73022 2.20107 0
M  V30 105 H 9.4705 -5.57283 0.899786 0
M  V30 106 N 8.8686 -0.792821 -1.36206 0
M  V30 107 C 9.8156 -0.191653 -2.30003 0
M  V30 108 C 10.7856 0.666453 -1.52143 0
M  V30 109 O 11.9706 0.61442 -1.80636 0
M  V30 110 C 9.1106 0.664848 -3.38635 0
M  V30 111 C 8.2236 -0.212175 -4.31479 0
M  V30 112 C 7.3586 0.651022 -5.27196 0
M  V30 113 C 6.3976 -0.227247 -6.11678 0
M  V30 114 N 5.5346 0.595127 -6.99573 0
M  V30 115 H 10.3746 -0.996978 -2.80828 0
M  V30 116 H 7.9116 -0.503206 -1.38225 0
M  V30 117 H 9.8696 1.17645 -4.00269 0
M  V30 118 H 8.4996 1.43557 -2.89122 0
M  V30 119 H 7.5516 -0.841777 -3.70969 0
M  V30 120 H 8.8636 -0.888751 -4.90818 0
M  V30 121 H 8.0176 1.2283 -5.94136 0
M  V30 122 H 6.7566 1.36121 -4.68319 0
M  V30 123 H 5.7616 -0.816904 -5.43697 0
M  V30 124 H 6.9866 -0.93509 -6.72631 0
M  V30 125 H 4.9326 1.28955 -6.432 0
M  V30 126 H 4.8496 -0.0236952 -7.55996 0
M  V30 127 H 6.1176 1.15613 -7.70879 0
M  V30 128 N 10.3467 1.47872 -0.545128 0
M  V30 129 C 11.5867 2.04391 -0.0187854 0
M  V30 130 C 11.9507 1.41162 1.30144 0
M  V30 131 O 13.1517 1.88656 1.91474 0
M  V30 132 C 11.4227 3.57299 0.0850867 0
M  V30 133 S 12.9817 4.35221 0.559302 0
M  V30 134 H 9.7997 0.710737 -0.0193301 0
M  V30 135 H 12.4017 1.81395 -0.729125 0
M  V30 136 H 11.1057 4.00847 -0.880351 0
M  V30 137 H 10.6367 3.84773 0.819348 0
M  V30 138 H 12.6517 4.61571 1.82118 0
M  V30 139 N 11.8248 0.280983 1.55075 0
M  V30 140 C 13.0728 -0.333455 1.9933 0
M  V30 141 C 13.3938 -1.55937 1.17085 0
M  V30 142 O 12.6638 -1.94143 0.261805 0
M  V30 143 H 11.2438 -0.126197 0.736263 0
M  V30 144 H 13.9058 0.387678 1.91005 0
M  V30 145 H 13.0018 -0.619292 3.05894 0
M  V30 146 N 13.3029 -1.57598 0.00835791 0
M  V30 147 C 14.2329 -2.1198 -0.979113 0
M  V30 148 C 15.2139 -1.03091 -1.35301 0
M  V30 149 O 16.3989 -1.30818 -1.43528 0
M  V30 150 C 13.5289 -2.62995 -2.26828 0
M  V30 151 C 12.4829 -3.76485 -2.03576 0
M  V30 152 C 11.8089 -4.13846 -3.38579 0
M  V30 153 C 13.1089 -5.0342 -1.39161 0
M  V30 154 H 14.8029 -2.94738 -0.526281 0
M  V30 155 H 12.3489 -1.41783 -0.251704 0
M  V30 156 H 14.3019 -2.99669 -2.96271 0
M  V30 157 H 13.0259 -1.7737 -2.7424 0
M  V30 158 H 11.6849 -3.40217 -1.36557 0
M  V30 159 H 11.3329 -3.25232 -3.83709 0
M  V30 160 H 11.0329 -4.90312 -3.23834 0
M  V30 161 H 12.5569 -4.53086 -4.09323 0
M  V30 162 H 13.9709 -5.37812 -1.98573 0
M  V30 163 H 12.3679 -5.84746 -1.34878 0
M  V30 164 H 13.4379 -4.83548 -0.361868 0
M  V30 165 N 14.781 0.264519 -1.55364 0
M  V30 166 C 15.744 1.31046 -1.88042 0
M  V30 167 C 16.744 1.41943 -0.755569 0
M  V30 168 O 17.934 1.40947 -1.02369 0
M  V30 169 C 15.066 2.69067 -2.09323 0
M  V30 170 H 16.259 1.03297 -2.81549 0
M  V30 171 H 13.812 0.502989 -1.47986 0
M  V30 172 H 14.547 3.01982 -1.18226 0
M  V30 173 H 14.332 2.62542 -2.91229 0
M  V30 174 H 15.822 3.44623 -2.35848 0
M  V30 175 N 16.2591 1.48442 0.529413 0
M  V30 176 C 17.5071 1.56179 1.28267 0
M  V30 177 C 17.8281 0.237721 1.93546 0
M  V30 178 O 17.0981 -0.740779 1.81354 0
M  V30 179 H 15.6781 0.575367 0.476405 0
M  V30 180 H 18.3401 1.84909 0.61602 0
M  V30 181 H 17.4361 2.34312 2.06165 0
M  V30 182 N 17.7372 -0.778329 1.37039 0
M  V30 183 C 18.7002 -1.87301 1.32102 0
M  V30 184 C 19.7002 -1.59198 0.226405 0
M  V30 185 O 20.8902 -1.67403 0.481861 0
M  V30 186 C 18.0222 -3.24309 1.05055 0
M  V30 187 H 19.2152 -1.93093 2.29467 0
M  V30 188 H 16.7682 -0.977358 1.21973 0
M  V30 189 H 17.5032 -3.24196 0.0819373 0
M  V30 190 H 17.2882 -3.46098 1.84279 0
M  V30 191 H 18.7782 -4.04382 1.04234 0
M  V30 192 N 19.2153 -1.21501 -1.00376 0
M  V30 193 C 20.4613 -1.03452 -1.74429 0
M  V30 194 C 20.7943 0.430764 -1.89362 0
M  V30 195 O 20.0693 1.31962 -1.42886 0
M  V30 196 C 20.3523 -1.73375 -3.15615 0
M  V30 197 C 20.2053 -3.27431 -3.08397 0
M  V30 198 C 21.5243 -1.47732 -4.14564 0
M  V30 199 H 18.6433 -0.377226 -0.633143 0
M  V30 200 H 21.2853 -1.49693 -1.17013 0
M  V30 201 H 19.4353 -1.34064 -3.64636 0
M  V30 202 H 21.1073 -3.76119 -2.67081 0
M  V30 203 H 19.3503 -3.5767 -2.45468 0
M  V30 204 H 20.0213 -3.71524 -4.08258 0
M  V30 205 H 22.4973 -1.8186 -3.74254 0
M  V30 206 H 21.3733 -1.99169 -5.11491 0
M  V30 207 H 21.6343 -0.407589 -4.40217 0
M  V30 208 N 20.6934 1.19889 -1.02296 0
M  V30 209 C 21.9394 1.89701 -0.717033 0
M  V30 210 C 22.2724 1.7905 0.751989 0
M  V30 211 O 21.5474 1.17891 1.547 0
M  V30 212 C 21.8304 3.40858 -1.16136 0
M  V30 213 C 21.6834 3.60411 -2.69117 0
M  V30 214 C 23.0024 4.33876 -0.737549 0
M  V30 215 H 20.1214 0.688874 -0.261957 0
M  V30 216 H 22.7634 1.41154 -1.27183 0
M  V30 217 H 20.9134 3.82335 -0.689342 0
M  V30 218 H 22.5854 3.28145 -3.2422 0
M  V30 219 H 20.8284 3.03665 -3.0979 0
M  V30 220 H 21.4994 4.66396 -2.95261 0
M  V30 221 H 23.9754 4.00081 -1.14344 0
M  V30 222 H 22.8514 5.38242 -1.0764 0
M  V30 223 H 23.1124 4.40628 0.360436 0
M  V30 224 N 22.1715 0.800033 1.35784 0
M  V30 225 C 23.1015 0.220184 2.3246 0
M  V30 226 C 24.0825 -0.65073 1.57161 0
M  V30 227 O 25.2675 -0.582359 1.85263 0
M  V30 228 C 22.3975 -0.637353 3.41402 0
M  V30 229 C 21.3515 0.134531 4.27789 0
M  V30 230 C 20.6775 -0.844285 5.27992 0
M  V30 231 C 21.9775 1.32979 5.05088 0
M  V30 232 H 23.6715 1.02787 2.81203 0
M  V30 233 H 21.2175 0.495717 1.35199 0
M  V30 234 H 23.1705 -1.05302 4.08031 0
M  V30 235 H 21.8945 -1.47785 2.91251 0
M  V30 236 H 20.5535 0.531296 3.6273 0
M  V30 237 H 20.2015 -1.68011 4.74111 0
M  V30 238 H 19.9015 -0.332184 5.8666 0
M  V30 239 H 21.4255 -1.2583 5.97494 0
M  V30 240 H 22.8395 0.98934 5.64699 0
M  V30 241 H 21.2365 1.77593 5.7322 0
M  V30 242 H 22.3065 2.11978 4.36111 0
M  V30 243 N 23.6496 -1.47581 0.552962 0
M  V30 244 C 24.5826 -2.26883 -0.244857 0
M  V30 245 C 25.5606 -1.33784 -0.924147 0
M  V30 246 O 26.7446 -1.6316 -0.943981 0
M  V30 247 C 23.8716 -3.10695 -1.34856 0
M  V30 248 C 22.9176 -4.19339 -0.778268 0
M  V30 249 S 23.7506 -5.34207 0.37184 0
M  V30 250 C 24.9066 -6.21584 -0.733779 0
M  V30 251 H 25.1396 -2.94202 0.428087 0
M  V30 252 H 22.6726 -1.50628 0.339197 0
M  V30 253 H 24.6306 -3.59555 -1.98066 0
M  V30 254 H 23.2916 -2.42746 -1.99332 0
M  V30 255 H 22.4846 -4.77695 -1.60696 0
M  V30 256 H 22.0866 -3.73338 -0.222422 0
M  V30 257 H 24.3786 -6.57676 -1.62692 0
M  V30 258 H 25.3216 -7.07851 -0.187668 0
M  V30 259 H 25.7296 -5.55125 -1.02454 0
M  V30 260 N 25.1277 -0.289203 -1.54924 0
M  V30 261 C 26.0907 0.579144 -2.21762 0
M  V30 262 C 27.0907 1.07047 -1.1999 0
M  V30 263 O 28.2807 0.968384 -1.44803 0
M  V30 264 C 25.4127 1.80055 -2.8947 0
M  V30 265 H 26.6057 -0.00464908 -2.999 0
M  V30 266 H 24.1587 -0.0399306 -1.56249 0
M  V30 267 H 24.8937 2.42449 -2.15381 0
M  V30 268 H 24.6787 1.45602 -3.64064 0
M  V30 269 H 26.1687 2.41773 -3.40493 0
M  V30 270 N 26.6058 1.57591 -0.0167156 0
M  V30 271 C 27.8308 1.9598 0.67872 0
M  V30 272 C 28.2558 0.892546 1.65575 0
M  V30 273 O 27.6138 -0.147772 1.80697 0
M  V30 274 C 27.6618 3.33468 1.37227 0
M  V30 275 O 26.7658 3.28954 2.48722 0
M  V30 276 H 26.1068 0.639339 0.17928 0
M  V30 277 H 28.6368 2.04463 -0.0748802 0
M  V30 278 H 28.6468 3.69417 1.7319 0
M  V30 279 H 27.3218 4.10694 0.656007 0
M  V30 280 H 25.8988 3.04705 2.14963 0
M  V30 281 N 28.0839 -0.256276 1.55502 0
M  V30 282 C 29.3309 -0.985619 1.76895 0
M  V30 283 C 29.6589 -1.85671 0.579355 0
M  V30 284 O 28.9139 -1.90744 -0.437651 0
M  V30 285 C 29.2129 -1.88432 3.03691 0
M  V30 286 C 28.8789 -1.16936 4.35473 0
M  V30 287 C 27.5409 -0.97173 4.71286 0
M  V30 288 C 29.8929 -0.661889 5.1698 0
M  V30 289 C 27.2209 -0.254179 5.86149 0
M  V30 290 C 29.5729 0.042149 6.32586 0
M  V30 291 C 28.2369 0.25134 6.67027 0
M  V30 292 H 27.5069 -0.360663 0.647304 0
M  V30 293 H 30.1539 -0.256483 1.89775 0
M  V30 294 H 28.4589 -2.68021 2.85783 0
M  V30 295 H 30.1559 -2.45015 3.1744 0
M  V30 296 H 26.7459 -1.33332 4.07333 0
M  V30 297 H 30.9299 -0.802145 4.89775 0
M  V30 298 H 26.1859 -0.0815408 6.11346 0
M  V30 299 H 30.3599 0.443049 6.94989 0
M  V30 300 H 27.9869 0.809314 7.5588 0
M  V30 301 N 29.562 -1.4872 -0.521534 0
M  V30 302 C 30.808 -1.58378 -1.27624 0
M  V30 303 C 31.163 -0.258028 -1.90662 0
M  V30 304 O 30.456 0.739917 -1.76736 0
M  V30 305 C 30.65 -2.66497 -2.38148 0
M  V30 306 C 30.479 -4.09456 -1.85945 0
M  V30 307 C 29.249 -4.76495 -1.68168 0
M  V30 308 C 31.447 -4.95353 -1.3831 0
M  V30 309 N 29.429 -6.0384 -1.1068 0
M  V30 310 C 30.8 -6.13012 -0.928238 0
M  V30 311 C 32.855 -4.81512 -1.26692 0
M  V30 312 C 31.558 -7.18354 -0.368701 0
M  V30 313 C 33.584 -5.86984 -0.721368 0
M  V30 314 C 32.946 -7.03857 -0.276623 0
M  V30 315 H 29.045 -0.634045 -0.457724 0
M  V30 316 H 31.629 -1.85639 -0.587049 0
M  V30 317 H 29.8 -2.41043 -3.04553 0
M  V30 318 H 31.532 -2.65791 -3.05184 0
M  V30 319 H 28.287 -4.32962 -1.91939 0
M  V30 320 H 28.711 -6.71778 -0.839217 0
M  V30 321 H 33.353 -3.91487 -1.5968 0
M  V30 322 H 31.071 -8.08096 -0.0265122 0
M  V30 323 H 34.657 -5.78329 -0.634531 0
M  V30 324 H 33.537 -7.84077 0.138947 0
M  V30 325 N 31.0401 0.771051 -1.3745 0
M  V30 326 C 32.2881 1.52661 -1.32435 0
M  V30 327 C 32.6091 1.9479 0.0905024 0
M  V30 328 O 31.8791 1.66348 1.03466 0
M  V30 329 H 30.4591 0.566218 -0.487244 0
M  V30 330 H 33.1211 0.917636 -1.71946 0
M  V30 331 H 32.2171 2.42568 -1.96385 0
M  V30 332 N 32.5182 1.22032 0.997298 0
M  V30 333 C 33.7662 1.04016 1.73278 0
M  V30 334 C 34.0872 -0.426255 1.90284 0
M  V30 335 O 33.3572 -1.30694 1.45931 0
M  V30 336 H 31.9372 0.381897 0.642 0
M  V30 337 H 34.5992 1.5347 1.20137 0
M  V30 338 H 33.6952 1.51441 2.72896 0
M  V30 339 N 33.9963 -1.19345 1.0293 0
M  V30 340 C 35.2213 -1.93538 0.745511 0
M  V30 341 C 35.6463 -1.75007 -0.689511 0
M  V30 342 O 35.0043 -1.05265 -1.47611 0
M  V30 343 C 35.0523 -3.43336 1.10239 0
M  V30 344 O 34.1563 -4.11806 0.221289 0
M  V30 345 H 33.4973 -0.604193 0.275404 0
M  V30 346 H 36.0273 -1.5141 1.37609 0
M  V30 347 H 36.0373 -3.94004 1.05947 0
M  V30 348 H 34.7123 -3.56146 2.14786 0
M  V30 349 H 33.2893 -3.715 0.322842 0
M  V30 350 N 35.4744 -0.807222 -1.35358 0
M  V30 351 C 36.7204 -0.388463 -1.99045 0
M  V30 352 C 37.0534 1.04184 -1.63888 0
M  V30 353 O 36.3284 1.72292 -0.902535 0
M  V30 354 C 36.6114 -0.572783 -3.55515 0
M  V30 355 C 36.4644 -2.04807 -4.00468 0
M  V30 356 C 37.7834 0.00114064 -4.401 0
M  V30 357 H 34.9024 -0.142619 -0.723069 0
M  V30 358 H 37.5444 -1.01687 -1.60498 0
M  V30 359 H 35.6944 -0.0378425 -3.88482 0
M  V30 360 H 37.3664 -2.64544 -3.77908 0
M  V30 361 H 35.6094 -2.54427 -3.51353 0
M  V30 362 H 36.2804 -2.12792 -5.09337 0
M  V30 363 H 38.7564 -0.455716 -4.13597 0
M  V30 364 H 37.6324 -0.157737 -5.48673 0
M  V30 365 H 37.8934 1.09488 -4.28328 0
M  V30 366 N 36.9525 1.47285 -0.560781 0
M  V30 367 C 38.3685 1.58065 -0.22081 0
M  V30 368 C 38.5685 1.55892 1.27671 0
M  V30 369 O 37.6245 1.46422 2.0571 0
M  V30 370 C 38.9375 2.88418 -0.850625 0
M  V30 371 C 40.4855 3.02009 -0.822184 0
M  V30 372 C 40.9605 4.35066 -1.43113 0
M  V30 373 N 42.4515 4.41711 -1.39448 0
M  V30 374 C 43.1865 5.43237 -1.83525 0
M  V30 375 N 42.6825 6.51555 -2.35474 0
M  V30 376 N 44.4755 5.34304 -1.74574 0
M  V30 377 H 36.6265 1.46941 -1.53369 0
M  V30 378 H 38.8895 0.699558 -0.639783 0
M  V30 379 H 38.5955 2.95755 -1.9032 0
M  V30 380 H 38.4695 3.75612 -0.345773 0
M  V30 381 H 40.8565 2.94266 0.221714 0
M  V30 382 H 40.9375 2.16347 -1.36483 0
M  V30 383 H 40.5815 4.43565 -2.47412 0
M  V30 384 H 40.5115 5.19465 -0.863899 0
M  V30 385 H 43.0025 3.64027 -1.01452 0
M  V30 386 H 43.3155 7.25203 -2.67021 0
M  V30 387 H 41.6605 6.52435 -2.39487 0
M  V30 388 H 44.8515 4.48581 -1.33763 0
M  V30 389 H 45.0245 6.13288 -2.09242 0
M  V30 390 N 38.4306 0.297415 1.54768 0
M  V30 391 C 39.3936 -0.567375 2.22066 0
M  V30 392 C 40.3936 -1.06409 1.20556 0
M  V30 393 O 41.5836 -0.960691 1.45315 0
M  V30 394 C 38.7156 -1.78517 2.90421 0
M  V30 395 H 39.9086 0.0205534 2.99893 0
M  V30 396 H 37.4616 0.0482163 1.56226 0
M  V30 397 H 38.1966 -2.41303 2.16664 0
M  V30 398 H 37.9816 -1.43669 3.64831 0
M  V30 399 H 39.4716 -2.39964 3.41771 0
M  V30 400 N 39.9087 -1.5758 0.0250728 0
M  V30 401 C 40.8717 -2.08896 -0.943139 0
M  V30 402 C 41.8717 -1.00321 -1.25668 0
M  V30 403 O 43.0617 -1.26495 -1.19769 0
M  V30 404 C 40.1937 -2.55143 -2.26086 0
M  V30 405 H 41.3867 -2.95723 -0.498775 0
M  V30 406 H 38.9397 -1.54703 -0.222888 0
M  V30 407 H 39.6747 -1.71633 -2.75159 0
M  V30 408 H 39.4597 -3.34461 -2.04641 0
M  V30 409 H 40.9497 -2.95083 -2.95492 0
M  V30 410 N 41.3868 0.248026 -1.55636 0
M  V30 411 C 42.6348 0.974295 -1.77065 0
M  V30 412 C 42.9558 1.85897 -0.588849 0
M  V30 413 O 42.2258 1.91868 0.395407 0
M  V30 414 H 40.8058 0.362733 -0.653019 0
M  V30 415 H 43.4678 0.266244 -1.93073 0
M  V30 416 H 42.5638 1.59667 -2.68166 0
M  V30 417 N 42.8649 1.48995 0.513639 0
M  V30 418 C 43.7979 1.59319 1.63379 0
M  V30 419 C 44.7759 0.442816 1.56454 0
M  V30 420 O 45.9599 0.656655 1.76693 0
M  V30 421 C 43.0869 1.5364 3.01848 0
M  V30 422 C 42.1329 2.7372 3.27078 0
M  V30 423 S 42.9659 4.35528 3.1157 0
M  V30 424 C 44.1219 4.32473 4.52458 0
M  V30 425 H 44.3549 2.54079 1.54374 0
M  V30 426 H 41.8879 1.3773 0.697849 0
M  V30 427 H 43.8459 1.51049 3.81699 0
M  V30 428 H 42.5069 0.601898 3.08279 0
M  V30 429 H 41.6999 2.6593 4.28132 0
M  V30 430 H 41.3019 2.73657 2.54927 0
M  V30 431 H 43.5939 4.03414 5.44301 0
M  V30 432 H 44.5369 5.33762 4.65299 0
M  V30 433 H 44.9449 3.62718 4.32546 0
M  V30 434 N 44.343 -0.763751 1.37857 0
M  V30 435 C 45.568 -1.55805 1.36893 0
M  V30 436 C 45.993 -1.88054 -0.0416135 0
M  V30 437 O 45.351 -1.49825 -1.02089 0
M  V30 438 C 45.399 -2.84012 2.22192 0
M  V30 439 O 44.503 -3.78732 1.63204 0
M  V30 440 H 43.844 -0.471638 0.46739 0
M  V30 441 H 46.374 -0.944657 1.81487 0
M  V30 442 H 46.384 -3.33037 2.35691 0
M  V30 443 H 45.059 -2.59869 3.24716 0
M  V30 444 H 43.636 -3.37402 1.58791 0
M  V30 445 N 45.8211 -1.22559 -0.990812 0
M  V30 446 C 46.7511 -1.0218 -2.09956 0
M  V30 447 C 47.7321 0.0579394 -1.70001 0
M  V30 448 O 48.9171 -0.104684 -1.93918 0
M  V30 449 C 46.0471 -0.601023 -3.4206 0
M  V30 450 C 45.0011 -1.62694 -3.95872 0
M  V30 451 C 44.3271 -1.06193 -5.24049 0
M  V30 452 C 45.6271 -3.01743 -4.2632 0
M  V30 453 H 47.3211 -1.94916 -2.27262 0
M  V30 454 H 44.8671 -0.938566 -1.09211 0
M  V30 455 H 46.8201 -0.445561 -4.19038 0
M  V30 456 H 45.5441 0.362005 -3.24588 0
M  V30 457 H 44.2031 -1.77021 -3.21028 0
M  V30 458 H 43.8511 -0.0901903 -5.02919 0
M  V30 459 H 43.5511 -1.74732 -5.61019 0
M  V30 460 H 45.0751 -0.918092 -6.03658 0
M  V30 461 H 46.4891 -2.90777 -4.94087 0
M  V30 462 H 44.8861 -3.67425 -4.74467 0
M  V30 463 H 45.9561 -3.51518 -3.34011 0
M  V30 464 N 47.2992 1.18797 -1.03562 0
M  V30 465 C 48.5272 1.92599 -0.755869 0
M  V30 466 C 48.9422 1.75886 0.686271 0
M  V30 467 O 48.2992 1.08517 1.46732 0
M  V30 468 C 48.3502 3.44159 -1.10619 0
M  V30 469 O 48.0712 3.60341 -2.4917 0
M  V30 470 C 49.5722 4.3507 -0.850214 0
M  V30 471 H 46.7922 0.611587 -0.276048 0
M  V30 472 H 49.3362 1.50742 -1.38192 0
M  V30 473 H 47.4912 3.83823 -0.525194 0
M  V30 474 H 47.9052 4.54128 -2.62427 0
M  V30 475 H 49.3792 5.39989 -1.14523 0
M  V30 476 H 49.8562 4.38673 0.215176 0
M  V30 477 H 50.4622 4.01097 -1.41426 0
M  V30 478 N 48.7773 0.814389 1.34928 0
M  V30 479 C 49.7093 0.187834 2.28429 0
M  V30 480 C 50.7223 -0.617374 1.5064 0
M  V30 481 O 51.9113 -0.448454 1.72775 0
M  V30 482 C 49.0113 -0.755962 3.30361 0
M  V30 483 C 48.1843 0.00456686 4.374 0
M  V30 484 C 47.2433 -0.858876 5.19143 0
M  V30 485 O 46.2693 -0.306968 5.68372 0
M  V30 486 N 47.4713 -2.17988 5.38016 0
M  V30 487 H 50.2363 0.991105 2.82838 0
M  V30 488 H 47.7973 0.670561 1.4736 0
M  V30 489 H 49.7893 -1.338 3.81942 0
M  V30 490 H 48.3593 -1.46001 2.7641 0
M  V30 491 H 47.5793 0.767865 3.86649 0
M  V30 492 H 48.8673 0.528422 5.06049 0
M  V30 493 H 48.2653 -2.65212 4.99679 0
M  V30 494 H 46.8223 -2.71098 5.92747 0
M  V30 495 N 50.2554 -1.46986 0.568584 0
M  V30 496 C 51.5014 -2.02741 0.0488709 0
M  V30 497 C 51.8344 -1.44077 -1.30214 0
M  V30 498 O 51.1094 -0.600552 -1.84996 0
M  V30 499 C 51.3924 -3.60086 -0.032047 0
M  V30 500 C 51.2454 -4.29162 1.34686 0
M  V30 501 C 52.5644 -4.33838 -0.739798 0
M  V30 502 H 49.6834 -0.736749 0.0192338 0
M  V30 503 H 52.3254 -1.75289 0.733065 0
M  V30 504 H 50.4754 -3.83606 -0.61473 0
M  V30 505 H 52.1474 -4.16948 1.97362 0
M  V30 506 H 50.3904 -3.89073 1.91846 0
M  V30 507 H 51.0614 -5.37826 1.24285 0
M  V30 508 H 53.5374 -4.15378 -0.244939 0
M  V30 509 H 52.4134 -5.43537 -0.765406 0
M  V30 510 H 52.6744 -4.03875 -1.79827 0
M  V30 511 N 51.7335 -0.305618 -1.54608 0
M  V30 512 C 52.9585 0.307562 -2.05107 0
M  V30 513 C 53.3835 1.46385 -1.18123 0
M  V30 514 O 52.7415 1.8034 -0.186324 0
M  V30 515 C 52.7895 0.73704 -3.52987 0
M  V30 516 O 51.8935 1.84134 -3.6901 0
M  V30 517 H 51.2345 0.0589143 -0.661381 0
M  V30 518 H 53.7645 -0.448807 -1.99617 0
M  V30 519 H 53.7745 1.02459 -3.94925 0
M  V30 520 H 52.4495 -0.108773 -4.15758 0
M  V30 521 H 51.0265 1.55398 -3.38978 0
M  V30 522 N 53.2116 1.57565 -0.0334293 0
M  V30 523 C 54.4596 1.91598 0.642999 0
M  V30 524 C 54.7806 0.910847 1.7242 0
M  V30 525 O 54.0506 -0.0469931 1.95844 0
M  V30 526 H 52.6306 0.707228 0.240496 0
M  V30 527 H 55.2926 1.94726 -0.0822488 0
M  V30 528 H 54.3886 2.92336 1.09298 0
M  V30 529 N 54.6897 -0.239769 1.55765 0
M  V30 530 C 56.1007 -0.808263 1.68297 0
M  V30 531 C 56.4517 -1.85736 0.632181 0
M  V30 532 O 55.5767 -2.15277 -0.220204 0
M  V30 533 C 56.1717 -1.47284 3.05111 0
M  V30 534 C 54.7307 -1.98895 3.19559 0
M  V30 535 C 53.8777 -0.842575 2.64189 0
M  V30 536 H 56.8287 -0.0154422 1.58692 0
M  V30 537 H 56.8497 -2.34111 2.99954 0
M  V30 538 H 56.3617 -0.709053 3.81568 0
M  V30 539 H 54.4627 -2.78132 2.47938 0
M  V30 540 H 54.5757 -2.18143 4.26556 0
M  V30 541 H 52.9397 -1.24501 2.22197 0
M  V30 542 H 53.7227 -0.0917552 3.43177 0
M  V30 543 N 56.1678 -1.49265 -0.50573 0
M  V30 544 C 57.4138 -1.58748 -1.26202 0
M  V30 545 C 57.7468 -0.271227 -1.92297 0
M  V30 546 O 57.0218 0.724831 -1.80489 0
M  V30 547 C 57.3048 -2.74332 -2.33268 0
M  V30 548 C 57.1578 -4.15737 -1.71705 0
M  V30 549 C 58.4768 -2.85576 -3.34865 0
M  V30 550 H 55.5958 -0.577826 -0.457478 0
M  V30 551 H 58.2378 -1.81532 -0.560897 0
M  V30 552 H 56.3878 -2.55036 -2.93068 0
M  V30 553 H 58.0598 -4.46537 -1.15769 0
M  V30 554 H 56.3028 -4.21605 -1.02135 0
M  V30 555 H 56.9738 -4.92477 -2.49341 0
M  V30 556 H 59.4498 -3.03127 -2.8505 0
M  V30 557 H 58.3258 -3.68135 -4.07146 0
M  V30 558 H 58.5868 -1.94732 -3.96903 0
M  V30 559 N 57.6459 0.756429 -1.3826 0
M  V30 560 C 58.8759 1.54341 -1.3734 0
M  V30 561 C 59.2839 1.89159 0.0393917 0
M  V30 562 O 58.6269 1.5307 1.01565 0
M  V30 563 C 58.6889 2.87238 -2.16182 0
M  V30 564 C 58.3529 2.74973 -3.65019 0
M  V30 565 C 59.3499 2.44962 -4.58574 0
M  V30 566 C 57.0349 2.92515 -4.08338 0
M  V30 567 C 59.0289 2.32642 -5.93428 0
M  V30 568 C 56.7159 2.79815 -5.43274 0
M  V30 569 C 57.7139 2.49921 -6.35632 0
M  V30 570 O 57.4019 2.37275 -7.68086 0
M  V30 571 H 57.1339 0.484281 -0.471643 0
M  V30 572 H 59.6879 0.944152 -1.82414 0
M  V30 573 H 57.9179 3.49342 -1.65822 0
M  V30 574 H 59.6069 3.48731 -2.07705 0
M  V30 575 H 60.3729 2.31081 -4.26412 0
M  V30 576 H 56.2519 3.14781 -3.368 0
M  V30 577 H 59.7959 2.0923 -6.65484 0
M  V30 578 H 55.6929 2.93269 -5.75034 0
M  V30 579 H 56.4609 2.52509 -7.78577 0
M  V30 580 N 59.124 1.23083 0.984299 0
M  V30 581 C 60.37 1.06214 1.72761 0
M  V30 582 C 60.703 -0.400584 1.90024 0
M  V30 583 O 59.978 -1.29672 1.44967 0
M  V30 584 C 60.261 1.78375 3.12817 0
M  V30 585 C 60.114 3.32296 3.03149 0
M  V30 586 C 61.433 1.54309 4.12161 0
M  V30 587 H 58.552 0.387251 0.627061 0
M  V30 588 H 61.194 1.51536 1.14616 0
M  V30 589 H 59.344 1.39848 3.62457 0
M  V30 590 H 61.016 3.8032 2.61064 0
M  V30 591 H 59.259 3.6153 2.39747 0
M  V30 592 H 59.93 3.77972 4.02295 0
M  V30 593 H 62.406 1.87791 3.71314 0
M  V30 594 H 61.282 2.07281 5.08258 0
M  V30 595 H 61.543 0.477572 4.39513 0
M  V30 596 N 60.6021 -1.18246 1.0419 0
M  V30 597 C 61.8481 -1.88536 0.747122 0
M  V30 598 C 62.1811 -1.80223 -0.723409 0
M  V30 599 O 61.4561 -1.20337 -1.52804 0
M  V30 600 C 61.7391 -3.38968 1.21544 0
M  V30 601 C 61.5921 -3.56084 2.74816 0
M  V30 602 C 62.9111 -4.32648 0.806482 0
M  V30 603 H 60.0301 -0.684619 0.272883 0
M  V30 604 H 62.6721 -1.39113 1.29413 0
M  V30 605 H 60.8221 -3.8119 0.750081 0
M  V30 606 H 62.4941 -3.22946 3.29399 0
M  V30 607 H 60.7371 -2.98699 3.14582 0
M  V30 608 H 61.4081 -4.61639 3.02644 0
M  V30 609 H 63.8841 -3.98211 1.20695 0
M  V30 610 H 62.7601 -5.36462 1.1619 0
M  V30 611 H 63.0211 -4.41146 -0.29029 0
M  V30 612 N 62.0802 -0.821533 -1.34494 0
M  V30 613 C 62.9902 -0.244355 -2.33324 0
M  V30 614 C 64.0062 0.620527 -1.62559 0
M  V30 615 O 65.1822 0.528754 -1.94335 0
M  V30 616 C 62.2472 0.585368 -3.41723 0
M  V30 617 C 61.3082 -0.301752 -4.28238 0
M  V30 618 C 60.5412 0.488466 -5.3146 0
M  V30 619 O 60.7642 1.72186 -5.4379 0
M  V30 620 O 59.6982 -0.12848 -6.01763 0
M  V30 621 H 63.5242 -1.06231 -2.84515 0
M  V30 622 H 61.1092 -0.583645 -1.37528 0
M  V30 623 H 62.9912 1.05747 -4.07916 0
M  V30 624 H 61.6662 1.38068 -2.92778 0
M  V30 625 H 60.5732 -0.821315 -3.64973 0
M  V30 626 H 61.9062 -1.06138 -4.8062 0
M  V30 627 N 63.5583 1.46682 -0.576371 0
M  V30 628 C 64.8353 1.95599 0.00703437 0
M  V30 629 C 65.2153 1.51904 1.46589 0
M  V30 630 O 64.5633 0.766755 2.15251 0
M  V30 631 C 64.7733 3.4864 -0.158404 0
M  V30 632 C 66.1213 4.24594 -0.0229439 0
M  V30 633 O 67.1453 3.56094 -0.0869173 0
M  V30 634 O 66.0043 5.46373 0.118015 0
M  V30 635 H 63.0983 0.825275 0.053384 0
M  V30 636 H 65.6443 1.56996 -0.644244 0
M  V30 637 H 64.4163 3.7331 -1.17282 0
M  V30 638 H 64.0393 3.94057 0.5296 0
M  V30 639 N 65.0364 0.313813 1.54444 0
M  V30 640 C 65.9844 -0.572171 2.25453 0
M  V30 641 C 66.9784 -1.12657 1.2651 0
M  V30 642 O 68.1844 -1.07573 1.44319 0
M  V30 643 H 64.5594 -0.203146 0.724041 0
M  V30 644 H 66.5304 0.0491145 2.9836 0
M  V30 645 C 65.2794 -1.72626 3.0182 0
M  V30 646 H 64.6024 -1.30891 3.77767 0
M  V30 647 H 66.0424 -2.32199 3.54767 0
M  V30 648 C 64.5014 -2.63806 2.09542 0
M  V30 649 O 65.0314 -3.65256 1.67185 0
M  V30 650 N 63.2374 -2.31824 1.75232 0
M  V30 651 H 62.7844 -1.49368 2.09873 0
M  V30 652 H 62.7424 -2.93095 1.13767 0
M  V30 653 N 66.5145 -1.57545 0.0417849 0
M  V30 654 C 67.7445 -1.96339 -0.642995 0
M  V30 655 C 68.1525 -0.917536 -1.65463 0
M  V30 656 O 67.4955 0.107747 -1.83384 0
M  V30 657 C 67.5575 -3.31333 -1.39494 0
M  V30 658 C 67.2215 -4.53796 -0.540204 0
M  V30 659 C 68.2185 -5.19553 0.189806 0
M  V30 660 C 65.9035 -5.0006 -0.473886 0
M  V30 661 C 67.8975 -6.29904 0.974674 0
M  V30 662 C 65.5845 -6.10289 0.314677 0
M  V30 663 C 66.5825 -6.75072 1.03765 0
M  V30 664 O 66.2705 -7.83183 1.81327 0
M  V30 665 H 66.0025 -0.651241 -0.181277 0
M  V30 666 H 68.5565 -2.05148 0.101665 0
M  V30 667 H 66.7865 -3.19052 -2.18502 0
M  V30 668 H 68.4755 -3.54942 -1.96904 0
M  V30 669 H 69.2415 -4.84774 0.147981 0
M  V30 670 H 65.1205 -4.49433 -1.0262 0
M  V30 671 H 68.6645 -6.80401 1.5395 0
M  V30 672 H 64.5615 -6.44506 0.358174 0
M  V30 673 H 65.3295 -7.99913 1.73438 0
M  V30 674 N 67.9926 0.231505 -1.5589 0
M  V30 675 C 69.2226 0.973092 -1.82248 0
M  V30 676 C 69.6306 1.78845 -0.617328 0
M  V30 677 O 68.9736 1.78752 0.423499 0
M  V30 678 C 69.0356 1.94732 -3.02192 0
M  V30 679 C 68.6996 1.31743 -4.37599 0
M  V30 680 C 69.6966 0.712238 -5.14998 0
M  V30 681 C 67.3816 1.33218 -4.84312 0
M  V30 682 C 69.3756 0.130195 -6.37267 0
M  V30 683 C 67.0626 0.746286 -6.06526 0
M  V30 684 C 68.0606 0.146337 -6.82843 0
M  V30 685 O 67.7486 -0.430465 -8.02747 0
M  V30 686 H 67.4806 0.29125 -0.61004 0
M  V30 687 H 70.0346 0.254915 -2.03812 0
M  V30 688 H 68.2646 2.70422 -2.76422 0
M  V30 689 H 69.9536 2.55362 -3.15508 0
M  V30 690 H 70.7196 0.69324 -4.8002 0
M  V30 691 H 66.5986 1.78854 -4.24891 0
M  V30 692 H 70.1426 -0.33871 -6.96777 0
M  V30 693 H 66.0396 0.762663 -6.40979 0
M  V30 694 H 66.8076 -0.323818 -8.17859 0
M  V30 695 N 69.4707 1.49531 0.497807 0
M  V30 696 C 70.7167 1.59415 1.25358 0
M  V30 697 C 71.0497 0.281422 1.9215 0
M  V30 698 O 70.3247 -0.715249 1.80871 0
M  V30 699 C 70.6077 2.75566 2.3181 0
M  V30 700 C 70.4607 4.16642 1.69498 0
M  V30 701 C 71.7797 2.87347 3.33346 0
M  V30 702 H 68.8987 0.580244 0.454408 0
M  V30 703 H 71.5407 1.81827 0.551262 0
M  V30 704 H 69.6907 2.56587 2.91711 0
M  V30 705 H 71.3627 4.47145 1.13399 0
M  V30 706 H 69.6057 4.22141 0.998978 0
M  V30 707 H 70.2767 4.93792 2.46725 0
M  V30 708 H 72.7527 3.04634 2.83438 0
M  V30 709 H 71.6287 3.70289 4.05188 0
M  V30 710 H 71.8897 1.96834 3.95865 0
M  V30 711 N 70.9488 -0.749086 1.3866 0
M  V30 712 C 71.8808 -1.87273 1.32142 0
M  V30 713 C 72.8938 -1.61127 0.232787 0
M  V30 714 O 74.0828 -1.71623 0.49069 0
M  V30 715 C 71.1828 -3.23005 1.02571 0
M  V30 716 C 70.3558 -3.7662 2.22433 0
M  V30 717 C 69.4148 -4.90879 1.89537 0
M  V30 718 O 68.4408 -5.05276 2.62078 0
M  V30 719 N 69.6428 -5.74198 0.853031 0
M  V30 720 H 72.4078 -1.93373 2.28969 0
M  V30 721 H 69.9688 -0.929216 1.32579 0
M  V30 722 H 71.9608 -3.96992 0.786085 0
M  V30 723 H 70.5308 -3.12262 0.145249 0
M  V30 724 H 69.7508 -2.94147 2.62434 0
M  V30 725 H 71.0388 -4.09173 3.02415 0
M  V30 726 H 70.4368 -5.6514 0.25155 0
M  V30 727 H 68.9938 -6.48313 0.67329 0
M  V30 728 N 72.4269 -1.23603 -0.977757 0
M  V30 729 C 73.3369 -1.03632 -2.1047 0
M  V30 730 C 74.3529 0.0199435 -1.73989 0
M  V30 731 O 75.5289 -0.176076 -2.00629 0
M  V30 732 C 72.5939 -0.63276 -3.40877 0
M  V30 733 C 71.6549 -1.76437 -3.91367 0
M  V30 734 C 70.8879 -1.37997 -5.15551 0
M  V30 735 O 71.1109 -0.265357 -5.69782 0
M  V30 736 O 70.0449 -2.20201 -5.60174 0
M  V30 737 H 73.8709 -1.98086 -2.30208 0
M  V30 738 H 71.4559 -1.02332 -1.08851 0
M  V30 739 H 73.3379 -0.418761 -4.19314 0
M  V30 740 H 72.0129 0.282754 -3.22463 0
M  V30 741 H 70.9199 -2.03304 -3.14036 0
M  V30 742 H 72.2529 -2.6583 -4.14241 0
M  V30 743 N 73.905 1.17692 -1.04816 0
M  V30 744 C 74.853 2.23632 -0.63966 0
M  V30 745 C 75.847 1.6601 0.337219 0
M  V30 746 O 77.053 1.78844 0.203693 0
M  V30 747 H 73.428 0.727949 -0.188665 0
M  V30 748 H 75.399 2.55387 -1.54337 0
M  V30 749 C 74.148 3.4769 -0.0264051 0
M  V30 750 H 73.471 3.92331 -0.769164 0
M  V30 751 H 74.911 4.23418 0.222098 0
M  V30 752 C 73.37 3.13807 1.22584 0
M  V30 753 O 73.9 3.28236 2.31569 0
M  V30 754 N 72.106 2.68065 1.12202 0
M  V30 755 H 71.653 2.56525 0.235133 0
M  V30 756 H 71.611 2.45767 1.96076 0
M  V30 757 N 75.3831 0.828654 1.34056 0
M  V30 758 C 76.6081 0.431637 2.02859 0
M  V30 759 C 77.0331 -0.956339 1.61975 0
M  V30 760 O 76.3911 -1.62338 0.807228 0
M  V30 761 C 76.4391 0.548323 3.56407 0
M  V30 762 O 75.5431 -0.429556 4.10157 0
M  V30 763 H 74.8841 0.176886 0.640006 0
M  V30 764 H 77.4141 1.12066 1.71179 0
M  V30 765 H 77.4241 0.426196 4.05768 0
M  V30 766 H 76.0991 1.5606 3.8551 0
M  V30 767 H 74.6761 -0.265836 3.71951 0
M  V30 768 N 76.8612 -1.46375 0.584142 0
M  V30 769 C 77.7942 -2.27351 -0.196676 0
M  V30 770 C 78.7722 -1.35715 -0.895561 0
M  V30 771 O 79.9562 -1.65126 -0.90916 0
M  V30 772 C 77.0832 -3.13486 -1.28235 0
M  V30 773 C 76.1292 -4.20896 -0.689145 0
M  V30 774 S 76.9622 -5.33299 0.48507 0
M  V30 775 C 78.1182 -6.23 -0.601767 0
M  V30 776 H 78.3512 -2.93228 0.490395 0
M  V30 777 H 75.8842 -1.49875 0.371071 0
M  V30 778 H 77.8422 -3.63676 -1.90395 0
M  V30 779 H 76.5032 -2.4692 -1.94138 0
M  V30 780 H 75.6962 -4.80997 -1.50527 0
M  V30 781 H 75.2982 -3.73726 -0.143181 0
M  V30 782 H 77.5902 -6.60979 -1.48705 0
M  V30 783 H 78.5332 -7.0809 -0.0374799 0
M  V30 784 H 78.9412 -5.57173 -0.906557 0
M  V30 785 N 78.3393 -0.321999 -1.54275 0
M  V30 786 C 79.5853 0.281461 -2.00837 0
M  V30 787 C 79.9183 1.51909 -1.20985 0
M  V30 788 O 79.1933 1.923 -0.291733 0
M  V30 789 C 79.4763 0.617162 -3.54772 0
M  V30 790 C 79.3293 -0.631064 -4.45351 0
M  V30 791 C 80.6483 1.43542 -4.16033 0
M  V30 792 H 77.7673 0.100826 -0.730071 0
M  V30 793 H 80.4093 -0.438268 -1.84876 0
M  V30 794 H 78.5593 1.23034 -3.68504 0
M  V30 795 H 80.2313 -1.26934 -4.43492 0
M  V30 796 H 78.4743 -1.26025 -4.15091 0
M  V30 797 H 79.1453 -0.351735 -5.50878 0
M  V30 798 H 81.6213 0.917134 -4.05867 0
M  V30 799 H 80.4973 1.63907 -5.23856 0
M  V30 800 H 80.7583 2.43108 -3.69257 0
M  V30 801 N 79.8174 1.5752 -0.0501392 0
M  V30 802 C 81.0474 1.96678 0.632573 0
M  V30 803 C 81.4554 0.926298 1.64974 0
M  V30 804 O 80.7984 -0.09802 1.83438 0
M  V30 805 C 80.8604 3.32068 1.37735 0
M  V30 806 C 80.5244 4.54076 0.516131 0
M  V30 807 C 81.5214 5.19445 -0.217357 0
M  V30 808 C 79.2064 5.00304 0.44736 0
M  V30 809 C 81.2004 6.29378 -1.00807 0
M  V30 810 C 78.8874 6.10114 -0.347038 0
M  V30 811 C 79.8854 6.74512 -1.07344 0
M  V30 812 O 79.5734 7.82211 -1.85477 0
M  V30 813 H 79.3054 0.652193 0.177821 0
M  V30 814 H 81.8594 2.05091 -0.112543 0
M  V30 815 H 80.0894 3.20206 2.16807 0
M  V30 816 H 81.7784 3.55981 1.95019 0
M  V30 817 H 82.5444 4.84689 -0.173688 0
M  V30 818 H 78.4234 4.49971 1.00235 0
M  V30 819 H 81.9674 6.79575 -1.57556 0
M  V30 820 H 77.8644 6.44307 -0.392349 0
M  V30 821 H 78.6324 7.98982 -1.77678 0
M  V30 822 N 81.2955 -0.223234 1.56011 0
M  V30 823 C 82.5425 -0.947875 1.78946 0
M  V30 824 C 82.8705 -1.844 0.618608 0
M  V30 825 O 82.1255 -1.91629 -0.397093 0
M  V30 826 C 82.4245 -1.81948 3.0762 0
M  V30 827 C 82.0905 -1.07672 4.37856 0
M  V30 828 C 80.7525 -0.871544 4.73242 0
M  V30 829 C 83.1045 -0.552081 5.18268 0
M  V30 830 C 80.4325 -0.129791 5.86556 0
M  V30 831 C 82.7845 0.17632 6.32354 0
M  V30 832 C 81.4485 0.39277 6.66343 0
M  V30 833 H 80.7185 -0.346852 0.654809 0
M  V30 834 H 83.3655 -0.216171 1.90276 0
M  V30 835 H 81.6705 -2.61899 2.91404 0
M  V30 836 H 83.3675 -2.38227 3.22566 0
M  V30 837 H 79.9575 -1.24662 4.1007 0
M  V30 838 H 84.1415 -0.698076 4.91366 0
M  V30 839 H 79.3975 0.048153 6.11381 0
M  V30 840 H 83.5715 0.590367 6.93893 0
M  V30 841 H 81.1985 0.969466 7.53993 0
M  V30 842 N 82.7736 -1.49793 -0.48987 0
M  V30 843 C 84.0216 -1.59525 -1.24081 0
M  V30 844 C 84.3426 -0.288953 -1.92847 0
M  V30 845 O 83.6126 0.692436 -1.83254 0
M  V30 846 H 82.1926 -0.587796 -0.460983 0
M  V30 847 H 84.8546 -1.86477 -0.566778 0
M  V30 848 H 83.9506 -2.39696 -1.99881 0
M  V30 849 N 84.2517 0.741722 -1.39055 0
M  V30 850 C 85.2147 1.83733 -1.37021 0
M  V30 851 C 86.2147 1.58542 -0.268534 0
M  V30 852 O 87.4047 1.66067 -0.526076 0
M  V30 853 C 84.5367 3.2141 -1.13617 0
M  V30 854 H 85.7297 1.86941 -2.34506 0
M  V30 855 H 83.2827 0.944676 -1.24521 0
M  V30 856 H 84.0177 3.23865 -0.167863 0
M  V30 857 H 83.8027 3.4109 -1.93391 0
M  V30 858 H 85.2927 4.01477 -1.14918 0
M  V30 859 N 85.7298 1.2412 0.971189 0
M  V30 860 C 86.6768 1.0305 2.06517 0
M  V30 861 C 87.6468 -0.0550666 1.66009 0
M  V30 862 O 88.8318 0.0988688 1.90544 0
M  V30 863 C 85.9718 0.637653 3.39158 0
M  V30 864 C 85.0848 1.79633 3.92882 0
M  V30 865 C 84.2198 1.34939 5.13775 0
M  V30 866 C 83.2588 2.47823 5.59687 0
M  V30 867 N 82.3958 2.04022 6.71803 0
M  V30 868 H 87.2358 1.96685 2.23873 0
M  V30 869 H 84.7728 0.979694 1.09729 0
M  V30 870 H 86.7308 0.390931 4.15364 0
M  V30 871 H 85.3608 -0.261693 3.21737 0
M  V30 872 H 84.4128 2.15681 3.13346 0
M  V30 873 H 85.7248 2.64466 4.22918 0
M  V30 874 H 84.8788 1.06134 5.97345 0
M  V30 875 H 83.6178 0.471557 4.85415 0
M  V30 876 H 82.6228 2.77392 4.74693 0
M  V30 877 H 83.8478 3.36158 5.90063 0
M  V30 878 H 81.7938 1.18632 6.45184 0
M  V30 879 H 81.7108 2.82409 7.01271 0
M  V30 880 H 82.9788 1.78347 7.58823 0
M  V30 881 N 87.2079 -1.17134 1.05439 0
M  V30 882 C 88.4559 -1.87085 0.764429 0
M  V30 883 C 88.7769 -1.81584 -0.710787 0
M  V30 884 O 88.0469 -1.24349 -1.51374 0
M  V30 885 H 86.6269 -0.692627 0.279779 0
M  V30 886 H 89.2889 -1.42087 1.33406 0
M  V30 887 H 88.3849 -2.92759 1.0816 0
M  V30 888 N 88.686 -0.835752 -1.33615 0
M  V30 889 C 89.932 -0.430596 -1.98176 0
M  V30 890 C 90.265 1.00684 -1.66061 0
M  V30 891 O 89.54 1.70339 -0.938877 0
M  V30 892 C 89.823 -0.648065 -3.5422 0
M  V30 893 C 89.676 -2.13255 -3.96033 0
M  V30 894 C 90.995 -0.0922113 -4.40003 0
M  V30 895 H 88.114 -0.157924 -0.719881 0
M  V30 896 H 90.756 -1.05069 -1.58305 0
M  V30 897 H 88.906 -0.120237 -3.88314 0
M  V30 898 H 90.578 -2.725 -3.72211 0
M  V30 899 H 88.821 -2.61823 -3.45878 0
M  V30 900 H 89.492 -2.23547 -5.04708 0
M  V30 901 H 91.968 -0.543343 -4.12537 0
M  V30 902 H 90.844 -0.274083 -5.48215 0
M  V30 903 H 91.105 1.00378 -4.30554 0
M  V30 904 N 90.1641 1.46063 -0.591896 0
M  V30 905 C 91.3921 2.06717 -0.0868936 0
M  V30 906 C 91.8071 1.43916 1.22203 0
M  V30 907 O 91.1641 0.547698 1.74088 0
M  V30 908 C 91.2151 3.6142 0.0758725 0
M  V30 909 O 90.9361 4.21874 -1.18126 0
M  V30 910 C 92.4371 4.39025 0.61416 0
M  V30 911 H 89.6571 0.668162 -0.0616518 0
M  V30 912 H 92.2011 1.8755 -0.815175 0
M  V30 913 H 90.3561 3.79983 0.754413 0
M  V30 914 H 90.7701 5.14861 -1.00092 0
M  V30 915 H 92.2441 5.4783 0.677193 0
M  V30 916 H 92.7211 4.07708 1.63312 0
M  V30 917 H 93.3271 4.2529 -0.0298142 0
M  V30 918 N 91.6422 0.330177 1.54103 0
M  V30 919 C 92.8882 -0.270806 2.00984 0
M  V30 920 C 93.2212 -1.51265 1.21789 0
M  V30 921 O 92.4962 -1.92142 0.301927 0
M  V30 922 C 92.7792 -0.598339 3.55094 0
M  V30 923 C 92.6322 0.654674 4.4501 0
M  V30 924 C 93.9512 -1.41334 4.16789 0
M  V30 925 H 91.0702 -0.0969531 0.730595 0
M  V30 926 H 93.7122 0.448066 1.84641 0
M  V30 927 H 91.8622 -1.21078 3.69151 0
M  V30 928 H 93.5342 1.29285 4.42813 0
M  V30 929 H 91.7772 1.28224 4.14416 0
M  V30 930 H 92.4482 0.380944 5.50684 0
M  V30 931 H 94.9242 -0.895597 4.06347 0
M  V30 932 H 93.8002 -1.61127 5.24718 0
M  V30 933 H 94.0612 -2.41146 3.70541 0
M  V30 934 N 93.1203 -1.57491 0.0584922 0
M  V30 935 C 94.3663 -1.93264 -0.614558 0
M  V30 936 C 94.6993 -0.937717 -1.7006 0
M  V30 937 O 93.9743 0.0351652 -1.94468 0
M  V30 938 C 94.2573 -3.3938 -1.20386 0
M  V30 939 C 94.1103 -4.49625 -0.125375 0
M  V30 940 C 95.4293 -3.86039 -2.11334 0
M  V30 941 H 92.5483 -0.702791 -0.221933 0
M  V30 942 H 95.1903 -1.8961 0.12175 0
M  V30 943 H 93.3403 -3.42626 -1.83139 0
M  V30 944 H 95.0123 -4.58506 0.506971 0
M  V30 945 H 93.2553 -4.30354 0.545672 0
M  V30 946 H 93.9263 -5.48967 -0.577861 0
M  V30 947 H 96.4023 -3.84716 -1.58534 0
M  V30 948 H 95.2783 -4.88914 -2.49507 0
M  V30 949 H 95.5393 -3.23215 -3.01636 0
M  V30 950 N 94.5984 0.214957 -1.56127 0
M  V30 951 C 95.8464 0.936518 -1.79091 0
M  V30 952 C 96.1674 1.84606 -0.628148 0
M  V30 953 O 95.4374 1.92664 0.35462 0
M  V30 954 H 94.0174 0.3488 -0.660566 0
M  V30 955 H 96.6794 0.22523 -1.93594 0
M  V30 956 H 95.7754 1.53943 -2.71492 0
M  V30 957 N 96.0765 1.50051 0.48192 0
M  V30 958 C 97.0395 1.67584 1.5636 0
M  V30 959 C 98.0395 0.546894 1.51214 0
M  V30 960 O 99.2295 0.813725 1.54026 0
M  V30 961 C 96.3615 1.691 2.96003 0
M  V30 962 H 97.5545 2.64078 1.42136 0
M  V30 963 H 95.1075 1.39369 0.707533 0
M  V30 964 H 95.8425 0.742589 3.15684 0
M  V30 965 H 95.6275 2.51105 3.01146 0
M  V30 966 H 97.1175 1.84656 3.74556 0
M  V30 967 N 97.5546 -0.734337 1.39446 0
M  V30 968 C 98.7826 -1.52358 1.39981 0
M  V30 969 C 99.1976 -1.88799 -0.0054975 0
M  V30 970 O 98.5546 -1.54146 -0.976998 0
M  V30 971 C 98.6056 -2.81072 2.27333 0
M  V30 972 O 98.3266 -2.46178 3.62392 0
M  V30 973 C 99.8276 -3.75096 2.36259 0
M  V30 974 H 97.0476 -0.470806 0.478103 0
M  V30 975 H 99.5916 -0.907339 1.83269 0
M  V30 976 H 97.7466 -3.39026 1.87457 0
M  V30 977 H 98.1606 -3.28866 4.08592 0
M  V30 978 H 99.6346 -4.62305 3.01626 0
M  V30 979 H 100.112 -4.16892 1.38194 0
M  V30 980 H 100.718 -3.23061 2.76608 0
M  V30 981 N 99.0327 -1.24633 -0.964593 0
M  V30 982 C 100.279 -1.09957 -1.71117 0
M  V30 983 C 100.634 0.357422 -1.89051 0
M  V30 984 O 99.9267 1.26029 -1.44317 0
M  V30 985 C 100.121 -1.7763 -3.10133 0
M  V30 986 C 99.9497 -3.29759 -3.05759 0
M  V30 987 C 98.7197 -3.98981 -3.10068 0
M  V30 988 C 100.918 -4.26305 -2.87695 0
M  V30 989 N 98.8997 -5.37966 -2.95747 0
M  V30 990 C 100.271 -5.52308 -2.81702 0
M  V30 991 C 102.326 -4.16842 -2.72299 0
M  V30 992 C 101.029 -6.69931 -2.61887 0
M  V30 993 C 103.055 -5.34147 -2.53853 0
M  V30 994 C 102.417 -6.59084 -2.48572 0
M  V30 995 H 98.5157 -0.457003 -0.634564 0
M  V30 996 H 101.1 -1.57592 -1.14337 0
M  V30 997 H 99.2707 -1.32504 -3.65099 0
M  V30 998 H 101.003 -1.55786 -3.73514 0
M  V30 999 H 97.7577 -3.50169 -3.18871 0
M  V30 1000 H 98.1817 -6.10877 -2.91818 0
M  V30 1001 H 102.824 -3.21007 -2.75163 0
M  V30 1002 H 100.542 -7.65886 -2.57767 0
M  V30 1003 H 104.128 -5.28678 -2.4288 0
M  V30 1004 H 103.008 -7.48324 -2.34481 0
M  V30 1005 N 100.511 1.16574 -1.06058 0
M  V30 1006 C 101.739 1.90952 -0.796552 0
M  V30 1007 C 102.154 1.77302 0.648808 0
M  V30 1008 O 101.511 1.11605 1.44397 0
M  V30 1009 C 101.562 3.41736 -1.17894 0
M  V30 1010 O 101.283 3.54975 -2.56758 0
M  V30 1011 C 102.784 4.33169 -0.942308 0
M  V30 1012 H 100.004 0.605594 -0.288959 0
M  V30 1013 H 102.548 1.47777 -1.41358 0
M  V30 1014 H 100.703 3.82623 -0.606491 0
M  V30 1015 H 101.117 4.4846 -2.72 0
M  V30 1016 H 102.591 5.37439 -1.25952 0
M  V30 1017 H 103.068 4.3903 0.122078 0
M  V30 1018 H 103.674 3.98007 -1.49902 0
M  V30 1019 N 101.989 0.842826 1.3317 0
M  V30 1020 C 103.4 0.496651 1.79973 0
M  V30 1021 C 103.751 -0.984641 1.69703 0
M  V30 1022 O 102.876 -1.76743 1.24863 0
M  V30 1023 C 103.471 0.894727 3.26772 0
M  V30 1024 C 102.03 0.600629 3.71577 0
M  V30 1025 C 101.177 1.10091 2.5451 0
M  V30 1026 H 104.128 1.03116 1.20635 0
M  V30 1027 H 104.149 0.206347 3.7994 0
M  V30 1028 H 103.661 1.97287 3.34215 0
M  V30 1029 H 101.762 -0.467284 3.69658 0
M  V30 1030 H 101.875 1.15863 4.64879 0
M  V30 1031 H 100.239 0.52162 2.49301 0
M  V30 1032 H 101.022 2.18591 2.64713 0
M  V30 1033 N 103.467 -1.45747 0.599634 0
M  V30 1034 C 104.744 -1.95585 0.0240846 0
M  V30 1035 C 105.124 -1.54217 -1.44154 0
M  V30 1036 O 104.472 -0.800903 -2.14004 0
M  V30 1037 C 104.682 -3.48344 0.21385 0
M  V30 1038 C 106.03 -4.24504 0.0904902 0
M  V30 1039 O 107.054 -3.55911 0.143558 0
M  V30 1040 O 105.913 -5.46491 -0.0310766 0
M  V30 1041 H 103.007 -0.82602 -0.0402478 0
M  V30 1042 H 105.553 -1.55951 0.669139 0
M  V30 1043 H 104.325 -3.71397 1.23206 0
M  V30 1044 H 103.948 -3.9485 -0.466842 0
M  V30 1045 N 104.945 -0.338344 -1.53925 0
M  V30 1046 C 106.173 0.261298 -2.05243 0
M  V30 1047 C 106.588 1.44625 -1.21363 0
M  V30 1048 O 105.945 1.80811 -0.247736 0
M  V30 1049 C 105.996 0.681412 -3.5502 0
M  V30 1050 O 105.717 -0.456414 -4.35716 0
M  V30 1051 C 107.218 1.34232 -4.22489 0
M  V30 1052 H 104.438 0.0513685 -0.669031 0
M  V30 1053 H 106.982 -0.488822 -1.98572 0
M  V30 1054 H 105.137 1.38148 -3.61931 0
M  V30 1055 H 105.551 -0.122564 -5.24357 0
M  V30 1056 H 107.025 1.58708 -5.28693 0
M  V30 1057 H 107.502 2.29426 -3.74514 0
M  V30 1058 H 108.108 0.684424 -4.19757 0
M  V30 1059 N 106.423 1.57458 -0.0668435 0
M  V30 1060 C 107.386 2.11323 0.887422 0
M  V30 1061 C 108.386 1.03618 1.22964 0
M  V30 1062 O 109.576 1.29626 1.16373 0
M  V30 1063 C 106.708 2.61048 2.19242 0
M  V30 1064 H 107.901 2.96942 0.420194 0
M  V30 1065 H 105.454 1.55239 0.181793 0
M  V30 1066 H 106.189 1.78868 2.70512 0
M  V30 1067 H 105.974 3.39769 1.95702 0
M  V30 1068 H 107.464 3.02814 2.87565 0
M  V30 1069 N 107.901 -0.206675 1.56239 0
M  V30 1070 C 109.317 -0.557025 1.49564 0
M  V30 1071 C 109.517 -1.86424 0.764735 0
M  V30 1072 O 108.573 -2.50584 0.310491 0
M  V30 1073 C 109.886 -0.622478 2.94186 0
M  V30 1074 C 111.434 -0.712099 3.04792 0
M  V30 1075 C 111.909 -0.808767 4.50803 0
M  V30 1076 N 113.4 -0.8726 4.54907 0
M  V30 1077 C 114.135 -0.967365 5.65181 0
M  V30 1078 N 113.631 -1.02515 6.85173 0
M  V30 1079 N 115.424 -1.00366 5.53067 0
M  V30 1080 H 107.575 0.650943 2.02179 0
M  V30 1081 H 109.838 0.230387 0.919579 0
M  V30 1082 H 109.544 0.268727 3.50672 0
M  V30 1083 H 109.418 -1.4811 3.46905 0
M  V30 1084 H 111.805 -1.59374 2.48363 0
M  V30 1085 H 111.886 0.172489 2.55218 0
M  V30 1086 H 111.53 0.0684754 5.07854 0
M  V30 1087 H 111.46 -1.70899 4.98098 0
M  V30 1088 H 113.951 -0.837657 3.68499 0
M  V30 1089 H 114.264 -1.09765 7.64965 0
M  V30 1090 H 112.609 -0.994026 6.87855 0
M  V30 1091 H 115.8 -0.95527 4.58249 0
M  V30 1092 H 115.973 -1.07405 6.39037 0
M  V30 1093 N 109.379 -1.50304 -0.473955 0
M  V30 1094 C 110.289 -1.7174 -1.5982 0
M  V30 1095 C 111.305 -0.600457 -1.63311 0
M  V30 1096 O 112.481 -0.878441 -1.81233 0
M  V30 1097 C 109.546 -1.80427 -2.96052 0
M  V30 1098 C 108.607 -3.04148 -3.02972 0
M  V30 1099 C 107.84 -3.12411 -4.32706 0
M  V30 1100 O 108.063 -2.27542 -5.23049 0
M  V30 1101 O 106.997 -4.05113 -4.45159 0
M  V30 1102 H 110.823 -2.67035 -1.44657 0
M  V30 1103 H 108.408 -1.34366 -0.653148 0
M  V30 1104 H 110.29 -1.88338 -3.7697 0
M  V30 1105 H 108.965 -0.883156 -3.11419 0
M  V30 1106 H 107.872 -3.0174 -2.21142 0
M  V30 1107 H 109.205 -3.95829 -2.92541 0
M  V30 1108 N 110.857 0.726932 -1.39834 0
M  V30 1109 C 111.787 1.85405 -1.41941 0
M  V30 1110 C 112.768 1.67751 -0.281728 0
M  V30 1111 O 113.953 1.8795 -0.488717 0
M  V30 1112 C 111.083 3.23243 -1.2701 0
M  V30 1113 C 110.037 3.55549 -2.38262 0
M  V30 1114 C 109.363 4.9241 -2.08415 0
M  V30 1115 C 110.663 3.577 -3.80589 0
M  V30 1116 H 112.357 1.83899 -2.36266 0
M  V30 1117 H 109.903 0.883349 -1.13723 0
M  V30 1118 H 111.856 4.01775 -1.27103 0
M  V30 1119 H 110.58 3.25296 -0.291564 0
M  V30 1120 H 109.239 2.79351 -2.37399 0
M  V30 1121 H 108.887 4.91052 -1.0898 0
M  V30 1122 H 108.587 5.14992 -2.82943 0
M  V30 1123 H 110.111 5.73289 -2.10171 0
M  V30 1124 H 111.525 4.26293 -3.83337 0
M  V30 1125 H 109.922 3.91804 -4.54543 0
M  V30 1126 H 110.992 2.57328 -4.10987 0
M  V30 1127 N 112.336 1.25143 0.95797 0
M  V30 1128 C 113.286 1.01924 2.0395 0
M  V30 1129 C 114.27 -0.0427175 1.60843 0
M  V30 1130 O 115.462 0.17221 1.7616 0
M  V30 1131 C 112.591 0.636373 3.3735 0
M  V30 1132 C 111.677 1.73492 3.8699 0
M  V30 1133 N 112.068 2.96945 4.0946 0
M  V30 1134 C 110.366 1.61467 4.15746 0
M  V30 1135 C 111.067 3.68228 4.50315 0
M  V30 1136 N 110.043 2.95833 4.56053 0
M  V30 1137 H 113.845 1.95653 2.19311 0
M  V30 1138 H 111.359 1.15413 1.14253 0
M  V30 1139 H 113.356 0.451233 4.14451 0
M  V30 1140 H 112.016 -0.293621 3.2337 0
M  V30 1141 H 113.027 3.33025 3.96629 0
M  V30 1142 H 109.704 0.753394 4.10646 0
M  V30 1143 H 111.094 4.74178 4.76031 0
M  V30 1144 N 113.814 -1.1601 1.06675 0
M  V30 1145 C 114.761 -2.20525 0.680967 0
M  V30 1146 C 115.731 -1.62904 -0.324283 0
M  V30 1147 O 116.916 -1.89615 -0.212294 0
M  V30 1148 C 114.056 -3.45013 0.0776551 0
M  V30 1149 C 113.169 -4.16863 1.13355 0
M  V30 1150 C 112.304 -5.2888 0.49597 0
M  V30 1151 C 111.343 -5.92537 1.53513 0
M  V30 1152 N 110.48 -6.96038 0.920631 0
M  V30 1153 H 115.32 -2.52876 1.57663 0
M  V30 1154 H 112.857 -1.24199 0.788223 0
M  V30 1155 H 114.815 -4.16193 -0.289704 0
M  V30 1156 H 113.445 -3.132 -0.781393 0
M  V30 1157 H 112.497 -3.44248 1.61857 0
M  V30 1158 H 113.809 -4.60294 1.92174 0
M  V30 1159 H 112.963 -6.06653 0.0758604 0
M  V30 1160 H 111.702 -4.86622 -0.324062 0
M  V30 1161 H 110.707 -5.13482 1.9651 0
M  V30 1162 H 111.932 -6.36873 2.35733 0
M  V30 1163 H 109.878 -6.55888 0.12138 0
M  V30 1164 H 109.795 -7.3786 1.64616 0
M  V30 1165 H 111.063 -7.77725 0.525795 0
M  V30 1166 N 115.292 -0.849877 -1.32721 0
M  V30 1167 C 116.222 -0.306308 -2.31482 0
M  V30 1168 C 117.203 0.591952 -1.59468 0
M  V30 1169 O 118.388 0.513199 -1.87296 0
M  V30 1170 C 115.518 0.510204 -3.43532 0
M  V30 1171 C 114.472 -0.293209 -4.26994 0
M  V30 1172 C 113.798 0.647743 -5.30762 0
M  V30 1173 C 115.098 -1.51634 -4.99804 0
M  V30 1174 H 116.792 -1.13153 -2.77195 0
M  V30 1175 H 114.338 -0.545553 -1.33266 0
M  V30 1176 H 116.291 0.900856 -4.11658 0
M  V30 1177 H 115.015 1.36874 -2.96535 0
M  V30 1178 H 113.674 -0.665555 -3.60508 0
M  V30 1179 H 113.322 1.50299 -4.8002 0
M  V30 1180 H 113.022 0.11422 -5.87489 0
M  V30 1181 H 114.546 1.03567 -6.01753 0
M  V30 1182 H 115.96 -1.19824 -5.60638 0
M  V30 1183 H 114.357 -1.98745 -5.66234 0
M  V30 1184 H 115.427 -2.28018 -4.27943 0
M  V30 1185 N 116.77 1.45427 -0.607355 0
M  V30 1186 C 118.019 2.01452 -0.100036 0
M  V30 1187 C 118.332 1.48159 1.27704 0
M  V30 1188 O 119.538 1.96159 1.87707 0
M  V30 1189 C 117.994 3.59672 -0.128158 0
M  V30 1190 C 117.602 4.21962 -1.50507 0
M  V30 1191 C 119.346 4.23262 0.323932 0
M  V30 1192 C 117.253 5.72333 -1.48959 0
M  V30 1193 H 116.183 0.75325 -0.0336299 0
M  V30 1194 H 118.834 1.66901 -0.76265 0
M  V30 1195 H 117.216 3.91411 0.601105 0
M  V30 1196 H 118.39 4.01796 -2.25602 0
M  V30 1197 H 116.705 3.70565 -1.89923 0
M  V30 1198 H 119.302 5.33522 0.354691 0
M  V30 1199 H 119.645 3.93921 1.34656 0
M  V30 1200 H 120.178 3.96239 -0.352056 0
M  V30 1201 H 116.917 6.06373 -2.48981 0
M  V30 1202 H 116.437 5.94691 -0.781214 0
M  V30 1203 H 118.116 6.35525 -1.21313 0
M  V30 1204 N 118.248 0.346503 1.53744 0
M  V30 1205 C 119.195 -0.508914 2.25119 0
M  V30 1206 C 120.165 -1.09315 1.25058 0
M  V30 1207 O 121.35 -1.12921 1.53797 0
M  V30 1208 C 118.49 -1.65246 3.02965 0
M  V30 1209 C 117.603 -1.09525 4.17886 0
M  V30 1210 C 116.738 -2.20634 4.83212 0
M  V30 1211 C 115.777 -1.62279 5.90196 0
M  V30 1212 N 114.914 -2.67143 6.49291 0
M  V30 1213 H 119.754 0.106283 2.9781 0
M  V30 1214 H 117.291 0.0642227 1.4696 0
M  V30 1215 H 119.249 -2.32574 3.4636 0
M  V30 1216 H 117.879 -2.2386 2.32565 0
M  V30 1217 H 116.931 -0.312818 3.79112 0
M  V30 1218 H 118.243 -0.628444 4.94825 0
M  V30 1219 H 117.397 -2.95821 5.29693 0
M  V30 1220 H 116.136 -2.70659 4.05703 0
M  V30 1221 H 115.141 -0.855989 5.43096 0
M  V30 1222 H 116.366 -1.13102 6.69615 0
M  V30 1223 H 114.312 -3.16417 5.74645 0
M  V30 1224 H 114.229 -2.25093 7.21713 0
M  V30 1225 H 115.497 -3.4209 7.00425 0
M  V30 1226 N 119.726 -1.57421 0.075193 0
M  V30 1227 C 121.142 -1.57099 -0.281444 0
M  V30 1228 C 121.342 -1.08486 -1.69803 0
M  V30 1229 O 120.398 -0.752279 -2.41033 0
M  V30 1230 C 121.711 -3.00571 -0.0880041 0
M  V30 1231 C 123.259 -3.12605 -0.157281 0
M  V30 1232 C 123.734 -4.57999 0.0079207 0
M  V30 1233 N 125.225 -4.63176 -0.0475725 0
M  V30 1234 C 125.96 -5.73373 0.0557876 0
M  V30 1235 N 125.456 -6.92473 0.21286 0
M  V30 1236 N 127.249 -5.621 -0.00152098 0
M  V30 1237 H 119.4 -1.87335 1.00098 0
M  V30 1238 H 121.663 -0.86377 0.390646 0
M  V30 1239 H 121.369 -3.40262 0.889629 0
M  V30 1240 H 121.243 -3.67754 -0.838875 0
M  V30 1241 H 123.63 -2.72798 -1.1254 0
M  V30 1242 H 123.711 -2.48053 0.62475 0
M  V30 1243 H 123.355 -4.98496 0.972824 0
M  V30 1244 H 123.285 -5.20586 -0.793556 0
M  V30 1245 H 125.776 -3.7753 -0.167244 0
M  V30 1246 H 126.089 -7.72279 0.283781 0
M  V30 1247 H 124.434 -6.94556 0.248267 0
M  V30 1248 H 127.625 -4.67938 -0.122958 0
M  V30 1249 H 127.798 -6.47948 0.0824844 0
M  V30 1250 N 121.204 0.198386 -1.56346 0
M  V30 1251 C 122.45 0.920648 -1.80698 0
M  V30 1252 C 122.783 1.83045 -0.648697 0
M  V30 1253 O 122.058 1.91308 0.350925 0
M  V30 1254 C 122.341 1.73971 -3.15287 0
M  V30 1255 C 122.194 0.85485 -4.41602 0
M  V30 1256 C 123.513 2.71296 -3.46535 0
M  V30 1257 H 120.632 0.333261 -0.657348 0
M  V30 1258 H 123.274 0.188198 -1.89066 0
M  V30 1259 H 121.424 2.36416 -3.08285 0
M  V30 1260 H 123.096 0.245362 -4.60647 0
M  V30 1261 H 121.339 0.161398 -4.335 0
M  V30 1262 H 122.01 1.46286 -5.32264 0
M  V30 1263 H 124.486 2.18983 -3.53816 0
M  V30 1264 H 123.362 3.2569 -4.41834 0
M  V30 1265 H 123.623 3.5018 -2.69864 0
M  V30 1266 N 122.682 1.50554 0.465978 0
M  V30 1267 C 123.907 1.65838 1.24549 0
M  V30 1268 C 124.332 0.343486 1.84937 0
M  V30 1269 O 123.69 -0.69324 1.67523 0
M  V30 1270 C 123.738 2.75533 2.32624 0
M  V30 1271 O 122.842 2.37142 3.37398 0
M  V30 1272 H 122.183 0.553893 0.366194 0
M  V30 1273 H 124.713 1.96959 0.553927 0
M  V30 1274 H 124.723 2.98763 2.77857 0
M  V30 1275 H 123.398 3.70962 1.88043 0
M  V30 1276 H 121.975 2.24377 2.97841 0
M  V30 1277 N 124.16 -0.719506 1.40217 0
M  V30 1278 C 125.576 -1.02707 1.22161 0
M  V30 1279 C 125.776 -2.0128 0.0940557 0
M  V30 1280 O 124.832 -2.46452 -0.549318 0
M  V30 1281 C 126.145 -1.57454 2.56181 0
M  V30 1282 C 127.693 -1.69458 2.63159 0
M  V30 1283 C 128.168 -2.27611 3.97438 0
M  V30 1284 N 129.659 -2.35002 3.99159 0
M  V30 1285 C 130.394 -2.80972 4.99842 0
M  V30 1286 N 129.89 -3.26723 6.10921 0
M  V30 1287 N 131.683 -2.80321 4.87213 0
M  V30 1288 H 123.834 -0.0660492 2.12297 0
M  V30 1289 H 126.097 -0.0919077 0.943534 0
M  V30 1290 H 125.803 -0.924873 3.39321 0
M  V30 1291 H 125.677 -2.56036 2.76993 0
M  V30 1292 H 128.064 -2.33543 1.80393 0
M  V30 1293 H 128.145 -0.694867 2.46181 0
M  V30 1294 H 127.789 -1.6415 4.80643 0
M  V30 1295 H 127.719 -3.2829 4.11744 0
M  V30 1296 H 130.21 -2.02685 3.18947 0
M  V30 1297 H 130.523 -3.60355 6.8364 0
M  V30 1298 H 128.868 -3.24692 6.14492 0
M  V30 1299 H 132.059 -2.43912 3.9953 0
M  V30 1300 H 132.232 -3.15831 5.65822 0
M  V30 1301 N 125.638 -1.25649 -0.95132 0
M  V30 1302 C 126.585 -1.06323 -2.04851 0
M  V30 1303 C 127.555 0.0286491 -1.66075 0
M  V30 1304 O 128.74 -0.12917 -1.90362 0
M  V30 1305 C 125.88 -0.691529 -3.381 0
M  V30 1306 C 124.993 -1.85861 -3.89974 0
M  V30 1307 C 124.128 -1.43096 -5.11563 0
M  V30 1308 C 123.167 -2.56696 -5.55674 0
M  V30 1309 N 122.304 -2.14684 -6.68472 0
M  V30 1310 H 127.144 -2.00222 -2.20715 0
M  V30 1311 H 124.681 -0.997027 -1.08156 0
M  V30 1312 H 126.639 -0.456963 -4.1469 0
M  V30 1313 H 125.269 0.210474 -3.22113 0
M  V30 1314 H 124.321 -2.20639 -3.09875 0
M  V30 1315 H 125.633 -2.71161 -4.18657 0
M  V30 1316 H 124.787 -1.15624 -5.9558 0
M  V30 1317 H 123.526 -0.548722 -4.84603 0
M  V30 1318 H 122.531 -2.84909 -4.7022 0
M  V30 1319 H 123.756 -3.45503 -5.8464 0
M  V30 1320 H 121.702 -1.28881 -6.43215 0
M  V30 1321 H 121.619 -2.9353 -6.96689 0
M  V30 1322 H 122.887 -1.90397 -7.5589 0
M  V30 1323 N 127.117 1.15442 -1.07289 0
M  V30 1324 C 128.528 1.67803 -0.818475 0
M  V30 1325 C 128.879 1.8489 0.656507 0
M  V30 1326 O 128.004 1.55176 1.50829 0
M  V30 1327 C 128.599 3.04805 -1.47917 0
M  V30 1328 C 127.158 3.54245 -1.27229 0
M  V30 1329 C 126.305 2.29986 -1.54925 0
M  V30 1330 H 129.256 0.996646 -1.23502 0
M  V30 1331 H 129.277 3.69702 -0.90005 0
M  V30 1332 H 128.789 2.92336 -2.55267 0
M  V30 1333 H 126.89 3.71956 -0.21899 0
M  V30 1334 H 127.003 4.35723 -1.99203 0
M  V30 1335 H 125.367 2.35496 -0.970242 0
M  V30 1336 H 126.15 2.20105 -2.63455 0
M  V30 1337 N 128.595 0.856903 1.32268 0
M  V30 1338 C 129.841 0.462069 1.97466 0
M  V30 1339 C 130.174 -0.980298 1.67642 0
M  V30 1340 O 129.449 -1.68824 0.965858 0
M  V30 1341 C 129.732 0.704336 3.53145 0
M  V30 1342 C 129.585 2.19529 3.9259 0
M  V30 1343 C 130.904 0.1622 4.39801 0
M  V30 1344 H 128.023 0.169357 0.717278 0
M  V30 1345 H 130.665 1.07574 1.56614 0
M  V30 1346 H 128.815 0.181999 3.88073 0
M  V30 1347 H 130.487 2.78387 3.67829 0
M  V30 1348 H 128.73 2.67292 3.41668 0
M  V30 1349 H 129.401 2.31549 5.01088 0
M  V30 1350 H 131.877 0.608905 4.11621 0
M  V30 1351 H 130.753 0.361265 5.4771 0
M  V30 1352 H 131.014 -0.935158 4.32096 0
M  V30 1353 N 130.073 -1.45103 0.615059 0
M  V30 1354 C 131.003 -2.33339 -0.0865619 0
M  V30 1355 C 131.984 -1.4727 -0.851209 0
M  V30 1356 O 133.169 -1.76026 -0.820281 0
M  V30 1357 C 130.299 -3.30095 -1.07956 0
M  V30 1358 C 129.253 -4.25858 -0.427628 0
M  V30 1359 C 128.579 -5.12361 -1.5294 0
M  V30 1360 C 129.879 -5.18165 0.655944 0
M  V30 1361 H 131.573 -2.92254 0.650224 0
M  V30 1362 H 129.119 -1.40532 0.314138 0
M  V30 1363 H 131.072 -3.90698 -1.57901 0
M  V30 1364 H 129.796 -2.69355 -1.84703 0
M  V30 1365 H 128.455 -3.66564 0.0510292 0
M  V30 1366 H 128.103 -4.47984 -2.28734 0
M  V30 1367 H 127.803 -5.77238 -1.09865 0
M  V30 1368 H 129.327 -5.75833 -2.03098 0
M  V30 1369 H 130.741 -5.72796 0.240257 0
M  V30 1370 H 129.138 -5.91559 1.00888 0
M  V30 1371 H 130.208 -4.60144 1.52957 0
M  V30 1372 N 131.551 -0.354651 -1.53558 0
M  V30 1373 C 132.461 0.50515 -2.29097 0
M  V30 1374 C 133.477 1.10223 -1.34636 0
M  V30 1375 O 134.653 1.11553 -1.67684 0
M  V30 1376 C 131.718 1.63479 -3.05738 0
M  V30 1377 C 130.779 1.06636 -4.15845 0
M  V30 1378 C 130.012 2.14217 -4.88822 0
M  V30 1379 O 130.235 3.35137 -4.61562 0
M  V30 1380 O 129.169 1.77887 -5.75013 0
M  V30 1381 H 132.995 -0.109237 -3.03503 0
M  V30 1382 H 130.58 -0.119357 -1.48922 0
M  V30 1383 H 132.462 2.2918 -3.5363 0
M  V30 1384 H 131.137 2.23478 -2.34178 0
M  V30 1385 H 130.044 0.373565 -3.7223 0
M  V30 1386 H 131.377 0.511081 -4.89539 0
M  V30 1387 N 133.029 1.57378 -0.0835403 0
M  V30 1388 C 134.275 1.94217 0.583733 0
M  V30 1389 C 134.608 0.964653 1.68547 0
M  V30 1390 O 133.883 -0.00422258 1.945 0
M  V30 1391 C 134.166 3.41253 1.14972 0
M  V30 1392 C 134.019 4.49768 0.0538277 0
M  V30 1393 C 135.338 3.89352 2.05166 0
M  V30 1394 H 132.457 0.706233 0.210724 0
M  V30 1395 H 135.099 1.89392 -0.1519 0
M  V30 1396 H 133.249 3.45496 1.77665 0
M  V30 1397 H 134.921 4.57641 -0.579851 0
M  V30 1398 H 133.164 4.29432 -0.614068 0
M  V30 1399 H 133.835 5.49817 0.490452 0
M  V30 1400 H 136.311 3.87189 1.52393 0
M  V30 1401 H 135.187 4.92822 2.41698 0
M  V30 1402 H 135.448 3.27973 2.96456 0
M  V30 1403 N 134.507 -0.190092 1.56449 0
M  V30 1404 C 135.756 -0.907912 1.80111 0
M  V30 1405 C 136.069 -1.84214 0.657619 0
M  V30 1406 O 137.275 -2.60094 0.778663 0
M  V30 1407 C 135.731 -1.66485 3.19078 0
M  V30 1408 C 135.339 -0.7752 4.41242 0
M  V30 1409 C 137.083 -2.37201 3.52045 0
M  V30 1410 C 134.99 -1.53129 5.71231 0
M  V30 1411 H 133.92 -0.34276 0.671589 0
M  V30 1412 H 136.571 -0.161109 1.82791 0
M  V30 1413 H 134.953 -2.45572 3.10661 0
M  V30 1414 H 136.127 -0.0226298 4.60794 0
M  V30 1415 H 134.442 -0.178627 4.16017 0
M  V30 1416 H 137.039 -2.94329 4.46402 0
M  V30 1417 H 137.382 -3.11632 2.76028 0
M  V30 1418 H 137.915 -1.65075 3.61932 0
M  V30 1419 H 134.654 -0.82967 6.50228 0
M  V30 1420 H 134.174 -2.25767 5.55688 0
M  V30 1421 H 135.853 -2.08377 6.12526 0
M  V30 1422 N 135.985 -1.50799 -0.457987 0
M  V30 1423 C 136.933 -1.71162 -1.575 0
M  V30 1424 C 137.927 -0.577592 -1.59249 0
M  V30 1425 O 139.133 -0.758443 -1.63241 0
M  V30 1426 H 135.508 -0.540468 -0.522875 0
M  V30 1427 H 137.479 -2.64837 -1.37492 0
M  V30 1428 C 136.228 -1.83496 -2.95338 0
M  V30 1429 H 135.551 -2.70153 -2.94716 0
M  V30 1430 H 136.991 -2.01765 -3.72917 0
M  V30 1431 C 135.45 -0.589694 -3.31699 0
M  V30 1432 O 135.98 0.265163 -4.00824 0
M  V30 1433 N 134.186 -0.439845 -2.87252 0
M  V30 1434 H 133.733 -1.13655 -2.31172 0
M  V30 1435 H 133.691 0.392159 -3.11945 0
M  V30 1436 N 137.463 0.71206 -1.40597 0
M  V30 1437 C 138.691 1.50111 -1.42388 0
M  V30 1438 C 139.106 1.88784 -0.0245395 0
M  V30 1439 O 138.463 1.55681 0.952351 0
M  V30 1440 C 138.514 2.7742 -2.31776 0
M  V30 1441 O 138.235 2.40382 -3.66262 0
M  V30 1442 C 139.736 3.7129 -2.42196 0
M  V30 1443 H 136.956 0.46314 -0.485533 0
M  V30 1444 H 139.5 0.878068 -1.8469 0
M  V30 1445 H 137.655 3.36001 -1.92827 0
M  V30 1446 H 138.069 3.22324 -4.13772 0
M  V30 1447 H 139.543 4.57448 -3.08943 0
M  V30 1448 H 140.02 4.14641 -1.44809 0
M  V30 1449 H 140.626 3.18619 -2.81712 0
M  V30 1450 N 138.941 1.26152 0.944643 0
M  V30 1451 C 139.889 1.07215 2.06417 0
M  V30 1452 C 140.883 9.2007e-05 1.694 0
M  V30 1453 O 142.089 0.1565 1.79318 0
M  V30 1454 H 138.464 0.329837 0.675805 0
M  V30 1455 H 140.435 2.02099 2.19541 0
M  V30 1456 C 139.184 0.718197 3.40202 0
M  V30 1457 H 138.507 1.53497 3.69159 0
M  V30 1458 H 139.947 0.625459 4.19361 0
M  V30 1459 C 138.406 -0.576435 3.31932 0
M  V30 1460 O 138.936 -1.61574 3.67773 0
M  V30 1461 N 137.142 -0.565781 2.85039 0
M  V30 1462 H 136.689 0.280367 2.5607 0
M  V30 1463 H 136.647 -1.43213 2.79888 0
M  V30 1464 N 140.419 -1.14872 1.07899 0
M  V30 1465 C 141.649 -1.89386 0.825631 0
M  V30 1466 C 142.057 -1.78565 -0.625406 0
M  V30 1467 O 141.4 -1.13918 -1.44113 0
M  V30 1468 C 141.462 -3.40206 1.16191 0
M  V30 1469 C 141.126 -3.74812 2.61467 0
M  V30 1470 C 142.123 -3.75367 3.59716 0
M  V30 1471 C 139.808 -4.0495 2.97189 0
M  V30 1472 C 141.802 -4.05574 4.9172 0
M  V30 1473 C 139.489 -4.34821 4.29388 0
M  V30 1474 C 140.487 -4.35116 5.26463 0
M  V30 1475 O 140.175 -4.64267 6.56286 0
M  V30 1476 H 139.907 -0.606894 0.297751 0
M  V30 1477 H 142.461 -1.46438 1.44031 0
M  V30 1478 H 140.691 -3.8358 0.490214 0
M  V30 1479 H 142.38 -3.96018 0.890193 0
M  V30 1480 H 143.146 -3.52176 3.33462 0
M  V30 1481 H 139.025 -4.03876 2.22273 0
M  V30 1482 H 142.569 -4.05719 5.67484 0
M  V30 1483 H 138.466 -4.5748 4.55392 0
M  V30 1484 H 139.234 -4.82007 6.61522 0
M  V30 1485 N 141.898 -0.863906 -1.31812 0
M  V30 1486 C 142.848 -0.286898 -2.26188 0
M  V30 1487 C 143.832 0.572577 -1.50367 0
M  V30 1488 O 145.024 0.420447 -1.71934 0
M  V30 1489 C 142.153 0.515849 -3.39402 0
M  V30 1490 C 141.239 -0.356531 -4.22599 0
M  V30 1491 N 141.63 -1.44716 -4.84656 0
M  V30 1492 C 139.928 -0.147898 -4.45755 0
M  V30 1493 C 140.629 -1.98462 -5.46798 0
M  V30 1494 N 139.605 -1.28247 -5.28255 0
M  V30 1495 H 143.407 -1.12055 -2.717 0
M  V30 1496 H 140.921 -0.711012 -1.46008 0
M  V30 1497 H 142.918 0.945701 -4.06032 0
M  V30 1498 H 141.578 1.34718 -2.95434 0
M  V30 1499 H 142.589 -1.83008 -4.84488 0
M  V30 1500 H 139.266 0.647973 -4.12441 0
M  V30 1501 H 140.656 -2.89932 -6.06126 0
M  V30 1502 N 143.376 1.44774 -0.622745 0
M  V30 1503 C 144.604 2.06487 -0.130722 0
M  V30 1504 C 145.019 1.46476 1.19123 0
M  V30 1505 O 144.376 0.584502 1.72887 0
M  V30 1506 C 144.427 3.615 -0.000807207 0
M  V30 1507 O 144.148 4.19274 -1.27048 0
M  V30 1508 C 145.649 4.40229 0.520898 0
M  V30 1509 H 142.869 0.666704 -0.0758106 0
M  V30 1510 H 145.413 1.85779 -0.854774 0
M  V30 1511 H 143.568 3.81498 0.673643 0
M  V30 1512 H 143.982 5.12622 -1.1099 0
M  V30 1513 H 145.456 5.49144 0.560838 0
M  V30 1514 H 145.933 4.1108 1.54627 0
M  V30 1515 H 146.539 4.25131 -0.120018 0
M  V30 1516 N 144.854 0.36279 1.53368 0
M  V30 1517 C 146.131 -0.284021 1.93527 0
M  V30 1518 C 146.511 -1.66628 1.29608 0
M  V30 1519 O 145.859 -2.23942 0.45413 0
M  V30 1520 C 146.069 -0.337028 3.47369 0
M  V30 1521 C 147.417 -0.578708 4.20638 0
M  V30 1522 O 148.441 -0.418352 3.53735 0
M  V30 1523 O 147.3 -0.89074 5.39192 0
M  V30 1524 H 144.394 -0.169743 0.809393 0
M  V30 1525 H 146.94 0.41537 1.64538 0
M  V30 1526 H 145.712 0.632217 3.86159 0
M  V30 1527 H 145.335 -1.08243 3.82582 0
M  V30 1528 N 146.332 -1.57332 0.0918853 0
M  V30 1529 C 147.748 -1.57389 -0.264766 0
M  V30 1530 C 147.948 -1.10281 -1.68643 0
M  V30 1531 O 147.004 -0.777801 -2.40222 0
M  V30 1532 C 148.317 -3.00648 -0.0561195 0
M  V30 1533 C 149.865 -3.12754 -0.124116 0
M  V30 1534 C 150.34 -4.57965 0.0564972 0
M  V30 1535 N 151.831 -4.632 0.00155611 0
M  V30 1536 C 152.566 -5.73281 0.116598 0
M  V30 1537 N 152.062 -6.92208 0.286294 0
M  V30 1538 N 153.855 -5.6207 0.0580973 0
M  V30 1539 H 146.006 -1.86262 1.02079 0
M  V30 1540 H 148.269 -0.859579 0.399786 0
M  V30 1541 H 147.975 -3.393 0.925669 0
M  V30 1542 H 147.849 -3.68623 -0.799823 0
M  V30 1543 H 150.236 -2.73976 -1.09641 0
M  V30 1544 H 150.317 -2.47377 0.651024 0
M  V30 1545 H 149.961 -4.97436 1.02564 0
M  V30 1546 H 149.891 -5.21399 -0.738297 0
M  V30 1547 H 152.382 -3.77686 -0.127192 0
M  V30 1548 H 152.695 -7.71934 0.365676 0
M  V30 1549 H 151.04 -6.94254 0.32192 0
M  V30 1550 H 154.231 -4.68043 -0.0733204 0
M  V30 1551 H 154.404 -6.47824 0.151203 0
M  V30 1552 N 147.81 0.181792 -1.56548 0
M  V30 1553 C 148.773 1.20894 -1.94724 0
M  V30 1554 C 149.773 1.37738 -0.829747 0
M  V30 1555 O 150.963 1.35323 -1.09697 0
M  V30 1556 C 148.095 2.57593 -2.23291 0
M  V30 1557 H 149.288 0.882275 -2.86629 0
M  V30 1558 H 146.841 0.423838 -1.50444 0
M  V30 1559 H 147.576 2.95291 -1.34067 0
M  V30 1560 H 147.361 2.46735 -3.04736 0
M  V30 1561 H 148.851 3.31637 -2.53785 0
M  V30 1562 N 149.288 1.51039 0.449983 0
M  V30 1563 C 150.536 1.62759 1.19808 0
M  V30 1564 C 150.857 0.339981 1.92013 0
M  V30 1565 O 150.127 -0.643606 1.85026 0
M  V30 1566 H 148.707 0.599811 0.445237 0
M  V30 1567 H 151.369 1.87914 0.517138 0
M  V30 1568 H 150.465 2.44911 1.93455 0
M  V30 1569 N 150.766 -0.704594 1.40972 0
M  V30 1570 C 152.014 -1.46169 1.39568 0
M  V30 1571 C 152.335 -1.95 0.00253745 0
M  V30 1572 O 151.605 -1.71095 -0.954114 0
M  V30 1573 H 150.185 -0.542326 0.513704 0
M  V30 1574 H 152.847 -0.834553 1.76128 0
M  V30 1575 H 151.943 -2.32922 2.07735 0
M  V30 1576 N 152.244 -1.26651 -0.937939 0
M  V30 1577 C 153.192 -1.08308 -2.05845 0
M  V30 1578 C 154.186 -0.0090757 -1.69398 0
M  V30 1579 O 155.392 -0.166007 -1.79233 0
M  V30 1580 H 151.767 -0.333416 -0.674046 0
M  V30 1581 H 153.738 -2.03261 -2.18467 0
M  V30 1582 C 152.487 -0.736229 -3.39816 0
M  V30 1583 H 151.81 -1.55453 -3.6834 0
M  V30 1584 H 153.25 -0.64769 -4.19024 0
M  V30 1585 C 151.709 0.558824 -3.32233 0
M  V30 1586 O 152.239 1.59621 -3.68624 0
M  V30 1587 N 150.445 0.550657 -2.85335 0
M  V30 1588 H 149.992 -0.293943 -2.55917 0
M  V30 1589 H 149.95 1.41726 -2.80644 0
M  V30 1590 N 153.722 1.14298 -1.08507 0
M  V30 1591 C 154.685 2.17607 -0.719711 0
M  V30 1592 C 155.685 1.58907 0.245997 0
M  V30 1593 O 156.875 1.74181 0.0254081 0
M  V30 1594 C 154.007 3.40842 -0.0627695 0
M  V30 1595 H 155.2 2.51443 -1.63452 0
M  V30 1596 H 152.753 1.28963 -0.88307 0
M  V30 1597 H 153.488 3.12587 0.863716 0
M  V30 1598 H 153.273 3.84713 -0.757504 0
M  V30 1599 H 154.763 4.17221 0.177786 0
M  V30 1600 N 155.201 0.870884 1.31352 0
M  V30 1601 C 156.431 0.496049 2.00557 0
M  V30 1602 C 156.839 -0.916241 1.65534 0
M  V30 1603 O 156.182 -1.61188 0.881134 0
M  V30 1604 C 156.244 0.574418 3.54881 0
M  V30 1605 C 155.908 1.94849 4.1338 0
M  V30 1606 C 156.905 2.91611 4.30417 0
M  V30 1607 C 154.59 2.25005 4.49086 0
M  V30 1608 C 156.584 4.16672 4.82352 0
M  V30 1609 C 154.271 3.50315 5.00722 0
M  V30 1610 C 155.269 4.45964 5.17306 0
M  V30 1611 O 154.957 5.69052 5.67833 0
M  V30 1612 H 154.689 0.191664 0.64826 0
M  V30 1613 H 157.243 1.17409 1.68536 0
M  V30 1614 H 155.473 -0.160549 3.86367 0
M  V30 1615 H 157.162 0.212879 4.05341 0
M  V30 1616 H 157.928 2.69622 4.03149 0
M  V30 1617 H 153.807 1.51332 4.35453 0
M  V30 1618 H 157.351 4.91336 4.95211 0
M  V30 1619 H 153.248 3.72147 5.27424 0
M  V30 1620 H 154.016 5.71236 5.86201 0
M  V30 1621 N 156.679 -1.44442 0.630414 0
M  V30 1622 C 157.925 -2.02894 0.143332 0
M  V30 1623 C 158.28 -1.48697 -1.22094 0
M  V30 1624 O 157.573 -0.661171 -1.79831 0
M  V30 1625 C 157.767 -3.57332 0.0697835 0
M  V30 1626 C 157.596 -4.26512 1.42539 0
M  V30 1627 C 156.366 -4.63516 2.01198 0
M  V30 1628 C 158.564 -4.57004 2.35907 0
M  V30 1629 N 156.546 -5.17661 3.30001 0
M  V30 1630 C 157.917 -5.12223 3.49324 0
M  V30 1631 C 159.972 -4.38955 2.34995 0
M  V30 1632 C 158.675 -5.51295 4.62024 0
M  V30 1633 C 160.701 -4.79075 3.46758 0
M  V30 1634 C 160.063 -5.34407 4.58899 0
M  V30 1635 H 156.162 -0.776041 0.0963523 0
M  V30 1636 H 158.746 -1.75945 0.833752 0
M  V30 1637 H 156.917 -3.83894 -0.589915 0
M  V30 1638 H 158.649 -4.02451 -0.42606 0
M  V30 1639 H 155.404 -4.47811 1.54151 0
M  V30 1640 H 155.828 -5.4921 3.95851 0
M  V30 1641 H 160.47 -3.95469 1.49545 0
M  V30 1642 H 158.188 -5.93736 5.48182 0
M  V30 1643 H 161.774 -4.66824 3.47227 0
M  V30 1644 H 160.654 -5.64878 5.4395 0
M  V30 1645 N 158.157 -0.370918 -1.53173 0
M  V30 1646 C 159.104 0.473035 -2.259 0
M  V30 1647 C 160.074 1.07311 -1.26781 0
M  V30 1648 O 161.259 1.1046 -1.55574 0
M  V30 1649 C 158.399 1.60405 -3.05556 0
M  V30 1650 C 157.512 1.02863 -4.19575 0
M  V30 1651 C 156.647 2.12918 -4.86661 0
M  V30 1652 C 155.686 1.52869 -5.92704 0
M  V30 1653 N 154.823 2.56779 -6.53459 0
M  V30 1654 H 159.663 -0.153649 -2.97604 0
M  V30 1655 H 157.2 -0.0875946 -1.46839 0
M  V30 1656 H 159.158 2.27034 -3.50016 0
M  V30 1657 H 157.788 2.20131 -2.36097 0
M  V30 1658 H 156.84 0.252465 -3.79561 0
M  V30 1659 H 158.152 0.549642 -4.95762 0
M  V30 1660 H 157.306 2.87356 -5.34333 0
M  V30 1661 H 156.045 2.6417 -4.09958 0
M  V30 1662 H 155.05 0.769479 -5.44389 0
M  V30 1663 H 156.275 1.02435 -6.7133 0
M  V30 1664 H 154.221 3.07235 -5.79606 0
M  V30 1665 H 154.138 2.13583 -7.25202 0
M  V30 1666 H 155.406 3.30903 -7.05779 0
M  V30 1667 N 159.635 1.57281 -0.100228 0
M  V30 1668 C 160.86 1.99302 0.573881 0
M  V30 1669 C 161.285 0.979059 1.60611 0
M  V30 1670 O 160.643 -0.0517803 1.81226 0
M  V30 1671 C 160.691 3.40274 1.19358 0
M  V30 1672 O 159.795 3.41676 2.30935 0
M  V30 1673 H 159.136 0.647944 0.145138 0
M  V30 1674 H 161.666 2.03779 -0.183156 0
M  V30 1675 H 161.676 3.78078 1.53365 0
M  V30 1676 H 160.351 4.13594 0.437385 0
M  V30 1677 H 158.928 3.15672 1.98509 0
M  V30 1678 N 161.113 -0.173488 1.56642 0
M  V30 1679 C 162.362 -0.888758 1.81063 0
M  V30 1680 C 162.675 -1.83506 0.67712 0
M  V30 1681 O 163.881 -2.59254 0.806206 0
M  V30 1682 C 162.337 -1.63091 3.20826 0
M  V30 1683 C 161.945 -0.728357 4.4204 0
M  V30 1684 C 163.689 -2.33454 3.54541 0
M  V30 1685 C 161.596 -1.47062 5.72823 0
M  V30 1686 H 160.526 -0.335618 0.675186 0
M  V30 1687 H 163.177 -0.141712 1.82952 0
M  V30 1688 H 161.559 -2.42263 3.13248 0
M  V30 1689 H 162.733 0.0262449 4.60793 0
M  V30 1690 H 161.048 -0.134492 4.16183 0
M  V30 1691 H 163.645 -2.89578 4.49498 0
M  V30 1692 H 163.988 -3.08687 2.79317 0
M  V30 1693 H 164.521 -1.61227 3.63663 0
M  V30 1694 H 161.26 -0.760658 6.51072 0
M  V30 1695 H 160.78 -2.1986 5.58052 0
M  V30 1696 H 162.459 -2.01868 6.14702 0
M  V30 1697 N 162.591 -1.51276 -0.441967 0
M  V30 1698 C 163.839 -1.63392 -1.18943 0
M  V30 1699 C 164.16 -0.350159 -1.9183 0
M  V30 1700 O 163.43 0.633784 -1.85364 0
M  V30 1701 H 162.01 -0.602164 -0.442049 0
M  V30 1702 H 164.672 -1.88186 -0.507165 0
M  V30 1703 H 163.768 -2.45934 -1.92154 0
M  V30 1704 N 164.069 0.697108 -1.41344 0
M  V30 1705 C 165.032 1.79281 -1.42797 0
M  V30 1706 C 166.032 1.57607 -0.318837 0
M  V30 1707 O 167.222 1.64309 -0.578642 0
M  V30 1708 C 164.354 3.17632 -1.23785 0
M  V30 1709 H 165.547 1.79385 -2.40335 0
M  V30 1710 H 163.1 0.904582 -1.27464 0
M  V30 1711 H 163.835 3.23167 -0.270814 0
M  V30 1712 H 163.62 3.34765 -2.04144 0
M  V30 1713 H 165.11 3.97617 -1.27633 0
M  V30 1714 N 165.547 1.27147 0.931209 0
M  V30 1715 C 166.494 1.09568 2.03134 0
M  V30 1716 C 167.464 -0.00222433 1.661 0
M  V30 1717 O 168.649 0.159439 1.90133 0
M  V30 1718 C 165.789 0.745231 3.36957 0
M  V30 1719 C 164.902 1.92041 3.86968 0
M  V30 1720 C 164.037 1.51216 5.09222 0
M  V30 1721 C 163.076 2.65504 5.5152 0
M  V30 1722 N 162.213 2.25291 6.64972 0
M  V30 1723 H 167.053 2.03708 2.17502 0
M  V30 1724 H 164.59 1.01411 1.06556 0
M  V30 1725 H 166.548 0.522878 4.1391 0
M  V30 1726 H 165.178 -0.159202 3.22407 0
M  V30 1727 H 164.23 2.25541 3.06326 0
M  V30 1728 H 165.542 2.77787 4.1429 0
M  V30 1729 H 164.696 1.25084 5.93666 0
M  V30 1730 H 163.435 0.625749 4.83669 0
M  V30 1731 H 162.44 2.92354 4.65628 0
M  V30 1732 H 163.665 3.54761 5.7907 0
M  V30 1733 H 161.611 1.39098 6.41083 0
M  V30 1734 H 161.528 3.04577 6.91931 0
M  V30 1735 H 162.796 2.02398 7.52765 0
M  V30 1736 N 167.025 -1.13721 1.09112 0
M  V30 1737 C 168.271 -1.85198 0.826414 0
M  V30 1738 C 168.604 -1.83129 -0.646319 0
M  V30 1739 O 167.879 -1.2671 -1.47563 0
M  V30 1740 C 168.162 -3.33507 1.35812 0
M  V30 1741 C 168.015 -3.44108 2.89672 0
M  V30 1742 C 169.334 -4.28838 0.989256 0
M  V30 1743 H 166.453 -0.67243 0.301675 0
M  V30 1744 H 169.095 -1.33499 1.35197 0
M  V30 1745 H 167.245 -3.77666 0.911082 0
M  V30 1746 H 168.917 -3.08684 3.428 0
M  V30 1747 H 167.16 -2.85087 3.26967 0
M  V30 1748 H 167.831 -4.48388 3.21951 0
M  V30 1749 H 170.307 -3.92734 1.37475 0
M  V30 1750 H 169.183 -5.31051 1.38838 0
M  V30 1751 H 169.444 -4.4198 -0.102924 0
M  V30 1752 N 168.503 -0.877838 -1.30888 0
M  V30 1753 C 169.749 -0.493426 -1.96706 0
M  V30 1754 C 170.082 0.953504 -1.6918 0
M  V30 1755 O 169.357 1.67266 -0.992594 0
M  V30 1756 C 169.64 -0.760429 -3.51979 0
M  V30 1757 C 169.493 -2.25747 -3.89048 0
M  V30 1758 C 170.812 -0.232148 -4.39487 0
M  V30 1759 H 167.931 -0.180746 -0.714493 0
M  V30 1760 H 170.573 -1.10052 -1.54882 0
M  V30 1761 H 168.723 -0.243715 -3.87735 0
M  V30 1762 H 170.395 -2.84204 -3.63354 0
M  V30 1763 H 168.638 -2.72694 -3.37373 0
M  V30 1764 H 169.309 -2.39491 -4.97341 0
M  V30 1765 H 171.785 -0.674314 -4.106 0
M  V30 1766 H 170.661 -0.448355 -5.47066 0
M  V30 1767 H 170.922 0.866297 -4.33529 0
M  V30 1768 N 169.982 1.44106 -0.638065 0
M  V30 1769 C 171.207 2.0685 -0.150916 0
M  V30 1770 C 171.632 1.47417 1.16833 0
M  V30 1771 O 170.99 0.578264 1.71831 0
M  V30 1772 C 171.038 3.60555 -0.05708 0
M  V30 1773 O 170.142 4.00465 0.984972 0
M  V30 1774 H 169.483 0.658151 -0.0879399 0
M  V30 1775 H 172.013 1.84865 -0.876707 0
M  V30 1776 H 172.023 4.07789 0.131232 0
M  V30 1777 H 170.698 4.03193 -1.02021 0
M  V30 1778 H 169.275 3.64849 0.770672 0
M  V30 1779 N 171.46 0.379036 1.52974 0
M  V30 1780 C 172.688 -0.20679 2.05864 0
M  V30 1781 C 173.103 -1.41356 1.25155 0
M  V30 1782 O 172.46 -1.8009 0.295588 0
M  V30 1783 C 172.511 -0.587045 3.56702 0
M  V30 1784 O 172.232 0.571776 4.34353 0
M  V30 1785 C 173.733 -1.22983 4.25899 0
M  V30 1786 H 170.953 -0.0336123 0.670158 0
M  V30 1787 H 173.497 0.541298 1.97206 0
M  V30 1788 H 171.652 -1.28504 3.65466 0
M  V30 1789 H 172.066 0.261544 5.23847 0
M  V30 1790 H 173.54 -1.44635 5.32715 0
M  V30 1791 H 174.017 -2.19416 3.80465 0
M  V30 1792 H 174.623 -0.572892 4.21424 0
M  V30 1793 N 172.938 -1.57226 0.108567 0
M  V30 1794 C 174.354 -1.5766 -0.248058 0
M  V30 1795 C 174.554 -1.12063 -1.67464 0
M  V30 1796 O 173.61 -0.803236 -2.39383 0
M  V30 1797 C 174.923 -3.0069 -0.0242287 0
M  V30 1798 C 176.471 -3.12868 -0.0909372 0
M  V30 1799 C 176.946 -4.57879 0.105067 0
M  V30 1800 N 178.437 -4.63172 0.0506846 0
M  V30 1801 C 179.172 -5.73126 0.177396 0
M  V30 1802 N 178.668 -6.91866 0.359696 0
M  V30 1803 N 180.461 -5.61977 0.117709 0
M  V30 1804 H 172.612 -1.85169 1.04049 0
M  V30 1805 H 174.875 -0.85529 0.40888 0
M  V30 1806 H 174.581 -3.38299 0.961604 0
M  V30 1807 H 174.455 -3.6945 -0.76068 0
M  V30 1808 H 176.842 -2.75124 -1.06729 0
M  V30 1809 H 176.923 -2.46672 0.677225 0
M  V30 1810 H 176.567 -4.96321 1.07834 0
M  V30 1811 H 176.497 -5.22153 -0.682954 0
M  V30 1812 H 178.988 -3.778 -0.0871266 0
M  V30 1813 H 179.301 -7.71503 0.447529 0
M  V30 1814 H 177.646 -6.93874 0.395536 0
M  V30 1815 H 180.837 -4.68094 -0.0236741 0
M  V30 1816 H 181.01 -6.47627 0.219905 0
M  V30 1817 N 174.416 0.165178 -1.56732 0
M  V30 1818 C 175.348 1.22911 -1.93457 0
M  V30 1819 C 176.361 1.40152 -0.828333 0
M  V30 1820 O 177.55 1.40046 -1.10677 0
M  V30 1821 C 174.65 2.59686 -2.17753 0
M  V30 1822 C 173.823 2.63663 -3.48999 0
M  V30 1823 C 172.882 3.81845 -3.62051 0
M  V30 1824 O 171.908 3.67559 -4.34613 0
M  V30 1825 N 173.11 4.98557 -2.97357 0
M  V30 1826 H 175.875 0.917118 -2.85323 0
M  V30 1827 H 173.436 0.354895 -1.57962 0
M  V30 1828 H 175.428 3.37225 -2.23743 0
M  V30 1829 H 173.998 2.83251 -1.32242 0
M  V30 1830 H 173.218 1.72173 -3.54612 0
M  V30 1831 H 174.506 2.63336 -4.35352 0
M  V30 1832 H 173.904 5.13065 -2.38287 0
M  V30 1833 H 172.461 5.73936 -3.08934 0
M  V30 1834 N 175.894 1.51508 0.433938 0
M  V30 1835 C 177.122 1.68157 1.20543 0
M  V30 1836 C 177.537 0.380362 1.84929 0
M  V30 1837 O 176.894 -0.641446 1.70856 0
M  V30 1838 C 176.945 2.79965 2.28696 0
M  V30 1839 O 176.666 4.05045 1.66943 0
M  V30 1840 C 178.167 3.07912 3.18912 0
M  V30 1841 H 175.387 0.56421 0.363191 0
M  V30 1842 H 177.931 1.97941 0.513754 0
M  V30 1843 H 176.086 2.5277 2.93574 0
M  V30 1844 H 176.5 4.67165 2.38448 0
M  V30 1845 H 177.974 3.89719 3.90926 0
M  V30 1846 H 178.451 2.20456 3.79863 0
M  V30 1847 H 179.057 3.36779 2.59731 0
M  V30 1848 N 177.372 -0.689602 1.41712 0
M  V30 1849 C 178.788 -1.00093 1.24312 0
M  V30 1850 C 178.988 -2.01036 0.136729 0
M  V30 1851 O 178.044 -2.47562 -0.496918 0
M  V30 1852 C 179.357 -1.51985 2.59463 0
M  V30 1853 C 180.905 -1.63838 2.66695 0
M  V30 1854 C 181.38 -2.1913 4.02177 0
M  V30 1855 N 182.871 -2.26483 4.04054 0
M  V30 1856 C 183.606 -2.70306 5.0569 0
M  V30 1857 N 183.102 -3.13691 6.17713 0
M  V30 1858 N 184.895 -2.69923 4.9305 0
M  V30 1859 H 177.046 -0.0210029 2.1239 0
M  V30 1860 H 179.309 -0.0718733 0.945272 0
M  V30 1861 H 179.015 -0.85269 3.41207 0
M  V30 1862 H 178.889 -2.50103 2.82362 0
M  V30 1863 H 181.276 -2.29664 1.85306 0
M  V30 1864 H 181.357 -0.642492 2.476 0
M  V30 1865 H 181.001 -1.53918 4.84016 0
M  V30 1866 H 180.931 -3.19482 4.18615 0
M  V30 1867 H 183.422 -1.95874 3.23174 0
M  V30 1868 H 183.735 -3.45773 6.9113 0
M  V30 1869 H 182.08 -3.11585 6.21241 0
M  V30 1870 H 185.271 -2.35382 4.04614 0
M  V30 1871 H 185.444 -3.03758 5.72394 0
M  V30 1872 N 178.85 -1.27639 -0.924453 0
M  V30 1873 C 180.127 -1.04887 -1.651 0
M  V30 1874 C 180.507 0.415327 -2.06974 0
M  V30 1875 O 179.855 1.39923 -1.80648 0
M  V30 1876 C 180.065 -2.01348 -2.85061 0
M  V30 1877 C 181.413 -2.30899 -3.56329 0
M  V30 1878 O 182.437 -1.99348 -2.95193 0
M  V30 1879 O 181.296 -2.84699 -4.66485 0
M  V30 1880 H 178.39 -0.400083 -0.723784 0
M  V30 1881 H 180.936 -1.38916 -0.974703 0
M  V30 1882 H 179.708 -3.0008 -2.51133 0
M  V30 1883 H 179.331 -1.679 -3.6041 0
M  V30 1884 N 180.328 1.1314 -1.09713 0
M  V30 1885 C 181.258 2.20748 -0.761102 0
M  V30 1886 C 182.239 1.68061 0.262566 0
M  V30 1887 O 183.424 1.93765 0.129977 0
M  V30 1888 C 180.554 3.46812 -0.184054 0
M  V30 1889 C 179.508 4.12606 -1.13757 0
M  V30 1890 C 178.834 5.33031 -0.422083 0
M  V30 1891 C 180.134 4.59603 -2.48118 0
M  V30 1892 H 181.828 2.49113 -1.66082 0
M  V30 1893 H 179.374 1.19734 -0.799987 0
M  V30 1894 H 181.327 4.21353 0.0631215 0
M  V30 1895 H 180.051 3.17851 0.750868 0
M  V30 1896 H 178.71 3.40036 -1.37007 0
M  V30 1897 H 178.358 5.00335 0.517072 0
M  V30 1898 H 178.058 5.77999 -1.05788 0
M  V30 1899 H 179.582 6.10325 -0.183277 0
M  V30 1900 H 180.996 5.25552 -2.29059 0
M  V30 1901 H 179.393 5.15321 -3.07514 0
M  V30 1902 H 180.463 3.73971 -3.08665 0
M  V30 1903 N 181.806 0.884767 1.30421 0
M  V30 1904 C 182.739 0.295999 2.26272 0
M  V30 1905 C 183.717 -0.58332 1.51777 0
M  V30 1906 O 184.901 -0.53346 1.80794 0
M  V30 1907 C 182.028 -0.57944 3.33707 0
M  V30 1908 C 181.074 0.230525 4.25877 0
M  V30 1909 S 181.907 1.61867 5.1045 0
M  V30 1910 C 183.063 0.749756 6.21393 0
M  V30 1911 H 183.296 1.10848 2.75862 0
M  V30 1912 H 180.829 0.684178 1.38414 0
M  V30 1913 H 182.787 -1.07879 3.96071 0
M  V30 1914 H 181.448 -1.36601 2.82841 0
M  V30 1915 H 180.641 -0.437542 5.02097 0
M  V30 1916 H 180.243 0.662493 3.68086 0
M  V30 1917 H 182.535 -0.0333547 6.77492 0
M  V30 1918 H 183.478 1.48356 6.92384 0
M  V30 1919 H 183.886 0.310751 5.63644 0
M  V30 1920 N 183.284 -1.43765 0.645699 0
M  V30 1921 C 184.231 -2.30745 -0.0504648 0
M  V30 1922 C 185.201 -1.4432 -0.822241 0
M  V30 1923 O 186.386 -1.73202 -0.800358 0
M  V30 1924 C 183.526 -3.29802 -1.0161 0
M  V30 1925 C 182.639 -4.31326 -0.241219 0
M  V30 1926 C 181.774 -5.17469 -1.19998 0
M  V30 1927 C 180.813 -6.10691 -0.415094 0
M  V30 1928 N 179.95 -6.89483 -1.32506 0
M  V30 1929 H 184.79 -2.8973 0.697155 0
M  V30 1930 H 182.327 -1.42738 0.355563 0
M  V30 1931 H 184.285 -3.85734 -1.58949 0
M  V30 1932 H 182.915 -2.72483 -1.73069 0
M  V30 1933 H 181.967 -3.77749 0.448334 0
M  V30 1934 H 183.279 -4.9743 0.369437 0
M  V30 1935 H 182.433 -5.7799 -1.84424 0
M  V30 1936 H 181.172 -4.51473 -1.84455 0
M  V30 1937 H 180.177 -5.49265 0.242565 0
M  V30 1938 H 181.402 -6.78727 0.224966 0
M  V30 1939 H 179.348 -6.26142 -1.95657 0
M  V30 1940 H 179.265 -7.52081 -0.768783 0
M  V30 1941 H 180.533 -7.54516 -1.9577 0
M  V30 1942 N 184.763 -0.387143 -1.52771 0
M  V30 1943 C 185.988 0.198407 -2.06449 0
M  V30 1944 C 186.413 1.39918 -1.25716 0
M  V30 1945 O 185.771 1.79099 -0.281657 0
M  V30 1946 C 185.819 0.548893 -3.56398 0
M  V30 1947 O 184.923 1.64315 -3.78252 0
M  V30 1948 H 184.264 0.0237731 -0.663574 0
M  V30 1949 H 186.794 -0.553989 -1.96957 0
M  V30 1950 H 186.804 0.813812 -3.99801 0
M  V30 1951 H 185.479 -0.329005 -4.14597 0
M  V30 1952 H 184.056 1.37211 -3.46738 0
M  V30 1953 N 186.241 1.57166 -0.116904 0
M  V30 1954 C 187.518 1.86645 0.585049 0
M  V30 1955 C 187.898 1.0177 1.84949 0
M  V30 1956 O 187.246 0.0960379 2.28298 0
M  V30 1957 C 187.456 3.37736 0.879507 0
M  V30 1958 C 188.804 4.06289 1.23348 0
M  V30 1959 O 189.828 3.42743 0.969836 0
M  V30 1960 O 188.687 5.18455 1.7282 0
M  V30 1961 H 185.781 0.772593 0.295007 0
M  V30 1962 H 188.327 1.69025 -0.151249 0
M  V30 1963 H 187.099 3.91296 -0.0166136 0
M  V30 1964 H 186.722 3.6078 1.67103 0
M  V30 1965 N 187.719 -0.156864 1.56817 0
M  V30 1966 C 188.965 -0.867645 1.83966 0
M  V30 1967 C 189.32 -1.79233 0.699511 0
M  V30 1968 O 188.613 -1.89186 -0.303176 0
M  V30 1969 C 188.807 -1.68737 3.1506 0
M  V30 1970 C 188.636 -0.843548 4.41718 0
M  V30 1971 C 187.406 -0.512994 5.02689 0
M  V30 1972 C 189.604 -0.178416 5.1399 0
M  V30 1973 N 187.586 0.345456 6.12927 0
M  V30 1974 C 188.957 0.540586 6.17639 0
M  V30 1975 C 191.012 -0.0980696 4.97803 0
M  V30 1976 C 189.715 1.33233 7.06853 0
M  V30 1977 C 191.741 0.680387 5.87473 0
M  V30 1978 C 191.103 1.3877 6.90596 0
M  V30 1979 H 187.202 -0.295642 0.723961 0
M  V30 1980 H 189.786 -0.13365 1.94241 0
M  V30 1981 H 187.957 -2.39268 3.0595 0
M  V30 1982 H 189.689 -2.34056 3.30151 0
M  V30 1983 H 186.444 -0.846476 4.65974 0
M  V30 1984 H 186.868 0.765415 6.72659 0
M  V30 1985 H 191.51 -0.630562 4.18071 0
M  V30 1986 H 189.228 1.87612 7.8602 0
M  V30 1987 H 192.814 0.744415 5.77018 0
M  V30 1988 H 191.694 1.9804 7.58782 0
M  V30 1989 N 189.197 -1.51736 -0.425897 0
M  V30 1990 C 190.16 -1.73271 -1.50032 0
M  V30 1991 C 191.16 -0.602639 -1.4908 0
M  V30 1992 O 192.35 -0.87033 -1.509 0
M  V30 1993 C 189.482 -1.79969 -2.89523 0
M  V30 1994 H 190.675 -2.69172 -1.32237 0
M  V30 1995 H 188.228 -1.41899 -0.65532 0
M  V30 1996 H 188.963 -0.859241 -3.1271 0
M  V30 1997 H 188.748 -2.62109 -2.91619 0
M  V30 1998 H 190.238 -1.9843 -3.67444 0
M  V30 1999 N 190.675 0.682077 -1.42076 0
M  V30 2000 C 191.585 1.82535 -1.47371 0
M  V30 2001 C 192.601 1.7017 -0.363079 0
M  V30 2002 O 193.777 1.91848 -0.612875 0
M  V30 2003 C 190.842 3.18624 -1.36674 0
M  V30 2004 C 189.903 3.42999 -2.58167 0
M  V30 2005 C 189.136 4.72595 -2.4797 0
M  V30 2006 O 189.359 5.50006 -1.5116 0
M  V30 2007 O 188.293 4.98054 -3.37974 0
M  V30 2008 H 192.119 1.81023 -2.43853 0
M  V30 2009 H 189.704 0.836887 -1.2376 0
M  V30 2010 H 191.586 3.99847 -1.33043 0
M  V30 2011 H 190.261 3.20789 -0.433138 0
M  V30 2012 H 189.168 2.61653 -2.67373 0
M  V30 2013 H 190.501 3.45659 -3.50401 0
M  V30 2014 N 192.153 1.28127 0.917671 0
M  V30 2015 C 193.402 1.14432 1.66097 0
M  V30 2016 C 193.715 -0.307247 1.93172 0
M  V30 2017 O 194.921 -0.565259 2.65551 0
M  V30 2018 C 193.377 2.00015 2.99202 0
M  V30 2019 C 192.985 3.49889 2.79789 0
M  V30 2020 C 194.729 1.94996 3.77064 0
M  V30 2021 C 192.636 4.27636 4.08511 0
M  V30 2022 H 191.566 0.424662 0.62304 0
M  V30 2023 H 194.217 1.52628 1.01868 0
M  V30 2024 H 192.599 1.54672 3.64544 0
M  V30 2025 H 193.773 4.03162 2.23152 0
M  V30 2026 H 192.088 3.56392 2.15345 0
M  V30 2027 H 194.685 2.50354 4.72469 0
M  V30 2028 H 195.028 0.925819 4.05875 0
M  V30 2029 H 195.561 2.38287 3.18534 0
M  V30 2030 H 192.3 5.30615 3.84874 0
M  V30 2031 H 191.82 3.79137 4.64774 0
M  V30 2032 H 193.499 4.37346 4.76799 0
M  V30 2033 N 193.631 -1.12557 1.10312 0
M  V30 2034 C 194.877 -1.84311 0.846011 0
M  V30 2035 C 195.21 -1.83805 -0.626859 0
M  V30 2036 O 194.485 -1.28268 -1.46211 0
M  V30 2037 C 194.768 -3.32048 1.39341 0
M  V30 2038 C 194.621 -3.41016 2.93305 0
M  V30 2039 C 195.94 -4.27764 1.03468 0
M  V30 2040 H 193.059 -0.669192 0.30879 0
M  V30 2041 H 195.701 -1.32057 1.36605 0
M  V30 2042 H 193.851 -3.76678 0.951087 0
M  V30 2043 H 195.523 -3.05031 3.46055 0
M  V30 2044 H 193.766 -2.81603 3.29973 0
M  V30 2045 H 194.437 -4.44948 3.26689 0
M  V30 2046 H 196.913 -3.91253 1.41633 0
M  V30 2047 H 195.789 -5.29549 1.44463 0
M  V30 2048 H 196.05 -4.42064 -0.0560404 0
M  V30 2049 N 195.109 -0.891671 -1.2995 0
M  V30 2050 C 196.072 -0.36828 -2.26222 0
M  V30 2051 C 197.072 0.493014 -1.53056 0
M  V30 2052 O 198.262 0.299213 -1.71611 0
M  V30 2053 C 195.394 0.47442 -3.37583 0
M  V30 2054 H 196.587 -1.21844 -2.74033 0
M  V30 2055 H 194.14 -0.669107 -1.41254 0
M  V30 2056 H 194.875 1.34489 -2.95099 0
M  V30 2057 H 194.66 -0.142615 -3.91841 0
M  V30 2058 H 196.15 0.83218 -4.09224 0
M  V30 2059 N 196.587 1.43421 -0.653314 0
M  V30 2060 C 197.834 2.01812 -0.166745 0
M  V30 2061 C 198.162 1.51535 1.21931 0
M  V30 2062 O 197.417 0.698975 1.82792 0
M  V30 2063 C 197.716 3.57176 -0.126623 0
M  V30 2064 C 197.382 4.26798 -1.45444 0
M  V30 2065 C 196.044 4.45534 -1.81805 0
M  V30 2066 C 198.396 4.66225 -2.32989 0
M  V30 2067 C 195.724 5.00961 -3.05377 0
M  V30 2068 C 198.076 5.23021 -3.55853 0
M  V30 2069 C 196.74 5.39973 -3.9241 0
M  V30 2070 H 196.01 0.738484 -0.0610162 0
M  V30 2071 H 198.657 1.71896 -0.84404 0
M  V30 2072 H 196.962 3.86634 0.634123 0
M  V30 2073 H 198.659 4.00112 0.266723 0
M  V30 2074 H 195.249 4.12561 -1.16153 0
M  V30 2075 H 199.433 4.51443 -2.06187 0
M  V30 2076 H 194.689 5.12271 -3.3375 0
M  V30 2077 H 198.863 5.52518 -4.23907 0
M  V30 2078 H 196.49 5.82687 -4.88242 0
M  V30 2079 N 198.065 0.39524 1.52563 0
M  V30 2080 C 199.293 -0.184943 2.06072 0
M  V30 2081 C 199.708 -1.40021 1.26647 0
M  V30 2082 O 199.065 -1.79767 0.314672 0
M  V30 2083 C 199.116 -0.549179 3.57304 0
M  V30 2084 O 198.837 0.617813 4.33722 0
M  V30 2085 C 200.338 -1.18459 4.2718 0
M  V30 2086 H 197.558 -0.0265025 0.670476 0
M  V30 2087 H 200.102 0.562184 1.96621 0
M  V30 2088 H 198.257 -1.2462 3.66809 0
M  V30 2089 H 198.671 0.317091 5.23541 0
M  V30 2090 H 200.145 -1.38976 5.34219 0
M  V30 2091 H 200.622 -2.15368 3.82771 0
M  V30 2092 H 201.228 -0.528163 4.22008 0
M  V30 2093 N 199.544 -1.57102 0.125237 0
M  V30 2094 C 200.96 -1.57915 -0.231322 0
M  V30 2095 C 201.16 -1.13833 -1.66266 0
M  V30 2096 O 200.216 -0.828581 -2.38518 0
M  V30 2097 C 201.529 -3.00699 0.00766489 0
M  V30 2098 C 203.077 -3.12947 -0.0577483 0
M  V30 2099 C 203.552 -4.57742 0.153626 0
M  V30 2100 N 205.043 -4.63092 0.0998073 0
M  V30 2101 C 205.778 -5.72905 0.238174 0
M  V30 2102 N 205.274 -6.91445 0.433057 0
M  V30 2103 N 207.067 -5.6182 0.177308 0
M  V30 2104 H 199.218 -1.84055 1.06007 0
M  V30 2105 H 201.481 -0.850905 0.417929 0
M  V30 2106 H 201.187 -3.3726 0.997431 0
M  V30 2107 H 201.061 -3.70236 -0.721452 0
M  V30 2108 H 203.448 -2.7624 -1.03804 0
M  V30 2109 H 203.529 -2.4594 0.70335 0
M  V30 2110 H 203.173 -4.95149 1.13092 0
M  V30 2111 H 203.103 -5.22848 -0.627534 0
M  V30 2112 H 205.594 -3.77871 -0.047051 0
M  V30 2113 H 205.907 -7.70985 0.529332 0
M  V30 2114 H 204.252 -6.93415 0.469109 0
M  V30 2115 H 207.443 -4.68093 0.0259748 0
M  V30 2116 H 207.616 -6.47357 0.288582 0
M  V30 2117 N 201.022 0.148545 -1.56898 0
M  V30 2118 C 201.969 1.18345 -1.98149 0
M  V30 2119 C 202.939 1.42772 -0.848848 0
M  V30 2120 O 204.124 1.55132 -1.11079 0
M  V30 2121 C 201.264 2.51231 -2.36594 0
M  V30 2122 C 200.377 2.33991 -3.63142 0
M  V30 2123 C 199.512 3.59902 -3.90697 0
M  V30 2124 C 198.551 3.37692 -5.1052 0
M  V30 2125 N 197.688 4.5573 -5.34092 0
M  V30 2126 H 202.528 0.82467 -2.86362 0
M  V30 2127 H 200.065 0.395756 -1.41676 0
M  V30 2128 H 202.023 3.28713 -2.56912 0
M  V30 2129 H 200.653 2.85059 -1.51463 0
M  V30 2130 H 199.705 1.47572 -3.50609 0
M  V30 2131 H 201.017 2.13539 -4.5078 0
M  V30 2132 H 200.171 4.45813 -4.11505 0
M  V30 2133 H 198.91 3.83357 -3.01477 0
M  V30 2134 H 197.915 2.5017 -4.89587 0
M  V30 2135 H 199.14 3.15637 -6.0129 0
M  V30 2136 H 197.086 4.79361 -4.47827 0
M  V30 2137 H 197.003 4.38274 -6.15996 0
M  V30 2138 H 198.271 5.42858 -5.59397 0
M  V30 2139 N 202.5 1.5196 0.417844 0
M  V30 2140 C 203.748 1.65263 1.16329 0
M  V30 2141 C 204.069 0.380634 1.91249 0
M  V30 2142 O 203.339 -0.604214 1.86349 0
M  V30 2143 H 201.919 0.60912 0.432414 0
M  V30 2144 H 204.581 1.88969 0.477162 0
M  V30 2145 H 203.677 2.4896 1.88217 0
M  V30 2146 N 203.978 -0.674533 1.42435 0
M  V30 2147 C 204.908 -1.80009 1.48724 0
M  V30 2148 C 205.889 -1.6659 0.343793 0
M  V30 2149 O 207.074 -1.86007 0.558137 0
M  V30 2150 C 204.204 -3.18306 1.38919 0
M  V30 2151 C 203.158 -3.46461 2.51294 0
M  V30 2152 C 202.484 -4.84335 2.26547 0
M  V30 2153 C 203.784 -3.43328 3.93603 0
M  V30 2154 H 205.478 -1.75004 2.42928 0
M  V30 2155 H 203.024 -0.840533 1.16923 0
M  V30 2156 H 204.977 -3.9678 1.41927 0
M  V30 2157 H 203.701 -3.2399 0.412094 0
M  V30 2158 H 202.36 -2.70348 2.47604 0
M  V30 2159 H 202.008 -4.86669 1.2713 0
M  V30 2160 H 201.708 -5.04136 3.01861 0
M  V30 2161 H 203.232 -5.65094 2.31304 0
M  V30 2162 H 204.646 -4.11772 3.98894 0
M  V30 2163 H 203.043 -3.74664 4.68771 0
M  V30 2164 H 204.113 -2.41897 4.20255 0
M  V30 2165 N 205.456 -1.28612 -0.910864 0
M  V30 2166 C 206.867 -1.14406 -1.47541 0
M  V30 2167 C 207.218 0.264901 -1.94403 0
M  V30 2168 O 206.343 1.15942 -1.82719 0
M  V30 2169 C 206.938 -2.07073 -2.68153 0
M  V30 2170 C 205.497 -1.96923 -3.20778 0
M  V30 2171 C 204.644 -1.98646 -1.93481 0
M  V30 2172 H 207.595 -1.41259 -0.723291 0
M  V30 2173 H 207.616 -1.63642 -3.43514 0
M  V30 2174 H 207.128 -3.09611 -2.34015 0
M  V30 2175 H 205.229 -0.97433 -3.59635 0
M  V30 2176 H 205.342 -2.84026 -3.85832 0
M  V30 2177 H 203.706 -1.43093 -2.10705 0
M  V30 2178 H 204.489 -3.02868 -1.61634 0
M  V30 2179 N 206.934 1.1197 -1.10907 0
M  V30 2180 C 207.844 2.21433 -0.774896 0
M  V30 2181 C 208.86 1.72478 0.229657 0
M  V30 2182 O 210.036 2.01288 0.0672008 0
M  V30 2183 C 207.101 3.4602 -0.216986 0
M  V30 2184 C 206.162 4.09791 -1.27944 0
M  V30 2185 C 205.395 5.28431 -0.748055 0
M  V30 2186 O 205.618 5.68823 0.423833 0
M  V30 2187 O 204.552 5.82644 -1.51027 0
M  V30 2188 H 208.378 2.5242 -1.68873 0
M  V30 2189 H 205.963 1.20399 -0.884555 0
M  V30 2190 H 207.845 4.21304 0.090059 0
M  V30 2191 H 206.52 3.16698 0.669633 0
M  V30 2192 H 205.427 3.36265 -1.63941 0
M  V30 2193 H 206.76 4.4328 -2.13925 0
M  V30 2194 N 208.412 0.89855 1.29475 0
M  V30 2195 C 209.642 0.538479 1.99459 0
M  V30 2196 C 210.05 -0.880922 1.67441 0
M  V30 2197 O 209.393 -1.59283 0.915127 0
M  V30 2198 C 209.455 0.649564 3.53583 0
M  V30 2199 C 209.119 2.03573 4.09154 0
M  V30 2200 C 210.116 3.00675 4.24135 0
M  V30 2201 C 207.801 2.3448 4.44212 0
M  V30 2202 C 209.795 4.26809 4.73405 0
M  V30 2203 C 207.482 3.60857 4.93179 0
M  V30 2204 C 208.48 4.56836 5.0773 0
M  V30 2205 O 208.168 5.80969 5.55635 0
M  V30 2206 H 207.9 0.205372 0.644048 0
M  V30 2207 H 210.454 1.20958 1.66007 0
M  V30 2208 H 208.684 -0.0785592 3.8662 0
M  V30 2209 H 210.373 0.29881 4.04799 0
M  V30 2210 H 211.139 2.78112 3.97339 0
M  V30 2211 H 207.018 1.60534 4.32145 0
M  V30 2212 H 210.562 5.0173 4.84678 0
M  V30 2213 H 206.459 3.83251 5.19412 0
M  V30 2214 H 207.227 5.83542 5.73952 0
M  V30 2215 N 209.89 -1.43072 0.660911 0
M  V30 2216 C 211.301 -1.84932 0.256348 0
M  V30 2217 C 211.652 -1.55325 -1.19868 0
M  V30 2218 O 210.777 -1.00607 -1.91591 0
M  V30 2219 C 211.372 -3.35684 0.458475 0
M  V30 2220 C 209.931 -3.76245 0.108161 0
M  V30 2221 C 209.078 -2.66749 0.757641 0
M  V30 2222 H 212.029 -1.33116 0.864051 0
M  V30 2223 H 212.05 -3.79365 -0.293683 0
M  V30 2224 H 211.562 -3.572 1.51755 0
M  V30 2225 H 209.663 -3.60338 -0.948014 0
M  V30 2226 H 209.776 -4.76058 0.538992 0
M  V30 2227 H 208.14 -2.53989 0.190185 0
M  V30 2228 H 208.923 -2.91092 1.81989 0
M  V30 2229 N 211.368 -0.403325 -1.52352 0
M  V30 2230 C 212.645 0.232611 -1.94212 0
M  V30 2231 C 213.025 1.63133 -1.33981 0
M  V30 2232 O 212.373 2.22659 -0.513344 0
M  V30 2233 C 212.583 0.244811 -3.4814 0
M  V30 2234 C 213.931 0.46698 -4.22024 0
M  V30 2235 O 214.955 0.324419 -3.5472 0
M  V30 2236 O 213.814 0.74747 -5.41364 0
M  V30 2237 H 210.908 0.148223 -0.813609 0
M  V30 2238 H 213.454 -0.458848 -1.63379 0
M  V30 2239 H 212.226 -0.734378 -3.84347 0
M  V30 2240 H 211.849 0.980611 -3.85318 0
M  V30 2241 N 212.846 1.57033 -0.133567 0
M  V30 2242 C 213.776 2.1909 0.807567 0
M  V30 2243 C 214.757 1.13517 1.26681 0
M  V30 2244 O 215.942 1.41809 1.32679 0
M  V30 2245 C 213.072 2.80188 2.05212 0
M  V30 2246 C 212.026 3.91471 1.73015 0
M  V30 2247 C 211.352 4.39443 3.04622 0
M  V30 2248 C 212.652 5.12886 0.987168 0
M  V30 2249 H 214.346 2.97988 0.290403 0
M  V30 2250 H 211.892 1.43335 0.138239 0
M  V30 2251 H 213.845 3.22264 2.71521 0
M  V30 2252 H 212.569 1.98601 2.59278 0
M  V30 2253 H 211.228 3.49993 1.0909 0
M  V30 2254 H 210.876 3.54695 3.56651 0
M  V30 2255 H 210.576 5.14495 2.83847 0
M  V30 2256 H 212.1 4.8418 3.72024 0
M  V30 2257 H 213.514 5.51891 1.55208 0
M  V30 2258 H 211.911 5.93615 0.87985 0
M  V30 2259 H 212.981 4.84894 -0.0235286 0
M  V30 2260 N 214.325 -0.140222 1.56975 0
M  V30 2261 C 215.736 -0.699596 1.73097 0
M  V30 2262 C 216.087 -1.8134 0.749022 0
M  V30 2263 O 215.212 -2.16241 -0.0828503 0
M  V30 2264 C 215.807 -1.27582 3.1386 0
M  V30 2265 C 214.366 -1.78169 3.31561 0
M  V30 2266 C 213.513 -0.672855 2.69013 0
M  V30 2267 H 216.464 0.0855115 1.58469 0
M  V30 2268 H 216.485 -2.14561 3.14235 0
M  V30 2269 H 215.997 -0.464955 3.85305 0
M  V30 2270 H 214.098 -2.61801 2.65124 0
M  V30 2271 H 214.211 -1.90574 4.39566 0
M  V30 2272 H 212.575 -1.10118 2.29665 0
M  V30 2273 H 213.358 0.126679 3.43066 0
M  V30 2274 N 215.803 -1.52179 -0.40978 0
M  V30 2275 C 216.733 -1.78435 -1.5061 0
M  V30 2276 C 217.714 -0.635295 -1.57791 0
M  V30 2277 O 218.899 -0.880823 -1.73076 0
M  V30 2278 C 216.029 -1.93444 -2.88439 0
M  V30 2279 C 214.983 -3.09038 -2.96108 0
M  V30 2280 C 214.309 -3.09268 -4.36185 0
M  V30 2281 C 215.609 -4.48508 -2.67652 0
M  V30 2282 H 217.303 -2.70237 -1.28889 0
M  V30 2283 H 214.849 -1.30036 -0.618605 0
M  V30 2284 H 216.802 -2.10394 -3.65119 0
M  V30 2285 H 215.526 -0.983129 -3.11452 0
M  V30 2286 H 214.185 -2.91837 -2.21872 0
M  V30 2287 H 213.833 -2.11861 -4.56206 0
M  V30 2288 H 213.533 -3.86907 -4.42241 0
M  V30 2289 H 215.057 -3.28348 -5.14801 0
M  V30 2290 H 216.471 -4.65918 -3.34056 0
M  V30 2291 H 214.868 -5.28059 -2.85085 0
M  V30 2292 H 215.938 -4.56649 -1.63095 0
M  V30 2293 N 217.281 0.66697 -1.42791 0
M  V30 2294 C 218.527 1.4291 -1.43891 0
M  V30 2295 C 218.86 1.94114 -0.0578972 0
M  V30 2296 O 218.135 1.71414 0.91911 0
M  V30 2297 C 218.418 2.62049 -2.46987 0
M  V30 2298 C 218.271 2.16426 -3.94309 0
M  V30 2299 C 219.59 3.64266 -2.46978 0
M  V30 2300 H 216.709 0.518306 -0.523954 0
M  V30 2301 H 219.351 0.757321 -1.74255 0
M  V30 2302 H 217.501 3.19361 -2.21225 0
M  V30 2303 H 219.173 1.64221 -4.31079 0
M  V30 2304 H 217.416 1.47925 -4.078 0
M  V30 2305 H 218.087 3.02038 -4.62036 0
M  V30 2306 H 220.563 3.16686 -2.69906 0
M  V30 2307 H 219.439 4.45196 -3.21079 0
M  V30 2308 H 219.7 4.15927 -1.49857 0
M  V30 2309 N 218.759 1.29093 0.90403 0
M  V30 2310 C 219.689 1.16401 2.02418 0
M  V30 2311 C 220.67 0.0593085 1.69997 0
M  V30 2312 O 221.855 0.238021 1.92736 0
M  V30 2313 C 218.985 0.835233 3.37107 0
M  V30 2314 C 217.939 1.89578 3.83724 0
M  V30 2315 C 217.265 1.42041 5.15489 0
M  V30 2316 C 218.565 3.30394 4.04521 0
M  V30 2317 H 220.259 2.10109 2.13295 0
M  V30 2318 H 217.805 1.01157 1.02486 0
M  V30 2319 H 219.758 0.733169 4.14973 0
M  V30 2320 H 218.482 -0.137543 3.2631 0
M  V30 2321 H 217.141 1.98715 3.08071 0
M  V30 2322 H 216.789 0.436426 5.01103 0
M  V30 2323 H 216.489 2.12964 5.4765 0
M  V30 2324 H 218.013 1.33176 5.959 0
M  V30 2325 H 219.427 3.24123 4.72882 0
M  V30 2326 H 217.824 3.99237 4.48029 0
M  V30 2327 H 218.894 3.73692 3.09002 0
M  V30 2328 N 220.237 -1.11381 1.11499 0
M  V30 2329 C 221.648 -1.6465 0.880191 0
M  V30 2330 C 221.999 -1.87199 -0.587434 0
M  V30 2331 O 221.124 -1.60667 -1.44966 0
M  V30 2332 C 221.719 -2.99105 1.59128 0
M  V30 2333 C 220.278 -3.49279 1.40289 0
M  V30 2334 C 219.425 -2.24077 1.63354 0
M  V30 2335 H 222.376 -0.950123 1.27116 0
M  V30 2336 H 222.397 -3.66107 1.03664 0
M  V30 2337 H 221.909 -2.82661 2.65941 0
M  V30 2338 H 220.01 -3.70887 0.356888 0
M  V30 2339 H 220.123 -4.2803 2.15238 0
M  V30 2340 H 218.487 -2.31733 1.05698 0
M  V30 2341 H 219.27 -2.10175 2.71443 0
M  V30 2342 N 221.715 -0.905404 -1.28997 0
M  V30 2343 C 222.663 -0.377431 -2.29517 0
M  V30 2344 C 223.657 0.526461 -1.61012 0
M  V30 2345 O 224.863 0.40863 -1.753 0
M  V30 2346 H 221.238 -0.103437 -0.744852 0
M  V30 2347 H 223.209 -1.23848 -2.71485 0
M  V30 2348 C 221.958 0.374833 -3.45674 0
M  V30 2349 H 221.281 -0.311474 -3.98585 0
M  V30 2350 H 222.721 0.70903 -4.1803 0
M  V30 2351 C 221.18 1.57963 -2.97572 0
M  V30 2352 O 221.71 2.67886 -2.99333 0
M  V30 2353 N 219.916 1.42375 -2.53333 0
M  V30 2354 H 219.463 0.529466 -2.521 0
M  V30 2355 H 219.421 2.23117 -2.21509 0
M  V30 2356 N 223.193 1.4272 -0.668489 0
M  V30 2357 C 224.439 2.01923 -0.188419 0
M  V30 2358 C 224.772 1.52704 1.19979 0
M  V30 2359 O 224.047 0.726566 1.8042 0
M  V30 2360 C 224.33 3.59451 -0.216085 0
M  V30 2361 C 224.183 4.18864 -1.6393 0
M  V30 2362 C 225.502 4.37903 0.439179 0
M  V30 2363 H 222.621 0.733674 -0.0699412 0
M  V30 2364 H 225.263 1.69822 -0.852076 0
M  V30 2365 H 223.413 3.86929 0.349012 0
M  V30 2366 H 225.085 4.02362 -2.25616 0
M  V30 2367 H 223.328 3.74933 -2.18193 0
M  V30 2368 H 223.999 5.27987 -1.61039 0
M  V30 2369 H 226.475 4.16079 -0.0417878 0
M  V30 2370 H 225.351 5.47519 0.389157 0
M  V30 2371 H 225.612 4.15303 1.51577 0
M  V30 2372 N 224.671 0.411399 1.52136 0
M  V30 2373 C 225.917 -0.163888 2.02137 0
M  V30 2374 C 226.25 -1.44597 1.29636 0
M  V30 2375 O 225.525 -1.90272 0.403353 0
M  V30 2376 C 225.808 -0.40927 3.57767 0
M  V30 2377 C 225.661 0.889643 4.40914 0
M  V30 2378 C 226.98 -1.19042 4.23694 0
M  V30 2379 H 224.099 -0.0580896 0.734707 0
M  V30 2380 H 226.741 0.54531 1.82007 0
M  V30 2381 H 224.891 -1.0134 3.7505 0
M  V30 2382 H 226.563 1.52575 4.35337 0
M  V30 2383 H 224.806 1.50011 4.07037 0
M  V30 2384 H 225.477 0.672314 5.4789 0
M  V30 2385 H 227.953 -0.678942 4.10524 0
M  V30 2386 H 226.829 -1.33086 5.32522 0
M  V30 2387 H 227.09 -2.21166 3.82803 0
M  V30 2388 N 226.149 -1.5696 0.141893 0
M  V30 2389 C 227.099 -2.13074 -0.811383 0
M  V30 2390 C 228.083 -1.05726 -1.21288 0
M  V30 2391 O 229.275 -1.31914 -1.18015 0
M  V30 2392 C 226.404 -2.75186 -2.0525 0
M  V30 2393 C 225.49 -3.8965 -1.67432 0
M  V30 2394 N 225.881 -4.95733 -1.0041 0
M  V30 2395 C 224.179 -4.00262 -1.96739 0
M  V30 2396 C 224.88 -5.75858 -0.822345 0
M  V30 2397 N 223.856 -5.26452 -1.3546 0
M  V30 2398 H 227.658 -2.92465 -0.290031 0
M  V30 2399 H 225.172 -1.6229 -0.0598218 0
M  V30 2400 H 227.169 -3.13745 -2.74535 0
M  V30 2401 H 225.829 -1.97266 -2.57907 0
M  V30 2402 H 226.84 -5.13607 -0.665441 0
M  V30 2403 H 223.517 -3.33412 -2.51282 0
M  V30 2404 H 224.907 -6.71254 -0.294496 0
M  V30 2405 N 227.627 0.131896 -1.57047 0
M  V30 2406 C 228.904 0.871495 -1.75112 0
M  V30 2407 C 229.284 1.9866 -0.713949 0
M  V30 2408 O 228.632 2.26965 0.264447 0
M  V30 2409 C 228.842 1.40007 -3.19686 0
M  V30 2410 C 230.19 1.85752 -3.81813 0
M  V30 2411 O 231.214 1.49715 -3.23209 0
M  V30 2412 O 230.073 2.5226 -4.84796 0
M  V30 2413 H 227.167 0.412919 -0.716538 0
M  V30 2414 H 229.713 0.116641 -1.69299 0
M  V30 2415 H 228.485 0.599404 -3.86682 0
M  V30 2416 H 228.108 2.218 -3.29986 0
M  V30 2417 N 229.106 1.52395 0.401703 0
M  V30 2418 C 230.354 1.66488 1.14569 0
M  V30 2419 C 230.675 0.400897 1.90835 0
M  V30 2420 O 229.945 -0.584415 1.8698 0
M  V30 2421 H 228.525 0.613672 0.425929 0
M  V30 2422 H 231.187 1.89464 0.457093 0
M  V30 2423 H 230.283 2.50942 1.85566 0
M  V30 2424 N 230.584 -0.659388 1.43143 0
M  V30 2425 C 231.861 -1.41627 1.34912 0
M  V30 2426 C 232.241 -2.11099 -0.00607785 0
M  V30 2427 O 231.589 -2.04353 -1.02236 0
M  V30 2428 C 231.799 -2.40604 2.52805 0
M  V30 2429 C 233.147 -3.04789 2.95616 0
M  V30 2430 O 234.171 -2.50932 2.52807 0
M  V30 2431 O 233.03 -4.02421 3.69756 0
M  V30 2432 H 230.124 -0.63246 0.532844 0
M  V30 2433 H 232.67 -0.686814 1.5518 0
M  V30 2434 H 231.442 -1.88174 3.43083 0
M  V30 2435 H 231.065 -3.21009 2.34604 0
M  V30 2436 N 232.062 -1.29571 -0.897171 0
M  V30 2437 C 233.309 -1.17689 -1.6479 0
M  V30 2438 C 233.637 0.27107 -1.92602 0
M  V30 2439 O 232.892 1.21193 -1.53658 0
M  V30 2440 C 233.191 -1.9382 -3.00281 0
M  V30 2441 C 232.857 -3.43522 -2.92068 0
M  V30 2442 C 231.519 -3.84348 -2.89535 0
M  V30 2443 C 233.871 -4.38906 -2.81089 0
M  V30 2444 C 231.199 -5.18869 -2.73846 0
M  V30 2445 C 233.551 -5.73521 -2.66939 0
M  V30 2446 C 232.215 -6.13601 -2.62774 0
M  V30 2447 H 231.485 -0.430654 -0.603008 0
M  V30 2448 H 234.132 -1.60536 -1.04404 0
M  V30 2449 H 232.437 -1.4357 -3.64547 0
M  V30 2450 H 234.134 -1.82028 -3.57305 0
M  V30 2451 H 230.724 -3.11072 -2.94842 0
M  V30 2452 H 234.908 -4.08315 -2.82121 0
M  V30 2453 H 230.164 -5.4903 -2.69027 0
M  V30 2454 H 234.338 -6.47078 -2.57416 0
M  V30 2455 H 231.965 -7.17786 -2.50375 0
M  V30 2456 N 233.54 1.10788 -1.12088 0
M  V30 2457 C 234.768 1.86461 -0.896651 0
M  V30 2458 C 235.183 1.80492 0.553912 0
M  V30 2459 O 234.54 1.19102 1.38278 0
M  V30 2460 C 234.591 3.35006 -1.35843 0
M  V30 2461 O 234.312 3.40866 -2.75213 0
M  V30 2462 C 235.813 4.27565 -1.1706 0
M  V30 2463 H 233.033 0.589425 -0.320654 0
M  V30 2464 H 235.577 1.40076 -1.48993 0
M  V30 2465 H 233.732 3.7887 -0.808458 0
M  V30 2466 H 234.146 4.33411 -2.9539 0
M  V30 2467 H 235.62 5.30007 -1.54263 0
M  V30 2468 H 236.097 4.3906 -0.110814 0
M  V30 2469 H 236.703 3.89501 -1.70789 0
M  V30 2470 N 235.018 0.912232 1.28515 0
M  V30 2471 C 235.948 0.416403 2.29757 0
M  V30 2472 C 236.929 -0.515194 1.6211 0
M  V30 2473 O 238.114 -0.423253 1.89532 0
M  V30 2474 C 235.244 -0.34572 3.45575 0
M  V30 2475 C 234.198 0.496599 4.25109 0
M  V30 2476 C 233.524 -0.393771 5.33248 0
M  V30 2477 C 234.824 1.75307 4.92001 0
M  V30 2478 H 236.518 1.26249 2.7148 0
M  V30 2479 H 234.064 0.608515 1.30511 0
M  V30 2480 H 236.017 -0.703422 4.15488 0
M  V30 2481 H 234.741 -1.2257 3.02728 0
M  V30 2482 H 233.4 0.8368 3.56922 0
M  V30 2483 H 233.048 -1.27225 4.86644 0
M  V30 2484 H 232.748 0.166209 5.87365 0
M  V30 2485 H 234.272 -0.747389 6.06009 0
M  V30 2486 H 235.686 1.46437 5.54283 0
M  V30 2487 H 234.083 2.25534 5.56106 0
M  V30 2488 H 235.153 2.48176 4.16577 0
M  V30 2489 N 236.496 -1.42363 0.676048 0
M  V30 2490 C 237.428 -2.29164 -0.0404605 0
M  V30 2491 C 238.441 -1.43747 -0.764245 0
M  V30 2492 O 239.63 -1.67453 -0.618195 0
M  V30 2493 C 236.73 -3.21196 -1.08103 0
M  V30 2494 C 235.903 -4.35273 -0.430812 0
M  V30 2495 C 234.962 -5.08017 -1.37133 0
M  V30 2496 O 233.988 -5.62494 -0.87116 0
M  V30 2497 N 235.19 -5.13647 -2.70456 0
M  V30 2498 H 237.955 -2.91298 0.704667 0
M  V30 2499 H 235.516 -1.53303 0.520559 0
M  V30 2500 H 237.508 -3.66728 -1.71152 0
M  V30 2501 H 236.078 -2.60505 -1.72788 0
M  V30 2502 H 235.298 -3.92372 0.379209 0
M  V30 2503 H 236.586 -5.08795 0.0221132 0
M  V30 2504 H 235.984 -4.708 -3.1363 0
M  V30 2505 H 234.541 -5.62821 -3.28749 0
M  V30 2506 N 237.974 -0.419461 -1.51915 0
M  V30 2507 C 238.884 0.407528 -2.31033 0
M  V30 2508 C 239.9 1.04413 -1.3919 0
M  V30 2509 O 241.076 1.0434 -1.72265 0
M  V30 2510 C 238.141 1.50365 -3.12396 0
M  V30 2511 C 237.202 0.889029 -4.19994 0
M  V30 2512 C 236.435 1.93291 -4.97468 0
M  V30 2513 O 236.658 3.15259 -4.75361 0
M  V30 2514 O 235.592 1.53339 -5.8204 0
M  V30 2515 H 239.418 -0.237865 -3.02767 0
M  V30 2516 H 237.003 -0.182413 -1.48282 0
M  V30 2517 H 238.885 2.13975 -3.63032 0
M  V30 2518 H 237.56 2.13345 -2.43445 0
M  V30 2519 H 236.467 0.215353 -3.7348 0
M  V30 2520 H 237.8 0.302991 -4.91267 0
M  V30 2521 N 239.452 1.56882 -0.150215 0
M  V30 2522 C 240.7 1.9584 0.499105 0
M  V30 2523 C 241.021 1.03623 1.65188 0
M  V30 2524 O 240.291 0.0984084 1.95653 0
M  V30 2525 H 238.871 0.723119 0.187373 0
M  V30 2526 H 241.533 1.9358 -0.226466 0
M  V30 2527 H 240.629 2.99638 0.873122 0
M  V30 2528 N 240.93 -0.123565 1.57115 0
M  V30 2529 C 241.877 -1.15177 2.00007 0
M  V30 2530 C 242.847 -1.41403 0.871454 0
M  V30 2531 O 244.032 -1.53346 1.13533 0
M  V30 2532 C 241.172 -2.47436 2.40561 0
M  V30 2533 C 240.285 -2.28184 3.66819 0
M  V30 2534 C 239.42 -3.53641 3.96373 0
M  V30 2535 C 238.459 -3.29528 5.15827 0
M  V30 2536 N 237.596 -4.47175 5.41275 0
M  V30 2537 H 242.436 -0.779008 2.87638 0
M  V30 2538 H 239.973 -0.373166 1.42288 0
M  V30 2539 H 241.931 -3.24584 2.62109 0
M  V30 2540 H 240.561 -2.82614 1.55978 0
M  V30 2541 H 239.613 -1.41976 3.52912 0
M  V30 2542 H 240.925 -2.0634 4.5412 0
M  V30 2543 H 240.079 -4.39209 4.18545 0
M  V30 2544 H 238.818 -3.78512 3.07538 0
M  V30 2545 H 237.823 -2.42349 4.93505 0
M  V30 2546 H 239.048 -3.06031 6.06236 0
M  V30 2547 H 236.994 -4.72175 4.55397 0
M  V30 2548 H 236.911 -4.28419 6.22891 0
M  V30 2549 H 238.179 -5.3389 5.67963 0
M  V30 2550 N 242.408 -1.52605 -0.393616 0
M  V30 2551 C 243.654 -1.67672 -1.14079 0
M  V30 2552 C 243.987 -0.413121 -1.89755 0
M  V30 2553 O 243.262 0.588952 -1.85369 0
M  V30 2554 C 243.545 -2.9088 -2.12276 0
M  V30 2555 C 243.398 -4.27329 -1.40394 0
M  V30 2556 C 244.717 -3.09628 -3.12759 0
M  V30 2557 H 241.836 -0.610168 -0.413356 0
M  V30 2558 H 244.478 -1.85193 -0.424696 0
M  V30 2559 H 242.628 -2.76073 -2.73342 0
M  V30 2560 H 244.3 -4.53894 -0.82327 0
M  V30 2561 H 242.543 -4.2802 -0.705801 0
M  V30 2562 H 243.214 -5.09615 -2.12123 0
M  V30 2563 H 245.69 -3.23436 -2.61779 0
M  V30 2564 H 244.566 -3.97322 -3.78717 0
M  V30 2565 H 244.827 -2.23637 -3.81365 0
M  V30 2566 N 243.887 0.651787 -1.4349 0
M  V30 2567 C 245.303 0.96762 -1.26922 0
M  V30 2568 C 245.503 2.00602 -0.189982 0
M  V30 2569 O 244.559 2.48793 0.431107 0
M  V30 2570 C 245.872 1.45052 -2.63401 0
M  V30 2571 C 247.42 1.5671 -2.70945 0
M  V30 2572 C 247.895 2.0839 -4.07845 0
M  V30 2573 N 249.386 2.1569 -4.09917 0
M  V30 2574 C 250.121 2.56804 -5.12679 0
M  V30 2575 N 249.617 2.97203 -6.25813 0
M  V30 2576 N 251.41 2.56756 -5.00033 0
M  V30 2577 H 243.561 -0.0353158 -2.12371 0
M  V30 2578 H 245.824 0.0467858 -0.946845 0
M  V30 2579 H 245.53 0.761926 -3.43348 0
M  V30 2580 H 245.404 2.42529 -2.88894 0
M  V30 2581 H 247.791 2.2467 -1.9133 0
M  V30 2582 H 247.872 0.57662 -2.49216 0
M  V30 2583 H 247.516 1.41031 -4.87927 0
M  V30 2584 H 247.446 3.08271 -4.26938 0
M  V30 2585 H 249.937 1.87237 -3.28254 0
M  V30 2586 H 250.25 3.27328 -7.00055 0
M  V30 2587 H 248.595 2.95004 -6.29283 0
M  V30 2588 H 251.786 2.24572 -4.10713 0
M  V30 2589 H 251.959 2.88475 -5.80247 0
M  V30 2590 N 245.365 1.30045 0.890287 0
M  V30 2591 C 246.328 1.15963 1.977 0
M  V30 2592 C 247.328 0.0923777 1.60534 0
M  V30 2593 O 248.518 0.340071 1.70848 0
M  V30 2594 C 245.65 0.775451 3.31963 0
M  V30 2595 H 246.843 2.12502 2.11619 0
M  V30 2596 H 244.396 1.13366 1.07601 0
M  V30 2597 H 245.131 -0.189671 3.23745 0
M  V30 2598 H 244.916 1.54668 3.60306 0
M  V30 2599 H 246.406 0.700251 4.11687 0
M  V30 2600 N 246.843 -1.10192 1.12674 0
M  V30 2601 C 248.09 -1.82205 0.883606 0
M  V30 2602 C 248.418 -1.8532 -0.590492 0
M  V30 2603 O 247.673 -1.31137 -1.45264 0
M  V30 2604 C 247.972 -3.28552 1.4067 0
M  V30 2605 C 247.638 -3.45582 2.89627 0
M  V30 2606 C 246.3 -3.49937 3.30299 0
M  V30 2607 C 248.652 -3.50768 3.85501 0
M  V30 2608 C 245.98 -3.57049 4.65546 0
M  V30 2609 C 248.332 -3.59414 5.20581 0
M  V30 2610 C 246.996 -3.62034 5.60792 0
M  V30 2611 H 246.266 -0.666735 0.323334 0
M  V30 2612 H 248.913 -1.29868 1.40736 0
M  V30 2613 H 247.218 -3.83473 0.80347 0
M  V30 2614 H 248.915 -3.82788 1.19475 0
M  V30 2615 H 245.505 -3.42871 2.57172 0
M  V30 2616 H 249.689 -3.46651 3.55171 0
M  V30 2617 H 244.945 -3.57361 4.96088 0
M  V30 2618 H 249.119 -3.62371 5.94693 0
M  V30 2619 H 246.746 -3.67298 6.6558 0
M  V30 2620 N 248.321 -0.919034 -1.28029 0
M  V30 2621 C 249.551 -0.570143 -1.98577 0
M  V30 2622 C 249.959 0.854172 -1.68821 0
M  V30 2623 O 249.302 1.57807 -0.940351 0
M  V30 2624 C 249.364 -0.705734 -3.52505 0
M  V30 2625 C 249.028 -2.10057 -4.05863 0
M  V30 2626 C 250.025 -3.07385 -4.19298 0
M  V30 2627 C 247.71 -2.41517 -4.40426 0
M  V30 2628 C 249.704 -4.34287 -4.66555 0
M  V30 2629 C 247.391 -3.68657 -4.87376 0
M  V30 2630 C 248.389 -4.64856 -5.00398 0
M  V30 2631 O 248.077 -5.89735 -5.46322 0
M  V30 2632 H 247.809 -0.215592 -0.6407 0
M  V30 2633 H 250.363 -1.23583 -1.64062 0
M  V30 2634 H 248.593 0.0170414 -3.86696 0
M  V30 2635 H 250.282 -0.363172 -4.04272 0
M  V30 2636 H 251.048 -2.84398 -3.92865 0
M  V30 2637 H 246.927 -1.67389 -4.29537 0
M  V30 2638 H 250.471 -5.09377 -4.76635 0
M  V30 2639 H 246.368 -3.91466 -5.13249 0
M  V30 2640 H 247.136 -5.92599 -5.64596 0
M  V30 2641 N 249.799 1.42003 -0.683588 0
M  V30 2642 C 250.762 2.29191 -0.0198243 0
M  V30 2643 C 251.762 1.43773 0.72013 0
M  V30 2644 O 252.952 1.65061 0.556815 0
M  V30 2645 C 250.084 3.26435 0.982487 0
M  V30 2646 H 251.277 2.8938 -0.787345 0
M  V30 2647 H 248.83 1.49789 -0.446418 0
M  V30 2648 H 249.565 2.71203 1.77819 0
M  V30 2649 H 249.35 3.89449 0.455182 0
M  V30 2650 H 250.84 3.918 1.44508 0
M  V30 2651 N 251.277 0.427512 1.51691 0
M  V30 2652 C 252.525 -0.141948 2.01601 0
M  V30 2653 C 252.846 -1.44067 1.31414 0
M  V30 2654 O 252.116 -1.90763 0.445658 0
M  V30 2655 H 250.696 -0.0554468 0.744939 0
M  V30 2656 H 253.358 0.567968 1.86441 0
M  V30 2657 H 252.454 -0.324913 3.10404 0
M  V30 2658 N 252.755 -1.56801 0.158532 0
M  V30 2659 C 254.166 -1.83189 -0.360366 0
M  V30 2660 C 254.517 -1.07778 -1.63946 0
M  V30 2661 O 253.642 -0.326718 -2.13919 0
M  V30 2662 C 254.237 -3.32297 -0.660595 0
M  V30 2663 C 252.796 -3.59227 -1.12398 0
M  V30 2664 C 251.943 -2.76877 -0.153097 0
M  V30 2665 H 254.894 -1.54008 0.383031 0
M  V30 2666 H 254.915 -3.4908 -1.51405 0
M  V30 2667 H 254.427 -3.87156 0.270527 0
M  V30 2668 H 252.528 -3.09766 -2.07064 0
M  V30 2669 H 252.641 -4.67632 -1.04197 0
M  V30 2670 H 251.005 -2.46319 -0.647983 0
M  V30 2671 H 251.788 -3.34511 0.77182 0
M  V30 2672 N 254.233 0.115231 -1.57178 0
M  V30 2673 C 255.196 1.12526 -1.99676 0
M  V30 2674 C 256.196 1.34095 -0.88742 0
M  V30 2675 O 257.386 1.30548 -1.15337 0
M  V30 2676 C 254.518 2.4789 -2.34015 0
M  V30 2677 H 255.711 0.759912 -2.90113 0
M  V30 2678 H 253.264 0.359648 -1.52106 0
M  V30 2679 H 253.999 2.89339 -1.4647 0
M  V30 2680 H 253.784 2.33588 -3.14927 0
M  V30 2681 H 255.274 3.20575 -2.67622 0
M  V30 2682 N 255.711 1.52812 0.385517 0
M  V30 2683 C 256.661 1.74219 1.47078 0
M  V30 2684 C 257.645 0.59632 1.49442 0
M  V30 2685 O 258.837 0.85428 1.5502 0
M  V30 2686 C 255.966 1.9176 2.84751 0
M  V30 2687 C 255.052 3.12289 2.86943 0
M  V30 2688 N 255.443 4.34575 2.58802 0
M  V30 2689 C 253.741 3.12605 3.1811 0
M  V30 2690 C 254.442 5.162 2.68166 0
M  V30 2691 N 253.418 4.51964 3.02043 0
M  V30 2692 H 257.22 2.6639 1.24152 0
M  V30 2693 H 254.734 1.51166 0.593504 0
M  V30 2694 H 256.731 2.05218 3.62893 0
M  V30 2695 H 255.391 1.00805 3.08656 0
M  V30 2696 H 256.402 4.62649 2.32759 0
M  V30 2697 H 253.079 2.31472 3.47458 0
M  V30 2698 H 254.469 6.23689 2.49923 0
M  V30 2699 N 257.189 -0.644168 1.43834 0
M  V30 2700 C 258.417 -1.43147 1.49387 0
M  V30 2701 C 258.832 -1.88452 0.114583 0
M  V30 2702 O 258.189 -1.60047 -0.876989 0
M  V30 2703 C 258.24 -2.66046 2.44748 0
M  V30 2704 O 257.961 -2.22633 3.77314 0
M  V30 2705 C 259.462 -3.59311 2.59635 0
M  V30 2706 H 256.682 -0.439447 0.507077 0
M  V30 2707 H 259.226 -0.78895 1.88669 0
M  V30 2708 H 257.381 -3.26418 2.08638 0
M  V30 2709 H 257.795 -3.02216 4.28679 0
M  V30 2710 H 259.269 -4.42187 3.30416 0
M  V30 2711 H 259.746 -4.07259 1.64427 0
M  V30 2712 H 260.352 -3.04816 2.96593 0
M  V30 2713 N 258.668 -1.30515 -0.883378 0
M  V30 2714 C 260.079 -1.17509 -1.45081 0
M  V30 2715 C 260.43 0.223605 -1.94922 0
M  V30 2716 O 259.555 1.12041 -1.85137 0
M  V30 2717 C 260.15 -2.12715 -2.63701 0
M  V30 2718 C 258.709 -2.03682 -3.16529 0
M  V30 2719 C 257.856 -2.02706 -1.89224 0
M  V30 2720 H 260.807 -1.42762 -0.693165 0
M  V30 2721 H 260.828 -1.70891 -3.39965 0
M  V30 2722 H 260.34 -3.14505 -2.27395 0
M  V30 2723 H 258.441 -1.05039 -3.57488 0
M  V30 2724 H 258.554 -2.92146 -3.7972 0
M  V30 2725 H 256.918 -1.4753 -2.07622 0
M  V30 2726 H 257.701 -3.06229 -1.55174 0
M  V30 2727 N 260.146 1.09593 -1.13257 0
M  V30 2728 C 261.423 1.78293 -0.804432 0
M  V30 2729 C 261.803 1.99004 0.70431 0
M  V30 2730 O 261.151 1.59007 1.641 0
M  V30 2731 C 261.361 3.10707 -1.5894 0
M  V30 2732 C 262.709 3.85443 -1.78099 0
M  V30 2733 O 263.733 3.20454 -1.55525 0
M  V30 2734 O 262.592 5.02108 -2.15753 0
M  V30 2735 H 259.686 0.773156 -0.293528 0
M  V30 2736 H 262.232 1.16164 -1.23709 0
M  V30 2737 H 261.004 2.91106 -2.61482 0
M  V30 2738 H 260.627 3.80558 -1.15157 0
M  V30 2739 N 261.624 0.925811 1.2754 0
M  V30 2740 C 262.872 0.564138 1.94067 0
M  V30 2741 C 263.193 -0.897188 1.73134 0
M  V30 2742 O 262.463 -1.63573 1.07799 0
M  V30 2743 H 261.043 0.205645 0.718136 0
M  V30 2744 H 263.705 1.1778 1.55287 0
M  V30 2745 H 262.801 0.76881 3.02483 0
M  V30 2746 N 263.102 -1.41638 0.69111 0
M  V30 2747 C 264.351 -2.00526 0.217318 0
M  V30 2748 C 264.664 -1.55353 -1.18848 0
M  V30 2749 O 265.87 -2.06769 -1.75951 0
M  V30 2750 C 264.326 -3.58313 0.337639 0
M  V30 2751 C 263.934 -4.12469 1.74852 0
M  V30 2752 C 265.678 -4.24431 -0.0766066 0
M  V30 2753 C 263.585 -5.62675 1.82074 0
M  V30 2754 H 262.515 -0.750008 0.0774893 0
M  V30 2755 H 265.166 -1.6217 0.858661 0
M  V30 2756 H 263.548 -3.9425 -0.371879 0
M  V30 2757 H 264.722 -3.8796 2.48644 0
M  V30 2758 H 263.037 -3.58861 2.11205 0
M  V30 2759 H 265.634 -5.34683 -0.0430284 0
M  V30 2760 H 265.977 -4.01101 -1.1146 0
M  V30 2761 H 266.51 -3.93512 0.582476 0
M  V30 2762 H 263.249 -5.90826 2.83911 0
M  V30 2763 H 262.769 -5.89124 1.12661 0
M  V30 2764 H 264.448 -6.27371 1.58159 0
M  V30 2765 N 264.58 -0.43555 -1.51462 0
M  V30 2766 C 265.827 0.131514 -2.02072 0
M  V30 2767 C 266.155 1.42868 -1.31981 0
M  V30 2768 O 265.41 1.91076 -0.422883 0
M  V30 2769 C 265.709 0.39942 -3.55161 0
M  V30 2770 C 265.375 -0.81172 -4.43533 0
M  V30 2771 C 264.037 -1.14387 -4.67407 0
M  V30 2772 C 266.389 -1.61976 -4.95392 0
M  V30 2773 C 263.717 -2.28477 -5.40384 0
M  V30 2774 C 266.069 -2.75164 -5.6962 0
M  V30 2775 C 264.733 -3.08835 -5.91758 0
M  V30 2776 H 264.003 0.0481244 -0.739436 0
M  V30 2777 H 266.65 -0.58238 -1.8243 0
M  V30 2778 H 264.955 1.19519 -3.73125 0
M  V30 2779 H 266.652 0.85157 -3.91854 0
M  V30 2780 H 263.242 -0.542898 -4.25148 0
M  V30 2781 H 267.426 -1.37637 -4.76833 0
M  V30 2782 H 262.682 -2.5488 -5.55739 0
M  V30 2783 H 266.856 -3.38147 -6.08793 0
M  V30 2784 H 264.483 -3.97353 -6.48086 0
M  V30 2785 N 266.058 1.56714 -0.166846 0
M  V30 2786 C 267.304 1.97039 0.479962 0
M  V30 2787 C 267.637 1.05264 1.63197 0
M  V30 2788 O 266.912 0.0988833 1.94248 0
M  V30 2789 C 267.195 3.46867 0.967212 0
M  V30 2790 C 267.048 4.49421 -0.18466 0
M  V30 2791 C 268.367 3.9968 1.84238 0
M  V30 2792 H 265.486 0.71641 0.172992 0
M  V30 2793 H 268.128 1.8832 -0.252079 0
M  V30 2794 H 266.278 3.54428 1.59101 0
M  V30 2795 H 267.95 4.53924 -0.821621 0
M  V30 2796 H 266.193 4.25573 -0.840837 0
M  V30 2797 H 266.864 5.51644 0.198317 0
M  V30 2798 H 269.34 3.94723 1.31655 0
M  V30 2799 H 268.216 5.04941 2.15234 0
M  V30 2800 H 268.477 3.43226 2.78654 0
M  V30 2801 N 267.536 -0.106894 1.57237 0
M  V30 2802 C 268.766 -0.825191 1.89405 0
M  V30 2803 C 269.174 -1.73374 0.757496 0
M  V30 2804 O 268.517 -1.81552 -0.280115 0
M  V30 2805 C 268.579 -1.70102 3.1671 0
M  V30 2806 C 268.243 -0.965523 4.46684 0
M  V30 2807 C 269.24 -0.300741 5.19029 0
M  V30 2808 C 266.925 -0.943105 4.93367 0
M  V30 2809 C 268.919 0.376622 6.36286 0
M  V30 2810 C 266.606 -0.261949 6.10538 0
M  V30 2811 C 267.604 0.396748 6.81847 0
M  V30 2812 O 267.292 1.06701 7.96787 0
M  V30 2813 H 267.024 -0.241852 0.631255 0
M  V30 2814 H 269.578 -0.0921491 2.05193 0
M  V30 2815 H 267.808 -2.47601 2.97036 0
M  V30 2816 H 269.497 -2.29483 3.34802 0
M  V30 2817 H 270.263 -0.309599 4.84011 0
M  V30 2818 H 266.142 -1.44524 4.3776 0
M  V30 2819 H 269.686 0.891334 6.91882 0
M  V30 2820 H 265.583 -0.250896 6.45012 0
M  V30 2821 H 266.351 0.972707 8.127 0
M  V30 2822 N 269.014 -1.53014 -0.377408 0
M  V30 2823 C 270.261 -1.68623 -1.12128 0
M  V30 2824 C 270.589 -0.431997 -1.89642 0
M  V30 2825 O 269.844 0.585855 -1.86725 0
M  V30 2826 C 270.143 -2.87982 -2.11663 0
M  V30 2827 C 269.809 -4.24964 -1.50719 0
M  V30 2828 C 268.471 -4.62217 -1.33825 0
M  V30 2829 C 270.823 -5.10199 -1.06519 0
M  V30 2830 C 268.151 -5.82352 -0.712963 0
M  V30 2831 C 270.503 -6.30969 -0.453955 0
M  V30 2832 C 269.167 -6.66944 -0.272411 0
M  V30 2833 H 268.437 -0.617034 -0.410305 0
M  V30 2834 H 271.084 -1.8718 -0.404484 0
M  V30 2835 H 269.389 -2.63889 -2.89603 0
M  V30 2836 H 271.086 -2.97253 -2.6915 0
M  V30 2837 H 267.676 -3.95626 -1.64858 0
M  V30 2838 H 271.86 -4.81978 -1.18368 0
M  V30 2839 H 267.116 -6.08824 -0.560611 0
M  V30 2840 H 271.29 -6.96324 -0.103217 0
M  V30 2841 H 268.917 -7.59898 0.214181 0
M  V30 2842 N 270.492 0.636531 -1.44174 0
M  V30 2843 C 271.903 1.21806 -1.41493 0
M  V30 2844 C 272.254 1.95785 -0.1275 0
M  V30 2845 O 271.379 2.02147 0.772376 0
M  V30 2846 C 271.974 2.21551 -2.56321 0
M  V30 2847 C 270.533 2.75143 -2.56853 0
M  V30 2848 C 269.68 1.50052 -2.33195 0
M  V30 2849 H 272.631 0.427531 -1.52833 0
M  V30 2850 H 272.652 3.0405 -2.28765 0
M  V30 2851 H 272.164 1.67679 -3.50008 0
M  V30 2852 H 270.265 3.33033 -1.67093 0
M  V30 2853 H 270.378 3.2155 -3.55165 0
M  V30 2854 H 268.742 1.77993 -1.82183 0
M  V30 2855 H 269.525 0.980903 -3.28988 0
M  V30 2856 N 271.97 1.30982 0.876444 0
M  V30 2857 C 273.247 1.10942 1.61094 0
M  V30 2858 C 273.627 -0.338223 2.08373 0
M  V30 2859 O 272.975 -1.33122 1.85717 0
M  V30 2860 C 273.185 2.11789 2.77392 0
M  V30 2861 C 274.533 2.43965 3.47514 0
M  V30 2862 O 275.557 2.10166 2.87591 0
M  V30 2863 O 274.416 3.01817 4.55597 0
M  V30 2864 H 271.51 0.42667 0.708436 0
M  V30 2865 H 274.056 1.42438 0.922474 0
M  V30 2866 H 272.828 3.09194 2.39823 0
M  V30 2867 H 272.451 1.81161 3.5393 0
M  V30 2868 N 273.449 -1.08991 1.13837 0
M  V30 2869 C 274.359 -2.19301 0.833333 0
M  V30 2870 C 275.375 -1.73026 -0.183847 0
M  V30 2871 O 276.551 -2.01395 -0.0138092 0
M  V30 2872 C 273.616 -3.45323 0.308651 0
M  V30 2873 C 272.677 -4.06255 1.38764 0
M  V30 2874 C 271.91 -5.26262 0.887896 0
M  V30 2875 O 272.133 -5.69747 -0.27287 0
M  V30 2876 O 271.067 -5.78435 1.66421 0
M  V30 2877 H 274.893 -2.47854 1.75506 0
M  V30 2878 H 272.478 -1.18012 0.916166 0
M  V30 2879 H 274.36 -4.21394 0.0216739 0
M  V30 2880 H 273.035 -3.18362 -0.585431 0
M  V30 2881 H 271.942 -3.318 1.72799 0
M  V30 2882 H 273.275 -4.37452 2.25602 0
M  V30 2883 N 274.927 -0.932562 -1.27047 0
M  V30 2884 C 275.859 -0.392734 -2.2581 0
M  V30 2885 C 276.872 0.479241 -1.55586 0
M  V30 2886 O 278.061 0.291078 -1.76111 0
M  V30 2887 C 275.161 0.455456 -3.35826 0
M  V30 2888 C 274.334 -0.398355 -4.35582 0
M  V30 2889 C 273.393 0.387985 -5.24768 0
M  V30 2890 O 272.419 -0.206003 -5.68827 0
M  V30 2891 N 273.621 1.68664 -5.55457 0
M  V30 2892 H 276.386 -1.24173 -2.72766 0
M  V30 2893 H 273.947 -0.800511 -1.40725 0
M  V30 2894 H 275.939 0.988692 -3.92437 0
M  V30 2895 H 274.509 1.20522 -2.88432 0
M  V30 2896 H 273.729 -1.11286 -3.78165 0
M  V30 2897 H 275.017 -0.981889 -4.99236 0
M  V30 2898 H 274.415 2.19147 -5.21528 0
M  V30 2899 H 272.972 2.1663 -6.14748 0
M  V30 2900 N 276.405 1.4127 -0.698611 0
M  V30 2901 C 277.651 2.01478 -0.231207 0
M  V30 2902 C 277.984 1.55215 1.16713 0
M  V30 2903 O 277.259 0.764672 1.78838 0
M  V30 2904 C 277.542 3.58912 -0.292281 0
M  V30 2905 C 277.395 4.15293 -1.72778 0
M  V30 2906 C 278.714 4.38736 0.346194 0
M  V30 2907 H 275.833 0.732025 -0.0854878 0
M  V30 2908 H 278.475 1.67977 -0.887906 0
M  V30 2909 H 276.625 3.87582 0.26686 0
M  V30 2910 H 278.297 3.97486 -2.341 0
M  V30 2911 H 276.54 3.7022 -2.26096 0
M  V30 2912 H 277.211 5.24452 -1.72202 0
M  V30 2913 H 279.687 4.15897 -0.130035 0
M  V30 2914 H 278.563 5.48221 0.272932 0
M  V30 2915 H 278.824 4.18425 1.42734 0
M  V30 2916 N 277.883 0.443576 1.51229 0
M  V30 2917 C 278.813 -0.355142 2.30783 0
M  V30 2918 C 279.794 -1.0154 1.36468 0
M  V30 2919 O 280.979 -1.01785 1.65389 0
M  V30 2920 C 278.109 -1.45312 3.15439 0
M  V30 2921 C 277.063 -0.916002 4.18083 0
M  V30 2922 C 276.389 -2.1102 4.91299 0
M  V30 2923 C 277.689 0.0538602 5.22272 0
M  V30 2924 H 279.383 0.308767 2.97804 0
M  V30 2925 H 276.929 0.149937 1.43217 0
M  V30 2926 H 278.882 -2.01914 3.69876 0
M  V30 2927 H 277.606 -2.14541 2.46252 0
M  V30 2928 H 276.265 -0.372145 3.64706 0
M  V30 2929 H 275.913 -2.78882 4.18609 0
M  V30 2930 H 275.613 -1.75717 5.60712 0
M  V30 2931 H 277.137 -2.68164 5.48562 0
M  V30 2932 H 278.551 -0.422069 5.71744 0
M  V30 2933 H 276.948 0.319776 5.99247 0
M  V30 2934 H 278.018 0.98858 4.74716 0
M  V30 2935 N 279.361 -1.56624 0.175154 0
M  V30 2936 C 280.591 -2.01082 -0.474283 0
M  V30 2937 C 280.999 -1.05447 -1.57091 0
M  V30 2938 O 280.342 -0.0480595 -1.83637 0
M  V30 2939 C 280.404 -3.41963 -1.10911 0
M  V30 2940 C 280.068 -4.56742 -0.153666 0
M  V30 2941 C 281.065 -5.16076 0.629448 0
M  V30 2942 C 278.75 -5.02277 -0.0483776 0
M  V30 2943 C 280.744 -6.19377 1.50501 0
M  V30 2944 C 278.431 -6.05427 0.830768 0
M  V30 2945 C 279.429 -6.63849 1.60605 0
M  V30 2946 O 279.117 -7.64998 2.47049 0
M  V30 2947 H 278.849 -0.664261 -0.125432 0
M  V30 2948 H 281.403 -2.03549 0.275163 0
M  V30 2949 H 279.633 -3.36422 -1.90676 0
M  V30 2950 H 281.322 -3.70352 -1.66114 0
M  V30 2951 H 282.088 -4.81776 0.558297 0
M  V30 2952 H 277.967 -4.56513 -0.641611 0
M  V30 2953 H 281.511 -6.64906 2.1106 0
M  V30 2954 H 277.408 -6.39151 0.903107 0
M  V30 2955 H 278.176 -7.82336 2.40607 0
M  V30 2956 N 280.839 0.0985539 -1.57292 0
M  V30 2957 C 282.087 0.801092 -1.85545 0
M  V30 2958 C 282.408 1.79438 -0.763353 0
M  V30 2959 O 281.678 1.94763 0.21073 0
M  V30 2960 H 280.258 0.29884 -0.684619 0
M  V30 2961 H 282.92 0.0810064 -1.94732 0
M  V30 2962 H 282.016 1.3338 -2.82163 0
M  V30 2963 N 282.317 1.53212 0.369288 0
M  V30 2964 C 283.265 1.80054 1.47253 0
M  V30 2965 C 284.259 0.669456 1.55611 0
M  V30 2966 O 285.465 0.852328 1.58541 0
M  V30 2967 H 281.84 0.570034 0.490475 0
M  V30 2968 H 283.811 2.72403 1.21817 0
M  V30 2969 C 282.56 2.00403 2.84137 0
M  V30 2970 H 281.883 2.86876 2.78464 0
M  V30 2971 H 283.323 2.23164 3.60519 0
M  V30 2972 C 281.782 0.782081 3.27697 0
M  V30 2973 O 282.312 -0.0310205 4.01688 0
M  V30 2974 N 280.518 0.606573 2.84199 0
M  V30 2975 H 280.065 1.26939 2.24152 0
M  V30 2976 H 280.023 -0.20962 3.137 0
M  V30 2977 N 283.795 -0.628877 1.44509 0
M  V30 2978 C 285.035 -1.39993 1.48934 0
M  V30 2979 C 285.399 -1.91627 0.119604 0
M  V30 2980 O 286.6 -2.68772 0.0385283 0
M  V30 2981 C 284.871 -2.53241 2.52198 0
M  V30 2982 S 286.43 -3.41383 2.75687 0
M  V30 2983 H 283.248 -0.477558 0.526744 0
M  V30 2984 H 285.85 -0.727804 1.81448 0
M  V30 2985 H 284.554 -2.13622 3.50419 0
M  V30 2986 H 284.085 -3.25278 2.21264 0
M  V30 2987 H 286.1 -4.50752 2.07453 0
M  V30 2988 N 285.273 -1.31445 -0.869486 0
M  V30 2989 C 286.522 -1.20517 -1.61736 0
M  V30 2990 C 286.835 0.235341 -1.94179 0
M  V30 2991 O 288.041 0.466312 -2.67465 0
M  V30 2992 C 286.497 -2.10982 -2.91573 0
M  V30 2993 C 286.105 -3.60032 -2.66611 0
M  V30 2994 C 287.849 -2.08856 -3.69567 0
M  V30 2995 C 285.756 -4.42503 -3.92358 0
M  V30 2996 H 284.686 -0.447493 -0.606849 0
M  V30 2997 H 287.337 -1.56303 -0.96133 0
M  V30 2998 H 285.719 -1.68095 -3.58553 0
M  V30 2999 H 286.893 -4.11167 -2.08035 0
M  V30 3000 H 285.208 -3.64139 -2.0197 0
M  V30 3001 H 287.805 -2.67716 -4.62852 0
M  V30 3002 H 288.148 -1.07582 -4.02159 0
M  V30 3003 H 288.681 -2.49945 -3.09471 0
M  V30 3004 H 285.42 -5.44533 -3.64916 0
M  V30 3005 H 284.94 -3.96125 -4.50383 0
M  V30 3006 H 286.619 -4.54741 -4.60238 0
M  V30 3007 N 286.751 1.08385 -1.14413 0
M  V30 3008 C 287.681 2.17321 -0.854044 0
M  V30 3009 C 288.662 1.69024 0.191049 0
M  V30 3010 O 289.847 1.94141 0.0476779 0
M  V30 3011 C 286.977 3.45719 -0.330983 0
M  V30 3012 C 285.931 4.07409 -1.31155 0
M  V30 3013 C 285.257 5.30762 -0.64778 0
M  V30 3014 C 286.557 4.48665 -2.67388 0
M  V30 3015 H 288.251 2.41845 -1.76498 0
M  V30 3016 H 285.797 1.16233 -0.850051 0
M  V30 3017 H 287.75 4.21241 -0.115645 0
M  V30 3018 H 286.474 3.2075 0.615381 0
M  V30 3019 H 285.133 3.33919 -1.51306 0
M  V30 3020 H 284.781 5.02078 0.304398 0
M  V30 3021 H 284.481 5.72992 -1.30207 0
M  V30 3022 H 286.005 6.08998 -0.441972 0
M  V30 3023 H 287.419 5.15364 -2.51143 0
M  V30 3024 H 285.816 5.01814 -3.29093 0
M  V30 3025 H 286.886 3.60543 -3.24248 0
M  V30 3026 N 288.23 0.939286 1.26551 0
M  V30 3027 C 289.177 0.446088 2.26448 0
M  V30 3028 C 290.147 -0.493234 1.58608 0
M  V30 3029 O 291.332 -0.409857 1.86346 0
M  V30 3030 C 288.472 -0.284375 3.43926 0
M  V30 3031 C 287.585 0.690399 4.26448 0
M  V30 3032 C 286.72 -0.0610712 5.31165 0
M  V30 3033 C 285.759 0.905649 6.05363 0
M  V30 3034 N 284.896 0.186055 7.01853 0
M  V30 3035 H 289.736 1.30291 2.68008 0
M  V30 3036 H 287.273 0.65371 1.31776 0
M  V30 3037 H 289.231 -0.724313 4.10864 0
M  V30 3038 H 287.861 -1.10535 3.03285 0
M  V30 3039 H 286.913 1.24885 3.59316 0
M  V30 3040 H 288.225 1.42873 4.779 0
M  V30 3041 H 287.379 -0.56038 6.04106 0
M  V30 3042 H 286.118 -0.832297 4.80546 0
M  V30 3043 H 285.123 1.4161 5.3125 0
M  V30 3044 H 286.348 1.67685 6.58072 0
M  V30 3045 H 284.294 -0.566714 6.53548 0
M  V30 3046 H 284.211 0.863752 7.51049 0
M  V30 3047 H 285.479 -0.292221 7.78952 0
M  V30 3048 N 289.708 -1.40897 0.706093 0
M  V30 3049 C 290.618 -2.3455 0.0482286 0
M  V30 3050 C 291.634 -1.56796 -0.754396 0
M  V30 3051 O 292.81 -1.89228 -0.689538 0
M  V30 3052 C 289.875 -3.35625 -0.869303 0
M  V30 3053 C 288.936 -4.29261 -0.0576994 0
M  V30 3054 C 288.169 -5.25508 -0.931531 0
M  V30 3055 O 288.392 -5.27472 -2.17092 0
M  V30 3056 O 287.326 -6.00727 -0.375587 0
M  V30 3057 H 291.152 -2.92407 0.820476 0
M  V30 3058 H 288.737 -1.4193 0.4665 0
M  V30 3059 H 290.619 -3.97635 -1.39514 0
M  V30 3060 H 289.294 -2.80196 -1.62086 0
M  V30 3061 H 288.201 -3.70566 0.512988 0
M  V30 3062 H 289.534 -4.87817 0.655426 0
M  V30 3063 N 291.186 -0.45159 -1.50991 0
M  V30 3064 C 292.133 0.352625 -2.2809 0
M  V30 3065 C 293.103 1.0044 -1.32291 0
M  V30 3066 O 294.288 1.02058 -1.6121 0
M  V30 3067 C 291.428 1.43983 -3.13629 0
M  V30 3068 C 290.541 0.804772 -4.24438 0
M  V30 3069 C 289.676 1.86822 -4.97263 0
M  V30 3070 C 288.715 1.21236 -5.99973 0
M  V30 3071 N 287.852 2.2178 -6.66152 0
M  V30 3072 H 292.692 -0.311186 -2.96371 0
M  V30 3073 H 290.229 -0.165308 -1.46168 0
M  V30 3074 H 292.187 2.08161 -3.61559 0
M  V30 3075 H 290.817 2.07307 -2.47434 0
M  V30 3076 H 289.869 0.0509129 -3.80366 0
M  V30 3077 H 291.181 0.286076 -4.97979 0
M  V30 3078 H 290.335 2.58628 -5.48813 0
M  V30 3079 H 289.074 2.42068 -4.23385 0
M  V30 3080 H 288.079 0.479828 -5.47702 0
M  V30 3081 H 289.304 0.667051 -6.75816 0
M  V30 3082 H 287.25 2.76079 -5.95077 0
M  V30 3083 H 287.167 1.74841 -7.35504 0
M  V30 3084 H 288.435 2.93026 -7.22327 0
M  V30 3085 N 292.664 1.56529 -0.183458 0
M  V30 3086 C 293.594 2.21549 0.737456 0
M  V30 3087 C 294.575 1.17489 1.23005 0
M  V30 3088 O 295.76 1.45959 1.281 0
M  V30 3089 C 292.89 2.86575 1.96194 0
M  V30 3090 C 291.844 3.96778 1.60473 0
M  V30 3091 C 291.17 4.48911 2.90487 0
M  V30 3092 C 292.47 5.15767 0.823497 0
M  V30 3093 H 294.164 2.98761 0.195453 0
M  V30 3094 H 291.71 1.43702 0.0925686 0
M  V30 3095 H 293.663 3.30739 2.61131 0
M  V30 3096 H 292.387 2.06749 2.52828 0
M  V30 3097 H 291.046 3.53286 0.978997 0
M  V30 3098 H 290.694 3.65862 3.45186 0
M  V30 3099 H 290.394 5.23265 2.67335 0
M  V30 3100 H 291.918 4.95771 3.56432 0
M  V30 3101 H 293.332 5.56549 1.37571 0
M  V30 3102 H 291.729 5.96114 0.690551 0
M  V30 3103 H 292.799 4.84574 -0.177782 0
M  V30 3104 N 294.142 -0.090211 1.57342 0
M  V30 3105 C 295.39 -0.791241 1.85967 0
M  V30 3106 C 295.711 -1.7903 0.772859 0
M  V30 3107 O 294.981 -1.94872 -0.200398 0
M  V30 3108 H 293.561 -0.295205 0.686195 0
M  V30 3109 H 296.223 -0.0706782 1.94772 0
M  V30 3110 H 295.319 -1.31882 2.82867 0
M  V30 3111 N 295.62 -1.53406 -0.361157 0
M  V30 3112 C 296.568 -1.80832 -1.46296 0
M  V30 3113 C 297.562 -0.677699 -1.55253 0
M  V30 3114 O 298.768 -0.860723 -1.58087 0
M  V30 3115 H 295.143 -0.572627 -0.487445 0
M  V30 3116 H 297.114 -2.73045 -1.20371 0
M  V30 3117 C 295.863 -2.01907 -2.8307 0
M  V30 3118 H 295.186 -2.88349 -2.76938 0
M  V30 3119 H 296.626 -2.25072 -3.59331 0
M  V30 3120 C 295.085 -0.799449 -3.27277 0
M  V30 3121 O 295.615 0.00971761 -4.01699 0
M  V30 3122 N 293.821 -0.621637 -2.83873 0
M  V30 3123 H 293.368 -1.28126 -2.23476 0
M  V30 3124 H 293.326 0.19298 -3.13807 0
M  V30 3125 N 297.098 0.621204 -1.44841 0
M  V30 3126 C 298.028 1.74366 -1.55303 0
M  V30 3127 C 299.009 1.65199 -0.405385 0
M  V30 3128 O 300.194 1.83807 -0.626787 0
M  V30 3129 C 297.324 3.12931 -1.50637 0
M  V30 3130 C 296.278 3.36896 -2.63979 0
M  V30 3131 C 295.604 4.75594 -2.44366 0
M  V30 3132 C 296.904 3.28483 -4.06074 0
M  V30 3133 H 298.598 1.65867 -2.49256 0
M  V30 3134 H 296.144 0.796558 -1.19962 0
M  V30 3135 H 298.097 3.9124 -1.56555 0
M  V30 3136 H 296.821 3.22237 -0.532057 0
M  V30 3137 H 295.48 2.60972 -2.57467 0
M  V30 3138 H 295.128 4.81616 -1.45105 0
M  V30 3139 H 294.828 4.92586 -3.20364 0
M  V30 3140 H 296.352 5.5612 -2.52117 0
M  V30 3141 H 297.766 3.96684 -4.13902 0
M  V30 3142 H 296.163 3.57008 -4.82354 0
M  V30 3143 H 297.233 2.26133 -4.28943 0
M  V30 3144 N 298.576 1.31904 0.862503 0
M  V30 3145 C 299.801 1.25135 1.65397 0
M  V30 3146 C 300.226 -0.179 1.87246 0
M  V30 3147 O 299.584 -1.1277 1.4196 0
M  V30 3148 C 299.632 2.00832 2.99498 0
M  V30 3149 O 298.736 1.35075 3.89652 0
M  V30 3150 H 298.077 0.431655 0.504549 0
M  V30 3151 H 300.607 1.74094 1.07483 0
M  V30 3152 H 300.617 2.10709 3.49379 0
M  V30 3153 H 299.292 3.04847 2.82916 0
M  V30 3154 H 297.869 1.33696 3.48109 0
M  V30 3155 N 300.054 -1.07777 1.14986 0
M  V30 3156 C 301.301 -1.8029 0.922056 0
M  V30 3157 C 301.629 -1.86531 -0.55105 0
M  V30 3158 O 300.884 -1.34189 -1.42449 0
M  V30 3159 C 301.183 -3.25495 1.47608 0
M  V30 3160 C 300.849 -3.39361 2.96893 0
M  V30 3161 C 299.511 -3.42852 3.37647 0
M  V30 3162 C 301.863 -3.42512 3.92854 0
M  V30 3163 C 299.191 -3.47094 4.73015 0
M  V30 3164 C 301.543 -3.4829 5.28088 0
M  V30 3165 C 300.207 -3.50058 5.68345 0
M  V30 3166 H 299.477 -0.659727 0.337404 0
M  V30 3167 H 302.124 -1.26854 1.43459 0
M  V30 3168 H 300.429 -3.81683 0.88463 0
M  V30 3169 H 302.126 -3.80168 1.27568 0
M  V30 3170 H 298.716 -3.37339 2.64387 0
M  V30 3171 H 302.9 -3.3904 3.62444 0
M  V30 3172 H 298.156 -3.46758 5.03556 0
M  V30 3173 H 302.33 -3.49675 6.02246 0
M  V30 3174 H 299.957 -3.53097 6.73221 0
M  V30 3175 N 301.532 -0.945985 -1.26051 0
M  V30 3176 C 302.495 -0.463897 -2.24456 0
M  V30 3177 C 303.495 0.427655 -1.55009 0
M  V30 3178 O 304.685 0.226157 -1.72726 0
M  V30 3179 C 301.817 0.330812 -3.39291 0
M  V30 3180 H 303.01 -1.33357 -2.68619 0
M  V30 3181 H 300.563 -0.728416 -1.38289 0
M  V30 3182 H 301.298 1.21852 -3.00537 0
M  V30 3183 H 301.083 -0.308679 -3.90883 0
M  V30 3184 H 302.573 0.657865 -4.12386 0
M  V30 3185 N 303.011 1.40521 -0.713556 0
M  V30 3186 C 304.288 1.94775 -0.17943 0
M  V30 3187 C 304.668 1.65184 1.31444 0
M  V30 3188 O 304.016 0.968429 2.06963 0
M  V30 3189 C 304.226 3.45543 -0.489986 0
M  V30 3190 C 305.574 4.22442 -0.427536 0
M  V30 3191 O 306.598 3.53644 -0.425929 0
M  V30 3192 O 305.457 5.4501 -0.403292 0
M  V30 3193 H 302.551 0.826606 -0.0255192 0
M  V30 3194 H 305.097 1.5014 -0.790949 0
M  V30 3195 H 303.869 3.60432 -1.5233 0
M  V30 3196 H 303.492 3.97311 0.151598 0
M  V30 3197 N 304.489 0.459591 1.5075 0
M  V30 3198 C 305.735 -0.0994966 2.02556 0
M  V30 3199 C 306.068 -1.40399 1.3417 0
M  V30 3200 O 305.343 -1.88892 0.463683 0
M  V30 3201 C 305.626 -0.295242 3.58888 0
M  V30 3202 C 305.479 1.02947 4.37861 0
M  V30 3203 C 306.798 -1.05502 4.27267 0
M  V30 3204 H 303.917 -0.034686 0.736183 0
M  V30 3205 H 306.559 0.602938 1.8018 0
M  V30 3206 H 304.709 -0.893563 3.78084 0
M  V30 3207 H 306.381 1.66348 4.30263 0
M  V30 3208 H 304.624 1.62885 4.02058 0
M  V30 3209 H 305.295 0.846281 5.45474 0
M  V30 3210 H 307.771 -0.547993 4.12476 0
M  V30 3211 H 306.647 -1.16077 5.36486 0
M  V30 3212 H 306.908 -2.08875 3.89645 0
M  V30 3213 N 305.967 -1.56429 0.191757 0
M  V30 3214 C 306.914 -2.18936 -0.730454 0
M  V30 3215 C 307.884 -1.13557 -1.21219 0
M  V30 3216 O 309.069 -1.41794 -1.27668 0
M  V30 3217 C 306.209 -2.85013 -1.9458 0
M  V30 3218 C 305.322 -4.04909 -1.50574 0
M  V30 3219 C 304.457 -4.58853 -2.67634 0
M  V30 3220 C 303.496 -5.71114 -2.20217 0
M  V30 3221 N 302.633 -6.19478 -3.30442 0
M  V30 3222 H 307.473 -2.97389 -0.190664 0
M  V30 3223 H 305.01 -1.46869 -0.0823694 0
M  V30 3224 H 306.968 -3.21492 -2.65893 0
M  V30 3225 H 305.598 -2.09129 -2.45896 0
M  V30 3226 H 304.65 -3.74115 -0.688605 0
M  V30 3227 H 305.962 -4.86113 -1.11784 0
M  V30 3228 H 305.116 -4.97619 -3.47074 0
M  V30 3229 H 303.855 -3.76749 -3.09696 0
M  V30 3230 H 302.86 -5.31879 -1.3923 0
M  V30 3231 H 304.085 -6.55033 -1.79189 0
M  V30 3232 H 302.031 -5.40297 -3.72041 0
M  V30 3233 H 301.948 -6.95725 -2.9581 0
M  V30 3234 H 303.216 -6.62898 -4.10106 0
M  V30 3235 N 307.445 0.0818655 -1.57387 0
M  V30 3236 C 308.408 1.08265 -2.02018 0
M  V30 3237 C 309.408 1.32183 -0.915664 0
M  V30 3238 O 310.598 1.28073 -1.18081 0
M  V30 3239 C 307.73 2.42871 -2.39221 0
M  V30 3240 H 308.923 0.698204 -2.91659 0
M  V30 3241 H 306.476 0.327303 -1.52835 0
M  V30 3242 H 307.211 2.86167 -1.52575 0
M  V30 3243 H 306.996 2.26855 -3.19811 0
M  V30 3244 H 308.486 3.14826 -2.74362 0
M  V30 3245 N 308.923 1.53595 0.353017 0
M  V30 3246 C 310.153 1.74058 1.11299 0
M  V30 3247 C 310.561 0.475205 1.83135 0
M  V30 3248 O 309.904 -0.562344 1.74881 0
M  V30 3249 C 309.966 2.85994 2.17825 0
M  V30 3250 C 309.63 4.25923 1.65647 0
M  V30 3251 C 310.627 5.07829 1.11383 0
M  V30 3252 C 308.312 4.72377 1.7078 0
M  V30 3253 C 310.306 6.34285 0.629439 0
M  V30 3254 C 307.993 5.98808 1.21953 0
M  V30 3255 C 308.991 6.79594 0.681265 0
M  V30 3256 O 308.679 8.03651 0.200248 0
M  V30 3257 H 308.411 0.585327 0.338183 0
M  V30 3258 H 310.965 2.01186 0.413927 0
M  V30 3259 H 309.195 2.54368 2.91262 0
M  V30 3260 H 310.884 2.94515 2.79313 0
M  V30 3261 H 311.65 4.73107 1.06746 0
M  V30 3262 H 307.529 4.0956 2.11617 0
M  V30 3263 H 311.073 6.97288 0.208636 0
M  V30 3264 H 306.97 6.33026 1.26287 0
M  V30 3265 H 307.738 8.1788 0.318416 0
M  V30 3266 N 310.401 -0.613514 1.45168 0
M  V30 3267 C 311.812 -1.19539 1.43413 0
M  V30 3268 C 312.163 -1.95558 0.158632 0
M  V30 3269 O 311.288 -2.0335 -0.740119 0
M  V30 3270 C 311.883 -2.17445 2.59813 0
M  V30 3271 C 310.442 -2.71022 2.61197 0
M  V30 3272 C 309.589 -1.46323 2.35552 0
M  V30 3273 H 312.54 -0.403163 1.53494 0
M  V30 3274 H 312.561 -3.00373 2.33574 0
M  V30 3275 H 312.073 -1.62089 3.52631 0
M  V30 3276 H 310.174 -3.30332 1.7237 0
M  V30 3277 H 310.287 -3.15859 3.60236 0
M  V30 3278 H 308.651 -1.75072 1.84992 0
M  V30 3279 H 309.434 -0.92844 3.30507 0
M  V30 3280 N 311.879 -1.3236 -0.855495 0
M  V30 3281 C 312.811 -1.17052 -1.97057 0
M  V30 3282 C 313.824 -0.10574 -1.62456 0
M  V30 3283 O 315.013 -0.354619 -1.74942 0
M  V30 3284 C 312.113 -0.769305 -3.30053 0
M  V30 3285 C 311.286 -1.9222 -3.929 0
M  V30 3286 C 310.345 -1.50466 -5.04228 0
M  V30 3287 O 309.371 -2.21655 -5.24269 0
M  V30 3288 N 310.573 -0.400209 -5.79119 0
M  V30 3289 H 313.338 -2.13103 -2.1073 0
M  V30 3290 H 310.899 -1.24885 -1.0303 0
M  V30 3291 H 312.891 -0.472407 -4.01933 0
M  V30 3292 H 311.461 0.100025 -3.1244 0
M  V30 3293 H 310.681 -2.38563 -3.13817 0
M  V30 3294 H 311.969 -2.69403 -4.31624 0
M  V30 3295 H 311.367 0.192319 -5.65373 0
M  V30 3296 H 309.924 -0.162912 -6.51596 0
M  V30 3297 N 313.357 1.07166 -1.15556 0
M  V30 3298 C 314.585 1.83514 -0.955519 0
M  V30 3299 C 315 1.82163 0.49621 0
M  V30 3300 O 314.357 1.23441 1.34419 0
M  V30 3301 C 314.408 3.30515 -1.46432 0
M  V30 3302 O 314.129 3.31937 -2.85918 0
M  V30 3303 C 315.63 4.23625 -1.30603 0
M  V30 3304 H 312.85 0.578926 -0.339244 0
M  V30 3305 H 315.394 1.35265 -1.53374 0
M  V30 3306 H 313.549 3.76106 -0.928584 0
M  V30 3307 H 313.963 4.23794 -3.09029 0
M  V30 3308 H 315.437 5.24831 -1.71047 0
M  V30 3309 H 315.914 4.38485 -0.250441 0
M  V30 3310 H 316.52 3.83871 -1.83094 0
M  V30 3311 N 314.835 0.952656 1.25548 0
M  V30 3312 C 315.765 0.489287 2.28316 0
M  V30 3313 C 316.746 -0.463359 1.63667 0
M  V30 3314 O 317.931 -0.36274 1.90782 0
M  V30 3315 C 315.061 -0.235603 3.465 0
M  V30 3316 C 314.015 0.631593 4.23314 0
M  V30 3317 C 313.341 -0.223923 5.34231 0
M  V30 3318 C 314.641 1.90871 4.86174 0
M  V30 3319 H 316.335 1.34822 2.67326 0
M  V30 3320 H 313.881 0.649728 1.28509 0
M  V30 3321 H 315.834 -0.570882 4.17515 0
M  V30 3322 H 314.558 -1.12877 3.06474 0
M  V30 3323 H 313.217 0.949929 3.54079 0
M  V30 3324 H 312.865 -1.11678 4.90446 0
M  V30 3325 H 312.565 0.35299 5.86539 0
M  V30 3326 H 314.089 -0.554214 6.0808 0
M  V30 3327 H 315.503 1.63997 5.49343 0
M  V30 3328 H 313.9 2.43112 5.4865 0
M  V30 3329 H 314.97 2.61304 4.08471 0
M  V30 3330 N 316.313 -1.40141 0.720998 0
M  V30 3331 C 317.223 -2.34486 0.0731031 0
M  V30 3332 C 318.239 -1.57587 -0.737723 0
M  V30 3333 O 319.415 -1.89949 -0.669429 0
M  V30 3334 C 316.48 -3.36528 -0.833656 0
M  V30 3335 C 315.541 -4.29298 -0.0121673 0
M  V30 3336 C 314.774 -5.26466 -0.875742 0
M  V30 3337 O 314.997 -5.29745 -2.11485 0
M  V30 3338 O 313.931 -6.01092 -0.31185 0
M  V30 3339 H 317.757 -2.9152 0.851444 0
M  V30 3340 H 315.342 -1.41427 0.481527 0
M  V30 3341 H 317.224 -3.99093 -1.35289 0
M  V30 3342 H 315.899 -2.81899 -1.59105 0
M  V30 3343 H 314.806 -3.70001 0.552262 0
M  V30 3344 H 316.139 -4.87094 0.707129 0
M  V30 3345 N 317.792 -0.46758 -1.50504 0
M  V30 3346 C 319.208 -0.121533 -1.59137 0
M  V30 3347 C 319.408 1.3717 -1.47603 0
M  V30 3348 O 318.464 2.14464 -1.33272 0
M  V30 3349 C 319.777 -0.6686 -2.93173 0
M  V30 3350 C 321.325 -0.631716 -3.06559 0
M  V30 3351 C 321.8 -1.15627 -4.43164 0
M  V30 3352 N 323.291 -1.11553 -4.49567 0
M  V30 3353 C 324.026 -1.49195 -5.5365 0
M  V30 3354 N 323.522 -1.94269 -6.65005 0
M  V30 3355 N 325.315 -1.4082 -5.44175 0
M  V30 3356 H 317.466 -1.4388 -1.56245 0
M  V30 3357 H 319.729 -0.594784 -0.738198 0
M  V30 3358 H 319.435 -1.71453 -3.07078 0
M  V30 3359 H 319.309 -0.11021 -3.77039 0
M  V30 3360 H 321.696 0.405297 -2.92304 0
M  V30 3361 H 321.777 -1.22687 -2.24458 0
M  V30 3362 H 321.421 -2.1919 -4.58168 0
M  V30 3363 H 321.351 -0.537365 -5.23851 0
M  V30 3364 H 323.842 -0.784895 -3.69659 0
M  V30 3365 H 324.155 -2.21148 -7.40482 0
M  V30 3366 H 322.5 -1.98219 -6.66134 0
M  V30 3367 H 325.691 -1.0545 -4.56068 0
M  V30 3368 H 325.864 -1.70481 -6.25172 0
M  V30 3369 N 319.27 1.56325 -0.20005 0
M  V30 3370 C 320.2 2.22318 0.713916 0
M  V30 3371 C 321.181 1.18788 1.21752 0
M  V30 3372 O 322.366 1.47309 1.26545 0
M  V30 3373 C 319.496 2.88639 1.93144 0
M  V30 3374 C 318.45 3.98457 1.56255 0
M  V30 3375 C 317.776 4.51967 2.85709 0
M  V30 3376 C 319.076 5.16612 0.768747 0
M  V30 3377 H 320.77 2.98952 0.163755 0
M  V30 3378 H 318.316 1.43792 0.0773219 0
M  V30 3379 H 320.269 3.33491 2.57608 0
M  V30 3380 H 318.993 2.09419 2.50621 0
M  V30 3381 H 317.652 3.54305 0.941471 0
M  V30 3382 H 317.3 3.69503 3.41287 0
M  V30 3383 H 317 5.26071 2.6177 0
M  V30 3384 H 318.524 4.99523 3.51154 0
M  V30 3385 H 319.938 5.57977 1.3166 0
M  V30 3386 H 318.335 5.96812 0.627286 0
M  V30 3387 H 319.405 4.84358 -0.229168 0
M  V30 3388 N 320.748 -0.0735177 1.57428 0
M  V30 3389 C 321.695 -1.08756 2.0357 0
M  V30 3390 C 322.665 -1.38559 0.916 0
M  V30 3391 O 323.85 -1.49656 1.18354 0
M  V30 3392 C 320.99 -2.39657 2.48311 0
M  V30 3393 C 320.103 -2.16399 3.73892 0
M  V30 3394 C 319.238 -3.40852 4.07423 0
M  V30 3395 C 318.277 -3.1295 5.2605 0
M  V30 3396 N 317.414 -4.29729 5.55228 0
M  V30 3397 H 322.254 -0.687104 2.8997 0
M  V30 3398 H 319.791 -0.327709 1.43403 0
M  V30 3399 H 321.749 -3.16081 2.72303 0
M  V30 3400 H 320.379 -2.77508 1.64891 0
M  V30 3401 H 319.431 -1.30676 3.57251 0
M  V30 3402 H 320.743 -1.91788 4.60455 0
M  V30 3403 H 319.897 -4.25671 4.32306 0
M  V30 3404 H 318.636 -3.68537 3.19425 0
M  V30 3405 H 317.641 -2.26526 5.00965 0
M  V30 3406 H 318.866 -2.86589 6.15665 0
M  V30 3407 H 316.812 -4.57448 4.70188 0
M  V30 3408 H 316.729 -4.08385 6.36206 0
M  V30 3409 H 317.997 -5.1555 5.84661 0
M  V30 3410 N 322.226 -1.5378 -0.344866 0
M  V30 3411 C 323.189 -1.80981 -1.40637 0
M  V30 3412 C 324.189 -0.680816 -1.45676 0
M  V30 3413 O 325.379 -0.949095 -1.46075 0
M  V30 3414 C 322.511 -1.95063 -2.79577 0
M  V30 3415 H 323.704 -2.75803 -1.17783 0
M  V30 3416 H 321.257 -1.45173 -0.579181 0
M  V30 3417 H 321.992 -1.02379 -3.07716 0
M  V30 3418 H 321.777 -2.77198 -2.77315 0
M  V30 3419 H 323.267 -2.17629 -3.56409 0
M  V30 3420 N 323.704 0.605807 -1.45491 0
M  V30 3421 C 324.637 1.73022 -1.48791 0
M  V30 3422 C 325.615 1.58917 -0.344112 0
M  V30 3423 O 326.799 1.80453 -0.544876 0
M  V30 3424 C 323.926 3.10865 -1.34463 0
M  V30 3425 C 322.972 3.43554 -2.5273 0
M  V30 3426 S 323.805 3.38196 -4.15191 0
M  V30 3427 C 324.961 4.78616 -4.03333 0
M  V30 3428 H 325.194 1.69961 -2.43928 0
M  V30 3429 H 322.727 0.782611 -1.33096 0
M  V30 3430 H 324.685 3.90398 -1.26884 0
M  V30 3431 H 323.346 3.1144 -0.40794 0
M  V30 3432 H 322.539 4.43924 -2.38637 0
M  V30 3433 H 322.141 2.71541 -2.5718 0
M  V30 3434 H 324.433 5.68463 -3.68587 0
M  V30 3435 H 325.376 4.97767 -5.03621 0
M  V30 3436 H 325.784 4.54381 -3.34959 0
M  V30 3437 N 325.182 1.32811 0.848464 0
M  V30 3438 C 326.129 1.22265 1.95755 0
M  V30 3439 C 327.099 0.103413 1.65778 0
M  V30 3440 O 328.284 0.280033 1.88734 0
M  V30 3441 C 325.424 0.958014 3.31536 0
M  V30 3442 C 324.537 2.16262 3.73971 0
M  V30 3443 C 323.672 1.83295 4.98575 0
M  V30 3444 C 322.711 3.00041 5.33518 0
M  V30 3445 N 321.848 2.67125 6.49299 0
M  V30 3446 H 326.688 2.17128 2.04107 0
M  V30 3447 H 324.225 1.07982 0.998913 0
M  V30 3448 H 326.183 0.785052 4.09747 0
M  V30 3449 H 324.813 0.046159 3.22767 0
M  V30 3450 H 323.865 2.44565 2.91362 0
M  V30 3451 H 325.177 3.03572 3.95785 0
M  V30 3452 H 324.331 1.62586 5.84509 0
M  V30 3453 H 323.07 0.932078 4.7871 0
M  V30 3454 H 322.075 3.21374 4.46093 0
M  V30 3455 H 323.3 3.90869 5.55336 0
M  V30 3456 H 321.246 1.79586 6.3094 0
M  V30 3457 H 321.163 3.47965 6.71161 0
M  V30 3458 H 322.431 2.49861 7.3837 0
M  V30 3459 N 326.66 -1.06551 1.16123 0
M  V30 3460 C 327.59 -2.15935 0.88851 0
M  V30 3461 C 328.571 -1.69306 -0.164135 0
M  V30 3462 O 329.756 -1.94193 -0.0167857 0
M  V30 3463 C 326.886 -3.45149 0.385942 0
M  V30 3464 C 325.84 -4.05271 1.3762 0
M  V30 3465 C 325.166 -5.29664 0.732137 0
M  V30 3466 C 326.466 -4.44355 2.74493 0
M  V30 3467 H 328.16 -2.39006 1.80323 0
M  V30 3468 H 325.706 -1.14866 0.868435 0
M  V30 3469 H 327.659 -4.21004 0.182647 0
M  V30 3470 H 326.383 -3.21689 -0.564274 0
M  V30 3471 H 325.042 -3.3147 1.56599 0
M  V30 3472 H 324.69 -5.02499 -0.224483 0
M  V30 3473 H 324.39 -5.70848 1.39307 0
M  V30 3474 H 325.914 -6.08218 0.538802 0
M  V30 3475 H 327.328 -5.11303 2.59311 0
M  V30 3476 H 325.725 -4.96515 3.37035 0
M  V30 3477 H 326.795 -3.55339 3.29943 0
M  V30 3478 N 328.138 -0.959301 -1.25041 0
M  V30 3479 C 329.549 -0.65667 -1.74771 0
M  V30 3480 C 329.9 0.827852 -1.77879 0
M  V30 3481 O 329.025 1.64783 -1.40269 0
M  V30 3482 C 329.62 -1.1853 -3.1739 0
M  V30 3483 C 328.179 -0.932734 -3.6466 0
M  V30 3484 C 327.326 -1.32558 -2.43564 0
M  V30 3485 H 330.277 -1.13558 -1.10862 0
M  V30 3486 H 330.298 -0.547582 -3.76539 0
M  V30 3487 H 329.81 -2.26576 -3.15095 0
M  V30 3488 H 327.911 0.13257 -3.72364 0
M  V30 3489 H 328.024 -1.57248 -4.52559 0
M  V30 3490 H 326.388 -0.743956 -2.43593 0
M  V30 3491 H 327.171 -2.41537 -2.43957 0
M  V30 3492 N 329.616 1.39756 -0.72842 0
M  V30 3493 C 330.865 1.99879 -0.270407 0
M  V30 3494 C 331.178 1.58449 1.14688 0
M  V30 3495 O 332.384 2.11362 1.70407 0
M  V30 3496 C 330.84 3.57292 -0.43252 0
M  V30 3497 C 330.448 4.07688 -1.85727 0
M  V30 3498 C 332.192 4.24485 -0.0359507 0
M  V30 3499 C 330.099 5.5765 -1.96928 0
M  V30 3500 H 329.029 0.747689 -0.0973472 0
M  V30 3501 H 331.68 1.59837 -0.901355 0
M  V30 3502 H 330.062 3.95097 0.267219 0
M  V30 3503 H 331.236 3.81231 -2.58843 0
M  V30 3504 H 329.551 3.53135 -2.20646 0
M  V30 3505 H 332.148 5.34609 -0.0987484 0
M  V30 3506 H 332.491 4.03915 1.00787 0
M  V30 3507 H 333.024 3.9183 -0.686604 0
M  V30 3508 H 329.763 5.8309 -2.99476 0
M  V30 3509 H 329.283 5.8593 -1.28241 0
M  V30 3510 H 330.962 6.22957 -1.74737 0
M  V30 3511 N 331.094 0.475555 1.50254 0
M  V30 3512 C 332.041 -0.316293 2.28622 0
M  V30 3513 C 333.011 -0.983227 1.33873 0
M  V30 3514 O 334.196 -0.994805 1.62814 0
M  V30 3515 C 331.336 -1.38975 3.1588 0
M  V30 3516 C 330.449 -0.737146 4.25664 0
M  V30 3517 C 329.584 -1.78887 5.00173 0
M  V30 3518 C 328.623 -1.11676 6.01826 0
M  V30 3519 N 327.76 -2.11154 6.69596 0
M  V30 3520 H 332.6 0.358297 2.95838 0
M  V30 3521 H 330.137 0.188541 1.45887 0
M  V30 3522 H 332.095 -2.02383 3.64825 0
M  V30 3523 H 330.725 -2.03344 2.50701 0
M  V30 3524 H 329.777 0.0096065 3.80399 0
M  V30 3525 H 331.089 -0.206816 4.98371 0
M  V30 3526 H 330.243 -2.49865 5.52859 0
M  V30 3527 H 328.982 -2.35302 4.27182 0
M  V30 3528 H 327.987 -0.392633 5.48396 0
M  V30 3529 H 329.212 -0.55945 6.76792 0
M  V30 3530 H 327.158 -2.66577 5.99394 0
M  V30 3531 H 327.075 -1.63118 7.38193 0
M  V30 3532 H 328.343 -2.81497 7.26897 0
M  V30 3533 N 332.573 -1.56217 0.208337 0
M  V30 3534 C 333.801 -2.02337 -0.43215 0
M  V30 3535 C 334.216 -1.08834 -1.54275 0
M  V30 3536 O 333.573 -0.0955462 -1.8225 0
M  V30 3537 C 333.624 -3.48072 -0.976138 0
M  V30 3538 O 333.345 -4.38007 0.0901621 0
M  V30 3539 C 334.846 -4.09773 -1.69119 0
M  V30 3540 H 332.066 -0.662385 -0.10718 0
M  V30 3541 H 334.61 -2.01966 0.320923 0
M  V30 3542 H 332.765 -3.49099 -1.67954 0
M  V30 3543 H 333.179 -5.23543 -0.316701 0
M  V30 3544 H 334.653 -5.13556 -2.02397 0
M  V30 3545 H 335.13 -3.53999 -2.59964 0
M  V30 3546 H 335.736 -4.12556 -1.03332 0
M  V30 3547 N 334.051 0.0651679 -1.57465 0
M  V30 3548 C 335.297 0.764193 -1.87851 0
M  V30 3549 C 335.63 1.76889 -0.801495 0
M  V30 3550 O 334.905 1.93594 0.187528 0
M  V30 3551 C 335.188 1.46625 -3.28897 0
M  V30 3552 C 335.041 0.477515 -4.47258 0
M  V30 3553 C 336.36 2.4095 -3.68281 0
M  V30 3554 H 333.479 0.276351 -0.683227 0
M  V30 3555 H 336.121 0.0272868 -1.8998 0
M  V30 3556 H 334.271 2.09438 -3.27212 0
M  V30 3557 H 335.943 -0.145922 -4.61069 0
M  V30 3558 H 334.186 -0.206576 -4.33308 0
M  V30 3559 H 334.857 1.0065 -5.42746 0
M  V30 3560 H 337.333 1.88209 -3.71102 0
M  V30 3561 H 336.209 2.87072 -4.67847 0
M  V30 3562 H 336.47 3.26049 -2.98571 0
M  V30 3563 N 335.529 1.53961 0.336706 0
M  V30 3564 C 336.778 1.70751 1.07363 0
M  V30 3565 C 337.091 0.481061 1.89592 0
M  V30 3566 O 338.297 0.530046 2.66276 0
M  V30 3567 C 336.753 3.01965 1.95818 0
M  V30 3568 C 336.361 4.31971 1.18764 0
M  V30 3569 C 338.105 3.28121 2.69327 0
M  V30 3570 C 336.012 5.54255 2.06289 0
M  V30 3571 H 334.942 0.636292 0.404535 0
M  V30 3572 H 337.593 1.80459 0.332681 0
M  V30 3573 H 335.975 2.86132 2.7376 0
M  V30 3574 H 337.149 4.5853 0.456849 0
M  V30 3575 H 335.464 4.12481 0.569946 0
M  V30 3576 H 338.061 4.16673 3.35094 0
M  V30 3577 H 338.404 2.45426 3.36261 0
M  V30 3578 H 338.937 3.44762 1.98454 0
M  V30 3579 H 335.676 6.39513 1.43885 0
M  V30 3580 H 335.196 5.31935 2.77138 0
M  V30 3581 H 336.875 5.90159 2.65182 0
M  V30 3582 N 337.007 -0.598083 1.45811 0
M  V30 3583 C 338.255 -1.35413 1.50026 0
M  V30 3584 C 338.576 -1.94444 0.147177 0
M  V30 3585 O 337.846 -1.77701 -0.824571 0
M  V30 3586 H 336.426 -0.502727 0.552517 0
M  V30 3587 H 339.088 -0.701606 1.81834 0
M  V30 3588 H 338.184 -2.16871 2.2444 0
M  V30 3589 N 338.485 -1.33259 -0.841409 0
M  V30 3590 C 339.733 -1.24326 -1.59334 0
M  V30 3591 C 340.054 0.191564 -1.94057 0
M  V30 3592 O 339.324 1.11967 -1.60749 0
M  V30 3593 H 337.904 -0.457174 -0.590763 0
M  V30 3594 H 340.566 -1.66947 -1.00571 0
M  V30 3595 H 339.662 -1.8352 -2.52442 0
M  V30 3596 N 339.963 1.05934 -1.16686 0
M  V30 3597 C 340.913 2.11764 -0.844978 0
M  V30 3598 C 341.897 1.59922 0.177178 0
M  V30 3599 O 343.089 1.76983 -0.0241768 0
M  V30 3600 C 340.218 3.41493 -0.351812 0
M  V30 3601 C 339.304 4.00152 -1.40496 0
M  V30 3602 N 339.695 4.32874 -2.61636 0
M  V30 3603 C 337.993 4.278 -1.26106 0
M  V30 3604 C 338.694 4.79552 -3.29249 0
M  V30 3605 N 337.67 4.79211 -2.56628 0
M  V30 3606 H 341.472 2.34916 -1.76612 0
M  V30 3607 H 338.986 1.23511 -1.05446 0
M  V30 3608 H 340.983 4.16773 -0.102796 0
M  V30 3609 H 339.643 3.19778 0.56322 0
M  V30 3610 H 340.654 4.23109 -2.98663 0
M  V30 3611 H 337.331 4.15511 -0.407081 0
M  V30 3612 H 338.721 5.14045 -4.32675 0
M  V30 3613 N 341.441 0.965919 1.2453 0
M  V30 3614 C 342.718 0.543777 1.87889 0
M  V30 3615 C 343.098 -0.97909 1.87021 0
M  V30 3616 O 342.446 -1.84969 1.3416 0
M  V30 3617 C 342.656 1.13327 3.30088 0
M  V30 3618 C 344.004 1.21707 4.06783 0
M  V30 3619 O 345.028 1.08566 3.39252 0
M  V30 3620 O 343.887 1.42456 5.27606 0
M  V30 3621 H 340.981 0.181054 0.806938 0
M  V30 3622 H 343.527 1.06007 1.32516 0
M  V30 3623 H 342.299 2.17612 3.25209 0
M  V30 3624 H 341.922 0.600911 3.93033 0
M  V30 3625 N 342.919 -1.39368 0.735821 0
M  V30 3626 C 344.144 -2.05319 0.293052 0
M  V30 3627 C 344.569 -1.55115 -1.064 0
M  V30 3628 O 343.927 -0.695261 -1.67439 0
M  V30 3629 C 343.975 -3.59305 0.305323 0
M  V30 3630 O 343.079 -4.06299 -0.706761 0
M  V30 3631 H 342.42 -0.650529 0.13307 0
M  V30 3632 H 344.95 -1.78386 1.00197 0
M  V30 3633 H 344.96 -4.07724 0.149997 0
M  V30 3634 H 343.635 -3.95207 1.29553 0
M  V30 3635 H 342.212 -3.69292 -0.517504 0
M  V30 3636 N 344.397 -0.483516 -1.5 0
M  V30 3637 C 345.808 -0.0314176 -1.86674 0
M  V30 3638 C 346.159 1.37728 -1.39733 0
M  V30 3639 O 345.284 2.02327 -0.767635 0
M  V30 3640 C 345.879 -0.0502376 -3.38763 0
M  V30 3641 C 344.438 0.346442 -3.74802 0
M  V30 3642 C 343.585 -0.430366 -2.7394 0
M  V30 3643 H 346.536 -0.697182 -1.42566 0
M  V30 3644 H 346.557 0.749116 -3.73053 0
M  V30 3645 H 346.069 -1.07563 -3.72897 0
M  V30 3646 H 344.17 1.37572 -3.46273 0
M  V30 3647 H 344.283 0.0391486 -4.79084 0
M  V30 3648 H 342.647 0.117557 -2.54429 0
M  V30 3649 H 343.43 -1.4555 -3.10918 0
M  V30 3650 N 345.875 1.56104 -0.216619 0
M  V30 3651 C 346.805 2.23063 0.690296 0
M  V30 3652 C 347.786 1.20072 1.20485 0
M  V30 3653 O 348.971 1.48643 1.24976 0
M  V30 3654 C 346.101 2.90672 1.90072 0
M  V30 3655 C 345.055 4.00092 1.5202 0
M  V30 3656 C 344.381 4.54972 2.80899 0
M  V30 3657 C 345.681 5.17398 0.71391 0
M  V30 3658 H 347.375 2.99109 0.132038 0
M  V30 3659 H 344.921 1.43866 0.0620664 0
M  V30 3660 H 346.874 3.36204 2.54057 0
M  V30 3661 H 345.598 2.12066 2.48386 0
M  V30 3662 H 344.257 3.55283 0.903839 0
M  V30 3663 H 343.905 3.73102 3.37348 0
M  V30 3664 H 343.605 5.28817 2.56176 0
M  V30 3665 H 345.129 5.0322 3.45836 0
M  V30 3666 H 346.543 5.59342 1.25735 0
M  V30 3667 H 344.94 5.97444 0.563951 0
M  V30 3668 H 346.01 4.84088 -0.280527 0
M  V30 3669 N 347.353 -0.0568162 1.57498 0
M  V30 3670 C 348.303 -1.07315 2.01166 0
M  V30 3671 C 349.287 -1.33632 0.896171 0
M  V30 3672 O 350.479 -1.33682 1.16009 0
M  V30 3673 C 347.608 -2.38257 2.47161 0
M  V30 3674 C 346.694 -2.1515 3.65474 0
M  V30 3675 N 347.085 -1.62014 4.7915 0
M  V30 3676 C 345.383 -2.45559 3.72313 0
M  V30 3677 C 346.084 -1.54069 5.60926 0
M  V30 3678 N 345.06 -2.00652 5.05213 0
M  V30 3679 H 348.862 -0.655878 2.86488 0
M  V30 3680 H 346.376 -0.263635 1.60246 0
M  V30 3681 H 348.373 -3.11845 2.76691 0
M  V30 3682 H 347.033 -2.80687 1.63232 0
M  V30 3683 H 348.044 -1.30667 5.01145 0
M  V30 3684 H 344.721 -2.91253 2.99129 0
M  V30 3685 H 346.111 -1.13712 6.62208 0
M  V30 3686 N 348.832 -1.54138 -0.328536 0
M  V30 3687 C 350.08 -1.71765 -1.06496 0
M  V30 3688 C 350.401 -0.49149 -1.88704 0
M  V30 3689 O 349.671 0.494539 -1.89555 0
M  V30 3690 H 348.251 -0.633295 -0.396164 0
M  V30 3691 H 350.913 -1.91429 -0.366176 0
M  V30 3692 H 350.009 -2.5951 -1.73381 0
M  V30 3693 N 350.31 0.590341 -1.46126 0
M  V30 3694 C 351.721 1.17243 -1.45296 0
M  V30 3695 C 352.072 1.95281 -0.189723 0
M  V30 3696 O 351.197 2.04502 0.707674 0
M  V30 3697 C 351.792 2.13284 -2.6324 0
M  V30 3698 C 350.351 2.66832 -2.65476 0
M  V30 3699 C 349.498 1.42557 -2.3785 0
M  V30 3700 H 352.449 0.378692 -1.54116 0
M  V30 3701 H 352.47 2.96619 -2.38323 0
M  V30 3702 H 351.982 1.56459 -3.55165 0
M  V30 3703 H 350.083 3.27548 -1.77603 0
M  V30 3704 H 350.196 3.10088 -3.65215 0
M  V30 3705 H 348.56 1.72107 -1.87753 0
M  V30 3706 H 349.343 0.875741 -3.31942 0
M  V30 3707 N 351.788 1.33704 0.83433 0
M  V30 3708 C 352.698 1.26382 1.97648 0
M  V30 3709 C 353.714 0.173548 1.73132 0
M  V30 3710 O 354.89 0.397962 1.97429 0
M  V30 3711 C 351.955 1.00769 3.31733 0
M  V30 3712 C 351.016 2.1884 3.69334 0
M  V30 3713 C 350.249 1.9444 4.9702 0
M  V30 3714 O 350.472 0.896961 5.63303 0
M  V30 3715 O 349.406 2.81093 5.32231 0
M  V30 3716 H 353.232 2.22444 2.06767 0
M  V30 3717 H 350.817 1.13795 0.968037 0
M  V30 3718 H 352.699 0.882186 4.12062 0
M  V30 3719 H 351.374 0.0773783 3.23608 0
M  V30 3720 H 350.281 2.36946 2.89495 0
M  V30 3721 H 351.614 3.10221 3.82131 0
M  V30 3722 N 353.266 -1.05314 1.17247 0
M  V30 3723 C 354.196 -2.1498 0.911362 0
M  V30 3724 C 355.177 -1.69471 -0.146169 0
M  V30 3725 O 356.362 -1.942 0.003812 0
M  V30 3726 C 353.492 -3.4472 0.422528 0
M  V30 3727 C 352.446 -4.03789 1.4191 0
M  V30 3728 C 351.772 -5.28858 0.788274 0
M  V30 3729 C 353.072 -4.41418 2.7919 0
M  V30 3730 H 354.766 -2.3708 1.82848 0
M  V30 3731 H 352.312 -1.13938 0.880569 0
M  V30 3732 H 354.265 -4.20787 0.227289 0
M  V30 3733 H 352.989 -3.22269 -0.530123 0
M  V30 3734 H 351.648 -3.2979 1.60106 0
M  V30 3735 H 351.296 -5.02709 -0.171173 0
M  V30 3736 H 350.996 -5.69338 1.45353 0
M  V30 3737 H 352.52 -6.07612 0.603282 0
M  V30 3738 H 353.934 -5.08524 2.64719 0
M  V30 3739 H 352.331 -4.92913 3.42282 0
M  V30 3740 H 353.401 -3.51819 3.33693 0
M  V30 3741 N 354.744 -0.972509 -1.24016 0
M  V30 3742 C 355.993 -0.632603 -1.91523 0
M  V30 3743 C 356.306 0.836641 -1.76804 0
M  V30 3744 O 357.512 1.28728 -2.39043 0
M  V30 3745 C 355.968 -1.08082 -3.43287 0
M  V30 3746 C 355.576 -2.57386 -3.66683 0
M  V30 3747 C 357.32 -0.814288 -4.16617 0
M  V30 3748 C 355.227 -2.95915 -5.12043 0
M  V30 3749 H 354.157 -0.232898 -0.717129 0
M  V30 3750 H 356.808 -1.17936 -1.40582 0
M  V30 3751 H 355.19 -0.462339 -3.93292 0
M  V30 3752 H 356.364 -3.24405 -3.27258 0
M  V30 3753 H 354.679 -2.81701 -3.06649 0
M  V30 3754 H 357.276 -1.0781 -5.23718 0
M  V30 3755 H 357.619 0.24955 -4.15551 0
M  V30 3756 H 358.152 -1.39397 -3.72577 0
M  V30 3757 H 354.891 -4.0139 -5.18234 0
M  V30 3758 H 354.411 -2.33584 -5.52448 0
M  V30 3759 H 356.09 -2.86086 -5.80314 0
M  V30 3760 N 356.222 1.38976 -0.743202 0
M  V30 3761 C 357.499 1.94351 -0.220705 0
M  V30 3762 C 357.879 1.67935 1.2791 0
M  V30 3763 O 357.227 1.01211 2.04862 0
M  V30 3764 C 357.437 3.44426 -0.563171 0
M  V30 3765 C 358.785 4.2144 -0.517046 0
M  V30 3766 O 359.809 3.52661 -0.500846 0
M  V30 3767 O 358.668 5.44032 -0.518806 0
M  V30 3768 H 355.762 0.825879 -0.043047 0
M  V30 3769 H 358.308 1.48429 -0.822618 0
M  V30 3770 H 357.08 3.5712 -1.59941 0
M  V30 3771 H 356.703 3.97543 0.0672883 0
M  V30 3772 N 357.7 0.491464 1.49741 0
M  V30 3773 C 358.65 -0.311086 2.25868 0
M  V30 3774 C 359.634 -0.943857 1.30308 0
M  V30 3775 O 360.826 -0.853035 1.55088 0
M  V30 3776 C 357.955 -1.38059 3.14316 0
M  V30 3777 C 357.041 -0.754541 4.17334 0
M  V30 3778 N 357.432 0.137216 5.05614 0
M  V30 3779 C 355.73 -1.01621 4.34269 0
M  V30 3780 C 356.431 0.494614 5.79593 0
M  V30 3781 N 355.407 -0.135169 5.43432 0
M  V30 3782 H 359.209 0.37555 2.91491 0
M  V30 3783 H 356.723 0.306917 1.59473 0
M  V30 3784 H 358.72 -1.96891 3.67477 0
M  V30 3785 H 357.38 -2.06901 2.50244 0
M  V30 3786 H 358.391 0.50741 5.15408 0
M  V30 3787 H 355.068 -1.69808 3.81407 0
M  V30 3788 H 356.458 1.2236 6.60665 0
M  V30 3789 N 359.178 -1.55987 0.224894 0
M  V30 3790 C 360.408 -2.02489 -0.41007 0
M  V30 3791 C 360.816 -1.10391 -1.53657 0
M  V30 3792 O 360.159 -0.106458 -1.83391 0
M  V30 3793 C 360.221 -3.45319 -0.999757 0
M  V30 3794 C 359.885 -4.56999 -0.00827976 0
M  V30 3795 C 360.882 -5.13812 0.793314 0
M  V30 3796 C 358.567 -5.02176 0.111442 0
M  V30 3797 C 360.561 -6.14276 1.7013 0
M  V30 3798 C 358.248 -6.02477 1.02296 0
M  V30 3799 C 359.246 -6.58403 1.81643 0
M  V30 3800 O 358.934 -7.56751 2.71262 0
M  V30 3801 H 358.666 -0.667915 -0.104235 0
M  V30 3802 H 361.22 -2.0257 0.339782 0
M  V30 3803 H 359.45 -3.42318 -1.79876 0
M  V30 3804 H 361.139 -3.7545 -1.54248 0
M  V30 3805 H 361.905 -4.79756 0.711288 0
M  V30 3806 H 357.784 -4.58323 -0.49605 0
M  V30 3807 H 361.328 -6.57854 2.32107 0
M  V30 3808 H 357.225 -6.35954 1.10599 0
M  V30 3809 H 357.993 -7.74286 2.65375 0
M  V30 3810 N 360.656 0.0484629 -1.57525 0
M  V30 3811 C 361.566 1.07241 -2.08654 0
M  V30 3812 C 362.582 1.409 -1.02095 0
M  V30 3813 O 363.758 1.50609 -1.33712 0
M  V30 3814 C 360.823 2.36008 -2.5397 0
M  V30 3815 C 359.884 2.09108 -3.7493 0
M  V30 3816 C 359.117 3.31736 -4.18075 0
M  V30 3817 O 359.34 4.41714 -3.60895 0
M  V30 3818 O 358.274 3.18576 -5.10679 0
M  V30 3819 H 362.1 0.667965 -2.96263 0
M  V30 3820 H 359.685 0.26417 -1.47046 0
M  V30 3821 H 361.567 3.11747 -2.83535 0
M  V30 3822 H 360.242 2.75786 -1.69481 0
M  V30 3823 H 359.149 1.31 -3.50414 0
M  V30 3824 H 360.482 1.74198 -4.60343 0
M  V30 3825 N 362.134 1.5431 0.320358 0
M  V30 3826 C 363.097 1.83195 1.3774 0
M  V30 3827 C 364.097 0.703906 1.44575 0
M  V30 3828 O 365.287 0.972214 1.44546 0
M  V30 3829 C 362.419 1.99487 2.76438 0
M  V30 3830 H 363.612 2.77642 1.1338 0
M  V30 3831 H 361.165 1.46076 0.556012 0
M  V30 3832 H 361.9 1.07262 3.06048 0
M  V30 3833 H 361.685 2.81575 2.7287 0
M  V30 3834 H 363.175 2.23271 3.52902 0
M  V30 3835 N 363.613 -0.582584 1.46437 0
M  V30 3836 C 364.543 -1.70187 1.59871 0
M  V30 3837 C 365.524 -1.64066 0.449042 0
M  V30 3838 O 366.709 -1.82081 0.6753 0
M  V30 3839 C 363.839 -3.08827 1.58881 0
M  V30 3840 C 362.793 -3.29779 2.72819 0
M  V30 3841 C 362.119 -4.68947 2.5689 0
M  V30 3842 C 363.419 -3.17601 4.1464 0
M  V30 3843 H 365.113 -1.592 2.53566 0
M  V30 3844 H 362.659 -0.764472 1.22032 0
M  V30 3845 H 364.612 -3.86951 1.66873 0
M  V30 3846 H 363.336 -3.20713 0.617306 0
M  V30 3847 H 361.995 -2.54054 2.64296 0
M  V30 3848 H 361.643 -4.77599 1.57823 0
M  V30 3849 H 361.343 -4.83919 3.33312 0
M  V30 3850 H 362.867 -5.4924 2.66773 0
M  V30 3851 H 364.281 -3.8557 4.24274 0
M  V30 3852 H 362.678 -3.44094 4.9165 0
M  V30 3853 H 363.748 -2.14681 4.34788 0
M  V30 3854 N 365.091 -1.34144 -0.827227 0
M  V30 3855 C 366.34 -1.25602 -1.5782 0
M  V30 3856 C 366.653 0.173445 -1.94829 0
M  V30 3857 O 367.859 0.380984 -2.68814 0
M  V30 3858 C 366.315 -2.20151 -2.84713 0
M  V30 3859 C 365.923 -3.68331 -2.55021 0
M  V30 3860 C 367.667 -2.20508 -3.62735 0
M  V30 3861 C 365.574 -4.54762 -3.78082 0
M  V30 3862 H 364.504 -0.466573 -0.592306 0
M  V30 3863 H 367.155 -1.59283 -0.911116 0
M  V30 3864 H 365.537 -1.79417 -3.53023 0
M  V30 3865 H 366.711 -4.17577 -1.94849 0
M  V30 3866 H 365.026 -3.7038 -1.90283 0
M  V30 3867 H 367.623 -2.82306 -4.54101 0
M  V30 3868 H 367.966 -1.20322 -3.98533 0
M  V30 3869 H 368.499 -2.59664 -3.01362 0
M  V30 3870 H 365.238 -5.55867 -3.47407 0
M  V30 3871 H 364.758 -4.10254 -4.37552 0
M  V30 3872 H 366.437 -4.69153 -4.45538 0
M  V30 3873 N 366.569 1.04691 -1.17803 0
M  V30 3874 C 367.516 2.12557 -0.899343 0
M  V30 3875 C 368.486 1.65339 0.158771 0
M  V30 3876 O 369.671 1.90789 0.0204797 0
M  V30 3877 C 366.811 3.42481 -0.424315 0
M  V30 3878 C 365.924 4.03346 -1.54713 0
M  V30 3879 C 365.059 5.21208 -1.02546 0
M  V30 3880 C 364.098 5.74089 -2.12339 0
M  V30 3881 N 363.235 6.83247 -1.61612 0
M  V30 3882 H 368.075 2.35734 -1.823 0
M  V30 3883 H 365.612 1.1564 -0.909159 0
M  V30 3884 H 367.57 4.16996 -0.130421 0
M  V30 3885 H 366.2 3.19471 0.462377 0
M  V30 3886 H 365.252 3.2622 -1.95664 0
M  V30 3887 H 366.564 4.38628 -2.37501 0
M  V30 3888 H 365.718 6.02812 -0.685718 0
M  V30 3889 H 364.457 4.87414 -0.167084 0
M  V30 3890 H 363.462 4.91111 -2.47165 0
M  V30 3891 H 364.687 6.0993 -2.98601 0
M  V30 3892 H 362.633 6.5134 -0.780533 0
M  V30 3893 H 362.55 7.17559 -2.38003 0
M  V30 3894 H 363.818 7.68491 -1.30545 0
M  V30 3895 N 368.047 0.979072 1.23499 0
M  V30 3896 C 369.01 0.523244 2.23147 0
M  V30 3897 C 370.01 -0.386406 1.56088 0
M  V30 3898 O 371.2 -0.180283 1.73265 0
M  V30 3899 C 368.332 -0.240739 3.40049 0
M  V30 3900 H 369.525 1.40432 2.64989 0
M  V30 3901 H 367.078 0.764824 1.36309 0
M  V30 3902 H 367.813 -1.13841 3.03662 0
M  V30 3903 H 367.598 0.412207 3.89927 0
M  V30 3904 H 369.088 -0.548297 4.13985 0
M  V30 3905 N 369.525 -1.3858 0.750561 0
M  V30 3906 C 370.488 -2.28836 0.129152 0
M  V30 3907 C 371.488 -1.47045 -0.650714 0
M  V30 3908 O 372.678 -1.6753 -0.477428 0
M  V30 3909 C 369.81 -3.30751 -0.825622 0
M  V30 3910 H 371.003 -2.85294 0.924516 0
M  V30 3911 H 368.556 -1.47489 0.517376 0
M  V30 3912 H 369.291 -2.79378 -1.64677 0
M  V30 3913 H 369.076 -3.91177 -0.268852 0
M  V30 3914 H 370.566 -3.98249 -1.2565 0
M  V30 3915 N 371.003 -0.499398 -1.49478 0
M  V30 3916 C 372.414 -0.051215 -1.8663 0
M  V30 3917 C 372.765 1.36238 -1.41186 0
M  V30 3918 O 371.89 2.01502 -0.789051 0
M  V30 3919 C 372.485 -0.0861651 -3.3869 0
M  V30 3920 C 371.044 0.30667 -3.75149 0
M  V30 3921 C 370.191 -0.459397 -2.73468 0
M  V30 3922 H 373.142 -0.712264 -1.41818 0
M  V30 3923 H 373.163 0.709507 -3.73826 0
M  V30 3924 H 372.675 -1.11512 -3.71735 0
M  V30 3925 H 370.776 1.33892 -3.47712 0
M  V30 3926 H 370.889 -0.0116669 -4.79099 0
M  V30 3927 H 369.253 0.0905645 -2.54539 0
M  V30 3928 H 370.036 -1.4884 -3.09357 0
M  V30 3929 N 372.481 1.55866 -0.233164 0
M  V30 3930 C 373.413 2.18099 0.704668 0
M  V30 3931 C 374.426 1.15334 1.14899 0
M  V30 3932 O 375.615 1.42262 1.07814 0
M  V30 3933 C 372.715 2.7592 1.96777 0
M  V30 3934 C 371.888 4.03969 1.67713 0
M  V30 3935 C 370.947 4.46242 2.78845 0
M  V30 3936 O 369.973 5.12903 2.46818 0
M  V30 3937 N 371.175 4.12886 4.08051 0
M  V30 3938 H 373.94 2.99205 0.172258 0
M  V30 3939 H 371.501 1.61815 -0.0525945 0
M  V30 3940 H 373.493 3.01165 2.70337 0
M  V30 3941 H 372.063 1.99051 2.41034 0
M  V30 3942 H 371.283 3.86459 0.777391 0
M  V30 3943 H 372.571 4.8748 1.4574 0
M  V30 3944 H 371.969 3.59342 4.3691 0
M  V30 3945 H 370.526 4.42997 4.78118 0
M  V30 3946 N 373.959 -0.0401083 1.57549 0
M  V30 3947 C 375.184 -0.748931 1.93406 0
M  V30 3948 C 375.609 -1.68686 0.832274 0
M  V30 3949 O 374.967 -1.80047 -0.212818 0
M  V30 3950 C 375.015 -1.4916 3.28304 0
M  V30 3951 O 374.119 -2.6042 3.19774 0
M  V30 3952 H 373.46 -0.202212 0.63246 0
M  V30 3953 H 375.99 0.00112086 2.046 0
M  V30 3954 H 376 -1.86395 3.62934 0
M  V30 3955 H 374.675 -0.80364 4.08062 0
M  V30 3956 H 373.252 -2.25808 2.96758 0
M  V30 3957 O 375.476 -1.60458 -0.183159 0
M  V30 3958 H 376.167 -1.75443 -0.820934 0
M  V30 END ATOM
M  V30 BEGIN BOND
M  V30 END BOND
M  V30 END CTAB
M  END
$$$$
