drugbank_target|Q9NYQ3 Hydroxyacid oxidase 2 (DB03247)
 OpenBabel12092120553D

  0  0  0     0  0            999 V3000
M  V30 BEGIN CTAB
M  V30 COUNTS 5507 5553 0 0 0
M  V30 BEGIN ATOM
M  V30 1 H -0.908 1.98254 -0.117106 0
M  V30 2 N 0 1.576 0 0
M  V30 3 C 0.933 2.03868 1.02534 0
M  V30 4 C 1.911 0.928543 1.3348 0
M  V30 5 O 3.095 1.19667 1.45644 0
M  V30 6 C 0.222 2.43627 2.35294 0
M  V30 7 C -0.732 3.65373 2.2001 0
M  V30 8 S 0.101 5.13292 1.52614 0
M  V30 9 C 1.257 5.56322 2.86805 0
M  V30 10 H 1.49 2.90518 0.631377 0
M  V30 11 H -0.977 1.52953 0.210867 0
M  V30 12 H 0.981 2.67203 3.11629 0
M  V30 13 H -0.358 1.57376 2.7183 0
M  V30 14 H -1.165 3.90944 3.18086 0
M  V30 15 H -1.563 3.418 1.51819 0
M  V30 16 H 0.729 5.58782 3.83104 0
M  V30 17 H 1.672 6.56266 2.65933 0
M  V30 18 H 2.08 4.83886 2.90714 0
M  V30 19 N 1.4781 -0.272755 1.55222 0
M  V30 20 C 2.7031 -1.02683 1.80197 0
M  V30 21 C 3.1281 -1.79142 0.573551 0
M  V30 22 O 2.4861 -1.74917 -0.476849 0
M  V30 23 C 2.5341 -1.9609 3.02624 0
M  V30 24 O 1.6381 -3.04863 2.77727 0
M  V30 25 H 0.9791 -0.293557 0.595584 0
M  V30 26 H 3.5091 -0.30159 2.02365 0
M  V30 27 H 3.5191 -2.38039 3.31363 0
M  V30 28 H 2.1941 -1.39851 3.91682 0
M  V30 29 H 0.7711 -2.67228 2.60084 0
M  V30 30 N 2.9562 -1.48159 -0.537278 0
M  V30 31 C 3.8862 -1.65029 -1.6519 0
M  V30 32 C 4.8672 -0.499281 -1.62607 0
M  V30 33 O 6.0522 -0.730972 -1.79918 0
M  V30 34 C 3.1822 -1.68303 -3.03795 0
M  V30 35 C 2.1362 -2.8283 -3.21234 0
M  V30 36 C 1.4622 -2.71189 -4.60826 0
M  V30 37 C 2.7622 -4.24211 -3.04701 0
M  V30 38 H 4.4562 -2.58341 -1.51328 0
M  V30 39 H 2.0022 -1.24325 -0.726585 0
M  V30 40 H 3.9552 -1.78693 -3.81637 0
M  V30 41 H 2.6792 -0.715635 -3.18663 0
M  V30 42 H 1.3382 -2.71983 -2.45807 0
M  V30 43 H 0.9862 -1.72435 -4.7252 0
M  V30 44 H 0.6862 -3.48035 -4.7344 0
M  V30 45 H 2.2102 -2.83537 -5.40777 0
M  V30 46 H 3.6242 -4.3593 -3.72341 0
M  V30 47 H 2.0212 -5.01998 -3.28813 0
M  V30 48 H 3.0912 -4.41184 -2.01209 0
M  V30 49 N 4.4343 0.785586 -1.36625 0
M  V30 50 C 5.6803 1.54591 -1.31261 0
M  V30 51 C 6.0133 1.93906 0.106823 0
M  V30 52 O 5.2883 1.63007 1.06108 0
M  V30 53 C 5.5713 2.82038 -2.23889 0
M  V30 54 C 5.4243 2.49066 -3.74548 0
M  V30 55 C 6.7433 3.83887 -2.15217 0
M  V30 56 H 3.8623 0.560846 -0.478143 0
M  V30 57 H 6.5043 0.902278 -1.67209 0
M  V30 58 H 4.6543 3.36961 -1.93363 0
M  V30 59 H 6.3263 2.00164 -4.15611 0
M  V30 60 H 4.5693 1.81954 -3.93796 0
M  V30 61 H 5.2403 3.40109 -4.34776 0
M  V30 62 H 7.7163 3.38421 -2.42096 0
M  V30 63 H 6.5923 4.70806 -2.82193 0
M  V30 64 H 6.8533 4.27131 -1.14068 0
M  V30 65 N 5.9124 1.20967 1.01018 0
M  V30 66 C 7.1524 1.03511 1.76252 0
M  V30 67 C 7.5164 -0.42458 1.87247 0
M  V30 68 O 8.7174 -0.719508 2.58991 0
M  V30 69 C 6.9884 1.70726 3.13986 0
M  V30 70 S 8.5474 1.68458 4.05176 0
M  V30 71 H 5.3654 0.371037 0.606508 0
M  V30 72 H 7.9674 1.53628 1.20908 0
M  V30 73 H 6.6714 2.76128 3.03614 0
M  V30 74 H 6.2024 1.20767 3.74405 0
M  V30 75 H 8.2174 0.721987 4.90919 0
M  V30 76 N 7.3905 -1.2043 1.01659 0
M  V30 77 C 8.3205 -2.25466 0.607226 0
M  V30 78 C 9.3015 -1.65853 -0.377716 0
M  V30 79 O 10.4865 -1.92409 -0.263149 0
M  V30 80 C 7.6165 -3.47256 -0.0552949 0
M  V30 81 C 6.5705 -4.19462 0.850632 0
M  V30 82 C 5.8965 -5.34673 0.0538859 0
M  V30 83 C 7.1965 -4.75603 2.15868 0
M  V30 84 H 8.8905 -2.59962 1.48526 0
M  V30 85 H 6.4365 -1.2496 0.715605 0
M  V30 86 H 8.3895 -4.19917 -0.353233 0
M  V30 87 H 7.1135 -3.11924 -0.968045 0
M  V30 88 H 5.7725 -3.48667 1.13257 0
M  V30 89 H 5.4205 -4.95585 -0.860514 0
M  V30 90 H 5.1205 -5.83913 0.657192 0
M  V30 91 H 6.6445 -6.10138 -0.237598 0
M  V30 92 H 8.0585 -5.40083 1.92311 0
M  V30 93 H 6.4555 -5.3528 2.71284 0
M  V30 94 H 7.5255 -3.94346 2.82169 0
M  V30 95 N 8.8686 -0.792821 -1.36206 0
M  V30 96 C 10.0966 -0.378825 -2.03402 0
M  V30 97 C 10.5116 1.00586 -1.59774 0
M  V30 98 O 9.8686 1.64574 -0.788764 0
M  V30 99 C 9.9196 -0.43683 -3.58851 0
M  V30 100 O 9.6406 -1.76691 -4.00889 0
M  V30 101 C 11.1416 -0.0138943 -4.43298 0
M  V30 102 H 8.3616 -0.155673 -0.652692 0
M  V30 103 H 10.9056 -1.07261 -1.74113 0
M  V30 104 H 9.0606 0.208575 -3.86838 0
M  V30 105 H 9.4746 -1.72011 -4.95492 0
M  V30 106 H 10.9486 -0.105615 -5.51899 0
M  V30 107 H 11.4256 1.03915 -4.2673 0
M  V30 108 H 12.0316 -0.63192 -4.20579 0
M  V30 109 N 10.3467 1.47872 -0.545128 0
M  V30 110 C 11.6237 1.9554 0.0485222 0
M  V30 111 C 12.0037 1.4876 1.49779 0
M  V30 112 O 11.3517 0.720925 2.16829 0
M  V30 113 C 11.5617 3.48898 -0.084417 0
M  V30 114 C 12.9097 4.24547 0.0671239 0
M  V30 115 O 13.9337 3.56198 -0.0113649 0
M  V30 116 O 12.7927 5.45999 0.233882 0
M  V30 117 H 9.8867 0.823957 0.0708773 0
M  V30 118 H 12.4327 1.58327 -0.610798 0
M  V30 119 H 11.2047 3.75714 -1.09337 0
M  V30 120 H 10.8277 3.92845 0.613066 0
M  V30 121 N 11.8248 0.280983 1.55075 0
M  V30 122 C 13.0718 -0.334115 1.99725 0
M  V30 123 C 13.3998 -1.5542 1.1694 0
M  V30 124 O 12.6548 -1.94361 0.228531 0
M  V30 125 C 12.9538 -0.754656 3.49342 0
M  V30 126 C 12.6198 0.361445 4.49449 0
M  V30 127 C 11.2818 0.667893 4.76542 0
M  V30 128 C 13.6338 1.11322 5.09173 0
M  V30 129 C 10.9618 1.7296 5.60626 0
M  V30 130 C 13.3138 2.1647 5.9441 0
M  V30 131 C 11.9778 2.47742 6.19822 0
M  V30 132 H 11.2478 -0.122261 0.730844 0
M  V30 133 H 13.8948 0.395917 1.87363 0
M  V30 134 H 12.1998 -1.56446 3.5921 0
M  V30 135 H 13.8968 -1.24142 3.813 0
M  V30 136 H 10.4868 0.112481 4.28452 0
M  V30 137 H 14.6708 0.88973 4.8826 0
M  V30 138 H 9.9268 1.97684 5.78559 0
M  V30 139 H 14.1008 2.75193 6.3972 0
M  V30 140 H 11.7278 3.30145 6.84769 0
M  V30 141 N 13.3029 -1.57598 0.00835791 0
M  V30 142 C 14.2349 -2.05811 -1.00868 0
M  V30 143 C 15.2479 -0.977579 -1.30182 0
M  V30 144 O 16.4369 -1.25421 -1.27011 0
M  V30 145 C 13.5369 -2.45016 -2.34137 0
M  V30 146 C 12.7099 -3.75903 -2.23643 0
M  V30 147 C 11.7689 -4.01884 -3.3967 0
M  V30 148 O 10.7949 -4.72433 -3.17483 0
M  V30 149 N 11.9969 -3.50432 -4.62793 0
M  V30 150 H 14.7619 -2.93684 -0.597458 0
M  V30 151 H 12.3229 -1.60909 -0.178852 0
M  V30 152 H 14.3149 -2.59506 -3.10546 0
M  V30 153 H 12.8849 -1.62618 -2.66972 0
M  V30 154 H 12.1049 -3.7141 -1.32091 0
M  V30 155 H 13.3929 -4.61695 -2.13812 0
M  V30 156 H 12.7909 -2.93317 -4.83716 0
M  V30 157 H 11.3479 -3.70236 -5.3644 0
M  V30 158 N 14.781 0.264519 -1.55364 0
M  V30 159 C 15.744 1.31046 -1.88042 0
M  V30 160 C 16.744 1.41943 -0.755569 0
M  V30 161 O 17.934 1.40947 -1.02369 0
M  V30 162 C 15.066 2.69067 -2.09323 0
M  V30 163 H 16.259 1.03297 -2.81549 0
M  V30 164 H 13.812 0.502989 -1.47986 0
M  V30 165 H 14.547 3.01982 -1.18226 0
M  V30 166 H 14.332 2.62542 -2.91229 0
M  V30 167 H 15.822 3.44623 -2.35848 0
M  V30 168 N 16.2591 1.48442 0.529413 0
M  V30 169 C 17.2091 1.59407 1.63014 0
M  V30 170 C 18.1931 0.451166 1.54445 0
M  V30 171 O 19.3851 0.702635 1.62456 0
M  V30 172 C 16.5141 1.63746 3.01732 0
M  V30 173 C 15.6001 2.83518 3.15402 0
M  V30 174 N 15.9911 4.07929 2.99045 0
M  V30 175 C 14.2891 2.80862 3.46457 0
M  V30 176 C 14.9901 4.8829 3.16146 0
M  V30 177 N 13.9661 4.21117 3.43746 0
M  V30 178 H 17.7681 2.53343 1.48978 0
M  V30 179 H 15.2821 1.44821 0.734885 0
M  V30 180 H 17.2791 1.69695 3.80801 0
M  V30 181 H 15.9391 0.709264 3.16859 0
M  V30 182 H 16.9501 4.38357 2.75796 0
M  V30 183 H 13.6271 1.97301 3.67938 0
M  V30 184 H 15.0171 5.97028 3.08232 0
M  V30 185 N 17.7372 -0.778329 1.37039 0
M  V30 186 C 18.7002 -1.87301 1.32102 0
M  V30 187 C 19.7002 -1.59198 0.226405 0
M  V30 188 O 20.8902 -1.67403 0.481861 0
M  V30 189 C 18.0222 -3.24309 1.05055 0
M  V30 190 H 19.2152 -1.93093 2.29467 0
M  V30 191 H 16.7682 -0.977358 1.21973 0
M  V30 192 H 17.5032 -3.24196 0.0819373 0
M  V30 193 H 17.2882 -3.46098 1.84279 0
M  V30 194 H 18.7782 -4.04382 1.04234 0
M  V30 195 N 19.2153 -1.21501 -1.00376 0
M  V30 196 C 20.6313 -0.972629 -1.26539 0
M  V30 197 C 20.8313 0.340257 -1.98606 0
M  V30 198 O 19.8873 1.06561 -2.28913 0
M  V30 199 C 21.2003 -2.16404 -2.08781 0
M  V30 200 C 22.7483 -2.20643 -2.22004 0
M  V30 201 C 23.2233 -3.39306 -3.07629 0
M  V30 202 N 24.7143 -3.39401 -3.15217 0
M  V30 203 C 25.4493 -4.27867 -3.81729 0
M  V30 204 N 24.9453 -5.26533 -4.5026 0
M  V30 205 N 26.7383 -4.15672 -3.78382 0
M  V30 206 H 18.8893 -2.05929 -0.520281 0
M  V30 207 H 21.1523 -0.901803 -0.292328 0
M  V30 208 H 20.8583 -3.11554 -1.63178 0
M  V30 209 H 20.7323 -2.15567 -3.09533 0
M  V30 210 H 23.1193 -1.26048 -2.66825 0
M  V30 211 H 23.2003 -2.25523 -1.20718 0
M  V30 212 H 22.8443 -4.34195 -2.63509 0
M  V30 213 H 22.7743 -3.31665 -4.09031 0
M  V30 214 H 25.2653 -2.67997 -2.66432 0
M  V30 215 H 25.5783 -5.90337 -4.98721 0
M  V30 216 H 23.9233 -5.30457 -4.49044 0
M  V30 217 H 27.1143 -3.3785 -3.23998 0
M  V30 218 H 27.2873 -4.84825 -4.2994 0
M  V30 219 N 20.6934 1.19889 -1.02296 0
M  V30 220 C 21.6034 2.26571 -0.608508 0
M  V30 221 C 22.6194 1.70299 0.356964 0
M  V30 222 O 23.7954 2.00235 0.216326 0
M  V30 223 C 20.8604 3.46677 0.0402814 0
M  V30 224 C 19.9214 4.18153 -0.97194 0
M  V30 225 C 19.1544 5.32525 -0.354016 0
M  V30 226 O 19.3774 5.64112 0.844604 0
M  V30 227 O 18.3114 5.92242 -1.07391 0
M  V30 228 H 22.1374 2.64251 -1.49684 0
M  V30 229 H 19.7224 1.26629 -0.792809 0
M  V30 230 H 21.6044 4.19475 0.402324 0
M  V30 231 H 20.2794 3.10858 0.902707 0
M  V30 232 H 19.1864 3.47499 -1.38546 0
M  V30 233 H 20.5194 4.57927 -1.80454 0
M  V30 234 N 22.1715 0.800033 1.35784 0
M  V30 235 C 23.1035 0.163596 2.28615 0
M  V30 236 C 24.1165 -0.633317 1.49976 0
M  V30 237 O 25.3055 -0.466754 1.72289 0
M  V30 238 C 22.4055 -0.790958 3.29541 0
M  V30 239 C 21.5785 -0.0418255 4.3738 0
M  V30 240 C 20.6375 -0.91389 5.18203 0
M  V30 241 O 19.6635 -0.367234 5.68014 0
M  V30 242 N 20.8655 -2.23682 5.35674 0
M  V30 243 H 23.6305 0.96105 2.83873 0
M  V30 244 H 21.1915 0.654894 1.48063 0
M  V30 245 H 23.1835 -1.37844 3.80501 0
M  V30 246 H 21.7535 -1.48925 2.74846 0
M  V30 247 H 20.9735 0.726813 3.87442 0
M  V30 248 H 22.2615 0.474719 5.06581 0
M  V30 249 H 21.6595 -2.70497 4.96838 0
M  V30 250 H 20.2165 -2.77369 5.89839 0
M  V30 251 N 23.6496 -1.47581 0.552962 0
M  V30 252 C 24.5796 -2.32762 -0.185451 0
M  V30 253 C 25.5606 -1.43527 -0.912905 0
M  V30 254 O 26.7456 -1.72388 -0.894201 0
M  V30 255 C 23.8756 -3.25219 -1.21859 0
M  V30 256 C 22.8296 -4.23661 -0.607864 0
M  V30 257 C 22.1556 -5.05413 -1.74533 0
M  V30 258 C 23.4556 -5.20481 0.435582 0
M  V30 259 H 25.1496 -2.94749 0.525684 0
M  V30 260 H 22.6956 -1.41738 0.254251 0
M  V30 261 H 24.6486 -3.8365 -1.7433 0
M  V30 262 H 23.3726 -2.61279 -1.95961 0
M  V30 263 H 22.0316 -3.66451 -0.104489 0
M  V30 264 H 21.6796 -4.3788 -2.47529 0
M  V30 265 H 21.3796 -5.72059 -1.34249 0
M  V30 266 H 22.9036 -5.66701 -2.27338 0
M  V30 267 H 24.3176 -5.733 -0.00290157 0
M  V30 268 H 22.7146 -5.95305 0.757067 0
M  V30 269 H 23.7846 -4.66217 1.33303 0
M  V30 270 N 25.1277 -0.289203 -1.54924 0
M  V30 271 C 26.3527 0.329299 -2.04769 0
M  V30 272 C 26.7777 1.4763 -1.16564 0
M  V30 273 O 26.1357 1.80527 -0.167186 0
M  V30 274 C 26.1837 0.774438 -3.52186 0
M  V30 275 O 25.2877 1.88038 -3.67036 0
M  V30 276 H 24.6287 0.0659259 -0.660719 0
M  V30 277 H 27.1587 -0.42761 -2.00082 0
M  V30 278 H 27.1687 1.06642 -3.93816 0
M  V30 279 H 25.8437 -0.0646707 -4.1585 0
M  V30 280 H 24.4207 1.58985 -3.3731 0
M  V30 281 N 26.6058 1.57591 -0.0167156 0
M  V30 282 C 27.5528 2.09462 0.969251 0
M  V30 283 C 28.5228 0.99381 1.33089 0
M  V30 284 O 29.7078 1.26726 1.42636 0
M  V30 285 C 26.8478 2.61622 2.25051 0
M  V30 286 C 25.9608 3.85666 1.94642 0
M  V30 287 C 25.0958 4.26266 3.16972 0
M  V30 288 C 24.1348 5.43101 2.82326 0
M  V30 289 N 23.2718 5.78915 3.97243 0
M  V30 290 H 28.1118 2.93428 0.519997 0
M  V30 291 H 25.6488 1.45044 0.245087 0
M  V30 292 H 27.6068 2.89949 2.99976 0
M  V30 293 H 26.2368 1.80505 2.67615 0
M  V30 294 H 25.2888 3.64145 1.10013 0
M  V30 295 H 26.6008 4.70678 1.65117 0
M  V30 296 H 25.7548 4.55963 4.00228 0
M  V30 297 H 24.4938 3.39996 3.49648 0
M  V30 298 H 23.4988 5.1311 1.97479 0
M  V30 299 H 24.7238 6.3106 2.50879 0
M  V30 300 H 22.6698 4.95602 4.29785 0
M  V30 301 H 22.5868 6.58539 3.71299 0
M  V30 302 H 23.8548 6.13212 4.81239 0
M  V30 303 N 28.0839 -0.256276 1.55502 0
M  V30 304 C 29.3089 -1.00766 1.81276 0
M  V30 305 C 29.7339 -1.78524 0.59252 0
M  V30 306 O 29.0919 -1.75413 -0.45827 0
M  V30 307 C 29.1399 -1.92869 3.04687 0
M  V30 308 O 28.2439 -3.019 2.80945 0
M  V30 309 H 27.5849 -0.287224 0.598664 0
M  V30 310 H 30.1149 -0.280109 2.02674 0
M  V30 311 H 30.1249 -2.34511 3.33869 0
M  V30 312 H 28.7999 -1.35689 3.93143 0
M  V30 313 H 27.3769 -2.64454 2.62904 0
M  V30 314 N 29.562 -1.4872 -0.521534 0
M  V30 315 C 30.79 -1.60843 -1.30142 0
M  V30 316 C 31.205 -0.271897 -1.86832 0
M  V30 317 O 30.562 0.739969 -1.66825 0
M  V30 318 C 30.613 -2.66155 -2.4463 0
M  V30 319 O 30.334 -3.94623 -1.90275 0
M  V30 320 C 31.835 -2.88795 -3.36322 0
M  V30 321 H 29.055 -0.542075 -0.395468 0
M  V30 322 H 31.599 -1.94609 -0.628285 0
M  V30 323 H 29.754 -2.35224 -3.07812 0
M  V30 324 H 30.168 -4.52468 -2.65279 0
M  V30 325 H 31.642 -3.66264 -4.12983 0
M  V30 326 H 32.119 -1.97934 -3.9207 0
M  V30 327 H 32.725 -3.21063 -2.78924 0
M  V30 328 N 31.0401 0.771051 -1.3745 0
M  V30 329 C 32.4561 1.07171 -1.18265 0
M  V30 330 C 32.6561 2.01491 -0.019287 0
M  V30 331 O 31.7121 2.44244 0.640408 0
M  V30 332 C 33.0251 1.66854 -2.50161 0
M  V30 333 C 34.5731 1.79109 -2.56689 0
M  V30 334 C 35.0481 2.42205 -3.88717 0
M  V30 335 N 36.5391 2.49655 -3.90162 0
M  V30 336 C 37.2741 2.9933 -4.8907 0
M  V30 337 N 36.7701 3.49172 -5.98374 0
M  V30 338 N 38.5631 2.9821 -4.76474 0
M  V30 339 H 30.7141 0.144796 -2.11906 0
M  V30 340 H 32.9771 0.126863 -0.939473 0
M  V30 341 H 32.6831 1.05017 -3.35655 0
M  V30 342 H 32.5571 2.6614 -2.673 0
M  V30 343 H 34.9441 2.40077 -1.71601 0
M  V30 344 H 35.0251 0.785757 -2.43433 0
M  V30 345 H 34.6691 1.81875 -4.74219 0
M  V30 346 H 34.5991 3.43345 -3.99276 0
M  V30 347 H 37.0901 2.14383 -3.11205 0
M  V30 348 H 37.4031 3.8548 -6.69795 0
M  V30 349 H 35.7481 3.47275 -6.02018 0
M  V30 350 H 38.9391 2.58572 -3.90203 0
M  V30 351 H 39.1121 3.36613 -5.53711 0
M  V30 352 N 32.5182 1.22032 0.997298 0
M  V30 353 C 33.7952 0.950823 1.70935 0
M  V30 354 C 34.1752 -0.535292 2.042 0
M  V30 355 O 33.5232 -1.50217 1.72183 0
M  V30 356 C 33.7332 1.84386 2.96315 0
M  V30 357 C 35.0812 2.09732 3.69185 0
M  V30 358 O 36.1052 1.81798 3.06314 0
M  V30 359 O 34.9642 2.57018 4.82291 0
M  V30 360 H 32.0582 0.357204 0.745878 0
M  V30 361 H 34.6042 1.32997 1.05404 0
M  V30 362 H 33.3762 2.84928 2.68201 0
M  V30 363 H 32.9992 1.46602 3.69586 0
M  V30 364 N 33.9963 -1.19345 1.0293 0
M  V30 365 C 35.2433 -1.89038 0.726008 0
M  V30 366 C 35.5713 -1.79649 -0.745427 0
M  V30 367 O 34.8263 -1.18354 -1.55855 0
M  V30 368 C 35.1253 -3.39292 1.12319 0
M  V30 369 C 34.7913 -3.68885 2.59297 0
M  V30 370 C 33.4533 -3.76671 2.99453 0
M  V30 371 C 35.8053 -3.82178 3.54386 0
M  V30 372 C 33.1333 -3.9522 4.33611 0
M  V30 373 C 35.4853 -4.0224 4.88248 0
M  V30 374 C 34.1493 -4.08259 5.28092 0
M  V30 375 H 33.4193 -0.691739 0.265665 0
M  V30 376 H 36.0663 -1.41328 1.29223 0
M  V30 377 H 34.3713 -3.88903 0.475584 0
M  V30 378 H 36.0683 -3.91536 0.866037 0
M  V30 379 H 32.6583 -3.63433 2.27189 0
M  V30 380 H 36.8423 -3.75505 3.24514 0
M  V30 381 H 32.0983 -3.98119 4.64016 0
M  V30 382 H 36.2723 -4.11468 5.61843 0
M  V30 383 H 33.8993 -4.22384 6.32057 0
M  V30 384 N 35.4744 -0.807222 -1.35358 0
M  V30 385 C 36.7234 -0.384376 -1.98004 0
M  V30 386 C 37.0364 1.0543 -1.64754 0
M  V30 387 O 38.2424 1.58029 -2.20769 0
M  V30 388 C 36.6984 -0.636326 -3.5423 0
M  V30 389 C 36.3064 -2.08759 -3.96388 0
M  V30 390 C 38.0504 -0.278869 -4.23583 0
M  V30 391 C 35.9574 -2.28525 -5.45463 0
M  V30 392 H 34.8874 -0.139986 -0.740891 0
M  V30 393 H 37.5384 -0.991369 -1.54415 0
M  V30 394 H 35.9204 0.0406256 -3.95979 0
M  V30 395 H 37.0944 -2.8024 -3.6579 0
M  V30 396 H 35.4094 -2.40497 -3.39926 0
M  V30 397 H 38.0064 -0.404599 -5.33167 0
M  V30 398 H 38.3494 0.775012 -4.09022 0
M  V30 399 H 38.8824 -0.909764 -3.87257 0
M  V30 400 H 35.6214 -3.32361 -5.64992 0
M  V30 401 H 35.1414 -1.61569 -5.77629 0
M  V30 402 H 36.8204 -2.10109 -6.11934 0
M  V30 403 N 36.9525 1.47285 -0.560781 0
M  V30 404 C 37.8625 2.33846 0.187954 0
M  V30 405 C 38.8785 1.48412 0.908293 0
M  V30 406 O 40.0545 1.81332 0.876388 0
M  V30 407 C 37.1195 3.25178 1.2025 0
M  V30 408 C 36.1805 4.26504 0.489208 0
M  V30 409 C 35.4135 5.13472 1.45542 0
M  V30 410 O 35.6365 5.02959 2.6905 0
M  V30 411 O 34.5705 5.93902 0.977963 0
M  V30 412 H 38.3965 2.99177 -0.522177 0
M  V30 413 H 35.9815 1.45903 -0.321364 0
M  V30 414 H 37.8635 3.81584 1.78805 0
M  V30 415 H 36.5385 2.6247 1.89449 0
M  V30 416 H 35.4455 3.73847 -0.137627 0
M  V30 417 H 36.7785 4.91935 -0.161399 0
M  V30 418 N 38.4306 0.297415 1.54768 0
M  V30 419 C 39.6786 -0.312295 1.99673 0
M  V30 420 C 39.9996 -1.54686 1.18732 0
M  V30 421 O 39.2696 -1.93854 0.282382 0
M  V30 422 H 37.8496 -0.118381 0.73756 0
M  V30 423 H 40.5116 0.407915 1.90583 0
M  V30 424 H 39.6076 -0.586813 3.06534 0
M  V30 425 N 39.9087 -1.5758 0.0250728 0
M  V30 426 C 41.1567 -1.91255 -0.653151 0
M  V30 427 C 41.4777 -0.901691 -1.729 0
M  V30 428 O 40.7477 0.0573785 -1.95816 0
M  V30 429 H 39.3277 -0.705942 -0.244243 0
M  V30 430 H 41.9897 -1.94767 0.0719209 0
M  V30 431 H 41.0857 -2.91752 -1.10847 0
M  V30 432 N 41.3868 0.248026 -1.55636 0
M  V30 433 C 42.3498 1.29044 -1.89421 0
M  V30 434 C 43.3498 1.41134 -0.770581 0
M  V30 435 O 44.5398 1.39854 -1.03858 0
M  V30 436 C 41.6718 2.66831 -2.12165 0
M  V30 437 H 42.8648 1.00305 -2.82629 0
M  V30 438 H 40.4178 0.487265 -1.48511 0
M  V30 439 H 41.1528 3.00711 -1.21422 0
M  V30 440 H 40.9378 2.59438 -2.93997 0
M  V30 441 H 42.4278 3.42103 -2.3949 0
M  V30 442 N 42.8649 1.48995 0.513639 0
M  V30 443 C 44.1419 1.48338 1.27495 0
M  V30 444 C 44.5219 0.204065 2.10111 0
M  V30 445 O 43.8699 -0.813881 2.13514 0
M  V30 446 C 44.0799 2.75498 2.14247 0
M  V30 447 C 45.4279 3.24484 2.73852 0
M  V30 448 O 46.4519 2.76528 2.24523 0
M  V30 449 O 45.3109 4.07974 3.6362 0
M  V30 450 H 42.4049 0.593149 0.576284 0
M  V30 451 H 44.9509 1.61246 0.528948 0
M  V30 452 H 43.7229 3.60109 1.53092 0
M  V30 453 H 43.3459 2.6539 2.96064 0
M  V30 454 N 44.343 -0.763751 1.37857 0
M  V30 455 C 45.62 -1.51244 1.24035 0
M  V30 456 C 46 -2.10472 -0.162649 0
M  V30 457 O 45.348 -1.96206 -1.17112 0
M  V30 458 C 45.558 -2.58694 2.34261 0
M  V30 459 C 46.906 -3.25878 2.72193 0
M  V30 460 O 47.93 -2.68993 2.33497 0
M  V30 461 O 46.789 -4.2874 3.38887 0
M  V30 462 H 43.883 -0.670243 0.484462 0
M  V30 463 H 46.429 -0.800031 1.49658 0
M  V30 464 H 45.201 -2.13105 3.2818 0
M  V30 465 H 44.824 -3.37527 2.10146 0
M  V30 466 N 45.8211 -1.22559 -0.990812 0
M  V30 467 C 47.0461 -1.07862 -1.77145 0
M  V30 468 C 47.4711 0.366447 -1.84496 0
M  V30 469 O 46.8291 1.26478 -1.29896 0
M  V30 470 C 46.8771 -1.69686 -3.18181 0
M  V30 471 O 45.9811 -0.951946 -4.01263 0
M  V30 472 H 45.3221 -0.378712 -0.545411 0
M  V30 473 H 47.8521 -1.62399 -1.2445 0
M  V30 474 H 47.8621 -1.74496 -3.68802 0
M  V30 475 H 46.5371 -2.74841 -3.12146 0
M  V30 476 H 45.1141 -0.980011 -3.59792 0
M  V30 477 N 47.2992 1.18797 -1.03562 0
M  V30 478 C 48.5482 1.87978 -0.731235 0
M  V30 479 C 48.8612 1.80911 0.743671 0
M  V30 480 O 50.0672 2.45407 1.16137 0
M  V30 481 C 48.5232 3.3721 -1.25768 0
M  V30 482 C 48.1312 3.52818 -2.76085 0
M  V30 483 C 49.8752 4.11825 -1.0296 0
M  V30 484 C 47.7822 4.9598 -3.22114 0
M  V30 485 H 46.7122 0.704063 -0.269835 0
M  V30 486 H 49.3632 1.34266 -1.25079 0
M  V30 487 H 47.7452 3.90359 -0.666011 0
M  V30 488 H 48.9192 3.09965 -3.40966 0
M  V30 489 H 47.2342 2.91602 -2.97249 0
M  V30 490 H 49.8312 5.17411 -1.34869 0
M  V30 491 H 50.1742 4.16287 0.0333546 0
M  V30 492 H 50.7072 3.64833 -1.58562 0
M  V30 493 H 47.4462 4.96684 -4.27768 0
M  V30 494 H 46.9662 5.39569 -2.61965 0
M  V30 495 H 48.6452 5.6467 -3.15844 0
M  V30 496 N 48.7773 0.814389 1.34928 0
M  V30 497 C 50.0053 0.411136 2.02774 0
M  V30 498 C 50.4203 -0.980316 1.61354 0
M  V30 499 O 49.7773 -1.63299 0.814847 0
M  V30 500 C 49.8283 0.493865 3.58111 0
M  V30 501 O 49.5493 1.83047 3.98027 0
M  V30 502 C 51.0503 0.0844174 4.4322 0
M  V30 503 H 48.2703 0.166037 0.650133 0
M  V30 504 H 50.8143 1.10018 1.72384 0
M  V30 505 H 48.9693 -0.147006 3.87121 0
M  V30 506 H 49.3833 1.79872 4.92693 0
M  V30 507 H 50.8573 0.193404 5.51661 0
M  V30 508 H 51.3343 -0.97113 4.28329 0
M  V30 509 H 51.9403 0.69875 4.19521 0
M  V30 510 N 50.2554 -1.46986 0.568584 0
M  V30 511 C 51.6714 -1.57946 0.229189 0
M  V30 512 C 51.8714 -1.56567 -1.26843 0
M  V30 513 O 50.9274 -1.47511 -2.04931 0
M  V30 514 C 52.2404 -2.87963 0.865909 0
M  V30 515 C 53.7884 -3.01568 0.838188 0
M  V30 516 C 54.2634 -4.34301 1.45419 0
M  V30 517 N 55.7544 -4.40965 1.41788 0
M  V30 518 C 56.4894 -5.42256 1.86403 0
M  V30 519 N 55.9854 -6.50297 2.38926 0
M  V30 520 N 57.7784 -5.3337 1.77405 0
M  V30 521 H 49.9294 -1.46126 1.54146 0
M  V30 522 H 52.1924 -0.696156 0.643484 0
M  V30 523 H 51.8984 -2.94742 1.91886 0
M  V30 524 H 51.7724 -3.75423 0.365687 0
M  V30 525 H 54.1594 -2.94379 -0.206106 0
M  V30 526 H 54.2404 -2.1562 1.37629 0
M  V30 527 H 53.8844 -4.42247 2.49761 0
M  V30 528 H 53.8144 -5.19 0.891435 0
M  V30 529 H 56.3054 -3.63484 1.03381 0
M  V30 530 H 56.6184 -7.23777 2.70863 0
M  V30 531 H 54.9634 -6.51155 2.42944 0
M  V30 532 H 58.1544 -4.47865 1.3614 0
M  V30 533 H 58.3274 -6.12169 2.12492 0
M  V30 534 N 51.7335 -0.305618 -1.54608 0
M  V30 535 C 53.0105 0.355652 -1.92339 0
M  V30 536 C 53.3905 1.71324 -1.23335 0
M  V30 537 O 52.7385 2.25473 -0.370702 0
M  V30 538 C 52.9485 0.46572 -3.45879 0
M  V30 539 C 54.2965 0.734426 -4.182 0
M  V30 540 O 55.3205 0.54935 -3.51938 0
M  V30 541 O 54.1795 1.09024 -5.35515 0
M  V30 542 H 51.2735 0.199666 -0.802535 0
M  V30 543 H 53.8195 -0.354017 -1.65966 0
M  V30 544 H 52.5915 -0.488461 -3.88239 0
M  V30 545 H 52.2145 1.22367 -3.78301 0
M  V30 546 N 53.2116 1.57565 -0.0334293 0
M  V30 547 C 54.4886 1.83282 0.683163 0
M  V30 548 C 54.8686 0.91823 1.90084 0
M  V30 549 O 54.2166 -0.025113 2.28486 0
M  V30 550 C 54.4266 3.32599 1.0573 0
M  V30 551 C 55.7746 3.99179 1.44711 0
M  V30 552 O 56.7986 3.3712 1.15015 0
M  V30 553 O 55.6576 5.08565 2.0006 0
M  V30 554 H 52.7516 0.755869 0.335546 0
M  V30 555 H 55.2976 1.69589 -0.0614402 0
M  V30 556 H 54.0696 3.90834 0.190828 0
M  V30 557 H 53.6926 3.51415 1.85993 0
M  V30 558 N 54.6897 -0.239769 1.55765 0
M  V30 559 C 55.6377 -1.31668 1.91745 0
M  V30 560 C 56.6317 -1.49462 0.797338 0
M  V30 561 O 57.8377 -1.50852 0.982021 0
M  V30 562 H 54.2127 -0.441048 0.609082 0
M  V30 563 H 56.1837 -0.985923 2.81642 0
M  V30 564 C 54.9327 -2.66368 2.2348 0
M  V30 565 H 54.2557 -2.53478 3.09175 0
M  V30 566 H 55.6957 -3.40578 2.52553 0
M  V30 567 C 54.1547 -3.20002 1.05359 0
M  V30 568 O 54.6847 -4.00538 0.305261 0
M  V30 569 N 52.8907 -2.78126 0.842292 0
M  V30 570 H 52.4377 -2.12742 1.45253 0
M  V30 571 H 52.3957 -3.14354 0.053652 0
M  V30 572 N 56.1678 -1.49265 -0.50573 0
M  V30 573 C 57.4168 -1.57761 -1.25675 0
M  V30 574 C 57.7298 -0.267371 -1.93764 0
M  V30 575 O 58.9358 -0.230827 -2.70517 0
M  V30 576 C 57.3918 -2.78332 -2.28165 0
M  V30 577 C 56.9998 -4.16096 -1.66037 0
M  V30 578 C 58.7438 -2.96155 -3.04125 0
M  V30 579 C 56.6508 -5.27895 -2.6661 0
M  V30 580 H 55.5808 -0.587391 -0.472745 0
M  V30 581 H 58.2318 -1.75644 -0.53118 0
M  V30 582 H 56.6138 -2.53934 -3.03865 0
M  V30 583 H 57.7878 -4.50612 -0.963622 0
M  V30 584 H 56.1028 -4.03591 -1.02484 0
M  V30 585 H 58.6998 -3.76849 -3.79327 0
M  V30 586 H 59.0428 -2.06534 -3.61455 0
M  V30 587 H 59.5758 -3.2057 -2.35541 0
M  V30 588 H 56.3148 -6.1956 -2.14068 0
M  V30 589 H 55.8348 -4.97839 -3.34539 0
M  V30 590 H 57.5138 -5.57031 -3.29129 0
M  V30 591 N 57.6459 0.756429 -1.3826 0
M  V30 592 C 58.6089 1.85176 -1.35065 0
M  V30 593 C 59.6089 1.58818 -0.251703 0
M  V30 594 O 60.7989 1.66615 -0.508433 0
M  V30 595 C 57.9309 3.22596 -1.10201 0
M  V30 596 H 59.1239 1.89417 -2.3251 0
M  V30 597 H 56.6769 0.95783 -1.23512 0
M  V30 598 H 57.4119 3.24025 -0.133504 0
M  V30 599 H 57.1969 3.43122 -1.89762 0
M  V30 600 H 58.6869 4.02673 -1.10654 0
M  V30 601 N 59.124 1.23083 0.984299 0
M  V30 602 C 60.087 1.00979 2.05757 0
M  V30 603 C 61.087 -0.0269573 1.60777 0
M  V30 604 O 62.277 0.212403 1.729 0
M  V30 605 C 59.409 0.527072 3.36801 0
M  V30 606 H 60.602 1.9622 2.26799 0
M  V30 607 H 58.155 1.05072 1.15714 0
M  V30 608 H 58.89 -0.429294 3.21446 0
M  V30 609 H 58.675 1.27515 3.70786 0
M  V30 610 H 60.165 0.392942 4.15747 0
M  V30 611 N 60.6021 -1.18246 1.0419 0
M  V30 612 C 61.8491 -1.88257 0.746017 0
M  V30 613 C 62.1771 -1.80429 -0.726331 0
M  V30 614 O 61.4321 -1.2 -1.54591 0
M  V30 615 C 61.7311 -3.38082 1.15911 0
M  V30 616 C 61.3971 -3.66114 2.63195 0
M  V30 617 C 60.0591 -3.73474 3.03432 0
M  V30 618 C 62.4111 -3.78398 3.5842 0
M  V30 619 C 59.7391 -3.90599 4.37778 0
M  V30 620 C 62.0911 -3.97039 4.92487 0
M  V30 621 C 60.7551 -4.02635 5.32392 0
M  V30 622 H 60.0251 -0.688883 0.272987 0
M  V30 623 H 62.6721 -1.3995 1.30715 0
M  V30 624 H 60.9771 -3.88377 0.516806 0
M  V30 625 H 62.6741 -3.90596 0.907516 0
M  V30 626 H 59.2641 -3.61003 2.3103 0
M  V30 627 H 63.4481 -3.72042 3.28479 0
M  V30 628 H 58.7041 -3.93175 4.68213 0
M  V30 629 H 62.8781 -4.05486 5.66175 0
M  V30 630 H 60.5051 -4.15657 6.36501 0
M  V30 631 N 62.0802 -0.821533 -1.34494 0
M  V30 632 C 63.0272 -0.240397 -2.29545 0
M  V30 633 C 63.9972 0.634031 -1.53523 0
M  V30 634 O 65.1822 0.575966 -1.81899 0
M  V30 635 C 62.3222 0.592869 -3.39969 0
M  V30 636 C 61.4352 -0.30365 -4.30932 0
M  V30 637 C 60.5702 0.539049 -5.28458 0
M  V30 638 C 59.6092 -0.356942 -6.11058 0
M  V30 639 N 58.7462 0.446603 -7.00678 0
M  V30 640 H 63.5862 -1.05632 -2.7865 0
M  V30 641 H 61.1232 -0.532413 -1.37127 0
M  V30 642 H 63.0812 1.09129 -4.02675 0
M  V30 643 H 61.7112 1.37392 -2.92102 0
M  V30 644 H 60.7632 -0.920276 -3.691 0
M  V30 645 H 62.0752 -0.992661 -4.88823 0
M  V30 646 H 61.2292 1.102 -5.96608 0
M  V30 647 H 59.9682 1.26157 -4.71101 0
M  V30 648 H 58.9732 -0.932047 -5.41842 0
M  V30 649 H 60.1982 -1.07755 -6.70497 0
M  V30 650 H 58.1442 1.15282 -6.45791 0
M  V30 651 H 58.0612 -0.184048 -7.55776 0
M  V30 652 H 59.3292 0.992352 -7.73158 0
M  V30 653 N 63.5583 1.46682 -0.576371 0
M  V30 654 C 64.9743 1.57822 -0.237562 0
M  V30 655 C 65.1743 1.57237 1.26011 0
M  V30 656 O 64.2303 1.48596 2.04146 0
M  V30 657 C 65.5433 2.87499 -0.881168 0
M  V30 658 C 67.0913 3.01119 -0.85417 0
M  V30 659 C 67.5663 4.33524 -1.4772 0
M  V30 660 N 69.0573 4.40207 -1.44125 0
M  V30 661 C 69.7923 5.4126 -1.89276 0
M  V30 662 N 69.2883 6.49021 -2.42371 0
M  V30 663 N 71.0813 5.32422 -1.80231 0
M  V30 664 H 63.2323 1.45306 -1.54919 0
M  V30 665 H 65.4953 0.692733 -0.647167 0
M  V30 666 H 65.2013 2.9372 -1.93447 0
M  V30 667 H 65.0753 3.75224 -0.385592 0
M  V30 668 H 67.4623 2.94485 0.190491 0
M  V30 669 H 67.5433 2.14887 -1.3877 0
M  V30 670 H 67.1873 4.40916 -2.52103 0
M  V30 671 H 67.1173 5.1852 -0.918947 0
M  V30 672 H 69.6083 3.62931 -1.05307 0
M  V30 673 H 69.9213 7.2233 -2.74698 0
M  V30 674 H 68.2663 6.49858 -2.46393 0
M  V30 675 H 71.4573 4.47137 -1.38514 0
M  V30 676 H 71.6303 6.11034 -2.15735 0
M  V30 677 N 65.0364 0.313813 1.54444 0
M  V30 678 C 66.2854 -0.292519 1.99568 0
M  V30 679 C 66.5984 -1.54011 1.20582 0
M  V30 680 O 67.8044 -2.22183 1.56035 0
M  V30 681 C 66.2604 -0.571752 3.55329 0
M  V30 682 C 65.8684 0.658229 4.43138 0
M  V30 683 C 67.6124 -1.13857 4.08946 0
M  V30 684 C 65.5194 0.351439 5.90355 0
M  V30 685 H 64.4494 -0.113079 0.745472 0
M  V30 686 H 67.1004 0.424518 1.78522 0
M  V30 687 H 65.4824 -1.34872 3.72325 0
M  V30 688 H 66.6564 1.43403 4.37918 0
M  V30 689 H 64.9714 1.14458 4.0036 0
M  V30 690 H 67.5684 -1.38257 5.16516 0
M  V30 691 H 67.9114 -2.08489 3.6033 0
M  V30 692 H 68.4444 -0.423015 3.95544 0
M  V30 693 H 65.1834 1.26667 6.43145 0
M  V30 694 H 64.7034 -0.386842 5.98551 0
M  V30 695 H 66.3824 -0.0423134 6.46986 0
M  V30 696 N 66.5145 -1.57545 0.0417849 0
M  V30 697 C 67.9305 -1.56467 -0.314704 0
M  V30 698 C 68.1305 -1.04859 -1.72066 0
M  V30 699 O 67.1865 -0.700983 -2.42575 0
M  V30 700 C 68.4995 -3.00317 -0.15174 0
M  V30 701 C 70.0475 -3.12201 -0.223553 0
M  V30 702 C 70.5225 -4.57913 -0.0892295 0
M  V30 703 N 72.0135 -4.6297 -0.145808 0
M  V30 704 C 72.7485 -5.73362 -0.0658459 0
M  V30 705 N 72.2445 -6.92769 0.0659282 0
M  V30 706 N 74.0375 -5.6197 -0.12075 0
M  V30 707 H 66.1885 -1.89416 0.961014 0
M  V30 708 H 68.4515 -0.871862 0.372237 0
M  V30 709 H 68.1575 -3.42073 0.817254 0
M  V30 710 H 68.0315 -3.65892 -0.916692 0
M  V30 711 H 70.4185 -2.70349 -1.18301 0
M  V30 712 H 70.4995 -2.49323 0.571994 0
M  V30 713 H 70.1435 -5.00448 0.866867 0
M  V30 714 H 70.0735 -5.18786 -0.903802 0
M  V30 715 H 72.5645 -3.7709 -0.247286 0
M  V30 716 H 72.8775 -7.72707 0.119905 0
M  V30 717 H 71.2225 -6.94927 0.100885 0
M  V30 718 H 74.4135 -4.67572 -0.222187 0
M  V30 719 H 74.5865 -6.47977 -0.0549735 0
M  V30 720 N 67.9926 0.231505 -1.5589 0
M  V30 721 C 68.9226 1.29022 -1.94617 0
M  V30 722 C 69.9036 1.4941 -0.813067 0
M  V30 723 O 71.0886 1.6176 -1.07459 0
M  V30 724 C 68.2186 2.64199 -2.25424 0
M  V30 725 C 67.1726 2.58484 -3.41131 0
M  V30 726 C 66.4986 3.97599 -3.57518 0
M  V30 727 C 67.7986 2.1413 -4.76388 0
M  V30 728 H 69.4926 0.968563 -2.83301 0
M  V30 729 H 67.0386 0.464479 -1.36303 0
M  V30 730 H 68.9916 3.38413 -2.51107 0
M  V30 731 H 67.7156 2.98032 -1.33583 0
M  V30 732 H 66.3746 1.86727 -3.15481 0
M  V30 733 H 66.0226 4.28723 -2.6307 0
M  V30 734 H 65.7226 3.94659 -4.35337 0
M  V30 735 H 67.2466 4.7349 -3.85538 0
M  V30 736 H 68.6606 2.78083 -5.01341 0
M  V30 737 H 67.0576 2.2227 -5.57419 0
M  V30 738 H 68.1276 1.09331 -4.72414 0
M  V30 739 N 69.4707 1.49531 0.497807 0
M  V30 740 C 70.8867 1.36365 0.829266 0
M  V30 741 C 71.0867 0.399184 1.97506 0
M  V30 742 O 70.1427 -0.167977 2.51941 0
M  V30 743 C 71.4557 2.77153 1.16647 0
M  V30 744 C 73.0037 2.85877 1.27449 0
M  V30 745 C 73.4787 4.2744 1.64497 0
M  V30 746 N 74.9697 4.30265 1.7154 0
M  V30 747 C 75.7047 5.3677 2.01656 0
M  V30 748 N 75.2007 6.53516 2.29976 0
M  V30 749 N 76.9937 5.24189 2.02934 0
M  V30 750 H 69.1447 2.10831 -0.257703 0
M  V30 751 H 71.4077 0.946534 -0.0527091 0
M  V30 752 H 71.1137 3.49442 0.397872 0
M  V30 753 H 70.9877 3.12722 2.10915 0
M  V30 754 H 73.3747 2.13824 2.0338 0
M  V30 755 H 73.4557 2.53887 0.312244 0
M  V30 756 H 73.0997 5.00021 0.891151 0
M  V30 757 H 73.0297 4.56896 2.61827 0
M  V30 758 H 75.5207 3.4607 1.51802 0
M  V30 759 H 75.8337 7.30506 2.52153 0
M  V30 760 H 74.1787 6.56737 2.27425 0
M  V30 761 H 77.3697 4.31988 1.80289 0
M  V30 762 H 77.5427 6.07286 2.26071 0
M  V30 763 N 70.9488 -0.749086 1.3866 0
M  V30 764 C 72.3598 -1.32664 1.31366 0
M  V30 765 C 72.7108 -1.96179 -0.028484 0
M  V30 766 O 71.8358 -1.9537 -0.93057 0
M  V30 767 C 72.4308 -2.41219 2.37905 0
M  V30 768 C 70.9898 -2.94684 2.34176 0
M  V30 769 C 70.1368 -1.68108 2.20533 0
M  V30 770 H 73.0878 -0.547628 1.48952 0
M  V30 771 H 73.1088 -3.21268 2.0388 0
M  V30 772 H 72.6208 -1.94962 3.35576 0
M  V30 773 H 70.7218 -3.45258 1.401 0
M  V30 774 H 70.8348 -3.48757 3.2849 0
M  V30 775 H 69.1988 -1.91907 1.67463 0
M  V30 776 H 69.9818 -1.23923 3.20153 0
M  V30 777 N 72.4269 -1.23603 -0.977757 0
M  V30 778 C 73.8429 -0.999251 -1.24447 0
M  V30 779 C 74.0429 0.298053 -1.99283 0
M  V30 780 O 73.0989 1.01681 -2.31122 0
M  V30 781 C 74.4119 -2.20784 -2.04144 0
M  V30 782 C 75.9599 -2.25303 -2.17273 0
M  V30 783 C 76.4349 -3.45755 -3.00362 0
M  V30 784 N 77.9259 -3.4601 -3.07947 0
M  V30 785 C 78.6609 -4.35868 -3.72568 0
M  V30 786 N 78.1569 -5.35966 -4.38991 0
M  V30 787 N 79.9499 -4.23605 -3.6948 0
M  V30 788 H 72.1009 -2.06986 -0.476483 0
M  V30 789 H 74.3639 -0.907801 -0.273134 0
M  V30 790 H 74.0699 -3.14945 -1.56533 0
M  V30 791 H 73.9439 -2.22085 -3.04891 0
M  V30 792 H 76.3309 -1.3168 -2.64092 0
M  V30 793 H 76.4119 -2.28033 -1.15907 0
M  V30 794 H 76.0559 -4.39687 -2.5424 0
M  V30 795 H 75.9859 -3.40266 -4.01904 0
M  V30 796 H 78.4769 -2.73588 -2.60688 0
M  V30 797 H 78.7899 -6.00783 -4.86086 0
M  V30 798 H 77.1349 -5.39863 -4.37691 0
M  V30 799 H 80.3259 -3.44647 -3.16759 0
M  V30 800 H 80.4989 -4.93836 -4.1956 0
M  V30 801 N 73.905 1.17692 -1.04816 0
M  V30 802 C 75.135 1.91508 -0.775128 0
M  V30 803 C 75.543 1.76844 0.67253 0
M  V30 804 O 74.886 1.10057 1.47082 0
M  V30 805 C 74.948 3.43167 -1.0713 0
M  V30 806 C 74.612 3.81612 -2.51438 0
M  V30 807 C 75.609 3.84772 -3.49638 0
M  V30 808 C 73.294 4.12687 -2.86348 0
M  V30 809 C 75.288 4.18469 -4.80794 0
M  V30 810 C 72.975 4.46053 -4.17708 0
M  V30 811 C 73.973 4.48921 -5.14741 0
M  V30 812 O 73.661 4.81504 -6.43746 0
M  V30 813 H 73.393 0.614575 -0.281555 0
M  V30 814 H 75.947 1.50206 -1.40098 0
M  V30 815 H 74.177 3.84745 -0.388342 0
M  V30 816 H 75.866 3.98239 -0.784883 0
M  V30 817 H 76.632 3.60893 -3.24008 0
M  V30 818 H 72.511 4.09627 -2.11486 0
M  V30 819 H 76.055 4.20623 -5.56527 0
M  V30 820 H 71.952 4.69393 -4.43103 0
M  V30 821 H 72.72 4.99377 -6.4851 0
M  V30 822 N 75.3831 0.828654 1.34056 0
M  V30 823 C 76.3131 0.269443 2.3194 0
M  V30 824 C 77.2941 -0.617247 1.58506 0
M  V30 825 O 78.4791 -0.542931 1.86456 0
M  V30 826 C 75.6091 -0.564793 3.42677 0
M  V30 827 C 74.5631 0.225241 4.27407 0
M  V30 828 C 73.8891 -0.7321 5.29664 0
M  V30 829 C 75.1891 1.43663 5.02154 0
M  V30 830 H 76.8831 1.08728 2.7896 0
M  V30 831 H 74.4291 0.524283 1.34117 0
M  V30 832 H 76.3821 -0.966233 4.10173 0
M  V30 833 H 75.1061 -1.41574 2.9432 0
M  V30 834 H 73.7651 0.608117 3.61521 0
M  V30 835 H 73.4131 -1.57916 4.77568 0
M  V30 836 H 73.1131 -0.20767 5.87233 0
M  V30 837 H 74.6371 -1.13128 6.00029 0
M  V30 838 H 76.0511 1.1089 5.62473 0
M  V30 839 H 74.4481 1.89711 5.69324 0
M  V30 840 H 75.5181 2.21181 4.31517 0
M  V30 841 N 76.8612 -1.46375 0.584142 0
M  V30 842 C 78.2772 -1.57694 0.245929 0
M  V30 843 C 78.4772 -1.57903 -1.25175 0
M  V30 844 O 77.5332 -1.49676 -2.03355 0
M  V30 845 C 78.8462 -2.87028 0.896402 0
M  V30 846 C 80.3942 -3.00662 0.870127 0
M  V30 847 C 80.8692 -4.32734 1.50017 0
M  V30 848 N 82.3602 -4.39436 1.46458 0
M  V30 849 C 83.0952 -5.40248 1.92144 0
M  V30 850 N 82.5912 -6.47726 2.4581 0
M  V30 851 N 84.3842 -5.31459 1.83052 0
M  V30 852 H 76.5352 -1.44483 1.55687 0
M  V30 853 H 78.7982 -0.689291 0.650831 0
M  V30 854 H 78.5042 -2.9269 1.95002 0
M  V30 855 H 78.3782 -3.75014 0.405486 0
M  V30 856 H 80.7652 -2.94581 -0.174871 0
M  V30 857 H 80.8462 -2.14148 1.39908 0
M  V30 858 H 80.4902 -4.39573 2.54437 0
M  V30 859 H 80.4202 -5.18025 0.946432 0
M  V30 860 H 82.9112 -3.62367 1.07231 0
M  V30 861 H 83.2242 -7.20863 2.78525 0
M  V30 862 H 81.5692 -6.48542 2.49836 0
M  V30 863 H 84.7602 -4.46396 1.40883 0
M  V30 864 H 84.9332 -6.09881 2.18973 0
M  V30 865 N 78.3393 -0.321999 -1.54275 0
M  V30 866 C 79.6163 0.335232 -1.92706 0
M  V30 867 C 79.9963 1.70006 -1.25145 0
M  V30 868 O 79.3443 2.25067 -0.394596 0
M  V30 869 C 79.5543 0.429008 -3.46353 0
M  V30 870 C 80.9023 0.690029 -4.18956 0
M  V30 871 O 81.9263 0.511992 -3.52501 0
M  V30 872 O 80.7853 1.03338 -5.36641 0
M  V30 873 H 77.8793 0.191143 -0.804608 0
M  V30 874 H 80.4253 -0.3716 -1.65581 0
M  V30 875 H 79.1973 -0.529611 -3.87699 0
M  V30 876 H 78.8203 1.18348 -3.79578 0
M  V30 877 N 79.8174 1.5752 -0.0501392 0
M  V30 878 C 81.0634 1.92936 0.624798 0
M  V30 879 C 81.3964 0.928685 1.70555 0
M  V30 880 O 80.6714 -0.0454779 1.94447 0
M  V30 881 C 80.9544 3.38737 1.22185 0
M  V30 882 C 80.8074 4.49552 0.149218 0
M  V30 883 C 82.1264 3.84913 2.13378 0
M  V30 884 H 79.2454 0.701604 0.225657 0
M  V30 885 H 81.8874 1.89671 -0.111693 0
M  V30 886 H 80.0374 3.4165 1.84953 0
M  V30 887 H 81.7094 4.58768 -0.482648 0
M  V30 888 H 79.9524 4.30638 -0.522841 0
M  V30 889 H 80.6234 5.48653 0.606966 0
M  V30 890 H 83.0994 3.8387 1.60572 0
M  V30 891 H 81.9754 4.87584 2.52097 0
M  V30 892 H 82.2364 3.21611 3.03346 0
M  V30 893 N 81.2955 -0.223234 1.56011 0
M  V30 894 C 82.5205 -0.968978 1.83373 0
M  V30 895 C 82.9455 -1.77227 0.630254 0
M  V30 896 O 82.3035 -1.76345 -0.420959 0
M  V30 897 C 82.3515 -1.86363 3.08709 0
M  V30 898 O 81.4555 -2.95873 2.87285 0
M  V30 899 H 80.7965 -0.274461 0.604622 0
M  V30 900 H 83.3265 -0.237056 2.03222 0
M  V30 901 H 83.3365 -2.27376 3.38768 0
M  V30 902 H 82.0115 -1.27319 3.95933 0
M  V30 903 H 80.5885 -2.58818 2.68454 0
M  V30 904 N 82.7736 -1.49793 -0.48987 0
M  V30 905 C 83.6836 -1.70036 -1.61632 0
M  V30 906 C 84.6996 -0.583102 -1.63939 0
M  V30 907 O 85.8756 -0.859169 -1.82154 0
M  V30 908 C 82.9406 -1.77277 -2.97949 0
M  V30 909 C 82.0016 -3.00918 -3.06181 0
M  V30 910 C 81.2346 -3.07804 -4.35996 0
M  V30 911 O 81.4576 -2.21982 -5.25433 0
M  V30 912 O 80.3916 -4.00369 -4.49431 0
M  V30 913 H 84.2176 -2.65486 -1.47482 0
M  V30 914 H 81.8026 -1.33666 -0.667362 0
M  V30 915 H 83.6846 -1.84329 -3.78947 0
M  V30 916 H 82.3596 -0.850076 -3.12339 0
M  V30 917 H 81.2666 -2.99377 -2.2433 0
M  V30 918 H 82.5996 -3.92704 -2.96723 0
M  V30 919 N 84.2517 0.741722 -1.39055 0
M  V30 920 C 85.4977 1.50336 -1.36113 0
M  V30 921 C 85.8307 1.94148 0.0450796 0
M  V30 922 O 85.1057 1.66301 1.00868 0
M  V30 923 C 85.3887 2.74773 -2.32749 0
M  V30 924 C 85.2417 2.37023 -3.82283 0
M  V30 925 C 86.5607 3.76846 -2.27322 0
M  V30 926 H 83.6797 0.545351 -0.495743 0
M  V30 927 H 86.3217 0.848624 -1.69995 0
M  V30 928 H 84.4717 3.30639 -2.03986 0
M  V30 929 H 86.1437 1.8684 -4.21768 0
M  V30 930 H 84.3867 1.69334 -3.99385 0
M  V30 931 H 85.0577 3.26104 -4.45376 0
M  V30 932 H 87.5337 3.30548 -2.5274 0
M  V30 933 H 86.4097 4.6159 -2.97028 0
M  V30 934 H 86.6707 4.23286 -1.27599 0
M  V30 935 N 85.7298 1.2412 0.971189 0
M  V30 936 C 87.0068 0.986867 1.6888 0
M  V30 937 C 87.3868 -0.491857 2.0529 0
M  V30 938 O 86.7348 -1.46531 1.75331 0
M  V30 939 C 86.9448 1.9063 2.92338 0
M  V30 940 C 88.2928 2.17515 3.64654 0
M  V30 941 O 89.3168 1.88254 3.02388 0
M  V30 942 O 88.1758 2.6719 4.7673 0
M  V30 943 H 85.2698 0.372944 0.738134 0
M  V30 944 H 87.8158 1.35203 1.02559 0
M  V30 945 H 86.5878 2.90552 2.62097 0
M  V30 946 H 86.2108 1.54408 3.66393 0
M  V30 947 N 87.2079 -1.17134 1.05439 0
M  V30 948 C 88.4359 -1.91372 0.786414 0
M  V30 949 C 88.8509 -1.76955 -0.658202 0
M  V30 950 O 88.2079 -1.10838 -1.44987 0
M  V30 951 C 88.2589 -3.42356 1.1608 0
M  V30 952 O 87.9799 -3.56332 2.54871 0
M  V30 953 C 89.4809 -4.33663 0.919322 0
M  V30 954 H 86.7009 -0.607118 0.285743 0
M  V30 955 H 89.2449 -1.48525 1.40572 0
M  V30 956 H 87.3999 -3.82939 0.586191 0
M  V30 957 H 87.8139 -4.49896 2.69618 0
M  V30 958 H 89.2879 -5.38099 1.231 0
M  V30 959 H 89.7649 -4.38959 -0.145359 0
M  V30 960 H 90.3709 -3.98796 1.47789 0
M  V30 961 N 88.686 -0.835752 -1.33615 0
M  V30 962 C 90.102 -0.523139 -1.50783 0
M  V30 963 C 90.302 0.950171 -1.77691 0
M  V30 964 O 89.358 1.73411 -1.83534 0
M  V30 965 C 90.671 -1.39378 -2.66448 0
M  V30 966 C 92.219 -1.39223 -2.80332 0
M  V30 967 C 92.694 -2.24765 -3.99055 0
M  V30 968 N 94.185 -2.22458 -4.06284 0
M  V30 969 C 94.92 -2.85386 -4.97336 0
M  V30 970 N 94.416 -3.57354 -5.93523 0
M  V30 971 N 96.209 -2.74872 -4.90308 0
M  V30 972 H 88.36 -1.78952 -1.14411 0
M  V30 973 H 90.623 -0.763297 -0.562212 0
M  V30 974 H 90.329 -2.44061 -2.53234 0
M  V30 975 H 90.203 -1.0676 -3.61776 0
M  V30 976 H 92.59 -0.353136 -2.92979 0
M  V30 977 H 92.671 -1.75846 -1.85773 0
M  V30 978 H 92.315 -3.28732 -3.87167 0
M  V30 979 H 92.245 -1.85485 -4.92852 0
M  V30 980 H 94.736 -1.70119 -3.37443 0
M  V30 981 H 95.049 -4.02584 -6.59656 0
M  V30 982 H 93.394 -3.61461 -5.93608 0
M  V30 983 H 96.585 -2.18213 -4.14126 0
M  V30 984 H 96.758 -3.24199 -5.61069 0
M  V30 985 N 90.1641 1.46063 -0.591896 0
M  V30 986 C 91.3921 2.06717 -0.0868936 0
M  V30 987 C 91.8071 1.43916 1.22203 0
M  V30 988 O 91.1641 0.547698 1.74088 0
M  V30 989 C 91.2151 3.6142 0.0758725 0
M  V30 990 O 90.9361 4.21874 -1.18126 0
M  V30 991 C 92.4371 4.39025 0.61416 0
M  V30 992 H 89.6571 0.668162 -0.0616518 0
M  V30 993 H 92.2011 1.8755 -0.815175 0
M  V30 994 H 90.3561 3.79983 0.754413 0
M  V30 995 H 90.7701 5.14861 -1.00092 0
M  V30 996 H 92.2441 5.4783 0.677193 0
M  V30 997 H 92.7211 4.07708 1.63312 0
M  V30 998 H 93.3271 4.2529 -0.0298142 0
M  V30 999 N 91.6422 0.330177 1.54103 0
M  V30 1000 C 92.8702 -0.272179 2.05102 0
M  V30 1001 C 93.2852 -1.45267 1.20595 0
M  V30 1002 O 92.6422 -1.8094 0.238144 0
M  V30 1003 C 92.6932 -0.70023 3.54653 0
M  V30 1004 O 92.4142 0.433301 4.35952 0
M  V30 1005 C 93.9152 -1.3647 4.21771 0
M  V30 1006 H 91.1352 -0.0549159 0.668749 0
M  V30 1007 H 93.6792 0.478285 1.98828 0
M  V30 1008 H 91.8342 -1.40066 3.61193 0
M  V30 1009 H 92.2482 0.0947539 5.24414 0
M  V30 1010 H 93.7222 -1.61509 5.27843 0
M  V30 1011 H 94.1992 -2.31409 3.73292 0
M  V30 1012 H 94.8052 -0.706675 4.19388 0
M  V30 1013 N 93.1203 -1.57491 0.0584922 0
M  V30 1014 C 94.3693 -1.92155 -0.613146 0
M  V30 1015 C 94.6823 -0.939334 -1.71569 0
M  V30 1016 O 95.8883 -1.17829 -2.44599 0
M  V30 1017 C 94.3443 -3.41303 -1.14195 0
M  V30 1018 C 93.9523 -4.47944 -0.0711265 0
M  V30 1019 C 95.6963 -3.84988 -1.78841 0
M  V30 1020 C 93.6033 -5.88212 -0.613225 0
M  V30 1021 H 92.5333 -0.717162 -0.232796 0
M  V30 1022 H 95.1843 -1.83049 0.12857 0
M  V30 1023 H 93.5663 -3.45437 -1.93621 0
M  V30 1024 H 94.7403 -4.55408 0.702836 0
M  V30 1025 H 93.0553 -4.13644 0.478313 0
M  V30 1026 H 95.6523 -4.87159 -2.20408 0
M  V30 1027 H 95.9953 -3.21632 -2.64308 0
M  V30 1028 H 96.5283 -3.83401 -1.06059 0
M  V30 1029 H 93.2673 -6.55183 0.203978 0
M  V30 1030 H 92.7873 -5.84294 -1.35501 0
M  V30 1031 H 94.4663 -6.37687 -1.09383 0
M  V30 1032 N 94.5984 0.214957 -1.56127 0
M  V30 1033 C 95.5304 1.29004 -1.89448 0
M  V30 1034 C 96.5434 1.42716 -0.783326 0
M  V30 1035 O 97.7324 1.43496 -1.06166 0
M  V30 1036 C 94.8324 2.66482 -2.09381 0
M  V30 1037 C 94.0054 2.74633 -3.40434 0
M  V30 1038 C 93.0644 3.9317 -3.49719 0
M  V30 1039 O 92.0904 3.812 -4.227 0
M  V30 1040 N 93.2924 5.07765 -2.81346 0
M  V30 1041 H 96.0574 1.00743 -2.82261 0
M  V30 1042 H 93.6184 0.40497 -1.56753 0
M  V30 1043 H 95.6104 3.44173 -2.12901 0
M  V30 1044 H 94.1804 2.87314 -1.23163 0
M  V30 1045 H 93.4004 1.83368 -3.48955 0
M  V30 1046 H 94.6884 2.77054 -4.26754 0
M  V30 1047 H 94.0864 5.20386 -2.21843 0
M  V30 1048 H 92.6434 5.83474 -2.90519 0
M  V30 1049 N 96.0765 1.50051 0.48192 0
M  V30 1050 C 97.3245 1.60181 1.23234 0
M  V30 1051 C 97.6455 0.299176 1.92691 0
M  V30 1052 O 96.9155 -0.682708 1.83619 0
M  V30 1053 H 95.4955 0.590232 0.457859 0
M  V30 1054 H 98.1575 1.86775 0.556881 0
M  V30 1055 H 97.2535 2.40753 1.98607 0
M  V30 1056 N 97.5546 -0.734337 1.39446 0
M  V30 1057 C 98.4646 -1.87879 1.40495 0
M  V30 1058 C 99.4806 -1.714 0.299672 0
M  V30 1059 O 100.657 -1.93991 0.541249 0
M  V30 1060 C 97.7216 -3.23477 1.24754 0
M  V30 1061 C 96.7826 -3.52344 2.45259 0
M  V30 1062 C 96.0156 -4.81473 2.30259 0
M  V30 1063 O 96.2386 -5.55237 1.30643 0
M  V30 1064 O 95.1726 -5.10254 3.19256 0
M  V30 1065 H 98.9986 -1.89949 2.36966 0
M  V30 1066 H 96.5836 -0.882243 1.20569 0
M  V30 1067 H 98.4656 -4.04509 1.18111 0
M  V30 1068 H 97.1406 -3.22176 0.313781 0
M  V30 1069 H 96.0476 -2.71396 2.57478 0
M  V30 1070 H 97.3806 -3.58426 3.37331 0
M  V30 1071 N 99.0327 -1.24633 -0.964593 0
M  V30 1072 C 99.9427 -1.05859 -2.09359 0
M  V30 1073 C 100.959 0.00148855 -1.74 0
M  V30 1074 O 102.135 -0.197346 -2.00431 0
M  V30 1075 C 99.1997 -0.668879 -3.40187 0
M  V30 1076 C 98.2607 -1.80578 -3.89474 0
M  V30 1077 C 97.4937 -1.43457 -5.14058 0
M  V30 1078 O 97.7167 -0.325775 -5.69469 0
M  V30 1079 O 96.6507 -2.2613 -5.57807 0
M  V30 1080 H 100.477 -2.00516 -2.28094 0
M  V30 1081 H 98.0617 -1.03481 -1.0776 0
M  V30 1082 H 99.9437 -0.463211 -4.18846 0
M  V30 1083 H 98.6187 0.248536 -3.22744 0
M  V30 1084 H 97.5257 -2.06623 -3.11862 0
M  V30 1085 H 98.8587 -2.70208 -4.11398 0
M  V30 1086 N 100.511 1.16574 -1.06058 0
M  V30 1087 C 101.76 1.86385 -0.770944 0
M  V30 1088 C 102.073 1.82448 0.705129 0
M  V30 1089 O 103.279 2.47815 1.10905 0
M  V30 1090 C 101.735 3.34466 -1.32893 0
M  V30 1091 C 101.343 3.46883 -2.83507 0
M  V30 1092 C 103.087 4.09548 -1.11672 0
M  V30 1093 C 100.994 4.89036 -3.32562 0
M  V30 1094 H 99.9238 0.698181 -0.284709 0
M  V30 1095 H 102.575 1.31583 -1.27899 0
M  V30 1096 H 100.957 3.88859 -0.748662 0
M  V30 1097 H 102.131 3.02663 -3.47465 0
M  V30 1098 H 100.446 2.85232 -3.03368 0
M  V30 1099 H 103.043 5.14434 -1.45814 0
M  V30 1100 H 103.386 4.16264 -0.0549535 0
M  V30 1101 H 103.919 3.61387 -1.66265 0
M  V30 1102 H 100.658 4.87499 -4.38207 0
M  V30 1103 H 100.178 5.3389 -2.73351 0
M  V30 1104 H 101.857 5.57843 -3.2775 0
M  V30 1105 N 101.989 0.842826 1.3317 0
M  V30 1106 C 103.214 0.453129 2.02389 0
M  V30 1107 C 103.639 -0.939105 1.6298 0
M  V30 1108 O 102.997 -1.61472 0.8244 0
M  V30 1109 C 103.045 0.586094 3.55805 0
M  V30 1110 O 102.149 -0.386029 4.10589 0
M  V30 1111 H 101.49 0.183664 0.638094 0
M  V30 1112 H 104.02 1.13875 1.69981 0
M  V30 1113 H 104.03 0.469209 4.05293 0
M  V30 1114 H 102.705 1.6014 3.83833 0
M  V30 1115 H 101.282 -0.226371 3.72212 0
M  V30 1116 N 103.467 -1.45747 0.599634 0
M  V30 1117 C 104.43 -2.28917 -0.113835 0
M  V30 1118 C 105.43 -1.3933 -0.802729 0
M  V30 1119 O 106.62 -1.61534 -0.652103 0
M  V30 1120 C 103.752 -3.20152 -1.17114 0
M  V30 1121 H 104.945 -2.93478 0.617289 0
M  V30 1122 H 102.498 -1.52137 0.358327 0
M  V30 1123 H 103.233 -2.60374 -1.93329 0
M  V30 1124 H 103.018 -3.86133 -0.681468 0
M  V30 1125 H 104.508 -3.82708 -1.67105 0
M  V30 1126 N 104.945 -0.338344 -1.53925 0
M  V30 1127 C 106.356 0.146651 -1.86123 0
M  V30 1128 C 106.707 1.5042 -1.2597 0
M  V30 1129 O 105.832 2.08723 -0.571294 0
M  V30 1130 C 106.427 0.272879 -3.37699 0
M  V30 1131 C 104.986 0.702103 -3.69794 0
M  V30 1132 C 104.133 -0.167304 -2.76795 0
M  V30 1133 H 107.084 -0.558123 -1.48562 0
M  V30 1134 H 107.105 1.10128 -3.64214 0
M  V30 1135 H 106.617 -0.715307 -3.81451 0
M  V30 1136 H 104.718 1.6995 -3.31584 0
M  V30 1137 H 104.831 0.495604 -4.7653 0
M  V30 1138 H 103.195 0.359527 -2.5215 0
M  V30 1139 H 103.978 -1.15253 -3.23375 0
M  V30 1140 N 106.423 1.57458 -0.0668435 0
M  V30 1141 C 107.672 1.92477 0.602947 0
M  V30 1142 C 107.985 0.948419 1.71068 0
M  V30 1143 O 109.191 1.19124 2.43971 0
M  V30 1144 C 107.647 3.41903 1.12383 0
M  V30 1145 C 107.255 4.47975 0.04737 0
M  V30 1146 C 108.999 3.85931 1.76797 0
M  V30 1147 C 106.906 5.88529 0.582022 0
M  V30 1148 H 105.836 0.718387 0.22899 0
M  V30 1149 H 108.487 1.82978 -0.138276 0
M  V30 1150 H 106.869 3.46459 1.91787 0
M  V30 1151 H 108.043 4.55029 -0.726978 0
M  V30 1152 H 106.358 4.13384 -0.500243 0
M  V30 1153 H 108.955 4.88322 2.17821 0
M  V30 1154 H 109.298 3.23029 2.62599 0
M  V30 1155 H 109.831 3.83958 1.04024 0
M  V30 1156 H 106.57 6.55065 -0.238721 0
M  V30 1157 H 106.09 5.85004 1.324 0
M  V30 1158 H 107.769 6.38258 1.05999 0
M  V30 1159 N 107.901 -0.206675 1.56239 0
M  V30 1160 C 109.141 -0.93574 1.81723 0
M  V30 1161 C 109.505 -1.80927 0.642609 0
M  V30 1162 O 110.706 -2.57323 0.777081 0
M  V30 1163 C 108.977 -1.74012 3.12177 0
M  V30 1164 S 110.536 -2.52279 3.59028 0
M  V30 1165 H 107.354 -0.314065 0.637875 0
M  V30 1166 H 109.956 -0.200071 1.94474 0
M  V30 1167 H 108.66 -1.0888 3.95693 0
M  V30 1168 H 108.191 -2.51782 3.02274 0
M  V30 1169 H 110.206 -3.76209 3.23545 0
M  V30 1170 N 109.379 -1.50304 -0.473955 0
M  V30 1171 C 110.628 -1.60392 -1.22301 0
M  V30 1172 C 110.941 -0.308411 -1.93153 0
M  V30 1173 O 112.147 -0.288156 -2.69966 0
M  V30 1174 C 110.603 -2.83109 -2.2221 0
M  V30 1175 C 110.211 -4.19524 -1.57173 0
M  V30 1176 C 111.955 -3.0254 -2.97775 0
M  V30 1177 C 109.862 -5.33431 -2.55353 0
M  V30 1178 H 108.792 -0.597286 -0.460179 0
M  V30 1179 H 111.443 -1.76731 -0.493803 0
M  V30 1180 H 109.825 -2.60322 -2.9841 0
M  V30 1181 H 110.999 -4.52554 -0.867824 0
M  V30 1182 H 109.314 -4.05674 -0.939002 0
M  V30 1183 H 111.911 -3.84811 -3.71248 0
M  V30 1184 H 112.254 -2.14154 -3.56992 0
M  V30 1185 H 112.787 -3.25494 -2.28688 0
M  V30 1186 H 109.526 -6.23962 -2.00878 0
M  V30 1187 H 109.046 -5.04823 -3.23904 0
M  V30 1188 H 110.725 -5.63887 -3.17239 0
M  V30 1189 N 110.857 0.726932 -1.39834 0
M  V30 1190 C 111.82 1.82269 -1.38962 0
M  V30 1191 C 112.82 1.58248 -0.285334 0
M  V30 1192 O 114.01 1.65499 -0.54366 0
M  V30 1193 C 111.142 3.20186 -1.17019 0
M  V30 1194 H 112.335 1.84443 -2.36476 0
M  V30 1195 H 109.888 0.931416 -1.25516 0
M  V30 1196 H 110.623 3.23669 -0.202204 0
M  V30 1197 H 110.408 3.3902 -1.96998 0
M  V30 1198 H 111.898 4.00235 -1.1917 0
M  V30 1199 N 112.336 1.25143 0.95797 0
M  V30 1200 C 113.747 1.08851 1.51685 0
M  V30 1201 C 114.098 -0.33687 1.93286 0
M  V30 1202 O 113.223 -1.22644 1.7829 0
M  V30 1203 C 113.818 1.96978 2.75654 0
M  V30 1204 C 112.377 1.84881 3.27866 0
M  V30 1205 C 111.524 1.91329 2.0072 0
M  V30 1206 H 114.475 1.38478 0.77522 0
M  V30 1207 H 114.496 1.5078 3.4935 0
M  V30 1208 H 114.008 3.00712 2.45345 0
M  V30 1209 H 112.109 0.840182 3.63004 0
M  V30 1210 H 112.222 2.6951 3.96107 0
M  V30 1211 H 110.586 1.35174 2.15871 0
M  V30 1212 H 111.369 2.96661 1.72764 0
M  V30 1213 N 113.814 -1.1601 1.06675 0
M  V30 1214 C 115.042 -1.90527 0.806667 0
M  V30 1215 C 115.457 -1.77643 -0.639396 0
M  V30 1216 O 114.814 -1.12369 -1.43803 0
M  V30 1217 C 114.865 -3.41106 1.19705 0
M  V30 1218 O 114.586 -3.53608 2.58636 0
M  V30 1219 C 116.087 -4.32663 0.965266 0
M  V30 1220 H 113.307 -0.604053 0.292166 0
M  V30 1221 H 115.851 -1.47026 1.4214 0
M  V30 1222 H 114.006 -3.82296 0.626774 0
M  V30 1223 H 114.42 -4.47011 2.74375 0
M  V30 1224 H 115.894 -5.36763 1.288 0
M  V30 1225 H 116.371 -4.39089 -0.0987936 0
M  V30 1226 H 116.977 -3.97206 1.52011 0
M  V30 1227 N 115.292 -0.849877 -1.32721 0
M  V30 1228 C 116.54 -0.450032 -1.97026 0
M  V30 1229 C 116.861 0.996604 -1.67609 0
M  V30 1230 O 116.131 1.6958 -0.980786 0
M  V30 1231 H 114.711 -0.163426 -0.728904 0
M  V30 1232 H 117.373 -1.08526 -1.6189 0
M  V30 1233 H 116.469 -0.591146 -3.0645 0
M  V30 1234 N 116.77 1.45427 -0.607355 0
M  V30 1235 C 118.017 2.02241 -0.102455 0
M  V30 1236 C 118.345 1.4758 1.26691 0
M  V30 1237 O 117.6 0.640468 1.84923 0
M  V30 1238 C 117.899 3.57398 -0.0129263 0
M  V30 1239 C 117.565 4.3121 -1.31792 0
M  V30 1240 C 116.227 4.51092 -1.67539 0
M  V30 1241 C 118.579 4.73401 -2.18039 0
M  V30 1242 C 115.907 5.10422 -2.89285 0
M  V30 1243 C 118.259 5.34078 -3.39034 0
M  V30 1244 C 116.923 5.52184 -3.75033 0
M  V30 1245 H 116.193 0.740051 -0.037491 0
M  V30 1246 H 118.84 1.74494 -0.788926 0
M  V30 1247 H 117.145 3.84421 0.756806 0
M  V30 1248 H 118.842 3.99061 0.393881 0
M  V30 1249 H 115.432 4.16047 -1.02968 0
M  V30 1250 H 119.616 4.57774 -1.91721 0
M  V30 1251 H 114.872 5.22629 -3.17283 0
M  V30 1252 H 119.046 5.65724 -4.06115 0
M  V30 1253 H 116.673 5.97925 -4.69457 0
M  V30 1254 N 118.248 0.346503 1.53744 0
M  V30 1255 C 119.198 -0.524953 2.21874 0
M  V30 1256 C 120.182 -1.06376 1.20718 0
M  V30 1257 O 121.374 -0.996972 1.46251 0
M  V30 1258 C 118.503 -1.6739 2.99726 0
M  V30 1259 C 117.589 -1.14888 4.08242 0
M  V30 1260 N 117.98 -0.345329 5.0462 0
M  V30 1261 C 116.278 -1.4255 4.22606 0
M  V30 1262 C 116.979 -0.0600706 5.81669 0
M  V30 1263 N 115.955 -0.65252 5.39669 0
M  V30 1264 H 119.757 0.0960091 2.93743 0
M  V30 1265 H 117.271 0.15352 1.61673 0
M  V30 1266 H 119.268 -2.3102 3.47038 0
M  V30 1267 H 117.928 -2.29811 2.29384 0
M  V30 1268 H 118.939 0.0138439 5.17898 0
M  V30 1269 H 115.616 -2.05389 3.63486 0
M  V30 1270 H 117.006 0.588321 6.69319 0
M  V30 1271 N 119.726 -1.57421 0.075193 0
M  V30 1272 C 120.966 -1.95495 -0.596757 0
M  V30 1273 C 121.33 -0.954886 -1.66571 0
M  V30 1274 O 122.531 -1.22341 -2.39345 0
M  V30 1275 C 120.802 -3.382 -1.15566 0
M  V30 1276 S 122.361 -3.98254 -1.84226 0
M  V30 1277 H 119.179 -0.683649 -0.195307 0
M  V30 1278 H 121.781 -1.94925 0.149859 0
M  V30 1279 H 120.485 -4.08766 -0.36588 0
M  V30 1280 H 120.016 -3.42321 -1.93856 0
M  V30 1281 H 122.031 -3.85435 -3.12497 0
M  V30 1282 N 121.204 0.198386 -1.56346 0
M  V30 1283 C 122.134 1.24865 -1.9731 0
M  V30 1284 C 123.115 1.47651 -0.844576 0
M  V30 1285 O 124.3 1.59444 -1.10866 0
M  V30 1286 C 121.43 2.59358 -2.30977 0
M  V30 1287 C 120.384 2.5119 -3.46537 0
M  V30 1288 C 119.71 3.89926 -3.65871 0
M  V30 1289 C 121.01 2.03977 -4.80823 0
M  V30 1290 H 122.704 0.908252 -2.85291 0
M  V30 1291 H 120.25 0.435462 -1.37258 0
M  V30 1292 H 122.203 3.33011 -2.58228 0
M  V30 1293 H 120.927 2.95132 -1.39874 0
M  V30 1294 H 119.586 1.79993 -3.19371 0
M  V30 1295 H 119.234 4.23046 -2.72105 0
M  V30 1296 H 118.934 3.85336 -4.4361 0
M  V30 1297 H 120.458 4.65205 -3.95495 0
M  V30 1298 H 121.872 2.67386 -5.07127 0
M  V30 1299 H 120.269 2.10397 -5.62008 0
M  V30 1300 H 121.339 0.992861 -4.74626 0
M  V30 1301 N 122.682 1.50554 0.465978 0
M  V30 1302 C 123.928 1.62038 1.21949 0
M  V30 1303 C 124.261 0.322116 1.9151 0
M  V30 1304 O 123.536 -0.676723 1.82348 0
M  V30 1305 C 123.819 2.80421 2.25912 0
M  V30 1306 C 123.672 4.20144 1.60622 0
M  V30 1307 C 124.991 2.94354 3.27176 0
M  V30 1308 H 122.11 0.589752 0.441998 0
M  V30 1309 H 124.752 1.82956 0.51257 0
M  V30 1310 H 122.902 2.62717 2.86203 0
M  V30 1311 H 124.574 4.49449 1.03889 0
M  V30 1312 H 122.817 4.24165 0.909211 0
M  V30 1313 H 123.488 4.98914 2.36196 0
M  V30 1314 H 125.964 3.10578 2.76913 0
M  V30 1315 H 124.84 3.788 3.97242 0
M  V30 1316 H 125.101 2.05186 3.916 0
M  V30 1317 N 124.16 -0.719506 1.40217 0
M  V30 1318 C 125.406 -1.48034 1.39491 0
M  V30 1319 C 125.761 -1.92399 -0.00443536 0
M  V30 1320 O 125.054 -1.64993 -0.974061 0
M  V30 1321 C 125.248 -2.72271 2.31524 0
M  V30 1322 C 125.077 -2.40055 3.80268 0
M  V30 1323 C 123.847 -2.31588 4.49105 0
M  V30 1324 C 126.045 -2.04581 4.71859 0
M  V30 1325 N 124.027 -1.92006 5.83101 0
M  V30 1326 C 125.398 -1.75568 5.94623 0
M  V30 1327 C 127.453 -1.91183 4.59732 0
M  V30 1328 C 126.156 -1.34505 7.06612 0
M  V30 1329 C 128.182 -1.51524 5.71659 0
M  V30 1330 C 127.544 -1.23406 6.93506 0
M  V30 1331 H 123.643 -0.539927 0.565688 0
M  V30 1332 H 126.227 -0.834764 1.75897 0
M  V30 1333 H 124.398 -3.34584 1.97251 0
M  V30 1334 H 126.13 -3.38584 2.21682 0
M  V30 1335 H 122.885 -2.49199 4.02737 0
M  V30 1336 H 123.309 -1.74764 6.54054 0
M  V30 1337 H 127.951 -2.11584 3.66049 0
M  V30 1338 H 125.669 -1.12846 8.00182 0
M  V30 1339 H 129.255 -1.41741 5.6427 0
M  V30 1340 H 128.135 -0.931788 7.78645 0
M  V30 1341 N 125.638 -1.25649 -0.95132 0
M  V30 1342 C 127.049 -1.09654 -1.51106 0
M  V30 1343 C 127.4 0.326615 -1.93462 0
M  V30 1344 O 126.525 1.21697 -1.78938 0
M  V30 1345 C 127.12 -1.98437 -2.74605 0
M  V30 1346 C 125.679 -1.86618 -3.2688 0
M  V30 1347 C 124.826 -1.9239 -1.99703 0
M  V30 1348 H 127.777 -1.38887 -0.767865 0
M  V30 1349 H 127.798 -1.5263 -3.48546 0
M  V30 1350 H 127.31 -3.02009 -2.43746 0
M  V30 1351 H 125.411 -0.859421 -3.62553 0
M  V30 1352 H 125.524 -2.71607 -3.94673 0
M  V30 1353 H 123.888 -1.36317 -2.15151 0
M  V30 1354 H 124.671 -2.97573 -1.71188 0
M  V30 1355 N 127.117 1.15442 -1.07289 0
M  V30 1356 C 128.394 1.82306 -0.708792 0
M  V30 1357 C 128.774 1.94991 0.808807 0
M  V30 1358 O 128.122 1.50085 1.72298 0
M  V30 1359 C 128.332 3.18695 -1.42247 0
M  V30 1360 C 129.68 3.94341 -1.57417 0
M  V30 1361 O 130.704 3.28247 -1.38319 0
M  V30 1362 O 129.563 5.12839 -1.88834 0
M  V30 1363 H 126.657 0.787628 -0.252132 0
M  V30 1364 H 129.203 1.22559 -1.17377 0
M  V30 1365 H 127.975 3.04557 -2.45684 0
M  V30 1366 H 127.598 3.86128 -0.948223 0
M  V30 1367 N 128.595 0.856903 1.32268 0
M  V30 1368 C 129.843 0.460474 1.96784 0
M  V30 1369 C 130.164 -0.987701 1.68135 0
M  V30 1370 O 129.434 -1.69058 0.989765 0
M  V30 1371 H 128.014 0.167289 0.728027 0
M  V30 1372 H 130.676 1.09383 1.61312 0
M  V30 1373 H 129.772 0.60739 3.06133 0
M  V30 1374 N 130.073 -1.45103 0.615059 0
M  V30 1375 C 130.983 -2.34382 -0.101034 0
M  V30 1376 C 131.999 -1.51681 -0.852585 0
M  V30 1377 O 133.175 -1.8446 -0.808484 0
M  V30 1378 C 130.24 -3.29417 -1.08099 0
M  V30 1379 C 129.301 -4.28025 -0.330577 0
M  V30 1380 C 128.534 -5.1852 -1.26385 0
M  V30 1381 O 128.757 -5.12598 -2.50198 0
M  V30 1382 O 127.691 -5.97122 -0.756866 0
M  V30 1383 H 131.517 -2.97033 0.632855 0
M  V30 1384 H 129.102 -1.4461 0.375293 0
M  V30 1385 H 130.984 -3.87958 -1.6452 0
M  V30 1386 H 129.659 -2.69321 -1.79577 0
M  V30 1387 H 128.566 -3.73078 0.276283 0
M  V30 1388 H 129.899 -4.90997 0.343866 0
M  V30 1389 N 131.551 -0.354651 -1.53558 0
M  V30 1390 C 132.484 0.540273 -2.21712 0
M  V30 1391 C 133.462 1.09161 -1.2051 0
M  V30 1392 O 134.646 1.14979 -1.49372 0
M  V30 1393 C 131.773 1.74435 -2.90328 0
M  V30 1394 C 130.819 1.32146 -4.05512 0
M  V30 1395 S 131.652 0.331924 -5.3447 0
M  V30 1396 C 132.808 1.54258 -6.06593 0
M  V30 1397 H 133.041 -0.0385776 -2.97275 0
M  V30 1398 H 130.574 -0.138736 -1.53775 0
M  V30 1399 H 132.532 2.43507 -3.30476 0
M  V30 1400 H 131.193 2.29444 -2.1451 0
M  V30 1401 H 130.386 2.21952 -4.52497 0
M  V30 1402 H 129.988 0.710091 -3.67197 0
M  V30 1403 H 132.28 2.47534 -6.30661 0
M  V30 1404 H 133.223 1.11431 -6.99277 0
M  V30 1405 H 133.631 1.74367 -5.36895 0
M  V30 1406 N 133.029 1.57378 -0.0835403 0
M  V30 1407 C 134.254 1.98682 0.594987 0
M  V30 1408 C 134.679 0.961969 1.61641 0
M  V30 1409 O 134.037 -0.0709989 1.81161 0
M  V30 1410 C 134.085 3.38988 1.2296 0
M  V30 1411 O 133.189 3.39208 2.34546 0
M  V30 1412 H 132.53 0.646368 0.152002 0
M  V30 1413 H 135.06 2.03961 -0.161533 0
M  V30 1414 H 135.07 3.76431 1.57366 0
M  V30 1415 H 133.745 4.13107 0.481228 0
M  V30 1416 H 132.322 3.13548 2.01846 0
M  V30 1417 N 134.507 -0.190092 1.56449 0
M  V30 1418 C 135.735 -0.925772 1.85033 0
M  V30 1419 C 136.15 -1.76638 0.666658 0
M  V30 1420 O 135.507 -1.78822 -0.364565 0
M  V30 1421 C 135.558 -1.81786 3.12468 0
M  V30 1422 O 135.279 -1.01118 4.26271 0
M  V30 1423 C 136.78 -2.6648 3.54265 0
M  V30 1424 H 134 -0.269872 0.614337 0
M  V30 1425 H 136.544 -0.195837 2.0356 0
M  V30 1426 H 134.699 -2.50136 2.95822 0
M  V30 1427 H 135.113 -1.61956 4.98869 0
M  V30 1428 H 136.587 -3.24722 4.46385 0
M  V30 1429 H 137.064 -3.40434 2.77491 0
M  V30 1430 H 137.67 -2.03493 3.73458 0
M  V30 1431 N 135.985 -1.50799 -0.457987 0
M  V30 1432 C 136.948 -1.7005 -1.53674 0
M  V30 1433 C 137.948 -0.570881 -1.50325 0
M  V30 1434 O 139.138 -0.838126 -1.52712 0
M  V30 1435 C 136.27 -1.73788 -2.93276 0
M  V30 1436 H 137.463 -2.66306 -1.37917 0
M  V30 1437 H 135.016 -1.40477 -0.685271 0
M  V30 1438 H 135.751 -0.792717 -3.14462 0
M  V30 1439 H 135.536 -2.55864 -2.97113 0
M  V30 1440 H 137.026 -1.90591 -3.71571 0
M  V30 1441 N 137.463 0.71206 -1.40597 0
M  V30 1442 C 138.879 1.02058 -1.22704 0
M  V30 1443 C 139.079 2.01228 -0.104729 0
M  V30 1444 O 138.135 2.4674 0.53624 0
M  V30 1445 C 139.448 1.56094 -2.57012 0
M  V30 1446 C 140.996 1.6806 -2.64054 0
M  V30 1447 C 141.471 2.25501 -3.9864 0
M  V30 1448 N 142.962 2.32882 -4.004 0
M  V30 1449 C 143.697 2.78317 -5.01325 0
M  V30 1450 N 143.193 3.23478 -6.12645 0
M  V30 1451 N 144.986 2.77733 -4.88693 0
M  V30 1452 H 137.137 0.0547896 -2.12329 0
M  V30 1453 H 139.4 0.0869027 -0.944008 0
M  V30 1454 H 139.106 0.906865 -3.39807 0
M  V30 1455 H 138.98 2.54564 -2.78347 0
M  V30 1456 H 141.367 2.32583 -1.81629 0
M  V30 1457 H 141.448 0.681802 -2.46546 0
M  V30 1458 H 141.092 1.61598 -4.81506 0
M  V30 1459 H 141.022 3.26102 -4.13479 0
M  V30 1460 H 143.513 2.00991 -3.20017 0
M  V30 1461 H 143.826 3.56725 -6.85542 0
M  V30 1462 H 142.171 3.21429 -6.16205 0
M  V30 1463 H 145.362 2.4179 -4.00818 0
M  V30 1464 H 145.535 3.12826 -5.67489 0
M  V30 1465 N 138.941 1.26152 0.944643 0
M  V30 1466 C 139.904 1.07474 2.0244 0
M  V30 1467 C 140.904 0.0242064 1.60782 0
M  V30 1468 O 142.094 0.267302 1.72137 0
M  V30 1469 C 139.226 0.633956 3.34953 0
M  V30 1470 H 140.419 2.03336 2.20442 0
M  V30 1471 H 137.972 1.087 1.12312 0
M  V30 1472 H 138.707 -0.326811 3.22649 0
M  V30 1473 H 138.492 1.39247 3.66542 0
M  V30 1474 H 139.982 0.52501 4.14287 0
M  V30 1475 N 140.419 -1.14872 1.07899 0
M  V30 1476 C 141.382 -2.17986 0.708161 0
M  V30 1477 C 142.382 -1.58775 -0.25442 0
M  V30 1478 O 143.572 -1.74166 -0.034645 0
M  V30 1479 C 140.704 -3.40871 0.0446929 0
M  V30 1480 H 141.897 -2.52306 1.62116 0
M  V30 1481 H 139.45 -1.2943 0.876218 0
M  V30 1482 H 140.185 -3.12124 -0.880281 0
M  V30 1483 H 139.97 -3.8511 0.737091 0
M  V30 1484 H 141.46 -4.17121 -0.19991 0
M  V30 1485 N 141.898 -0.863906 -1.31812 0
M  V30 1486 C 142.83 -0.272485 -2.27575 0
M  V30 1487 C 143.843 0.56104 -1.52827 0
M  V30 1488 O 145.032 0.384021 -1.7432 0
M  V30 1489 C 142.132 0.63283 -3.32939 0
M  V30 1490 C 141.305 -0.166902 -4.37081 0
M  V30 1491 C 140.364 0.665608 -5.21973 0
M  V30 1492 O 139.39 0.0958091 -5.69119 0
M  V30 1493 N 140.592 1.9787 -5.45736 0
M  V30 1494 H 143.357 -1.0954 -2.78964 0
M  V30 1495 H 140.918 -0.724791 -1.4477 0
M  V30 1496 H 142.91 1.19532 -3.86645 0
M  V30 1497 H 141.48 1.35642 -2.81638 0
M  V30 1498 H 140.7 -0.910838 -3.83533 0
M  V30 1499 H 141.988 -0.715874 -5.03739 0
M  V30 1500 H 141.386 2.46484 -5.09178 0
M  V30 1501 H 139.943 2.48911 -6.024 0
M  V30 1502 N 143.376 1.44774 -0.622745 0
M  V30 1503 C 144.339 2.29069 0.0774015 0
M  V30 1504 C 145.339 1.4059 0.780461 0
M  V30 1505 O 146.529 1.62551 0.626322 0
M  V30 1506 C 143.661 3.21974 1.12006 0
M  V30 1507 H 144.854 2.92459 -0.663901 0
M  V30 1508 H 142.407 1.51548 -0.382486 0
M  V30 1509 H 143.142 2.63417 1.89162 0
M  V30 1510 H 142.927 3.87168 0.619951 0
M  V30 1511 H 144.417 3.85318 1.60995 0
M  V30 1512 N 144.854 0.36279 1.53368 0
M  V30 1513 C 145.817 -0.472679 2.24273 0
M  V30 1514 C 146.817 -1.012 1.24961 0
M  V30 1515 O 148.007 -0.898194 1.49259 0
M  V30 1516 C 145.139 -1.66039 2.97731 0
M  V30 1517 H 146.332 0.14773 2.99536 0
M  V30 1518 H 143.885 0.114434 1.55881 0
M  V30 1519 H 144.62 -2.31896 2.26704 0
M  V30 1520 H 144.405 -1.28066 3.70596 0
M  V30 1521 H 145.895 -2.25252 3.51641 0
M  V30 1522 N 146.332 -1.57332 0.0918853 0
M  V30 1523 C 147.58 -1.93853 -0.571446 0
M  V30 1524 C 147.901 -0.974212 -1.6892 0
M  V30 1525 O 147.171 -0.0257254 -1.95883 0
M  V30 1526 H 145.751 -0.715666 -0.214082 0
M  V30 1527 H 148.413 -1.94287 0.154464 0
M  V30 1528 H 147.509 -2.96191 -0.983729 0
M  V30 1529 N 147.81 0.181792 -1.56548 0
M  V30 1530 C 149.059 0.898348 -1.8059 0
M  V30 1531 C 149.372 1.83862 -0.667379 0
M  V30 1532 O 150.578 2.59678 -0.792446 0
M  V30 1533 C 149.034 1.64791 -3.19956 0
M  V30 1534 C 148.642 0.751789 -4.41647 0
M  V30 1535 C 150.386 2.35331 -3.53298 0
M  V30 1536 C 148.293 1.50098 -5.72035 0
M  V30 1537 H 147.223 0.339194 -0.673397 0
M  V30 1538 H 149.874 0.151413 -1.82874 0
M  V30 1539 H 148.256 2.43921 -3.11959 0
M  V30 1540 H 149.43 -0.0018076 -4.608 0
M  V30 1541 H 147.745 0.156562 -4.16106 0
M  V30 1542 H 150.342 2.91958 -4.47956 0
M  V30 1543 H 150.685 3.10164 -2.77676 0
M  V30 1544 H 151.218 1.63154 -3.62803 0
M  V30 1545 H 147.957 0.795175 -6.50659 0
M  V30 1546 H 147.477 2.22817 -5.56878 0
M  V30 1547 H 149.156 2.05125 -6.13622 0
M  V30 1548 N 149.288 1.51039 0.449983 0
M  V30 1549 C 150.528 1.64732 1.21007 0
M  V30 1550 C 150.892 0.349865 1.88785 0
M  V30 1551 O 152.093 0.362431 2.66345 0
M  V30 1552 C 150.364 2.80902 2.20973 0
M  V30 1553 S 151.923 3.14851 3.05638 0
M  V30 1554 H 148.741 0.5805 0.410538 0
M  V30 1555 H 151.343 1.88901 0.503634 0
M  V30 1556 H 150.047 3.73627 1.69796 0
M  V30 1557 H 149.578 2.58882 2.96215 0
M  V30 1558 H 151.593 2.60306 4.22439 0
M  V30 1559 N 150.766 -0.704594 1.40972 0
M  V30 1560 C 151.996 -1.49138 1.42974 0
M  V30 1561 C 152.404 -1.89175 0.0308406 0
M  V30 1562 O 151.747 -1.56734 -0.958138 0
M  V30 1563 C 151.809 -2.79016 2.26694 0
M  V30 1564 C 151.473 -2.61236 3.74973 0
M  V30 1565 C 152.47 -2.27773 4.67349 0
M  V30 1566 C 150.155 -2.77158 4.18914 0
M  V30 1567 C 152.149 -2.10457 6.01653 0
M  V30 1568 C 149.836 -2.59459 5.53285 0
M  V30 1569 C 150.834 -2.26158 6.4447 0
M  V30 1570 O 150.522 -2.08605 7.76363 0
M  V30 1571 H 150.254 -0.466443 0.489292 0
M  V30 1572 H 152.808 -0.8758 1.85793 0
M  V30 1573 H 151.038 -3.42947 1.78673 0
M  V30 1574 H 152.727 -3.40782 2.20504 0
M  V30 1575 H 153.493 -2.15095 4.34694 0
M  V30 1576 H 149.372 -3.02064 3.48251 0
M  V30 1577 H 152.916 -1.84387 6.72791 0
M  V30 1578 H 148.813 -2.71725 5.85522 0
M  V30 1579 H 149.581 -2.23439 7.87412 0
M  V30 1580 N 152.244 -1.26651 -0.937939 0
M  V30 1581 C 153.493 -1.11775 -1.67897 0
M  V30 1582 C 153.806 0.33794 -1.92659 0
M  V30 1583 O 155.012 0.607434 -2.64618 0
M  V30 1584 C 153.468 -1.9523 -3.02346 0
M  V30 1585 C 153.076 -3.45393 -2.8532 0
M  V30 1586 C 154.82 -1.88972 -3.80118 0
M  V30 1587 C 152.727 -4.21083 -4.15263 0
M  V30 1588 H 151.657 -0.414696 -0.629717 0
M  V30 1589 H 154.308 -1.50988 -1.04283 0
M  V30 1590 H 152.69 -1.48853 -3.66959 0
M  V30 1591 H 153.864 -3.99561 -2.29537 0
M  V30 1592 H 152.179 -3.52921 -2.20988 0
M  V30 1593 H 154.776 -2.42805 -4.76392 0
M  V30 1594 H 155.119 -0.86113 -4.07296 0
M  V30 1595 H 155.652 -2.33189 -3.22285 0
M  V30 1596 H 152.391 -5.24425 -3.93267 0
M  V30 1597 H 151.911 -3.71695 -4.70747 0
M  V30 1598 H 153.59 -4.29706 -4.83696 0
M  V30 1599 N 153.722 1.14298 -1.08507 0
M  V30 1600 C 154.95 1.89219 -0.836876 0
M  V30 1601 C 155.365 1.78638 0.611054 0
M  V30 1602 O 154.722 1.14643 1.41998 0
M  V30 1603 C 154.773 3.39158 -1.25116 0
M  V30 1604 O 154.494 3.49449 -2.64229 0
M  V30 1605 C 155.995 4.31073 -1.03398 0
M  V30 1606 H 153.215 0.599328 -0.301739 0
M  V30 1607 H 155.759 1.44746 -1.44461 0
M  V30 1608 H 153.914 3.81251 -0.687514 0
M  V30 1609 H 154.328 4.42589 -2.81452 0
M  V30 1610 H 155.802 5.34646 -1.37323 0
M  V30 1611 H 156.279 4.3919 0.0289259 0
M  V30 1612 H 156.885 3.94738 -1.58311 0
M  V30 1613 N 155.201 0.870884 1.31352 0
M  V30 1614 C 156.426 0.495957 2.01383 0
M  V30 1615 C 156.851 -0.904324 1.64935 0
M  V30 1616 O 156.209 -1.59687 0.858466 0
M  V30 1617 C 156.257 0.661433 3.54482 0
M  V30 1618 O 155.361 -0.298851 4.11316 0
M  V30 1619 H 154.702 0.197158 0.634054 0
M  V30 1620 H 157.232 1.17455 1.67527 0
M  V30 1621 H 157.242 0.555072 4.04207 0
M  V30 1622 H 155.917 1.68246 3.8035 0
M  V30 1623 H 154.494 -0.147368 3.72609 0
M  V30 1624 N 156.679 -1.44442 0.630414 0
M  V30 1625 C 157.907 -2.06414 0.141671 0
M  V30 1626 C 158.322 -1.47105 -1.18345 0
M  V30 1627 O 157.679 -0.593662 -1.72574 0
M  V30 1628 C 157.73 -3.61494 0.0199784 0
M  V30 1629 O 157.451 -4.18594 1.29269 0
M  V30 1630 C 158.952 -4.40499 -0.497544 0
M  V30 1631 H 156.172 -0.666292 0.0793452 0
M  V30 1632 H 158.716 -1.85323 0.864614 0
M  V30 1633 H 156.871 -3.8185 -0.653402 0
M  V30 1634 H 157.285 -5.12026 1.13707 0
M  V30 1635 H 158.759 -5.49433 -0.531708 0
M  V30 1636 H 159.236 -4.11895 -1.52445 0
M  V30 1637 H 159.842 -4.25061 0.142562 0
M  V30 1638 N 158.157 -0.370918 -1.53173 0
M  V30 1639 C 159.404 0.217102 -2.01333 0
M  V30 1640 C 159.732 1.48338 -1.25802 0
M  V30 1641 O 158.987 1.92698 -0.34146 0
M  V30 1642 C 159.286 0.549696 -3.53147 0
M  V30 1643 C 158.952 -0.622872 -4.46577 0
M  V30 1644 C 157.614 -0.944595 -4.71838 0
M  V30 1645 C 159.966 -1.40819 -5.01816 0
M  V30 1646 C 157.294 -2.05351 -5.49589 0
M  V30 1647 C 159.646 -2.50757 -5.80778 0
M  V30 1648 C 158.31 -2.83458 -6.04324 0
M  V30 1649 H 157.58 0.0794431 -0.736729 0
M  V30 1650 H 160.227 -0.504481 -1.84736 0
M  V30 1651 H 158.532 1.35237 -3.6772 0
M  V30 1652 H 160.229 1.017 -3.87889 0
M  V30 1653 H 156.819 -0.36209 -4.27068 0
M  V30 1654 H 161.003 -1.17289 -4.82242 0
M  V30 1655 H 156.259 -2.3108 -5.6605 0
M  V30 1656 H 160.433 -3.12022 -6.22588 0
M  V30 1657 H 158.06 -3.69508 -6.64355 0
M  V30 1658 N 159.635 1.57281 -0.100228 0
M  V30 1659 C 160.598 2.13158 0.842398 0
M  V30 1660 C 161.598 1.06202 1.20738 0
M  V30 1661 O 162.788 1.32066 1.13597 0
M  V30 1662 C 159.92 2.65639 2.13655 0
M  V30 1663 H 161.113 2.97766 0.357114 0
M  V30 1664 H 158.666 1.5559 0.148823 0
M  V30 1665 H 159.401 1.84566 2.66657 0
M  V30 1666 H 159.186 3.43844 1.88451 0
M  V30 1667 H 160.676 3.08846 2.81077 0
M  V30 1668 N 161.113 -0.173488 1.56642 0
M  V30 1669 C 162.338 -0.910149 1.86363 0
M  V30 1670 C 162.763 -1.75132 0.686318 0
M  V30 1671 O 162.121 -1.77595 -0.364643 0
M  V30 1672 C 162.169 -1.76447 3.14482 0
M  V30 1673 O 161.273 -2.86584 2.96553 0
M  V30 1674 H 160.614 -0.255086 0.613047 0
M  V30 1675 H 163.144 -0.172283 2.03873 0
M  V30 1676 H 163.154 -2.16483 3.45831 0
M  V30 1677 H 161.829 -1.14658 3.99783 0
M  V30 1678 H 160.406 -2.50146 2.76553 0
M  V30 1679 N 162.591 -1.51276 -0.441967 0
M  V30 1680 C 163.831 -1.65372 -1.20132 0
M  V30 1681 C 164.195 -0.359871 -1.88597 0
M  V30 1682 O 165.396 -0.376551 -2.66149 0
M  V30 1683 C 163.667 -2.8207 -2.1948 0
M  V30 1684 S 165.226 -3.16467 -3.03964 0
M  V30 1685 H 162.044 -0.582669 -0.407453 0
M  V30 1686 H 164.646 -1.89166 -0.493609 0
M  V30 1687 H 163.35 -3.74523 -1.67812 0
M  V30 1688 H 162.881 -2.6045 -2.94838 0
M  V30 1689 H 164.896 -2.62543 -4.21053 0
M  V30 1690 N 164.069 0.697108 -1.41344 0
M  V30 1691 C 165.294 1.49096 -1.44171 0
M  V30 1692 C 165.719 1.88038 -0.0481568 0
M  V30 1693 O 165.077 1.54525 0.948243 0
M  V30 1694 C 165.125 2.73088 -2.3549 0
M  V30 1695 O 164.229 3.70514 -1.81088 0
M  V30 1696 H 163.57 0.448801 -0.489361 0
M  V30 1697 H 166.1 0.856992 -1.85787 0
M  V30 1698 H 166.11 3.21413 -2.51312 0
M  V30 1699 H 164.785 2.44081 -3.36745 0
M  V30 1700 H 163.362 3.29441 -1.74708 0
M  V30 1701 N 165.547 1.27147 0.931209 0
M  V30 1702 C 166.477 1.12081 2.04842 0
M  V30 1703 C 167.458 0.0232364 1.70084 0
M  V30 1704 O 168.643 0.197085 1.93197 0
M  V30 1705 C 165.773 0.76354 3.38803 0
M  V30 1706 C 164.727 1.81396 3.87659 0
M  V30 1707 C 164.053 1.31075 5.18385 0
M  V30 1708 C 165.353 3.21739 4.11438 0
M  V30 1709 H 167.047 2.05537 2.17703 0
M  V30 1710 H 164.593 0.989603 1.04608 0
M  V30 1711 H 166.546 0.644982 4.16435 0
M  V30 1712 H 165.27 -0.206727 3.25945 0
M  V30 1713 H 163.929 1.92136 3.12217 0
M  V30 1714 H 163.577 0.330037 5.01916 0
M  V30 1715 H 163.277 2.013 5.52044 0
M  V30 1716 H 164.801 1.20506 5.98591 0
M  V30 1717 H 166.215 3.14019 4.79651 0
M  V30 1718 H 164.612 3.89644 4.56397 0
M  V30 1719 H 165.682 3.67054 3.16859 0
M  V30 1720 N 167.025 -1.13721 1.09112 0
M  V30 1721 C 167.935 -2.22638 0.73957 0
M  V30 1722 C 168.951 -1.72091 -0.257068 0
M  V30 1723 O 170.127 -2.01155 -0.0992154 0
M  V30 1724 C 167.192 -3.46322 0.16191 0
M  V30 1725 C 166.253 -4.11775 1.21408 0
M  V30 1726 C 165.486 -5.29555 0.663891 0
M  V30 1727 O 165.709 -5.68077 -0.514274 0
M  V30 1728 O 164.643 -5.84973 1.41738 0
M  V30 1729 H 168.469 -2.55074 1.64836 0
M  V30 1730 H 166.054 -1.21791 0.865289 0
M  V30 1731 H 167.936 -4.21107 -0.157073 0
M  V30 1732 H 166.611 -3.15593 -0.719932 0
M  V30 1733 H 165.518 -3.3883 1.58571 0
M  V30 1734 H 166.851 -4.46627 2.06845 0
M  V30 1735 N 168.503 -0.877838 -1.30888 0
M  V30 1736 C 169.78 -0.413052 -1.91189 0
M  V30 1737 C 170.16 1.1056 -1.79832 0
M  V30 1738 O 169.508 1.93771 -1.21099 0
M  V30 1739 C 169.718 -0.903191 -3.3711 0
M  V30 1740 C 171.066 -0.93395 -4.14201 0
M  V30 1741 O 172.09 -0.849373 -3.45925 0
M  V30 1742 O 170.949 -1.05772 -5.36167 0
M  V30 1743 H 168.043 -0.125035 -0.817493 0
M  V30 1744 H 170.589 -0.966269 -1.39504 0
M  V30 1745 H 169.361 -1.94692 -3.39427 0
M  V30 1746 H 168.984 -0.328732 -3.96239 0
M  V30 1747 N 169.982 1.44106 -0.638065 0
M  V30 1748 C 171.231 2.01194 -0.142744 0
M  V30 1749 C 171.544 1.50835 1.24532 0
M  V30 1750 O 172.75 2.00096 1.83504 0
M  V30 1751 C 171.206 3.59319 -0.20442 0
M  V30 1752 C 170.814 4.18674 -1.59423 0
M  V30 1753 C 172.558 4.23854 0.234079 0
M  V30 1754 C 170.465 5.69045 -1.61065 0
M  V30 1755 H 169.395 0.752367 -0.0495998 0
M  V30 1756 H 172.046 1.65246 -0.797881 0
M  V30 1757 H 170.428 3.92598 0.517946 0
M  V30 1758 H 171.602 3.96921 -2.34074 0
M  V30 1759 H 169.917 3.66453 -1.97741 0
M  V30 1760 H 172.514 5.34155 0.241443 0
M  V30 1761 H 172.857 3.96688 1.2627 0
M  V30 1762 H 173.39 3.95403 -0.436025 0
M  V30 1763 H 170.129 6.00956 -2.61787 0
M  V30 1764 H 169.649 5.929 -0.90718 0
M  V30 1765 H 171.328 6.32809 -1.34766 0
M  V30 1766 N 171.46 0.379036 1.52974 0
M  V30 1767 C 172.706 -0.206727 2.01744 0
M  V30 1768 C 173.039 -1.47314 1.26539 0
M  V30 1769 O 172.314 -1.91084 0.362903 0
M  V30 1770 C 172.597 -0.485066 3.56818 0
M  V30 1771 C 172.45 0.795919 4.42702 0
M  V30 1772 C 173.769 -1.28003 4.21074 0
M  V30 1773 H 170.888 -0.0736607 0.73331 0
M  V30 1774 H 173.53 0.506581 1.83122 0
M  V30 1775 H 171.68 -1.09272 3.72816 0
M  V30 1776 H 173.352 1.43307 4.38476 0
M  V30 1777 H 171.595 1.41344 4.10127 0
M  V30 1778 H 172.266 0.555947 5.49193 0
M  V30 1779 H 174.742 -0.765867 4.08991 0
M  V30 1780 H 173.618 -1.44352 5.29579 0
M  V30 1781 H 173.879 -2.29236 3.78026 0
M  V30 1782 N 172.938 -1.57226 0.108567 0
M  V30 1783 C 174.187 -1.94008 -0.551703 0
M  V30 1784 C 174.5 -0.993442 -1.68494 0
M  V30 1785 O 175.706 -1.25551 -2.40726 0
M  V30 1786 C 174.162 -3.44763 -1.03279 0
M  V30 1787 C 173.77 -4.47943 0.0714193 0
M  V30 1788 C 175.514 -3.90483 -1.66503 0
M  V30 1789 C 173.421 -5.89865 -0.425779 0
M  V30 1790 H 172.351 -0.724206 -0.209863 0
M  V30 1791 H 175.002 -1.82547 0.186741 0
M  V30 1792 H 173.384 -3.51422 -1.82533 0
M  V30 1793 H 174.558 -4.52942 0.847365 0
M  V30 1794 H 172.873 -4.11913 0.609669 0
M  V30 1795 H 175.47 -4.93925 -2.04798 0
M  V30 1796 H 175.813 -3.29877 -2.53942 0
M  V30 1797 H 176.346 -3.86581 -0.938074 0
M  V30 1798 H 173.085 -6.54202 0.412316 0
M  V30 1799 H 172.605 -5.88309 -1.16843 0
M  V30 1800 H 174.284 -6.40844 -0.890397 0
M  V30 1801 N 174.416 0.165178 -1.56732 0
M  V30 1802 C 175.379 1.18822 -1.95995 0
M  V30 1803 C 176.379 1.3685 -0.84431 0
M  V30 1804 O 177.569 1.34152 -1.11126 0
M  V30 1805 C 174.701 2.5521 -2.26011 0
M  V30 1806 H 175.894 0.851825 -2.87548 0
M  V30 1807 H 173.447 0.407857 -1.50885 0
M  V30 1808 H 174.182 2.93852 -1.37191 0
M  V30 1809 H 173.967 2.43489 -3.07336 0
M  V30 1810 H 175.457 3.28927 -2.57288 0
M  V30 1811 N 175.894 1.51508 0.433938 0
M  V30 1812 C 176.857 1.72473 1.50949 0
M  V30 1813 C 177.857 0.594725 1.49398 0
M  V30 1814 O 179.047 0.862315 1.5136 0
M  V30 1815 C 176.179 1.78431 2.90474 0
M  V30 1816 H 177.372 2.68467 1.33662 0
M  V30 1817 H 174.925 1.41549 0.662836 0
M  V30 1818 H 175.66 0.842645 3.13161 0
M  V30 1819 H 175.445 2.60558 2.93005 0
M  V30 1820 H 176.935 1.96479 3.68491 0
M  V30 1821 N 177.372 -0.689602 1.41712 0
M  V30 1822 C 178.783 -1.26973 1.36875 0
M  V30 1823 C 179.134 -1.96124 0.054748 0
M  V30 1824 O 178.259 -1.99141 -0.84687 0
M  V30 1825 C 178.854 -2.30912 2.47922 0
M  V30 1826 C 177.413 -2.84486 2.46464 0
M  V30 1827 C 176.56 -1.58603 2.27465 0
M  V30 1828 H 179.511 -0.48396 1.51141 0
M  V30 1829 H 179.532 -3.12331 2.17323 0
M  V30 1830 H 179.044 -1.80554 3.43543 0
M  V30 1831 H 177.145 -3.39005 1.54617 0
M  V30 1832 H 177.258 -3.34511 3.42986 0
M  V30 1833 H 175.622 -1.84632 1.75451 0
M  V30 1834 H 176.405 -1.10233 3.25121 0
M  V30 1835 N 178.85 -1.27639 -0.924453 0
M  V30 1836 C 179.76 -1.12466 -2.05885 0
M  V30 1837 C 180.776 -0.053869 -1.73917 0
M  V30 1838 O 181.952 -0.261012 -1.99702 0
M  V30 1839 C 179.017 -0.776768 -3.37886 0
M  V30 1840 C 178.078 -1.92878 -3.83532 0
M  V30 1841 C 177.311 -1.59739 -5.09234 0
M  V30 1842 O 177.534 -0.506782 -5.68144 0
M  V30 1843 O 176.468 -2.43761 -5.50331 0
M  V30 1844 H 180.294 -2.07671 -2.21599 0
M  V30 1845 H 177.879 -1.06857 -1.04413 0
M  V30 1846 H 179.761 -0.596229 -4.17161 0
M  V30 1847 H 178.436 0.145732 -3.23372 0
M  V30 1848 H 177.343 -2.1644 -3.0513 0
M  V30 1849 H 178.676 -2.8316 -4.02593 0
M  V30 1850 N 180.328 1.1314 -1.09713 0
M  V30 1851 C 181.576 1.84119 -0.833338 0
M  V30 1852 C 181.897 1.84097 0.642904 0
M  V30 1853 O 181.167 1.29881 1.46655 0
M  V30 1854 H 179.747 0.681766 -0.305293 0
M  V30 1855 H 182.409 1.37038 -1.38588 0
M  V30 1856 H 181.505 2.88543 -1.18951 0
M  V30 1857 N 181.806 0.884767 1.30421 0
M  V30 1858 C 182.736 0.367574 2.30589 0
M  V30 1859 C 183.717 -0.549464 1.60981 0
M  V30 1860 O 184.902 -0.46336 1.88591 0
M  V30 1861 C 182.032 -0.418944 3.44764 0
M  V30 1862 C 180.986 0.406316 4.26067 0
M  V30 1863 C 180.312 -0.506793 5.32293 0
M  V30 1864 C 181.612 1.64832 4.95608 0
M  V30 1865 H 183.306 1.20462 2.74097 0
M  V30 1866 H 180.852 0.580695 1.31772 0
M  V30 1867 H 182.805 -0.791395 4.13902 0
M  V30 1868 H 181.529 -1.28964 3.0006 0
M  V30 1869 H 180.188 0.760903 3.58617 0
M  V30 1870 H 179.836 -1.37519 4.83836 0
M  V30 1871 H 179.536 0.0415828 5.87585 0
M  V30 1872 H 181.06 -0.875764 6.04287 0
M  V30 1873 H 182.474 1.34646 5.57264 0
M  V30 1874 H 180.871 2.13688 5.60765 0
M  V30 1875 H 181.941 2.39284 4.21748 0
M  V30 1876 N 183.284 -1.43765 0.645699 0
M  V30 1877 C 184.7 -1.56509 0.312591 0
M  V30 1878 C 184.9 -1.6307 -1.18365 0
M  V30 1879 O 183.956 -1.58167 -1.96824 0
M  V30 1880 C 185.269 -2.82968 1.01733 0
M  V30 1881 C 186.817 -2.96701 0.996865 0
M  V30 1882 C 187.292 -4.25982 1.68236 0
M  V30 1883 N 188.783 -4.32829 1.64964 0
M  V30 1884 C 189.518 -5.31613 2.14885 0
M  V30 1885 N 189.014 -6.36718 2.73061 0
M  V30 1886 N 190.807 -5.23217 2.05428 0
M  V30 1887 H 182.958 -1.3775 1.61675 0
M  V30 1888 H 185.221 -0.661067 0.679481 0
M  V30 1889 H 184.927 -2.84156 2.0724 0
M  V30 1890 H 184.801 -3.72957 0.564177 0
M  V30 1891 H 187.188 -2.95058 -0.0497719 0
M  V30 1892 H 187.269 -2.08022 1.48865 0
M  V30 1893 H 186.913 -4.28386 2.72852 0
M  V30 1894 H 186.843 -5.13545 1.16529 0
M  V30 1895 H 189.334 -3.57493 1.22503 0
M  V30 1896 H 189.647 -7.08401 3.08848 0
M  V30 1897 H 187.992 -6.37362 2.77118 0
M  V30 1898 H 191.183 -4.40019 1.59689 0
M  V30 1899 H 191.356 -6.00045 2.44643 0
M  V30 1900 N 184.763 -0.387143 -1.52771 0
M  V30 1901 C 186.009 0.188506 -2.02525 0
M  V30 1902 C 186.364 1.44649 -1.26864 0
M  V30 1903 O 185.657 1.88189 -0.359945 0
M  V30 1904 C 185.851 0.512209 -3.53711 0
M  V30 1905 C 185.68 -0.712855 -4.44014 0
M  V30 1906 C 184.45 -1.23147 -4.90064 0
M  V30 1907 C 186.648 -1.58453 -4.89282 0
M  V30 1908 N 184.63 -2.41431 -5.64433 0
M  V30 1909 C 186.001 -2.61381 -5.6221 0
M  V30 1910 C 188.056 -1.60488 -4.71326 0
M  V30 1911 C 186.759 -3.66227 -6.19088 0
M  V30 1912 C 188.785 -2.6424 -5.29085 0
M  V30 1913 C 188.147 -3.6589 -6.01917 0
M  V30 1914 H 184.246 0.0311236 -0.78138 0
M  V30 1915 H 186.83 -0.536548 -1.87161 0
M  V30 1916 H 185.001 1.20632 -3.69192 0
M  V30 1917 H 186.733 1.07482 -3.90166 0
M  V30 1918 H 183.488 -0.792795 -4.66917 0
M  V30 1919 H 183.912 -3.01274 -6.0627 0
M  V30 1920 H 188.554 -0.83247 -4.14524 0
M  V30 1921 H 186.272 -4.44337 -6.74974 0
M  V30 1922 H 189.858 -2.66695 -5.17074 0
M  V30 1923 H 188.738 -4.44855 -6.45813 0
M  V30 1924 N 186.241 1.57166 -0.116904 0
M  V30 1925 C 187.488 1.95123 0.541603 0
M  V30 1926 C 187.816 1.00006 1.6682 0
M  V30 1927 O 187.071 0.0235658 1.95686 0
M  V30 1928 C 187.37 3.39508 1.11664 0
M  V30 1929 C 187.036 4.50762 0.111606 0
M  V30 1930 C 185.698 4.80918 -0.164758 0
M  V30 1931 C 188.05 5.18036 -0.573438 0
M  V30 1932 C 185.378 5.75666 -1.13249 0
M  V30 1933 C 187.73 6.13824 -1.52978 0
M  V30 1934 C 186.394 6.42374 -1.81415 0
M  V30 1935 H 185.664 0.714005 0.198187 0
M  V30 1936 H 188.311 1.9048 -0.197365 0
M  V30 1937 H 186.616 3.40835 1.93232 0
M  V30 1938 H 188.313 3.66189 1.63422 0
M  V30 1939 H 184.903 4.27272 0.337192 0
M  V30 1940 H 189.087 4.94896 -0.373092 0
M  V30 1941 H 184.343 5.96092 -1.35958 0
M  V30 1942 H 188.517 6.65039 -2.06629 0
M  V30 1943 H 186.144 7.15599 -2.56557 0
M  V30 1944 N 187.719 -0.156864 1.56817 0
M  V30 1945 C 188.651 -1.21883 1.94106 0
M  V30 1946 C 189.664 -1.3971 0.835754 0
M  V30 1947 O 190.853 -1.39457 1.11418 0
M  V30 1948 C 187.953 -2.58527 2.19127 0
M  V30 1949 C 187.126 -2.61809 3.50393 0
M  V30 1950 C 186.185 -3.7992 3.64071 0
M  V30 1951 O 185.211 -3.65249 4.36557 0
M  V30 1952 N 186.413 -4.96973 2.99997 0
M  V30 1953 H 189.178 -0.901974 2.85805 0
M  V30 1954 H 186.739 -0.346513 1.58148 0
M  V30 1955 H 188.731 -3.36034 2.25529 0
M  V30 1956 H 187.301 -2.82545 1.33742 0
M  V30 1957 H 186.521 -1.7029 3.5552 0
M  V30 1958 H 187.809 -2.61024 4.36742 0
M  V30 1959 H 187.207 -5.11794 2.41004 0
M  V30 1960 H 185.764 -5.7229 3.11974 0
M  V30 1961 N 189.197 -1.51736 -0.425897 0
M  V30 1962 C 190.127 -1.76827 -1.52494 0
M  V30 1963 C 191.108 -0.618524 -1.58456 0
M  V30 1964 O 192.293 -0.862416 -1.74 0
M  V30 1965 C 189.423 -1.90374 -2.90474 0
M  V30 1966 C 188.377 -3.0588 -2.99369 0
M  V30 1967 C 187.703 -3.04625 -4.3944 0
M  V30 1968 C 189.003 -4.45644 -2.72394 0
M  V30 1969 H 190.697 -2.68855 -1.31748 0
M  V30 1970 H 188.243 -1.29372 -0.632362 0
M  V30 1971 H 190.196 -2.0651 -3.6733 0
M  V30 1972 H 188.92 -0.95004 -3.12477 0
M  V30 1973 H 187.579 -2.89467 -2.24954 0
M  V30 1974 H 187.227 -2.0701 -4.58428 0
M  V30 1975 H 186.927 -3.82195 -4.46319 0
M  V30 1976 H 188.451 -3.22869 -5.18255 0
M  V30 1977 H 189.865 -4.62348 -3.38979 0
M  V30 1978 H 188.262 -5.25006 -2.9067 0
M  V30 1979 H 189.332 -4.54893 -1.67929 0
M  V30 1980 N 190.675 0.682077 -1.42076 0
M  V30 1981 C 191.905 1.46844 -1.45329 0
M  V30 1982 C 192.313 1.89102 -0.0609328 0
M  V30 1983 O 191.656 1.58238 0.933082 0
M  V30 1984 C 191.718 2.75375 -2.31104 0
M  V30 1985 C 191.382 2.55238 -3.79081 0
M  V30 1986 C 192.379 2.20309 -4.70914 0
M  V30 1987 C 190.064 2.70459 -4.2327 0
M  V30 1988 C 192.058 2.00859 -6.04925 0
M  V30 1989 C 189.745 2.50624 -5.57343 0
M  V30 1990 C 190.743 2.15876 -6.47986 0
M  V30 1991 O 190.431 1.96227 -7.79583 0
M  V30 1992 H 190.163 0.4586 -0.496651 0
M  V30 1993 H 192.717 0.846131 -1.87162 0
M  V30 1994 H 190.947 3.40061 -1.84107 0
M  V30 1995 H 192.636 3.37231 -2.25898 0
M  V30 1996 H 193.402 2.08153 -4.38061 0
M  V30 1997 H 189.281 2.96485 -3.53012 0
M  V30 1998 H 192.825 1.7366 -6.75639 0
M  V30 1999 H 188.722 2.62375 -5.89771 0
M  V30 2000 H 189.49 2.10883 -7.90867 0
M  V30 2001 N 192.153 1.28127 0.917671 0
M  V30 2002 C 193.399 1.15223 1.66888 0
M  V30 2003 C 193.732 -0.299293 1.9188 0
M  V30 2004 O 193.007 -1.21805 1.51637 0
M  V30 2005 C 193.29 1.94706 3.02922 0
M  V30 2006 C 193.143 3.47898 2.85109 0
M  V30 2007 C 194.462 1.75939 4.03402 0
M  V30 2008 H 191.581 0.419946 0.605652 0
M  V30 2009 H 194.223 1.57398 1.06423 0
M  V30 2010 H 192.373 1.58864 3.54534 0
M  V30 2011 H 194.045 3.93624 2.40537 0
M  V30 2012 H 192.288 3.7373 2.20246 0
M  V30 2013 H 192.959 3.98765 3.81694 0
M  V30 2014 H 195.435 2.07209 3.60837 0
M  V30 2015 H 194.311 2.33931 4.96556 0
M  V30 2016 H 194.572 0.709877 4.36364 0
M  V30 2017 N 193.631 -1.12557 1.10312 0
M  V30 2018 C 194.581 -2.16331 0.720076 0
M  V30 2019 C 195.565 -1.58616 -0.270115 0
M  V30 2020 O 196.757 -1.76823 -0.0790507 0
M  V30 2021 C 193.886 -3.42963 0.152113 0
M  V30 2022 C 192.972 -4.07663 1.16927 0
M  V30 2023 N 193.363 -4.47392 2.35953 0
M  V30 2024 C 191.661 -4.34425 1.0095 0
M  V30 2025 C 192.362 -4.97932 3.0073 0
M  V30 2026 N 191.338 -4.93358 2.28252 0
M  V30 2027 H 195.14 -2.44813 1.62616 0
M  V30 2028 H 192.654 -1.29449 0.980654 0
M  V30 2029 H 194.651 -4.16664 -0.14037 0
M  V30 2030 H 193.311 -3.1595 -0.748701 0
M  V30 2031 H 194.322 -4.39802 2.73486 0
M  V30 2032 H 190.999 -4.17177 0.164134 0
M  V30 2033 H 192.389 -5.38397 4.01969 0
M  V30 2034 N 195.109 -0.891671 -1.2995 0
M  V30 2035 C 196.52 -0.563104 -1.78006 0
M  V30 2036 C 196.871 0.920978 -1.73241 0
M  V30 2037 O 195.996 1.71987 -1.31337 0
M  V30 2038 C 196.591 -1.01539 -3.23226 0
M  V30 2039 C 195.15 -0.738124 -3.69092 0
M  V30 2040 C 194.297 -1.19461 -2.50249 0
M  V30 2041 H 197.248 -1.07522 -1.16725 0
M  V30 2042 H 197.269 -0.347217 -3.78912 0
M  V30 2043 H 196.781 -2.09555 -3.26662 0
M  V30 2044 H 194.882 0.329766 -3.71138 0
M  V30 2045 H 194.995 -1.33037 -4.60259 0
M  V30 2046 H 193.359 -0.613787 -2.47194 0
M  V30 2047 H 194.142 -2.28265 -2.56417 0
M  V30 2048 N 196.587 1.43421 -0.653314 0
M  V30 2049 C 197.864 1.95361 -0.0966581 0
M  V30 2050 C 198.244 1.59461 1.38331 0
M  V30 2051 O 197.592 0.879777 2.10884 0
M  V30 2052 C 197.802 3.47311 -0.342988 0
M  V30 2053 C 199.15 4.23875 -0.24798 0
M  V30 2054 O 200.174 3.55133 -0.275553 0
M  V30 2055 O 199.033 5.4623 -0.171771 0
M  V30 2056 H 196.127 0.826945 0.00956291 0
M  V30 2057 H 198.673 1.5336 -0.726558 0
M  V30 2058 H 197.445 3.66569 -1.36906 0
M  V30 2059 H 197.068 3.9631 0.319975 0
M  V30 2060 N 198.065 0.39524 1.52563 0
M  V30 2061 C 198.995 -0.428384 2.29537 0
M  V30 2062 C 199.976 -1.05831 1.33169 0
M  V30 2063 O 201.161 -1.06995 1.62067 0
M  V30 2064 C 198.291 -1.55274 3.10656 0
M  V30 2065 C 197.245 -1.04855 4.14957 0
M  V30 2066 C 196.571 -2.26543 4.84337 0
M  V30 2067 C 197.871 -0.112324 5.22179 0
M  V30 2068 H 199.565 0.213867 2.98635 0
M  V30 2069 H 197.111 0.104298 1.43622 0
M  V30 2070 H 199.064 -2.1358 3.63265 0
M  V30 2071 H 197.788 -2.22266 2.39302 0
M  V30 2072 H 196.447 -0.487985 3.63338 0
M  V30 2073 H 196.095 -2.92059 4.09525 0
M  V30 2074 H 195.795 -1.93466 5.54837 0
M  V30 2075 H 197.319 -2.85481 5.39753 0
M  V30 2076 H 198.733 -0.603752 5.70112 0
M  V30 2077 H 197.13 0.128968 5.99961 0
M  V30 2078 H 198.2 0.837052 4.77621 0
M  V30 2079 N 199.544 -1.57102 0.125237 0
M  V30 2080 C 200.476 -2.12726 -0.853237 0
M  V30 2081 C 201.489 -1.07145 -1.22571 0
M  V30 2082 O 202.678 -1.34497 -1.17358 0
M  V30 2083 C 199.778 -2.61709 -2.15317 0
M  V30 2084 C 198.951 -3.91456 -1.95143 0
M  V30 2085 C 198.01 -4.25973 -3.08923 0
M  V30 2086 O 197.036 -4.94682 -2.81564 0
M  V30 2087 N 198.238 -3.83795 -4.35524 0
M  V30 2088 H 201.003 -2.97307 -0.377964 0
M  V30 2089 H 198.564 -1.61792 -0.0590011 0
M  V30 2090 H 200.556 -2.81826 -2.90441 0
M  V30 2091 H 199.126 -1.81974 -2.54174 0
M  V30 2092 H 198.346 -3.80185 -1.04177 0
M  V30 2093 H 199.634 -4.76283 -1.78976 0
M  V30 2094 H 199.032 -3.2839 -4.60626 0
M  V30 2095 H 197.589 -4.09008 -5.07499 0
M  V30 2096 N 201.022 0.148545 -1.56898 0
M  V30 2097 C 201.952 1.18524 -2.01182 0
M  V30 2098 C 202.933 1.4489 -0.891123 0
M  V30 2099 O 204.118 1.55836 -1.15882 0
M  V30 2100 C 201.248 2.51879 -2.39112 0
M  V30 2101 C 200.202 2.40038 -3.54353 0
M  V30 2102 C 199.528 3.78089 -3.78091 0
M  V30 2103 C 200.828 1.88577 -4.87069 0
M  V30 2104 H 202.522 0.817029 -2.88036 0
M  V30 2105 H 200.068 0.391575 -1.38574 0
M  V30 2106 H 202.021 3.24627 -2.68692 0
M  V30 2107 H 200.745 2.90532 -1.49193 0
M  V30 2108 H 199.404 1.69742 -3.24936 0
M  V30 2109 H 199.052 4.14175 -2.85426 0
M  V30 2110 H 198.752 3.71028 -4.55645 0
M  V30 2111 H 200.276 4.52387 -4.10095 0
M  V30 2112 H 201.69 2.51117 -5.15377 0
M  V30 2113 H 200.087 1.9241 -5.68417 0
M  V30 2114 H 201.157 0.84136 -4.77545 0
M  V30 2115 N 202.5 1.5196 0.417844 0
M  V30 2116 C 203.448 1.75278 1.52907 0
M  V30 2117 C 204.442 0.619611 1.57662 0
M  V30 2118 O 205.648 0.801457 1.61173 0
M  V30 2119 H 202.023 0.554141 0.508362 0
M  V30 2120 H 203.994 2.68389 1.30422 0
M  V30 2121 C 202.743 1.91262 2.90369 0
M  V30 2122 H 202.066 2.77872 2.8745 0
M  V30 2123 H 203.506 2.11581 3.67436 0
M  V30 2124 C 201.965 0.677431 3.30019 0
M  V30 2125 O 202.495 -0.158799 4.01386 0
M  V30 2126 N 200.701 0.515851 2.85985 0
M  V30 2127 H 200.248 1.19744 2.28077 0
M  V30 2128 H 200.206 -0.309315 3.12875 0
M  V30 2129 N 203.978 -0.674533 1.42435 0
M  V30 2130 C 204.925 -1.78807 1.45934 0
M  V30 2131 C 205.895 -1.63157 0.311271 0
M  V30 2132 O 207.08 -1.83707 0.515383 0
M  V30 2133 C 204.22 -3.16839 1.36773 0
M  V30 2134 C 203.333 -3.43774 2.61617 0
M  V30 2135 C 202.468 -4.71536 2.44597 0
M  V30 2136 C 201.507 -4.91505 3.64814 0
M  V30 2137 N 200.644 -6.10508 3.46734 0
M  V30 2138 H 205.484 -1.75151 2.41093 0
M  V30 2139 H 203.021 -0.85504 1.19697 0
M  V30 2140 H 204.979 -3.96606 1.29459 0
M  V30 2141 H 203.609 -3.19619 0.452089 0
M  V30 2142 H 202.661 -2.58259 2.79297 0
M  V30 2143 H 203.973 -3.54423 3.50978 0
M  V30 2144 H 203.127 -5.59393 2.3487 0
M  V30 2145 H 201.866 -4.6317 1.52726 0
M  V30 2146 H 200.871 -4.0209 3.74972 0
M  V30 2147 H 202.096 -5.01716 4.57665 0
M  V30 2148 H 200.042 -6.03315 2.5758 0
M  V30 2149 H 199.959 -6.2202 4.29682 0
M  V30 2150 H 201.227 -7.01044 3.40819 0
M  V30 2151 N 205.456 -1.28612 -0.910864 0
M  V30 2152 C 206.388 -1.08589 -2.01844 0
M  V30 2153 C 207.401 -0.0367419 -1.62759 0
M  V30 2154 O 208.59 -0.280101 -1.76289 0
M  V30 2155 C 205.69 -0.628626 -3.33019 0
M  V30 2156 C 204.863 -1.75382 -4.00699 0
M  V30 2157 C 203.922 -1.28945 -5.10156 0
M  V30 2158 O 202.948 -1.9922 -5.33198 0
M  V30 2159 N 204.15 -0.154224 -5.80295 0
M  V30 2160 H 206.915 -2.03973 -2.19579 0
M  V30 2161 H 204.476 -1.20403 -1.08234 0
M  V30 2162 H 206.468 -0.301508 -4.03575 0
M  V30 2163 H 205.038 0.232451 -3.11735 0
M  V30 2164 H 204.258 -2.25039 -3.23653 0
M  V30 2165 H 205.546 -2.50854 -4.42662 0
M  V30 2166 H 204.944 0.43194 -5.64049 0
M  V30 2167 H 203.501 0.113599 -6.51701 0
M  V30 2168 N 206.934 1.1197 -1.10907 0
M  V30 2169 C 207.864 2.19928 -0.784473 0
M  V30 2170 C 208.845 1.6833 0.244726 0
M  V30 2171 O 210.03 1.93892 0.109418 0
M  V30 2172 C 207.16 3.46597 -0.220827 0
M  V30 2173 C 206.114 4.11376 -1.18127 0
M  V30 2174 C 205.44 5.32554 -0.478594 0
M  V30 2175 C 206.74 4.56945 -2.52979 0
M  V30 2176 H 208.434 2.47337 -1.68715 0
M  V30 2177 H 205.98 1.18879 -0.812642 0
M  V30 2178 H 207.933 4.21396 0.0184278 0
M  V30 2179 H 206.657 3.1863 0.717113 0
M  V30 2180 H 205.316 3.38564 -1.40606 0
M  V30 2181 H 204.964 5.00856 0.463976 0
M  V30 2182 H 204.664 5.76844 -1.11912 0
M  V30 2183 H 206.188 6.10096 -0.248 0
M  V30 2184 H 207.602 5.23093 -2.3462 0
M  V30 2185 H 205.999 5.1203 -3.12962 0
M  V30 2186 H 207.069 3.70676 -3.12614 0
M  V30 2187 N 208.412 0.89855 1.29475 0
M  V30 2188 C 209.661 0.519863 1.94885 0
M  V30 2189 C 209.974 -0.9383 1.71625 0
M  V30 2190 O 211.18 -1.42445 2.31131 0
M  V30 2191 C 209.636 0.878836 3.49005 0
M  V30 2192 C 209.244 2.35569 3.81066 0
M  V30 2193 C 210.988 0.570004 4.20656 0
M  V30 2194 C 208.895 2.65558 5.28425 0
M  V30 2195 H 207.825 0.190692 0.729488 0
M  V30 2196 H 210.476 1.09539 1.47219 0
M  V30 2197 H 208.858 0.232253 3.95318 0
M  V30 2198 H 210.032 3.04773 3.45616 0
M  V30 2199 H 208.347 2.63343 3.22552 0
M  V30 2200 H 210.944 0.770925 5.29113 0
M  V30 2201 H 211.287 -0.491404 4.1339 0
M  V30 2202 H 211.82 1.17438 3.8007 0
M  V30 2203 H 208.559 3.70493 5.40754 0
M  V30 2204 H 208.079 2.00977 5.65127 0
M  V30 2205 H 209.758 2.51765 5.96006 0
M  V30 2206 N 209.89 -1.43072 0.660911 0
M  V30 2207 C 210.822 -2.29108 -0.0647641 0
M  V30 2208 C 211.835 -1.42928 -0.779448 0
M  V30 2209 O 213.024 -1.66788 -0.635921 0
M  V30 2210 C 210.124 -3.20032 -1.11503 0
M  V30 2211 C 209.297 -4.34792 -0.476955 0
M  V30 2212 C 208.356 -5.06534 -1.42513 0
M  V30 2213 O 207.382 -5.61538 -0.930771 0
M  V30 2214 N 208.584 -5.1075 -2.75889 0
M  V30 2215 H 211.349 -2.92029 0.673731 0
M  V30 2216 H 208.91 -1.53846 0.50427 0
M  V30 2217 H 210.902 -3.64892 -1.75032 0
M  V30 2218 H 209.472 -2.58658 -1.75541 0
M  V30 2219 H 208.692 -3.92752 0.337572 0
M  V30 2220 H 209.98 -5.0879 -0.0318525 0
M  V30 2221 H 209.378 -4.67447 -3.18606 0
M  V30 2222 H 207.935 -5.59302 -3.347 0
M  V30 2223 N 211.368 -0.403325 -1.52352 0
M  V30 2224 C 212.784 -0.0539281 -1.59509 0
M  V30 2225 C 212.984 1.43307 -1.41652 0
M  V30 2226 O 212.04 2.19924 -1.24056 0
M  V30 2227 C 213.353 -0.543654 -2.95745 0
M  V30 2228 C 214.901 -0.501125 -3.08962 0
M  V30 2229 C 215.376 -0.967267 -4.47669 0
M  V30 2230 N 216.867 -0.923849 -4.53893 0
M  V30 2231 C 217.602 -1.25578 -5.5948 0
M  V30 2232 N 217.098 -1.65889 -6.72646 0
M  V30 2233 N 218.891 -1.17613 -5.49658 0
M  V30 2234 H 211.042 -1.37123 -1.62206 0
M  V30 2235 H 213.305 -0.56294 -0.76276 0
M  V30 2236 H 213.011 -1.58275 -3.14073 0
M  V30 2237 H 212.885 0.0498042 -3.77167 0
M  V30 2238 H 215.272 0.528909 -2.90321 0
M  V30 2239 H 215.353 -1.13056 -2.2946 0
M  V30 2240 H 214.997 -1.9956 -4.67053 0
M  V30 2241 H 214.927 -0.314698 -5.25659 0
M  V30 2242 H 217.418 -0.627403 -3.72655 0
M  V30 2243 H 217.731 -1.89543 -7.49195 0
M  V30 2244 H 216.076 -1.69787 -6.73942 0
M  V30 2245 H 219.267 -0.860115 -4.6013 0
M  V30 2246 H 219.44 -1.43812 -6.3184 0
M  V30 2247 N 212.846 1.57033 -0.133567 0
M  V30 2248 C 214.092 1.95976 0.521649 0
M  V30 2249 C 214.425 1.01779 1.65393 0
M  V30 2250 O 213.7 0.0576581 1.94415 0
M  V30 2251 C 213.983 3.44738 1.04057 0
M  V30 2252 C 213.836 4.49711 -0.0892897 0
M  V30 2253 C 215.155 3.95682 1.92675 0
M  V30 2254 H 212.274 0.712579 0.188149 0
M  V30 2255 H 214.916 1.88813 -0.212076 0
M  V30 2256 H 213.066 3.50973 1.66583 0
M  V30 2257 H 214.738 4.55565 -0.725152 0
M  V30 2258 H 212.981 4.27261 -0.750378 0
M  V30 2259 H 213.652 5.51099 0.315284 0
M  V30 2260 H 216.128 3.91841 1.39998 0
M  V30 2261 H 215.004 5.00262 2.25897 0
M  V30 2262 H 215.265 3.37239 2.85872 0
M  V30 2263 N 214.325 -0.140222 1.56975 0
M  V30 2264 C 215.235 -1.19223 2.02047 0
M  V30 2265 C 216.251 -1.46612 0.937062 0
M  V30 2266 O 217.427 -1.58148 1.24704 0
M  V30 2267 C 214.492 -2.50414 2.39778 0
M  V30 2268 C 213.553 -2.30612 3.621 0
M  V30 2269 C 212.786 -3.55547 3.98023 0
M  V30 2270 O 213.009 -4.62004 3.34528 0
M  V30 2271 O 211.943 -3.47808 4.91237 0
M  V30 2272 H 215.769 -0.839559 2.91865 0
M  V30 2273 H 213.354 -0.349453 1.45256 0
M  V30 2274 H 215.236 -3.27747 2.64877 0
M  V30 2275 H 213.911 -2.85198 1.53114 0
M  V30 2276 H 212.818 -1.51207 3.4218 0
M  V30 2277 H 214.151 -2.00741 4.49404 0
M  V30 2278 N 215.803 -1.52179 -0.40978 0
M  V30 2279 C 217.028 -1.70347 -1.18308 0
M  V30 2280 C 217.453 -0.411887 -1.83535 0
M  V30 2281 O 216.811 0.630587 -1.6998 0
M  V30 2282 C 216.859 -2.83977 -2.22238 0
M  V30 2283 O 215.963 -2.495 -3.28365 0
M  V30 2284 H 215.304 -0.567103 -0.345384 0
M  V30 2285 H 217.834 -1.98879 -0.480445 0
M  V30 2286 H 217.844 -3.0887 -2.66577 0
M  V30 2287 H 216.519 -3.77685 -1.74146 0
M  V30 2288 H 215.096 -2.35277 -2.89308 0
M  V30 2289 N 217.281 0.66697 -1.42791 0
M  V30 2290 C 218.211 1.79218 -1.49677 0
M  V30 2291 C 219.192 1.66405 -0.352623 0
M  V30 2292 O 220.377 1.85708 -0.567993 0
M  V30 2293 C 217.507 3.17565 -1.40605 0
M  V30 2294 C 216.461 3.45124 -2.53127 0
M  V30 2295 C 215.787 4.83127 -2.29112 0
M  V30 2296 C 217.087 3.41236 -3.95418 0
M  V30 2297 H 218.781 1.73713 -2.43853 0
M  V30 2298 H 216.327 0.83432 -1.17367 0
M  V30 2299 H 218.28 3.96022 -1.44029 0
M  V30 2300 H 217.004 3.23767 -0.429271 0
M  V30 2301 H 215.663 2.69031 -2.49034 0
M  V30 2302 H 215.311 4.85988 -1.29709 0
M  V30 2303 H 215.011 5.02528 -3.04531 0
M  V30 2304 H 216.535 5.63859 -2.34297 0
M  V30 2305 H 217.949 4.09651 -4.01073 0
M  V30 2306 H 216.346 3.72173 -4.70752 0
M  V30 2307 H 217.416 2.39665 -4.21532 0
M  V30 2308 N 218.759 1.29093 0.90403 0
M  V30 2309 C 220.007 1.16583 1.65085 0
M  V30 2310 C 220.328 -0.283933 1.92922 0
M  V30 2311 O 219.598 -1.19509 1.55224 0
M  V30 2312 H 218.178 0.428467 0.611903 0
M  V30 2313 H 220.84 1.61959 1.08422 0
M  V30 2314 H 219.936 1.71266 2.6091 0
M  V30 2315 N 220.237 -1.11381 1.11499 0
M  V30 2316 C 221.484 -1.83132 0.864231 0
M  V30 2317 C 221.812 -1.84683 -0.610114 0
M  V30 2318 O 221.067 -1.29589 -1.46646 0
M  V30 2319 C 221.366 -3.30026 1.37177 0
M  V30 2320 C 221.032 -3.48634 2.85946 0
M  V30 2321 C 219.694 -3.53421 3.26569 0
M  V30 2322 C 222.046 -3.54837 3.81759 0
M  V30 2323 C 219.374 -3.61967 4.61733 0
M  V30 2324 C 221.726 -3.64915 5.1674 0
M  V30 2325 C 220.39 -3.67962 5.5692 0
M  V30 2326 H 219.66 -0.670127 0.316245 0
M  V30 2327 H 222.307 -1.31354 1.3935 0
M  V30 2328 H 220.612 -3.84304 0.762753 0
M  V30 2329 H 222.309 -3.84034 1.15408 0
M  V30 2330 H 218.899 -3.45579 2.53521 0
M  V30 2331 H 223.083 -3.50399 3.51474 0
M  V30 2332 H 218.339 -3.62603 4.92269 0
M  V30 2333 H 222.513 -3.68658 5.90816 0
M  V30 2334 H 220.14 -3.74336 6.61647 0
M  V30 2335 N 221.715 -0.905404 -1.28997 0
M  V30 2336 C 222.662 -0.385892 -2.27551 0
M  V30 2337 C 223.632 0.535113 -1.57244 0
M  V30 2338 O 224.817 0.459119 -1.85194 0
M  V30 2339 C 221.957 0.375461 -3.43051 0
M  V30 2340 C 221.07 -0.577092 -4.28128 0
M  V30 2341 C 220.205 0.201879 -5.30816 0
M  V30 2342 C 219.244 -0.744829 -6.07551 0
M  V30 2343 N 218.381 9.42587e-05 -7.021 0
M  V30 2344 H 223.221 -1.23139 -2.71368 0
M  V30 2345 H 220.758 -0.618542 -1.33463 0
M  V30 2346 H 222.716 0.832992 -4.088 0
M  V30 2347 H 221.346 1.18537 -3.00248 0
M  V30 2348 H 220.398 -1.15315 -3.62501 0
M  V30 2349 H 221.71 -1.30152 -4.8152 0
M  V30 2350 H 220.864 0.720351 -6.02408 0
M  V30 2351 H 219.603 0.959413 -4.7817 0
M  V30 2352 H 218.608 -1.27475 -5.34818 0
M  V30 2353 H 219.833 -1.50178 -6.62286 0
M  V30 2354 H 217.779 0.739791 -6.51815 0
M  V30 2355 H 217.696 -0.664321 -7.53076 0
M  V30 2356 H 218.964 0.498644 -7.77903 0
M  V30 2357 N 223.193 1.4272 -0.668489 0
M  V30 2358 C 224.156 2.292 0.00448567 0
M  V30 2359 C 225.156 1.43001 0.735339 0
M  V30 2360 O 226.346 1.64461 0.57429 0
M  V30 2361 C 223.478 3.25375 1.01705 0
M  V30 2362 H 224.671 2.90199 -0.756608 0
M  V30 2363 H 222.224 1.50254 -0.430506 0
M  V30 2364 H 222.959 2.69301 1.80686 0
M  V30 2365 H 222.744 3.88944 0.496463 0
M  V30 2366 H 224.234 3.90245 1.48655 0
M  V30 2367 N 224.671 0.411399 1.52136 0
M  V30 2368 C 225.601 -0.404015 2.29978 0
M  V30 2369 C 226.582 -1.04412 1.34284 0
M  V30 2370 O 227.767 -1.0527 1.63192 0
M  V30 2371 C 224.897 -1.5197 3.12286 0
M  V30 2372 C 223.851 -1.00448 4.16046 0
M  V30 2373 C 223.177 -2.21393 4.86712 0
M  V30 2374 C 224.477 -0.0569336 5.22269 0
M  V30 2375 H 226.171 0.245529 2.98392 0
M  V30 2376 H 223.717 0.119525 1.43503 0
M  V30 2377 H 225.67 -2.09715 3.6551 0
M  V30 2378 H 224.394 -2.19716 2.41646 0
M  V30 2379 H 223.053 -0.449421 3.63835 0
M  V30 2380 H 222.701 -2.87699 4.12599 0
M  V30 2381 H 222.401 -1.87571 5.56858 0
M  V30 2382 H 223.925 -2.7974 5.4275 0
M  V30 2383 H 225.339 -0.54325 5.7072 0
M  V30 2384 H 223.736 0.192594 5.99791 0
M  V30 2385 H 224.806 0.887663 4.76706 0
M  V30 2386 N 226.149 -1.5696 0.141893 0
M  V30 2387 C 227.395 -1.9625 -0.511248 0
M  V30 2388 C 227.728 -1.02654 -1.64851 0
M  V30 2389 O 227.003 -0.0679676 -1.94381 0
M  V30 2390 C 227.286 -3.45285 -1.02227 0
M  V30 2391 C 227.139 -4.49658 0.113138 0
M  V30 2392 C 228.458 -3.96698 -1.90574 0
M  V30 2393 H 225.577 -0.713567 -0.184367 0
M  V30 2394 H 228.219 -1.88698 0.222087 0
M  V30 2395 H 226.369 -3.51852 -1.64719 0
M  V30 2396 H 228.041 -4.55174 0.749302 0
M  V30 2397 H 226.284 -4.26857 0.773026 0
M  V30 2398 H 226.955 -5.51258 -0.286053 0
M  V30 2399 H 229.431 -3.92578 -1.37918 0
M  V30 2400 H 228.307 -5.01453 -2.2324 0
M  V30 2401 H 228.568 -3.3875 -2.84079 0
M  V30 2402 N 227.627 0.131896 -1.57047 0
M  V30 2403 C 228.876 0.84044 -1.83356 0
M  V30 2404 C 229.189 1.81646 -0.725535 0
M  V30 2405 O 230.395 2.57025 -0.874659 0
M  V30 2406 C 228.851 1.54528 -3.25037 0
M  V30 2407 C 228.459 0.610902 -4.43815 0
M  V30 2408 C 230.203 2.23972 -3.60606 0
M  V30 2409 C 228.11 1.31823 -5.76521 0
M  V30 2410 H 227.04 0.317599 -0.683847 0
M  V30 2411 H 229.691 0.0931561 -1.83263 0
M  V30 2412 H 228.073 2.33873 -3.19561 0
M  V30 2413 H 229.247 -0.148407 -4.60561 0
M  V30 2414 H 227.562 0.0241016 -4.16393 0
M  V30 2415 H 230.159 2.77558 -4.57018 0
M  V30 2416 H 230.502 3.01173 -2.87403 0
M  V30 2417 H 231.035 1.51529 -3.6781 0
M  V30 2418 H 227.774 0.587771 -6.52859 0
M  V30 2419 H 227.294 2.04987 -5.63685 0
M  V30 2420 H 228.973 1.855 -6.19838 0
M  V30 2421 N 229.106 1.52395 0.401703 0
M  V30 2422 C 230.334 1.70676 1.16949 0
M  V30 2423 C 230.749 0.419503 1.8408 0
M  V30 2424 O 230.106 -0.605061 1.72178 0
M  V30 2425 C 230.157 2.84753 2.22706 0
M  V30 2426 O 229.878 4.08495 1.58314 0
M  V30 2427 C 231.379 3.14608 3.12309 0
M  V30 2428 H 228.599 0.571787 0.351142 0
M  V30 2429 H 231.143 1.98987 0.471652 0
M  V30 2430 H 229.298 2.58941 2.88147 0
M  V30 2431 H 229.712 4.72117 2.28485 0
M  V30 2432 H 231.186 3.97923 3.82572 0
M  V30 2433 H 231.663 2.28464 3.75101 0
M  V30 2434 H 232.269 3.42212 2.52529 0
M  V30 2435 N 230.584 -0.659388 1.43143 0
M  V30 2436 C 231.514 -1.78422 1.50625 0
M  V30 2437 C 232.495 -1.66216 0.361443 0
M  V30 2438 O 233.68 -1.85404 0.577834 0
M  V30 2439 C 230.81 -3.16815 1.42287 0
M  V30 2440 C 229.764 -3.43777 2.54954 0
M  V30 2441 C 229.09 -4.81905 2.31671 0
M  V30 2442 C 230.39 -3.39134 3.97222 0
M  V30 2443 H 232.084 -1.72417 2.44771 0
M  V30 2444 H 229.63 -0.828084 1.17808 0
M  V30 2445 H 231.583 -3.95253 1.46127 0
M  V30 2446 H 230.307 -3.23534 0.446435 0
M  V30 2447 H 228.966 -2.67707 2.50457 0
M  V30 2448 H 228.614 -4.85294 1.32284 0
M  V30 2449 H 228.314 -5.00906 3.07192 0
M  V30 2450 H 229.838 -5.62609 2.37284 0
M  V30 2451 H 231.252 -4.07518 4.03239 0
M  V30 2452 H 229.649 -3.69671 4.72719 0
M  V30 2453 H 230.719 -2.37426 4.22797 0
M  V30 2454 N 232.062 -1.29571 -0.897171 0
M  V30 2455 C 233.339 -1.08365 -1.62839 0
M  V30 2456 C 233.719 0.371331 -2.07808 0
M  V30 2457 O 233.067 1.3606 -1.83576 0
M  V30 2458 C 233.277 -2.0735 -2.80726 0
M  V30 2459 C 234.625 -2.38406 -3.51351 0
M  V30 2460 O 235.649 -2.05564 -2.90898 0
M  V30 2461 O 234.508 -2.9453 -4.60341 0
M  V30 2462 H 231.602 -0.415345 -0.715134 0
M  V30 2463 H 234.148 -1.40952 -0.945018 0
M  V30 2464 H 232.92 -3.05339 -2.44711 0
M  V30 2465 H 232.543 -1.75507 -3.56767 0
M  V30 2466 N 233.54 1.10788 -1.12088 0
M  V30 2467 C 234.768 1.86461 -0.896651 0
M  V30 2468 C 235.183 1.80492 0.553912 0
M  V30 2469 O 234.54 1.19102 1.38278 0
M  V30 2470 C 234.591 3.35006 -1.35843 0
M  V30 2471 O 234.312 3.40866 -2.75213 0
M  V30 2472 C 235.813 4.27565 -1.1706 0
M  V30 2473 H 233.033 0.589425 -0.320654 0
M  V30 2474 H 235.577 1.40076 -1.48993 0
M  V30 2475 H 233.732 3.7887 -0.808458 0
M  V30 2476 H 234.146 4.33411 -2.9539 0
M  V30 2477 H 235.62 5.30007 -1.54263 0
M  V30 2478 H 236.097 4.3906 -0.110814 0
M  V30 2479 H 236.703 3.89501 -1.70789 0
M  V30 2480 N 235.018 0.912232 1.28515 0
M  V30 2481 C 236.429 0.591352 1.77087 0
M  V30 2482 C 236.78 -0.8933 1.74684 0
M  V30 2483 O 235.905 -1.69876 1.34056 0
M  V30 2484 C 236.5 1.06668 3.2157 0
M  V30 2485 C 235.059 0.79675 3.67871 0
M  V30 2486 C 234.206 1.23427 2.48316 0
M  V30 2487 H 237.157 1.09365 1.15 0
M  V30 2488 H 237.178 0.407455 3.78312 0
M  V30 2489 H 236.69 2.14726 3.23287 0
M  V30 2490 H 234.791 -0.270679 3.71616 0
M  V30 2491 H 234.904 1.40343 4.58084 0
M  V30 2492 H 233.268 0.653036 2.46186 0
M  V30 2493 H 234.051 2.32316 2.52753 0
M  V30 2494 N 236.496 -1.42363 0.676048 0
M  V30 2495 C 237.742 -2.0182 0.199125 0
M  V30 2496 C 238.075 -1.53339 -1.19168 0
M  V30 2497 O 237.35 -0.736124 -1.80032 0
M  V30 2498 C 237.633 -3.59331 0.235144 0
M  V30 2499 C 237.486 -4.17989 1.66149 0
M  V30 2500 C 238.805 -4.3813 -0.41595 0
M  V30 2501 H 235.924 -0.733293 0.0738311 0
M  V30 2502 H 238.566 -1.69368 0.86107 0
M  V30 2503 H 236.716 -3.87109 -0.328487 0
M  V30 2504 H 238.388 -4.0116 2.27747 0
M  V30 2505 H 236.631 -3.7377 2.20178 0
M  V30 2506 H 237.302 -5.27126 1.63837 0
M  V30 2507 H 239.778 -4.16051 0.0638529 0
M  V30 2508 H 238.654 -5.47717 -0.360115 0
M  V30 2509 H 238.915 -4.16101 -1.49373 0
M  V30 2510 N 237.974 -0.419461 -1.51915 0
M  V30 2511 C 239.214 0.152336 -2.03832 0
M  V30 2512 C 239.578 1.41501 -1.29775 0
M  V30 2513 O 240.779 2.06591 -1.7197 0
M  V30 2514 C 239.05 0.383812 -3.55333 0
M  V30 2515 S 240.609 0.921577 -4.29013 0
M  V30 2516 H 237.427 0.0402193 -0.709862 0
M  V30 2517 H 240.029 -0.574758 -1.8686 0
M  V30 2518 H 238.733 -0.541794 -4.06808 0
M  V30 2519 H 238.264 1.13849 -3.76566 0
M  V30 2520 H 240.279 2.20108 -4.4471 0
M  V30 2521 N 239.452 1.56882 -0.150215 0
M  V30 2522 C 240.7 1.9584 0.499105 0
M  V30 2523 C 241.021 1.03623 1.65188 0
M  V30 2524 O 240.291 0.0984084 1.95653 0
M  V30 2525 H 238.871 0.723119 0.187373 0
M  V30 2526 H 241.533 1.9358 -0.226466 0
M  V30 2527 H 240.629 2.99638 0.873122 0
M  V30 2528 N 240.93 -0.123565 1.57115 0
M  V30 2529 C 241.878 -1.17082 2.00984 0
M  V30 2530 C 242.872 -1.43136 0.906009 0
M  V30 2531 O 244.078 -1.43152 1.09121 0
M  V30 2532 H 240.453 -0.394653 0.64012 0
M  V30 2533 H 242.424 -0.774292 2.88179 0
M  V30 2534 C 241.173 -2.49057 2.42623 0
M  V30 2535 H 240.496 -2.29846 3.27125 0
M  V30 2536 H 241.936 -3.20906 2.7712 0
M  V30 2537 C 240.395 -3.11305 1.28805 0
M  V30 2538 O 240.925 -3.97171 0.60153 0
M  V30 2539 N 239.131 -2.71111 1.04628 0
M  V30 2540 H 238.678 -2.01382 1.60634 0
M  V30 2541 H 238.636 -3.1309 0.286685 0
M  V30 2542 N 242.408 -1.52605 -0.393616 0
M  V30 2543 C 243.824 -1.41753 -0.733357 0
M  V30 2544 C 244.024 -0.534293 -1.94287 0
M  V30 2545 O 243.08 -0.0059787 -2.52499 0
M  V30 2546 C 244.393 -2.84531 -0.972772 0
M  V30 2547 C 245.941 -2.93978 -1.07453 0
M  V30 2548 C 246.416 -4.37756 -1.3466 0
M  V30 2549 N 247.907 -4.4106 -1.41492 0
M  V30 2550 C 248.642 -5.49387 -1.642 0
M  V30 2551 N 248.138 -6.67806 -1.8441 0
M  V30 2552 N 249.931 -5.36923 -1.66342 0
M  V30 2553 H 242.082 -2.08555 0.402328 0
M  V30 2554 H 244.345 -0.940654 0.117789 0
M  V30 2555 H 244.051 -3.51353 -0.156204 0
M  V30 2556 H 243.925 -3.26508 -1.88871 0
M  V30 2557 H 246.312 -2.27326 -1.88167 0
M  V30 2558 H 246.393 -2.55435 -0.136605 0
M  V30 2559 H 246.037 -5.04972 -0.544581 0
M  V30 2560 H 245.967 -4.73848 -2.2973 0
M  V30 2561 H 248.458 -3.55705 -1.27601 0
M  V30 2562 H 248.771 -7.46141 -2.01231 0
M  V30 2563 H 247.116 -6.70843 -1.81644 0
M  V30 2564 H 250.307 -4.43381 -1.50102 0
M  V30 2565 H 250.48 -6.21416 -1.837 0
M  V30 2566 N 243.887 0.651787 -1.4349 0
M  V30 2567 C 245.303 0.96762 -1.26922 0
M  V30 2568 C 245.503 2.00602 -0.189982 0
M  V30 2569 O 244.559 2.48793 0.431107 0
M  V30 2570 C 245.872 1.45052 -2.63401 0
M  V30 2571 C 247.42 1.5671 -2.70945 0
M  V30 2572 C 247.895 2.0839 -4.07845 0
M  V30 2573 N 249.386 2.1569 -4.09917 0
M  V30 2574 C 250.121 2.56804 -5.12679 0
M  V30 2575 N 249.617 2.97203 -6.25813 0
M  V30 2576 N 251.41 2.56756 -5.00033 0
M  V30 2577 H 243.561 -0.0353158 -2.12371 0
M  V30 2578 H 245.824 0.0467858 -0.946845 0
M  V30 2579 H 245.53 0.761926 -3.43348 0
M  V30 2580 H 245.404 2.42529 -2.88894 0
M  V30 2581 H 247.791 2.2467 -1.9133 0
M  V30 2582 H 247.872 0.57662 -2.49216 0
M  V30 2583 H 247.516 1.41031 -4.87927 0
M  V30 2584 H 247.446 3.08271 -4.26938 0
M  V30 2585 H 249.937 1.87237 -3.28254 0
M  V30 2586 H 250.25 3.27328 -7.00055 0
M  V30 2587 H 248.595 2.95004 -6.29283 0
M  V30 2588 H 251.786 2.24572 -4.10713 0
M  V30 2589 H 251.959 2.88475 -5.80247 0
M  V30 2590 N 245.365 1.30045 0.890287 0
M  V30 2591 C 246.315 1.12592 1.9826 0
M  V30 2592 C 247.299 0.0426021 1.60844 0
M  V30 2593 O 248.491 0.265346 1.75 0
M  V30 2594 C 245.62 0.814301 3.33503 0
M  V30 2595 C 244.706 1.93761 3.7725 0
M  V30 2596 N 245.097 3.18232 3.93143 0
M  V30 2597 C 243.395 1.83277 4.06602 0
M  V30 2598 C 244.096 3.9158 4.30163 0
M  V30 2599 N 243.072 3.19591 4.3973 0
M  V30 2600 H 246.874 2.07003 2.08631 0
M  V30 2601 H 244.388 1.21307 1.07974 0
M  V30 2602 H 246.385 0.67029 4.11476 0
M  V30 2603 H 245.045 -0.121797 3.24471 0
M  V30 2604 H 246.056 3.53581 3.78419 0
M  V30 2605 H 242.733 0.97001 4.06075 0
M  V30 2606 H 244.123 4.98744 4.50226 0
M  V30 2607 N 246.843 -1.10192 1.12674 0
M  V30 2608 C 248.12 -1.78717 0.794965 0
M  V30 2609 C 248.5 -1.98628 -0.714853 0
M  V30 2610 O 247.848 -1.58135 -1.64941 0
M  V30 2611 C 248.058 -3.11546 1.5729 0
M  V30 2612 C 249.406 -3.86382 1.76052 0
M  V30 2613 O 250.43 -3.21274 1.53823 0
M  V30 2614 O 249.289 -5.03246 2.13087 0
M  V30 2615 H 246.383 -0.774702 0.289423 0
M  V30 2616 H 248.929 -1.16819 1.23091 0
M  V30 2617 H 247.701 -2.92489 2.59935 0
M  V30 2618 H 247.324 -3.81164 1.13137 0
M  V30 2619 N 248.321 -0.919034 -1.28029 0
M  V30 2620 C 249.57 -0.550802 -1.94034 0
M  V30 2621 C 249.883 0.910877 -1.73096 0
M  V30 2622 O 251.089 1.3875 -2.33368 0
M  V30 2623 C 249.545 -0.934249 -3.47563 0
M  V30 2624 C 249.153 -2.41602 -3.7727 0
M  V30 2625 C 250.897 -0.636854 -4.19696 0
M  V30 2626 C 248.804 -2.73932 -5.24133 0
M  V30 2627 H 247.734 -0.202273 -0.726362 0
M  V30 2628 H 250.385 -1.11867 -1.45458 0
M  V30 2629 H 248.767 -0.295115 -3.94899 0
M  V30 2630 H 249.941 -3.10233 -3.40723 0
M  V30 2631 H 248.256 -2.68441 -3.18321 0
M  V30 2632 H 250.853 -0.855005 -5.2782 0
M  V30 2633 H 251.196 0.425575 -4.14119 0
M  V30 2634 H 251.729 -1.23469 -3.78154 0
M  V30 2635 H 248.468 -3.79049 -5.34792 0
M  V30 2636 H 247.988 -2.09942 -5.61858 0
M  V30 2637 H 249.667 -2.61215 -5.91925 0
M  V30 2638 N 249.799 1.42003 -0.683588 0
M  V30 2639 C 251.215 1.55625 -0.353976 0
M  V30 2640 C 251.415 1.66151 1.14 0
M  V30 2641 O 250.471 1.63329 1.92561 0
M  V30 2642 C 251.784 2.80171 -1.092 0
M  V30 2643 C 253.332 2.93954 -1.07518 0
M  V30 2644 C 253.807 4.21372 -1.79471 0
M  V30 2645 N 255.298 4.28303 -1.76381 0
M  V30 2646 C 256.033 5.25729 -2.28904 0
M  V30 2647 N 255.529 6.29254 -2.89846 0
M  V30 2648 N 257.322 5.17586 -2.19228 0
M  V30 2649 H 249.473 1.33415 -1.6527 0
M  V30 2650 H 251.736 0.64282 -0.696769 0
M  V30 2651 H 251.442 2.78561 -2.14701 0
M  V30 2652 H 251.316 3.7133 -0.662862 0
M  V30 2653 H 253.703 2.95086 -0.028475 0
M  V30 2654 H 253.784 2.04002 -1.54328 0
M  V30 2655 H 253.428 4.21001 -2.84114 0
M  V30 2656 H 253.358 5.10275 -1.30104 0
M  V30 2657 H 255.849 3.54119 -1.31939 0
M  V30 2658 H 256.162 6.99964 -3.27522 0
M  V30 2659 H 254.507 6.29791 -2.93919 0
M  V30 2660 H 257.698 4.35631 -1.71299 0
M  V30 2661 H 257.871 5.93348 -2.60466 0
M  V30 2662 N 251.277 0.427512 1.51691 0
M  V30 2663 C 252.225 -0.403359 2.29076 0
M  V30 2664 C 253.219 -1.02962 1.34518 0
M  V30 2665 O 254.425 -0.965715 1.51901 0
M  V30 2666 H 250.8 -0.148879 0.737115 0
M  V30 2667 H 252.771 0.270295 2.97173 0
M  V30 2668 C 251.52 -1.49763 3.13794 0
M  V30 2669 H 250.843 -1.02508 3.86435 0
M  V30 2670 H 252.283 -2.05244 3.71014 0
M  V30 2671 C 250.742 -2.47536 2.28533 0
M  V30 2672 O 251.272 -3.51848 1.93819 0
M  V30 2673 N 249.478 -2.18187 1.91945 0
M  V30 2674 H 249.025 -1.33389 2.20375 0
M  V30 2675 H 248.983 -2.83848 1.35195 0
M  V30 2676 N 252.755 -1.56801 0.158532 0
M  V30 2677 C 253.687 -2.14488 -0.807923 0
M  V30 2678 C 254.7 -1.09721 -1.20271 0
M  V30 2679 O 255.889 -1.36956 -1.14478 0
M  V30 2680 C 252.989 -2.66217 -2.09718 0
M  V30 2681 C 252.162 -3.95507 -1.86796 0
M  V30 2682 C 251.221 -4.3243 -2.99818 0
M  V30 2683 O 250.247 -5.00543 -2.71008 0
M  V30 2684 N 251.449 -3.92947 -4.27285 0
M  V30 2685 H 254.214 -2.98042 -0.314816 0
M  V30 2686 H 251.775 -1.61881 -0.0246692 0
M  V30 2687 H 253.767 -2.87924 -2.84398 0
M  V30 2688 H 252.337 -1.87324 -2.50257 0
M  V30 2689 H 251.557 -3.82309 -0.96089 0
M  V30 2690 H 252.845 -4.79972 -1.68833 0
M  V30 2691 H 252.243 -3.38087 -4.53557 0
M  V30 2692 H 250.8 -4.19681 -4.9871 0
M  V30 2693 N 254.233 0.115231 -1.57178 0
M  V30 2694 C 255.163 1.1423 -2.03651 0
M  V30 2695 C 256.144 1.42967 -0.921655 0
M  V30 2696 O 257.329 1.53343 -1.19162 0
M  V30 2697 C 254.459 2.4675 -2.44401 0
M  V30 2698 C 253.413 2.32467 -3.59365 0
M  V30 2699 C 252.739 3.69984 -3.86026 0
M  V30 2700 C 254.039 1.78203 -4.90959 0
M  V30 2701 H 255.733 0.755749 -2.89705 0
M  V30 2702 H 253.279 0.362093 -1.39373 0
M  V30 2703 H 255.232 3.18854 -2.75517 0
M  V30 2704 H 253.956 2.87302 -1.55322 0
M  V30 2705 H 252.615 1.62811 -3.28463 0
M  V30 2706 H 252.263 4.08028 -2.94147 0
M  V30 2707 H 251.963 3.61279 -4.63412 0
M  V30 2708 H 253.487 4.43587 -4.19599 0
M  V30 2709 H 254.901 2.40128 -5.20587 0
M  V30 2710 H 253.298 1.8031 -5.72371 0
M  V30 2711 H 254.368 0.739876 -4.79222 0
M  V30 2712 N 255.711 1.52812 0.385517 0
M  V30 2713 C 257.127 1.4214 0.725829 0
M  V30 2714 C 257.327 0.544589 1.94001 0
M  V30 2715 O 256.383 0.0193693 2.52493 0
M  V30 2716 C 257.696 2.85042 0.957668 0
M  V30 2717 C 259.244 2.94543 1.05892 0
M  V30 2718 C 259.719 4.38464 1.32337 0
M  V30 2719 N 261.21 4.41804 1.39151 0
M  V30 2720 C 261.945 5.5025 1.61285 0
M  V30 2721 N 261.441 6.68775 1.80866 0
M  V30 2722 N 263.234 5.37798 1.63492 0
M  V30 2723 H 255.385 2.08338 -0.413383 0
M  V30 2724 H 257.648 0.940016 -0.122775 0
M  V30 2725 H 257.354 3.51431 0.137568 0
M  V30 2726 H 257.228 3.27505 1.87137 0
M  V30 2727 H 259.615 2.28321 1.86959 0
M  V30 2728 H 259.696 2.55504 0.123057 0
M  V30 2729 H 259.34 5.05254 0.517793 0
M  V30 2730 H 259.27 4.75059 2.27214 0
M  V30 2731 H 261.761 3.56377 1.25713 0
M  V30 2732 H 262.074 7.47197 1.97271 0
M  V30 2733 H 260.419 6.71797 1.78083 0
M  V30 2734 H 263.61 4.44171 1.47749 0
M  V30 2735 H 263.783 6.22382 1.80402 0
M  V30 2736 N 257.189 -0.644168 1.43834 0
M  V30 2737 C 258.605 -0.960875 1.27434 0
M  V30 2738 C 258.805 -2.00499 0.200618 0
M  V30 2739 O 257.861 -2.49018 -0.417906 0
M  V30 2740 C 259.174 -1.43653 2.64167 0
M  V30 2741 C 260.722 -1.55271 2.71772 0
M  V30 2742 C 261.197 -2.06224 4.08944 0
M  V30 2743 N 262.688 -2.13513 4.11055 0
M  V30 2744 C 263.423 -2.54081 5.14033 0
M  V30 2745 N 262.919 -2.9388 6.27381 0
M  V30 2746 N 264.712 -2.54101 5.01387 0
M  V30 2747 H 256.863 0.0465779 2.12349 0
M  V30 2748 H 259.126 -0.0417638 0.94708 0
M  V30 2749 H 258.832 -0.743706 3.43747 0
M  V30 2750 H 258.706 -2.40993 2.90176 0
M  V30 2751 H 261.093 -2.23653 1.92519 0
M  V30 2752 H 261.174 -0.563395 2.49519 0
M  V30 2753 H 260.818 -1.38441 4.88668 0
M  V30 2754 H 260.748 -3.06003 4.28567 0
M  V30 2755 H 263.239 -1.85493 3.29242 0
M  V30 2756 H 263.552 -3.2361 7.01781 0
M  V30 2757 H 261.897 -2.91663 6.30839 0
M  V30 2758 H 265.088 -2.22391 4.11898 0
M  V30 2759 H 265.261 -2.85394 5.81768 0
M  V30 2760 N 258.668 -1.30515 -0.883378 0
M  V30 2761 C 259.616 -1.16941 -2.01066 0
M  V30 2762 C 260.61 -0.0809148 -1.69207 0
M  V30 2763 O 261.816 -0.241877 -1.78367 0
M  V30 2764 H 258.191 -0.361705 -0.659298 0
M  V30 2765 H 260.162 -2.12344 -2.09649 0
M  V30 2766 C 258.911 -0.879694 -3.36388 0
M  V30 2767 H 258.234 -1.70936 -3.61415 0
M  V30 2768 H 259.674 -0.82483 -4.159 0
M  V30 2769 C 258.133 0.417409 -3.34304 0
M  V30 2770 O 258.663 1.43843 -3.75063 0
M  V30 2771 N 256.869 0.429141 -2.87414 0
M  V30 2772 H 256.416 -0.402222 -2.5444 0
M  V30 2773 H 256.374 1.29696 -2.86403 0
M  V30 2774 N 260.146 1.09593 -1.13257 0
M  V30 2775 C 261.076 2.18214 -0.830946 0
M  V30 2776 C 262.057 1.68812 0.208966 0
M  V30 2777 O 263.242 1.9408 0.0682666 0
M  V30 2778 C 260.372 3.46051 -0.294296 0
M  V30 2779 C 259.326 4.08778 -1.26826 0
M  V30 2780 C 258.652 5.31419 -0.591449 0
M  V30 2781 C 259.952 4.51476 -2.62615 0
M  V30 2782 H 261.646 2.43703 -1.73923 0
M  V30 2783 H 259.192 1.17128 -0.837675 0
M  V30 2784 H 261.145 4.2134 -0.0709606 0
M  V30 2785 H 259.869 3.20079 0.649366 0
M  V30 2786 H 258.528 3.35505 -1.47756 0
M  V30 2787 H 258.176 5.01727 0.357633 0
M  V30 2788 H 257.876 5.74341 -1.24123 0
M  V30 2789 H 259.4 6.09433 -0.377355 0
M  V30 2790 H 260.814 5.17999 -2.45663 0
M  V30 2791 H 259.211 5.05277 -3.23752 0
M  V30 2792 H 260.281 3.63962 -3.20406 0
M  V30 2793 N 261.624 0.925811 1.2754 0
M  V30 2794 C 262.852 0.581509 1.9856 0
M  V30 2795 C 263.267 -0.840041 1.69082 0
M  V30 2796 O 262.624 -1.55805 0.950312 0
M  V30 2797 C 262.675 0.795589 3.52637 0
M  V30 2798 O 262.396 2.16121 3.81082 0
M  V30 2799 C 263.897 0.459744 4.4091 0
M  V30 2800 H 261.117 0.220538 0.633722 0
M  V30 2801 H 263.661 1.24232 1.6244 0
M  V30 2802 H 261.816 0.18161 3.86974 0
M  V30 2803 H 262.23 2.2098 4.75676 0
M  V30 2804 H 263.704 0.660244 5.48037 0
M  V30 2805 H 264.181 -0.604625 4.35018 0
M  V30 2806 H 264.787 1.05178 4.12089 0
M  V30 2807 N 263.102 -1.41638 0.69111 0
M  V30 2808 C 264.032 -2.3347 0.037248 0
M  V30 2809 C 265.013 -1.51575 -0.771947 0
M  V30 2810 O 266.198 -1.80126 -0.72582 0
M  V30 2811 C 263.328 -3.35354 -0.903064 0
M  V30 2812 C 262.282 -4.27526 -0.201288 0
M  V30 2813 C 261.608 -5.19747 -1.25565 0
M  V30 2814 C 262.908 -5.13959 0.929689 0
M  V30 2815 H 264.602 -2.88397 0.804227 0
M  V30 2816 H 262.148 -1.38669 0.388189 0
M  V30 2817 H 264.101 -3.98519 -1.36969 0
M  V30 2818 H 262.825 -2.78767 -1.70166 0
M  V30 2819 H 261.484 -3.65779 0.245265 0
M  V30 2820 H 261.132 -4.59479 -2.04666 0
M  V30 2821 H 260.832 -5.8225 -0.791128 0
M  V30 2822 H 262.356 -5.85789 -1.72288 0
M  V30 2823 H 263.77 -5.70718 0.543546 0
M  V30 2824 H 262.167 -5.85379 1.32103 0
M  V30 2825 H 263.237 -4.51389 1.77133 0
M  V30 2826 N 264.58 -0.43555 -1.51462 0
M  V30 2827 C 265.808 0.130242 -2.0649 0
M  V30 2828 C 266.223 1.36614 -1.30315 0
M  V30 2829 O 265.58 1.78869 -0.362223 0
M  V30 2830 C 265.631 0.454253 -3.58635 0
M  V30 2831 O 265.352 -0.73259 -4.31931 0
M  V30 2832 C 266.853 1.07091 -4.3017 0
M  V30 2833 H 264.073 0.00871669 -0.670943 0
M  V30 2834 H 266.617 -0.614117 -1.95061 0
M  V30 2835 H 264.772 1.14851 -3.69984 0
M  V30 2836 H 265.186 -0.455787 -5.22516 0
M  V30 2837 H 266.66 1.24764 -5.37716 0
M  V30 2838 H 267.137 2.05144 -3.88346 0
M  V30 2839 H 267.743 0.416089 -4.2326 0
M  V30 2840 N 266.058 1.56714 -0.166846 0
M  V30 2841 C 267.335 1.88412 0.525373 0
M  V30 2842 C 267.715 1.07602 1.81618 0
M  V30 2843 O 267.063 0.168621 2.27877 0
M  V30 2844 C 267.273 3.40363 0.771613 0
M  V30 2845 C 268.621 4.10007 1.1036 0
M  V30 2846 O 269.645 3.45655 0.860304 0
M  V30 2847 O 268.504 5.2369 1.56239 0
M  V30 2848 H 265.598 0.781587 0.270278 0
M  V30 2849 H 268.144 1.68458 -0.204946 0
M  V30 2850 H 266.916 3.91046 -0.141093 0
M  V30 2851 H 266.539 3.65914 1.55541 0
M  V30 2852 N 267.536 -0.106894 1.57237 0
M  V30 2853 C 268.466 -1.13148 2.04254 0
M  V30 2854 C 269.447 -1.42476 0.929224 0
M  V30 2855 O 270.632 -1.52709 1.19973 0
M  V30 2856 C 267.762 -2.4545 2.45706 0
M  V30 2857 C 266.716 -2.30558 3.60592 0
M  V30 2858 C 266.042 -3.67931 3.87983 0
M  V30 2859 C 267.342 -1.75597 4.91897 0
M  V30 2860 H 269.036 -0.740374 2.90101 0
M  V30 2861 H 266.582 -0.354696 1.39563 0
M  V30 2862 H 268.535 -3.17389 2.77205 0
M  V30 2863 H 267.259 -2.86475 1.56843 0
M  V30 2864 H 265.918 -1.61067 3.29322 0
M  V30 2865 H 265.566 -4.06462 2.96306 0
M  V30 2866 H 265.266 -3.58817 4.65322 0
M  V30 2867 H 266.79 -4.41356 4.21945 0
M  V30 2868 H 268.204 -2.37364 5.21854 0
M  V30 2869 H 266.601 -1.77272 5.73319 0
M  V30 2870 H 267.671 -0.714451 4.79608 0
M  V30 2871 N 269.014 -1.53014 -0.377408 0
M  V30 2872 C 269.946 -1.74884 -1.48149 0
M  V30 2873 C 270.959 -0.629433 -1.5014 0
M  V30 2874 O 272.148 -0.905416 -1.53833 0
M  V30 2875 C 269.248 -1.80299 -2.86959 0
M  V30 2876 C 268.421 -3.09776 -3.08801 0
M  V30 2877 C 267.48 -3.06586 -4.27658 0
M  V30 2878 O 266.506 -3.80419 -4.23403 0
M  V30 2879 N 267.708 -2.26578 -5.34455 0
M  V30 2880 H 270.473 -2.70147 -1.29771 0
M  V30 2881 H 268.034 -1.51646 -0.56703 0
M  V30 2882 H 270.026 -1.75657 -3.64591 0
M  V30 2883 H 268.596 -0.92372 -2.98641 0
M  V30 2884 H 267.816 -3.27815 -2.18931 0
M  V30 2885 H 269.104 -3.95366 -3.20255 0
M  V30 2886 H 268.502 -1.66081 -5.40771 0
M  V30 2887 H 267.059 -2.27766 -6.10709 0
M  V30 2888 N 270.492 0.636531 -1.44174 0
M  V30 2889 C 271.717 1.42847 -1.50364 0
M  V30 2890 C 272.142 1.87665 -0.127867 0
M  V30 2891 O 271.5 1.58408 0.88185 0
M  V30 2892 C 271.548 2.62854 -2.4686 0
M  V30 2893 O 270.652 3.62501 -1.9664 0
M  V30 2894 H 269.993 0.427642 -0.507955 0
M  V30 2895 H 272.523 0.777422 -1.89255 0
M  V30 2896 H 272.533 3.10465 -2.64718 0
M  V30 2897 H 271.208 2.29578 -3.46795 0
M  V30 2898 H 269.785 3.21735 -1.88523 0
M  V30 2899 N 271.97 1.30982 0.876444 0
M  V30 2900 C 273.381 1.18277 1.44456 0
M  V30 2901 C 273.732 -0.213265 1.95037 0
M  V30 2902 O 272.857 -1.11057 1.85729 0
M  V30 2903 C 273.452 2.1411 2.62569 0
M  V30 2904 C 272.011 2.05358 3.15444 0
M  V30 2905 C 271.158 2.03706 1.88146 0
M  V30 2906 H 274.109 1.43127 0.685584 0
M  V30 2907 H 274.13 1.72692 3.39054 0
M  V30 2908 H 273.642 3.15706 2.25724 0
M  V30 2909 H 271.743 1.06934 3.56926 0
M  V30 2910 H 271.856 2.94156 3.78166 0
M  V30 2911 H 270.22 1.48629 2.06837 0
M  V30 2912 H 271.003 3.07047 1.53547 0
M  V30 2913 N 273.449 -1.08991 1.13837 0
M  V30 2914 C 274.396 -2.15748 0.819835 0
M  V30 2915 C 275.366 -1.64636 -0.220026 0
M  V30 2916 O 276.551 -1.90582 -0.0912757 0
M  V30 2917 C 273.691 -3.4382 0.296913 0
M  V30 2918 C 272.804 -4.0881 1.39636 0
M  V30 2919 C 271.939 -5.24655 0.831314 0
M  V30 2920 C 270.978 -5.81575 1.90886 0
M  V30 2921 N 270.115 -6.88774 1.36142 0
M  V30 2922 H 274.955 -2.42338 1.73426 0
M  V30 2923 H 272.492 -1.18935 0.865613 0
M  V30 2924 H 274.45 -4.17193 -0.0244339 0
M  V30 2925 H 273.08 -3.17535 -0.580628 0
M  V30 2926 H 272.132 -3.33258 1.83422 0
M  V30 2927 H 273.444 -4.47141 2.21058 0
M  V30 2928 H 272.598 -6.04942 0.461515 0
M  V30 2929 H 271.337 -4.87698 -0.013932 0
M  V30 2930 H 270.342 -4.99946 2.28767 0
M  V30 2931 H 271.567 -6.20592 2.75758 0
M  V30 2932 H 269.513 -6.53788 0.538254 0
M  V30 2933 H 269.43 -7.25898 2.11208 0
M  V30 2934 H 270.698 -7.72806 1.01933 0
M  V30 2935 N 274.927 -0.932562 -1.27047 0
M  V30 2936 C 275.874 -0.434072 -2.26681 0
M  V30 2937 C 276.844 0.501639 -1.58344 0
M  V30 2938 O 278.029 0.419734 -1.86126 0
M  V30 2939 C 275.169 0.30261 -3.43771 0
M  V30 2940 C 274.282 -0.667774 -4.26808 0
M  V30 2941 C 273.417 0.0892393 -5.31125 0
M  V30 2942 C 272.456 -0.873532 -6.05835 0
M  V30 2943 N 271.593 -0.148832 -7.01942 0
M  V30 2944 H 276.433 -1.28868 -2.68695 0
M  V30 2945 H 273.97 -0.646713 -1.32121 0
M  V30 2946 H 275.928 0.746092 -4.10474 0
M  V30 2947 H 274.558 1.12142 -3.02695 0
M  V30 2948 H 273.61 -1.22978 -3.59973 0
M  V30 2949 H 274.922 -1.40337 -4.78651 0
M  V30 2950 H 274.076 0.592409 -6.03801 0
M  V30 2951 H 272.815 0.85777 -4.80097 0
M  V30 2952 H 271.82 -1.38791 -5.31994 0
M  V30 2953 H 273.045 -1.64193 -6.58952 0
M  V30 2954 H 270.991 0.601365 -6.53238 0
M  V30 2955 H 270.908 -0.82391 -7.51497 0
M  V30 2956 H 272.176 0.333527 -7.78786 0
M  V30 2957 N 276.405 1.4127 -0.698611 0
M  V30 2958 C 277.653 2.00782 -0.230409 0
M  V30 2959 C 277.974 1.5562 1.17505 0
M  V30 2960 O 277.244 0.78815 1.79346 0
M  V30 2961 H 275.824 0.742464 -0.0821944 0
M  V30 2962 H 278.486 1.72852 -0.90045 0
M  V30 2963 H 277.582 3.11095 -0.25021 0
M  V30 2964 N 277.883 0.443576 1.51229 0
M  V30 2965 C 278.831 -0.37904 2.29491 0
M  V30 2966 C 279.825 -1.0153 1.35603 0
M  V30 2967 O 281.031 -0.94955 1.52917 0
M  V30 2968 H 277.406 -0.141053 0.738653 0
M  V30 2969 H 279.377 0.301799 2.9687 0
M  V30 2970 C 278.126 -1.46426 3.15364 0
M  V30 2971 H 277.449 -0.984037 3.87501 0
M  V30 2972 H 278.889 -2.01297 3.7317 0
M  V30 2973 C 277.348 -2.45099 2.31146 0
M  V30 2974 O 277.878 -3.49773 1.9754 0
M  V30 2975 N 276.084 -2.16139 1.94249 0
M  V30 2976 H 275.631 -1.31044 2.21777 0
M  V30 2977 H 275.589 -2.82398 1.38198 0
M  V30 2978 N 279.361 -1.56624 0.175154 0
M  V30 2979 C 280.324 -2.16934 -0.739738 0
M  V30 2980 C 281.324 -1.11842 -1.15533 0
M  V30 2981 O 282.514 -1.37335 -1.07167 0
M  V30 2982 C 279.646 -2.75531 -2.00738 0
M  V30 2983 H 280.839 -2.99131 -0.214639 0
M  V30 2984 H 278.392 -1.56123 -0.0744197 0
M  V30 2985 H 279.127 -1.97078 -2.57548 0
M  V30 2986 H 278.912 -3.52444 -1.71831 0
M  V30 2987 H 280.402 -3.21904 -2.66021 0
M  V30 2988 N 280.839 0.0985539 -1.57292 0
M  V30 2989 C 282.088 0.801358 -1.85098 0
M  V30 2990 C 282.401 1.80066 -0.763902 0
M  V30 2991 O 283.607 2.55112 -0.928981 0
M  V30 2992 C 282.063 1.47599 -3.28242 0
M  V30 2993 C 281.671 0.516624 -4.45011 0
M  V30 2994 C 283.415 2.16272 -3.65276 0
M  V30 2995 C 281.322 1.19564 -5.79188 0
M  V30 2996 H 280.252 0.303022 -0.69043 0
M  V30 2997 H 282.903 0.0542623 -1.8342 0
M  V30 2998 H 281.285 2.27042 -3.2445 0
M  V30 2999 H 282.459 -0.246065 -4.60143 0
M  V30 3000 H 280.774 -0.064227 -4.1635 0
M  V30 3001 H 283.371 2.67802 -4.62803 0
M  V30 3002 H 283.714 2.95009 -2.93727 0
M  V30 3003 H 284.247 1.43693 -3.70941 0
M  V30 3004 H 280.986 0.449157 -6.53959 0
M  V30 3005 H 280.506 1.92984 -5.67906 0
M  V30 3006 H 282.185 1.7231 -6.23633 0
M  V30 3007 N 282.317 1.53212 0.369288 0
M  V30 3008 C 283.728 1.60943 0.946276 0
M  V30 3009 C 284.079 0.47452 1.90375 0
M  V30 3010 O 283.204 -0.399597 2.12679 0
M  V30 3011 C 283.799 2.91715 1.72302 0
M  V30 3012 C 282.358 3.01792 2.24941 0
M  V30 3013 C 281.505 2.56211 1.06072 0
M  V30 3014 H 284.456 1.58007 0.148198 0
M  V30 3015 H 284.477 2.79309 2.58393 0
M  V30 3016 H 283.989 3.74295 1.0259 0
M  V30 3017 H 282.09 2.23791 2.97906 0
M  V30 3018 H 282.203 4.06803 2.53077 0
M  V30 3019 H 280.567 2.10998 1.4266 0
M  V30 3020 H 281.35 3.41206 0.378639 0
M  V30 3021 N 283.795 -0.628877 1.44509 0
M  V30 3022 C 285.025 -1.41349 1.50678 0
M  V30 3023 C 285.433 -1.88745 0.131075 0
M  V30 3024 O 284.776 -1.61592 -0.87371 0
M  V30 3025 C 284.838 -2.66608 2.41165 0
M  V30 3026 C 284.502 -2.40993 3.88293 0
M  V30 3027 C 285.499 -2.0268 4.78766 0
M  V30 3028 C 283.184 -2.54563 4.33016 0
M  V30 3029 C 285.178 -1.78269 6.11963 0
M  V30 3030 C 282.865 -2.29766 5.6626 0
M  V30 3031 C 283.863 -1.91678 6.55552 0
M  V30 3032 O 283.551 -1.67158 7.86329 0
M  V30 3033 H 283.283 -0.439851 0.51333 0
M  V30 3034 H 285.837 -0.776084 1.90174 0
M  V30 3035 H 284.067 -3.32994 1.96601 0
M  V30 3036 H 285.756 -3.28615 2.38259 0
M  V30 3037 H 286.522 -1.91751 4.45485 0
M  V30 3038 H 282.401 -2.83179 3.63773 0
M  V30 3039 H 285.945 -1.48465 6.81619 0
M  V30 3040 H 281.842 -2.40306 5.99102 0
M  V30 3041 H 282.61 -1.81386 7.98149 0
M  V30 3042 N 285.273 -1.31445 -0.869486 0
M  V30 3043 C 286.52 -1.21158 -1.62256 0
M  V30 3044 C 286.848 0.230155 -1.93133 0
M  V30 3045 O 286.103 1.17906 -1.56194 0
M  V30 3046 C 286.402 -2.00145 -2.96102 0
M  V30 3047 C 286.068 -3.4964 -2.84715 0
M  V30 3048 C 284.73 -3.90403 -2.81317 0
M  V30 3049 C 287.082 -4.44769 -2.71716 0
M  V30 3050 C 284.41 -5.24561 -2.62778 0
M  V30 3051 C 286.762 -5.79054 -2.54714 0
M  V30 3052 C 285.426 -6.19037 -2.49699 0
M  V30 3053 H 284.696 -0.443348 -0.593737 0
M  V30 3054 H 287.343 -1.62715 -1.00976 0
M  V30 3055 H 285.648 -1.5127 -3.6142 0
M  V30 3056 H 287.345 -1.89566 -3.53363 0
M  V30 3057 H 283.935 -3.17256 -2.88178 0
M  V30 3058 H 288.119 -4.14208 -2.73397 0
M  V30 3059 H 283.375 -5.54613 -2.57321 0
M  V30 3060 H 287.549 -6.52393 -2.43632 0
M  V30 3061 H 285.176 -7.22935 -2.35093 0
M  V30 3062 N 286.751 1.08385 -1.14413 0
M  V30 3063 C 287.683 2.1519 -0.789036 0
M  V30 3064 C 288.696 1.61638 0.19417 0
M  V30 3065 O 289.885 1.78479 -0.0275711 0
M  V30 3066 C 286.985 3.38565 -0.15058 0
M  V30 3067 C 286.158 4.21501 -1.16857 0
M  V30 3068 C 285.217 5.23277 -0.553832 0
M  V30 3069 O 284.243 5.56041 -1.21686 0
M  V30 3070 N 285.445 5.76629 0.669296 0
M  V30 3071 H 288.21 2.46257 -1.70814 0
M  V30 3072 H 285.771 1.24198 -1.03858 0
M  V30 3073 H 287.763 4.03777 0.273181 0
M  V30 3074 H 286.333 3.05299 0.671667 0
M  V30 3075 H 285.553 3.52265 -1.76926 0
M  V30 3076 H 286.841 4.73731 -1.85624 0
M  V30 3077 H 286.239 5.52243 1.22654 0
M  V30 3078 H 284.796 6.43521 1.03556 0
M  V30 3079 N 288.23 0.939286 1.26551 0
M  V30 3080 C 289.163 0.391702 2.24813 0
M  V30 3081 C 290.141 -0.518421 1.54114 0
M  V30 3082 O 291.325 -0.456299 1.82894 0
M  V30 3083 C 288.452 -0.437382 3.35864 0
M  V30 3084 C 287.498 0.410946 4.24516 0
M  V30 3085 S 288.331 1.83372 5.03125 0
M  V30 3086 C 289.487 1.01264 6.17654 0
M  V30 3087 H 289.72 1.22448 2.70913 0
M  V30 3088 H 287.253 0.742269 1.35387 0
M  V30 3089 H 289.211 -0.909837 4.0029 0
M  V30 3090 H 287.872 -1.24482 2.8838 0
M  V30 3091 H 287.065 -0.224191 5.03501 0
M  V30 3092 H 286.667 0.818014 3.64945 0
M  V30 3093 H 288.959 0.254023 6.77024 0
M  V30 3094 H 289.902 1.77589 6.85469 0
M  V30 3095 H 290.31 0.549532 5.61819 0
M  V30 3096 N 289.708 -1.40897 0.706093 0
M  V30 3097 C 290.936 -2.05373 0.250887 0
M  V30 3098 C 291.351 -1.53172 -1.10381 0
M  V30 3099 O 290.708 -0.684305 -1.69185 0
M  V30 3100 C 290.759 -3.6088 0.211571 0
M  V30 3101 O 290.48 -4.11153 1.51276 0
M  V30 3102 C 291.981 -4.42517 -0.263346 0
M  V30 3103 H 289.201 -0.66115 0.114552 0
M  V30 3104 H 291.745 -1.80479 0.961635 0
M  V30 3105 H 289.9 -3.84777 -0.450073 0
M  V30 3106 H 290.314 -5.05279 1.40689 0
M  V30 3107 H 291.788 -5.51479 -0.239718 0
M  V30 3108 H 292.265 -4.19396 -1.30397 0
M  V30 3109 H 292.871 -4.23708 0.367677 0
M  V30 3110 N 291.186 -0.45159 -1.50991 0
M  V30 3111 C 292.597 0.00818571 -1.86698 0
M  V30 3112 C 292.948 1.40661 -1.3678 0
M  V30 3113 O 292.073 2.0391 -0.724546 0
M  V30 3114 C 292.668 0.0216303 -3.38793 0
M  V30 3115 C 291.227 0.425865 -3.73983 0
M  V30 3116 C 290.374 -0.372163 -2.74791 0
M  V30 3117 H 293.325 -0.666785 -1.44013 0
M  V30 3118 H 293.346 0.828078 -3.7138 0
M  V30 3119 H 292.858 -0.996288 -3.75094 0
M  V30 3120 H 290.959 1.44886 -3.43277 0
M  V30 3121 H 291.072 0.140761 -4.78893 0
M  V30 3122 H 289.436 0.171498 -2.54122 0
M  V30 3123 H 290.219 -1.38922 -3.13935 0
M  V30 3124 N 292.664 1.56529 -0.183458 0
M  V30 3125 C 293.913 1.96419 0.458511 0
M  V30 3126 C 294.226 1.0727 1.63562 0
M  V30 3127 O 295.432 1.36893 2.34462 0
M  V30 3128 C 293.888 3.49298 0.867122 0
M  V30 3129 C 293.496 4.47092 -0.285057 0
M  V30 3130 C 295.24 3.97983 1.47683 0
M  V30 3131 C 293.147 5.91225 0.143862 0
M  V30 3132 H 292.077 0.733394 0.175071 0
M  V30 3133 H 294.728 1.81448 -0.273624 0
M  V30 3134 H 293.11 3.59731 1.65559 0
M  V30 3135 H 294.284 4.48383 -1.0625 0
M  V30 3136 H 292.599 4.08535 -0.805503 0
M  V30 3137 H 295.196 5.03134 1.80999 0
M  V30 3138 H 295.539 3.41618 2.37914 0
M  V30 3139 H 296.072 3.90617 0.752562 0
M  V30 3140 H 292.811 6.5149 -0.723974 0
M  V30 3141 H 292.331 5.93214 0.886413 0
M  V30 3142 H 294.01 6.44362 0.583628 0
M  V30 3143 N 294.142 -0.090211 1.57342 0
M  V30 3144 C 295.367 -0.810082 1.90925 0
M  V30 3145 C 295.792 -1.71248 0.778187 0
M  V30 3146 O 295.15 -1.79278 -0.269991 0
M  V30 3147 C 295.198 -1.59529 3.23393 0
M  V30 3148 O 294.302 -2.70461 3.11327 0
M  V30 3149 H 293.643 -0.222231 0.625707 0
M  V30 3150 H 296.173 -0.0639716 2.045 0
M  V30 3151 H 296.183 -1.97847 3.5682 0
M  V30 3152 H 294.858 -0.933055 4.05299 0
M  V30 3153 H 293.435 -2.35135 2.89423 0
M  V30 3154 N 295.62 -1.53406 -0.361157 0
M  V30 3155 C 296.848 -1.73717 -1.12383 0
M  V30 3156 C 297.263 -0.468161 -1.82904 0
M  V30 3157 O 296.62 0.559198 -1.73722 0
M  V30 3158 C 296.671 -2.90558 -2.15078 0
M  V30 3159 O 296.392 -4.12549 -1.47428 0
M  V30 3160 C 297.893 -3.22777 -3.03858 0
M  V30 3161 H 295.113 -0.580896 -0.335858 0
M  V30 3162 H 297.657 -2.00167 -0.418728 0
M  V30 3163 H 295.812 -2.66489 -2.8118 0
M  V30 3164 H 296.226 -4.78009 -2.15887 0
M  V30 3165 H 297.7 -4.07927 -3.71887 0
M  V30 3166 H 298.177 -2.38329 -3.68912 0
M  V30 3167 H 298.783 -3.48787 -2.43367 0
M  V30 3168 N 297.098 0.621204 -1.44841 0
M  V30 3169 C 298.323 1.41244 -1.51871 0
M  V30 3170 C 298.748 1.87519 -0.147764 0
M  V30 3171 O 298.106 1.59334 0.865 0
M  V30 3172 C 298.154 2.60221 -2.49634 0
M  V30 3173 O 297.258 3.60395 -2.00473 0
M  V30 3174 H 296.599 0.42223 -0.512463 0
M  V30 3175 H 299.129 0.757305 -1.90069 0
M  V30 3176 H 299.139 3.0764 -2.67996 0
M  V30 3177 H 297.814 2.25887 -3.4921 0
M  V30 3178 H 296.391 3.19717 -1.91925 0
M  V30 3179 N 298.576 1.31904 0.862503 0
M  V30 3180 C 299.506 1.22782 1.98612 0
M  V30 3181 C 300.487 0.113362 1.69722 0
M  V30 3182 O 301.672 0.299218 1.91881 0
M  V30 3183 C 298.802 0.942058 3.34279 0
M  V30 3184 C 297.756 2.0169 3.77499 0
M  V30 3185 C 297.082 1.58369 5.10709 0
M  V30 3186 C 298.382 3.43096 3.93805 0
M  V30 3187 H 300.076 2.16788 2.06502 0
M  V30 3188 H 297.622 1.04366 0.992154 0
M  V30 3189 H 299.575 0.864818 4.1243 0
M  V30 3190 H 298.299 -0.0336603 3.26583 0
M  V30 3191 H 296.958 2.08416 3.01593 0
M  V30 3192 H 296.606 0.595628 4.99461 0
M  V30 3193 H 296.306 2.30279 5.40597 0
M  V30 3194 H 297.83 1.52067 5.91361 0
M  V30 3195 H 299.244 3.39003 4.62331 0
M  V30 3196 H 297.641 4.13288 4.35101 0
M  V30 3197 H 298.711 3.83334 2.96957 0
M  V30 3198 N 300.054 -1.07777 1.14986 0
M  V30 3199 C 301.294 -1.81888 0.932527 0
M  V30 3200 C 301.658 -1.84509 -0.531064 0
M  V30 3201 O 302.859 -2.54448 -0.866577 0
M  V30 3202 C 301.13 -3.23244 1.52473 0
M  V30 3203 S 302.689 -4.14154 1.44989 0
M  V30 3204 H 299.507 -0.626752 0.335712 0
M  V30 3205 H 302.109 -1.29503 1.46455 0
M  V30 3206 H 300.813 -3.18922 2.58296 0
M  V30 3207 H 300.344 -3.80704 0.991381 0
M  V30 3208 H 302.359 -4.94247 0.439799 0
M  V30 3209 N 301.532 -0.945985 -1.26051 0
M  V30 3210 C 302.778 -0.606539 -1.94146 0
M  V30 3211 C 303.133 0.84586 -1.72809 0
M  V30 3212 O 302.426 1.59781 -1.05738 0
M  V30 3213 C 302.62 -0.890475 -3.46129 0
M  V30 3214 C 302.449 -2.36892 -3.82246 0
M  V30 3215 C 301.219 -3.02494 -4.04753 0
M  V30 3216 C 303.417 -3.34772 -3.90425 0
M  V30 3217 N 301.399 -4.40302 -4.27794 0
M  V30 3218 C 302.77 -4.57855 -4.18054 0
M  V30 3219 C 304.825 -3.2973 -3.73072 0
M  V30 3220 C 303.528 -5.76522 -4.30134 0
M  V30 3221 C 305.554 -4.47727 -3.86386 0
M  V30 3222 C 304.916 -5.69593 -4.14419 0
M  V30 3223 H 301.015 -0.272407 -0.73302 0
M  V30 3224 H 303.599 -1.21638 -1.52027 0
M  V30 3225 H 301.77 -0.309638 -3.87164 0
M  V30 3226 H 303.502 -0.51181 -4.01451 0
M  V30 3227 H 300.257 -2.53095 -4.003 0
M  V30 3228 H 300.681 -5.11646 -4.43337 0
M  V30 3229 H 305.323 -2.36565 -3.50424 0
M  V30 3230 H 303.041 -6.70136 -4.51601 0
M  V30 3231 H 306.627 -4.45363 -3.74356 0
M  V30 3232 H 305.507 -6.59375 -4.24493 0
M  V30 3233 N 303.011 1.40521 -0.713556 0
M  V30 3234 C 303.959 2.32549 -0.0485227 0
M  V30 3235 C 304.953 1.51931 0.74922 0
M  V30 3236 O 306.159 1.67745 0.652816 0
M  V30 3237 H 302.534 0.751994 0.00311138 0
M  V30 3238 H 304.505 2.86291 -0.841443 0
M  V30 3239 C 303.254 3.36879 0.860687 0
M  V30 3240 H 302.577 3.98978 0.256246 0
M  V30 3241 H 304.017 4.03772 1.294 0
M  V30 3242 C 302.476 2.72197 1.9852 0
M  V30 3243 O 303.006 2.5837 3.07584 0
M  V30 3244 N 301.212 2.30612 1.76823 0
M  V30 3245 H 300.759 2.42059 0.881217 0
M  V30 3246 H 300.717 1.87672 2.52243 0
M  V30 3247 N 304.489 0.459591 1.5075 0
M  V30 3248 C 305.766 -0.160371 1.94941 0
M  V30 3249 C 306.146 -1.58048 1.39943 0
M  V30 3250 O 305.494 -2.206 0.595629 0
M  V30 3251 C 305.704 -0.115432 3.48809 0
M  V30 3252 C 307.052 -0.310026 4.23467 0
M  V30 3253 O 308.076 -0.192543 3.55679 0
M  V30 3254 O 306.935 -0.546031 5.43765 0
M  V30 3255 H 304.029 -0.117925 0.818549 0
M  V30 3256 H 306.575 0.519169 1.61563 0
M  V30 3257 H 305.347 0.87652 3.81357 0
M  V30 3258 H 304.97 -0.836928 3.88692 0
M  V30 3259 N 305.967 -1.56429 0.191757 0
M  V30 3260 C 306.897 -2.21937 -0.725696 0
M  V30 3261 C 307.878 -1.1814 -1.2238 0
M  V30 3262 O 309.063 -1.46636 -1.27325 0
M  V30 3263 C 306.193 -2.87611 -1.94672 0
M  V30 3264 C 305.147 -3.97623 -1.58366 0
M  V30 3265 C 304.473 -4.50446 -2.88102 0
M  V30 3266 C 305.773 -5.16197 -0.796133 0
M  V30 3267 H 307.467 -2.98861 -0.179606 0
M  V30 3268 H 305.013 -1.43749 -0.0849464 0
M  V30 3269 H 306.966 -3.3212 -2.59373 0
M  V30 3270 H 305.69 -2.08087 -2.51728 0
M  V30 3271 H 304.349 -3.53801 -0.960247 0
M  V30 3272 H 303.997 -3.67688 -3.43241 0
M  V30 3273 H 303.697 -5.24675 -2.64556 0
M  V30 3274 H 305.221 -4.97654 -3.53798 0
M  V30 3275 H 306.635 -5.57271 -1.34618 0
M  V30 3276 H 305.032 -5.96471 -0.658928 0
M  V30 3277 H 306.102 -4.84473 0.203478 0
M  V30 3278 N 307.445 0.0818655 -1.57387 0
M  V30 3279 C 308.67 0.799946 -1.91352 0
M  V30 3280 C 309.095 1.70833 -0.787258 0
M  V30 3281 O 308.453 1.79419 0.26048 0
M  V30 3282 C 308.501 1.57812 -3.24234 0
M  V30 3283 O 307.605 2.68806 -3.12757 0
M  V30 3284 H 306.946 0.21891 -0.626877 0
M  V30 3285 H 309.476 0.0531256 -2.04531 0
M  V30 3286 H 309.486 1.95952 -3.57864 0
M  V30 3287 H 308.161 0.911548 -4.05788 0
M  V30 3288 H 306.738 2.33597 -2.90666 0
M  V30 3289 N 308.923 1.53595 0.353017 0
M  V30 3290 C 310.169 1.71581 1.09232 0
M  V30 3291 C 310.524 0.468328 1.86613 0
M  V30 3292 O 309.817 -0.538911 1.83865 0
M  V30 3293 C 310.011 2.91313 2.07054 0
M  V30 3294 C 309.84 4.27585 1.39287 0
M  V30 3295 C 308.61 4.92233 1.1417 0
M  V30 3296 C 310.808 5.07656 0.824005 0
M  V30 3297 N 308.79 6.124 0.428841 0
M  V30 3298 C 310.161 6.19531 0.241195 0
M  V30 3299 C 312.216 4.92609 0.723922 0
M  V30 3300 C 310.919 7.18002 -0.431952 0
M  V30 3301 C 312.945 5.91365 0.0645334 0
M  V30 3302 C 312.307 7.02571 -0.507347 0
M  V30 3303 H 308.406 0.680987 0.384422 0
M  V30 3304 H 310.99 1.91013 0.377096 0
M  V30 3305 H 309.161 2.73398 2.75877 0
M  V30 3306 H 310.893 2.98062 2.73753 0
M  V30 3307 H 307.648 4.51612 1.42631 0
M  V30 3308 H 308.072 6.76944 0.0874131 0
M  V30 3309 H 312.714 4.06808 1.15181 0
M  V30 3310 H 310.432 8.03384 -0.871758 0
M  V30 3311 H 314.018 5.81799 -0.0121469 0
M  V30 3312 H 312.898 7.77675 -1.0095 0
M  V30 3313 N 310.401 -0.613514 1.45168 0
M  V30 3314 C 311.648 -1.37268 1.48875 0
M  V30 3315 C 311.976 -1.94077 0.128161 0
M  V30 3316 O 311.231 -1.75178 -0.872416 0
M  V30 3317 C 311.53 -2.54347 2.51083 0
M  V30 3318 C 311.196 -2.1572 3.95949 0
M  V30 3319 C 309.858 -2.04899 4.35396 0
M  V30 3320 C 312.21 -1.85485 4.87078 0
M  V30 3321 C 309.538 -1.62057 5.63875 0
M  V30 3322 C 311.89 -1.4413 6.15962 0
M  V30 3323 C 310.554 -1.31863 6.54346 0
M  V30 3324 H 309.824 -0.502299 0.544773 0
M  V30 3325 H 312.471 -0.694021 1.78481 0
M  V30 3326 H 310.776 -3.27524 2.15024 0
M  V30 3327 H 312.473 -3.12577 2.51191 0
M  V30 3328 H 309.063 -2.25066 3.64751 0
M  V30 3329 H 313.247 -1.92745 4.57343 0
M  V30 3330 H 308.503 -1.51177 5.92415 0
M  V30 3331 H 312.677 -1.19778 6.86022 0
M  V30 3332 H 310.304 -0.984392 7.538 0
M  V30 3333 N 311.879 -1.3236 -0.855495 0
M  V30 3334 C 312.811 -1.17052 -1.97057 0
M  V30 3335 C 313.824 -0.10574 -1.62456 0
M  V30 3336 O 315.013 -0.354619 -1.74942 0
M  V30 3337 C 312.113 -0.769305 -3.30053 0
M  V30 3338 C 311.286 -1.9222 -3.929 0
M  V30 3339 C 310.345 -1.50466 -5.04228 0
M  V30 3340 O 309.371 -2.21655 -5.24269 0
M  V30 3341 N 310.573 -0.400209 -5.79119 0
M  V30 3342 H 313.338 -2.13103 -2.1073 0
M  V30 3343 H 310.899 -1.24885 -1.0303 0
M  V30 3344 H 312.891 -0.472407 -4.01933 0
M  V30 3345 H 311.461 0.100025 -3.1244 0
M  V30 3346 H 310.681 -2.38563 -3.13817 0
M  V30 3347 H 311.969 -2.69403 -4.31624 0
M  V30 3348 H 311.367 0.192319 -5.65373 0
M  V30 3349 H 309.924 -0.162912 -6.51596 0
M  V30 3350 N 313.357 1.07166 -1.15556 0
M  V30 3351 C 314.582 1.84053 -0.955988 0
M  V30 3352 C 315.007 1.81586 0.490739 0
M  V30 3353 O 314.365 1.21018 1.34997 0
M  V30 3354 C 314.413 3.28957 -1.47714 0
M  V30 3355 O 313.517 4.06795 -0.677593 0
M  V30 3356 H 312.858 0.569842 -0.340847 0
M  V30 3357 H 315.388 1.35178 -1.53584 0
M  V30 3358 H 315.398 3.79788 -1.4908 0
M  V30 3359 H 314.073 3.30068 -2.53037 0
M  V30 3360 H 312.65 3.6561 -0.733721 0
M  V30 3361 N 314.835 0.952656 1.25548 0
M  V30 3362 C 316.084 0.602053 1.92505 0
M  V30 3363 C 316.397 -0.864663 1.75451 0
M  V30 3364 O 317.603 -1.32514 2.36965 0
M  V30 3365 C 316.059 1.02607 3.44963 0
M  V30 3366 C 315.667 2.51519 3.70732 0
M  V30 3367 C 317.411 0.747905 4.1786 0
M  V30 3368 C 315.318 2.87732 5.16686 0
M  V30 3369 H 314.248 0.22146 0.720744 0
M  V30 3370 H 316.899 1.15684 1.42441 0
M  V30 3371 H 315.281 0.399712 3.93978 0
M  V30 3372 H 316.455 3.19157 3.32378 0
M  V30 3373 H 314.77 2.76786 3.11092 0
M  V30 3374 H 317.367 0.994647 5.25367 0
M  V30 3375 H 317.71 -0.315629 4.15102 0
M  V30 3376 H 318.243 1.33452 3.74747 0
M  V30 3377 H 314.982 3.93095 5.24554 0
M  V30 3378 H 314.502 2.24765 5.56094 0
M  V30 3379 H 316.181 2.76817 5.84792 0
M  V30 3380 N 316.313 -1.40141 0.720998 0
M  V30 3381 C 317.541 -2.05096 0.272656 0
M  V30 3382 C 317.956 -1.54334 -1.0875 0
M  V30 3383 O 317.313 -0.702211 -1.6845 0
M  V30 3384 C 317.364 -3.60636 0.249835 0
M  V30 3385 O 317.085 -4.09526 1.55629 0
M  V30 3386 C 318.586 -4.42772 -0.216396 0
M  V30 3387 H 315.806 -0.659897 0.121558 0
M  V30 3388 H 318.35 -1.79449 0.980723 0
M  V30 3389 H 316.505 -3.85232 -0.409237 0
M  V30 3390 H 316.919 -5.03758 1.4604 0
M  V30 3391 H 318.393 -5.51702 -0.181212 0
M  V30 3392 H 318.87 -4.20756 -1.25941 0
M  V30 3393 H 319.476 -4.23294 0.412596 0
M  V30 3394 N 317.792 -0.46758 -1.50504 0
M  V30 3395 C 319.208 -0.121533 -1.59137 0
M  V30 3396 C 319.408 1.3717 -1.47603 0
M  V30 3397 O 318.464 2.14464 -1.33272 0
M  V30 3398 C 319.777 -0.6686 -2.93173 0
M  V30 3399 C 321.325 -0.631716 -3.06559 0
M  V30 3400 C 321.8 -1.15627 -4.43164 0
M  V30 3401 N 323.291 -1.11553 -4.49567 0
M  V30 3402 C 324.026 -1.49195 -5.5365 0
M  V30 3403 N 323.522 -1.94269 -6.65005 0
M  V30 3404 N 325.315 -1.4082 -5.44175 0
M  V30 3405 H 317.466 -1.4388 -1.56245 0
M  V30 3406 H 319.729 -0.594784 -0.738198 0
M  V30 3407 H 319.435 -1.71453 -3.07078 0
M  V30 3408 H 319.309 -0.11021 -3.77039 0
M  V30 3409 H 321.696 0.405297 -2.92304 0
M  V30 3410 H 321.777 -1.22687 -2.24458 0
M  V30 3411 H 321.421 -2.1919 -4.58168 0
M  V30 3412 H 321.351 -0.537365 -5.23851 0
M  V30 3413 H 323.842 -0.784895 -3.69659 0
M  V30 3414 H 324.155 -2.21148 -7.40482 0
M  V30 3415 H 322.5 -1.98219 -6.66134 0
M  V30 3416 H 325.691 -1.0545 -4.56068 0
M  V30 3417 H 325.864 -1.70481 -6.25172 0
M  V30 3418 N 319.27 1.56325 -0.20005 0
M  V30 3419 C 320.2 2.22318 0.713916 0
M  V30 3420 C 321.181 1.18788 1.21752 0
M  V30 3421 O 322.366 1.47309 1.26545 0
M  V30 3422 C 319.496 2.88639 1.93144 0
M  V30 3423 C 318.45 3.98457 1.56255 0
M  V30 3424 C 317.776 4.51967 2.85709 0
M  V30 3425 C 319.076 5.16612 0.768747 0
M  V30 3426 H 320.77 2.98952 0.163755 0
M  V30 3427 H 318.316 1.43792 0.0773219 0
M  V30 3428 H 320.269 3.33491 2.57608 0
M  V30 3429 H 318.993 2.09419 2.50621 0
M  V30 3430 H 317.652 3.54305 0.941471 0
M  V30 3431 H 317.3 3.69503 3.41287 0
M  V30 3432 H 317 5.26071 2.6177 0
M  V30 3433 H 318.524 4.99523 3.51154 0
M  V30 3434 H 319.938 5.57977 1.3166 0
M  V30 3435 H 318.335 5.96812 0.627286 0
M  V30 3436 H 319.405 4.84358 -0.229168 0
M  V30 3437 N 320.748 -0.0735177 1.57428 0
M  V30 3438 C 322.159 -0.625551 1.75908 0
M  V30 3439 C 322.51 -1.78 0.825261 0
M  V30 3440 O 321.635 -2.16398 0.00893964 0
M  V30 3441 C 322.23 -1.14155 3.18989 0
M  V30 3442 C 320.789 -1.63946 3.38819 0
M  V30 3443 C 319.936 -0.558151 2.71625 0
M  V30 3444 H 322.887 0.152647 1.57964 0
M  V30 3445 H 322.908 -2.0104 3.23053 0
M  V30 3446 H 322.42 -0.301116 3.8693 0
M  V30 3447 H 320.521 -2.50321 2.7599 0
M  V30 3448 H 320.634 -1.71759 4.47253 0
M  V30 3449 H 318.998 -1.00278 2.34129 0
M  V30 3450 H 319.781 0.272071 3.4222 0
M  V30 3451 N 322.226 -1.5378 -0.344866 0
M  V30 3452 C 323.475 -1.7018 -1.08267 0
M  V30 3453 C 323.788 -0.471 -1.89845 0
M  V30 3454 O 324.994 -0.515917 -2.66553 0
M  V30 3455 C 323.45 -3.00923 -1.97417 0
M  V30 3456 C 323.058 -4.31335 -1.21053 0
M  V30 3457 C 324.802 -3.26688 -2.71063 0
M  V30 3458 C 322.709 -5.53153 -2.09225 0
M  V30 3459 H 321.639 -0.634138 -0.407903 0
M  V30 3460 H 324.29 -1.8028 -0.342246 0
M  V30 3461 H 322.672 -2.84676 -2.75274 0
M  V30 3462 H 323.846 -4.58281 -0.481159 0
M  V30 3463 H 322.161 -4.12173 -0.591813 0
M  V30 3464 H 324.758 -4.1489 -3.37299 0
M  V30 3465 H 325.101 -2.43639 -3.37558 0
M  V30 3466 H 325.634 -3.43705 -2.0028 0
M  V30 3467 H 322.373 -6.38741 -1.47274 0
M  V30 3468 H 321.893 -5.30458 -2.79955 0
M  V30 3469 H 323.572 -5.88744 -2.68308 0
M  V30 3470 N 323.704 0.605807 -1.45491 0
M  V30 3471 C 324.953 1.36086 -1.48874 0
M  V30 3472 C 325.266 1.95131 -0.135333 0
M  V30 3473 O 326.472 2.7146 -0.0468144 0
M  V30 3474 C 324.928 2.46518 -2.62215 0
M  V30 3475 C 324.536 1.93877 -4.03876 0
M  V30 3476 C 326.28 3.23512 -2.74846 0
M  V30 3477 C 324.187 3.01801 -5.08596 0
M  V30 3478 H 323.117 0.511497 -0.553974 0
M  V30 3479 H 325.768 0.649089 -1.71636 0
M  V30 3480 H 324.15 3.20388 -2.32739 0
M  V30 3481 H 325.324 1.26704 -4.43038 0
M  V30 3482 H 323.639 1.29622 -3.95711 0
M  V30 3483 H 326.236 4.04013 -3.50253 0
M  V30 3484 H 326.579 3.74631 -1.81542 0
M  V30 3485 H 327.112 2.56742 -3.03856 0
M  V30 3486 H 323.851 2.55597 -6.03614 0
M  V30 3487 H 323.371 3.67535 -4.74002 0
M  V30 3488 H 325.05 3.66152 -5.33424 0
M  V30 3489 N 325.182 1.32811 0.848464 0
M  V30 3490 C 326.112 1.24882 1.97299 0
M  V30 3491 C 327.093 0.131357 1.69592 0
M  V30 3492 O 328.278 0.319553 1.91553 0
M  V30 3493 C 325.408 0.97746 3.33261 0
M  V30 3494 C 324.362 2.05682 3.75338 0
M  V30 3495 C 323.688 1.63777 5.09 0
M  V30 3496 C 324.988 3.47254 3.90144 0
M  V30 3497 H 326.682 2.18966 2.04191 0
M  V30 3498 H 324.228 1.05413 0.981029 0
M  V30 3499 H 326.181 0.908513 4.1149 0
M  V30 3500 H 324.905 0.000980011 3.266 0
M  V30 3501 H 323.564 2.11603 2.99366 0
M  V30 3502 H 323.212 0.648569 4.98801 0
M  V30 3503 H 322.912 2.36 5.38124 0
M  V30 3504 H 324.436 1.5833 5.89715 0
M  V30 3505 H 325.85 3.43888 4.58709 0
M  V30 3506 H 324.247 4.1788 4.30693 0
M  V30 3507 H 325.317 3.86462 2.92874 0
M  V30 3508 N 326.66 -1.06551 1.16123 0
M  V30 3509 C 327.607 -2.13961 0.865414 0
M  V30 3510 C 328.577 -1.65066 -0.185055 0
M  V30 3511 O 329.762 -1.90732 -0.05083 0
M  V30 3512 C 326.902 -3.43113 0.369776 0
M  V30 3513 C 326.015 -4.05756 1.48276 0
M  V30 3514 C 325.15 -5.22773 0.942414 0
M  V30 3515 C 324.189 -5.77395 2.03179 0
M  V30 3516 N 323.326 -6.85731 1.50721 0
M  V30 3517 H 328.166 -2.38605 1.78527 0
M  V30 3518 H 325.703 -1.17072 0.890646 0
M  V30 3519 H 327.661 -4.17151 0.0640643 0
M  V30 3520 H 326.291 -3.18695 -0.513143 0
M  V30 3521 H 325.343 -3.29292 1.9045 0
M  V30 3522 H 326.655 -4.42351 2.30493 0
M  V30 3523 H 325.809 -6.03827 0.589729 0
M  V30 3524 H 324.548 -4.87618 0.0895191 0
M  V30 3525 H 323.553 -4.94981 2.3932 0
M  V30 3526 H 324.778 -6.14603 2.8886 0
M  V30 3527 H 322.724 -6.52499 0.676811 0
M  V30 3528 H 322.641 -7.21254 2.26557 0
M  V30 3529 H 323.909 -7.7047 1.18303 0
M  V30 3530 N 328.138 -0.959301 -1.25041 0
M  V30 3531 C 329.386 -0.615393 -1.92503 0
M  V30 3532 C 329.707 0.850969 -1.75452 0
M  V30 3533 O 328.977 1.60658 -1.12098 0
M  V30 3534 H 327.557 -0.224613 -0.712431 0
M  V30 3535 H 330.219 -1.21855 -1.5211 0
M  V30 3536 H 329.315 -0.848738 -3.00338 0
M  V30 3537 N 329.616 1.39756 -0.72842 0
M  V30 3538 C 330.865 1.99879 -0.270407 0
M  V30 3539 C 331.178 1.58449 1.14688 0
M  V30 3540 O 332.384 2.11362 1.70407 0
M  V30 3541 C 330.84 3.57292 -0.43252 0
M  V30 3542 C 330.448 4.07688 -1.85727 0
M  V30 3543 C 332.192 4.24485 -0.0359507 0
M  V30 3544 C 330.099 5.5765 -1.96928 0
M  V30 3545 H 329.029 0.747689 -0.0973472 0
M  V30 3546 H 331.68 1.59837 -0.901355 0
M  V30 3547 H 330.062 3.95097 0.267219 0
M  V30 3548 H 331.236 3.81231 -2.58843 0
M  V30 3549 H 329.551 3.53135 -2.20646 0
M  V30 3550 H 332.148 5.34609 -0.0987484 0
M  V30 3551 H 332.491 4.03915 1.00787 0
M  V30 3552 H 333.024 3.9183 -0.686604 0
M  V30 3553 H 329.763 5.8309 -2.99476 0
M  V30 3554 H 329.283 5.8593 -1.28241 0
M  V30 3555 H 330.962 6.22957 -1.74737 0
M  V30 3556 N 331.094 0.475555 1.50254 0
M  V30 3557 C 332.024 -0.30611 2.31485 0
M  V30 3558 C 333.005 -0.986228 1.38591 0
M  V30 3559 O 334.19 -0.982541 1.67511 0
M  V30 3560 C 331.32 -1.38588 3.1845 0
M  V30 3561 C 330.274 -0.827115 4.19932 0
M  V30 3562 C 329.6 -2.00551 4.95665 0
M  V30 3563 C 330.9 0.16463 5.2204 0
M  V30 3564 H 332.594 0.371866 2.97082 0
M  V30 3565 H 330.14 0.180282 1.42867 0
M  V30 3566 H 332.093 -1.94023 3.74076 0
M  V30 3567 H 330.817 -2.09269 2.50747 0
M  V30 3568 H 329.476 -0.294702 3.65414 0
M  V30 3569 H 329.124 -2.6994 4.2443 0
M  V30 3570 H 328.824 -1.63784 5.64313 0
M  V30 3571 H 330.348 -2.56468 5.54127 0
M  V30 3572 H 331.762 -0.300699 5.72511 0
M  V30 3573 H 330.159 0.446813 5.98434 0
M  V30 3574 H 331.229 1.08905 4.72512 0
M  V30 3575 N 332.573 -1.56217 0.208337 0
M  V30 3576 C 333.801 -2.02337 -0.43215 0
M  V30 3577 C 334.216 -1.08834 -1.54275 0
M  V30 3578 O 333.573 -0.0955462 -1.8225 0
M  V30 3579 C 333.624 -3.48072 -0.976138 0
M  V30 3580 O 333.345 -4.38007 0.0901621 0
M  V30 3581 C 334.846 -4.09773 -1.69119 0
M  V30 3582 H 332.066 -0.662385 -0.10718 0
M  V30 3583 H 334.61 -2.01966 0.320923 0
M  V30 3584 H 332.765 -3.49099 -1.67954 0
M  V30 3585 H 333.179 -5.23543 -0.316701 0
M  V30 3586 H 334.653 -5.13556 -2.02397 0
M  V30 3587 H 335.13 -3.53999 -2.59964 0
M  V30 3588 H 335.736 -4.12556 -1.03332 0
M  V30 3589 N 334.051 0.0651679 -1.57465 0
M  V30 3590 C 334.998 1.07675 -2.04144 0
M  V30 3591 C 335.968 1.38071 -0.923335 0
M  V30 3592 O 337.153 1.49026 -1.19146 0
M  V30 3593 C 334.293 2.38337 -2.49579 0
M  V30 3594 C 333.406 2.14413 -3.75035 0
M  V30 3595 C 332.541 3.38686 -4.09225 0
M  V30 3596 C 331.58 3.10156 -5.27702 0
M  V30 3597 N 330.717 4.26778 -5.57499 0
M  V30 3598 H 335.557 0.671716 -2.90331 0
M  V30 3599 H 333.094 0.3201 -1.43575 0
M  V30 3600 H 335.052 3.14632 -2.73975 0
M  V30 3601 H 333.682 2.7663 -1.6636 0
M  V30 3602 H 332.734 1.2878 -3.57939 0
M  V30 3603 H 334.046 1.89344 -4.61466 0
M  V30 3604 H 333.2 4.23373 -4.34558 0
M  V30 3605 H 331.939 3.66837 -3.21374 0
M  V30 3606 H 330.944 2.23866 -5.02159 0
M  V30 3607 H 332.169 2.8332 -6.17176 0
M  V30 3608 H 330.115 4.54948 -4.72608 0
M  V30 3609 H 330.032 4.05005 -6.38362 0
M  V30 3610 H 331.3 5.12443 -5.87386 0
M  V30 3611 N 335.529 1.53961 0.336706 0
M  V30 3612 C 336.439 1.85432 1.43708 0
M  V30 3613 C 337.455 0.745053 1.57242 0
M  V30 3614 O 338.631 1.03804 1.72588 0
M  V30 3615 C 335.696 2.06349 2.78605 0
M  V30 3616 C 334.757 3.30191 2.74358 0
M  V30 3617 C 333.99 3.50101 4.02822 0
M  V30 3618 O 334.213 2.7371 5.00439 0
M  V30 3619 O 333.147 4.43547 4.06878 0
M  V30 3620 H 336.973 2.78975 1.20028 0
M  V30 3621 H 334.558 1.39701 0.52952 0
M  V30 3622 H 336.44 2.21513 3.58483 0
M  V30 3623 H 335.115 1.15995 3.02203 0
M  V30 3624 H 334.022 3.20425 1.93078 0
M  V30 3625 H 335.355 4.2056 2.55715 0
M  V30 3626 N 337.007 -0.598083 1.45811 0
M  V30 3627 C 338.284 -1.35777 1.40797 0
M  V30 3628 C 338.664 -2.10935 0.083462 0
M  V30 3629 O 338.012 -2.08505 -0.934763 0
M  V30 3630 C 338.222 -2.29666 2.62783 0
M  V30 3631 C 339.57 -2.91977 3.08277 0
M  V30 3632 O 340.594 -2.39984 2.63223 0
M  V30 3633 O 339.453 -3.86376 3.86491 0
M  V30 3634 H 336.547 -0.609291 0.55919 0
M  V30 3635 H 339.093 -0.620379 1.57954 0
M  V30 3636 H 337.865 -1.73454 3.50756 0
M  V30 3637 H 337.488 -3.1077 2.48008 0
M  V30 3638 N 338.485 -1.33259 -0.841409 0
M  V30 3639 C 339.448 -1.23221 -1.9326 0
M  V30 3640 C 340.448 -0.151895 -1.60081 0
M  V30 3641 O 341.638 -0.403246 -1.69468 0
M  V30 3642 C 338.77 -0.898123 -3.28856 0
M  V30 3643 H 339.963 -2.2021 -2.03587 0
M  V30 3644 H 337.516 -1.17281 -1.03319 0
M  V30 3645 H 338.251 0.0693841 -3.24226 0
M  V30 3646 H 338.036 -1.67934 -3.54317 0
M  V30 3647 H 339.526 -0.852563 -4.08805 0
M  V30 3648 N 339.963 1.05934 -1.16686 0
M  V30 3649 C 340.873 2.17014 -0.891183 0
M  V30 3650 C 341.889 1.73453 0.137907 0
M  V30 3651 O 343.065 2.01361 -0.039592 0
M  V30 3652 C 340.13 3.44384 -0.400099 0
M  V30 3653 C 339.191 4.02433 -1.49486 0
M  V30 3654 C 338.424 5.23723 -1.02711 0
M  V30 3655 O 338.647 5.7027 0.121716 0
M  V30 3656 O 337.581 5.7382 -1.81699 0
M  V30 3657 H 341.407 2.43113 -1.82015 0
M  V30 3658 H 338.992 1.15541 -0.947132 0
M  V30 3659 H 340.874 4.21189 -0.133392 0
M  V30 3660 H 339.549 3.19802 0.500817 0
M  V30 3661 H 338.456 3.27102 -1.81535 0
M  V30 3662 H 339.789 4.31317 -2.37121 0
M  V30 3663 N 341.441 0.965919 1.2453 0
M  V30 3664 C 342.371 0.513476 2.27784 0
M  V30 3665 C 343.352 -0.445974 1.6415 0
M  V30 3666 O 344.537 -0.342485 1.91156 0
M  V30 3667 C 341.667 -0.198839 3.4673 0
M  V30 3668 C 340.621 0.676456 4.2262 0
M  V30 3669 C 339.947 -0.167248 5.34438 0
M  V30 3670 C 341.247 1.96017 4.84123 0
M  V30 3671 H 342.941 1.3765 2.65881 0
M  V30 3672 H 340.487 0.663321 1.27813 0
M  V30 3673 H 342.44 -0.526567 4.18097 0
M  V30 3674 H 341.164 -1.0962 3.07654 0
M  V30 3675 H 339.823 0.98743 3.53052 0
M  V30 3676 H 339.471 -1.0647 4.91603 0
M  V30 3677 H 339.171 0.415181 5.86131 0
M  V30 3678 H 340.695 -0.489688 6.08633 0
M  V30 3679 H 342.109 1.69814 5.47573 0
M  V30 3680 H 340.506 2.48918 5.4604 0
M  V30 3681 H 341.576 2.65622 4.05676 0
M  V30 3682 N 342.919 -1.39368 0.735821 0
M  V30 3683 C 343.882 -2.2896 0.104874 0
M  V30 3684 C 344.882 -1.46347 -0.666274 0
M  V30 3685 O 346.072 -1.67014 -0.49517 0
M  V30 3686 C 343.204 -3.29857 -0.860656 0
M  V30 3687 H 344.397 -2.86259 0.894205 0
M  V30 3688 H 341.95 -1.48029 0.501704 0
M  V30 3689 H 342.685 -2.77615 -1.67631 0
M  V30 3690 H 342.47 -3.9087 -0.310327 0
M  V30 3691 H 343.96 -3.96893 -1.29867 0
M  V30 3692 N 344.397 -0.483516 -1.5 0
M  V30 3693 C 345.643 0.0672592 -2.02688 0
M  V30 3694 C 345.976 1.38247 -1.36387 0
M  V30 3695 O 345.251 1.88131 -0.493675 0
M  V30 3696 C 345.534 0.238109 -3.59312 0
M  V30 3697 C 345.387 -1.099 -4.36168 0
M  V30 3698 C 346.706 0.986916 -4.28892 0
M  V30 3699 H 343.825 0.0229696 -0.736642 0
M  V30 3700 H 346.467 -0.631527 -1.79197 0
M  V30 3701 H 344.617 0.8333 -3.79458 0
M  V30 3702 H 346.289 -1.73172 -4.27562 0
M  V30 3703 H 344.532 -1.69261 -3.99416 0
M  V30 3704 H 345.203 -0.932954 -5.44059 0
M  V30 3705 H 347.679 0.482302 -4.13295 0
M  V30 3706 H 346.555 1.07527 -5.38265 0
M  V30 3707 H 346.816 2.0265 -3.92919 0
M  V30 3708 N 345.875 1.56104 -0.216619 0
M  V30 3709 C 346.822 2.2007 0.695531 0
M  V30 3710 C 347.792 1.15471 1.19397 0
M  V30 3711 O 348.977 1.43807 1.25396 0
M  V30 3712 C 346.117 2.88073 1.90021 0
M  V30 3713 C 345.23 4.07253 1.44113 0
M  V30 3714 C 344.365 4.63052 2.603 0
M  V30 3715 C 343.404 5.74545 2.11103 0
M  V30 3716 N 342.541 6.24656 3.20545 0
M  V30 3717 H 347.381 2.97655 0.143327 0
M  V30 3718 H 344.918 1.46982 0.0589934 0
M  V30 3719 H 346.876 3.25681 2.60745 0
M  V30 3720 H 345.506 2.13015 2.42538 0
M  V30 3721 H 344.558 3.75164 0.628999 0
M  V30 3722 H 345.87 4.8783 1.04036 0
M  V30 3723 H 345.024 5.03078 3.39113 0
M  V30 3724 H 343.763 3.81628 3.03663 0
M  V30 3725 H 342.768 5.34027 1.3075 0
M  V30 3726 H 343.993 6.57801 1.68746 0
M  V30 3727 H 341.939 5.46148 3.63399 0
M  V30 3728 H 341.856 7.00343 2.84704 0
M  V30 3729 H 343.124 6.69338 3.99508 0
M  V30 3730 N 347.353 -0.0568162 1.57498 0
M  V30 3731 C 348.303 -1.07315 2.01166 0
M  V30 3732 C 349.287 -1.33632 0.896171 0
M  V30 3733 O 350.479 -1.33682 1.16009 0
M  V30 3734 C 347.608 -2.38257 2.47161 0
M  V30 3735 C 346.694 -2.1515 3.65474 0
M  V30 3736 N 347.085 -1.62014 4.7915 0
M  V30 3737 C 345.383 -2.45559 3.72313 0
M  V30 3738 C 346.084 -1.54069 5.60926 0
M  V30 3739 N 345.06 -2.00652 5.05213 0
M  V30 3740 H 348.862 -0.655878 2.86488 0
M  V30 3741 H 346.376 -0.263635 1.60246 0
M  V30 3742 H 348.373 -3.11845 2.76691 0
M  V30 3743 H 347.033 -2.80687 1.63232 0
M  V30 3744 H 348.044 -1.30667 5.01145 0
M  V30 3745 H 344.721 -2.91253 2.99129 0
M  V30 3746 H 346.111 -1.13712 6.62208 0
M  V30 3747 N 348.832 -1.54138 -0.328536 0
M  V30 3748 C 349.78 -1.83894 -1.42428 0
M  V30 3749 C 350.774 -0.710478 -1.53781 0
M  V30 3750 O 351.98 -0.894062 -1.56226 0
M  V30 3751 H 348.355 -0.582837 -0.475189 0
M  V30 3752 H 350.326 -2.75537 -1.14552 0
M  V30 3753 C 349.075 -2.07866 -2.78724 0
M  V30 3754 H 348.398 -2.94158 -2.7076 0
M  V30 3755 H 349.838 -2.32644 -3.54476 0
M  V30 3756 C 348.297 -0.868689 -3.25508 0
M  V30 3757 O 348.827 -0.0754908 -4.01629 0
M  V30 3758 N 347.033 -0.681711 -2.82491 0
M  V30 3759 H 346.58 -1.32838 -2.20708 0
M  V30 3760 H 346.538 0.126374 -3.14146 0
M  V30 3761 N 350.31 0.590341 -1.46126 0
M  V30 3762 C 351.556 1.35082 -1.51264 0
M  V30 3763 C 351.889 1.93534 -0.160711 0
M  V30 3764 O 351.164 1.76045 0.826956 0
M  V30 3765 C 351.447 2.48588 -2.6053 0
M  V30 3766 C 351.3 1.95221 -4.05227 0
M  V30 3767 C 352.619 3.50662 -2.6594 0
M  V30 3768 H 349.738 0.489803 -0.550692 0
M  V30 3769 H 352.38 0.663887 -1.78024 0
M  V30 3770 H 350.53 3.07186 -2.37843 0
M  V30 3771 H 352.202 1.41139 -4.39178 0
M  V30 3772 H 350.445 1.26101 -4.15068 0
M  V30 3773 H 351.116 2.77121 -4.77397 0
M  V30 3774 H 353.592 3.01934 -2.86313 0
M  V30 3775 H 352.468 4.27551 -3.44226 0
M  V30 3776 H 352.729 4.07399 -1.71694 0
M  V30 3777 N 351.788 1.33704 0.83433 0
M  V30 3778 C 352.72 1.20172 1.9517 0
M  V30 3779 C 353.733 0.131572 1.62267 0
M  V30 3780 O 354.922 0.382406 1.74356 0
M  V30 3781 C 352.022 0.821716 3.28787 0
M  V30 3782 C 351.195 1.98446 3.89792 0
M  V30 3783 C 350.254 1.58469 5.01771 0
M  V30 3784 O 349.28 2.29968 5.20676 0
M  V30 3785 N 350.482 0.492291 5.78409 0
M  V30 3786 H 353.247 2.16429 2.07313 0
M  V30 3787 H 350.808 1.26509 1.0103 0
M  V30 3788 H 352.8 0.536291 4.01131 0
M  V30 3789 H 351.37 -0.0503058 3.1256 0
M  V30 3790 H 350.59 2.43526 3.09982 0
M  V30 3791 H 351.878 2.76236 4.27283 0
M  V30 3792 H 351.276 -0.102349 5.65607 0
M  V30 3793 H 349.833 0.266555 6.51255 0
M  V30 3794 N 353.266 -1.05314 1.17247 0
M  V30 3795 C 354.514 -1.77941 0.958194 0
M  V30 3796 C 354.835 -1.88089 -0.514556 0
M  V30 3797 O 354.105 -1.39676 -1.37359 0
M  V30 3798 H 352.685 -0.659116 0.351533 0
M  V30 3799 H 355.347 -1.27166 1.47699 0
M  V30 3800 H 354.443 -2.79663 1.38546 0
M  V30 3801 N 354.744 -0.972509 -1.24016 0
M  V30 3802 C 355.993 -0.632603 -1.91523 0
M  V30 3803 C 356.306 0.836641 -1.76804 0
M  V30 3804 O 357.512 1.28728 -2.39043 0
M  V30 3805 C 355.968 -1.08082 -3.43287 0
M  V30 3806 C 355.576 -2.57386 -3.66683 0
M  V30 3807 C 357.32 -0.814288 -4.16617 0
M  V30 3808 C 355.227 -2.95915 -5.12043 0
M  V30 3809 H 354.157 -0.232898 -0.717129 0
M  V30 3810 H 356.808 -1.17936 -1.40582 0
M  V30 3811 H 355.19 -0.462339 -3.93292 0
M  V30 3812 H 356.364 -3.24405 -3.27258 0
M  V30 3813 H 354.679 -2.81701 -3.06649 0
M  V30 3814 H 357.276 -1.0781 -5.23718 0
M  V30 3815 H 357.619 0.24955 -4.15551 0
M  V30 3816 H 358.152 -1.39397 -3.72577 0
M  V30 3817 H 354.891 -4.0139 -5.18234 0
M  V30 3818 H 354.411 -2.33584 -5.52448 0
M  V30 3819 H 356.09 -2.86086 -5.80314 0
M  V30 3820 N 356.222 1.38976 -0.743202 0
M  V30 3821 C 357.471 1.99581 -0.291592 0
M  V30 3822 C 357.784 1.59656 1.13001 0
M  V30 3823 O 358.99 2.13157 1.68156 0
M  V30 3824 C 357.446 3.56813 -0.470391 0
M  V30 3825 C 357.054 4.05695 -1.90041 0
M  V30 3826 C 358.798 4.24423 -0.0809709 0
M  V30 3827 C 356.705 5.5553 -2.02832 0
M  V30 3828 H 355.635 0.746615 -0.105272 0
M  V30 3829 H 358.286 1.58872 -0.918258 0
M  V30 3830 H 356.668 3.95359 0.225299 0
M  V30 3831 H 357.842 3.78464 -2.62872 0
M  V30 3832 H 356.157 3.50775 -2.24379 0
M  V30 3833 H 358.754 5.34474 -0.155445 0
M  V30 3834 H 359.097 4.04962 0.96497 0
M  V30 3835 H 359.63 3.9108 -0.728124 0
M  V30 3836 H 356.369 5.79881 -3.05643 0
M  V30 3837 H 355.889 5.84537 -1.34448 0
M  V30 3838 H 357.568 6.21069 -1.81335 0
M  V30 3839 N 357.7 0.491464 1.49741 0
M  V30 3840 C 358.946 -0.0565092 2.02721 0
M  V30 3841 C 359.279 -1.37522 1.37118 0
M  V30 3842 O 358.554 -1.87866 0.503645 0
M  V30 3843 C 358.837 -0.219051 3.59433 0
M  V30 3844 C 358.69 1.12211 4.35579 0
M  V30 3845 C 360.009 -0.964157 4.29409 0
M  V30 3846 H 357.128 -0.0190627 0.736753 0
M  V30 3847 H 359.77 0.641021 1.7886 0
M  V30 3848 H 357.92 -0.813165 3.79895 0
M  V30 3849 H 359.592 1.75437 4.26637 0
M  V30 3850 H 357.835 1.71377 3.98513 0
M  V30 3851 H 358.506 0.961794 5.43556 0
M  V30 3852 H 360.982 -0.460378 4.13545 0
M  V30 3853 H 359.858 -1.04671 5.38828 0
M  V30 3854 H 360.119 -2.00563 3.93988 0
M  V30 3855 N 359.178 -1.55987 0.224894 0
M  V30 3856 C 360.403 -2.03232 -0.41369 0
M  V30 3857 C 360.828 -1.10359 -1.52323 0
M  V30 3858 O 360.186 -0.092395 -1.81064 0
M  V30 3859 C 360.234 -3.48682 -0.919405 0
M  V30 3860 O 359.338 -3.58947 -2.03054 0
M  V30 3861 H 358.679 -0.657428 -0.0931903 0
M  V30 3862 H 361.209 -2.01679 0.34451 0
M  V30 3863 H 361.219 -3.8907 -1.22835 0
M  V30 3864 H 359.894 -4.15761 -0.107339 0
M  V30 3865 H 358.471 -3.30448 -1.72796 0
M  V30 3866 N 360.656 0.0484629 -1.57525 0
M  V30 3867 C 361.604 1.07359 -2.06341 0
M  V30 3868 C 362.598 1.3865 -0.973269 0
M  V30 3869 O 363.804 1.37783 -1.15827 0
M  V30 3870 H 360.179 0.363662 -0.65822 0
M  V30 3871 H 362.15 0.635916 -2.91545 0
M  V30 3872 C 360.899 2.37198 -2.54229 0
M  V30 3873 H 360.222 2.13977 -3.37719 0
M  V30 3874 H 361.662 3.07319 -2.92115 0
M  V30 3875 C 360.121 3.04805 -1.43511 0
M  V30 3876 O 360.651 3.93848 -0.79034 0
M  V30 3877 N 358.857 2.65811 -1.17444 0
M  V30 3878 H 358.404 1.93488 -1.70059 0
M  V30 3879 H 358.362 3.11366 -0.435737 0
M  V30 3880 N 362.134 1.5431 0.320358 0
M  V30 3881 C 363.084 1.803 1.39556 0
M  V30 3882 C 364.068 0.659166 1.46778 0
M  V30 3883 O 365.26 0.91926 1.51257 0
M  V30 3884 C 362.389 2.03665 2.76361 0
M  V30 3885 C 361.475 3.24178 2.73439 0
M  V30 3886 N 361.866 4.4516 2.40137 0
M  V30 3887 C 360.164 3.25816 3.04565 0
M  V30 3888 C 360.865 5.27109 2.4603 0
M  V30 3889 N 359.841 4.64368 2.82601 0
M  V30 3890 H 363.643 2.71416 1.12742 0
M  V30 3891 H 361.157 1.53548 0.528856 0
M  V30 3892 H 363.154 2.20425 3.53862 0
M  V30 3893 H 361.814 1.13805 3.04103 0
M  V30 3894 H 362.825 4.72104 2.12927 0
M  V30 3895 H 359.502 2.46001 3.37328 0
M  V30 3896 H 360.892 6.33728 2.23246 0
M  V30 3897 N 363.613 -0.582584 1.46437 0
M  V30 3898 C 364.861 -1.33814 1.51453 0
M  V30 3899 C 365.182 -1.94277 0.167792 0
M  V30 3900 O 364.452 -1.78566 -0.805677 0
M  V30 3901 H 363.032 -0.496838 0.557818 0
M  V30 3902 H 365.694 -0.682281 1.82568 0
M  V30 3903 H 364.79 -2.14479 2.26728 0
M  V30 3904 N 365.091 -1.34144 -0.827227 0
M  V30 3905 C 366.339 -1.26009 -1.58007 0
M  V30 3906 C 366.66 0.170971 -1.94249 0
M  V30 3907 O 365.93 1.10256 -1.61927 0
M  V30 3908 H 364.51 -0.463414 -0.585881 0
M  V30 3909 H 367.172 -1.68005 -0.987951 0
M  V30 3910 H 366.268 -1.86187 -2.50481 0
M  V30 3911 N 366.569 1.04691 -1.17803 0
M  V30 3912 C 367.985 1.29963 -0.926379 0
M  V30 3913 C 368.185 1.97251 0.411635 0
M  V30 3914 O 367.241 2.24922 1.14744 0
M  V30 3915 C 368.554 2.16447 -2.08737 0
M  V30 3916 C 370.102 2.29814 -2.12496 0
M  V30 3917 C 370.577 3.19661 -3.27995 0
M  V30 3918 N 372.068 3.27247 -3.27816 0
M  V30 3919 C 372.803 3.96906 -4.13827 0
M  V30 3920 N 372.299 4.6895 -5.09959 0
M  V30 3921 N 374.092 3.93122 -4.01761 0
M  V30 3922 H 366.243 0.594182 -2.0392 0
M  V30 3923 H 368.506 0.324649 -0.890678 0
M  V30 3924 H 368.212 1.74304 -3.05469 0
M  V30 3925 H 368.086 3.17103 -2.04268 0
M  V30 3926 H 370.473 2.71196 -1.16347 0
M  V30 3927 H 370.554 1.2877 -2.21025 0
M  V30 3928 H 370.198 2.78991 -4.24413 0
M  V30 3929 H 370.128 4.20722 -3.16703 0
M  V30 3930 H 372.619 2.75921 -2.58217 0
M  V30 3931 H 372.932 5.19679 -5.71974 0
M  V30 3932 H 371.277 4.67875 -5.13924 0
M  V30 3933 H 374.468 3.35967 -3.2595 0
M  V30 3934 H 374.641 4.47139 -4.6901 0
M  V30 3935 N 368.047 0.979072 1.23499 0
M  V30 3936 C 368.979 0.476271 2.24197 0
M  V30 3937 C 369.992 -0.421166 1.57258 0
M  V30 3938 O 371.181 -0.225515 1.7707 0
M  V30 3939 C 368.281 -0.330503 3.37285 0
M  V30 3940 C 367.454 0.559744 4.33804 0
M  V30 3941 C 366.513 -0.192954 5.25846 0
M  V30 3942 O 365.539 0.416978 5.67671 0
M  V30 3943 N 366.741 -1.47932 5.61334 0
M  V30 3944 H 369.506 1.34211 2.67969 0
M  V30 3945 H 367.067 0.852189 1.37657 0
M  V30 3946 H 369.059 -0.842361 3.95836 0
M  V30 3947 H 367.629 -1.09734 2.92707 0
M  V30 3948 H 366.849 1.25245 3.73775 0
M  V30 3949 H 368.137 1.1665 4.95248 0
M  V30 3950 H 367.535 -1.9964 5.29302 0
M  V30 3951 H 366.092 -1.93664 6.22364 0
M  V30 3952 N 369.525 -1.3858 0.750561 0
M  V30 3953 C 370.455 -2.33102 0.136237 0
M  V30 3954 C 371.436 -1.54713 -0.706965 0
M  V30 3955 O 372.621 -1.83043 -0.648769 0
M  V30 3956 C 369.751 -3.38882 -0.760017 0
M  V30 3957 C 368.705 -4.27995 -0.0197785 0
M  V30 3958 C 368.031 -5.24605 -1.03408 0
M  V30 3959 C 369.331 -5.09554 1.14684 0
M  V30 3960 H 371.025 -2.84726 0.925822 0
M  V30 3961 H 368.571 -1.36898 0.446654 0
M  V30 3962 H 370.524 -4.0397 -1.19943 0
M  V30 3963 H 369.248 -2.85734 -1.58189 0
M  V30 3964 H 367.907 -3.64409 0.400184 0
M  V30 3965 H 367.555 -4.67746 -1.84994 0
M  V30 3966 H 367.255 -5.85081 -0.543464 0
M  V30 3967 H 368.779 -5.9257 -1.47288 0
M  V30 3968 H 370.193 -5.67899 0.785118 0
M  V30 3969 H 368.59 -5.7925 1.56812 0
M  V30 3970 H 369.66 -4.4347 1.96118 0
M  V30 3971 N 371.003 -0.499398 -1.49478 0
M  V30 3972 C 372.28 0.108629 -1.95298 0
M  V30 3973 C 372.66 1.54282 -1.44084 0
M  V30 3974 O 372.008 2.18944 -0.653908 0
M  V30 3975 C 372.218 0.0229111 -3.48992 0
M  V30 3976 C 373.566 0.197643 -4.2414 0
M  V30 3977 O 374.59 0.0981735 -3.56065 0
M  V30 3978 O 373.449 0.401669 -5.45022 0
M  V30 3979 H 370.543 0.096181 -0.821388 0
M  V30 3980 H 373.089 -0.561822 -1.6013 0
M  V30 3981 H 371.861 -0.977321 -3.78899 0
M  V30 3982 H 371.484 0.733579 -3.90774 0
M  V30 3983 N 372.481 1.55866 -0.233164 0
M  V30 3984 C 373.391 2.24431 0.683217 0
M  V30 3985 C 374.407 1.2558 1.2044 0
M  V30 3986 O 375.583 1.58422 1.24356 0
M  V30 3987 C 372.648 2.91979 1.86947 0
M  V30 3988 C 371.709 4.06204 1.38912 0
M  V30 3989 C 370.942 4.70522 2.51883 0
M  V30 3990 O 371.165 4.33865 3.70293 0
M  V30 3991 O 370.099 5.59296 2.22423 0
M  V30 3992 H 373.925 3.03426 0.129059 0
M  V30 3993 H 371.51 1.494 -0.0022283 0
M  V30 3994 H 373.392 3.34573 2.56201 0
M  V30 3995 H 372.067 2.15935 2.41151 0
M  V30 3996 H 370.974 3.68155 0.664259 0
M  V30 3997 H 372.307 4.84025 0.893328 0
M  V30 3998 N 373.959 -0.0401083 1.57549 0
M  V30 3999 C 375.205 -0.734211 1.89043 0
M  V30 4000 C 375.538 -1.75591 0.829535 0
M  V30 4001 O 374.813 -1.93868 -0.156706 0
M  V30 4002 C 375.096 -1.41374 3.31188 0
M  V30 4003 C 374.949 -0.406299 4.47961 0
M  V30 4004 C 376.268 -2.35061 3.72068 0
M  V30 4005 H 373.387 -0.265447 0.687537 0
M  V30 4006 H 376.029 0.00294087 1.9 0
M  V30 4007 H 374.179 -2.04206 3.30503 0
M  V30 4008 H 375.851 0.219255 4.60779 0
M  V30 4009 H 374.094 0.275485 4.32924 0
M  V30 4010 H 374.765 -0.920022 5.44279 0
M  V30 4011 H 377.241 -1.82282 3.74049 0
M  V30 4012 H 376.117 -2.79593 4.72355 0
M  V30 4013 H 376.378 -3.21258 3.0372 0
M  V30 4014 N 375.437 -1.54477 -0.31217 0
M  V30 4015 C 376.367 -1.87652 -1.38957 0
M  V30 4016 C 377.348 -0.734358 -1.53431 0
M  V30 4017 O 378.533 -0.98911 -1.67123 0
M  V30 4018 C 375.663 -2.11396 -2.75552 0
M  V30 4019 C 374.617 -3.27243 -2.75855 0
M  V30 4020 C 373.943 -3.36382 -4.15633 0
M  V30 4021 C 375.243 -4.64622 -2.38587 0
M  V30 4022 H 376.937 -2.77887 -1.11442 0
M  V30 4023 H 374.483 -1.33707 -0.534655 0
M  V30 4024 H 376.436 -2.33189 -3.51 0
M  V30 4025 H 375.16 -1.17921 -3.04569 0
M  V30 4026 H 373.819 -3.05356 -2.02863 0
M  V30 4027 H 373.467 -2.40445 -4.41809 0
M  V30 4028 H 373.167 -4.14249 -4.1674 0
M  V30 4029 H 374.691 -3.60422 -4.92877 0
M  V30 4030 H 376.105 -4.86219 -3.03749 0
M  V30 4031 H 374.502 -5.45121 -2.50925 0
M  V30 4032 H 375.572 -4.66097 -1.33723 0
M  V30 4033 N 376.915 0.57481 -1.46744 0
M  V30 4034 C 377.878 1.66533 -1.57478 0
M  V30 4035 C 378.878 1.54338 -0.451263 0
M  V30 4036 O 380.068 1.58814 -0.715813 0
M  V30 4037 C 377.2 3.05999 -1.50259 0
M  V30 4038 H 378.393 1.58372 -2.54673 0
M  V30 4039 H 375.946 0.793301 -1.34672 0
M  V30 4040 H 376.681 3.19709 -0.543725 0
M  V30 4041 H 376.466 3.16259 -2.31781 0
M  V30 4042 H 377.956 3.8537 -1.60872 0
M  V30 4043 N 378.394 1.34581 0.820102 0
M  V30 4044 C 379.619 1.30333 1.61332 0
M  V30 4045 C 380.044 -0.119339 1.87721 0
M  V30 4046 O 379.402 -1.08197 1.45475 0
M  V30 4047 C 379.45 2.10258 2.92957 0
M  V30 4048 O 378.554 1.47404 3.85157 0
M  V30 4049 H 377.895 0.447488 0.490561 0
M  V30 4050 H 380.425 1.77425 1.01889 0
M  V30 4051 H 380.435 2.21718 3.42498 0
M  V30 4052 H 379.11 3.13693 2.73074 0
M  V30 4053 H 377.687 1.44703 3.43679 0
M  V30 4054 N 379.872 -1.04064 1.18357 0
M  V30 4055 C 381.121 -1.76662 0.973313 0
M  V30 4056 C 381.434 -1.89154 -0.497991 0
M  V30 4057 O 382.64 -2.58606 -0.826762 0
M  V30 4058 C 381.096 -3.17624 1.69242 0
M  V30 4059 C 380.704 -3.13225 3.20303 0
M  V30 4060 C 382.448 -3.946 1.56497 0
M  V30 4061 C 380.355 -4.49046 3.84853 0
M  V30 4062 H 379.285 -0.662214 0.36054 0
M  V30 4063 H 381.936 -1.16553 1.41731 0
M  V30 4064 H 380.318 -3.78129 1.1762 0
M  V30 4065 H 381.492 -2.62172 3.78949 0
M  V30 4066 H 379.807 -2.49749 3.33189 0
M  V30 4067 H 382.404 -4.95042 2.02084 0
M  V30 4068 H 382.747 -4.13074 0.517243 0
M  V30 4069 H 383.28 -3.4067 2.05399 0
M  V30 4070 H 380.019 -4.35777 4.89672 0
M  V30 4071 H 379.539 -5.00203 3.30994 0
M  V30 4072 H 381.218 -5.17961 3.87718 0
M  V30 4073 N 381.35 -0.985608 -1.22978 0
M  V30 4074 C 382.627 -0.573599 -1.87001 0
M  V30 4075 C 383.007 0.949213 -1.88555 0
M  V30 4076 O 382.355 1.82811 -1.37086 0
M  V30 4077 C 382.565 -1.18564 -3.28243 0
M  V30 4078 C 383.913 -1.28163 -4.04796 0
M  V30 4079 O 384.937 -1.13949 -3.37482 0
M  V30 4080 O 383.796 -1.50832 -5.25273 0
M  V30 4081 H 380.89 -0.193868 -0.803955 0
M  V30 4082 H 383.436 -1.08102 -1.30813 0
M  V30 4083 H 382.208 -2.22758 -3.21706 0
M  V30 4084 H 381.831 -0.663363 -3.92027 0
M  V30 4085 N 382.828 1.3818 -0.7579 0
M  V30 4086 C 383.791 2.28764 -0.141286 0
M  V30 4087 C 384.791 1.47388 0.642907 0
M  V30 4088 O 385.981 1.67781 0.468536 0
M  V30 4089 C 383.113 3.31184 0.808069 0
M  V30 4090 H 384.306 2.848 -0.939633 0
M  V30 4091 H 381.859 1.47212 -0.525191 0
M  V30 4092 H 382.594 2.80247 1.63193 0
M  V30 4093 H 382.379 3.91314 0.248104 0
M  V30 4094 H 383.869 3.98909 1.23536 0
M  V30 4095 N 384.306 0.507319 1.49211 0
M  V30 4096 C 385.236 -0.256939 2.32082 0
M  V30 4097 C 386.217 -0.956609 1.40652 0
M  V30 4098 O 387.402 -0.946788 1.69557 0
M  V30 4099 C 384.532 -1.31802 3.21318 0
M  V30 4100 C 383.486 -0.737855 4.21592 0
M  V30 4101 C 382.812 -1.89992 4.99807 0
M  V30 4102 C 384.112 0.275325 5.21574 0
M  V30 4103 H 385.806 0.434798 2.96226 0
M  V30 4104 H 383.352 0.210546 1.42452 0
M  V30 4105 H 385.305 -1.86045 3.78107 0
M  V30 4106 H 384.029 -2.03903 2.5513 0
M  V30 4107 H 382.688 -0.217126 3.65956 0
M  V30 4108 H 382.336 -2.60877 4.30061 0
M  V30 4109 H 382.036 -1.51777 5.6766 0
M  V30 4110 H 383.56 -2.44657 5.59442 0
M  V30 4111 H 384.974 -0.179193 5.7302 0
M  V30 4112 H 383.371 0.573649 5.97352 0
M  V30 4113 H 384.441 1.18903 4.70096 0
M  V30 4114 N 385.784 -1.5574 0.241426 0
M  V30 4115 C 387.012 -2.03208 -0.389134 0
M  V30 4116 C 387.427 -1.12082 -1.51931 0
M  V30 4117 O 386.784 -0.134183 -1.82006 0
M  V30 4118 C 386.835 -3.50064 -0.902087 0
M  V30 4119 O 386.556 -4.37717 0.18305 0
M  V30 4120 C 388.057 -4.13268 -1.60389 0
M  V30 4121 H 385.277 -0.664509 -0.0931053 0
M  V30 4122 H 387.821 -2.0124 0.36369 0
M  V30 4123 H 385.976 -3.52583 -1.60511 0
M  V30 4124 H 386.39 -5.24097 -0.205579 0
M  V30 4125 H 387.864 -5.17733 -1.91458 0
M  V30 4126 H 388.341 -3.59434 -2.52397 0
M  V30 4127 H 388.947 -4.14655 -0.945576 0
M  V30 4128 N 387.262 0.0317525 -1.57568 0
M  V30 4129 C 388.172 1.05021 -2.0978 0
M  V30 4130 C 389.188 1.39809 -1.03583 0
M  V30 4131 O 390.364 1.49182 -1.35302 0
M  V30 4132 C 387.429 2.33301 -2.56459 0
M  V30 4133 C 386.49 2.0512 -3.77127 0
M  V30 4134 C 385.723 3.27283 -4.2157 0
M  V30 4135 O 385.946 4.37861 -3.65559 0
M  V30 4136 O 384.88 3.13141 -5.14029 0
M  V30 4137 H 388.706 0.636505 -2.96955 0
M  V30 4138 H 386.291 0.248559 -1.47318 0
M  V30 4139 H 388.173 3.08722 -2.86825 0
M  V30 4140 H 386.848 2.73973 -1.72397 0
M  V30 4141 H 385.755 1.27276 -3.51784 0
M  V30 4142 H 387.088 1.69305 -4.62165 0
M  V30 4143 N 388.74 1.54641 0.303973 0
M  V30 4144 C 389.986 1.74038 1.04109 0
M  V30 4145 C 390.319 0.523051 1.87024 0
M  V30 4146 O 389.594 -0.479874 1.88487 0
M  V30 4147 C 389.877 3.02761 1.94955 0
M  V30 4148 C 389.73 4.34787 1.1524 0
M  V30 4149 C 391.049 3.27336 2.94175 0
M  V30 4150 H 388.168 0.63323 0.377079 0
M  V30 4151 H 390.81 1.87354 0.316001 0
M  V30 4152 H 388.96 2.9154 2.56782 0
M  V30 4153 H 390.632 4.57922 0.557236 0
M  V30 4154 H 388.875 4.31407 0.455053 0
M  V30 4155 H 389.546 5.21116 1.8205 0
M  V30 4156 H 392.022 3.38148 2.42477 0
M  V30 4157 H 390.898 4.18726 3.54908 0
M  V30 4158 H 391.159 2.45491 3.67677 0
M  V30 4159 N 390.218 -0.567019 1.47046 0
M  V30 4160 C 391.464 -1.32658 1.53394 0
M  V30 4161 C 391.797 -1.93254 0.19148 0
M  V30 4162 O 391.072 -1.77338 -0.798844 0
M  V30 4163 C 391.355 -2.44412 2.64452 0
M  V30 4164 C 391.208 -1.88749 4.08282 0
M  V30 4165 C 392.527 -3.46387 2.71485 0
M  V30 4166 H 389.646 -0.48098 0.558415 0
M  V30 4167 H 392.288 -0.635481 1.79058 0
M  V30 4168 H 390.438 -3.03363 2.427 0
M  V30 4169 H 392.11 -1.34134 4.41368 0
M  V30 4170 H 390.353 -1.19481 4.17021 0
M  V30 4171 H 391.024 -2.69491 4.81745 0
M  V30 4172 H 393.5 -2.9734 2.91081 0
M  V30 4173 H 392.376 -4.2202 3.50985 0
M  V30 4174 H 392.637 -4.04616 1.78153 0
M  V30 4175 N 391.696 -1.35014 -0.812953 0
M  V30 4176 C 392.659 -1.27292 -1.90602 0
M  V30 4177 C 393.659 -0.185817 -1.59723 0
M  V30 4178 O 394.849 -0.439102 -1.68575 0
M  V30 4179 C 391.981 -0.967676 -3.26877 0
M  V30 4180 H 393.174 -2.24479 -1.9887 0
M  V30 4181 H 390.727 -1.19446 -1.00808 0
M  V30 4182 H 391.462 0.0005954 -3.243 0
M  V30 4183 H 391.247 -1.75412 -3.50675 0
M  V30 4184 H 392.737 -0.939085 -4.06904 0
M  V30 4185 N 393.175 1.03435 -1.18907 0
M  V30 4186 C 394.138 2.09756 -0.923844 0
M  V30 4187 C 395.138 1.60528 0.093416 0
M  V30 4188 O 396.328 1.73631 -0.140727 0
M  V30 4189 C 393.46 3.38692 -0.387354 0
M  V30 4190 H 394.653 2.34719 -1.86674 0
M  V30 4191 H 392.206 1.19959 -1.00197 0
M  V30 4192 H 392.941 3.19396 0.561845 0
M  V30 4193 H 392.726 3.75742 -1.12074 0
M  V30 4194 H 394.216 4.17016 -0.220694 0
M  V30 4195 N 394.653 0.992116 1.22453 0
M  V30 4196 C 395.899 0.668523 1.91464 0
M  V30 4197 C 396.232 -0.797313 1.77078 0
M  V30 4198 O 395.507 -1.5765 1.13916 0
M  V30 4199 C 395.79 1.07424 3.43703 0
M  V30 4200 C 395.643 2.59857 3.67143 0
M  V30 4201 C 396.962 0.626891 4.35612 0
M  V30 4202 H 394.081 0.244341 0.695318 0
M  V30 4203 H 396.723 1.2355 1.44345 0
M  V30 4204 H 394.873 0.591816 3.83966 0
M  V30 4205 H 396.545 3.15764 3.3629 0
M  V30 4206 H 394.788 3.01961 3.11451 0
M  V30 4207 H 395.459 2.83296 4.73759 0
M  V30 4208 H 397.935 1.04125 4.02861 0
M  V30 4209 H 396.811 0.939076 5.40807 0
M  V30 4210 H 397.072 -0.472457 4.39568 0
M  V30 4211 N 396.131 -1.37776 0.765217 0
M  V30 4212 C 397.078 -2.30342 0.145274 0
M  V30 4213 C 398.048 -1.5077 -0.696971 0
M  V30 4214 O 399.233 -1.79362 -0.650689 0
M  V30 4215 C 396.373 -3.37227 -0.732939 0
M  V30 4216 C 395.486 -4.31819 0.125199 0
M  V30 4217 C 394.621 -5.25777 -0.757107 0
M  V30 4218 C 393.66 -6.12012 0.103963 0
M  V30 4219 N 392.797 -6.98232 -0.735953 0
M  V30 4220 H 397.637 -2.8278 0.940195 0
M  V30 4221 H 395.174 -1.39211 0.475255 0
M  V30 4222 H 397.132 -3.97818 -1.25686 0
M  V30 4223 H 395.762 -2.86171 -1.49353 0
M  V30 4224 H 394.814 -3.7259 0.766865 0
M  V30 4225 H 396.126 -4.92509 0.789683 0
M  V30 4226 H 395.28 -5.91541 -1.34776 0
M  V30 4227 H 394.019 -4.65481 -1.45529 0
M  V30 4228 H 393.024 -5.45233 0.707197 0
M  V30 4229 H 394.249 -6.74379 0.799381 0
M  V30 4230 H 392.195 -6.40472 -1.41887 0
M  V30 4231 H 392.112 -7.55891 -0.128624 0
M  V30 4232 H 393.38 -7.68393 -1.31121 0
M  V30 4233 N 397.609 -0.515225 -1.4894 0
M  V30 4234 C 398.857 0.0241671 -2.02086 0
M  V30 4235 C 399.178 1.3616 -1.3959 0
M  V30 4236 O 398.448 1.87841 -0.556121 0
M  V30 4237 H 397.028 0.0119203 -0.746905 0
M  V30 4238 H 399.69 -0.675702 -1.82812 0
M  V30 4239 H 398.786 0.143385 -3.1177 0
M  V30 4240 N 399.087 1.5561 -0.249682 0
M  V30 4241 C 400.034 2.21496 0.648694 0
M  V30 4242 C 401.004 1.17977 1.16921 0
M  V30 4243 O 402.189 1.46434 1.22318 0
M  V30 4244 C 399.329 2.92039 1.83868 0
M  V30 4245 C 398.442 4.10219 1.35442 0
M  V30 4246 C 397.577 4.6847 2.50419 0
M  V30 4247 C 396.616 5.78893 1.98869 0
M  V30 4248 N 395.753 6.31315 3.07223 0
M  V30 4249 H 400.593 2.97892 0.0801582 0
M  V30 4250 H 398.13 1.47074 0.0278031 0
M  V30 4251 H 400.088 3.31138 2.53778 0
M  V30 4252 H 398.718 2.18111 2.37965 0
M  V30 4253 H 397.77 3.76413 0.54928 0
M  V30 4254 H 399.082 4.89927 0.936649 0
M  V30 4255 H 398.236 5.10158 3.28366 0
M  V30 4256 H 396.975 3.87984 2.95499 0
M  V30 4257 H 395.98 5.3668 1.19393 0
M  V30 4258 H 397.205 6.61232 1.54755 0
M  V30 4259 H 395.151 5.53733 3.51732 0
M  V30 4260 H 395.068 7.06224 2.69784 0
M  V30 4261 H 396.336 6.77662 3.8522 0
M  V30 4262 N 400.565 -0.0233959 1.57583 0
M  V30 4263 C 401.814 -0.712133 1.8871 0
M  V30 4264 C 402.127 -1.76217 0.848944 0
M  V30 4265 O 403.333 -2.50389 1.04964 0
M  V30 4266 C 401.789 -1.3177 3.3491 0
M  V30 4267 C 401.397 -0.303715 4.46969 0
M  V30 4268 C 403.141 -1.98598 3.75179 0
M  V30 4269 C 401.048 -0.917945 5.84233 0
M  V30 4270 H 399.978 -0.269735 0.704101 0
M  V30 4271 H 402.629 0.0333114 1.8347 0
M  V30 4272 H 401.011 -2.11304 3.34913 0
M  V30 4273 H 402.185 0.465325 4.58445 0
M  V30 4274 H 400.5 0.2628 4.1557 0
M  V30 4275 H 403.097 -2.45416 4.75053 0
M  V30 4276 H 403.44 -2.80659 3.07468 0
M  V30 4277 H 403.973 -1.25831 3.77374 0
M  V30 4278 H 400.712 -0.136633 6.55358 0
M  V30 4279 H 400.232 -1.65669 5.76467 0
M  V30 4280 H 401.911 -1.4236 6.31144 0
M  V30 4281 N 402.043 -1.548 -0.295768 0
M  V30 4282 C 402.953 -1.89177 -1.38742 0
M  V30 4283 C 403.969 -0.786481 -1.55211 0
M  V30 4284 O 405.145 -1.08344 -1.69775 0
M  V30 4285 C 402.21 -2.13663 -2.73036 0
M  V30 4286 C 401.271 -3.37349 -2.65508 0
M  V30 4287 C 400.504 -3.60658 -3.93398 0
M  V30 4288 O 400.727 -2.86882 -4.93006 0
M  V30 4289 O 399.661 -4.54179 -3.94975 0
M  V30 4290 H 403.487 -2.82059 -1.12589 0
M  V30 4291 H 401.072 -1.41056 -0.492295 0
M  V30 4292 H 402.954 -2.3094 -3.52484 0
M  V30 4293 H 401.629 -1.23967 -2.99022 0
M  V30 4294 H 400.536 -3.25431 -1.84514 0
M  V30 4295 H 401.869 -4.27192 -2.44474 0
M  V30 4296 N 403.521 0.559213 -1.47345 0
M  V30 4297 C 404.767 1.31843 -1.54095 0
M  V30 4298 C 405.1 1.93149 -0.201726 0
M  V30 4299 O 404.375 1.77759 0.789428 0
M  V30 4300 C 404.658 2.43006 -2.65744 0
M  V30 4301 C 404.511 1.86581 -4.09277 0
M  V30 4302 C 405.83 3.44943 -2.73318 0
M  V30 4303 H 402.949 0.478012 -0.560957 0
M  V30 4304 H 405.591 0.625977 -1.79392 0
M  V30 4305 H 403.741 3.02072 -2.44305 0
M  V30 4306 H 405.413 1.31792 -4.42073 0
M  V30 4307 H 403.656 1.17268 -4.17649 0
M  V30 4308 H 404.327 2.66933 -4.83168 0
M  V30 4309 H 406.803 2.95793 -2.92653 0
M  V30 4310 H 405.679 4.20153 -3.53218 0
M  V30 4311 H 405.94 4.03665 -1.80296 0
M  V30 4312 N 404.999 1.35443 0.805782 0
M  V30 4313 C 406.229 1.31687 1.59192 0
M  V30 4314 C 406.637 -0.10756 1.88894 0
M  V30 4315 O 405.98 -1.07017 1.49309 0
M  V30 4316 C 406.042 2.05686 2.94845 0
M  V30 4317 C 405.706 3.54868 2.87954 0
M  V30 4318 C 406.703 4.49444 2.61335 0
M  V30 4319 C 404.388 3.97528 3.07046 0
M  V30 4320 C 406.382 5.84655 2.53885 0
M  V30 4321 C 404.069 5.32833 2.99219 0
M  V30 4322 C 405.067 6.26209 2.72674 0
M  V30 4323 O 404.755 7.59032 2.64811 0
M  V30 4324 H 404.487 0.453878 0.50097 0
M  V30 4325 H 407.041 1.78892 1.0093 0
M  V30 4326 H 405.271 1.5312 3.55093 0
M  V30 4327 H 406.96 1.94998 3.55993 0
M  V30 4328 H 407.726 4.17804 2.46303 0
M  V30 4329 H 403.605 3.25233 3.26718 0
M  V30 4330 H 407.149 6.57508 2.33086 0
M  V30 4331 H 403.046 5.64087 3.13809 0
M  V30 4332 H 403.814 7.68967 2.80413 0
M  V30 4333 N 406.477 -1.02803 1.19454 0
M  V30 4334 C 407.407 -2.12999 0.956758 0
M  V30 4335 C 408.388 -1.69743 -0.110188 0
M  V30 4336 O 409.573 -1.94148 0.0450038 0
M  V30 4337 C 406.703 -3.43746 0.495553 0
M  V30 4338 C 405.657 -4.00688 1.50443 0
M  V30 4339 C 404.983 -5.27067 0.900275 0
M  V30 4340 C 406.283 -4.35397 2.8849 0
M  V30 4341 H 407.977 -2.33148 1.87836 0
M  V30 4342 H 405.523 -1.12045 0.904539 0
M  V30 4343 H 407.476 -4.2021 0.316493 0
M  V30 4344 H 406.2 -3.23321 -0.461646 0
M  V30 4345 H 404.859 -3.2632 1.67065 0
M  V30 4346 H 404.507 -5.02959 -0.064503 0
M  V30 4347 H 404.207 -5.66127 1.57397 0
M  V30 4348 H 405.731 -6.06196 0.73203 0
M  V30 4349 H 407.145 -5.02795 2.75446 0
M  V30 4350 H 405.542 -4.85541 3.52661 0
M  V30 4351 H 406.612 -3.44662 3.41081 0
M  V30 4352 N 407.956 -0.998596 -1.21925 0
M  V30 4353 C 409.233 -0.593401 -1.86382 0
M  V30 4354 C 409.613 0.92916 -1.89552 0
M  V30 4355 O 408.961 1.81347 -1.39017 0
M  V30 4356 C 409.171 -1.22039 -3.26967 0
M  V30 4357 C 410.519 -1.32449 -4.03413 0
M  V30 4358 O 411.543 -1.17522 -3.36254 0
M  V30 4359 O 410.402 -1.56395 -5.23644 0
M  V30 4360 H 407.496 -0.202385 -0.801854 0
M  V30 4361 H 410.042 -1.09484 -1.29659 0
M  V30 4362 H 408.814 -2.26158 -3.19325 0
M  V30 4363 H 408.437 -0.704906 -3.91301 0
M  V30 4364 N 409.434 1.37368 -0.772513 0
M  V30 4365 C 410.682 1.99279 -0.336516 0
M  V30 4366 C 411.003 1.6163 1.09091 0
M  V30 4367 O 410.273 0.882109 1.74916 0
M  V30 4368 H 408.853 0.737063 -0.121435 0
M  V30 4369 H 411.515 1.67836 -0.990809 0
M  V30 4370 H 410.611 3.09332 -0.414763 0
M  V30 4371 N 410.912 0.523116 1.48665 0
M  V30 4372 C 412.16 -0.0134497 2.02096 0
M  V30 4373 C 412.481 -1.35418 1.40311 0
M  V30 4374 O 411.751 -1.87543 0.566074 0
M  V30 4375 H 410.331 -0.00795915 0.746958 0
M  V30 4376 H 412.993 0.685388 1.82451 0
M  V30 4377 H 412.089 -0.126849 3.11842 0
M  V30 4378 N 412.39 -1.55475 0.257931 0
M  V30 4379 C 413.636 -1.99502 -0.364266 0
M  V30 4380 C 413.969 -1.146 -1.56782 0
M  V30 4381 O 413.244 -0.211968 -1.93342 0
M  V30 4382 C 413.527 -3.51917 -0.763333 0
M  V30 4383 C 413.38 -4.4758 0.446371 0
M  V30 4384 C 414.699 -4.09742 -1.60623 0
M  V30 4385 H 411.818 -0.725277 -0.130929 0
M  V30 4386 H 414.46 -1.8653 0.361446 0
M  V30 4387 H 412.61 -3.63101 -1.38166 0
M  V30 4388 H 414.282 -4.48362 1.08487 0
M  V30 4389 H 412.525 -4.19947 1.08753 0
M  V30 4390 H 413.196 -5.51862 0.123645 0
M  V30 4391 H 415.672 -4.01727 -1.08418 0
M  V30 4392 H 414.548 -5.16631 -1.85429 0
M  V30 4393 H 414.809 -3.58889 -2.58169 0
M  V30 4394 N 413.868 0.0150385 -1.57593 0
M  V30 4395 C 415.284 0.370907 -1.5523 0
M  V30 4396 C 415.484 1.75735 -0.985882 0
M  V30 4397 O 414.54 2.44944 -0.613077 0
M  V30 4398 C 415.853 0.259908 -2.99575 0
M  V30 4399 C 417.401 0.335959 -3.11192 0
M  V30 4400 C 417.876 0.254253 -4.57294 0
M  V30 4401 N 419.367 0.312618 -4.62144 0
M  V30 4402 C 420.102 0.272505 -5.72752 0
M  V30 4403 N 419.598 0.183864 -6.92556 0
M  V30 4404 N 421.391 0.323267 -5.6117 0
M  V30 4405 H 413.542 -0.892104 -1.92757 0
M  V30 4406 H 415.805 -0.340563 -0.884715 0
M  V30 4407 H 415.511 -0.693403 -3.44797 0
M  V30 4408 H 415.385 1.048 -3.62349 0
M  V30 4409 H 417.772 1.27971 -2.65909 0
M  V30 4410 H 417.853 -0.481739 -2.51223 0
M  V30 4411 H 417.497 -0.685887 -5.03247 0
M  V30 4412 H 417.427 1.09024 -5.15191 0
M  V30 4413 H 419.918 0.38307 -3.75953 0
M  V30 4414 H 420.231 0.15874 -7.72637 0
M  V30 4415 H 418.576 0.149708 -6.94839 0
M  V30 4416 H 421.767 0.390607 -4.66467 0
M  V30 4417 H 421.94 0.288539 -6.47357 0
M  V30 4418 N 415.346 1.54954 0.287554 0
M  V30 4419 C 416.574 1.78881 1.03967 0
M  V30 4420 C 416.989 0.554894 1.80462 0
M  V30 4421 O 416.346 -0.475676 1.76192 0
M  V30 4422 C 416.397 3.00488 2.0097 0
M  V30 4423 O 416.118 4.19113 1.27577 0
M  V30 4424 C 417.619 3.36907 2.88112 0
M  V30 4425 H 414.839 0.596259 0.307761 0
M  V30 4426 H 417.383 2.01937 0.322749 0
M  V30 4427 H 415.538 2.79601 2.68145 0
M  V30 4428 H 415.952 4.87765 1.92835 0
M  V30 4429 H 417.426 4.25205 3.52001 0
M  V30 4430 H 417.903 2.55659 3.57121 0
M  V30 4431 H 418.509 3.60001 2.26449 0
M  V30 4432 N 416.824 -0.551391 1.4764 0
M  V30 4433 C 418.072 -1.30572 1.54258 0
M  V30 4434 C 418.393 -1.93877 0.208963 0
M  V30 4435 O 417.663 -1.80234 -0.767619 0
M  V30 4436 H 416.243 -0.484894 0.568231 0
M  V30 4437 H 418.905 -0.643402 1.83974 0
M  V30 4438 H 418.001 -2.09621 2.31226 0
M  V30 4439 N 418.302 -1.35869 -0.798587 0
M  V30 4440 C 419.25 -1.29491 -1.93222 0
M  V30 4441 C 420.244 -0.18836 -1.6835 0
M  V30 4442 O 421.45 -0.354822 -1.76468 0
M  V30 4443 H 417.825 -0.402901 -0.63496 0
M  V30 4444 H 419.796 -2.25247 -1.9572 0
M  V30 4445 C 418.545 -1.09184 -3.30112 0
M  V30 4446 H 417.868 -1.93574 -3.49813 0
M  V30 4447 H 419.308 -1.08766 -4.09812 0
M  V30 4448 C 417.767 0.203959 -3.36282 0
M  V30 4449 O 418.297 1.19699 -3.83451 0
M  V30 4450 N 416.503 0.245488 -2.89561 0
M  V30 4451 H 416.05 -0.563223 -2.51367 0
M  V30 4452 H 416.008 1.11219 -2.94071 0
M  V30 4453 N 419.78 1.02168 -1.19998 0
M  V30 4454 C 421.057 1.72816 -0.916191 0
M  V30 4455 C 421.437 2.03081 0.576325 0
M  V30 4456 O 420.785 1.69122 1.53656 0
M  V30 4457 C 420.995 2.9997 -1.78378 0
M  V30 4458 C 422.343 3.73336 -2.02251 0
M  V30 4459 O 423.367 3.09914 -1.75589 0
M  V30 4460 O 422.226 4.87371 -2.47249 0
M  V30 4461 H 419.32 0.752924 -0.342103 0
M  V30 4462 H 421.866 1.08062 -1.30846 0
M  V30 4463 H 420.638 2.73888 -2.79466 0
M  V30 4464 H 420.261 3.72464 -1.39126 0
M  V30 4465 N 421.258 1.00505 1.21394 0
M  V30 4466 C 422.504 0.688793 1.90745 0
M  V30 4467 C 422.837 -0.778486 1.77914 0
M  V30 4468 O 422.112 -1.56433 1.15581 0
M  V30 4469 C 422.395 1.11063 3.42545 0
M  V30 4470 C 422.248 2.63737 3.64367 0
M  V30 4471 C 423.567 0.673059 4.34923 0
M  V30 4472 H 420.686 0.251702 0.692687 0
M  V30 4473 H 423.328 1.25074 1.43026 0
M  V30 4474 H 421.478 0.632508 3.83317 0
M  V30 4475 H 423.15 3.19313 3.32922 0
M  V30 4476 H 421.393 3.05248 3.08231 0
M  V30 4477 H 422.064 2.88305 4.70727 0
M  V30 4478 H 424.54 1.08392 4.01734 0
M  V30 4479 H 423.416 0.996383 5.39781 0
M  V30 4480 H 423.677 -0.425808 4.40045 0
M  V30 4481 N 422.737 -1.36956 0.779787 0
M  V30 4482 C 423.667 -2.32761 0.185651 0
M  V30 4483 C 424.648 -1.56177 -0.673989 0
M  V30 4484 O 425.833 -1.84378 -0.609797 0
M  V30 4485 C 422.963 -3.40418 -0.687964 0
M  V30 4486 C 421.917 -4.27941 0.0710102 0
M  V30 4487 C 421.243 -5.26681 -0.922573 0
M  V30 4488 C 422.543 -5.07006 1.25467 0
M  V30 4489 H 424.237 -2.82698 0.986008 0
M  V30 4490 H 421.783 -1.3592 0.475592 0
M  V30 4491 H 423.736 -4.06423 -1.11348 0
M  V30 4492 H 422.46 -2.89025 -1.52093 0
M  V30 4493 H 421.119 -3.63478 0.47739 0
M  V30 4494 H 420.767 -4.71565 -1.7503 0
M  V30 4495 H 420.467 -5.86103 -0.419237 0
M  V30 4496 H 421.991 -5.9556 -1.34686 0
M  V30 4497 H 423.405 -5.66105 0.905401 0
M  V30 4498 H 421.802 -5.75793 1.69063 0
M  V30 4499 H 422.872 -4.3921 2.05481 0
M  V30 4500 N 424.215 -0.530993 -1.48385 0
M  V30 4501 C 425.162 0.231223 -2.29639 0
M  V30 4502 C 426.132 0.932864 -1.37429 0
M  V30 4503 O 427.317 0.933692 -1.66394 0
M  V30 4504 C 424.457 1.27155 -3.2082 0
M  V30 4505 C 423.57 0.578655 -4.28107 0
M  V30 4506 C 422.705 1.602 -5.06467 0
M  V30 4507 C 421.744 0.892625 -6.05556 0
M  V30 4508 N 420.881 1.86157 -6.76971 0
M  V30 4509 H 425.721 -0.467848 -2.94305 0
M  V30 4510 H 423.258 -0.242556 -1.45086 0
M  V30 4511 H 425.216 1.88703 -3.72085 0
M  V30 4512 H 423.846 1.939 -2.58075 0
M  V30 4513 H 422.898 -0.150782 -3.80101 0
M  V30 4514 H 424.21 0.0217065 -4.98795 0
M  V30 4515 H 423.364 2.29173 -5.61751 0
M  V30 4516 H 422.103 2.19285 -4.35621 0
M  V30 4517 H 421.108 0.188829 -5.49476 0
M  V30 4518 H 422.333 0.307878 -6.78402 0
M  V30 4519 H 420.279 2.44147 -6.08875 0
M  V30 4520 H 420.196 1.35608 -7.43738 0
M  V30 4521 H 421.464 2.54325 -7.36844 0
M  V30 4522 N 425.693 1.55336 -0.266172 0
M  V30 4523 C 426.656 2.20878 0.612001 0
M  V30 4524 C 427.656 1.18388 1.08816 0
M  V30 4525 O 428.846 1.4335 0.989774 0
M  V30 4526 C 425.978 2.86765 1.84332 0
M  V30 4527 H 427.171 2.99873 0.0398718 0
M  V30 4528 H 424.724 1.56291 -0.0167309 0
M  V30 4529 H 425.459 2.11759 2.45619 0
M  V30 4530 H 425.244 3.61862 1.5099 0
M  V30 4531 H 426.734 3.36867 2.46801 0
M  V30 4532 N 427.171 -0.0066808 1.57599 0
M  V30 4533 C 428.101 -0.999296 2.11036 0
M  V30 4534 C 429.082 -1.36278 1.01795 0
M  V30 4535 O 430.267 -1.4477 1.29442 0
M  V30 4536 C 427.397 -2.29328 2.60818 0
M  V30 4537 C 426.351 -2.07159 3.74525 0
M  V30 4538 C 425.677 -3.42512 4.10596 0
M  V30 4539 C 426.977 -1.43959 5.02069 0
M  V30 4540 H 428.671 -0.554382 2.94223 0
M  V30 4541 H 426.217 -0.265221 1.41536 0
M  V30 4542 H 428.17 -2.99117 2.96828 0
M  V30 4543 H 426.894 -2.7592 1.74745 0
M  V30 4544 H 425.553 -1.39797 3.38899 0
M  V30 4545 H 425.201 -3.86795 3.21556 0
M  V30 4546 H 424.901 -3.28498 4.87199 0
M  V30 4547 H 426.425 -4.13628 4.4916 0
M  V30 4548 H 427.839 -2.03696 5.35893 0
M  V30 4549 H 426.236 -1.40452 5.83432 0
M  V30 4550 H 427.306 -0.407992 4.83181 0
M  V30 4551 N 428.649 -1.55105 -0.279332 0
M  V30 4552 C 429.612 -1.86783 -1.32834 0
M  V30 4553 C 430.612 -0.74199 -1.42657 0
M  V30 4554 O 431.802 -1.0102 -1.41918 0
M  V30 4555 C 428.934 -2.06746 -2.71052 0
M  V30 4556 H 430.127 -2.8055 -1.05979 0
M  V30 4557 H 427.68 -1.47499 -0.517087 0
M  V30 4558 H 428.415 -1.15339 -3.03097 0
M  V30 4559 H 428.2 -2.88711 -2.65309 0
M  V30 4560 H 429.69 -2.32549 -3.46858 0
M  V30 4561 N 430.127 0.543554 -1.4793 0
M  V30 4562 C 431.057 1.65888 -1.64327 0
M  V30 4563 C 432.038 1.62818 -0.492383 0
M  V30 4564 O 433.223 1.80226 -0.723338 0
M  V30 4565 C 430.353 3.04506 -1.67013 0
M  V30 4566 C 429.307 3.2243 -2.81466 0
M  V30 4567 C 428.633 4.61972 -2.69233 0
M  V30 4568 C 429.933 3.06496 -4.22915 0
M  V30 4569 H 431.627 1.52421 -2.57698 0
M  V30 4570 H 429.173 0.731849 -1.24016 0
M  V30 4571 H 431.126 3.82391 -1.77074 0
M  V30 4572 H 429.85 3.18964 -0.70212 0
M  V30 4573 H 428.509 2.46957 -2.70938 0
M  V30 4574 H 428.157 4.73247 -1.7043 0
M  V30 4575 H 427.857 4.74911 -3.46025 0
M  V30 4576 H 429.381 5.41974 -2.81242 0
M  V30 4577 H 430.795 3.74186 -4.34348 0
M  V30 4578 H 429.192 3.30938 -5.006 0
M  V30 4579 H 430.262 2.03077 -4.40327 0
M  V30 4580 N 431.605 1.3629 0.791371 0
M  V30 4581 C 432.853 1.30154 1.5461 0
M  V30 4582 C 433.174 -0.119409 1.94634 0
M  V30 4583 O 432.444 -1.05924 1.64794 0
M  V30 4584 H 431.024 0.478784 0.573389 0
M  V30 4585 H 433.686 1.70565 0.94306 0
M  V30 4586 H 432.782 1.92762 2.45457 0
M  V30 4587 N 433.083 -1.0153 1.20538 0
M  V30 4588 C 434.046 -2.0826 0.957098 0
M  V30 4589 C 435.046 -1.60657 -0.0678655 0
M  V30 4590 O 436.236 -1.73385 0.168332 0
M  V30 4591 C 433.368 -3.38033 0.441188 0
M  V30 4592 H 434.561 -2.31719 1.90384 0
M  V30 4593 H 432.114 -1.1835 1.02093 0
M  V30 4594 H 432.849 -3.20249 -0.510961 0
M  V30 4595 H 432.634 -3.73911 1.18038 0
M  V30 4596 H 434.124 -4.16613 0.287009 0
M  V30 4597 N 434.561 -1.01147 -1.20859 0
M  V30 4598 C 435.508 -0.577354 -2.23462 0
M  V30 4599 C 436.478 0.399922 -1.61214 0
M  V30 4600 O 437.663 0.300515 -1.88419 0
M  V30 4601 C 434.803 0.083372 -3.44999 0
M  V30 4602 C 433.916 -0.937856 -4.21697 0
M  V30 4603 C 433.051 -0.248717 -5.30617 0
M  V30 4604 C 432.09 -1.25705 -5.99053 0
M  V30 4605 N 431.227 -0.594939 -6.99575 0
M  V30 4606 H 436.067 -1.45695 -2.59956 0
M  V30 4607 H 433.604 -0.729428 -1.27741 0
M  V30 4608 H 435.562 0.483535 -4.14388 0
M  V30 4609 H 434.192 0.926645 -3.09214 0
M  V30 4610 H 433.244 -1.45622 -3.51423 0
M  V30 4611 H 434.556 -1.70493 -4.68757 0
M  V30 4612 H 433.71 0.207215 -6.06346 0
M  V30 4613 H 432.449 0.55071 -4.84581 0
M  V30 4614 H 431.454 -1.72343 -5.2209 0
M  V30 4615 H 432.679 -2.05767 -6.47176 0
M  V30 4616 H 430.625 0.184713 -6.5574 0
M  V30 4617 H 430.542 -1.30017 -7.44736 0
M  V30 4618 H 431.81 -0.162427 -7.79331 0
M  V30 4619 N 436.039 1.36541 -0.78704 0
M  V30 4620 C 437.279 2.01138 -0.363714 0
M  V30 4621 C 437.643 1.61114 1.04433 0
M  V30 4622 O 438.844 2.18285 1.56861 0
M  V30 4623 C 437.115 3.53603 -0.519582 0
M  V30 4624 S 438.674 4.38415 -0.183782 0
M  V30 4625 H 435.492 0.697263 -0.13909 0
M  V30 4626 H 438.094 1.66475 -1.02501 0
M  V30 4627 H 436.798 3.8022 -1.5447 0
M  V30 4628 H 436.329 3.93084 0.15773 0
M  V30 4629 H 438.344 4.85698 1.01547 0
M  V30 4630 N 437.518 0.538854 1.48102 0
M  V30 4631 C 438.767 0.0059532 2.01699 0
M  V30 4632 C 439.08 -1.34476 1.42041 0
M  V30 4633 O 440.286 -1.96653 1.87189 0
M  V30 4634 C 438.742 -0.0397627 3.59878 0
M  V30 4635 C 438.35 1.30659 4.28523 0
M  V30 4636 C 440.094 -0.521024 4.2129 0
M  V30 4637 C 438.001 1.22098 5.78659 0
M  V30 4638 H 436.931 -0.00154456 0.753998 0
M  V30 4639 H 439.582 0.683963 1.70277 0
M  V30 4640 H 437.964 -0.783037 3.88181 0
M  V30 4641 H 439.138 2.06613 4.11883 0
M  V30 4642 H 437.453 1.7243 3.79021 0
M  V30 4643 H 440.05 -0.603184 5.31287 0
M  V30 4644 H 440.393 -1.52885 3.8721 0
M  V30 4645 H 440.926 0.166834 3.9745 0
M  V30 4646 H 437.665 2.20424 6.17328 0
M  V30 4647 H 437.185 0.50295 5.97688 0
M  V30 4648 H 438.864 0.915345 6.40492 0
M  V30 4649 N 438.996 -1.55193 0.274407 0
M  V30 4650 C 440.243 -1.99581 -0.342579 0
M  V30 4651 C 440.571 -1.1628 -1.55914 0
M  V30 4652 O 439.826 -0.22029 -1.94456 0
M  V30 4653 C 440.125 -3.49019 -0.769458 0
M  V30 4654 C 439.791 -4.49598 0.342389 0
M  V30 4655 C 438.453 -4.76821 0.647686 0
M  V30 4656 C 440.805 -5.0964 1.09163 0
M  V30 4657 C 438.133 -5.61354 1.70581 0
M  V30 4658 C 440.485 -5.95323 2.13948 0
M  V30 4659 C 439.149 -6.20867 2.45113 0
M  V30 4660 H 438.419 -0.730319 -0.125358 0
M  V30 4661 H 441.066 -1.87529 0.387971 0
M  V30 4662 H 439.371 -3.58544 -1.57967 0
M  V30 4663 H 441.068 -3.8077 -1.25757 0
M  V30 4664 H 437.658 -4.28496 0.094318 0
M  V30 4665 H 441.842 -4.88632 0.869024 0
M  V30 4666 H 437.098 -5.79392 1.9523 0
M  V30 4667 H 441.272 -6.40881 2.72478 0
M  V30 4668 H 438.899 -6.86162 3.27239 0
M  V30 4669 N 440.474 -0.00167713 -1.576 0
M  V30 4670 C 441.404 0.988091 -2.11563 0
M  V30 4671 C 442.385 1.35736 -1.02517 0
M  V30 4672 O 443.57 1.44082 -1.30208 0
M  V30 4673 C 440.7 2.27941 -2.62031 0
M  V30 4674 C 439.654 2.0517 -3.75619 0
M  V30 4675 C 438.98 3.4033 -4.12407 0
M  V30 4676 C 440.28 1.41294 -5.02825 0
M  V30 4677 H 441.974 0.538771 -2.94513 0
M  V30 4678 H 439.52 0.257712 -1.41675 0
M  V30 4679 H 441.473 2.97539 -2.9841 0
M  V30 4680 H 440.197 2.74989 -1.76205 0
M  V30 4681 H 438.856 1.37998 -3.39635 0
M  V30 4682 H 438.504 3.85085 -3.23603 0
M  V30 4683 H 438.204 3.25909 -4.88935 0
M  V30 4684 H 439.728 4.1124 -4.51347 0
M  V30 4685 H 441.142 2.00851 -5.36965 0
M  V30 4686 H 439.539 1.37356 -5.84169 0
M  V30 4687 H 440.609 0.382362 -4.8339 0
M  V30 4688 N 441.952 1.55251 0.271103 0
M  V30 4689 C 443.2 1.75599 1.00047 0
M  V30 4690 C 443.521 0.561188 1.8675 0
M  V30 4691 O 442.791 -0.423846 1.9126 0
M  V30 4692 H 441.371 0.647562 0.372387 0
M  V30 4693 H 444.033 1.92656 0.294876 0
M  V30 4694 H 443.129 2.65766 1.6363 0
M  V30 4695 N 443.43 -0.535701 1.48216 0
M  V30 4696 C 444.846 -0.863701 1.3421 0
M  V30 4697 C 445.046 -1.98458 0.34879 0
M  V30 4698 O 444.102 -2.51432 -0.23204 0
M  V30 4699 C 445.415 -1.23662 2.74095 0
M  V30 4700 C 446.963 -1.34683 2.82541 0
M  V30 4701 C 447.438 -1.75322 4.23115 0
M  V30 4702 N 448.929 -1.82434 4.2576 0
M  V30 4703 C 449.664 -2.15252 5.31464 0
M  V30 4704 N 449.16 -2.46533 6.47452 0
M  V30 4705 N 450.953 -2.16209 5.18855 0
M  V30 4706 H 443.104 0.203965 2.11418 0
M  V30 4707 H 445.367 0.0286033 0.947568 0
M  V30 4708 H 445.073 -0.486674 3.48316 0
M  V30 4709 H 444.947 -2.18805 3.07253 0
M  V30 4710 H 447.334 -2.08756 2.08579 0
M  V30 4711 H 447.415 -0.376756 2.5301 0
M  V30 4712 H 447.059 -1.01812 4.97591 0
M  V30 4713 H 446.989 -2.7337 4.50085 0
M  V30 4714 H 449.48 -1.6056 3.42095 0
M  V30 4715 H 449.793 -2.70662 7.23852 0
M  V30 4716 H 448.138 -2.44065 6.50736 0
M  V30 4717 H 451.329 -1.91224 4.2726 0
M  V30 4718 H 451.502 -2.41453 6.01335 0
M  V30 4719 N 444.908 -1.36708 -0.784132 0
M  V30 4720 C 446.319 -1.27947 -1.35965 0
M  V30 4721 C 446.67 0.0784013 -1.96043 0
M  V30 4722 O 445.795 0.979989 -1.92938 0
M  V30 4723 C 446.39 -2.31689 -2.47195 0
M  V30 4724 C 444.949 -2.26601 -3.00548 0
M  V30 4725 C 444.096 -2.16184 -1.73666 0
M  V30 4726 H 447.047 -1.4751 -0.585358 0
M  V30 4727 H 447.068 -1.95638 -3.26352 0
M  V30 4728 H 446.58 -3.30506 -2.03439 0
M  V30 4729 H 444.681 -1.31268 -3.48711 0
M  V30 4730 H 444.794 -3.19508 -3.57004 0
M  V30 4731 H 443.158 -1.62524 -1.96107 0
M  V30 4732 H 443.941 -3.16896 -1.32031 0
M  V30 4733 N 446.386 1.0089 -1.21074 0
M  V30 4734 C 447.635 1.74019 -1.01981 0
M  V30 4735 C 447.948 1.90408 0.447665 0
M  V30 4736 O 449.154 2.60707 0.757906 0
M  V30 4737 C 447.61 3.13026 -1.77603 0
M  V30 4738 C 447.218 3.04623 -3.28495 0
M  V30 4739 C 448.962 3.90312 -1.66904 0
M  V30 4740 C 446.869 4.38685 -3.96623 0
M  V30 4741 H 445.799 0.652422 -0.377971 0
M  V30 4742 H 448.45 1.12755 -1.44771 0
M  V30 4743 H 446.832 3.74878 -1.27604 0
M  V30 4744 H 448.006 2.52032 -3.85767 0
M  V30 4745 H 446.321 2.40827 -3.39693 0
M  V30 4746 H 448.918 4.8951 -2.15138 0
M  V30 4747 H 449.261 4.11558 -0.62658 0
M  V30 4748 H 449.794 3.35104 -2.14359 0
M  V30 4749 H 446.533 4.22641 -5.01054 0
M  V30 4750 H 446.053 4.91252 -3.4414 0
M  V30 4751 H 447.732 5.075 -4.01314 0
M  V30 4752 N 447.864 1.01787 1.20321 0
M  V30 4753 C 448.794 0.609625 2.25401 0
M  V30 4754 C 449.775 -0.375951 1.65893 0
M  V30 4755 O 450.96 -0.261101 1.92437 0
M  V30 4756 C 448.09 -0.0515995 3.47262 0
M  V30 4757 C 447.044 0.855095 4.19371 0
M  V30 4758 C 446.37 0.0595757 5.34667 0
M  V30 4759 C 447.67 2.16374 4.75373 0
M  V30 4760 H 449.364 1.48803 2.59804 0
M  V30 4761 H 446.91 0.716934 1.24884 0
M  V30 4762 H 448.863 -0.348764 4.19954 0
M  V30 4763 H 447.587 -0.964726 3.12027 0
M  V30 4764 H 446.246 1.13628 3.48546 0
M  V30 4765 H 445.894 -0.85524 4.95676 0
M  V30 4766 H 445.594 0.663406 5.83843 0
M  V30 4767 H 447.118 -0.231105 6.10162 0
M  V30 4768 H 448.532 1.92885 5.39878 0
M  V30 4769 H 446.929 2.71853 5.34991 0
M  V30 4770 H 447.999 2.82589 3.94045 0
M  V30 4771 N 449.342 -1.36122 0.79427 0
M  V30 4772 C 450.588 -1.99846 0.378542 0
M  V30 4773 C 450.943 -1.61898 -1.03955 0
M  V30 4774 O 450.236 -0.866013 -1.70912 0
M  V30 4775 C 450.43 -3.5409 0.48527 0
M  V30 4776 C 450.259 -4.0702 1.91219 0
M  V30 4777 C 449.029 -4.36944 2.53787 0
M  V30 4778 C 451.227 -4.26435 2.87502 0
M  V30 4779 N 449.209 -4.75727 3.88017 0
M  V30 4780 C 450.58 -4.68077 4.06576 0
M  V30 4781 C 452.635 -4.08616 2.84495 0
M  V30 4782 C 451.338 -4.93765 5.23057 0
M  V30 4783 C 453.364 -4.35453 4.00169 0
M  V30 4784 C 452.726 -4.77355 5.17988 0
M  V30 4785 H 448.825 -0.759549 0.186034 0
M  V30 4786 H 451.409 -1.65043 1.0329 0
M  V30 4787 H 449.58 -3.88151 -0.139023 0
M  V30 4788 H 451.312 -4.04675 0.0453192 0
M  V30 4789 H 448.067 -4.26822 2.05231 0
M  V30 4790 H 448.491 -4.99396 4.57092 0
M  V30 4791 H 453.133 -3.75373 1.94564 0
M  V30 4792 H 450.851 -5.25887 6.1357 0
M  V30 4793 H 454.437 -4.2323 3.99208 0
M  V30 4794 H 453.317 -4.97718 6.06008 0
M  V30 4795 N 450.82 -0.546701 -1.47814 0
M  V30 4796 C 452.068 -0.0187037 -2.02091 0
M  V30 4797 C 452.389 1.33168 -1.42447 0
M  V30 4798 O 451.659 1.86619 -0.595839 0
M  V30 4799 H 450.239 -0.00392531 -0.74699 0
M  V30 4800 H 452.901 -0.714327 -1.81338 0
M  V30 4801 H 451.997 0.0772219 -3.12004 0
M  V30 4802 N 452.299 1.55045 -0.282633 0
M  V30 4803 C 453.229 2.2579 0.595066 0
M  V30 4804 C 454.21 1.25074 1.15284 0
M  V30 4805 O 455.395 1.5381 1.18559 0
M  V30 4806 C 452.525 2.98472 1.77572 0
M  V30 4807 C 451.479 4.0618 1.34914 0
M  V30 4808 C 450.805 4.66477 2.6135 0
M  V30 4809 C 452.105 5.1996 0.493821 0
M  V30 4810 H 453.799 2.994 0.00505653 0
M  V30 4811 H 451.345 1.44 0.000992001 0
M  V30 4812 H 453.298 3.46677 2.39568 0
M  V30 4813 H 452.022 2.2241 2.39168 0
M  V30 4814 H 450.681 3.58797 0.752338 0
M  V30 4815 H 450.329 3.87074 3.2122 0
M  V30 4816 H 450.029 5.39207 2.33516 0
M  V30 4817 H 451.553 5.17435 3.24181 0
M  V30 4818 H 452.967 5.64172 1.01898 0
M  V30 4819 H 451.364 5.99299 0.310047 0
M  V30 4820 H 452.434 4.82462 -0.485593 0
M  V30 4821 N 453.777 0.010035 1.57597 0
M  V30 4822 C 454.74 -0.963029 2.07986 0
M  V30 4823 C 455.74 -1.26619 0.991173 0
M  V30 4824 O 456.93 -1.2097 1.25347 0
M  V30 4825 C 454.062 -2.2851 2.52974 0
M  V30 4826 H 455.255 -0.526971 2.95234 0
M  V30 4827 H 452.808 -0.237639 1.54483 0
M  V30 4828 H 453.543 -2.76784 1.69 0
M  V30 4829 H 453.328 -2.07824 3.32493 0
M  V30 4830 H 454.818 -2.98294 2.9225 0
M  V30 4831 N 455.255 -1.55392 -0.262866 0
M  V30 4832 C 456.495 -1.78231 -1.00064 0
M  V30 4833 C 456.859 -0.576966 -1.83126 0
M  V30 4834 O 458.06 -0.683809 -2.59957 0
M  V30 4835 C 456.331 -3.05701 -1.85153 0
M  V30 4836 S 457.89 -3.49699 -2.65058 0
M  V30 4837 H 454.708 -0.626138 -0.336856 0
M  V30 4838 H 457.31 -1.93626 -0.27005 0
M  V30 4839 H 456.014 -3.91511 -1.23074 0
M  V30 4840 H 455.545 -2.93 -2.62515 0
M  V30 4841 H 457.56 -3.09772 -3.87629 0
M  V30 4842 N 456.733 0.527833 -1.48498 0
M  V30 4843 C 457.68 1.6322 -1.6318 0
M  V30 4844 C 458.65 1.59199 -0.473815 0
M  V30 4845 O 459.835 1.77591 -0.697563 0
M  V30 4846 C 456.975 3.01474 -1.67951 0
M  V30 4847 C 456.088 3.15713 -2.94871 0
M  V30 4848 C 455.223 4.44539 -2.90789 0
M  V30 4849 C 454.262 4.52315 -4.12404 0
M  V30 4850 N 453.399 5.72533 -4.06387 0
M  V30 4851 H 458.239 1.50011 -2.57489 0
M  V30 4852 H 455.776 0.730298 -1.27691 0
M  V30 4853 H 457.734 3.81572 -1.68698 0
M  V30 4854 H 456.364 3.1345 -0.771306 0
M  V30 4855 H 455.416 2.28854 -3.03859 0
M  V30 4856 H 456.728 3.1732 -3.8485 0
M  V30 4857 H 455.882 5.3293 -2.89949 0
M  V30 4858 H 454.621 4.45457 -1.98542 0
M  V30 4859 H 453.626 3.62331 -4.13517 0
M  V30 4860 H 454.851 4.53134 -5.05812 0
M  V30 4861 H 452.797 5.74344 -3.16962 0
M  V30 4862 H 452.714 5.75643 -4.90073 0
M  V30 4863 H 453.982 6.63204 -4.0961 0
M  V30 4864 N 458.211 1.37122 0.776871 0
M  V30 4865 C 459.459 1.31787 1.53221 0
M  V30 4866 C 459.78 -0.0987589 1.9475 0
M  V30 4867 O 459.05 -1.0417 1.65908 0
M  V30 4868 H 457.63 0.484839 0.568278 0
M  V30 4869 H 460.292 1.71556 0.924917 0
M  V30 4870 H 459.388 1.95355 2.43398 0
M  V30 4871 N 459.689 -1.00246 1.21608 0
M  V30 4872 C 460.599 -2.12515 0.993709 0
M  V30 4873 C 461.615 -1.73913 -0.0549939 0
M  V30 4874 O 462.791 -2.00943 0.135619 0
M  V30 4875 C 459.856 -3.42083 0.563953 0
M  V30 4876 C 458.917 -3.94843 1.68516 0
M  V30 4877 C 458.15 -5.18226 1.27582 0
M  V30 4878 O 458.373 -5.70201 0.150506 0
M  V30 4879 O 457.307 -5.64497 2.0887 0
M  V30 4880 H 461.133 -2.34152 1.93407 0
M  V30 4881 H 458.718 -1.10891 1.00118 0
M  V30 4882 H 460.6 -4.20073 0.334194 0
M  V30 4883 H 459.275 -3.21828 -0.347665 0
M  V30 4884 H 458.182 -3.18068 1.96935 0
M  V30 4885 H 459.515 -4.19512 2.5743 0
M  V30 4886 N 461.167 -1.02423 -1.1978 0
M  V30 4887 C 462.117 -0.571689 -2.20716 0
M  V30 4888 C 463.101 0.377077 -1.56419 0
M  V30 4889 O 464.293 0.198801 -1.7588 0
M  V30 4890 C 461.422 0.0808555 -3.43205 0
M  V30 4891 C 460.508 -0.890073 -4.14655 0
M  V30 4892 N 460.899 -2.05065 -4.62366 0
M  V30 4893 C 459.197 -0.71252 -4.40272 0
M  V30 4894 C 459.898 -2.66264 -5.17183 0
M  V30 4895 N 458.874 -1.94264 -5.07703 0
M  V30 4896 H 462.676 -1.45636 -2.55279 0
M  V30 4897 H 460.19 -0.890596 -1.35802 0
M  V30 4898 H 462.187 0.422654 -4.14752 0
M  V30 4899 H 460.847 0.961274 -3.10144 0
M  V30 4900 H 461.858 -2.43026 -4.57339 0
M  V30 4901 H 458.535 0.119199 -4.1733 0
M  V30 4902 H 459.925 -3.64526 -5.64421 0
M  V30 4903 N 462.645 1.35699 -0.801477 0
M  V30 4904 C 463.893 1.9852 -0.37871 0
M  V30 4905 C 464.214 1.63907 1.05638 0
M  V30 4906 O 463.484 0.919013 1.73006 0
M  V30 4907 H 462.064 0.734322 -0.137042 0
M  V30 4908 H 464.726 1.65697 -1.02619 0
M  V30 4909 H 463.822 3.08382 -0.480284 0
M  V30 4910 N 464.123 0.554532 1.47522 0
M  V30 4911 C 465.369 0.0295227 2.02779 0
M  V30 4912 C 465.702 -1.31582 1.42828 0
M  V30 4913 O 464.977 -1.85561 0.582872 0
M  V30 4914 C 465.26 -0.0664057 3.60039 0
M  V30 4915 C 465.113 1.30585 4.30427 0
M  V30 4916 C 466.432 -0.781162 4.33112 0
M  V30 4917 H 463.551 0.0122027 0.736899 0
M  V30 4918 H 466.193 0.716305 1.7598 0
M  V30 4919 H 464.343 -0.651307 3.83002 0
M  V30 4920 H 466.015 1.93374 4.18813 0
M  V30 4921 H 464.258 1.88125 3.90886 0
M  V30 4922 H 464.929 1.19147 5.38988 0
M  V30 4923 H 467.405 -0.284565 4.15126 0
M  V30 4924 H 466.281 -0.817237 5.42782 0
M  V30 4925 H 466.542 -1.83672 4.0214 0
M  V30 4926 N 465.601 -1.54893 0.290851 0
M  V30 4927 C 466.548 -2.23138 -0.58974 0
M  V30 4928 C 467.518 -1.21036 -1.13752 0
M  V30 4929 O 468.703 -1.49626 -1.18392 0
M  V30 4930 C 465.843 -2.96811 -1.76061 0
M  V30 4931 C 464.956 -4.13665 -1.24519 0
M  V30 4932 C 464.091 -4.74944 -2.3791 0
M  V30 4933 C 463.13 -5.83963 -1.83451 0
M  V30 4934 N 462.267 -6.39239 -2.90376 0
M  V30 4935 H 467.107 -2.98 -0.00114915 0
M  V30 4936 H 464.644 -1.47096 0.0112006 0
M  V30 4937 H 466.602 -3.37751 -2.44909 0
M  V30 4938 H 465.232 -2.24344 -2.32098 0
M  V30 4939 H 464.284 -3.77737 -0.449288 0
M  V30 4940 H 465.596 -4.92238 -0.806424 0
M  V30 4941 H 464.75 -5.18684 -3.14724 0
M  V30 4942 H 463.489 -3.95682 -2.85109 0
M  V30 4943 H 462.494 -5.39657 -1.05122 0
M  V30 4944 H 463.719 -6.65103 -1.37169 0
M  V30 4945 H 461.665 -5.62864 -3.36927 0
M  V30 4946 H 461.582 -7.13129 -2.50965 0
M  V30 4947 H 462.85 -6.87637 -3.67118 0
M  V30 4948 N 467.08 -0.0183926 -1.57589 0
M  V30 4949 C 467.99 0.982943 -2.13015 0
M  V30 4950 C 469.006 1.36443 -1.07979 0
M  V30 4951 O 470.182 1.44802 -1.3998 0
M  V30 4952 C 467.247 2.25024 -2.63752 0
M  V30 4953 C 466.308 1.93018 -3.83461 0
M  V30 4954 C 465.541 3.13706 -4.31769 0
M  V30 4955 O 465.764 4.2601 -3.79305 0
M  V30 4956 O 464.698 2.96629 -5.23732 0
M  V30 4957 H 468.524 0.541709 -2.9883 0
M  V30 4958 H 466.109 0.201565 -1.48034 0
M  V30 4959 H 467.991 2.99441 -2.96502 0
M  V30 4960 H 466.666 2.68349 -1.81026 0
M  V30 4961 H 465.573 1.16019 -3.55655 0
M  V30 4962 H 466.906 1.54516 -4.67317 0
M  V30 4963 N 468.558 1.5553 0.254621 0
M  V30 4964 C 469.804 1.77262 0.985193 0
M  V30 4965 C 470.137 0.582286 1.85265 0
M  V30 4966 O 469.412 -0.419666 1.89919 0
M  V30 4967 C 469.695 3.0881 1.85225 0
M  V30 4968 C 469.548 4.38233 1.0135 0
M  V30 4969 C 470.867 3.3653 2.83612 0
M  V30 4970 H 467.986 0.644906 0.356742 0
M  V30 4971 H 470.628 1.88264 0.256236 0
M  V30 4972 H 468.778 2.99562 2.47376 0
M  V30 4973 H 470.45 4.59463 0.411269 0
M  V30 4974 H 468.693 4.32636 0.317574 0
M  V30 4975 H 469.364 5.26644 1.65379 0
M  V30 4976 H 471.84 3.45691 2.31596 0
M  V30 4977 H 470.716 4.29805 3.41407 0
M  V30 4978 H 470.977 2.57064 3.59681 0
M  V30 4979 N 470.036 -0.519951 1.48776 0
M  V30 4980 C 470.966 -1.63253 1.66945 0
M  V30 4981 C 471.947 -1.62014 0.518224 0
M  V30 4982 O 473.132 -1.79053 0.751919 0
M  V30 4983 C 470.262 -3.0181 1.71836 0
M  V30 4984 C 469.216 -3.17911 2.8656 0
M  V30 4985 C 468.542 -4.5763 2.76548 0
M  V30 4986 C 469.842 -2.99729 4.27738 0
M  V30 4987 H 471.536 -1.48302 2.6009 0
M  V30 4988 H 469.082 -0.712026 1.25165 0
M  V30 4989 H 471.035 -3.79525 1.83135 0
M  V30 4990 H 469.759 -3.17806 0.752775 0
M  V30 4991 H 468.418 -2.42616 2.74833 0
M  V30 4992 H 468.066 -4.70476 1.77937 0
M  V30 4993 H 467.766 -4.69346 3.53536 0
M  V30 4994 H 469.29 -5.37431 2.89828 0
M  V30 4995 H 470.704 -3.67228 4.40246 0
M  V30 4996 H 469.101 -3.22932 5.05801 0
M  V30 4997 H 470.171 -1.96047 4.43502 0
M  V30 4998 N 471.514 -1.37532 -0.769588 0
M  V30 4999 C 472.462 -1.33561 -1.90432 0
M  V30 5000 C 473.456 -0.224027 -1.67912 0
M  V30 5001 O 474.662 -0.392174 -1.75676 0
M  V30 5002 H 471.037 -0.416279 -0.626271 0
M  V30 5003 H 473.008 -2.29348 -1.90899 0
M  V30 5004 C 471.757 -1.16162 -3.27722 0
M  V30 5005 H 471.08 -2.00951 -3.45628 0
M  V30 5006 H 472.52 -1.17434 -4.07413 0
M  V30 5007 C 470.979 0.132583 -3.36639 0
M  V30 5008 O 471.509 1.11539 -3.85904 0
M  V30 5009 N 469.715 0.184013 -2.90017 0
M  V30 5010 H 469.262 -0.616415 -2.50116 0
M  V30 5011 H 469.22 1.04956 -2.96364 0
M  V30 5012 N 472.992 0.995999 -1.22138 0
M  V30 5013 C 474.241 1.72928 -1.03821 0
M  V30 5014 C 474.554 1.90872 0.427444 0
M  V30 5015 O 475.76 2.61496 0.730212 0
M  V30 5016 C 474.216 3.11124 -1.80913 0
M  V30 5017 C 473.824 3.01122 -3.31707 0
M  V30 5018 C 475.568 3.8852 -1.71035 0
M  V30 5019 C 473.475 4.34453 -4.01253 0
M  V30 5020 H 472.405 0.648376 -0.384869 0
M  V30 5021 H 475.056 1.11213 -1.45959 0
M  V30 5022 H 473.438 3.73503 -1.31573 0
M  V30 5023 H 474.612 2.47926 -3.88419 0
M  V30 5024 H 472.927 2.3721 -3.42228 0
M  V30 5025 H 475.524 4.872 -2.20318 0
M  V30 5026 H 475.867 4.1087 -0.670196 0
M  V30 5027 H 476.4 3.32812 -2.17902 0
M  V30 5028 H 473.139 4.17303 -5.05508 0
M  V30 5029 H 472.659 4.87574 -3.49331 0
M  V30 5030 H 474.338 5.03215 -4.06674 0
M  V30 5031 N 474.47 1.03057 1.19235 0
M  V30 5032 C 475.4 0.633497 2.24742 0
M  V30 5033 C 476.381 -0.358335 1.66283 0
M  V30 5034 O 477.566 -0.240676 1.92703 0
M  V30 5035 C 474.696 -0.0147648 3.47297 0
M  V30 5036 C 473.65 0.899527 4.18441 0
M  V30 5037 C 472.976 0.116281 5.34574 0
M  V30 5038 C 474.276 2.21404 4.73051 0
M  V30 5039 H 475.97 1.5155 2.58211 0
M  V30 5040 H 473.516 0.73014 1.24117 0
M  V30 5041 H 475.469 -0.304202 4.20301 0
M  V30 5042 H 474.193 -0.931577 3.13032 0
M  V30 5043 H 472.852 1.17319 3.47321 0
M  V30 5044 H 472.5 -0.802619 4.96555 0
M  V30 5045 H 472.2 0.725293 5.83107 0
M  V30 5046 H 473.724 -0.166376 6.10373 0
M  V30 5047 H 475.138 1.98601 5.37802 0
M  V30 5048 H 473.535 2.77512 5.32078 0
M  V30 5049 H 474.605 2.86752 3.91026 0
M  V30 5050 N 475.948 -1.35272 0.808662 0
M  V30 5051 C 477.176 -2.02946 0.402537 0
M  V30 5052 C 477.591 -1.60937 -0.987147 0
M  V30 5053 O 476.948 -0.807917 -1.63643 0
M  V30 5054 C 476.999 -3.58317 0.47868 0
M  V30 5055 O 476.72 -3.98799 1.81358 0
M  V30 5056 C 478.221 -4.43251 0.0656281 0
M  V30 5057 H 475.441 -0.650831 0.163279 0
M  V30 5058 H 477.985 -1.72849 1.09286 0
M  V30 5059 H 476.14 -3.87055 -0.163415 0
M  V30 5060 H 476.554 -4.93451 1.77781 0
M  V30 5061 H 478.028 -5.51738 0.170017 0
M  V30 5062 H 478.505 -4.27913 -0.989278 0
M  V30 5063 H 479.111 -4.19813 0.68096 0
M  V30 5064 N 477.426 -0.562348 -1.47226 0
M  V30 5065 C 478.374 0.195476 -2.31777 0
M  V30 5066 C 479.368 0.90433 -1.43242 0
M  V30 5067 O 480.574 0.825031 -1.59979 0
M  V30 5068 H 476.949 0.0819095 -0.747526 0
M  V30 5069 H 478.92 -0.536753 -2.93533 0
M  V30 5070 C 477.669 1.20902 -3.26003 0
M  V30 5071 H 476.992 0.672997 -3.94095 0
M  V30 5072 H 478.432 1.71006 -3.87986 0
M  V30 5073 C 476.891 2.25955 -2.49891 0
M  V30 5074 O 477.421 3.32969 -2.2471 0
M  V30 5075 N 475.627 2.00019 -2.1081 0
M  V30 5076 H 475.174 1.13006 -2.31489 0
M  V30 5077 H 475.132 2.70523 -1.60201 0
M  V30 5078 N 478.904 1.54736 -0.299062 0
M  V30 5079 C 479.814 2.27127 0.587413 0
M  V30 5080 C 480.83 1.30575 1.15005 0
M  V30 5081 O 482.006 1.63554 1.17525 0
M  V30 5082 C 479.071 2.99645 1.74395 0
M  V30 5083 C 478.132 4.11731 1.21559 0
M  V30 5084 C 477.365 4.80781 2.317 0
M  V30 5085 O 477.588 4.4918 3.51558 0
M  V30 5086 O 476.522 5.68226 1.98501 0
M  V30 5087 H 480.348 3.037 0.000250109 0
M  V30 5088 H 477.933 1.49256 -0.0655919 0
M  V30 5089 H 479.815 3.45138 2.4178 0
M  V30 5090 H 478.49 2.25969 2.31775 0
M  V30 5091 H 477.397 3.70641 0.507514 0
M  V30 5092 H 478.73 4.87379 0.687233 0
M  V30 5093 N 480.382 0.0267497 1.57577 0
M  V30 5094 C 481.629 -0.652404 1.91703 0
M  V30 5095 C 481.957 -1.72271 0.902936 0
M  V30 5096 O 481.212 -1.955 -0.0884843 0
M  V30 5097 C 481.511 -1.30914 3.3256 0
M  V30 5098 C 481.177 -0.369441 4.49384 0
M  V30 5099 C 479.839 -0.110791 4.81072 0
M  V30 5100 C 482.191 0.275971 5.20469 0
M  V30 5101 C 479.519 0.801116 5.81205 0
M  V30 5102 C 481.871 1.17592 6.21575 0
M  V30 5103 C 480.535 1.44348 6.51705 0
M  V30 5104 H 479.805 -0.238732 0.70149 0
M  V30 5105 H 482.452 0.0880091 1.91298 0
M  V30 5106 H 480.757 -2.12425 3.29216 0
M  V30 5107 H 482.454 -1.84115 3.56234 0
M  V30 5108 H 479.044 -0.581211 4.24641 0
M  V30 5109 H 483.228 0.0892 4.9622 0
M  V30 5110 H 478.484 1.01614 6.02897 0
M  V30 5111 H 482.658 1.68223 6.75777 0
M  V30 5112 H 480.285 2.15176 7.29111 0
M  V30 5113 N 481.861 -1.55662 -0.24637 0
M  V30 5114 C 482.811 -1.86753 -1.30795 0
M  V30 5115 C 483.795 -0.728445 -1.43466 0
M  V30 5116 O 484.987 -0.99038 -1.46699 0
M  V30 5117 C 482.116 -2.16618 -2.66329 0
M  V30 5118 C 481.202 -3.36855 -2.57661 0
M  V30 5119 N 481.593 -4.56111 -2.18624 0
M  V30 5120 C 479.891 -3.39976 -2.88673 0
M  V30 5121 C 480.592 -5.38247 -2.20601 0
M  V30 5122 N 479.568 -4.77322 -2.60124 0
M  V30 5123 H 483.37 -2.76486 -0.996642 0
M  V30 5124 H 480.884 -1.55896 -0.454994 0
M  V30 5125 H 482.881 -2.37057 -3.42942 0
M  V30 5126 H 481.541 -1.28185 -2.98327 0
M  V30 5127 H 482.552 -4.81726 -1.9016 0
M  V30 5128 H 479.229 -2.61815 -3.25206 0
M  V30 5129 H 480.619 -6.43657 -1.92756 0
M  V30 5130 N 483.339 0.512053 -1.4905 0
M  V30 5131 C 484.567 1.29116 -1.61669 0
M  V30 5132 C 484.982 1.86655 -0.283787 0
M  V30 5133 O 484.339 1.67293 0.729331 0
M  V30 5134 C 484.39 2.4293 -2.67707 0
M  V30 5135 O 484.111 1.87758 -3.95826 0
M  V30 5136 C 485.612 3.34476 -2.90931 0
M  V30 5137 H 482.832 0.392009 -0.544583 0
M  V30 5138 H 485.376 0.615881 -1.95006 0
M  V30 5139 H 483.531 3.06308 -2.37179 0
M  V30 5140 H 483.945 2.62393 -4.54148 0
M  V30 5141 H 485.419 4.10642 -3.68886 0
M  V30 5142 H 485.896 3.90801 -2.00427 0
M  V30 5143 H 486.502 2.76874 -3.22832 0
M  V30 5144 N 484.817 1.37938 0.762283 0
M  V30 5145 C 486.042 1.37059 1.55659 0
M  V30 5146 C 486.467 -0.0396123 1.88058 0
M  V30 5147 O 485.825 -1.01929 1.49934 0
M  V30 5148 C 485.873 2.22494 2.83776 0
M  V30 5149 O 484.977 1.63607 3.78559 0
M  V30 5150 H 484.318 0.467892 0.47114 0
M  V30 5151 H 486.848 1.81587 0.942725 0
M  V30 5152 H 486.858 2.36045 3.32786 0
M  V30 5153 H 485.533 3.24993 2.59524 0
M  V30 5154 H 484.11 1.5915 3.37233 0
M  V30 5155 N 486.295 -0.989507 1.22664 0
M  V30 5156 C 487.228 -2.07805 0.942985 0
M  V30 5157 C 488.206 -1.6219 -0.115356 0
M  V30 5158 O 489.39 -1.88492 0.0169565 0
M  V30 5159 C 486.517 -3.361 0.418898 0
M  V30 5160 C 485.563 -4.00643 1.46244 0
M  V30 5161 S 486.396 -4.41059 3.03689 0
M  V30 5162 C 487.552 -5.7252 2.52927 0
M  V30 5163 H 487.785 -2.31547 1.86476 0
M  V30 5164 H 485.318 -1.12446 1.05808 0
M  V30 5165 H 487.276 -4.10315 0.123114 0
M  V30 5166 H 485.937 -3.10383 -0.481818 0
M  V30 5167 H 485.13 -4.93033 1.04569 0
M  V30 5168 H 484.732 -3.32767 1.7071 0
M  V30 5169 H 487.024 -6.49017 1.94379 0
M  V30 5170 H 487.967 -6.19026 3.4382 0
M  V30 5171 H 488.375 -5.30083 1.94094 0
M  V30 5172 N 487.773 -1.03688 -1.18687 0
M  V30 5173 C 488.736 -0.629115 -2.20397 0
M  V30 5174 C 489.736 0.311495 -1.57754 0
M  V30 5175 O 490.926 0.0974107 -1.73927 0
M  V30 5176 C 488.058 0.0782231 -3.4081 0
M  V30 5177 H 489.251 -1.52915 -2.57987 0
M  V30 5178 H 486.804 -0.828988 -1.32505 0
M  V30 5179 H 487.539 0.992233 -3.08748 0
M  V30 5180 H 487.324 -0.597776 -3.87517 0
M  V30 5181 H 488.814 0.350156 -4.16129 0
M  V30 5182 N 489.251 1.34841 -0.815825 0
M  V30 5183 C 490.181 2.32187 -0.247298 0
M  V30 5184 C 491.162 1.5791 0.632344 0
M  V30 5185 O 492.347 1.8593 0.560698 0
M  V30 5186 C 489.477 3.42122 0.597466 0
M  V30 5187 C 488.431 4.27602 -0.184446 0
M  V30 5188 C 487.757 5.28942 0.782609 0
M  V30 5189 C 489.057 5.03502 -1.38865 0
M  V30 5190 H 490.751 2.79985 -1.06061 0
M  V30 5191 H 488.297 1.34611 -0.511461 0
M  V30 5192 H 490.25 4.09232 1.00533 0
M  V30 5193 H 488.974 2.92956 1.44376 0
M  V30 5194 H 487.633 3.62085 -0.573592 0
M  V30 5195 H 487.281 4.7604 1.62466 0
M  V30 5196 H 486.981 5.87008 0.263695 0
M  V30 5197 H 488.505 5.98922 1.18848 0
M  V30 5198 H 489.919 5.63506 -1.05518 0
M  V30 5199 H 488.316 5.71108 -1.8427 0
M  V30 5200 H 489.386 4.33608 -2.17054 0
M  V30 5201 N 490.729 0.570148 1.46925 0
M  V30 5202 C 491.957 0.0561966 2.06824 0
M  V30 5203 C 492.372 -1.24326 1.42086 0
M  V30 5204 O 491.729 -1.74882 0.521794 0
M  V30 5205 C 491.78 -0.129517 3.61268 0
M  V30 5206 O 491.501 1.1185 4.23581 0
M  V30 5207 C 493.002 -0.679266 4.38065 0
M  V30 5208 H 490.222 0.0517261 0.669003 0
M  V30 5209 H 492.766 0.787243 1.8874 0
M  V30 5210 H 490.921 -0.810739 3.78822 0
M  V30 5211 H 491.335 0.924375 5.1629 0
M  V30 5212 H 492.809 -0.758445 5.46765 0
M  V30 5213 H 493.286 -1.69346 4.05239 0
M  V30 5214 H 493.892 -0.0333237 4.25287 0
M  V30 5215 N 492.207 -1.54576 0.307264 0
M  V30 5216 C 493.455 -1.99867 -0.299574 0
M  V30 5217 C 493.776 -1.19714 -1.53927 0
M  V30 5218 O 493.046 -0.29472 -1.9367 0
M  V30 5219 H 491.626 -0.738299 -0.113683 0
M  V30 5220 H 494.288 -1.9032 0.420042 0
M  V30 5221 H 493.384 -3.06901 -0.567283 0
M  V30 5222 N 493.685 -0.035106 -1.57561 0
M  V30 5223 C 494.925 0.646316 -1.93913 0
M  V30 5224 C 495.289 1.68947 -0.912185 0
M  V30 5225 O 496.49 2.42381 -1.1621 0
M  V30 5226 C 494.761 1.24136 -3.35149 0
M  V30 5227 S 496.32 1.94302 -3.93436 0
M  V30 5228 H 493.138 0.212642 -0.678457 0
M  V30 5229 H 495.74 -0.100203 -1.95243 0
M  V30 5230 H 494.444 0.46979 -4.07702 0
M  V30 5231 H 493.975 2.02505 -3.37276 0
M  V30 5232 H 495.99 3.22205 -3.77357 0
M  V30 5233 N 495.163 1.55791 0.238111 0
M  V30 5234 C 496.579 1.48411 0.587045 0
M  V30 5235 C 496.779 0.72702 1.87927 0
M  V30 5236 O 495.835 0.259942 2.51158 0
M  V30 5237 C 497.148 2.92873 0.681623 0
M  V30 5238 C 498.696 3.03295 0.773363 0
M  V30 5239 C 499.171 4.49082 0.899428 0
M  V30 5240 N 500.662 4.53056 0.964075 0
M  V30 5241 C 501.397 5.63117 1.08104 0
M  V30 5242 N 500.893 6.82969 1.16299 0
M  V30 5243 N 502.686 5.50933 1.11488 0
M  V30 5244 H 494.837 2.0345 -0.610076 0
M  V30 5245 H 497.1 0.924034 -0.211813 0
M  V30 5246 H 496.806 3.51142 -0.19802 0
M  V30 5247 H 496.68 3.43851 1.55069 0
M  V30 5248 H 499.067 2.45101 1.64346 0
M  V30 5249 H 499.148 2.55513 -0.121034 0
M  V30 5250 H 498.792 5.07889 0.0338586 0
M  V30 5251 H 498.722 4.94553 1.809 0
M  V30 5252 H 501.213 3.66737 0.91173 0
M  V30 5253 H 501.526 7.62598 1.25155 0
M  V30 5254 H 499.871 6.85712 1.13241 0
M  V30 5255 H 503.062 4.56231 1.0474 0
M  V30 5256 H 503.235 6.36743 1.20259 0
M  V30 5257 N 496.642 -0.504142 1.49319 0
M  V30 5258 C 497.867 -1.28729 1.62615 0
M  V30 5259 C 498.292 -1.85752 0.296309 0
M  V30 5260 O 497.65 -1.65704 -0.735649 0
M  V30 5261 C 497.698 -2.39561 2.69524 0
M  V30 5262 O 496.802 -3.43324 2.28478 0
M  V30 5263 H 496.143 -0.380172 0.544395 0
M  V30 5264 H 498.673 -0.603872 1.95485 0
M  V30 5265 H 498.683 -2.8537 2.91595 0
M  V30 5266 H 497.358 -1.97423 3.66056 0
M  V30 5267 H 495.935 -3.03455 2.16725 0
M  V30 5268 N 498.12 -1.38341 -0.754957 0
M  V30 5269 C 499.366 -1.34672 -1.51628 0
M  V30 5270 C 499.699 0.0636036 -1.94096 0
M  V30 5271 O 498.974 1.0245 -1.6533 0
M  V30 5272 C 499.257 -2.30116 -2.76981 0
M  V30 5273 C 499.11 -3.80003 -2.4066 0
M  V30 5274 C 500.429 -2.23715 -3.78998 0
M  V30 5275 H 497.548 -0.490517 -0.550056 0
M  V30 5276 H 500.19 -1.69178 -0.864807 0
M  V30 5277 H 498.34 -2.00821 -3.3257 0
M  V30 5278 H 500.012 -4.19966 -1.90856 0
M  V30 5279 H 498.255 -3.97751 -1.73137 0
M  V30 5280 H 498.926 -4.42244 -3.30339 0
M  V30 5281 H 501.402 -2.49574 -3.32945 0
M  V30 5282 H 500.278 -2.9261 -4.64403 0
M  V30 5283 H 500.539 -1.23554 -4.24484 0
M  V30 5284 N 499.598 0.982988 -1.23187 0
M  V30 5285 C 500.561 2.05649 -1.01198 0
M  V30 5286 C 501.561 1.6078 0.0252464 0
M  V30 5287 O 502.751 1.72878 -0.214243 0
M  V30 5288 C 499.883 3.36744 -0.530656 0
M  V30 5289 H 501.076 2.2659 -1.96461 0
M  V30 5290 H 498.629 1.15602 -1.05195 0
M  V30 5291 H 499.364 3.21492 0.425873 0
M  V30 5292 H 499.149 3.7065 -1.2791 0
M  V30 5293 H 500.639 4.15705 -0.397366 0
M  V30 5294 N 501.076 1.04316 1.18135 0
M  V30 5295 C 501.986 0.646876 2.25505 0
M  V30 5296 C 503.002 -0.328008 1.7088 0
M  V30 5297 O 504.178 -0.182309 2.00573 0
M  V30 5298 C 501.243 0.0185664 3.46695 0
M  V30 5299 C 500.304 1.04277 4.16443 0
M  V30 5300 C 499.537 0.444352 5.31847 0
M  V30 5301 O 499.76 -0.748735 5.65465 0
M  V30 5302 O 498.694 1.17428 5.90334 0
M  V30 5303 H 502.52 1.54147 2.61672 0
M  V30 5304 H 500.105 0.814188 1.25265 0
M  V30 5305 H 501.987 -0.331068 4.20097 0
M  V30 5306 H 500.662 -0.849814 3.12346 0
M  V30 5307 H 499.569 1.44425 3.45098 0
M  V30 5308 H 500.902 1.882 4.54798 0
M  V30 5309 N 502.554 -1.34406 0.822964 0
M  V30 5310 C 503.803 -1.97542 0.407458 0
M  V30 5311 C 504.116 -1.65973 -1.035 0
M  V30 5312 O 505.322 -2.22598 -1.55442 0
M  V30 5313 C 503.778 -3.53463 0.677623 0
M  V30 5314 C 503.386 -3.93925 2.1337 0
M  V30 5315 C 505.13 -4.23229 0.328284 0
M  V30 5316 C 503.037 -5.42759 2.34876 0
M  V30 5317 H 501.967 -0.739207 0.148623 0
M  V30 5318 H 504.618 -1.53248 1.00932 0
M  V30 5319 H 503 -3.96 0.00558965 0
M  V30 5320 H 504.174 -3.62494 2.8449 0
M  V30 5321 H 502.489 -3.37097 2.44448 0
M  V30 5322 H 505.086 -5.32659 0.466794 0
M  V30 5323 H 505.429 -4.09899 -0.727224 0
M  V30 5324 H 505.962 -3.86169 0.954896 0
M  V30 5325 H 502.701 -5.61075 3.38932 0
M  V30 5326 H 502.221 -5.75704 1.68299 0
M  V30 5327 H 503.9 -6.0944 2.17236 0
M  V30 5328 N 504.032 -0.577932 -1.46621 0
M  V30 5329 C 504.98 0.170882 -2.31971 0
M  V30 5330 C 505.974 0.889086 -1.44193 0
M  V30 5331 O 507.18 0.808017 -1.60845 0
M  V30 5332 H 503.555 0.0739763 -0.748353 0
M  V30 5333 H 505.526 -0.567856 -2.92947 0
M  V30 5334 C 504.275 1.17438 -3.27267 0
M  V30 5335 H 503.598 0.63116 -3.94787 0
M  V30 5336 H 505.038 1.66882 -3.89778 0
M  V30 5337 C 503.497 2.23292 -2.52274 0
M  V30 5338 O 504.027 3.30567 -2.28229 0
M  V30 5339 N 502.233 1.97772 -2.12919 0
M  V30 5340 H 501.78 1.10545 -2.32675 0
M  V30 5341 H 501.738 2.68809 -1.63062 0
M  V30 5342 N 505.51 1.54411 -0.315457 0
M  V30 5343 C 506.926 1.59556 0.037464 0
M  V30 5344 C 507.126 1.33217 1.5118 0
M  V30 5345 O 506.182 1.11264 2.26664 0
M  V30 5346 C 507.495 2.98372 -0.373477 0
M  V30 5347 C 509.043 3.11324 -0.323452 0
M  V30 5348 C 509.518 4.52472 -0.709433 0
M  V30 5349 N 511.009 4.58437 -0.662524 0
M  V30 5350 C 511.744 5.65751 -0.933474 0
M  V30 5351 N 511.24 6.81039 -1.27114 0
M  V30 5352 N 513.033 5.55489 -0.859573 0
M  V30 5353 H 505.184 1.6979 -1.27614 0
M  V30 5354 H 507.447 0.793732 -0.518356 0
M  V30 5355 H 507.153 3.22618 -1.40037 0
M  V30 5356 H 507.027 3.76264 0.265615 0
M  V30 5357 H 509.414 2.86818 0.694223 0
M  V30 5358 H 509.495 2.35555 -0.997367 0
M  V30 5359 H 509.139 4.7771 -1.72498 0
M  V30 5360 H 509.069 5.26598 -0.0132923 0
M  V30 5361 H 511.56 3.75636 -0.413065 0
M  V30 5362 H 511.873 7.58816 -1.46348 0
M  V30 5363 H 510.218 6.82555 -1.30932 0
M  V30 5364 H 513.409 4.64299 -0.595324 0
M  V30 5365 H 513.582 6.39036 -1.0741 0
M  V30 5366 N 506.988 0.0434614 1.5754 0
M  V30 5367 C 507.936 -0.951465 2.1225 0
M  V30 5368 C 508.93 -1.3274 1.05245 0
M  V30 5369 O 510.136 -1.30795 1.23663 0
M  V30 5370 H 506.511 -0.324667 0.678303 0
M  V30 5371 H 508.482 -0.464855 2.94757 0
M  V30 5372 C 507.231 -2.21972 2.67626 0
M  V30 5373 H 506.554 -1.93923 3.4962 0
M  V30 5374 H 507.994 -2.89765 3.09536 0
M  V30 5375 C 506.453 -2.95919 1.61038 0
M  V30 5376 O 506.983 -3.8857 1.01862 0
M  V30 5377 N 505.189 -2.58511 1.32741 0
M  V30 5378 H 504.736 -1.83244 1.81051 0
M  V30 5379 H 504.694 -3.08296 0.616531 0
M  V30 5380 N 508.466 -1.55915 -0.229846 0
M  V30 5381 C 509.396 -1.94754 -1.28815 0
M  V30 5382 C 510.377 -0.814657 -1.49323 0
M  V30 5383 O 511.562 -1.07631 -1.61645 0
M  V30 5384 C 508.692 -2.25705 -2.63959 0
M  V30 5385 C 507.646 -3.41406 -2.5812 0
M  V30 5386 C 506.972 -3.57941 -3.97218 0
M  V30 5387 C 508.272 -4.76616 -2.13623 0
M  V30 5388 H 509.966 -2.83404 -0.965547 0
M  V30 5389 H 507.512 -1.36353 -0.463028 0
M  V30 5390 H 509.465 -2.51467 -3.38146 0
M  V30 5391 H 508.189 -1.339 -2.9789 0
M  V30 5392 H 506.848 -3.1568 -1.86391 0
M  V30 5393 H 506.496 -2.63526 -4.28443 0
M  V30 5394 H 506.196 -4.35757 -3.94195 0
M  V30 5395 H 507.72 -3.86042 -4.73079 0
M  V30 5396 H 509.134 -5.01637 -2.77549 0
M  V30 5397 H 507.531 -5.57655 -2.21677 0
M  V30 5398 H 508.601 -4.7253 -1.08829 0
M  V30 5399 N 509.944 0.496216 -1.49584 0
M  V30 5400 C 511.19 1.25189 -1.59548 0
M  V30 5401 C 511.523 1.9212 -0.283466 0
M  V30 5402 O 510.798 1.80947 0.713324 0
M  V30 5403 C 511.081 2.31516 -2.75812 0
M  V30 5404 C 510.934 1.69054 -4.16822 0
M  V30 5405 C 512.253 3.3304 -2.87702 0
M  V30 5406 H 509.372 0.45379 -0.580727 0
M  V30 5407 H 512.014 0.549327 -1.81886 0
M  V30 5408 H 510.164 2.91438 -2.56897 0
M  V30 5409 H 511.836 1.12923 -4.47265 0
M  V30 5410 H 510.079 0.994485 -4.22247 0
M  V30 5411 H 510.75 2.462 -4.94054 0
M  V30 5412 H 513.226 2.83114 -3.04936 0
M  V30 5413 H 512.102 4.04794 -3.7072 0
M  V30 5414 H 512.363 3.95655 -1.97255 0
M  V30 5415 N 511.423 1.38739 0.74761 0
M  V30 5416 C 512.355 1.32341 1.87132 0
M  V30 5417 C 513.368 0.234502 1.61102 0
M  V30 5418 O 514.557 0.492516 1.71571 0
M  V30 5419 C 511.657 1.02915 3.22896 0
M  V30 5420 C 510.83 2.22834 3.76383 0
M  V30 5421 C 509.889 1.90059 4.90677 0
M  V30 5422 O 508.915 2.62615 5.04997 0
M  V30 5423 N 510.117 0.859141 5.74107 0
M  V30 5424 H 512.882 2.29175 1.93129 0
M  V30 5425 H 510.443 1.32678 0.927805 0
M  V30 5426 H 512.435 0.79031 3.96908 0
M  V30 5427 H 511.005 0.148572 3.12247 0
M  V30 5428 H 510.225 2.62747 2.93867 0
M  V30 5429 H 511.513 3.02851 4.08851 0
M  V30 5430 H 510.911 0.257564 5.65113 0
M  V30 5431 H 509.468 0.680189 6.48241 0
M  V30 5432 N 512.901 -0.976442 1.23707 0
M  V30 5433 C 514.148 -1.71827 1.07153 0
M  V30 5434 C 514.476 -1.9053 -0.390982 0
M  V30 5435 O 513.731 -1.45779 -1.30564 0
M  V30 5436 C 514.03 -3.11814 1.74662 0
M  V30 5437 C 513.696 -3.12978 3.24585 0
M  V30 5438 C 512.358 -3.13003 3.6549 0
M  V30 5439 C 514.71 -3.07986 4.20469 0
M  V30 5440 C 512.038 -3.05757 5.00729 0
M  V30 5441 C 514.39 -3.02282 5.55705 0
M  V30 5442 C 513.054 -3.00631 5.95968 0
M  V30 5443 H 512.324 -0.628758 0.392102 0
M  V30 5444 H 514.971 -1.14239 1.53693 0
M  V30 5445 H 513.276 -3.72812 1.20492 0
M  V30 5446 H 514.973 -3.67989 1.59328 0
M  V30 5447 H 511.563 -3.13718 2.92026 0
M  V30 5448 H 515.747 -3.07103 3.89874 0
M  V30 5449 H 511.003 -3.02834 5.31132 0
M  V30 5450 H 515.177 -2.97376 6.29714 0
M  V30 5451 H 512.804 -2.94771 7.00724 0
M  V30 5452 N 514.379 -1.04941 -1.1758 0
M  V30 5453 C 515.604 -0.778253 -1.92245 0
M  V30 5454 C 516.029 0.659707 -1.76152 0
M  V30 5455 O 515.387 1.45803 -1.07755 0
M  V30 5456 C 515.435 -1.16051 -3.41416 0
M  V30 5457 O 514.539 -0.291153 -4.11371 0
M  V30 5458 H 513.88 -0.285619 -0.599431 0
M  V30 5459 H 516.41 -1.40159 -1.49052 0
M  V30 5460 H 516.42 -1.12619 -3.92149 0
M  V30 5461 H 515.095 -2.208 -3.52449 0
M  V30 5462 H 513.672 -0.385851 -3.70898 0
M  V30 5463 N 515.857 1.33968 -0.830081 0
M  V30 5464 C 517.273 1.51003 -0.516742 0
M  V30 5465 C 517.473 1.77286 0.957694 0
M  V30 5466 O 516.529 1.82797 1.74188 0
M  V30 5467 C 517.842 2.67036 -1.38247 0
M  V30 5468 C 519.39 2.80919 -1.38034 0
M  V30 5469 C 519.865 4.00004 -2.23071 0
M  V30 5470 N 521.356 4.07224 -2.20733 0
M  V30 5471 C 522.091 4.98541 -2.83275 0
M  V30 5472 N 521.587 5.95033 -3.54835 0
M  V30 5473 N 523.38 4.91469 -2.72791 0
M  V30 5474 H 515.531 1.15168 -1.78466 0
M  V30 5475 H 517.794 0.565443 -0.760906 0
M  V30 5476 H 517.5 2.54266 -2.42985 0
M  V30 5477 H 517.374 3.62226 -1.05225 0
M  V30 5478 H 519.761 2.93127 -0.340713 0
M  V30 5479 H 519.842 1.86517 -1.75057 0
M  V30 5480 H 519.486 3.88557 -3.27087 0
M  V30 5481 H 519.416 4.93634 -1.83394 0
M  V30 5482 H 521.907 3.38162 -1.68687 0
M  V30 5483 H 522.22 6.61357 -3.99784 0
M  V30 5484 H 520.565 5.95135 -3.58942 0
M  V30 5485 H 523.756 4.15048 -2.16456 0
M  V30 5486 H 523.929 5.62439 -3.21818 0
M  V30 5487 N 517.335 0.585699 1.46312 0
M  V30 5488 C 518.265 -0.133556 2.33118 0
M  V30 5489 C 519.246 -0.880707 1.45525 0
M  V30 5490 O 520.431 -0.855579 1.74337 0
M  V30 5491 C 517.561 -1.14585 3.27853 0
M  V30 5492 C 516.515 -0.513341 4.2491 0
M  V30 5493 C 515.841 -1.63231 5.09175 0
M  V30 5494 C 517.141 0.551413 5.19381 0
M  V30 5495 H 518.835 0.59121 2.93505 0
M  V30 5496 H 516.381 0.285761 1.41136 0
M  V30 5497 H 518.334 -1.65741 3.87438 0
M  V30 5498 H 517.058 -1.90093 2.65579 0
M  V30 5499 H 515.717 -0.0228349 3.66593 0
M  V30 5500 H 515.365 -2.37713 4.43285 0
M  V30 5501 H 515.065 -1.21473 5.74907 0
M  V30 5502 H 516.589 -2.14658 5.71624 0
M  V30 5503 H 518.003 0.124804 5.73164 0
M  V30 5504 H 516.4 0.889486 5.93471 0
M  V30 5505 H 517.47 1.43655 4.63132 0
M  V30 5506 O 518.852 -1.54637 0.465785 0
M  V30 5507 H 519.543 -1.93604 -0.0608748 0
M  V30 END ATOM
M  V30 BEGIN BOND
M  V30 END BOND
M  V30 END CTAB
M  END
$$$$
