drugbank_target|P83793 Cytochrome f (DB04646; DB08453)
 OpenBabel12092120433D

  0  0  0     0  0            999 V3000
M  V30 BEGIN CTAB
M  V30 COUNTS 5168 5221 0 0 0
M  V30 BEGIN ATOM
M  V30 1 H -0.908 1.98254 -0.117106 0
M  V30 2 N 0 1.576 0 0
M  V30 3 C 0.933 2.03868 1.02534 0
M  V30 4 C 1.911 0.928543 1.3348 0
M  V30 5 O 3.095 1.19667 1.45644 0
M  V30 6 C 0.222 2.43627 2.35294 0
M  V30 7 C -0.732 3.65373 2.2001 0
M  V30 8 S 0.101 5.13292 1.52614 0
M  V30 9 C 1.257 5.56322 2.86805 0
M  V30 10 H 1.49 2.90518 0.631377 0
M  V30 11 H -0.977 1.52953 0.210867 0
M  V30 12 H 0.981 2.67203 3.11629 0
M  V30 13 H -0.358 1.57376 2.7183 0
M  V30 14 H -1.165 3.90944 3.18086 0
M  V30 15 H -1.563 3.418 1.51819 0
M  V30 16 H 0.729 5.58782 3.83104 0
M  V30 17 H 1.672 6.56266 2.65933 0
M  V30 18 H 2.08 4.83886 2.90714 0
M  V30 19 N 1.4781 -0.272755 1.55222 0
M  V30 20 C 2.8941 -0.619959 1.47067 0
M  V30 21 C 3.0941 -1.895 0.684978 0
M  V30 22 O 2.1501 -2.51675 0.203931 0
M  V30 23 C 3.4631 -0.746693 2.91282 0
M  V30 24 C 5.0111 -0.840731 3.01497 0
M  V30 25 C 5.4861 -0.99924 4.46967 0
M  V30 26 N 6.9771 -1.06476 4.50796 0
M  V30 27 C 7.7121 -1.20621 5.6057 0
M  V30 28 N 7.2081 -1.31483 6.80209 0
M  V30 29 N 9.0011 -1.23733 5.48312 0
M  V30 30 H 1.1521 0.564606 2.04758 0
M  V30 31 H 3.4151 0.191177 0.928523 0
M  V30 32 H 3.1211 0.119753 3.51496 0
M  V30 33 H 2.9951 -1.6269 3.40311 0
M  V30 34 H 5.3821 -1.69764 2.41379 0
M  V30 35 H 5.4631 0.0640874 2.5572 0
M  V30 36 H 5.1071 -0.146984 5.07687 0
M  V30 37 H 5.0371 -1.91871 4.90401 0
M  V30 38 H 7.5281 -0.993196 3.64615 0
M  V30 39 H 7.8411 -1.42111 7.59621 0
M  V30 40 H 6.1861 -1.28487 6.8302 0
M  V30 41 H 9.3771 -1.14877 4.53785 0
M  V30 42 H 9.5501 -1.34412 6.33906 0
M  V30 43 N 2.9562 -1.48159 -0.537278 0
M  V30 44 C 3.9042 -1.62573 -1.66352 0
M  V30 45 C 4.8982 -0.492366 -1.62087 0
M  V30 46 O 6.1042 -0.670847 -1.67032 0
M  V30 47 H 2.4792 -0.511992 -0.550789 0
M  V30 48 H 4.4502 -2.57176 -1.51337 0
M  V30 49 C 3.1992 -1.67583 -3.04649 0
M  V30 50 H 2.5222 -2.54151 -3.08622 0
M  V30 51 H 3.9622 -1.81713 -3.83088 0
M  V30 52 C 2.4212 -0.413039 -3.34358 0
M  V30 53 O 2.9512 0.477259 -3.98855 0
M  V30 54 N 1.1572 -0.286961 -2.8918 0
M  V30 55 H 0.7042 -1.01241 -2.36871 0
M  V30 56 H 0.6622 0.556963 -3.09427 0
M  V30 57 N 4.4343 0.785586 -1.36625 0
M  V30 58 C 5.6593 1.57963 -1.34397 0
M  V30 59 C 6.0843 1.87964 0.071526 0
M  V30 60 O 5.4423 1.48182 1.0446 0
M  V30 61 C 5.4903 2.87511 -2.17646 0
M  V30 62 O 4.5943 3.81281 -1.57158 0
M  V30 63 H 3.9353 0.479014 -0.459828 0
M  V30 64 H 6.4653 0.973411 -1.79961 0
M  V30 65 H 6.4753 3.36745 -2.30362 0
M  V30 66 H 5.1503 2.65002 -3.20541 0
M  V30 67 H 3.7273 3.39885 -1.53403 0
M  V30 68 N 5.9124 1.20967 1.01018 0
M  V30 69 C 7.1524 1.03511 1.76252 0
M  V30 70 C 7.5164 -0.42458 1.87247 0
M  V30 71 O 8.7174 -0.719508 2.58991 0
M  V30 72 C 6.9884 1.70726 3.13986 0
M  V30 73 S 8.5474 1.68458 4.05176 0
M  V30 74 H 5.3654 0.371037 0.606508 0
M  V30 75 H 7.9674 1.53628 1.20908 0
M  V30 76 H 6.6714 2.76128 3.03614 0
M  V30 77 H 6.2024 1.20767 3.74405 0
M  V30 78 H 8.2174 0.721987 4.90919 0
M  V30 79 N 7.3905 -1.2043 1.01659 0
M  V30 80 C 8.3375 -2.23215 0.586822 0
M  V30 81 C 9.3075 -1.61382 -0.393085 0
M  V30 82 O 10.4925 -1.88544 -0.292525 0
M  V30 83 C 7.6325 -3.45032 -0.0687464 0
M  V30 84 C 6.7455 -4.21296 0.955724 0
M  V30 85 C 5.8805 -5.30507 0.271208 0
M  V30 86 C 4.9195 -5.98515 1.28244 0
M  V30 87 N 4.0565 -6.99316 0.62459 0
M  V30 88 H 8.8965 -2.59336 1.46796 0
M  V30 89 H 6.4335 -1.27431 0.734836 0
M  V30 90 H 8.3915 -4.1459 -0.465965 0
M  V30 91 H 7.0215 -3.09604 -0.913529 0
M  V30 92 H 6.0735 -3.50803 1.4711 0
M  V30 93 H 7.3855 -4.6803 1.72479 0
M  V30 94 H 6.5395 -6.06428 -0.18151 0
M  V30 95 H 5.2785 -4.8481 -0.530163 0
M  V30 96 H 4.2835 -5.21355 1.74554 0
M  V30 97 H 5.5085 -6.46298 2.08509 0
M  V30 98 H 3.4545 -6.55812 -0.156914 0
M  V30 99 H 3.3715 -7.44178 1.33172 0
M  V30 100 H 4.6395 -7.79255 0.195462 0
M  V30 101 N 8.8686 -0.792821 -1.36206 0
M  V30 102 C 9.8156 -0.191653 -2.30003 0
M  V30 103 C 10.7856 0.666453 -1.52143 0
M  V30 104 O 11.9706 0.61442 -1.80636 0
M  V30 105 C 9.1106 0.664848 -3.38635 0
M  V30 106 C 8.2236 -0.212175 -4.31479 0
M  V30 107 C 7.3586 0.651022 -5.27196 0
M  V30 108 C 6.3976 -0.227247 -6.11678 0
M  V30 109 N 5.5346 0.595127 -6.99573 0
M  V30 110 H 10.3746 -0.996978 -2.80828 0
M  V30 111 H 7.9116 -0.503206 -1.38225 0
M  V30 112 H 9.8696 1.17645 -4.00269 0
M  V30 113 H 8.4996 1.43557 -2.89122 0
M  V30 114 H 7.5516 -0.841777 -3.70969 0
M  V30 115 H 8.8636 -0.888751 -4.90818 0
M  V30 116 H 8.0176 1.2283 -5.94136 0
M  V30 117 H 6.7566 1.36121 -4.68319 0
M  V30 118 H 5.7616 -0.816904 -5.43697 0
M  V30 119 H 6.9866 -0.93509 -6.72631 0
M  V30 120 H 4.9326 1.28955 -6.432 0
M  V30 121 H 4.8496 -0.0236952 -7.55996 0
M  V30 122 H 6.1176 1.15613 -7.70879 0
M  V30 123 N 10.3467 1.47872 -0.545128 0
M  V30 124 C 11.3097 2.28337 0.198717 0
M  V30 125 C 12.3097 1.36255 0.853888 0
M  V30 126 O 13.4997 1.59003 0.711606 0
M  V30 127 C 10.6317 3.15585 1.28915 0
M  V30 128 H 11.8247 2.95567 -0.507941 0
M  V30 129 H 9.3777 1.53362 -0.301616 0
M  V30 130 H 10.1127 2.53019 2.02859 0
M  V30 131 H 9.8977 3.83337 0.824309 0
M  V30 132 H 11.3877 3.76243 1.81194 0
M  V30 133 N 11.8248 0.280983 1.55075 0
M  V30 134 C 13.2408 -0.0729964 1.59433 0
M  V30 135 C 13.4408 -1.5411 1.29817 0
M  V30 136 O 12.4968 -2.29086 1.06187 0
M  V30 137 C 13.8098 0.306921 2.9913 0
M  V30 138 C 15.3578 0.254023 3.11968 0
M  V30 139 C 15.8328 0.608467 4.5394 0
M  V30 140 N 17.3238 0.560241 4.59799 0
M  V30 141 C 18.0588 0.80722 5.6769 0
M  V30 142 N 17.5548 1.11912 6.83701 0
M  V30 143 N 19.3478 0.735623 5.57266 0
M  V30 144 H 11.4988 1.238 1.7259 0
M  V30 145 H 13.7618 0.500547 0.805082 0
M  V30 146 H 13.4678 1.32816 3.25657 0
M  V30 147 H 13.3418 -0.349363 3.75579 0
M  V30 148 H 15.7288 -0.75794 2.852 0
M  V30 149 H 15.8098 0.944649 2.37718 0
M  V30 150 H 15.4538 1.61814 4.81434 0
M  V30 151 H 15.3838 -0.104013 5.26497 0
M  V30 152 H 17.8748 0.329288 3.76463 0
M  V30 153 H 18.1878 1.29409 7.61888 0
M  V30 154 H 16.5328 1.15695 6.85303 0
M  V30 155 H 19.7238 0.491752 4.6551 0
M  V30 156 H 19.8968 0.931482 6.4127 0
M  V30 157 N 13.3029 -1.57598 0.00835791 0
M  V30 158 C 14.7189 -1.55764 -0.347822 0
M  V30 159 C 14.9189 -1.01186 -1.74252 0
M  V30 160 O 13.9749 -0.649371 -2.44007 0
M  V30 161 C 15.2879 -2.99927 -0.215407 0
M  V30 162 C 16.8359 -3.11656 -0.289725 0
M  V30 163 C 17.3109 -4.57621 -0.18634 0
M  V30 164 N 18.8019 -4.62557 -0.243978 0
M  V30 165 C 19.5369 -5.73094 -0.18745 0
M  V30 166 N 19.0329 -6.92753 -0.0810331 0
M  V30 167 N 20.8259 -5.61588 -0.239925 0
M  V30 168 H 12.9769 -1.91411 0.92062 0
M  V30 169 H 15.2399 -0.879562 0.353659 0
M  V30 170 H 14.9459 -3.43729 0.744512 0
M  V30 171 H 14.8199 -3.63865 -0.994097 0
M  V30 172 H 17.2069 -2.67779 -1.24009 0
M  V30 173 H 17.2879 -2.5048 0.51898 0
M  V30 174 H 16.9319 -5.02174 0.760519 0
M  V30 175 H 16.8619 -5.16752 -1.01364 0
M  V30 176 H 19.3529 -3.76481 -0.327217 0
M  V30 177 H 19.6659 -7.72787 -0.0440241 0
M  V30 178 H 18.0109 -6.94984 -0.0465419 0
M  V30 179 H 21.2019 -4.66996 -0.321317 0
M  V30 180 H 21.3749 -6.47714 -0.192407 0
M  V30 181 N 14.781 0.264519 -1.55364 0
M  V30 182 C 16.009 1.013 -1.80405 0
M  V30 183 C 16.424 1.79618 -0.581622 0
M  V30 184 O 15.781 1.76879 0.449468 0
M  V30 185 C 15.832 1.96487 -3.03439 0
M  V30 186 O 15.553 1.21341 -4.20961 0
M  V30 187 C 17.054 2.83079 -3.41147 0
M  V30 188 H 14.274 0.298875 -0.600762 0
M  V30 189 H 16.818 0.292736 -2.02394 0
M  V30 190 H 14.973 2.63965 -2.83551 0
M  V30 191 H 15.387 1.85573 -4.90574 0
M  V30 192 H 16.861 3.4565 -4.30384 0
M  V30 193 H 17.338 3.53286 -2.60932 0
M  V30 194 H 17.944 2.2108 -3.63323 0
M  V30 195 N 16.2591 1.48442 0.529413 0
M  V30 196 C 17.6751 1.34575 0.858004 0
M  V30 197 C 17.8751 0.3572 1.98309 0
M  V30 198 O 16.9311 -0.221379 2.51528 0
M  V30 199 C 18.2441 2.74617 1.22499 0
M  V30 200 C 19.7921 2.83109 1.33484 0
M  V30 201 C 20.2671 4.23854 1.73526 0
M  V30 202 N 21.7581 4.2653 1.80628 0
M  V30 203 C 22.4931 5.32372 2.12997 0
M  V30 204 N 21.9891 6.48491 2.43786 0
M  V30 205 N 23.7821 5.19766 2.14008 0
M  V30 206 H 15.9331 2.1133 -0.212925 0
M  V30 207 H 18.1961 0.947439 -0.0326199 0
M  V30 208 H 17.9021 3.4852 0.471905 0
M  V30 209 H 17.7761 3.08177 2.17501 0
M  V30 210 H 20.1631 2.09462 2.0787 0
M  V30 211 H 20.2441 2.53168 0.366027 0
M  V30 212 H 19.8881 4.98018 0.997013 0
M  V30 213 H 19.8181 4.5124 2.71459 0
M  V30 214 H 22.3091 3.42772 1.59108 0
M  V30 215 H 22.6221 7.24993 2.67592 0
M  V30 216 H 20.9671 6.51765 2.41304 0
M  V30 217 H 24.1581 4.28066 1.89412 0
M  V30 218 H 24.3311 6.02354 2.38902 0
M  V30 219 N 17.7372 -0.778329 1.37039 0
M  V30 220 C 19.1482 -1.35421 1.28523 0
M  V30 221 C 19.4992 -1.96075 -0.0700901 0
M  V30 222 O 18.6242 -1.93352 -0.971801 0
M  V30 223 C 19.2192 -2.46211 2.32735 0
M  V30 224 C 17.7782 -2.99585 2.27873 0
M  V30 225 C 16.9252 -1.72748 2.16918 0
M  V30 226 H 19.8762 -0.5791 1.47757 0
M  V30 227 H 19.8972 -3.2552 1.9702 0
M  V30 228 H 19.4092 -2.02036 3.31365 0
M  V30 229 H 17.5102 -3.48152 1.32745 0
M  V30 230 H 17.6232 -3.55646 3.21018 0
M  V30 231 H 15.9872 -1.95416 1.63354 0
M  V30 232 H 16.7702 -1.30686 3.17452 0
M  V30 233 N 19.2153 -1.21501 -1.00376 0
M  V30 234 C 20.1453 -0.999478 -2.11028 0
M  V30 235 C 21.1263 0.0759671 -1.6993 0
M  V30 236 O 22.3113 -0.0841106 -1.94018 0
M  V30 237 C 19.4413 -0.564709 -3.42678 0
M  V30 238 C 18.3953 -1.58486 -3.97576 0
M  V30 239 C 17.7213 -1.00628 -5.25146 0
M  V30 240 C 19.0213 -2.97204 -4.29496 0
M  V30 241 H 20.7153 -1.92495 -2.29317 0
M  V30 242 H 18.2613 -0.92693 -1.102 0
M  V30 243 H 20.2143 -0.401091 -4.19487 0
M  V30 244 H 18.9383 0.396411 -3.24185 0
M  V30 245 H 17.5973 -1.73606 -3.22888 0
M  V30 246 H 17.2453 -0.0368439 -5.02987 0
M  V30 247 H 16.9453 -1.68771 -5.62841 0
M  V30 248 H 18.4693 -0.854015 -6.04598 0
M  V30 249 H 19.8833 -2.8552 -4.97143 0
M  V30 250 H 18.2803 -3.62372 -4.78338 0
M  V30 251 H 19.3503 -3.47956 -3.3772 0
M  V30 252 N 20.6934 1.19889 -1.02296 0
M  V30 253 C 21.6404 2.22901 -0.598651 0
M  V30 254 C 22.6104 1.61588 0.384521 0
M  V30 255 O 23.7954 1.88697 0.282522 0
M  V30 256 C 20.9354 3.45063 0.0504476 0
M  V30 257 C 20.0484 4.20783 -0.978053 0
M  V30 258 C 19.1834 5.30356 -0.299338 0
M  V30 259 C 18.2224 5.97826 -1.31416 0
M  V30 260 N 17.3594 6.98975 -0.661667 0
M  V30 261 H 22.1994 2.58554 -1.48169 0
M  V30 262 H 19.7364 1.27039 -0.741584 0
M  V30 263 H 21.6944 4.14831 0.443971 0
M  V30 264 H 20.3244 3.10084 0.897097 0
M  V30 265 H 19.3764 3.50018 -1.48969 0
M  V30 266 H 20.6884 4.67109 -1.74958 0
M  V30 267 H 19.8424 6.06516 0.149347 0
M  V30 268 H 18.5814 4.85084 0.504445 0
M  V30 269 H 17.5864 5.20422 -1.77317 0
M  V30 270 H 18.8114 6.45183 -2.11933 0
M  V30 271 H 16.7574 6.55886 0.122132 0
M  V30 272 H 16.6744 7.43461 -1.37117 0
M  V30 273 H 17.9424 7.7914 -0.236785 0
M  V30 274 N 22.1715 0.800033 1.35784 0
M  V30 275 C 23.1345 0.211565 2.28221 0
M  V30 276 C 24.1345 -0.59728 1.49296 0
M  V30 277 O 25.3245 -0.416721 1.69142 0
M  V30 278 C 22.4565 -0.705846 3.33513 0
M  V30 279 H 23.6495 1.02677 2.81776 0
M  V30 280 H 21.2025 0.570211 1.45528 0
M  V30 281 H 21.9375 -1.54498 2.85133 0
M  V30 282 H 21.7225 -0.127655 3.91892 0
M  V30 283 H 23.2125 -1.11211 4.02519 0
M  V30 284 N 23.6496 -1.47581 0.552962 0
M  V30 285 C 24.8776 -2.06875 0.0320556 0
M  V30 286 C 25.2926 -1.40625 -1.25976 0
M  V30 287 O 24.6496 -0.501349 -1.75479 0
M  V30 288 C 24.7006 -3.61092 -0.17167 0
M  V30 289 O 24.4216 -4.24858 1.06899 0
M  V30 290 C 25.9226 -4.37242 -0.730344 0
M  V30 291 H 23.1426 -0.669561 0.043915 0
M  V30 292 H 25.6866 -1.89646 0.765163 0
M  V30 293 H 23.8416 -3.7785 -0.854894 0
M  V30 294 H 24.2556 -5.17334 0.864059 0
M  V30 295 H 25.7296 -5.45842 -0.822203 0
M  V30 296 H 26.2066 -4.03235 -1.74064 0
M  V30 297 H 26.8126 -4.25219 -0.0829543 0
M  V30 298 N 25.1277 -0.289203 -1.54924 0
M  V30 299 C 26.3767 0.324231 -1.99077 0
M  V30 300 C 26.6897 1.5591 -1.18117 0
M  V30 301 O 27.8957 2.24637 -1.52481 0
M  V30 302 C 26.3517 0.628209 -3.54375 0
M  V30 303 C 25.9597 -0.587647 -4.44129 0
M  V30 304 C 27.7037 1.20349 -4.07083 0
M  V30 305 C 25.6107 -0.257475 -5.90839 0
M  V30 306 H 24.5407 0.124924 -0.743579 0
M  V30 307 H 27.1917 -0.396063 -1.79175 0
M  V30 308 H 25.5737 1.40778 -3.70132 0
M  V30 309 H 26.7477 -1.36418 -4.40144 0
M  V30 310 H 25.0627 -1.08074 -4.0213 0
M  V30 311 H 27.6597 1.46456 -5.14252 0
M  V30 312 H 28.0027 2.14195 -3.56968 0
M  V30 313 H 28.5357 0.485889 -3.94821 0
M  V30 314 H 25.2747 -1.16419 -6.45079 0
M  V30 315 H 24.7947 0.482018 -5.9786 0
M  V30 316 H 26.4737 0.145238 -6.46837 0
M  V30 317 N 26.6058 1.57591 -0.0167156 0
M  V30 318 C 27.5378 2.06343 0.997753 0
M  V30 319 C 28.5508 0.984469 1.29661 0
M  V30 320 O 29.7398 1.26093 1.26344 0
M  V30 321 C 26.8398 2.46255 2.32834 0
M  V30 322 C 26.0128 3.77083 2.21646 0
M  V30 323 C 25.0718 4.0368 3.37534 0
M  V30 324 O 24.0978 4.7411 3.14973 0
M  V30 325 N 25.2998 3.52881 4.60929 0
M  V30 326 H 28.0648 2.93997 0.581875 0
M  V30 327 H 25.6258 1.61002 0.170316 0
M  V30 328 H 27.6178 2.61149 3.09166 0
M  V30 329 H 26.1878 1.64032 2.66106 0
M  V30 330 H 25.4078 3.72106 1.30119 0
M  V30 331 H 26.6958 4.62822 2.11361 0
M  V30 332 H 26.0938 2.95878 4.82154 0
M  V30 333 H 24.6508 3.73076 5.34469 0
M  V30 334 N 28.0839 -0.256276 1.55502 0
M  V30 335 C 29.0469 -1.30047 1.88734 0
M  V30 336 C 30.0469 -1.4154 0.763086 0
M  V30 337 O 31.2369 -1.40403 1.03115 0
M  V30 338 C 28.3689 -2.67953 2.10747 0
M  V30 339 H 29.5619 -1.01802 2.82093 0
M  V30 340 H 27.1149 -0.495134 1.4825 0
M  V30 341 H 27.8499 -3.01351 1.19825 0
M  V30 342 H 27.6349 -2.60993 2.92617 0
M  V30 343 H 29.1249 -3.43368 2.37673 0
M  V30 344 N 29.562 -1.4872 -0.521534 0
M  V30 345 C 30.492 -1.66771 -1.63431 0
M  V30 346 C 31.473 -0.516499 -1.62069 0
M  V30 347 O 32.658 -0.750013 -1.79132 0
M  V30 348 C 29.788 -1.71515 -3.01993 0
M  V30 349 C 28.742 -2.86222 -3.18216 0
M  V30 350 C 28.068 -2.76061 -4.57924 0
M  V30 351 C 29.368 -4.27419 -3.00184 0
M  V30 352 H 31.062 -2.59932 -1.48579 0
M  V30 353 H 28.608 -1.25089 -0.713358 0
M  V30 354 H 30.561 -1.82731 -3.7972 0
M  V30 355 H 29.285 -0.749393 -3.17886 0
M  V30 356 H 27.944 -2.74575 -2.42908 0
M  V30 357 H 27.592 -1.77437 -4.70665 0
M  V30 358 H 27.292 -3.53037 -4.69722 0
M  V30 359 H 28.816 -2.89256 -5.37739 0
M  V30 360 H 30.23 -4.39855 -3.67697 0
M  V30 361 H 28.627 -5.05458 -3.2347 0
M  V30 362 H 29.697 -4.43293 -1.96518 0
M  V30 363 N 31.0401 0.771051 -1.3745 0
M  V30 364 C 31.9701 1.89827 -1.3597 0
M  V30 365 C 32.9511 1.68562 -0.228216 0
M  V30 366 O 34.1361 1.8941 -0.428675 0
M  V30 367 C 31.2661 3.2712 -1.16662 0
M  V30 368 C 30.2201 3.6295 -2.2683 0
M  V30 369 C 29.5461 4.98791 -1.92644 0
M  V30 370 C 30.8461 3.69627 -3.69017 0
M  V30 371 H 32.5401 1.91323 -2.30295 0
M  V30 372 H 30.0861 0.919082 -1.10855 0
M  V30 373 H 32.0391 4.05615 -1.14256 0
M  V30 374 H 30.7631 3.26059 -0.187926 0
M  V30 375 H 29.4221 2.86763 -2.28392 0
M  V30 376 H 29.0701 4.94271 -0.933021 0
M  V30 377 H 28.7701 5.23733 -2.66416 0
M  V30 378 H 30.2941 5.79685 -1.91826 0
M  V30 379 H 31.7081 4.38273 -3.69581 0
M  V30 380 H 30.1051 4.06067 -4.41848 0
M  V30 381 H 31.1751 2.70273 -4.02592 0
M  V30 382 N 32.5182 1.22032 0.997298 0
M  V30 383 C 33.7642 1.04376 1.73878 0
M  V30 384 C 34.0972 -0.420716 1.89588 0
M  V30 385 O 33.3722 -1.31202 1.43583 0
M  V30 386 C 33.6552 1.75047 3.14691 0
M  V30 387 C 33.5082 3.29062 3.06656 0
M  V30 388 C 34.8272 1.49928 4.13775 0
M  V30 389 H 31.9462 0.380578 0.631133 0
M  V30 390 H 34.5882 1.50312 1.16217 0
M  V30 391 H 32.7382 1.35996 3.63919 0
M  V30 392 H 34.4102 3.7753 2.65083 0
M  V30 393 H 32.6532 3.58967 2.43568 0
M  V30 394 H 33.3242 3.73683 4.06282 0
M  V30 395 H 35.8002 1.83842 3.73285 0
M  V30 396 H 34.6762 2.01878 5.10428 0
M  V30 397 H 34.9372 0.430929 4.39995 0
M  V30 398 N 33.9963 -1.19345 1.0293 0
M  V30 399 C 34.9593 -2.20793 0.615069 0
M  V30 400 C 35.9593 -1.57553 -0.321533 0
M  V30 401 O 37.1493 -1.73862 -0.108483 0
M  V30 402 C 34.2813 -3.40754 -0.0999222 0
M  V30 403 H 35.4743 -2.58955 1.51269 0
M  V30 404 H 33.0273 -1.3303 0.820534 0
M  V30 405 H 33.7623 -3.0811 -1.01187 0
M  V30 406 H 33.5473 -3.87889 0.57309 0
M  V30 407 H 35.0373 -4.15898 -0.376645 0
M  V30 408 N 35.4744 -0.807222 -1.35358 0
M  V30 409 C 36.7234 -0.384376 -1.98004 0
M  V30 410 C 37.0364 1.0543 -1.64754 0
M  V30 411 O 38.2424 1.58029 -2.20769 0
M  V30 412 C 36.6984 -0.636326 -3.5423 0
M  V30 413 C 36.3064 -2.08759 -3.96388 0
M  V30 414 C 38.0504 -0.278869 -4.23583 0
M  V30 415 C 35.9574 -2.28525 -5.45463 0
M  V30 416 H 34.8874 -0.139986 -0.740891 0
M  V30 417 H 37.5384 -0.991369 -1.54415 0
M  V30 418 H 35.9204 0.0406256 -3.95979 0
M  V30 419 H 37.0944 -2.8024 -3.6579 0
M  V30 420 H 35.4094 -2.40497 -3.39926 0
M  V30 421 H 38.0064 -0.404599 -5.33167 0
M  V30 422 H 38.3494 0.775012 -4.09022 0
M  V30 423 H 38.8824 -0.909764 -3.87257 0
M  V30 424 H 35.6214 -3.32361 -5.64992 0
M  V30 425 H 35.1414 -1.61569 -5.77629 0
M  V30 426 H 36.8204 -2.10109 -6.11934 0
M  V30 427 N 36.9525 1.47285 -0.560781 0
M  V30 428 C 37.9155 2.28535 0.174488 0
M  V30 429 C 38.9155 1.37153 0.839388 0
M  V30 430 O 40.1055 1.59748 0.694702 0
M  V30 431 C 37.2375 3.16934 1.25561 0
M  V30 432 H 38.4305 2.95012 -0.539262 0
M  V30 433 H 35.9835 1.53034 -0.317865 0
M  V30 434 H 36.7185 2.55157 2.00164 0
M  V30 435 H 36.5035 3.8419 0.783604 0
M  V30 436 H 37.9935 3.78143 1.77193 0
M  V30 437 N 38.4306 0.297415 1.54768 0
M  V30 438 C 39.6586 -0.315623 2.04478 0
M  V30 439 C 40.0736 -1.47792 1.17486 0
M  V30 440 O 39.4306 -1.81404 0.19971 0
M  V30 441 C 39.4816 -0.7753 3.53088 0
M  V30 442 O 39.2026 0.340732 4.36773 0
M  V30 443 C 40.7036 -1.45386 4.18781 0
M  V30 444 H 37.9236 -0.0690887 0.667434 0
M  V30 445 H 40.4676 0.436003 1.99798 0
M  V30 446 H 38.6226 -1.47696 3.58141 0
M  V30 447 H 39.0366 -0.0165035 5.24497 0
M  V30 448 H 40.5106 -1.72669 5.24299 0
M  V30 449 H 40.9876 -2.39275 3.68299 0
M  V30 450 H 41.5936 -0.795475 4.17795 0
M  V30 451 N 39.9087 -1.5758 0.0250728 0
M  V30 452 C 40.8417 -2.05473 -0.992777 0
M  V30 453 C 41.8197 -0.949661 -1.31986 0
M  V30 454 O 43.0037 -1.21969 -1.43722 0
M  V30 455 C 40.1307 -2.4734 -2.31389 0
M  V30 456 C 39.1767 -3.68827 -2.1417 0
M  V30 457 S 40.0097 -5.15655 -1.44429 0
M  V30 458 C 41.1657 -5.60814 -2.77918 0
M  V30 459 H 41.3987 -2.91486 -0.585078 0
M  V30 460 H 38.9317 -1.53269 -0.186507 0
M  V30 461 H 40.8897 -2.72127 -3.07339 0
M  V30 462 H 39.5507 -1.6168 -2.69292 0
M  V30 463 H 38.7437 -3.95955 -3.11826 0
M  V30 464 H 38.3457 -3.44172 -1.46362 0
M  V30 465 H 40.6377 -5.64806 -3.74166 0
M  V30 466 H 41.5807 -6.60414 -2.55459 0
M  V30 467 H 41.9887 -4.8845 -2.82979 0
M  V30 468 N 41.3868 0.248026 -1.55636 0
M  V30 469 C 42.6148 0.993808 -1.81469 0
M  V30 470 C 43.0298 1.78991 -0.60064 0
M  V30 471 O 42.3868 1.77345 0.430682 0
M  V30 472 C 42.4378 1.93258 -3.05506 0
M  V30 473 O 42.1588 1.16869 -4.22224 0
M  V30 474 C 43.6598 2.79444 -3.4413 0
M  V30 475 H 40.8798 0.292486 -0.603898 0
M  V30 476 H 43.4238 0.271253 -2.02693 0
M  V30 477 H 41.5788 2.60943 -2.86335 0
M  V30 478 H 41.9928 1.80359 -4.92515 0
M  V30 479 H 43.4668 3.41066 -4.34026 0
M  V30 480 H 43.9438 3.50499 -2.64665 0
M  V30 481 H 44.5498 2.17214 -3.65648 0
M  V30 482 N 42.8649 1.48995 0.513639 0
M  V30 483 C 44.1119 1.57843 1.26854 0
M  V30 484 C 44.4399 0.259501 1.92761 0
M  V30 485 O 43.6949 -0.75159 1.80692 0
M  V30 486 C 43.9939 2.67756 2.36731 0
M  V30 487 C 43.6599 4.09669 1.88368 0
M  V30 488 C 42.3219 4.48291 1.74896 0
M  V30 489 C 44.6739 4.98537 1.52021 0
M  V30 490 C 42.0019 5.73568 1.23438 0
M  V30 491 C 44.3539 6.24319 1.0202 0
M  V30 492 C 43.0179 6.61783 0.871778 0
M  V30 493 H 42.2879 0.577587 0.464192 0
M  V30 494 H 44.9349 1.82778 0.571366 0
M  V30 495 H 43.2399 2.36743 3.12185 0
M  V30 496 H 44.9369 2.71813 2.9482 0
M  V30 497 H 41.5269 3.79176 1.99808 0
M  V30 498 H 45.7109 4.69363 1.61281 0
M  V30 499 H 40.9669 6.01304 1.10648 0
M  V30 500 H 45.1409 6.92566 0.729722 0
M  V30 501 H 42.7679 7.5874 0.470852 0
M  V30 502 N 44.343 -0.763751 1.37857 0
M  V30 503 C 45.59 -1.52257 1.33506 0
M  V30 504 C 45.918 -1.94343 -0.078022 0
M  V30 505 O 45.173 -1.64958 -1.05297 0
M  V30 506 C 45.472 -2.79499 2.22745 0
M  V30 507 C 45.138 -2.56426 3.70886 0
M  V30 508 C 43.8 -2.49842 4.11257 0
M  V30 509 C 46.152 -2.36008 4.64704 0
M  V30 510 C 43.48 -2.20841 5.43549 0
M  V30 511 C 45.832 -2.0853 5.97242 0
M  V30 512 C 44.496 -2.00396 6.36709 0
M  V30 513 H 43.766 -0.557149 0.488534 0
M  V30 514 H 46.413 -0.879073 1.70131 0
M  V30 515 H 44.718 -3.48447 1.79142 0
M  V30 516 H 46.415 -3.37413 2.16688 0
M  V30 517 H 43.005 -2.62416 3.38874 0
M  V30 518 H 47.189 -2.40079 4.34368 0
M  V30 519 H 42.445 -2.13045 5.73081 0
M  V30 520 H 46.619 -1.91732 6.69486 0
M  V30 521 H 44.246 -1.77688 7.39142 0
M  V30 522 N 45.8211 -1.22559 -0.990812 0
M  V30 523 C 47.0681 -1.05141 -1.73065 0
M  V30 524 C 47.3961 0.413191 -1.9006 0
M  V30 525 O 46.6511 1.32257 -1.44245 0
M  V30 526 C 46.9501 -1.71011 -3.13831 0
M  V30 527 C 46.6161 -3.20911 -3.16745 0
M  V30 528 C 45.2781 -3.61812 -3.17247 0
M  V30 529 C 47.6301 -4.16846 -3.12872 0
M  V30 530 C 44.9581 -4.97127 -3.1158 0
M  V30 531 C 47.3101 -5.5214 -3.08746 0
M  V30 532 C 45.9741 -5.92419 -3.07565 0
M  V30 533 H 45.2441 -0.384738 -0.633291 0
M  V30 534 H 47.8911 -1.5235 -1.16025 0
M  V30 535 H 46.1961 -1.16133 -3.74193 0
M  V30 536 H 47.8931 -1.55023 -3.69823 0
M  V30 537 H 44.4831 -2.88344 -3.17105 0
M  V30 538 H 48.6671 -3.86263 -3.11632 0
M  V30 539 H 43.9231 -5.27562 -3.09012 0
M  V30 540 H 48.0971 -6.26201 -3.04705 0
M  V30 541 H 45.7241 -6.97236 -3.02929 0
M  V30 542 N 47.2992 1.18797 -1.03562 0
M  V30 543 C 48.5272 1.92599 -0.755869 0
M  V30 544 C 48.9422 1.75886 0.686271 0
M  V30 545 O 48.2992 1.08517 1.46732 0
M  V30 546 C 48.3502 3.44159 -1.10619 0
M  V30 547 O 48.0712 3.60341 -2.4917 0
M  V30 548 C 49.5722 4.3507 -0.850214 0
M  V30 549 H 46.7922 0.611587 -0.276048 0
M  V30 550 H 49.3362 1.50742 -1.38192 0
M  V30 551 H 47.4912 3.83823 -0.525194 0
M  V30 552 H 47.9052 4.54128 -2.62427 0
M  V30 553 H 49.3792 5.39989 -1.14523 0
M  V30 554 H 49.8562 4.38673 0.215176 0
M  V30 555 H 50.4622 4.01097 -1.41426 0
M  V30 556 N 48.7773 0.814389 1.34928 0
M  V30 557 C 50.0023 0.410097 2.03305 0
M  V30 558 C 50.4273 -0.973464 1.60951 0
M  V30 559 O 49.7853 -1.63185 0.789964 0
M  V30 560 C 49.8333 0.51049 3.56968 0
M  V30 561 O 48.9373 -0.473035 4.09678 0
M  V30 562 H 48.2783 0.170088 0.641846 0
M  V30 563 H 50.8083 1.10244 1.72358 0
M  V30 564 H 50.8183 0.383135 4.06197 0
M  V30 565 H 49.4933 1.51963 3.87144 0
M  V30 566 H 48.0703 -0.305272 3.71648 0
M  V30 567 N 50.2554 -1.46986 0.568584 0
M  V30 568 C 51.5324 -1.95592 -0.0174074 0
M  V30 569 C 51.9124 -1.51124 -1.47393 0
M  V30 570 O 51.2604 -0.755329 -2.15655 0
M  V30 571 C 51.4704 -3.48719 0.139913 0
M  V30 572 C 52.8184 -4.246 0.000426376 0
M  V30 573 O 53.8424 -3.56135 0.0680316 0
M  V30 574 O 52.7014 -5.46302 -0.146988 0
M  V30 575 H 49.7954 -0.82498 -0.0577599 0
M  V30 576 H 52.3414 -1.57335 0.635909 0
M  V30 577 H 51.1134 -3.73927 1.15301 0
M  V30 578 H 50.7364 -3.93771 -0.550491 0
M  V30 579 N 51.7335 -0.305618 -1.54608 0
M  V30 580 C 52.9825 0.303098 -1.9941 0
M  V30 581 C 53.2955 1.54648 -1.19764 0
M  V30 582 O 54.5015 2.23007 -1.54855 0
M  V30 583 C 52.9575 0.590588 -3.55021 0
M  V30 584 C 52.5655 -0.634719 -4.43481 0
M  V30 585 C 54.3095 1.16025 -4.08336 0
M  V30 586 C 52.2165 -0.320126 -5.90533 0
M  V30 587 H 51.1465 0.117031 -0.744862 0
M  V30 588 H 53.7975 -0.415045 -1.78745 0
M  V30 589 H 52.1795 1.36845 -3.71604 0
M  V30 590 H 53.3535 -1.41079 -4.38672 0
M  V30 591 H 51.6685 -1.12333 -4.00962 0
M  V30 592 H 54.2655 1.40994 -5.15776 0
M  V30 593 H 54.6085 2.10397 -3.5922 0
M  V30 594 H 55.1415 0.443985 -3.95315 0
M  V30 595 H 51.8805 -1.23254 -6.43808 0
M  V30 596 H 51.4005 0.418579 -5.98338 0
M  V30 597 H 53.0795 0.0766241 -6.46955 0
M  V30 598 N 53.2116 1.57565 -0.0334293 0
M  V30 599 C 54.1746 2.09393 0.932048 0
M  V30 600 C 55.1746 1.00986 1.25134 0
M  V30 601 O 56.3646 1.27129 1.19096 0
M  V30 602 C 53.4966 2.56338 2.2473 0
M  V30 603 H 54.6896 2.95984 0.483085 0
M  V30 604 H 52.2426 1.54819 0.21468 0
M  V30 605 H 52.9776 1.7309 2.74245 0
M  V30 606 H 52.7626 3.35542 2.02865 0
M  V30 607 H 54.2526 2.96646 2.93923 0
M  V30 608 N 54.6897 -0.239769 1.55765 0
M  V30 609 C 55.6197 -1.30052 1.9393 0
M  V30 610 C 56.6007 -1.49839 0.805132 0
M  V30 611 O 57.7857 -1.62328 1.06599 0
M  V30 612 C 54.9157 -2.65391 2.2402 0
M  V30 613 C 53.8697 -2.60289 3.39755 0
M  V30 614 C 53.1957 -3.99489 3.55405 0
M  V30 615 C 54.4957 -2.16654 4.75246 0
M  V30 616 H 56.1897 -0.983573 2.82783 0
M  V30 617 H 53.7357 -0.471701 1.36055 0
M  V30 618 H 55.6887 -3.3974 2.49308 0
M  V30 619 H 54.4127 -2.98736 1.32 0
M  V30 620 H 53.0717 -1.88398 3.14487 0
M  V30 621 H 52.7197 -4.30112 2.60793 0
M  V30 622 H 52.4197 -3.96962 4.33238 0
M  V30 623 H 53.9437 -4.75528 3.83022 0
M  V30 624 H 55.3577 -2.80737 4.99859 0
M  V30 625 H 53.7547 -2.25223 5.56232 0
M  V30 626 H 54.8247 -1.11835 4.71827 0
M  V30 627 N 56.1678 -1.49265 -0.50573 0
M  V30 628 C 57.5788 -1.51769 -1.08734 0
M  V30 629 C 57.9298 -0.301192 -1.93874 0
M  V30 630 O 57.0548 0.589456 -2.08217 0
M  V30 631 C 57.6498 -2.75017 -1.97867 0
M  V30 632 C 56.2088 -2.80314 -2.51199 0
M  V30 633 C 55.3558 -2.4562 -1.28709 0
M  V30 634 H 58.3068 -1.56031 -0.289855 0
M  V30 635 H 58.3278 -2.5491 -2.82491 0
M  V30 636 H 57.8398 -3.63539 -1.35873 0
M  V30 637 H 55.9408 -1.96061 -3.16845 0
M  V30 638 H 56.0538 -3.82366 -2.88675 0
M  V30 639 H 54.4178 -1.97297 -1.61078 0
M  V30 640 H 55.2008 -3.36411 -0.6843 0
M  V30 641 N 57.6459 0.756429 -1.3826 0
M  V30 642 C 58.5779 1.87971 -1.31147 0
M  V30 643 C 59.5909 1.61248 -0.224239 0
M  V30 644 O 60.7799 1.71881 -0.481581 0
M  V30 645 C 57.8799 3.23545 -1.00857 0
M  V30 646 C 57.0529 3.77794 -2.20432 0
M  V30 647 C 56.1119 4.91877 -1.86931 0
M  V30 648 O 55.1379 5.06659 -2.59395 0
M  V30 649 N 56.3399 5.74643 -0.822568 0
M  V30 650 H 59.1049 1.94585 -2.2794 0
M  V30 651 H 56.6659 0.936234 -1.32084 0
M  V30 652 H 58.6579 3.97403 -0.765021 0
M  V30 653 H 57.2279 3.12335 -0.128687 0
M  V30 654 H 56.4479 2.95534 -2.6087 0
M  V30 655 H 57.7359 4.10771 -3.00241 0
M  V30 656 H 57.1339 5.65266 -0.221575 0
M  V30 657 H 55.6909 6.48661 -0.638899 0
M  V30 658 N 59.124 1.23083 0.984299 0
M  V30 659 C 60.349 1.088 1.76571 0
M  V30 660 C 60.774 -0.356657 1.84688 0
M  V30 661 O 60.132 -1.25788 1.30565 0
M  V30 662 C 60.18 1.71371 3.17277 0
M  V30 663 O 59.284 0.973213 4.00752 0
M  V30 664 H 58.625 0.381599 0.543395 0
M  V30 665 H 61.155 1.63057 1.23587 0
M  V30 666 H 61.165 1.76449 3.67872 0
M  V30 667 H 59.84 2.76493 3.10684 0
M  V30 668 H 58.417 0.999078 3.59267 0
M  V30 669 N 60.6021 -1.18246 1.0419 0
M  V30 670 C 61.5651 -2.20128 0.638452 0
M  V30 671 C 62.5651 -1.57885 -0.304805 0
M  V30 672 O 63.7551 -1.73967 -0.0900369 0
M  V30 673 C 60.8871 -3.4084 -0.0637751 0
M  V30 674 H 62.0801 -2.57336 1.54007 0
M  V30 675 H 59.6331 -1.32152 0.834598 0
M  V30 676 H 60.3681 -3.09166 -0.979136 0
M  V30 677 H 60.1531 -3.8726 0.614198 0
M  V30 678 H 61.6431 -4.16274 -0.332512 0
M  V30 679 N 62.0802 -0.821533 -1.34494 0
M  V30 680 C 63.0432 -0.247847 -2.27856 0
M  V30 681 C 64.0432 0.573453 -1.50227 0
M  V30 682 O 65.2332 0.389759 -1.69784 0
M  V30 683 C 62.3652 0.652698 -3.34593 0
M  V30 684 H 63.5582 -1.07146 -2.80107 0
M  V30 685 H 61.1112 -0.593291 -1.44602 0
M  V30 686 H 61.8462 1.49943 -2.87555 0
M  V30 687 H 61.6312 0.065292 -3.92046 0
M  V30 688 H 63.1212 1.04793 -4.04238 0
M  V30 689 N 63.5583 1.46682 -0.576371 0
M  V30 690 C 64.5213 2.28707 0.150239 0
M  V30 691 C 65.5213 1.38035 0.824794 0
M  V30 692 O 66.7113 1.60476 0.677719 0
M  V30 693 C 63.8433 3.18248 1.22192 0
M  V30 694 H 65.0363 2.94423 -0.570521 0
M  V30 695 H 62.5893 1.52688 -0.334078 0
M  V30 696 H 63.3243 2.57265 1.97447 0
M  V30 697 H 63.1093 3.85 0.742812 0
M  V30 698 H 64.5993 3.80001 1.73172 0
M  V30 699 N 65.0364 0.313813 1.54444 0
M  V30 700 C 66.2664 -0.293491 2.04505 0
M  V30 701 C 66.6744 -1.47086 1.19005 0
M  V30 702 O 66.0174 -1.82481 0.211257 0
M  V30 703 C 66.0794 -0.800455 3.50475 0
M  V30 704 C 65.7434 0.253322 4.56297 0
M  V30 705 C 66.7404 1.08612 5.08428 0
M  V30 706 C 64.4254 0.398708 5.00715 0
M  V30 707 C 66.4194 2.05013 6.0353 0
M  V30 708 C 64.1064 1.36614 5.95634 0
M  V30 709 C 65.1044 2.19033 6.46926 0
M  V30 710 O 64.7924 3.14134 7.39983 0
M  V30 711 H 64.5244 -0.0658325 0.672787 0
M  V30 712 H 67.0784 0.455177 2.00293 0
M  V30 713 H 65.3084 -1.59987 3.52053 0
M  V30 714 H 66.9974 -1.32504 3.83663 0
M  V30 715 H 67.7634 0.984736 4.74898 0
M  V30 716 H 63.6424 -0.23289 4.60411 0
M  V30 717 H 67.1864 2.69382 6.4349 0
M  V30 718 H 63.0834 1.4682 6.28581 0
M  V30 719 H 63.8514 3.0926 7.57826 0
M  V30 720 N 66.5145 -1.57545 0.0417849 0
M  V30 721 C 67.9255 -1.80011 -0.495259 0
M  V30 722 C 68.2765 -0.953199 -1.71489 0
M  V30 723 O 67.4015 -0.167138 -2.15754 0
M  V30 724 C 67.9965 -3.26482 -0.905265 0
M  V30 725 C 66.5555 -3.499 -1.38734 0
M  V30 726 C 65.7025 -2.74979 -0.358056 0
M  V30 727 H 68.6535 -1.56425 0.267736 0
M  V30 728 H 68.6745 -3.36887 -1.76882 0
M  V30 729 H 68.1865 -3.88096 -0.017401 0
M  V30 730 H 66.2875 -2.93553 -2.29471 0
M  V30 731 H 66.4005 -4.58615 -1.38598 0
M  V30 732 H 64.7645 -2.40834 -0.828912 0
M  V30 733 H 65.5475 -3.39315 0.521561 0
M  V30 734 N 67.9926 0.231505 -1.5589 0
M  V30 735 C 69.2396 0.957352 -1.78441 0
M  V30 736 C 69.5676 1.84726 -0.60882 0
M  V30 737 O 68.8226 1.91416 0.40725 0
M  V30 738 C 69.1216 1.83577 -3.0665 0
M  V30 739 C 68.7876 1.09993 -4.37278 0
M  V30 740 C 67.4496 0.896629 -4.72773 0
M  V30 741 C 69.8016 0.579558 -5.17968 0
M  V30 742 C 67.1296 0.160896 -5.86479 0
M  V30 743 C 69.4816 -0.142783 -6.32439 0
M  V30 744 C 68.1456 -0.357427 -6.66542 0
M  V30 745 H 67.4156 0.35032 -0.65296 0
M  V30 746 H 70.0626 0.226259 -1.90159 0
M  V30 747 H 68.3676 2.63441 -2.90011 0
M  V30 748 H 70.0646 2.39934 -3.21298 0
M  V30 749 H 66.6546 1.26835 -4.09403 0
M  V30 750 H 70.8386 0.724125 -4.90989 0
M  V30 751 H 66.0946 -0.0157293 -6.11398 0
M  V30 752 H 70.2686 -0.553559 -6.94196 0
M  V30 753 H 67.8956 -0.929466 -7.54497 0
M  V30 754 N 69.4707 1.49531 0.497807 0
M  V30 755 C 70.7167 1.60388 1.25089 0
M  V30 756 C 71.0717 0.288328 1.90227 0
M  V30 757 O 70.3647 -0.711706 1.77891 0
M  V30 758 C 70.5587 2.70252 2.33878 0
M  V30 759 C 70.3877 4.12363 1.79408 0
M  V30 760 C 69.1577 4.7911 1.60566 0
M  V30 761 C 71.3557 4.97491 1.30412 0
M  V30 762 N 69.3377 6.05525 1.01059 0
M  V30 763 C 70.7087 6.14411 0.830595 0
M  V30 764 C 72.7637 4.83466 1.19015 0
M  V30 765 C 71.4667 7.1885 0.254371 0
M  V30 766 C 73.4927 5.88057 0.627892 0
M  V30 767 C 72.8547 7.04208 0.16461 0
M  V30 768 H 68.9537 0.641246 0.447579 0
M  V30 769 H 71.5377 1.86549 0.557441 0
M  V30 770 H 69.7087 2.45858 3.0068 0
M  V30 771 H 71.4407 2.70613 3.00917 0
M  V30 772 H 68.1957 4.35961 1.85026 0
M  V30 773 H 68.6197 6.73028 0.732236 0
M  V30 774 H 73.2617 3.93978 1.53431 0
M  V30 775 H 70.9797 8.08036 -0.102052 0
M  V30 776 H 74.5657 5.79266 0.542444 0
M  V30 777 H 73.4457 7.83757 -0.263669 0
M  V30 778 N 70.9488 -0.749086 1.3866 0
M  V30 779 C 71.9118 -1.84457 1.36045 0
M  V30 780 C 72.9118 -1.58682 0.260122 0
M  V30 781 O 74.1018 -1.66343 0.517261 0
M  V30 782 C 71.2338 -3.22008 1.11911 0
M  V30 783 H 72.4268 -1.88182 2.33512 0
M  V30 784 H 69.9798 -0.951266 1.24019 0
M  V30 785 H 70.7148 -3.2395 0.150686 0
M  V30 786 H 70.4998 -3.42111 1.91579 0
M  V30 787 H 71.9898 -4.0208 1.12788 0
M  V30 788 N 72.4269 -1.23603 -0.977757 0
M  V30 789 C 73.3589 -0.977369 -2.07317 0
M  V30 790 C 74.3719 0.0495845 -1.62724 0
M  V30 791 O 75.5609 -0.186261 -1.77526 0
M  V30 792 C 72.6609 -0.451216 -3.35883 0
M  V30 793 C 71.8339 -1.53896 -4.09432 0
M  V30 794 C 70.8929 -1.01721 -5.16274 0
M  V30 795 O 69.9189 -1.70676 -5.43009 0
M  V30 796 N 71.1209 0.153594 -5.80297 0
M  V30 797 H 73.8859 -1.92047 -2.30082 0
M  V30 798 H 71.4469 -1.14497 -1.14465 0
M  V30 799 H 73.4389 -0.0871574 -4.04606 0
M  V30 800 H 72.0089 0.397368 -3.10064 0
M  V30 801 H 71.2289 -2.07566 -3.35127 0
M  V30 802 H 72.5169 -2.27037 -4.55337 0
M  V30 803 H 71.9149 0.730323 -5.60966 0
M  V30 804 H 70.4719 0.458892 -6.50183 0
M  V30 805 N 73.905 1.17692 -1.04816 0
M  V30 806 C 74.837 2.21103 -0.603822 0
M  V30 807 C 75.85 1.59411 0.33046 0
M  V30 808 O 77.039 1.7807 0.12379 0
M  V30 809 C 74.139 3.38623 0.136898 0
M  V30 810 C 73.312 4.29888 -0.807137 0
M  V30 811 C 72.371 5.26088 -0.10836 0
M  V30 812 O 71.397 5.64353 -0.741232 0
M  V30 813 N 72.599 5.68882 1.15558 0
M  V30 814 H 75.364 2.59848 -1.49329 0
M  V30 815 H 72.925 1.32553 -0.929587 0
M  V30 816 H 74.917 4.00009 0.614401 0
M  V30 817 H 73.487 2.98508 0.927993 0
M  V30 818 H 72.707 3.65993 -1.46434 0
M  V30 819 H 73.995 4.87759 -1.44807 0
M  V30 820 H 73.393 5.39861 1.69015 0
M  V30 821 H 71.95 6.32429 1.57722 0
M  V30 822 N 75.3831 0.828654 1.34056 0
M  V30 823 C 76.6111 0.43262 2.02326 0
M  V30 824 C 77.0261 -0.963147 1.62385 0
M  V30 825 O 76.3831 -1.62425 0.832121 0
M  V30 826 C 76.4341 0.53182 3.57567 0
M  V30 827 O 76.1551 1.87258 3.96063 0
M  V30 828 C 77.6561 0.131422 4.43105 0
M  V30 829 H 74.8761 0.172923 0.648335 0
M  V30 830 H 77.4201 1.1184 1.71208 0
M  V30 831 H 75.5751 -0.105938 3.87255 0
M  V30 832 H 75.9891 1.85087 4.90758 0
M  V30 833 H 77.4631 0.251904 5.51425 0
M  V30 834 H 77.9401 -0.925645 4.29335 0
M  V30 835 H 78.5461 0.743207 4.18756 0
M  V30 836 N 76.8612 -1.46375 0.584142 0
M  V30 837 C 78.0912 -2.06461 0.0758195 0
M  V30 838 C 78.4992 -1.43322 -1.23512 0
M  V30 839 O 77.8422 -0.533216 -1.75791 0
M  V30 840 C 77.9042 -3.59131 -0.162773 0
M  V30 841 C 77.5682 -4.4447 1.06279 0
M  V30 842 C 78.5652 -4.80918 1.97519 0
M  V30 843 C 76.2502 -4.85584 1.28504 0
M  V30 844 C 78.2442 -5.57309 3.09331 0
M  V30 845 C 75.9312 -5.61734 2.4062 0
M  V30 846 C 76.9292 -5.9751 3.30863 0
M  V30 847 O 76.6172 -6.72121 4.41032 0
M  V30 848 H 76.3492 -0.673745 0.0551725 0
M  V30 849 H 78.9032 -1.88969 0.804984 0
M  V30 850 H 77.1332 -3.74936 -0.946565 0
M  V30 851 H 78.8222 -4.0114 -0.619782 0
M  V30 852 H 79.5882 -4.49732 1.81565 0
M  V30 853 H 75.4672 -4.57187 0.591702 0
M  V30 854 H 79.0112 -5.85152 3.79793 0
M  V30 855 H 74.9082 -5.92334 2.56537 0
M  V30 856 H 75.6762 -6.90547 4.39417 0
M  V30 857 N 78.3393 -0.321999 -1.54275 0
M  V30 858 C 79.7503 0.166384 -1.85957 0
M  V30 859 C 80.1013 1.51747 -1.24367 0
M  V30 860 O 79.2263 2.09317 -0.549124 0
M  V30 861 C 79.8213 0.308681 -3.37391 0
M  V30 862 C 78.3803 0.741286 -3.69028 0
M  V30 863 C 77.5273 -0.137937 -2.76957 0
M  V30 864 H 80.4783 -0.542335 -1.49146 0
M  V30 865 H 80.4993 1.13984 -3.63026 0
M  V30 866 H 80.0113 -0.674809 -3.82188 0
M  V30 867 H 78.1123 1.73458 -3.29762 0
M  V30 868 H 78.2253 0.546118 -4.75977 0
M  V30 869 H 76.5893 0.386251 -2.51754 0
M  V30 870 H 77.3723 -1.11816 -3.2458 0
M  V30 871 N 79.8174 1.5752 -0.0501392 0
M  V30 872 C 80.7274 2.14952 0.939827 0
M  V30 873 C 81.7434 1.10706 1.34239 0
M  V30 874 O 82.9194 1.42869 1.41952 0
M  V30 875 C 79.9844 2.68232 2.19665 0
M  V30 876 C 79.0454 3.87272 1.85253 0
M  V30 877 C 78.2784 4.38002 3.04943 0
M  V30 878 O 78.5014 3.87811 4.18281 0
M  V30 879 O 77.4354 5.29602 2.86017 0
M  V30 880 H 81.2614 2.9986 0.481392 0
M  V30 881 H 78.8464 1.4841 0.171699 0
M  V30 882 H 80.7284 3.02475 2.93406 0
M  V30 883 H 79.4034 1.86395 2.64648 0
M  V30 884 H 78.3104 3.5792 1.0883 0
M  V30 885 H 79.6434 4.70336 1.4507 0
M  V30 886 N 81.2955 -0.223234 1.56011 0
M  V30 887 C 82.5235 -0.964812 1.83027 0
M  V30 888 C 82.9385 -1.78013 0.62904 0
M  V30 889 O 82.2955 -1.78008 -0.402414 0
M  V30 890 C 82.3465 -1.88373 3.08542 0
M  V30 891 O 82.0675 -1.10137 4.2403 0
M  V30 892 C 83.5685 -2.73934 3.48533 0
M  V30 893 H 80.7885 -0.282842 0.608475 0
M  V30 894 H 83.3325 -0.238971 2.03099 0
M  V30 895 H 81.4875 -2.56354 2.9045 0
M  V30 896 H 81.9015 -1.72501 4.95322 0
M  V30 897 H 83.3755 -3.34117 4.39397 0
M  V30 898 H 83.8525 -3.46244 2.70207 0
M  V30 899 H 84.4585 -2.11369 3.69057 0
M  V30 900 N 82.7736 -1.49793 -0.48987 0
M  V30 901 C 84.1846 -1.52914 -1.07118 0
M  V30 902 C 84.5356 -0.321738 -1.93544 0
M  V30 903 O 83.6606 0.567338 -2.08831 0
M  V30 904 C 84.2556 -2.771 -1.94938 0
M  V30 905 C 82.8146 -2.82963 -2.48212 0
M  V30 906 C 81.9616 -2.46972 -1.26096 0
M  V30 907 H 84.9126 -1.56329 -0.273289 0
M  V30 908 H 84.9336 -2.57892 -2.79771 0
M  V30 909 H 84.4456 -3.64959 -1.32009 0
M  V30 910 H 82.5466 -1.99411 -3.14748 0
M  V30 911 H 82.6596 -3.85406 -2.84603 0
M  V30 912 H 81.0236 -1.98994 -1.58976 0
M  V30 913 H 81.8066 -3.37118 -0.648581 0
M  V30 914 N 84.2517 0.741722 -1.39055 0
M  V30 915 C 85.6677 1.04638 -1.20512 0
M  V30 916 C 85.8677 2.01405 -0.0620218 0
M  V30 917 O 84.9237 2.45547 0.588457 0
M  V30 918 C 86.2367 1.6151 -2.53643 0
M  V30 919 C 87.7847 1.73623 -2.6043 0
M  V30 920 C 88.2597 2.33906 -3.93767 0
M  V30 921 N 89.7507 2.41323 -3.9537 0
M  V30 922 C 90.4857 2.88888 -4.95309 0
M  V30 923 N 89.9817 3.36401 -6.05645 0
M  V30 924 N 91.7747 2.88037 -4.82692 0
M  V30 925 H 83.9257 0.0998155 -2.12165 0
M  V30 926 H 86.1887 0.106907 -0.941953 0
M  V30 927 H 85.8947 0.978739 -3.37807 0
M  V30 928 H 85.7687 2.60411 -2.72885 0
M  V30 929 H 88.1557 2.36384 -1.76655 0
M  V30 930 H 88.2367 0.733945 -2.45045 0
M  V30 931 H 87.8807 1.71776 -4.7797 0
M  V30 932 H 87.8107 3.34799 -4.06469 0
M  V30 933 H 90.3017 2.07734 -3.15682 0
M  V30 934 H 90.6147 3.71186 -6.77821 0
M  V30 935 H 88.9597 3.34427 -6.09248 0
M  V30 936 H 92.1507 2.50237 -3.95599 0
M  V30 937 H 92.3237 3.24792 -5.60726 0
M  V30 938 N 85.7298 1.2412 0.971189 0
M  V30 939 C 86.6398 1.04747 2.09917 0
M  V30 940 C 87.6558 -0.0107162 1.73997 0
M  V30 941 O 88.8318 0.186714 2.00533 0
M  V30 942 C 85.8968 0.650828 3.40537 0
M  V30 943 C 84.9578 1.7851 3.90426 0
M  V30 944 C 84.1908 1.40729 5.14812 0
M  V30 945 O 84.4138 0.29557 5.69634 0
M  V30 946 O 83.3478 2.23168 5.58999 0
M  V30 947 H 87.1738 1.99304 2.29154 0
M  V30 948 H 84.7588 1.02908 1.08307 0
M  V30 949 H 86.6408 0.440992 4.19086 0
M  V30 950 H 85.3158 -0.265649 3.22608 0
M  V30 951 H 84.2228 2.04966 3.12953 0
M  V30 952 H 85.5558 2.68023 4.12825 0
M  V30 953 N 87.2079 -1.17134 1.05439 0
M  V30 954 C 88.6189 -1.69084 0.791676 0
M  V30 955 C 88.9699 -1.83822 -0.685839 0
M  V30 956 O 88.0949 -1.52757 -1.53278 0
M  V30 957 C 88.6899 -3.07119 1.4305 0
M  V30 958 C 87.2489 -3.56225 1.21577 0
M  V30 959 C 86.3959 -2.32421 1.51247 0
M  V30 960 H 89.3469 -1.01617 1.219 0
M  V30 961 H 89.3679 -3.71087 0.84112 0
M  V30 962 H 88.8799 -2.9636 2.50584 0
M  V30 963 H 86.9809 -3.72257 0.159787 0
M  V30 964 H 87.0939 -4.38837 1.92246 0
M  V30 965 H 85.4579 -2.3701 0.932653 0
M  V30 966 H 86.2409 -2.24268 2.5992 0
M  V30 967 N 88.686 -0.835752 -1.33615 0
M  V30 968 C 89.914 -0.443344 -2.02094 0
M  V30 969 C 90.329 0.954522 -1.62894 0
M  V30 970 O 89.686 1.61982 -0.840723 0
M  V30 971 C 89.737 -0.550775 -3.5728 0
M  V30 972 O 89.458 -1.89356 -3.95065 0
M  V30 973 C 90.959 -0.154919 -4.43029 0
M  V30 974 H 88.179 -0.176359 -0.647409 0
M  V30 975 H 90.723 -1.12746 -1.70612 0
M  V30 976 H 88.878 0.0853997 -3.87306 0
M  V30 977 H 89.292 -1.87687 -4.89769 0
M  V30 978 H 90.766 -0.281144 -5.51284 0
M  V30 979 H 91.243 0.902863 -4.2982 0
M  V30 980 H 91.849 -0.765404 -4.18356 0
M  V30 981 N 90.1641 1.46063 -0.591896 0
M  V30 982 C 91.4121 2.01938 -0.0808391 0
M  V30 983 C 91.7331 1.46475 1.28725 0
M  V30 984 O 91.0031 0.652944 1.84698 0
M  V30 985 H 89.5831 0.746516 -0.0268938 0
M  V30 986 H 92.2451 1.79055 -0.769752 0
M  V30 987 H 91.3411 3.12094 -0.0187578 0
M  V30 988 N 91.6422 0.330177 1.54103 0
M  V30 989 C 93.0582 -0.0222371 1.59585 0
M  V30 990 C 93.2582 -1.49902 1.34654 0
M  V30 991 O 92.3142 -2.25592 1.13421 0
M  V30 992 C 93.6272 0.401932 2.98002 0
M  V30 993 C 95.1752 0.353145 3.11001 0
M  V30 994 C 95.6502 0.752576 4.51775 0
M  V30 995 N 97.1412 0.706239 4.57784 0
M  V30 996 C 97.8762 0.987417 5.64834 0
M  V30 997 N 97.3722 1.33607 6.79795 0
M  V30 998 N 99.1652 0.91254 5.54643 0
M  V30 999 H 91.3162 1.29228 1.68564 0
M  V30 1000 H 93.5792 0.525906 0.78875 0
M  V30 1001 H 93.2852 1.4311 3.21267 0
M  V30 1002 H 93.1592 -0.229699 3.765 0
M  V30 1003 H 95.5462 -0.666822 2.87467 0
M  V30 1004 H 95.6272 1.0198 2.34593 0
M  V30 1005 H 95.2712 1.77049 4.76042 0
M  V30 1006 H 95.2012 0.0635409 5.26562 0
M  V30 1007 H 97.6922 0.44889 3.75224 0
M  V30 1008 H 98.0052 1.53582 7.57385 0
M  V30 1009 H 96.3502 1.37439 6.81275 0
M  V30 1010 H 99.5412 0.639601 4.6371 0
M  V30 1011 H 99.7142 1.13503 6.37982 0
M  V30 1012 N 93.1203 -1.57491 0.0584922 0
M  V30 1013 C 94.3693 -1.92155 -0.613146 0
M  V30 1014 C 94.6823 -0.939334 -1.71569 0
M  V30 1015 O 95.8883 -1.17829 -2.44599 0
M  V30 1016 C 94.3443 -3.41303 -1.14195 0
M  V30 1017 C 93.9523 -4.47944 -0.0711265 0
M  V30 1018 C 95.6963 -3.84988 -1.78841 0
M  V30 1019 C 93.6033 -5.88212 -0.613225 0
M  V30 1020 H 92.5333 -0.717162 -0.232796 0
M  V30 1021 H 95.1843 -1.83049 0.12857 0
M  V30 1022 H 93.5663 -3.45437 -1.93621 0
M  V30 1023 H 94.7403 -4.55408 0.702836 0
M  V30 1024 H 93.0553 -4.13644 0.478313 0
M  V30 1025 H 95.6523 -4.87159 -2.20408 0
M  V30 1026 H 95.9953 -3.21632 -2.64308 0
M  V30 1027 H 96.5283 -3.83401 -1.06059 0
M  V30 1028 H 93.2673 -6.55183 0.203978 0
M  V30 1029 H 92.7873 -5.84294 -1.35501 0
M  V30 1030 H 94.4663 -6.37687 -1.09383 0
M  V30 1031 N 94.5984 0.214957 -1.56127 0
M  V30 1032 C 95.8444 0.939762 -1.79712 0
M  V30 1033 C 96.1774 1.83723 -0.629247 0
M  V30 1034 O 95.4524 1.90925 0.371197 0
M  V30 1035 C 95.7354 1.77306 -3.13424 0
M  V30 1036 C 95.5884 0.90164 -4.40671 0
M  V30 1037 C 96.9074 2.74956 -3.43638 0
M  V30 1038 H 94.0264 0.340214 -0.653776 0
M  V30 1039 H 96.6684 0.20824 -1.88855 0
M  V30 1040 H 94.8184 2.39673 -3.0576 0
M  V30 1041 H 96.4904 0.294206 -4.60361 0
M  V30 1042 H 94.7334 0.207368 -4.33304 0
M  V30 1043 H 95.4044 1.51923 -5.30682 0
M  V30 1044 H 97.8804 2.22724 -3.51473 0
M  V30 1045 H 96.7564 3.30358 -4.38355 0
M  V30 1046 H 97.0174 3.53023 -2.66134 0
M  V30 1047 N 96.0765 1.50051 0.48192 0
M  V30 1048 C 97.3165 1.62128 1.24474 0
M  V30 1049 C 97.6805 0.309742 1.89485 0
M  V30 1050 O 98.8815 0.305854 2.67054 0
M  V30 1051 C 97.1525 2.76151 2.26882 0
M  V30 1052 S 98.7115 3.08297 3.12247 0
M  V30 1053 H 95.5295 0.571661 0.422759 0
M  V30 1054 H 98.1315 1.87791 0.54359 0
M  V30 1055 H 96.8355 3.69942 1.77683 0
M  V30 1056 H 96.3665 2.52541 3.0164 0
M  V30 1057 H 98.3815 2.51287 4.27866 0
M  V30 1058 N 97.5546 -0.734337 1.39446 0
M  V30 1059 C 98.5176 -1.83004 1.37994 0
M  V30 1060 C 99.5176 -1.58397 0.276938 0
M  V30 1061 O 100.708 -1.65785 0.534875 0
M  V30 1062 C 97.8396 -3.20802 1.1532 0
M  V30 1063 H 99.0326 -1.85694 2.35494 0
M  V30 1064 H 96.5856 -0.938059 1.25021 0
M  V30 1065 H 97.3206 -3.23772 0.185036 0
M  V30 1066 H 97.1056 -3.4006 1.95197 0
M  V30 1067 H 98.5956 -4.00862 1.17046 0
M  V30 1068 N 99.0327 -1.24633 -0.964593 0
M  V30 1069 C 99.9807 -1.03917 -2.08096 0
M  V30 1070 C 100.975 0.0268581 -1.69379 0
M  V30 1071 O 102.181 -0.127952 -1.79545 0
M  V30 1072 H 98.5557 -0.319044 -0.680966 0
M  V30 1073 H 100.527 -1.98581 -2.22729 0
M  V30 1074 C 99.2757 -0.663983 -3.41301 0
M  V30 1075 H 98.5987 -1.47605 -3.71555 0
M  V30 1076 H 100.039 -0.558663 -4.20303 0
M  V30 1077 C 98.4977 0.629169 -3.30973 0
M  V30 1078 O 99.0277 1.67404 -3.65156 0
M  V30 1079 N 97.2337 0.611057 -2.84103 0
M  V30 1080 H 96.7807 -0.239593 -2.56483 0
M  V30 1081 H 96.7387 1.47647 -2.77575 0
M  V30 1082 N 100.511 1.16574 -1.06058 0
M  V30 1083 C 101.751 1.88723 -0.78504 0
M  V30 1084 C 102.115 1.79706 0.676006 0
M  V30 1085 O 103.316 2.46757 1.06603 0
M  V30 1086 C 101.587 3.34338 -1.26304 0
M  V30 1087 S 103.146 4.24366 -1.1162 0
M  V30 1088 H 99.9638 0.651448 -0.284846 0
M  V30 1089 H 102.566 1.40732 -1.35701 0
M  V30 1090 H 101.27 3.38439 -2.32136 0
M  V30 1091 H 100.801 3.87378 -0.685719 0
M  V30 1092 H 102.816 4.96179 -0.0456539 0
M  V30 1093 N 101.989 0.842826 1.3317 0
M  V30 1094 C 102.939 0.250877 2.26616 0
M  V30 1095 C 103.923 -0.596427 1.49437 0
M  V30 1096 O 105.115 -0.447747 1.71243 0
M  V30 1097 C 102.244 -0.569779 3.38539 0
M  V30 1098 C 101.33 0.289254 4.23112 0
M  V30 1099 N 101.721 1.36987 4.86897 0
M  V30 1100 C 100.019 0.0769631 4.45934 0
M  V30 1101 C 100.72 1.89737 5.49886 0
M  V30 1102 N 99.6959 1.19827 5.30229 0
M  V30 1103 H 103.498 1.07718 2.73448 0
M  V30 1104 H 101.012 0.687693 1.47121 0
M  V30 1105 H 103.009 -1.01018 4.04476 0
M  V30 1106 H 101.669 -1.39401 2.93253 0
M  V30 1107 H 102.68 1.75277 4.87338 0
M  V30 1108 H 99.3569 -0.713507 4.11358 0
M  V30 1109 H 100.747 2.80253 6.10662 0
M  V30 1110 N 103.467 -1.45747 0.599634 0
M  V30 1111 C 104.397 -2.33235 -0.111306 0
M  V30 1112 C 105.378 -1.46359 -0.866781 0
M  V30 1113 O 106.563 -1.75146 -0.838904 0
M  V30 1114 C 103.693 -3.28932 -1.11451 0
M  V30 1115 C 102.647 -4.25381 -0.472772 0
M  V30 1116 C 101.973 -5.1071 -1.58365 0
M  V30 1117 C 103.273 -5.18831 0.600948 0
M  V30 1118 H 104.967 -2.92927 0.61919 0
M  V30 1119 H 102.513 -1.40857 0.299215 0
M  V30 1120 H 104.466 -3.89002 -1.62036 0
M  V30 1121 H 103.19 -2.67381 -1.8755 0
M  V30 1122 H 101.849 -3.66598 0.0121472 0
M  V30 1123 H 101.497 -4.45533 -2.33473 0
M  V30 1124 H 101.197 -5.7604 -1.15982 0
M  V30 1125 H 102.721 -5.73647 -2.09194 0
M  V30 1126 H 104.135 -5.73019 0.179491 0
M  V30 1127 H 102.532 -5.92595 0.946076 0
M  V30 1128 H 103.602 -4.6174 1.48068 0
M  V30 1129 N 104.945 -0.338344 -1.53925 0
M  V30 1130 C 105.908 0.508299 -2.23493 0
M  V30 1131 C 106.908 1.03175 -1.23335 0
M  V30 1132 O 108.098 0.921826 -1.47811 0
M  V30 1133 C 105.23 1.70754 -2.95052 0
M  V30 1134 H 106.423 -0.100058 -2.99733 0
M  V30 1135 H 103.976 -0.0896198 -1.56043 0
M  V30 1136 H 104.711 2.35474 -2.22986 0
M  V30 1137 H 104.496 1.33946 -3.68512 0
M  V30 1138 H 105.986 2.30818 -3.48013 0
M  V30 1139 N 106.423 1.57458 -0.0668435 0
M  V30 1140 C 107.386 2.11323 0.887422 0
M  V30 1141 C 108.386 1.03618 1.22964 0
M  V30 1142 O 109.576 1.29626 1.16373 0
M  V30 1143 C 106.708 2.61048 2.19242 0
M  V30 1144 H 107.901 2.96942 0.420194 0
M  V30 1145 H 105.454 1.55239 0.181793 0
M  V30 1146 H 106.189 1.78868 2.70512 0
M  V30 1147 H 105.974 3.39769 1.95702 0
M  V30 1148 H 107.464 3.02814 2.87565 0
M  V30 1149 N 107.901 -0.206675 1.56239 0
M  V30 1150 C 108.848 -1.25617 1.93621 0
M  V30 1151 C 109.818 -1.45824 0.795274 0
M  V30 1152 O 111.003 -1.59148 1.05245 0
M  V30 1153 C 108.143 -2.59839 2.27107 0
M  V30 1154 C 107.256 -2.47308 3.54207 0
M  V30 1155 C 106.391 -3.74155 3.7707 0
M  V30 1156 C 105.43 -3.56407 4.97635 0
M  V30 1157 N 104.567 -4.75238 5.1681 0
M  V30 1158 H 109.407 -0.930383 2.83104 0
M  V30 1159 H 106.944 -0.448065 1.4011 0
M  V30 1160 H 108.902 -3.38021 2.44535 0
M  V30 1161 H 107.532 -2.90485 1.40778 0
M  V30 1162 H 106.584 -1.60483 3.4489 0
M  V30 1163 H 107.896 -2.30122 4.42544 0
M  V30 1164 H 107.05 -4.60778 3.94675 0
M  V30 1165 H 105.789 -3.94282 2.87042 0
M  V30 1166 H 104.794 -2.68168 4.79964 0
M  V30 1167 H 106.019 -3.37736 5.89161 0
M  V30 1168 H 103.965 -4.95651 4.29728 0
M  V30 1169 H 103.882 -4.60835 5.99306 0
M  V30 1170 H 105.15 -5.63246 5.38864 0
M  V30 1171 N 109.379 -1.50304 -0.473955 0
M  V30 1172 C 110.79 -1.54042 -1.0549 0
M  V30 1173 C 111.141 -0.342248 -1.93192 0
M  V30 1174 O 110.266 0.545157 -2.09421 0
M  V30 1175 C 110.861 -2.79152 -1.91989 0
M  V30 1176 C 109.42 -2.8558 -2.45196 0
M  V30 1177 C 108.567 -2.48295 -1.2347 0
M  V30 1178 H 111.518 -1.5661 -0.256693 0
M  V30 1179 H 111.539 -2.60845 -2.7702 0
M  V30 1180 H 111.051 -3.66339 -1.28131 0
M  V30 1181 H 109.152 -2.02738 -3.12615 0
M  V30 1182 H 109.265 -3.88403 -2.80499 0
M  V30 1183 H 107.629 -2.00669 -1.56856 0
M  V30 1184 H 108.412 -3.37787 -0.612789 0
M  V30 1185 N 110.857 0.726932 -1.39834 0
M  V30 1186 C 111.82 1.82269 -1.38962 0
M  V30 1187 C 112.82 1.58248 -0.285334 0
M  V30 1188 O 114.01 1.65499 -0.54366 0
M  V30 1189 C 111.142 3.20186 -1.17019 0
M  V30 1190 H 112.335 1.84443 -2.36476 0
M  V30 1191 H 109.888 0.931416 -1.25516 0
M  V30 1192 H 110.623 3.23669 -0.202204 0
M  V30 1193 H 110.408 3.3902 -1.96998 0
M  V30 1194 H 111.898 4.00235 -1.1917 0
M  V30 1195 N 112.336 1.25143 0.95797 0
M  V30 1196 C 113.246 1.06968 2.08794 0
M  V30 1197 C 114.262 0.00773911 1.73998 0
M  V30 1198 O 115.438 0.207972 2.00323 0
M  V30 1199 C 112.503 0.68691 3.39827 0
M  V30 1200 C 111.564 1.82641 3.88511 0
M  V30 1201 C 110.797 1.46181 5.1329 0
M  V30 1202 O 111.02 0.355971 5.69288 0
M  V30 1203 O 109.954 2.29085 5.566 0
M  V30 1204 H 113.78 2.01723 2.27027 0
M  V30 1205 H 111.365 1.04051 1.07209 0
M  V30 1206 H 113.247 0.485417 4.18595 0
M  V30 1207 H 111.922 -0.231417 3.22872 0
M  V30 1208 H 110.829 2.08274 3.10762 0
M  V30 1209 H 112.162 2.72386 4.09959 0
M  V30 1210 N 113.814 -1.1601 1.06675 0
M  V30 1211 C 115.06 -1.86909 0.786945 0
M  V30 1212 C 115.393 -1.81717 -0.685018 0
M  V30 1213 O 114.668 -1.23551 -1.50218 0
M  V30 1214 C 114.951 -3.36313 1.28707 0
M  V30 1215 C 114.804 -3.50175 2.82308 0
M  V30 1216 C 116.123 -4.3084 0.898071 0
M  V30 1217 H 113.242 -0.678677 0.287343 0
M  V30 1218 H 115.884 -1.36336 1.32334 0
M  V30 1219 H 114.034 -3.79513 0.830768 0
M  V30 1220 H 115.706 -3.15886 3.36175 0
M  V30 1221 H 113.949 -2.91959 3.20847 0
M  V30 1222 H 114.62 -4.55116 3.12368 0
M  V30 1223 H 117.096 -3.95561 1.29114 0
M  V30 1224 H 115.972 -5.33876 1.27543 0
M  V30 1225 H 116.233 -4.41662 -0.196651 0
M  V30 1226 N 115.292 -0.849877 -1.32721 0
M  V30 1227 C 116.202 -0.293791 -2.32753 0
M  V30 1228 C 117.218 0.585906 -1.63839 0
M  V30 1229 O 118.394 0.487413 -1.95413 0
M  V30 1230 C 115.459 0.512752 -3.42887 0
M  V30 1231 C 114.52 -0.39252 -4.27502 0
M  V30 1232 C 113.753 0.375625 -5.32377 0
M  V30 1233 O 113.976 1.60613 -5.4732 0
M  V30 1234 O 112.91 -0.256094 -6.01355 0
M  V30 1235 H 116.736 -1.12242 -2.82197 0
M  V30 1236 H 114.321 -0.612685 -1.36259 0
M  V30 1237 H 116.203 0.970704 -4.10067 0
M  V30 1238 H 114.878 1.31826 -2.95641 0
M  V30 1239 H 113.785 -0.898547 -3.63149 0
M  V30 1240 H 115.118 -1.16309 -4.7826 0
M  V30 1241 N 116.77 1.45427 -0.607355 0
M  V30 1242 C 118.016 2.0254 -0.102607 0
M  V30 1243 C 118.349 1.47478 1.26348 0
M  V30 1244 O 117.624 0.64939 1.83339 0
M  V30 1245 C 117.907 3.60044 -0.0634347 0
M  V30 1246 C 117.76 4.2544 -1.46017 0
M  V30 1247 C 119.079 4.35646 0.624514 0
M  V30 1248 H 116.198 0.73598 -0.0387607 0
M  V30 1249 H 118.84 1.73284 -0.779282 0
M  V30 1250 H 116.99 3.85101 0.512808 0
M  V30 1251 H 118.662 4.11569 -2.08347 0
M  V30 1252 H 116.905 3.83849 -2.02094 0
M  V30 1253 H 117.576 5.34342 -1.385 0
M  V30 1254 H 120.052 4.15882 0.134723 0
M  V30 1255 H 118.928 5.45376 0.621028 0
M  V30 1256 H 119.189 4.08501 1.69055 0
M  V30 1257 N 118.248 0.346503 1.53744 0
M  V30 1258 C 119.659 -0.136779 1.86198 0
M  V30 1259 C 120.01 -1.49749 1.26766 0
M  V30 1260 O 119.135 -2.08417 0.582355 0
M  V30 1261 C 119.73 -0.254966 3.37839 0
M  V30 1262 C 118.289 -0.682482 3.70161 0
M  V30 1263 C 117.436 0.181981 2.76702 0
M  V30 1264 H 120.387 0.565994 1.48264 0
M  V30 1265 H 120.408 -1.08195 3.64793 0
M  V30 1266 H 119.92 0.735526 3.81066 0
M  V30 1267 H 118.021 -1.68189 3.3248 0
M  V30 1268 H 118.134 -0.470326 4.76786 0
M  V30 1269 H 116.498 -0.34615 2.52337 0
M  V30 1270 H 117.281 1.16966 3.2276 0
M  V30 1271 N 119.726 -1.57421 0.075193 0
M  V30 1272 C 120.658 -2.09904 -0.920483 0
M  V30 1273 C 121.671 -1.03191 -1.25918 0
M  V30 1274 O 122.86 -1.30695 -1.21577 0
M  V30 1275 C 119.96 -2.54726 -2.23534 0
M  V30 1276 C 119.133 -3.8505 -2.07498 0
M  V30 1277 C 118.192 -4.15929 -3.22319 0
M  V30 1278 O 117.218 -4.85474 -2.9716 0
M  V30 1279 N 118.42 -3.69745 -4.47514 0
M  V30 1280 H 121.185 -2.95954 -0.472359 0
M  V30 1281 H 118.746 -1.61523 -0.110444 0
M  V30 1282 H 120.738 -2.72443 -2.9926 0
M  V30 1283 H 119.308 -1.73795 -2.59835 0
M  V30 1284 H 118.528 -3.76679 -1.16219 0
M  V30 1285 H 119.816 -4.70348 -1.94038 0
M  V30 1286 H 119.214 -3.13569 -4.7084 0
M  V30 1287 H 117.771 -3.92655 -5.20255 0
M  V30 1288 N 121.204 0.198386 -1.56346 0
M  V30 1289 C 122.429 0.939682 -1.84891 0
M  V30 1290 C 122.854 1.76202 -0.658369 0
M  V30 1291 O 122.212 1.76993 0.392851 0
M  V30 1292 C 122.26 1.81428 -3.11635 0
M  V30 1293 O 121.364 2.91265 -2.91956 0
M  V30 1294 H 120.705 0.264807 -0.608912 0
M  V30 1295 H 123.235 0.204695 -2.03573 0
M  V30 1296 H 123.245 2.21958 -3.42343 0
M  V30 1297 H 121.92 1.21004 -3.97908 0
M  V30 1298 H 120.497 2.54514 -2.72538 0
M  V30 1299 N 122.682 1.50554 0.465978 0
M  V30 1300 C 123.928 1.62038 1.21949 0
M  V30 1301 C 124.261 0.322116 1.9151 0
M  V30 1302 O 123.536 -0.676723 1.82348 0
M  V30 1303 C 123.819 2.80421 2.25912 0
M  V30 1304 C 123.672 4.20144 1.60622 0
M  V30 1305 C 124.991 2.94354 3.27176 0
M  V30 1306 H 122.11 0.589752 0.441998 0
M  V30 1307 H 124.752 1.82956 0.51257 0
M  V30 1308 H 122.902 2.62717 2.86203 0
M  V30 1309 H 124.574 4.49449 1.03889 0
M  V30 1310 H 122.817 4.24165 0.909211 0
M  V30 1311 H 123.488 4.98914 2.36196 0
M  V30 1312 H 125.964 3.10578 2.76913 0
M  V30 1313 H 124.84 3.788 3.97242 0
M  V30 1314 H 125.101 2.05186 3.916 0
M  V30 1315 N 124.16 -0.719506 1.40217 0
M  V30 1316 C 125.09 -1.8465 1.42922 0
M  V30 1317 C 126.071 -1.67599 0.29062 0
M  V30 1318 O 127.256 -1.87688 0.498677 0
M  V30 1319 C 124.386 -3.22565 1.28722 0
M  V30 1320 C 123.34 -3.54281 2.40144 0
M  V30 1321 C 122.666 -4.91298 2.11023 0
M  V30 1322 C 123.966 -3.55676 3.82481 0
M  V30 1323 H 125.66 -1.82644 2.37237 0
M  V30 1324 H 123.206 -0.877305 1.1419 0
M  V30 1325 H 125.159 -4.01095 1.29232 0
M  V30 1326 H 123.883 -3.25137 0.308811 0
M  V30 1327 H 122.542 -2.78088 2.38877 0
M  V30 1328 H 122.19 -4.90468 1.11582 0
M  V30 1329 H 121.89 -5.13485 2.8567 0
M  V30 1330 H 123.414 -5.72166 2.13209 0
M  V30 1331 H 124.828 -4.24254 3.85592 0
M  V30 1332 H 123.225 -3.89388 4.56614 0
M  V30 1333 H 124.295 -2.55144 4.12346 0
M  V30 1334 N 125.638 -1.25649 -0.95132 0
M  V30 1335 C 127.049 -1.09654 -1.51106 0
M  V30 1336 C 127.4 0.326615 -1.93462 0
M  V30 1337 O 126.525 1.21697 -1.78938 0
M  V30 1338 C 127.12 -1.98437 -2.74605 0
M  V30 1339 C 125.679 -1.86618 -3.2688 0
M  V30 1340 C 124.826 -1.9239 -1.99703 0
M  V30 1341 H 127.777 -1.38887 -0.767865 0
M  V30 1342 H 127.798 -1.5263 -3.48546 0
M  V30 1343 H 127.31 -3.02009 -2.43746 0
M  V30 1344 H 125.411 -0.859421 -3.62553 0
M  V30 1345 H 125.524 -2.71607 -3.94673 0
M  V30 1346 H 123.888 -1.36317 -2.15151 0
M  V30 1347 H 124.671 -2.97573 -1.71188 0
M  V30 1348 N 127.117 1.15442 -1.07289 0
M  V30 1349 C 128.394 1.82306 -0.708792 0
M  V30 1350 C 128.774 1.94991 0.808807 0
M  V30 1351 O 128.122 1.50085 1.72298 0
M  V30 1352 C 128.332 3.18695 -1.42247 0
M  V30 1353 C 129.68 3.94341 -1.57417 0
M  V30 1354 O 130.704 3.28247 -1.38319 0
M  V30 1355 O 129.563 5.12839 -1.88834 0
M  V30 1356 H 126.657 0.787628 -0.252132 0
M  V30 1357 H 129.203 1.22559 -1.17377 0
M  V30 1358 H 127.975 3.04557 -2.45684 0
M  V30 1359 H 127.598 3.86128 -0.948223 0
M  V30 1360 N 128.595 0.856903 1.32268 0
M  V30 1361 C 129.823 0.475439 2.01363 0
M  V30 1362 C 130.238 -0.928486 1.64392 0
M  V30 1363 O 129.595 -1.60624 0.866387 0
M  V30 1364 C 129.646 0.607545 3.56358 0
M  V30 1365 O 129.367 1.95617 3.92002 0
M  V30 1366 C 130.868 0.225382 4.42727 0
M  V30 1367 H 128.088 0.186636 0.644521 0
M  V30 1368 H 130.632 1.15446 1.68797 0
M  V30 1369 H 128.787 -0.0237719 3.87393 0
M  V30 1370 H 129.201 1.95455 4.86721 0
M  V30 1371 H 130.675 0.368813 5.50767 0
M  V30 1372 H 131.152 -0.834369 4.31202 0
M  V30 1373 H 131.758 0.831864 4.17085 0
M  V30 1374 N 130.073 -1.45103 0.615059 0
M  V30 1375 C 131.319 -2.02483 0.113347 0
M  V30 1376 C 131.652 -1.48146 -1.25564 0
M  V30 1377 O 130.927 -0.659104 -1.82992 0
M  V30 1378 C 131.21 -3.60005 0.0825278 0
M  V30 1379 C 131.063 -4.2466 1.48271 0
M  V30 1380 C 132.382 -4.35972 -0.601401 0
M  V30 1381 H 129.501 -0.735764 0.0426632 0
M  V30 1382 H 132.143 -1.72868 0.788461 0
M  V30 1383 H 130.293 -3.85367 -0.492378 0
M  V30 1384 H 131.965 -4.10458 2.10527 0
M  V30 1385 H 130.208 -3.82772 2.04127 0
M  V30 1386 H 130.879 -5.336 1.41332 0
M  V30 1387 H 133.355 -4.15947 -0.112666 0
M  V30 1388 H 132.231 -5.45697 -0.592097 0
M  V30 1389 H 132.492 -4.09391 -1.66887 0
M  V30 1390 N 131.551 -0.354651 -1.53558 0
M  V30 1391 C 132.798 0.238443 -2.01091 0
M  V30 1392 C 133.126 1.49663 -1.24222 0
M  V30 1393 O 132.381 1.93049 -0.321003 0
M  V30 1394 C 132.68 0.587121 -3.52545 0
M  V30 1395 C 132.346 -0.575472 -4.47213 0
M  V30 1396 C 131.008 -0.894497 -4.72813 0
M  V30 1397 C 133.36 -1.35489 -5.03281 0
M  V30 1398 C 130.688 -1.99511 -5.51736 0
M  V30 1399 C 133.04 -2.44583 -5.83405 0
M  V30 1400 C 131.704 -2.77033 -6.07296 0
M  V30 1401 H 130.974 0.0872526 -0.735845 0
M  V30 1402 H 133.621 -0.484859 -1.8526 0
M  V30 1403 H 131.926 1.39129 -3.66265 0
M  V30 1404 H 133.623 1.05809 -3.86789 0
M  V30 1405 H 130.213 -0.316774 -4.27428 0
M  V30 1406 H 134.397 -1.12167 -4.83459 0
M  V30 1407 H 129.653 -2.25063 -5.68469 0
M  V30 1408 H 133.827 -3.05401 -6.25862 0
M  V30 1409 H 131.454 -3.6244 -6.68237 0
M  V30 1410 N 133.029 1.57378 -0.0835403 0
M  V30 1411 C 133.976 2.13384 0.879539 0
M  V30 1412 C 134.946 1.04936 1.28754 0
M  V30 1413 O 136.131 1.32662 1.37133 0
M  V30 1414 C 133.271 2.70932 2.13752 0
M  V30 1415 C 132.384 3.93575 1.7811 0
M  V30 1416 C 131.519 4.39326 2.98607 0
M  V30 1417 C 130.558 5.54587 2.59037 0
M  V30 1418 N 129.695 5.95243 3.72331 0
M  V30 1419 H 134.535 2.9537 0.395076 0
M  V30 1420 H 132.072 1.45953 0.183349 0
M  V30 1421 H 134.03 3.02411 2.87408 0
M  V30 1422 H 132.66 1.91693 2.59718 0
M  V30 1423 H 131.712 3.68483 0.94469 0
M  V30 1424 H 133.024 4.77258 1.45005 0
M  V30 1425 H 132.178 4.72528 3.80529 0
M  V30 1426 H 130.917 3.5452 3.34913 0
M  V30 1427 H 129.922 5.21024 1.75539 0
M  V30 1428 H 131.147 6.41133 2.23887 0
M  V30 1429 H 129.093 5.13385 4.08378 0
M  V30 1430 H 129.01 6.73694 3.43034 0
M  V30 1431 H 130.278 6.33072 4.54797 0
M  V30 1432 N 134.507 -0.190092 1.56449 0
M  V30 1433 C 135.47 -1.21925 1.9408 0
M  V30 1434 C 136.47 -1.38176 0.822431 0
M  V30 1435 O 137.66 -1.35903 1.08977 0
M  V30 1436 C 134.792 -2.58773 2.21922 0
M  V30 1437 H 135.985 -0.897464 2.86157 0
M  V30 1438 H 133.538 -0.43181 1.50217 0
M  V30 1439 H 134.273 -2.95998 1.32499 0
M  V30 1440 H 134.058 -2.48348 3.03424 0
M  V30 1441 H 135.548 -3.32978 2.52022 0
M  V30 1442 N 135.985 -1.50799 -0.457987 0
M  V30 1443 C 137.231 -1.62683 -1.21088 0
M  V30 1444 C 137.564 -0.332268 -1.91336 0
M  V30 1445 O 136.839 0.667043 -1.82704 0
M  V30 1446 C 137.122 -2.81615 -2.24422 0
M  V30 1447 C 136.975 -4.20989 -1.58392 0
M  V30 1448 C 138.294 -2.96085 -3.2561 0
M  V30 1449 H 135.413 -0.592087 -0.438864 0
M  V30 1450 H 138.055 -1.83225 -0.50286 0
M  V30 1451 H 136.205 -2.64231 -2.84806 0
M  V30 1452 H 137.877 -4.49994 -1.01504 0
M  V30 1453 H 136.12 -4.24641 -0.886704 0
M  V30 1454 H 136.791 -5.0016 -2.33547 0
M  V30 1455 H 139.267 -3.12042 -2.75262 0
M  V30 1456 H 138.143 -3.80902 -3.95228 0
M  V30 1457 H 138.404 -2.0726 -3.90507 0
M  V30 1458 N 137.463 0.71206 -1.40597 0
M  V30 1459 C 138.709 1.47416 -1.39271 0
M  V30 1460 C 139.042 1.942 0.00388791 0
M  V30 1461 O 138.317 1.68403 0.973179 0
M  V30 1462 C 138.6 2.69774 -2.38525 0
M  V30 1463 C 138.453 2.28861 -3.87224 0
M  V30 1464 C 139.772 3.71939 -2.35264 0
M  V30 1465 H 136.891 0.534713 -0.5072 0
M  V30 1466 H 139.533 0.812375 -1.71757 0
M  V30 1467 H 137.683 3.26238 -2.10953 0
M  V30 1468 H 139.355 1.77852 -4.25636 0
M  V30 1469 H 137.598 1.60824 -4.02887 0
M  V30 1470 H 138.269 3.16584 -4.52193 0
M  V30 1471 H 140.745 3.25113 -2.59694 0
M  V30 1472 H 139.621 4.55186 -3.06753 0
M  V30 1473 H 139.882 4.20484 -1.36549 0
M  V30 1474 N 138.941 1.26152 0.944643 0
M  V30 1475 C 139.888 1.07408 2.04285 0
M  V30 1476 C 140.858 -0.0198413 1.66088 0
M  V30 1477 O 142.043 0.139264 1.90291 0
M  V30 1478 C 139.183 0.70945 3.37729 0
M  V30 1479 C 138.296 1.87926 3.88983 0
M  V30 1480 C 137.431 1.45807 5.10797 0
M  V30 1481 C 136.47 2.5964 5.54305 0
M  V30 1482 N 135.607 2.18226 6.67324 0
M  V30 1483 H 140.447 2.01389 2.1965 0
M  V30 1484 H 137.984 1.00275 1.07626 0
M  V30 1485 H 139.942 0.478948 4.14442 0
M  V30 1486 H 138.572 -0.193389 3.2222 0
M  V30 1487 H 137.624 2.22279 3.08701 0
M  V30 1488 H 138.936 2.73377 4.17213 0
M  V30 1489 H 138.09 1.18781 5.94959 0
M  V30 1490 H 136.829 0.574414 4.84305 0
M  V30 1491 H 135.834 2.87399 4.68702 0
M  V30 1492 H 137.059 3.48599 5.828 0
M  V30 1493 H 135.005 1.3229 6.42523 0
M  V30 1494 H 134.922 2.97221 6.95123 0
M  V30 1495 H 136.19 1.94403 7.54869 0
M  V30 1496 N 140.419 -1.14872 1.07899 0
M  V30 1497 C 141.668 -1.85135 0.800499 0
M  V30 1498 C 141.981 -1.83547 -0.676014 0
M  V30 1499 O 143.187 -2.49548 -1.06948 0
M  V30 1500 C 141.643 -3.3231 1.38197 0
M  V30 1501 C 141.251 -3.42329 2.8899 0
M  V30 1502 C 142.995 -4.0772 1.18174 0
M  V30 1503 C 140.902 -4.83684 3.403 0
M  V30 1504 H 139.832 -0.693563 0.29578 0
M  V30 1505 H 142.483 -1.29532 1.29976 0
M  V30 1506 H 140.865 -3.87618 0.810431 0
M  V30 1507 H 142.039 -2.97097 3.52236 0
M  V30 1508 H 140.354 -2.80369 3.07867 0
M  V30 1509 H 142.951 -5.12049 1.5398 0
M  V30 1510 H 143.294 -4.16124 0.12117 0
M  V30 1511 H 143.827 -3.58696 1.71994 0
M  V30 1512 H 140.566 -4.80465 4.45907 0
M  V30 1513 H 140.086 -5.29474 2.81811 0
M  V30 1514 H 141.765 -5.52558 3.36584 0
M  V30 1515 N 141.898 -0.863906 -1.31812 0
M  V30 1516 C 143.309 -0.52522 -1.7916 0
M  V30 1517 C 143.66 0.957518 -1.71248 0
M  V30 1518 O 142.785 1.74734 -1.27659 0
M  V30 1519 C 143.38 -0.9466 -3.25307 0
M  V30 1520 C 141.939 -0.659668 -3.70574 0
M  V30 1521 C 141.086 -1.14126 -2.52726 0
M  V30 1522 H 144.037 -1.05022 -1.1898 0
M  V30 1523 H 144.058 -0.266766 -3.79564 0
M  V30 1524 H 143.57 -2.02579 -3.31034 0
M  V30 1525 H 141.671 0.408416 -3.70355 0
M  V30 1526 H 141.784 -1.23245 -4.62977 0
M  V30 1527 H 140.148 -0.561216 -2.4844 0
M  V30 1528 H 140.931 -2.22775 -2.61201 0
M  V30 1529 N 143.376 1.44774 -0.622745 0
M  V30 1530 C 144.606 2.06187 -0.130532 0
M  V30 1531 C 145.014 1.46547 1.19669 0
M  V30 1532 O 144.357 0.579636 1.74316 0
M  V30 1533 C 144.419 3.59437 0.0674983 0
M  V30 1534 C 144.083 4.41496 -1.18026 0
M  V30 1535 C 145.08 4.75512 -2.102 0
M  V30 1536 C 142.765 4.82007 -1.41333 0
M  V30 1537 C 144.759 5.48912 -3.23998 0
M  V30 1538 C 142.446 5.55157 -2.55429 0
M  V30 1539 C 143.444 5.88528 -3.46589 0
M  V30 1540 O 143.132 6.60191 -4.58697 0
M  V30 1541 H 142.864 0.672045 -0.0730162 0
M  V30 1542 H 145.418 1.86768 -0.854802 0
M  V30 1543 H 143.648 3.77314 0.846825 0
M  V30 1544 H 145.337 4.02642 0.513209 0
M  V30 1545 H 146.103 4.4476 -1.93425 0
M  V30 1546 H 141.982 4.55457 -0.712709 0
M  V30 1547 H 145.526 5.74877 -3.95174 0
M  V30 1548 H 141.423 5.85324 -2.72151 0
M  V30 1549 H 142.191 6.78654 -4.57571 0
M  V30 1550 N 144.854 0.36279 1.53368 0
M  V30 1551 C 146.131 -0.284021 1.93527 0
M  V30 1552 C 146.511 -1.66628 1.29608 0
M  V30 1553 O 145.859 -2.23942 0.45413 0
M  V30 1554 C 146.069 -0.337028 3.47369 0
M  V30 1555 C 147.417 -0.578708 4.20638 0
M  V30 1556 O 148.441 -0.418352 3.53735 0
M  V30 1557 O 147.3 -0.89074 5.39192 0
M  V30 1558 H 144.394 -0.169743 0.809393 0
M  V30 1559 H 146.94 0.41537 1.64538 0
M  V30 1560 H 145.712 0.632217 3.86159 0
M  V30 1561 H 145.335 -1.08243 3.82582 0
M  V30 1562 N 146.332 -1.57332 0.0918853 0
M  V30 1563 C 147.56 -1.98574 -0.581048 0
M  V30 1564 C 147.975 -0.970903 -1.61923 0
M  V30 1565 O 147.332 0.0399054 -1.82456 0
M  V30 1566 C 147.383 -3.39872 -1.23164 0
M  V30 1567 O 147.104 -4.37469 -0.234989 0
M  V30 1568 C 148.605 -3.96099 -1.99049 0
M  V30 1569 H 145.825 -0.65261 -0.156018 0
M  V30 1570 H 148.369 -2.0379 0.170225 0
M  V30 1571 H 146.524 -3.35679 -1.93386 0
M  V30 1572 H 146.938 -5.19751 -0.70418 0
M  V30 1573 H 148.412 -4.97127 -2.39934 0
M  V30 1574 H 148.889 -3.3374 -2.85507 0
M  V30 1575 H 149.495 -4.03755 -1.3365 0
M  V30 1576 N 147.81 0.181792 -1.56548 0
M  V30 1577 C 148.757 1.22521 -1.95595 0
M  V30 1578 C 149.727 1.4454 -0.818373 0
M  V30 1579 O 150.912 1.57454 -1.07763 0
M  V30 1580 C 148.052 2.56193 -2.31212 0
M  V30 1581 C 147.165 2.41641 -3.58097 0
M  V30 1582 C 146.3 3.68108 -3.82975 0
M  V30 1583 C 145.339 3.48445 -5.03242 0
M  V30 1584 N 144.476 4.66956 -5.24306 0
M  V30 1585 H 149.316 0.885226 -2.84548 0
M  V30 1586 H 146.853 0.425718 -1.40805 0
M  V30 1587 H 148.811 3.34088 -2.49882 0
M  V30 1588 H 147.441 2.88208 -1.45382 0
M  V30 1589 H 146.493 1.54976 -3.474 0
M  V30 1590 H 147.805 2.23052 -4.46149 0
M  V30 1591 H 146.959 4.54441 -4.01956 0
M  V30 1592 H 145.698 3.89666 -2.93278 0
M  V30 1593 H 144.703 2.60499 -4.8417 0
M  V30 1594 H 145.928 3.2832 -5.9446 0
M  V30 1595 H 143.874 4.88752 -4.37559 0
M  V30 1596 H 143.791 4.51242 -6.06561 0
M  V30 1597 H 145.059 5.54602 -5.47756 0
M  V30 1598 N 149.288 1.51039 0.449983 0
M  V30 1599 C 150.218 1.74379 1.55288 0
M  V30 1600 C 151.199 0.593236 1.5942 0
M  V30 1601 O 152.384 0.834625 1.7535 0
M  V30 1602 C 149.514 1.85728 2.93466 0
M  V30 1603 C 148.468 3.01078 3.04197 0
M  V30 1604 C 147.794 2.97595 4.44231 0
M  V30 1605 C 149.094 4.41254 2.7945 0
M  V30 1606 H 150.788 2.66725 1.36008 0
M  V30 1607 H 148.334 1.2835 0.652864 0
M  V30 1608 H 150.287 2.0064 3.70569 0
M  V30 1609 H 149.011 0.900207 3.13949 0
M  V30 1610 H 147.67 2.85851 2.29531 0
M  V30 1611 H 147.318 1.99691 4.61663 0
M  V30 1612 H 147.018 3.75046 4.52343 0
M  V30 1613 H 148.542 3.14583 5.23326 0
M  V30 1614 H 149.956 4.56897 3.46292 0
M  V30 1615 H 148.353 5.20315 2.98985 0
M  V30 1616 H 149.423 4.52164 1.75144 0
M  V30 1617 N 150.766 -0.704594 1.40972 0
M  V30 1618 C 151.698 -1.82974 1.38033 0
M  V30 1619 C 152.711 -1.60305 0.283931 0
M  V30 1620 O 153.9 -1.69975 0.545042 0
M  V30 1621 C 151 -3.19578 1.12795 0
M  V30 1622 C 150.173 -3.69352 2.34302 0
M  V30 1623 C 149.232 -4.84601 2.05058 0
M  V30 1624 O 148.258 -4.96682 2.7802 0
M  V30 1625 N 149.46 -5.71194 1.03528 0
M  V30 1626 H 152.225 -1.85991 2.35005 0
M  V30 1627 H 149.786 -0.886567 1.35468 0
M  V30 1628 H 151.778 -3.9429 0.911987 0
M  V30 1629 H 150.348 -3.11642 0.24452 0
M  V30 1630 H 149.568 -2.85649 2.71659 0
M  V30 1631 H 150.856 -3.99345 3.1528 0
M  V30 1632 H 150.254 -5.64054 0.431217 0
M  V30 1633 H 148.811 -6.45843 0.879205 0
M  V30 1634 N 152.244 -1.26651 -0.937939 0
M  V30 1635 C 153.176 -1.04283 -2.04102 0
M  V30 1636 C 154.189 -0.00221014 -1.628 0
M  V30 1637 O 155.378 -0.242645 -1.76843 0
M  V30 1638 C 152.478 -0.557846 -3.34277 0
M  V30 1639 C 151.651 -1.66843 -4.04329 0
M  V30 1640 C 150.71 -1.18095 -5.12777 0
M  V30 1641 O 149.736 -1.87865 -5.37304 0
M  V30 1642 N 150.938 -0.0311006 -5.80492 0
M  V30 1643 H 153.703 -1.9927 -2.23856 0
M  V30 1644 H 151.264 -1.1808 -1.10764 0
M  V30 1645 H 153.256 -0.215836 -4.04124 0
M  V30 1646 H 151.826 0.298523 -3.11171 0
M  V30 1647 H 151.046 -2.18123 -3.28353 0
M  V30 1648 H 152.334 -2.41408 -4.47883 0
M  V30 1649 H 151.732 0.551486 -5.63005 0
M  V30 1650 H 150.289 0.251809 -6.51313 0
M  V30 1651 N 153.722 1.14298 -1.08507 0
M  V30 1652 C 154.968 1.85633 -0.816581 0
M  V30 1653 C 155.301 1.82784 0.656021 0
M  V30 1654 O 154.576 1.25926 1.48233 0
M  V30 1655 C 154.859 3.34223 -1.34041 0
M  V30 1656 C 154.712 3.45639 -2.87843 0
M  V30 1657 C 156.031 4.29356 -0.9665 0
M  V30 1658 H 153.15 0.67402 -0.298104 0
M  V30 1659 H 155.792 1.34214 -1.34487 0
M  V30 1660 H 153.942 3.78144 -0.89104 0
M  V30 1661 H 155.614 3.10498 -3.41158 0
M  V30 1662 H 153.857 2.86817 -3.25451 0
M  V30 1663 H 154.528 4.50089 -3.19569 0
M  V30 1664 H 157.004 3.93457 -1.35391 0
M  V30 1665 H 155.88 5.3178 -1.3602 0
M  V30 1666 H 156.141 4.41919 0.126362 0
M  V30 1667 N 155.201 0.870884 1.31352 0
M  V30 1668 C 156.164 0.332243 2.26779 0
M  V30 1669 C 157.164 -0.517302 1.52252 0
M  V30 1670 O 158.354 -0.326477 1.71113 0
M  V30 1671 C 155.486 -0.528066 3.36785 0
M  V30 1672 H 156.679 1.17469 2.75937 0
M  V30 1673 H 154.232 0.64655 1.423 0
M  V30 1674 H 154.967 -1.39167 2.92922 0
M  V30 1675 H 154.752 0.0802582 3.92018 0
M  V30 1676 H 156.242 -0.897179 4.07849 0
M  V30 1677 N 156.679 -1.44442 0.630414 0
M  V30 1678 C 157.642 -2.29107 -0.0652523 0
M  V30 1679 C 158.642 -1.41002 -0.772995 0
M  V30 1680 O 159.832 -1.62881 -0.617692 0
M  V30 1681 C 156.964 -3.22564 -1.10296 0
M  V30 1682 H 158.157 -2.92103 0.679401 0
M  V30 1683 H 155.71 -1.51343 0.390517 0
M  V30 1684 H 156.445 -2.64416 -1.87762 0
M  V30 1685 H 156.23 -3.87491 -0.59941 0
M  V30 1686 H 157.72 -3.86167 -1.5895 0
M  V30 1687 N 158.157 -0.370918 -1.53173 0
M  V30 1688 C 159.434 0.273754 -1.93675 0
M  V30 1689 C 159.814 1.65938 -1.3049 0
M  V30 1690 O 159.162 2.23698 -0.465999 0
M  V30 1691 C 159.372 0.318602 -3.47543 0
M  V30 1692 C 160.72 0.556392 -4.20939 0
M  V30 1693 O 161.744 0.399587 -3.53952 0
M  V30 1694 O 160.603 0.862133 -5.39657 0
M  V30 1695 H 157.697 0.165448 -0.810281 0
M  V30 1696 H 160.243 -0.42409 -1.64315 0
M  V30 1697 H 159.015 -0.652687 -3.85818 0
M  V30 1698 H 158.638 1.06212 -3.83151 0
M  V30 1699 N 159.635 1.57281 -0.100228 0
M  V30 1700 C 160.883 1.94153 0.561157 0
M  V30 1701 C 161.204 0.983157 1.68401 0
M  V30 1702 O 160.474 0.0361132 1.95867 0
M  V30 1703 H 159.054 0.716791 0.210283 0
M  V30 1704 H 161.716 1.94202 -0.164765 0
M  V30 1705 H 160.812 2.96709 0.968008 0
M  V30 1706 N 161.113 -0.173488 1.56642 0
M  V30 1707 C 162.338 -0.910149 1.86363 0
M  V30 1708 C 162.763 -1.75132 0.686318 0
M  V30 1709 O 162.121 -1.77595 -0.364643 0
M  V30 1710 C 162.169 -1.76447 3.14482 0
M  V30 1711 O 161.273 -2.86584 2.96553 0
M  V30 1712 H 160.614 -0.255086 0.613047 0
M  V30 1713 H 163.144 -0.172283 2.03873 0
M  V30 1714 H 163.154 -2.16483 3.45831 0
M  V30 1715 H 161.829 -1.14658 3.99783 0
M  V30 1716 H 160.406 -2.50146 2.76553 0
M  V30 1717 N 162.591 -1.51276 -0.441967 0
M  V30 1718 C 163.538 -1.72256 -1.53612 0
M  V30 1719 C 164.508 -0.564164 -1.56225 0
M  V30 1720 O 165.693 -0.798074 -1.73307 0
M  V30 1721 C 162.833 -1.84932 -2.91366 0
M  V30 1722 C 161.946 -3.12459 -2.98317 0
M  V30 1723 C 161.081 -3.15758 -4.27166 0
M  V30 1724 C 160.12 -4.37619 -4.27967 0
M  V30 1725 N 159.257 -4.38493 -5.48333 0
M  V30 1726 H 164.097 -2.65654 -1.35026 0
M  V30 1727 H 161.634 -1.31662 -0.656009 0
M  V30 1728 H 163.592 -1.90263 -3.7129 0
M  V30 1729 H 162.222 -0.949461 -3.08521 0
M  V30 1730 H 161.274 -3.1646 -2.11086 0
M  V30 1731 H 162.586 -4.02382 -2.94771 0
M  V30 1732 H 161.74 -3.19979 -5.15459 0
M  V30 1733 H 160.479 -2.23715 -4.33362 0
M  V30 1734 H 159.484 -4.33579 -3.38067 0
M  V30 1735 H 160.709 -5.30921 -4.23438 0
M  V30 1736 H 158.655 -3.49318 -5.55259 0
M  V30 1737 H 158.572 -5.22219 -5.46647 0
M  V30 1738 H 159.84 -4.469 -6.38671 0
M  V30 1739 N 164.069 0.697108 -1.41344 0
M  V30 1740 C 165.315 1.4593 -1.40827 0
M  V30 1741 C 165.648 1.94193 -0.0167098 0
M  V30 1742 O 164.923 1.69425 0.955263 0
M  V30 1743 C 165.206 2.67229 -2.41373 0
M  V30 1744 C 165.059 2.24741 -3.8963 0
M  V30 1745 C 166.378 3.69423 -2.39196 0
M  V30 1746 H 163.497 0.529303 -0.512842 0
M  V30 1747 H 166.139 0.794112 -1.72609 0
M  V30 1748 H 164.289 3.23982 -2.14401 0
M  V30 1749 H 165.961 1.73327 -4.27499 0
M  V30 1750 H 164.204 1.56542 -4.0457 0
M  V30 1751 H 164.875 3.1177 -4.55525 0
M  V30 1752 H 167.351 3.2234 -2.63128 0
M  V30 1753 H 166.227 4.51907 -3.11563 0
M  V30 1754 H 166.488 4.19012 -1.41001 0
M  V30 1755 N 165.547 1.27147 0.931209 0
M  V30 1756 C 166.795 1.13055 1.6752 0
M  V30 1757 C 167.116 -0.324791 1.92276 0
M  V30 1758 O 166.386 -1.22775 1.52654 0
M  V30 1759 H 164.966 0.415391 0.620854 0
M  V30 1760 H 167.628 1.59623 1.11833 0
M  V30 1761 H 166.724 1.65694 2.64485 0
M  V30 1762 N 167.025 -1.13721 1.09112 0
M  V30 1763 C 167.955 -2.21148 0.749385 0
M  V30 1764 C 168.936 -1.6792 -0.271475 0
M  V30 1765 O 170.121 -1.93693 -0.140251 0
M  V30 1766 C 167.251 -3.46905 0.165659 0
M  V30 1767 C 166.205 -4.13203 1.11567 0
M  V30 1768 C 165.531 -5.33248 0.393809 0
M  V30 1769 C 166.831 -4.60912 2.45678 0
M  V30 1770 H 168.525 -2.4999 1.64758 0
M  V30 1771 H 166.071 -1.20156 0.793626 0
M  V30 1772 H 168.024 -4.21313 -0.085466 0
M  V30 1773 H 166.748 -3.17449 -0.767714 0
M  V30 1774 H 165.407 -3.40758 1.35202 0
M  V30 1775 H 165.055 -5.00054 -0.543599 0
M  V30 1776 H 164.755 -5.78552 1.02721 0
M  V30 1777 H 166.279 -6.10413 0.150908 0
M  V30 1778 H 167.693 -5.26759 2.26269 0
M  V30 1779 H 166.09 -5.16944 3.04776 0
M  V30 1780 H 167.16 -3.75603 3.06677 0
M  V30 1781 N 168.503 -0.877838 -1.30888 0
M  V30 1782 C 169.451 -0.328662 -2.30266 0
M  V30 1783 C 170.445 0.560496 -1.59859 0
M  V30 1784 O 171.651 0.445722 -1.74394 0
M  V30 1785 H 168.026 -0.0876142 -0.746879 0
M  V30 1786 H 169.997 -1.18061 -2.74051 0
M  V30 1787 C 168.746 0.448071 -3.44801 0
M  V30 1788 H 168.069 -0.226859 -3.99156 0
M  V30 1789 H 169.509 0.797541 -4.16432 0
M  V30 1790 C 167.968 1.64239 -2.94155 0
M  V30 1791 O 168.498 2.74175 -2.93583 0
M  V30 1792 N 166.704 1.47716 -2.50256 0
M  V30 1793 H 166.251 0.582821 -2.5092 0
M  V30 1794 H 166.209 2.27765 -2.16727 0
M  V30 1795 N 169.982 1.44106 -0.638065 0
M  V30 1796 C 171.228 2.02277 -0.145546 0
M  V30 1797 C 171.561 1.50125 1.23191 0
M  V30 1798 O 170.836 0.688133 1.8192 0
M  V30 1799 C 171.119 3.59829 -0.139791 0
M  V30 1800 C 170.972 4.22247 -1.55008 0
M  V30 1801 C 172.291 4.36873 0.531966 0
M  V30 1802 H 169.41 0.734992 -0.0543632 0
M  V30 1803 H 172.052 1.71592 -0.815863 0
M  V30 1804 H 170.202 3.86102 0.431007 0
M  V30 1805 H 171.874 4.07057 -2.1703 0
M  V30 1806 H 170.117 3.79476 -2.10191 0
M  V30 1807 H 170.788 5.31284 -1.49804 0
M  V30 1808 H 173.264 4.16074 0.0464781 0
M  V30 1809 H 172.14 5.4657 0.505206 0
M  V30 1810 H 172.401 4.11995 1.60352 0
M  V30 1811 N 171.46 0.379036 1.52974 0
M  V30 1812 C 172.708 -0.206014 2.01047 0
M  V30 1813 C 173.029 -1.48175 1.26765 0
M  V30 1814 O 172.299 -1.92085 0.384743 0
M  V30 1815 H 170.879 -0.0791184 0.742798 0
M  V30 1816 H 173.541 0.508366 1.88153 0
M  V30 1817 H 172.637 -0.423501 3.09213 0
M  V30 1818 N 172.938 -1.57226 0.108567 0
M  V30 1819 C 173.901 -2.13602 -0.831082 0
M  V30 1820 C 174.901 -1.06841 -1.20173 0
M  V30 1821 O 176.091 -1.32666 -1.12895 0
M  V30 1822 C 173.223 -2.66769 -2.12243 0
M  V30 1823 H 174.416 -2.97951 -0.341317 0
M  V30 1824 H 171.969 -1.55667 -0.14057 0
M  V30 1825 H 172.704 -1.85977 -2.65675 0
M  V30 1826 H 172.489 -3.44839 -1.86625 0
M  V30 1827 H 173.979 -3.10332 -2.79435 0
M  V30 1828 N 174.416 0.165178 -1.56732 0
M  V30 1829 C 175.662 0.882112 -1.82611 0
M  V30 1830 C 175.995 1.81628 -0.687378 0
M  V30 1831 O 175.27 1.92009 0.310267 0
M  V30 1832 C 175.553 1.67245 -3.18906 0
M  V30 1833 C 175.406 0.760987 -4.43316 0
M  V30 1834 C 176.725 2.63884 -3.52212 0
M  V30 1835 H 173.844 0.319242 -0.664269 0
M  V30 1836 H 176.486 0.148052 -1.89422 0
M  V30 1837 H 174.636 2.29824 -3.1323 0
M  V30 1838 H 176.308 0.147596 -4.61064 0
M  V30 1839 H 174.551 0.0694102 -4.33744 0
M  V30 1840 H 175.222 1.34962 -5.35247 0
M  V30 1841 H 177.698 2.11429 -3.58381 0
M  V30 1842 H 176.574 3.16245 -4.48643 0
M  V30 1843 H 176.835 3.44377 -2.77231 0
M  V30 1844 N 175.894 1.51508 0.433938 0
M  V30 1845 C 176.824 1.76016 1.53429 0
M  V30 1846 C 177.805 0.610112 1.58782 0
M  V30 1847 O 178.99 0.853177 1.74455 0
M  V30 1848 C 176.12 1.88831 2.9148 0
M  V30 1849 C 175.074 3.04288 3.00987 0
M  V30 1850 C 174.4 3.0229 4.4105 0
M  V30 1851 C 175.7 4.44193 2.74754 0
M  V30 1852 H 177.394 2.68152 1.33171 0
M  V30 1853 H 174.94 1.29035 0.639214 0
M  V30 1854 H 176.893 2.04559 3.6842 0
M  V30 1855 H 175.617 0.933455 3.12976 0
M  V30 1856 H 174.276 2.8827 2.26486 0
M  V30 1857 H 173.924 2.04576 4.59519 0
M  V30 1858 H 173.624 3.79822 4.4834 0
M  V30 1859 H 175.148 3.20116 5.1996 0
M  V30 1860 H 176.562 4.60544 3.41426 0
M  V30 1861 H 174.959 5.23457 2.9345 0
M  V30 1862 H 176.029 4.53996 1.70339 0
M  V30 1863 N 177.372 -0.689602 1.41712 0
M  V30 1864 C 178.305 -1.81403 1.3845 0
M  V30 1865 C 179.283 -1.60653 0.250874 0
M  V30 1866 O 180.467 -1.83323 0.43874 0
M  V30 1867 C 177.594 -3.18176 1.1611 0
M  V30 1868 C 176.64 -3.57705 2.3227 0
M  V30 1869 S 177.473 -3.61827 3.94767 0
M  V30 1870 C 178.629 -5.01318 3.74742 0
M  V30 1871 H 178.862 -1.83893 2.33603 0
M  V30 1872 H 176.395 -0.858878 1.28307 0
M  V30 1873 H 178.353 -3.97132 1.03907 0
M  V30 1874 H 177.014 -3.13288 0.225668 0
M  V30 1875 H 176.207 -4.57082 2.12349 0
M  V30 1876 H 175.809 -2.86073 2.40911 0
M  V30 1877 H 178.101 -5.88986 3.34817 0
M  V30 1878 H 179.044 -5.26283 4.73743 0
M  V30 1879 H 179.452 -4.73138 3.07898 0
M  V30 1880 N 178.85 -1.27639 -0.924453 0
M  V30 1881 C 179.78 -1.13166 -2.04244 0
M  V30 1882 C 180.761 -0.032256 -1.70069 0
M  V30 1883 O 181.946 -0.207328 -1.9309 0
M  V30 1884 C 179.076 -0.781496 -3.38393 0
M  V30 1885 C 178.03 -1.83449 -3.86692 0
M  V30 1886 C 177.356 -1.33822 -5.17683 0
M  V30 1887 C 178.656 -3.23917 -4.09726 0
M  V30 1888 H 180.35 -2.06689 -2.1661 0
M  V30 1889 H 177.896 -0.995136 -1.04082 0
M  V30 1890 H 179.849 -0.667057 -4.16087 0
M  V30 1891 H 178.573 0.189439 -3.2605 0
M  V30 1892 H 177.232 -1.93789 -3.11193 0
M  V30 1893 H 176.88 -0.35665 -5.01734 0
M  V30 1894 H 176.58 -2.04224 -5.50968 0
M  V30 1895 H 178.104 -1.23679 -5.97943 0
M  V30 1896 H 179.518 -3.16559 -4.77978 0
M  V30 1897 H 177.915 -3.92059 -4.54324 0
M  V30 1898 H 178.985 -3.68729 -3.14908 0
M  V30 1899 N 180.328 1.1314 -1.09713 0
M  V30 1900 C 181.739 1.66029 -0.853885 0
M  V30 1901 C 182.09 1.86241 0.617142 0
M  V30 1902 O 181.215 1.5834 1.47503 0
M  V30 1903 C 181.81 3.01599 -1.5435 0
M  V30 1904 C 180.369 3.51467 -1.34714 0
M  V30 1905 C 179.516 2.26648 -1.59769 0
M  V30 1906 H 182.467 0.970226 -1.25588 0
M  V30 1907 H 182.488 3.67709 -0.978267 0
M  V30 1908 H 182 2.86856 -2.6141 0
M  V30 1909 H 180.101 3.71408 -0.297838 0
M  V30 1910 H 180.214 4.314 -2.08401 0
M  V30 1911 H 178.578 2.33385 -1.01998 0
M  V30 1912 H 179.361 2.14467 -2.68065 0
M  V30 1913 N 181.806 0.884767 1.30421 0
M  V30 1914 C 182.716 0.355398 2.31892 0
M  V30 1915 C 183.732 -0.542261 1.65335 0
M  V30 1916 O 184.908 -0.435432 1.96637 0
M  V30 1917 C 181.973 -0.421661 3.44126 0
M  V30 1918 C 181.034 0.505727 4.26311 0
M  V30 1919 C 180.267 -0.234343 5.33185 0
M  V30 1920 O 180.49 -1.46045 5.51386 0
M  V30 1921 O 179.424 0.415443 6.00465 0
M  V30 1922 H 183.25 1.19685 2.79122 0
M  V30 1923 H 180.835 0.648596 1.34587 0
M  V30 1924 H 182.717 -0.861641 4.12497 0
M  V30 1925 H 181.392 -1.23942 2.99032 0
M  V30 1926 H 180.299 0.994513 3.60639 0
M  V30 1927 H 181.632 1.28948 4.75009 0
M  V30 1928 N 183.284 -1.43765 0.645699 0
M  V30 1929 C 184.532 -2.01499 0.155731 0
M  V30 1930 C 184.853 -1.51151 -1.232 0
M  V30 1931 O 184.123 -0.721044 -1.82148 0
M  V30 1932 H 182.703 -0.745003 0.0545817 0
M  V30 1933 H 185.365 -1.76075 0.835677 0
M  V30 1934 H 184.461 -3.1181 0.134577 0
M  V30 1935 N 184.763 -0.387143 -1.52771 0
M  V30 1936 C 186.01 0.195735 -2.01552 0
M  V30 1937 C 186.338 1.46995 -1.27369 0
M  V30 1938 O 185.593 1.92325 -0.361879 0
M  V30 1939 C 185.892 0.512209 -3.53711 0
M  V30 1940 C 185.558 -0.670202 -4.45891 0
M  V30 1941 C 184.22 -0.994586 -4.70809 0
M  V30 1942 C 186.572 -1.46134 -5.00294 0
M  V30 1943 C 183.9 -2.11169 -5.4738 0
M  V30 1944 C 186.252 -2.56903 -5.78086 0
M  V30 1945 C 184.916 -2.89852 -6.01284 0
M  V30 1946 H 184.186 0.0716246 -0.73753 0
M  V30 1947 H 186.833 -0.524046 -1.8419 0
M  V30 1948 H 185.138 1.31329 -3.69134 0
M  V30 1949 H 186.835 0.975804 -3.88946 0
M  V30 1950 H 183.425 -0.407366 -4.2666 0
M  V30 1951 H 187.609 -1.22397 -4.80971 0
M  V30 1952 H 182.865 -2.3707 -5.63567 0
M  V30 1953 H 187.039 -3.18608 -6.19243 0
M  V30 1954 H 184.666 -3.76533 -6.60399 0
M  V30 1955 N 186.241 1.57166 -0.116904 0
M  V30 1956 C 187.188 2.15202 0.83408 0
M  V30 1957 C 188.158 1.07644 1.26499 0
M  V30 1958 O 189.343 1.35541 1.34288 0
M  V30 1959 C 186.483 2.75405 2.07957 0
M  V30 1960 C 185.596 3.97264 1.69721 0
M  V30 1961 C 184.731 4.45561 2.89221 0
M  V30 1962 C 183.77 5.59956 2.47215 0
M  V30 1963 N 182.907 6.03006 3.59622 0
M  V30 1964 H 187.747 2.96141 0.332335 0
M  V30 1965 H 185.284 1.46309 0.152349 0
M  V30 1966 H 187.242 3.08439 2.80929 0
M  V30 1967 H 185.872 1.97159 2.55594 0
M  V30 1968 H 184.924 3.70404 0.866316 0
M  V30 1969 H 186.236 4.80226 1.34849 0
M  V30 1970 H 185.39 4.80493 3.7042 0
M  V30 1971 H 184.129 3.61544 3.27318 0
M  V30 1972 H 183.134 5.2463 1.64448 0
M  V30 1973 H 184.359 6.45738 2.10238 0
M  V30 1974 H 182.305 5.21931 3.97396 0
M  V30 1975 H 182.222 6.80819 3.28667 0
M  V30 1976 H 183.49 6.42576 4.41267 0
M  V30 1977 N 187.719 -0.156864 1.56817 0
M  V30 1978 C 188.968 -0.869504 1.81996 0
M  V30 1979 C 189.281 -1.82777 0.696545 0
M  V30 1980 O 190.487 -2.58384 0.833658 0
M  V30 1981 C 188.943 -1.59679 3.22538 0
M  V30 1982 C 188.551 -0.681431 4.42787 0
M  V30 1983 C 190.295 -2.2968 3.56997 0
M  V30 1984 C 188.202 -1.40978 5.74351 0
M  V30 1985 H 187.132 -0.328438 0.678708 0
M  V30 1986 H 189.783 -0.1223 1.83092 0
M  V30 1987 H 188.165 -2.38927 3.158 0
M  V30 1988 H 189.339 0.0751166 4.60739 0
M  V30 1989 H 187.654 -0.0903431 4.16302 0
M  V30 1990 H 190.251 -2.84794 4.52544 0
M  V30 1991 H 190.594 -3.05707 2.82576 0
M  V30 1992 H 191.127 -1.57361 3.65352 0
M  V30 1993 H 187.866 -0.691561 6.51842 0
M  V30 1994 H 187.386 -2.13929 5.60352 0
M  V30 1995 H 189.065 -1.95337 6.16808 0
M  V30 1996 N 189.197 -1.51736 -0.425897 0
M  V30 1997 C 190.16 -1.73271 -1.50032 0
M  V30 1998 C 191.16 -0.602639 -1.4908 0
M  V30 1999 O 192.35 -0.87033 -1.509 0
M  V30 2000 C 189.482 -1.79969 -2.89523 0
M  V30 2001 H 190.675 -2.69172 -1.32237 0
M  V30 2002 H 188.228 -1.41899 -0.65532 0
M  V30 2003 H 188.963 -0.859241 -3.1271 0
M  V30 2004 H 188.748 -2.62109 -2.91619 0
M  V30 2005 H 190.238 -1.9843 -3.67444 0
M  V30 2006 N 190.675 0.682077 -1.42076 0
M  V30 2007 C 192.086 1.26246 -1.37546 0
M  V30 2008 C 192.437 1.96092 -0.0651481 0
M  V30 2009 O 191.562 1.99587 0.836297 0
M  V30 2010 C 192.157 2.29594 -2.49143 0
M  V30 2011 C 190.716 2.83175 -2.47969 0
M  V30 2012 C 189.863 1.57395 -2.28303 0
M  V30 2013 H 192.814 0.475937 -1.51395 0
M  V30 2014 H 192.835 3.11175 -2.18976 0
M  V30 2015 H 192.347 1.78729 -3.44496 0
M  V30 2016 H 190.448 3.3818 -1.56413 0
M  V30 2017 H 190.561 3.32687 -3.44755 0
M  V30 2018 H 188.925 1.83699 -1.76428 0
M  V30 2019 H 189.708 1.08507 -3.25701 0
M  V30 2020 N 192.153 1.28127 0.917671 0
M  V30 2021 C 193.063 1.13556 2.05286 0
M  V30 2022 C 194.079 0.0630914 1.73886 0
M  V30 2023 O 195.255 0.271598 1.9956 0
M  V30 2024 C 192.32 0.794676 3.3747 0
M  V30 2025 C 191.381 1.94909 3.82504 0
M  V30 2026 C 190.614 1.62437 5.0838 0
M  V30 2027 O 190.837 0.536905 5.67867 0
M  V30 2028 O 189.771 2.46677 5.4903 0
M  V30 2029 H 193.597 2.08844 2.20495 0
M  V30 2030 H 191.182 1.07409 1.03845 0
M  V30 2031 H 193.064 0.618344 4.16839 0
M  V30 2032 H 191.739 -0.128581 3.23445 0
M  V30 2033 H 190.646 2.18055 3.03978 0
M  V30 2034 H 191.979 2.85291 4.01086 0
M  V30 2035 N 193.631 -1.12557 1.10312 0
M  V30 2036 C 194.541 -2.21841 0.763142 0
M  V30 2037 C 195.557 -1.72354 -0.238801 0
M  V30 2038 O 196.733 -2.01249 -0.0778746 0
M  V30 2039 C 193.798 -3.46131 0.198632 0
M  V30 2040 C 192.859 -4.10464 1.25769 0
M  V30 2041 C 192.092 -5.28821 0.72002 0
M  V30 2042 O 192.315 -5.6859 -0.453993 0
M  V30 2043 O 191.249 -5.83437 1.47935 0
M  V30 2044 H 195.075 -2.53312 1.67532 0
M  V30 2045 H 192.66 -1.20867 0.878157 0
M  V30 2046 H 194.542 -4.2125 -0.112401 0
M  V30 2047 H 193.217 -3.16338 -0.686419 0
M  V30 2048 H 192.124 -3.3713 1.62156 0
M  V30 2049 H 193.457 -4.44408 2.11571 0
M  V30 2050 N 195.109 -0.891671 -1.2995 0
M  V30 2051 C 196.525 -0.58662 -1.48428 0
M  V30 2052 C 196.725 0.873951 -1.81561 0
M  V30 2053 O 195.781 1.65471 -1.90724 0
M  V30 2054 C 197.094 -1.50553 -2.60296 0
M  V30 2055 C 198.642 -1.50988 -2.74175 0
M  V30 2056 C 199.117 -2.41488 -3.89163 0
M  V30 2057 N 200.608 -2.39489 -3.96483 0
M  V30 2058 C 201.343 -3.06223 -4.84784 0
M  V30 2059 N 200.839 -3.82206 -5.77833 0
M  V30 2060 N 202.632 -2.95421 -4.78208 0
M  V30 2061 H 194.783 -1.83644 -1.06718 0
M  V30 2062 H 197.046 -0.786455 -0.529332 0
M  V30 2063 H 196.752 -2.54581 -2.42654 0
M  V30 2064 H 196.626 -1.22008 -3.56923 0
M  V30 2065 H 199.013 -0.47708 -2.91218 0
M  V30 2066 H 199.094 -1.83567 -1.78148 0
M  V30 2067 H 198.738 -3.44857 -3.72876 0
M  V30 2068 H 198.668 -2.06222 -4.84541 0
M  V30 2069 H 201.159 -1.84278 -3.29924 0
M  V30 2070 H 201.472 -4.302 -6.41988 0
M  V30 2071 H 199.817 -3.86313 -5.77743 0
M  V30 2072 H 203.008 -2.35581 -4.04499 0
M  V30 2073 H 203.181 -3.47704 -5.46814 0
M  V30 2074 N 196.587 1.43421 -0.653314 0
M  V30 2075 C 197.836 2.01032 -0.164076 0
M  V30 2076 C 198.149 1.52147 1.22926 0
M  V30 2077 O 199.355 2.02031 1.81371 0
M  V30 2078 C 197.811 3.59082 -0.24252 0
M  V30 2079 C 197.419 4.1696 -1.63855 0
M  V30 2080 C 199.163 4.24079 0.18911 0
M  V30 2081 C 197.07 5.67304 -1.67092 0
M  V30 2082 H 196 0.751798 -0.0575769 0
M  V30 2083 H 198.651 1.6439 -0.815362 0
M  V30 2084 H 197.033 3.93125 0.476276 0
M  V30 2085 H 198.207 3.94416 -2.38271 0
M  V30 2086 H 196.522 3.64335 -2.01616 0
M  V30 2087 H 199.119 5.34381 0.184775 0
M  V30 2088 H 199.462 3.98005 1.22056 0
M  V30 2089 H 199.995 3.94918 -0.477938 0
M  V30 2090 H 196.734 5.98145 -2.68146 0
M  V30 2091 H 196.254 5.91904 -0.970014 0
M  V30 2092 H 197.933 6.31344 -1.4147 0
M  V30 2093 N 198.065 0.39524 1.52563 0
M  V30 2094 C 199.476 -0.0774719 1.86539 0
M  V30 2095 C 199.827 -1.45641 1.31466 0
M  V30 2096 O 198.952 -2.06459 0.648367 0
M  V30 2097 C 199.547 -0.147356 3.38479 0
M  V30 2098 C 198.106 -0.564373 3.72145 0
M  V30 2099 C 197.253 0.269919 2.75983 0
M  V30 2100 H 200.204 0.612876 1.46388 0
M  V30 2101 H 200.225 -0.965343 3.68051 0
M  V30 2102 H 199.737 0.856387 3.78534 0
M  V30 2103 H 197.838 -1.57527 3.37663 0
M  V30 2104 H 197.951 -0.318402 4.78041 0
M  V30 2105 H 196.315 -0.265696 2.5331 0
M  V30 2106 H 197.098 1.27175 3.18875 0
M  V30 2107 N 199.544 -1.57102 0.125237 0
M  V30 2108 C 200.454 -2.19191 -0.8362 0
M  V30 2109 C 201.47 -1.16985 -1.28805 0
M  V30 2110 O 202.646 -1.49479 -1.34974 0
M  V30 2111 C 199.711 -2.78407 -2.06617 0
M  V30 2112 C 198.772 -3.9567 -1.66565 0
M  V30 2113 C 198.005 -4.52052 -2.83698 0
M  V30 2114 O 198.228 -4.07326 -3.99302 0
M  V30 2115 O 197.162 -5.42645 -2.60423 0
M  V30 2116 H 200.988 -3.01816 -0.337776 0
M  V30 2117 H 198.573 -1.4906 -0.100695 0
M  V30 2118 H 200.455 -3.16129 -2.7864 0
M  V30 2119 H 199.13 -1.9881 -2.55453 0
M  V30 2120 H 198.037 -3.62705 -0.916296 0
M  V30 2121 H 199.37 -4.76722 -1.22464 0
M  V30 2122 N 201.022 0.148545 -1.56898 0
M  V30 2123 C 201.932 1.20293 -2.01412 0
M  V30 2124 C 202.948 1.47107 -0.929273 0
M  V30 2125 O 204.124 1.58807 -1.23863 0
M  V30 2126 C 201.189 2.51682 -2.38447 0
M  V30 2127 C 200.25 2.32529 -3.60872 0
M  V30 2128 C 199.483 3.57653 -3.96132 0
M  V30 2129 O 199.706 4.63771 -3.32073 0
M  V30 2130 O 198.64 3.50408 -4.89385 0
M  V30 2131 H 202.466 0.855025 -2.91416 0
M  V30 2132 H 200.051 0.357151 -1.45068 0
M  V30 2133 H 201.933 3.29147 -2.63135 0
M  V30 2134 H 200.608 2.86006 -1.51599 0
M  V30 2135 H 199.515 1.53019 -3.41373 0
M  V30 2136 H 200.848 2.03121 -4.48333 0
M  V30 2137 N 202.5 1.5196 0.417844 0
M  V30 2138 C 203.43 1.77634 1.51554 0
M  V30 2139 C 204.411 0.626918 1.58126 0
M  V30 2140 O 205.596 0.871632 1.7354 0
M  V30 2141 C 202.726 1.91911 2.8946 0
M  V30 2142 C 201.68 3.07463 2.97743 0
M  V30 2143 C 201.006 3.06951 4.37819 0
M  V30 2144 C 202.306 4.47082 2.70027 0
M  V30 2145 H 204 2.6955 1.3032 0
M  V30 2146 H 201.546 1.29706 0.625492 0
M  V30 2147 H 203.499 2.08455 3.6623 0
M  V30 2148 H 202.223 0.966598 3.11969 0
M  V30 2149 H 200.882 2.90656 2.23416 0
M  V30 2150 H 200.53 2.09438 4.57323 0
M  V30 2151 H 200.23 3.84556 4.44286 0
M  V30 2152 H 201.754 3.25613 5.16535 0
M  V30 2153 H 203.168 4.6414 3.36522 0
M  V30 2154 H 201.565 5.2654 2.87881 0
M  V30 2155 H 202.635 4.55777 1.65514 0
M  V30 2156 N 203.978 -0.674533 1.42435 0
M  V30 2157 C 204.925 -1.78807 1.45934 0
M  V30 2158 C 205.895 -1.63157 0.311271 0
M  V30 2159 O 207.08 -1.83707 0.515383 0
M  V30 2160 C 204.22 -3.16839 1.36773 0
M  V30 2161 C 203.333 -3.43774 2.61617 0
M  V30 2162 C 202.468 -4.71536 2.44597 0
M  V30 2163 C 201.507 -4.91505 3.64814 0
M  V30 2164 N 200.644 -6.10508 3.46734 0
M  V30 2165 H 205.484 -1.75151 2.41093 0
M  V30 2166 H 203.021 -0.85504 1.19697 0
M  V30 2167 H 204.979 -3.96606 1.29459 0
M  V30 2168 H 203.609 -3.19619 0.452089 0
M  V30 2169 H 202.661 -2.58259 2.79297 0
M  V30 2170 H 203.973 -3.54423 3.50978 0
M  V30 2171 H 203.127 -5.59393 2.3487 0
M  V30 2172 H 201.866 -4.6317 1.52726 0
M  V30 2173 H 200.871 -4.0209 3.74972 0
M  V30 2174 H 202.096 -5.01716 4.57665 0
M  V30 2175 H 200.042 -6.03315 2.5758 0
M  V30 2176 H 199.959 -6.2202 4.29682 0
M  V30 2177 H 201.227 -7.01044 3.40819 0
M  V30 2178 N 205.456 -1.28612 -0.910864 0
M  V30 2179 C 206.403 -1.12786 -2.01365 0
M  V30 2180 C 207.373 -0.024201 -1.66082 0
M  V30 2181 O 208.558 -0.189667 -1.89855 0
M  V30 2182 C 205.698 -0.798743 -3.35729 0
M  V30 2183 C 204.811 -1.98173 -3.83864 0
M  V30 2184 C 203.946 -1.59298 -5.06752 0
M  V30 2185 C 202.985 -2.74245 -5.47226 0
M  V30 2186 N 202.122 -2.35842 -6.61304 0
M  V30 2187 H 206.962 -2.07142 -2.14234 0
M  V30 2188 H 204.499 -1.03093 -1.0493 0
M  V30 2189 H 206.457 -0.588662 -4.13026 0
M  V30 2190 H 205.087 0.10789 -3.2262 0
M  V30 2191 H 204.139 -2.30386 -3.02699 0
M  V30 2192 H 205.451 -2.84343 -4.09818 0
M  V30 2193 H 204.605 -1.34513 -5.916 0
M  V30 2194 H 203.344 -0.702618 -4.82612 0
M  V30 2195 H 202.349 -2.99725 -4.60918 0
M  V30 2196 H 203.574 -3.63928 -5.73353 0
M  V30 2197 H 201.52 -1.49279 -6.38789 0
M  V30 2198 H 201.437 -3.15546 -6.86998 0
M  V30 2199 H 202.705 -2.14348 -7.4945 0
M  V30 2200 N 206.934 1.1197 -1.10907 0
M  V30 2201 C 207.844 2.21433 -0.774896 0
M  V30 2202 C 208.86 1.72478 0.229657 0
M  V30 2203 O 210.036 2.01288 0.0672008 0
M  V30 2204 C 207.101 3.4602 -0.216986 0
M  V30 2205 C 206.162 4.09791 -1.27944 0
M  V30 2206 C 205.395 5.28431 -0.748055 0
M  V30 2207 O 205.618 5.68823 0.423833 0
M  V30 2208 O 204.552 5.82644 -1.51027 0
M  V30 2209 H 208.378 2.5242 -1.68873 0
M  V30 2210 H 205.963 1.20399 -0.884555 0
M  V30 2211 H 207.845 4.21304 0.090059 0
M  V30 2212 H 206.52 3.16698 0.669633 0
M  V30 2213 H 205.427 3.36265 -1.63941 0
M  V30 2214 H 206.76 4.4328 -2.13925 0
M  V30 2215 N 208.412 0.89855 1.29475 0
M  V30 2216 C 209.658 0.524658 1.95896 0
M  V30 2217 C 209.991 -0.926468 1.70676 0
M  V30 2218 O 209.266 -1.65665 1.01908 0
M  V30 2219 C 209.549 0.81633 3.50725 0
M  V30 2220 C 209.402 2.31907 3.85408 0
M  V30 2221 C 210.721 0.302038 4.39062 0
M  V30 2222 H 207.84 0.19209 0.711527 0
M  V30 2223 H 210.482 1.12502 1.53112 0
M  V30 2224 H 208.632 0.305369 3.87298 0
M  V30 2225 H 210.304 2.89949 3.58786 0
M  V30 2226 H 208.547 2.78027 3.32992 0
M  V30 2227 H 209.218 2.47373 4.93468 0
M  V30 2228 H 211.694 0.739551 4.09475 0
M  V30 2229 H 210.57 0.535331 5.46283 0
M  V30 2230 H 210.831 -0.797216 4.34853 0
M  V30 2231 N 209.89 -1.43072 0.660911 0
M  V30 2232 C 211.138 -2.01323 0.177094 0
M  V30 2233 C 211.459 -1.5245 -1.2159 0
M  V30 2234 O 210.729 -0.740322 -1.81373 0
M  V30 2235 H 209.309 -0.744382 0.0624804 0
M  V30 2236 H 211.971 -1.75179 0.854305 0
M  V30 2237 H 211.067 -3.11649 0.167641 0
M  V30 2238 N 211.368 -0.403325 -1.52352 0
M  V30 2239 C 212.645 0.232611 -1.94212 0
M  V30 2240 C 213.025 1.63133 -1.33981 0
M  V30 2241 O 212.373 2.22659 -0.513344 0
M  V30 2242 C 212.583 0.244811 -3.4814 0
M  V30 2243 C 213.931 0.46698 -4.22024 0
M  V30 2244 O 214.955 0.324419 -3.5472 0
M  V30 2245 O 213.814 0.74747 -5.41364 0
M  V30 2246 H 210.908 0.148223 -0.813609 0
M  V30 2247 H 213.454 -0.458848 -1.63379 0
M  V30 2248 H 212.226 -0.734378 -3.84347 0
M  V30 2249 H 211.849 0.980611 -3.85318 0
M  V30 2250 N 212.846 1.57033 -0.133567 0
M  V30 2251 C 214.092 1.95976 0.521649 0
M  V30 2252 C 214.425 1.01779 1.65393 0
M  V30 2253 O 213.7 0.0576581 1.94415 0
M  V30 2254 C 213.983 3.44738 1.04057 0
M  V30 2255 C 213.836 4.49711 -0.0892897 0
M  V30 2256 C 215.155 3.95682 1.92675 0
M  V30 2257 H 212.274 0.712579 0.188149 0
M  V30 2258 H 214.916 1.88813 -0.212076 0
M  V30 2259 H 213.066 3.50973 1.66583 0
M  V30 2260 H 214.738 4.55565 -0.725152 0
M  V30 2261 H 212.981 4.27261 -0.750378 0
M  V30 2262 H 213.652 5.51099 0.315284 0
M  V30 2263 H 216.128 3.91841 1.39998 0
M  V30 2264 H 215.004 5.00262 2.25897 0
M  V30 2265 H 215.265 3.37239 2.85872 0
M  V30 2266 N 214.325 -0.140222 1.56975 0
M  V30 2267 C 215.555 -0.865181 1.87612 0
M  V30 2268 C 215.963 -1.74942 0.72055 0
M  V30 2269 O 215.306 -1.80917 -0.318561 0
M  V30 2270 C 215.368 -1.76782 3.13031 0
M  V30 2271 C 215.032 -1.06005 4.44536 0
M  V30 2272 C 216.029 -0.410768 5.18275 0
M  V30 2273 C 213.714 -1.04754 4.91255 0
M  V30 2274 C 215.708 0.241572 6.36942 0
M  V30 2275 C 213.395 -0.391394 6.09845 0
M  V30 2276 C 214.393 0.252029 6.82535 0
M  V30 2277 O 214.081 0.897757 7.98871 0
M  V30 2278 H 213.813 -0.255188 0.625983 0
M  V30 2279 H 216.367 -0.135653 2.04952 0
M  V30 2280 H 214.597 -2.53846 2.91718 0
M  V30 2281 H 216.286 -2.36533 3.29859 0
M  V30 2282 H 217.052 -0.412195 4.83245 0
M  V30 2283 H 212.931 -1.53777 4.34596 0
M  V30 2284 H 216.475 0.744375 6.93617 0
M  V30 2285 H 212.372 -0.387656 6.44335 0
M  V30 2286 H 213.14 0.800102 8.1458 0
M  V30 2287 N 215.803 -1.52179 -0.40978 0
M  V30 2288 C 217.05 -1.66206 -1.15679 0
M  V30 2289 C 217.378 -0.391674 -1.90516 0
M  V30 2290 O 216.633 0.62533 -1.8544 0
M  V30 2291 C 216.932 -2.83428 -2.17723 0
M  V30 2292 C 216.598 -4.21672 -1.59699 0
M  V30 2293 C 215.26 -4.59274 -1.43599 0
M  V30 2294 C 217.612 -5.07825 -1.17317 0
M  V30 2295 C 214.94 -5.80709 -0.836328 0
M  V30 2296 C 217.292 -6.29864 -0.587691 0
M  V30 2297 C 215.956 -6.66216 -0.413818 0
M  V30 2298 H 215.226 -0.608192 -0.423301 0
M  V30 2299 H 217.873 -1.86279 -0.444097 0
M  V30 2300 H 216.178 -2.57687 -2.95135 0
M  V30 2301 H 217.875 -2.91477 -2.75394 0
M  V30 2302 H 214.465 -3.9204 -1.73213 0
M  V30 2303 H 218.649 -4.79359 -1.28565 0
M  V30 2304 H 213.905 -6.07498 -0.689626 0
M  V30 2305 H 218.079 -6.95948 -0.250894 0
M  V30 2306 H 215.706 -7.60182 0.0529471 0
M  V30 2307 N 217.281 0.66697 -1.42791 0
M  V30 2308 C 218.213 1.7925 -1.42836 0
M  V30 2309 C 219.226 1.59496 -0.326333 0
M  V30 2310 O 220.415 1.6847 -0.589916 0
M  V30 2311 C 217.515 3.16476 -1.21229 0
M  V30 2312 C 216.688 3.63011 -2.44013 0
M  V30 2313 C 215.747 4.78993 -2.17834 0
M  V30 2314 O 214.773 4.89137 -2.91091 0
M  V30 2315 N 215.975 5.68248 -1.18635 0
M  V30 2316 H 218.74 1.79695 -2.39854 0
M  V30 2317 H 216.301 0.850338 -1.37771 0
M  V30 2318 H 218.293 3.91734 -1.01621 0
M  V30 2319 H 216.863 3.10884 -0.32706 0
M  V30 2320 H 216.083 2.78346 -2.79137 0
M  V30 2321 H 217.371 3.90845 -3.25757 0
M  V30 2322 H 216.769 5.62712 -0.580615 0
M  V30 2323 H 215.326 6.43285 -1.05013 0
M  V30 2324 N 218.759 1.29093 0.90403 0
M  V30 2325 C 220.17 1.15186 1.46932 0
M  V30 2326 C 220.521 -0.254587 1.94541 0
M  V30 2327 O 219.646 -1.14972 1.83332 0
M  V30 2328 C 220.241 2.08492 2.67051 0
M  V30 2329 C 218.8 1.98621 3.19729 0
M  V30 2330 C 217.947 1.9967 1.92425 0
M  V30 2331 H 220.898 1.41641 0.715789 0
M  V30 2332 H 220.919 1.65461 3.42641 0
M  V30 2333 H 220.431 3.10847 2.3237 0
M  V30 2334 H 218.532 0.993389 3.59114 0
M  V30 2335 H 218.645 2.86068 3.8432 0
M  V30 2336 H 217.009 1.44208 2.09943 0
M  V30 2337 H 217.792 3.03721 1.60026 0
M  V30 2338 N 220.237 -1.11381 1.11499 0
M  V30 2339 C 221.467 -1.86663 0.885464 0
M  V30 2340 C 221.875 -1.80464 -0.568281 0
M  V30 2341 O 221.218 -1.18445 -1.40415 0
M  V30 2342 C 221.28 -3.36337 1.26956 0
M  V30 2343 C 220.944 -3.66304 2.73259 0
M  V30 2344 C 221.941 -3.63733 3.71476 0
M  V30 2345 C 219.626 -3.9529 3.09921 0
M  V30 2346 C 221.62 -3.89725 5.04374 0
M  V30 2347 C 219.307 -4.20941 4.43004 0
M  V30 2348 C 220.305 -4.18147 5.40039 0
M  V30 2349 O 219.993 -4.43153 6.70724 0
M  V30 2350 H 219.725 -0.597114 0.316908 0
M  V30 2351 H 222.279 -1.41782 1.48617 0
M  V30 2352 H 220.509 -3.81826 0.611999 0
M  V30 2353 H 222.198 -3.92986 1.01573 0
M  V30 2354 H 222.964 -3.41389 3.44498 0
M  V30 2355 H 218.843 -3.966 2.35009 0
M  V30 2356 H 222.387 -3.8746 5.80104 0
M  V30 2357 H 218.284 -4.42761 4.69716 0
M  V30 2358 H 219.052 -4.60717 6.76522 0
M  V30 2359 N 221.715 -0.905404 -1.28997 0
M  V30 2360 C 222.662 -0.385892 -2.27551 0
M  V30 2361 C 223.632 0.535113 -1.57244 0
M  V30 2362 O 224.817 0.459119 -1.85194 0
M  V30 2363 C 221.957 0.375461 -3.43051 0
M  V30 2364 C 221.07 -0.577092 -4.28128 0
M  V30 2365 C 220.205 0.201879 -5.30816 0
M  V30 2366 C 219.244 -0.744829 -6.07551 0
M  V30 2367 N 218.381 9.42587e-05 -7.021 0
M  V30 2368 H 223.221 -1.23139 -2.71368 0
M  V30 2369 H 220.758 -0.618542 -1.33463 0
M  V30 2370 H 222.716 0.832992 -4.088 0
M  V30 2371 H 221.346 1.18537 -3.00248 0
M  V30 2372 H 220.398 -1.15315 -3.62501 0
M  V30 2373 H 221.71 -1.30152 -4.8152 0
M  V30 2374 H 220.864 0.720351 -6.02408 0
M  V30 2375 H 219.603 0.959413 -4.7817 0
M  V30 2376 H 218.608 -1.27475 -5.34818 0
M  V30 2377 H 219.833 -1.50178 -6.62286 0
M  V30 2378 H 217.779 0.739791 -6.51815 0
M  V30 2379 H 217.696 -0.664321 -7.53076 0
M  V30 2380 H 218.964 0.498644 -7.77903 0
M  V30 2381 N 223.193 1.4272 -0.668489 0
M  V30 2382 C 224.103 2.34596 0.0139753 0
M  V30 2383 C 225.119 1.5474 0.795703 0
M  V30 2384 O 226.295 1.87334 0.739466 0
M  V30 2385 C 223.36 3.33202 0.957982 0
M  V30 2386 C 222.421 4.28957 0.17149 0
M  V30 2387 C 221.654 5.22853 1.07053 0
M  V30 2388 O 221.877 5.21531 2.31001 0
M  V30 2389 O 220.811 5.9952 0.534727 0
M  V30 2390 H 224.637 2.9448 -0.742661 0
M  V30 2391 H 222.222 1.43117 -0.428705 0
M  V30 2392 H 224.104 3.93796 1.50008 0
M  V30 2393 H 222.779 2.758 1.69458 0
M  V30 2394 H 221.686 3.71796 -0.414558 0
M  V30 2395 H 223.019 4.89383 -0.52586 0
M  V30 2396 N 224.671 0.411399 1.52136 0
M  V30 2397 C 225.919 -0.163322 2.01439 0
M  V30 2398 C 226.24 -1.45453 1.29879 0
M  V30 2399 O 225.51 -1.91225 0.4254 0
M  V30 2400 H 224.09 -0.0633447 0.744309 0
M  V30 2401 H 226.752 0.548161 1.87033 0
M  V30 2402 H 225.848 -0.357817 3.10042 0
M  V30 2403 N 226.149 -1.5696 0.141893 0
M  V30 2404 C 227.081 -2.13619 -0.830627 0
M  V30 2405 C 228.094 -1.08439 -1.21428 0
M  V30 2406 O 229.283 -1.35734 -1.15925 0
M  V30 2407 C 226.383 -2.63978 -2.12529 0
M  V30 2408 C 225.556 -3.93504 -1.9098 0
M  V30 2409 C 224.615 -4.29225 -3.04388 0
M  V30 2410 O 223.641 -4.97641 -2.76302 0
M  V30 2411 N 224.843 -3.88393 -4.31429 0
M  V30 2412 H 227.608 -2.97691 -0.34641 0
M  V30 2413 H 225.169 -1.61846 -0.0418375 0
M  V30 2414 H 227.161 -2.84891 -2.87436 0
M  V30 2415 H 225.731 -1.84659 -2.52229 0
M  V30 2416 H 224.951 -3.81269 -1.00139 0
M  V30 2417 H 226.239 -4.78154 -1.73914 0
M  V30 2418 H 225.637 -3.33257 -4.57117 0
M  V30 2419 H 224.194 -4.14368 -5.03133 0
M  V30 2420 N 227.627 0.131896 -1.57047 0
M  V30 2421 C 228.904 0.871495 -1.75112 0
M  V30 2422 C 229.284 1.9866 -0.713949 0
M  V30 2423 O 228.632 2.26965 0.264447 0
M  V30 2424 C 228.842 1.40007 -3.19686 0
M  V30 2425 C 230.19 1.85752 -3.81813 0
M  V30 2426 O 231.214 1.49715 -3.23209 0
M  V30 2427 O 230.073 2.5226 -4.84796 0
M  V30 2428 H 227.167 0.412919 -0.716538 0
M  V30 2429 H 229.713 0.116641 -1.69299 0
M  V30 2430 H 228.485 0.599404 -3.86682 0
M  V30 2431 H 228.108 2.218 -3.29986 0
M  V30 2432 N 229.106 1.52395 0.401703 0
M  V30 2433 C 230.054 1.7689 1.51039 0
M  V30 2434 C 231.048 0.636298 1.56996 0
M  V30 2435 O 232.254 0.818507 1.60314 0
M  V30 2436 H 228.629 0.559502 0.502456 0
M  V30 2437 H 230.6 2.69757 1.27568 0
M  V30 2438 C 229.349 1.94331 2.88324 0
M  V30 2439 H 228.672 2.80905 2.84486 0
M  V30 2440 H 230.112 2.15466 3.65172 0
M  V30 2441 C 228.571 0.712396 3.29282 0
M  V30 2442 O 229.101 -0.116218 4.01532 0
M  V30 2443 N 227.307 0.546154 2.85422 0
M  V30 2444 H 226.854 1.22156 2.26794 0
M  V30 2445 H 226.812 -0.276113 3.13185 0
M  V30 2446 N 230.584 -0.659388 1.43143 0
M  V30 2447 C 231.83 -1.42145 1.44647 0
M  V30 2448 C 232.163 -1.9408 0.0681907 0
M  V30 2449 O 231.438 -1.71899 -0.910007 0
M  V30 2450 C 231.721 -2.60735 2.48373 0
M  V30 2451 C 231.574 -2.14332 3.95451 0
M  V30 2452 C 232.893 -3.62951 2.48906 0
M  V30 2453 H 230.012 -0.51552 0.526696 0
M  V30 2454 H 232.654 -0.748069 1.74654 0
M  V30 2455 H 230.804 -3.18184 2.22916 0
M  V30 2456 H 232.476 -1.61932 4.31944 0
M  V30 2457 H 230.719 -1.4576 4.08578 0
M  V30 2458 H 231.39 -2.99583 4.63631 0
M  V30 2459 H 233.866 -3.1525 2.71582 0
M  V30 2460 H 232.742 -4.43487 3.23435 0
M  V30 2461 H 233.003 -4.15126 1.52061 0
M  V30 2462 N 232.062 -1.29571 -0.897171 0
M  V30 2463 C 232.992 -1.17473 -2.01798 0
M  V30 2464 C 233.973 -0.068323 -1.69963 0
M  V30 2465 O 235.158 -0.248239 -1.92607 0
M  V30 2466 C 232.288 -0.853099 -3.36659 0
M  V30 2467 C 231.242 -1.9161 -3.82713 0
M  V30 2468 C 230.568 -1.44773 -5.14728 0
M  V30 2469 C 231.868 -3.32535 -4.02763 0
M  V30 2470 H 233.562 -2.11237 -2.12177 0
M  V30 2471 H 231.108 -1.01699 -1.01948 0
M  V30 2472 H 233.061 -0.755165 -4.14578 0
M  V30 2473 H 231.785 0.120236 -3.26379 0
M  V30 2474 H 230.444 -2.00346 -3.07013 0
M  V30 2475 H 230.092 -0.462995 -5.00865 0
M  V30 2476 H 229.792 -2.15865 -5.46513 0
M  V30 2477 H 231.316 -1.36334 -5.95185 0
M  V30 2478 H 232.73 -3.26626 -4.71156 0
M  V30 2479 H 231.127 -4.01607 -4.45905 0
M  V30 2480 H 232.197 -3.75326 -3.07016 0
M  V30 2481 N 233.54 1.10788 -1.12088 0
M  V30 2482 C 234.47 2.19083 -0.807755 0
M  V30 2483 C 235.451 1.6858 0.226859 0
M  V30 2484 O 236.636 1.93997 0.0888475 0
M  V30 2485 C 233.766 3.46344 -0.257576 0
M  V30 2486 C 232.72 4.101 -1.22483 0
M  V30 2487 C 232.046 5.32016 -0.535052 0
M  V30 2488 C 233.346 4.54236 -2.57811 0
M  V30 2489 H 235.04 2.45534 -1.71328 0
M  V30 2490 H 232.586 1.1801 -0.825205 0
M  V30 2491 H 234.539 4.21392 -0.0262679 0
M  V30 2492 H 233.263 3.19373 0.683278 0
M  V30 2493 H 231.922 3.37054 -1.44189 0
M  V30 2494 H 231.57 5.01319 0.410827 0
M  V30 2495 H 231.27 5.75625 -1.18024 0
M  V30 2496 H 232.794 6.09799 -0.312695 0
M  V30 2497 H 234.208 5.20575 -2.40155 0
M  V30 2498 H 232.605 5.08682 -3.18375 0
M  V30 2499 H 233.675 3.6734 -3.16528 0
M  V30 2500 N 235.018 0.912232 1.28515 0
M  V30 2501 C 236.264 0.545405 1.95328 0
M  V30 2502 C 236.597 -0.908313 1.71649 0
M  V30 2503 O 235.872 -1.64575 1.03659 0
M  V30 2504 C 236.155 0.853483 3.4984 0
M  V30 2505 C 236.008 2.35982 3.82926 0
M  V30 2506 C 237.327 0.348589 4.38717 0
M  V30 2507 H 234.446 0.199626 0.709449 0
M  V30 2508 H 237.088 1.1412 1.5191 0
M  V30 2509 H 235.238 0.34643 3.86952 0
M  V30 2510 H 236.91 2.93738 3.55691 0
M  V30 2511 H 235.153 2.81543 3.30024 0
M  V30 2512 H 235.824 2.52593 4.90816 0
M  V30 2513 H 238.3 0.78294 4.08668 0
M  V30 2514 H 237.176 0.593242 5.45685 0
M  V30 2515 H 237.437 -0.751049 4.35674 0
M  V30 2516 N 236.496 -1.42363 0.676048 0
M  V30 2517 C 237.744 -2.01123 0.198437 0
M  V30 2518 C 238.065 -1.53731 -1.19966 0
M  V30 2519 O 237.335 -0.759518 -1.80577 0
M  V30 2520 H 235.915 -0.743678 0.0703721 0
M  V30 2521 H 238.577 -1.74263 0.872837 0
M  V30 2522 H 237.673 -3.11454 0.200686 0
M  V30 2523 N 237.974 -0.419461 -1.51915 0
M  V30 2524 C 239.385 0.0477853 -1.86639 0
M  V30 2525 C 239.736 1.43531 -1.33766 0
M  V30 2526 O 238.861 2.05401 -0.68113 0
M  V30 2527 C 239.456 0.0934885 -3.38671 0
M  V30 2528 C 238.015 0.505097 -3.72996 0
M  V30 2529 C 237.162 -0.313792 -2.75519 0
M  V30 2530 H 240.113 -0.636088 -1.45395 0
M  V30 2531 H 240.134 0.906667 -3.6954 0
M  V30 2532 H 239.646 -0.916501 -3.77123 0
M  V30 2533 H 237.747 1.52135 -3.40126 0
M  V30 2534 H 237.86 0.242309 -4.78487 0
M  V30 2535 H 236.224 0.225363 -2.53701 0
M  V30 2536 H 237.007 -1.32232 -3.16812 0
M  V30 2537 N 239.452 1.56882 -0.150215 0
M  V30 2538 C 240.382 2.19935 0.784284 0
M  V30 2539 C 241.363 1.14854 1.25469 0
M  V30 2540 O 242.548 1.43209 1.31168 0
M  V30 2541 C 239.678 2.82349 2.02229 0
M  V30 2542 C 238.632 3.93285 1.68853 0
M  V30 2543 C 237.958 4.42649 2.99944 0
M  V30 2544 C 239.258 5.13904 0.932714 0
M  V30 2545 H 240.952 2.9828 0.258781 0
M  V30 2546 H 238.498 1.43473 0.123029 0
M  V30 2547 H 240.451 3.25126 2.68088 0
M  V30 2548 H 239.175 2.0134 2.57157 0
M  V30 2549 H 237.834 3.5113 1.05371 0
M  V30 2550 H 237.482 3.58458 3.52869 0
M  V30 2551 H 237.182 5.17476 2.78374 0
M  V30 2552 H 238.706 4.88099 3.66868 0
M  V30 2553 H 240.12 5.53506 1.49345 0
M  V30 2554 H 238.517 5.94515 0.81684 0
M  V30 2555 H 239.587 4.84842 -0.0749568 0
M  V30 2556 N 240.93 -0.123565 1.57115 0
M  V30 2557 C 242.341 -0.681198 1.73829 0
M  V30 2558 C 242.692 -1.80535 0.768214 0
M  V30 2559 O 241.817 -2.16317 -0.0599103 0
M  V30 2560 C 242.412 -1.24246 3.15196 0
M  V30 2561 C 240.971 -1.74643 3.33432 0
M  V30 2562 C 240.118 -0.644284 2.69711 0
M  V30 2563 H 243.069 0.102315 1.5837 0
M  V30 2564 H 243.09 -2.11216 3.16493 0
M  V30 2565 H 242.602 -0.424062 3.85776 0
M  V30 2566 H 240.703 -2.58974 2.67886 0
M  V30 2567 H 240.816 -1.85902 4.41562 0
M  V30 2568 H 239.18 -1.07676 2.3082 0
M  V30 2569 H 239.963 0.163058 3.42913 0
M  V30 2570 N 242.408 -1.52605 -0.393616 0
M  V30 2571 C 243.656 -1.67093 -1.13685 0
M  V30 2572 C 243.977 -0.411011 -1.90619 0
M  V30 2573 O 243.247 0.574491 -1.87287 0
M  V30 2574 H 241.827 -0.615923 -0.422668 0
M  V30 2575 H 244.489 -1.89704 -0.447039 0
M  V30 2576 H 243.585 -2.51922 -1.84232 0
M  V30 2577 N 243.887 0.651787 -1.4349 0
M  V30 2578 C 244.797 1.79368 -1.5121 0
M  V30 2579 C 245.813 1.69361 -0.399093 0
M  V30 2580 O 246.989 1.90505 -0.653431 0
M  V30 2581 C 244.054 3.15653 -1.43401 0
M  V30 2582 C 243.115 3.37446 -2.65384 0
M  V30 2583 C 242.348 4.67229 -2.57939 0
M  V30 2584 O 242.571 5.46676 -1.62792 0
M  V30 2585 O 241.505 4.90773 -3.48462 0
M  V30 2586 H 245.331 1.7581 -2.47638 0
M  V30 2587 H 242.916 0.810447 -1.25507 0
M  V30 2588 H 244.798 3.96935 -1.41494 0
M  V30 2589 H 243.473 3.19798 -0.501085 0
M  V30 2590 H 242.38 2.55923 -2.72863 0
M  V30 2591 H 243.713 3.38148 -3.57654 0
M  V30 2592 N 245.365 1.30045 0.890287 0
M  V30 2593 C 246.297 1.11786 2.00091 0
M  V30 2594 C 247.31 0.0626307 1.62679 0
M  V30 2595 O 248.499 0.308112 1.75821 0
M  V30 2596 C 245.599 0.681527 3.31977 0
M  V30 2597 C 244.772 1.81735 3.97858 0
M  V30 2598 C 243.831 1.37045 5.08041 0
M  V30 2599 O 242.857 2.07677 5.29961 0
M  V30 2600 N 244.059 0.246525 5.79976 0
M  V30 2601 H 246.824 2.07441 2.16306 0
M  V30 2602 H 244.385 1.2211 1.06305 0
M  V30 2603 H 246.377 0.365675 4.03045 0
M  V30 2604 H 244.947 -0.182828 3.12065 0
M  V30 2605 H 244.167 2.30159 3.20032 0
M  V30 2606 H 245.455 2.57865 4.38615 0
M  V30 2607 H 244.853 -0.34215 5.64664 0
M  V30 2608 H 243.41 -0.00990438 6.51799 0
M  V30 2609 N 246.843 -1.10192 1.12674 0
M  V30 2610 C 248.073 -1.85713 0.905213 0
M  V30 2611 C 248.481 -1.81056 -0.549108 0
M  V30 2612 O 247.824 -1.19927 -1.39151 0
M  V30 2613 C 247.886 -3.34972 1.30516 0
M  V30 2614 C 247.55 -3.63385 2.77129 0
M  V30 2615 C 248.547 -3.59772 3.75313 0
M  V30 2616 C 246.232 -3.91981 3.14096 0
M  V30 2617 C 248.226 -3.84354 5.08479 0
M  V30 2618 C 245.913 -4.16218 4.47443 0
M  V30 2619 C 246.911 -4.12395 5.44444 0
M  V30 2620 O 246.599 -4.36014 6.75387 0
M  V30 2621 H 246.331 -0.593719 0.323223 0
M  V30 2622 H 248.885 -1.40198 1.50112 0
M  V30 2623 H 247.115 -3.81156 0.652463 0
M  V30 2624 H 248.804 -3.91886 1.05736 0
M  V30 2625 H 249.57 -3.37716 3.48099 0
M  V30 2626 H 245.449 -3.94085 2.39202 0
M  V30 2627 H 248.993 -3.81285 5.84181 0
M  V30 2628 H 244.89 -4.37754 4.74386 0
M  V30 2629 H 245.658 -4.53516 6.8137 0
M  V30 2630 N 248.321 -0.919034 -1.28029 0
M  V30 2631 C 249.253 -0.368762 -2.26214 0
M  V30 2632 C 250.266 0.495716 -1.55069 0
M  V30 2633 O 251.455 0.30974 -1.75792 0
M  V30 2634 C 248.555 0.491049 -3.35324 0
M  V30 2635 C 247.728 -0.352133 -4.3598 0
M  V30 2636 C 246.787 0.443622 -5.24327 0
M  V30 2637 O 245.813 -0.14566 -5.69014 0
M  V30 2638 N 247.015 1.74545 -5.53637 0
M  V30 2639 H 249.78 -1.21273 -2.74068 0
M  V30 2640 H 247.341 -0.785541 -1.41566 0
M  V30 2641 H 249.333 1.03026 -3.91366 0
M  V30 2642 H 247.903 1.23574 -2.87138 0
M  V30 2643 H 247.123 -1.07269 -3.79324 0
M  V30 2644 H 248.411 -0.928883 -5.00249 0
M  V30 2645 H 247.809 2.24666 -5.19174 0
M  V30 2646 H 246.366 2.23138 -6.12416 0
M  V30 2647 N 249.799 1.42003 -0.683588 0
M  V30 2648 C 250.709 2.34597 -0.0109075 0
M  V30 2649 C 251.725 1.55576 0.779245 0
M  V30 2650 O 252.901 1.88107 0.719555 0
M  V30 2651 C 249.966 3.34199 0.922588 0
M  V30 2652 C 249.027 4.29115 0.125984 0
M  V30 2653 C 248.26 5.23959 1.01502 0
M  V30 2654 O 248.483 5.23952 2.25456 0
M  V30 2655 O 247.417 6.00053 0.47111 0
M  V30 2656 H 251.243 2.93675 -0.773853 0
M  V30 2657 H 248.828 1.42654 -0.443861 0
M  V30 2658 H 250.71 3.95365 1.45823 0
M  V30 2659 H 249.385 2.77582 1.66523 0
M  V30 2660 H 248.292 3.71335 -0.453969 0
M  V30 2661 H 249.625 4.88798 -0.577736 0
M  V30 2662 N 251.277 0.427512 1.51691 0
M  V30 2663 C 252.526 -0.143679 2.01188 0
M  V30 2664 C 252.839 -1.44642 1.31674 0
M  V30 2665 O 254.045 -2.09997 1.72086 0
M  V30 2666 C 252.501 -0.306602 3.58592 0
M  V30 2667 C 252.109 0.985125 4.37035 0
M  V30 2668 C 253.853 -0.832091 4.16265 0
M  V30 2669 C 251.76 0.788382 5.86122 0
M  V30 2670 H 250.69 -0.0574701 0.751807 0
M  V30 2671 H 253.341 0.555772 1.74881 0
M  V30 2672 H 251.723 -1.06882 3.81303 0
M  V30 2673 H 252.897 1.75492 4.26074 0
M  V30 2674 H 251.212 1.4384 3.90767 0
M  V30 2675 H 253.809 -0.995617 5.25349 0
M  V30 2676 H 254.152 -1.81186 3.74803 0
M  V30 2677 H 254.685 -0.128444 3.97593 0
M  V30 2678 H 251.424 1.74025 6.31978 0
M  V30 2679 H 250.944 0.0582143 5.99772 0
M  V30 2680 H 252.623 0.437722 6.45518 0
M  V30 2681 N 252.755 -1.56801 0.158532 0
M  V30 2682 C 254.001 -1.96781 -0.490405 0
M  V30 2683 C 254.334 -1.04397 -1.63753 0
M  V30 2684 O 253.609 -0.0885805 -1.94298 0
M  V30 2685 C 253.892 -3.4635 -0.985594 0
M  V30 2686 C 253.745 -4.49512 0.160824 0
M  V30 2687 C 255.064 -3.98697 -1.86355 0
M  V30 2688 H 252.183 -0.715482 -0.176788 0
M  V30 2689 H 254.825 -1.88451 0.242088 0
M  V30 2690 H 252.975 -3.53579 -1.60978 0
M  V30 2691 H 254.647 -4.54353 0.797537 0
M  V30 2692 H 252.89 -4.26013 0.818256 0
M  V30 2693 H 253.561 -5.51531 -0.227569 0
M  V30 2694 H 256.037 -3.94019 -1.33746 0
M  V30 2695 H 254.913 -5.03792 -2.17909 0
M  V30 2696 H 255.174 -3.41744 -2.8047 0
M  V30 2697 N 254.233 0.115231 -1.57178 0
M  V30 2698 C 255.48 0.822351 -1.8505 0
M  V30 2699 C 255.808 1.79701 -0.744168 0
M  V30 2700 O 255.063 1.93909 0.26414 0
M  V30 2701 C 255.362 1.60324 -3.19423 0
M  V30 2702 C 255.028 0.772536 -4.44233 0
M  V30 2703 C 253.69 0.543468 -4.78121 0
M  V30 2704 C 256.042 0.193746 -5.2084 0
M  V30 2705 C 253.37 -0.274583 -5.86057 0
M  V30 2706 C 255.722 -0.611517 -6.29637 0
M  V30 2707 C 254.386 -0.850867 -6.62055 0
M  V30 2708 H 253.656 0.30092 -0.677147 0
M  V30 2709 H 256.303 0.0845802 -1.91313 0
M  V30 2710 H 254.608 2.41203 -3.08753 0
M  V30 2711 H 256.305 2.1544 -3.38211 0
M  V30 2712 H 252.895 0.96117 -4.17683 0
M  V30 2713 H 257.079 0.357926 -4.95008 0
M  V30 2714 H 252.335 -0.469206 -6.09597 0
M  V30 2715 H 256.509 -1.06697 -6.88178 0
M  V30 2716 H 254.136 -1.48657 -7.45523 0
M  V30 2717 N 255.711 1.52812 0.385517 0
M  V30 2718 C 257.122 1.5993 0.963293 0
M  V30 2719 C 257.473 0.454302 1.90868 0
M  V30 2720 O 256.598 -0.422132 2.12243 0
M  V30 2721 C 257.193 2.89871 1.75387 0
M  V30 2722 C 255.752 2.99389 2.28129 0
M  V30 2723 C 254.899 2.55071 1.08783 0
M  V30 2724 H 257.85 1.5784 0.164948 0
M  V30 2725 H 257.871 2.76553 2.61341 0
M  V30 2726 H 257.383 3.73186 1.06554 0
M  V30 2727 H 255.484 2.20619 3.00263 0
M  V30 2728 H 255.597 4.04096 2.57377 0
M  V30 2729 H 253.961 2.09473 1.4489 0
M  V30 2730 H 254.744 3.40785 0.414807 0
M  V30 2731 N 257.189 -0.644168 1.43834 0
M  V30 2732 C 258.435 -1.40603 1.46146 0
M  V30 2733 C 258.768 -1.93997 0.0887717 0
M  V30 2734 O 258.043 -1.72854 -0.891724 0
M  V30 2735 C 258.326 -2.58086 2.51124 0
M  V30 2736 C 258.179 -2.10126 3.97702 0
M  V30 2737 C 259.498 -3.60291 2.52742 0
M  V30 2738 H 256.617 -0.509905 0.532134 0
M  V30 2739 H 259.259 -0.729502 1.75437 0
M  V30 2740 H 257.409 -3.15801 2.26278 0
M  V30 2741 H 259.081 -1.57342 4.33637 0
M  V30 2742 H 257.324 -1.41419 4.10101 0
M  V30 2743 H 257.995 -2.94649 4.66783 0
M  V30 2744 H 260.471 -3.12352 2.7491 0
M  V30 2745 H 259.347 -4.40032 3.28121 0
M  V30 2746 H 259.608 -4.1349 1.56455 0
M  V30 2747 N 258.668 -1.30515 -0.883378 0
M  V30 2748 C 259.598 -1.19607 -2.00541 0
M  V30 2749 C 260.579 -0.086346 -1.69881 0
M  V30 2750 O 261.764 -0.268654 -1.92333 0
M  V30 2751 C 258.894 -0.888758 -3.35736 0
M  V30 2752 C 257.848 -1.95659 -3.8066 0
M  V30 2753 C 257.174 -1.50224 -5.13164 0
M  V30 2754 C 258.474 -3.36788 -3.99213 0
M  V30 2755 H 260.168 -2.13476 -2.09925 0
M  V30 2756 H 257.714 -1.02775 -1.00863 0
M  V30 2757 H 259.667 -0.799094 -4.13754 0
M  V30 2758 H 258.391 0.0856125 -3.26488 0
M  V30 2759 H 257.05 -2.03591 -3.04871 0
M  V30 2760 H 256.698 -0.516092 -5.00345 0
M  V30 2761 H 256.398 -2.2165 -5.44192 0
M  V30 2762 H 257.922 -1.42639 -5.93706 0
M  V30 2763 H 259.336 -3.31605 -4.67665 0
M  V30 2764 H 257.733 -4.06314 -4.41621 0
M  V30 2765 H 258.803 -3.78561 -3.03017 0
M  V30 2766 N 260.146 1.09593 -1.13257 0
M  V30 2767 C 261.371 1.8604 -0.916732 0
M  V30 2768 C 261.796 1.80504 0.529146 0
M  V30 2769 O 261.154 1.18127 1.37534 0
M  V30 2770 C 261.202 3.32017 -1.40703 0
M  V30 2771 O 260.306 4.08141 -0.591153 0
M  V30 2772 H 259.647 0.576943 -0.328683 0
M  V30 2773 H 262.177 1.38405 -1.50682 0
M  V30 2774 H 262.187 3.82865 -1.4099 0
M  V30 2775 H 260.862 3.35361 -2.45979 0
M  V30 2776 H 259.439 3.67084 -0.656005 0
M  V30 2777 N 261.624 0.925811 1.2754 0
M  V30 2778 C 263.035 0.610102 1.7645 0
M  V30 2779 C 263.386 -0.874723 1.75622 0
M  V30 2780 O 262.511 -1.68444 1.35851 0
M  V30 2781 C 263.106 1.10073 3.20421 0
M  V30 2782 C 261.665 0.835723 3.67005 0
M  V30 2783 C 260.812 1.26054 2.46993 0
M  V30 2784 H 263.763 1.10579 1.13833 0
M  V30 2785 H 263.784 0.447557 3.77859 0
M  V30 2786 H 263.296 2.18143 3.20991 0
M  V30 2787 H 261.397 -0.231249 3.71882 0
M  V30 2788 H 261.51 1.45193 4.56569 0
M  V30 2789 H 259.874 0.679111 2.45479 0
M  V30 2790 H 260.657 2.34984 2.50275 0
M  V30 2791 N 263.102 -1.41638 0.69111 0
M  V30 2792 C 264.05 -2.32597 0.0115199 0
M  V30 2793 C 265.044 -1.5072 -0.773296 0
M  V30 2794 O 266.25 -1.66685 -0.67942 0
M  V30 2795 H 262.625 -0.751849 -0.0150746 0
M  V30 2796 H 264.596 -2.87593 0.795791 0
M  V30 2797 C 263.345 -3.35467 -0.914172 0
M  V30 2798 H 262.668 -3.9852 -0.319687 0
M  V30 2799 H 264.108 -4.01662 -1.35808 0
M  V30 2800 C 262.567 -2.69004 -2.02826 0
M  V30 2801 O 263.097 -2.53444 -3.11655 0
M  V30 2802 N 261.303 -2.2777 -1.80469 0
M  V30 2803 H 260.85 -2.40626 -0.919615 0
M  V30 2804 H 260.808 -1.83635 -2.55197 0
M  V30 2805 N 264.58 -0.43555 -1.51462 0
M  V30 2806 C 265.991 0.0279871 -1.86679 0
M  V30 2807 C 266.342 1.42104 -1.35281 0
M  V30 2808 O 265.467 2.04667 -0.702878 0
M  V30 2809 C 266.062 0.0575626 -3.38751 0
M  V30 2810 C 264.621 0.465507 -3.7351 0
M  V30 2811 C 263.768 -0.342996 -2.75171 0
M  V30 2812 H 266.719 -0.651473 -1.44712 0
M  V30 2813 H 266.74 0.867421 -3.70481 0
M  V30 2814 H 266.252 -0.956448 -3.7613 0
M  V30 2815 H 264.353 1.48519 -3.41721 0
M  V30 2816 H 264.466 0.191546 -4.78717 0
M  V30 2817 H 262.83 0.198442 -2.53926 0
M  V30 2818 H 263.613 -1.35585 -3.15391 0
M  V30 2819 N 266.058 1.56714 -0.166846 0
M  V30 2820 C 267.286 2.0112 0.485644 0
M  V30 2821 C 267.701 1.04705 1.57106 0
M  V30 2822 O 267.058 0.0471923 1.82439 0
M  V30 2823 C 267.109 3.45361 1.06808 0
M  V30 2824 O 266.83 4.38092 0.0259995 0
M  V30 2825 C 268.331 4.05145 1.79924 0
M  V30 2826 H 265.551 0.65931 0.124704 0
M  V30 2827 H 268.095 2.02746 -0.267262 0
M  V30 2828 H 266.25 3.44524 1.7715 0
M  V30 2829 H 266.664 5.22519 0.455398 0
M  V30 2830 H 268.138 5.08009 2.15942 0
M  V30 2831 H 268.615 3.46982 2.69258 0
M  V30 2832 H 269.221 4.09672 1.14234 0
M  V30 2833 N 267.536 -0.106894 1.57237 0
M  V30 2834 C 268.764 -0.826389 1.8968 0
M  V30 2835 C 269.179 -1.72856 0.759353 0
M  V30 2836 O 268.536 -1.80503 -0.269263 0
M  V30 2837 C 268.587 -1.64967 3.21665 0
M  V30 2838 O 268.308 -0.783804 4.31031 0
M  V30 2839 C 269.809 -2.47326 3.67892 0
M  V30 2840 H 267.029 -0.236927 0.627779 0
M  V30 2841 H 269.573 -0.0876593 2.04312 0
M  V30 2842 H 267.728 -2.34103 3.08666 0
M  V30 2843 H 268.142 -1.35284 5.06753 0
M  V30 2844 H 269.616 -3.00604 4.6297 0
M  V30 2845 H 270.093 -3.25247 2.95146 0
M  V30 2846 H 270.699 -1.83411 3.83719 0
M  V30 2847 N 269.014 -1.53014 -0.377408 0
M  V30 2848 C 270.291 -1.59215 -1.13622 0
M  V30 2849 C 270.671 -0.392407 -2.07421 0
M  V30 2850 O 270.019 0.618342 -2.19975 0
M  V30 2851 C 270.229 -2.93669 -1.88573 0
M  V30 2852 C 271.577 -3.47822 -2.43526 0
M  V30 2853 O 272.601 -2.9562 -1.98715 0
M  V30 2854 O 271.46 -4.39055 -3.25412 0
M  V30 2855 H 268.554 -0.642625 -0.52054 0
M  V30 2856 H 271.1 -1.65353 -0.381625 0
M  V30 2857 H 269.872 -3.7243 -1.20048 0
M  V30 2858 H 269.495 -2.90968 -2.70968 0
M  V30 2859 N 270.492 0.636531 -1.44174 0
M  V30 2860 C 271.439 1.74875 -1.50624 0
M  V30 2861 C 272.409 1.62275 -0.35442 0
M  V30 2862 O 273.594 1.82276 -0.563908 0
M  V30 2863 C 270.734 3.13102 -1.45125 0
M  V30 2864 C 269.847 3.36717 -2.7064 0
M  V30 2865 C 268.982 4.64885 -2.57013 0
M  V30 2866 C 268.021 4.8166 -3.77717 0
M  V30 2867 N 267.158 6.01101 -3.62798 0
M  V30 2868 H 271.998 1.68697 -2.45653 0
M  V30 2869 H 269.535 0.823004 -1.21922 0
M  V30 2870 H 271.493 3.93034 -1.39929 0
M  V30 2871 H 270.123 3.18308 -0.536671 0
M  V30 2872 H 269.175 2.50763 -2.86046 0
M  V30 2873 H 270.487 3.44993 -3.60252 0
M  V30 2874 H 269.641 5.52969 -2.49619 0
M  V30 2875 H 268.38 4.58957 -1.64953 0
M  V30 2876 H 267.385 3.92007 -3.85501 0
M  V30 2877 H 268.61 4.89406 -4.70807 0
M  V30 2878 H 266.556 5.96273 -2.73486 0
M  V30 2879 H 266.473 6.10409 -4.46023 0
M  V30 2880 H 267.741 6.91761 -3.59286 0
M  V30 2881 N 271.97 1.30982 0.876444 0
M  V30 2882 C 272.918 1.18006 2.00443 0
M  V30 2883 C 273.912 0.0898871 1.69161 0
M  V30 2884 O 275.118 0.251333 1.78237 0
M  V30 2885 H 271.493 0.365196 0.65737 0
M  V30 2886 H 273.464 2.13453 2.0852 0
M  V30 2887 C 272.213 0.897521 3.35916 0
M  V30 2888 H 271.536 1.7285 3.60504 0
M  V30 2889 H 272.976 0.846874 4.15456 0
M  V30 2890 C 271.435 -0.399674 3.34521 0
M  V30 2891 O 271.965 -1.41852 3.7582 0
M  V30 2892 N 270.171 -0.413893 2.87637 0
M  V30 2893 H 269.718 0.41571 2.54224 0
M  V30 2894 H 269.676 -1.28175 2.87086 0
M  V30 2895 N 273.449 -1.08991 1.13837 0
M  V30 2896 C 274.698 -1.80631 0.897509 0
M  V30 2897 C 275.011 -1.86872 -0.57777 0
M  V30 2898 O 276.217 -2.54866 -0.935701 0
M  V30 2899 C 274.673 -3.24517 1.55618 0
M  V30 2900 C 274.281 -3.26529 3.0673 0
M  V30 2901 C 276.025 -4.00882 1.3962 0
M  V30 2902 C 273.932 -4.64965 3.65461 0
M  V30 2903 H 272.862 -0.67691 0.332129 0
M  V30 2904 H 275.513 -1.2246 1.3666 0
M  V30 2905 H 273.895 -3.82778 1.01476 0
M  V30 2906 H 275.069 -2.78008 3.67489 0
M  V30 2907 H 273.384 -2.63656 3.22296 0
M  V30 2908 H 275.981 -5.03167 1.80906 0
M  V30 2909 H 276.324 -4.14896 0.341578 0
M  V30 2910 H 276.857 -3.49075 1.90766 0
M  V30 2911 H 273.596 -4.56153 4.70749 0
M  V30 2912 H 273.116 -5.13792 3.09481 0
M  V30 2913 H 274.795 -5.3394 3.654 0
M  V30 2914 N 274.927 -0.932562 -1.27047 0
M  V30 2915 C 275.877 -0.406392 -2.24349 0
M  V30 2916 C 276.861 0.492066 -1.53191 0
M  V30 2917 O 278.053 0.328717 -1.73921 0
M  V30 2918 C 275.182 0.335214 -3.41659 0
M  V30 2919 C 274.268 -0.58004 -4.20115 0
M  V30 2920 N 274.659 -1.70203 -4.76303 0
M  V30 2921 C 272.957 -0.383974 -4.44344 0
M  V30 2922 C 273.658 -2.27167 -5.35509 0
M  V30 2923 N 272.634 -1.56068 -5.20715 0
M  V30 2924 H 276.436 -1.26299 -2.65378 0
M  V30 2925 H 273.95 -0.787408 -1.42034 0
M  V30 2926 H 275.947 0.729142 -4.10474 0
M  V30 2927 H 274.607 1.18868 -3.0216 0
M  V30 2928 H 275.618 -2.08433 -4.74106 0
M  V30 2929 H 272.295 0.428436 -4.15296 0
M  V30 2930 H 273.685 -3.21654 -5.89905 0
M  V30 2931 N 276.405 1.4127 -0.698611 0
M  V30 2932 C 277.652 2.0118 -0.230865 0
M  V30 2933 C 277.98 1.55338 1.17049 0
M  V30 2934 O 277.235 0.756775 1.80475 0
M  V30 2935 C 277.534 3.56592 -0.240192 0
M  V30 2936 C 277.2 4.21955 -1.58948 0
M  V30 2937 C 275.862 4.39524 -1.95887 0
M  V30 2938 C 278.214 4.58576 -2.47704 0
M  V30 2939 C 275.542 4.90992 -3.2116 0
M  V30 2940 C 277.894 5.11435 -3.72313 0
M  V30 2941 C 276.558 5.27215 -4.0939 0
M  V30 2942 H 275.828 0.736169 -0.0844796 0
M  V30 2943 H 278.475 1.69124 -0.8983 0
M  V30 2944 H 276.78 3.88456 0.510797 0
M  V30 2945 H 278.477 4.00758 0.139296 0
M  V30 2946 H 275.067 4.08657 -1.29219 0
M  V30 2947 H 279.251 4.44654 -2.20445 0
M  V30 2948 H 274.507 5.01393 -3.49878 0
M  V30 2949 H 278.681 5.38752 -4.4127 0
M  V30 2950 H 276.308 5.66859 -5.06533 0
M  V30 2951 N 277.883 0.443576 1.51229 0
M  V30 2952 C 279.131 -0.120557 2.0174 0
M  V30 2953 C 279.452 -1.42665 1.32935 0
M  V30 2954 O 278.722 -1.9028 0.465866 0
M  V30 2955 H 277.302 -0.0475426 0.745486 0
M  V30 2956 H 279.964 0.587711 1.85828 0
M  V30 2957 H 279.06 -0.291972 3.10731 0
M  V30 2958 N 279.361 -1.56624 0.175154 0
M  V30 2959 C 280.308 -2.18149 -0.753634 0
M  V30 2960 C 281.278 -1.12265 -1.22417 0
M  V30 2961 O 282.463 -1.40432 -1.29165 0
M  V30 2962 C 279.603 -2.82933 -1.97592 0
M  V30 2963 C 278.716 -4.03289 -1.5486 0
M  V30 2964 C 277.851 -4.55988 -2.72485 0
M  V30 2965 C 276.89 -5.68746 -2.26262 0
M  V30 2966 N 276.027 -6.15938 -3.36994 0
M  V30 2967 H 280.867 -2.9717 -0.222195 0
M  V30 2968 H 278.404 -1.46774 -0.0979422 0
M  V30 2969 H 280.362 -3.18653 -2.69288 0
M  V30 2970 H 278.992 -2.06509 -2.481 0
M  V30 2971 H 278.044 -3.73364 -0.728246 0
M  V30 2972 H 279.356 -4.849 -1.16933 0
M  V30 2973 H 278.51 -4.9391 -3.52332 0
M  V30 2974 H 277.249 -3.73443 -3.13674 0
M  V30 2975 H 276.254 -5.30372 -1.44863 0
M  V30 2976 H 277.479 -6.53095 -1.86127 0
M  V30 2977 H 275.425 -5.36321 -3.77751 0
M  V30 2978 H 275.342 -6.92548 -3.03172 0
M  V30 2979 H 276.61 -6.58511 -4.17114 0
M  V30 2980 N 280.839 0.0985539 -1.57292 0
M  V30 2981 C 282.069 0.815135 -1.8984 0
M  V30 2982 C 282.477 1.7297 -0.766679 0
M  V30 2983 O 281.82 1.81698 0.270483 0
M  V30 2984 C 281.882 1.6842 -3.17608 0
M  V30 2985 C 281.546 0.94182 -4.4719 0
M  V30 2986 C 282.543 0.273212 -5.19182 0
M  V30 2987 C 280.228 0.916927 -4.9386 0
M  V30 2988 C 282.222 -0.410361 -6.36078 0
M  V30 2989 C 279.909 0.229567 -6.10669 0
M  V30 2990 C 280.907 -0.432902 -6.81627 0
M  V30 2991 O 280.595 -1.10925 -7.9621 0
M  V30 2992 H 280.327 0.238501 -0.632529 0
M  V30 2993 H 282.881 0.0812659 -2.05239 0
M  V30 2994 H 281.111 2.46022 -2.98345 0
M  V30 2995 H 282.8 2.27704 -3.36015 0
M  V30 2996 H 283.566 0.283927 -4.84168 0
M  V30 2997 H 279.445 1.42201 -4.3852 0
M  V30 2998 H 282.989 -0.928013 -6.914 0
M  V30 2999 H 278.886 0.216686 -6.45136 0
M  V30 3000 H 279.654 -1.01579 -8.12172 0
M  V30 3001 N 282.317 1.53212 0.369288 0
M  V30 3002 C 283.28 1.7872 1.43498 0
M  V30 3003 C 284.28 0.657554 1.46741 0
M  V30 3004 O 285.47 0.925736 1.47566 0
M  V30 3005 C 282.602 1.90591 2.82645 0
M  V30 3006 H 283.795 2.73894 1.22156 0
M  V30 3007 H 281.348 1.44233 0.602203 0
M  V30 3008 H 282.083 0.974709 3.09306 0
M  V30 3009 H 281.868 2.72751 2.8169 0
M  V30 3010 H 283.358 2.11931 3.59826 0
M  V30 3011 N 283.795 -0.628877 1.44509 0
M  V30 3012 C 285.044 -1.38437 1.4669 0
M  V30 3013 C 285.357 -1.95322 0.104272 0
M  V30 3014 O 286.563 -2.715 0.00362163 0
M  V30 3015 C 285.019 -2.50659 2.5826 0
M  V30 3016 C 284.627 -2.00277 4.0074 0
M  V30 3017 C 286.371 -3.27844 2.69664 0
M  V30 3018 C 284.278 -3.09854 5.0373 0
M  V30 3019 H 283.208 -0.520245 0.545766 0
M  V30 3020 H 285.859 -0.676313 1.70582 0
M  V30 3021 H 284.241 -3.2405 2.27612 0
M  V30 3022 H 285.415 -1.33736 4.40966 0
M  V30 3023 H 283.73 -1.35901 3.93599 0
M  V30 3024 H 286.327 -4.09534 3.43781 0
M  V30 3025 H 286.67 -3.77471 1.75559 0
M  V30 3026 H 287.203 -2.61543 2.99733 0
M  V30 3027 H 283.942 -2.65168 5.99472 0
M  V30 3028 H 283.462 -3.7503 4.68095 0
M  V30 3029 H 285.141 -3.74592 5.27532 0
M  V30 3030 N 285.273 -1.31445 -0.869486 0
M  V30 3031 C 286.223 -1.15731 -1.96444 0
M  V30 3032 C 287.207 -0.0681855 -1.60755 0
M  V30 3033 O 288.399 -0.293154 -1.74555 0
M  V30 3034 C 285.528 -0.867255 -3.32165 0
M  V30 3035 C 284.614 -1.99738 -3.74119 0
M  V30 3036 N 285.005 -3.24447 -3.88031 0
M  V30 3037 C 283.303 -1.89723 -4.03635 0
M  V30 3038 C 284.004 -3.98374 -4.23879 0
M  V30 3039 N 282.98 -3.26547 -4.3459 0
M  V30 3040 H 286.782 -2.10296 -2.05312 0
M  V30 3041 H 284.296 -1.23009 -1.06031 0
M  V30 3042 H 286.293 -0.735668 -4.10358 0
M  V30 3043 H 284.953 0.0701614 -3.24624 0
M  V30 3044 H 285.964 -3.59557 -3.72746 0
M  V30 3045 H 282.641 -1.03449 -4.04481 0
M  V30 3046 H 284.031 -5.05844 -4.42235 0
M  V30 3047 N 286.751 1.08385 -1.14413 0
M  V30 3048 C 287.681 2.17321 -0.854044 0
M  V30 3049 C 288.662 1.69024 0.191049 0
M  V30 3050 O 289.847 1.94141 0.0476779 0
M  V30 3051 C 286.977 3.45719 -0.330983 0
M  V30 3052 C 285.931 4.07409 -1.31155 0
M  V30 3053 C 285.257 5.30762 -0.64778 0
M  V30 3054 C 286.557 4.48665 -2.67388 0
M  V30 3055 H 288.251 2.41845 -1.76498 0
M  V30 3056 H 285.797 1.16233 -0.850051 0
M  V30 3057 H 287.75 4.21241 -0.115645 0
M  V30 3058 H 286.474 3.2075 0.615381 0
M  V30 3059 H 285.133 3.33919 -1.51306 0
M  V30 3060 H 284.781 5.02078 0.304398 0
M  V30 3061 H 284.481 5.72992 -1.30207 0
M  V30 3062 H 286.005 6.08998 -0.441972 0
M  V30 3063 H 287.419 5.15364 -2.51143 0
M  V30 3064 H 285.816 5.01814 -3.29093 0
M  V30 3065 H 286.886 3.60543 -3.24248 0
M  V30 3066 N 288.23 0.939286 1.26551 0
M  V30 3067 C 289.478 0.58469 1.93457 0
M  V30 3068 C 289.799 -0.878774 1.74076 0
M  V30 3069 O 289.069 -1.62421 1.09528 0
M  V30 3070 H 287.649 0.21325 0.715914 0
M  V30 3071 H 290.311 1.1942 1.54029 0
M  V30 3072 H 289.407 0.800849 3.0165 0
M  V30 3073 N 289.708 -1.40897 0.706093 0
M  V30 3074 C 290.671 -2.29131 0.0562841 0
M  V30 3075 C 291.671 -1.44901 -0.697166 0
M  V30 3076 O 292.861 -1.65926 -0.530484 0
M  V30 3077 C 289.993 -3.27957 -0.93043 0
M  V30 3078 H 291.186 -2.88091 0.833284 0
M  V30 3079 H 288.739 -1.4906 0.470192 0
M  V30 3080 H 289.474 -2.73997 -1.73482 0
M  V30 3081 H 289.259 -3.90124 -0.393166 0
M  V30 3082 H 290.749 -3.94049 -1.38256 0
M  V30 3083 N 291.186 -0.45159 -1.50991 0
M  V30 3084 C 292.134 0.366864 -2.29689 0
M  V30 3085 C 293.128 1.00809 -1.36139 0
M  V30 3086 O 294.334 0.941427 -1.53418 0
M  V30 3087 H 290.709 0.137133 -0.739391 0
M  V30 3088 H 292.68 -0.317538 -2.96706 0
M  V30 3089 C 291.429 1.44751 -3.16137 0
M  V30 3090 H 290.752 0.963473 -3.88017 0
M  V30 3091 H 292.192 1.99315 -3.74232 0
M  V30 3092 C 290.651 2.43869 -2.32442 0
M  V30 3093 O 291.181 3.4872 -1.99392 0
M  V30 3094 N 289.387 2.15105 -1.95392 0
M  V30 3095 H 288.934 1.29866 -2.22469 0
M  V30 3096 H 288.892 2.81661 -1.39693 0
M  V30 3097 N 292.664 1.56529 -0.183458 0
M  V30 3098 C 294.08 1.58664 0.172554 0
M  V30 3099 C 294.28 1.19925 1.61926 0
M  V30 3100 O 293.336 0.916534 2.35278 0
M  V30 3101 C 294.649 3.00463 -0.119262 0
M  V30 3102 C 296.197 3.12945 -0.0584396 0
M  V30 3103 C 296.672 4.56857 -0.323408 0
M  V30 3104 N 298.163 4.62403 -0.271612 0
M  V30 3105 C 298.898 5.71626 -0.450639 0
M  V30 3106 N 298.394 6.89362 -0.689384 0
M  V30 3107 N 300.187 5.60775 -0.385701 0
M  V30 3108 H 292.338 1.79994 -1.12765 0
M  V30 3109 H 294.601 0.834808 -0.449222 0
M  V30 3110 H 294.307 3.33326 -1.12192 0
M  V30 3111 H 294.181 3.72659 0.583544 0
M  V30 3112 H 296.568 2.79902 0.934805 0
M  V30 3113 H 296.649 2.4316 -0.794144 0
M  V30 3114 H 296.293 4.9061 -1.31392 0
M  V30 3115 H 296.223 5.24816 0.43305 0
M  V30 3116 H 298.714 3.77785 -0.0932256 0
M  V30 3117 H 299.027 7.68489 -0.815113 0
M  V30 3118 H 297.372 6.91196 -0.726142 0
M  V30 3119 H 300.563 4.67674 -0.199687 0
M  V30 3120 H 300.736 6.4584 -0.528646 0
M  V30 3121 N 294.142 -0.090211 1.57342 0
M  V30 3122 C 295.39 -0.791241 1.85967 0
M  V30 3123 C 295.711 -1.7903 0.772859 0
M  V30 3124 O 294.981 -1.94872 -0.200398 0
M  V30 3125 H 293.561 -0.295205 0.686195 0
M  V30 3126 H 296.223 -0.0706782 1.94772 0
M  V30 3127 H 295.319 -1.31882 2.82867 0
M  V30 3128 N 295.62 -1.53406 -0.361157 0
M  V30 3129 C 297.036 -1.43277 -0.703124 0
M  V30 3130 C 297.236 -0.575384 -1.9311 0
M  V30 3131 O 296.292 -0.0595362 -2.5243 0
M  V30 3132 C 297.605 -2.8653 -0.9122 0
M  V30 3133 C 299.153 -2.96191 -1.01193 0
M  V30 3134 C 299.628 -4.40514 -1.25345 0
M  V30 3135 N 301.119 -4.43962 -1.32105 0
M  V30 3136 C 301.854 -5.52746 -1.5251 0
M  V30 3137 N 301.35 -6.71567 -1.70203 0
M  V30 3138 N 303.143 -5.40331 -1.54916 0
M  V30 3139 H 295.294 -2.07654 0.446475 0
M  V30 3140 H 297.557 -0.937944 0.137715 0
M  V30 3141 H 297.263 -3.51605 -0.0816414 0
M  V30 3142 H 297.137 -3.30441 -1.81903 0
M  V30 3143 H 299.524 -2.31266 -1.83303 0
M  V30 3144 H 299.605 -2.55667 -0.0823929 0
M  V30 3145 H 299.249 -5.06014 -0.437346 0
M  V30 3146 H 299.179 -4.78614 -2.19627 0
M  V30 3147 H 301.67 -3.58332 -1.20028 0
M  V30 3148 H 301.983 -7.50241 -1.85359 0
M  V30 3149 H 300.328 -6.74545 -1.67373 0
M  V30 3150 H 303.519 -4.46465 -1.40663 0
M  V30 3151 H 303.692 -6.25173 -1.70477 0
M  V30 3152 N 297.098 0.621204 -1.44841 0
M  V30 3153 C 298.346 1.37783 -1.47852 0
M  V30 3154 C 298.667 1.94653 -0.116224 0
M  V30 3155 O 297.937 1.76367 0.852737 0
M  V30 3156 H 296.517 0.511453 -0.544449 0
M  V30 3157 H 299.179 0.730446 -1.80694 0
M  V30 3158 H 298.275 2.20414 -2.20961 0
M  V30 3159 N 298.576 1.31904 0.862503 0
M  V30 3160 C 299.508 1.16005 1.97675 0
M  V30 3161 C 300.521 0.0971234 1.6251 0
M  V30 3162 O 301.71 0.345337 1.75128 0
M  V30 3163 C 298.81 0.751791 3.30456 0
M  V30 3164 C 297.983 1.90133 3.93914 0
M  V30 3165 C 297.042 1.4779 5.05019 0
M  V30 3166 O 296.068 2.18872 5.25437 0
M  V30 3167 N 297.27 0.369491 5.79323 0
M  V30 3168 H 300.035 2.11982 2.11857 0
M  V30 3169 H 297.596 1.24337 1.03691 0
M  V30 3170 H 299.588 0.451084 4.02178 0
M  V30 3171 H 298.158 -0.116593 3.12382 0
M  V30 3172 H 297.378 2.36896 3.15078 0
M  V30 3173 H 298.666 2.67111 4.33047 0
M  V30 3174 H 298.064 -0.222299 5.65263 0
M  V30 3175 H 296.621 0.128354 6.51674 0
M  V30 3176 N 300.054 -1.07777 1.14986 0
M  V30 3177 C 301.303 -1.79669 0.916617 0
M  V30 3178 C 301.616 -1.87474 -0.557917 0
M  V30 3179 O 302.822 -2.55845 -0.908617 0
M  V30 3180 C 301.278 -3.22848 1.59051 0
M  V30 3181 C 300.886 -3.23257 3.10176 0
M  V30 3182 C 302.63 -3.99379 1.43864 0
M  V30 3183 C 300.537 -4.61063 3.70372 0
M  V30 3184 H 299.467 -0.673349 0.33929 0
M  V30 3185 H 302.118 -1.21003 1.37951 0
M  V30 3186 H 300.5 -3.8168 1.0553 0
M  V30 3187 H 301.674 -2.74095 3.70417 0
M  V30 3188 H 299.989 -2.60222 3.25074 0
M  V30 3189 H 302.586 -5.0122 1.86232 0
M  V30 3190 H 302.929 -4.14511 0.385564 0
M  V30 3191 H 303.462 -3.47032 1.94457 0
M  V30 3192 H 300.201 -4.51135 4.7556 0
M  V30 3193 H 299.721 -5.1048 3.14913 0
M  V30 3194 H 301.4 -5.30034 3.71043 0
M  V30 3195 N 301.532 -0.945985 -1.26051 0
M  V30 3196 C 302.762 -0.612136 -1.97323 0
M  V30 3197 C 303.17 0.818171 -1.70595 0
M  V30 3198 O 302.513 1.55777 -0.973613 0
M  V30 3199 C 302.575 -0.780347 -3.50929 0
M  V30 3200 C 302.239 -2.18619 -4.01317 0
M  V30 3201 C 303.236 -3.16209 -4.12683 0
M  V30 3202 C 300.921 -2.50805 -4.35203 0
M  V30 3203 C 302.915 -4.44085 -4.57238 0
M  V30 3204 C 300.602 -3.78912 -4.79446 0
M  V30 3205 C 301.6 -4.75365 -4.90425 0
M  V30 3206 O 301.288 -6.01191 -5.3369 0
M  V30 3207 H 301.02 -0.229134 -0.635982 0
M  V30 3208 H 303.574 -1.27036 -1.61404 0
M  V30 3209 H 301.804 -0.0649864 -3.86645 0
M  V30 3210 H 303.493 -0.448842 -4.03411 0
M  V30 3211 H 304.259 -2.92668 -3.86744 0
M  V30 3212 H 300.138 -1.76463 -4.2589 0
M  V30 3213 H 303.682 -5.19373 -4.65723 0
M  V30 3214 H 299.579 -4.02265 -5.0483 0
M  V30 3215 H 300.347 -6.04442 -5.51899 0
M  V30 3216 N 303.011 1.40521 -0.713556 0
M  V30 3217 C 304.422 1.83853 -0.324807 0
M  V30 3218 C 304.773 1.59667 1.14021 0
M  V30 3219 O 303.898 1.07649 1.87725 0
M  V30 3220 C 304.493 3.33751 -0.582746 0
M  V30 3221 C 303.052 3.75584 -0.247727 0
M  V30 3222 C 302.199 2.63753 -0.856121 0
M  V30 3223 H 305.15 1.29817 -0.91286 0
M  V30 3224 H 305.171 3.80194 0.152682 0
M  V30 3225 H 304.683 3.51322 -1.64908 0
M  V30 3226 H 302.784 3.63608 0.813624 0
M  V30 3227 H 302.897 4.7373 -0.715307 0
M  V30 3228 H 301.261 2.53108 -0.28432 0
M  V30 3229 H 302.044 2.84137 -1.92668 0
M  V30 3230 N 304.489 0.459591 1.5075 0
M  V30 3231 C 305.717 -0.0973749 2.06671 0
M  V30 3232 C 306.132 -1.34524 1.32472 0
M  V30 3233 O 305.489 -1.7827 0.390634 0
M  V30 3234 C 305.54 -0.39714 3.59312 0
M  V30 3235 O 305.261 0.801214 4.30711 0
M  V30 3236 C 306.762 -1.00234 4.31819 0
M  V30 3237 H 303.982 0.00195854 0.670997 0
M  V30 3238 H 306.526 0.645072 1.94059 0
M  V30 3239 H 304.681 -1.08951 3.71764 0
M  V30 3240 H 305.095 0.538857 5.21725 0
M  V30 3241 H 306.569 -1.16193 5.39632 0
M  V30 3242 H 307.046 -1.98939 3.91561 0
M  V30 3243 H 307.652 -0.348699 4.23868 0
M  V30 3244 N 305.967 -1.56429 0.191757 0
M  V30 3245 C 307.215 -1.97095 -0.447006 0
M  V30 3246 C 307.536 -1.07967 -1.62383 0
M  V30 3247 O 306.806 -0.150248 -1.95323 0
M  V30 3248 H 305.386 -0.727832 -0.168135 0
M  V30 3249 H 308.048 -1.92911 0.27771 0
M  V30 3250 H 307.144 -3.01848 -0.793371 0
M  V30 3251 N 307.445 0.0818655 -1.57387 0
M  V30 3252 C 308.355 1.11642 -2.06333 0
M  V30 3253 C 309.371 1.43033 -0.99083 0
M  V30 3254 O 310.547 1.53411 -1.30488 0
M  V30 3255 C 307.612 2.41342 -2.48907 0
M  V30 3256 C 306.673 2.17014 -3.7041 0
M  V30 3257 C 305.906 3.4053 -4.10944 0
M  V30 3258 O 306.129 4.4927 -3.51444 0
M  V30 3259 O 305.063 3.29336 -5.03807 0
M  V30 3260 H 308.889 0.730657 -2.9478 0
M  V30 3261 H 306.474 0.295301 -1.46452 0
M  V30 3262 H 308.356 3.17691 -2.76858 0
M  V30 3263 H 307.031 2.79319 -1.63593 0
M  V30 3264 H 305.938 1.38403 -3.47556 0
M  V30 3265 H 307.271 1.83923 -4.56545 0
M  V30 3266 N 308.923 1.53595 0.353017 0
M  V30 3267 C 309.87 1.80919 1.43308 0
M  V30 3268 C 310.84 0.654288 1.5267 0
M  V30 3269 O 312.025 0.897759 1.6836 0
M  V30 3270 C 309.165 2.01605 2.80089 0
M  V30 3271 C 308.278 3.29321 2.79593 0
M  V30 3272 C 307.413 3.40125 4.0803 0
M  V30 3273 C 306.452 4.61826 4.01725 0
M  V30 3274 N 305.589 4.69716 5.21834 0
M  V30 3275 H 310.429 2.73074 1.19308 0
M  V30 3276 H 307.966 1.35263 0.578131 0
M  V30 3277 H 309.924 2.11586 3.59565 0
M  V30 3278 H 308.554 1.12772 3.0246 0
M  V30 3279 H 307.606 3.28229 1.92276 0
M  V30 3280 H 308.918 4.18884 2.70809 0
M  V30 3281 H 308.072 3.49488 4.95927 0
M  V30 3282 H 306.811 2.48601 4.19582 0
M  V30 3283 H 305.816 4.52552 3.12213 0
M  V30 3284 H 307.041 5.54705 3.91764 0
M  V30 3285 H 304.987 3.81097 5.33948 0
M  V30 3286 H 304.904 5.53202 5.1527 0
M  V30 3287 H 306.172 4.83376 6.11529 0
M  V30 3288 N 310.401 -0.613514 1.45168 0
M  V30 3289 C 311.626 -1.40437 1.52618 0
M  V30 3290 C 312.051 -1.87438 0.157707 0
M  V30 3291 O 311.409 -1.59791 -0.856537 0
M  V30 3292 C 311.457 -2.58894 2.51011 0
M  V30 3293 O 310.561 -3.59326 2.02382 0
M  V30 3294 H 309.902 -0.419506 0.514695 0
M  V30 3295 H 312.432 -0.747215 1.90467 0
M  V30 3296 H 312.442 -3.06214 2.69624 0
M  V30 3297 H 311.117 -2.24032 3.50403 0
M  V30 3298 H 309.694 -3.18695 1.93618 0
M  V30 3299 N 311.879 -1.3236 -0.855495 0
M  V30 3300 C 312.827 -1.2118 -1.9854 0
M  V30 3301 C 313.821 -0.116788 -1.68997 0
M  V30 3302 O 315.027 -0.279657 -1.77814 0
M  V30 3303 H 311.402 -0.375608 -0.651477 0
M  V30 3304 H 313.373 -2.16743 -2.05098 0
M  V30 3305 C 312.122 -0.950849 -3.34446 0
M  V30 3306 H 311.445 -1.78563 -3.57708 0
M  V30 3307 H 312.885 -0.912863 -4.14057 0
M  V30 3308 C 311.344 0.346404 -3.35114 0
M  V30 3309 O 311.874 1.35855 -3.7803 0
M  V30 3310 N 310.08 0.36808 -2.88259 0
M  V30 3311 H 309.627 -0.456102 -2.5353 0
M  V30 3312 H 309.585 1.23591 -2.89089 0
M  V30 3313 N 313.357 1.07166 -1.15556 0
M  V30 3314 C 314.305 2.16517 -0.8499 0
M  V30 3315 C 315.299 1.68468 0.177454 0
M  V30 3316 O 316.505 1.79971 0.0323026 0
M  V30 3317 H 312.88 0.706652 -0.25719 0
M  V30 3318 H 314.851 2.39514 -1.77976 0
M  V30 3319 C 313.6 3.45855 -0.357682 0
M  V30 3320 H 312.923 3.83214 -1.13961 0
M  V30 3321 H 314.363 4.23607 -0.182489 0
M  V30 3322 C 312.822 3.24062 0.921152 0
M  V30 3323 O 313.352 3.48813 1.9923 0
M  V30 3324 N 311.558 2.77539 0.86141 0
M  V30 3325 H 311.105 2.57598 -0.0104408 0
M  V30 3326 H 311.063 2.63337 1.71758 0
M  V30 3327 N 314.835 0.952656 1.25548 0
M  V30 3328 C 315.783 0.462354 2.27958 0
M  V30 3329 C 316.777 -0.46634 1.62855 0
M  V30 3330 O 317.983 -0.343287 1.76696 0
M  V30 3331 H 314.358 0.13101 0.7405 0
M  V30 3332 H 316.329 1.33839 2.66702 0
M  V30 3333 C 315.078 -0.24628 3.46827 0
M  V30 3334 H 314.401 0.459192 3.97154 0
M  V30 3335 H 315.841 -0.553393 4.20373 0
M  V30 3336 C 314.3 -1.4681 3.0323 0
M  V30 3337 O 314.83 -2.56591 3.09069 0
M  V30 3338 N 313.036 -1.32874 2.58443 0
M  V30 3339 H 312.583 -0.435536 2.53891 0
M  V30 3340 H 312.541 -2.14742 2.29637 0
M  V30 3341 N 316.313 -1.40141 0.720998 0
M  V30 3342 C 317.559 -2.01084 0.263231 0
M  V30 3343 C 317.892 -1.57052 -1.14229 0
M  V30 3344 O 317.167 -0.793027 -1.77599 0
M  V30 3345 C 317.45 -3.58401 0.349344 0
M  V30 3346 C 317.303 -4.12491 1.79363 0
M  V30 3347 C 318.622 -4.39231 -0.276351 0
M  V30 3348 H 315.741 -0.730572 0.0971228 0
M  V30 3349 H 318.383 -1.66543 0.914518 0
M  V30 3350 H 316.533 -3.87958 -0.205165 0
M  V30 3351 H 318.205 -3.93711 2.40394 0
M  V30 3352 H 316.448 -3.66576 2.31958 0
M  V30 3353 H 317.119 -5.21646 1.80524 0
M  V30 3354 H 319.595 -4.15637 0.196184 0
M  V30 3355 H 318.471 -5.48586 -0.185681 0
M  V30 3356 H 318.732 -4.20643 -1.36059 0
M  V30 3357 N 317.792 -0.46758 -1.50504 0
M  V30 3358 C 319.039 0.0886219 -2.02306 0
M  V30 3359 C 319.367 1.40037 -1.34981 0
M  V30 3360 O 318.622 1.90136 -0.463318 0
M  V30 3361 C 318.921 0.323995 -3.55928 0
M  V30 3362 C 318.587 -0.905618 -4.41712 0
M  V30 3363 C 317.249 -1.24275 -4.64875 0
M  V30 3364 C 319.601 -1.72448 -4.91845 0
M  V30 3365 C 316.929 -2.39888 -5.35417 0
M  V30 3366 C 319.281 -2.87185 -5.63656 0
M  V30 3367 C 317.945 -3.21317 -5.85074 0
M  V30 3368 H 317.215 0.0324291 -0.74029 0
M  V30 3369 H 319.862 -0.620945 -1.81153 0
M  V30 3370 H 318.167 1.11577 -3.75577 0
M  V30 3371 H 319.864 0.76826 -3.93572 0
M  V30 3372 H 316.454 -0.632956 -4.239 0
M  V30 3373 H 320.638 -1.4772 -4.73806 0
M  V30 3374 H 315.894 -2.66611 -5.50208 0
M  V30 3375 H 320.068 -3.50985 -6.01484 0
M  V30 3376 H 317.695 -4.1101 -6.39511 0
M  V30 3377 N 319.27 1.56325 -0.20005 0
M  V30 3378 C 320.498 2.02105 0.442874 0
M  V30 3379 C 320.913 1.08014 1.5485 0
M  V30 3380 O 320.27 0.0858797 1.82298 0
M  V30 3381 C 320.321 3.47549 0.994583 0
M  V30 3382 O 320.042 4.38049 -0.0669322 0
M  V30 3383 C 321.543 4.0887 1.7129 0
M  V30 3384 H 318.763 0.661807 0.110691 0
M  V30 3385 H 321.307 2.02134 -0.310207 0
M  V30 3386 H 319.462 3.48204 1.69803 0
M  V30 3387 H 319.876 5.23368 0.344462 0
M  V30 3388 H 321.35 5.12475 2.05118 0
M  V30 3389 H 321.827 3.52615 2.61838 0
M  V30 3390 H 322.433 4.12002 1.05518 0
M  V30 3391 N 320.748 -0.0735177 1.57428 0
M  V30 3392 C 321.711 -1.07192 2.02589 0
M  V30 3393 C 322.711 -1.31695 0.922661 0
M  V30 3394 O 323.901 -1.27445 1.18758 0
M  V30 3395 C 321.033 -2.41599 2.40506 0
M  V30 3396 H 322.226 -0.682727 2.92025 0
M  V30 3397 H 319.779 -0.319193 1.53006 0
M  V30 3398 H 320.514 -2.85354 1.5409 0
M  V30 3399 H 320.299 -2.25156 3.21009 0
M  V30 3400 H 321.789 -3.13367 2.76027 0
M  V30 3401 N 322.226 -1.5378 -0.344866 0
M  V30 3402 C 323.451 -1.75211 -1.10977 0
M  V30 3403 C 323.876 -0.48936 -1.81623 0
M  V30 3404 O 323.234 0.557925 -1.72502 0
M  V30 3405 C 323.282 -2.93147 -2.09993 0
M  V30 3406 O 322.386 -2.63203 -3.17487 0
M  V30 3407 H 321.727 -0.581241 -0.321021 0
M  V30 3408 H 324.257 -2.00738 -0.395661 0
M  V30 3409 H 324.267 -3.19898 -2.53237 0
M  V30 3410 H 322.942 -3.84731 -1.5797 0
M  V30 3411 H 321.519 -2.47336 -2.79069 0
M  V30 3412 N 323.704 0.605807 -1.45491 0
M  V30 3413 C 324.667 1.69836 -1.5391 0
M  V30 3414 C 325.667 1.55261 -0.418424 0
M  V30 3415 O 326.857 1.60296 -0.681965 0
M  V30 3416 C 323.989 3.09117 -1.43734 0
M  V30 3417 H 325.182 1.63738 -2.51257 0
M  V30 3418 H 322.735 0.821689 -1.32959 0
M  V30 3419 H 323.47 3.20791 -0.475788 0
M  V30 3420 H 323.255 3.21104 -2.25021 0
M  V30 3421 H 324.745 3.88696 -1.52661 0
M  V30 3422 N 325.182 1.32811 0.848464 0
M  V30 3423 C 326.41 1.26739 1.63538 0
M  V30 3424 C 326.825 -0.163484 1.88091 0
M  V30 3425 O 326.182 -1.10258 1.45429 0
M  V30 3426 C 326.233 2.03013 2.99112 0
M  V30 3427 O 325.954 3.40518 2.75643 0
M  V30 3428 C 327.455 2.04038 3.93552 0
M  V30 3429 H 324.675 0.437024 0.509167 0
M  V30 3430 H 327.219 1.75033 1.05753 0
M  V30 3431 H 325.374 1.58426 3.53525 0
M  V30 3432 H 325.788 3.79635 3.61908 0
M  V30 3433 H 327.262 2.61877 4.85926 0
M  V30 3434 H 327.739 1.0282 4.26995 0
M  V30 3435 H 328.345 2.486 3.45077 0
M  V30 3436 N 326.66 -1.06551 1.16123 0
M  V30 3437 C 327.908 -1.78947 0.939267 0
M  V30 3438 C 328.229 -1.87532 -0.534476 0
M  V30 3439 O 327.499 -1.38211 -1.38833 0
M  V30 3440 H 326.079 -0.662807 0.344523 0
M  V30 3441 H 328.741 -1.28725 1.46342 0
M  V30 3442 H 327.837 -2.81117 1.35572 0
M  V30 3443 N 328.138 -0.959301 -1.25041 0
M  V30 3444 C 329.366 -0.633949 -1.96948 0
M  V30 3445 C 329.781 0.794916 -1.7125 0
M  V30 3446 O 329.138 1.53231 -0.991287 0
M  V30 3447 C 329.189 -0.888805 -3.50403 0
M  V30 3448 O 328.91 -2.26149 -3.75218 0
M  V30 3449 C 330.411 -0.576482 -4.39536 0
M  V30 3450 H 327.631 -0.237263 -0.627652 0
M  V30 3451 H 330.175 -1.28495 -1.59089 0
M  V30 3452 H 328.33 -0.284145 -3.86357 0
M  V30 3453 H 328.744 -2.33514 -4.6965 0
M  V30 3454 H 330.218 -0.805314 -5.46094 0
M  V30 3455 H 330.695 0.489075 -4.36468 0
M  V30 3456 H 331.301 -1.16067 -4.09156 0
M  V30 3457 N 329.616 1.39756 -0.72842 0
M  V30 3458 C 330.865 1.99879 -0.270407 0
M  V30 3459 C 331.178 1.58449 1.14688 0
M  V30 3460 O 332.384 2.11362 1.70407 0
M  V30 3461 C 330.84 3.57292 -0.43252 0
M  V30 3462 C 330.448 4.07688 -1.85727 0
M  V30 3463 C 332.192 4.24485 -0.0359507 0
M  V30 3464 C 330.099 5.5765 -1.96928 0
M  V30 3465 H 329.029 0.747689 -0.0973472 0
M  V30 3466 H 331.68 1.59837 -0.901355 0
M  V30 3467 H 330.062 3.95097 0.267219 0
M  V30 3468 H 331.236 3.81231 -2.58843 0
M  V30 3469 H 329.551 3.53135 -2.20646 0
M  V30 3470 H 332.148 5.34609 -0.0987484 0
M  V30 3471 H 332.491 4.03915 1.00787 0
M  V30 3472 H 333.024 3.9183 -0.686604 0
M  V30 3473 H 329.763 5.8309 -2.99476 0
M  V30 3474 H 329.283 5.8593 -1.28241 0
M  V30 3475 H 330.962 6.22957 -1.74737 0
M  V30 3476 N 331.094 0.475555 1.50254 0
M  V30 3477 C 332.322 -0.0754493 2.06762 0
M  V30 3478 C 332.737 -1.33111 1.33891 0
M  V30 3479 O 332.094 -1.77846 0.40952 0
M  V30 3480 C 332.145 -0.359008 3.59713 0
M  V30 3481 O 331.866 0.846851 4.29837 0
M  V30 3482 C 333.367 -0.956484 4.32858 0
M  V30 3483 H 330.587 0.00907525 0.670939 0
M  V30 3484 H 333.131 0.665618 1.93364 0
M  V30 3485 H 331.286 -1.05001 3.72899 0
M  V30 3486 H 331.7 0.594162 5.21124 0
M  V30 3487 H 333.174 -1.10463 5.40834 0
M  V30 3488 H 333.651 -1.94775 3.93649 0
M  V30 3489 H 334.257 -0.303723 4.24214 0
M  V30 3490 N 332.573 -1.56217 0.208337 0
M  V30 3491 C 333.52 -2.19699 -0.707192 0
M  V30 3492 C 334.49 -1.14836 -1.20008 0
M  V30 3493 O 335.675 -1.4314 -1.26157 0
M  V30 3494 C 332.815 -2.87061 -1.91546 0
M  V30 3495 C 331.928 -4.06483 -1.46271 0
M  V30 3496 C 331.063 -4.61665 -2.62752 0
M  V30 3497 C 330.102 -5.73417 -2.14147 0
M  V30 3498 N 329.239 -6.22948 -3.23853 0
M  V30 3499 H 334.079 -2.97575 -0.159111 0
M  V30 3500 H 331.616 -1.46948 -0.0667874 0
M  V30 3501 H 333.574 -3.24294 -2.62468 0
M  V30 3502 H 332.204 -2.11725 -2.43664 0
M  V30 3503 H 331.256 -3.74825 -0.648886 0
M  V30 3504 H 332.568 -4.87271 -1.06622 0
M  V30 3505 H 331.722 -5.01272 -3.41776 0
M  V30 3506 H 330.461 -3.80013 -3.05682 0
M  V30 3507 H 329.466 -5.33326 -1.33581 0
M  V30 3508 H 330.691 -6.56897 -1.72232 0
M  V30 3509 H 328.637 -5.44213 -3.6629 0
M  V30 3510 H 328.554 -6.98823 -2.88414 0
M  V30 3511 H 329.822 -6.6721 -4.03052 0
M  V30 3512 N 334.051 0.0651679 -1.57465 0
M  V30 3513 C 335.3 0.761916 -1.86756 0
M  V30 3514 C 335.613 1.78406 -0.801925 0
M  V30 3515 O 336.819 2.53084 -0.982885 0
M  V30 3516 C 335.275 1.40603 -3.31299 0
M  V30 3517 C 334.883 0.422115 -4.46007 0
M  V30 3518 C 336.627 2.08476 -3.69781 0
M  V30 3519 C 334.534 1.07252 -5.81593 0
M  V30 3520 H 333.464 0.288308 -0.696702 0
M  V30 3521 H 336.115 0.015344 -1.83494 0
M  V30 3522 H 334.497 2.20109 -3.29193 0
M  V30 3523 H 335.671 -0.343613 -4.59517 0
M  V30 3524 H 333.986 -0.152527 -4.16121 0
M  V30 3525 H 336.583 2.57925 -4.68379 0
M  V30 3526 H 336.926 2.88712 -2.99919 0
M  V30 3527 H 337.459 1.35792 -3.73905 0
M  V30 3528 H 334.198 0.310342 -6.54765 0
M  V30 3529 H 333.718 1.80895 -5.71872 0
M  V30 3530 H 335.397 1.59043 -6.27148 0
M  V30 3531 N 335.529 1.53961 0.336706 0
M  V30 3532 C 336.492 1.81724 1.39675 0
M  V30 3533 C 337.492 0.688532 1.45313 0
M  V30 3534 O 338.682 0.956829 1.45569 0
M  V30 3535 C 335.814 1.96543 2.78538 0
M  V30 3536 H 337.007 2.76424 1.16318 0
M  V30 3537 H 334.56 1.45478 0.571474 0
M  V30 3538 H 335.295 1.0401 3.07168 0
M  V30 3539 H 335.08 2.78665 2.75841 0
M  V30 3540 H 336.57 2.19516 3.5525 0
M  V30 3541 N 337.007 -0.598083 1.45811 0
M  V30 3542 C 337.954 -1.7082 1.55207 0
M  V30 3543 C 338.924 -1.61278 0.39732 0
M  V30 3544 O 340.109 -1.80717 0.612038 0
M  V30 3545 C 337.249 -3.09144 1.53376 0
M  V30 3546 C 336.362 -3.29423 2.79472 0
M  V30 3547 C 335.497 -4.57907 2.69248 0
M  V30 3548 C 334.536 -4.71476 3.90354 0
M  V30 3549 N 333.673 -5.9127 3.78608 0
M  V30 3550 H 338.513 -1.62125 2.50039 0
M  V30 3551 H 336.05 -0.790389 1.24062 0
M  V30 3552 H 338.008 -3.89186 1.50301 0
M  V30 3553 H 336.638 -3.16773 0.620876 0
M  V30 3554 H 335.69 -2.43091 2.92594 0
M  V30 3555 H 337.002 -3.3532 3.69272 0
M  V30 3556 H 336.156 -5.46157 2.64192 0
M  V30 3557 H 334.895 -4.54423 1.77063 0
M  V30 3558 H 333.9 -3.81648 3.95759 0
M  V30 3559 H 335.125 -4.76751 4.83617 0
M  V30 3560 H 333.071 -5.88813 2.89199 0
M  V30 3561 H 332.988 -5.98369 4.6205 0
M  V30 3562 H 334.256 -6.81992 3.77501 0
M  V30 3563 N 338.485 -1.33259 -0.841409 0
M  V30 3564 C 339.395 -1.25332 -1.98316 0
M  V30 3565 C 340.411 -0.164364 -1.73222 0
M  V30 3566 O 341.587 -0.387486 -1.97637 0
M  V30 3567 C 338.652 -0.990078 -3.32262 0
M  V30 3568 C 337.713 -2.16879 -3.70489 0
M  V30 3569 C 336.946 -1.91801 -4.98044 0
M  V30 3570 O 337.169 -0.867075 -5.63771 0
M  V30 3571 O 336.103 -2.78267 -5.33714 0
M  V30 3572 H 339.929 -2.21344 -2.07944 0
M  V30 3573 H 337.514 -1.1328 -0.974058 0
M  V30 3574 H 339.396 -0.860321 -4.12524 0
M  V30 3575 H 338.071 -0.0602155 -3.23644 0
M  V30 3576 H 336.978 -2.35407 -2.90748 0
M  V30 3577 H 338.311 -3.0819 -3.8377 0
M  V30 3578 N 339.963 1.05934 -1.16686 0
M  V30 3579 C 340.873 2.17014 -0.891183 0
M  V30 3580 C 341.889 1.73453 0.137907 0
M  V30 3581 O 343.065 2.01361 -0.039592 0
M  V30 3582 C 340.13 3.44384 -0.400099 0
M  V30 3583 C 339.191 4.02433 -1.49486 0
M  V30 3584 C 338.424 5.23723 -1.02711 0
M  V30 3585 O 338.647 5.7027 0.121716 0
M  V30 3586 O 337.581 5.7382 -1.81699 0
M  V30 3587 H 341.407 2.43113 -1.82015 0
M  V30 3588 H 338.992 1.15541 -0.947132 0
M  V30 3589 H 340.874 4.21189 -0.133392 0
M  V30 3590 H 339.549 3.19802 0.500817 0
M  V30 3591 H 338.456 3.27102 -1.81535 0
M  V30 3592 H 339.789 4.31317 -2.37121 0
M  V30 3593 N 341.441 0.965919 1.2453 0
M  V30 3594 C 342.718 0.543777 1.87889 0
M  V30 3595 C 343.098 -0.97909 1.87021 0
M  V30 3596 O 342.446 -1.84969 1.3416 0
M  V30 3597 C 342.656 1.13327 3.30088 0
M  V30 3598 C 344.004 1.21707 4.06783 0
M  V30 3599 O 345.028 1.08566 3.39252 0
M  V30 3600 O 343.887 1.42456 5.27606 0
M  V30 3601 H 340.981 0.181054 0.806938 0
M  V30 3602 H 343.527 1.06007 1.32516 0
M  V30 3603 H 342.299 2.17612 3.25209 0
M  V30 3604 H 341.922 0.600911 3.93033 0
M  V30 3605 N 342.919 -1.39368 0.735821 0
M  V30 3606 C 343.829 -2.34395 0.0979693 0
M  V30 3607 C 344.845 -1.58361 -0.720968 0
M  V30 3608 O 346.021 -1.90648 -0.649245 0
M  V30 3609 C 343.086 -3.37393 -0.797916 0
M  V30 3610 C 342.147 -4.29287 0.0333662 0
M  V30 3611 C 341.38 -5.27365 -0.819854 0
M  V30 3612 O 341.603 -5.31959 -2.05855 0
M  V30 3613 O 340.537 -6.01389 -0.248079 0
M  V30 3614 H 344.363 -2.90601 0.882315 0
M  V30 3615 H 341.948 -1.40909 0.4965 0
M  V30 3616 H 343.83 -4.00505 -1.31048 0
M  V30 3617 H 342.505 -2.83571 -1.56106 0
M  V30 3618 H 341.412 -3.69395 0.591475 0
M  V30 3619 H 342.745 -4.86317 0.758752 0
M  V30 3620 N 344.397 -0.483516 -1.5 0
M  V30 3621 C 345.627 0.0643896 -2.065 0
M  V30 3622 C 346.035 1.32949 -1.34615 0
M  V30 3623 O 345.378 1.79003 -0.412756 0
M  V30 3624 C 345.44 0.405983 -3.572 0
M  V30 3625 C 345.104 -0.758875 -4.50655 0
M  V30 3626 C 346.101 -1.64445 -4.93208 0
M  V30 3627 C 343.786 -0.952725 -4.93182 0
M  V30 3628 C 345.78 -2.70818 -5.77006 0
M  V30 3629 C 343.467 -2.01966 -5.76761 0
M  V30 3630 C 344.465 -2.89574 -6.18576 0
M  V30 3631 O 344.153 -3.94429 -7.00486 0
M  V30 3632 H 343.885 -0.00934786 -0.675935 0
M  V30 3633 H 346.439 -0.674959 -1.93993 0
M  V30 3634 H 344.669 1.19869 -3.67652 0
M  V30 3635 H 346.358 0.890433 -3.96013 0
M  V30 3636 H 347.124 -1.50643 -4.61012 0
M  V30 3637 H 343.003 -0.280247 -4.60147 0
M  V30 3638 H 346.547 -3.3923 -6.09565 0
M  V30 3639 H 342.444 -2.1577 -6.0837 0
M  V30 3640 H 343.212 -3.91568 -7.1876 0
M  V30 3641 N 345.875 1.56104 -0.216619 0
M  V30 3642 C 347.123 1.97781 0.415593 0
M  V30 3643 C 347.444 1.10536 1.60645 0
M  V30 3644 O 346.714 0.181303 1.95059 0
M  V30 3645 H 345.294 0.730415 0.156534 0
M  V30 3646 H 347.956 1.92445 -0.308366 0
M  V30 3647 H 347.052 3.03072 0.74525 0
M  V30 3648 N 347.353 -0.0568162 1.57498 0
M  V30 3649 C 348.301 -1.08452 2.05769 0
M  V30 3650 C 349.295 -1.39164 0.965903 0
M  V30 3651 O 350.501 -1.38395 1.15095 0
M  V30 3652 H 346.876 -0.367148 0.656282 0
M  V30 3653 H 348.847 -0.651368 2.91204 0
M  V30 3654 C 347.596 -2.38543 2.52968 0
M  V30 3655 H 346.919 -2.15765 3.36579 0
M  V30 3656 H 348.359 -3.08863 2.90481 0
M  V30 3657 C 346.818 -3.05562 1.41893 0
M  V30 3658 O 347.348 -3.94262 0.769442 0
M  V30 3659 N 345.554 -2.6643 1.16032 0
M  V30 3660 H 345.101 -1.94387 1.6903 0
M  V30 3661 H 345.059 -3.11593 0.419219 0
M  V30 3662 N 348.832 -1.54138 -0.328536 0
M  V30 3663 C 350.078 -1.7236 -1.06865 0
M  V30 3664 C 350.411 -0.493231 -1.87832 0
M  V30 3665 O 349.686 0.5098 -1.877 0
M  V30 3666 C 349.969 -2.99621 -1.99747 0
M  V30 3667 C 349.822 -4.32899 -1.22143 0
M  V30 3668 C 351.141 -3.22615 -2.99345 0
M  V30 3669 H 348.26 -0.627151 -0.387105 0
M  V30 3670 H 350.902 -1.86827 -0.345767 0
M  V30 3671 H 349.052 -2.87418 -2.61387 0
M  V30 3672 H 350.724 -4.56978 -0.630017 0
M  V30 3673 H 348.967 -4.30628 -0.523628 0
M  V30 3674 H 349.638 -5.18154 -1.90318 0
M  V30 3675 H 352.114 -3.34248 -2.47826 0
M  V30 3676 H 350.99 -4.13027 -3.61524 0
M  V30 3677 H 351.251 -2.3961 -3.71536 0
M  V30 3678 N 350.31 0.590341 -1.46126 0
M  V30 3679 C 351.257 1.69994 -1.56111 0
M  V30 3680 C 352.227 1.61065 -0.405867 0
M  V30 3681 O 353.412 1.8039 -0.621613 0
M  V30 3682 C 350.552 3.08326 -1.55013 0
M  V30 3683 C 349.665 3.27936 -2.81215 0
M  V30 3684 C 348.8 4.56473 -2.71673 0
M  V30 3685 C 347.839 4.694 -3.92849 0
M  V30 3686 N 346.976 5.89254 -3.81738 0
M  V30 3687 H 351.816 1.60797 -2.50895 0
M  V30 3688 H 349.353 0.783799 -1.24479 0
M  V30 3689 H 351.311 3.88383 -1.52362 0
M  V30 3690 H 349.941 3.16439 -0.637667 0
M  V30 3691 H 348.993 2.41536 -2.93879 0
M  V30 3692 H 350.305 3.33357 -3.71045 0
M  V30 3693 H 349.459 5.44748 -2.67085 0
M  V30 3694 H 348.198 4.53477 -1.7947 0
M  V30 3695 H 347.203 3.79544 -3.97777 0
M  V30 3696 H 348.428 4.7418 -4.86138 0
M  V30 3697 H 346.374 5.87271 -2.92317 0
M  V30 3698 H 346.291 5.95911 -4.65217 0
M  V30 3699 H 347.559 6.79981 -3.81112 0
M  V30 3700 N 351.788 1.33704 0.83433 0
M  V30 3701 C 353.018 1.28281 1.6195 0
M  V30 3702 C 353.426 -0.147603 1.88623 0
M  V30 3703 O 352.769 -1.1016 1.47005 0
M  V30 3704 C 352.831 1.99386 2.99141 0
M  V30 3705 C 352.495 3.48681 2.95416 0
M  V30 3706 C 353.492 4.438 2.70809 0
M  V30 3707 C 351.177 3.90925 3.15409 0
M  V30 3708 C 353.171 5.79138 2.66229 0
M  V30 3709 C 350.858 5.26366 3.10454 0
M  V30 3710 C 351.856 6.20284 2.85895 0
M  V30 3711 O 351.544 7.53245 2.80852 0
M  V30 3712 H 351.276 0.44315 0.510484 0
M  V30 3713 H 353.83 1.76711 1.04702 0
M  V30 3714 H 352.06 1.45554 3.58261 0
M  V30 3715 H 353.749 1.87403 3.60049 0
M  V30 3716 H 354.515 4.12485 2.5511 0
M  V30 3717 H 350.394 3.18229 3.33543 0
M  V30 3718 H 353.938 6.52416 2.4698 0
M  V30 3719 H 349.835 5.57304 3.25703 0
M  V30 3720 H 350.603 7.62846 2.96661 0
M  V30 3721 N 353.266 -1.05314 1.17247 0
M  V30 3722 C 354.198 -2.13023 0.845812 0
M  V30 3723 C 355.211 -1.62096 -0.151246 0
M  V30 3724 O 356.4 -1.78343 0.0748818 0
M  V30 3725 C 353.5 -3.38047 0.240292 0
M  V30 3726 C 352.673 -4.18255 1.27991 0
M  V30 3727 C 351.732 -5.21625 0.692375 0
M  V30 3728 O 350.758 -5.52619 1.36385 0
M  V30 3729 N 351.96 -5.78201 -0.516178 0
M  V30 3730 H 354.725 -2.41642 1.77283 0
M  V30 3731 H 352.286 -1.21401 1.07115 0
M  V30 3732 H 354.278 -4.04359 -0.16603 0
M  V30 3733 H 352.848 -3.06972 -0.590487 0
M  V30 3734 H 352.068 -3.47451 1.86203 0
M  V30 3735 H 353.356 -4.68643 1.98119 0
M  V30 3736 H 352.754 -5.55301 -1.07969 0
M  V30 3737 H 351.311 -6.4604 -0.86458 0
M  V30 3738 N 354.744 -0.972509 -1.24016 0
M  V30 3739 C 355.99 -0.637978 -1.92504 0
M  V30 3740 C 356.323 0.825383 -1.75787 0
M  V30 3741 O 355.598 1.59442 -1.11393 0
M  V30 3742 C 355.881 -1.01942 -3.45369 0
M  V30 3743 C 355.734 -2.53983 -3.71231 0
M  V30 3744 C 357.053 -0.55751 -4.36555 0
M  V30 3745 H 354.172 -0.233248 -0.699117 0
M  V30 3746 H 356.814 -1.21238 -1.46292 0
M  V30 3747 H 354.964 -0.530656 -3.84859 0
M  V30 3748 H 356.636 -3.10374 -3.41271 0
M  V30 3749 H 354.879 -2.96968 -3.16216 0
M  V30 3750 H 355.55 -2.75723 -4.78206 0
M  V30 3751 H 358.026 -0.977029 -4.04467 0
M  V30 3752 H 356.902 -0.85292 -5.42233 0
M  V30 3753 H 357.163 0.542328 -4.38761 0
M  V30 3754 N 356.222 1.38976 -0.743202 0
M  V30 3755 C 357.447 2.05161 -0.303936 0
M  V30 3756 C 357.872 1.55677 1.05576 0
M  V30 3757 O 357.23 0.704131 1.67068 0
M  V30 3758 C 357.278 3.59138 -0.324373 0
M  V30 3759 O 356.382 4.06668 0.685204 0
M  V30 3760 H 355.723 0.649815 -0.136518 0
M  V30 3761 H 358.253 1.77852 -1.01142 0
M  V30 3762 H 358.263 4.07639 -0.171618 0
M  V30 3763 H 356.938 3.94515 -1.31647 0
M  V30 3764 H 355.515 3.69561 0.497913 0
M  V30 3765 N 357.7 0.491464 1.49741 0
M  V30 3766 C 358.949 -0.0582189 2.01616 0
M  V30 3767 C 359.262 -1.38927 1.3769 0
M  V30 3768 O 360.468 -2.02509 1.80838 0
M  V30 3769 C 358.924 -0.154235 3.59569 0
M  V30 3770 C 358.532 1.1696 4.32463 0
M  V30 3771 C 360.276 -0.65479 4.1942 0
M  V30 3772 C 358.183 1.03627 5.8225 0
M  V30 3773 H 357.113 -0.0255317 0.753568 0
M  V30 3774 H 359.764 0.629445 1.72367 0
M  V30 3775 H 358.146 -0.906138 3.85493 0
M  V30 3776 H 359.32 1.93405 4.18248 0
M  V30 3777 H 357.635 1.60285 3.84315 0
M  V30 3778 H 360.232 -0.771903 5.29099 0
M  V30 3779 H 360.575 -1.65127 3.8215 0
M  V30 3780 H 361.108 0.040304 3.9778 0
M  V30 3781 H 357.847 2.00672 6.24028 0
M  V30 3782 H 357.367 0.312546 5.98985 0
M  V30 3783 H 359.046 0.711114 6.4308 0
M  V30 3784 N 359.178 -1.55987 0.224894 0
M  V30 3785 C 360.11 -2.17722 -0.716224 0
M  V30 3786 C 361.123 -1.14723 -1.15509 0
M  V30 3787 O 362.312 -1.41688 -1.08567 0
M  V30 3788 C 359.412 -2.74873 -1.98238 0
M  V30 3789 C 358.585 -4.03074 -1.69853 0
M  V30 3790 C 357.644 -4.44757 -2.81208 0
M  V30 3791 O 356.67 -5.11587 -2.49534 0
M  V30 3792 N 357.872 -4.10716 -4.10235 0
M  V30 3793 H 360.637 -2.99109 -0.188123 0
M  V30 3794 H 358.198 -1.6184 0.0440123 0
M  V30 3795 H 360.19 -2.99727 -2.7193 0
M  V30 3796 H 358.76 -1.9777 -2.42086 0
M  V30 3797 H 357.98 -3.86041 -0.797875 0
M  V30 3798 H 359.268 -4.86701 -1.48324 0
M  V30 3799 H 358.666 -3.57019 -4.38809 0
M  V30 3800 H 357.223 -4.40455 -4.80461 0
M  V30 3801 N 360.656 0.0484629 -1.57525 0
M  V30 3802 C 361.884 0.755421 -1.92616 0
M  V30 3803 C 362.299 1.69919 -0.822984 0
M  V30 3804 O 361.656 1.81378 0.202085 0
M  V30 3805 C 361.707 1.52915 -3.27566 0
M  V30 3806 O 361.428 0.62329 -4.33644 0
M  V30 3807 C 362.929 2.33502 -3.76818 0
M  V30 3808 H 360.149 0.213465 -0.63614 0
M  V30 3809 H 362.693 0.0117698 -2.04497 0
M  V30 3810 H 360.848 2.22486 -3.17142 0
M  V30 3811 H 361.262 1.16383 -5.11425 0
M  V30 3812 H 362.736 2.83214 -4.73808 0
M  V30 3813 H 363.213 3.14068 -3.07014 0
M  V30 3814 H 363.819 1.69043 -3.90262 0
M  V30 3815 N 362.134 1.5431 0.320358 0
M  V30 3816 C 363.411 1.63322 1.07635 0
M  V30 3817 C 363.791 0.46912 2.05821 0
M  V30 3818 O 363.139 -0.536274 2.22118 0
M  V30 3819 C 363.349 3.00465 1.77544 0
M  V30 3820 C 364.697 3.56621 2.30449 0
M  V30 3821 O 365.721 3.02791 1.87606 0
M  V30 3822 O 364.58 4.5083 3.08892 0
M  V30 3823 H 361.674 0.661502 0.496331 0
M  V30 3824 H 364.22 1.66656 0.319992 0
M  V30 3825 H 362.992 3.76629 1.06143 0
M  V30 3826 H 362.615 3.00824 2.59982 0
M  V30 3827 N 363.613 -0.582584 1.46437 0
M  V30 3828 C 364.838 -1.37168 1.55563 0
M  V30 3829 C 365.263 -1.87061 0.19743 0
M  V30 3830 O 364.621 -1.61572 -0.822451 0
M  V30 3831 C 364.669 -2.53511 2.56446 0
M  V30 3832 O 363.773 -3.54953 2.09958 0
M  V30 3833 H 363.114 -0.408494 0.523477 0
M  V30 3834 H 365.644 -0.706646 1.9201 0
M  V30 3835 H 365.654 -3.00426 2.76058 0
M  V30 3836 H 364.329 -2.16549 3.55076 0
M  V30 3837 H 362.906 -3.14516 2.00334 0
M  V30 3838 N 365.091 -1.34144 -0.827227 0
M  V30 3839 C 366.339 -1.26009 -1.58007 0
M  V30 3840 C 366.66 0.170971 -1.94249 0
M  V30 3841 O 365.93 1.10256 -1.61927 0
M  V30 3842 H 364.51 -0.463414 -0.585881 0
M  V30 3843 H 367.172 -1.68005 -0.987951 0
M  V30 3844 H 366.268 -1.86187 -2.50481 0
M  V30 3845 N 366.569 1.04691 -1.17803 0
M  V30 3846 C 367.516 2.12557 -0.899343 0
M  V30 3847 C 368.486 1.65339 0.158771 0
M  V30 3848 O 369.671 1.90789 0.0204797 0
M  V30 3849 C 366.811 3.42481 -0.424315 0
M  V30 3850 C 365.924 4.03346 -1.54713 0
M  V30 3851 C 365.059 5.21208 -1.02546 0
M  V30 3852 C 364.098 5.74089 -2.12339 0
M  V30 3853 N 363.235 6.83247 -1.61612 0
M  V30 3854 H 368.075 2.35734 -1.823 0
M  V30 3855 H 365.612 1.1564 -0.909159 0
M  V30 3856 H 367.57 4.16996 -0.130421 0
M  V30 3857 H 366.2 3.19471 0.462377 0
M  V30 3858 H 365.252 3.2622 -1.95664 0
M  V30 3859 H 366.564 4.38628 -2.37501 0
M  V30 3860 H 365.718 6.02812 -0.685718 0
M  V30 3861 H 364.457 4.87414 -0.167084 0
M  V30 3862 H 363.462 4.91111 -2.47165 0
M  V30 3863 H 364.687 6.0993 -2.98601 0
M  V30 3864 H 362.633 6.5134 -0.780533 0
M  V30 3865 H 362.55 7.17559 -2.38003 0
M  V30 3866 H 363.818 7.68491 -1.30545 0
M  V30 3867 N 368.047 0.979072 1.23499 0
M  V30 3868 C 369.275 0.665202 1.95915 0
M  V30 3869 C 369.69 -0.767571 1.72493 0
M  V30 3870 O 369.047 -1.51635 1.01554 0
M  V30 3871 C 369.098 0.944438 3.48945 0
M  V30 3872 O 368.819 2.3209 3.71572 0
M  V30 3873 C 370.32 0.646336 4.38563 0
M  V30 3874 H 367.54 0.247218 0.623798 0
M  V30 3875 H 370.084 1.31009 1.57025 0
M  V30 3876 H 368.239 0.345575 3.85856 0
M  V30 3877 H 368.653 2.40957 4.65876 0
M  V30 3878 H 370.127 0.892091 5.44744 0
M  V30 3879 H 370.604 -0.419575 4.37191 0
M  V30 3880 H 371.21 1.22562 4.07258 0
M  V30 3881 N 369.525 -1.3858 0.750561 0
M  V30 3882 C 370.771 -2.00481 0.305825 0
M  V30 3883 C 371.104 -1.5944 -1.10872 0
M  V30 3884 O 370.379 -0.83052 -1.75877 0
M  V30 3885 C 370.662 -3.5758 0.425287 0
M  V30 3886 C 370.515 -4.08594 1.88072 0
M  V30 3887 C 371.834 -4.39719 -0.183122 0
M  V30 3888 H 368.953 -0.728348 0.112598 0
M  V30 3889 H 371.595 -1.64566 0.949638 0
M  V30 3890 H 369.745 -3.88306 -0.122828 0
M  V30 3891 H 371.417 -3.88523 2.48691 0
M  V30 3892 H 369.66 -3.61574 2.39681 0
M  V30 3893 H 370.331 -5.177 1.91548 0
M  V30 3894 H 372.807 -4.15128 0.284303 0
M  V30 3895 H 371.683 -5.48856 -0.0692757 0
M  V30 3896 H 371.944 -4.23434 -1.27106 0
M  V30 3897 N 371.003 -0.499398 -1.49478 0
M  V30 3898 C 372.249 0.0457576 -2.02748 0
M  V30 3899 C 372.582 1.36793 -1.37846 0
M  V30 3900 O 371.857 1.87596 -0.513601 0
M  V30 3901 C 372.14 0.199986 -3.59544 0
M  V30 3902 C 371.993 -1.1452 -4.34977 0
M  V30 3903 C 373.312 0.94137 -4.29914 0
M  V30 3904 H 370.431 0.0151552 -0.736844 0
M  V30 3905 H 373.073 -0.650498 -1.78518 0
M  V30 3906 H 371.223 0.793007 -3.8032 0
M  V30 3907 H 372.895 -1.77697 -4.25701 0
M  V30 3908 H 371.138 -1.73488 -3.97598 0
M  V30 3909 H 371.809 -0.990607 -5.43039 0
M  V30 3910 H 374.285 0.43844 -4.13784 0
M  V30 3911 H 373.161 1.01812 -5.39375 0
M  V30 3912 H 373.422 1.98471 -3.95046 0
M  V30 3913 N 372.481 1.55866 -0.233164 0
M  V30 3914 C 373.758 1.90471 0.444988 0
M  V30 3915 C 374.138 1.15209 1.7689 0
M  V30 3916 O 373.486 0.265119 2.26957 0
M  V30 3917 C 373.696 3.4333 0.626559 0
M  V30 3918 C 375.044 4.14319 0.92871 0
M  V30 3919 O 376.068 3.48993 0.712926 0
M  V30 3920 O 374.927 5.29846 1.33887 0
M  V30 3921 H 372.021 0.792347 0.236885 0
M  V30 3922 H 374.567 1.67437 -0.276211 0
M  V30 3923 H 373.339 3.90095 -0.306822 0
M  V30 3924 H 372.962 3.72181 1.39881 0
M  V30 3925 N 373.959 -0.0401083 1.57549 0
M  V30 3926 C 375.187 -0.745196 1.93014 0
M  V30 3927 C 375.602 -1.6948 0.831984 0
M  V30 3928 O 374.959 -1.81482 -0.192463 0
M  V30 3929 C 375.01 -1.51176 3.28372 0
M  V30 3930 O 374.731 -0.600284 4.33968 0
M  V30 3931 C 376.232 -2.315 3.78051 0
M  V30 3932 H 373.452 -0.210088 0.637263 0
M  V30 3933 H 375.996 -0.000924689 2.045 0
M  V30 3934 H 374.151 -2.20801 3.18317 0
M  V30 3935 H 374.565 -1.13669 5.12035 0
M  V30 3936 H 376.039 -2.80697 4.75303 0
M  V30 3937 H 376.516 -3.12436 3.08675 0
M  V30 3938 H 377.122 -1.66971 3.91153 0
M  V30 3939 N 375.437 -1.54477 -0.31217 0
M  V30 3940 C 376.686 -1.72438 -1.04633 0
M  V30 3941 C 376.999 -0.511163 -1.88803 0
M  V30 3942 O 378.205 -0.572341 -2.65399 0
M  V30 3943 C 376.661 -3.05043 -1.9099 0
M  V30 3944 C 376.269 -4.33806 -1.11877 0
M  V30 3945 C 378.013 -3.32364 -2.64073 0
M  V30 3946 C 375.92 -5.57467 -1.97445 0
M  V30 3947 H 374.85 -0.642647 -0.394361 0
M  V30 3948 H 377.501 -1.80966 -0.303929 0
M  V30 3949 H 375.883 -2.90451 -2.69173 0
M  V30 3950 H 377.057 -4.59199 -0.383843 0
M  V30 3951 H 375.372 -4.13336 -0.504252 0
M  V30 3952 H 377.969 -4.21951 -3.28423 0
M  V30 3953 H 378.312 -2.50745 -3.32314 0
M  V30 3954 H 378.845 -3.47875 -1.92944 0
M  V30 3955 H 375.584 -6.41722 -1.33692 0
M  V30 3956 H 375.104 -5.36277 -2.6864 0
M  V30 3957 H 376.783 -5.94303 -2.5576 0
M  V30 3958 N 376.915 0.57481 -1.46744 0
M  V30 3959 C 378.326 1.15695 -1.46532 0
M  V30 3960 C 378.677 1.95068 -0.210425 0
M  V30 3961 O 377.802 2.05241 0.685944 0
M  V30 3962 C 378.397 2.1048 -2.65487 0
M  V30 3963 C 376.956 2.64002 -2.68291 0
M  V30 3964 C 376.103 1.40026 -2.39349 0
M  V30 3965 H 379.054 0.362325 -1.54509 0
M  V30 3966 H 379.075 2.94074 -2.41455 0
M  V30 3967 H 378.587 1.52683 -3.56805 0
M  V30 3968 H 376.688 3.25646 -1.81067 0
M  V30 3969 H 376.801 3.06197 -3.68483 0
M  V30 3970 H 375.165 1.70106 -1.89568 0
M  V30 3971 H 375.948 0.840485 -3.32852 0
M  V30 3972 N 378.394 1.34581 0.820102 0
M  V30 3973 C 379.357 1.2628 1.91275 0
M  V30 3974 C 380.357 0.177344 1.59819 0
M  V30 3975 O 381.547 0.430156 1.68806 0
M  V30 3976 C 378.679 0.950327 3.27386 0
M  V30 3977 H 379.872 2.23421 2.00057 0
M  V30 3978 H 377.425 1.1891 1.0144 0
M  V30 3979 H 378.16 -0.0177938 3.24295 0
M  V30 3980 H 377.945 1.73549 3.51601 0
M  V30 3981 H 379.435 0.917492 4.07396 0
M  V30 3982 N 379.872 -1.04064 1.18357 0
M  V30 3983 C 381.12 -1.76915 0.977013 0
M  V30 3984 C 381.441 -1.88624 -0.494577 0
M  V30 3985 O 380.711 -1.41125 -1.3587 0
M  V30 3986 H 379.291 -0.65535 0.358504 0
M  V30 3987 H 381.953 -1.25592 1.49039 0
M  V30 3988 H 381.049 -2.78178 1.41504 0
M  V30 3989 N 381.35 -0.985608 -1.22978 0
M  V30 3990 C 382.761 -0.693593 -1.73338 0
M  V30 3991 C 383.112 0.789935 -1.79595 0
M  V30 3992 O 382.237 1.61771 -1.43733 0
M  V30 3993 C 382.832 -1.25235 -3.14804 0
M  V30 3994 C 381.391 -1.00987 -3.626 0
M  V30 3995 C 380.538 -1.37695 -2.40698 0
M  V30 3996 H 383.489 -1.15884 -1.08428 0
M  V30 3997 H 383.51 -0.627329 -3.75293 0
M  V30 3998 H 383.022 -2.33209 -3.10218 0
M  V30 3999 H 381.123 0.0535565 -3.72562 0
M  V30 4000 H 381.236 -1.66812 -4.49122 0
M  V30 4001 H 379.6 -0.795459 -2.4196 0
M  V30 4002 H 380.383 -2.46657 -2.38779 0
M  V30 4003 N 382.828 1.3818 -0.7579 0
M  V30 4004 C 383.738 2.3421 -0.135247 0
M  V30 4005 C 384.754 1.59487 0.695683 0
M  V30 4006 O 385.93 1.91657 0.618832 0
M  V30 4007 C 382.995 3.3862 0.744139 0
M  V30 4008 C 382.056 4.2918 -0.101658 0
M  V30 4009 C 381.289 5.28603 0.735851 0
M  V30 4010 O 381.512 5.35166 1.97366 0
M  V30 4011 O 380.446 6.01707 0.152372 0
M  V30 4012 H 384.272 2.8916 -0.928436 0
M  V30 4013 H 381.857 1.40101 -0.518855 0
M  V30 4014 H 383.739 4.02539 1.2466 0
M  V30 4015 H 382.414 2.86019 1.51575 0
M  V30 4016 H 381.321 3.68407 -0.650167 0
M  V30 4017 H 382.654 4.85048 -0.836024 0
M  V30 4018 N 384.306 0.507319 1.49211 0
M  V30 4019 C 385.236 -0.256939 2.32082 0
M  V30 4020 C 386.217 -0.956609 1.40652 0
M  V30 4021 O 387.402 -0.946788 1.69557 0
M  V30 4022 C 384.532 -1.31802 3.21318 0
M  V30 4023 C 383.486 -0.737855 4.21592 0
M  V30 4024 C 382.812 -1.89992 4.99807 0
M  V30 4025 C 384.112 0.275325 5.21574 0
M  V30 4026 H 385.806 0.434798 2.96226 0
M  V30 4027 H 383.352 0.210546 1.42452 0
M  V30 4028 H 385.305 -1.86045 3.78107 0
M  V30 4029 H 384.029 -2.03903 2.5513 0
M  V30 4030 H 382.688 -0.217126 3.65956 0
M  V30 4031 H 382.336 -2.60877 4.30061 0
M  V30 4032 H 382.036 -1.51777 5.6766 0
M  V30 4033 H 383.56 -2.44657 5.59442 0
M  V30 4034 H 384.974 -0.179193 5.7302 0
M  V30 4035 H 383.371 0.573649 5.97352 0
M  V30 4036 H 384.441 1.18903 4.70096 0
M  V30 4037 N 385.784 -1.5574 0.241426 0
M  V30 4038 C 387.033 -1.97986 -0.385295 0
M  V30 4039 C 387.346 -1.13267 -1.59468 0
M  V30 4040 O 388.552 -1.45501 -2.2922 0
M  V30 4041 C 387.008 -3.52275 -0.736884 0
M  V30 4042 C 386.616 -4.45726 0.450796 0
M  V30 4043 C 388.36 -4.03189 -1.3281 0
M  V30 4044 C 386.267 -5.91352 0.0756662 0
M  V30 4045 H 385.197 -0.739386 -0.147731 0
M  V30 4046 H 387.848 -1.80308 0.340779 0
M  V30 4047 H 386.23 -3.65628 -1.52094 0
M  V30 4048 H 387.404 -4.44131 1.22819 0
M  V30 4049 H 385.719 -4.05264 0.956573 0
M  V30 4050 H 388.316 -5.09505 -1.62201 0
M  V30 4051 H 388.659 -3.50212 -2.25071 0
M  V30 4052 H 389.192 -3.93141 -0.607069 0
M  V30 4053 H 385.931 -6.48354 0.965272 0
M  V30 4054 H 385.451 -5.96095 -0.665635 0
M  V30 4055 H 387.13 -6.46084 -0.344075 0
M  V30 4056 N 387.262 0.0317525 -1.57568 0
M  V30 4057 C 388.508 0.724175 -1.8943 0
M  V30 4058 C 388.841 1.75149 -0.838836 0
M  V30 4059 O 388.116 1.93948 0.146422 0
M  V30 4060 C 388.399 1.39615 -3.31933 0
M  V30 4061 C 388.252 0.382537 -4.4817 0
M  V30 4062 C 389.571 2.33084 -3.73309 0
M  V30 4063 H 386.69 0.261797 -0.688935 0
M  V30 4064 H 389.332 -0.013017 -1.89996 0
M  V30 4065 H 387.482 2.02451 -3.31581 0
M  V30 4066 H 389.154 -0.243689 -4.60656 0
M  V30 4067 H 387.397 -0.29844 -4.32772 0
M  V30 4068 H 388.068 0.891145 -5.44759 0
M  V30 4069 H 390.544 1.80295 -3.7501 0
M  V30 4070 H 389.42 2.77084 -4.73831 0
M  V30 4071 H 389.681 3.19643 -3.05419 0
M  V30 4072 N 388.74 1.54641 0.303973 0
M  V30 4073 C 389.965 1.78092 1.06292 0
M  V30 4074 C 390.39 0.537342 1.80262 0
M  V30 4075 O 389.748 -0.511993 1.7392 0
M  V30 4076 C 389.796 2.98612 2.02147 0
M  V30 4077 O 388.9 2.71528 3.10397 0
M  V30 4078 H 388.241 0.589548 0.305497 0
M  V30 4079 H 390.771 2.01716 0.3423 0
M  V30 4080 H 390.781 3.265 2.44667 0
M  V30 4081 H 389.456 3.88785 1.47714 0
M  V30 4082 H 388.033 2.54648 2.72413 0
M  V30 4083 N 390.218 -0.567019 1.47046 0
M  V30 4084 C 391.128 -1.70247 1.6141 0
M  V30 4085 C 392.144 -1.66746 0.497157 0
M  V30 4086 O 393.32 -1.86371 0.763389 0
M  V30 4087 C 390.385 -3.06756 1.61561 0
M  V30 4088 C 389.446 -3.21399 2.84607 0
M  V30 4089 C 388.679 -4.51396 2.84741 0
M  V30 4090 O 388.902 -5.36255 1.94388 0
M  V30 4091 O 387.836 -4.69621 3.76483 0
M  V30 4092 H 391.662 -1.61073 2.57467 0
M  V30 4093 H 389.247 -0.735894 1.30019 0
M  V30 4094 H 391.129 -3.8801 1.64396 0
M  V30 4095 H 389.804 -3.16333 0.686684 0
M  V30 4096 H 388.711 -2.39579 2.8732 0
M  V30 4097 H 390.044 -3.16721 3.76761 0
M  V30 4098 N 391.696 -1.35014 -0.812953 0
M  V30 4099 C 392.944 -1.27678 -1.56661 0
M  V30 4100 C 393.265 0.150359 -1.94419 0
M  V30 4101 O 392.535 1.08532 -1.63088 0
M  V30 4102 H 391.115 -0.469602 -0.580933 0
M  V30 4103 H 393.777 -1.69043 -0.970076 0
M  V30 4104 H 392.873 -1.88833 -2.48492 0
M  V30 4105 N 393.175 1.03435 -1.18907 0
M  V30 4106 C 394.107 2.1165 -0.879595 0
M  V30 4107 C 395.12 1.62316 0.125439 0
M  V30 4108 O 396.309 1.78201 -0.103245 0
M  V30 4109 C 393.409 3.37622 -0.294042 0
M  V30 4110 C 392.582 4.16166 -1.34629 0
M  V30 4111 C 391.641 5.20457 -0.775274 0
M  V30 4112 O 390.667 5.50379 -1.4516 0
M  V30 4113 N 391.869 5.78949 0.424126 0
M  V30 4114 H 394.634 2.38791 -1.81105 0
M  V30 4115 H 392.195 1.19681 -1.09032 0
M  V30 4116 H 394.187 4.04572 0.101679 0
M  V30 4117 H 392.757 3.07873 0.541575 0
M  V30 4118 H 391.977 3.44444 -1.91707 0
M  V30 4119 H 393.265 4.65432 -2.05549 0
M  V30 4120 H 392.663 5.56948 0.991209 0
M  V30 4121 H 391.22 6.47334 0.761691 0
M  V30 4122 N 394.653 0.992116 1.22453 0
M  V30 4123 C 395.616 0.546883 2.2258 0
M  V30 4124 C 396.616 -0.369829 1.56489 0
M  V30 4125 O 397.806 -0.161896 1.73446 0
M  V30 4126 C 394.938 -0.204659 3.40285 0
M  V30 4127 H 396.131 1.43234 2.63484 0
M  V30 4128 H 393.684 0.779239 1.3549 0
M  V30 4129 H 394.419 -1.10614 3.04853 0
M  V30 4130 H 394.204 0.45354 3.89468 0
M  V30 4131 H 395.694 -0.504358 4.14543 0
M  V30 4132 N 396.131 -1.37776 0.765217 0
M  V30 4133 C 397.377 -2.00145 0.327072 0
M  V30 4134 C 397.71 -1.60607 -1.09175 0
M  V30 4135 O 396.985 -0.849127 -1.74986 0
M  V30 4136 C 397.268 -3.57109 0.46319 0
M  V30 4137 C 397.121 -4.06576 1.92395 0
M  V30 4138 C 398.44 -4.39888 -0.136473 0
M  V30 4139 H 395.559 -0.727113 0.120316 0
M  V30 4140 H 398.201 -1.63549 0.967039 0
M  V30 4141 H 396.351 -3.88414 -0.0816358 0
M  V30 4142 H 398.023 -3.85864 2.52798 0
M  V30 4143 H 396.266 -3.59011 2.43503 0
M  V30 4144 H 396.937 -5.15639 1.97028 0
M  V30 4145 H 399.413 -4.14803 0.328317 0
M  V30 4146 H 398.289 -5.48899 -0.0110582 0
M  V30 4147 H 398.55 -4.24758 -1.22608 0
M  V30 4148 N 397.609 -0.515225 -1.4894 0
M  V30 4149 C 398.556 0.255567 -2.29381 0
M  V30 4150 C 399.526 0.947387 -1.36432 0
M  V30 4151 O 400.711 0.951288 -1.65394 0
M  V30 4152 C 397.851 1.30551 -3.19453 0
M  V30 4153 C 396.964 0.624029 -4.27469 0
M  V30 4154 C 396.099 1.65563 -5.0474 0
M  V30 4155 C 395.138 0.956802 -6.04576 0
M  V30 4156 N 394.275 1.93326 -6.74959 0
M  V30 4157 H 399.115 -0.436607 -2.94784 0
M  V30 4158 H 396.652 -0.227154 -1.45336 0
M  V30 4159 H 398.61 1.92639 -3.70062 0
M  V30 4160 H 397.24 1.96626 -2.56004 0
M  V30 4161 H 396.292 -0.110459 -3.8024 0
M  V30 4162 H 397.604 0.0746092 -4.98744 0
M  V30 4163 H 396.758 2.35119 -5.59289 0
M  V30 4164 H 395.497 2.23893 -4.3327 0
M  V30 4165 H 394.502 0.247097 -5.49244 0
M  V30 4166 H 395.727 0.379814 -6.78037 0
M  V30 4167 H 393.673 2.50591 -6.06251 0
M  V30 4168 H 393.59 1.43489 -7.42258 0
M  V30 4169 H 394.858 2.62126 -7.34105 0
M  V30 4170 N 399.087 1.5561 -0.249682 0
M  V30 4171 C 400.05 2.20217 0.635394 0
M  V30 4172 C 401.05 1.17227 1.10066 0
M  V30 4173 O 402.24 1.42292 1.00492 0
M  V30 4174 C 399.372 2.84794 1.87363 0
M  V30 4175 H 400.565 2.99814 0.0716752 0
M  V30 4176 H 398.118 1.563 -0.000153234 0
M  V30 4177 H 398.853 2.09142 2.47851 0
M  V30 4178 H 398.638 3.60241 1.5482 0
M  V30 4179 H 400.128 3.3423 2.5036 0
M  V30 4180 N 400.565 -0.0233959 1.57583 0
M  V30 4181 C 401.813 -0.711654 1.89156 0
M  V30 4182 C 402.134 -1.75591 0.848096 0
M  V30 4183 O 401.404 -1.95547 -0.117566 0
M  V30 4184 H 399.984 -0.265835 0.698098 0
M  V30 4185 H 402.646 0.0119948 1.94896 0
M  V30 4186 H 401.742 -1.19766 2.88206 0
M  V30 4187 N 402.043 -1.548 -0.295768 0
M  V30 4188 C 402.953 -1.89177 -1.38742 0
M  V30 4189 C 403.969 -0.786481 -1.55211 0
M  V30 4190 O 405.145 -1.08344 -1.69775 0
M  V30 4191 C 402.21 -2.13663 -2.73036 0
M  V30 4192 C 401.271 -3.37349 -2.65508 0
M  V30 4193 C 400.504 -3.60658 -3.93398 0
M  V30 4194 O 400.727 -2.86882 -4.93006 0
M  V30 4195 O 399.661 -4.54179 -3.94975 0
M  V30 4196 H 403.487 -2.82059 -1.12589 0
M  V30 4197 H 401.072 -1.41056 -0.492295 0
M  V30 4198 H 402.954 -2.3094 -3.52484 0
M  V30 4199 H 401.629 -1.23967 -2.99022 0
M  V30 4200 H 400.536 -3.25431 -1.84514 0
M  V30 4201 H 401.869 -4.27192 -2.44474 0
M  V30 4202 N 403.521 0.559213 -1.47345 0
M  V30 4203 C 404.484 1.64854 -1.59235 0
M  V30 4204 C 405.484 1.53851 -0.467607 0
M  V30 4205 O 406.674 1.58045 -0.732617 0
M  V30 4206 C 403.806 3.04388 -1.53496 0
M  V30 4207 H 404.999 1.55662 -2.56339 0
M  V30 4208 H 402.552 0.778973 -1.35505 0
M  V30 4209 H 403.287 3.19115 -0.577604 0
M  V30 4210 H 403.072 3.13783 -2.35123 0
M  V30 4211 H 404.562 3.83642 -1.6495 0
M  V30 4212 N 404.999 1.35443 0.805782 0
M  V30 4213 C 405.929 1.31095 1.93226 0
M  V30 4214 C 406.91 0.185244 1.69088 0
M  V30 4215 O 408.095 0.380332 1.90439 0
M  V30 4216 C 405.225 1.08299 3.29983 0
M  V30 4217 C 404.179 2.17519 3.68605 0
M  V30 4218 C 403.505 1.79887 5.03532 0
M  V30 4219 C 404.805 3.5949 3.78898 0
M  V30 4220 H 406.499 2.25352 1.97122 0
M  V30 4221 H 404.045 1.0848 0.946996 0
M  V30 4222 H 405.998 1.03897 4.08391 0
M  V30 4223 H 404.722 0.104885 3.26432 0
M  V30 4224 H 403.381 2.2102 2.92482 0
M  V30 4225 H 403.029 0.80693 4.96485 0
M  V30 4226 H 402.729 2.53001 5.30344 0
M  V30 4227 H 404.253 1.77011 5.84379 0
M  V30 4228 H 405.667 3.58307 4.47536 0
M  V30 4229 H 404.064 4.31371 4.1718 0
M  V30 4230 H 405.134 3.95584 2.80431 0
M  V30 4231 N 406.477 -1.02803 1.19454 0
M  V30 4232 C 407.705 -1.79841 1.02297 0
M  V30 4233 C 408.12 -1.83879 -0.428259 0
M  V30 4234 O 407.477 -1.28345 -1.29745 0
M  V30 4235 C 407.528 -3.24852 1.58598 0
M  V30 4236 O 407.249 -3.21097 2.98041 0
M  V30 4237 C 408.75 -4.18485 1.46236 0
M  V30 4238 H 405.97 -0.565936 0.360496 0
M  V30 4239 H 408.514 -1.2948 1.58288 0
M  V30 4240 H 406.669 -3.72401 1.06753 0
M  V30 4241 H 407.083 -4.12033 3.24545 0
M  V30 4242 H 408.557 -5.18121 1.90407 0
M  V30 4243 H 409.034 -4.37254 0.41301 0
M  V30 4244 H 409.64 -3.76811 1.97215 0
M  V30 4245 N 407.956 -0.998596 -1.21925 0
M  V30 4246 C 408.904 -0.546641 -2.26085 0
M  V30 4247 C 409.898 0.405576 -1.64473 0
M  V30 4248 O 411.104 0.277471 -1.77849 0
M  V30 4249 H 407.479 -0.158403 -0.735127 0
M  V30 4250 H 409.45 -1.43645 -2.61551 0
M  V30 4251 C 408.199 0.117388 -3.47502 0
M  V30 4252 H 407.522 -0.606277 -3.95176 0
M  V30 4253 H 408.962 0.396993 -4.22137 0
M  V30 4254 C 407.421 1.35455 -3.0847 0
M  V30 4255 O 407.951 2.44944 -3.18379 0
M  V30 4256 N 406.157 1.23191 -2.63196 0
M  V30 4257 H 405.704 0.341006 -2.55333 0
M  V30 4258 H 405.662 2.06071 -2.37449 0
M  V30 4259 N 409.434 1.37368 -0.772513 0
M  V30 4260 C 410.382 2.32134 -0.147111 0
M  V30 4261 C 411.376 1.54972 0.684106 0
M  V30 4262 O 412.582 1.70363 0.581083 0
M  V30 4263 H 408.957 0.751449 -0.028786 0
M  V30 4264 H 410.928 2.82464 -0.962112 0
M  V30 4265 C 409.677 3.40226 0.71703 0
M  V30 4266 H 409 3.99706 0.0867951 0
M  V30 4267 H 410.44 4.08897 1.12159 0
M  V30 4268 C 408.899 2.80372 1.86797 0
M  V30 4269 O 409.429 2.71183 2.96349 0
M  V30 4270 N 407.635 2.37904 1.66883 0
M  V30 4271 H 407.182 2.45578 0.777759 0
M  V30 4272 H 407.14 1.98202 2.44056 0
M  V30 4273 N 410.912 0.523116 1.48665 0
M  V30 4274 C 412.323 0.0808997 1.86525 0
M  V30 4275 C 412.674 -1.33975 1.43336 0
M  V30 4276 O 411.799 -2.00221 0.821009 0
M  V30 4277 C 412.394 0.140037 3.3851 0
M  V30 4278 C 410.953 -0.246948 3.75589 0
M  V30 4279 C 410.1 0.502845 2.72703 0
M  V30 4280 H 413.051 0.734736 1.40667 0
M  V30 4281 H 413.072 -0.649945 3.74908 0
M  V30 4282 H 412.584 1.17412 3.69914 0
M  V30 4283 H 410.685 -1.28343 3.49798 0
M  V30 4284 H 410.798 0.0878859 4.79019 0
M  V30 4285 H 409.162 -0.0500581 2.54651 0
M  V30 4286 H 409.945 1.53743 3.0695 0
M  V30 4287 N 412.39 -1.55475 0.257931 0
M  V30 4288 C 413.338 -2.23244 -0.653076 0
M  V30 4289 C 414.332 -1.22366 -1.17144 0
M  V30 4290 O 415.538 -1.40347 -1.12706 0
M  V30 4291 H 411.913 -0.716247 -0.229117 0
M  V30 4292 H 413.884 -2.98343 -0.0584788 0
M  V30 4293 C 412.633 -2.95401 -1.83395 0
M  V30 4294 H 411.956 -3.72802 -1.44424 0
M  V30 4295 H 413.396 -3.46165 -2.44838 0
M  V30 4296 C 411.855 -1.99895 -2.71189 0
M  V30 4297 O 412.385 -1.53909 -3.71046 0
M  V30 4298 N 410.591 -1.6676 -2.3799 0
M  V30 4299 H 410.138 -2.04352 -1.56837 0
M  V30 4300 H 410.096 -1.03127 -2.97005 0
M  V30 4301 N 413.868 0.0150385 -1.57593 0
M  V30 4302 C 415.114 0.704043 -1.90187 0
M  V30 4303 C 415.447 1.74249 -0.857366 0
M  V30 4304 O 414.722 1.94092 0.125843 0
M  V30 4305 C 415.005 1.36087 -3.33395 0
M  V30 4306 C 414.858 0.334981 -4.48551 0
M  V30 4307 C 416.177 2.29112 -3.7576 0
M  V30 4308 H 413.296 0.254475 -0.691673 0
M  V30 4309 H 415.938 -0.0331678 -1.89971 0
M  V30 4310 H 414.088 1.98922 -3.3371 0
M  V30 4311 H 415.76 -0.292534 -4.60372 0
M  V30 4312 H 414.003 -0.344325 -4.32431 0
M  V30 4313 H 414.674 0.833316 -5.45674 0
M  V30 4314 H 417.15 1.76308 -3.76902 0
M  V30 4315 H 416.026 2.72043 -4.76743 0
M  V30 4316 H 416.287 3.16385 -3.08793 0
M  V30 4317 N 415.346 1.54954 0.287554 0
M  V30 4318 C 416.594 1.74528 1.01904 0
M  V30 4319 C 416.915 0.541349 1.87335 0
M  V30 4320 O 416.185 -0.444108 1.908 0
M  V30 4321 H 414.765 0.643576 0.379235 0
M  V30 4322 H 417.427 1.92333 0.315294 0
M  V30 4323 H 416.523 2.64015 1.6644 0
M  V30 4324 N 416.824 -0.551391 1.4764 0
M  V30 4325 C 418.072 -1.30572 1.54258 0
M  V30 4326 C 418.393 -1.93877 0.208963 0
M  V30 4327 O 417.663 -1.80234 -0.767619 0
M  V30 4328 H 416.243 -0.484894 0.568231 0
M  V30 4329 H 418.905 -0.643402 1.83974 0
M  V30 4330 H 418.001 -2.09621 2.31226 0
M  V30 4331 N 418.302 -1.35869 -0.798587 0
M  V30 4332 C 419.549 -1.29588 -1.55606 0
M  V30 4333 C 419.877 0.127456 -1.94082 0
M  V30 4334 O 419.132 1.09461 -1.62225 0
M  V30 4335 C 419.431 -2.1556 -2.85077 0
M  V30 4336 C 419.097 -3.6424 -2.65781 0
M  V30 4337 C 417.759 -4.04766 -2.60227 0
M  V30 4338 C 420.111 -4.58547 -2.47758 0
M  V30 4339 C 417.439 -5.37753 -2.34603 0
M  V30 4340 C 419.791 -5.91742 -2.23662 0
M  V30 4341 C 418.455 -6.31402 -2.16534 0
M  V30 4342 H 417.725 -0.474197 -0.569402 0
M  V30 4343 H 420.372 -1.67839 -0.922086 0
M  V30 4344 H 418.677 -1.70216 -3.52893 0
M  V30 4345 H 420.374 -2.08031 -3.42818 0
M  V30 4346 H 416.964 -3.32086 -2.70956 0
M  V30 4347 H 421.148 -4.28117 -2.51056 0
M  V30 4348 H 416.404 -5.67474 -2.2756 0
M  V30 4349 H 420.578 -6.6439 -2.08708 0
M  V30 4350 H 418.205 -7.34381 -1.96441 0
M  V30 4351 N 419.78 1.02168 -1.19998 0
M  V30 4352 C 421.028 1.75338 -1.00504 0
M  V30 4353 C 421.349 1.89387 0.464506 0
M  V30 4354 O 420.619 1.43268 1.33608 0
M  V30 4355 H 419.199 0.649564 -0.368885 0
M  V30 4356 H 421.861 1.23205 -1.51018 0
M  V30 4357 H 420.957 2.75892 -1.45912 0
M  V30 4358 N 421.258 1.00505 1.21394 0
M  V30 4359 C 422.19 0.52372 2.23136 0
M  V30 4360 C 423.203 -0.387714 1.58116 0
M  V30 4361 O 424.392 -0.187905 1.77508 0
M  V30 4362 C 421.492 -0.258885 3.3791 0
M  V30 4363 C 420.665 0.651634 4.32519 0
M  V30 4364 C 419.724 -0.0813705 5.26137 0
M  V30 4365 O 418.75 0.537295 5.66658 0
M  V30 4366 N 419.952 -1.35992 5.64346 0
M  V30 4367 H 422.717 1.39865 2.65062 0
M  V30 4368 H 420.278 0.881196 1.35818 0
M  V30 4369 H 422.27 -0.758208 3.97534 0
M  V30 4370 H 420.84 -1.035 2.94968 0
M  V30 4371 H 420.06 1.33145 3.71034 0
M  V30 4372 H 421.348 1.27129 4.92662 0
M  V30 4373 H 420.746 -1.88368 5.33417 0
M  V30 4374 H 419.303 -1.8042 6.26332 0
M  V30 4375 N 422.737 -1.36956 0.779787 0
M  V30 4376 C 424.014 -1.93697 0.272156 0
M  V30 4377 C 424.394 -1.71267 -1.23413 0
M  V30 4378 O 423.742 -1.06607 -2.02107 0
M  V30 4379 C 423.952 -3.42812 0.654291 0
M  V30 4380 C 425.3 -4.19921 0.628602 0
M  V30 4381 O 426.324 -3.51209 0.594172 0
M  V30 4382 O 425.183 -5.42465 0.662864 0
M  V30 4383 H 422.277 -0.824447 0.0649286 0
M  V30 4384 H 424.823 -1.46196 0.861682 0
M  V30 4385 H 423.595 -3.52754 1.69353 0
M  V30 4386 H 423.218 -3.97582 0.0381369 0
M  V30 4387 N 424.215 -0.530993 -1.48385 0
M  V30 4388 C 425.492 0.0671788 -1.95485 0
M  V30 4389 C 425.872 1.51191 -1.47324 0
M  V30 4390 O 425.22 2.17507 -0.700202 0
M  V30 4391 C 425.43 -0.0511206 -3.48963 0
M  V30 4392 C 426.778 0.107632 -4.24464 0
M  V30 4393 O 427.802 0.0226248 -3.56193 0
M  V30 4394 O 426.661 0.285972 -5.45751 0
M  V30 4395 H 423.755 0.0787365 -0.823243 0
M  V30 4396 H 426.301 -0.595662 -1.58902 0
M  V30 4397 H 425.073 -1.05747 -3.7674 0
M  V30 4398 H 424.696 0.650525 -3.92242 0
M  V30 4399 N 425.693 1.55336 -0.266172 0
M  V30 4400 C 426.921 2.03801 0.356756 0
M  V30 4401 C 427.336 1.14485 1.50129 0
M  V30 4402 O 426.693 0.163121 1.8177 0
M  V30 4403 C 426.744 3.51455 0.846281 0
M  V30 4404 O 426.465 4.37371 -0.252663 0
M  V30 4405 C 427.966 4.15767 1.53794 0
M  V30 4406 H 425.186 0.665906 0.0825218 0
M  V30 4407 H 427.73 2.00636 -0.39566 0
M  V30 4408 H 425.885 3.55092 1.54881 0
M  V30 4409 H 426.299 5.24358 0.122173 0
M  V30 4410 H 427.773 5.20714 1.83198 0
M  V30 4411 H 428.25 3.63404 2.46646 0
M  V30 4412 H 428.856 4.16107 0.879488 0
M  V30 4413 N 427.171 -0.0066808 1.57599 0
M  V30 4414 C 428.081 -1.01671 2.11424 0
M  V30 4415 C 429.097 -1.38143 1.05795 0
M  V30 4416 O 430.273 -1.47011 1.37658 0
M  V30 4417 C 427.338 -2.29192 2.60139 0
M  V30 4418 C 426.399 -1.99094 3.80342 0
M  V30 4419 C 425.632 -3.20535 4.26724 0
M  V30 4420 O 425.855 -4.3199 3.72479 0
M  V30 4421 O 424.789 -3.04924 5.18946 0
M  V30 4422 H 428.615 -0.589181 2.9793 0
M  V30 4423 H 426.2 -0.225091 1.47695 0
M  V30 4424 H 428.082 -3.0412 2.917 0
M  V30 4425 H 426.757 -2.71195 1.76733 0
M  V30 4426 H 425.664 -1.21663 3.53764 0
M  V30 4427 H 426.997 -1.61931 4.648 0
M  V30 4428 N 428.649 -1.55105 -0.279332 0
M  V30 4429 C 429.898 -1.74618 -1.00952 0
M  V30 4430 C 430.211 -0.551096 -1.87676 0
M  V30 4431 O 431.417 -0.628507 -2.64125 0
M  V30 4432 C 429.873 -3.09025 -1.84476 0
M  V30 4433 C 429.481 -4.36081 -1.0265 0
M  V30 4434 C 431.225 -3.37891 -2.56963 0
M  V30 4435 C 429.132 -5.6153 -1.85576 0
M  V30 4436 H 428.062 -0.650868 -0.38064 0
M  V30 4437 H 430.713 -1.81569 -0.265475 0
M  V30 4438 H 429.095 -2.96095 -2.62952 0
M  V30 4439 H 430.269 -4.59909 -0.286354 0
M  V30 4440 H 428.584 -4.14312 -0.416464 0
M  V30 4441 H 431.181 -4.28822 -3.19399 0
M  V30 4442 H 431.524 -2.57737 -3.26921 0
M  V30 4443 H 432.057 -3.5189 -1.85522 0
M  V30 4444 H 428.796 -6.44413 -1.2005 0
M  V30 4445 H 428.316 -5.41854 -2.57204 0
M  V30 4446 H 429.995 -5.99594 -2.43096 0
M  V30 4447 N 430.127 0.543554 -1.4793 0
M  V30 4448 C 431.373 1.30201 -1.55485 0
M  V30 4449 C 431.706 1.92925 -0.222201 0
M  V30 4450 O 430.981 1.78586 0.77053 0
M  V30 4451 C 431.264 2.40174 -2.68307 0
M  V30 4452 C 431.117 1.8223 -4.11233 0
M  V30 4453 C 432.436 3.42024 -2.76961 0
M  V30 4454 H 429.555 0.472036 -0.565996 0
M  V30 4455 H 432.197 0.606914 -1.80046 0
M  V30 4456 H 430.347 2.99463 -2.47495 0
M  V30 4457 H 432.019 1.27096 -4.43446 0
M  V30 4458 H 430.262 1.12832 -4.18869 0
M  V30 4459 H 430.933 2.61793 -4.85972 0
M  V30 4460 H 433.409 2.92672 -2.95774 0
M  V30 4461 H 432.285 4.16383 -3.57654 0
M  V30 4462 H 432.546 4.0173 -1.84568 0
M  V30 4463 N 431.605 1.3629 0.791371 0
M  V30 4464 C 432.535 1.33137 1.91825 0
M  V30 4465 C 433.516 0.203168 1.68882 0
M  V30 4466 O 434.701 0.400509 1.90025 0
M  V30 4467 C 431.831 1.11793 3.28816 0
M  V30 4468 C 430.785 2.21417 3.66277 0
M  V30 4469 C 430.111 1.85218 5.01596 0
M  V30 4470 C 431.411 3.63489 3.75064 0
M  V30 4471 H 433.105 2.2743 1.9472 0
M  V30 4472 H 430.651 1.09479 0.935437 0
M  V30 4473 H 432.604 1.08222 4.07266 0
M  V30 4474 H 431.328 0.139501 3.26302 0
M  V30 4475 H 429.987 2.2411 2.90121 0
M  V30 4476 H 429.635 0.859544 4.95602 0
M  V30 4477 H 429.335 2.58611 5.27631 0
M  V30 4478 H 430.859 1.832 5.82469 0
M  V30 4479 H 432.273 3.63034 4.43711 0
M  V30 4480 H 430.67 4.35771 4.12582 0
M  V30 4481 H 431.74 3.98536 2.76219 0
M  V30 4482 N 433.083 -1.0153 1.20538 0
M  V30 4483 C 434.015 -2.10224 0.913155 0
M  V30 4484 C 435.028 -1.62495 -0.0995998 0
M  V30 4485 O 436.217 -1.78014 0.131582 0
M  V30 4486 C 433.317 -3.37111 0.347717 0
M  V30 4487 C 432.49 -4.13971 1.41233 0
M  V30 4488 C 431.549 -5.19158 0.857976 0
M  V30 4489 O 430.575 -5.48 1.53897 0
M  V30 4490 N 431.777 -5.7955 -0.331966 0
M  V30 4491 H 434.542 -2.35879 1.84881 0
M  V30 4492 H 432.103 -1.17931 1.10923 0
M  V30 4493 H 434.095 -4.04683 -0.0373026 0
M  V30 4494 H 432.665 -3.08696 -0.492527 0
M  V30 4495 H 431.885 -3.41351 1.97163 0
M  V30 4496 H 433.173 -4.62103 2.12928 0
M  V30 4497 H 432.571 -5.58455 -0.902478 0
M  V30 4498 H 431.128 -6.48464 -0.65861 0
M  V30 4499 N 434.561 -1.01147 -1.20859 0
M  V30 4500 C 435.838 -0.613136 -1.85742 0
M  V30 4501 C 436.218 0.909004 -1.90526 0
M  V30 4502 O 435.566 1.79862 -1.40932 0
M  V30 4503 C 435.776 -1.255 -3.25654 0
M  V30 4504 C 437.124 -1.3672 -4.01986 0
M  V30 4505 O 438.148 -1.21082 -3.34989 0
M  V30 4506 O 437.007 -1.6194 -5.21956 0
M  V30 4507 H 434.101 -0.210878 -0.799662 0
M  V30 4508 H 436.647 -1.10853 -1.2849 0
M  V30 4509 H 435.419 -2.29532 -3.16908 0
M  V30 4510 H 435.042 -0.746369 -3.90532 0
M  V30 4511 N 436.039 1.36541 -0.78704 0
M  V30 4512 C 437.45 1.81873 -0.421807 0
M  V30 4513 C 437.801 1.65487 1.05397 0
M  V30 4514 O 436.926 1.17448 1.81755 0
M  V30 4515 C 437.521 3.30192 -0.758841 0
M  V30 4516 C 436.08 3.73743 -0.446468 0
M  V30 4517 C 435.227 2.58844 -0.994728 0
M  V30 4518 H 438.178 1.24796 -0.98039 0
M  V30 4519 H 438.199 3.80468 -0.0490648 0
M  V30 4520 H 437.711 3.42087 -1.83299 0
M  V30 4521 H 435.812 3.6741 0.619739 0
M  V30 4522 H 435.925 4.69272 -0.965415 0
M  V30 4523 H 434.289 2.51245 -0.418087 0
M  V30 4524 H 435.072 2.73525 -2.07458 0
M  V30 4525 N 437.518 0.538854 1.48102 0
M  V30 4526 C 438.466 -0.232325 2.31437 0
M  V30 4527 C 439.46 -0.927004 1.41785 0
M  V30 4528 O 440.666 -0.850378 1.58646 0
M  V30 4529 H 437.041 -0.0937916 0.746128 0
M  V30 4530 H 439.012 0.489986 2.9435 0
M  V30 4531 C 437.761 -1.26074 3.24038 0
M  V30 4532 H 437.084 -0.735609 3.92974 0
M  V30 4533 H 438.524 -1.77157 3.85216 0
M  V30 4534 C 436.983 -2.29902 2.46265 0
M  V30 4535 O 437.513 -3.36502 2.19384 0
M  V30 4536 N 435.719 -2.03348 2.07601 0
M  V30 4537 H 435.266 -1.16675 2.29662 0
M  V30 4538 H 435.224 -2.73038 1.55877 0
M  V30 4539 N 438.996 -1.55193 0.274407 0
M  V30 4540 C 440.412 -1.59401 -0.0797543 0
M  V30 4541 C 440.612 -1.29162 -1.54659 0
M  V30 4542 O 439.668 -1.05215 -2.29534 0
M  V30 4543 C 440.981 -2.99257 0.294238 0
M  V30 4544 C 442.529 -3.12072 0.240796 0
M  V30 4545 C 443.004 -4.54194 0.589218 0
M  V30 4546 N 444.495 -4.60033 0.540744 0
M  V30 4547 C 445.23 -5.68027 0.783147 0
M  V30 4548 N 444.726 -6.8417 1.09013 0
M  V30 4549 N 446.519 -5.57572 0.711993 0
M  V30 4550 H 438.67 -1.73113 1.23067 0
M  V30 4551 H 440.933 -0.807197 0.497129 0
M  V30 4552 H 440.639 -3.26217 1.31435 0
M  V30 4553 H 440.513 -3.75427 -0.365281 0
M  V30 4554 H 442.9 -2.84877 -0.770024 0
M  V30 4555 H 442.981 -2.38117 0.934563 0
M  V30 4556 H 442.625 -4.82115 1.59772 0
M  V30 4557 H 442.555 -5.26448 -0.126331 0
M  V30 4558 H 445.046 -3.76599 0.313327 0
M  V30 4559 H 445.359 -7.6243 1.26178 0
M  V30 4560 H 443.704 -6.85787 1.12789 0
M  V30 4561 H 446.895 -4.65714 0.472014 0
M  V30 4562 H 447.068 -6.41659 0.90429 0
M  V30 4563 N 440.474 -0.00167713 -1.576 0
M  V30 4564 C 441.72 0.683832 -1.90923 0
M  V30 4565 C 442.053 1.7333 -0.875799 0
M  V30 4566 O 441.328 1.94215 0.10525 0
M  V30 4567 C 441.611 1.32543 -3.3482 0
M  V30 4568 C 441.464 0.287387 -4.48881 0
M  V30 4569 C 442.783 2.25114 -3.78169 0
M  V30 4570 H 439.902 0.247125 -0.694333 0
M  V30 4571 H 442.544 -0.0533149 -1.89925 0
M  V30 4572 H 440.694 1.95372 -3.35801 0
M  V30 4573 H 442.366 -0.341346 -4.60035 0
M  V30 4574 H 440.609 -0.39017 -4.32042 0
M  V30 4575 H 441.28 0.775393 -5.46527 0
M  V30 4576 H 443.756 1.723 -3.7875 0
M  V30 4577 H 442.632 2.66971 -4.79602 0
M  V30 4578 H 442.893 3.13092 -3.12131 0
M  V30 4579 N 441.952 1.55251 0.271103 0
M  V30 4580 C 442.899 1.88261 1.33516 0
M  V30 4581 C 443.869 0.734296 1.48988 0
M  V30 4582 O 445.054 0.985741 1.63364 0
M  V30 4583 C 442.194 2.16168 2.69008 0
M  V30 4584 C 441.307 3.43678 2.61743 0
M  V30 4585 C 440.442 3.61276 3.89427 0
M  V30 4586 C 439.481 4.82472 3.7668 0
M  V30 4587 N 438.618 4.96717 4.96202 0
M  V30 4588 H 443.458 2.79015 1.04665 0
M  V30 4589 H 440.995 1.38137 0.505618 0
M  V30 4590 H 442.953 2.30349 3.47844 0
M  V30 4591 H 441.583 1.28646 2.96057 0
M  V30 4592 H 440.635 3.37959 1.74607 0
M  V30 4593 H 441.947 4.3265 2.48224 0
M  V30 4594 H 441.101 3.75284 4.76704 0
M  V30 4595 H 439.84 2.70492 4.05814 0
M  V30 4596 H 438.845 4.68465 2.87786 0
M  V30 4597 H 440.07 5.74692 3.61809 0
M  V30 4598 H 438.016 4.08865 5.12997 0
M  V30 4599 H 437.933 5.79738 4.85222 0
M  V30 4600 H 439.201 5.15113 5.85046 0
M  V30 4601 N 443.43 -0.535701 1.48216 0
M  V30 4602 C 444.676 -1.2913 1.57153 0
M  V30 4603 C 445.031 -1.90899 0.239823 0
M  V30 4604 O 444.324 -1.76022 -0.756748 0
M  V30 4605 C 444.518 -2.4068 2.64212 0
M  V30 4606 C 444.347 -1.89844 4.07663 0
M  V30 4607 C 443.117 -1.72708 4.74869 0
M  V30 4608 C 445.315 -1.43031 4.94011 0
M  V30 4609 N 443.297 -1.16437 6.02757 0
M  V30 4610 C 444.668 -0.986691 6.12098 0
M  V30 4611 C 446.723 -1.3128 4.80281 0
M  V30 4612 C 445.426 -0.437231 7.1797 0
M  V30 4613 C 447.452 -0.777346 5.86269 0
M  V30 4614 C 446.814 -0.343774 7.03561 0
M  V30 4615 H 442.913 -0.463753 0.629648 0
M  V30 4616 H 445.497 -0.604736 1.8507 0
M  V30 4617 H 443.668 -3.06839 2.38126 0
M  V30 4618 H 445.4 -3.07706 2.62867 0
M  V30 4619 H 442.155 -1.96061 4.31111 0
M  V30 4620 H 442.579 -0.903281 6.70947 0
M  V30 4621 H 447.221 -1.63408 3.89946 0
M  V30 4622 H 444.939 -0.103621 8.08034 0
M  V30 4623 H 448.525 -0.689688 5.77698 0
M  V30 4624 H 447.405 0.0641219 7.84174 0
M  V30 4625 N 444.908 -1.36708 -0.784132 0
M  V30 4626 C 445.841 -1.25827 -1.90375 0
M  V30 4627 C 446.819 -0.141331 -1.61985 0
M  V30 4628 O 448.003 -0.313389 -1.85877 0
M  V30 4629 C 445.13 -0.942621 -3.25319 0
M  V30 4630 C 444.176 -2.07474 -3.72635 0
M  V30 4631 S 445.009 -3.69317 -3.8777 0
M  V30 4632 C 446.165 -3.39876 -5.25581 0
M  V30 4633 H 446.398 -2.20593 -1.99314 0
M  V30 4634 H 443.931 -1.22186 -0.943926 0
M  V30 4635 H 445.889 -0.767321 -4.03265 0
M  V30 4636 H 444.55 -0.0126566 -3.14097 0
M  V30 4637 H 443.743 -1.80858 -4.70432 0
M  V30 4638 H 443.345 -2.20953 -3.01754 0
M  V30 4639 H 445.637 -2.94097 -6.10339 0
M  V30 4640 H 446.58 -4.36956 -5.57203 0
M  V30 4641 H 446.988 -2.75098 -4.92931 0
M  V30 4642 N 446.386 1.0089 -1.21074 0
M  V30 4643 C 447.635 1.74019 -1.01981 0
M  V30 4644 C 447.948 1.90408 0.447665 0
M  V30 4645 O 449.154 2.60707 0.757906 0
M  V30 4646 C 447.61 3.13026 -1.77603 0
M  V30 4647 C 447.218 3.04623 -3.28495 0
M  V30 4648 C 448.962 3.90312 -1.66904 0
M  V30 4649 C 446.869 4.38685 -3.96623 0
M  V30 4650 H 445.799 0.652422 -0.377971 0
M  V30 4651 H 448.45 1.12755 -1.44771 0
M  V30 4652 H 446.832 3.74878 -1.27604 0
M  V30 4653 H 448.006 2.52032 -3.85767 0
M  V30 4654 H 446.321 2.40827 -3.39693 0
M  V30 4655 H 448.918 4.8951 -2.15138 0
M  V30 4656 H 449.261 4.11558 -0.62658 0
M  V30 4657 H 449.794 3.35104 -2.14359 0
M  V30 4658 H 446.533 4.22641 -5.01054 0
M  V30 4659 H 446.053 4.91252 -3.4414 0
M  V30 4660 H 447.732 5.075 -4.01314 0
M  V30 4661 N 447.864 1.01787 1.20321 0
M  V30 4662 C 448.827 0.593972 2.2137 0
M  V30 4663 C 449.827 -0.336553 1.57239 0
M  V30 4664 O 451.017 -0.125069 1.7375 0
M  V30 4665 C 448.149 -0.132433 3.40643 0
M  V30 4666 H 449.342 1.48791 2.60387 0
M  V30 4667 H 446.895 0.807803 1.33807 0
M  V30 4668 H 447.63 -1.04123 3.0713 0
M  V30 4669 H 447.415 0.53605 3.88418 0
M  V30 4670 H 448.905 -0.416314 4.1552 0
M  V30 4671 N 449.342 -1.36122 0.79427 0
M  V30 4672 C 450.589 -1.99111 0.368905 0
M  V30 4673 C 450.917 -1.63032 -1.0607 0
M  V30 4674 O 450.172 -0.879303 -1.74833 0
M  V30 4675 C 450.471 -3.5409 0.48527 0
M  V30 4676 C 450.137 -4.10003 1.87638 0
M  V30 4677 C 448.799 -4.24986 2.257 0
M  V30 4678 C 451.151 -4.40423 2.78706 0
M  V30 4679 C 448.479 -4.67701 3.54221 0
M  V30 4680 C 450.831 -4.84573 4.0666 0
M  V30 4681 C 449.495 -4.97761 4.44737 0
M  V30 4682 H 448.765 -0.7286 0.134992 0
M  V30 4683 H 451.412 -1.62534 1.01267 0
M  V30 4684 H 449.717 -3.91052 -0.241984 0
M  V30 4685 H 451.414 -4.00766 0.137109 0
M  V30 4686 H 448.004 -3.98784 1.57064 0
M  V30 4687 H 452.188 -4.28412 2.50553 0
M  V30 4688 H 447.444 -4.761 3.83587 0
M  V30 4689 H 451.618 -5.07074 4.77336 0
M  V30 4690 H 449.245 -5.30618 5.44379 0
M  V30 4691 N 450.82 -0.546701 -1.47814 0
M  V30 4692 C 452.069 -0.0166497 -2.01693 0
M  V30 4693 C 452.382 1.33721 -1.42752 0
M  V30 4694 O 453.588 1.95658 -1.8823 0
M  V30 4695 C 452.044 0.0206769 -3.59894 0
M  V30 4696 C 451.652 -1.3293 -4.27824 0
M  V30 4697 C 453.396 0.498674 -4.21561 0
M  V30 4698 C 451.303 -1.25165 -5.78003 0
M  V30 4699 H 450.233 -0.0024541 -0.753996 0
M  V30 4700 H 452.884 -0.692984 -1.69912 0
M  V30 4701 H 451.266 0.76244 -3.88591 0
M  V30 4702 H 452.44 -2.08795 -4.10781 0
M  V30 4703 H 450.755 -1.74438 -3.78101 0
M  V30 4704 H 453.352 0.575 -5.31599 0
M  V30 4705 H 453.695 1.5083 -3.88016 0
M  V30 4706 H 454.228 -0.18791 -3.97356 0
M  V30 4707 H 450.967 -2.23695 -6.1615 0
M  V30 4708 H 450.487 -0.53464 -5.97412 0
M  V30 4709 H 452.166 -0.949299 -6.39998 0
M  V30 4710 N 452.299 1.55045 -0.282633 0
M  V30 4711 C 453.539 2.01668 0.333088 0
M  V30 4712 C 453.903 1.1667 1.52486 0
M  V30 4713 O 455.104 1.52907 2.21072 0
M  V30 4714 C 453.375 3.50509 0.698442 0
M  V30 4715 S 454.934 4.19112 1.29963 0
M  V30 4716 H 451.752 0.703468 0.103219 0
M  V30 4717 H 454.354 1.91233 -0.406222 0
M  V30 4718 H 453.058 4.10015 -0.177693 0
M  V30 4719 H 452.589 3.64943 1.46902 0
M  V30 4720 H 454.604 4.23362 2.58803 0
M  V30 4721 N 453.777 0.010035 1.57597 0
M  V30 4722 C 454.707 -0.976857 2.12084 0
M  V30 4723 C 455.688 -1.35191 1.03235 0
M  V30 4724 O 456.873 -1.43389 1.3097 0
M  V30 4725 C 454.003 -2.26548 2.63236 0
M  V30 4726 C 452.957 -2.03175 3.76701 0
M  V30 4727 C 452.283 -3.38138 4.14206 0
M  V30 4728 C 453.583 -1.38625 5.03568 0
M  V30 4729 H 455.277 -0.523145 2.94794 0
M  V30 4730 H 452.823 -0.250195 1.4181 0
M  V30 4731 H 454.776 -2.95952 2.99984 0
M  V30 4732 H 453.5 -2.74051 1.77661 0
M  V30 4733 H 452.159 -1.36195 3.40362 0
M  V30 4734 H 451.807 -3.83363 3.25641 0
M  V30 4735 H 451.507 -3.23312 4.90656 0
M  V30 4736 H 453.031 -4.08841 4.53521 0
M  V30 4737 H 454.445 -1.98 5.38023 0
M  V30 4738 H 452.842 -1.34256 5.84889 0
M  V30 4739 H 453.912 -0.356722 4.83586 0
M  V30 4740 N 455.255 -1.55392 -0.262866 0
M  V30 4741 C 456.501 -1.76737 -0.99458 0
M  V30 4742 C 456.834 -0.572453 -1.85571 0
M  V30 4743 O 456.109 0.429732 -1.89693 0
M  V30 4744 C 456.392 -3.07824 -1.8686 0
M  V30 4745 C 456.245 -4.3769 -1.03672 0
M  V30 4746 C 457.564 -3.35021 -2.85393 0
M  V30 4747 H 454.683 -0.643005 -0.360157 0
M  V30 4748 H 457.325 -1.88126 -0.266216 0
M  V30 4749 H 455.475 -2.98245 -2.48962 0
M  V30 4750 H 457.147 -4.59238 -0.43563 0
M  V30 4751 H 455.39 -4.32461 -0.340513 0
M  V30 4752 H 456.061 -5.25759 -1.6817 0
M  V30 4753 H 458.537 -3.44458 -2.33426 0
M  V30 4754 H 457.413 -4.27989 -3.43681 0
M  V30 4755 H 457.674 -2.55153 -3.61039 0
M  V30 4756 N 456.733 0.527833 -1.48498 0
M  V30 4757 C 457.666 1.64892 -1.57753 0
M  V30 4758 C 458.644 1.5687 -0.427867 0
M  V30 4759 O 459.828 1.77311 -0.639764 0
M  V30 4760 C 456.955 3.03301 -1.50752 0
M  V30 4761 C 456.001 3.29675 -2.70586 0
M  V30 4762 S 456.834 3.15712 -4.32535 0
M  V30 4763 C 457.99 4.56564 -4.28136 0
M  V30 4764 H 458.223 1.56792 -2.52594 0
M  V30 4765 H 455.756 0.710959 -1.37057 0
M  V30 4766 H 457.714 3.83123 -1.474 0
M  V30 4767 H 456.375 3.08839 -0.572454 0
M  V30 4768 H 455.568 4.3065 -2.61833 0
M  V30 4769 H 455.17 2.57526 -2.71212 0
M  V30 4770 H 457.462 5.48126 -3.98201 0
M  V30 4771 H 458.405 4.70371 -5.29298 0
M  V30 4772 H 458.813 4.35987 -3.58574 0
M  V30 4773 N 458.211 1.37122 0.776871 0
M  V30 4774 C 459.141 1.35164 1.90402 0
M  V30 4775 C 460.122 0.221069 1.68657 0
M  V30 4776 O 461.307 0.420642 1.8959 0
M  V30 4777 C 458.437 1.15274 3.27611 0
M  V30 4778 C 457.391 2.25289 3.63908 0
M  V30 4779 C 456.717 1.90527 4.99603 0
M  V30 4780 C 458.017 3.67446 3.71188 0
M  V30 4781 H 459.711 2.29482 1.92297 0
M  V30 4782 H 457.257 1.10465 0.923773 0
M  V30 4783 H 459.21 1.12536 4.06096 0
M  V30 4784 H 457.934 0.174102 3.26136 0
M  V30 4785 H 456.593 2.27174 2.87728 0
M  V30 4786 H 456.241 0.91206 4.94662 0
M  V30 4787 H 455.941 2.64193 5.24858 0
M  V30 4788 H 457.465 1.89367 5.80493 0
M  V30 4789 H 458.879 3.67719 4.39836 0
M  V30 4790 H 457.276 4.40123 4.07936 0
M  V30 4791 H 458.346 4.01443 2.71977 0
M  V30 4792 N 459.689 -1.00246 1.21608 0
M  V30 4793 C 460.652 -2.07233 0.979133 0
M  V30 4794 C 461.652 -1.6072 -0.0508219 0
M  V30 4795 O 462.842 -1.73196 0.186712 0
M  V30 4796 C 459.974 -3.37546 0.477016 0
M  V30 4797 H 461.167 -2.29687 1.92831 0
M  V30 4798 H 458.72 -1.17261 1.03342 0
M  V30 4799 H 459.455 -3.20773 -0.476966 0
M  V30 4800 H 459.24 -3.72638 1.21997 0
M  V30 4801 H 460.73 -4.16285 0.331181 0
M  V30 4802 N 461.167 -1.02423 -1.1978 0
M  V30 4803 C 462.099 -0.559152 -2.22275 0
M  V30 4804 C 463.112 0.36251 -1.58713 0
M  V30 4805 O 464.301 0.159641 -1.77785 0
M  V30 4806 C 461.401 0.205094 -3.38279 0
M  V30 4807 C 460.574 -0.720361 -4.31427 0
M  V30 4808 C 459.633 -0.00234368 -5.262 0
M  V30 4809 O 458.659 -0.627378 -5.65732 0
M  V30 4810 N 459.861 1.26996 -5.66438 0
M  V30 4811 H 462.626 -1.44064 -2.62804 0
M  V30 4812 H 460.187 -0.902692 -1.34399 0
M  V30 4813 H 462.179 0.694868 -3.9869 0
M  V30 4814 H 460.749 0.987947 -2.96578 0
M  V30 4815 H 459.969 -1.39031 -3.68869 0
M  V30 4816 H 461.257 -1.3495 -4.90577 0
M  V30 4817 H 460.655 1.79858 -5.36347 0
M  V30 4818 H 459.212 1.70432 -6.29123 0
M  V30 4819 N 462.645 1.35699 -0.801477 0
M  V30 4820 C 463.575 2.32436 -0.222658 0
M  V30 4821 C 464.556 1.5723 0.649057 0
M  V30 4822 O 465.741 1.85324 0.580387 0
M  V30 4823 C 462.871 3.41469 0.633719 0
M  V30 4824 C 461.825 4.27774 -0.139083 0
M  V30 4825 C 461.151 5.28082 0.838666 0
M  V30 4826 C 462.451 5.04946 -1.33517 0
M  V30 4827 H 464.145 2.81094 -1.03086 0
M  V30 4828 H 461.691 1.35146 -0.497155 0
M  V30 4829 H 463.644 4.08143 1.04868 0
M  V30 4830 H 462.368 2.91408 1.47475 0
M  V30 4831 H 461.027 3.62673 -0.535156 0
M  V30 4832 H 460.675 4.7429 1.67506 0
M  V30 4833 H 460.375 5.86695 0.32594 0
M  V30 4834 H 461.899 5.97628 1.25194 0
M  V30 4835 H 463.313 5.64593 -0.995349 0
M  V30 4836 H 461.71 5.7303 -1.78202 0
M  V30 4837 H 462.78 4.35886 -2.12442 0
M  V30 4838 N 464.123 0.554532 1.47522 0
M  V30 4839 C 465.056 -0.242442 2.26908 0
M  V30 4840 C 466.034 -0.922722 1.33883 0
M  V30 4841 O 467.218 -0.942244 1.63261 0
M  V30 4842 C 464.345 -1.34525 3.10839 0
M  V30 4843 C 463.391 -0.773805 4.19422 0
M  V30 4844 S 464.224 0.377525 5.34168 0
M  V30 4845 C 465.38 -0.727164 6.21662 0
M  V30 4846 H 465.613 0.431218 2.94156 0
M  V30 4847 H 463.146 0.3408 1.50592 0
M  V30 4848 H 465.104 -1.97683 3.59766 0
M  V30 4849 H 463.765 -1.99073 2.42958 0
M  V30 4850 H 462.958 -1.60187 4.77866 0
M  V30 4851 H 462.56 -0.218448 3.73361 0
M  V30 4852 H 464.852 -1.61992 6.57849 0
M  V30 4853 H 465.795 -0.180135 7.07871 0
M  V30 4854 H 466.203 -1.01863 5.55233 0
M  V30 4855 N 465.601 -1.54893 0.290851 0
M  V30 4856 C 466.531 -2.26103 -0.583084 0
M  V30 4857 C 467.512 -1.25684 -1.14619 0
M  V30 4858 O 468.697 -1.54436 -1.17741 0
M  V30 4859 C 465.827 -2.99409 -1.75987 0
M  V30 4860 C 464.781 -4.0689 -1.32758 0
M  V30 4861 C 464.107 -4.67856 -2.58872 0
M  V30 4862 C 465.407 -5.20215 -0.46624 0
M  V30 4863 H 467.101 -2.99398 0.0108214 0
M  V30 4864 H 464.647 -1.43998 0.00664468 0
M  V30 4865 H 466.6 -3.47943 -2.37727 0
M  V30 4866 H 465.324 -2.23675 -2.37985 0
M  V30 4867 H 463.983 -3.59191 -0.733299 0
M  V30 4868 H 463.631 -3.88772 -3.19163 0
M  V30 4869 H 463.331 -5.40438 -2.30653 0
M  V30 4870 H 464.855 -5.19147 -3.21433 0
M  V30 4871 H 466.269 -5.64704 -0.989047 0
M  V30 4872 H 464.666 -5.99455 -0.27826 0
M  V30 4873 H 465.736 -4.82198 0.511173 0
M  V30 4874 N 467.08 -0.0183926 -1.57589 0
M  V30 4875 C 468.329 0.66185 -1.90532 0
M  V30 4876 C 468.642 1.73904 -0.895366 0
M  V30 4877 O 469.848 2.47518 -1.11566 0
M  V30 4878 C 468.304 1.22844 -3.38286 0
M  V30 4879 C 467.912 0.185103 -4.47617 0
M  V30 4880 C 469.656 1.88581 -3.80312 0
M  V30 4881 C 467.563 0.762723 -5.86461 0
M  V30 4882 H 466.493 0.250972 -0.711006 0
M  V30 4883 H 469.144 -0.0819435 -1.83317 0
M  V30 4884 H 467.526 2.0235 -3.40398 0
M  V30 4885 H 468.7 -0.58671 -4.5705 0
M  V30 4886 H 467.015 -0.372889 -4.14727 0
M  V30 4887 H 469.612 2.32735 -4.81392 0
M  V30 4888 H 469.955 2.72408 -3.14801 0
M  V30 4889 H 470.488 1.15782 -3.80578 0
M  V30 4890 H 467.227 -0.0371713 -6.55489 0
M  V30 4891 H 466.747 1.50327 -5.80656 0
M  V30 4892 H 468.426 1.25576 -6.34697 0
M  V30 4893 N 468.558 1.5553 0.254621 0
M  V30 4894 C 469.488 1.9268 1.31897 0
M  V30 4895 C 470.469 0.790797 1.506 0
M  V30 4896 O 471.654 1.05045 1.63337 0
M  V30 4897 C 468.784 2.21477 2.67517 0
M  V30 4898 C 467.738 3.37256 2.63519 0
M  V30 4899 C 467.064 3.51576 4.02862 0
M  V30 4900 C 468.364 4.73157 2.21179 0
M  V30 4901 H 470.058 2.81832 1.01051 0
M  V30 4902 H 467.604 1.35599 0.484662 0
M  V30 4903 H 469.557 2.46055 3.42104 0
M  V30 4904 H 468.281 1.29144 2.99982 0
M  V30 4905 H 466.94 3.12675 1.9139 0
M  V30 4906 H 466.588 2.56676 4.32581 0
M  V30 4907 H 466.288 4.2943 4.01078 0
M  V30 4908 H 467.812 3.78467 4.79161 0
M  V30 4909 H 469.226 4.97158 2.85494 0
M  V30 4910 H 467.623 5.54058 2.30521 0
M  V30 4911 H 468.693 4.70739 1.16332 0
M  V30 4912 N 470.036 -0.519951 1.48776 0
M  V30 4913 C 470.983 -1.62352 1.64044 0
M  V30 4914 C 471.953 -1.58945 0.482251 0
M  V30 4915 O 473.138 -1.77219 0.706971 0
M  V30 4916 C 470.278 -3.00579 1.69547 0
M  V30 4917 C 469.391 -3.14145 2.96541 0
M  V30 4918 C 468.526 -4.42991 2.93142 0
M  V30 4919 C 467.565 -4.50122 4.14797 0
M  V30 4920 N 466.702 -5.7037 4.09418 0
M  V30 4921 H 471.542 -1.48643 2.58281 0
M  V30 4922 H 469.079 -0.723516 1.28077 0
M  V30 4923 H 471.037 -3.80671 1.70719 0
M  V30 4924 H 469.667 -3.13036 0.787918 0
M  V30 4925 H 468.719 -2.27239 3.05068 0
M  V30 4926 H 470.031 -3.15275 3.86527 0
M  V30 4927 H 469.185 -5.31385 2.92772 0
M  V30 4928 H 467.924 -4.44398 2.00902 0
M  V30 4929 H 466.929 -3.60133 4.15433 0
M  V30 4930 H 468.154 -4.50445 5.08208 0
M  V30 4931 H 466.1 -5.72655 3.20004 0
M  V30 4932 H 466.017 -5.73036 4.93119 0
M  V30 4933 H 467.285 -6.61023 4.13121 0
M  V30 4934 N 471.514 -1.37532 -0.769588 0
M  V30 4935 C 472.461 -1.3347 -1.88293 0
M  V30 4936 C 473.431 -0.199891 -1.64893 0
M  V30 4937 O 474.616 -0.389594 -1.8678 0
M  V30 4938 C 471.756 -1.14968 -3.25387 0
M  V30 4939 C 470.869 -2.37698 -3.60727 0
M  V30 4940 C 470.004 -2.12051 -4.8704 0
M  V30 4941 C 469.043 -3.30636 -5.15117 0
M  V30 4942 N 468.18 -3.04527 -6.3262 0
M  V30 4943 H 473.02 -2.28658 -1.911 0
M  V30 4944 H 470.557 -1.13622 -0.934257 0
M  V30 4945 H 472.515 -1.02261 -4.04473 0
M  V30 4946 H 471.145 -0.234263 -3.21949 0
M  V30 4947 H 470.197 -2.61137 -2.76608 0
M  V30 4948 H 471.509 -3.26131 -3.77413 0
M  V30 4949 H 470.663 -1.96388 -5.74035 0
M  V30 4950 H 469.402 -1.20959 -4.72462 0
M  V30 4951 H 468.407 -3.46836 -4.26597 0
M  V30 4952 H 469.632 -4.22582 -5.31603 0
M  V30 4953 H 467.578 -2.16067 -6.19396 0
M  V30 4954 H 467.495 -3.86503 -6.49732 0
M  V30 4955 H 468.763 -2.92485 -7.22546 0
M  V30 4956 N 472.992 0.995999 -1.22138 0
M  V30 4957 C 473.939 2.08551 -0.988687 0
M  V30 4958 C 474.909 1.65864 0.0885021 0
M  V30 4959 O 476.094 1.90704 -0.0604589 0
M  V30 4960 C 473.234 3.40374 -0.569191 0
M  V30 4961 C 472.347 3.96421 -1.71681 0
M  V30 4962 C 471.482 5.1639 -1.2456 0
M  V30 4963 C 470.521 5.64567 -2.36497 0
M  V30 4964 N 469.658 6.75777 -1.90445 0
M  V30 4965 H 474.498 2.2779 -1.92135 0
M  V30 4966 H 472.035 1.1168 -0.957388 0
M  V30 4967 H 473.993 4.16068 -0.307166 0
M  V30 4968 H 472.623 3.21145 0.326462 0
M  V30 4969 H 471.675 3.17628 -2.09324 0
M  V30 4970 H 472.987 4.2816 -2.55891 0
M  V30 4971 H 472.141 5.99362 -0.940774 0
M  V30 4972 H 470.88 4.86266 -0.373662 0
M  V30 4973 H 469.885 4.80185 -2.67772 0
M  V30 4974 H 471.11 5.96716 -3.24202 0
M  V30 4975 H 469.056 6.47443 -1.05609 0
M  V30 4976 H 468.973 7.06818 -2.68223 0
M  V30 4977 H 470.241 7.62262 -1.63022 0
M  V30 4978 N 474.47 1.03057 1.19235 0
M  V30 4979 C 475.402 0.570932 2.21975 0
M  V30 4980 C 476.415 -0.354088 1.58903 0
M  V30 4981 O 477.604 -0.150211 1.77867 0
M  V30 4982 C 474.704 -0.187152 3.38383 0
M  V30 4983 C 473.877 0.743231 4.31039 0
M  V30 4984 C 472.936 0.0302493 5.26191 0
M  V30 4985 O 471.962 0.657371 5.65391 0
M  V30 4986 N 473.164 -1.23991 5.67104 0
M  V30 4987 H 475.929 1.45456 2.62036 0
M  V30 4988 H 473.49 0.909807 1.33918 0
M  V30 4989 H 475.482 -0.673715 3.99053 0
M  V30 4990 H 474.052 -0.972205 2.97098 0
M  V30 4991 H 473.272 1.40985 3.68126 0
M  V30 4992 H 474.56 1.3755 4.89854 0
M  V30 4993 H 473.958 -1.77011 5.37293 0
M  V30 4994 H 472.515 -1.67093 6.30018 0
M  V30 4995 N 475.948 -1.35272 0.808662 0
M  V30 4996 C 477.194 -1.99003 0.390581 0
M  V30 4997 C 477.527 -1.63999 -1.0401 0
M  V30 4998 O 476.802 -0.904368 -1.72196 0
M  V30 4999 C 477.085 -3.55454 0.576566 0
M  V30 5000 C 476.938 -4.00249 2.05233 0
M  V30 5001 C 478.257 -4.401 0.00354277 0
M  V30 5002 H 475.376 -0.722917 0.143388 0
M  V30 5003 H 478.018 -1.6039 1.01858 0
M  V30 5004 H 476.168 -3.88477 0.0419766 0
M  V30 5005 H 477.84 -3.77626 2.64946 0
M  V30 5006 H 476.083 -3.51082 2.54801 0
M  V30 5007 H 476.754 -5.0911 2.13333 0
M  V30 5008 H 479.23 -4.13548 0.460117 0
M  V30 5009 H 478.106 -5.48656 0.163575 0
M  V30 5010 H 478.367 -4.28444 -1.09032 0
M  V30 5011 N 477.426 -0.562348 -1.47226 0
M  V30 5012 C 478.336 0.185466 -2.33866 0
M  V30 5013 C 479.352 0.906713 -1.48508 0
M  V30 5014 O 480.528 0.874458 -1.81425 0
M  V30 5015 C 477.593 1.19904 -3.25306 0
M  V30 5016 C 476.654 0.484669 -4.26555 0
M  V30 5017 C 475.887 1.44996 -5.13626 0
M  V30 5018 O 476.11 2.68515 -5.03245 0
M  V30 5019 O 475.044 0.971642 -5.94006 0
M  V30 5020 H 478.87 -0.525361 -2.99121 0
M  V30 5021 H 476.455 -0.322916 -1.45868 0
M  V30 5022 H 478.337 1.78399 -3.81774 0
M  V30 5023 H 477.012 1.8917 -2.62672 0
M  V30 5024 H 475.919 -0.141605 -3.73832 0
M  V30 5025 H 477.252 -0.166634 -4.91918 0
M  V30 5026 N 478.904 1.54736 -0.299062 0
M  V30 5027 C 479.851 2.23448 0.577899 0
M  V30 5028 C 480.821 1.21637 1.13109 0
M  V30 5029 O 482.006 1.50252 1.17597 0
M  V30 5030 C 479.146 2.9774 1.74484 0
M  V30 5031 C 478.259 4.1432 1.22323 0
M  V30 5032 C 477.394 4.76199 2.35388 0
M  V30 5033 C 476.433 5.84927 1.80351 0
M  V30 5034 N 475.57 6.4077 2.86982 0
M  V30 5035 H 480.41 2.97996 -0.0146545 0
M  V30 5036 H 477.947 1.47088 -0.0190013 0
M  V30 5037 H 479.905 3.39045 2.43114 0
M  V30 5038 H 478.535 2.25572 2.30905 0
M  V30 5039 H 477.587 3.7797 0.429249 0
M  V30 5040 H 478.899 4.92659 0.780309 0
M  V30 5041 H 478.053 5.20346 3.11969 0
M  V30 5042 H 476.792 3.97188 2.83006 0
M  V30 5043 H 475.797 5.40207 1.02259 0
M  V30 5044 H 477.022 6.65821 1.3364 0
M  V30 5045 H 474.968 5.64643 3.33938 0
M  V30 5046 H 474.885 7.1445 2.4718 0
M  V30 5047 H 476.153 6.89574 3.63466 0
M  V30 5048 N 480.382 0.0267497 1.57577 0
M  V30 5049 C 481.628 -0.653371 1.91987 0
M  V30 5050 C 481.961 -1.71915 0.903263 0
M  V30 5051 O 481.236 -1.94358 -0.0743387 0
M  V30 5052 C 481.519 -1.272 3.36886 0
M  V30 5053 C 481.372 -0.215938 4.49281 0
M  V30 5054 C 482.691 -2.19069 3.81703 0
M  V30 5055 H 479.81 -0.236047 0.698177 0
M  V30 5056 H 482.452 0.0835236 1.89816 0
M  V30 5057 H 480.602 -1.90005 3.38866 0
M  V30 5058 H 482.274 0.41449 4.59434 0
M  V30 5059 H 480.517 0.458855 4.31366 0
M  V30 5060 H 481.188 -0.688347 5.47691 0
M  V30 5061 H 483.664 -1.66253 3.81444 0
M  V30 5062 H 482.54 -2.59307 4.83788 0
M  V30 5063 H 482.801 -3.08087 3.17072 0
M  V30 5064 N 481.861 -1.55662 -0.24637 0
M  V30 5065 C 482.793 -1.86811 -1.32794 0
M  V30 5066 C 483.806 -0.754413 -1.44265 0
M  V30 5067 O 484.995 -1.03253 -1.45606 0
M  V30 5068 C 482.095 -2.0397 -2.70646 0
M  V30 5069 C 481.268 -3.34832 -2.81436 0
M  V30 5070 C 480.327 -3.41727 -4.00136 0
M  V30 5071 O 479.353 -4.14934 -3.89639 0
M  V30 5072 N 480.555 -2.71058 -5.1333 0
M  V30 5073 H 483.32 -2.80174 -1.06409 0
M  V30 5074 H 480.881 -1.55906 -0.43647 0
M  V30 5075 H 482.873 -2.05924 -3.48393 0
M  V30 5076 H 481.443 -1.1735 -2.89738 0
M  V30 5077 H 480.663 -3.4519 -1.90361 0
M  V30 5078 H 481.951 -4.21085 -2.85595 0
M  V30 5079 H 481.349 -2.11314 -5.2475 0
M  V30 5080 H 479.906 -2.78704 -5.89209 0
M  V30 5081 N 483.339 0.512053 -1.4905 0
M  V30 5082 C 484.302 1.59704 -1.64399 0
M  V30 5083 C 485.302 1.52285 -0.516317 0
M  V30 5084 O 486.492 1.55635 -0.782527 0
M  V30 5085 C 483.624 2.9935 -1.63102 0
M  V30 5086 H 484.817 1.47428 -2.61161 0
M  V30 5087 H 482.37 0.735469 -1.37915 0
M  V30 5088 H 483.105 3.17116 -0.678836 0
M  V30 5089 H 482.89 3.06144 -2.44986 0
M  V30 5090 H 484.38 3.782 -1.77072 0
M  V30 5091 N 484.817 1.37938 0.762283 0
M  V30 5092 C 485.78 1.34279 1.85747 0
M  V30 5093 C 486.78 0.244969 1.58923 0
M  V30 5094 O 487.97 0.501365 1.66829 0
M  V30 5095 C 485.102 1.08833 3.23061 0
M  V30 5096 H 486.295 2.31705 1.90401 0
M  V30 5097 H 483.848 1.23105 0.963057 0
M  V30 5098 H 484.583 0.119767 3.24079 0
M  V30 5099 H 484.368 1.88306 3.43923 0
M  V30 5100 H 485.858 1.08946 4.03138 0
M  V30 5101 N 486.295 -0.989507 1.22664 0
M  V30 5102 C 487.205 -2.11449 1.01619 0
M  V30 5103 C 488.221 -1.73962 -0.036545 0
M  V30 5104 O 489.397 -2.00788 0.156924 0
M  V30 5105 C 486.462 -3.41465 0.600204 0
M  V30 5106 C 485.523 -3.93033 1.72695 0
M  V30 5107 C 484.756 -5.16844 1.33071 0
M  V30 5108 O 484.979 -5.7001 0.210975 0
M  V30 5109 O 483.913 -5.6225 2.14845 0
M  V30 5110 H 487.739 -2.32088 1.9588 0
M  V30 5111 H 485.324 -1.09823 1.01289 0
M  V30 5112 H 487.206 -4.19695 0.37873 0
M  V30 5113 H 485.881 -3.22178 -0.313511 0
M  V30 5114 H 484.788 -3.15961 2.00298 0
M  V30 5115 H 486.121 -4.16758 2.61865 0
M  V30 5116 N 487.773 -1.03688 -1.18687 0
M  V30 5117 C 488.706 -0.569112 -2.2099 0
M  V30 5118 C 489.684 0.394315 -1.57746 0
M  V30 5119 O 490.868 0.309519 -1.85941 0
M  V30 5120 C 487.995 0.169104 -3.38278 0
M  V30 5121 C 487.041 -0.746989 -4.19908 0
M  V30 5122 S 487.874 -2.22773 -4.86963 0
M  V30 5123 C 489.03 -1.50025 -6.07654 0
M  V30 5124 H 489.263 -1.43589 -2.60326 0
M  V30 5125 H 486.796 -0.847507 -1.29061 0
M  V30 5126 H 488.754 0.588868 -4.06254 0
M  V30 5127 H 487.415 1.01172 -2.9736 0
M  V30 5128 H 486.608 -0.176626 -5.0369 0
M  V30 5129 H 486.21 -1.10543 -3.5729 0
M  V30 5130 H 488.502 -0.791217 -6.72864 0
M  V30 5131 H 489.445 -2.31498 -6.69189 0
M  V30 5132 H 489.853 -0.994245 -5.55675 0
M  V30 5133 N 489.251 1.34841 -0.815825 0
M  V30 5134 C 490.199 2.31549 -0.220888 0
M  V30 5135 C 491.193 1.5707 0.634457 0
M  V30 5136 O 492.399 1.72125 0.526589 0
M  V30 5137 H 488.774 0.750153 -0.0526782 0
M  V30 5138 H 490.745 2.7926 -1.05149 0
M  V30 5139 C 489.494 3.42335 0.608427 0
M  V30 5140 H 488.817 3.9978 -0.0404121 0
M  V30 5141 H 490.257 4.12258 0.990931 0
M  V30 5142 C 488.716 2.86173 1.77782 0
M  V30 5143 O 489.246 2.80474 2.87571 0
M  V30 5144 N 487.452 2.43093 1.59229 0
M  V30 5145 H 486.999 2.47928 0.699237 0
M  V30 5146 H 486.957 2.05866 2.37627 0
M  V30 5147 N 490.729 0.570148 1.46925 0
M  V30 5148 C 491.976 0.0509529 2.02436 0
M  V30 5149 C 492.304 -1.30405 1.44308 0
M  V30 5150 O 491.559 -1.86493 0.593198 0
M  V30 5151 C 491.858 -0.0780336 3.57315 0
M  V30 5152 C 491.524 1.20775 4.34424 0
M  V30 5153 C 490.186 1.56004 4.5521 0
M  V30 5154 C 492.538 2.0592 4.78797 0
M  V30 5155 C 489.866 2.76201 5.17619 0
M  V30 5156 C 492.218 3.25332 5.42533 0
M  V30 5157 C 490.882 3.60859 5.61549 0
M  V30 5158 H 490.152 0.018645 0.740765 0
M  V30 5159 H 492.799 0.744262 1.76445 0
M  V30 5160 H 491.104 -0.854394 3.82371 0
M  V30 5161 H 492.801 -0.495312 3.97929 0
M  V30 5162 H 489.391 0.923469 4.18533 0
M  V30 5163 H 493.575 1.80008 4.62505 0
M  V30 5164 H 488.831 3.0388 5.30535 0
M  V30 5165 H 493.005 3.91586 5.75876 0
M  V30 5166 H 490.632 4.54088 6.09678 0
M  V30 5167 O 492.246 -1.55123 0.449357 0
M  V30 5168 H 492.937 -1.93529 -0.0814057 0
M  V30 END ATOM
M  V30 BEGIN BOND
M  V30 END BOND
M  V30 END CTAB
M  END
$$$$
