drugbank_target|P51149 Ras-related protein Rab-7a (DB04315)
 OpenBabel12092120543D

  0  0  0     0  0            999 V3000
M  V30 BEGIN CTAB
M  V30 COUNTS 3292 3322 0 0 0
M  V30 BEGIN ATOM
M  V30 1 H -0.908 1.98254 -0.117106 0
M  V30 2 N 0 1.576 0 0
M  V30 3 C 0.933 2.03868 1.02534 0
M  V30 4 C 1.911 0.928543 1.3348 0
M  V30 5 O 3.095 1.19667 1.45644 0
M  V30 6 C 0.222 2.43627 2.35294 0
M  V30 7 C -0.732 3.65373 2.2001 0
M  V30 8 S 0.101 5.13292 1.52614 0
M  V30 9 C 1.257 5.56322 2.86805 0
M  V30 10 H 1.49 2.90518 0.631377 0
M  V30 11 H -0.977 1.52953 0.210867 0
M  V30 12 H 0.981 2.67203 3.11629 0
M  V30 13 H -0.358 1.57376 2.7183 0
M  V30 14 H -1.165 3.90944 3.18086 0
M  V30 15 H -1.563 3.418 1.51819 0
M  V30 16 H 0.729 5.58782 3.83104 0
M  V30 17 H 1.672 6.56266 2.65933 0
M  V30 18 H 2.08 4.83886 2.90714 0
M  V30 19 N 1.4781 -0.272755 1.55222 0
M  V30 20 C 2.7061 -1.02255 1.79865 0
M  V30 21 C 3.1211 -1.79924 0.572088 0
M  V30 22 O 2.4781 -1.76638 -0.458842 0
M  V30 23 C 2.5291 -1.98094 3.02392 0
M  V30 24 O 2.2501 -1.23572 4.20311 0
M  V30 25 C 3.7511 -2.84884 3.39641 0
M  V30 26 H 0.9711 -0.302057 0.599168 0
M  V30 27 H 3.5151 -0.303465 2.02236 0
M  V30 28 H 1.6701 -2.65465 2.82147 0
M  V30 29 H 2.0841 -1.88172 4.89583 0
M  V30 30 H 3.5581 -3.47927 4.28545 0
M  V30 31 H 4.0351 -3.54665 2.59055 0
M  V30 32 H 4.6411 -2.23003 3.62146 0
M  V30 33 N 2.9562 -1.48159 -0.537278 0
M  V30 34 C 4.1812 -1.59707 -1.32319 0
M  V30 35 C 4.6062 -0.254859 -1.86365 0
M  V30 36 O 3.9642 0.772378 -1.64024 0
M  V30 37 C 4.0122 -2.6412 -2.45505 0
M  V30 38 O 3.1162 -2.20774 -3.48328 0
M  V30 39 H 2.4572 -0.535791 -0.392204 0
M  V30 40 H 4.9872 -1.94092 -0.647268 0
M  V30 41 H 4.9972 -2.85166 -2.91795 0
M  V30 42 H 3.6722 -3.61567 -2.05528 0
M  V30 43 H 2.2492 -2.09911 -3.08207 0
M  V30 44 N 4.4343 0.785586 -1.36625 0
M  V30 45 C 5.8503 1.08419 -1.17122 0
M  V30 46 C 6.0503 2.015 0.00208491 0
M  V30 47 O 5.1063 2.43551 0.666278 0
M  V30 48 C 6.4193 1.69498 -2.48377 0
M  V30 49 C 7.9673 1.81821 -2.54775 0
M  V30 50 C 8.4423 2.46315 -3.86126 0
M  V30 51 N 9.9333 2.53779 -3.87492 0
M  V30 52 C 10.6683 3.045 -4.85868 0
M  V30 53 N 10.1643 3.55499 -5.94637 0
M  V30 54 N 11.9573 3.03247 -4.73284 0
M  V30 55 H 4.1083 0.167264 -2.1174 0
M  V30 56 H 6.3713 0.13682 -0.938075 0
M  V30 57 H 6.0773 1.08571 -3.34522 0
M  V30 58 H 5.9513 2.6896 -2.64462 0
M  V30 59 H 8.3383 2.41884 -1.69045 0
M  V30 60 H 8.4193 0.811532 -2.42586 0
M  V30 61 H 8.0633 1.86895 -4.72263 0
M  V30 62 H 7.9933 3.47561 -3.95612 0
M  V30 63 H 10.4843 2.17672 -3.08913 0
M  V30 64 H 10.7973 3.92562 -6.65669 0
M  V30 65 H 9.1423 3.5364 -5.98301 0
M  V30 66 H 12.3333 2.62696 -3.87438 0
M  V30 67 H 12.5063 3.42467 -5.50109 0
M  V30 68 N 5.9124 1.20967 1.01018 0
M  V30 69 C 6.8594 0.964281 2.09691 0
M  V30 70 C 7.8294 -0.107853 1.65749 0
M  V30 71 O 9.0144 0.0381987 1.90762 0
M  V30 72 C 6.1544 0.52943 3.41015 0
M  V30 73 C 5.2674 1.67043 3.98398 0
M  V30 74 C 4.4024 1.18525 5.17808 0
M  V30 75 C 3.4414 2.29892 5.67288 0
M  V30 76 N 2.5784 1.82546 6.77954 0
M  V30 77 H 7.4184 1.89463 2.30017 0
M  V30 78 H 4.9554 0.944289 1.1279 0
M  V30 79 H 6.9134 0.258588 4.16398 0
M  V30 80 H 5.5434 -0.363919 3.20742 0
M  V30 81 H 4.5954 2.05603 3.20049 0
M  V30 82 H 5.9074 2.50877 4.31117 0
M  V30 83 H 5.0614 0.870762 6.00419 0
M  V30 84 H 3.8004 0.316887 4.86669 0
M  V30 85 H 2.8054 2.6215 4.83278 0
M  V30 86 H 4.0304 3.17216 6.00459 0
M  V30 87 H 1.9764 0.980454 6.48632 0
M  V30 88 H 1.8934 2.59956 7.09901 0
M  V30 89 H 3.1614 1.54115 7.64113 0
M  V30 90 N 7.3905 -1.2043 1.01659 0
M  V30 91 C 8.3375 -2.23215 0.586822 0
M  V30 92 C 9.3075 -1.61382 -0.393085 0
M  V30 93 O 10.4925 -1.88544 -0.292525 0
M  V30 94 C 7.6325 -3.45032 -0.0687464 0
M  V30 95 C 6.7455 -4.21296 0.955724 0
M  V30 96 C 5.8805 -5.30507 0.271208 0
M  V30 97 C 4.9195 -5.98515 1.28244 0
M  V30 98 N 4.0565 -6.99316 0.62459 0
M  V30 99 H 8.8965 -2.59336 1.46796 0
M  V30 100 H 6.4335 -1.27431 0.734836 0
M  V30 101 H 8.3915 -4.1459 -0.465965 0
M  V30 102 H 7.0215 -3.09604 -0.913529 0
M  V30 103 H 6.0735 -3.50803 1.4711 0
M  V30 104 H 7.3855 -4.6803 1.72479 0
M  V30 105 H 6.5395 -6.06428 -0.18151 0
M  V30 106 H 5.2785 -4.8481 -0.530163 0
M  V30 107 H 4.2835 -5.21355 1.74554 0
M  V30 108 H 5.5085 -6.46298 2.08509 0
M  V30 109 H 3.4545 -6.55812 -0.156914 0
M  V30 110 H 3.3715 -7.44178 1.33172 0
M  V30 111 H 4.6395 -7.79255 0.195462 0
M  V30 112 N 8.8686 -0.792821 -1.36206 0
M  V30 113 C 10.1146 -0.36733 -1.99446 0
M  V30 114 C 10.4476 1.05917 -1.62774 0
M  V30 115 O 9.7226 1.7324 -0.88421 0
M  V30 116 C 10.0056 -0.535044 -3.56103 0
M  V30 117 C 9.8586 -2.00548 -4.02617 0
M  V30 118 C 11.1776 0.0478191 -4.40074 0
M  V30 119 H 8.2966 -0.134941 -0.724541 0
M  V30 120 H 10.9386 -0.999794 -1.61568 0
M  V30 121 H 9.0886 0.00336329 -3.885 0
M  V30 122 H 10.7606 -2.60521 -3.80692 0
M  V30 123 H 9.0036 -2.50686 -3.54032 0
M  V30 124 H 9.6746 -2.07377 -5.11565 0
M  V30 125 H 12.1506 -0.411822 -4.14057 0
M  V30 126 H 11.0266 -0.0995336 -5.4881 0
M  V30 127 H 11.2876 1.14025 -4.27142 0
M  V30 128 N 10.3467 1.47872 -0.545128 0
M  V30 129 C 11.2767 2.32661 0.197793 0
M  V30 130 C 12.2577 1.43041 0.920504 0
M  V30 131 O 13.4427 1.71912 0.90333 0
M  V30 132 C 10.5727 3.24569 1.23582 0
M  V30 133 C 9.5267 4.23333 0.630323 0
M  V30 134 C 8.8527 5.0448 1.77211 0
M  V30 135 C 10.1527 5.20704 -0.407974 0
M  V30 136 H 11.8467 2.95024 -0.510045 0
M  V30 137 H 9.3927 1.4187 -0.246731 0
M  V30 138 H 11.3457 3.8272 1.76362 0
M  V30 139 H 10.0697 2.60236 1.97344 0
M  V30 140 H 8.7287 3.6639 0.123922 0
M  V30 141 H 8.3767 4.36561 2.49847 0
M  V30 142 H 8.0767 5.71339 1.37281 0
M  V30 143 H 9.6007 5.65487 2.3034 0
M  V30 144 H 11.0147 5.7329 0.033305 0
M  V30 145 H 9.4117 5.95699 -0.725486 0
M  V30 146 H 10.4817 4.66917 -1.30828 0
M  V30 147 N 11.8248 0.280983 1.55075 0
M  V30 148 C 12.7548 -0.597469 2.25727 0
M  V30 149 C 13.7358 -1.15417 1.24952 0
M  V30 150 O 14.9208 -1.18722 1.53684 0
M  V30 151 C 12.0508 -1.7789 2.98283 0
M  V30 152 C 11.0048 -1.35347 4.06036 0
M  V30 153 C 10.3308 -2.61846 4.66198 0
M  V30 154 C 11.6308 -0.499354 5.19907 0
M  V30 155 H 13.3248 -0.00824265 2.99399 0
M  V30 156 H 10.8708 -0.0025244 1.44 0
M  V30 157 H 12.8238 -2.39937 3.46422 0
M  V30 158 H 11.5478 -2.39405 2.22155 0
M  V30 159 H 10.2068 -0.756156 3.58717 0
M  V30 160 H 9.8548 -3.21632 3.86732 0
M  V30 161 H 9.5548 -2.3409 5.38958 0
M  V30 162 H 11.0788 -3.24732 5.1709 0
M  V30 163 H 12.4928 -1.02498 5.64063 0
M  V30 164 H 10.8898 -0.316424 5.99265 0
M  V30 165 H 11.9598 0.480459 4.82514 0
M  V30 166 N 13.3029 -1.57598 0.00835791 0
M  V30 167 C 14.2499 -2.08945 -0.980346 0
M  V30 168 C 15.2199 -0.986738 -1.33614 0
M  V30 169 O 16.4049 -1.25968 -1.43306 0
M  V30 170 C 13.5449 -2.60425 -2.26435 0
M  V30 171 C 12.6579 -3.84628 -1.96685 0
M  V30 172 C 11.7929 -4.24579 -3.19228 0
M  V30 173 C 10.8319 -5.41596 -2.85202 0
M  V30 174 N 9.9689 -5.768 -4.00307 0
M  V30 175 H 14.8089 -2.93148 -0.535551 0
M  V30 176 H 12.3459 -1.44912 -0.252776 0
M  V30 177 H 14.3039 -2.88354 -3.01509 0
M  V30 178 H 12.9339 -1.79083 -2.68568 0
M  V30 179 H 11.9859 -3.63556 -1.11942 0
M  V30 180 H 13.2979 -4.69796 -1.67611 0
M  V30 181 H 12.4519 -4.53834 -4.02641 0
M  V30 182 H 11.1909 -3.38137 -3.51447 0
M  V30 183 H 10.1959 -5.12056 -2.00198 0
M  V30 184 H 11.4209 -6.29721 -2.54222 0
M  V30 185 H 9.3669 -4.93316 -4.32407 0
M  V30 186 H 9.2839 -6.5656 -3.74786 0
M  V30 187 H 10.5519 -6.10652 -4.84484 0
M  V30 188 N 14.781 0.264519 -1.55364 0
M  V30 189 C 16.027 0.99646 -1.76631 0
M  V30 190 C 16.36 1.85632 -0.570478 0
M  V30 191 O 15.635 1.89647 0.43175 0
M  V30 192 C 15.918 1.87187 -3.07625 0
M  V30 193 C 15.771 1.04138 -4.37579 0
M  V30 194 C 17.09 2.85749 -3.34717 0
M  V30 195 H 14.209 0.360841 -0.642622 0
M  V30 196 H 16.851 0.268218 -1.88097 0
M  V30 197 H 15.001 2.49279 -2.9798 0
M  V30 198 H 16.673 0.440517 -4.59192 0
M  V30 199 H 14.916 0.345115 -4.32425 0
M  V30 200 H 15.587 1.68729 -5.2558 0
M  V30 201 H 18.063 2.33793 -3.4421 0
M  V30 202 H 16.939 3.44136 -4.27623 0
M  V30 203 H 17.2 3.61311 -2.54768 0
M  V30 204 N 16.2591 1.48442 0.529413 0
M  V30 205 C 17.5081 1.55742 1.28169 0
M  V30 206 C 17.8211 0.236511 1.94165 0
M  V30 207 O 19.0271 0.187761 2.7085 0
M  V30 208 C 17.4831 2.74667 2.32564 0
M  V30 209 C 17.0911 4.13402 1.72636 0
M  V30 210 C 18.8351 2.9128 3.08798 0
M  V30 211 C 16.7421 5.23587 2.74975 0
M  V30 212 H 15.6721 0.579796 0.48203 0
M  V30 213 H 18.3231 1.74776 0.559056 0
M  V30 214 H 16.7051 2.49067 3.07866 0
M  V30 215 H 17.8791 4.49022 1.03519 0
M  V30 216 H 16.1941 4.0191 1.08892 0
M  V30 217 H 18.7911 3.70767 3.85274 0
M  V30 218 H 19.1341 2.00757 3.64695 0
M  V30 219 H 19.6671 3.16782 2.40611 0
M  V30 220 H 16.4061 6.16076 2.23897 0
M  V30 221 H 15.9261 4.92454 3.42417 0
M  V30 222 H 17.6051 5.51724 3.37949 0
M  V30 223 N 17.7372 -0.778329 1.37039 0
M  V30 224 C 18.9862 -1.53189 1.3121 0
M  V30 225 C 19.2992 -1.95328 -0.103095 0
M  V30 226 O 20.5052 -2.70012 -0.283826 0
M  V30 227 C 18.9612 -2.76591 2.30272 0
M  V30 228 C 18.5692 -2.41577 3.77286 0
M  V30 229 C 20.3132 -3.5455 2.33441 0
M  V30 230 C 18.2202 -3.61441 4.68096 0
M  V30 231 H 17.1502 -0.5751 0.487622 0
M  V30 232 H 19.8012 -0.853101 1.62464 0
M  V30 233 H 18.1832 -3.46326 1.92027 0
M  V30 234 H 19.3572 -1.79668 4.2433 0
M  V30 235 H 17.6722 -1.76806 3.76999 0
M  V30 236 H 20.2692 -4.43628 2.98493 0
M  V30 237 H 20.6122 -3.93936 1.34611 0
M  V30 238 H 21.1452 -2.91805 2.7036 0
M  V30 239 H 17.8842 -3.27142 5.6803 0
M  V30 240 H 17.4042 -4.22478 4.25761 0
M  V30 241 H 19.0832 -4.28335 4.8491 0
M  V30 242 N 19.2153 -1.21501 -1.00376 0
M  V30 243 C 20.1453 -0.999478 -2.11028 0
M  V30 244 C 21.1263 0.0759671 -1.6993 0
M  V30 245 O 22.3113 -0.0841106 -1.94018 0
M  V30 246 C 19.4413 -0.564709 -3.42678 0
M  V30 247 C 18.3953 -1.58486 -3.97576 0
M  V30 248 C 17.7213 -1.00628 -5.25146 0
M  V30 249 C 19.0213 -2.97204 -4.29496 0
M  V30 250 H 20.7153 -1.92495 -2.29317 0
M  V30 251 H 18.2613 -0.92693 -1.102 0
M  V30 252 H 20.2143 -0.401091 -4.19487 0
M  V30 253 H 18.9383 0.396411 -3.24185 0
M  V30 254 H 17.5973 -1.73606 -3.22888 0
M  V30 255 H 17.2453 -0.0368439 -5.02987 0
M  V30 256 H 16.9453 -1.68771 -5.62841 0
M  V30 257 H 18.4693 -0.854015 -6.04598 0
M  V30 258 H 19.8833 -2.8552 -4.97143 0
M  V30 259 H 18.2803 -3.62372 -4.78338 0
M  V30 260 H 19.3503 -3.47956 -3.3772 0
M  V30 261 N 20.6934 1.19889 -1.02296 0
M  V30 262 C 21.9414 1.89046 -0.714558 0
M  V30 263 C 22.2624 1.79636 0.758681 0
M  V30 264 O 21.5324 1.20292 1.54618 0
M  V30 265 H 20.1124 0.699802 -0.261317 0
M  V30 266 H 22.7744 1.45574 -1.29592 0
M  V30 267 H 21.8704 2.95524 -1.0036 0
M  V30 268 N 22.1715 0.800033 1.35784 0
M  V30 269 C 23.4485 0.30088 1.93272 0
M  V30 270 C 23.8285 -1.20857 1.73081 0
M  V30 271 O 23.1765 -2.00502 1.09596 0
M  V30 272 C 23.3865 0.70511 3.41803 0
M  V30 273 C 24.7345 0.690871 4.18942 0
M  V30 274 O 25.7585 0.646244 3.50289 0
M  V30 275 O 24.6175 0.74332 5.41421 0
M  V30 276 H 21.7115 0.0771605 0.823393 0
M  V30 277 H 24.2575 0.88329 1.449 0
M  V30 278 H 23.0295 1.74571 3.50201 0
M  V30 279 H 22.6525 0.0971541 3.97481 0
M  V30 280 N 23.6496 -1.47581 0.552962 0
M  V30 281 C 24.8746 -2.07378 0.0300593 0
M  V30 282 C 25.2996 -1.40355 -1.25229 0
M  V30 283 O 24.6576 -0.477099 -1.7491 0
M  V30 284 C 24.7056 -3.60274 -0.153231 0
M  V30 285 O 23.8096 -3.94041 -1.21678 0
M  V30 286 H 23.1506 -0.662158 0.0494182 0
M  V30 287 H 25.6806 -1.89662 0.767434 0
M  V30 288 H 25.6906 -4.0633 -0.368761 0
M  V30 289 H 24.3656 -4.08455 0.783397 0
M  V30 290 H 22.9426 -3.59735 -0.982079 0
M  V30 291 N 25.1277 -0.289203 -1.54924 0
M  V30 292 C 26.3757 0.322879 -1.99504 0
M  V30 293 C 26.6967 1.55313 -1.1791 0
M  V30 294 O 25.9667 1.94001 -0.272097 0
M  V30 295 H 24.5467 0.122291 -0.736922 0
M  V30 296 H 27.2087 -0.397802 -1.90797 0
M  V30 297 H 26.3047 0.603061 -3.06218 0
M  V30 298 N 26.6058 1.57591 -0.0167156 0
M  V30 299 C 27.8518 1.91567 0.665582 0
M  V30 300 C 28.1848 0.892298 1.72487 0
M  V30 301 O 27.4598 -0.0867127 1.94307 0
M  V30 302 C 27.7428 3.36069 1.29342 0
M  V30 303 C 27.5958 4.49135 0.244541 0
M  V30 304 C 28.9148 3.803 2.21495 0
M  V30 305 H 26.0338 0.69666 0.240488 0
M  V30 306 H 28.6758 1.89866 -0.0714356 0
M  V30 307 H 26.8258 3.3765 1.92158 0
M  V30 308 H 28.4978 4.59689 -0.385228 0
M  V30 309 H 26.7408 4.3165 -0.431379 0
M  V30 310 H 27.4118 5.47242 0.723207 0
M  V30 311 H 29.8878 3.80377 1.68678 0
M  V30 312 H 28.7638 4.82127 2.62382 0
M  V30 313 H 29.0248 3.15104 3.101 0
M  V30 314 N 28.0839 -0.256276 1.55502 0
M  V30 315 C 29.3319 -0.983672 1.76545 0
M  V30 316 C 29.6529 -1.86206 0.578982 0
M  V30 317 O 28.9229 -1.91656 -0.405577 0
M  V30 318 H 27.5029 -0.366191 0.651086 0
M  V30 319 H 30.1649 -0.276479 1.92929 0
M  V30 320 H 29.2609 -1.61087 2.67315 0
M  V30 321 N 29.562 -1.4872 -0.521534 0
M  V30 322 C 30.509 -1.63871 -1.62527 0
M  V30 323 C 31.479 -0.480559 -1.58996 0
M  V30 324 O 32.664 -0.705085 -1.77294 0
M  V30 325 C 29.804 -1.69227 -3.00759 0
M  V30 326 C 28.917 -2.96207 -3.14461 0
M  V30 327 C 28.052 -2.92671 -4.43303 0
M  V30 328 C 27.091 -4.14318 -4.50563 0
M  V30 329 N 26.228 -4.0881 -5.70805 0
M  V30 330 H 31.068 -2.58123 -1.48918 0
M  V30 331 H 28.605 -1.28 -0.724878 0
M  V30 332 H 30.563 -1.70314 -3.80853 0
M  V30 333 H 29.193 -0.784586 -3.1312 0
M  V30 334 H 28.245 -3.04826 -2.27564 0
M  V30 335 H 29.557 -3.86192 -3.15686 0
M  V30 336 H 28.711 -2.92206 -5.31696 0
M  V30 337 H 27.45 -2.00429 -4.44612 0
M  V30 338 H 26.455 -4.15049 -3.60575 0
M  V30 339 H 27.68 -5.07729 -4.50986 0
M  V30 340 H 25.626 -3.19394 -5.72995 0
M  V30 341 H 25.543 -4.92509 -5.7356 0
M  V30 342 H 26.811 -4.12418 -6.61462 0
M  V30 343 N 31.0401 0.771051 -1.3745 0
M  V30 344 C 32.2681 1.56015 -1.35893 0
M  V30 345 C 32.6831 1.88718 0.0555523 0
M  V30 346 O 32.0401 1.51502 1.01752 0
M  V30 347 C 32.0911 2.87001 -2.19801 0
M  V30 348 O 31.8121 2.557 -3.55738 0
M  V30 349 C 33.3131 3.81228 -2.26231 0
M  V30 350 H 30.5331 0.483317 -0.465453 0
M  V30 351 H 33.0771 0.955611 -1.80799 0
M  V30 352 H 31.2321 3.43877 -1.78402 0
M  V30 353 H 31.6461 3.39584 -3.99729 0
M  V30 354 H 33.1201 4.70139 -2.89263 0
M  V30 355 H 33.5971 4.20409 -1.27093 0
M  V30 356 H 34.2031 3.30281 -2.67945 0
M  V30 357 N 32.5182 1.22032 0.997298 0
M  V30 358 C 33.7432 1.06921 1.77715 0
M  V30 359 C 34.1682 -0.376226 1.84299 0
M  V30 360 O 33.5262 -1.27165 1.29223 0
M  V30 361 C 33.5742 1.67996 3.19076 0
M  V30 362 O 32.6782 0.930653 4.01762 0
M  V30 363 H 32.0192 0.375814 0.547412 0
M  V30 364 H 34.5492 1.61737 1.25309 0
M  V30 365 H 34.5592 1.72538 3.69723 0
M  V30 366 H 33.2342 2.73182 3.13599 0
M  V30 367 H 31.8112 0.960917 3.60307 0
M  V30 368 N 33.9963 -1.19345 1.0293 0
M  V30 369 C 34.9263 -2.2481 0.631105 0
M  V30 370 C 35.9073 -1.66245 -0.360104 0
M  V30 371 O 37.0923 -1.92677 -0.242726 0
M  V30 372 C 34.2223 -3.47295 -0.0184607 0
M  V30 373 C 33.1763 -4.18536 0.895073 0
M  V30 374 C 32.5023 -5.34586 0.110592 0
M  V30 375 C 33.8023 -4.73287 2.209 0
M  V30 376 H 35.4963 -2.58372 1.51275 0
M  V30 377 H 33.0423 -1.24194 0.728818 0
M  V30 378 H 34.9953 -4.20268 -0.308675 0
M  V30 379 H 33.7193 -3.12933 -0.934907 0
M  V30 380 H 32.3783 -3.47446 1.16949 0
M  V30 381 H 32.0263 -4.96469 -0.807902 0
M  V30 382 H 31.7263 -5.83183 0.719087 0
M  V30 383 H 33.2503 -6.10355 -0.172871 0
M  V30 384 H 34.6643 -5.38013 1.98028 0
M  V30 385 H 33.0613 -5.32373 2.76946 0
M  V30 386 H 34.1313 -3.91331 2.86336 0
M  V30 387 N 35.4744 -0.807222 -1.35358 0
M  V30 388 C 36.4074 -0.163572 -2.27613 0
M  V30 389 C 37.3854 0.670817 -1.48118 0
M  V30 390 O 38.5694 0.63796 -1.77376 0
M  V30 391 C 35.6964 0.773015 -3.29761 0
M  V30 392 C 34.7424 0.0181653 -4.26496 0
M  V30 393 S 35.5754 -1.31831 -5.19019 0
M  V30 394 C 36.7314 -0.38619 -6.24707 0
M  V30 395 H 36.9644 -0.945757 -2.81856 0
M  V30 396 H 34.4974 -0.602315 -1.42167 0
M  V30 397 H 36.4554 1.30788 -3.89108 0
M  V30 398 H 35.1164 1.52859 -2.74396 0
M  V30 399 H 34.3094 0.729534 -4.98692 0
M  V30 400 H 33.9114 -0.446761 -3.71322 0
M  V30 401 H 36.2034 0.428295 -6.76145 0
M  V30 402 H 37.1464 -1.07736 -6.99856 0
M  V30 403 H 37.5544 0.018398 -5.64497 0
M  V30 404 N 36.9525 1.47285 -0.560781 0
M  V30 405 C 37.9005 2.31756 0.197942 0
M  V30 406 C 38.8945 1.43146 0.905854 0
M  V30 407 O 40.1005 1.59891 0.826733 0
M  V30 408 H 36.4755 0.747438 0.0827049 0
M  V30 409 H 38.4465 2.9359 -0.533629 0
M  V30 410 C 37.1955 3.25874 1.21249 0
M  V30 411 H 36.5185 3.94023 0.67719 0
M  V30 412 H 37.9585 3.87803 1.71419 0
M  V30 413 C 36.4175 2.49651 2.26221 0
M  V30 414 O 36.9475 2.24355 3.33208 0
M  V30 415 N 35.1535 2.10597 2.00243 0
M  V30 416 H 34.7005 2.31369 1.13252 0
M  V30 417 H 34.6585 1.59913 2.70694 0
M  V30 418 N 38.4306 0.297415 1.54768 0
M  V30 419 C 39.3626 -0.613881 2.20826 0
M  V30 420 C 40.3756 -1.10032 1.19987 0
M  V30 421 O 41.5646 -1.01839 1.46598 0
M  V30 422 C 38.6646 -1.852 2.83821 0
M  V30 423 C 37.8376 -1.50865 4.10559 0
M  V30 424 C 36.8966 -2.60154 4.57391 0
M  V30 425 O 35.9226 -2.25398 5.2267 0
M  V30 426 N 37.1246 -3.90629 4.29406 0
M  V30 427 H 39.8896 -0.048389 2.99661 0
M  V30 428 H 37.4506 0.11946 1.61459 0
M  V30 429 H 39.4426 -2.57652 3.12086 0
M  V30 430 H 38.0126 -2.32597 2.08847 0
M  V30 431 H 37.2326 -0.616925 3.89343 0
M  V30 432 H 38.5206 -1.25458 4.9309 0
M  V30 433 H 37.9186 -4.21677 3.77101 0
M  V30 434 H 36.4756 -4.59391 4.62388 0
M  V30 435 N 39.9087 -1.5758 0.0250728 0
M  V30 436 C 41.1387 -1.95646 -0.663783 0
M  V30 437 C 41.5467 -0.899935 -1.66427 0
M  V30 438 O 40.8897 0.127191 -1.83259 0
M  V30 439 C 40.9517 -3.29835 -1.43 0
M  V30 440 C 40.6157 -4.53197 -0.588305 0
M  V30 441 C 41.6127 -5.19726 0.13469 0
M  V30 442 C 39.2977 -4.99529 -0.526897 0
M  V30 443 C 41.2917 -6.30902 0.90781 0
M  V30 444 C 38.9787 -6.10589 0.24993 0
M  V30 445 C 39.9767 -6.76134 0.965994 0
M  V30 446 O 39.6647 -7.85062 1.7301 0
M  V30 447 H 39.3967 -0.649282 -0.188174 0
M  V30 448 H 41.9507 -2.05245 0.0799006 0
M  V30 449 H 40.1807 -3.16716 -2.21873 0
M  V30 450 H 41.8697 -3.52833 -2.00658 0
M  V30 451 H 42.6357 -4.84904 0.0965562 0
M  V30 452 H 38.5147 -4.48319 -1.07381 0
M  V30 453 H 42.0587 -6.81995 1.46724 0
M  V30 454 H 37.9557 -6.44849 0.289795 0
M  V30 455 H 38.7237 -8.01708 1.64944 0
M  V30 456 N 41.3868 0.248026 -1.55636 0
M  V30 457 C 42.6328 0.97767 -1.77678 0
M  V30 458 C 42.9658 1.85016 -0.590135 0
M  V30 459 O 42.2408 1.90095 0.411611 0
M  V30 460 C 42.5238 1.83914 -3.09593 0
M  V30 461 C 42.3768 0.99491 -4.38659 0
M  V30 462 C 43.6958 2.82183 -3.37729 0
M  V30 463 H 40.8148 0.354005 -0.646413 0
M  V30 464 H 43.4568 0.248253 -1.88371 0
M  V30 465 H 41.6068 2.46104 -3.00608 0
M  V30 466 H 43.2788 0.391789 -4.59633 0
M  V30 467 H 41.5218 0.299231 -4.32767 0
M  V30 468 H 42.1928 1.63145 -5.2734 0
M  V30 469 H 44.6688 2.30129 -3.4667 0
M  V30 470 H 43.5448 3.39582 -4.31249 0
M  V30 471 H 43.8058 3.58588 -2.58586 0
M  V30 472 N 42.8649 1.48995 0.513639 0
M  V30 473 C 43.8129 1.65199 1.63744 0
M  V30 474 C 44.8069 0.51809 1.61283 0
M  V30 475 O 46.0129 0.697335 1.65943 0
M  V30 476 H 42.3879 0.52069 0.542574 0
M  V30 477 H 44.3589 2.59552 1.47226 0
M  V30 478 C 43.1079 1.72409 3.01945 0
M  V30 479 H 42.4309 2.59029 3.04539 0
M  V30 480 H 43.8709 1.87785 3.80148 0
M  V30 481 C 42.3299 0.46618 3.33659 0
M  V30 482 O 42.8599 -0.413744 3.99564 0
M  V30 483 N 41.0659 0.332931 2.88687 0
M  V30 484 H 40.6129 1.04996 2.35231 0
M  V30 485 H 40.5709 -0.507665 3.10274 0
M  V30 486 N 44.343 -0.763751 1.37857 0
M  V30 487 C 45.29 -1.87726 1.34267 0
M  V30 488 C 46.26 -1.64807 0.206879 0
M  V30 489 O 47.445 -1.86613 0.397508 0
M  V30 490 C 44.585 -3.24896 1.16346 0
M  V30 491 C 43.698 -3.59716 2.39225 0
M  V30 492 C 42.833 -4.86137 2.14114 0
M  V30 493 C 41.872 -5.13711 3.32817 0
M  V30 494 N 41.009 -6.31323 3.07206 0
M  V30 495 H 45.849 -1.90129 2.29466 0
M  V30 496 H 43.386 -0.929433 1.14017 0
M  V30 497 H 45.344 -4.04036 1.03975 0
M  V30 498 H 43.974 -3.21847 0.247909 0
M  V30 499 H 43.026 -2.75498 2.62307 0
M  V30 500 H 44.338 -3.76027 3.27728 0
M  V30 501 H 43.492 -5.73198 1.9882 0
M  V30 502 H 42.231 -4.71945 1.22961 0
M  V30 503 H 41.236 -4.25123 3.48641 0
M  V30 504 H 42.461 -5.29807 4.24832 0
M  V30 505 H 40.407 -6.18474 2.1869 0
M  V30 506 H 40.324 -6.48087 3.89254 0
M  V30 507 H 41.592 -7.213 2.95546 0
M  V30 508 N 45.8211 -1.22559 -0.990812 0
M  V30 509 C 46.7681 -0.997519 -2.0813 0
M  V30 510 C 47.7381 0.0814702 -1.659 0
M  V30 511 O 48.9231 -0.0685424 -1.90677 0
M  V30 512 C 46.0631 -0.583615 -3.40129 0
M  V30 513 C 45.1761 -1.7336 -3.9569 0
M  V30 514 C 44.3111 -1.26748 -5.15857 0
M  V30 515 C 43.3501 -2.38888 -5.63559 0
M  V30 516 N 42.4871 -1.93308 -6.74964 0
M  V30 517 H 47.3271 -1.93099 -2.26973 0
M  V30 518 H 44.8641 -0.962114 -1.11273 0
M  V30 519 H 46.8221 -0.324801 -4.15934 0
M  V30 520 H 45.4521 0.312845 -3.2128 0
M  V30 521 H 44.5041 -2.10669 -3.16738 0
M  V30 522 H 45.8161 -2.57704 -4.27071 0
M  V30 523 H 44.9701 -0.966173 -5.98957 0
M  V30 524 H 43.7091 -0.394272 -4.86104 0
M  V30 525 H 42.7141 -2.69805 -4.79046 0
M  V30 526 H 43.9391 -3.26728 -5.95336 0
M  V30 527 H 41.8851 -1.08352 -6.4699 0
M  V30 528 H 41.8021 -2.71217 -7.05675 0
M  V30 529 H 43.0701 -1.66252 -7.61564 0
M  V30 530 N 47.2992 1.18797 -1.03562 0
M  V30 531 C 48.5462 1.8865 -0.736023 0
M  V30 532 C 48.8742 1.80041 0.735889 0
M  V30 533 O 48.1292 1.19179 1.55225 0
M  V30 534 C 48.4282 3.38692 -1.14117 0
M  V30 535 C 48.0942 3.67504 -2.6125 0
M  V30 536 C 46.7562 3.75078 -3.01447 0
M  V30 537 C 49.1082 3.80293 -3.56408 0
M  V30 538 C 46.4362 3.92915 -4.35701 0
M  V30 539 C 48.7882 3.99645 -4.90374 0
M  V30 540 C 47.4522 4.05453 -5.30249 0
M  V30 541 H 46.7222 0.690321 -0.26933 0
M  V30 542 H 49.3692 1.40641 -1.29971 0
M  V30 543 H 47.6742 3.88645 -0.496202 0
M  V30 544 H 49.3712 3.91072 -0.886789 0
M  V30 545 H 45.9612 3.62223 -2.29113 0
M  V30 546 H 50.1452 3.73779 -3.26501 0
M  V30 547 H 45.4012 3.95653 -4.66121 0
M  V30 548 H 49.5752 4.08482 -5.64017 0
M  V30 549 H 47.2022 4.19027 -6.34288 0
M  V30 550 N 48.7773 0.814389 1.34928 0
M  V30 551 C 50.0023 0.410097 2.03305 0
M  V30 552 C 50.4273 -0.973464 1.60951 0
M  V30 553 O 49.7853 -1.63185 0.789964 0
M  V30 554 C 49.8333 0.51049 3.56968 0
M  V30 555 O 48.9373 -0.473035 4.09678 0
M  V30 556 H 48.2783 0.170088 0.641846 0
M  V30 557 H 50.8083 1.10244 1.72358 0
M  V30 558 H 50.8183 0.383135 4.06197 0
M  V30 559 H 49.4933 1.51963 3.87144 0
M  V30 560 H 48.0703 -0.305272 3.71648 0
M  V30 561 N 50.2554 -1.46986 0.568584 0
M  V30 562 C 51.2034 -2.31858 -0.185649 0
M  V30 563 C 52.1974 -1.43624 -0.898249 0
M  V30 564 O 53.4034 -1.60327 -0.818242 0
M  V30 565 H 49.7784 -0.747866 -0.0787399 0
M  V30 566 H 51.7494 -2.93303 0.549191 0
M  V30 567 C 50.4984 -3.26513 -1.19519 0
M  V30 568 H 49.8214 -3.94377 -0.656285 0
M  V30 569 H 51.2614 -3.88707 -1.6936 0
M  V30 570 C 49.7204 -2.50847 -2.24894 0
M  V30 571 O 50.2504 -2.26119 -3.32014 0
M  V30 572 N 48.4564 -2.11656 -1.99124 0
M  V30 573 H 48.0034 -2.31966 -1.12024 0
M  V30 574 H 47.9614 -1.61347 -2.69842 0
M  V30 575 N 51.7335 -0.305618 -1.54608 0
M  V30 576 C 52.6655 0.602161 -2.21149 0
M  V30 577 C 53.6785 1.09394 -1.20569 0
M  V30 578 O 54.8675 1.0106 -1.47136 0
M  V30 579 C 51.9675 1.83692 -2.84799 0
M  V30 580 C 51.1405 1.48686 -4.11353 0
M  V30 581 C 50.1995 2.57725 -4.58764 0
M  V30 582 O 49.2255 2.22623 -5.23858 0
M  V30 583 N 50.4275 3.88346 -4.31471 0
M  V30 584 H 53.1925 0.0324966 -2.99682 0
M  V30 585 H 50.7535 -0.128021 -1.61393 0
M  V30 586 H 52.7455 2.55994 -3.13448 0
M  V30 587 H 51.3155 2.31486 -2.10078 0
M  V30 588 H 50.5355 0.596269 -3.89664 0
M  V30 589 H 51.8235 1.22842 -4.93748 0
M  V30 590 H 51.2215 4.19671 -3.79331 0
M  V30 591 H 49.7785 4.56932 -4.64818 0
M  V30 592 N 53.2116 1.57565 -0.0334293 0
M  V30 593 C 54.4416 1.95996 0.653398 0
M  V30 594 C 54.8496 0.908749 1.65947 0
M  V30 595 O 54.1926 -0.117471 1.83324 0
M  V30 596 C 54.2546 3.30589 1.41249 0
M  V30 597 C 53.9186 4.53503 0.564263 0
M  V30 598 C 54.9156 5.19647 -0.16225 0
M  V30 599 C 52.6006 4.99801 0.500398 0
M  V30 600 C 54.5946 6.30412 -0.941255 0
M  V30 601 C 52.2816 6.10448 -0.282308 0
M  V30 602 C 53.2796 6.75612 -1.00184 0
M  V30 603 O 52.9676 7.84134 -1.77171 0
M  V30 604 H 52.6996 0.65027 0.184728 0
M  V30 605 H 55.2536 2.05199 -0.0907841 0
M  V30 606 H 53.4836 3.17888 2.20191 0
M  V30 607 H 55.1726 3.53892 1.98784 0
M  V30 608 H 55.9386 4.84846 -0.12227 0
M  V30 609 H 51.8176 4.48883 1.05002 0
M  V30 610 H 55.3616 6.81208 -1.50339 0
M  V30 611 H 51.2586 6.44686 -0.323989 0
M  V30 612 H 52.0266 8.00822 -1.69194 0
M  V30 613 N 54.6897 -0.239769 1.55765 0
M  V30 614 C 55.6367 -1.29696 1.90913 0
M  V30 615 C 56.6067 -1.47478 0.764164 0
M  V30 616 O 57.7917 -1.61345 1.01845 0
M  V30 617 C 54.9317 -2.64598 2.21544 0
M  V30 618 C 54.0447 -2.54765 3.48882 0
M  V30 619 C 53.1797 -3.82069 3.69049 0
M  V30 620 C 52.2187 -3.66883 4.89963 0
M  V30 621 N 51.3557 -4.86094 5.06614 0
M  V30 622 H 56.1957 -0.990224 2.81067 0
M  V30 623 H 53.7327 -0.477684 1.39128 0
M  V30 624 H 55.6907 -3.43132 2.3731 0
M  V30 625 H 54.3207 -2.93405 1.34585 0
M  V30 626 H 53.3727 -1.67763 3.41409 0
M  V30 627 H 54.6847 -2.39457 4.37563 0
M  V30 628 H 53.8387 -4.69046 3.84812 0
M  V30 629 H 52.5777 -4.00282 2.78614 0
M  V30 630 H 51.5827 -2.78289 4.74168 0
M  V30 631 H 52.8077 -3.50157 5.81865 0
M  V30 632 H 50.7537 -5.04655 4.19117 0
M  V30 633 H 50.6707 -4.73443 5.89396 0
M  V30 634 H 51.9387 -5.74549 5.26795 0
M  V30 635 N 56.1678 -1.49265 -0.50573 0
M  V30 636 C 57.1308 -1.65075 -1.59006 0
M  V30 637 C 58.1308 -0.522768 -1.52065 0
M  V30 638 O 59.3208 -0.789117 -1.55302 0
M  V30 639 C 56.4528 -1.64369 -2.98656 0
M  V30 640 H 57.6458 -2.61784 -1.46319 0
M  V30 641 H 55.1988 -1.38226 -0.729616 0
M  V30 642 H 55.9338 -0.692272 -3.16825 0
M  V30 643 H 55.7188 -2.46282 -3.05103 0
M  V30 644 H 57.2088 -1.78674 -3.77446 0
M  V30 645 N 57.6459 0.756429 -1.3826 0
M  V30 646 C 58.8739 1.54565 -1.3754 0
M  V30 647 C 59.2889 1.88767 0.0355331 0
M  V30 648 O 58.6459 1.52572 1.0014 0
M  V30 649 C 58.6969 2.84654 -2.22833 0
M  V30 650 O 58.4179 2.51912 -3.5843 0
M  V30 651 C 59.9189 3.78807 -2.30261 0
M  V30 652 H 57.1389 0.478353 -0.470553 0
M  V30 653 H 59.6829 0.936381 -1.81803 0
M  V30 654 H 57.8379 3.41965 -1.8204 0
M  V30 655 H 58.2519 3.35325 -4.03308 0
M  V30 656 H 59.7259 4.67045 -2.94233 0
M  V30 657 H 60.2029 4.19038 -1.31545 0
M  V30 658 H 60.8089 3.2742 -2.71433 0
M  V30 659 N 59.124 1.23083 0.984299 0
M  V30 660 C 60.373 1.05466 1.71929 0
M  V30 661 C 60.686 -0.409211 1.91272 0
M  V30 662 O 61.892 -0.705226 2.62181 0
M  V30 663 C 60.348 1.83874 3.09384 0
M  V30 664 C 59.956 3.34566 2.97943 0
M  V30 665 C 61.7 1.74734 3.8687 0
M  V30 666 C 59.607 4.05381 4.30605 0
M  V30 667 H 58.537 0.391039 0.644674 0
M  V30 668 H 61.188 1.47013 1.09815 0
M  V30 669 H 59.57 1.35131 3.72231 0
M  V30 670 H 60.744 3.90767 2.44209 0
M  V30 671 H 59.059 3.44476 2.33934 0
M  V30 672 H 61.656 2.24957 4.85076 0
M  V30 673 H 61.999 0.709372 4.10212 0
M  V30 674 H 62.532 2.21067 3.30717 0
M  V30 675 H 59.271 5.09467 4.1246 0
M  V30 676 H 58.791 3.53967 4.84218 0
M  V30 677 H 60.47 4.11458 4.99311 0
M  V30 678 N 60.6021 -1.18246 1.0419 0
M  V30 679 C 61.8501 -1.87886 0.744543 0
M  V30 680 C 62.1711 -1.8082 -0.730006 0
M  V30 681 O 61.4411 -1.22736 -1.52685 0
M  V30 682 H 60.0211 -0.695556 0.272417 0
M  V30 683 H 62.6831 -1.43494 1.31892 0
M  V30 684 H 61.7791 -2.9389 1.05049 0
M  V30 685 N 62.0802 -0.821533 -1.34494 0
M  V30 686 C 63.0432 -0.247847 -2.27856 0
M  V30 687 C 64.0432 0.573453 -1.50227 0
M  V30 688 O 65.2332 0.389759 -1.69784 0
M  V30 689 C 62.3652 0.652698 -3.34593 0
M  V30 690 H 63.5582 -1.07146 -2.80107 0
M  V30 691 H 61.1112 -0.593291 -1.44602 0
M  V30 692 H 61.8462 1.49943 -2.87555 0
M  V30 693 H 61.6312 0.065292 -3.92046 0
M  V30 694 H 63.1212 1.04793 -4.04238 0
M  V30 695 N 63.5583 1.46682 -0.576371 0
M  V30 696 C 64.8353 1.95599 0.00703437 0
M  V30 697 C 65.2153 1.51904 1.46589 0
M  V30 698 O 64.5633 0.766755 2.15251 0
M  V30 699 C 64.7733 3.4864 -0.158404 0
M  V30 700 C 66.1213 4.24594 -0.0229439 0
M  V30 701 O 67.1453 3.56094 -0.0869173 0
M  V30 702 O 66.0043 5.46373 0.118015 0
M  V30 703 H 63.0983 0.825275 0.053384 0
M  V30 704 H 65.6443 1.56996 -0.644244 0
M  V30 705 H 64.4163 3.7331 -1.17282 0
M  V30 706 H 64.0393 3.94057 0.5296 0
M  V30 707 N 65.0364 0.313813 1.54444 0
M  V30 708 C 66.2834 -0.291675 2.00388 0
M  V30 709 C 66.6114 -1.52904 1.2021 0
M  V30 710 O 65.8664 -1.93833 0.269707 0
M  V30 711 C 66.1654 -0.680386 3.50864 0
M  V30 712 C 65.8314 0.456699 4.48581 0
M  V30 713 C 64.4934 0.768824 4.75018 0
M  V30 714 C 66.8454 1.22098 5.06697 0
M  V30 715 C 64.1734 1.84812 5.56831 0
M  V30 716 C 66.5254 2.29029 5.89685 0
M  V30 717 C 65.1894 2.60834 6.14428 0
M  V30 718 H 64.4594 -0.106732 0.733273 0
M  V30 719 H 67.1064 0.43557 1.86481 0
M  V30 720 H 65.4114 -1.48791 3.62448 0
M  V30 721 H 67.1084 -1.16026 3.83847 0
M  V30 722 H 63.6984 0.203337 4.28117 0
M  V30 723 H 67.8824 0.993096 4.86263 0
M  V30 724 H 63.1384 2.09912 5.74236 0
M  V30 725 H 67.3124 2.887 6.33739 0
M  V30 726 H 64.9394 3.44596 6.77612 0
M  V30 727 N 66.5145 -1.57545 0.0417849 0
M  V30 728 C 67.4445 -2.14009 -0.933929 0
M  V30 729 C 68.4255 -1.05938 -1.33083 0
M  V30 730 O 69.6105 -1.33833 -1.40721 0
M  V30 731 C 66.7405 -2.67747 -2.21199 0
M  V30 732 C 65.6945 -3.80718 -1.95544 0
M  V30 733 C 65.0205 -4.20935 -3.29724 0
M  V30 734 C 66.3205 -5.06258 -1.28452 0
M  V30 735 H 68.0145 -2.95788 -0.463645 0
M  V30 736 H 65.5605 -1.42285 -0.221573 0
M  V30 737 H 67.5135 -3.05886 -2.89848 0
M  V30 738 H 66.2375 -1.83147 -2.70416 0
M  V30 739 H 64.8965 -3.43037 -1.2931 0
M  V30 740 H 64.5445 -3.33298 -3.76724 0
M  V30 741 H 64.2445 -4.9707 -3.13361 0
M  V30 742 H 65.7685 -4.61666 -3.9962 0
M  V30 743 H 67.1825 -5.41903 -1.8712 0
M  V30 744 H 65.5795 -5.87475 -1.22445 0
M  V30 745 H 66.6495 -4.84207 -0.259219 0
M  V30 746 N 67.9926 0.231505 -1.5589 0
M  V30 747 C 69.2206 0.974505 -1.82513 0
M  V30 748 C 69.6356 1.78344 -0.619591 0
M  V30 749 O 68.9926 1.77792 0.411848 0
M  V30 750 C 69.0436 1.90007 -3.07538 0
M  V30 751 O 68.7646 1.12385 -4.2344 0
M  V30 752 C 70.2656 2.75779 -3.47075 0
M  V30 753 H 67.4856 0.286065 -0.606966 0
M  V30 754 H 70.0296 0.249739 -2.02969 0
M  V30 755 H 68.1846 2.57891 -2.89086 0
M  V30 756 H 68.5986 1.75125 -4.944 0
M  V30 757 H 70.0726 3.36443 -4.37619 0
M  V30 758 H 70.5496 3.47672 -2.68367 0
M  V30 759 H 71.1556 2.13323 -3.67931 0
M  V30 760 N 69.4707 1.49531 0.497807 0
M  V30 761 C 70.4177 1.66436 1.59899 0
M  V30 762 C 71.3877 0.505793 1.58212 0
M  V30 763 O 72.5727 0.733202 1.7615 0
M  V30 764 C 69.7127 1.7399 2.98029 0
M  V30 765 C 68.8257 3.01172 3.09708 0
M  V30 766 C 67.9607 2.99686 4.38591 0
M  V30 767 C 66.9997 4.21434 4.43914 0
M  V30 768 N 66.1367 4.1784 5.64229 0
M  V30 769 H 70.9767 2.60459 1.44793 0
M  V30 770 H 68.5137 1.29137 0.704423 0
M  V30 771 H 70.4717 1.76352 3.78095 0
M  V30 772 H 69.1017 0.834301 3.11832 0
M  V30 773 H 68.1537 3.08408 2.22685 0
M  V30 774 H 69.4657 3.91165 3.09502 0
M  V30 775 H 68.6197 3.00628 5.2698 0
M  V30 776 H 67.3587 2.07477 4.41367 0
M  V30 777 H 66.3637 4.20733 3.53926 0
M  V30 778 H 67.5887 5.14839 4.42851 0
M  V30 779 H 65.5347 3.28469 5.67841 0
M  V30 780 H 65.4517 5.01571 5.65652 0
M  V30 781 H 66.7197 4.22889 6.54817 0
M  V30 782 N 70.9488 -0.749086 1.3866 0
M  V30 783 C 71.8588 -1.89358 1.38494 0
M  V30 784 C 72.8748 -1.71708 0.281476 0
M  V30 785 O 74.0508 -1.94554 0.520643 0
M  V30 786 C 71.1158 -3.24782 1.21316 0
M  V30 787 C 70.1768 -3.54926 2.41508 0
M  V30 788 C 69.4098 -4.83888 2.2514 0
M  V30 789 O 69.6328 -5.56592 1.24746 0
M  V30 790 O 68.5668 -5.13612 3.13826 0
M  V30 791 H 72.3928 -1.92452 2.34938 0
M  V30 792 H 69.9778 -0.894981 1.19626 0
M  V30 793 H 71.8598 -4.05739 1.13814 0
M  V30 794 H 70.5348 -3.2249 0.279592 0
M  V30 795 H 69.4418 -2.74112 2.54585 0
M  V30 796 H 70.7748 -3.61983 3.3351 0
M  V30 797 N 72.4269 -1.23603 -0.977757 0
M  V30 798 C 73.6729 -1.07129 -1.72195 0
M  V30 799 C 74.0059 0.390501 -1.90233 0
M  V30 800 O 73.2809 1.28902 -1.45653 0
M  V30 801 C 73.5639 -1.80031 -3.11867 0
M  V30 802 C 73.4169 -3.33899 -3.01383 0
M  V30 803 C 74.7359 -1.56492 -4.11337 0
M  V30 804 H 71.8549 -0.390571 -0.624999 0
M  V30 805 H 74.4969 -1.52142 -1.13811 0
M  V30 806 H 72.6469 -1.41768 -3.6171 0
M  V30 807 H 74.3189 -3.81699 -2.59043 0
M  V30 808 H 72.5619 -3.62796 -2.37827 0
M  V30 809 H 73.2329 -3.801 -4.00285 0
M  V30 810 H 75.7089 -1.89757 -3.70313 0
M  V30 811 H 74.5849 -2.09973 -5.07151 0
M  V30 812 H 74.8459 -0.500874 -4.39254 0
M  V30 813 N 73.905 1.17692 -1.04816 0
M  V30 814 C 74.838 2.20436 -0.590173 0
M  V30 815 C 75.816 1.58115 0.379244 0
M  V30 816 O 77 1.86228 0.291762 0
M  V30 817 C 74.127 3.38424 0.136817 0
M  V30 818 C 73.173 4.19176 -0.787023 0
M  V30 819 S 74.006 4.84815 -2.27409 0
M  V30 820 C 75.162 6.06195 -1.55817 0
M  V30 821 H 75.395 2.58944 -1.46067 0
M  V30 822 H 72.928 1.28246 -0.859784 0
M  V30 823 H 74.886 4.06798 0.550076 0
M  V30 824 H 73.547 2.98312 0.983299 0
M  V30 825 H 72.74 5.03499 -0.224681 0
M  V30 826 H 72.342 3.56219 -1.13947 0
M  V30 827 H 74.634 6.72078 -0.855387 0
M  V30 828 H 75.577 6.6695 -2.37873 0
M  V30 829 H 75.985 5.54701 -1.04722 0
M  V30 830 N 75.3831 0.828654 1.34056 0
M  V30 831 C 76.6291 0.42008 1.98402 0
M  V30 832 C 76.9621 -1.01564 1.65525 0
M  V30 833 O 76.2371 -1.70834 0.929831 0
M  V30 834 C 76.5201 0.62927 3.54559 0
M  V30 835 C 76.3731 2.11152 3.97159 0
M  V30 836 C 77.6921 0.0688756 4.40046 0
M  V30 837 H 74.8111 0.154104 0.720709 0
M  V30 838 H 77.4531 1.04228 1.5886 0
M  V30 839 H 75.6031 0.0996418 3.88372 0
M  V30 840 H 77.2751 2.70522 3.73651 0
M  V30 841 H 75.5181 2.59985 3.47261 0
M  V30 842 H 76.1891 2.20868 5.05887 0
M  V30 843 H 78.6651 0.521458 4.1282 0
M  V30 844 H 77.5411 0.245006 5.48353 0
M  V30 845 H 77.8021 -1.0266 4.30015 0
M  V30 846 N 76.8612 -1.46375 0.584142 0
M  V30 847 C 78.1382 -1.956 0.0033388 0
M  V30 848 C 78.5182 -1.52679 -1.45782 0
M  V30 849 O 77.8662 -0.77816 -2.14842 0
M  V30 850 C 78.0762 -3.48551 0.176891 0
M  V30 851 C 79.4242 -4.24576 0.0454609 0
M  V30 852 O 80.4482 -3.56043 0.105801 0
M  V30 853 O 79.3072 -5.46427 -0.0890376 0
M  V30 854 H 76.4012 -0.825547 -0.0490066 0
M  V30 855 H 78.9472 -1.56652 0.65256 0
M  V30 856 H 77.7192 -3.72683 1.1926 0
M  V30 857 H 77.3422 -3.94332 -0.508695 0
M  V30 858 N 78.3393 -0.321999 -1.54275 0
M  V30 859 C 79.6163 0.335232 -1.92706 0
M  V30 860 C 79.9963 1.70006 -1.25145 0
M  V30 861 O 79.3443 2.25067 -0.394596 0
M  V30 862 C 79.5543 0.429008 -3.46353 0
M  V30 863 C 80.9023 0.690029 -4.18956 0
M  V30 864 O 81.9263 0.511992 -3.52501 0
M  V30 865 O 80.7853 1.03338 -5.36641 0
M  V30 866 H 77.8793 0.191143 -0.804608 0
M  V30 867 H 80.4253 -0.3716 -1.65581 0
M  V30 868 H 79.1973 -0.529611 -3.87699 0
M  V30 869 H 78.8203 1.18348 -3.79578 0
M  V30 870 N 79.8174 1.5752 -0.0501392 0
M  V30 871 C 81.2334 1.56631 0.306402 0
M  V30 872 C 81.4334 1.0577 1.71508 0
M  V30 873 O 80.4894 0.713837 2.422 0
M  V30 874 C 81.8024 3.00393 0.135811 0
M  V30 875 C 83.3504 3.12315 0.206993 0
M  V30 876 C 83.8254 4.57954 0.064944 0
M  V30 877 N 85.3164 4.63041 0.121254 0
M  V30 878 C 86.0514 5.73389 0.0354381 0
M  V30 879 N 85.5474 6.92724 -0.102666 0
M  V30 880 N 87.3404 5.62026 0.090946 0
M  V30 881 H 79.4914 1.88903 -0.971046 0
M  V30 882 H 81.7544 0.869876 -0.376855 0
M  V30 883 H 81.4604 3.41635 -0.835384 0
M  V30 884 H 81.3344 3.66373 0.897275 0
M  V30 885 H 83.7214 2.70973 1.16866 0
M  V30 886 H 83.8024 2.49016 -0.585208 0
M  V30 887 H 83.4464 4.99981 -0.893394 0
M  V30 888 H 83.3764 5.19258 0.876277 0
M  V30 889 H 85.8674 3.77216 0.227284 0
M  V30 890 H 86.1804 7.72633 -0.160882 0
M  V30 891 H 84.5254 6.94864 -0.137737 0
M  V30 892 H 87.7164 4.67684 0.197388 0
M  V30 893 H 87.8894 6.47997 0.0206089 0
M  V30 894 N 81.2955 -0.223234 1.56011 0
M  V30 895 C 82.2255 -1.27988 1.95298 0
M  V30 896 C 83.2065 -1.48976 0.820979 0
M  V30 897 O 84.3915 -1.61188 1.08315 0
M  V30 898 C 81.5215 -2.63 2.26822 0
M  V30 899 C 80.4755 -2.56671 3.42497 0
M  V30 900 C 79.8015 -3.95697 3.59622 0
M  V30 901 C 81.1015 -2.11601 4.77517 0
M  V30 902 H 82.7955 -0.953525 2.8381 0
M  V30 903 H 80.3415 -0.457244 1.36548 0
M  V30 904 H 82.2945 -3.37077 2.52898 0
M  V30 905 H 81.0185 -2.9732 1.35161 0
M  V30 906 H 79.6775 -1.85051 3.16467 0
M  V30 907 H 79.3255 -4.27322 2.6534 0
M  V30 908 H 79.0255 -3.92345 4.37424 0
M  V30 909 H 80.5495 -4.71438 3.88044 0
M  V30 910 H 81.9635 -2.7542 5.02809 0
M  V30 911 H 80.3605 -2.19311 5.5859 0
M  V30 912 H 81.4305 -1.06824 4.72987 0
M  V30 913 N 82.7736 -1.49793 -0.48987 0
M  V30 914 C 84.0196 -1.60078 -1.24511 0
M  V30 915 C 84.3526 -0.291608 -1.91998 0
M  V30 916 O 83.6276 0.705647 -1.81248 0
M  V30 917 C 83.9106 -2.76791 -2.30345 0
M  V30 918 C 83.7636 -4.17535 -1.67286 0
M  V30 919 C 85.0826 -2.89111 -3.31817 0
M  V30 920 H 82.2016 -0.582645 -0.451324 0
M  V30 921 H 84.8436 -1.82117 -0.541612 0
M  V30 922 H 82.9936 -2.5813 -2.90346 0
M  V30 923 H 84.6656 -4.4774 -1.11026 0
M  V30 924 H 82.9086 -4.22665 -0.976577 0
M  V30 925 H 83.5796 -4.95094 -2.44103 0
M  V30 926 H 86.0556 -3.06133 -2.81819 0
M  V30 927 H 84.9316 -3.72433 -4.03219 0
M  V30 928 H 85.1926 -1.9893 -3.94815 0
M  V30 929 N 84.2517 0.741722 -1.39055 0
M  V30 930 C 85.4797 1.53098 -1.39171 0
M  V30 931 C 85.8947 1.88794 0.0155099 0
M  V30 932 O 85.2517 1.53626 0.985159 0
M  V30 933 C 85.3027 2.82274 -2.2584 0
M  V30 934 O 85.0237 2.48097 -3.61081 0
M  V30 935 C 86.5247 3.76343 -2.34266 0
M  V30 936 H 83.7447 0.473335 -0.4756 0
M  V30 937 H 86.2887 0.917045 -1.82785 0
M  V30 938 H 84.4437 3.40015 -1.85656 0
M  V30 939 H 84.8577 3.31029 -4.06842 0
M  V30 940 H 86.3317 4.63898 -2.9917 0
M  V30 941 H 86.8087 4.17619 -1.35982 0
M  V30 942 H 87.4147 3.24523 -2.74891 0
M  V30 943 N 85.7298 1.2412 0.971189 0
M  V30 944 C 86.6628 0.97373 2.06382 0
M  V30 945 C 87.6408 -0.0912662 1.62344 0
M  V30 946 O 88.8248 0.0449365 1.88446 0
M  V30 947 C 85.9518 0.468746 3.35441 0
M  V30 948 C 84.9978 1.52176 3.98428 0
M  V30 949 S 85.8308 3.10203 4.36503 0
M  V30 950 C 86.9868 2.61398 5.68702 0
M  V30 951 H 87.2198 1.89893 2.28753 0
M  V30 952 H 84.7528 1.07466 1.10862 0
M  V30 953 H 86.7108 0.184012 4.10087 0
M  V30 954 H 85.3718 -0.435688 3.11064 0
M  V30 955 H 84.5648 1.11876 4.91426 0
M  V30 956 H 84.1668 1.75632 3.30196 0
M  V30 957 H 86.4588 2.03992 6.4606 0
M  V30 958 H 87.4018 3.52972 6.13854 0
M  V30 959 H 87.8098 2.01941 5.27143 0
M  V30 960 N 87.2079 -1.17134 1.05439 0
M  V30 961 C 88.1399 -2.2078 0.615539 0
M  V30 962 C 89.1529 -1.59584 -0.322001 0
M  V30 963 O 90.3419 -1.78133 -0.114344 0
M  V30 964 C 87.4419 -3.38691 -0.118938 0
M  V30 965 C 86.6149 -4.29454 0.829924 0
M  V30 966 C 85.6739 -5.26024 0.136258 0
M  V30 967 O 84.6999 -5.63952 0.77115 0
M  V30 968 N 85.9019 -5.69487 -1.1254 0
M  V30 969 H 88.6669 -2.59052 1.50705 0
M  V30 970 H 86.2279 -1.32058 0.936603 0
M  V30 971 H 88.2199 -4.00329 -0.593179 0
M  V30 972 H 86.7899 -2.98996 -0.91215 0
M  V30 973 H 86.0099 -3.65211 1.48373 0
M  V30 974 H 87.2979 -4.86984 1.47392 0
M  V30 975 H 86.6959 -5.4075 -1.6615 0
M  V30 976 H 85.2529 -6.33257 -1.54366 0
M  V30 977 N 88.686 -0.835752 -1.33615 0
M  V30 978 C 89.935 -0.426289 -1.97144 0
M  V30 979 C 90.248 1.01912 -1.66953 0
M  V30 980 O 91.454 1.53311 -2.24072 0
M  V30 981 C 89.91 -0.711321 -3.52801 0
M  V30 982 C 89.518 -2.1712 -3.91871 0
M  V30 983 C 91.262 -0.368654 -4.22896 0
M  V30 984 C 89.169 -2.40044 -5.40493 0
M  V30 985 H 88.099 -0.15567 -0.737755 0
M  V30 986 H 90.75 -1.0239 -1.52278 0
M  V30 987 H 89.132 -0.0433766 -3.95976 0
M  V30 988 H 90.306 -2.87936 -3.59763 0
M  V30 989 H 88.621 -2.47654 -3.34749 0
M  V30 990 H 91.218 -0.517601 -5.32189 0
M  V30 991 H 91.561 0.688078 -4.10574 0
M  V30 992 H 92.094 -0.991702 -3.8524 0
M  V30 993 H 88.833 -3.44271 -5.57815 0
M  V30 994 H 88.353 -1.73785 -5.74072 0
M  V30 995 H 90.032 -2.23042 -6.0734 0
M  V30 996 N 90.1641 1.46063 -0.591896 0
M  V30 997 C 91.4101 2.03203 -0.0894879 0
M  V30 998 C 91.7651 1.45407 1.25994 0
M  V30 999 O 91.0581 0.61326 1.8152 0
M  V30 1000 C 91.2521 3.57391 0.0249813 0
M  V30 1001 C 91.0811 4.30142 -1.3118 0
M  V30 1002 C 89.8511 4.68688 -1.88838 0
M  V30 1003 C 92.0491 4.63098 -2.23708 0
M  V30 1004 N 90.0311 5.26228 -3.1616 0
M  V30 1005 C 91.4021 5.21305 -3.3562 0
M  V30 1006 C 93.4571 4.45031 -2.23274 0
M  V30 1007 C 92.1601 5.63351 -4.47245 0
M  V30 1008 C 94.1861 4.881 -3.33935 0
M  V30 1009 C 93.5481 5.46386 -4.44569 0
M  V30 1010 H 89.6471 0.778323 -0.0757431 0
M  V30 1011 H 92.2311 1.78094 -0.78681 0
M  V30 1012 H 90.4021 3.82195 0.69149 0
M  V30 1013 H 92.1341 4.0118 0.532613 0
M  V30 1014 H 88.8891 4.5174 -1.42223 0
M  V30 1015 H 89.3131 5.59512 -3.8115 0
M  V30 1016 H 93.9551 3.99295 -1.39008 0
M  V30 1017 H 91.6731 6.08061 -5.32247 0
M  V30 1018 H 95.2591 4.75866 -3.34728 0
M  V30 1019 H 94.1391 5.79102 -5.28782 0
M  V30 1020 N 91.6422 0.330177 1.54103 0
M  V30 1021 C 92.9192 -0.325007 1.92881 0
M  V30 1022 C 93.2992 -1.6934 1.26045 0
M  V30 1023 O 92.6472 -2.24855 0.406526 0
M  V30 1024 C 92.8572 -0.410634 3.46576 0
M  V30 1025 C 94.2052 -0.667801 4.19316 0
M  V30 1026 O 95.2292 -0.49329 3.52768 0
M  V30 1027 O 94.0882 -1.00491 5.37181 0
M  V30 1028 H 91.1822 -0.186873 0.80561 0
M  V30 1029 H 93.7282 0.380376 1.65382 0
M  V30 1030 H 92.5002 0.550164 3.87413 0
M  V30 1031 H 92.1232 -1.16333 3.802 0
M  V30 1032 N 93.1203 -1.57491 0.0584922 0
M  V30 1033 C 94.3483 -1.97296 -0.623037 0
M  V30 1034 C 94.7633 -0.936338 -1.63946 0
M  V30 1035 O 94.1203 0.0785981 -1.82331 0
M  V30 1036 C 94.1713 -3.37183 -1.30345 0
M  V30 1037 O 93.8923 -4.36872 -0.32773 0
M  V30 1038 C 95.3933 -3.91788 -2.07406 0
M  V30 1039 H 92.6133 -0.649153 -0.169826 0
M  V30 1040 H 95.1573 -2.04106 0.12696 0
M  V30 1041 H 93.3123 -3.31502 -2.00463 0
M  V30 1042 H 93.7263 -5.18141 -0.814269 0
M  V30 1043 H 95.2003 -4.91926 -2.50425 0
M  V30 1044 H 95.6773 -3.27609 -2.92521 0
M  V30 1045 H 96.2833 -4.00829 -1.42184 0
M  V30 1046 N 94.5984 0.214957 -1.56127 0
M  V30 1047 C 95.5614 1.24997 -1.92116 0
M  V30 1048 C 96.5614 1.39467 -0.800344 0
M  V30 1049 O 97.7514 1.37619 -1.06802 0
M  V30 1050 C 94.8834 2.62271 -2.17777 0
M  V30 1051 H 96.0764 0.942875 -2.84693 0
M  V30 1052 H 93.6294 0.455654 -1.49511 0
M  V30 1053 H 94.3644 2.98068 -1.27773 0
M  V30 1054 H 94.1494 2.53143 -2.99434 0
M  V30 1055 H 95.6394 3.36946 -2.46693 0
M  V30 1056 N 96.0765 1.50051 0.48192 0
M  V30 1057 C 97.3245 1.60181 1.23234 0
M  V30 1058 C 97.6455 0.299176 1.92691 0
M  V30 1059 O 96.9155 -0.682708 1.83619 0
M  V30 1060 H 95.4955 0.590232 0.457859 0
M  V30 1061 H 98.1575 1.86775 0.556881 0
M  V30 1062 H 97.2535 2.40753 1.98607 0
M  V30 1063 N 97.5546 -0.734337 1.39446 0
M  V30 1064 C 98.4866 -1.85861 1.34121 0
M  V30 1065 C 99.4996 -1.60871 0.249864 0
M  V30 1066 O 100.689 -1.71093 0.508865 0
M  V30 1067 C 97.7886 -3.21899 1.05991 0
M  V30 1068 C 96.9616 -3.74239 2.26415 0
M  V30 1069 C 96.0206 -4.88841 1.94733 0
M  V30 1070 O 95.0466 -5.02468 2.67422 0
M  V30 1071 N 96.2486 -5.73261 0.913884 0
M  V30 1072 H 99.0136 -1.90934 2.31007 0
M  V30 1073 H 96.5746 -0.915102 1.33557 0
M  V30 1074 H 98.5666 -3.96136 0.828147 0
M  V30 1075 H 97.1366 -3.12091 0.178361 0
M  V30 1076 H 96.3566 -2.91347 2.65539 0
M  V30 1077 H 97.6446 -4.05942 3.06738 0
M  V30 1078 H 97.0426 -5.64842 0.311476 0
M  V30 1079 H 95.5996 -6.47563 0.742015 0
M  V30 1080 N 99.0327 -1.24633 -0.964593 0
M  V30 1081 C 99.9427 -1.05859 -2.09359 0
M  V30 1082 C 100.959 0.00148855 -1.74 0
M  V30 1083 O 102.135 -0.197346 -2.00431 0
M  V30 1084 C 99.1997 -0.668879 -3.40187 0
M  V30 1085 C 98.2607 -1.80578 -3.89474 0
M  V30 1086 C 97.4937 -1.43457 -5.14058 0
M  V30 1087 O 97.7167 -0.325775 -5.69469 0
M  V30 1088 O 96.6507 -2.2613 -5.57807 0
M  V30 1089 H 100.477 -2.00516 -2.28094 0
M  V30 1090 H 98.0617 -1.03481 -1.0776 0
M  V30 1091 H 99.9437 -0.463211 -4.18846 0
M  V30 1092 H 98.6187 0.248536 -3.22744 0
M  V30 1093 H 97.5257 -2.06623 -3.11862 0
M  V30 1094 H 98.8587 -2.70208 -4.11398 0
M  V30 1095 N 100.511 1.16574 -1.06058 0
M  V30 1096 C 101.927 1.3904 -0.783585 0
M  V30 1097 C 102.127 1.91784 0.618145 0
M  V30 1098 O 101.183 2.11511 1.37911 0
M  V30 1099 C 102.496 2.37329 -1.84649 0
M  V30 1100 C 104.044 2.51018 -1.86973 0
M  V30 1101 C 104.519 3.52588 -2.92311 0
M  V30 1102 N 106.01 3.60113 -2.91329 0
M  V30 1103 C 106.745 4.38486 -3.69482 0
M  V30 1104 N 106.241 5.20302 -4.57447 0
M  V30 1105 N 108.034 4.33446 -3.57885 0
M  V30 1106 H 100.185 0.806725 -1.96483 0
M  V30 1107 H 102.448 0.417117 -0.851303 0
M  V30 1108 H 102.154 2.05663 -2.85299 0
M  V30 1109 H 102.028 3.36946 -1.6955 0
M  V30 1110 H 104.415 2.81989 -0.869827 0
M  V30 1111 H 104.496 1.51445 -2.0615 0
M  V30 1112 H 104.14 3.22354 -3.92492 0
M  V30 1113 H 104.07 4.51886 -2.70383 0
M  V30 1114 H 106.561 3.01707 -2.27555 0
M  V30 1115 H 106.874 5.77311 -5.13743 0
M  V30 1116 H 105.219 5.19653 -4.61503 0
M  V30 1117 H 108.41 3.68586 -2.88551 0
M  V30 1118 H 108.583 4.94279 -4.19037 0
M  V30 1119 N 101.989 0.842826 1.3317 0
M  V30 1120 C 103.236 0.440447 1.97652 0
M  V30 1121 C 103.564 -1.00123 1.6675 0
M  V30 1122 O 102.819 -1.7155 0.941761 0
M  V30 1123 C 103.118 0.612607 3.52111 0
M  V30 1124 C 102.784 2.02297 4.02972 0
M  V30 1125 C 101.446 2.40874 4.16573 0
M  V30 1126 C 103.798 2.94402 4.30089 0
M  V30 1127 C 101.126 3.70852 4.54627 0
M  V30 1128 C 103.478 4.23865 4.69597 0
M  V30 1129 C 102.142 4.62392 4.81404 0
M  V30 1130 H 101.412 0.161171 0.72326 0
M  V30 1131 H 104.059 1.07061 1.58777 0
M  V30 1132 H 102.364 -0.100849 3.9167 0
M  V30 1133 H 104.061 0.2815 4.00011 0
M  V30 1134 H 100.651 1.71338 3.92863 0
M  V30 1135 H 104.835 2.65835 4.19101 0
M  V30 1136 H 100.091 4.00501 4.61962 0
M  V30 1137 H 104.265 4.95306 4.89536 0
M  V30 1138 H 101.892 5.63154 5.10648 0
M  V30 1139 N 103.467 -1.45747 0.599634 0
M  V30 1140 C 104.399 -2.28628 -0.161879 0
M  V30 1141 C 105.412 -1.39494 -0.839367 0
M  V30 1142 O 106.601 -1.63941 -0.706089 0
M  V30 1143 C 103.701 -3.15014 -1.24976 0
M  V30 1144 C 102.874 -4.32378 -0.660935 0
M  V30 1145 C 101.933 -5.00033 -1.63869 0
M  V30 1146 O 100.959 -5.57085 -1.1681 0
M  V30 1147 N 102.161 -4.98589 -2.97303 0
M  V30 1148 H 104.926 -2.94624 0.549265 0
M  V30 1149 H 102.487 -1.55847 0.438565 0
M  V30 1150 H 104.479 -3.5714 -1.9035 0
M  V30 1151 H 103.049 -2.5098 -1.86354 0
M  V30 1152 H 102.269 -3.9383 0.170688 0
M  V30 1153 H 103.557 -5.08197 -0.247619 0
M  V30 1154 H 102.955 -4.53514 -3.38145 0
M  V30 1155 H 101.512 -5.44603 -3.58121 0
M  V30 1156 N 104.945 -0.338344 -1.53925 0
M  V30 1157 C 106.17 0.263987 -2.05713 0
M  V30 1158 C 106.595 1.43847 -1.21201 0
M  V30 1159 O 105.953 1.79904 -0.224535 0
M  V30 1160 C 106.001 0.662 -3.54471 0
M  V30 1161 O 105.105 1.76265 -3.72833 0
M  V30 1162 H 104.446 0.0448722 -0.662482 0
M  V30 1163 H 106.976 -0.491048 -1.9862 0
M  V30 1164 H 106.986 0.940594 -3.9701 0
M  V30 1165 H 105.661 -0.196937 -4.15433 0
M  V30 1166 H 104.238 1.48173 -3.42198 0
M  V30 1167 N 106.423 1.57458 -0.0668435 0
M  V30 1168 C 107.353 2.15468 0.899764 0
M  V30 1169 C 108.334 1.08042 1.31381 0
M  V30 1170 O 109.519 1.36054 1.38574 0
M  V30 1171 C 106.649 2.71232 2.16911 0
M  V30 1172 C 105.603 3.83781 1.89463 0
M  V30 1173 C 104.929 4.26127 3.22986 0
M  V30 1174 C 106.229 5.08238 1.20381 0
M  V30 1175 H 107.923 2.96488 0.416529 0
M  V30 1176 H 105.469 1.4262 0.198908 0
M  V30 1177 H 107.422 3.10458 2.84945 0
M  V30 1178 H 106.146 1.87426 2.67468 0
M  V30 1179 H 104.805 3.45051 1.23836 0
M  V30 1180 H 104.453 3.39249 3.71374 0
M  V30 1181 H 104.153 5.01993 3.05413 0
M  V30 1182 H 105.677 4.67966 3.92225 0
M  V30 1183 H 107.091 5.44811 1.78475 0
M  V30 1184 H 105.488 5.89349 1.13083 0
M  V30 1185 H 106.558 4.84558 0.182153 0
M  V30 1186 N 107.901 -0.206675 1.56239 0
M  V30 1187 C 109.149 -0.927007 1.79586 0
M  V30 1188 C 109.47 -1.8427 0.637929 0
M  V30 1189 O 108.74 -1.92849 -0.344398 0
M  V30 1190 H 107.32 -0.345292 0.662407 0
M  V30 1191 H 109.982 -0.21496 1.93711 0
M  V30 1192 H 109.078 -1.52501 2.72305 0
M  V30 1193 N 109.379 -1.50304 -0.473955 0
M  V30 1194 C 110.625 -1.61389 -1.22806 0
M  V30 1195 C 110.958 -0.311955 -1.91678 0
M  V30 1196 O 110.233 0.686384 -1.81986 0
M  V30 1197 C 110.516 -2.79219 -2.27396 0
M  V30 1198 C 110.369 -4.19286 -1.62848 0
M  V30 1199 C 111.688 -2.92614 -3.28732 0
M  V30 1200 H 108.807 -0.587399 -0.445119 0
M  V30 1201 H 111.449 -1.82681 -0.522265 0
M  V30 1202 H 109.599 -2.61195 -2.87592 0
M  V30 1203 H 111.271 -4.48892 -1.06271 0
M  V30 1204 H 109.514 -4.23677 -0.931693 0
M  V30 1205 H 110.185 -4.97655 -2.38838 0
M  V30 1206 H 112.661 -3.09105 -2.78556 0
M  V30 1207 H 111.537 -3.76688 -3.99246 0
M  V30 1208 H 111.798 -2.03107 -3.92683 0
M  V30 1209 N 110.857 0.726932 -1.39834 0
M  V30 1210 C 111.82 1.82269 -1.38962 0
M  V30 1211 C 112.82 1.58248 -0.285334 0
M  V30 1212 O 114.01 1.65499 -0.54366 0
M  V30 1213 C 111.142 3.20186 -1.17019 0
M  V30 1214 H 112.335 1.84443 -2.36476 0
M  V30 1215 H 109.888 0.931416 -1.25516 0
M  V30 1216 H 110.623 3.23669 -0.202204 0
M  V30 1217 H 110.408 3.3902 -1.96998 0
M  V30 1218 H 111.898 4.00235 -1.1917 0
M  V30 1219 N 112.336 1.25143 0.95797 0
M  V30 1220 C 113.583 1.09692 1.70217 0
M  V30 1221 C 113.911 -0.362654 1.91089 0
M  V30 1222 O 113.166 -1.28386 1.47701 0
M  V30 1223 C 113.465 1.79272 3.09187 0
M  V30 1224 C 113.131 3.29196 3.08125 0
M  V30 1225 C 111.793 3.70096 3.07543 0
M  V30 1226 C 114.145 4.24995 3.0171 0
M  V30 1227 C 111.473 5.05213 2.9829 0
M  V30 1228 C 113.825 5.60132 2.93999 0
M  V30 1229 C 112.489 6.00365 2.9175 0
M  V30 1230 H 111.759 0.401393 0.622868 0
M  V30 1231 H 114.406 1.55372 1.11945 0
M  V30 1232 H 112.711 1.26014 3.70982 0
M  V30 1233 H 114.408 1.64773 3.65583 0
M  V30 1234 H 110.998 2.96651 3.09348 0
M  V30 1235 H 115.182 3.9439 3.01281 0
M  V30 1236 H 110.438 5.35569 2.94916 0
M  V30 1237 H 114.612 6.3406 2.87996 0
M  V30 1238 H 112.239 7.05023 2.84336 0
M  V30 1239 N 113.814 -1.1601 1.06675 0
M  V30 1240 C 115.044 -1.90251 0.805497 0
M  V30 1241 C 115.452 -1.77891 -0.64431 0
M  V30 1242 O 114.795 -1.12383 -1.45313 0
M  V30 1243 C 114.857 -3.41419 1.12576 0
M  V30 1244 C 114.521 -3.77564 2.57477 0
M  V30 1245 C 115.518 -3.79161 3.55715 0
M  V30 1246 C 113.203 -4.08079 2.92877 0
M  V30 1247 C 115.197 -4.10767 4.8739 0
M  V30 1248 C 112.884 -4.39351 4.24751 0
M  V30 1249 C 113.882 -4.40675 5.21818 0
M  V30 1250 O 113.57 -4.71202 6.51325 0
M  V30 1251 H 113.302 -0.610018 0.291297 0
M  V30 1252 H 115.856 -1.47958 1.4247 0
M  V30 1253 H 114.086 -3.84079 0.449503 0
M  V30 1254 H 115.775 -3.9694 0.84814 0
M  V30 1255 H 116.541 -3.55693 3.29708 0
M  V30 1256 H 112.42 -4.06211 2.17976 0
M  V30 1257 H 115.964 -4.11715 5.63148 0
M  V30 1258 H 111.861 -4.62285 4.50514 0
M  V30 1259 H 112.629 -4.88996 6.56373 0
M  V30 1260 N 115.292 -0.849877 -1.32721 0
M  V30 1261 C 116.708 -0.539102 -1.50219 0
M  V30 1262 C 116.908 0.931271 -1.78689 0
M  V30 1263 O 115.964 1.71455 -1.85363 0
M  V30 1264 C 117.277 -1.42196 -2.64954 0
M  V30 1265 C 118.825 -1.42189 -2.78839 0
M  V30 1266 C 119.3 -2.28985 -3.96648 0
M  V30 1267 N 120.791 -2.26754 -4.03902 0
M  V30 1268 C 121.526 -2.90644 -4.94281 0
M  V30 1269 N 121.022 -3.63629 -5.897 0
M  V30 1270 N 122.815 -2.80057 -4.87365 0
M  V30 1271 H 114.966 -1.80156 -1.12506 0
M  V30 1272 H 117.229 -0.769217 -0.554085 0
M  V30 1273 H 116.935 -2.46733 -2.50631 0
M  V30 1274 H 116.809 -1.10591 -3.60624 0
M  V30 1275 H 119.196 -0.38419 -2.92588 0
M  V30 1276 H 119.277 -1.77807 -1.83898 0
M  V30 1277 H 118.921 -3.32819 -3.83658 0
M  V30 1278 H 118.851 -1.90702 -4.90857 0
M  V30 1279 H 121.342 -1.73688 -3.3562 0
M  V30 1280 H 121.655 -4.09558 -6.55349 0
M  V30 1281 H 120 -3.67737 -5.89741 0
M  V30 1282 H 123.191 -2.22593 -4.11789 0
M  V30 1283 H 123.364 -3.30132 -5.57599 0
M  V30 1284 N 116.77 1.45427 -0.607355 0
M  V30 1285 C 118.018 2.01841 -0.102253 0
M  V30 1286 C 118.339 1.47832 1.27164 0
M  V30 1287 O 117.609 0.672497 1.83995 0
M  V30 1288 H 116.189 0.746188 -0.0348101 0
M  V30 1289 H 118.851 1.78229 -0.7887 0
M  V30 1290 H 117.947 3.12057 -0.0518585 0
M  V30 1291 N 118.248 0.346503 1.53744 0
M  V30 1292 C 119.211 -0.496439 2.23759 0
M  V30 1293 C 120.211 -1.0252 1.2388 0
M  V30 1294 O 121.401 -0.913974 1.48297 0
M  V30 1295 C 118.533 -1.69187 2.95954 0
M  V30 1296 H 119.726 0.115952 2.99676 0
M  V30 1297 H 117.279 0.0978939 1.55993 0
M  V30 1298 H 118.014 -2.34288 2.24231 0
M  V30 1299 H 117.799 -1.31989 3.69217 0
M  V30 1300 H 119.289 -2.28969 3.49232 0
M  V30 1301 N 119.726 -1.57421 0.075193 0
M  V30 1302 C 121.003 -1.85029 -0.634329 0
M  V30 1303 C 121.383 -0.968305 -1.87582 0
M  V30 1304 O 120.731 -0.0354749 -2.28472 0
M  V30 1305 C 120.941 -3.35286 -0.968742 0
M  V30 1306 C 122.289 -4.02875 -1.34077 0
M  V30 1307 O 123.313 -3.40051 -1.06037 0
M  V30 1308 O 122.172 -5.13691 -1.86506 0
M  V30 1309 H 119.266 -0.7645 -0.315387 0
M  V30 1310 H 121.812 -1.69366 0.106382 0
M  V30 1311 H 120.584 -3.91203 -0.0871376 0
M  V30 1312 H 120.207 -3.56223 -1.7661 0
M  V30 1313 N 121.204 0.198386 -1.56346 0
M  V30 1314 C 122.444 0.92609 -1.82217 0
M  V30 1315 C 122.808 1.80584 -0.652195 0
M  V30 1316 O 124.009 2.56907 -0.790716 0
M  V30 1317 C 122.28 1.72354 -3.13096 0
M  V30 1318 S 123.839 2.50371 -3.6036 0
M  V30 1319 H 120.657 0.310677 -0.639532 0
M  V30 1320 H 123.259 0.189755 -1.94577 0
M  V30 1321 H 121.963 1.0678 -3.96265 0
M  V30 1322 H 121.494 2.50175 -3.03605 0
M  V30 1323 H 123.509 3.74488 -3.25535 0
M  V30 1324 N 122.682 1.50554 0.465978 0
M  V30 1325 C 123.922 1.63439 1.22747 0
M  V30 1326 C 124.286 0.329822 1.89146 0
M  V30 1327 O 125.487 0.334161 2.66715 0
M  V30 1328 C 123.758 2.78542 2.2394 0
M  V30 1329 S 125.317 3.11591 3.0896 0
M  V30 1330 H 122.135 0.576113 0.416672 0
M  V30 1331 H 124.737 1.88357 0.523641 0
M  V30 1332 H 123.441 3.71805 1.7375 0
M  V30 1333 H 122.972 2.55726 2.98944 0
M  V30 1334 H 124.987 2.55811 4.25176 0
M  V30 1335 N 124.16 -0.719506 1.40217 0
M  V30 1336 C 125.406 -1.48152 1.38488 0
M  V30 1337 C 125.739 -1.94195 -0.0141867 0
M  V30 1338 O 125.014 -1.67884 -0.982096 0
M  V30 1339 C 125.297 -2.71035 2.37091 0
M  V30 1340 C 125.15 -2.30912 3.86005 0
M  V30 1341 C 126.469 -3.73182 2.33288 0
M  V30 1342 H 123.588 -0.537395 0.504357 0
M  V30 1343 H 126.23 -0.821472 1.71324 0
M  V30 1344 H 124.38 -3.27352 2.0922 0
M  V30 1345 H 126.052 -1.80107 4.24687 0
M  V30 1346 H 124.295 -1.62958 4.02029 0
M  V30 1347 H 124.966 -3.18978 4.50508 0
M  V30 1348 H 127.442 -3.26485 2.57966 0
M  V30 1349 H 126.318 -4.56806 3.04334 0
M  V30 1350 H 126.579 -4.21202 1.34317 0
M  V30 1351 N 125.638 -1.25649 -0.95132 0
M  V30 1352 C 126.568 -1.08808 -2.06599 0
M  V30 1353 C 127.549 0.00382547 -1.701 0
M  V30 1354 O 128.734 -0.166325 -1.93486 0
M  V30 1355 C 125.864 -0.709542 -3.39975 0
M  V30 1356 C 124.818 -1.75206 -3.90496 0
M  V30 1357 C 124.144 -1.22811 -5.20405 0
M  V30 1358 C 125.444 -3.15153 -4.16504 0
M  V30 1359 H 127.138 -2.02048 -2.20946 0
M  V30 1360 H 124.684 -0.972835 -1.06169 0
M  V30 1361 H 126.637 -0.578649 -4.17408 0
M  V30 1362 H 125.361 0.258556 -3.25575 0
M  V30 1363 H 124.02 -1.87145 -3.15234 0
M  V30 1364 H 123.668 -0.250145 -5.02378 0
M  V30 1365 H 123.368 -1.92492 -5.55176 0
M  V30 1366 H 124.892 -1.10968 -6.00432 0
M  V30 1367 H 126.306 -3.06349 -4.84586 0
M  V30 1368 H 124.703 -3.82333 -4.62538 0
M  V30 1369 H 125.773 -3.61966 -3.22658 0
M  V30 1370 N 127.117 1.15442 -1.07289 0
M  V30 1371 C 128.363 1.86489 -0.796846 0
M  V30 1372 C 128.696 1.82078 0.675371 0
M  V30 1373 O 127.971 1.24346 1.4956 0
M  V30 1374 C 128.254 3.35626 -1.30489 0
M  V30 1375 C 128.107 3.48673 -2.84161 0
M  V30 1376 C 129.426 4.30357 -0.920907 0
M  V30 1377 H 126.545 0.677144 -0.290939 0
M  V30 1378 H 129.187 1.35633 -1.33056 0
M  V30 1379 H 127.337 3.79068 -0.850883 0
M  V30 1380 H 129.009 3.14099 -3.37846 0
M  V30 1381 H 127.252 2.90253 -3.22391 0
M  V30 1382 H 127.923 4.53453 -3.14777 0
M  V30 1383 H 130.399 3.94871 -1.3121 0
M  V30 1384 H 129.275 5.33193 -1.30372 0
M  V30 1385 H 129.536 4.4176 0.173226 0
M  V30 1386 N 128.595 0.856903 1.32268 0
M  V30 1387 C 129.842 0.461386 1.97174 0
M  V30 1388 C 130.17 -0.983491 1.67803 0
M  V30 1389 O 129.425 -1.70541 0.959903 0
M  V30 1390 C 129.724 0.649919 3.51441 0
M  V30 1391 C 129.39 2.0656 4.00804 0
M  V30 1392 C 128.052 2.45279 4.13995 0
M  V30 1393 C 130.404 2.98947 4.26943 0
M  V30 1394 C 127.732 3.75653 4.50668 0
M  V30 1395 C 130.084 4.28822 4.65075 0
M  V30 1396 C 128.748 4.67472 4.76472 0
M  V30 1397 H 128.018 0.168833 0.72151 0
M  V30 1398 H 130.665 1.08739 1.57633 0
M  V30 1399 H 128.97 -0.0593018 3.91755 0
M  V30 1400 H 130.667 0.32391 3.9969 0
M  V30 1401 H 127.257 1.75495 3.91024 0
M  V30 1402 H 131.441 2.70265 4.16258 0
M  V30 1403 H 126.697 4.05379 4.57688 0
M  V30 1404 H 130.871 5.0047 4.84255 0
M  V30 1405 H 128.498 5.68539 5.04646 0
M  V30 1406 N 130.073 -1.45103 0.615059 0
M  V30 1407 C 131.35 -1.95549 0.0448276 0
M  V30 1408 C 131.73 -1.55737 -1.4251 0
M  V30 1409 O 131.078 -0.823556 -2.13143 0
M  V30 1410 C 131.288 -3.48098 0.250785 0
M  V30 1411 C 132.636 -4.24384 0.135509 0
M  V30 1412 O 133.66 -3.55738 0.181299 0
M  V30 1413 O 132.519 -5.46493 0.0268878 0
M  V30 1414 H 129.613 -0.8264 -0.0314845 0
M  V30 1415 H 132.159 -1.55232 0.685642 0
M  V30 1416 H 130.931 -3.7007 1.27139 0
M  V30 1417 H 130.554 -3.95323 -0.424937 0
M  V30 1418 N 131.551 -0.354651 -1.53558 0
M  V30 1419 C 132.797 0.238797 -2.01389 0
M  V30 1420 C 133.13 1.49309 -1.2418 0
M  V30 1421 O 132.405 1.91638 -0.332457 0
M  V30 1422 C 132.688 0.541771 -3.56001 0
M  V30 1423 C 132.541 -0.725388 -4.43912 0
M  V30 1424 C 133.86 1.34685 -4.18984 0
M  V30 1425 H 130.979 0.0853177 -0.732045 0
M  V30 1426 H 133.621 -0.477384 -1.83905 0
M  V30 1427 H 131.771 1.15189 -3.71031 0
M  V30 1428 H 133.443 -1.36313 -4.407 0
M  V30 1429 H 131.686 -1.34801 -4.12324 0
M  V30 1430 H 132.357 -0.468505 -5.50008 0
M  V30 1431 H 134.833 0.830837 -4.07721 0
M  V30 1432 H 133.709 1.52759 -5.27215 0
M  V30 1433 H 133.97 2.35221 -3.74331 0
M  V30 1434 N 133.029 1.57378 -0.0835403 0
M  V30 1435 C 134.257 1.98263 0.59157 0
M  V30 1436 C 134.672 0.962302 1.62435 0
M  V30 1437 O 134.029 -0.049581 1.82433 0
M  V30 1438 C 134.08 3.39214 1.24965 0
M  V30 1439 O 133.801 4.37339 0.258186 0
M  V30 1440 C 135.302 3.95038 2.01147 0
M  V30 1441 H 132.522 0.651773 0.159477 0
M  V30 1442 H 135.066 2.03878 -0.159415 0
M  V30 1443 H 133.221 3.34649 1.95164 0
M  V30 1444 H 133.635 5.19371 0.731734 0
M  V30 1445 H 135.109 4.95848 2.42567 0
M  V30 1446 H 135.586 3.32222 2.87272 0
M  V30 1447 H 136.192 4.0304 1.35789 0
M  V30 1448 N 134.507 -0.190092 1.56449 0
M  V30 1449 C 135.47 -1.21925 1.9408 0
M  V30 1450 C 136.47 -1.38176 0.822431 0
M  V30 1451 O 137.66 -1.35903 1.08977 0
M  V30 1452 C 134.792 -2.58773 2.21922 0
M  V30 1453 H 135.985 -0.897464 2.86157 0
M  V30 1454 H 133.538 -0.43181 1.50217 0
M  V30 1455 H 134.273 -2.95998 1.32499 0
M  V30 1456 H 134.058 -2.48348 3.03424 0
M  V30 1457 H 135.548 -3.32978 2.52022 0
M  V30 1458 N 135.985 -1.50799 -0.457987 0
M  V30 1459 C 137.396 -1.55152 -1.0385 0
M  V30 1460 C 137.747 -0.362719 -1.92818 0
M  V30 1461 O 136.872 0.522915 -2.09987 0
M  V30 1462 C 137.467 -2.81173 -1.89017 0
M  V30 1463 C 136.026 -2.88164 -2.42154 0
M  V30 1464 C 135.173 -2.49591 -1.20829 0
M  V30 1465 H 138.124 -1.56874 -0.240068 0
M  V30 1466 H 138.145 -2.63769 -2.74238 0
M  V30 1467 H 137.657 -3.67677 -1.24238 0
M  V30 1468 H 135.758 -2.06042 -3.10447 0
M  V30 1469 H 135.871 -3.91356 -2.76364 0
M  V30 1470 H 134.235 -2.02322 -1.54719 0
M  V30 1471 H 135.018 -3.38418 -0.576927 0
M  V30 1472 N 137.463 0.71206 -1.40597 0
M  V30 1473 C 138.411 1.84746 -1.41321 0
M  V30 1474 C 139.405 1.66842 -0.293268 0
M  V30 1475 O 140.611 1.73904 -0.464481 0
M  V30 1476 H 136.986 0.608522 -0.441819 0
M  V30 1477 H 138.957 1.81252 -2.37045 0
M  V30 1478 C 137.706 3.22638 -1.29614 0
M  V30 1479 H 137.029 3.37023 -2.15071 0
M  V30 1480 H 138.469 4.02209 -1.3418 0
M  V30 1481 C 136.928 3.36899 -0.00673121 0
M  V30 1482 O 137.458 3.90186 0.954859 0
M  V30 1483 N 135.664 2.9053 0.0639327 0
M  V30 1484 H 135.211 2.47353 -0.719311 0
M  V30 1485 H 135.169 3.0045 0.926118 0
M  V30 1486 N 138.941 1.26152 0.944643 0
M  V30 1487 C 140.169 1.14259 1.72489 0
M  V30 1488 C 140.584 -0.302555 1.8636 0
M  V30 1489 O 139.941 -1.20741 1.36849 0
M  V30 1490 C 139.992 1.80266 3.13347 0
M  V30 1491 O 139.713 3.19133 3.00143 0
M  V30 1492 C 141.214 1.74283 4.07603 0
M  V30 1493 H 138.434 0.398051 0.540181 0
M  V30 1494 H 140.978 1.66706 1.18446 0
M  V30 1495 H 139.133 1.31766 3.64303 0
M  V30 1496 H 139.547 3.51744 3.89071 0
M  V30 1497 H 141.021 2.25111 5.04013 0
M  V30 1498 H 141.498 0.708631 4.33446 0
M  V30 1499 H 142.104 2.22319 3.62567 0
M  V30 1500 N 140.419 -1.14872 1.07899 0
M  V30 1501 C 141.666 -1.85789 0.805532 0
M  V30 1502 C 141.994 -1.82649 -0.668561 0
M  V30 1503 O 141.249 -1.24858 -1.50695 0
M  V30 1504 C 141.548 -3.34223 1.26609 0
M  V30 1505 C 141.214 -3.57555 2.74709 0
M  V30 1506 C 139.876 -3.63631 3.1516 0
M  V30 1507 C 142.228 -3.66803 3.70277 0
M  V30 1508 C 139.556 -3.76473 4.49983 0
M  V30 1509 C 141.908 -3.8117 5.04869 0
M  V30 1510 C 140.572 -3.85494 5.44932 0
M  V30 1511 H 139.842 -0.679849 0.294765 0
M  V30 1512 H 142.489 -1.3572 1.35101 0
M  V30 1513 H 140.794 -3.86536 0.640103 0
M  V30 1514 H 142.491 -3.87511 1.03132 0
M  V30 1515 H 139.081 -3.5347 2.42398 0
M  V30 1516 H 143.265 -3.61404 3.40149 0
M  V30 1517 H 138.521 -3.7808 4.80484 0
M  V30 1518 H 142.695 -3.87268 5.78789 0
M  V30 1519 H 140.322 -3.95197 6.49403 0
M  V30 1520 N 141.898 -0.863906 -1.31812 0
M  V30 1521 C 142.845 -0.313303 -2.28664 0
M  V30 1522 C 143.815 0.584868 -1.55462 0
M  V30 1523 O 145 0.517805 -1.83639 0
M  V30 1524 C 142.14 0.48441 -3.41683 0
M  V30 1525 C 141.253 -0.440594 -4.29747 0
M  V30 1526 C 140.388 0.370652 -5.29905 0
M  V30 1527 C 139.427 -0.551164 -6.09613 0
M  V30 1528 N 138.564 0.223462 -7.01744 0
M  V30 1529 H 143.404 -1.14444 -2.75148 0
M  V30 1530 H 140.941 -0.575769 -1.35364 0
M  V30 1531 H 142.899 0.962627 -4.05943 0
M  V30 1532 H 141.529 1.28029 -2.96325 0
M  V30 1533 H 140.581 -1.03724 -3.65986 0
M  V30 1534 H 141.893 -1.14767 -4.85417 0
M  V30 1535 H 141.047 0.911638 -5.99812 0
M  V30 1536 H 139.786 1.11105 -4.74876 0
M  V30 1537 H 138.791 -1.10396 -5.38603 0
M  V30 1538 H 140.016 -1.29032 -6.66729 0
M  V30 1539 H 137.962 0.946787 -6.49132 0
M  V30 1540 H 137.879 -0.424399 -7.54808 0
M  V30 1541 H 139.147 0.745876 -7.75923 0
M  V30 1542 N 143.376 1.44774 -0.622745 0
M  V30 1543 C 144.604 2.06487 -0.130722 0
M  V30 1544 C 145.019 1.46476 1.19123 0
M  V30 1545 O 144.376 0.584502 1.72887 0
M  V30 1546 C 144.427 3.615 -0.000807207 0
M  V30 1547 O 144.148 4.19274 -1.27048 0
M  V30 1548 C 145.649 4.40229 0.520898 0
M  V30 1549 H 142.869 0.666704 -0.0758106 0
M  V30 1550 H 145.413 1.85779 -0.854774 0
M  V30 1551 H 143.568 3.81498 0.673643 0
M  V30 1552 H 143.982 5.12622 -1.1099 0
M  V30 1553 H 145.456 5.49144 0.560838 0
M  V30 1554 H 145.933 4.1108 1.54627 0
M  V30 1555 H 146.539 4.25131 -0.120018 0
M  V30 1556 N 144.854 0.36279 1.53368 0
M  V30 1557 C 145.784 -0.476976 2.28576 0
M  V30 1558 C 146.765 -1.08631 1.30894 0
M  V30 1559 O 147.95 -1.10409 1.59761 0
M  V30 1560 C 145.08 -1.61828 3.07293 0
M  V30 1561 C 144.034 -1.13633 4.1264 0
M  V30 1562 C 143.36 -2.36766 4.79423 0
M  V30 1563 C 144.66 -0.223061 5.21823 0
M  V30 1564 H 146.354 0.150474 2.99022 0
M  V30 1565 H 143.9 0.0738103 1.43811 0
M  V30 1566 H 145.853 -2.21237 3.58653 0
M  V30 1567 H 144.577 -2.27292 2.34533 0
M  V30 1568 H 143.236 -0.564945 3.62221 0
M  V30 1569 H 142.884 -3.0068 4.03238 0
M  V30 1570 H 142.584 -2.05192 5.50609 0
M  V30 1571 H 144.108 -2.96865 5.33576 0
M  V30 1572 H 145.522 -0.724545 5.68703 0
M  V30 1573 H 143.919 0.001678 6.001 0
M  V30 1574 H 144.989 0.735553 4.79289 0
M  V30 1575 N 146.332 -1.57332 0.0918853 0
M  V30 1576 C 147.609 -1.85691 -0.614668 0
M  V30 1577 C 147.989 -0.988146 -1.86545 0
M  V30 1578 O 147.337 -0.0597055 -2.28422 0
M  V30 1579 C 147.547 -3.36294 -0.933126 0
M  V30 1580 C 148.895 -4.04275 -1.29796 0
M  V30 1581 O 149.919 -3.41157 -1.02424 0
M  V30 1582 O 148.778 -5.1564 -1.81047 0
M  V30 1583 H 145.872 -0.767802 -0.307261 0
M  V30 1584 H 148.418 -1.69244 0.12434 0
M  V30 1585 H 147.19 -3.91273 -0.0456404 0
M  V30 1586 H 146.813 -3.58076 -1.72822 0
M  V30 1587 N 147.81 0.181792 -1.56548 0
M  V30 1588 C 149.035 0.920019 -1.85877 0
M  V30 1589 C 149.46 1.75494 -0.677021 0
M  V30 1590 O 148.818 1.77399 0.374056 0
M  V30 1591 C 148.866 1.78112 -3.13542 0
M  V30 1592 O 147.97 2.88152 -2.95029 0
M  V30 1593 H 147.311 0.258334 -0.611686 0
M  V30 1594 H 149.841 0.183092 -2.03779 0
M  V30 1595 H 149.851 2.18314 -3.44678 0
M  V30 1596 H 148.526 1.16777 -3.99169 0
M  V30 1597 H 147.103 2.51609 -2.75222 0
M  V30 1598 N 149.288 1.51039 0.449983 0
M  V30 1599 C 150.534 1.64287 1.19923 0
M  V30 1600 C 150.889 0.348701 1.89214 0
M  V30 1601 O 150.182 -0.654751 1.80065 0
M  V30 1602 C 150.376 2.77556 2.25161 0
M  V30 1603 C 150.205 4.17862 1.66198 0
M  V30 1604 C 148.975 4.83976 1.45243 0
M  V30 1605 C 151.173 5.01388 1.14519 0
M  V30 1606 N 149.155 6.08433 0.817437 0
M  V30 1607 C 150.526 6.16743 0.634705 0
M  V30 1608 C 152.581 4.87008 1.03574 0
M  V30 1609 C 151.284 7.19295 0.0255452 0
M  V30 1610 C 153.31 5.89757 0.440489 0
M  V30 1611 C 152.672 7.04375 -0.0595112 0
M  V30 1612 H 148.771 0.655161 0.426952 0
M  V30 1613 H 151.355 1.88228 0.49781 0
M  V30 1614 H 149.526 2.553 2.92706 0
M  V30 1615 H 151.258 2.80049 2.92155 0
M  V30 1616 H 148.013 4.41627 1.71063 0
M  V30 1617 H 148.437 6.75017 0.517747 0
M  V30 1618 H 153.079 3.9866 1.4082 0
M  V30 1619 H 150.797 8.07302 -0.359071 0
M  V30 1620 H 154.383 5.80698 0.35788 0
M  V30 1621 H 153.263 7.82521 -0.512882 0
M  V30 1622 N 150.766 -0.704594 1.40972 0
M  V30 1623 C 152.182 -1.01406 1.23244 0
M  V30 1624 C 152.382 -2.01169 0.115399 0
M  V30 1625 O 151.438 -2.47021 -0.523147 0
M  V30 1626 C 152.751 -1.54728 2.57836 0
M  V30 1627 C 154.299 -1.66658 2.64942 0
M  V30 1628 C 154.774 -2.23383 3.9983 0
M  V30 1629 N 156.265 -2.30756 4.01629 0
M  V30 1630 C 157 -2.75655 5.02794 0
M  V30 1631 N 156.496 -3.20225 6.14352 0
M  V30 1632 N 158.289 -2.75138 4.90159 0
M  V30 1633 H 150.44 -0.0435285 2.12355 0
M  V30 1634 H 152.703 -0.0818951 0.944456 0
M  V30 1635 H 152.409 -0.888832 3.40283 0
M  V30 1636 H 152.283 -2.53084 2.79693 0
M  V30 1637 H 154.67 -2.31617 1.8286 0
M  V30 1638 H 154.751 -0.668717 2.46904 0
M  V30 1639 H 154.395 -1.59043 4.82357 0
M  V30 1640 H 154.325 -3.23904 4.15203 0
M  V30 1641 H 156.816 -1.99291 3.21079 0
M  V30 1642 H 157.129 -3.53084 6.87424 0
M  V30 1643 H 155.474 -3.18156 6.17901 0
M  V30 1644 H 158.665 -2.39661 4.02095 0
M  V30 1645 H 158.838 -3.09812 5.6914 0
M  V30 1646 N 152.244 -1.26651 -0.937939 0
M  V30 1647 C 153.521 -1.0313 -1.66204 0
M  V30 1648 C 153.901 0.437256 -2.06522 0
M  V30 1649 O 153.249 1.41831 -1.79154 0
M  V30 1650 C 153.459 -1.98314 -2.87181 0
M  V30 1651 C 154.807 -2.27107 -3.58758 0
M  V30 1652 O 155.831 -1.96205 -2.97291 0
M  V30 1653 O 154.69 -2.79736 -4.69479 0
M  V30 1654 H 151.784 -0.392384 -0.727986 0
M  V30 1655 H 154.33 -1.37874 -0.989382 0
M  V30 1656 H 153.102 -2.97399 -2.54302 0
M  V30 1657 H 152.725 -1.64068 -3.6217 0
M  V30 1658 N 153.722 1.14298 -1.08507 0
M  V30 1659 C 154.632 2.23027 -0.727753 0
M  V30 1660 C 155.648 1.71952 0.26619 0
M  V30 1661 O 156.824 2.011 0.109882 0
M  V30 1662 C 153.889 3.46403 -0.143541 0
M  V30 1663 C 152.95 4.12413 -1.19223 0
M  V30 1664 C 152.183 5.29899 -0.635798 0
M  V30 1665 O 152.406 5.67796 0.544393 0
M  V30 1666 O 151.34 5.85717 -1.38634 0
M  V30 1667 H 155.166 2.55945 -1.63481 0
M  V30 1668 H 152.751 1.22248 -0.858817 0
M  V30 1669 H 154.633 4.21018 0.179404 0
M  V30 1670 H 153.308 3.15206 0.736659 0
M  V30 1671 H 152.215 3.39667 -1.56772 0
M  V30 1672 H 153.548 4.47718 -2.04474 0
M  V30 1673 N 155.201 0.870884 1.31352 0
M  V30 1674 C 156.448 0.482273 1.96673 0
M  V30 1675 C 156.776 -0.965638 1.68836 0
M  V30 1676 O 156.031 -1.69514 0.977937 0
M  V30 1677 C 156.33 0.687157 3.50732 0
M  V30 1678 C 155.996 2.108 3.9859 0
M  V30 1679 C 154.658 2.49656 4.1137 0
M  V30 1680 C 157.01 3.03459 4.23748 0
M  V30 1681 C 154.338 3.80412 4.46659 0
M  V30 1682 C 156.69 4.3373 4.60501 0
M  V30 1683 C 155.354 4.725 4.71487 0
M  V30 1684 H 154.624 0.176476 0.719679 0
M  V30 1685 H 157.271 1.10405 1.56471 0
M  V30 1686 H 155.576 -0.0177476 3.91796 0
M  V30 1687 H 157.273 0.366284 3.99324 0
M  V30 1688 H 153.863 1.79633 3.8914 0
M  V30 1689 H 158.047 2.74665 4.13368 0
M  V30 1690 H 153.303 4.1021 4.53362 0
M  V30 1691 H 157.477 5.05578 4.78919 0
M  V30 1692 H 155.104 5.73859 4.98588 0
M  V30 1693 N 156.679 -1.44442 0.630414 0
M  V30 1694 C 157.609 -2.33418 -0.0618083 0
M  V30 1695 C 158.59 -1.48165 -0.835541 0
M  V30 1696 O 159.775 -1.76886 -0.801564 0
M  V30 1697 C 156.905 -3.31222 -1.04449 0
M  V30 1698 C 155.859 -4.26288 -0.382436 0
M  V30 1699 C 155.185 -5.13954 -1.47497 0
M  V30 1700 C 156.485 -5.1744 0.710865 0
M  V30 1701 H 158.179 -2.91548 0.681184 0
M  V30 1702 H 155.725 -1.40191 0.329026 0
M  V30 1703 H 157.678 -3.92351 -1.53748 0
M  V30 1704 H 156.402 -2.71299 -1.81836 0
M  V30 1705 H 155.061 -3.6649 0.0899054 0
M  V30 1706 H 154.709 -4.50385 -2.2397 0
M  V30 1707 H 154.409 -5.7837 -1.03737 0
M  V30 1708 H 155.933 -5.77955 -1.96979 0
M  V30 1709 H 157.347 -5.72509 0.300996 0
M  V30 1710 H 155.744 -5.90455 1.07156 0
M  V30 1711 H 156.814 -4.58496 1.57829 0
M  V30 1712 N 158.157 -0.370918 -1.53173 0
M  V30 1713 C 159.406 0.218249 -2.00516 0
M  V30 1714 C 159.719 1.49429 -1.26215 0
M  V30 1715 O 160.925 2.16239 -1.64174 0
M  V30 1716 C 159.381 0.43948 -3.57207 0
M  V30 1717 C 158.989 -0.822244 -4.4039 0
M  V30 1718 C 160.733 0.986012 -4.1289 0
M  V30 1719 C 158.64 -0.570304 -5.88644 0
M  V30 1720 H 157.57 0.0853333 -0.749156 0
M  V30 1721 H 160.221 -0.490483 -1.76823 0
M  V30 1722 H 158.603 1.20961 -3.77074 0
M  V30 1723 H 159.777 -1.59557 -4.32294 0
M  V30 1724 H 158.092 -1.29238 -3.95836 0
M  V30 1725 H 160.689 1.18991 -5.21292 0
M  V30 1726 H 161.032 1.94972 -3.6782 0
M  V30 1727 H 161.565 0.27592 -3.96842 0
M  V30 1728 H 158.304 -1.50449 -6.38001 0
M  V30 1729 H 157.824 0.164427 -5.99575 0
M  V30 1730 H 159.503 -0.19784 -6.46697 0
M  V30 1731 N 159.635 1.57281 -0.100228 0
M  V30 1732 C 160.567 2.11342 0.886972 0
M  V30 1733 C 161.58 1.05182 1.24261 0
M  V30 1734 O 162.769 1.32613 1.19483 0
M  V30 1735 C 159.869 2.5825 2.19454 0
M  V30 1736 C 159.042 3.88302 2.01346 0
M  V30 1737 C 158.101 4.21004 3.15661 0
M  V30 1738 O 157.127 4.9014 2.89398 0
M  V30 1739 N 158.329 3.76818 4.41575 0
M  V30 1740 H 161.094 2.96668 0.425216 0
M  V30 1741 H 158.655 1.61678 0.0847334 0
M  V30 1742 H 160.647 2.7717 2.94888 0
M  V30 1743 H 159.217 1.77907 2.57037 0
M  V30 1744 H 158.437 3.7848 1.10212 0
M  V30 1745 H 159.725 4.73375 1.8653 0
M  V30 1746 H 159.123 3.2102 4.65792 0
M  V30 1747 H 157.68 4.00882 5.13942 0
M  V30 1748 N 161.113 -0.173488 1.56642 0
M  V30 1749 C 162.076 -1.19859 1.95362 0
M  V30 1750 C 163.076 -1.37296 0.83704 0
M  V30 1751 O 164.266 -1.34739 1.10413 0
M  V30 1752 C 161.398 -2.56405 2.24654 0
M  V30 1753 H 162.591 -0.867062 2.87092 0
M  V30 1754 H 160.144 -0.415853 1.50666 0
M  V30 1755 H 160.879 -2.94576 1.35631 0
M  V30 1756 H 160.664 -2.45115 3.06041 0
M  V30 1757 H 162.154 -3.30287 2.5554 0
M  V30 1758 N 162.591 -1.51276 -0.441967 0
M  V30 1759 C 163.816 -1.67799 -1.21895 0
M  V30 1760 C 164.241 -0.372864 -1.84367 0
M  V30 1761 O 163.599 0.666501 -1.68604 0
M  V30 1762 C 163.647 -2.79199 -2.28211 0
M  V30 1763 O 162.751 -2.42479 -3.33583 0
M  V30 1764 H 162.092 -0.559649 -0.357336 0
M  V30 1765 H 164.622 -1.97815 -0.522522 0
M  V30 1766 H 164.632 -3.03146 -2.73069 0
M  V30 1767 H 163.307 -3.73906 -1.82118 0
M  V30 1768 H 161.884 -2.29087 -2.94234 0
M  V30 1769 N 164.069 0.697108 -1.41344 0
M  V30 1770 C 165.48 1.27697 -1.36199 0
M  V30 1771 C 165.831 1.9615 -0.0443463 0
M  V30 1772 O 164.956 1.98689 0.857419 0
M  V30 1773 C 165.551 2.32223 -2.46694 0
M  V30 1774 C 164.11 2.8579 -2.44952 0
M  V30 1775 C 163.257 1.59807 -2.26621 0
M  V30 1776 H 166.208 0.491968 -1.50882 0
M  V30 1777 H 166.229 3.1348 -2.15664 0
M  V30 1778 H 165.741 1.82373 -3.42581 0
M  V30 1779 H 163.842 3.3982 -1.52817 0
M  V30 1780 H 163.955 3.36325 -3.41207 0
M  V30 1781 H 162.319 1.8556 -1.7447 0
M  V30 1782 H 163.102 1.11956 -3.24532 0
M  V30 1783 N 165.547 1.27147 0.931209 0
M  V30 1784 C 166.963 1.04475 1.20653 0
M  V30 1785 C 167.163 -0.223885 2.00252 0
M  V30 1786 O 166.219 -0.930332 2.34736 0
M  V30 1787 C 167.532 2.28209 1.95809 0
M  V30 1788 C 169.08 2.33211 2.08762 0
M  V30 1789 C 169.555 3.56665 2.87323 0
M  V30 1790 N 171.046 3.57201 2.94892 0
M  V30 1791 C 171.781 4.49395 3.56134 0
M  V30 1792 N 171.277 5.51889 4.18796 0
M  V30 1793 N 173.07 4.37026 3.53504 0
M  V30 1794 H 165.221 2.08612 0.399333 0
M  V30 1795 H 167.484 0.917312 0.239253 0
M  V30 1796 H 167.19 3.20538 1.44736 0
M  V30 1797 H 167.064 2.33247 2.96438 0
M  V30 1798 H 169.451 1.41391 2.59023 0
M  V30 1799 H 169.532 2.32178 1.07364 0
M  V30 1800 H 169.176 4.4882 2.37746 0
M  V30 1801 H 169.106 3.54948 3.88998 0
M  V30 1802 H 171.597 2.83074 2.50354 0
M  V30 1803 H 171.91 6.18409 4.63454 0
M  V30 1804 H 170.255 5.55735 4.17353 0
M  V30 1805 H 173.446 3.56166 3.03749 0
M  V30 1806 H 173.619 5.09067 4.00942 0
M  V30 1807 N 167.025 -1.13721 1.09112 0
M  V30 1808 C 168.302 -1.81155 0.737706 0
M  V30 1809 C 168.682 -1.96253 -0.777683 0
M  V30 1810 O 168.03 -1.52807 -1.69889 0
M  V30 1811 C 168.24 -3.16392 1.47299 0
M  V30 1812 C 169.588 -3.91787 1.63671 0
M  V30 1813 O 170.612 -3.26005 1.43524 0
M  V30 1814 O 169.471 -5.0977 1.96969 0
M  V30 1815 H 166.565 -0.783518 0.26463 0
M  V30 1816 H 169.111 -1.20676 1.19312 0
M  V30 1817 H 167.883 -3.0061 2.50498 0
M  V30 1818 H 167.506 -3.8457 1.00953 0
M  V30 1819 N 168.503 -0.877838 -1.30888 0
M  V30 1820 C 169.914 -0.544193 -1.78593 0
M  V30 1821 C 170.265 0.939301 -1.72254 0
M  V30 1822 O 169.39 1.7337 -1.29505 0
M  V30 1823 C 169.985 -0.98105 -3.24285 0
M  V30 1824 C 168.544 -0.698935 -3.69854 0
M  V30 1825 C 167.691 -1.168 -2.51502 0
M  V30 1826 H 170.642 -1.06278 -1.17859 0
M  V30 1827 H 170.663 -0.307009 -3.79259 0
M  V30 1828 H 170.175 -2.06079 -3.28866 0
M  V30 1829 H 168.276 0.369112 -3.70767 0
M  V30 1830 H 168.389 -1.28148 -4.61644 0
M  V30 1831 H 166.753 -0.587535 -2.47831 0
M  V30 1832 H 167.536 -2.25533 -2.58824 0
M  V30 1833 N 169.982 1.44106 -0.638065 0
M  V30 1834 C 170.892 2.34513 0.0637334 0
M  V30 1835 C 171.908 1.53018 0.828346 0
M  V30 1836 O 173.084 1.85723 0.779036 0
M  V30 1837 C 170.149 3.31095 1.02844 0
M  V30 1838 C 169.21 4.28497 0.26244 0
M  V30 1839 C 168.443 5.20465 1.1812 0
M  V30 1840 O 168.666 5.16514 2.42011 0
M  V30 1841 O 167.6 5.98251 0.661774 0
M  V30 1842 H 171.426 2.95989 -0.68003 0
M  V30 1843 H 169.011 1.43994 -0.398252 0
M  V30 1844 H 170.893 3.90526 1.58327 0
M  V30 1845 H 169.568 2.72144 1.7527 0
M  V30 1846 H 168.475 3.72592 -0.335602 0
M  V30 1847 H 169.808 4.90388 -0.421936 0
M  V30 1848 N 171.46 0.379036 1.52974 0
M  V30 1849 C 172.408 -0.476033 2.27677 0
M  V30 1850 C 173.402 -1.0719 1.31174 0
M  V30 1851 O 174.608 -1.01355 1.48752 0
M  V30 1852 H 170.983 -0.172255 0.732006 0
M  V30 1853 H 172.954 0.175615 2.97883 0
M  V30 1854 C 171.703 -1.5967 3.0887 0
M  V30 1855 H 171.026 -1.1475 3.82978 0
M  V30 1856 H 172.466 -2.16943 3.64296 0
M  V30 1857 C 170.925 -2.54682 2.20542 0
M  V30 1858 O 171.455 -3.57836 1.82527 0
M  V30 1859 N 169.661 -2.24183 1.84907 0
M  V30 1860 H 169.208 -1.40333 2.1602 0
M  V30 1861 H 169.166 -2.88006 1.26096 0
M  V30 1862 N 172.938 -1.57226 0.108567 0
M  V30 1863 C 174.185 -1.94833 -0.551943 0
M  V30 1864 C 174.513 -0.991204 -1.67348 0
M  V30 1865 O 173.768 -0.0131878 -1.95696 0
M  V30 1866 C 174.067 -3.38911 -1.13463 0
M  V30 1867 C 173.733 -4.50696 -0.135509 0
M  V30 1868 C 172.395 -4.80998 0.139252 0
M  V30 1869 C 174.747 -5.18333 0.545957 0
M  V30 1870 C 172.075 -5.76259 1.10194 0
M  V30 1871 C 174.427 -6.14627 1.49721 0
M  V30 1872 C 173.091 -6.43327 1.78006 0
M  V30 1873 H 172.361 -0.712944 -0.20197 0
M  V30 1874 H 175.008 -1.90582 0.18726 0
M  V30 1875 H 173.313 -3.39805 -1.95037 0
M  V30 1876 H 175.01 -3.65317 -1.65362 0
M  V30 1877 H 171.6 -4.27087 -0.359846 0
M  V30 1878 H 175.784 -4.95087 0.346842 0
M  V30 1879 H 171.04 -5.96804 1.32795 0
M  V30 1880 H 175.214 -6.66126 2.03099 0
M  V30 1881 H 172.841 -7.1695 2.52759 0
M  V30 1882 N 174.416 0.165178 -1.56732 0
M  V30 1883 C 175.827 0.727046 -1.71962 0
M  V30 1884 C 176.178 1.82508 -0.720078 0
M  V30 1885 O 175.303 2.16082 0.117242 0
M  V30 1886 C 175.898 1.32559 -3.11791 0
M  V30 1887 C 174.457 1.83422 -3.28684 0
M  V30 1888 C 173.604 0.715567 -2.67908 0
M  V30 1889 H 176.555 -0.0602896 -1.58585 0
M  V30 1890 H 176.576 2.19533 -3.10782 0
M  V30 1891 H 176.088 0.526195 -3.84516 0
M  V30 1892 H 174.189 2.65986 -2.60926 0
M  V30 1893 H 174.302 1.97543 -4.36478 0
M  V30 1894 H 172.666 1.13758 -2.27884 0
M  V30 1895 H 173.449 -0.0720836 -3.43224 0
M  V30 1896 N 175.894 1.51508 0.433938 0
M  V30 1897 C 177.141 1.64345 1.18309 0
M  V30 1898 C 177.469 0.361315 1.91115 0
M  V30 1899 O 176.724 -0.654753 1.84422 0
M  V30 1900 C 177.023 2.79928 2.22205 0
M  V30 1901 C 176.689 4.19078 1.66387 0
M  V30 1902 C 175.351 4.56932 1.50887 0
M  V30 1903 C 177.703 5.05894 1.25381 0
M  V30 1904 C 175.031 5.79305 0.928608 0
M  V30 1905 C 177.383 6.2885 0.687823 0
M  V30 1906 C 176.047 6.65473 0.519755 0
M  V30 1907 H 175.317 0.601381 0.432923 0
M  V30 1908 H 177.964 1.85549 0.473676 0
M  V30 1909 H 176.269 2.52959 2.99197 0
M  V30 1910 H 177.966 2.87059 2.79997 0
M  V30 1911 H 174.556 3.89234 1.79428 0
M  V30 1912 H 178.74 4.77253 1.36175 0
M  V30 1913 H 173.996 6.06324 0.786186 0
M  V30 1914 H 178.17 6.95461 0.361581 0
M  V30 1915 H 175.797 7.6017 0.0679979 0
M  V30 1916 N 177.372 -0.689602 1.41712 0
M  V30 1917 C 178.618 -1.45181 1.41599 0
M  V30 1918 C 178.951 -1.94181 0.0270081 0
M  V30 1919 O 178.226 -1.6993 -0.946265 0
M  V30 1920 C 178.509 -2.65945 2.42787 0
M  V30 1921 C 178.362 -2.22672 3.90816 0
M  V30 1922 C 179.681 -3.68149 2.41151 0
M  V30 1923 H 176.8 -0.526576 0.515642 0
M  V30 1924 H 179.442 -0.784947 1.73028 0
M  V30 1925 H 177.592 -3.2284 2.16116 0
M  V30 1926 H 179.264 -1.71058 4.28412 0
M  V30 1927 H 177.507 -1.54394 4.05395 0
M  V30 1928 H 178.178 -3.0935 4.57172 0
M  V30 1929 H 180.654 -3.2094 2.64834 0
M  V30 1930 H 179.53 -4.50248 3.13955 0
M  V30 1931 H 179.791 -4.18259 1.43221 0
M  V30 1932 N 178.85 -1.27639 -0.924453 0
M  V30 1933 C 180.096 -1.14336 -1.67497 0
M  V30 1934 C 180.429 0.309465 -1.91718 0
M  V30 1935 O 179.704 1.22608 -1.50989 0
M  V30 1936 C 179.987 -1.93096 -3.0395 0
M  V30 1937 C 179.84 -3.46381 -2.8695 0
M  V30 1938 C 181.159 -1.73798 -4.0433 0
M  V30 1939 H 178.278 -0.416728 -0.607871 0
M  V30 1940 H 180.92 -1.56832 -1.07256 0
M  V30 1941 H 179.07 -1.56982 -3.55372 0
M  V30 1942 H 180.742 -3.92343 -2.42621 0
M  V30 1943 H 178.985 -3.72557 -2.22225 0
M  V30 1944 H 179.656 -3.96735 -3.83804 0
M  V30 1945 H 182.132 -2.05293 -3.61931 0
M  V30 1946 H 181.008 -2.31294 -4.97789 0
M  V30 1947 H 181.269 -0.686725 -4.36734 0
M  V30 1948 N 180.328 1.1314 -1.09713 0
M  V30 1949 C 181.258 2.20748 -0.761102 0
M  V30 1950 C 182.239 1.68061 0.262566 0
M  V30 1951 O 183.424 1.93765 0.129977 0
M  V30 1952 C 180.554 3.46812 -0.184054 0
M  V30 1953 C 179.508 4.12606 -1.13757 0
M  V30 1954 C 178.834 5.33031 -0.422083 0
M  V30 1955 C 180.134 4.59603 -2.48118 0
M  V30 1956 H 181.828 2.49113 -1.66082 0
M  V30 1957 H 179.374 1.19734 -0.799987 0
M  V30 1958 H 181.327 4.21353 0.0631215 0
M  V30 1959 H 180.051 3.17851 0.750868 0
M  V30 1960 H 178.71 3.40036 -1.37007 0
M  V30 1961 H 178.358 5.00335 0.517072 0
M  V30 1962 H 178.058 5.77999 -1.05788 0
M  V30 1963 H 179.582 6.10325 -0.183277 0
M  V30 1964 H 180.996 5.25552 -2.29059 0
M  V30 1965 H 179.393 5.15321 -3.07514 0
M  V30 1966 H 180.463 3.73971 -3.08665 0
M  V30 1967 N 181.806 0.884767 1.30421 0
M  V30 1968 C 183.054 0.502112 1.95763 0
M  V30 1969 C 183.375 -0.951815 1.70192 0
M  V30 1970 O 182.645 -1.6692 1.0254 0
M  V30 1971 H 181.225 0.182694 0.724315 0
M  V30 1972 H 183.887 1.1278 1.58955 0
M  V30 1973 H 182.983 0.672188 3.04775 0
M  V30 1974 N 183.284 -1.43765 0.645699 0
M  V30 1975 C 184.232 -2.32516 -0.0624849 0
M  V30 1976 C 185.226 -1.48183 -0.820855 0
M  V30 1977 O 186.432 -1.64439 -0.732106 0
M  V30 1978 H 182.807 -0.750989 -0.0389864 0
M  V30 1979 H 184.778 -2.89979 0.703892 0
M  V30 1980 C 183.527 -3.32389 -1.02044 0
M  V30 1981 H 182.85 -3.97301 -0.446312 0
M  V30 1982 H 184.29 -3.97138 -1.48517 0
M  V30 1983 C 182.749 -2.62416 -2.11281 0
M  V30 1984 O 183.279 -2.434 -3.19561 0
M  V30 1985 N 181.485 -2.21913 -1.87624 0
M  V30 1986 H 181.032 -2.37578 -0.995703 0
M  V30 1987 H 180.99 -1.75424 -2.6091 0
M  V30 1988 N 184.763 -0.387143 -1.52771 0
M  V30 1989 C 185.71 0.449048 -2.26389 0
M  V30 1990 C 186.68 1.05961 -1.27912 0
M  V30 1991 O 187.865 1.08804 -1.56737 0
M  V30 1992 C 185.005 1.57155 -3.0724 0
M  V30 1993 C 184.118 0.984066 -4.20643 0
M  V30 1994 C 183.253 2.07745 -4.88892 0
M  V30 1995 C 182.292 1.46574 -5.94292 0
M  V30 1996 N 181.429 2.49834 -6.56146 0
M  V30 1997 H 186.269 -0.185205 -2.97424 0
M  V30 1998 H 183.806 -0.103164 -1.46738 0
M  V30 1999 H 185.764 2.23309 -3.52405 0
M  V30 2000 H 184.394 2.17615 -2.38419 0
M  V30 2001 H 183.446 0.212193 -3.79808 0
M  V30 2002 H 184.758 0.497029 -4.96318 0
M  V30 2003 H 183.912 2.81673 -5.3735 0
M  V30 2004 H 182.651 2.59807 -4.12737 0
M  V30 2005 H 181.656 0.711696 -5.45174 0
M  V30 2006 H 182.881 0.953088 -6.72379 0
M  V30 2007 H 180.827 3.0107 -5.82832 0
M  V30 2008 H 180.744 2.05879 -7.27427 0
M  V30 2009 H 182.012 3.23399 -7.09249 0
M  V30 2010 N 186.241 1.57166 -0.116904 0
M  V30 2011 C 187.49 1.94298 0.541407 0
M  V30 2012 C 187.803 1.00236 1.67964 0
M  V30 2013 O 189.009 1.26826 2.40057 0
M  V30 2014 C 187.465 3.45306 1.01449 0
M  V30 2015 C 187.073 4.47899 -0.0951738 0
M  V30 2016 C 188.817 3.91361 1.6443 0
M  V30 2017 C 186.724 5.90083 0.394491 0
M  V30 2018 H 185.654 0.725308 0.206019 0
M  V30 2019 H 188.305 1.82446 -0.196419 0
M  V30 2020 H 186.687 3.52385 1.80667 0
M  V30 2021 H 187.861 4.52486 -0.871374 0
M  V30 2022 H 186.176 4.11583 -0.631505 0
M  V30 2023 H 188.773 4.95004 2.02176 0
M  V30 2024 H 189.116 3.3122 2.52189 0
M  V30 2025 H 189.649 3.87073 0.917559 0
M  V30 2026 H 186.388 6.53974 -0.447004 0
M  V30 2027 H 185.908 5.88921 1.13722 0
M  V30 2028 H 187.587 6.41307 0.856399 0
M  V30 2029 N 187.719 -0.156864 1.56817 0
M  V30 2030 C 188.996 -0.899244 1.73704 0
M  V30 2031 C 189.376 -1.99771 0.682254 0
M  V30 2032 O 188.724 -2.26515 -0.300522 0
M  V30 2033 C 188.934 -1.45075 3.17418 0
M  V30 2034 C 190.282 -1.91802 3.7881 0
M  V30 2035 O 191.306 -1.54838 3.20786 0
M  V30 2036 O 190.165 -2.5994 4.80722 0
M  V30 2037 H 187.259 -0.424267 0.709878 0
M  V30 2038 H 189.805 -0.143561 1.69092 0
M  V30 2039 H 188.577 -0.660846 3.85679 0
M  V30 2040 H 188.2 -2.27021 3.26416 0
M  V30 2041 N 189.197 -1.51736 -0.425897 0
M  V30 2042 C 190.127 -1.76827 -1.52494 0
M  V30 2043 C 191.108 -0.618524 -1.58456 0
M  V30 2044 O 192.293 -0.862416 -1.74 0
M  V30 2045 C 189.423 -1.90374 -2.90474 0
M  V30 2046 C 188.377 -3.0588 -2.99369 0
M  V30 2047 C 187.703 -3.04625 -4.3944 0
M  V30 2048 C 189.003 -4.45644 -2.72394 0
M  V30 2049 H 190.697 -2.68855 -1.31748 0
M  V30 2050 H 188.243 -1.29372 -0.632362 0
M  V30 2051 H 190.196 -2.0651 -3.6733 0
M  V30 2052 H 188.92 -0.95004 -3.12477 0
M  V30 2053 H 187.579 -2.89467 -2.24954 0
M  V30 2054 H 187.227 -2.0701 -4.58428 0
M  V30 2055 H 186.927 -3.82195 -4.46319 0
M  V30 2056 H 188.451 -3.22869 -5.18255 0
M  V30 2057 H 189.865 -4.62348 -3.38979 0
M  V30 2058 H 188.262 -5.25006 -2.9067 0
M  V30 2059 H 189.332 -4.54893 -1.67929 0
M  V30 2060 N 190.675 0.682077 -1.42076 0
M  V30 2061 C 191.585 1.82535 -1.47371 0
M  V30 2062 C 192.601 1.7017 -0.363079 0
M  V30 2063 O 193.777 1.91848 -0.612875 0
M  V30 2064 C 190.842 3.18624 -1.36674 0
M  V30 2065 C 189.903 3.42999 -2.58167 0
M  V30 2066 C 189.136 4.72595 -2.4797 0
M  V30 2067 O 189.359 5.50006 -1.5116 0
M  V30 2068 O 188.293 4.98054 -3.37974 0
M  V30 2069 H 192.119 1.81023 -2.43853 0
M  V30 2070 H 189.704 0.836887 -1.2376 0
M  V30 2071 H 191.586 3.99847 -1.33043 0
M  V30 2072 H 190.261 3.20789 -0.433138 0
M  V30 2073 H 189.168 2.61653 -2.67373 0
M  V30 2074 H 190.501 3.45659 -3.50401 0
M  V30 2075 N 192.153 1.28127 0.917671 0
M  V30 2076 C 193.101 1.11569 2.04096 0
M  V30 2077 C 194.095 0.0360242 1.69362 0
M  V30 2078 O 195.301 0.194501 1.78946 0
M  V30 2079 H 191.676 0.344097 0.668656 0
M  V30 2080 H 193.647 2.06711 2.15205 0
M  V30 2081 C 192.396 0.790197 3.38602 0
M  V30 2082 H 191.719 1.61293 3.6582 0
M  V30 2083 H 193.159 0.714271 4.1794 0
M  V30 2084 C 191.618 -0.505897 3.3308 0
M  V30 2085 O 192.148 -1.53736 3.71117 0
M  V30 2086 N 190.354 -0.505193 2.86175 0
M  V30 2087 H 189.901 0.334621 2.55417 0
M  V30 2088 H 189.859 -1.37243 2.82863 0
M  V30 2089 N 193.631 -1.12557 1.10312 0
M  V30 2090 C 195.047 -1.36036 0.834649 0
M  V30 2091 C 195.247 -1.93946 -0.546539 0
M  V30 2092 O 194.303 -2.16484 -1.29966 0
M  V30 2093 C 195.616 -2.30312 1.9333 0
M  V30 2094 C 197.164 -2.43906 1.9616 0
M  V30 2095 C 197.639 -3.41496 3.05195 0
M  V30 2096 N 199.13 -3.49053 3.04494 0
M  V30 2097 C 199.865 -4.24471 3.85502 0
M  V30 2098 N 199.361 -5.02966 4.76442 0
M  V30 2099 N 201.154 -4.19864 3.73725 0
M  V30 2100 H 193.305 -0.733246 1.99342 0
M  V30 2101 H 195.568 -0.385234 0.866198 0
M  V30 2102 H 195.274 -1.94933 2.92735 0
M  V30 2103 H 195.148 -3.30421 1.81939 0
M  V30 2104 H 197.535 -2.78567 0.973886 0
M  V30 2105 H 197.616 -1.4369 2.11629 0
M  V30 2106 H 197.26 -3.07565 4.04186 0
M  V30 2107 H 197.19 -4.41539 2.86968 0
M  V30 2108 H 199.681 -2.93053 2.38596 0
M  V30 2109 H 199.994 -5.57846 5.34815 0
M  V30 2110 H 198.339 -5.02167 4.80472 0
M  V30 2111 H 201.53 -3.57623 3.02032 0
M  V30 2112 H 201.703 -4.78386 4.37093 0
M  V30 2113 N 195.109 -0.891671 -1.2995 0
M  V30 2114 C 196.041 -0.320695 -2.26945 0
M  V30 2115 C 197.054 0.528497 -1.53983 0
M  V30 2116 O 198.243 0.346959 -1.75096 0
M  V30 2117 C 195.343 0.562066 -3.34207 0
M  V30 2118 C 194.516 -0.259576 -4.36629 0
M  V30 2119 C 193.575 0.554739 -5.23268 0
M  V30 2120 O 192.601 -0.0249311 -5.69195 0
M  V30 2121 N 193.803 1.8625 -5.4981 0
M  V30 2122 H 196.568 -1.15432 -2.76578 0
M  V30 2123 H 194.129 -0.755336 -1.432 0
M  V30 2124 H 196.121 1.11304 -3.89093 0
M  V30 2125 H 194.691 1.29637 -2.84452 0
M  V30 2126 H 193.911 -0.991986 -3.81514 0
M  V30 2127 H 195.199 -0.822564 -5.02107 0
M  V30 2128 H 194.597 2.35628 -5.14292 0
M  V30 2129 H 193.154 2.36078 -6.07545 0
M  V30 2130 N 196.587 1.43421 -0.653314 0
M  V30 2131 C 197.833 2.02111 -0.166992 0
M  V30 2132 C 198.166 1.51423 1.21592 0
M  V30 2133 O 197.441 0.707389 1.8118 0
M  V30 2134 C 197.724 3.5966 -0.177948 0
M  V30 2135 C 197.577 4.20579 -1.59478 0
M  V30 2136 C 198.896 4.37413 0.4856 0
M  V30 2137 H 196.015 0.734374 -0.0621557 0
M  V30 2138 H 198.657 1.70717 -0.834016 0
M  V30 2139 H 196.807 3.86537 0.390032 0
M  V30 2140 H 198.479 4.04732 -2.21336 0
M  V30 2141 H 196.722 3.77226 -2.14204 0
M  V30 2142 H 197.393 5.29665 -1.5543 0
M  V30 2143 H 199.869 4.161 0.00234528 0
M  V30 2144 H 198.745 5.47075 0.447207 0
M  V30 2145 H 199.006 4.13672 1.55974 0
M  V30 2146 N 198.065 0.39524 1.52563 0
M  V30 2147 C 199.028 -0.425001 2.25225 0
M  V30 2148 C 200.028 -0.985266 1.27079 0
M  V30 2149 O 201.218 -0.866332 1.5113 0
M  V30 2150 C 198.35 -1.59686 3.01186 0
M  V30 2151 H 199.543 0.211233 2.99155 0
M  V30 2152 H 197.096 0.147472 1.55603 0
M  V30 2153 H 197.831 -2.27035 2.31572 0
M  V30 2154 H 197.616 -1.20176 3.73229 0
M  V30 2155 H 199.106 -2.17743 3.5634 0
M  V30 2156 N 199.544 -1.57102 0.125237 0
M  V30 2157 C 200.772 -1.99761 -0.538797 0
M  V30 2158 C 201.187 -1.00503 -1.59827 0
M  V30 2159 O 200.544 0.00119474 -1.825 0
M  V30 2160 C 200.595 -3.42408 -1.15927 0
M  V30 2161 O 200.316 -4.37869 -0.142143 0
M  V30 2162 C 201.817 -4.00232 -1.90602 0
M  V30 2163 H 199.037 -0.655772 -0.14214 0
M  V30 2164 H 201.581 -2.03383 0.213413 0
M  V30 2165 H 199.736 -3.39706 -1.86223 0
M  V30 2166 H 200.15 -5.21128 -0.593775 0
M  V30 2167 H 201.624 -5.02105 -2.29335 0
M  V30 2168 H 202.101 -3.39721 -2.78363 0
M  V30 2169 H 202.707 -4.06499 -1.25055 0
M  V30 2170 N 201.022 0.148545 -1.56898 0
M  V30 2171 C 201.969 1.18345 -1.98149 0
M  V30 2172 C 202.939 1.42772 -0.848848 0
M  V30 2173 O 204.124 1.55132 -1.11079 0
M  V30 2174 C 201.264 2.51231 -2.36594 0
M  V30 2175 C 200.377 2.33991 -3.63142 0
M  V30 2176 C 199.512 3.59902 -3.90697 0
M  V30 2177 C 198.551 3.37692 -5.1052 0
M  V30 2178 N 197.688 4.5573 -5.34092 0
M  V30 2179 H 202.528 0.82467 -2.86362 0
M  V30 2180 H 200.065 0.395756 -1.41676 0
M  V30 2181 H 202.023 3.28713 -2.56912 0
M  V30 2182 H 200.653 2.85059 -1.51463 0
M  V30 2183 H 199.705 1.47572 -3.50609 0
M  V30 2184 H 201.017 2.13539 -4.5078 0
M  V30 2185 H 200.171 4.45813 -4.11505 0
M  V30 2186 H 198.91 3.83357 -3.01477 0
M  V30 2187 H 197.915 2.5017 -4.89587 0
M  V30 2188 H 199.14 3.15637 -6.0129 0
M  V30 2189 H 197.086 4.79361 -4.47827 0
M  V30 2190 H 197.003 4.38274 -6.15996 0
M  V30 2191 H 198.271 5.42858 -5.59397 0
M  V30 2192 N 202.5 1.5196 0.417844 0
M  V30 2193 C 203.916 1.40569 0.755816 0
M  V30 2194 C 204.116 0.503316 1.95113 0
M  V30 2195 O 203.172 -0.0341925 2.52477 0
M  V30 2196 C 204.485 2.82947 1.01791 0
M  V30 2197 C 206.033 2.92231 1.12116 0
M  V30 2198 C 206.508 4.35559 1.41608 0
M  V30 2199 N 207.999 4.38753 1.48491 0
M  V30 2200 C 208.734 5.46705 1.7292 0
M  V30 2201 N 208.23 6.64788 1.95011 0
M  V30 2202 N 210.023 5.34209 1.74863 0
M  V30 2203 H 202.174 2.09168 -0.369098 0
M  V30 2204 H 204.437 0.942409 -0.102809 0
M  V30 2205 H 204.143 3.5106 0.212081 0
M  V30 2206 H 204.017 3.23462 1.94042 0
M  V30 2207 H 206.404 2.24304 1.9176 0
M  V30 2208 H 206.485 2.55185 0.177225 0
M  V30 2209 H 206.129 5.04042 0.624848 0
M  V30 2210 H 206.059 4.70133 2.37239 0
M  V30 2211 H 208.55 3.5363 1.33244 0
M  V30 2212 H 208.863 7.42845 2.13076 0
M  V30 2213 H 207.208 6.67869 1.92293 0
M  V30 2214 H 210.399 4.40937 1.57137 0
M  V30 2215 H 210.572 6.18415 1.93563 0
M  V30 2216 N 203.978 -0.674533 1.42435 0
M  V30 2217 C 204.941 -1.76986 1.45632 0
M  V30 2218 C 205.941 -1.5708 0.343871 0
M  V30 2219 O 207.131 -1.63367 0.604709 0
M  V30 2220 C 204.263 -3.15623 1.28822 0
M  V30 2221 H 205.456 -1.75539 2.43158 0
M  V30 2222 H 203.009 -0.884189 1.28887 0
M  V30 2223 H 203.744 -3.22696 0.322193 0
M  V30 2224 H 203.529 -3.31475 2.09444 0
M  V30 2225 H 205.019 -3.95537 1.33942 0
M  V30 2226 N 205.456 -1.28612 -0.910864 0
M  V30 2227 C 206.388 -1.08589 -2.01844 0
M  V30 2228 C 207.401 -0.0367419 -1.62759 0
M  V30 2229 O 208.59 -0.280101 -1.76289 0
M  V30 2230 C 205.69 -0.628626 -3.33019 0
M  V30 2231 C 204.863 -1.75382 -4.00699 0
M  V30 2232 C 203.922 -1.28945 -5.10156 0
M  V30 2233 O 202.948 -1.9922 -5.33198 0
M  V30 2234 N 204.15 -0.154224 -5.80295 0
M  V30 2235 H 206.915 -2.03973 -2.19579 0
M  V30 2236 H 204.476 -1.20403 -1.08234 0
M  V30 2237 H 206.468 -0.301508 -4.03575 0
M  V30 2238 H 205.038 0.232451 -3.11735 0
M  V30 2239 H 204.258 -2.25039 -3.23653 0
M  V30 2240 H 205.546 -2.50854 -4.42662 0
M  V30 2241 H 204.944 0.43194 -5.64049 0
M  V30 2242 H 203.501 0.113599 -6.51701 0
M  V30 2243 N 206.934 1.1197 -1.10907 0
M  V30 2244 C 207.897 2.16031 -0.765707 0
M  V30 2245 C 208.897 1.59393 0.212235 0
M  V30 2246 O 210.087 1.74196 -0.0115441 0
M  V30 2247 C 207.219 3.40632 -0.135053 0
M  V30 2248 H 208.412 2.47919 -1.68748 0
M  V30 2249 H 205.965 1.27061 -0.910226 0
M  V30 2250 H 206.7 3.14348 0.797218 0
M  V30 2251 H 206.485 3.8302 -0.838937 0
M  V30 2252 H 207.975 4.17505 0.0892469 0
M  V30 2253 N 208.412 0.89855 1.29475 0
M  V30 2254 C 209.658 0.534065 1.96263 0
M  V30 2255 C 210.013 -0.909415 1.69551 0
M  V30 2256 O 209.306 -1.63596 0.997349 0
M  V30 2257 C 209.5 0.761398 3.49195 0
M  V30 2258 C 209.329 2.22542 3.90775 0
M  V30 2259 C 208.099 2.87264 4.15701 0
M  V30 2260 C 210.297 3.20051 4.02581 0
M  V30 2261 N 208.279 4.24121 4.4384 0
M  V30 2262 C 209.65 4.42023 4.34759 0
M  V30 2263 C 211.705 3.15657 3.85052 0
M  V30 2264 C 210.408 5.60161 4.51235 0
M  V30 2265 C 212.434 4.33078 4.02737 0
M  V30 2266 C 211.796 5.5382 4.35273 0
M  V30 2267 H 207.895 0.245013 0.742625 0
M  V30 2268 H 210.479 1.15912 1.56437 0
M  V30 2269 H 208.65 0.165732 3.88046 0
M  V30 2270 H 210.382 0.362462 4.03074 0
M  V30 2271 H 207.137 2.38064 4.09417 0
M  V30 2272 H 207.561 4.94839 4.6202 0
M  V30 2273 H 212.203 2.23396 3.58962 0
M  V30 2274 H 209.921 6.52913 4.76162 0
M  V30 2275 H 213.507 4.31163 3.90628 0
M  V30 2276 H 212.387 6.43166 4.48672 0
M  V30 2277 N 209.89 -1.43072 0.660911 0
M  V30 2278 C 211.13 -2.03596 0.181146 0
M  V30 2279 C 211.494 -1.51057 -1.18515 0
M  V30 2280 O 212.695 -2.03275 -1.75877 0
M  V30 2281 C 210.966 -3.56845 0.19911 0
M  V30 2282 S 212.525 -4.38289 -0.211684 0
M  V30 2283 H 209.343 -0.706954 0.0757479 0
M  V30 2284 H 211.945 -1.75027 0.870965 0
M  V30 2285 H 210.649 -3.92583 1.1961 0
M  V30 2286 H 210.18 -3.90067 -0.510996 0
M  V30 2287 H 212.195 -4.74583 -1.44863 0
M  V30 2288 N 211.368 -0.403325 -1.52352 0
M  V30 2289 C 212.598 0.17376 -2.05868 0
M  V30 2290 C 213.006 1.39898 -1.27378 0
M  V30 2291 O 212.349 1.80939 -0.31729 0
M  V30 2292 C 212.411 0.594756 -3.54546 0
M  V30 2293 C 212.075 -0.518926 -4.54044 0
M  V30 2294 C 213.072 -1.3807 -5.01231 0
M  V30 2295 C 210.757 -0.689961 -4.97539 0
M  V30 2296 C 212.751 -2.39852 -5.90551 0
M  V30 2297 C 210.438 -1.71109 -5.86656 0
M  V30 2298 C 211.436 -2.56378 -6.33056 0
M  V30 2299 O 211.124 -3.56743 -7.20409 0
M  V30 2300 H 210.856 0.0264951 -0.675481 0
M  V30 2301 H 213.41 -0.571179 -1.97299 0
M  V30 2302 H 211.64 1.39189 -3.60782 0
M  V30 2303 H 213.329 1.0991 -3.90736 0
M  V30 2304 H 214.095 -1.25994 -4.68349 0
M  V30 2305 H 209.974 -0.035939 -4.60986 0
M  V30 2306 H 213.518 -3.06441 -6.26689 0
M  V30 2307 H 209.415 -1.83218 -6.18952 0
M  V30 2308 H 210.183 -3.52918 -7.38506 0
M  V30 2309 N 212.846 1.57033 -0.133567 0
M  V30 2310 C 214.071 2.00475 0.531477 0
M  V30 2311 C 214.496 1.01291 1.58499 0
M  V30 2312 O 213.854 -0.0133279 1.81295 0
M  V30 2313 C 213.902 3.42729 1.12113 0
M  V30 2314 O 213.006 3.46498 2.23636 0
M  V30 2315 H 212.347 0.650876 0.131362 0
M  V30 2316 H 214.877 2.03344 -0.22634 0
M  V30 2317 H 214.887 3.81246 1.4531 0
M  V30 2318 H 213.562 4.14428 0.349557 0
M  V30 2319 H 212.139 3.19811 1.91769 0
M  V30 2320 N 214.325 -0.140222 1.56975 0
M  V30 2321 C 215.272 -1.17292 1.98774 0
M  V30 2322 C 216.242 -1.4232 0.856408 0
M  V30 2323 O 217.427 -1.54541 1.119 0
M  V30 2324 C 214.567 -2.49973 2.37923 0
M  V30 2325 C 213.68 -2.32062 3.64378 0
M  V30 2326 C 212.815 -3.57825 3.926 0
M  V30 2327 C 211.854 -3.3498 5.12303 0
M  V30 2328 N 210.991 -4.52891 5.36502 0
M  V30 2329 H 215.831 -0.809472 2.86795 0
M  V30 2330 H 213.368 -0.388237 1.41884 0
M  V30 2331 H 215.326 -3.27346 2.58652 0
M  V30 2332 H 213.956 -2.84252 1.52972 0
M  V30 2333 H 213.008 -1.45711 3.51387 0
M  V30 2334 H 214.32 -2.11145 4.51906 0
M  V30 2335 H 213.474 -4.43624 4.13863 0
M  V30 2336 H 212.213 -3.81753 3.03506 0
M  V30 2337 H 211.218 -2.4757 4.90906 0
M  V30 2338 H 212.443 -3.12444 6.02956 0
M  V30 2339 H 210.389 -4.76979 4.50363 0
M  V30 2340 H 210.306 -4.35001 6.18312 0
M  V30 2341 H 211.574 -5.39884 5.62268 0
M  V30 2342 N 215.803 -1.52179 -0.40978 0
M  V30 2343 C 216.751 -1.76086 -1.51975 0
M  V30 2344 C 217.745 -0.627964 -1.57331 0
M  V30 2345 O 218.951 -0.809993 -1.60745 0
M  V30 2346 H 215.326 -0.556829 -0.505416 0
M  V30 2347 H 217.297 -2.69077 -1.28996 0
M  V30 2348 C 216.046 -1.92799 -2.8935 0
M  V30 2349 H 215.369 -2.79392 -2.85972 0
M  V30 2350 H 216.809 -2.13527 -3.66309 0
M  V30 2351 C 215.268 -0.694923 -3.29655 0
M  V30 2352 O 215.798 0.13751 -4.01465 0
M  V30 2353 N 214.004 -0.53101 -2.85707 0
M  V30 2354 H 213.551 -1.20952 -2.27439 0
M  V30 2355 H 213.509 0.292718 -3.13034 0
M  V30 2356 N 217.281 0.66697 -1.42791 0
M  V30 2357 C 218.229 1.80157 -1.47127 0
M  V30 2358 C 219.223 1.65825 -0.346199 0
M  V30 2359 O 220.429 1.72338 -0.519572 0
M  V30 2360 H 216.804 0.594158 -0.460956 0
M  V30 2361 H 218.775 1.73619 -2.42692 0
M  V30 2362 C 217.524 3.18351 -1.39813 0
M  V30 2363 H 216.847 3.3001 -2.25684 0
M  V30 2364 H 218.287 3.97736 -1.46908 0
M  V30 2365 C 216.746 3.36707 -0.11391 0
M  V30 2366 O 217.276 3.93027 0.830241 0
M  V30 2367 N 215.482 2.90586 -0.0285295 0
M  V30 2368 H 215.029 2.4494 -0.79764 0
M  V30 2369 H 214.987 3.03245 0.830063 0
M  V30 2370 N 218.759 1.29093 0.90403 0
M  V30 2371 C 220.008 1.16187 1.64874 0
M  V30 2372 C 220.321 -0.286742 1.93487 0
M  V30 2373 O 221.527 -0.537062 2.66135 0
M  V30 2374 C 219.983 2.03177 2.97064 0
M  V30 2375 C 219.591 3.52836 2.76062 0
M  V30 2376 C 221.335 1.98984 3.74974 0
M  V30 2377 C 219.242 4.31945 4.03952 0
M  V30 2378 H 218.172 0.431246 0.618501 0
M  V30 2379 H 220.823 1.53699 1.00243 0
M  V30 2380 H 219.205 1.5853 3.62883 0
M  V30 2381 H 220.379 4.05507 2.18863 0
M  V30 2382 H 218.694 3.58656 2.11553 0
M  V30 2383 H 221.291 2.55351 4.69787 0
M  V30 2384 H 221.634 0.968815 4.0487 0
M  V30 2385 H 222.167 2.41652 3.15989 0
M  V30 2386 H 218.906 5.34667 3.79225 0
M  V30 2387 H 218.426 3.84045 4.60727 0
M  V30 2388 H 220.105 4.42379 4.72133 0
M  V30 2389 N 220.237 -1.11381 1.11499 0
M  V30 2390 C 221.648 -1.6465 0.880191 0
M  V30 2391 C 221.999 -1.87199 -0.587434 0
M  V30 2392 O 221.124 -1.60667 -1.44966 0
M  V30 2393 C 221.719 -2.99105 1.59128 0
M  V30 2394 C 220.278 -3.49279 1.40289 0
M  V30 2395 C 219.425 -2.24077 1.63354 0
M  V30 2396 H 222.376 -0.950123 1.27116 0
M  V30 2397 H 222.397 -3.66107 1.03664 0
M  V30 2398 H 221.909 -2.82661 2.65941 0
M  V30 2399 H 220.01 -3.70887 0.356888 0
M  V30 2400 H 220.123 -4.2803 2.15238 0
M  V30 2401 H 218.487 -2.31733 1.05698 0
M  V30 2402 H 219.27 -2.10175 2.71443 0
M  V30 2403 N 221.715 -0.905404 -1.28997 0
M  V30 2404 C 222.945 -0.549049 -1.99171 0
M  V30 2405 C 223.353 0.87203 -1.67906 0
M  V30 2406 O 222.696 1.58796 -0.923561 0
M  V30 2407 C 222.758 -0.668306 -3.53234 0
M  V30 2408 C 222.422 -2.0574 -4.08069 0
M  V30 2409 C 223.419 -3.0292 -4.22534 0
M  V30 2410 C 221.104 -2.36833 -4.42962 0
M  V30 2411 C 223.098 -4.29314 -4.71135 0
M  V30 2412 C 220.785 -3.63467 -4.91258 0
M  V30 2413 C 221.783 -4.59522 -5.053 0
M  V30 2414 O 221.471 -5.83907 -5.52546 0
M  V30 2415 H 221.203 -0.208784 -0.64295 0
M  V30 2416 H 223.757 -1.21836 -1.65363 0
M  V30 2417 H 221.987 0.0580547 -3.86656 0
M  V30 2418 H 223.676 -0.320273 -4.04634 0
M  V30 2419 H 224.442 -2.80216 -3.95859 0
M  V30 2420 H 220.321 -1.62824 -4.31288 0
M  V30 2421 H 223.865 -5.04293 -4.8201 0
M  V30 2422 H 219.762 -3.86 -5.17372 0
M  V30 2423 H 220.53 -5.86578 -5.70849 0
M  V30 2424 N 223.193 1.4272 -0.668489 0
M  V30 2425 C 224.44 2.01624 -0.18814 0
M  V30 2426 C 224.768 1.5282 1.20317 0
M  V30 2427 O 224.023 0.718323 1.8204 0
M  V30 2428 C 224.322 3.57021 -0.164499 0
M  V30 2429 C 223.988 4.25232 -1.49962 0
M  V30 2430 C 222.65 4.4358 -1.8652 0
M  V30 2431 C 225.002 4.63727 -2.37921 0
M  V30 2432 C 222.33 4.97694 -3.10674 0
M  V30 2433 C 224.682 5.19218 -3.6138 0
M  V30 2434 C 223.346 5.3578 -3.98115 0
M  V30 2435 H 222.616 0.737795 -0.0688454 0
M  V30 2436 H 225.263 1.70991 -0.862225 0
M  V30 2437 H 223.568 3.87285 0.593079 0
M  V30 2438 H 225.265 4.00372 0.224271 0
M  V30 2439 H 221.855 4.11306 -1.20522 0
M  V30 2440 H 226.039 4.4923 -2.10964 0
M  V30 2441 H 221.295 5.08702 -3.39164 0
M  V30 2442 H 225.469 5.4799 -4.29743 0
M  V30 2443 H 223.096 5.77475 -4.94395 0
M  V30 2444 N 224.671 0.411399 1.52136 0
M  V30 2445 C 225.581 -0.419774 2.30814 0
M  V30 2446 C 226.597 -1.0515 1.38634 0
M  V30 2447 O 227.773 -1.05252 1.71709 0
M  V30 2448 C 224.838 -1.52019 3.11594 0
M  V30 2449 C 223.899 -0.91129 4.19516 0
M  V30 2450 C 223.132 -1.95927 4.96436 0
M  V30 2451 O 223.355 -3.17775 4.73683 0
M  V30 2452 O 222.289 -1.56423 5.81219 0
M  V30 2453 H 226.115 0.221805 3.02889 0
M  V30 2454 H 223.7 0.174547 1.48377 0
M  V30 2455 H 225.582 -2.15898 3.61892 0
M  V30 2456 H 224.257 -2.14633 2.42311 0
M  V30 2457 H 223.164 -0.235157 3.7336 0
M  V30 2458 H 224.497 -0.32904 4.91099 0
M  V30 2459 N 226.149 -1.5696 0.141893 0
M  V30 2460 C 227.377 -2.00322 -0.517579 0
M  V30 2461 C 227.792 -1.02193 -1.58752 0
M  V30 2462 O 227.149 -0.0181619 -1.82491 0
M  V30 2463 C 227.2 -3.43618 -1.12289 0
M  V30 2464 O 226.921 -4.37995 -0.0956929 0
M  V30 2465 C 228.422 -4.02231 -1.86347 0
M  V30 2466 H 225.642 -0.657243 -0.135177 0
M  V30 2467 H 228.186 -2.03146 0.234973 0
M  V30 2468 H 226.341 -3.41662 -1.82609 0
M  V30 2469 H 226.755 -5.21729 -0.538469 0
M  V30 2470 H 228.229 -5.04509 -2.23997 0
M  V30 2471 H 228.706 -3.42655 -2.74744 0
M  V30 2472 H 229.312 -4.07802 -1.20737 0
M  V30 2473 N 227.627 0.131896 -1.57047 0
M  V30 2474 C 228.852 0.860418 -1.8871 0
M  V30 2475 C 229.277 1.73251 -0.73251 0
M  V30 2476 O 228.635 1.785 0.317429 0
M  V30 2477 C 228.683 1.68047 -3.19049 0
M  V30 2478 O 227.787 2.7862 -3.04047 0
M  V30 2479 H 227.128 0.238743 -0.619595 0
M  V30 2480 H 229.658 0.118169 -2.04258 0
M  V30 2481 H 229.668 2.07238 -3.51449 0
M  V30 2482 H 228.343 1.04018 -4.02682 0
M  V30 2483 H 226.92 2.42726 -2.83088 0
M  V30 2484 N 229.106 1.52395 0.401703 0
M  V30 2485 C 230.069 1.75636 1.47257 0
M  V30 2486 C 231.069 0.62628 1.48103 0
M  V30 2487 O 232.259 0.894227 1.49497 0
M  V30 2488 C 229.391 1.84553 2.86624 0
M  V30 2489 H 230.584 2.71241 1.27938 0
M  V30 2490 H 228.137 1.42923 0.632662 0
M  V30 2491 H 228.872 0.908882 3.11303 0
M  V30 2492 H 228.657 2.66715 2.87412 0
M  V30 2493 H 230.147 2.04251 3.64241 0
M  V30 2494 N 230.584 -0.659388 1.43143 0
M  V30 2495 C 231.531 -1.77249 1.47822 0
M  V30 2496 C 232.501 -1.62818 0.328558 0
M  V30 2497 O 233.686 -1.83151 0.534838 0
M  V30 2498 C 230.826 -3.15371 1.40126 0
M  V30 2499 C 229.939 -3.4098 2.65249 0
M  V30 2500 C 229.074 -4.68915 2.49584 0
M  V30 2501 C 228.113 -4.87608 3.70006 0
M  V30 2502 N 227.25 -6.06796 3.53189 0
M  V30 2503 H 232.09 -1.72584 2.42938 0
M  V30 2504 H 229.627 -0.842297 1.20598 0
M  V30 2505 H 231.585 -3.9521 1.33659 0
M  V30 2506 H 230.215 -3.19121 0.485964 0
M  V30 2507 H 229.267 -2.55282 2.8202 0
M  V30 2508 H 230.579 -3.50681 3.54717 0
M  V30 2509 H 229.733 -5.56871 2.4079 0
M  V30 2510 H 228.472 -4.61524 1.5763 0
M  V30 2511 H 227.477 -3.9809 3.79215 0
M  V30 2512 H 228.702 -4.96834 4.62961 0
M  V30 2513 H 226.648 -6.00549 2.63965 0
M  V30 2514 H 226.565 -6.17428 4.36255 0
M  V30 2515 H 227.833 -6.9739 3.48236 0
M  V30 2516 N 232.062 -1.29571 -0.897171 0
M  V30 2517 C 232.972 -1.16808 -2.03453 0
M  V30 2518 C 233.988 -0.0907471 -1.73763 0
M  V30 2519 O 235.164 -0.303312 -1.99103 0
M  V30 2520 C 232.229 -0.848264 -3.36163 0
M  V30 2521 C 231.29 -2.0097 -3.79354 0
M  V30 2522 C 230.523 -1.70505 -5.05731 0
M  V30 2523 O 230.746 -0.62718 -5.66941 0
M  V30 2524 O 229.68 -2.5538 -5.45036 0
M  V30 2525 H 233.506 -2.12325 -2.17144 0
M  V30 2526 H 231.091 -1.09047 -1.02123 0
M  V30 2527 H 232.973 -0.684581 -4.15802 0
M  V30 2528 H 231.648 0.0771071 -3.23608 0
M  V30 2529 H 230.555 -2.22863 -3.00471 0
M  V30 2530 H 231.888 -2.91636 -3.96496 0
M  V30 2531 N 233.54 1.10788 -1.12088 0
M  V30 2532 C 234.503 2.15207 -0.788577 0
M  V30 2533 C 235.503 1.59609 0.195317 0
M  V30 2534 O 236.693 1.74174 -0.0300193 0
M  V30 2535 C 233.825 3.4047 -0.171174 0
M  V30 2536 H 235.018 2.46116 -1.71368 0
M  V30 2537 H 232.571 1.26089 -0.923652 0
M  V30 2538 H 233.306 3.15176 0.763832 0
M  V30 2539 H 233.091 3.82109 -0.879514 0
M  V30 2540 H 234.581 4.17576 0.04496 0
M  V30 2541 N 235.018 0.912232 1.28515 0
M  V30 2542 C 236.267 0.540504 1.94323 0
M  V30 2543 C 236.58 -0.920044 1.72611 0
M  V30 2544 O 237.786 -1.39986 2.32629 0
M  V30 2545 C 236.242 0.915803 3.48053 0
M  V30 2546 C 235.85 2.39598 3.78546 0
M  V30 2547 C 237.594 0.614588 4.20027 0
M  V30 2548 C 235.501 2.71148 5.25578 0
M  V30 2549 H 234.431 0.198418 0.727424 0
M  V30 2550 H 237.082 1.11094 1.46049 0
M  V30 2551 H 235.464 0.274168 3.9505 0
M  V30 2552 H 236.638 3.08422 3.42364 0
M  V30 2553 H 234.953 2.66749 3.1974 0
M  V30 2554 H 237.55 0.827002 5.28266 0
M  V30 2555 H 237.893 -0.447531 4.13887 0
M  V30 2556 H 238.426 1.21462 3.78803 0
M  V30 2557 H 235.165 3.76207 5.36794 0
M  V30 2558 H 234.685 2.0696 5.62963 0
M  V30 2559 H 236.364 2.58072 5.93302 0
M  V30 2560 N 236.496 -1.42363 0.676048 0
M  V30 2561 C 237.444 -2.32596 -0.0131507 0
M  V30 2562 C 238.438 -1.49891 -0.789238 0
M  V30 2563 O 239.644 -1.65955 -0.697061 0
M  V30 2564 H 236.019 -0.751647 -0.0230481 0
M  V30 2565 H 237.99 -2.88421 0.765243 0
M  V30 2566 C 236.739 -3.34479 -0.949702 0
M  V30 2567 H 236.062 -3.98158 -0.361938 0
M  V30 2568 H 237.502 -4.00199 -1.4006 0
M  V30 2569 C 235.961 -2.66838 -2.05667 0
M  V30 2570 O 236.491 -2.50124 -3.14326 0
M  V30 2571 N 234.697 -2.25843 -1.82875 0
M  V30 2572 H 234.244 -2.39637 -0.945085 0
M  V30 2573 H 234.202 -1.80918 -2.5713 0
M  V30 2574 N 237.974 -0.419461 -1.51915 0
M  V30 2575 C 239.22 0.153166 -2.02221 0
M  V30 2576 C 239.553 1.43907 -1.30401 0
M  V30 2577 O 238.828 1.90055 -0.413438 0
M  V30 2578 C 239.111 0.390291 -3.57979 0
M  V30 2579 C 238.964 -0.913014 -4.40436 0
M  V30 2580 C 240.283 1.16794 -4.2432 0
M  V30 2581 H 237.402 0.0541924 -0.735005 0
M  V30 2582 H 240.044 -0.554955 -1.81715 0
M  V30 2583 H 238.194 0.993491 -3.75582 0
M  V30 2584 H 239.866 -1.54882 -4.34522 0
M  V30 2585 H 238.109 -1.52168 -4.06236 0
M  V30 2586 H 238.78 -0.701361 -5.47526 0
M  V30 2587 H 241.256 0.657161 -4.10878 0
M  V30 2588 H 240.132 1.3026 -5.3322 0
M  V30 2589 H 240.393 2.19132 -3.83971 0
M  V30 2590 N 239.452 1.56882 -0.150215 0
M  V30 2591 C 240.362 2.20494 0.801222 0
M  V30 2592 C 241.378 1.19019 1.26927 0
M  V30 2593 O 242.554 1.51607 1.32579 0
M  V30 2594 C 239.619 2.81659 2.02161 0
M  V30 2595 C 238.68 3.9827 1.60249 0
M  V30 2596 C 237.913 4.56508 2.7647 0
M  V30 2597 O 238.136 4.13627 3.92771 0
M  V30 2598 O 237.07 5.46719 2.51757 0
M  V30 2599 H 240.896 3.02315 0.289717 0
M  V30 2600 H 238.481 1.49202 0.0769684 0
M  V30 2601 H 240.363 3.20522 2.73576 0
M  V30 2602 H 239.038 2.02849 2.52258 0
M  V30 2603 H 237.945 3.64117 0.858477 0
M  V30 2604 H 239.278 4.78609 1.14864 0
M  V30 2605 N 240.93 -0.123565 1.57115 0
M  V30 2606 C 241.862 -1.17739 1.96648 0
M  V30 2607 C 242.875 -1.37906 0.865201 0
M  V30 2608 O 244.064 -1.37062 1.14351 0
M  V30 2609 C 241.164 -2.53821 2.24562 0
M  V30 2610 C 240.337 -2.54317 3.55867 0
M  V30 2611 C 239.396 -3.72112 3.72047 0
M  V30 2612 O 238.422 -3.55907 4.44206 0
M  V30 2613 N 239.624 -4.90498 3.10471 0
M  V30 2614 H 242.389 -0.841147 2.87654 0
M  V30 2615 H 239.95 -0.31289 1.58848 0
M  V30 2616 H 241.942 -3.31175 2.32606 0
M  V30 2617 H 240.512 -2.79645 1.39705 0
M  V30 2618 H 239.732 -1.62711 3.59053 0
M  V30 2619 H 241.02 -2.51701 4.42181 0
M  V30 2620 H 240.418 -5.06567 2.51806 0
M  V30 2621 H 238.975 -5.65544 3.24043 0
M  V30 2622 N 242.408 -1.52605 -0.393616 0
M  V30 2623 C 243.371 -1.76415 -1.46323 0
M  V30 2624 C 244.371 -0.634126 -1.47768 0
M  V30 2625 O 245.561 -0.902142 -1.4902 0
M  V30 2626 C 242.693 -1.8607 -2.85641 0
M  V30 2627 H 243.886 -2.71916 -1.26498 0
M  V30 2628 H 241.439 -1.43257 -0.625073 0
M  V30 2629 H 242.174 -0.925378 -3.10817 0
M  V30 2630 H 241.959 -2.68235 -2.85993 0
M  V30 2631 H 243.449 -2.06179 -3.63153 0
M  V30 2632 N 243.887 0.651787 -1.4349 0
M  V30 2633 C 245.134 1.41167 -1.45183 0
M  V30 2634 C 245.462 1.94349 -0.0766601 0
M  V30 2635 O 244.717 1.72804 0.918555 0
M  V30 2636 C 245.016 2.60914 -2.44251 0
M  V30 2637 C 244.682 2.26142 -3.9009 0
M  V30 2638 C 243.344 2.16371 -4.2981 0
M  V30 2639 C 245.696 1.98334 -4.81989 0
M  V30 2640 C 243.024 1.7695 -5.5938 0
M  V30 2641 C 245.376 1.6041 -6.11924 0
M  V30 2642 C 244.04 1.49166 -6.5062 0
M  V30 2643 H 243.31 0.516566 -0.531263 0
M  V30 2644 H 245.957 0.741099 -1.76579 0
M  V30 2645 H 244.262 3.3311 -2.06265 0
M  V30 2646 H 245.959 3.19127 -2.42815 0
M  V30 2647 H 242.549 2.34658 -3.58655 0
M  V30 2648 H 246.733 2.04803 -4.52072 0
M  V30 2649 H 241.989 1.66831 -5.88198 0
M  V30 2650 H 246.163 1.37925 -6.82605 0
M  V30 2651 H 243.79 1.1839 -7.50925 0
M  V30 2652 N 245.365 1.30045 0.890287 0
M  V30 2653 C 246.297 1.11786 2.00091 0
M  V30 2654 C 247.31 0.0626307 1.62679 0
M  V30 2655 O 248.499 0.308112 1.75821 0
M  V30 2656 C 245.599 0.681527 3.31977 0
M  V30 2657 C 244.772 1.81735 3.97858 0
M  V30 2658 C 243.831 1.37045 5.08041 0
M  V30 2659 O 242.857 2.07677 5.29961 0
M  V30 2660 N 244.059 0.246525 5.79976 0
M  V30 2661 H 246.824 2.07441 2.16306 0
M  V30 2662 H 244.385 1.2211 1.06305 0
M  V30 2663 H 246.377 0.365675 4.03045 0
M  V30 2664 H 244.947 -0.182828 3.12065 0
M  V30 2665 H 244.167 2.30159 3.20032 0
M  V30 2666 H 245.455 2.57865 4.38615 0
M  V30 2667 H 244.853 -0.34215 5.64664 0
M  V30 2668 H 243.41 -0.00990438 6.51799 0
M  V30 2669 N 246.843 -1.10192 1.12674 0
M  V30 2670 C 248.071 -1.85983 0.906527 0
M  V30 2671 C 248.486 -1.80783 -0.544333 0
M  V30 2672 O 247.843 -1.19834 -1.37645 0
M  V30 2673 C 247.894 -3.34281 1.37618 0
M  V30 2674 O 247.615 -3.39401 2.77017 0
M  V30 2675 C 249.116 -4.26938 1.19325 0
M  V30 2676 H 246.336 -0.587716 0.323775 0
M  V30 2677 H 248.88 -1.39284 1.49734 0
M  V30 2678 H 247.035 -3.78436 0.828539 0
M  V30 2679 H 247.449 -4.31838 2.97684 0
M  V30 2680 H 248.923 -5.29181 1.57071 0
M  V30 2681 H 249.4 -4.38995 0.134097 0
M  V30 2682 H 250.006 -3.8859 1.72852 0
M  V30 2683 N 248.321 -0.919034 -1.28029 0
M  V30 2684 C 249.57 -0.550802 -1.94034 0
M  V30 2685 C 249.883 0.910877 -1.73096 0
M  V30 2686 O 251.089 1.3875 -2.33368 0
M  V30 2687 C 249.545 -0.934249 -3.47563 0
M  V30 2688 C 249.153 -2.41602 -3.7727 0
M  V30 2689 C 250.897 -0.636854 -4.19696 0
M  V30 2690 C 248.804 -2.73932 -5.24133 0
M  V30 2691 H 247.734 -0.202273 -0.726362 0
M  V30 2692 H 250.385 -1.11867 -1.45458 0
M  V30 2693 H 248.767 -0.295115 -3.94899 0
M  V30 2694 H 249.941 -3.10233 -3.40723 0
M  V30 2695 H 248.256 -2.68441 -3.18321 0
M  V30 2696 H 250.853 -0.855005 -5.2782 0
M  V30 2697 H 251.196 0.425575 -4.14119 0
M  V30 2698 H 251.729 -1.23469 -3.78154 0
M  V30 2699 H 248.468 -3.79049 -5.34792 0
M  V30 2700 H 247.988 -2.09942 -5.61858 0
M  V30 2701 H 249.667 -2.61215 -5.91925 0
M  V30 2702 N 249.799 1.42003 -0.683588 0
M  V30 2703 C 250.762 2.29191 -0.0198243 0
M  V30 2704 C 251.762 1.43773 0.72013 0
M  V30 2705 O 252.952 1.65061 0.556815 0
M  V30 2706 C 250.084 3.26435 0.982487 0
M  V30 2707 H 251.277 2.8938 -0.787345 0
M  V30 2708 H 248.83 1.49789 -0.446418 0
M  V30 2709 H 249.565 2.71203 1.77819 0
M  V30 2710 H 249.35 3.89449 0.455182 0
M  V30 2711 H 250.84 3.918 1.44508 0
M  V30 2712 N 251.277 0.427512 1.51691 0
M  V30 2713 C 252.693 0.0792977 1.59403 0
M  V30 2714 C 252.893 -1.41035 1.43914 0
M  V30 2715 O 251.949 -2.17922 1.27539 0
M  V30 2716 C 253.262 0.590636 2.94842 0
M  V30 2717 C 254.81 0.550215 3.08126 0
M  V30 2718 C 255.285 1.03836 4.46074 0
M  V30 2719 N 256.776 0.995943 4.52366 0
M  V30 2720 C 257.511 1.34463 5.57411 0
M  V30 2721 N 257.007 1.76569 6.69922 0
M  V30 2722 N 258.8 1.26343 5.47717 0
M  V30 2723 H 250.951 1.39687 1.60004 0
M  V30 2724 H 253.214 0.575003 0.753708 0
M  V30 2725 H 252.92 1.63251 3.11516 0
M  V30 2726 H 252.794 0.0102061 3.77199 0
M  V30 2727 H 255.181 -0.482654 2.91126 0
M  V30 2728 H 255.262 1.16693 2.27632 0
M  V30 2729 H 254.906 2.06965 4.63819 0
M  V30 2730 H 254.836 0.398286 5.25092 0
M  V30 2731 H 257.327 0.68661 3.7161 0
M  V30 2732 H 257.64 2.01438 7.46085 0
M  V30 2733 H 255.985 1.80488 6.71155 0
M  V30 2734 H 259.176 0.933209 4.58703 0
M  V30 2735 H 259.349 1.53846 6.29472 0
M  V30 2736 N 252.755 -1.56801 0.158532 0
M  V30 2737 C 253.703 -2.18638 -0.793729 0
M  V30 2738 C 254.697 -1.14669 -1.24689 0
M  V30 2739 O 255.903 -1.32895 -1.21403 0
M  V30 2740 H 252.278 -0.700226 -0.274204 0
M  V30 2741 H 254.249 -2.97367 -0.248095 0
M  V30 2742 C 252.998 -2.83139 -2.0181 0
M  V30 2743 H 252.321 -3.62863 -1.67841 0
M  V30 2744 H 253.761 -3.29894 -2.66357 0
M  V30 2745 C 252.22 -1.82244 -2.83353 0
M  V30 2746 O 252.75 -1.3 -3.80083 0
M  V30 2747 N 250.956 -1.51288 -2.48114 0
M  V30 2748 H 250.503 -1.93964 -1.69516 0
M  V30 2749 H 250.461 -0.840296 -3.02963 0
M  V30 2750 N 254.233 0.115231 -1.57178 0
M  V30 2751 C 255.196 1.12526 -1.99676 0
M  V30 2752 C 256.196 1.34095 -0.88742 0
M  V30 2753 O 257.386 1.30548 -1.15337 0
M  V30 2754 C 254.518 2.4789 -2.34015 0
M  V30 2755 H 255.711 0.759912 -2.90113 0
M  V30 2756 H 253.264 0.359648 -1.52106 0
M  V30 2757 H 253.999 2.89339 -1.4647 0
M  V30 2758 H 253.784 2.33588 -3.14927 0
M  V30 2759 H 255.274 3.20575 -2.67622 0
M  V30 2760 N 255.711 1.52812 0.385517 0
M  V30 2761 C 256.641 1.80808 1.47752 0
M  V30 2762 C 257.622 0.660318 1.5676 0
M  V30 2763 O 258.807 0.908246 1.71652 0
M  V30 2764 C 255.937 1.98008 2.85324 0
M  V30 2765 C 254.891 3.13709 2.91154 0
M  V30 2766 C 254.217 3.16169 4.31209 0
M  V30 2767 C 255.517 4.52709 2.60483 0
M  V30 2768 H 257.211 2.72253 1.24573 0
M  V30 2769 H 254.757 1.31003 0.597839 0
M  V30 2770 H 256.71 2.16176 3.61726 0
M  V30 2771 H 255.434 1.03255 3.09848 0
M  V30 2772 H 254.093 2.95329 2.17201 0
M  V30 2773 H 253.741 2.19092 4.52778 0
M  V30 2774 H 253.441 3.93894 4.36029 0
M  V30 2775 H 254.965 3.36496 5.09512 0
M  V30 2776 H 256.379 4.71173 3.26602 0
M  V30 2777 H 254.776 5.32528 2.76648 0
M  V30 2778 H 255.846 4.59186 1.55809 0
M  V30 2779 N 257.189 -0.644168 1.43834 0
M  V30 2780 C 258.136 -1.75671 1.49694 0
M  V30 2781 C 259.106 -1.6246 0.345809 0
M  V30 2782 O 260.291 -1.82573 0.554234 0
M  V30 2783 C 257.431 -3.13867 1.43463 0
M  V30 2784 C 256.544 -3.38147 2.6885 0
M  V30 2785 C 255.679 -4.66241 2.54544 0
M  V30 2786 C 254.718 -4.83657 3.75157 0
M  V30 2787 N 253.855 -6.03016 3.59605 0
M  V30 2788 H 258.695 -1.69998 2.44754 0
M  V30 2789 H 256.232 -0.829458 1.21484 0
M  V30 2790 H 258.19 -3.9377 1.37843 0
M  V30 2791 H 256.82 -3.18588 0.519783 0
M  V30 2792 H 255.872 -2.52276 2.84712 0
M  V30 2793 H 257.184 -3.46899 3.58417 0
M  V30 2794 H 256.338 -5.54285 2.46683 0
M  V30 2795 H 255.077 -4.59826 1.62516 0
M  V30 2796 H 254.082 -3.94046 3.83416 0
M  V30 2797 H 255.307 -4.91896 4.68204 0
M  V30 2798 H 253.253 -5.97715 2.7032 0
M  V30 2799 H 253.17 -6.12766 4.42779 0
M  V30 2800 H 254.438 -6.93657 3.55613 0
M  V30 2801 N 258.668 -1.30515 -0.883378 0
M  V30 2802 C 259.6 -1.12846 -1.99496 0
M  V30 2803 C 260.613 -0.0712571 -1.62644 0
M  V30 2804 O 261.802 -0.317432 -1.75655 0
M  V30 2805 C 258.902 -0.699123 -3.3161 0
M  V30 2806 C 258.075 -1.83842 -3.96889 0
M  V30 2807 C 257.134 -1.39737 -5.07307 0
M  V30 2808 O 256.16 -2.10485 -5.28852 0
M  V30 2809 N 257.362 -0.277279 -5.79837 0
M  V30 2810 H 260.127 -2.08585 -2.15203 0
M  V30 2811 H 257.688 -1.22672 -1.05656 0
M  V30 2812 H 259.68 -0.387044 -4.02845 0
M  V30 2813 H 258.25 0.166276 -3.12157 0
M  V30 2814 H 257.47 -2.31853 -3.18807 0
M  V30 2815 H 258.758 -2.60187 -4.37241 0
M  V30 2816 H 258.156 0.3122 -5.64838 0
M  V30 2817 H 256.713 -0.0246623 -6.51795 0
M  V30 2818 N 260.146 1.09593 -1.13257 0
M  V30 2819 C 261.056 2.19739 -0.821691 0
M  V30 2820 C 262.072 1.72926 0.19302 0
M  V30 2821 O 263.248 2.01385 0.0244895 0
M  V30 2822 C 260.313 3.45482 -0.290333 0
M  V30 2823 C 259.374 4.06985 -1.36607 0
M  V30 2824 C 258.607 5.26726 -0.859975 0
M  V30 2825 O 258.83 5.69594 0.303082 0
M  V30 2826 O 257.764 5.7931 -1.63351 0
M  V30 2827 H 261.59 2.48781 -1.74189 0
M  V30 2828 H 259.175 1.18496 -0.909894 0
M  V30 2829 H 261.057 4.214 0.000674022 0
M  V30 2830 H 259.732 3.18047 0.602306 0
M  V30 2831 H 258.639 3.32712 -1.71037 0
M  V30 2832 H 259.972 4.38643 -2.23279 0
M  V30 2833 N 261.624 0.925811 1.2754 0
M  V30 2834 C 262.852 0.581509 1.9856 0
M  V30 2835 C 263.267 -0.840041 1.69082 0
M  V30 2836 O 262.624 -1.55805 0.950312 0
M  V30 2837 C 262.675 0.795589 3.52637 0
M  V30 2838 O 262.396 2.16121 3.81082 0
M  V30 2839 C 263.897 0.459744 4.4091 0
M  V30 2840 H 261.117 0.220538 0.633722 0
M  V30 2841 H 263.661 1.24232 1.6244 0
M  V30 2842 H 261.816 0.18161 3.86974 0
M  V30 2843 H 262.23 2.2098 4.75676 0
M  V30 2844 H 263.704 0.660244 5.48037 0
M  V30 2845 H 264.181 -0.604625 4.35018 0
M  V30 2846 H 264.787 1.05178 4.12089 0
M  V30 2847 N 263.102 -1.41638 0.69111 0
M  V30 2848 C 264.012 -2.34588 0.0233487 0
M  V30 2849 C 265.028 -1.55987 -0.770984 0
M  V30 2850 O 266.204 -1.88486 -0.709569 0
M  V30 2851 C 263.269 -3.34684 -0.904851 0
M  V30 2852 C 262.33 -4.29176 -0.103225 0
M  V30 2853 C 261.563 -5.2449 -0.987216 0
M  V30 2854 O 261.786 -5.2514 -2.22674 0
M  V30 2855 O 260.72 -6.00295 -0.439281 0
M  V30 2856 H 264.546 -2.93261 0.789416 0
M  V30 2857 H 262.131 -1.42417 0.45142 0
M  V30 2858 H 264.013 -3.96133 -1.43724 0
M  V30 2859 H 262.688 -2.78461 -1.65049 0
M  V30 2860 H 261.595 -3.71089 0.473655 0
M  V30 2861 H 262.928 -4.88484 0.60365 0
M  V30 2862 N 264.58 -0.43555 -1.51462 0
M  V30 2863 C 265.826 0.131709 -2.02372 0
M  V30 2864 C 266.159 1.42516 -1.3192 0
M  V30 2865 O 265.434 1.89606 -0.433573 0
M  V30 2866 C 265.717 0.352301 -3.58373 0
M  V30 2867 C 265.57 -0.959676 -4.39443 0
M  V30 2868 C 266.889 1.12286 -4.25535 0
M  V30 2869 H 264.008 0.0463936 -0.735538 0
M  V30 2870 H 266.65 -0.574197 -1.81116 0
M  V30 2871 H 264.8 0.9536 -3.76615 0
M  V30 2872 H 266.472 -1.59482 -4.32855 0
M  V30 2873 H 264.715 -1.56468 -4.04599 0
M  V30 2874 H 265.386 -0.759394 -5.46752 0
M  V30 2875 H 267.862 0.613545 -4.11552 0
M  V30 2876 H 266.738 1.24598 -5.34571 0
M  V30 2877 H 266.999 2.15048 -3.86273 0
M  V30 2878 N 266.058 1.56714 -0.166846 0
M  V30 2879 C 266.968 2.21331 0.777791 0
M  V30 2880 C 267.984 1.20358 1.25658 0
M  V30 2881 O 269.16 1.53005 1.30964 0
M  V30 2882 C 266.225 2.83787 1.99163 0
M  V30 2883 C 265.286 3.99947 1.56016 0
M  V30 2884 C 264.519 4.59415 2.71613 0
M  V30 2885 O 264.742 4.17769 3.88362 0
M  V30 2886 O 263.676 5.49359 2.45945 0
M  V30 2887 H 267.502 3.02605 0.257636 0
M  V30 2888 H 265.087 1.49275 0.0611393 0
M  V30 2889 H 266.969 3.23405 2.70161 0
M  V30 2890 H 265.644 2.05513 2.50092 0
M  V30 2891 H 264.551 3.65007 0.819809 0
M  V30 2892 H 265.884 4.79801 1.09782 0
M  V30 2893 N 267.536 -0.106894 1.57237 0
M  V30 2894 C 268.466 -1.13148 2.04254 0
M  V30 2895 C 269.447 -1.42476 0.929224 0
M  V30 2896 O 270.632 -1.52709 1.19973 0
M  V30 2897 C 267.762 -2.4545 2.45706 0
M  V30 2898 C 266.716 -2.30558 3.60592 0
M  V30 2899 C 266.042 -3.67931 3.87983 0
M  V30 2900 C 267.342 -1.75597 4.91897 0
M  V30 2901 H 269.036 -0.740374 2.90101 0
M  V30 2902 H 266.582 -0.354696 1.39563 0
M  V30 2903 H 268.535 -3.17389 2.77205 0
M  V30 2904 H 267.259 -2.86475 1.56843 0
M  V30 2905 H 265.918 -1.61067 3.29322 0
M  V30 2906 H 265.566 -4.06462 2.96306 0
M  V30 2907 H 265.266 -3.58817 4.65322 0
M  V30 2908 H 266.79 -4.41356 4.21945 0
M  V30 2909 H 268.204 -2.37364 5.21854 0
M  V30 2910 H 266.601 -1.77272 5.73319 0
M  V30 2911 H 267.671 -0.714451 4.79608 0
M  V30 2912 N 269.014 -1.53014 -0.377408 0
M  V30 2913 C 270.244 -1.72265 -1.14054 0
M  V30 2914 C 270.652 -0.44601 -1.83868 0
M  V30 2915 O 269.995 0.590095 -1.73964 0
M  V30 2916 C 270.057 -2.82492 -2.22348 0
M  V30 2917 C 269.721 -4.23233 -1.72402 0
M  V30 2918 C 270.718 -5.05992 -1.19448 0
M  V30 2919 C 268.403 -4.696 -1.78273 0
M  V30 2920 C 270.397 -6.33203 -0.730268 0
M  V30 2921 C 268.084 -5.96792 -1.31464 0
M  V30 2922 C 269.082 -6.78424 -0.789297 0
M  V30 2923 O 268.77 -8.0323 -0.328077 0
M  V30 2924 H 268.502 -0.579873 -0.347453 0
M  V30 2925 H 271.056 -2.00502 -0.445882 0
M  V30 2926 H 269.286 -2.49702 -2.95272 0
M  V30 2927 H 270.975 -2.90034 -2.83963 0
M  V30 2928 H 271.741 -4.71349 -1.14259 0
M  V30 2929 H 267.62 -4.06142 -2.18106 0
M  V30 2930 H 271.164 -6.96868 -0.319542 0
M  V30 2931 H 267.061 -6.30937 -1.36342 0
M  V30 2932 H 267.829 -8.1727 -0.448493 0
M  V30 2933 N 270.492 0.636531 -1.44174 0
M  V30 2934 C 271.44 1.76995 -1.50915 0
M  V30 2935 C 272.434 1.65053 -0.381295 0
M  V30 2936 O 273.64 1.71197 -0.55601 0
M  V30 2937 H 270.015 0.584247 -0.473455 0
M  V30 2938 H 271.986 1.68432 -2.4632 0
M  V30 2939 C 270.735 3.15314 -1.46534 0
M  V30 2940 H 270.058 3.25149 -2.32633 0
M  V30 2941 H 271.498 3.9453 -1.55312 0
M  V30 2942 C 269.957 3.3639 -0.185305 0
M  V30 2943 O 270.487 3.94699 0.746688 0
M  V30 2944 N 268.693 2.9046 -0.0901606 0
M  V30 2945 H 268.24 2.43193 -0.849416 0
M  V30 2946 H 268.198 3.04937 0.765553 0
M  V30 2947 N 271.97 1.30982 0.876444 0
M  V30 2948 C 272.88 1.2003 2.01569 0
M  V30 2949 C 273.896 0.11838 1.73597 0
M  V30 2950 O 275.072 0.33495 1.98595 0
M  V30 2951 C 272.137 0.901637 3.34771 0
M  V30 2952 C 271.198 2.06979 3.76109 0
M  V30 2953 C 270.431 1.78529 5.02954 0
M  V30 2954 O 270.654 0.717296 5.65872 0
M  V30 2955 O 269.588 2.64019 5.40905 0
M  V30 2956 H 273.414 2.15753 2.13739 0
M  V30 2957 H 270.999 1.10658 1.00375 0
M  V30 2958 H 272.881 0.750645 4.1466 0
M  V30 2959 H 271.556 -0.0256141 3.2369 0
M  V30 2960 H 270.463 2.27616 2.96887 0
M  V30 2961 H 271.796 2.97907 3.91807 0
M  V30 2962 N 273.449 -1.08991 1.13837 0
M  V30 2963 C 274.696 -1.81258 0.902882 0
M  V30 2964 C 275.024 -1.85936 -0.570803 0
M  V30 2965 O 274.279 -1.3267 -1.43865 0
M  V30 2966 C 274.578 -3.27042 1.44147 0
M  V30 2967 C 274.244 -3.4249 2.93276 0
M  V30 2968 C 272.906 -3.46414 3.33992 0
M  V30 2969 C 275.258 -3.4666 3.892 0
M  V30 2970 C 272.586 -3.52091 4.69307 0
M  V30 2971 C 274.938 -3.53872 5.24364 0
M  V30 2972 C 273.602 -3.56066 5.646 0
M  V30 2973 H 272.872 -0.663268 0.330388 0
M  V30 2974 H 275.519 -1.28368 1.42105 0
M  V30 2975 H 273.824 -3.82599 0.844097 0
M  V30 2976 H 275.521 -3.81499 1.23528 0
M  V30 2977 H 272.111 -3.40124 2.60794 0
M  V30 2978 H 276.295 -3.42865 3.58828 0
M  V30 2979 H 271.551 -3.52079 4.9985 0
M  V30 2980 H 275.725 -3.56043 5.98503 0
M  V30 2981 H 273.352 -3.60218 6.69438 0
M  V30 2982 N 274.927 -0.932562 -1.27047 0
M  V30 2983 C 276.338 -0.619451 -1.76124 0
M  V30 2984 C 276.689 0.865397 -1.76083 0
M  V30 2985 O 275.814 1.67722 -1.36742 0
M  V30 2986 C 276.409 -1.11771 -3.19832 0
M  V30 2987 C 274.968 -0.855174 -3.66557 0
M  V30 2988 C 274.115 -1.27362 -2.46321 0
M  V30 2989 H 277.066 -1.11181 -1.13245 0
M  V30 2990 H 277.087 -0.46759 -3.77616 0
M  V30 2991 H 276.599 -2.19842 -3.1983 0
M  V30 2992 H 274.7 0.211524 -3.71999 0
M  V30 2993 H 274.813 -1.47613 -4.55793 0
M  V30 2994 H 273.177 -0.692119 -2.45116 0
M  V30 2995 H 273.96 -2.36307 -2.49025 0
M  V30 2996 N 276.405 1.4127 -0.698611 0
M  V30 2997 C 277.315 2.34573 -0.0357891 0
M  V30 2998 C 278.331 1.56393 0.762701 0
M  V30 2999 O 279.507 1.8886 0.699564 0
M  V30 3000 C 276.572 3.35159 0.887089 0
M  V30 3001 C 275.633 4.29225 0.0804634 0
M  V30 3002 C 274.866 5.25006 0.959387 0
M  V30 3003 O 275.089 5.26314 2.19886 0
M  V30 3004 O 274.023 6.00519 0.407439 0
M  V30 3005 H 277.849 2.92838 -0.804957 0
M  V30 3006 H 275.434 1.42175 -0.458966 0
M  V30 3007 H 277.316 3.9689 1.41621 0
M  V30 3008 H 275.991 2.79333 1.6357 0
M  V30 3009 H 274.898 3.70833 -0.493328 0
M  V30 3010 H 276.231 4.88157 -0.629547 0
M  V30 3011 N 277.883 0.443576 1.51229 0
M  V30 3012 C 279.294 -0.0180867 1.86691 0
M  V30 3013 C 279.645 -1.41384 1.36033 0
M  V30 3014 O 278.77 -2.04291 0.713722 0
M  V30 3015 C 279.365 -0.039597 3.38777 0
M  V30 3016 C 277.924 -0.445692 3.73752 0
M  V30 3017 C 277.071 0.357584 2.74985 0
M  V30 3018 H 280.022 0.659138 1.44364 0
M  V30 3019 H 280.043 -0.847761 3.70936 0
M  V30 3020 H 279.555 0.976382 3.75617 0
M  V30 3021 H 277.656 -1.46704 3.42503 0
M  V30 3022 H 277.769 -0.166155 4.78812 0
M  V30 3023 H 276.133 -0.184973 2.54027 0
M  V30 3024 H 276.916 1.37256 3.14668 0
M  V30 3025 N 279.361 -1.56624 0.175154 0
M  V30 3026 C 280.61 -1.96173 -0.468921 0
M  V30 3027 C 280.923 -1.06401 -1.64128 0
M  V30 3028 O 282.129 -1.35648 -2.35185 0
M  V30 3029 C 280.585 -3.48833 -0.885633 0
M  V30 3030 C 280.193 -4.47237 0.261343 0
M  V30 3031 C 281.937 -3.97194 -1.49791 0
M  V30 3032 C 279.844 -5.9114 -0.175214 0
M  V30 3033 H 278.774 -0.732455 -0.178958 0
M  V30 3034 H 281.425 -1.81591 0.263997 0
M  V30 3035 H 279.807 -3.58848 -1.67464 0
M  V30 3036 H 280.981 -4.4894 1.03871 0
M  V30 3037 H 279.296 -4.08956 0.783827 0
M  V30 3038 H 281.893 -5.02167 -1.83665 0
M  V30 3039 H 282.236 -3.40351 -2.39722 0
M  V30 3040 H 282.769 -3.90212 -0.773267 0
M  V30 3041 H 279.508 -6.51865 0.689414 0
M  V30 3042 H 279.028 -5.92735 -0.91786 0
M  V30 3043 H 280.707 -6.44044 -0.617792 0
M  V30 3044 N 280.839 0.0985539 -1.57292 0
M  V30 3045 C 281.786 1.11981 -2.01814 0
M  V30 3046 C 282.756 1.39999 -0.89384 0
M  V30 3047 O 283.941 1.5152 -1.15958 0
M  V30 3048 C 281.081 2.43577 -2.44467 0
M  V30 3049 C 280.194 2.2232 -3.70402 0
M  V30 3050 C 279.329 3.4729 -4.01949 0
M  V30 3051 C 278.368 3.2128 -5.21005 0
M  V30 3052 N 277.505 4.38507 -5.48321 0
M  V30 3053 H 282.345 0.733149 -2.88841 0
M  V30 3054 H 279.882 0.350482 -1.42864 0
M  V30 3055 H 281.84 3.20373 -2.6724 0
M  V30 3056 H 280.47 2.80097 -1.60455 0
M  V30 3057 H 279.522 1.36343 -3.55126 0
M  V30 3058 H 280.834 1.99089 -4.57345 0
M  V30 3059 H 279.988 4.32495 -4.25479 0
M  V30 3060 H 278.727 3.73572 -3.13521 0
M  V30 3061 H 277.732 2.34468 -4.97298 0
M  V30 3062 H 278.957 2.96348 -6.11028 0
M  V30 3063 H 276.903 4.64871 -4.62851 0
M  V30 3064 H 276.82 4.18455 -6.29628 0
M  V30 3065 H 278.088 5.24787 -5.76385 0
M  V30 3066 N 282.317 1.53212 0.369288 0
M  V30 3067 C 283.247 1.82365 1.45826 0
M  V30 3068 C 284.228 0.676907 1.56051 0
M  V30 3069 O 285.413 0.926401 1.70679 0
M  V30 3070 C 282.543 2.01023 2.83208 0
M  V30 3071 C 281.497 3.1678 2.8781 0
M  V30 3072 C 280.823 3.20724 4.27832 0
M  V30 3073 C 282.123 4.55447 2.55667 0
M  V30 3074 H 283.817 2.73559 1.21678 0
M  V30 3075 H 281.363 1.3163 0.583911 0
M  V30 3076 H 283.316 2.20001 3.59413 0
M  V30 3077 H 282.04 1.06536 3.08736 0
M  V30 3078 H 280.699 2.97616 2.14056 0
M  V30 3079 H 280.347 2.23882 4.50429 0
M  V30 3080 H 280.047 3.98496 4.31827 0
M  V30 3081 H 281.571 3.41881 5.05915 0
M  V30 3082 H 282.985 4.74611 3.21586 0
M  V30 3083 H 281.382 5.35432 2.70984 0
M  V30 3084 H 282.452 4.60812 1.5093 0
M  V30 3085 N 283.795 -0.628877 1.44509 0
M  V30 3086 C 285.072 -1.38733 1.37886 0
M  V30 3087 C 285.452 -2.11065 0.0387008 0
M  V30 3088 O 284.8 -2.06476 -0.97878 0
M  V30 3089 C 285.01 -2.35188 2.57852 0
M  V30 3090 C 286.358 -2.9845 3.02014 0
M  V30 3091 O 287.382 -2.45513 2.58073 0
M  V30 3092 O 286.241 -3.94487 3.78209 0
M  V30 3093 H 283.335 -0.621015 0.54614 0
M  V30 3094 H 285.881 -0.653744 1.56602 0
M  V30 3095 H 284.653 -1.80855 3.46998 0
M  V30 3096 H 284.276 -3.1596 2.4136 0
M  V30 3097 N 285.273 -1.31445 -0.869486 0
M  V30 3098 C 286.22 -1.19135 -1.97675 0
M  V30 3099 C 287.19 -0.0770266 -1.65921 0
M  V30 3100 O 288.375 -0.249972 -1.89155 0
M  V30 3101 C 285.515 -0.905149 -3.33018 0
M  V30 3102 C 284.628 -2.10285 -3.77365 0
M  V30 3103 C 283.763 -1.75339 -5.01427 0
M  V30 3104 C 282.802 -2.91515 -5.38224 0
M  V30 3105 N 281.939 -2.56762 -6.53466 0
M  V30 3106 H 286.779 -2.13853 -2.07535 0
M  V30 3107 H 284.316 -1.06379 -1.01597 0
M  V30 3108 H 286.274 -0.719765 -4.10944 0
M  V30 3109 H 284.904 0.00519624 -3.228 0
M  V30 3110 H 283.956 -2.39899 -2.95216 0
M  V30 3111 H 285.268 -2.97237 -4.00564 0
M  V30 3112 H 284.422 -1.53266 -5.87022 0
M  V30 3113 H 283.161 -0.855801 -4.80133 0
M  V30 3114 H 282.166 -3.14237 -4.51149 0
M  V30 3115 H 283.391 -3.81985 -5.61484 0
M  V30 3116 H 281.337 -1.69526 -6.33717 0
M  V30 3117 H 281.254 -3.37243 -6.76612 0
M  V30 3118 H 282.522 -2.38083 -7.42251 0
M  V30 3119 N 286.751 1.08385 -1.14413 0
M  V30 3120 C 287.699 2.17406 -0.826888 0
M  V30 3121 C 288.693 1.6827 0.195312 0
M  V30 3122 O 289.899 1.79927 0.0513892 0
M  V30 3123 H 286.274 0.70934 -0.249681 0
M  V30 3124 H 288.245 2.41388 -1.75426 0
M  V30 3125 C 286.994 3.46215 -0.320979 0
M  V30 3126 H 286.317 3.84401 -1.0989 0
M  V30 3127 H 287.757 4.23777 -0.137549 0
M  V30 3128 C 286.216 3.23067 0.955472 0
M  V30 3129 O 286.746 3.4668 2.02918 0
M  V30 3130 N 284.952 2.7661 0.890798 0
M  V30 3131 H 284.499 2.57594 0.0168815 0
M  V30 3132 H 284.457 2.61501 1.74542 0
M  V30 3133 N 288.23 0.939286 1.26551 0
M  V30 3134 C 289.507 0.5038 1.89001 0
M  V30 3135 C 289.887 -1.01854 1.84903 0
M  V30 3136 O 289.235 -1.87773 1.30206 0
M  V30 3137 C 289.445 1.063 3.32417 0
M  V30 3138 C 290.793 1.13051 4.09273 0
M  V30 3139 O 291.817 1.01345 3.41479 0
M  V30 3140 O 290.676 1.31233 5.30509 0
M  V30 3141 H 287.77 0.163897 0.810597 0
M  V30 3142 H 290.316 1.03173 1.34735 0
M  V30 3143 H 289.088 2.10665 3.29752 0
M  V30 3144 H 288.711 0.517408 3.94219 0
M  V30 3145 N 289.708 -1.40897 0.706093 0
M  V30 3146 C 291.124 -1.55042 0.37869 0
M  V30 3147 C 291.324 -1.67944 -1.11342 0
M  V30 3148 O 290.38 -1.66372 -1.89938 0
M  V30 3149 C 291.693 -2.78398 1.13643 0
M  V30 3150 C 293.241 -2.92206 1.12181 0
M  V30 3151 C 293.716 -4.18463 1.86152 0
M  V30 3152 N 295.207 -4.25443 1.83173 0
M  V30 3153 C 295.942 -5.2202 2.37239 0
M  V30 3154 N 295.438 -6.24563 2.99821 0
M  V30 3155 N 297.231 -5.14033 2.27435 0
M  V30 3156 H 289.382 -1.30769 1.67372 0
M  V30 3157 H 291.645 -0.631653 0.706907 0
M  V30 3158 H 291.351 -2.7511 2.19106 0
M  V30 3159 H 291.225 -3.70228 0.721853 0
M  V30 3160 H 293.612 -2.95004 0.0754171 0
M  V30 3161 H 293.693 -2.01521 1.57554 0
M  V30 3162 H 293.337 -4.16427 2.90776 0
M  V30 3163 H 293.267 -5.08141 1.38206 0
M  V30 3164 H 295.758 -3.51976 1.37556 0
M  V30 3165 H 296.071 -6.94665 3.38616 0
M  V30 3166 H 294.416 -6.25035 3.03902 0
M  V30 3167 H 297.607 -4.3285 1.78208 0
M  V30 3168 H 297.78 -5.89129 2.69873 0
M  V30 3169 N 291.186 -0.45159 -1.50991 0
M  V30 3170 C 292.149 0.341117 -2.26647 0
M  V30 3171 C 293.149 0.937422 -1.30649 0
M  V30 3172 O 294.339 0.809644 -1.54241 0
M  V30 3173 C 291.471 1.48398 -3.06905 0
M  V30 3174 H 292.664 -0.322117 -2.98165 0
M  V30 3175 H 290.217 -0.205122 -1.54948 0
M  V30 3176 H 290.952 2.18284 -2.39838 0
M  V30 3177 H 290.737 1.06241 -3.77432 0
M  V30 3178 H 292.227 2.04367 -3.64176 0
M  V30 3179 N 292.664 1.56529 -0.183458 0
M  V30 3180 C 293.611 2.18546 0.742055 0
M  V30 3181 C 294.581 1.12912 1.2182 0
M  V30 3182 O 295.766 1.41115 1.28418 0
M  V30 3183 C 292.906 2.83977 1.96089 0
M  V30 3184 C 292.019 4.04105 1.52719 0
M  V30 3185 C 291.154 4.57427 2.70063 0
M  V30 3186 C 290.193 5.69938 2.23243 0
M  V30 3187 N 289.33 6.17717 3.33722 0
M  V30 3188 H 294.17 2.97284 0.206432 0
M  V30 3189 H 291.707 1.46823 0.0901571 0
M  V30 3190 H 293.665 3.20077 2.67594 0
M  V30 3191 H 292.295 2.07822 2.47002 0
M  V30 3192 H 291.347 3.73745 0.708436 0
M  V30 3193 H 292.659 4.85513 1.1436 0
M  V30 3194 H 291.813 4.95772 3.49708 0
M  V30 3195 H 290.552 3.75101 3.11689 0
M  V30 3196 H 289.557 5.31133 1.42048 0
M  V30 3197 H 290.782 6.54073 1.82661 0
M  V30 3198 H 288.728 5.38317 3.74902 0
M  V30 3199 H 288.645 6.94146 2.99495 0
M  V30 3200 H 289.913 6.60713 4.13616 0
M  V30 3201 N 294.142 -0.090211 1.57342 0
M  V30 3202 C 295.105 -1.09335 2.01441 0
M  V30 3203 C 296.105 -1.32666 0.908641 0
M  V30 3204 O 297.295 -1.28697 1.174 0
M  V30 3205 C 294.427 -2.44136 2.3793 0
M  V30 3206 H 295.62 -0.713662 2.91285 0
M  V30 3207 H 293.173 -0.335404 1.52659 0
M  V30 3208 H 293.908 -2.86972 1.51055 0
M  V30 3209 H 293.693 -2.28548 3.18603 0
M  V30 3210 H 295.183 -3.16277 2.72688 0
M  V30 3211 N 295.62 -1.53406 -0.361157 0
M  V30 3212 C 296.845 -1.74024 -1.12829 0
M  V30 3213 C 297.27 -0.470069 -1.82132 0
M  V30 3214 O 296.628 0.57619 -1.719 0
M  V30 3215 C 296.676 -2.90903 -2.13091 0
M  V30 3216 O 295.78 -2.59821 -3.20261 0
M  V30 3217 H 295.121 -0.577804 -0.327168 0
M  V30 3218 H 297.651 -2.00307 -0.41693 0
M  V30 3219 H 297.661 -3.17194 -2.56616 0
M  V30 3220 H 296.336 -3.83034 -1.62042 0
M  V30 3221 H 294.913 -2.44362 -2.81677 0
M  V30 3222 N 297.098 0.621204 -1.44841 0
M  V30 3223 C 298.061 1.71459 -1.521 0
M  V30 3224 C 299.061 1.55696 -0.401933 0
M  V30 3225 O 300.251 1.61011 -0.664925 0
M  V30 3226 C 297.383 3.10624 -1.40447 0
M  V30 3227 H 298.576 1.66394 -2.49506 0
M  V30 3228 H 296.129 0.835745 -1.3208 0
M  V30 3229 H 296.864 3.21277 -0.441737 0
M  V30 3230 H 296.649 3.23473 -2.21602 0
M  V30 3231 H 298.139 3.90293 -1.4853 0
M  V30 3232 N 298.576 1.31904 0.862503 0
M  V30 3233 C 299.486 1.22161 2.00285 0
M  V30 3234 C 300.502 0.136785 1.73462 0
M  V30 3235 O 301.678 0.355994 1.98229 0
M  V30 3236 C 298.743 0.937093 3.33796 0
M  V30 3237 C 297.804 2.10957 3.73893 0
M  V30 3238 C 297.037 1.83853 5.01033 0
M  V30 3239 O 297.26 0.777274 5.65079 0
M  V30 3240 O 296.194 2.69741 5.38074 0
M  V30 3241 H 300.02 2.18008 2.11439 0
M  V30 3242 H 297.605 1.11716 0.991957 0
M  V30 3243 H 299.487 0.794583 4.13841 0
M  V30 3244 H 298.162 0.00871894 3.23699 0
M  V30 3245 H 297.069 2.30752 2.94456 0
M  V30 3246 H 298.402 3.02046 3.88625 0
M  V30 3247 N 300.054 -1.07777 1.14986 0
M  V30 3248 C 301.279 -1.84558 0.946213 0
M  V30 3249 C 301.704 -1.81323 -0.500362 0
M  V30 3250 O 301.062 -1.20301 -1.35637 0
M  V30 3251 C 301.11 -3.29736 1.45968 0
M  V30 3252 O 300.214 -4.07149 0.65601 0
M  V30 3253 H 299.555 -0.571641 0.33782 0
M  V30 3254 H 302.085 -1.35991 1.52865 0
M  V30 3255 H 302.095 -3.80574 1.47063 0
M  V30 3256 H 300.77 -3.31406 2.51283 0
M  V30 3257 H 299.347 -3.65994 0.714322 0
M  V30 3258 N 301.532 -0.945985 -1.26051 0
M  V30 3259 C 302.772 -0.603665 -1.95282 0
M  V30 3260 C 303.136 0.842377 -1.72534 0
M  V30 3261 O 304.337 1.29387 -2.35611 0
M  V30 3262 C 302.608 -0.942292 -3.44754 0
M  V30 3263 S 304.167 -0.711242 -4.32997 0
M  V30 3264 H 300.985 -0.222176 -0.675395 0
M  V30 3265 H 303.587 -1.21832 -1.52896 0
M  V30 3266 H 302.291 -1.99203 -3.58812 0
M  V30 3267 H 301.822 -0.317546 -3.92116 0
M  V30 3268 H 303.837 0.422221 -4.944 0
M  V30 3269 N 303.011 1.40521 -0.713556 0
M  V30 3270 C 304.236 2.05759 -0.26035 0
M  V30 3271 C 304.661 1.53403 1.08854 0
M  V30 3272 O 304.019 0.668535 1.68524 0
M  V30 3273 C 304.067 3.59745 -0.248122 0
M  V30 3274 O 303.171 4.05123 0.77131 0
M  V30 3275 H 302.512 0.652564 -0.122703 0
M  V30 3276 H 305.042 1.79958 -0.973467 0
M  V30 3277 H 305.052 4.07911 -0.0851129 0
M  V30 3278 H 303.727 3.97218 -1.2325 0
M  V30 3279 H 302.304 3.68422 0.57619 0
M  V30 3280 N 304.489 0.459591 1.5075 0
M  V30 3281 C 305.729 -0.09824 2.04164 0
M  V30 3282 C 306.093 -1.3801 1.33481 0
M  V30 3283 O 307.294 -2.01959 1.77387 0
M  V30 3284 C 305.565 -0.289467 3.56226 0
M  V30 3285 S 307.124 -0.807507 4.31306 0
M  V30 3286 H 303.942 -0.0213845 0.710678 0
M  V30 3287 H 306.544 0.624098 1.85271 0
M  V30 3288 H 305.248 0.649461 4.05229 0
M  V30 3289 H 304.779 -1.03825 3.79452 0
M  V30 3290 H 306.794 -2.0824 4.50389 0
M  V30 3291 O 306.006 -1.58029 0.333053 0
M  V30 3292 H 306.697 -1.92392 -0.224736 0
M  V30 END ATOM
M  V30 BEGIN BOND
M  V30 END BOND
M  V30 END CTAB
M  END
$$$$
