drugbank_target|Q7ADF8 2-deoxyglucose-6-phosphate phosphatase (DB02726)
 OpenBabel12092119563D

  0  0  0     0  0            999 V3000
M  V30 BEGIN CTAB
M  V30 COUNTS 3455 3484 0 0 0
M  V30 BEGIN ATOM
M  V30 1 H -0.908 1.98254 -0.117106 0
M  V30 2 N 0 1.576 0 0
M  V30 3 C 0.933 2.03868 1.02534 0
M  V30 4 C 1.911 0.928543 1.3348 0
M  V30 5 O 3.095 1.19667 1.45644 0
M  V30 6 C 0.222 2.43627 2.35294 0
M  V30 7 C -0.732 3.65373 2.2001 0
M  V30 8 S 0.101 5.13292 1.52614 0
M  V30 9 C 1.257 5.56322 2.86805 0
M  V30 10 H 1.49 2.90518 0.631377 0
M  V30 11 H -0.977 1.52953 0.210867 0
M  V30 12 H 0.981 2.67203 3.11629 0
M  V30 13 H -0.358 1.57376 2.7183 0
M  V30 14 H -1.165 3.90944 3.18086 0
M  V30 15 H -1.563 3.418 1.51819 0
M  V30 16 H 0.729 5.58782 3.83104 0
M  V30 17 H 1.672 6.56266 2.65933 0
M  V30 18 H 2.08 4.83886 2.90714 0
M  V30 19 N 1.4781 -0.272755 1.55222 0
M  V30 20 C 2.7031 -1.02683 1.80197 0
M  V30 21 C 3.1281 -1.79142 0.573551 0
M  V30 22 O 2.4861 -1.74917 -0.476849 0
M  V30 23 C 2.5341 -1.9609 3.02624 0
M  V30 24 O 1.6381 -3.04863 2.77727 0
M  V30 25 H 0.9791 -0.293557 0.595584 0
M  V30 26 H 3.5091 -0.30159 2.02365 0
M  V30 27 H 3.5191 -2.38039 3.31363 0
M  V30 28 H 2.1941 -1.39851 3.91682 0
M  V30 29 H 0.7711 -2.67228 2.60084 0
M  V30 30 N 2.9562 -1.48159 -0.537278 0
M  V30 31 C 4.1842 -1.59454 -1.31841 0
M  V30 32 C 4.5992 -0.252065 -1.8711 0
M  V30 33 O 3.9562 0.757621 -1.66031 0
M  V30 34 C 4.0072 -2.63546 -2.47439 0
M  V30 35 O 3.7282 -3.92583 -1.94449 0
M  V30 36 C 5.2292 -2.85212 -3.39366 0
M  V30 37 H 2.4492 -0.53785 -0.401196 0
M  V30 38 H 4.9932 -1.93932 -0.648891 0
M  V30 39 H 3.1482 -2.31946 -3.1029 0
M  V30 40 H 3.5622 -4.49629 -2.70063 0
M  V30 41 H 5.0362 -3.61863 -4.16844 0
M  V30 42 H 5.5132 -1.93765 -3.94147 0
M  V30 43 H 6.1192 -3.18086 -2.82314 0
M  V30 44 N 4.4343 0.785586 -1.36625 0
M  V30 45 C 5.8453 1.36101 -1.27803 0
M  V30 46 C 6.1963 1.96035 0.0804875 0
M  V30 47 O 5.3213 1.92834 0.982042 0
M  V30 48 C 5.9163 2.47442 -2.31426 0
M  V30 49 C 4.4753 3.00789 -2.26281 0
M  V30 50 C 3.6223 1.73896 -2.15999 0
M  V30 51 H 6.5733 0.586928 -1.47448 0
M  V30 52 H 6.5943 3.2656 -1.95291 0
M  V30 53 H 6.1063 2.03791 -3.30289 0
M  V30 54 H 4.2073 3.48851 -1.30896 0
M  V30 55 H 4.3203 3.57343 -3.19128 0
M  V30 56 H 2.6843 1.9628 -1.62316 0
M  V30 57 H 3.4673 1.32368 -3.16755 0
M  V30 58 N 5.9124 1.20967 1.01018 0
M  V30 59 C 7.3284 0.965905 1.27053 0
M  V30 60 C 7.5284 -0.350785 1.98423 0
M  V30 61 O 6.5844 -1.07773 2.28344 0
M  V30 62 C 7.8974 2.15294 2.09926 0
M  V30 63 C 9.4454 2.19463 2.23171 0
M  V30 64 C 9.9204 3.3767 3.09424 0
M  V30 65 N 11.4114 3.37724 3.17012 0
M  V30 66 C 12.1464 4.25837 3.83993 0
M  V30 67 N 11.6424 5.24138 4.53047 0
M  V30 68 N 13.4354 4.1366 3.80581 0
M  V30 69 H 5.5864 2.0565 0.531194 0
M  V30 70 H 7.8494 0.90024 0.297106 0
M  V30 71 H 7.5554 3.10684 1.64828 0
M  V30 72 H 7.4294 2.13923 3.10672 0
M  V30 73 H 9.8164 1.24632 2.6749 0
M  V30 74 H 9.8974 2.2488 1.21912 0
M  V30 75 H 9.5414 4.32791 2.65808 0
M  V30 76 H 9.4714 3.29491 4.10784 0
M  V30 77 H 11.9624 2.6658 2.6785 0
M  V30 78 H 12.2754 5.87684 5.01844 0
M  V30 79 H 10.6204 5.28068 4.5185 0
M  V30 80 H 13.8114 3.36127 3.25785 0
M  V30 81 H 13.9844 4.82538 4.32505 0
M  V30 82 N 7.3905 -1.2043 1.01659 0
M  V30 83 C 8.3225 -2.22626 0.544988 0
M  V30 84 C 9.3355 -1.58479 -0.372609 0
M  V30 85 O 10.5245 -1.77679 -0.170958 0
M  V30 86 C 7.6245 -3.38141 -0.22663 0
M  V30 87 C 6.7975 -4.31877 0.692876 0
M  V30 88 C 5.8565 -5.26191 -0.0311616 0
M  V30 89 O 4.8825 -5.6612 0.591343 0
M  V30 90 N 6.0845 -5.65618 -1.30601 0
M  V30 91 H 8.8495 -2.63716 1.42388 0
M  V30 92 H 6.4105 -1.34971 0.894116 0
M  V30 93 H 8.4025 -3.98239 -0.72024 0
M  V30 94 H 6.9725 -2.95943 -1.00681 0
M  V30 95 H 6.1925 -3.69746 1.36679 0
M  V30 96 H 7.4805 -4.91426 1.31824 0
M  V30 97 H 6.8785 -5.3519 -1.83269 0
M  V30 98 H 5.4355 -6.28025 -1.74435 0
M  V30 99 N 8.8686 -0.792821 -1.36206 0
M  V30 100 C 10.1176 -0.363353 -1.984 0
M  V30 101 C 10.4306 1.07172 -1.63626 0
M  V30 102 O 11.6366 1.60362 -2.19081 0
M  V30 103 C 10.0926 -0.59872 -3.54885 0
M  V30 104 C 9.7006 -2.04543 -3.9858 0
M  V30 105 C 11.4446 -0.233926 -4.23855 0
M  V30 106 C 9.3516 -2.22727 -5.47856 0
M  V30 107 H 8.2816 -0.13212 -0.742334 0
M  V30 108 H 10.9326 -0.974935 -1.55458 0
M  V30 109 H 9.3146 0.0826222 -3.95914 0
M  V30 110 H 10.4886 -2.76345 -3.68741 0
M  V30 111 H 8.8036 -2.36879 -3.42458 0
M  V30 112 H 11.4006 -0.348027 -5.33566 0
M  V30 113 H 11.7436 0.818351 -4.08177 0
M  V30 114 H 12.2766 -0.868639 -3.882 0
M  V30 115 H 9.0156 -3.2635 -5.68486 0
M  V30 116 H 8.5356 -1.55434 -5.7931 0
M  V30 117 H 10.2146 -2.03607 -6.14128 0
M  V30 118 N 10.3467 1.47872 -0.545128 0
M  V30 119 C 11.2767 2.32661 0.197793 0
M  V30 120 C 12.2577 1.43041 0.920504 0
M  V30 121 O 13.4427 1.71912 0.90333 0
M  V30 122 C 10.5727 3.24569 1.23582 0
M  V30 123 C 9.5267 4.23333 0.630323 0
M  V30 124 C 8.8527 5.0448 1.77211 0
M  V30 125 C 10.1527 5.20704 -0.407974 0
M  V30 126 H 11.8467 2.95024 -0.510045 0
M  V30 127 H 9.3927 1.4187 -0.246731 0
M  V30 128 H 11.3457 3.8272 1.76362 0
M  V30 129 H 10.0697 2.60236 1.97344 0
M  V30 130 H 8.7287 3.6639 0.123922 0
M  V30 131 H 8.3767 4.36561 2.49847 0
M  V30 132 H 8.0767 5.71339 1.37281 0
M  V30 133 H 9.6007 5.65487 2.3034 0
M  V30 134 H 11.0147 5.7329 0.033305 0
M  V30 135 H 9.4117 5.95699 -0.725486 0
M  V30 136 H 10.4817 4.66917 -1.30828 0
M  V30 137 N 11.8248 0.280983 1.55075 0
M  V30 138 C 12.7878 -0.590896 2.21452 0
M  V30 139 C 13.7878 -1.07682 1.19421 0
M  V30 140 O 14.9778 -0.97605 1.44288 0
M  V30 141 C 12.1098 -1.81587 2.88511 0
M  V30 142 H 13.3028 -0.0112554 2.99898 0
M  V30 143 H 10.8558 0.0316438 1.56268 0
M  V30 144 H 11.5908 -2.43587 2.14093 0
M  V30 145 H 11.3758 -1.4753 3.63287 0
M  V30 146 H 12.8658 -2.43575 3.39206 0
M  V30 147 N 13.3029 -1.57598 0.00835791 0
M  V30 148 C 14.2659 -2.07884 -0.965242 0
M  V30 149 C 15.2659 -0.989825 -1.26725 0
M  V30 150 O 16.4559 -1.25218 -1.21104 0
M  V30 151 C 13.5879 -2.52731 -2.28779 0
M  V30 152 H 14.7809 -2.95178 -0.530112 0
M  V30 153 H 12.3339 -1.54458 -0.239283 0
M  V30 154 H 13.0689 -1.68705 -2.76964 0
M  V30 155 H 12.8539 -3.32272 -2.08177 0
M  V30 156 H 14.3439 -2.91933 -2.98605 0
M  V30 157 N 14.781 0.264519 -1.55364 0
M  V30 158 C 16.03 0.992812 -1.75574 0
M  V30 159 C 16.343 1.87142 -0.568979 0
M  V30 160 O 17.549 2.63513 -0.653682 0
M  V30 161 C 16.005 1.81519 -3.10771 0
M  V30 162 C 15.613 0.984839 -4.37041 0
M  V30 163 C 17.357 2.53727 -3.40327 0
M  V30 164 C 15.264 1.80209 -5.63275 0
M  V30 165 H 14.194 0.374412 -0.65447 0
M  V30 166 H 16.845 0.248138 -1.81815 0
M  V30 167 H 15.227 2.60115 -2.98591 0
M  V30 168 H 16.401 0.242455 -4.60162 0
M  V30 169 H 14.716 0.37691 -4.14691 0
M  V30 170 H 17.313 3.15292 -4.3185 0
M  V30 171 H 17.656 3.24447 -2.60845 0
M  V30 172 H 18.189 1.82156 -3.53644 0
M  V30 173 H 14.928 1.13896 -6.45529 0
M  V30 174 H 14.448 2.52022 -5.44284 0
M  V30 175 H 16.127 2.37364 -6.01887 0
M  V30 176 N 16.2591 1.48442 0.529413 0
M  V30 177 C 17.5061 1.56488 1.28521 0
M  V30 178 C 17.8341 0.239042 1.93025 0
M  V30 179 O 17.0891 -0.770713 1.79885 0
M  V30 180 C 17.3881 2.6523 2.39558 0
M  V30 181 C 17.0541 4.07648 1.92702 0
M  V30 182 C 15.7161 4.46411 1.79641 0
M  V30 183 C 18.0681 4.96896 1.573 0
M  V30 184 C 15.3961 5.72226 1.29514 0
M  V30 185 C 17.7481 6.23202 1.08636 0
M  V30 186 C 16.4121 6.60821 0.941919 0
M  V30 187 H 15.6821 0.572631 0.470292 0
M  V30 188 H 18.3291 1.82161 0.59072 0
M  V30 189 H 16.6341 2.33419 3.14679 0
M  V30 190 H 18.3311 2.68671 2.97686 0
M  V30 191 H 14.9211 3.77036 2.03819 0
M  V30 192 H 19.1051 4.67626 1.66251 0
M  V30 193 H 14.3611 6.00097 1.17019 0
M  V30 194 H 18.5351 6.91753 0.803136 0
M  V30 195 H 16.1621 7.58198 0.5513 0
M  V30 196 N 17.7372 -0.778329 1.37039 0
M  V30 197 C 19.0142 -1.52551 1.22424 0
M  V30 198 C 19.3942 -2.10288 -0.184964 0
M  V30 199 O 18.7422 -1.94953 -1.19187 0
M  V30 200 C 18.9522 -2.61164 2.31504 0
M  V30 201 C 20.3002 -3.28746 2.68721 0
M  V30 202 O 21.3242 -2.71455 2.30631 0
M  V30 203 O 20.1832 -4.3231 3.3432 0
M  V30 204 H 17.2772 -0.675343 0.477326 0
M  V30 205 H 19.8232 -0.815859 1.48801 0
M  V30 206 H 18.5952 -2.16574 3.25901 0
M  V30 207 H 18.2182 -3.39737 2.06554 0
M  V30 208 N 19.2153 -1.21501 -1.00376 0
M  V30 209 C 20.1483 -0.918669 -2.08892 0
M  V30 210 C 21.1263 0.134277 -1.62045 0
M  V30 211 O 22.3103 0.00504255 -1.88499 0
M  V30 212 C 19.4373 -0.379645 -3.36566 0
M  V30 213 C 18.4833 -1.41559 -4.02323 0
M  V30 214 S 19.3163 -2.98521 -4.44574 0
M  V30 215 C 20.4723 -2.46228 -5.75433 0
M  V30 216 H 20.7053 -1.83761 -2.33707 0
M  V30 217 H 18.2383 -1.04489 -1.13673 0
M  V30 218 H 20.1963 -0.0752195 -4.10431 0
M  V30 219 H 18.8573 0.518008 -3.09799 0
M  V30 220 H 18.0503 -0.988076 -4.9422 0
M  V30 221 H 17.6523 -1.66815 -3.34737 0
M  V30 222 H 19.9443 -1.86791 -6.51241 0
M  V30 223 H 20.8873 -3.36572 -6.22997 0
M  V30 224 H 21.2953 -1.87894 -5.32312 0
M  V30 225 N 20.6934 1.19889 -1.02296 0
M  V30 226 C 21.9704 1.85148 -0.630832 0
M  V30 227 C 22.3504 1.91385 0.890782 0
M  V30 228 O 21.6984 1.42642 1.78509 0
M  V30 229 C 21.9084 3.24442 -1.28602 0
M  V30 230 C 23.2564 4.00663 -1.4055 0
M  V30 231 O 24.2804 3.33818 -1.24273 0
M  V30 232 O 23.1394 5.20387 -1.66913 0
M  V30 233 H 20.2334 0.797613 -0.218499 0
M  V30 234 H 22.7794 1.27427 -1.12074 0
M  V30 235 H 21.5514 3.14704 -2.32545 0
M  V30 236 H 21.1744 3.89802 -0.7836 0
M  V30 237 N 22.1715 0.800033 1.35784 0
M  V30 238 C 23.4195 0.376597 1.9856 0
M  V30 239 C 23.7405 -1.05812 1.63795 0
M  V30 240 O 23.0105 -1.73103 0.917171 0
M  V30 241 H 21.5905 0.136261 0.734467 0
M  V30 242 H 24.2525 1.02442 1.65806 0
M  V30 243 H 23.3485 0.477002 3.08433 0
M  V30 244 N 23.6496 -1.47581 0.552962 0
M  V30 245 C 24.5796 -2.32762 -0.185451 0
M  V30 246 C 25.5606 -1.43527 -0.912905 0
M  V30 247 O 26.7456 -1.72388 -0.894201 0
M  V30 248 C 23.8756 -3.25219 -1.21859 0
M  V30 249 C 22.8296 -4.23661 -0.607864 0
M  V30 250 C 22.1556 -5.05413 -1.74533 0
M  V30 251 C 23.4556 -5.20481 0.435582 0
M  V30 252 H 25.1496 -2.94749 0.525684 0
M  V30 253 H 22.6956 -1.41738 0.254251 0
M  V30 254 H 24.6486 -3.8365 -1.7433 0
M  V30 255 H 23.3726 -2.61279 -1.95961 0
M  V30 256 H 22.0316 -3.66451 -0.104489 0
M  V30 257 H 21.6796 -4.3788 -2.47529 0
M  V30 258 H 21.3796 -5.72059 -1.34249 0
M  V30 259 H 22.9036 -5.66701 -2.27338 0
M  V30 260 H 24.3176 -5.733 -0.00290157 0
M  V30 261 H 22.7146 -5.95305 0.757067 0
M  V30 262 H 23.7846 -4.66217 1.33303 0
M  V30 263 N 25.1277 -0.289203 -1.54924 0
M  V30 264 C 26.0577 0.58549 -2.2604 0
M  V30 265 C 27.0387 1.14753 -1.25562 0
M  V30 266 O 28.2237 1.17906 -1.54311 0
M  V30 267 C 25.3537 1.76305 -2.99222 0
M  V30 268 C 24.3077 1.33191 -4.06748 0
M  V30 269 C 23.6337 2.5937 -4.6758 0
M  V30 270 C 24.9337 0.471775 -5.20165 0
M  V30 271 H 26.6277 -0.00763532 -2.99399 0
M  V30 272 H 24.1737 -0.00511229 -1.43999 0
M  V30 273 H 26.1267 2.38097 -3.47689 0
M  V30 274 H 24.8507 2.38223 -2.23422 0
M  V30 275 H 23.5097 0.737121 -3.59113 0
M  V30 276 H 23.1577 3.19576 -3.88433 0
M  V30 277 H 22.8577 2.31228 -5.40192 0
M  V30 278 H 24.3817 3.21985 -5.18804 0
M  V30 279 H 25.7957 0.995056 -5.64599 0
M  V30 280 H 24.1927 0.284639 -5.99425 0
M  V30 281 H 25.2627 -0.506041 -4.82252 0
M  V30 282 N 26.6058 1.57591 -0.0167156 0
M  V30 283 C 27.8548 1.90461 0.663877 0
M  V30 284 C 28.1678 0.893515 1.73999 0
M  V30 285 O 29.3738 1.11302 2.47637 0
M  V30 286 C 27.8298 3.38155 1.23204 0
M  V30 287 C 27.4378 4.47597 0.189866 0
M  V30 288 C 29.1818 3.80111 1.88986 0
M  V30 289 C 27.0888 5.86379 0.768964 0
M  V30 290 H 26.0188 0.710738 0.251729 0
M  V30 291 H 28.6698 1.83326 -0.0799926 0
M  V30 292 H 27.0518 3.40182 2.02712 0
M  V30 293 H 28.2258 4.57112 -0.581846 0
M  V30 294 H 26.5408 4.14766 -0.368475 0
M  V30 295 H 29.1378 4.81145 2.33247 0
M  V30 296 H 29.4808 3.14511 2.72743 0
M  V30 297 H 30.0138 3.80454 1.16187 0
M  V30 298 H 26.7528 6.55493 -0.0301957 0
M  V30 299 H 26.2728 5.80496 1.50945 0
M  V30 300 H 27.9518 6.34563 1.26251 0
M  V30 301 N 28.0839 -0.256276 1.55502 0
M  V30 302 C 29.3609 -1.00789 1.67633 0
M  V30 303 C 29.7409 -2.03706 0.553826 0
M  V30 304 O 29.0889 -2.24145 -0.443969 0
M  V30 305 C 29.2989 -1.64968 3.07549 0
M  V30 306 C 30.6469 -2.15505 3.65845 0
M  V30 307 O 31.6709 -1.74925 3.1029 0
M  V30 308 O 30.5299 -2.89986 4.63217 0
M  V30 309 H 27.6239 -0.468553 0.681459 0
M  V30 310 H 30.1699 -0.250806 1.67836 0
M  V30 311 H 28.9419 -0.904785 3.80696 0
M  V30 312 H 28.5649 -2.47321 3.11317 0
M  V30 313 N 29.562 -1.4872 -0.521534 0
M  V30 314 C 30.787 -1.61101 -1.30618 0
M  V30 315 C 31.212 -0.274611 -1.86085 0
M  V30 316 O 30.57 0.754937 -1.64834 0
M  V30 317 C 30.618 -2.66709 -2.4269 0
M  V30 318 O 29.722 -2.24456 -3.45967 0
M  V30 319 H 29.063 -0.539921 -0.386499 0
M  V30 320 H 31.593 -1.94767 -0.626645 0
M  V30 321 H 31.603 -2.88245 -2.88754 0
M  V30 322 H 30.278 -3.63727 -2.01682 0
M  V30 323 H 28.855 -2.13168 -3.05964 0
M  V30 324 N 31.0401 0.771051 -1.3745 0
M  V30 325 C 31.9501 1.91538 -1.35464 0
M  V30 326 C 32.9661 1.72134 -0.254123 0
M  V30 327 O 34.1421 1.95358 -0.489626 0
M  V30 328 C 31.2071 3.26671 -1.16134 0
M  V30 329 C 30.2681 3.58723 -2.35831 0
M  V30 330 C 29.5011 4.87409 -2.17413 0
M  V30 331 O 29.7241 5.58506 -1.15876 0
M  V30 332 O 28.6581 5.18539 -3.05615 0
M  V30 333 H 32.4841 1.96165 -2.31847 0
M  V30 334 H 30.0691 0.9139 -1.18187 0
M  V30 335 H 31.9511 4.07499 -1.07345 0
M  V30 336 H 30.6261 3.22894 -0.228251 0
M  V30 337 H 29.5331 2.78127 -2.50192 0
M  V30 338 H 30.8661 3.67243 -3.27709 0
M  V30 339 N 32.5182 1.22032 0.997298 0
M  V30 340 C 33.9292 1.0397 1.55071 0
M  V30 341 C 34.2802 -0.398192 1.92117 0
M  V30 342 O 33.4052 -1.28254 1.74298 0
M  V30 343 C 34.0002 1.88109 2.81781 0
M  V30 344 C 32.5592 1.74357 3.33581 0
M  V30 345 C 31.7062 1.84846 2.06706 0
M  V30 346 H 34.6572 1.35941 0.818883 0
M  V30 347 H 34.6782 1.39589 3.53971 0
M  V30 348 H 34.1902 2.92754 2.54787 0
M  V30 349 H 32.2912 0.72427 3.65493 0
M  V30 350 H 32.4042 2.56772 4.04481 0
M  V30 351 H 30.7682 1.28238 2.20062 0
M  V30 352 H 31.5512 2.91014 1.82114 0
M  V30 353 N 33.9963 -1.19345 1.0293 0
M  V30 354 C 34.9263 -2.2481 0.631105 0
M  V30 355 C 35.9073 -1.66245 -0.360104 0
M  V30 356 O 37.0923 -1.92677 -0.242726 0
M  V30 357 C 34.2223 -3.47295 -0.0184607 0
M  V30 358 C 33.1763 -4.18536 0.895073 0
M  V30 359 C 32.5023 -5.34586 0.110592 0
M  V30 360 C 33.8023 -4.73287 2.209 0
M  V30 361 H 35.4963 -2.58372 1.51275 0
M  V30 362 H 33.0423 -1.24194 0.728818 0
M  V30 363 H 34.9953 -4.20268 -0.308675 0
M  V30 364 H 33.7193 -3.12933 -0.934907 0
M  V30 365 H 32.3783 -3.47446 1.16949 0
M  V30 366 H 32.0263 -4.96469 -0.807902 0
M  V30 367 H 31.7263 -5.83183 0.719087 0
M  V30 368 H 33.2503 -6.10355 -0.172871 0
M  V30 369 H 34.6643 -5.38013 1.98028 0
M  V30 370 H 33.0613 -5.32373 2.76946 0
M  V30 371 H 34.1313 -3.91331 2.86336 0
M  V30 372 N 35.4744 -0.807222 -1.35358 0
M  V30 373 C 36.7204 -0.397594 -1.99476 0
M  V30 374 C 37.0754 1.02405 -1.62883 0
M  V30 375 O 36.3684 1.70077 -0.882282 0
M  V30 376 C 36.5624 -0.519036 -3.53611 0
M  V30 377 C 36.3914 -1.95094 -4.05177 0
M  V30 378 C 35.1614 -2.57945 -4.34503 0
M  V30 379 C 37.3594 -2.91558 -4.23673 0
M  V30 380 N 35.3414 -3.92539 -4.72003 0
M  V30 381 C 36.7124 -4.11024 -4.64176 0
M  V30 382 C 38.7674 -2.88381 -4.05883 0
M  V30 383 C 37.4704 -5.27745 -4.88751 0
M  V30 384 C 39.4964 -4.04306 -4.31614 0
M  V30 385 C 38.8584 -5.22519 -4.72391 0
M  V30 386 H 34.9574 -0.193274 -0.75774 0
M  V30 387 H 37.5414 -1.0486 -1.6405 0
M  V30 388 H 35.7124 0.101979 -3.88266 0
M  V30 389 H 37.4444 -0.0839321 -4.04613 0
M  V30 390 H 34.1994 -2.09295 -4.24844 0
M  V30 391 H 34.6234 -4.61836 -4.95011 0
M  V30 392 H 39.2654 -1.98137 -3.73499 0
M  V30 393 H 36.9834 -6.1856 -5.20008 0
M  V30 394 H 40.5694 -4.03229 -4.19402 0
M  V30 395 H 39.4494 -6.1073 -4.91913 0
M  V30 396 N 36.9525 1.47285 -0.560781 0
M  V30 397 C 38.2295 1.9558 0.0277798 0
M  V30 398 C 38.6095 1.5034 1.48192 0
M  V30 399 O 37.9575 0.743882 2.16052 0
M  V30 400 C 38.1675 3.48789 -0.121418 0
M  V30 401 C 39.5155 4.24594 0.0220912 0
M  V30 402 O 40.5395 3.56166 -0.0491439 0
M  V30 403 O 39.3985 5.46217 0.175958 0
M  V30 404 H 36.4925 0.824663 0.0621342 0
M  V30 405 H 39.0385 1.5767 -0.627556 0
M  V30 406 H 37.8105 3.74533 -1.13316 0
M  V30 407 H 37.4335 3.93473 0.571366 0
M  V30 408 N 38.4306 0.297415 1.54768 0
M  V30 409 C 39.8466 -0.0560823 1.59501 0
M  V30 410 C 40.0466 -1.52725 1.31444 0
M  V30 411 O 39.1026 -2.27947 1.08611 0
M  V30 412 C 40.4156 0.338631 2.98787 0
M  V30 413 C 41.9636 0.287097 3.11681 0
M  V30 414 C 42.4386 0.656579 4.53269 0
M  V30 415 N 43.9296 0.608977 4.59179 0
M  V30 416 C 44.6646 0.867385 5.66802 0
M  V30 417 N 44.1606 1.19157 6.82476 0
M  V30 418 N 45.9536 0.794687 5.56454 0
M  V30 419 H 38.1046 1.25624 1.71267 0
M  V30 420 H 40.3676 0.509057 0.799728 0
M  V30 421 H 40.0736 1.36263 3.2423 0
M  V30 422 H 39.9476 -0.309508 3.75928 0
M  V30 423 H 42.3346 -0.727649 2.85988 0
M  V30 424 H 42.4156 0.969809 2.36703 0
M  V30 425 H 42.0596 1.66912 4.7969 0
M  V30 426 H 41.9896 -0.0481649 5.26578 0
M  V30 427 H 44.4806 0.369198 3.76092 0
M  V30 428 H 44.7936 1.37482 7.60473 0
M  V30 429 H 43.1386 1.22958 6.84037 0
M  V30 430 H 46.3296 0.541098 4.64962 0
M  V30 431 H 46.5026 0.999445 6.40246 0
M  V30 432 N 39.9087 -1.5758 0.0250728 0
M  V30 433 C 40.8717 -2.08896 -0.943139 0
M  V30 434 C 41.8717 -1.00321 -1.25668 0
M  V30 435 O 43.0617 -1.26495 -1.19769 0
M  V30 436 C 40.1937 -2.55143 -2.26086 0
M  V30 437 H 41.3867 -2.95723 -0.498775 0
M  V30 438 H 38.9397 -1.54703 -0.222888 0
M  V30 439 H 39.6747 -1.71633 -2.75159 0
M  V30 440 H 39.4597 -3.34461 -2.04641 0
M  V30 441 H 40.9497 -2.95083 -2.95492 0
M  V30 442 N 41.3868 0.248026 -1.55636 0
M  V30 443 C 42.2968 1.32859 -1.93354 0
M  V30 444 C 43.3128 1.52719 -0.833838 0
M  V30 445 O 44.4888 1.66363 -1.13513 0
M  V30 446 C 41.5538 2.66337 -2.21958 0
M  V30 447 C 40.6148 2.55008 -3.45354 0
M  V30 448 C 39.8478 3.82121 -3.72584 0
M  V30 449 O 40.0708 4.83951 -3.01907 0
M  V30 450 O 39.0048 3.80822 -4.6611 0
M  V30 451 H 42.8308 1.03862 -2.85388 0
M  V30 452 H 40.4158 0.448686 -1.42503 0
M  V30 453 H 42.2978 3.45216 -2.4167 0
M  V30 454 H 40.9728 2.95068 -1.33103 0
M  V30 455 H 39.8798 1.7442 -3.30951 0
M  V30 456 H 41.2128 2.31222 -4.34508 0
M  V30 457 N 42.8649 1.48995 0.513639 0
M  V30 458 C 43.7949 1.67636 1.62544 0
M  V30 459 C 44.7759 0.525087 1.61793 0
M  V30 460 O 45.9609 0.759502 1.78732 0
M  V30 461 C 43.0909 1.73114 3.01079 0
M  V30 462 C 42.0449 2.87905 3.16693 0
M  V30 463 C 41.3709 2.78486 4.56453 0
M  V30 464 C 42.6709 4.29005 2.97913 0
M  V30 465 H 44.3649 2.60716 1.47198 0
M  V30 466 H 41.9109 1.25465 0.706714 0
M  V30 467 H 43.8639 1.84742 3.78746 0
M  V30 468 H 42.5879 0.766241 3.17484 0
M  V30 469 H 41.2469 2.75859 2.41448 0
M  V30 470 H 40.8949 1.7993 4.69717 0
M  V30 471 H 40.5949 3.55523 4.67843 0
M  V30 472 H 42.1189 2.92104 5.36197 0
M  V30 473 H 43.5329 4.41798 3.65359 0
M  V30 474 H 41.9299 5.07166 3.20785 0
M  V30 475 H 42.9999 4.44329 1.94165 0
M  V30 476 N 44.343 -0.763751 1.37857 0
M  V30 477 C 45.62 -1.51244 1.24035 0
M  V30 478 C 46 -2.10472 -0.162649 0
M  V30 479 O 45.348 -1.96206 -1.17112 0
M  V30 480 C 45.558 -2.58694 2.34261 0
M  V30 481 C 46.906 -3.25878 2.72193 0
M  V30 482 O 47.93 -2.68993 2.33497 0
M  V30 483 O 46.789 -4.2874 3.38887 0
M  V30 484 H 43.883 -0.670243 0.484462 0
M  V30 485 H 46.429 -0.800031 1.49658 0
M  V30 486 H 45.201 -2.13105 3.2818 0
M  V30 487 H 44.824 -3.37527 2.10146 0
M  V30 488 N 45.8211 -1.22559 -0.990812 0
M  V30 489 C 47.0671 -1.05297 -1.73322 0
M  V30 490 C 47.4001 0.410655 -1.89808 0
M  V30 491 O 46.6751 1.30439 -1.44277 0
M  V30 492 C 46.9581 -1.76713 -3.13759 0
M  V30 493 C 46.8111 -3.30684 -3.04907 0
M  V30 494 C 48.1301 -1.52121 -4.12974 0
M  V30 495 H 45.2491 -0.38392 -0.629106 0
M  V30 496 H 47.8911 -1.50926 -1.15418 0
M  V30 497 H 46.0411 -1.37924 -3.63193 0
M  V30 498 H 47.7131 -3.7893 -2.63077 0
M  V30 499 H 45.9561 -3.60253 -2.41661 0
M  V30 500 H 46.6271 -3.75833 -4.04294 0
M  V30 501 H 49.1031 -1.85819 -3.72304 0
M  V30 502 H 47.9791 -2.04582 -5.0935 0
M  V30 503 H 48.2401 -0.454257 -4.3976 0
M  V30 504 N 47.2992 1.18797 -1.03562 0
M  V30 505 C 48.2322 2.2105 -0.56676 0
M  V30 506 C 49.2102 1.57704 0.395993 0
M  V30 507 O 50.3942 1.85908 0.311498 0
M  V30 508 C 47.5212 3.38259 0.172704 0
M  V30 509 C 46.5672 4.19987 -0.74252 0
M  V30 510 S 47.4002 4.87199 -2.22254 0
M  V30 511 C 48.5562 6.07813 -1.49379 0
M  V30 512 H 48.7892 2.60478 -1.43312 0
M  V30 513 H 46.3222 1.29151 -0.846133 0
M  V30 514 H 48.2802 4.06191 0.593191 0
M  V30 515 H 46.9412 2.97252 1.01488 0
M  V30 516 H 46.1342 5.03709 -0.171265 0
M  V30 517 H 45.7362 3.57408 -1.10163 0
M  V30 518 H 48.0282 6.72948 -0.784056 0
M  V30 519 H 48.9712 6.69435 -2.30786 0
M  V30 520 H 49.3792 5.55781 -0.988331 0
M  V30 521 N 48.7773 0.814389 1.34928 0
M  V30 522 C 49.7403 0.235759 2.27984 0
M  V30 523 C 50.7403 -0.581412 1.49921 0
M  V30 524 O 51.9303 -0.398758 1.69575 0
M  V30 525 C 49.0623 -0.670433 3.34242 0
M  V30 526 H 50.2553 1.05659 2.80671 0
M  V30 527 H 47.8083 0.585614 1.44915 0
M  V30 528 H 48.5433 -1.51466 2.86755 0
M  V30 529 H 48.3283 -0.0860822 3.92005 0
M  V30 530 H 49.8183 -1.06935 4.03676 0
M  V30 531 N 50.2554 -1.46986 0.568584 0
M  V30 532 C 51.4804 -2.07335 0.0520528 0
M  V30 533 C 51.9054 -1.41675 -1.23733 0
M  V30 534 O 51.2634 -0.495623 -1.74394 0
M  V30 535 C 51.3114 -3.60417 -0.11501 0
M  V30 536 O 50.4154 -3.95309 -1.17492 0
M  V30 537 H 49.7564 -0.661597 0.0564385 0
M  V30 538 H 52.2864 -1.88837 0.787507 0
M  V30 539 H 52.2964 -4.06698 -0.325644 0
M  V30 540 H 50.9714 -4.07601 0.826675 0
M  V30 541 H 49.5484 -3.60757 -0.943869 0
M  V30 542 N 51.7335 -0.305618 -1.54608 0
M  V30 543 C 52.6635 0.561482 -2.26649 0
M  V30 544 C 53.6445 1.13415 -1.26772 0
M  V30 545 O 54.8295 1.16262 -1.55553 0
M  V30 546 C 51.9595 1.73122 -3.01075 0
M  V30 547 C 50.9135 1.2887 -4.08138 0
M  V30 548 C 50.2395 2.54396 -4.70305 0
M  V30 549 C 51.5395 0.416578 -5.20636 0
M  V30 550 H 53.2335 -0.0393902 -2.99374 0
M  V30 551 H 50.7795 -0.020385 -1.43986 0
M  V30 552 H 52.7325 2.34396 -3.50195 0
M  V30 553 H 51.4565 2.3584 -2.25936 0
M  V30 554 H 50.1155 0.698991 -3.59875 0
M  V30 555 H 49.7635 3.15439 -3.918 0
M  V30 556 H 49.4635 2.25486 -5.42614 0
M  V30 557 H 50.9875 3.16464 -5.2219 0
M  V30 558 H 52.4015 0.935116 -5.65622 0
M  V30 559 H 50.7985 0.221046 -5.99693 0
M  V30 560 H 51.8685 -0.557162 -4.81688 0
M  V30 561 N 53.2116 1.57565 -0.0334293 0
M  V30 562 C 54.4596 1.91598 0.642999 0
M  V30 563 C 54.7806 0.910847 1.7242 0
M  V30 564 O 54.0506 -0.0469931 1.95844 0
M  V30 565 H 52.6306 0.707228 0.240496 0
M  V30 566 H 55.2926 1.94726 -0.0822488 0
M  V30 567 H 54.3886 2.92336 1.09298 0
M  V30 568 N 54.6897 -0.239769 1.55765 0
M  V30 569 C 55.9357 -0.968234 1.78194 0
M  V30 570 C 56.2687 -1.84701 0.599938 0
M  V30 571 O 55.5437 -1.9031 -0.401524 0
M  V30 572 C 55.8267 -1.8227 3.10564 0
M  V30 573 C 55.6797 -0.971633 4.3918 0
M  V30 574 C 56.9987 -2.80388 3.39221 0
M  V30 575 H 54.1177 -0.350572 0.648281 0
M  V30 576 H 56.7597 -0.238259 1.885 0
M  V30 577 H 54.9097 -2.44507 3.01908 0
M  V30 578 H 56.5817 -0.367408 4.59835 0
M  V30 579 H 54.8247 -0.276276 4.32919 0
M  V30 580 H 55.4957 -1.60346 5.28198 0
M  V30 581 H 57.9717 -2.28287 3.47885 0
M  V30 582 H 56.8477 -3.3729 4.33044 0
M  V30 583 H 57.1087 -3.57212 2.60484 0
M  V30 584 N 56.1678 -1.49265 -0.50573 0
M  V30 585 C 57.4448 -1.49012 -1.26707 0
M  V30 586 C 57.8248 -0.215205 -2.1 0
M  V30 587 O 57.1728 0.802547 -2.13943 0
M  V30 588 C 57.3828 -2.7663 -2.12783 0
M  V30 589 C 58.7308 -3.25932 -2.72127 0
M  V30 590 O 59.7548 -2.77715 -2.23054 0
M  V30 591 O 58.6138 -4.09897 -3.61451 0
M  V30 592 H 55.7078 -0.596197 -0.57313 0
M  V30 593 H 58.2538 -1.61524 -0.52039 0
M  V30 594 H 57.0258 -3.60916 -1.5118 0
M  V30 595 H 56.6488 -2.66956 -2.94653 0
M  V30 596 N 57.6459 0.756429 -1.3826 0
M  V30 597 C 58.8949 1.51082 -1.3363 0
M  V30 598 C 59.2079 1.95467 0.0720068 0
M  V30 599 O 60.4139 2.7043 0.240834 0
M  V30 600 C 58.8699 2.72893 -2.34644 0
M  V30 601 C 58.4779 2.35544 -3.81081 0
M  V30 602 C 60.2219 3.50791 -2.39052 0
M  V30 603 C 58.1289 3.53948 -4.73787 0
M  V30 604 H 57.0589 0.56727 -0.49671 0
M  V30 605 H 59.7099 0.827147 -1.638 0
M  V30 606 H 58.0919 3.43227 -1.97513 0
M  V30 607 H 59.2659 1.72894 -4.27135 0
M  V30 608 H 57.5809 1.70786 -3.79764 0
M  V30 609 H 60.1779 4.38823 -3.05513 0
M  V30 610 H 60.5209 3.91745 -1.40861 0
M  V30 611 H 61.0539 2.87467 -2.74968 0
M  V30 612 H 57.7929 3.18064 -5.73163 0
M  V30 613 H 57.3129 4.15651 -4.32428 0
M  V30 614 H 58.9919 4.20566 -4.91663 0
M  V30 615 N 59.124 1.23083 0.984299 0
M  V30 616 C 60.349 1.088 1.76571 0
M  V30 617 C 60.774 -0.356657 1.84688 0
M  V30 618 O 60.132 -1.25788 1.30565 0
M  V30 619 C 60.18 1.71371 3.17277 0
M  V30 620 O 59.284 0.973213 4.00752 0
M  V30 621 H 58.625 0.381599 0.543395 0
M  V30 622 H 61.155 1.63057 1.23587 0
M  V30 623 H 61.165 1.76449 3.67872 0
M  V30 624 H 59.84 2.76493 3.10684 0
M  V30 625 H 58.417 0.999078 3.59267 0
M  V30 626 N 60.6021 -1.18246 1.0419 0
M  V30 627 C 62.0181 -1.40269 0.761366 0
M  V30 628 C 62.2181 -1.90777 -0.648578 0
M  V30 629 O 61.2741 -2.0929 -1.41258 0
M  V30 630 C 62.5871 -2.40237 1.8085 0
M  V30 631 C 64.1351 -2.53961 1.82955 0
M  V30 632 C 64.6101 -3.57194 2.86664 0
M  V30 633 N 66.1011 -3.64702 2.85563 0
M  V30 634 C 66.8361 -4.44309 3.6246 0
M  V30 635 N 66.3321 -5.27514 4.49111 0
M  V30 636 N 68.1251 -4.39084 3.50944 0
M  V30 637 H 60.2761 -0.837882 1.95175 0
M  V30 638 H 62.5391 -0.430608 0.84456 0
M  V30 639 H 62.2451 -2.10176 2.81991 0
M  V30 640 H 62.1191 -3.39601 1.64168 0
M  V30 641 H 64.5061 -2.83338 0.824855 0
M  V30 642 H 64.5871 -1.54706 2.03715 0
M  V30 643 H 64.2311 -3.28558 3.87314 0
M  V30 644 H 64.1611 -4.5613 2.6316 0
M  V30 645 H 66.6521 -3.05289 2.22727 0
M  V30 646 H 66.9651 -5.85411 5.04493 0
M  V30 647 H 65.3101 -5.2693 4.53178 0
M  V30 648 H 68.5011 -3.7313 2.82651 0
M  V30 649 H 68.6741 -5.00883 4.11121 0
M  V30 650 N 62.0802 -0.821533 -1.34494 0
M  V30 651 C 63.4962 -0.507117 -1.51329 0
M  V30 652 C 63.6962 0.968964 -1.76673 0
M  V30 653 O 62.7522 1.75348 -1.81685 0
M  V30 654 C 64.0652 -1.36544 -2.67911 0
M  V30 655 C 65.6132 -1.36242 -2.81793 0
M  V30 656 C 66.0882 -2.2052 -4.01416 0
M  V30 657 N 67.5792 -2.18136 -4.08621 0
M  V30 658 C 68.3142 -2.80095 -5.00334 0
M  V30 659 N 67.8102 -3.51039 -5.9728 0
M  V30 660 N 69.6032 -2.69656 -4.93196 0
M  V30 661 H 61.7542 -1.77729 -1.16302 0
M  V30 662 H 64.0172 -0.757291 -0.570276 0
M  V30 663 H 63.7232 -2.41361 -2.55808 0
M  V30 664 H 63.5972 -1.02917 -3.62888 0
M  V30 665 H 65.9842 -0.322041 -2.93338 0
M  V30 666 H 66.0652 -1.73866 -1.87628 0
M  V30 667 H 65.7092 -3.24607 -3.90631 0
M  V30 668 H 65.6392 -1.80247 -4.94791 0
M  V30 669 H 68.1302 -1.6653 -3.39229 0
M  V30 670 H 68.4432 -3.95565 -6.63889 0
M  V30 671 H 66.7882 -3.55145 -5.97409 0
M  V30 672 H 69.9792 -2.13808 -4.16418 0
M  V30 673 H 70.1522 -3.1823 -5.64476 0
M  V30 674 N 63.5583 1.46682 -0.576371 0
M  V30 675 C 64.5063 2.31953 0.17335 0
M  V30 676 C 65.5003 1.44098 0.89062 0
M  V30 677 O 66.7063 1.60759 0.809728 0
M  V30 678 H 63.0813 0.748273 0.0747727 0
M  V30 679 H 65.0523 2.93007 -0.564738 0
M  V30 680 C 63.8013 3.27142 1.17786 0
M  V30 681 H 63.1243 3.94719 0.635361 0
M  V30 682 H 64.5643 3.896 1.67296 0
M  V30 683 C 63.0233 2.52036 2.23561 0
M  V30 684 O 63.5533 2.27877 3.3081 0
M  V30 685 N 61.7593 2.12709 1.97998 0
M  V30 686 H 61.3063 2.32557 1.10792 0
M  V30 687 H 61.2643 1.62776 2.68982 0
M  V30 688 N 65.0364 0.313813 1.54444 0
M  V30 689 C 65.9464 -0.565714 2.27677 0
M  V30 690 C 66.9624 -1.13754 1.31666 0
M  V30 691 O 68.1384 -1.15959 1.64668 0
M  V30 692 C 65.2034 -1.71528 3.01296 0
M  V30 693 C 64.2644 -1.17624 4.12872 0
M  V30 694 C 63.4974 -2.27102 4.8297 0
M  V30 695 O 63.7204 -3.47256 4.52514 0
M  V30 696 O 62.6544 -1.9307 5.70094 0
M  V30 697 H 66.4804 0.0287296 3.03686 0
M  V30 698 H 64.0654 0.0798312 1.49187 0
M  V30 699 H 65.9474 -2.38476 3.4743 0
M  V30 700 H 64.6224 -2.29608 2.2817 0
M  V30 701 H 63.5294 -0.472124 3.71109 0
M  V30 702 H 64.8624 -0.640695 4.88012 0
M  V30 703 N 66.5145 -1.57545 0.0417849 0
M  V30 704 C 67.4445 -2.14009 -0.933929 0
M  V30 705 C 68.4255 -1.05938 -1.33083 0
M  V30 706 O 69.6105 -1.33833 -1.40721 0
M  V30 707 C 66.7405 -2.67747 -2.21199 0
M  V30 708 C 65.6945 -3.80718 -1.95544 0
M  V30 709 C 65.0205 -4.20935 -3.29724 0
M  V30 710 C 66.3205 -5.06258 -1.28452 0
M  V30 711 H 68.0145 -2.95788 -0.463645 0
M  V30 712 H 65.5605 -1.42285 -0.221573 0
M  V30 713 H 67.5135 -3.05886 -2.89848 0
M  V30 714 H 66.2375 -1.83147 -2.70416 0
M  V30 715 H 64.8965 -3.43037 -1.2931 0
M  V30 716 H 64.5445 -3.33298 -3.76724 0
M  V30 717 H 64.2445 -4.9707 -3.13361 0
M  V30 718 H 65.7685 -4.61666 -3.9962 0
M  V30 719 H 67.1825 -5.41903 -1.8712 0
M  V30 720 H 65.5795 -5.87475 -1.22445 0
M  V30 721 H 66.6495 -4.84207 -0.259219 0
M  V30 722 N 67.9926 0.231505 -1.5589 0
M  V30 723 C 69.4036 0.799327 -1.68724 0
M  V30 724 C 69.7546 1.85398 -0.642022 0
M  V30 725 O 68.8796 2.1539 0.208784 0
M  V30 726 C 69.4746 1.45664 -3.05888 0
M  V30 727 C 68.0336 1.97197 -3.20609 0
M  V30 728 C 67.1806 0.828552 -2.64632 0
M  V30 729 H 70.1316 0.00702616 -1.58698 0
M  V30 730 H 70.1526 2.32517 -3.01191 0
M  V30 731 H 69.6646 0.688808 -3.81939 0
M  V30 732 H 67.7656 2.76813 -2.4941 0
M  V30 733 H 67.8786 2.15878 -4.27707 0
M  V30 734 H 66.2426 1.23321 -2.22854 0
M  V30 735 H 67.0256 0.0735544 -3.43221 0
M  V30 736 N 69.4707 1.49531 0.497807 0
M  V30 737 C 70.7477 1.49682 1.25915 0
M  V30 738 C 71.1277 0.226339 2.09883 0
M  V30 739 O 70.4757 -0.791189 2.14365 0
M  V30 740 C 70.6857 2.77755 2.11313 0
M  V30 741 C 72.0337 3.27371 2.70395 0
M  V30 742 O 73.0577 2.78894 2.21578 0
M  V30 743 O 71.9167 4.11808 3.59272 0
M  V30 744 H 69.0107 0.599228 0.56996 0
M  V30 745 H 71.5567 1.61798 0.511816 0
M  V30 746 H 70.3287 3.61713 1.49264 0
M  V30 747 H 69.9517 2.68515 2.93233 0
M  V30 748 N 70.9488 -0.749086 1.3866 0
M  V30 749 C 72.1768 -1.53834 1.38358 0
M  V30 750 C 72.5918 -1.88783 -0.0255219 0
M  V30 751 O 71.9488 -1.53101 -0.993292 0
M  V30 752 C 71.9998 -2.83468 2.2434 0
M  V30 753 O 71.7208 -2.50008 3.5976 0
M  V30 754 C 73.2218 -3.7758 2.32267 0
M  V30 755 H 70.4418 -0.47585 0.473083 0
M  V30 756 H 72.9858 -0.926726 1.82297 0
M  V30 757 H 71.1408 -3.40995 1.83851 0
M  V30 758 H 71.5548 -3.33182 4.05081 0
M  V30 759 H 73.0288 -4.65478 2.96706 0
M  V30 760 H 73.5058 -4.18334 1.33765 0
M  V30 761 H 74.1118 -3.25976 2.73166 0
M  V30 762 N 72.4269 -1.23603 -0.977757 0
M  V30 763 C 73.3569 -1.04401 -2.0886 0
M  V30 764 C 74.3379 0.0399052 -1.70053 0
M  V30 765 O 75.5229 -0.125246 -1.93796 0
M  V30 766 C 72.6529 -0.637269 -3.41403 0
M  V30 767 C 71.6069 -1.66883 -3.94124 0
M  V30 768 C 70.9329 -1.11745 -5.22893 0
M  V30 769 C 72.2329 -3.06247 -4.23096 0
M  V30 770 H 73.9269 -1.97316 -2.25182 0
M  V30 771 H 71.4729 -0.950096 -1.08209 0
M  V30 772 H 73.4259 -0.48998 -4.18542 0
M  V30 773 H 72.1499 0.327557 -3.24953 0
M  V30 774 H 70.8089 -1.80416 -3.19133 0
M  V30 775 H 70.4569 -0.143527 -5.02795 0
M  V30 776 H 70.1569 -1.80672 -5.59134 0
M  V30 777 H 71.6809 -0.982067 -6.02651 0
M  V30 778 H 73.0949 -2.96001 -4.90975 0
M  V30 779 H 71.4919 -3.72436 -4.70544 0
M  V30 780 H 72.5619 -3.55041 -3.30263 0
M  V30 781 N 73.905 1.17692 -1.04816 0
M  V30 782 C 75.153 1.87488 -0.754497 0
M  V30 783 C 75.474 1.81205 0.720407 0
M  V30 784 O 74.744 1.23544 1.52032 0
M  V30 785 H 73.324 0.694101 -0.276102 0
M  V30 786 H 75.986 1.42793 -1.32651 0
M  V30 787 H 75.082 2.93328 -1.06606 0
M  V30 788 N 75.3831 0.828654 1.34056 0
M  V30 789 C 76.3131 0.269443 2.3194 0
M  V30 790 C 77.2941 -0.617247 1.58506 0
M  V30 791 O 78.4791 -0.542931 1.86456 0
M  V30 792 C 75.6091 -0.564793 3.42677 0
M  V30 793 C 74.5631 0.225241 4.27407 0
M  V30 794 C 73.8891 -0.7321 5.29664 0
M  V30 795 C 75.1891 1.43663 5.02154 0
M  V30 796 H 76.8831 1.08728 2.7896 0
M  V30 797 H 74.4291 0.524283 1.34117 0
M  V30 798 H 76.3821 -0.966233 4.10173 0
M  V30 799 H 75.1061 -1.41574 2.9432 0
M  V30 800 H 73.7651 0.608117 3.61521 0
M  V30 801 H 73.4131 -1.57916 4.77568 0
M  V30 802 H 73.1131 -0.20767 5.87233 0
M  V30 803 H 74.6371 -1.13128 6.00029 0
M  V30 804 H 76.0511 1.1089 5.62473 0
M  V30 805 H 74.4481 1.89711 5.69324 0
M  V30 806 H 75.5181 2.21181 4.31517 0
M  V30 807 N 76.8612 -1.46375 0.584142 0
M  V30 808 C 78.2772 -1.57694 0.245929 0
M  V30 809 C 78.4772 -1.57903 -1.25175 0
M  V30 810 O 77.5332 -1.49676 -2.03355 0
M  V30 811 C 78.8462 -2.87028 0.896402 0
M  V30 812 C 80.3942 -3.00662 0.870127 0
M  V30 813 C 80.8692 -4.32734 1.50017 0
M  V30 814 N 82.3602 -4.39436 1.46458 0
M  V30 815 C 83.0952 -5.40248 1.92144 0
M  V30 816 N 82.5912 -6.47726 2.4581 0
M  V30 817 N 84.3842 -5.31459 1.83052 0
M  V30 818 H 76.5352 -1.44483 1.55687 0
M  V30 819 H 78.7982 -0.689291 0.650831 0
M  V30 820 H 78.5042 -2.9269 1.95002 0
M  V30 821 H 78.3782 -3.75014 0.405486 0
M  V30 822 H 80.7652 -2.94581 -0.174871 0
M  V30 823 H 80.8462 -2.14148 1.39908 0
M  V30 824 H 80.4902 -4.39573 2.54437 0
M  V30 825 H 80.4202 -5.18025 0.946432 0
M  V30 826 H 82.9112 -3.62367 1.07231 0
M  V30 827 H 83.2242 -7.20863 2.78525 0
M  V30 828 H 81.5692 -6.48542 2.49836 0
M  V30 829 H 84.7602 -4.46396 1.40883 0
M  V30 830 H 84.9332 -6.09881 2.18973 0
M  V30 831 N 78.3393 -0.321999 -1.54275 0
M  V30 832 C 79.5883 0.281931 -1.9972 0
M  V30 833 C 79.9013 1.53369 -1.21397 0
M  V30 834 O 81.1073 2.21352 -1.57211 0
M  V30 835 C 79.5633 0.5529 -3.55628 0
M  V30 836 C 79.1713 -0.681721 -4.42783 0
M  V30 837 C 80.9153 1.11687 -4.09544 0
M  V30 838 C 78.8223 -0.382742 -5.9016 0
M  V30 839 H 77.7523 0.109124 -0.746062 0
M  V30 840 H 80.4033 -0.43398 -1.78294 0
M  V30 841 H 78.7853 1.32896 -3.73035 0
M  V30 842 H 79.9593 -1.45723 -4.37151 0
M  V30 843 H 78.2743 -1.1658 -3.99748 0
M  V30 844 H 80.8713 1.35515 -5.17242 0
M  V30 845 H 81.2143 2.06575 -3.61431 0
M  V30 846 H 81.7473 0.402032 -3.95763 0
M  V30 847 H 78.4863 -1.30076 -6.42464 0
M  V30 848 H 78.0063 0.355094 -5.98748 0
M  V30 849 H 79.6853 0.00800157 -6.47 0
M  V30 850 N 79.8174 1.5752 -0.0501392 0
M  V30 851 C 81.0944 1.83996 0.663685 0
M  V30 852 C 81.4744 0.938339 1.89099 0
M  V30 853 O 80.8224 -0.00087759 2.285 0
M  V30 854 C 81.0324 3.33702 1.02196 0
M  V30 855 C 82.3804 4.00691 1.40469 0
M  V30 856 O 83.4044 3.38321 1.11433 0
M  V30 857 O 82.2634 5.10658 1.94654 0
M  V30 858 H 79.3574 0.759385 0.32751 0
M  V30 859 H 81.9034 1.69514 -0.0794238 0
M  V30 860 H 80.6754 3.91015 0.149364 0
M  V30 861 H 80.2984 3.53368 1.82255 0
M  V30 862 N 81.2955 -0.223234 1.56011 0
M  V30 863 C 82.2285 -1.30377 1.87289 0
M  V30 864 C 83.2065 -1.45286 0.730112 0
M  V30 865 O 84.3905 -1.61126 0.978302 0
M  V30 866 C 81.5175 -2.67431 2.07843 0
M  V30 867 C 80.5635 -2.69546 3.30526 0
M  V30 868 S 81.3965 -2.23781 4.865 0
M  V30 869 C 82.5525 -3.62714 5.10088 0
M  V30 870 H 82.7855 -1.03652 2.78646 0
M  V30 871 H 80.3185 -0.425393 1.48424 0
M  V30 872 H 82.2765 -3.46336 2.20368 0
M  V30 873 H 80.9375 -2.91381 1.17285 0
M  V30 874 H 80.1305 -3.70255 3.41947 0
M  V30 875 H 79.7325 -1.98703 3.16849 0
M  V30 876 H 82.0245 -4.58391 4.98883 0
M  V30 877 H 82.9675 -3.5621 6.11981 0
M  V30 878 H 83.3755 -3.56323 4.37829 0
M  V30 879 N 82.7736 -1.49793 -0.48987 0
M  V30 880 C 84.0196 -1.60078 -1.24511 0
M  V30 881 C 84.3526 -0.291608 -1.91998 0
M  V30 882 O 83.6276 0.705647 -1.81248 0
M  V30 883 C 83.9106 -2.76791 -2.30345 0
M  V30 884 C 83.7636 -4.17535 -1.67286 0
M  V30 885 C 85.0826 -2.89111 -3.31817 0
M  V30 886 H 82.2016 -0.582645 -0.451324 0
M  V30 887 H 84.8436 -1.82117 -0.541612 0
M  V30 888 H 82.9936 -2.5813 -2.90346 0
M  V30 889 H 84.6656 -4.4774 -1.11026 0
M  V30 890 H 82.9086 -4.22665 -0.976577 0
M  V30 891 H 83.5796 -4.95094 -2.44103 0
M  V30 892 H 86.0556 -3.06133 -2.81819 0
M  V30 893 H 84.9316 -3.72433 -4.03219 0
M  V30 894 H 85.1926 -1.9893 -3.94815 0
M  V30 895 N 84.2517 0.741722 -1.39055 0
M  V30 896 C 85.4977 1.50336 -1.36113 0
M  V30 897 C 85.8307 1.94148 0.0450796 0
M  V30 898 O 85.1057 1.66301 1.00868 0
M  V30 899 C 85.3887 2.74773 -2.32749 0
M  V30 900 C 85.2417 2.37023 -3.82283 0
M  V30 901 C 86.5607 3.76846 -2.27322 0
M  V30 902 H 83.6797 0.545351 -0.495743 0
M  V30 903 H 86.3217 0.848624 -1.69995 0
M  V30 904 H 84.4717 3.30639 -2.03986 0
M  V30 905 H 86.1437 1.8684 -4.21768 0
M  V30 906 H 84.3867 1.69334 -3.99385 0
M  V30 907 H 85.0577 3.26104 -4.45376 0
M  V30 908 H 87.5337 3.30548 -2.5274 0
M  V30 909 H 86.4097 4.6159 -2.97028 0
M  V30 910 H 86.6707 4.23286 -1.27599 0
M  V30 911 N 85.7298 1.2412 0.971189 0
M  V30 912 C 87.0068 0.986867 1.6888 0
M  V30 913 C 87.3868 -0.491857 2.0529 0
M  V30 914 O 86.7348 -1.46531 1.75331 0
M  V30 915 C 86.9448 1.9063 2.92338 0
M  V30 916 C 88.2928 2.17515 3.64654 0
M  V30 917 O 89.3168 1.88254 3.02388 0
M  V30 918 O 88.1758 2.6719 4.7673 0
M  V30 919 H 85.2698 0.372944 0.738134 0
M  V30 920 H 87.8158 1.35203 1.02559 0
M  V30 921 H 86.5878 2.90552 2.62097 0
M  V30 922 H 86.2108 1.54408 3.66393 0
M  V30 923 N 87.2079 -1.17134 1.05439 0
M  V30 924 C 88.1379 -2.2342 0.678649 0
M  V30 925 C 89.1189 -1.66971 -0.32476 0
M  V30 926 O 90.3039 -1.93149 -0.201802 0
M  V30 927 C 87.4339 -3.47256 0.0552099 0
M  V30 928 C 86.3879 -4.16543 0.98365 0
M  V30 929 C 85.7139 -5.34231 0.223961 0
M  V30 930 C 87.0139 -4.68495 2.3089 0
M  V30 931 H 88.7079 -2.55105 1.56722 0
M  V30 932 H 86.2539 -1.2262 0.754998 0
M  V30 933 H 88.2069 -4.20828 -0.21946 0
M  V30 934 H 86.9309 -3.14846 -0.868319 0
M  V30 935 H 85.5899 -3.44887 1.24293 0
M  V30 936 H 85.2379 -4.98071 -0.702412 0
M  V30 937 H 84.9379 -5.81527 0.842627 0
M  V30 938 H 86.4619 -6.10585 -0.0433671 0
M  V30 939 H 87.8759 -5.33691 2.09396 0
M  V30 940 H 86.2729 -5.26379 2.88176 0
M  V30 941 H 87.3429 -3.85169 2.94572 0
M  V30 942 N 88.686 -0.835752 -1.33615 0
M  V30 943 C 89.932 -0.439817 -1.98588 0
M  V30 944 C 90.287 0.989274 -1.65019 0
M  V30 945 O 89.58 1.68168 -0.918159 0
M  V30 946 C 89.774 -0.593925 -3.52431 0
M  V30 947 C 89.603 -2.03644 -4.00948 0
M  V30 948 C 88.373 -2.67103 -4.28934 0
M  V30 949 C 90.571 -3.00479 -4.17393 0
M  V30 950 N 88.553 -4.02462 -4.6357 0
M  V30 951 C 89.924 -4.20777 -4.55353 0
M  V30 952 C 91.979 -2.96926 -3.99674 0
M  V30 953 C 90.682 -5.37994 -4.77447 0
M  V30 954 C 92.708 -4.1337 -4.22941 0
M  V30 955 C 92.07 -5.32422 -4.61201 0
M  V30 956 H 88.169 -0.209303 -0.75347 0
M  V30 957 H 90.753 -1.08316 -1.61789 0
M  V30 958 H 88.924 0.019599 -3.88395 0
M  V30 959 H 90.656 -0.169738 -4.04344 0
M  V30 960 H 87.411 -2.18259 -4.20309 0
M  V30 961 H 87.835 -4.72232 -4.85104 0
M  V30 962 H 92.477 -2.06015 -3.69212 0
M  V30 963 H 90.195 -6.29451 -5.06771 0
M  V30 964 H 93.781 -4.12034 -4.10754 0
M  V30 965 H 92.661 -6.21027 -4.78848 0
M  V30 966 N 90.1641 1.46063 -0.591896 0
M  V30 967 C 91.3941 2.06418 -0.0867676 0
M  V30 968 C 91.8021 1.43975 1.22751 0
M  V30 969 O 91.1451 0.542531 1.75506 0
M  V30 970 C 91.2071 3.59213 0.143725 0
M  V30 971 C 90.8711 4.439 -1.08635 0
M  V30 972 C 91.8681 4.79864 -2.00067 0
M  V30 973 C 89.5531 4.84896 -1.31077 0
M  V30 974 C 91.5471 5.55661 -3.12282 0
M  V30 975 C 89.2341 5.6045 -2.43596 0
M  V30 976 C 90.2321 5.95747 -3.34027 0
M  V30 977 O 89.9201 6.69772 -4.4459 0
M  V30 978 H 89.6521 0.673443 -0.0587447 0
M  V30 979 H 92.2061 1.88539 -0.814994 0
M  V30 980 H 90.4361 3.75433 0.926668 0
M  V30 981 H 92.1251 4.01463 0.5985 0
M  V30 982 H 92.8911 4.48763 -1.83947 0
M  V30 983 H 88.7701 4.56867 -0.61594 0
M  V30 984 H 92.3141 5.8313 -3.82891 0
M  V30 985 H 88.2111 5.90965 -2.59674 0
M  V30 986 H 88.9791 6.88207 -4.43073 0
M  V30 987 N 91.6422 0.330177 1.54103 0
M  V30 988 C 92.6052 -0.520144 2.2322 0
M  V30 989 C 93.6052 -1.03828 1.22786 0
M  V30 990 O 94.7952 -0.929652 1.4732 0
M  V30 991 C 91.9272 -1.72317 2.94142 0
M  V30 992 H 93.1202 0.0841605 2.99782 0
M  V30 993 H 90.6732 0.0813433 1.56088 0
M  V30 994 H 91.4082 -2.36653 2.21734 0
M  V30 995 H 91.1932 -1.35898 3.67796 0
M  V30 996 H 92.6832 -2.3266 3.46784 0
M  V30 997 N 93.1203 -1.57491 0.0584922 0
M  V30 998 C 94.5363 -1.56792 -0.298091 0
M  V30 999 C 94.7363 -1.06679 -1.70944 0
M  V30 1000 O 93.7923 -0.726672 -2.41818 0
M  V30 1001 C 95.1053 -3.00461 -0.119879 0
M  V30 1002 C 96.6533 -3.1242 -0.190428 0
M  V30 1003 C 97.1283 -4.57982 -0.0406567 0
M  V30 1004 N 98.6193 -4.63099 -0.0966958 0
M  V30 1005 C 99.3543 -5.734 -0.00502943 0
M  V30 1006 N 98.8503 -6.9266 0.139402 0
M  V30 1007 N 100.643 -5.62067 -0.0611391 0
M  V30 1008 H 92.7943 -1.88386 0.98105 0
M  V30 1009 H 95.0573 -0.867865 0.381463 0
M  V30 1010 H 94.7633 -3.41187 0.85349 0
M  V30 1011 H 94.6373 -3.66843 -0.877833 0
M  V30 1012 H 97.0243 -2.71589 -1.15427 0
M  V30 1013 H 97.1053 -2.48702 0.598405 0
M  V30 1014 H 96.7493 -4.995 0.919897 0
M  V30 1015 H 96.6793 -5.19715 -0.848727 0
M  V30 1016 H 99.1703 -3.77331 -0.207277 0
M  V30 1017 H 99.4833 -7.72536 0.201855 0
M  V30 1018 H 97.8283 -6.94781 0.174586 0
M  V30 1019 H 101.019 -4.67782 -0.172583 0
M  V30 1020 H 101.192 -6.47999 0.0137562 0
M  V30 1021 N 94.5984 0.214957 -1.56127 0
M  V30 1022 C 95.5304 1.29004 -1.89448 0
M  V30 1023 C 96.5434 1.42716 -0.783326 0
M  V30 1024 O 97.7324 1.43496 -1.06166 0
M  V30 1025 C 94.8324 2.66482 -2.09381 0
M  V30 1026 C 94.0054 2.74633 -3.40434 0
M  V30 1027 C 93.0644 3.9317 -3.49719 0
M  V30 1028 O 92.0904 3.812 -4.227 0
M  V30 1029 N 93.2924 5.07765 -2.81346 0
M  V30 1030 H 96.0574 1.00743 -2.82261 0
M  V30 1031 H 93.6184 0.40497 -1.56753 0
M  V30 1032 H 95.6104 3.44173 -2.12901 0
M  V30 1033 H 94.1804 2.87314 -1.23163 0
M  V30 1034 H 93.4004 1.83368 -3.48955 0
M  V30 1035 H 94.6884 2.77054 -4.26754 0
M  V30 1036 H 94.0864 5.20386 -2.21843 0
M  V30 1037 H 92.6434 5.83474 -2.90519 0
M  V30 1038 N 96.0765 1.50051 0.48192 0
M  V30 1039 C 97.4875 1.5348 1.06305 0
M  V30 1040 C 97.8385 0.331997 1.93371 0
M  V30 1041 O 96.9635 -0.556256 2.09129 0
M  V30 1042 C 97.5585 2.7813 1.93466 0
M  V30 1043 C 96.1175 2.84275 2.46707 0
M  V30 1044 C 95.2645 2.47637 1.24785 0
M  V30 1045 H 98.2155 1.56472 0.264995 0
M  V30 1046 H 98.2365 2.59372 2.78399 0
M  V30 1047 H 97.7485 3.65654 1.30072 0
M  V30 1048 H 95.8495 2.01077 3.13686 0
M  V30 1049 H 95.9625 3.8691 2.82555 0
M  V30 1050 H 94.3265 1.99835 1.57918 0
M  V30 1051 H 95.1095 3.37457 0.630694 0
M  V30 1052 N 97.5546 -0.734337 1.39446 0
M  V30 1053 C 98.8006 -1.49505 1.37913 0
M  V30 1054 C 99.1556 -1.92384 -0.0248416 0
M  V30 1055 O 98.4486 -1.6395 -0.991506 0
M  V30 1056 C 98.6426 -2.74711 2.28623 0
M  V30 1057 C 98.4716 -2.44075 3.777 0
M  V30 1058 C 97.2416 -2.36338 4.46623 0
M  V30 1059 C 99.4396 -2.09574 4.69663 0
M  V30 1060 N 97.4216 -1.9818 5.81032 0
M  V30 1061 C 98.7926 -1.81865 5.92727 0
M  V30 1062 C 100.848 -1.96048 4.57678 0
M  V30 1063 C 99.5506 -1.41992 7.05146 0
M  V30 1064 C 101.577 -1.57579 5.7002 0
M  V30 1065 C 100.939 -1.30754 6.92158 0
M  V30 1066 H 97.0376 -0.545896 0.55993 0
M  V30 1067 H 99.6216 -0.853373 1.75002 0
M  V30 1068 H 97.7926 -3.36657 1.93692 0
M  V30 1069 H 99.5246 -3.40916 2.18078 0
M  V30 1070 H 96.2796 -2.53456 4.00071 0
M  V30 1071 H 96.7036 -1.81691 6.52163 0
M  V30 1072 H 101.346 -2.15455 3.63784 0
M  V30 1073 H 99.0636 -1.21327 7.9894 0
M  V30 1074 H 102.65 -1.47718 5.62735 0
M  V30 1075 H 101.53 -1.01432 7.77612 0
M  V30 1076 N 99.0327 -1.24633 -0.964593 0
M  V30 1077 C 99.9807 -1.03917 -2.08096 0
M  V30 1078 C 100.975 0.0268581 -1.69379 0
M  V30 1079 O 102.181 -0.127952 -1.79545 0
M  V30 1080 H 98.5557 -0.319044 -0.680966 0
M  V30 1081 H 100.527 -1.98581 -2.22729 0
M  V30 1082 C 99.2757 -0.663983 -3.41301 0
M  V30 1083 H 98.5987 -1.47605 -3.71555 0
M  V30 1084 H 100.039 -0.558663 -4.20303 0
M  V30 1085 C 98.4977 0.629169 -3.30973 0
M  V30 1086 O 99.0277 1.67404 -3.65156 0
M  V30 1087 N 97.2337 0.611057 -2.84103 0
M  V30 1088 H 96.7807 -0.239593 -2.56483 0
M  V30 1089 H 96.7387 1.47647 -2.77575 0
M  V30 1090 N 100.511 1.16574 -1.06058 0
M  V30 1091 C 101.759 1.86677 -0.77434 0
M  V30 1092 C 102.08 1.81959 0.701147 0
M  V30 1093 O 101.35 1.2515 1.50713 0
M  V30 1094 H 99.9298 0.691134 -0.283449 0
M  V30 1095 H 102.592 1.41378 -1.34158 0
M  V30 1096 H 101.688 2.92181 -1.09711 0
M  V30 1097 N 101.989 0.842826 1.3317 0
M  V30 1098 C 103.4 0.496651 1.79973 0
M  V30 1099 C 103.751 -0.984641 1.69703 0
M  V30 1100 O 102.876 -1.76743 1.24863 0
M  V30 1101 C 103.471 0.894727 3.26772 0
M  V30 1102 C 102.03 0.600629 3.71577 0
M  V30 1103 C 101.177 1.10091 2.5451 0
M  V30 1104 H 104.128 1.03116 1.20635 0
M  V30 1105 H 104.149 0.206347 3.7994 0
M  V30 1106 H 103.661 1.97287 3.34215 0
M  V30 1107 H 101.762 -0.467284 3.69658 0
M  V30 1108 H 101.875 1.15863 4.64879 0
M  V30 1109 H 100.239 0.52162 2.49301 0
M  V30 1110 H 101.022 2.18591 2.64713 0
M  V30 1111 N 103.467 -1.45747 0.599634 0
M  V30 1112 C 104.692 -2.07178 0.0960198 0
M  V30 1113 C 105.117 -1.44268 -1.207 0
M  V30 1114 O 104.475 -0.532503 -1.73303 0
M  V30 1115 C 104.523 -3.60579 -0.0385348 0
M  V30 1116 O 103.627 -3.97713 -1.0908 0
M  V30 1117 H 102.968 -0.660251 0.0704593 0
M  V30 1118 H 105.498 -1.87124 0.827385 0
M  V30 1119 H 105.508 -4.07298 -0.239304 0
M  V30 1120 H 104.183 -4.05756 0.912947 0
M  V30 1121 H 102.76 -3.62678 -0.867135 0
M  V30 1122 N 104.945 -0.338344 -1.53925 0
M  V30 1123 C 106.361 0.0137736 -1.59594 0
M  V30 1124 C 106.561 1.49186 -1.35447 0
M  V30 1125 O 105.617 2.24987 -1.14616 0
M  V30 1126 C 106.93 -0.41773 -2.97784 0
M  V30 1127 C 108.478 -0.369633 -3.1081 0
M  V30 1128 C 108.953 -0.776524 -4.51369 0
M  V30 1129 N 110.444 -0.730506 -4.57403 0
M  V30 1130 C 111.179 -1.01736 -5.64303 0
M  V30 1131 N 110.675 -1.3721 -6.79077 0
M  V30 1132 N 112.468 -0.941942 -5.54151 0
M  V30 1133 H 104.619 -1.3012 -1.67876 0
M  V30 1134 H 106.882 -0.530082 -0.78595 0
M  V30 1135 H 106.588 -1.44811 -3.20504 0
M  V30 1136 H 106.462 0.209729 -3.76616 0
M  V30 1137 H 108.849 0.651568 -2.87817 0
M  V30 1138 H 108.93 -1.03223 -2.34049 0
M  V30 1139 H 108.574 -1.79571 -4.75096 0
M  V30 1140 H 108.504 -0.0914649 -5.26521 0
M  V30 1141 H 110.995 -0.468783 -3.74981 0
M  V30 1142 H 111.308 -1.57597 -7.5656 0
M  V30 1143 H 109.653 -1.4105 -6.80536 0
M  V30 1144 H 112.844 -0.664184 -4.63364 0
M  V30 1145 H 113.017 -1.16884 -6.37371 0
M  V30 1146 N 106.423 1.57458 -0.0668435 0
M  V30 1147 C 107.355 2.09413 0.931601 0
M  V30 1148 C 108.368 1.02522 1.26464 0
M  V30 1149 O 109.557 1.30049 1.22269 0
M  V30 1150 C 106.657 2.53537 2.24882 0
M  V30 1151 C 105.83 3.83944 2.09537 0
M  V30 1152 C 104.889 4.14214 3.2452 0
M  V30 1153 O 103.915 4.83891 2.9973 0
M  V30 1154 N 105.117 3.67367 4.49469 0
M  V30 1155 H 107.882 2.95699 0.488048 0
M  V30 1156 H 105.443 1.61462 0.119009 0
M  V30 1157 H 107.435 2.70853 3.00701 0
M  V30 1158 H 106.005 1.72415 2.60753 0
M  V30 1159 H 105.225 3.76057 1.18215 0
M  V30 1160 H 106.513 4.69312 1.96529 0
M  V30 1161 H 105.911 3.11068 4.72497 0
M  V30 1162 H 104.468 3.89891 5.2233 0
M  V30 1163 N 107.901 -0.206675 1.56239 0
M  V30 1164 C 108.811 -1.27686 1.96808 0
M  V30 1165 C 109.827 -1.50455 0.874035 0
M  V30 1166 O 111.003 -1.63295 1.17884 0
M  V30 1167 C 108.068 -2.60358 2.28942 0
M  V30 1168 C 107.129 -2.45762 3.51994 0
M  V30 1169 C 106.362 -3.72108 3.82585 0
M  V30 1170 O 106.585 -4.75776 3.14631 0
M  V30 1171 O 105.519 -3.6833 4.76043 0
M  V30 1172 H 109.345 -0.962593 2.88041 0
M  V30 1173 H 106.93 -0.410746 1.43643 0
M  V30 1174 H 108.812 -3.38687 2.50737 0
M  V30 1175 H 107.487 -2.91435 1.4088 0
M  V30 1176 H 106.394 -1.65584 3.35459 0
M  V30 1177 H 107.727 -2.19621 4.40486 0
M  V30 1178 N 109.379 -1.50304 -0.473955 0
M  V30 1179 C 110.625 -1.61389 -1.22806 0
M  V30 1180 C 110.958 -0.311955 -1.91678 0
M  V30 1181 O 110.233 0.686384 -1.81986 0
M  V30 1182 C 110.516 -2.79219 -2.27396 0
M  V30 1183 C 110.369 -4.19286 -1.62848 0
M  V30 1184 C 111.688 -2.92614 -3.28732 0
M  V30 1185 H 108.807 -0.587399 -0.445119 0
M  V30 1186 H 111.449 -1.82681 -0.522265 0
M  V30 1187 H 109.599 -2.61195 -2.87592 0
M  V30 1188 H 111.271 -4.48892 -1.06271 0
M  V30 1189 H 109.514 -4.23677 -0.931693 0
M  V30 1190 H 110.185 -4.97655 -2.38838 0
M  V30 1191 H 112.661 -3.09105 -2.78556 0
M  V30 1192 H 111.537 -3.76688 -3.99246 0
M  V30 1193 H 111.798 -2.03107 -3.92683 0
M  V30 1194 N 110.857 0.726932 -1.39834 0
M  V30 1195 C 112.103 1.48884 -1.377 0
M  V30 1196 C 112.436 1.94185 0.0244852 0
M  V30 1197 O 111.711 1.67361 0.990986 0
M  V30 1198 C 111.994 2.72288 -2.3565 0
M  V30 1199 C 111.847 2.32956 -3.84775 0
M  V30 1200 C 113.166 3.74414 -2.31306 0
M  V30 1201 H 110.285 0.540062 -0.5015 0
M  V30 1202 H 112.927 0.830547 -1.70886 0
M  V30 1203 H 111.077 3.28457 -2.07481 0
M  V30 1204 H 112.749 1.82356 -4.23726 0
M  V30 1205 H 110.992 1.65088 -4.01159 0
M  V30 1206 H 111.663 3.21362 -4.4881 0
M  V30 1207 H 114.139 3.27849 -2.56231 0
M  V30 1208 H 113.015 4.58414 -3.01907 0
M  V30 1209 H 113.276 4.21909 -1.32081 0
M  V30 1210 N 112.336 1.25143 0.95797 0
M  V30 1211 C 113.246 1.06968 2.08794 0
M  V30 1212 C 114.262 0.00773911 1.73998 0
M  V30 1213 O 115.438 0.207972 2.00323 0
M  V30 1214 C 112.503 0.68691 3.39827 0
M  V30 1215 C 111.564 1.82641 3.88511 0
M  V30 1216 C 110.797 1.46181 5.1329 0
M  V30 1217 O 111.02 0.355971 5.69288 0
M  V30 1218 O 109.954 2.29085 5.566 0
M  V30 1219 H 113.78 2.01723 2.27027 0
M  V30 1220 H 111.365 1.04051 1.07209 0
M  V30 1221 H 113.247 0.485417 4.18595 0
M  V30 1222 H 111.922 -0.231417 3.22872 0
M  V30 1223 H 110.829 2.08274 3.10762 0
M  V30 1224 H 112.162 2.72386 4.09959 0
M  V30 1225 N 113.814 -1.1601 1.06675 0
M  V30 1226 C 115.23 -1.38622 0.790948 0
M  V30 1227 C 115.43 -1.92109 -0.607965 0
M  V30 1228 O 114.486 -2.12239 -1.36787 0
M  V30 1229 C 115.799 -2.36347 1.85905 0
M  V30 1230 C 117.347 -2.50023 1.88301 0
M  V30 1231 C 117.822 -3.51033 2.94176 0
M  V30 1232 N 119.313 -3.58563 2.93235 0
M  V30 1233 C 120.048 -4.36521 3.71803 0
M  V30 1234 N 119.544 -5.17869 4.602 0
M  V30 1235 N 121.337 -4.31541 3.60178 0
M  V30 1236 H 113.488 -0.796294 1.96908 0
M  V30 1237 H 115.751 -0.412597 0.853503 0
M  V30 1238 H 115.457 -2.04147 2.86386 0
M  V30 1239 H 115.331 -3.36042 1.71334 0
M  V30 1240 H 117.718 -2.81524 0.884769 0
M  V30 1241 H 117.799 -1.5035 2.06951 0
M  V30 1242 H 117.443 -3.20268 3.94196 0
M  V30 1243 H 117.373 -4.50445 2.72776 0
M  V30 1244 H 119.864 -3.00496 2.29152 0
M  V30 1245 H 120.177 -5.74578 5.16797 0
M  V30 1246 H 118.522 -5.17199 4.64253 0
M  V30 1247 H 121.713 -3.67051 2.90502 0
M  V30 1248 H 121.886 -4.9205 4.21653 0
M  V30 1249 N 115.292 -0.849877 -1.32721 0
M  V30 1250 C 116.538 -0.451591 -1.97708 0
M  V30 1251 C 116.871 0.989175 -1.6712 0
M  V30 1252 O 116.146 1.69334 -0.956891 0
M  V30 1253 C 116.429 -0.685598 -3.53513 0
M  V30 1254 C 116.282 -2.17444 -3.93749 0
M  V30 1255 C 117.601 -0.138874 -4.39881 0
M  V30 1256 H 114.72 -0.16555 -0.718166 0
M  V30 1257 H 117.362 -1.06742 -1.57182 0
M  V30 1258 H 115.512 -0.161416 -3.88165 0
M  V30 1259 H 117.184 -2.76433 -3.693 0
M  V30 1260 H 115.427 -2.65476 -3.43081 0
M  V30 1261 H 116.098 -2.28888 -5.02309 0
M  V30 1262 H 118.574 -0.587068 -4.11938 0
M  V30 1263 H 117.45 -0.332213 -5.47894 0
M  V30 1264 H 117.711 0.95806 -4.31594 0
M  V30 1265 N 116.77 1.45427 -0.607355 0
M  V30 1266 C 118.019 2.01452 -0.100036 0
M  V30 1267 C 118.332 1.48159 1.27704 0
M  V30 1268 O 119.538 1.96159 1.87707 0
M  V30 1269 C 117.994 3.59672 -0.128158 0
M  V30 1270 C 117.602 4.21962 -1.50507 0
M  V30 1271 C 119.346 4.23262 0.323932 0
M  V30 1272 C 117.253 5.72333 -1.48959 0
M  V30 1273 H 116.183 0.75325 -0.0336299 0
M  V30 1274 H 118.834 1.66901 -0.76265 0
M  V30 1275 H 117.216 3.91411 0.601105 0
M  V30 1276 H 118.39 4.01796 -2.25602 0
M  V30 1277 H 116.705 3.70565 -1.89923 0
M  V30 1278 H 119.302 5.33522 0.354691 0
M  V30 1279 H 119.645 3.93921 1.34656 0
M  V30 1280 H 120.178 3.96239 -0.352056 0
M  V30 1281 H 116.917 6.06373 -2.48981 0
M  V30 1282 H 116.437 5.94691 -0.781214 0
M  V30 1283 H 118.116 6.35525 -1.21313 0
M  V30 1284 N 118.248 0.346503 1.53744 0
M  V30 1285 C 119.211 -0.496439 2.23759 0
M  V30 1286 C 120.211 -1.0252 1.2388 0
M  V30 1287 O 121.401 -0.913974 1.48297 0
M  V30 1288 C 118.533 -1.69187 2.95954 0
M  V30 1289 H 119.726 0.115952 2.99676 0
M  V30 1290 H 117.279 0.0978939 1.55993 0
M  V30 1291 H 118.014 -2.34288 2.24231 0
M  V30 1292 H 117.799 -1.31989 3.69217 0
M  V30 1293 H 119.289 -2.28969 3.49232 0
M  V30 1294 N 119.726 -1.57421 0.075193 0
M  V30 1295 C 121.142 -1.57099 -0.281444 0
M  V30 1296 C 121.342 -1.08486 -1.69803 0
M  V30 1297 O 120.398 -0.752279 -2.41033 0
M  V30 1298 C 121.711 -3.00571 -0.0880041 0
M  V30 1299 C 123.259 -3.12605 -0.157281 0
M  V30 1300 C 123.734 -4.57999 0.0079207 0
M  V30 1301 N 125.225 -4.63176 -0.0475725 0
M  V30 1302 C 125.96 -5.73373 0.0557876 0
M  V30 1303 N 125.456 -6.92473 0.21286 0
M  V30 1304 N 127.249 -5.621 -0.00152098 0
M  V30 1305 H 119.4 -1.87335 1.00098 0
M  V30 1306 H 121.663 -0.86377 0.390646 0
M  V30 1307 H 121.369 -3.40262 0.889629 0
M  V30 1308 H 121.243 -3.67754 -0.838875 0
M  V30 1309 H 123.63 -2.72798 -1.1254 0
M  V30 1310 H 123.711 -2.48053 0.62475 0
M  V30 1311 H 123.355 -4.98496 0.972824 0
M  V30 1312 H 123.285 -5.20586 -0.793556 0
M  V30 1313 H 125.776 -3.7753 -0.167244 0
M  V30 1314 H 126.089 -7.72279 0.283781 0
M  V30 1315 H 124.434 -6.94556 0.248267 0
M  V30 1316 H 127.625 -4.67938 -0.122958 0
M  V30 1317 H 127.798 -6.47948 0.0824844 0
M  V30 1318 N 121.204 0.198386 -1.56346 0
M  V30 1319 C 122.167 1.22952 -1.93431 0
M  V30 1320 C 123.167 1.38611 -0.815092 0
M  V30 1321 O 124.357 1.36479 -1.08255 0
M  V30 1322 C 121.489 2.59946 -2.20546 0
M  V30 1323 H 122.682 0.912626 -2.85677 0
M  V30 1324 H 120.235 0.43977 -1.49986 0
M  V30 1325 H 120.97 2.96696 -1.30927 0
M  V30 1326 H 120.755 2.49953 -3.02102 0
M  V30 1327 H 122.245 3.3431 -2.50253 0
M  V30 1328 N 122.682 1.50554 0.465978 0
M  V30 1329 C 123.931 1.61038 1.21448 0
M  V30 1330 C 124.244 0.31865 1.92987 0
M  V30 1331 O 125.45 0.302469 2.6981 0
M  V30 1332 C 123.906 2.84283 2.20706 0
M  V30 1333 C 123.514 4.20352 1.54946 0
M  V30 1334 C 125.258 3.04115 2.96166 0
M  V30 1335 C 123.165 5.34778 2.5252 0
M  V30 1336 H 122.095 0.599718 0.457005 0
M  V30 1337 H 124.746 1.7699 0.484424 0
M  V30 1338 H 123.128 2.61901 2.97025 0
M  V30 1339 H 124.302 4.53008 0.843811 0
M  V30 1340 H 122.617 4.06167 0.917475 0
M  V30 1341 H 125.214 3.86774 3.69202 0
M  V30 1342 H 125.557 2.16045 3.55852 0
M  V30 1343 H 126.09 3.26702 2.26959 0
M  V30 1344 H 122.829 6.25018 1.97566 0
M  V30 1345 H 122.349 5.06534 3.21222 0
M  V30 1346 H 124.028 5.65561 3.14245 0
M  V30 1347 N 124.16 -0.719506 1.40217 0
M  V30 1348 C 125.385 -1.51371 1.4178 0
M  V30 1349 C 125.81 -1.88091 0.0182355 0
M  V30 1350 O 125.168 -1.52997 -0.972707 0
M  V30 1351 C 125.216 -2.768 2.31115 0
M  V30 1352 O 124.32 -3.73349 1.7517 0
M  V30 1353 H 123.661 -0.456529 0.482159 0
M  V30 1354 H 126.191 -0.88644 1.844 0
M  V30 1355 H 126.201 -3.25371 2.46167 0
M  V30 1356 H 124.876 -2.49407 3.3282 0
M  V30 1357 H 123.453 -3.32179 1.69444 0
M  V30 1358 N 125.638 -1.25649 -0.95132 0
M  V30 1359 C 126.568 -1.08808 -2.06599 0
M  V30 1360 C 127.549 0.00382547 -1.701 0
M  V30 1361 O 128.734 -0.166325 -1.93486 0
M  V30 1362 C 125.864 -0.709542 -3.39975 0
M  V30 1363 C 124.818 -1.75206 -3.90496 0
M  V30 1364 C 124.144 -1.22811 -5.20405 0
M  V30 1365 C 125.444 -3.15153 -4.16504 0
M  V30 1366 H 127.138 -2.02048 -2.20946 0
M  V30 1367 H 124.684 -0.972835 -1.06169 0
M  V30 1368 H 126.637 -0.578649 -4.17408 0
M  V30 1369 H 125.361 0.258556 -3.25575 0
M  V30 1370 H 124.02 -1.87145 -3.15234 0
M  V30 1371 H 123.668 -0.250145 -5.02378 0
M  V30 1372 H 123.368 -1.92492 -5.55176 0
M  V30 1373 H 124.892 -1.10968 -6.00432 0
M  V30 1374 H 126.306 -3.06349 -4.84586 0
M  V30 1375 H 124.703 -3.82333 -4.62538 0
M  V30 1376 H 125.773 -3.61966 -3.22658 0
M  V30 1377 N 127.117 1.15442 -1.07289 0
M  V30 1378 C 128.363 1.86489 -0.796846 0
M  V30 1379 C 128.696 1.82078 0.675371 0
M  V30 1380 O 127.971 1.24346 1.4956 0
M  V30 1381 C 128.254 3.35626 -1.30489 0
M  V30 1382 C 128.107 3.48673 -2.84161 0
M  V30 1383 C 129.426 4.30357 -0.920907 0
M  V30 1384 H 126.545 0.677144 -0.290939 0
M  V30 1385 H 129.187 1.35633 -1.33056 0
M  V30 1386 H 127.337 3.79068 -0.850883 0
M  V30 1387 H 129.009 3.14099 -3.37846 0
M  V30 1388 H 127.252 2.90253 -3.22391 0
M  V30 1389 H 127.923 4.53453 -3.14777 0
M  V30 1390 H 130.399 3.94871 -1.3121 0
M  V30 1391 H 129.275 5.33193 -1.30372 0
M  V30 1392 H 129.536 4.4176 0.173226 0
M  V30 1393 N 128.595 0.856903 1.32268 0
M  V30 1394 C 129.505 0.306131 2.32594 0
M  V30 1395 C 130.521 -0.577209 1.64147 0
M  V30 1396 O 131.697 -0.477043 1.95669 0
M  V30 1397 C 128.762 -0.494561 3.43154 0
M  V30 1398 C 127.823 0.415186 4.27288 0
M  V30 1399 C 127.056 -0.347387 5.32568 0
M  V30 1400 O 127.279 -1.57708 5.48165 0
M  V30 1401 O 126.213 0.287982 6.01211 0
M  V30 1402 H 130.039 1.13737 2.81598 0
M  V30 1403 H 127.624 0.619902 1.35932 0
M  V30 1404 H 129.506 -0.948944 4.10576 0
M  V30 1405 H 128.181 -1.30257 2.96336 0
M  V30 1406 H 127.088 0.917793 3.62667 0
M  V30 1407 H 128.421 1.18844 4.77637 0
M  V30 1408 N 130.073 -1.45103 0.615059 0
M  V30 1409 C 130.983 -2.34382 -0.101034 0
M  V30 1410 C 131.999 -1.51681 -0.852585 0
M  V30 1411 O 133.175 -1.8446 -0.808484 0
M  V30 1412 C 130.24 -3.29417 -1.08099 0
M  V30 1413 C 129.301 -4.28025 -0.330577 0
M  V30 1414 C 128.534 -5.1852 -1.26385 0
M  V30 1415 O 128.757 -5.12598 -2.50198 0
M  V30 1416 O 127.691 -5.97122 -0.756866 0
M  V30 1417 H 131.517 -2.97033 0.632855 0
M  V30 1418 H 129.102 -1.4461 0.375293 0
M  V30 1419 H 130.984 -3.87958 -1.6452 0
M  V30 1420 H 129.659 -2.69321 -1.79577 0
M  V30 1421 H 128.566 -3.73078 0.276283 0
M  V30 1422 H 129.899 -4.90997 0.343866 0
M  V30 1423 N 131.551 -0.354651 -1.53558 0
M  V30 1424 C 132.779 0.239515 -2.05509 0
M  V30 1425 C 133.194 1.4333 -1.2289 0
M  V30 1426 O 132.551 1.80538 -0.266899 0
M  V30 1427 C 132.602 0.643719 -3.55723 0
M  V30 1428 O 132.323 -0.502602 -4.35207 0
M  V30 1429 C 133.824 1.29743 -4.23889 0
M  V30 1430 H 131.044 0.0442697 -0.669538 0
M  V30 1431 H 133.588 -0.509856 -1.98042 0
M  V30 1432 H 131.743 1.34302 -3.63376 0
M  V30 1433 H 132.157 -0.178172 -5.24197 0
M  V30 1434 H 133.631 1.53091 -5.30346 0
M  V30 1435 H 134.108 2.25441 -3.76926 0
M  V30 1436 H 134.714 0.639865 -4.20459 0
M  V30 1437 N 133.029 1.57378 -0.0835403 0
M  V30 1438 C 134.445 1.57246 0.273109 0
M  V30 1439 C 134.645 1.09385 1.69225 0
M  V30 1440 O 133.701 0.765051 2.40631 0
M  V30 1441 C 135.014 3.00614 0.0720628 0
M  V30 1442 C 136.562 3.12684 0.1407 0
M  V30 1443 C 137.037 4.57989 -0.0322094 0
M  V30 1444 N 138.528 4.63194 0.0230085 0
M  V30 1445 C 139.263 5.73335 -0.0861941 0
M  V30 1446 N 138.759 6.9235 -0.24958 0
M  V30 1447 N 140.552 5.62093 -0.0282886 0
M  V30 1448 H 132.703 1.86801 -1.0109 0
M  V30 1449 H 134.966 0.861687 -0.395222 0
M  V30 1450 H 134.672 3.39786 -0.907662 0
M  V30 1451 H 134.546 3.68193 0.81936 0
M  V30 1452 H 136.933 2.73391 1.11092 0
M  V30 1453 H 137.014 2.47719 -0.637896 0
M  V30 1454 H 136.658 4.97973 -0.999247 0
M  V30 1455 H 136.588 5.21 0.765937 0
M  V30 1456 H 139.079 3.77613 0.14722 0
M  V30 1457 H 139.392 7.72117 -0.324733 0
M  V30 1458 H 137.737 6.94415 -0.285097 0
M  V30 1459 H 140.928 4.67997 0.0981408 0
M  V30 1460 H 141.101 6.47895 -0.116845 0
M  V30 1461 N 134.507 -0.190092 1.56449 0
M  V30 1462 C 135.918 -0.754312 1.70784 0
M  V30 1463 C 136.269 -1.83631 0.690951 0
M  V30 1464 O 135.394 -2.15868 -0.151604 0
M  V30 1465 C 135.989 -1.37503 3.09642 0
M  V30 1466 C 134.548 -1.88628 3.25725 0
M  V30 1467 C 133.695 -0.758098 2.66736 0
M  V30 1468 H 136.646 0.0350524 1.58661 0
M  V30 1469 H 136.667 -2.2445 3.0725 0
M  V30 1470 H 136.179 -0.587302 3.83631 0
M  V30 1471 H 134.28 -2.70103 2.56661 0
M  V30 1472 H 134.393 -2.04462 4.3328 0
M  V30 1473 H 132.757 -1.17369 2.26046 0
M  V30 1474 H 133.54 0.0174705 3.43296 0
M  V30 1475 N 135.985 -1.50799 -0.457987 0
M  V30 1476 C 136.915 -1.73553 -1.5621 0
M  V30 1477 C 137.896 -0.584774 -1.59732 0
M  V30 1478 O 139.081 -0.825314 -1.7579 0
M  V30 1479 C 136.211 -1.84169 -2.94447 0
M  V30 1480 C 135.165 -2.99461 -3.0579 0
M  V30 1481 C 134.491 -2.95235 -4.45803 0
M  V30 1482 C 135.791 -4.39766 -2.81786 0
M  V30 1483 H 137.485 -2.66 -1.37421 0
M  V30 1484 H 135.031 -1.28002 -0.659662 0
M  V30 1485 H 136.984 -1.98672 -3.71628 0
M  V30 1486 H 135.708 -0.883545 -3.14422 0
M  V30 1487 H 134.367 -2.8463 -2.31044 0
M  V30 1488 H 134.015 -1.97239 -4.62715 0
M  V30 1489 H 133.715 -3.72642 -4.54326 0
M  V30 1490 H 135.239 -3.11803 -5.24987 0
M  V30 1491 H 136.653 -4.55054 -3.4871 0
M  V30 1492 H 135.05 -5.18722 -3.0174 0
M  V30 1493 H 136.12 -4.51229 -1.7754 0
M  V30 1494 N 137.463 0.71206 -1.40597 0
M  V30 1495 C 138.393 1.83889 -1.43899 0
M  V30 1496 C 139.374 1.67442 -0.299504 0
M  V30 1497 O 140.559 1.87421 -0.508624 0
M  V30 1498 C 137.689 3.21877 -1.30431 0
M  V30 1499 C 136.643 3.53002 -2.42019 0
M  V30 1500 C 135.969 4.90172 -2.13626 0
M  V30 1501 C 137.269 3.53643 -3.84362 0
M  V30 1502 H 138.963 1.81383 -2.38203 0
M  V30 1503 H 136.509 0.871237 -1.14654 0
M  V30 1504 H 138.462 4.00404 -1.31357 0
M  V30 1505 H 137.186 3.24968 -0.326049 0
M  V30 1506 H 135.845 2.76818 -2.40349 0
M  V30 1507 H 135.493 4.89869 -1.14182 0
M  V30 1508 H 135.193 5.11962 -2.88389 0
M  V30 1509 H 136.717 5.71028 -2.1624 0
M  V30 1510 H 138.131 4.22203 -3.87837 0
M  V30 1511 H 136.528 3.86961 -4.58673 0
M  V30 1512 H 137.598 2.52954 -4.13693 0
M  V30 1513 N 138.941 1.26152 0.944643 0
M  V30 1514 C 140.352 1.10454 1.50522 0
M  V30 1515 C 140.703 -0.31635 1.93633 0
M  V30 1516 O 139.828 -1.20746 1.79581 0
M  V30 1517 C 140.423 1.99891 2.73549 0
M  V30 1518 C 138.982 1.88348 3.25886 0
M  V30 1519 C 138.129 1.93447 1.9868 0
M  V30 1520 H 141.08 1.39292 0.760489 0
M  V30 1521 H 141.101 1.54477 3.47732 0
M  V30 1522 H 140.613 3.03297 2.42141 0
M  V30 1523 H 138.714 0.878636 3.62092 0
M  V30 1524 H 138.827 2.73696 3.93227 0
M  V30 1525 H 137.191 1.37456 2.14425 0
M  V30 1526 H 137.974 2.98476 1.69607 0
M  V30 1527 N 140.419 -1.14872 1.07899 0
M  V30 1528 C 141.667 -1.85422 0.803941 0
M  V30 1529 C 141.988 -1.83051 -0.67211 0
M  V30 1530 O 141.258 -1.27532 -1.48703 0
M  V30 1531 H 139.838 -0.686537 0.294408 0
M  V30 1532 H 142.5 -1.39226 1.3639 0
M  V30 1533 H 141.596 -2.90399 1.14346 0
M  V30 1534 N 141.898 -0.863906 -1.31812 0
M  V30 1535 C 143.144 -0.472535 -1.97218 0
M  V30 1536 C 143.477 0.971394 -1.68159 0
M  V30 1537 O 142.752 1.68309 -0.974798 0
M  V30 1538 C 143.035 -0.723054 -3.52766 0
M  V30 1539 C 142.888 -2.21608 -3.91421 0
M  V30 1540 C 144.207 -0.185522 -4.39709 0
M  V30 1541 H 141.326 -0.173158 -0.71637 0
M  V30 1542 H 143.968 -1.08403 -1.56041 0
M  V30 1543 H 142.118 -0.202577 -3.87971 0
M  V30 1544 H 143.79 -2.80334 -3.66347 0
M  V30 1545 H 142.033 -2.691 -3.40246 0
M  V30 1546 H 142.704 -2.34203 -4.99853 0
M  V30 1547 H 145.18 -0.630726 -4.11292 0
M  V30 1548 H 144.056 -0.390306 -5.47511 0
M  V30 1549 H 144.317 0.912229 -4.32586 0
M  V30 1550 N 143.376 1.44774 -0.622745 0
M  V30 1551 C 144.792 1.56986 -0.287652 0
M  V30 1552 C 144.992 1.61167 1.20944 0
M  V30 1553 O 144.048 1.55015 1.99315 0
M  V30 1554 C 145.361 2.84551 -0.972188 0
M  V30 1555 C 146.909 2.9825 -0.949536 0
M  V30 1556 C 147.384 4.28605 -1.61437 0
M  V30 1557 N 148.875 4.35399 -1.58057 0
M  V30 1558 C 149.61 5.34964 -2.064 0
M  V30 1559 N 149.106 6.40981 -2.62897 0
M  V30 1560 N 150.899 5.26419 -1.97078 0
M  V30 1561 H 143.05 1.40304 -1.59463 0
M  V30 1562 H 145.313 0.671794 -0.668878 0
M  V30 1563 H 145.019 2.87417 -2.02693 0
M  V30 1564 H 144.893 3.73807 -0.504771 0
M  V30 1565 H 147.28 2.94941 0.0967067 0
M  V30 1566 H 147.361 2.10364 -1.45536 0
M  V30 1567 H 147.005 4.32672 -2.66002 0
M  V30 1568 H 146.935 5.15334 -1.08344 0
M  V30 1569 H 149.426 3.59397 -1.16801 0
M  V30 1570 H 149.739 7.13225 -2.97539 0
M  V30 1571 H 148.084 6.4169 -2.66943 0
M  V30 1572 H 151.275 4.42504 -1.52669 0
M  V30 1573 H 151.448 6.03861 -2.35066 0
M  V30 1574 N 144.854 0.36279 1.53368 0
M  V30 1575 C 145.764 -0.492994 2.29362 0
M  V30 1576 C 146.78 -1.09507 1.35219 0
M  V30 1577 O 147.956 -1.10662 1.68273 0
M  V30 1578 C 145.021 -1.61855 3.066 0
M  V30 1579 C 144.082 -1.04429 4.16405 0
M  V30 1580 C 143.315 -2.11621 4.89951 0
M  V30 1581 O 143.538 -3.32684 4.63333 0
M  V30 1582 O 142.472 -1.74835 5.75948 0
M  V30 1583 H 146.298 0.125331 3.03441 0
M  V30 1584 H 143.883 0.127253 1.48857 0
M  V30 1585 H 145.765 -2.27302 3.54841 0
M  V30 1586 H 144.44 -2.22233 2.3536 0
M  V30 1587 H 143.347 -0.353819 3.72423 0
M  V30 1588 H 144.68 -0.485113 4.89804 0
M  V30 1589 N 146.332 -1.57332 0.0918853 0
M  V30 1590 C 147.295 -2.12708 -0.85369 0
M  V30 1591 C 148.295 -1.05561 -1.213 0
M  V30 1592 O 149.485 -1.31461 -1.14296 0
M  V30 1593 C 146.617 -2.64503 -2.15061 0
M  V30 1594 H 147.81 -2.97573 -0.3729 0
M  V30 1595 H 145.363 -1.55509 -0.157072 0
M  V30 1596 H 146.098 -1.83149 -2.67632 0
M  V30 1597 H 145.883 -3.4284 -1.90272 0
M  V30 1598 H 147.373 -3.07351 -2.82711 0
M  V30 1599 N 147.81 0.181792 -1.56548 0
M  V30 1600 C 149.056 0.901431 -1.81665 0
M  V30 1601 C 149.389 1.82347 -0.668075 0
M  V30 1602 O 148.664 1.91669 0.330615 0
M  V30 1603 C 148.947 1.70618 -3.17115 0
M  V30 1604 C 148.8 0.807964 -4.42484 0
M  V30 1605 C 150.119 2.67605 -3.49393 0
M  V30 1606 H 147.238 0.32627 -0.660846 0
M  V30 1607 H 149.88 0.168134 -1.89255 0
M  V30 1608 H 148.03 2.33133 -3.10775 0
M  V30 1609 H 149.702 0.19649 -4.60881 0
M  V30 1610 H 147.945 0.115411 -4.33646 0
M  V30 1611 H 148.616 1.40632 -5.33785 0
M  V30 1612 H 151.092 2.15218 -3.56118 0
M  V30 1613 H 149.968 3.20985 -4.45264 0
M  V30 1614 H 150.229 3.47298 -2.73563 0
M  V30 1615 N 149.288 1.51039 0.449983 0
M  V30 1616 C 150.251 1.70863 1.5277 0
M  V30 1617 C 151.251 0.578846 1.5002 0
M  V30 1618 O 152.441 0.846213 1.52266 0
M  V30 1619 C 149.573 1.75341 2.9235 0
M  V30 1620 H 150.766 2.67034 1.36502 0
M  V30 1621 H 148.319 1.40838 0.677812 0
M  V30 1622 H 149.054 0.809383 3.14037 0
M  V30 1623 H 148.839 2.57436 2.95752 0
M  V30 1624 H 150.329 1.92559 3.70555 0
M  V30 1625 N 150.766 -0.704594 1.40972 0
M  V30 1626 C 151.696 -1.83124 1.44872 0
M  V30 1627 C 152.677 -1.67281 0.30838 0
M  V30 1628 O 153.862 -1.87149 0.518556 0
M  V30 1629 C 150.992 -3.21181 1.32136 0
M  V30 1630 C 149.946 -3.51714 2.43888 0
M  V30 1631 C 149.272 -4.89032 2.16222 0
M  V30 1632 C 150.572 -3.516 3.86232 0
M  V30 1633 H 152.266 -1.80117 2.39161 0
M  V30 1634 H 149.812 -0.865145 1.15114 0
M  V30 1635 H 151.765 -3.99702 1.33479 0
M  V30 1636 H 150.489 -3.24791 0.343279 0
M  V30 1637 H 149.148 -2.75539 2.41813 0
M  V30 1638 H 148.796 -4.89256 1.16778 0
M  V30 1639 H 148.496 -5.10426 2.911 0
M  V30 1640 H 150.02 -5.69873 2.19265 0
M  V30 1641 H 151.434 -4.2014 3.9007 0
M  V30 1642 H 149.831 -3.84523 4.60719 0
M  V30 1643 H 150.901 -2.50757 4.15029 0
M  V30 1644 N 152.244 -1.26651 -0.937939 0
M  V30 1645 C 153.484 -1.13611 -1.69917 0
M  V30 1646 C 153.848 0.314687 -1.89404 0
M  V30 1647 O 155.049 0.567285 -2.62746 0
M  V30 1648 C 153.32 -1.88742 -3.03498 0
M  V30 1649 S 154.879 -1.91794 -3.94665 0
M  V30 1650 H 151.697 -0.405767 -0.583844 0
M  V30 1651 H 154.299 -1.60416 -1.11745 0
M  V30 1652 H 153.003 -2.9336 -2.86999 0
M  V30 1653 H 152.534 -1.42391 -3.66727 0
M  V30 1654 H 154.549 -1.00698 -4.85875 0
M  V30 1655 N 153.722 1.14298 -1.08507 0
M  V30 1656 C 154.669 2.19414 -0.715965 0
M  V30 1657 C 155.639 1.63399 0.298326 0
M  V30 1658 O 156.824 1.89929 0.182101 0
M  V30 1659 C 153.964 3.44845 -0.132534 0
M  V30 1660 C 153.077 4.15007 -1.19973 0
M  V30 1661 C 152.212 5.28024 -0.580048 0
M  V30 1662 C 151.251 5.9002 -1.62921 0
M  V30 1663 N 150.388 6.94485 -1.03125 0
M  V30 1664 H 155.228 2.50336 -1.61666 0
M  V30 1665 H 152.765 1.2293 -0.807882 0
M  V30 1666 H 154.723 4.16601 0.223454 0
M  V30 1667 H 153.353 3.14403 0.731467 0
M  V30 1668 H 152.405 3.41629 -1.67313 0
M  V30 1669 H 153.717 4.57178 -1.99473 0
M  V30 1670 H 152.871 6.06455 -0.172364 0
M  V30 1671 H 151.61 4.87076 0.246603 0
M  V30 1672 H 150.615 5.10291 -2.04654 0
M  V30 1673 H 151.84 6.33042 -2.45835 0
M  V30 1674 H 149.786 6.55612 -0.225711 0
M  V30 1675 H 149.703 7.35148 -1.76334 0
M  V30 1676 H 150.971 7.7679 -0.649458 0
M  V30 1677 N 155.201 0.870884 1.31352 0
M  V30 1678 C 156.111 0.330783 2.32256 0
M  V30 1679 C 157.127 -0.559767 1.6475 0
M  V30 1680 O 158.303 -0.456263 1.96164 0
M  V30 1681 C 155.368 -0.458137 3.4366 0
M  V30 1682 C 154.429 0.460482 4.26823 0
M  V30 1683 C 153.662 -0.290881 5.32907 0
M  V30 1684 O 153.885 -1.51885 5.49806 0
M  V30 1685 O 152.819 0.351732 6.00871 0
M  V30 1686 H 156.645 1.16718 2.80376 0
M  V30 1687 H 154.23 0.634285 1.35267 0
M  V30 1688 H 156.112 -0.905343 4.1156 0
M  V30 1689 H 154.787 -1.27106 2.97701 0
M  V30 1690 H 153.694 0.956207 3.61673 0
M  V30 1691 H 155.027 1.23903 4.7635 0
M  V30 1692 N 156.679 -1.44442 0.630414 0
M  V30 1693 C 157.611 -2.2892 -0.113347 0
M  V30 1694 C 158.624 -1.41243 -0.80959 0
M  V30 1695 O 159.813 -1.65402 -0.671156 0
M  V30 1696 C 156.913 -3.17594 -1.18266 0
M  V30 1697 C 156.086 -4.33682 -0.569073 0
M  V30 1698 C 155.145 -5.03397 -1.53226 0
M  V30 1699 O 154.171 -5.59438 -1.04967 0
M  V30 1700 N 155.373 -5.04783 -2.86661 0
M  V30 1701 H 158.138 -2.93392 0.611636 0
M  V30 1702 H 155.699 -1.54881 0.471523 0
M  V30 1703 H 157.691 -3.61097 -1.82732 0
M  V30 1704 H 156.261 -2.54876 -1.80988 0
M  V30 1705 H 155.481 -3.9338 0.254187 0
M  V30 1706 H 156.769 -5.08608 -0.139767 0
M  V30 1707 H 156.167 -4.60584 -3.28449 0
M  V30 1708 H 154.724 -5.52077 -3.46489 0
M  V30 1709 N 158.157 -0.370918 -1.53173 0
M  V30 1710 C 159.405 0.216673 -2.00935 0
M  V30 1711 C 159.726 1.48845 -1.25977 0
M  V30 1712 O 158.996 1.92286 -0.374551 0
M  V30 1713 H 157.576 0.0830565 -0.742368 0
M  V30 1714 H 160.238 -0.49838 -1.8842 0
M  V30 1715 H 159.334 0.439893 -3.08984 0
M  V30 1716 N 159.635 1.57281 -0.100228 0
M  V30 1717 C 160.565 2.17328 0.853857 0
M  V30 1718 C 161.546 1.10804 1.2906 0
M  V30 1719 O 162.731 1.38963 1.35657 0
M  V30 1720 C 159.861 2.75772 2.11109 0
M  V30 1721 C 158.815 3.87713 1.81279 0
M  V30 1722 C 158.141 4.32882 3.13874 0
M  V30 1723 C 159.441 5.10677 1.09574 0
M  V30 1724 H 161.135 2.97305 0.353545 0
M  V30 1725 H 158.681 1.43009 0.168612 0
M  V30 1726 H 160.634 3.16433 2.78296 0
M  V30 1727 H 159.358 1.93057 2.63432 0
M  V30 1728 H 158.017 3.476 1.16489 0
M  V30 1729 H 157.665 3.47051 3.64095 0
M  V30 1730 H 157.365 5.08358 2.94696 0
M  V30 1731 H 158.889 4.7618 3.82211 0
M  V30 1732 H 160.303 5.48474 1.66879 0
M  V30 1733 H 158.7 5.91615 1.00557 0
M  V30 1734 H 159.77 4.84835 0.0793299 0
M  V30 1735 N 161.113 -0.173488 1.56642 0
M  V30 1736 C 162.043 -1.2171 1.99271 0
M  V30 1737 C 163.024 -1.46289 0.867959 0
M  V30 1738 O 164.209 -1.5766 1.13388 0
M  V30 1739 C 161.339 -2.55651 2.35074 0
M  V30 1740 C 160.293 -2.45645 3.50489 0
M  V30 1741 C 159.619 -3.84056 3.72028 0
M  V30 1742 C 160.919 -1.96302 4.84007 0
M  V30 1743 H 162.613 -0.86275 2.867 0
M  V30 1744 H 160.159 -0.413571 1.37933 0
M  V30 1745 H 162.112 -3.2886 2.63494 0
M  V30 1746 H 160.836 -2.92869 1.44552 0
M  V30 1747 H 159.495 -1.7489 3.22194 0
M  V30 1748 H 159.143 -4.18664 2.788 0
M  V30 1749 H 158.843 -3.7823 4.49684 0
M  V30 1750 H 160.367 -4.58854 4.02846 0
M  V30 1751 H 161.781 -2.59284 5.11317 0
M  V30 1752 H 160.178 -2.01429 5.65284 0
M  V30 1753 H 161.248 -0.917226 4.76146 0
M  V30 1754 N 162.591 -1.51276 -0.441967 0
M  V30 1755 C 163.837 -1.63958 -1.19355 0
M  V30 1756 C 164.17 -0.352543 -1.90973 0
M  V30 1757 O 163.445 0.647627 -1.83401 0
M  V30 1758 C 163.728 -2.83979 -2.21422 0
M  V30 1759 C 163.581 -4.22646 -1.53918 0
M  V30 1760 C 164.9 -2.99521 -3.22451 0
M  V30 1761 H 162.019 -0.596709 -0.432559 0
M  V30 1762 H 164.661 -1.83748 -0.483398 0
M  V30 1763 H 162.811 -2.67237 -2.81987 0
M  V30 1764 H 164.483 -4.51045 -0.967256 0
M  V30 1765 H 162.726 -4.25558 -0.841615 0
M  V30 1766 H 163.397 -5.02609 -2.28229 0
M  V30 1767 H 165.873 -3.14944 -2.71937 0
M  V30 1768 H 164.749 -3.85072 -3.91166 0
M  V30 1769 H 165.01 -2.11391 -3.88287 0
M  V30 1770 N 164.069 0.697108 -1.41344 0
M  V30 1771 C 165.317 1.45426 -1.40341 0
M  V30 1772 C 165.638 1.94996 -0.0128787 0
M  V30 1773 O 164.908 1.71599 0.945027 0
M  V30 1774 H 163.488 0.539594 -0.516573 0
M  V30 1775 H 166.15 0.825201 -1.76569 0
M  V30 1776 H 165.246 2.31817 -2.08967 0
M  V30 1777 N 165.547 1.27147 0.931209 0
M  V30 1778 C 166.477 1.12081 2.04842 0
M  V30 1779 C 167.458 0.0232364 1.70084 0
M  V30 1780 O 168.643 0.197085 1.93197 0
M  V30 1781 C 165.773 0.76354 3.38803 0
M  V30 1782 C 164.727 1.81396 3.87659 0
M  V30 1783 C 164.053 1.31075 5.18385 0
M  V30 1784 C 165.353 3.21739 4.11438 0
M  V30 1785 H 167.047 2.05537 2.17703 0
M  V30 1786 H 164.593 0.989603 1.04608 0
M  V30 1787 H 166.546 0.644982 4.16435 0
M  V30 1788 H 165.27 -0.206727 3.25945 0
M  V30 1789 H 163.929 1.92136 3.12217 0
M  V30 1790 H 163.577 0.330037 5.01916 0
M  V30 1791 H 163.277 2.013 5.52044 0
M  V30 1792 H 164.801 1.20506 5.98591 0
M  V30 1793 H 166.215 3.14019 4.79651 0
M  V30 1794 H 164.612 3.89644 4.56397 0
M  V30 1795 H 165.682 3.67054 3.16859 0
M  V30 1796 N 167.025 -1.13721 1.09112 0
M  V30 1797 C 167.988 -2.17222 0.731241 0
M  V30 1798 C 168.988 -1.59035 -0.237566 0
M  V30 1799 O 170.178 -1.74192 -0.0161704 0
M  V30 1800 C 167.31 -3.40804 0.0808443 0
M  V30 1801 H 168.503 -2.50573 1.64783 0
M  V30 1802 H 166.056 -1.28493 0.889897 0
M  V30 1803 H 166.791 -3.1304 -0.847127 0
M  V30 1804 H 166.576 -3.84306 0.777896 0
M  V30 1805 H 168.066 -4.1731 -0.155657 0
M  V30 1806 N 168.503 -0.877838 -1.30888 0
M  V30 1807 C 169.728 -0.506629 -2.01117 0
M  V30 1808 C 170.153 0.895564 -1.65412 0
M  V30 1809 O 169.511 1.5923 -0.866922 0
M  V30 1810 C 169.559 -0.680223 -3.54126 0
M  V30 1811 O 168.663 0.277033 -4.11468 0
M  V30 1812 H 168.004 -0.200518 -0.633 0
M  V30 1813 H 170.534 -1.18342 -1.66902 0
M  V30 1814 H 170.544 -0.5765 -4.03907 0
M  V30 1815 H 169.219 -1.70261 -3.79452 0
M  V30 1816 H 167.796 0.127606 -3.72682 0
M  V30 1817 N 169.982 1.44106 -0.638065 0
M  V30 1818 C 170.945 2.29138 0.0531013 0
M  V30 1819 C 171.945 1.41409 0.765506 0
M  V30 1820 O 173.135 1.63206 0.609046 0
M  V30 1821 C 170.267 3.23144 1.08584 0
M  V30 1822 H 171.46 2.91739 -0.694883 0
M  V30 1823 H 169.013 1.51134 -0.398538 0
M  V30 1824 H 169.748 2.65408 1.86357 0
M  V30 1825 H 169.533 3.87804 0.578852 0
M  V30 1826 H 171.023 3.87004 1.56899 0
M  V30 1827 N 171.46 0.379036 1.52974 0
M  V30 1828 C 172.685 -0.209353 2.06341 0
M  V30 1829 C 173.11 -1.40583 1.24972 0
M  V30 1830 O 172.468 -1.79246 0.272155 0
M  V30 1831 C 172.516 -0.567786 3.56102 0
M  V30 1832 O 171.62 -1.66318 3.77375 0
M  V30 1833 H 170.961 -0.0272919 0.663439 0
M  V30 1834 H 173.491 0.543536 1.97248 0
M  V30 1835 H 173.501 -0.835003 3.99364 0
M  V30 1836 H 172.176 0.307013 4.14765 0
M  V30 1837 H 170.753 -1.39048 3.46006 0
M  V30 1838 N 172.938 -1.57226 0.108567 0
M  V30 1839 C 174.349 -1.8195 -0.418464 0
M  V30 1840 C 174.7 -1.02508 -1.67292 0
M  V30 1841 O 173.825 -0.258496 -2.14851 0
M  V30 1842 C 174.42 -3.30028 -0.765979 0
M  V30 1843 C 172.979 -3.55469 -1.23769 0
M  V30 1844 C 172.126 -2.7625 -0.241106 0
M  V30 1845 H 175.077 -1.55149 0.33384 0
M  V30 1846 H 175.098 -3.44086 -1.62434 0
M  V30 1847 H 174.61 -3.87821 0.147219 0
M  V30 1848 H 172.711 -3.03022 -2.16814 0
M  V30 1849 H 172.824 -4.6408 -1.19022 0
M  V30 1850 H 171.188 -2.44133 -0.72602 0
M  V30 1851 H 171.971 -3.36797 0.665007 0
M  V30 1852 N 174.416 0.165178 -1.56732 0
M  V30 1853 C 175.346 1.20651 -1.99914 0
M  V30 1854 C 176.327 1.45827 -0.875705 0
M  V30 1855 O 177.512 1.57057 -1.14223 0
M  V30 1856 C 174.642 2.54401 -2.36427 0
M  V30 1857 C 173.596 2.43782 -3.51787 0
M  V30 1858 C 172.922 3.82078 -3.7406 0
M  V30 1859 C 174.222 1.93732 -4.85041 0
M  V30 1860 H 175.916 0.847534 -2.87154 0
M  V30 1861 H 173.462 0.40625 -1.38151 0
M  V30 1862 H 175.415 3.27458 -2.65234 0
M  V30 1863 H 174.139 2.92098 -1.46103 0
M  V30 1864 H 172.798 1.73178 -3.23117 0
M  V30 1865 H 172.446 4.17179 -2.81017 0
M  V30 1866 H 172.146 3.7584 -4.51684 0
M  V30 1867 H 173.67 4.56712 -4.05274 0
M  V30 1868 H 175.084 2.56569 -5.12684 0
M  V30 1869 H 173.481 1.98428 -5.66345 0
M  V30 1870 H 174.551 0.891962 -4.76626 0
M  V30 1871 N 175.894 1.51508 0.433938 0
M  V30 1872 C 176.844 1.69451 1.52546 0
M  V30 1873 C 177.828 0.548474 1.51263 0
M  V30 1874 O 179.02 0.804529 1.57659 0
M  V30 1875 C 176.149 1.82604 2.90707 0
M  V30 1876 C 175.235 3.03002 2.96733 0
M  V30 1877 N 175.626 4.26121 2.72496 0
M  V30 1878 C 173.924 3.02327 3.27894 0
M  V30 1879 C 174.625 5.07407 2.84452 0
M  V30 1880 N 173.601 4.42126 3.16269 0
M  V30 1881 H 177.403 2.62305 1.32564 0
M  V30 1882 H 174.917 1.49202 0.641297 0
M  V30 1883 H 176.914 1.93569 3.69238 0
M  V30 1884 H 175.574 0.909339 3.11707 0
M  V30 1885 H 176.585 4.55009 2.4736 0
M  V30 1886 H 173.262 2.20301 3.54646 0
M  V30 1887 H 174.652 6.15422 2.69639 0
M  V30 1888 N 177.372 -0.689602 1.41712 0
M  V30 1889 C 178.305 -1.81403 1.3845 0
M  V30 1890 C 179.283 -1.60653 0.250874 0
M  V30 1891 O 180.467 -1.83323 0.43874 0
M  V30 1892 C 177.594 -3.18176 1.1611 0
M  V30 1893 C 176.64 -3.57705 2.3227 0
M  V30 1894 S 177.473 -3.61827 3.94767 0
M  V30 1895 C 178.629 -5.01318 3.74742 0
M  V30 1896 H 178.862 -1.83893 2.33603 0
M  V30 1897 H 176.395 -0.858878 1.28307 0
M  V30 1898 H 178.353 -3.97132 1.03907 0
M  V30 1899 H 177.014 -3.13288 0.225668 0
M  V30 1900 H 176.207 -4.57082 2.12349 0
M  V30 1901 H 175.809 -2.86073 2.40911 0
M  V30 1902 H 178.101 -5.88986 3.34817 0
M  V30 1903 H 179.044 -5.26283 4.73743 0
M  V30 1904 H 179.452 -4.73138 3.07898 0
M  V30 1905 N 178.85 -1.27639 -0.924453 0
M  V30 1906 C 179.78 -1.13166 -2.04244 0
M  V30 1907 C 180.761 -0.032256 -1.70069 0
M  V30 1908 O 181.946 -0.207328 -1.9309 0
M  V30 1909 C 179.076 -0.781496 -3.38393 0
M  V30 1910 C 178.03 -1.83449 -3.86692 0
M  V30 1911 C 177.356 -1.33822 -5.17683 0
M  V30 1912 C 178.656 -3.23917 -4.09726 0
M  V30 1913 H 180.35 -2.06689 -2.1661 0
M  V30 1914 H 177.896 -0.995136 -1.04082 0
M  V30 1915 H 179.849 -0.667057 -4.16087 0
M  V30 1916 H 178.573 0.189439 -3.2605 0
M  V30 1917 H 177.232 -1.93789 -3.11193 0
M  V30 1918 H 176.88 -0.35665 -5.01734 0
M  V30 1919 H 176.58 -2.04224 -5.50968 0
M  V30 1920 H 178.104 -1.23679 -5.97943 0
M  V30 1921 H 179.518 -3.16559 -4.77978 0
M  V30 1922 H 177.915 -3.92059 -4.54324 0
M  V30 1923 H 178.985 -3.68729 -3.14908 0
M  V30 1924 N 180.328 1.1314 -1.09713 0
M  V30 1925 C 181.238 2.22242 -0.751367 0
M  V30 1926 C 182.254 1.72224 0.247938 0
M  V30 1927 O 183.43 2.01205 0.0885463 0
M  V30 1928 C 180.495 3.46231 -0.180274 0
M  V30 1929 C 179.556 4.11125 -1.2359 0
M  V30 1930 C 178.789 5.29195 -0.691966 0
M  V30 1931 O 179.012 5.68342 0.48414 0
M  V30 1932 O 177.946 5.84214 -1.44838 0
M  V30 1933 H 181.772 2.54197 -1.66186 0
M  V30 1934 H 179.357 1.21331 -0.871735 0
M  V30 1935 H 181.239 4.21185 0.134739 0
M  V30 1936 H 179.914 3.1597 0.703185 0
M  V30 1937 H 178.821 3.37985 -1.60366 0
M  V30 1938 H 180.154 4.45524 -2.09211 0
M  V30 1939 N 181.806 0.884767 1.30421 0
M  V30 1940 C 182.753 0.349642 2.28136 0
M  V30 1941 C 183.723 -0.560061 1.56373 0
M  V30 1942 O 184.908 -0.488524 1.8444 0
M  V30 1943 C 182.048 -0.42999 3.42411 0
M  V30 1944 C 181.161 0.508907 4.28992 0
M  V30 1945 C 180.296 -0.286301 5.30428 0
M  V30 1946 C 179.335 0.648079 6.08659 0
M  V30 1947 N 178.472 -0.111792 7.02011 0
M  V30 1948 H 183.312 1.18807 2.73293 0
M  V30 1949 H 180.849 0.597231 1.3443 0
M  V30 1950 H 182.807 -0.897923 4.07423 0
M  V30 1951 H 181.437 -1.23299 2.98324 0
M  V30 1952 H 180.489 1.09533 3.64289 0
M  V30 1953 H 181.801 1.22475 4.8353 0
M  V30 1954 H 180.955 -0.816098 6.01186 0
M  V30 1955 H 179.694 -1.03536 4.76583 0
M  V30 1956 H 178.699 1.18951 5.36778 0
M  V30 1957 H 179.924 1.39623 6.64592 0
M  V30 1958 H 177.87 -0.843395 6.50556 0
M  V30 1959 H 177.787 0.544429 7.54037 0
M  V30 1960 H 179.055 -0.622339 7.77012 0
M  V30 1961 N 183.284 -1.43765 0.645699 0
M  V30 1962 C 184.53 -2.02197 0.156271 0
M  V30 1963 C 184.863 -1.50776 -1.22393 0
M  V30 1964 O 184.138 -0.697771 -1.81553 0
M  V30 1965 C 184.421 -3.59749 0.158872 0
M  V30 1966 C 184.274 -4.21419 1.57245 0
M  V30 1967 C 185.593 -4.37149 -0.50879 0
M  V30 1968 H 182.712 -0.734694 0.0582602 0
M  V30 1969 H 185.354 -1.71157 0.824951 0
M  V30 1970 H 183.504 -3.86325 -0.410525 0
M  V30 1971 H 185.176 -4.059 2.19186 0
M  V30 1972 H 183.419 -3.78356 2.122 0
M  V30 1973 H 184.09 -5.30482 1.52619 0
M  V30 1974 H 186.566 -4.16093 -0.024412 0
M  V30 1975 H 185.442 -5.4683 -0.476213 0
M  V30 1976 H 185.703 -4.12839 -1.58165 0
M  V30 1977 N 184.763 -0.387143 -1.52771 0
M  V30 1978 C 185.693 0.440551 -2.29306 0
M  V30 1979 C 186.674 1.06535 -1.32606 0
M  V30 1980 O 187.859 1.07853 -1.61497 0
M  V30 1981 C 184.989 1.56919 -3.09829 0
M  V30 1982 C 183.943 1.07054 -4.14395 0
M  V30 1983 C 183.269 2.29109 -4.83129 0
M  V30 1984 C 184.569 0.140015 -5.22112 0
M  V30 1985 H 186.263 -0.198026 -2.98744 0
M  V30 1986 H 183.809 -0.09668 -1.43675 0
M  V30 1987 H 185.762 2.15503 -3.62128 0
M  V30 1988 H 184.486 2.23532 -2.3812 0
M  V30 1989 H 183.145 0.507247 -3.63074 0
M  V30 1990 H 182.793 2.94227 -4.0797 0
M  V30 1991 H 182.493 1.96406 -5.53804 0
M  V30 1992 H 184.017 2.88339 -5.38231 0
M  V30 1993 H 185.431 0.633978 -5.69784 0
M  V30 1994 H 183.828 -0.0971485 -6.00021 0
M  V30 1995 H 184.898 -0.811711 -4.78058 0
M  V30 1996 N 186.241 1.57166 -0.116904 0
M  V30 1997 C 187.469 1.99473 0.549383 0
M  V30 1998 C 187.884 0.996541 1.60357 0
M  V30 1999 O 187.241 -0.0108731 1.82497 0
M  V30 2000 C 187.292 3.41788 1.17741 0
M  V30 2001 O 187.013 4.37788 0.165362 0
M  V30 2002 C 188.514 3.99216 1.92722 0
M  V30 2003 H 185.734 0.655009 0.145616 0
M  V30 2004 H 188.278 2.03494 -0.202625 0
M  V30 2005 H 186.433 3.38713 1.88021 0
M  V30 2006 H 186.847 5.20806 0.621403 0
M  V30 2007 H 188.321 5.00882 2.31995 0
M  V30 2008 H 188.798 3.3824 2.80161 0
M  V30 2009 H 189.404 4.0583 1.27209 0
M  V30 2010 N 187.719 -0.156864 1.56817 0
M  V30 2011 C 188.652 -1.22316 1.9265 0
M  V30 2012 C 189.63 -1.42059 0.791076 0
M  V30 2013 O 190.814 -1.56831 1.04576 0
M  V30 2014 C 187.941 -2.58375 2.18998 0
M  V30 2015 C 186.987 -2.55284 3.41661 0
M  V30 2016 S 187.82 -2.02946 4.95553 0
M  V30 2017 C 188.976 -3.40753 5.25013 0
M  V30 2018 H 189.209 -0.917403 2.82791 0
M  V30 2019 H 186.742 -0.362059 1.50095 0
M  V30 2020 H 188.7 -3.36677 2.34859 0
M  V30 2021 H 187.361 -2.86145 1.29538 0
M  V30 2022 H 186.554 -3.55418 3.57343 0
M  V30 2023 H 186.156 -1.85086 3.24991 0
M  V30 2024 H 188.448 -4.36819 5.17876 0
M  V30 2025 H 189.391 -3.29933 6.26538 0
M  V30 2026 H 189.799 -3.37433 4.52548 0
M  V30 2027 N 189.197 -1.51736 -0.425897 0
M  V30 2028 C 190.444 -1.6497 -1.17436 0
M  V30 2029 C 190.772 -0.371445 -1.9092 0
M  V30 2030 O 190.027 0.644963 -1.84767 0
M  V30 2031 C 190.326 -2.81103 -2.20717 0
M  V30 2032 C 189.992 -4.19954 -1.64162 0
M  V30 2033 C 188.654 -4.57725 -1.48462 0
M  V30 2034 C 191.006 -5.06552 -1.22696 0
M  V30 2035 C 188.334 -5.79789 -0.897873 0
M  V30 2036 C 190.686 -6.29205 -0.654464 0
M  V30 2037 C 189.35 -6.6574 -0.484456 0
M  V30 2038 H 188.62 -0.603668 -0.429727 0
M  V30 2039 H 191.267 -1.85798 -0.463829 0
M  V30 2040 H 189.572 -2.54542 -2.97852 0
M  V30 2041 H 191.269 -2.8854 -2.78471 0
M  V30 2042 H 187.859 -3.90181 -1.77361 0
M  V30 2043 H 192.043 -4.77968 -1.33642 0
M  V30 2044 H 187.299 -6.06733 -0.75402 0
M  V30 2045 H 191.473 -6.95643 -0.324694 0
M  V30 2046 H 189.1 -7.60195 -0.0276833 0
M  V30 2047 N 190.675 0.682077 -1.42076 0
M  V30 2048 C 191.952 1.43755 -1.32642 0
M  V30 2049 C 192.332 2.11063 0.0396611 0
M  V30 2050 O 191.68 2.02701 1.05474 0
M  V30 2051 C 191.89 2.44596 -2.48946 0
M  V30 2052 C 193.238 3.09454 -2.9073 0
M  V30 2053 O 194.262 2.54922 -2.48783 0
M  V30 2054 O 193.121 4.08253 -3.63307 0
M  V30 2055 H 190.215 0.640857 -0.522715 0
M  V30 2056 H 192.761 0.711415 -1.54068 0
M  V30 2057 H 191.533 1.93609 -3.40046 0
M  V30 2058 H 191.156 3.24701 -2.29467 0
M  V30 2059 N 192.153 1.28127 0.917671 0
M  V30 2060 C 193.083 1.14248 2.03641 0
M  V30 2061 C 194.064 0.0412748 1.7005 0
M  V30 2062 O 195.249 0.217566 1.92977 0
M  V30 2063 C 192.379 0.799431 3.37974 0
M  V30 2064 C 191.333 1.85497 3.85713 0
M  V30 2065 C 190.659 1.36565 5.16966 0
M  V30 2066 C 191.959 3.26085 4.08002 0
M  V30 2067 H 193.653 2.07835 2.15511 0
M  V30 2068 H 191.199 1.00064 1.03553 0
M  V30 2069 H 193.152 0.689114 4.15727 0
M  V30 2070 H 191.876 -0.172145 3.26146 0
M  V30 2071 H 190.535 1.95437 3.10161 0
M  V30 2072 H 190.183 0.383253 5.01538 0
M  V30 2073 H 189.883 2.07143 5.49878 0
M  V30 2074 H 191.407 1.26848 5.97279 0
M  V30 2075 H 192.821 3.19089 4.76293 0
M  V30 2076 H 191.218 3.94462 4.52238 0
M  V30 2077 H 192.288 3.70394 3.12948 0
M  V30 2078 N 193.631 -1.12557 1.10312 0
M  V30 2079 C 195.047 -1.36036 0.834649 0
M  V30 2080 C 195.247 -1.93946 -0.546539 0
M  V30 2081 O 194.303 -2.16484 -1.29966 0
M  V30 2082 C 195.616 -2.30312 1.9333 0
M  V30 2083 C 197.164 -2.43906 1.9616 0
M  V30 2084 C 197.639 -3.41496 3.05195 0
M  V30 2085 N 199.13 -3.49053 3.04494 0
M  V30 2086 C 199.865 -4.24471 3.85502 0
M  V30 2087 N 199.361 -5.02966 4.76442 0
M  V30 2088 N 201.154 -4.19864 3.73725 0
M  V30 2089 H 193.305 -0.733246 1.99342 0
M  V30 2090 H 195.568 -0.385234 0.866198 0
M  V30 2091 H 195.274 -1.94933 2.92735 0
M  V30 2092 H 195.148 -3.30421 1.81939 0
M  V30 2093 H 197.535 -2.78567 0.973886 0
M  V30 2094 H 197.616 -1.4369 2.11629 0
M  V30 2095 H 197.26 -3.07565 4.04186 0
M  V30 2096 H 197.19 -4.41539 2.86968 0
M  V30 2097 H 199.681 -2.93053 2.38596 0
M  V30 2098 H 199.994 -5.57846 5.34815 0
M  V30 2099 H 198.339 -5.02167 4.80472 0
M  V30 2100 H 201.53 -3.57623 3.02032 0
M  V30 2101 H 201.703 -4.78386 4.37093 0
M  V30 2102 N 195.109 -0.891671 -1.2995 0
M  V30 2103 C 196.386 -0.433307 -1.9074 0
M  V30 2104 C 196.766 1.08646 -1.80995 0
M  V30 2105 O 196.114 1.92476 -1.23147 0
M  V30 2106 C 196.324 -0.938895 -3.36134 0
M  V30 2107 C 197.672 -0.977829 -4.13187 0
M  V30 2108 O 198.696 -0.886015 -3.45005 0
M  V30 2109 O 197.555 -1.11453 -5.35015 0
M  V30 2110 H 194.649 -0.133699 -0.816121 0
M  V30 2111 H 197.195 -0.981011 -1.38471 0
M  V30 2112 H 195.967 -1.98281 -3.37343 0
M  V30 2113 H 195.59 -0.37074 -3.95868 0
M  V30 2114 N 196.587 1.43421 -0.653314 0
M  V30 2115 C 197.812 2.06678 -0.172846 0
M  V30 2116 C 198.237 1.48648 1.15262 0
M  V30 2117 O 197.595 0.596457 1.71208 0
M  V30 2118 C 197.643 3.60474 -0.0953184 0
M  V30 2119 O 196.747 4.01487 0.942442 0
M  V30 2120 H 196.088 0.657181 -0.0949155 0
M  V30 2121 H 198.618 1.83925 -0.896265 0
M  V30 2122 H 198.628 4.07905 0.0879728 0
M  V30 2123 H 197.303 4.02088 -1.06291 0
M  V30 2124 H 195.88 3.65646 0.731932 0
M  V30 2125 N 198.065 0.39524 1.52563 0
M  V30 2126 C 199.312 -0.185044 2.01653 0
M  V30 2127 C 199.64 -1.46317 1.28146 0
M  V30 2128 O 198.895 -1.9213 0.372074 0
M  V30 2129 C 199.194 -0.493444 3.53977 0
M  V30 2130 C 198.86 0.69384 4.4553 0
M  V30 2131 C 197.522 1.01954 4.70275 0
M  V30 2132 C 199.874 1.48785 4.99512 0
M  V30 2133 C 197.202 2.14069 5.46252 0
M  V30 2134 C 199.554 2.59965 5.76716 0
M  V30 2135 C 198.218 2.93037 5.99738 0
M  V30 2136 H 197.488 -0.0677123 0.7379 0
M  V30 2137 H 200.135 0.533807 1.8391 0
M  V30 2138 H 198.44 -1.29369 3.69825 0
M  V30 2139 H 200.137 -0.955163 3.89458 0
M  V30 2140 H 196.727 0.429987 4.26438 0
M  V30 2141 H 200.911 1.24946 4.80315 0
M  V30 2142 H 196.167 2.40056 5.62302 0
M  V30 2143 H 200.341 3.21887 6.17545 0
M  V30 2144 H 197.968 3.8003 6.58393 0
M  V30 2145 N 199.544 -1.57102 0.125237 0
M  V30 2146 C 200.821 -1.86953 -0.575142 0
M  V30 2147 C 201.201 -1.02749 -1.84407 0
M  V30 2148 O 200.549 -0.108144 -2.28244 0
M  V30 2149 C 200.759 -3.38198 -0.861583 0
M  V30 2150 C 202.107 -4.06937 -1.21192 0
M  V30 2151 O 203.131 -3.43252 -0.951645 0
M  V30 2152 O 201.99 -5.19364 -1.70068 0
M  V30 2153 H 199.084 -0.774147 -0.290906 0
M  V30 2154 H 201.63 -1.68942 0.160211 0
M  V30 2155 H 200.402 -3.91282 0.0373647 0
M  V30 2156 H 200.025 -3.61661 -1.65188 0
M  V30 2157 N 201.022 0.148545 -1.56898 0
M  V30 2158 C 201.985 1.16736 -1.97244 0
M  V30 2159 C 202.985 1.35947 -0.858777 0
M  V30 2160 O 204.175 1.32966 -1.12542 0
M  V30 2161 C 201.307 2.52798 -2.28705 0
M  V30 2162 H 202.5 0.821279 -2.88435 0
M  V30 2163 H 200.053 0.391831 -1.51309 0
M  V30 2164 H 200.788 2.92381 -1.403 0
M  V30 2165 H 200.573 2.40216 -3.09901 0
M  V30 2166 H 202.063 3.26179 -2.60762 0
M  V30 2167 N 202.5 1.5196 0.417844 0
M  V30 2168 C 203.43 1.77634 1.51554 0
M  V30 2169 C 204.411 0.626918 1.58126 0
M  V30 2170 O 205.596 0.871632 1.7354 0
M  V30 2171 C 202.726 1.91911 2.8946 0
M  V30 2172 C 201.68 3.07463 2.97743 0
M  V30 2173 C 201.006 3.06951 4.37819 0
M  V30 2174 C 202.306 4.47082 2.70027 0
M  V30 2175 H 204 2.6955 1.3032 0
M  V30 2176 H 201.546 1.29706 0.625492 0
M  V30 2177 H 203.499 2.08455 3.6623 0
M  V30 2178 H 202.223 0.966598 3.11969 0
M  V30 2179 H 200.882 2.90656 2.23416 0
M  V30 2180 H 200.53 2.09438 4.57323 0
M  V30 2181 H 200.23 3.84556 4.44286 0
M  V30 2182 H 201.754 3.25613 5.16535 0
M  V30 2183 H 203.168 4.6414 3.36522 0
M  V30 2184 H 201.565 5.2654 2.87881 0
M  V30 2185 H 202.635 4.55777 1.65514 0
M  V30 2186 N 203.978 -0.674533 1.42435 0
M  V30 2187 C 204.941 -1.76986 1.45632 0
M  V30 2188 C 205.941 -1.5708 0.343871 0
M  V30 2189 O 207.131 -1.63367 0.604709 0
M  V30 2190 C 204.263 -3.15623 1.28822 0
M  V30 2191 H 205.456 -1.75539 2.43158 0
M  V30 2192 H 203.009 -0.884189 1.28887 0
M  V30 2193 H 203.744 -3.22696 0.322193 0
M  V30 2194 H 203.529 -3.31475 2.09444 0
M  V30 2195 H 205.019 -3.95537 1.33942 0
M  V30 2196 N 205.456 -1.28612 -0.910864 0
M  V30 2197 C 206.681 -1.1891 -1.69927 0
M  V30 2198 C 207.106 0.248372 -1.86453 0
M  V30 2199 O 206.464 1.17961 -1.37676 0
M  V30 2200 C 206.512 -1.89578 -3.06745 0
M  V30 2201 O 205.616 -1.20521 -3.94396 0
M  V30 2202 H 204.957 -0.412632 -0.520222 0
M  V30 2203 H 207.487 -1.69985 -1.1387 0
M  V30 2204 H 207.497 -1.97597 -3.56958 0
M  V30 2205 H 206.172 -2.94136 -2.94035 0
M  V30 2206 H 204.749 -1.20684 -3.52831 0
M  V30 2207 N 206.934 1.1197 -1.10907 0
M  V30 2208 C 207.897 2.16031 -0.765707 0
M  V30 2209 C 208.897 1.59393 0.212235 0
M  V30 2210 O 210.087 1.74196 -0.0115441 0
M  V30 2211 C 207.219 3.40632 -0.135053 0
M  V30 2212 H 208.412 2.47919 -1.68748 0
M  V30 2213 H 205.965 1.27061 -0.910226 0
M  V30 2214 H 206.7 3.14348 0.797218 0
M  V30 2215 H 206.485 3.8302 -0.838937 0
M  V30 2216 H 207.975 4.17505 0.0892469 0
M  V30 2217 N 208.412 0.89855 1.29475 0
M  V30 2218 C 209.322 0.379974 2.31502 0
M  V30 2219 C 210.338 -0.524695 1.659 0
M  V30 2220 O 211.514 -0.414551 1.97087 0
M  V30 2221 C 208.579 -0.385138 3.44554 0
M  V30 2222 C 207.64 0.550914 4.2575 0
M  V30 2223 C 206.873 -0.177778 5.33404 0
M  V30 2224 O 207.096 -1.40189 5.52904 0
M  V30 2225 O 206.03 0.479106 5.9999 0
M  V30 2226 H 209.856 1.22639 2.77837 0
M  V30 2227 H 207.441 0.662834 1.33891 0
M  V30 2228 H 209.323 -0.817841 4.13388 0
M  V30 2229 H 207.998 -1.20763 3.0033 0
M  V30 2230 H 206.905 1.03271 3.59564 0
M  V30 2231 H 208.238 1.33979 4.73614 0
M  V30 2232 N 209.89 -1.43072 0.660911 0
M  V30 2233 C 210.837 -2.30785 -0.0259884 0
M  V30 2234 C 211.807 -1.45184 -0.806888 0
M  V30 2235 O 212.992 -1.74041 -0.781943 0
M  V30 2236 C 210.132 -3.30861 -0.981067 0
M  V30 2237 C 209.245 -4.31558 -0.195458 0
M  V30 2238 C 208.38 -5.18712 -1.14503 0
M  V30 2239 C 207.419 -6.11097 -0.350299 0
M  V30 2240 N 206.556 -6.90849 -1.25186 0
M  V30 2241 H 211.396 -2.88975 0.727846 0
M  V30 2242 H 208.933 -1.42353 0.370682 0
M  V30 2243 H 210.891 -3.87399 -1.54849 0
M  V30 2244 H 209.521 -2.74304 -1.70169 0
M  V30 2245 H 208.573 -3.77252 0.488374 0
M  V30 2246 H 209.885 -4.9701 0.422176 0
M  V30 2247 H 209.039 -5.79914 -1.78284 0
M  V30 2248 H 207.778 -4.53404 -1.79656 0
M  V30 2249 H 206.783 -5.48976 0.300808 0
M  V30 2250 H 208.008 -6.7845 0.296941 0
M  V30 2251 H 205.954 -6.28182 -1.89005 0
M  V30 2252 H 205.871 -7.52854 -0.688971 0
M  V30 2253 H 207.139 -7.5655 -1.87757 0
M  V30 2254 N 211.368 -0.403325 -1.52352 0
M  V30 2255 C 212.298 0.416205 -2.29761 0
M  V30 2256 C 213.279 1.05123 -1.33728 0
M  V30 2257 O 214.464 1.06134 -1.62632 0
M  V30 2258 C 211.594 1.53624 -3.11475 0
M  V30 2259 C 210.548 1.02653 -4.15507 0
M  V30 2260 C 209.874 2.23971 -4.85532 0
M  V30 2261 C 211.174 0.08463 -5.22231 0
M  V30 2262 H 212.868 -0.229701 -2.98518 0
M  V30 2263 H 210.414 -0.111913 -1.43564 0
M  V30 2264 H 212.367 2.1165 -3.64393 0
M  V30 2265 H 211.091 2.20994 -2.40477 0
M  V30 2266 H 209.75 0.46871 -3.63591 0
M  V30 2267 H 209.398 2.89883 -4.11068 0
M  V30 2268 H 209.098 1.90521 -5.55856 0
M  V30 2269 H 210.622 2.82614 -5.41259 0
M  V30 2270 H 212.036 0.573509 -5.70424 0
M  V30 2271 H 210.433 -0.160783 -5.99885 0
M  V30 2272 H 211.503 -0.86237 -4.7717 0
M  V30 2273 N 212.846 1.57033 -0.133567 0
M  V30 2274 C 214.257 1.82593 0.389464 0
M  V30 2275 C 214.608 1.05156 1.6564 0
M  V30 2276 O 213.733 0.292644 2.14412 0
M  V30 2277 C 214.328 3.31204 0.713377 0
M  V30 2278 C 212.887 3.57393 1.18098 0
M  V30 2279 C 212.034 2.76598 0.197126 0
M  V30 2280 H 214.985 1.54598 -0.358481 0
M  V30 2281 H 215.006 3.46627 1.56939 0
M  V30 2282 H 214.518 3.87537 -0.2089 0
M  V30 2283 H 212.619 3.06433 2.11966 0
M  V30 2284 H 212.732 4.65915 1.11624 0
M  V30 2285 H 211.096 2.45257 0.687088 0
M  V30 2286 H 211.879 3.35697 -0.718504 0
M  V30 2287 N 214.325 -0.140222 1.56975 0
M  V30 2288 C 215.555 -0.865181 1.87612 0
M  V30 2289 C 215.963 -1.74942 0.72055 0
M  V30 2290 O 215.306 -1.80917 -0.318561 0
M  V30 2291 C 215.368 -1.76782 3.13031 0
M  V30 2292 C 215.032 -1.06005 4.44536 0
M  V30 2293 C 216.029 -0.410768 5.18275 0
M  V30 2294 C 213.714 -1.04754 4.91255 0
M  V30 2295 C 215.708 0.241572 6.36942 0
M  V30 2296 C 213.395 -0.391394 6.09845 0
M  V30 2297 C 214.393 0.252029 6.82535 0
M  V30 2298 O 214.081 0.897757 7.98871 0
M  V30 2299 H 213.813 -0.255188 0.625983 0
M  V30 2300 H 216.367 -0.135653 2.04952 0
M  V30 2301 H 214.597 -2.53846 2.91718 0
M  V30 2302 H 216.286 -2.36533 3.29859 0
M  V30 2303 H 217.052 -0.412195 4.83245 0
M  V30 2304 H 212.931 -1.53777 4.34596 0
M  V30 2305 H 216.475 0.744375 6.93617 0
M  V30 2306 H 212.372 -0.387656 6.44335 0
M  V30 2307 H 213.14 0.800102 8.1458 0
M  V30 2308 N 215.803 -1.52179 -0.40978 0
M  V30 2309 C 217.028 -1.70347 -1.18308 0
M  V30 2310 C 217.453 -0.411887 -1.83535 0
M  V30 2311 O 216.811 0.630587 -1.6998 0
M  V30 2312 C 216.859 -2.83977 -2.22238 0
M  V30 2313 O 215.963 -2.495 -3.28365 0
M  V30 2314 H 215.304 -0.567103 -0.345384 0
M  V30 2315 H 217.834 -1.98879 -0.480445 0
M  V30 2316 H 217.844 -3.0887 -2.66577 0
M  V30 2317 H 216.519 -3.77685 -1.74146 0
M  V30 2318 H 215.096 -2.35277 -2.89308 0
M  V30 2319 N 217.281 0.66697 -1.42791 0
M  V30 2320 C 218.228 1.7803 -1.4688 0
M  V30 2321 C 219.198 1.6299 -0.319919 0
M  V30 2322 O 220.383 1.83432 -0.525118 0
M  V30 2323 C 217.523 3.1611 -1.38451 0
M  V30 2324 C 216.636 3.42381 -2.63437 0
M  V30 2325 C 215.771 4.70232 -2.47094 0
M  V30 2326 C 214.81 4.89564 -3.67415 0
M  V30 2327 N 213.947 6.08661 -3.49966 0
M  V30 2328 H 218.787 1.7387 -2.42019 0
M  V30 2329 H 216.324 0.84868 -1.20149 0
M  V30 2330 H 218.282 3.95914 -1.31561 0
M  V30 2331 H 216.912 3.19374 -0.469033 0
M  V30 2332 H 215.964 2.56774 -2.80662 0
M  V30 2333 H 217.276 3.52557 -3.52853 0
M  V30 2334 H 216.43 5.5814 -2.37834 0
M  V30 2335 H 215.169 4.62353 -1.5518 0
M  V30 2336 H 214.174 4.00096 -3.77099 0
M  V30 2337 H 215.399 4.99282 -4.6032 0
M  V30 2338 H 213.345 6.0194 -2.60776 0
M  V30 2339 H 213.262 6.19733 -4.32975 0
M  V30 2340 H 214.53 6.99226 -3.44532 0
M  V30 2341 N 218.759 1.29093 0.90403 0
M  V30 2342 C 220.17 1.15186 1.46932 0
M  V30 2343 C 220.521 -0.254587 1.94541 0
M  V30 2344 O 219.646 -1.14972 1.83332 0
M  V30 2345 C 220.241 2.08492 2.67051 0
M  V30 2346 C 218.8 1.98621 3.19729 0
M  V30 2347 C 217.947 1.9967 1.92425 0
M  V30 2348 H 220.898 1.41641 0.715789 0
M  V30 2349 H 220.919 1.65461 3.42641 0
M  V30 2350 H 220.431 3.10847 2.3237 0
M  V30 2351 H 218.532 0.993389 3.59114 0
M  V30 2352 H 218.645 2.86068 3.8432 0
M  V30 2353 H 217.009 1.44208 2.09943 0
M  V30 2354 H 217.792 3.03721 1.60026 0
M  V30 2355 N 220.237 -1.11381 1.11499 0
M  V30 2356 C 221.187 -2.15555 0.74298 0
M  V30 2357 C 222.171 -1.58894 -0.253276 0
M  V30 2358 O 223.363 -1.76897 -0.0602918 0
M  V30 2359 C 220.492 -3.42782 0.188481 0
M  V30 2360 C 219.578 -4.064 1.21244 0
M  V30 2361 N 219.969 -4.44864 2.40685 0
M  V30 2362 C 218.267 -4.3333 1.05552 0
M  V30 2363 C 218.968 -4.94715 3.05994 0
M  V30 2364 N 217.944 -4.90909 2.33472 0
M  V30 2365 H 221.746 -2.43074 1.65203 0
M  V30 2366 H 219.26 -1.28401 0.994329 0
M  V30 2367 H 221.257 -4.16789 -0.0961693 0
M  V30 2368 H 219.917 -3.16727 -0.715149 0
M  V30 2369 H 220.928 -4.36876 2.78136 0
M  V30 2370 H 217.605 -4.1698 0.208372 0
M  V30 2371 H 218.995 -5.34103 4.07656 0
M  V30 2372 N 221.715 -0.905404 -1.28997 0
M  V30 2373 C 223.126 -0.581953 -1.77398 0
M  V30 2374 C 223.477 0.902552 -1.74208 0
M  V30 2375 O 222.602 1.70584 -1.33154 0
M  V30 2376 C 223.197 -1.04961 -3.22131 0
M  V30 2377 C 221.756 -0.777229 -3.68288 0
M  V30 2378 C 220.903 -1.22109 -2.48967 0
M  V30 2379 H 223.854 -1.08754 -1.15578 0
M  V30 2380 H 223.875 -0.387387 -3.78523 0
M  V30 2381 H 223.387 -2.13008 -3.24421 0
M  V30 2382 H 221.488 0.290383 -3.71467 0
M  V30 2383 H 221.601 -1.37911 -4.58822 0
M  V30 2384 H 219.965 -0.639971 -2.46529 0
M  V30 2385 H 220.748 -2.30972 -2.53982 0
M  V30 2386 N 223.193 1.4272 -0.668489 0
M  V30 2387 C 224.125 2.2914 0.052613 0
M  V30 2388 C 225.138 1.43339 0.771857 0
M  V30 2389 O 226.327 1.67123 0.627067 0
M  V30 2390 C 223.427 3.20618 1.09804 0
M  V30 2391 C 222.6 4.35039 0.45389 0
M  V30 2392 C 221.659 5.07282 1.39825 0
M  V30 2393 O 220.685 5.62024 0.900978 0
M  V30 2394 N 221.887 5.12206 2.73176 0
M  V30 2395 H 224.652 2.91668 -0.689209 0
M  V30 2396 H 222.213 1.53577 -0.512422 0
M  V30 2397 H 224.205 3.65815 1.73094 0
M  V30 2398 H 222.775 2.59585 1.74167 0
M  V30 2399 H 221.995 3.92567 -0.358396 0
M  V30 2400 H 223.283 5.088 0.00486972 0
M  V30 2401 H 222.681 4.6913 3.16122 0
M  V30 2402 H 221.238 5.61069 3.31729 0
M  V30 2403 N 224.671 0.411399 1.52136 0
M  V30 2404 C 225.917 -0.163888 2.02137 0
M  V30 2405 C 226.25 -1.44597 1.29636 0
M  V30 2406 O 225.525 -1.90272 0.403353 0
M  V30 2407 C 225.808 -0.40927 3.57767 0
M  V30 2408 C 225.661 0.889643 4.40914 0
M  V30 2409 C 226.98 -1.19042 4.23694 0
M  V30 2410 H 224.099 -0.0580896 0.734707 0
M  V30 2411 H 226.741 0.54531 1.82007 0
M  V30 2412 H 224.891 -1.0134 3.7505 0
M  V30 2413 H 226.563 1.52575 4.35337 0
M  V30 2414 H 224.806 1.50011 4.07037 0
M  V30 2415 H 225.477 0.672314 5.4789 0
M  V30 2416 H 227.953 -0.678942 4.10524 0
M  V30 2417 H 226.829 -1.33086 5.32522 0
M  V30 2418 H 227.09 -2.21166 3.82803 0
M  V30 2419 N 226.149 -1.5696 0.141893 0
M  V30 2420 C 227.379 -2.00031 -0.516828 0
M  V30 2421 C 227.787 -1.02091 -1.59293 0
M  V30 2422 O 227.13 -0.00909657 -1.83698 0
M  V30 2423 C 227.192 -3.39534 -1.1814 0
M  V30 2424 C 226.856 -4.56313 -0.250513 0
M  V30 2425 C 227.853 -5.17295 0.519839 0
M  V30 2426 C 225.538 -5.02061 -0.154907 0
M  V30 2427 C 227.532 -6.2243 1.3733 0
M  V30 2428 C 225.219 -6.07053 0.702161 0
M  V30 2429 C 226.217 -6.67106 1.46487 0
M  V30 2430 O 225.905 -7.70066 2.30767 0
M  V30 2431 H 225.637 -0.661451 -0.139493 0
M  V30 2432 H 228.191 -2.04086 0.231926 0
M  V30 2433 H 226.421 -3.32302 -1.97769 0
M  V30 2434 H 228.11 -3.66745 -1.73933 0
M  V30 2435 H 228.876 -4.82852 0.45598 0
M  V30 2436 H 224.755 -4.5505 -0.7383 0
M  V30 2437 H 228.299 -6.69233 1.96909 0
M  V30 2438 H 224.196 -6.40923 0.76733 0
M  V30 2439 H 224.964 -7.87264 2.23959 0
M  V30 2440 N 227.627 0.131896 -1.57047 0
M  V30 2441 C 228.557 1.16384 -2.02428 0
M  V30 2442 C 229.538 1.43936 -0.90644 0
M  V30 2443 O 230.723 1.54599 -1.17528 0
M  V30 2444 C 227.853 2.49328 -2.4177 0
M  V30 2445 C 226.807 2.36266 -3.56879 0
M  V30 2446 C 226.133 3.74057 -3.8208 0
M  V30 2447 C 227.433 1.834 -4.89042 0
M  V30 2448 H 229.127 0.786433 -2.88887 0
M  V30 2449 H 226.673 0.376855 -1.38981 0
M  V30 2450 H 228.626 3.21759 -2.7212 0
M  V30 2451 H 227.35 2.88934 -1.52266 0
M  V30 2452 H 226.009 1.66286 -3.26718 0
M  V30 2453 H 225.657 4.11125 -2.89803 0
M  V30 2454 H 225.357 3.66174 -4.59554 0
M  V30 2455 H 226.881 4.48012 -4.1487 0
M  V30 2456 H 228.295 2.45636 -5.18011 0
M  V30 2457 H 226.692 1.8637 -5.70426 0
M  V30 2458 H 227.762 0.790662 -4.7841 0
M  V30 2459 N 229.106 1.52395 0.401703 0
M  V30 2460 C 230.383 1.57387 1.16141 0
M  V30 2461 C 230.763 0.359359 2.08019 0
M  V30 2462 O 230.111 -0.65326 2.18963 0
M  V30 2463 C 230.321 2.90631 1.93221 0
M  V30 2464 C 231.669 3.43904 2.49028 0
M  V30 2465 O 232.693 2.92421 2.03393 0
M  V30 2466 O 231.552 4.33823 3.32356 0
M  V30 2467 H 228.646 0.634262 0.530698 0
M  V30 2468 H 231.192 1.64725 0.407883 0
M  V30 2469 H 229.964 3.70473 1.25958 0
M  V30 2470 H 229.587 2.8662 2.75563 0
M  V30 2471 N 230.584 -0.659388 1.43143 0
M  V30 2472 C 231.824 -1.43121 1.45931 0
M  V30 2473 C 232.188 -1.91838 0.0789298 0
M  V30 2474 O 233.389 -2.68794 -0.018491 0
M  V30 2475 C 231.66 -2.58534 2.46769 0
M  V30 2476 S 233.219 -3.47154 2.68384 0
M  V30 2477 H 230.037 -0.488624 0.516496 0
M  V30 2478 H 232.639 -0.766128 1.79863 0
M  V30 2479 H 231.343 -2.21007 3.45809 0
M  V30 2480 H 230.874 -3.29898 2.14315 0
M  V30 2481 H 232.889 -4.55051 1.97845 0
M  V30 2482 N 232.062 -1.29571 -0.897171 0
M  V30 2483 C 233.025 -1.14913 -1.98312 0
M  V30 2484 C 234.025 -0.0838629 -1.60581 0
M  V30 2485 O 235.215 -0.331006 -1.71026 0
M  V30 2486 C 232.347 -0.757835 -3.3237 0
M  V30 2487 H 233.54 -2.11377 -2.12743 0
M  V30 2488 H 231.093 -1.12793 -1.08201 0
M  V30 2489 H 231.828 0.206837 -3.2364 0
M  V30 2490 H 231.613 -1.52755 -3.61121 0
M  V30 2491 H 233.103 -0.678408 -4.12053 0
M  V30 2492 N 233.54 1.10788 -1.12088 0
M  V30 2493 C 234.503 2.15207 -0.788577 0
M  V30 2494 C 235.503 1.59609 0.195317 0
M  V30 2495 O 236.693 1.74174 -0.0300193 0
M  V30 2496 C 233.825 3.4047 -0.171174 0
M  V30 2497 H 235.018 2.46116 -1.71368 0
M  V30 2498 H 232.571 1.26089 -0.923652 0
M  V30 2499 H 233.306 3.15176 0.763832 0
M  V30 2500 H 233.091 3.82109 -0.879514 0
M  V30 2501 H 234.581 4.17576 0.04496 0
M  V30 2502 N 235.018 0.912232 1.28515 0
M  V30 2503 C 235.965 0.397954 2.27343 0
M  V30 2504 C 236.935 -0.526766 1.57526 0
M  V30 2505 O 238.12 -0.449292 1.85435 0
M  V30 2506 C 235.26 -0.357263 3.43246 0
M  V30 2507 C 234.373 0.599788 4.27816 0
M  V30 2508 C 233.508 -0.173725 5.30916 0
M  V30 2509 C 232.547 0.777039 6.07148 0
M  V30 2510 N 231.684 0.0371398 7.0209 0
M  V30 2511 H 236.524 1.24577 2.70711 0
M  V30 2512 H 234.061 0.625612 1.33133 0
M  V30 2513 H 236.019 -0.8113 4.09236 0
M  V30 2514 H 234.649 -1.16943 3.00872 0
M  V30 2515 H 233.701 1.17235 3.61884 0
M  V30 2516 H 235.013 1.32704 4.80823 0
M  V30 2517 H 234.167 -0.688394 6.02782 0
M  V30 2518 H 232.906 -0.934041 4.78672 0
M  V30 2519 H 231.911 1.3031 5.34134 0
M  V30 2520 H 233.136 1.53689 6.61481 0
M  V30 2521 H 231.082 -0.705213 6.52198 0
M  V30 2522 H 230.999 0.704249 7.52713 0
M  V30 2523 H 232.267 -0.457383 7.78157 0
M  V30 2524 N 236.496 -1.42363 0.676048 0
M  V30 2525 C 237.426 -2.33497 0.0124832 0
M  V30 2526 C 238.407 -1.50748 -0.787981 0
M  V30 2527 O 239.592 -1.79346 -0.744884 0
M  V30 2528 C 236.722 -3.34377 -0.938582 0
M  V30 2529 C 235.676 -4.27289 -0.246622 0
M  V30 2530 C 235.002 -5.18386 -1.31071 0
M  V30 2531 C 236.302 -5.14916 0.875125 0
M  V30 2532 H 237.996 -2.89233 0.773593 0
M  V30 2533 H 235.542 -1.39073 0.37346 0
M  V30 2534 H 237.495 -3.97044 -1.41188 0
M  V30 2535 H 236.219 -2.76947 -1.73113 0
M  V30 2536 H 234.878 -3.66018 0.206456 0
M  V30 2537 H 234.526 -4.57282 -2.09528 0
M  V30 2538 H 234.226 -5.81378 -0.852839 0
M  V30 2539 H 235.75 -5.83929 -1.78492 0
M  V30 2540 H 237.164 -5.71262 0.482983 0
M  V30 2541 H 235.561 -5.86747 1.25887 0
M  V30 2542 H 236.631 -4.53242 1.72335 0
M  V30 2543 N 237.974 -0.419461 -1.51915 0
M  V30 2544 C 239.222 0.152637 -2.01523 0
M  V30 2545 C 239.543 1.44762 -1.30649 0
M  V30 2546 O 238.813 1.90997 -0.435535 0
M  V30 2547 H 237.393 0.0593966 -0.744635 0
M  V30 2548 H 240.055 -0.558073 -1.86739 0
M  V30 2549 H 239.151 0.341369 -3.10227 0
M  V30 2550 N 239.452 1.56882 -0.150215 0
M  V30 2551 C 240.698 1.96518 0.500834 0
M  V30 2552 C 241.031 1.03527 1.64304 0
M  V30 2553 O 240.306 0.0782751 1.94342 0
M  V30 2554 C 240.589 3.45822 1.00395 0
M  V30 2555 C 240.442 4.49591 -0.136983 0
M  V30 2556 C 241.761 3.97704 1.88467 0
M  V30 2557 H 238.88 0.714535 0.18058 0
M  V30 2558 H 241.522 1.88577 -0.232091 0
M  V30 2559 H 239.672 3.5272 1.62851 0
M  V30 2560 H 241.344 4.5477 -0.77343 0
M  V30 2561 H 239.587 4.26441 -0.795652 0
M  V30 2562 H 240.258 5.51402 0.256815 0
M  V30 2563 H 242.734 3.93304 1.35834 0
M  V30 2564 H 241.61 5.0263 2.20578 0
M  V30 2565 H 241.871 3.40252 2.82279 0
M  V30 2566 N 240.93 -0.123565 1.57115 0
M  V30 2567 C 242.207 -0.862196 1.75572 0
M  V30 2568 C 242.587 -1.98279 0.724475 0
M  V30 2569 O 241.935 -2.27102 -0.252407 0
M  V30 2570 C 242.145 -1.38309 3.20424 0
M  V30 2571 C 243.493 -1.83724 3.82793 0
M  V30 2572 O 244.517 -1.47999 3.23998 0
M  V30 2573 O 243.376 -2.49685 4.86127 0
M  V30 2574 H 240.47 -0.409113 0.718718 0
M  V30 2575 H 243.016 -0.107661 1.69358 0
M  V30 2576 H 241.788 -0.578889 3.86994 0
M  V30 2577 H 241.411 -2.20046 3.31158 0
M  V30 2578 N 242.408 -1.52605 -0.393616 0
M  V30 2579 C 243.819 -1.59417 -0.971761 0
M  V30 2580 C 244.17 -0.444173 -1.91106 0
M  V30 2581 O 243.295 0.433382 -2.12016 0
M  V30 2582 C 243.89 -2.88936 -1.76921 0
M  V30 2583 C 242.449 -2.98175 -2.29714 0
M  V30 2584 C 241.596 -2.54491 -1.10135 0
M  V30 2585 H 244.547 -1.57751 -0.173317 0
M  V30 2586 H 244.568 -2.75163 -2.62804 0
M  V30 2587 H 244.08 -3.72616 -1.08532 0
M  V30 2588 H 242.181 -2.19024 -3.01429 0
M  V30 2589 H 242.294 -4.02726 -2.59517 0
M  V30 2590 H 240.658 -2.08702 -1.45999 0
M  V30 2591 H 241.441 -3.4056 -0.432874 0
M  V30 2592 N 243.887 0.651787 -1.4349 0
M  V30 2593 C 244.817 1.77621 -1.51569 0
M  V30 2594 C 245.798 1.66022 -0.370253 0
M  V30 2595 O 246.983 1.85095 -0.587658 0
M  V30 2596 C 244.113 3.16056 -1.43966 0
M  V30 2597 C 243.067 3.4242 -2.56774 0
M  V30 2598 C 242.393 4.8067 -2.34223 0
M  V30 2599 C 243.693 3.37023 -3.99015 0
M  V30 2600 H 245.387 1.71117 -2.45681 0
M  V30 2601 H 242.933 0.821825 -1.18246 0
M  V30 2602 H 244.886 3.94472 -1.48221 0
M  V30 2603 H 243.61 3.23293 -0.463586 0
M  V30 2604 H 242.269 2.66375 -2.51873 0
M  V30 2605 H 241.917 4.84585 -1.34856 0
M  V30 2606 H 241.617 4.9927 -3.09844 0
M  V30 2607 H 243.141 5.61342 -2.40265 0
M  V30 2608 H 244.555 4.05374 -4.05395 0
M  V30 2609 H 242.952 3.67159 -4.74673 0
M  V30 2610 H 244.022 2.3518 -4.2405 0
M  V30 2611 N 245.365 1.30045 0.890287 0
M  V30 2612 C 246.593 1.21472 1.67487 0
M  V30 2613 C 247.008 -0.223241 1.87476 0
M  V30 2614 O 246.365 -1.14828 1.41847 0
M  V30 2615 C 246.416 1.93394 3.05419 0
M  V30 2616 O 246.137 3.31576 2.86337 0
M  V30 2617 C 247.638 1.91414 3.99844 0
M  V30 2618 H 244.858 0.420604 0.522813 0
M  V30 2619 H 247.402 1.7158 1.11268 0
M  V30 2620 H 245.557 1.47099 3.58386 0
M  V30 2621 H 245.971 3.67929 3.73802 0
M  V30 2622 H 247.445 2.46285 4.94012 0
M  V30 2623 H 247.922 0.891833 4.3005 0
M  V30 2624 H 248.528 2.37496 3.52811 0
M  V30 2625 N 246.843 -1.10192 1.12674 0
M  V30 2626 C 248.083 -1.83825 0.893736 0
M  V30 2627 C 248.447 -1.83341 -0.570082 0
M  V30 2628 O 249.648 -2.52553 -0.920354 0
M  V30 2629 C 247.919 -3.26405 1.45582 0
M  V30 2630 S 249.478 -4.17136 1.36171 0
M  V30 2631 H 246.296 -0.633732 0.322342 0
M  V30 2632 H 248.898 -1.32581 1.43675 0
M  V30 2633 H 247.602 -3.24329 2.51473 0
M  V30 2634 H 247.133 -3.82721 0.910405 0
M  V30 2635 H 249.148 -4.95069 0.334863 0
M  V30 2636 N 248.321 -0.919034 -1.28029 0
M  V30 2637 C 249.567 -0.555757 -1.95036 0
M  V30 2638 C 249.9 0.899198 -1.72128 0
M  V30 2639 O 249.175 1.64023 -1.04531 0
M  V30 2640 C 249.458 -0.872024 -3.49382 0
M  V30 2641 C 249.311 -2.3801 -3.81669 0
M  V30 2642 C 250.63 -0.37185 -4.38526 0
M  V30 2643 H 247.749 -0.203386 -0.708381 0
M  V30 2644 H 250.391 -1.14924 -1.51303 0
M  V30 2645 H 248.541 -0.366946 -3.86763 0
M  V30 2646 H 250.213 -2.9562 -3.54128 0
M  V30 2647 H 248.456 -2.83289 -3.28526 0
M  V30 2648 H 249.127 -2.55192 -4.8947 0
M  V30 2649 H 251.603 -0.804602 -4.08247 0
M  V30 2650 H 250.479 -0.622173 -5.45362 0
M  V30 2651 H 250.74 0.727934 -4.36066 0
M  V30 2652 N 249.799 1.42003 -0.683588 0
M  V30 2653 C 250.762 2.29191 -0.0198243 0
M  V30 2654 C 251.762 1.43773 0.72013 0
M  V30 2655 O 252.952 1.65061 0.556815 0
M  V30 2656 C 250.084 3.26435 0.982487 0
M  V30 2657 H 251.277 2.8938 -0.787345 0
M  V30 2658 H 248.83 1.49789 -0.446418 0
M  V30 2659 H 249.565 2.71203 1.77819 0
M  V30 2660 H 249.35 3.89449 0.455182 0
M  V30 2661 H 250.84 3.918 1.44508 0
M  V30 2662 N 251.277 0.427512 1.51691 0
M  V30 2663 C 252.207 -0.3796 2.30394 0
M  V30 2664 C 253.188 -1.02982 1.35384 0
M  V30 2665 O 254.373 -1.03534 1.643 0
M  V30 2666 C 251.503 -1.48649 3.1388 0
M  V30 2667 C 250.457 -0.960294 4.17088 0
M  V30 2668 C 249.783 -2.16219 4.89033 0
M  V30 2669 C 251.083 -0.00153679 5.223 0
M  V30 2670 H 252.777 0.277164 2.98114 0
M  V30 2671 H 250.323 0.134739 1.43368 0
M  V30 2672 H 252.276 -2.05826 3.67714 0
M  V30 2673 H 251 -2.1714 2.43962 0
M  V30 2674 H 249.659 -0.410806 3.64291 0
M  V30 2675 H 249.307 -2.83307 4.15628 0
M  V30 2676 H 249.007 -1.81654 5.58816 0
M  V30 2677 H 250.531 -2.73968 5.45687 0
M  V30 2678 H 251.945 -0.482687 5.71264 0
M  V30 2679 H 250.342 0.256199 5.99553 0
M  V30 2680 H 251.412 0.938174 4.75738 0
M  V30 2681 N 252.755 -1.56801 0.158532 0
M  V30 2682 C 253.665 -2.20916 -0.789518 0
M  V30 2683 C 254.681 -1.1969 -1.26294 0
M  V30 2684 O 255.857 -1.52308 -1.31773 0
M  V30 2685 C 252.922 -2.82727 -2.00665 0
M  V30 2686 C 251.983 -3.99114 -1.58134 0
M  V30 2687 C 251.216 -4.57968 -2.74045 0
M  V30 2688 O 251.439 -4.15704 -3.90572 0
M  V30 2689 O 250.373 -5.48047 -2.48855 0
M  V30 2690 H 254.199 -3.02464 -0.273681 0
M  V30 2691 H 251.784 -1.4924 -0.0690548 0
M  V30 2692 H 253.666 -3.21968 -2.71872 0
M  V30 2693 H 252.341 -2.04184 -2.51179 0
M  V30 2694 H 251.248 -3.64567 -0.839155 0
M  V30 2695 H 252.581 -4.79212 -1.12325 0
M  V30 2696 N 254.233 0.115231 -1.57178 0
M  V30 2697 C 255.51 0.852873 -1.76027 0
M  V30 2698 C 255.89 1.97892 -0.73498 0
M  V30 2699 O 255.238 2.27232 0.24036 0
M  V30 2700 C 255.448 1.36608 -3.21153 0
M  V30 2701 C 256.796 1.81692 -3.83762 0
M  V30 2702 O 257.82 1.46278 -3.24779 0
M  V30 2703 O 256.679 2.47104 -4.87444 0
M  V30 2704 H 253.773 0.405296 -0.720877 0
M  V30 2705 H 256.319 0.0986785 -1.69413 0
M  V30 2706 H 255.091 0.558357 -3.87296 0
M  V30 2707 H 254.714 2.18287 -3.3232 0
M  V30 2708 N 255.711 1.52812 0.385517 0
M  V30 2709 C 256.936 1.72207 1.15583 0
M  V30 2710 C 257.361 0.441034 1.82857 0
M  V30 2711 O 256.719 -0.603465 1.70962 0
M  V30 2712 C 256.767 2.87476 2.17692 0
M  V30 2713 O 255.871 2.54693 3.24354 0
M  V30 2714 H 255.212 0.572526 0.336319 0
M  V30 2715 H 257.742 1.99618 0.448744 0
M  V30 2716 H 257.752 3.13072 2.6163 0
M  V30 2717 H 256.427 3.80408 1.68115 0
M  V30 2718 H 255.004 2.3985 2.85529 0
M  V30 2719 N 257.189 -0.644168 1.43834 0
M  V30 2720 C 258.435 -1.40603 1.46146 0
M  V30 2721 C 258.768 -1.93997 0.0887717 0
M  V30 2722 O 258.043 -1.72854 -0.891724 0
M  V30 2723 C 258.326 -2.58086 2.51124 0
M  V30 2724 C 258.179 -2.10126 3.97702 0
M  V30 2725 C 259.498 -3.60291 2.52742 0
M  V30 2726 H 256.617 -0.509905 0.532134 0
M  V30 2727 H 259.259 -0.729502 1.75437 0
M  V30 2728 H 257.409 -3.15801 2.26278 0
M  V30 2729 H 259.081 -1.57342 4.33637 0
M  V30 2730 H 257.324 -1.41419 4.10101 0
M  V30 2731 H 257.995 -2.94649 4.66783 0
M  V30 2732 H 260.471 -3.12352 2.7491 0
M  V30 2733 H 259.347 -4.40032 3.28121 0
M  V30 2734 H 259.608 -4.1349 1.56455 0
M  V30 2735 N 258.668 -1.30515 -0.883378 0
M  V30 2736 C 259.616 -1.16941 -2.01066 0
M  V30 2737 C 260.61 -0.0809148 -1.69207 0
M  V30 2738 O 261.816 -0.241877 -1.78367 0
M  V30 2739 H 258.191 -0.361705 -0.659298 0
M  V30 2740 H 260.162 -2.12344 -2.09649 0
M  V30 2741 C 258.911 -0.879694 -3.36388 0
M  V30 2742 H 258.234 -1.70936 -3.61415 0
M  V30 2743 H 259.674 -0.82483 -4.159 0
M  V30 2744 C 258.133 0.417409 -3.34304 0
M  V30 2745 O 258.663 1.43843 -3.75063 0
M  V30 2746 N 256.869 0.429141 -2.87414 0
M  V30 2747 H 256.416 -0.402222 -2.5444 0
M  V30 2748 H 256.374 1.29696 -2.86403 0
M  V30 2749 N 260.146 1.09593 -1.13257 0
M  V30 2750 C 261.394 1.81375 -0.891492 0
M  V30 2751 C 261.715 1.86049 0.584009 0
M  V30 2752 O 260.985 1.34481 1.42449 0
M  V30 2753 H 259.565 0.671708 -0.326828 0
M  V30 2754 H 262.227 1.3256 -1.42877 0
M  V30 2755 H 261.323 2.84612 -1.28071 0
M  V30 2756 N 261.624 0.925811 1.2754 0
M  V30 2757 C 262.557 0.367836 2.25216 0
M  V30 2758 C 263.535 -0.534738 1.53556 0
M  V30 2759 O 264.719 -0.475672 1.824 0
M  V30 2760 C 261.846 -0.47298 3.35381 0
M  V30 2761 C 260.892 0.365898 4.24928 0
M  V30 2762 S 261.725 1.78025 5.05042 0
M  V30 2763 C 262.881 0.947068 6.18693 0
M  V30 2764 H 263.114 1.19568 2.72196 0
M  V30 2765 H 260.647 0.727867 1.36167 0
M  V30 2766 H 262.605 -0.952242 3.99303 0
M  V30 2767 H 261.266 -1.27533 2.87044 0
M  V30 2768 H 260.459 -0.277582 5.03235 0
M  V30 2769 H 260.061 0.779261 3.65792 0
M  V30 2770 H 262.353 0.182201 6.77255 0
M  V30 2771 H 263.296 1.70309 6.87314 0
M  V30 2772 H 263.704 0.489913 5.6237 0
M  V30 2773 N 263.102 -1.41638 0.69111 0
M  V30 2774 C 264.351 -2.00526 0.217318 0
M  V30 2775 C 264.664 -1.55353 -1.18848 0
M  V30 2776 O 265.87 -2.06769 -1.75951 0
M  V30 2777 C 264.326 -3.58313 0.337639 0
M  V30 2778 C 263.934 -4.12469 1.74852 0
M  V30 2779 C 265.678 -4.24431 -0.0766066 0
M  V30 2780 C 263.585 -5.62675 1.82074 0
M  V30 2781 H 262.515 -0.750008 0.0774893 0
M  V30 2782 H 265.166 -1.6217 0.858661 0
M  V30 2783 H 263.548 -3.9425 -0.371879 0
M  V30 2784 H 264.722 -3.8796 2.48644 0
M  V30 2785 H 263.037 -3.58861 2.11205 0
M  V30 2786 H 265.634 -5.34683 -0.0430284 0
M  V30 2787 H 265.977 -4.01101 -1.1146 0
M  V30 2788 H 266.51 -3.93512 0.582476 0
M  V30 2789 H 263.249 -5.90826 2.83911 0
M  V30 2790 H 262.769 -5.89124 1.12661 0
M  V30 2791 H 264.448 -6.27371 1.58159 0
M  V30 2792 N 264.58 -0.43555 -1.51462 0
M  V30 2793 C 265.543 0.365137 -2.26273 0
M  V30 2794 C 266.543 0.951227 -1.29647 0
M  V30 2795 O 267.733 0.825958 -1.53374 0
M  V30 2796 C 264.865 1.51645 -3.05314 0
M  V30 2797 H 266.058 -0.290474 -2.9849 0
M  V30 2798 H 263.611 -0.188676 -1.55157 0
M  V30 2799 H 264.346 2.20816 -2.3751 0
M  V30 2800 H 264.131 1.10238 -3.76284 0
M  V30 2801 H 265.621 2.08218 -3.61987 0
M  V30 2802 N 266.058 1.56714 -0.166846 0
M  V30 2803 C 267.283 2.01557 0.488833 0
M  V30 2804 C 267.708 1.0463 1.56314 0
M  V30 2805 O 267.066 0.0251304 1.81283 0
M  V30 2806 C 267.114 3.4503 1.04818 0
M  V30 2807 O 266.218 3.51163 2.16236 0
M  V30 2808 H 265.559 0.653516 0.117526 0
M  V30 2809 H 268.089 2.02818 -0.269421 0
M  V30 2810 H 268.099 3.84243 1.37191 0
M  V30 2811 H 266.774 4.15077 0.261572 0
M  V30 2812 H 265.351 3.23807 1.84942 0
M  V30 2813 N 267.536 -0.106894 1.57237 0
M  V30 2814 C 268.483 -1.13049 2.01217 0
M  V30 2815 C 269.453 -1.40471 0.886403 0
M  V30 2816 O 270.638 -1.52133 1.15153 0
M  V30 2817 C 267.778 -2.4487 2.43172 0
M  V30 2818 C 266.891 -2.24281 3.69218 0
M  V30 2819 C 266.026 -3.49417 4.00101 0
M  V30 2820 C 265.065 -3.24038 5.19294 0
M  V30 2821 N 264.202 -4.41409 5.45988 0
M  V30 2822 H 269.042 -0.748456 2.88448 0
M  V30 2823 H 266.579 -0.358054 1.42676 0
M  V30 2824 H 268.537 -3.21786 2.65537 0
M  V30 2825 H 267.167 -2.80944 1.58967 0
M  V30 2826 H 266.219 -1.38224 3.54398 0
M  V30 2827 H 267.531 -2.01512 4.56283 0
M  V30 2828 H 266.685 -4.34746 4.2318 0
M  V30 2829 H 265.424 -3.75229 3.11535 0
M  V30 2830 H 264.429 -2.37102 4.96047 0
M  V30 2831 H 265.654 -2.99584 6.09447 0
M  V30 2832 H 263.6 -4.67319 4.60379 0
M  V30 2833 H 263.517 -4.21788 6.274 0
M  V30 2834 H 264.785 -5.27836 5.73593 0
M  V30 2835 N 269.014 -1.53014 -0.377408 0
M  V30 2836 C 269.977 -1.77957 -1.44444 0
M  V30 2837 C 270.977 -0.649763 -1.47087 0
M  V30 2838 O 272.167 -0.917897 -1.48055 0
M  V30 2839 C 269.299 -1.89089 -2.83651 0
M  V30 2840 H 270.492 -2.73243 -1.23606 0
M  V30 2841 H 268.045 -1.43912 -0.609844 0
M  V30 2842 H 268.78 -0.958293 -3.09818 0
M  V30 2843 H 268.565 -2.71254 -2.83132 0
M  V30 2844 H 270.055 -2.1002 -3.60945 0
M  V30 2845 N 270.492 0.636531 -1.44174 0
M  V30 2846 C 271.455 1.73063 -1.50273 0
M  V30 2847 C 272.455 1.56113 -0.385397 0
M  V30 2848 O 273.645 1.61707 -0.64781 0
M  V30 2849 C 270.777 3.12096 -1.37145 0
M  V30 2850 H 271.97 1.69031 -2.47727 0
M  V30 2851 H 269.523 0.849706 -1.31186 0
M  V30 2852 H 270.258 3.21728 -0.407636 0
M  V30 2853 H 270.043 3.25805 -2.18159 0
M  V30 2854 H 271.533 3.91846 -1.44382 0
M  V30 2855 N 271.97 1.30982 0.876444 0
M  V30 2856 C 273.386 1.09498 1.16113 0
M  V30 2857 C 273.586 -0.13875 2.01022 0
M  V30 2858 O 272.642 -0.829935 2.38471 0
M  V30 2859 C 273.955 2.36308 1.85954 0
M  V30 2860 C 275.503 2.41856 1.98683 0
M  V30 2861 C 275.978 3.6853 2.71937 0
M  V30 2862 N 277.469 3.69387 2.79477 0
M  V30 2863 C 278.204 4.64096 3.36753 0
M  V30 2864 N 277.7 5.69155 3.95012 0
M  V30 2865 N 279.493 4.51626 3.3465 0
M  V30 2866 H 271.644 2.10118 0.310494 0
M  V30 2867 H 273.907 0.926634 0.200131 0
M  V30 2868 H 273.613 3.26388 1.31011 0
M  V30 2869 H 273.487 2.4561 2.86278 0
M  V30 2870 H 275.874 1.52249 2.52793 0
M  V30 2871 H 275.955 2.36523 0.9742 0
M  V30 2872 H 275.599 4.58499 2.18496 0
M  V30 2873 H 275.529 3.71127 3.73593 0
M  V30 2874 H 278.02 2.93438 2.38123 0
M  V30 2875 H 278.333 6.3751 4.36808 0
M  V30 2876 H 276.678 5.72937 3.93406 0
M  V30 2877 H 279.869 3.68728 2.8837 0
M  V30 2878 H 280.042 5.25614 3.7899 0
M  V30 2879 N 273.449 -1.08991 1.13837 0
M  V30 2880 C 274.382 -2.15049 0.763477 0
M  V30 2881 C 275.36 -1.60629 -0.252398 0
M  V30 2882 O 276.544 -1.87958 -0.142853 0
M  V30 2883 C 273.671 -3.38441 0.132545 0
M  V30 2884 C 272.717 -4.11596 1.11763 0
M  V30 2885 S 273.55 -4.6521 2.65216 0
M  V30 2886 C 274.706 -5.91896 2.03495 0
M  V30 2887 H 274.939 -2.46518 1.66182 0
M  V30 2888 H 272.472 -1.21008 0.958976 0
M  V30 2889 H 274.43 -4.09883 -0.225074 0
M  V30 2890 H 273.091 -3.05182 -0.743135 0
M  V30 2891 H 272.284 -5.00121 0.624076 0
M  V30 2892 H 271.886 -3.46038 1.41894 0
M  V30 2893 H 274.178 -6.63156 1.38675 0
M  V30 2894 H 275.121 -6.45938 2.9012 0
M  V30 2895 H 275.529 -5.44625 1.48471 0
M  V30 2896 N 274.927 -0.932562 -1.27047 0
M  V30 2897 C 276.343 -0.633544 -1.46487 0
M  V30 2898 C 276.543 0.815746 -1.84249 0
M  V30 2899 O 275.599 1.59319 -1.95892 0
M  V30 2900 C 276.912 -1.58758 -2.55375 0
M  V30 2901 C 278.46 -1.59634 -2.69232 0
M  V30 2902 C 278.935 -2.53747 -3.81283 0
M  V30 2903 N 280.426 -2.51982 -3.88664 0
M  V30 2904 C 281.161 -3.21491 -4.74796 0
M  V30 2905 N 280.657 -4.00395 -5.65381 0
M  V30 2906 N 282.45 -3.10485 -4.68568 0
M  V30 2907 H 274.601 -1.86946 -1.00821 0
M  V30 2908 H 276.864 -0.802897 -0.504044 0
M  V30 2909 H 276.57 -2.62172 -2.34432 0
M  V30 2910 H 276.444 -1.33301 -3.52861 0
M  V30 2911 H 278.831 -0.569488 -2.89553 0
M  V30 2912 H 278.912 -1.89142 -1.72218 0
M  V30 2913 H 278.556 -3.56545 -3.61715 0
M  V30 2914 H 278.486 -2.21532 -4.77735 0
M  V30 2915 H 280.977 -1.94681 -3.23895 0
M  V30 2916 H 281.29 -4.50406 -6.27976 0
M  V30 2917 H 279.635 -4.04498 -5.65161 0
M  V30 2918 H 282.826 -2.48331 -3.96799 0
M  V30 2919 H 282.999 -3.64925 -5.35475 0
M  V30 2920 N 276.405 1.4127 -0.698611 0
M  V30 2921 C 277.63 2.06024 -0.238512 0
M  V30 2922 C 278.055 1.5224 1.10475 0
M  V30 2923 O 277.413 0.650623 1.69223 0
M  V30 2924 C 277.461 3.59988 -0.209952 0
M  V30 2925 O 276.565 4.04282 0.814235 0
M  V30 2926 H 275.906 0.653829 -0.115775 0
M  V30 2927 H 278.436 1.8098 -0.954326 0
M  V30 2928 H 278.446 4.07979 -0.0418436 0
M  V30 2929 H 277.121 3.98503 -1.1903 0
M  V30 2930 H 275.698 3.6779 0.615234 0
M  V30 2931 N 277.883 0.443576 1.51229 0
M  V30 2932 C 279.132 -0.122332 2.01329 0
M  V30 2933 C 279.445 -1.43237 1.33201 0
M  V30 2934 O 280.651 -2.0816 1.74304 0
M  V30 2935 C 279.107 -0.268551 3.58897 0
M  V30 2936 C 278.715 1.03142 4.35965 0
M  V30 2937 C 280.459 -0.787894 4.17124 0
M  V30 2938 C 278.366 0.850504 5.85252 0
M  V30 2939 H 277.296 -0.0494929 0.752374 0
M  V30 2940 H 279.947 0.574289 1.74282 0
M  V30 2941 H 278.329 -1.02832 3.82415 0
M  V30 2942 H 279.503 1.80001 4.24189 0
M  V30 2943 H 277.818 1.47977 3.89219 0
M  V30 2944 H 280.415 -0.939841 5.26375 0
M  V30 2945 H 280.758 -1.77201 3.76703 0
M  V30 2946 H 281.291 -0.0862669 3.97706 0
M  V30 2947 H 278.03 1.80718 6.30096 0
M  V30 2948 H 277.55 0.121825 5.99676 0
M  V30 2949 H 279.229 0.506163 6.45017 0
M  V30 2950 N 279.361 -1.56624 0.175154 0
M  V30 2951 C 280.607 -1.9729 -0.469506 0
M  V30 2952 C 280.94 -1.06128 -1.62636 0
M  V30 2953 O 280.215 -0.109183 -1.94193 0
M  V30 2954 C 280.498 -3.47375 -0.948804 0
M  V30 2955 C 280.351 -4.49317 0.208491 0
M  V30 2956 C 281.67 -4.00652 -1.82116 0
M  V30 2957 H 278.789 -0.717317 -0.16919 0
M  V30 2958 H 281.431 -1.88184 0.262062 0
M  V30 2959 H 279.581 -3.55267 -1.57219 0
M  V30 2960 H 281.253 -4.53482 0.845682 0
M  V30 2961 H 279.496 -4.25121 0.863395 0
M  V30 2962 H 280.167 -5.51741 -0.169059 0
M  V30 2963 H 282.643 -3.95416 -1.2956 0
M  V30 2964 H 281.519 -5.06075 -2.12554 0
M  V30 2965 H 281.78 -3.44699 -2.7683 0
M  V30 2966 N 280.839 0.0985539 -1.57292 0
M  V30 2967 C 282.085 0.803867 -1.86188 0
M  V30 2968 C 282.418 1.78549 -0.763794 0
M  V30 2969 O 281.693 1.93153 0.22855 0
M  V30 2970 C 281.976 1.53568 -3.25713 0
M  V30 2971 C 281.829 0.572277 -4.46145 0
M  V30 2972 C 283.148 2.48708 -3.63087 0
M  V30 2973 H 280.267 0.290781 -0.677211 0
M  V30 2974 H 282.909 0.0675783 -1.8988 0
M  V30 2975 H 281.059 2.16332 -3.22696 0
M  V30 2976 H 282.731 -0.0480894 -4.61275 0
M  V30 2977 H 280.974 -0.114618 -4.33649 0
M  V30 2978 H 281.645 1.12139 -5.40489 0
M  V30 2979 H 284.121 1.96039 -3.67026 0
M  V30 2980 H 282.997 2.96932 -4.61652 0
M  V30 2981 H 283.258 3.32309 -2.91588 0
M  V30 2982 N 282.317 1.53212 0.369288 0
M  V30 2983 C 283.728 1.60943 0.946276 0
M  V30 2984 C 284.079 0.47452 1.90375 0
M  V30 2985 O 283.204 -0.399597 2.12679 0
M  V30 2986 C 283.799 2.91715 1.72302 0
M  V30 2987 C 282.358 3.01792 2.24941 0
M  V30 2988 C 281.505 2.56211 1.06072 0
M  V30 2989 H 284.456 1.58007 0.148198 0
M  V30 2990 H 284.477 2.79309 2.58393 0
M  V30 2991 H 283.989 3.74295 1.0259 0
M  V30 2992 H 282.09 2.23791 2.97906 0
M  V30 2993 H 282.203 4.06803 2.53077 0
M  V30 2994 H 280.567 2.10998 1.4266 0
M  V30 2995 H 281.35 3.41206 0.378639 0
M  V30 2996 N 283.795 -0.628877 1.44509 0
M  V30 2997 C 284.758 -1.72263 1.51188 0
M  V30 2998 C 285.758 -1.55907 0.39367 0
M  V30 2999 O 286.948 -1.61361 0.656377 0
M  V30 3000 C 284.08 -3.11365 1.38798 0
M  V30 3001 H 285.273 -1.67714 2.4862 0
M  V30 3002 H 282.826 -0.842737 1.31634 0
M  V30 3003 H 283.561 -3.21507 0.424693 0
M  V30 3004 H 283.346 -3.24644 2.19884 0
M  V30 3005 H 284.836 -3.91075 1.46458 0
M  V30 3006 N 285.273 -1.31445 -0.869486 0
M  V30 3007 C 286.684 -1.19042 -1.43826 0
M  V30 3008 C 287.035 0.202919 -1.95148 0
M  V30 3009 O 286.16 1.10071 -1.86315 0
M  V30 3010 C 286.755 -2.15499 -2.6143 0
M  V30 3011 C 285.314 -2.07028 -3.14351 0
M  V30 3012 C 284.461 -2.04701 -1.87063 0
M  V30 3013 H 287.412 -1.43489 -0.677984 0
M  V30 3014 H 287.433 -1.74488 -3.38134 0
M  V30 3015 H 286.945 -3.16899 -2.24046 0
M  V30 3016 H 285.046 -1.08825 -3.56354 0
M  V30 3017 H 285.159 -2.96157 -3.766 0
M  V30 3018 H 283.523 -1.49724 -2.06046 0
M  V30 3019 H 284.306 -3.07857 -1.51917 0
M  V30 3020 N 286.751 1.08385 -1.14413 0
M  V30 3021 C 287.661 2.18856 -0.844951 0
M  V30 3022 C 288.677 1.73121 0.174668 0
M  V30 3023 O 289.853 2.014 0.00312857 0
M  V30 3024 C 286.918 3.45155 -0.32696 0
M  V30 3025 C 285.979 4.05513 -1.40916 0
M  V30 3026 C 285.212 5.25784 -0.915793 0
M  V30 3027 O 285.435 5.69884 0.242651 0
M  V30 3028 O 284.369 5.77545 -1.69487 0
M  V30 3029 H 288.195 2.46919 -1.76818 0
M  V30 3030 H 285.78 1.17524 -0.922411 0
M  V30 3031 H 287.662 4.21377 -0.0440211 0
M  V30 3032 H 286.337 3.18668 0.568539 0
M  V30 3033 H 285.244 3.30879 -1.74556 0
M  V30 3034 H 286.577 4.3625 -2.27919 0
M  V30 3035 N 288.23 0.939286 1.26551 0
M  V30 3036 C 289.193 0.451987 2.24699 0
M  V30 3037 C 290.193 -0.435869 1.5478 0
M  V30 3038 O 291.383 -0.235314 1.72603 0
M  V30 3039 C 288.515 -0.348801 3.39111 0
M  V30 3040 H 289.708 1.3193 2.69322 0
M  V30 3041 H 287.261 0.721072 1.38673 0
M  V30 3042 H 287.996 -1.23444 2.99887 0
M  V30 3043 H 287.781 0.287945 3.91041 0
M  V30 3044 H 289.271 -0.679726 4.12031 0
M  V30 3045 N 289.708 -1.40897 0.706093 0
M  V30 3046 C 290.64 -2.29199 0.00815776 0
M  V30 3047 C 291.653 -1.45336 -0.733582 0
M  V30 3048 O 292.842 -1.68727 -0.582537 0
M  V30 3049 C 289.942 -3.23417 -1.01265 0
M  V30 3050 C 289.115 -4.36089 -0.338387 0
M  V30 3051 C 288.174 -5.10811 -1.26326 0
M  V30 3052 O 287.2 -5.64215 -0.751651 0
M  V30 3053 N 288.402 -5.19269 -2.595 0
M  V30 3054 H 291.167 -2.89738 0.766297 0
M  V30 3055 H 288.728 -1.52164 0.55296 0
M  V30 3056 H 290.72 -3.70276 -1.63334 0
M  V30 3057 H 289.29 -2.64112 -1.67223 0
M  V30 3058 H 288.51 -3.91479 0.462352 0
M  V30 3059 H 289.798 -5.08634 0.130031 0
M  V30 3060 H 289.196 -4.77347 -3.03573 0
M  V30 3061 H 287.753 -5.69667 -3.16737 0
M  V30 3062 N 291.186 -0.45159 -1.50991 0
M  V30 3063 C 292.134 0.366864 -2.29689 0
M  V30 3064 C 293.128 1.00809 -1.36139 0
M  V30 3065 O 294.334 0.941427 -1.53418 0
M  V30 3066 H 290.709 0.137133 -0.739391 0
M  V30 3067 H 292.68 -0.317538 -2.96706 0
M  V30 3068 C 291.429 1.44751 -3.16137 0
M  V30 3069 H 290.752 0.963473 -3.88017 0
M  V30 3070 H 292.192 1.99315 -3.74232 0
M  V30 3071 C 290.651 2.43869 -2.32442 0
M  V30 3072 O 291.181 3.4872 -1.99392 0
M  V30 3073 N 289.387 2.15105 -1.95392 0
M  V30 3074 H 288.934 1.29866 -2.22469 0
M  V30 3075 H 288.892 2.81661 -1.39693 0
M  V30 3076 N 292.664 1.56529 -0.183458 0
M  V30 3077 C 293.941 1.88959 0.50536 0
M  V30 3078 C 294.321 1.09523 1.80466 0
M  V30 3079 O 293.669 0.19278 2.27685 0
M  V30 3080 C 293.879 3.41162 0.73547 0
M  V30 3081 C 295.227 4.11155 1.06005 0
M  V30 3082 O 296.251 3.46548 0.823594 0
M  V30 3083 O 295.11 5.25318 1.50675 0
M  V30 3084 H 292.204 0.78441 0.261973 0
M  V30 3085 H 294.75 1.68231 -0.222802 0
M  V30 3086 H 293.522 3.90874 -0.182561 0
M  V30 3087 H 293.145 3.67543 1.51651 0
M  V30 3088 N 294.142 -0.090211 1.57342 0
M  V30 3089 C 295.553 -0.644173 1.75235 0
M  V30 3090 C 295.904 -1.78865 0.806335 0
M  V30 3091 O 295.029 -2.16395 -0.0140128 0
M  V30 3092 C 295.624 -1.17532 3.1776 0
M  V30 3093 C 294.183 -1.67531 3.37061 0
M  V30 3094 C 293.33 -0.58693 2.71017 0
M  V30 3095 H 296.281 0.135884 1.58117 0
M  V30 3096 H 296.302 -2.04455 3.20902 0
M  V30 3097 H 295.814 -0.342138 3.86589 0
M  V30 3098 H 293.915 -2.53234 2.73319 0
M  V30 3099 H 294.028 -1.76493 4.45406 0
M  V30 3100 H 292.392 -1.02756 2.33052 0
M  V30 3101 H 293.175 0.235758 3.4249 0
M  V30 3102 N 295.62 -1.53406 -0.361157 0
M  V30 3103 C 297.036 -1.43277 -0.703124 0
M  V30 3104 C 297.236 -0.575384 -1.9311 0
M  V30 3105 O 296.292 -0.0595362 -2.5243 0
M  V30 3106 C 297.605 -2.8653 -0.9122 0
M  V30 3107 C 299.153 -2.96191 -1.01193 0
M  V30 3108 C 299.628 -4.40514 -1.25345 0
M  V30 3109 N 301.119 -4.43962 -1.32105 0
M  V30 3110 C 301.854 -5.52746 -1.5251 0
M  V30 3111 N 301.35 -6.71567 -1.70203 0
M  V30 3112 N 303.143 -5.40331 -1.54916 0
M  V30 3113 H 295.294 -2.07654 0.446475 0
M  V30 3114 H 297.557 -0.937944 0.137715 0
M  V30 3115 H 297.263 -3.51605 -0.0816414 0
M  V30 3116 H 297.137 -3.30441 -1.81903 0
M  V30 3117 H 299.524 -2.31266 -1.83303 0
M  V30 3118 H 299.605 -2.55667 -0.0823929 0
M  V30 3119 H 299.249 -5.06014 -0.437346 0
M  V30 3120 H 299.179 -4.78614 -2.19627 0
M  V30 3121 H 301.67 -3.58332 -1.20028 0
M  V30 3122 H 301.983 -7.50241 -1.85359 0
M  V30 3123 H 300.328 -6.74545 -1.67373 0
M  V30 3124 H 303.519 -4.46465 -1.40663 0
M  V30 3125 H 303.692 -6.25173 -1.70477 0
M  V30 3126 N 297.098 0.621204 -1.44841 0
M  V30 3127 C 298.345 1.38055 -1.48145 0
M  V30 3128 C 298.673 1.94143 -0.117867 0
M  V30 3129 O 297.928 1.74713 0.881694 0
M  V30 3130 C 298.227 2.55675 -2.4973 0
M  V30 3131 C 297.893 2.17817 -3.94799 0
M  V30 3132 C 296.555 2.07205 -4.34303 0
M  V30 3133 C 298.907 1.88065 -4.86087 0
M  V30 3134 C 296.235 1.65045 -5.63007 0
M  V30 3135 C 298.587 1.47394 -6.15189 0
M  V30 3136 C 297.251 1.35331 -6.53637 0
M  V30 3137 H 296.521 0.505181 -0.542101 0
M  V30 3138 H 299.168 0.703477 -1.78111 0
M  V30 3139 H 297.473 3.2866 -2.13284 0
M  V30 3140 H 299.17 3.13904 -2.4953 0
M  V30 3141 H 295.76 2.26998 -3.63552 0
M  V30 3142 H 299.944 1.95168 -4.56315 0
M  V30 3143 H 295.2 1.54317 -5.91605 0
M  V30 3144 H 299.374 1.23415 -6.85377 0
M  V30 3145 H 297.001 1.02435 -7.53267 0
M  V30 3146 N 298.576 1.31904 0.862503 0
M  V30 3147 C 299.822 1.22197 1.61851 0
M  V30 3148 C 300.155 -0.217641 1.92977 0
M  V30 3149 O 299.43 -1.15264 1.56666 0
M  V30 3150 C 299.713 2.07378 2.94391 0
M  V30 3151 C 299.566 3.59678 2.70096 0
M  V30 3152 C 300.885 1.92891 3.95577 0
M  V30 3153 H 298.004 0.445255 0.587296 0
M  V30 3154 H 300.646 1.6177 0.99651 0
M  V30 3155 H 298.796 1.73758 3.47477 0
M  V30 3156 H 300.468 4.03472 2.23625 0
M  V30 3157 H 298.711 3.82735 2.04197 0
M  V30 3158 H 299.382 4.14595 3.64438 0
M  V30 3159 H 301.858 2.22327 3.51724 0
M  V30 3160 H 300.734 2.54781 4.86187 0
M  V30 3161 H 300.995 0.894315 4.3296 0
M  V30 3162 N 300.054 -1.07777 1.14986 0
M  V30 3163 C 300.984 -2.16865 0.865557 0
M  V30 3164 C 301.965 -1.69123 -0.182083 0
M  V30 3165 O 303.15 -1.94164 -0.0373815 0
M  V30 3166 C 300.28 -3.45539 0.349313 0
M  V30 3167 C 299.234 -4.06708 1.33313 0
M  V30 3168 C 298.56 -5.30411 0.675918 0
M  V30 3169 C 299.86 -4.47241 2.69764 0
M  V30 3170 H 301.554 -2.40905 1.77778 0
M  V30 3171 H 299.1 -1.15781 0.856203 0
M  V30 3172 H 301.053 -4.21174 0.137983 0
M  V30 3173 H 299.777 -3.21072 -0.598362 0
M  V30 3174 H 298.436 -3.33112 1.53075 0
M  V30 3175 H 298.084 -5.02232 -0.277767 0
M  V30 3176 H 297.784 -5.72293 1.33244 0
M  V30 3177 H 299.308 -6.08755 0.474262 0
M  V30 3178 H 300.722 -5.14025 2.53873 0
M  V30 3179 H 299.119 -5.00062 3.3175 0
M  V30 3180 H 300.189 -3.58818 3.26156 0
M  V30 3181 N 301.532 -0.945985 -1.26051 0
M  V30 3182 C 302.495 -0.463897 -2.24456 0
M  V30 3183 C 303.495 0.427655 -1.55009 0
M  V30 3184 O 304.685 0.226157 -1.72726 0
M  V30 3185 C 301.817 0.330812 -3.39291 0
M  V30 3186 H 303.01 -1.33357 -2.68619 0
M  V30 3187 H 300.563 -0.728416 -1.38289 0
M  V30 3188 H 301.298 1.21852 -3.00537 0
M  V30 3189 H 301.083 -0.308679 -3.90883 0
M  V30 3190 H 302.573 0.657865 -4.12386 0
M  V30 3191 N 303.011 1.40521 -0.713556 0
M  V30 3192 C 303.959 2.32549 -0.0485227 0
M  V30 3193 C 304.953 1.51931 0.74922 0
M  V30 3194 O 306.159 1.67745 0.652816 0
M  V30 3195 H 302.534 0.751994 0.00311138 0
M  V30 3196 H 304.505 2.86291 -0.841443 0
M  V30 3197 C 303.254 3.36879 0.860687 0
M  V30 3198 H 302.577 3.98978 0.256246 0
M  V30 3199 H 304.017 4.03772 1.294 0
M  V30 3200 C 302.476 2.72197 1.9852 0
M  V30 3201 O 303.006 2.5837 3.07584 0
M  V30 3202 N 301.212 2.30612 1.76823 0
M  V30 3203 H 300.759 2.42059 0.881217 0
M  V30 3204 H 300.717 1.87672 2.52243 0
M  V30 3205 N 304.489 0.459591 1.5075 0
M  V30 3206 C 305.735 -0.0994966 2.02556 0
M  V30 3207 C 306.068 -1.40399 1.3417 0
M  V30 3208 O 305.343 -1.88892 0.463683 0
M  V30 3209 C 305.626 -0.295242 3.58888 0
M  V30 3210 C 305.479 1.02947 4.37861 0
M  V30 3211 C 306.798 -1.05502 4.27267 0
M  V30 3212 H 303.917 -0.034686 0.736183 0
M  V30 3213 H 306.559 0.602938 1.8018 0
M  V30 3214 H 304.709 -0.893563 3.78084 0
M  V30 3215 H 306.381 1.66348 4.30263 0
M  V30 3216 H 304.624 1.62885 4.02058 0
M  V30 3217 H 305.295 0.846281 5.45474 0
M  V30 3218 H 307.771 -0.547993 4.12476 0
M  V30 3219 H 306.647 -1.16077 5.36486 0
M  V30 3220 H 306.908 -2.08875 3.89645 0
M  V30 3221 N 305.967 -1.56429 0.191757 0
M  V30 3222 C 306.914 -2.18936 -0.730454 0
M  V30 3223 C 307.884 -1.13557 -1.21219 0
M  V30 3224 O 309.069 -1.41794 -1.27668 0
M  V30 3225 C 306.209 -2.85013 -1.9458 0
M  V30 3226 C 305.322 -4.04909 -1.50574 0
M  V30 3227 C 304.457 -4.58853 -2.67634 0
M  V30 3228 C 303.496 -5.71114 -2.20217 0
M  V30 3229 N 302.633 -6.19478 -3.30442 0
M  V30 3230 H 307.473 -2.97389 -0.190664 0
M  V30 3231 H 305.01 -1.46869 -0.0823694 0
M  V30 3232 H 306.968 -3.21492 -2.65893 0
M  V30 3233 H 305.598 -2.09129 -2.45896 0
M  V30 3234 H 304.65 -3.74115 -0.688605 0
M  V30 3235 H 305.962 -4.86113 -1.11784 0
M  V30 3236 H 305.116 -4.97619 -3.47074 0
M  V30 3237 H 303.855 -3.76749 -3.09696 0
M  V30 3238 H 302.86 -5.31879 -1.3923 0
M  V30 3239 H 304.085 -6.55033 -1.79189 0
M  V30 3240 H 302.031 -5.40297 -3.72041 0
M  V30 3241 H 301.948 -6.95725 -2.9581 0
M  V30 3242 H 303.216 -6.62898 -4.10106 0
M  V30 3243 N 307.445 0.0818655 -1.57387 0
M  V30 3244 C 308.375 1.09885 -2.06028 0
M  V30 3245 C 309.356 1.4098 -0.951774 0
M  V30 3246 O 310.541 1.50781 -1.22387 0
M  V30 3247 C 307.671 2.4151 -2.4958 0
M  V30 3248 C 306.625 2.24792 -3.64215 0
M  V30 3249 C 305.951 3.61712 -3.93787 0
M  V30 3250 C 307.251 1.67749 -4.94629 0
M  V30 3251 H 308.945 0.694128 -2.91243 0
M  V30 3252 H 306.491 0.332448 -1.4011 0
M  V30 3253 H 308.444 3.12939 -2.82219 0
M  V30 3254 H 307.168 2.83943 -1.61381 0
M  V30 3255 H 305.827 1.55807 -3.31843 0
M  V30 3256 H 305.475 4.01697 -3.02735 0
M  V30 3257 H 305.175 3.51368 -4.70971 0
M  V30 3258 H 306.699 4.34587 -4.28913 0
M  V30 3259 H 308.113 2.29032 -5.25564 0
M  V30 3260 H 306.51 1.68128 -5.76067 0
M  V30 3261 H 307.58 0.638059 -4.80684 0
M  V30 3262 N 308.923 1.53595 0.353017 0
M  V30 3263 C 310.148 1.7462 1.11904 0
M  V30 3264 C 310.573 0.479721 1.8188 0
M  V30 3265 O 309.931 -0.567066 1.72204 0
M  V30 3266 C 309.979 2.92029 2.11545 0
M  V30 3267 O 309.083 2.61516 3.18878 0
M  V30 3268 H 308.424 0.579531 0.324099 0
M  V30 3269 H 310.954 2.00525 0.406301 0
M  V30 3270 H 310.964 3.18551 2.5493 0
M  V30 3271 H 309.639 3.83888 1.60008 0
M  V30 3272 H 308.216 2.45852 2.80377 0
M  V30 3273 N 310.401 -0.613514 1.45168 0
M  V30 3274 C 311.626 -1.40437 1.52618 0
M  V30 3275 C 312.051 -1.87438 0.157707 0
M  V30 3276 O 311.409 -1.59791 -0.856537 0
M  V30 3277 C 311.457 -2.58894 2.51011 0
M  V30 3278 O 310.561 -3.59326 2.02382 0
M  V30 3279 H 309.902 -0.419506 0.514695 0
M  V30 3280 H 312.432 -0.747215 1.90467 0
M  V30 3281 H 312.442 -3.06214 2.69624 0
M  V30 3282 H 311.117 -2.24032 3.50403 0
M  V30 3283 H 309.694 -3.18695 1.93618 0
M  V30 3284 N 311.879 -1.3236 -0.855495 0
M  V30 3285 C 312.809 -1.23833 -1.97958 0
M  V30 3286 C 313.79 -0.122361 -1.69659 0
M  V30 3287 O 314.975 -0.30939 -1.9172 0
M  V30 3288 C 312.105 -0.959772 -3.33775 0
M  V30 3289 C 311.059 -2.03689 -3.76424 0
M  V30 3290 C 310.385 -1.61075 -5.09862 0
M  V30 3291 C 311.685 -3.4518 -3.9198 0
M  V30 3292 H 313.379 -2.1788 -2.0535 0
M  V30 3293 H 310.925 -1.04891 -0.986605 0
M  V30 3294 H 312.878 -0.886678 -4.11966 0
M  V30 3295 H 311.602 0.0163404 -3.26596 0
M  V30 3296 H 310.261 -2.10012 -3.00484 0
M  V30 3297 H 309.909 -0.622107 -4.99138 0
M  V30 3298 H 309.609 -2.33143 -5.39368 0
M  V30 3299 H 311.133 -1.55201 -5.90546 0
M  V30 3300 H 312.547 -3.4145 -4.60526 0
M  V30 3301 H 310.944 -4.1559 -4.32903 0
M  V30 3302 H 312.014 -3.84903 -2.94919 0
M  V30 3303 N 313.357 1.07166 -1.15556 0
M  V30 3304 C 314.585 1.83514 -0.955519 0
M  V30 3305 C 315 1.82163 0.49621 0
M  V30 3306 O 314.357 1.23441 1.34419 0
M  V30 3307 C 314.408 3.30515 -1.46432 0
M  V30 3308 O 314.129 3.31937 -2.85918 0
M  V30 3309 C 315.63 4.23625 -1.30603 0
M  V30 3310 H 312.85 0.578926 -0.339244 0
M  V30 3311 H 315.394 1.35265 -1.53374 0
M  V30 3312 H 313.549 3.76106 -0.928584 0
M  V30 3313 H 313.963 4.23794 -3.09029 0
M  V30 3314 H 315.437 5.24831 -1.71047 0
M  V30 3315 H 315.914 4.38485 -0.250441 0
M  V30 3316 H 316.52 3.83871 -1.83094 0
M  V30 3317 N 314.835 0.952656 1.25548 0
M  V30 3318 C 315.745 0.47782 2.29682 0
M  V30 3319 C 316.761 -0.453859 1.67977 0
M  V30 3320 O 317.937 -0.330587 1.98668 0
M  V30 3321 C 315.002 -0.238655 3.45878 0
M  V30 3322 C 314.063 0.730994 4.23031 0
M  V30 3323 C 313.296 0.0486165 5.33678 0
M  V30 3324 O 313.519 -1.16612 5.58353 0
M  V30 3325 O 312.453 0.733152 5.97418 0
M  V30 3326 H 316.279 1.34312 2.72386 0
M  V30 3327 H 313.864 0.719026 1.30959 0
M  V30 3328 H 315.746 -0.641774 4.16484 0
M  V30 3329 H 314.421 -1.07916 3.05181 0
M  V30 3330 H 313.328 1.18428 3.5486 0
M  V30 3331 H 314.661 1.53946 4.67506 0
M  V30 3332 N 316.313 -1.40141 0.720998 0
M  V30 3333 C 317.243 -2.33339 0.0867621 0
M  V30 3334 C 318.224 -1.53178 -0.739622 0
M  V30 3335 O 319.409 -1.81625 -0.687449 0
M  V30 3336 C 316.539 -3.37194 -0.831728 0
M  V30 3337 C 315.493 -4.27857 -0.110558 0
M  V30 3338 C 314.819 -5.22294 -1.14513 0
M  V30 3339 C 316.119 -5.11872 1.0385 0
M  V30 3340 H 317.813 -2.86626 0.865219 0
M  V30 3341 H 315.359 -1.37814 0.417516 0
M  V30 3342 H 317.312 -4.01335 -1.28485 0
M  V30 3343 H 316.036 -2.82314 -1.64214 0
M  V30 3344 H 314.695 -3.65176 0.322797 0
M  V30 3345 H 314.343 -4.63717 -1.94874 0
M  V30 3346 H 314.043 -5.83797 -0.667446 0
M  V30 3347 H 315.567 -5.89312 -1.59824 0
M  V30 3348 H 316.981 -5.69436 0.664482 0
M  V30 3349 H 315.378 -5.82445 1.4449 0
M  V30 3350 H 316.448 -4.4753 1.86668 0
M  V30 3351 N 317.792 -0.46758 -1.50504 0
M  V30 3352 C 319.02 0.0864133 -2.06719 0
M  V30 3353 C 319.435 1.33819 -1.33184 0
M  V30 3354 O 318.792 1.78061 -0.400083 0
M  V30 3355 C 318.843 0.378079 -3.59517 0
M  V30 3356 O 318.564 -0.824044 -4.3028 0
M  V30 3357 C 320.065 0.979426 -4.32345 0
M  V30 3358 H 317.285 -0.00551697 -0.670977 0
M  V30 3359 H 319.829 -0.655354 -1.93715 0
M  V30 3360 H 317.984 1.06977 -3.72337 0
M  V30 3361 H 318.398 -0.566518 -5.21432 0
M  V30 3362 H 319.872 1.1333 -5.40241 0
M  V30 3363 H 320.349 1.9686 -3.9261 0
M  V30 3364 H 320.955 0.326216 -4.24047 0
M  V30 3365 N 319.27 1.56325 -0.20005 0
M  V30 3366 C 320.233 2.18084 0.705132 0
M  V30 3367 C 321.233 1.13666 1.1374 0
M  V30 3368 O 322.423 1.39023 1.04968 0
M  V30 3369 C 319.555 2.78689 1.96329 0
M  V30 3370 H 320.748 2.99435 0.167023 0
M  V30 3371 H 318.301 1.56221 0.0495725 0
M  V30 3372 H 319.036 2.0115 2.5438 0
M  V30 3373 H 318.821 3.55133 1.66202 0
M  V30 3374 H 320.311 3.26096 2.60866 0
M  V30 3375 N 320.748 -0.0735177 1.57428 0
M  V30 3376 C 321.695 -1.08756 2.0357 0
M  V30 3377 C 322.665 -1.38559 0.916 0
M  V30 3378 O 323.85 -1.49656 1.18354 0
M  V30 3379 C 320.99 -2.39657 2.48311 0
M  V30 3380 C 320.103 -2.16399 3.73892 0
M  V30 3381 C 319.238 -3.40852 4.07423 0
M  V30 3382 C 318.277 -3.1295 5.2605 0
M  V30 3383 N 317.414 -4.29729 5.55228 0
M  V30 3384 H 322.254 -0.687104 2.8997 0
M  V30 3385 H 319.791 -0.327709 1.43403 0
M  V30 3386 H 321.749 -3.16081 2.72303 0
M  V30 3387 H 320.379 -2.77508 1.64891 0
M  V30 3388 H 319.431 -1.30676 3.57251 0
M  V30 3389 H 320.743 -1.91788 4.60455 0
M  V30 3390 H 319.897 -4.25671 4.32306 0
M  V30 3391 H 318.636 -3.68537 3.19425 0
M  V30 3392 H 317.641 -2.26526 5.00965 0
M  V30 3393 H 318.866 -2.86589 6.15665 0
M  V30 3394 H 316.812 -4.57448 4.70188 0
M  V30 3395 H 316.729 -4.08385 6.36206 0
M  V30 3396 H 317.997 -5.1555 5.84661 0
M  V30 3397 N 322.226 -1.5378 -0.344866 0
M  V30 3398 C 323.503 -1.61589 -1.10219 0
M  V30 3399 C 323.883 -0.436316 -2.06542 0
M  V30 3400 O 323.231 0.571543 -2.21237 0
M  V30 3401 C 323.441 -2.97602 -1.82301 0
M  V30 3402 C 324.789 -3.5291 -2.36093 0
M  V30 3403 O 325.813 -2.99768 -1.924 0
M  V30 3404 O 324.672 -4.45859 -3.16026 0
M  V30 3405 H 321.766 -0.653522 -0.506792 0
M  V30 3406 H 324.312 -1.66126 -0.346465 0
M  V30 3407 H 323.084 -3.74893 -1.12121 0
M  V30 3408 H 322.707 -2.9665 -2.64735 0
M  V30 3409 N 323.704 0.605807 -1.45491 0
M  V30 3410 C 324.634 1.72709 -1.57143 0
M  V30 3411 C 325.615 1.6476 -0.422884 0
M  V30 3412 O 326.8 1.83132 -0.646247 0
M  V30 3413 C 323.93 3.11316 -1.53948 0
M  V30 3414 C 322.884 3.34077 -2.67537 0
M  V30 3415 C 322.21 4.72975 -2.49397 0
M  V30 3416 C 323.51 3.24158 -4.09535 0
M  V30 3417 H 325.204 1.63214 -2.51001 0
M  V30 3418 H 322.75 0.78379 -1.208 0
M  V30 3419 H 324.703 3.89557 -1.60696 0
M  V30 3420 H 323.427 3.21655 -0.566205 0
M  V30 3421 H 322.086 2.58227 -2.6022 0
M  V30 3422 H 321.734 4.8005 -1.50205 0
M  V30 3423 H 321.434 4.8916 -3.25571 0
M  V30 3424 H 322.958 5.53414 -2.58002 0
M  V30 3425 H 324.372 3.92271 -4.18086 0
M  V30 3426 H 322.769 3.51872 -4.86113 0
M  V30 3427 H 323.839 2.2157 -4.31317 0
M  V30 3428 N 325.182 1.32811 0.848464 0
M  V30 3429 C 326.112 1.24882 1.97299 0
M  V30 3430 C 327.093 0.131357 1.69592 0
M  V30 3431 O 328.278 0.319553 1.91553 0
M  V30 3432 C 325.408 0.97746 3.33261 0
M  V30 3433 C 324.362 2.05682 3.75338 0
M  V30 3434 C 323.688 1.63777 5.09 0
M  V30 3435 C 324.988 3.47254 3.90144 0
M  V30 3436 H 326.682 2.18966 2.04191 0
M  V30 3437 H 324.228 1.05413 0.981029 0
M  V30 3438 H 326.181 0.908513 4.1149 0
M  V30 3439 H 324.905 0.000980011 3.266 0
M  V30 3440 H 323.564 2.11603 2.99366 0
M  V30 3441 H 323.212 0.648569 4.98801 0
M  V30 3442 H 322.912 2.36 5.38124 0
M  V30 3443 H 324.436 1.5833 5.89715 0
M  V30 3444 H 325.85 3.43888 4.58709 0
M  V30 3445 H 324.247 4.1788 4.30693 0
M  V30 3446 H 325.317 3.86462 2.92874 0
M  V30 3447 N 326.66 -1.06551 1.16123 0
M  V30 3448 C 327.908 -1.78947 0.939267 0
M  V30 3449 C 328.229 -1.87532 -0.534476 0
M  V30 3450 O 327.499 -1.38211 -1.38833 0
M  V30 3451 H 326.079 -0.662807 0.344523 0
M  V30 3452 H 328.741 -1.28725 1.46342 0
M  V30 3453 H 327.837 -2.81117 1.35572 0
M  V30 3454 O 328.177 -1.08916 -1.19246 0
M  V30 3455 H 328.868 -0.783022 -1.77168 0
M  V30 END ATOM
M  V30 BEGIN BOND
M  V30 END BOND
M  V30 END CTAB
M  END
$$$$
