drugbank_target|O11885 Protein P (DB05020)
 OpenBabel12092120143D

  0  0  0     0  0            999 V3000
M  V30 BEGIN CTAB
M  V30 COUNTS 13180 13392 0 0 0
M  V30 BEGIN ATOM
M  V30 1 H -0.908 1.98254 -0.117106 0
M  V30 2 N 0 1.576 0 0
M  V30 3 C 0.933 2.03868 1.02534 0
M  V30 4 C 1.911 0.928543 1.3348 0
M  V30 5 O 3.095 1.19667 1.45644 0
M  V30 6 C 0.222 2.43627 2.35294 0
M  V30 7 C -0.732 3.65373 2.2001 0
M  V30 8 S 0.101 5.13292 1.52614 0
M  V30 9 C 1.257 5.56322 2.86805 0
M  V30 10 H 1.49 2.90518 0.631377 0
M  V30 11 H -0.977 1.52953 0.210867 0
M  V30 12 H 0.981 2.67203 3.11629 0
M  V30 13 H -0.358 1.57376 2.7183 0
M  V30 14 H -1.165 3.90944 3.18086 0
M  V30 15 H -1.563 3.418 1.51819 0
M  V30 16 H 0.729 5.58782 3.83104 0
M  V30 17 H 1.672 6.56266 2.65933 0
M  V30 18 H 2.08 4.83886 2.90714 0
M  V30 19 N 1.4781 -0.272755 1.55222 0
M  V30 20 C 2.8891 -0.84378 1.66545 0
M  V30 21 C 3.2401 -1.87035 0.592641 0
M  V30 22 O 2.3651 -2.14761 -0.265818 0
M  V30 23 C 2.9601 -1.53723 3.01918 0
M  V30 24 C 1.5191 -2.05628 3.15268 0
M  V30 25 C 0.6661 -0.898424 2.62343 0
M  V30 26 H 3.6171 -0.0490998 1.58624 0
M  V30 27 H 3.6381 -2.40421 2.94921 0
M  V30 28 H 3.1501 -0.78983 3.79978 0
M  V30 29 H 1.2511 -2.83329 2.41983 0
M  V30 30 H 1.3641 -2.27142 4.21833 0
M  V30 31 H -0.2719 -1.29186 2.19506 0
M  V30 32 H 0.5111 -0.164528 3.42906 0
M  V30 33 N 2.9562 -1.48159 -0.537278 0
M  V30 34 C 3.8862 -1.65029 -1.6519 0
M  V30 35 C 4.8672 -0.499281 -1.62607 0
M  V30 36 O 6.0522 -0.730972 -1.79918 0
M  V30 37 C 3.1822 -1.68303 -3.03795 0
M  V30 38 C 2.1362 -2.8283 -3.21234 0
M  V30 39 C 1.4622 -2.71189 -4.60826 0
M  V30 40 C 2.7622 -4.24211 -3.04701 0
M  V30 41 H 4.4562 -2.58341 -1.51328 0
M  V30 42 H 2.0022 -1.24325 -0.726585 0
M  V30 43 H 3.9552 -1.78693 -3.81637 0
M  V30 44 H 2.6792 -0.715635 -3.18663 0
M  V30 45 H 1.3382 -2.71983 -2.45807 0
M  V30 46 H 0.9862 -1.72435 -4.7252 0
M  V30 47 H 0.6862 -3.48035 -4.7344 0
M  V30 48 H 2.2102 -2.83537 -5.40777 0
M  V30 49 H 3.6242 -4.3593 -3.72341 0
M  V30 50 H 2.0212 -5.01998 -3.28813 0
M  V30 51 H 3.0912 -4.41184 -2.01209 0
M  V30 52 N 4.4343 0.785586 -1.36625 0
M  V30 53 C 5.6593 1.57963 -1.34397 0
M  V30 54 C 6.0843 1.87964 0.071526 0
M  V30 55 O 5.4423 1.48182 1.0446 0
M  V30 56 C 5.4903 2.87511 -2.17646 0
M  V30 57 O 4.5943 3.81281 -1.57158 0
M  V30 58 H 3.9353 0.479014 -0.459828 0
M  V30 59 H 6.4653 0.973411 -1.79961 0
M  V30 60 H 6.4753 3.36745 -2.30362 0
M  V30 61 H 5.1503 2.65002 -3.20541 0
M  V30 62 H 3.7273 3.39885 -1.53403 0
M  V30 63 N 5.9124 1.20967 1.01018 0
M  V30 64 C 7.1424 1.04803 1.78044 0
M  V30 65 C 7.5504 -0.405462 1.84804 0
M  V30 66 O 6.8934 -1.2932 1.30468 0
M  V30 67 C 6.9554 1.56377 3.23707 0
M  V30 68 C 6.6194 3.04767 3.40538 0
M  V30 69 C 7.6164 4.02366 3.29239 0
M  V30 70 C 5.3014 3.43862 3.66147 0
M  V30 71 C 7.2954 5.37049 3.43304 0
M  V30 72 C 4.9824 4.78699 3.79855 0
M  V30 73 C 5.9804 5.75101 3.68439 0
M  V30 74 O 5.6684 7.07493 3.81719 0
M  V30 75 H 5.4004 0.368778 0.56655 0
M  V30 76 H 7.9544 1.60642 1.27997 0
M  V30 77 H 6.1844 0.949297 3.74867 0
M  V30 78 H 7.8734 1.36136 3.8239 0
M  V30 79 H 8.6394 3.73506 3.09384 0
M  V30 80 H 4.5184 2.69364 3.74118 0
M  V30 81 H 8.0624 6.12277 3.34309 0
M  V30 82 H 3.9594 5.07247 3.99213 0
M  V30 83 H 4.7274 7.1483 3.98697 0
M  V30 84 N 7.3905 -1.2043 1.01659 0
M  V30 85 C 8.3225 -2.22626 0.544988 0
M  V30 86 C 9.3355 -1.58479 -0.372609 0
M  V30 87 O 10.5245 -1.77679 -0.170958 0
M  V30 88 C 7.6245 -3.38141 -0.22663 0
M  V30 89 C 6.7975 -4.31877 0.692876 0
M  V30 90 C 5.8565 -5.26191 -0.0311616 0
M  V30 91 O 4.8825 -5.6612 0.591343 0
M  V30 92 N 6.0845 -5.65618 -1.30601 0
M  V30 93 H 8.8495 -2.63716 1.42388 0
M  V30 94 H 6.4105 -1.34971 0.894116 0
M  V30 95 H 8.4025 -3.98239 -0.72024 0
M  V30 96 H 6.9725 -2.95943 -1.00681 0
M  V30 97 H 6.1925 -3.69746 1.36679 0
M  V30 98 H 7.4805 -4.91426 1.31824 0
M  V30 99 H 6.8785 -5.3519 -1.83269 0
M  V30 100 H 5.4355 -6.28025 -1.74435 0
M  V30 101 N 8.8686 -0.792821 -1.36206 0
M  V30 102 C 9.8186 -0.166598 -2.27391 0
M  V30 103 C 10.8026 0.651479 -1.47121 0
M  V30 104 O 11.9946 0.510994 -1.69463 0
M  V30 105 C 9.1236 0.695033 -3.36191 0
M  V30 106 C 8.2096 -0.132019 -4.23894 0
M  V30 107 N 8.6006 -1.18822 -4.91645 0
M  V30 108 C 6.8986 0.0885952 -4.45912 0
M  V30 109 C 7.5996 -1.69198 -5.56549 0
M  V30 110 N 6.5756 -1.00065 -5.34311 0
M  V30 111 H 10.3776 -0.974947 -2.77258 0
M  V30 112 H 7.8916 -0.632616 -1.49572 0
M  V30 113 H 9.8886 1.1596 -4.00448 0
M  V30 114 H 8.5486 1.50189 -2.87877 0
M  V30 115 H 9.5596 -1.57069 -4.93507 0
M  V30 116 H 6.2366 0.865688 -4.08426 0
M  V30 117 H 7.6266 -2.57395 -6.20643 0
M  V30 118 N 10.3467 1.47872 -0.545128 0
M  V30 119 C 11.5937 2.02493 -0.0165858 0
M  V30 120 C 11.9217 1.42073 1.32836 0
M  V30 121 O 11.1767 0.561459 1.87473 0
M  V30 122 C 11.4757 3.57131 0.13867 0
M  V30 123 C 11.1417 4.36411 -1.13384 0
M  V30 124 C 9.8037 4.57792 -1.48256 0
M  V30 125 C 12.1557 4.82223 -1.97764 0
M  V30 126 C 9.4837 5.22233 -2.67376 0
M  V30 127 C 11.8357 5.47977 -3.16076 0
M  V30 128 C 10.4997 5.67593 -3.51275 0
M  V30 129 H 9.7697 0.740975 -0.00606918 0
M  V30 130 H 12.4167 1.77683 -0.714207 0
M  V30 131 H 10.7217 3.80865 0.919172 0
M  V30 132 H 12.4187 3.97031 0.562782 0
M  V30 133 H 9.0087 4.2004 -0.852297 0
M  V30 134 H 13.1927 4.65493 -1.72132 0
M  V30 135 H 8.4487 5.35616 -2.94831 0
M  V30 136 H 12.6227 5.8244 -3.81755 0
M  V30 137 H 10.2497 6.17298 -4.43675 0
M  V30 138 N 11.8248 0.280983 1.55075 0
M  V30 139 C 13.2408 -0.0729964 1.59433 0
M  V30 140 C 13.4408 -1.5411 1.29817 0
M  V30 141 O 12.4968 -2.29086 1.06187 0
M  V30 142 C 13.8098 0.306921 2.9913 0
M  V30 143 C 15.3578 0.254023 3.11968 0
M  V30 144 C 15.8328 0.608467 4.5394 0
M  V30 145 N 17.3238 0.560241 4.59799 0
M  V30 146 C 18.0588 0.80722 5.6769 0
M  V30 147 N 17.5548 1.11912 6.83701 0
M  V30 148 N 19.3478 0.735623 5.57266 0
M  V30 149 H 11.4988 1.238 1.7259 0
M  V30 150 H 13.7618 0.500547 0.805082 0
M  V30 151 H 13.4678 1.32816 3.25657 0
M  V30 152 H 13.3418 -0.349363 3.75579 0
M  V30 153 H 15.7288 -0.75794 2.852 0
M  V30 154 H 15.8098 0.944649 2.37718 0
M  V30 155 H 15.4538 1.61814 4.81434 0
M  V30 156 H 15.3838 -0.104013 5.26497 0
M  V30 157 H 17.8748 0.329288 3.76463 0
M  V30 158 H 18.1878 1.29409 7.61888 0
M  V30 159 H 16.5328 1.15695 6.85303 0
M  V30 160 H 19.7238 0.491752 4.6551 0
M  V30 161 H 19.8968 0.931482 6.4127 0
M  V30 162 N 13.3029 -1.57598 0.00835791 0
M  V30 163 C 14.2499 -2.08945 -0.980346 0
M  V30 164 C 15.2199 -0.986738 -1.33614 0
M  V30 165 O 16.4049 -1.25968 -1.43306 0
M  V30 166 C 13.5449 -2.60425 -2.26435 0
M  V30 167 C 12.6579 -3.84628 -1.96685 0
M  V30 168 C 11.7929 -4.24579 -3.19228 0
M  V30 169 C 10.8319 -5.41596 -2.85202 0
M  V30 170 N 9.9689 -5.768 -4.00307 0
M  V30 171 H 14.8089 -2.93148 -0.535551 0
M  V30 172 H 12.3459 -1.44912 -0.252776 0
M  V30 173 H 14.3039 -2.88354 -3.01509 0
M  V30 174 H 12.9339 -1.79083 -2.68568 0
M  V30 175 H 11.9859 -3.63556 -1.11942 0
M  V30 176 H 13.2979 -4.69796 -1.67611 0
M  V30 177 H 12.4519 -4.53834 -4.02641 0
M  V30 178 H 11.1909 -3.38137 -3.51447 0
M  V30 179 H 10.1959 -5.12056 -2.00198 0
M  V30 180 H 11.4209 -6.29721 -2.54222 0
M  V30 181 H 9.3669 -4.93316 -4.32407 0
M  V30 182 H 9.2839 -6.5656 -3.74786 0
M  V30 183 H 10.5519 -6.10652 -4.84484 0
M  V30 184 N 14.781 0.264519 -1.55364 0
M  V30 185 C 15.711 1.33121 -1.91836 0
M  V30 186 C 16.692 1.51101 -0.781192 0
M  V30 187 O 17.877 1.64003 -1.04003 0
M  V30 188 C 15.007 2.68921 -2.19769 0
M  V30 189 C 13.961 2.65661 -3.35571 0
M  V30 190 C 13.287 4.05093 -3.49004 0
M  V30 191 C 14.587 2.24187 -4.71739 0
M  V30 192 H 16.281 1.02844 -2.81182 0
M  V30 193 H 13.827 0.493286 -1.35287 0
M  V30 194 H 15.78 3.43663 -2.43872 0
M  V30 195 H 14.504 3.00799 -1.27231 0
M  V30 196 H 13.163 1.93377 -3.1145 0
M  V30 197 H 12.811 4.34206 -2.53917 0
M  V30 198 H 12.511 4.03804 -4.26868 0
M  V30 199 H 14.035 4.81561 -3.75408 0
M  V30 200 H 15.449 2.88654 -4.9533 0
M  V30 201 H 13.846 2.34044 -5.52579 0
M  V30 202 H 14.916 1.19327 -4.69988 0
M  V30 203 N 16.2591 1.48442 0.529413 0
M  V30 204 C 17.1891 1.65902 1.64313 0
M  V30 205 C 18.1701 0.507897 1.6234 0
M  V30 206 O 19.3551 0.740503 1.79528 0
M  V30 207 C 16.4851 1.69911 3.02898 0
M  V30 208 C 15.4391 2.8453 3.19729 0
M  V30 209 C 14.7651 2.73629 4.59381 0
M  V30 210 C 16.0651 4.25821 3.02447 0
M  V30 211 H 17.7591 2.5914 1.49955 0
M  V30 212 H 15.3051 1.24709 0.719982 0
M  V30 213 H 17.2581 1.80715 3.80684 0
M  V30 214 H 15.9821 0.732524 3.18279 0
M  V30 215 H 14.6411 2.73283 2.44361 0
M  V30 216 H 14.2891 1.74938 4.71599 0
M  V30 217 H 13.9891 3.50541 4.71588 0
M  V30 218 H 15.5131 2.86401 5.39265 0
M  V30 219 H 16.9271 4.37898 3.70024 0
M  V30 220 H 15.3241 5.03735 3.26146 0
M  V30 221 H 16.3941 4.42244 1.98867 0
M  V30 222 N 17.7372 -0.778329 1.37039 0
M  V30 223 C 18.6672 -1.90546 1.34962 0
M  V30 224 C 19.6482 -1.68681 0.219274 0
M  V30 225 O 20.8332 -1.89634 0.418624 0
M  V30 226 C 17.9632 -3.27734 1.14925 0
M  V30 227 C 16.9172 -3.64147 2.24902 0
M  V30 228 C 16.2432 -4.99806 1.89996 0
M  V30 229 C 17.5432 -3.71579 3.67051 0
M  V30 230 H 19.2372 -1.92541 2.29277 0
M  V30 231 H 16.7832 -0.924948 1.10366 0
M  V30 232 H 18.7362 -4.06215 1.12104 0
M  V30 233 H 17.4602 -3.26154 0.170631 0
M  V30 234 H 16.1192 -2.8797 2.26868 0
M  V30 235 H 15.7672 -4.94759 0.906796 0
M  V30 236 H 15.4672 -5.25139 2.63634 0
M  V30 237 H 16.9912 -5.80694 1.88749 0
M  V30 238 H 18.4052 -4.40227 3.67251 0
M  V30 239 H 16.8022 -4.08405 4.39688 0
M  V30 240 H 17.8722 -2.72404 4.01154 0
M  V30 241 N 19.2153 -1.21501 -1.00376 0
M  V30 242 C 20.1453 -0.999478 -2.11028 0
M  V30 243 C 21.1263 0.0759671 -1.6993 0
M  V30 244 O 22.3113 -0.0841106 -1.94018 0
M  V30 245 C 19.4413 -0.564709 -3.42678 0
M  V30 246 C 18.3953 -1.58486 -3.97576 0
M  V30 247 C 17.7213 -1.00628 -5.25146 0
M  V30 248 C 19.0213 -2.97204 -4.29496 0
M  V30 249 H 20.7153 -1.92495 -2.29317 0
M  V30 250 H 18.2613 -0.92693 -1.102 0
M  V30 251 H 20.2143 -0.401091 -4.19487 0
M  V30 252 H 18.9383 0.396411 -3.24185 0
M  V30 253 H 17.5973 -1.73606 -3.22888 0
M  V30 254 H 17.2453 -0.0368439 -5.02987 0
M  V30 255 H 16.9453 -1.68771 -5.62841 0
M  V30 256 H 18.4693 -0.854015 -6.04598 0
M  V30 257 H 19.8833 -2.8552 -4.97143 0
M  V30 258 H 18.2803 -3.62372 -4.78338 0
M  V30 259 H 19.3503 -3.47956 -3.3772 0
M  V30 260 N 20.6934 1.19889 -1.02296 0
M  V30 261 C 21.9704 1.85148 -0.630832 0
M  V30 262 C 22.3504 1.91385 0.890782 0
M  V30 263 O 21.6984 1.42642 1.78509 0
M  V30 264 C 21.9084 3.24442 -1.28602 0
M  V30 265 C 23.2564 4.00663 -1.4055 0
M  V30 266 O 24.2804 3.33818 -1.24273 0
M  V30 267 O 23.1394 5.20387 -1.66913 0
M  V30 268 H 20.2334 0.797613 -0.218499 0
M  V30 269 H 22.7794 1.27427 -1.12074 0
M  V30 270 H 21.5514 3.14704 -2.32545 0
M  V30 271 H 21.1744 3.89802 -0.7836 0
M  V30 272 N 22.1715 0.800033 1.35784 0
M  V30 273 C 23.4485 0.30088 1.93272 0
M  V30 274 C 23.8285 -1.20857 1.73081 0
M  V30 275 O 23.1765 -2.00502 1.09596 0
M  V30 276 C 23.3865 0.70511 3.41803 0
M  V30 277 C 24.7345 0.690871 4.18942 0
M  V30 278 O 25.7585 0.646244 3.50289 0
M  V30 279 O 24.6175 0.74332 5.41421 0
M  V30 280 H 21.7115 0.0771605 0.823393 0
M  V30 281 H 24.2575 0.88329 1.449 0
M  V30 282 H 23.0295 1.74571 3.50201 0
M  V30 283 H 22.6525 0.0971541 3.97481 0
M  V30 284 N 23.6496 -1.47581 0.552962 0
M  V30 285 C 24.5596 -2.33743 -0.200353 0
M  V30 286 C 25.5756 -1.47928 -0.916151 0
M  V30 287 O 26.7516 -1.80865 -0.885993 0
M  V30 288 C 23.8166 -3.24536 -1.21973 0
M  V30 289 C 22.8776 -4.26238 -0.511819 0
M  V30 290 C 22.1106 -5.12693 -1.48263 0
M  V30 291 O 22.3336 -5.01525 -2.71714 0
M  V30 292 O 21.2676 -5.93375 -1.00945 0
M  V30 293 H 25.0936 -2.9945 0.506304 0
M  V30 294 H 22.6786 -1.46071 0.313622 0
M  V30 295 H 24.5606 -3.80631 -1.80827 0
M  V30 296 H 23.2356 -2.61462 -1.90839 0
M  V30 297 H 22.1426 -3.73914 0.117799 0
M  V30 298 H 23.4756 -4.92014 0.135308 0
M  V30 299 N 25.1277 -0.289203 -1.54924 0
M  V30 300 C 26.0907 0.579144 -2.21762 0
M  V30 301 C 27.0907 1.07047 -1.1999 0
M  V30 302 O 28.2807 0.968384 -1.44803 0
M  V30 303 C 25.4127 1.80055 -2.8947 0
M  V30 304 H 26.6057 -0.00464908 -2.999 0
M  V30 305 H 24.1587 -0.0399306 -1.56249 0
M  V30 306 H 24.8937 2.42449 -2.15381 0
M  V30 307 H 24.6787 1.45602 -3.64064 0
M  V30 308 H 26.1687 2.41773 -3.40493 0
M  V30 309 N 26.6058 1.57591 -0.0167156 0
M  V30 310 C 27.8538 1.90906 0.663285 0
M  V30 311 C 28.1748 0.892509 1.73376 0
M  V30 312 O 27.4448 -0.0677623 1.95783 0
M  V30 313 H 26.0248 0.704637 0.247983 0
M  V30 314 H 28.6868 1.94803 -0.0615909 0
M  V30 315 H 27.7828 2.9116 1.12393 0
M  V30 316 N 28.0839 -0.256276 1.55502 0
M  V30 317 C 29.4949 -0.826068 1.67431 0
M  V30 318 C 29.8459 -1.86396 0.612446 0
M  V30 319 O 28.9709 -2.15031 -0.243025 0
M  V30 320 C 29.5659 -1.50512 3.03532 0
M  V30 321 C 28.1249 -2.02273 3.17431 0
M  V30 322 C 27.2719 -0.870548 2.63281 0
M  V30 323 H 30.2229 -0.0322728 1.58667 0
M  V30 324 H 30.2439 -2.37279 2.97454 0
M  V30 325 H 29.7559 -0.749484 3.80794 0
M  V30 326 H 27.8569 -2.80746 2.44974 0
M  V30 327 H 27.9699 -2.22655 4.24219 0
M  V30 328 H 26.3339 -1.26851 2.20864 0
M  V30 329 H 27.1169 -0.128149 3.43061 0
M  V30 330 N 29.562 -1.4872 -0.521534 0
M  V30 331 C 30.492 -1.66771 -1.63431 0
M  V30 332 C 31.473 -0.516499 -1.62069 0
M  V30 333 O 32.658 -0.750013 -1.79132 0
M  V30 334 C 29.788 -1.71515 -3.01993 0
M  V30 335 C 28.742 -2.86222 -3.18216 0
M  V30 336 C 28.068 -2.76061 -4.57924 0
M  V30 337 C 29.368 -4.27419 -3.00184 0
M  V30 338 H 31.062 -2.59932 -1.48579 0
M  V30 339 H 28.608 -1.25089 -0.713358 0
M  V30 340 H 30.561 -1.82731 -3.7972 0
M  V30 341 H 29.285 -0.749393 -3.17886 0
M  V30 342 H 27.944 -2.74575 -2.42908 0
M  V30 343 H 27.592 -1.77437 -4.70665 0
M  V30 344 H 27.292 -3.53037 -4.69722 0
M  V30 345 H 28.816 -2.89256 -5.37739 0
M  V30 346 H 30.23 -4.39855 -3.67697 0
M  V30 347 H 28.627 -5.05458 -3.2347 0
M  V30 348 H 29.697 -4.43293 -1.96518 0
M  V30 349 N 31.0401 0.771051 -1.3745 0
M  V30 350 C 31.9501 1.91538 -1.35464 0
M  V30 351 C 32.9661 1.72134 -0.254123 0
M  V30 352 O 34.1421 1.95358 -0.489626 0
M  V30 353 C 31.2071 3.26671 -1.16134 0
M  V30 354 C 30.2681 3.58723 -2.35831 0
M  V30 355 C 29.5011 4.87409 -2.17413 0
M  V30 356 O 29.7241 5.58506 -1.15876 0
M  V30 357 O 28.6581 5.18539 -3.05615 0
M  V30 358 H 32.4841 1.96165 -2.31847 0
M  V30 359 H 30.0691 0.9139 -1.18187 0
M  V30 360 H 31.9511 4.07499 -1.07345 0
M  V30 361 H 30.6261 3.22894 -0.228251 0
M  V30 362 H 29.5331 2.78127 -2.50192 0
M  V30 363 H 30.8661 3.67243 -3.27709 0
M  V30 364 N 32.5182 1.22032 0.997298 0
M  V30 365 C 33.4282 1.00271 2.12092 0
M  V30 366 C 34.4442 -0.047621 1.73935 0
M  V30 367 O 35.6202 0.144136 2.00884 0
M  V30 368 C 32.6852 0.578449 3.4184 0
M  V30 369 C 31.7462 1.70189 3.94125 0
M  V30 370 C 30.9792 1.29778 5.17681 0
M  V30 371 O 31.2022 0.174676 5.70132 0
M  V30 372 O 30.1362 2.11261 5.63607 0
M  V30 373 H 33.9622 1.94398 2.3333 0
M  V30 374 H 31.5472 1.00587 1.10465 0
M  V30 375 H 33.4292 0.351998 4.19927 0
M  V30 376 H 32.1042 -0.334019 3.21972 0
M  V30 377 H 31.0112 1.98282 3.1723 0
M  V30 378 H 32.3442 2.59206 4.18417 0
M  V30 379 N 33.9963 -1.19345 1.0293 0
M  V30 380 C 34.9063 -2.26245 0.620515 0
M  V30 381 C 35.9223 -1.70486 -0.347928 0
M  V30 382 O 37.0983 -2.00347 -0.205704 0
M  V30 383 C 34.1633 -3.46693 -0.0218957 0
M  V30 384 C 33.2243 -4.17632 0.994102 0
M  V30 385 C 32.4573 -5.32329 0.382253 0
M  V30 386 O 32.6803 -5.64552 -0.814676 0
M  V30 387 O 31.6143 -5.91664 1.10531 0
M  V30 388 H 35.4403 -2.63453 1.51083 0
M  V30 389 H 33.0253 -1.26207 0.799513 0
M  V30 390 H 34.9073 -4.19683 -0.380072 0
M  V30 391 H 33.5823 -3.11333 -0.886209 0
M  V30 392 H 32.4893 -3.4676 1.40387 0
M  V30 393 H 33.8223 -4.56964 1.8288 0
M  V30 394 N 35.4744 -0.807222 -1.35358 0
M  V30 395 C 36.4044 -0.232509 -2.3234 0
M  V30 396 C 37.3854 0.642386 -1.57504 0
M  V30 397 O 38.5704 0.572526 -1.85569 0
M  V30 398 C 35.7004 0.619238 -3.41735 0
M  V30 399 C 34.6544 -0.157215 -4.27711 0
M  V30 400 C 33.9804 0.816273 -5.28433 0
M  V30 401 C 35.2804 -1.35656 -5.04376 0
M  V30 402 H 36.9744 -1.04276 -2.80654 0
M  V30 403 H 34.5204 -0.50288 -1.34934 0
M  V30 404 H 36.4734 1.03137 -4.08584 0
M  V30 405 H 35.1974 1.46239 -2.92031 0
M  V30 406 H 33.8564 -0.550525 -3.62443 0
M  V30 407 H 33.5044 1.65494 -4.74996 0
M  V30 408 H 33.2044 0.301067 -5.86828 0
M  V30 409 H 34.7284 1.22659 -5.98153 0
M  V30 410 H 36.1424 -1.01927 -5.64166 0
M  V30 411 H 34.5394 -1.8063 -5.7227 0
M  V30 412 H 35.6094 -2.14288 -4.34981 0
M  V30 413 N 36.9525 1.47285 -0.560781 0
M  V30 414 C 38.3635 1.86258 -0.128343 0
M  V30 415 C 38.7145 1.46699 1.30284 0
M  V30 416 O 37.8395 0.871698 1.98067 0
M  V30 417 C 38.4345 3.38044 -0.22614 0
M  V30 418 C 36.9935 3.76096 0.151283 0
M  V30 419 C 36.1405 2.71335 -0.572084 0
M  V30 420 H 39.0915 1.38752 -0.770297 0
M  V30 421 H 39.1125 3.76441 0.554322 0
M  V30 422 H 38.6245 3.66806 -1.26788 0
M  V30 423 H 36.7255 3.52951 1.19399 0
M  V30 424 H 36.8385 4.78641 -0.209765 0
M  V30 425 H 35.2025 2.54696 -0.0147653 0
M  V30 426 H 35.9855 3.02938 -1.61504 0
M  V30 427 N 38.4306 0.297415 1.54768 0
M  V30 428 C 39.8466 -0.0560823 1.59501 0
M  V30 429 C 40.0466 -1.52725 1.31444 0
M  V30 430 O 39.1026 -2.27947 1.08611 0
M  V30 431 C 40.4156 0.338631 2.98787 0
M  V30 432 C 41.9636 0.287097 3.11681 0
M  V30 433 C 42.4386 0.656579 4.53269 0
M  V30 434 N 43.9296 0.608977 4.59179 0
M  V30 435 C 44.6646 0.867385 5.66802 0
M  V30 436 N 44.1606 1.19157 6.82476 0
M  V30 437 N 45.9536 0.794687 5.56454 0
M  V30 438 H 38.1046 1.25624 1.71267 0
M  V30 439 H 40.3676 0.509057 0.799728 0
M  V30 440 H 40.0736 1.36263 3.2423 0
M  V30 441 H 39.9476 -0.309508 3.75928 0
M  V30 442 H 42.3346 -0.727649 2.85988 0
M  V30 443 H 42.4156 0.969809 2.36703 0
M  V30 444 H 42.0596 1.66912 4.7969 0
M  V30 445 H 41.9896 -0.0481649 5.26578 0
M  V30 446 H 44.4806 0.369198 3.76092 0
M  V30 447 H 44.7936 1.37482 7.60473 0
M  V30 448 H 43.1386 1.22958 6.84037 0
M  V30 449 H 46.3296 0.541098 4.64962 0
M  V30 450 H 46.5026 0.999445 6.40246 0
M  V30 451 N 39.9087 -1.5758 0.0250728 0
M  V30 452 C 40.8387 -2.13007 -0.956575 0
M  V30 453 C 41.8197 -1.0452 -1.342 0
M  V30 454 O 43.0047 -1.32332 -1.42133 0
M  V30 455 C 40.1347 -2.65386 -2.24026 0
M  V30 456 C 39.0887 -3.78623 -1.99571 0
M  V30 457 C 38.4147 -4.17414 -3.3417 0
M  V30 458 C 39.7147 -5.04867 -1.33814 0
M  V30 459 H 41.4087 -2.9528 -0.494991 0
M  V30 460 H 38.9547 -1.42042 -0.236651 0
M  V30 461 H 40.9077 -3.02794 -2.93076 0
M  V30 462 H 39.6317 -1.80268 -2.72343 0
M  V30 463 H 38.2907 -3.41646 -1.32941 0
M  V30 464 H 37.9387 -3.29284 -3.80238 0
M  V30 465 H 37.6387 -4.93719 -3.18615 0
M  V30 466 H 39.1627 -4.57402 -4.04495 0
M  V30 467 H 40.5767 -5.39888 -1.92857 0
M  V30 468 H 38.9737 -5.86144 -1.28669 0
M  V30 469 H 40.0437 -4.83904 -0.310561 0
M  V30 470 N 41.3868 0.248026 -1.55636 0
M  V30 471 C 42.3498 1.29044 -1.89421 0
M  V30 472 C 43.3498 1.41134 -0.770581 0
M  V30 473 O 44.5398 1.39854 -1.03858 0
M  V30 474 C 41.6718 2.66831 -2.12165 0
M  V30 475 H 42.8648 1.00305 -2.82629 0
M  V30 476 H 40.4178 0.487265 -1.48511 0
M  V30 477 H 41.1528 3.00711 -1.21422 0
M  V30 478 H 40.9378 2.59438 -2.93997 0
M  V30 479 H 42.4278 3.42103 -2.3949 0
M  V30 480 N 42.8649 1.48995 0.513639 0
M  V30 481 C 44.1419 1.48338 1.27495 0
M  V30 482 C 44.5219 0.204065 2.10111 0
M  V30 483 O 43.8699 -0.813881 2.13514 0
M  V30 484 C 44.0799 2.75498 2.14247 0
M  V30 485 C 45.4279 3.24484 2.73852 0
M  V30 486 O 46.4519 2.76528 2.24523 0
M  V30 487 O 45.3109 4.07974 3.6362 0
M  V30 488 H 42.4049 0.593149 0.576284 0
M  V30 489 H 44.9509 1.61246 0.528948 0
M  V30 490 H 43.7229 3.60109 1.53092 0
M  V30 491 H 43.3459 2.6539 2.96064 0
M  V30 492 N 44.343 -0.763751 1.37857 0
M  V30 493 C 45.253 -1.90817 1.36478 0
M  V30 494 C 46.269 -1.71997 0.263248 0
M  V30 495 O 47.445 -1.95095 0.499979 0
M  V30 496 C 44.51 -3.2605 1.17864 0
M  V30 497 C 43.571 -3.57467 2.3773 0
M  V30 498 C 42.804 -4.86249 2.19995 0
M  V30 499 O 43.027 -5.57884 1.18836 0
M  V30 500 O 41.961 -5.16911 3.08361 0
M  V30 501 H 45.787 -1.94933 2.32884 0
M  V30 502 H 43.372 -0.907619 1.1867 0
M  V30 503 H 45.254 -4.06924 1.09504 0
M  V30 504 H 43.929 -3.22769 0.245372 0
M  V30 505 H 42.836 -2.76796 2.51664 0
M  V30 506 H 44.169 -3.655 3.29652 0
M  V30 507 N 45.8211 -1.22559 -0.990812 0
M  V30 508 C 47.0691 -1.04933 -1.72724 0
M  V30 509 C 47.3901 0.416158 -1.90508 0
M  V30 510 O 46.6601 1.29918 -1.46622 0
M  V30 511 H 45.2401 -0.385296 -0.639965 0
M  V30 512 H 47.9021 -1.54105 -1.19322 0
M  V30 513 H 46.9981 -1.52886 -2.72089 0
M  V30 514 N 47.2992 1.18797 -1.03562 0
M  V30 515 C 48.2292 2.24472 -0.643019 0
M  V30 516 C 49.2102 1.66433 0.351283 0
M  V30 517 O 50.3952 1.92803 0.232505 0
M  V30 518 C 47.5252 3.473 4.24935e-05 0
M  V30 519 C 46.4792 4.18055 -0.917257 0
M  V30 520 C 45.8052 5.34519 -0.138941 0
M  V30 521 C 47.1052 4.72109 -2.23407 0
M  V30 522 H 48.7992 2.57566 -1.52643 0
M  V30 523 H 46.3452 1.23806 -0.735394 0
M  V30 524 H 48.2982 4.20426 0.286383 0
M  V30 525 H 47.0222 3.13424 0.918299 0
M  V30 526 H 45.6812 3.46821 -1.1879 0
M  V30 527 H 45.3292 4.96891 0.781562 0
M  V30 528 H 45.0292 5.82794 -0.750005 0
M  V30 529 H 46.5532 6.10438 0.1405 0
M  V30 530 H 47.9672 5.36955 -2.00879 0
M  V30 531 H 46.3642 5.30897 -2.79765 0
M  V30 532 H 47.4342 3.89807 -2.88407 0
M  V30 533 N 48.7773 0.814389 1.34928 0
M  V30 534 C 49.7253 0.218424 2.31572 0
M  V30 535 C 50.7193 -0.636128 1.57002 0
M  V30 536 O 51.9253 -0.52842 1.72069 0
M  V30 537 H 48.3003 0.0518799 0.750208 0
M  V30 538 H 50.2713 1.04852 2.79372 0
M  V30 539 C 49.0203 -0.61207 3.4227 0
M  V30 540 H 48.3433 0.0361578 3.99784 0
M  V30 541 H 49.7833 -0.995317 4.12152 0
M  V30 542 C 48.2423 -1.78087 2.85984 0
M  V30 543 O 48.7723 -2.8787 2.80168 0
M  V30 544 N 46.9783 -1.59488 2.42924 0
M  V30 545 H 46.5253 -0.701874 2.47854 0
M  V30 546 H 46.4833 -2.37846 2.05613 0
M  V30 547 N 50.2554 -1.46986 0.568584 0
M  V30 548 C 51.6714 -1.57946 0.229189 0
M  V30 549 C 51.8714 -1.56567 -1.26843 0
M  V30 550 O 50.9274 -1.47511 -2.04931 0
M  V30 551 C 52.2404 -2.87963 0.865909 0
M  V30 552 C 53.7884 -3.01568 0.838188 0
M  V30 553 C 54.2634 -4.34301 1.45419 0
M  V30 554 N 55.7544 -4.40965 1.41788 0
M  V30 555 C 56.4894 -5.42256 1.86403 0
M  V30 556 N 55.9854 -6.50297 2.38926 0
M  V30 557 N 57.7784 -5.3337 1.77405 0
M  V30 558 H 49.9294 -1.46126 1.54146 0
M  V30 559 H 52.1924 -0.696156 0.643484 0
M  V30 560 H 51.8984 -2.94742 1.91886 0
M  V30 561 H 51.7724 -3.75423 0.365687 0
M  V30 562 H 54.1594 -2.94379 -0.206106 0
M  V30 563 H 54.2404 -2.1562 1.37629 0
M  V30 564 H 53.8844 -4.42247 2.49761 0
M  V30 565 H 53.8144 -5.19 0.891435 0
M  V30 566 H 56.3054 -3.63484 1.03381 0
M  V30 567 H 56.6184 -7.23777 2.70863 0
M  V30 568 H 54.9634 -6.51155 2.42944 0
M  V30 569 H 58.1544 -4.47865 1.3614 0
M  V30 570 H 58.3274 -6.12169 2.12492 0
M  V30 571 N 51.7335 -0.305618 -1.54608 0
M  V30 572 C 53.1495 0.0476228 -1.59529 0
M  V30 573 C 53.3495 1.52025 -1.32252 0
M  V30 574 O 52.4055 2.27368 -1.09818 0
M  V30 575 C 53.7185 -0.354471 -2.98603 0
M  V30 576 C 55.2665 -0.303622 -3.11524 0
M  V30 577 C 55.7415 -0.680608 -4.52915 0
M  V30 578 N 57.2325 -0.63332 -4.5885 0
M  V30 579 C 57.9675 -0.897432 -5.66334 0
M  V30 580 N 57.4635 -1.22775 -6.81834 0
M  V30 581 N 59.2565 -0.824186 -5.56025 0
M  V30 582 H 51.4075 -1.2653 -1.70599 0
M  V30 583 H 53.6705 -0.513291 -0.797017 0
M  V30 584 H 53.3765 -1.3798 -3.23503 0
M  V30 585 H 53.2505 0.289568 -3.76087 0
M  V30 586 H 55.6375 0.712472 -2.8637 0
M  V30 587 H 55.7185 -0.982348 -2.36185 0
M  V30 588 H 55.3625 -1.69453 -4.78799 0
M  V30 589 H 55.2925 0.0202385 -5.26596 0
M  V30 590 H 57.7835 -0.389138 -3.75891 0
M  V30 591 H 58.0965 -1.41513 -7.59733 0
M  V30 592 H 56.4415 -1.26583 -6.83375 0
M  V30 593 H 59.6325 -0.565748 -4.64669 0
M  V30 594 H 59.8055 -1.03338 -6.39707 0
M  V30 595 N 53.2116 1.57565 -0.0334293 0
M  V30 596 C 54.4576 1.92262 0.645226 0
M  V30 597 C 54.7906 0.910543 1.71531 0
M  V30 598 O 54.0656 -0.066099 1.94388 0
M  V30 599 C 54.3486 3.37422 1.2577 0
M  V30 600 C 54.2016 4.49369 0.196891 0
M  V30 601 C 55.5206 3.82628 2.17449 0
M  V30 602 H 52.6396 0.699171 0.233085 0
M  V30 603 H 55.2816 1.89779 -0.0915694 0
M  V30 604 H 53.4316 3.39669 1.88566 0
M  V30 605 H 55.1036 4.59254 -0.433962 0
M  V30 606 H 53.3466 4.31168 -0.477137 0
M  V30 607 H 54.0176 5.47978 0.665124 0
M  V30 608 H 56.4936 3.82145 1.64634 0
M  V30 609 H 55.3696 4.84883 2.57254 0
M  V30 610 H 55.6306 3.18376 3.0674 0
M  V30 611 N 54.6897 -0.239769 1.55765 0
M  V30 612 C 55.6527 -1.28038 1.90103 0
M  V30 613 C 56.6527 -1.40723 0.778055 0
M  V30 614 O 57.8427 -1.39301 1.04599 0
M  V30 615 C 54.9747 -2.65702 2.13577 0
M  V30 616 H 56.1677 -0.988048 2.83157 0
M  V30 617 H 53.7207 -0.479382 1.48767 0
M  V30 618 H 54.4557 -3.00063 1.23015 0
M  V30 619 H 54.2407 -2.57875 2.95369 0
M  V30 620 H 55.7307 -3.40828 2.41301 0
M  V30 621 N 56.1678 -1.49265 -0.50573 0
M  V30 622 C 57.0778 -1.68312 -1.63427 0
M  V30 623 C 58.0938 -0.565682 -1.64548 0
M  V30 624 O 59.2698 -0.839801 -1.83055 0
M  V30 625 C 56.3348 -1.74107 -2.99813 0
M  V30 626 C 55.3958 -2.97653 -3.09356 0
M  V30 627 C 54.6288 -3.03163 -4.39236 0
M  V30 628 O 54.8518 -2.16396 -5.27758 0
M  V30 629 O 53.7858 -3.9558 -4.53652 0
M  V30 630 H 57.6118 -2.63907 -1.50289 0
M  V30 631 H 55.1968 -1.32951 -0.681502 0
M  V30 632 H 57.0788 -1.803 -3.80881 0
M  V30 633 H 55.7538 -0.816901 -3.13223 0
M  V30 634 H 54.6608 -2.96981 -2.27493 0
M  V30 635 H 55.9938 -3.89535 -3.00871 0
M  V30 636 N 57.6459 0.756429 -1.3826 0
M  V30 637 C 58.9229 1.50584 -1.24835 0
M  V30 638 C 59.3029 2.10556 0.151485 0
M  V30 639 O 58.6509 1.96825 1.1607 0
M  V30 640 C 58.8609 2.57448 -2.3563 0
M  V30 641 C 60.2089 3.24429 -2.73917 0
M  V30 642 O 61.2329 2.67751 -2.34921 0
M  V30 643 O 60.0919 4.26937 -3.41156 0
M  V30 644 H 57.1859 0.667664 -0.48801 0
M  V30 645 H 59.7319 0.792083 -1.5008 0
M  V30 646 H 58.5039 2.11362 -3.29305 0
M  V30 647 H 58.1269 3.36408 -2.11933 0
M  V30 648 N 59.124 1.23083 0.984299 0
M  V30 649 C 60.054 1.03292 2.09411 0
M  V30 650 C 61.035 -0.048923 1.7003 0
M  V30 651 O 62.22 0.114967 1.93859 0
M  V30 652 C 59.35 0.619155 3.41736 0
M  V30 653 C 58.304 1.64791 3.95004 0
M  V30 654 C 57.63 1.0897 5.23478 0
M  V30 655 C 58.93 3.03999 4.24714 0
M  V30 656 H 60.624 1.96119 2.26225 0
M  V30 657 H 58.17 0.944344 1.08711 0
M  V30 658 H 60.123 0.467777 4.18796 0
M  V30 659 H 58.847 -0.344786 3.24775 0
M  V30 660 H 57.506 1.78721 3.20085 0
M  V30 661 H 57.154 0.11686 5.02864 0
M  V30 662 H 56.854 1.77704 5.60085 0
M  V30 663 H 58.378 0.950093 6.03163 0
M  V30 664 H 59.792 2.93393 4.92538 0
M  V30 665 H 58.189 3.69936 4.72512 0
M  V30 666 H 59.259 3.53285 3.32142 0
M  V30 667 N 60.6021 -1.18246 1.0419 0
M  V30 668 C 61.5501 -2.23968 0.627792 0
M  V30 669 C 62.5441 -1.65828 -0.346019 0
M  V30 670 O 63.7501 -1.78733 -0.213175 0
M  V30 671 H 60.1251 -0.728939 0.184802 0
M  V30 672 H 62.0961 -2.56202 1.52981 0
M  V30 673 C 60.8451 -3.47699 0.00796591 0
M  V30 674 H 60.1681 -3.92734 0.748347 0
M  V30 675 H 61.6081 -4.23294 -0.24455 0
M  V30 676 C 60.0671 -3.13153 -1.24246 0
M  V30 677 O 60.5971 -3.27003 -2.33307 0
M  V30 678 N 58.8031 -2.67467 -1.13622 0
M  V30 679 H 58.3501 -2.56396 -0.248734 0
M  V30 680 H 58.3081 -2.44724 -1.97377 0
M  V30 681 N 62.0802 -0.821533 -1.34494 0
M  V30 682 C 63.0102 -0.257138 -2.3208 0
M  V30 683 C 63.9912 0.625645 -1.58176 0
M  V30 684 O 65.1762 0.552811 -1.86166 0
M  V30 685 C 62.3062 0.582958 -3.42372 0
M  V30 686 C 61.2602 -0.202571 -4.2752 0
M  V30 687 C 60.5862 0.760179 -5.29269 0
M  V30 688 C 61.8862 -1.40998 -5.02908 0
M  V30 689 H 63.5802 -1.07247 -2.79532 0
M  V30 690 H 61.1262 -0.517163 -1.34393 0
M  V30 691 H 63.0792 0.987972 -4.09655 0
M  V30 692 H 61.8032 1.43133 -2.93565 0
M  V30 693 H 60.4622 -0.588936 -3.61838 0
M  V30 694 H 60.1102 1.60447 -4.76724 0
M  V30 695 H 59.8102 0.238809 -5.87115 0
M  V30 696 H 61.3342 1.16308 -5.9942 0
M  V30 697 H 62.7482 -1.07905 -5.63054 0
M  V30 698 H 61.1452 -1.86689 -5.70322 0
M  V30 699 H 62.2152 -2.1889 -4.32684 0
M  V30 700 N 63.5583 1.46682 -0.576371 0
M  V30 701 C 64.8063 2.02013 -0.0594163 0
M  V30 702 C 65.1273 1.45101 1.30271 0
M  V30 703 O 64.3973 0.633317 1.8538 0
M  V30 704 H 62.9773 0.746759 -0.0189745 0
M  V30 705 H 65.6393 1.79862 -0.750717 0
M  V30 706 H 64.7353 3.12097 0.014345 0
M  V30 707 N 65.0364 0.313813 1.54444 0
M  V30 708 C 65.9844 -0.572171 2.25453 0
M  V30 709 C 66.9784 -1.12657 1.2651 0
M  V30 710 O 68.1844 -1.07573 1.44319 0
M  V30 711 H 64.5594 -0.203146 0.724041 0
M  V30 712 H 66.5304 0.0491145 2.9836 0
M  V30 713 C 65.2794 -1.72626 3.0182 0
M  V30 714 H 64.6024 -1.30891 3.77767 0
M  V30 715 H 66.0424 -2.32199 3.54767 0
M  V30 716 C 64.5014 -2.63806 2.09542 0
M  V30 717 O 65.0314 -3.65256 1.67185 0
M  V30 718 N 63.2374 -2.31824 1.75232 0
M  V30 719 H 62.7844 -1.49368 2.09873 0
M  V30 720 H 62.7424 -2.93095 1.13767 0
M  V30 721 N 66.5145 -1.57545 0.0417849 0
M  V30 722 C 67.4445 -2.14009 -0.933929 0
M  V30 723 C 68.4255 -1.05938 -1.33083 0
M  V30 724 O 69.6105 -1.33833 -1.40721 0
M  V30 725 C 66.7405 -2.67747 -2.21199 0
M  V30 726 C 65.6945 -3.80718 -1.95544 0
M  V30 727 C 65.0205 -4.20935 -3.29724 0
M  V30 728 C 66.3205 -5.06258 -1.28452 0
M  V30 729 H 68.0145 -2.95788 -0.463645 0
M  V30 730 H 65.5605 -1.42285 -0.221573 0
M  V30 731 H 67.5135 -3.05886 -2.89848 0
M  V30 732 H 66.2375 -1.83147 -2.70416 0
M  V30 733 H 64.8965 -3.43037 -1.2931 0
M  V30 734 H 64.5445 -3.33298 -3.76724 0
M  V30 735 H 64.2445 -4.9707 -3.13361 0
M  V30 736 H 65.7685 -4.61666 -3.9962 0
M  V30 737 H 67.1825 -5.41903 -1.8712 0
M  V30 738 H 65.5795 -5.87475 -1.22445 0
M  V30 739 H 66.6495 -4.84207 -0.259219 0
M  V30 740 N 67.9926 0.231505 -1.5589 0
M  V30 741 C 68.9406 1.30649 -1.92441 0
M  V30 742 C 69.9346 1.49037 -0.805254 0
M  V30 743 O 71.1406 1.50329 -0.990007 0
M  V30 744 H 67.5156 0.437812 -0.611412 0
M  V30 745 H 69.4866 0.970973 -2.82161 0
M  V30 746 C 68.2356 2.65179 -2.24889 0
M  V30 747 H 67.5586 2.51835 -3.10514 0
M  V30 748 H 68.9986 3.39234 -2.54355 0
M  V30 749 C 67.4576 3.19439 -1.07054 0
M  V30 750 O 67.9876 4.00371 -0.326499 0
M  V30 751 N 66.1936 2.77675 -0.85703 0
M  V30 752 H 65.7406 2.11969 -1.46379 0
M  V30 753 H 65.6986 3.14321 -0.0703223 0
M  V30 754 N 69.4707 1.49531 0.497807 0
M  V30 755 C 70.7167 1.59415 1.25358 0
M  V30 756 C 71.0497 0.281422 1.9215 0
M  V30 757 O 70.3247 -0.715249 1.80871 0
M  V30 758 C 70.6077 2.75566 2.3181 0
M  V30 759 C 70.4607 4.16642 1.69498 0
M  V30 760 C 71.7797 2.87347 3.33346 0
M  V30 761 H 68.8987 0.580244 0.454408 0
M  V30 762 H 71.5407 1.81827 0.551262 0
M  V30 763 H 69.6907 2.56587 2.91711 0
M  V30 764 H 71.3627 4.47145 1.13399 0
M  V30 765 H 69.6057 4.22141 0.998978 0
M  V30 766 H 70.2767 4.93792 2.46725 0
M  V30 767 H 72.7527 3.04634 2.83438 0
M  V30 768 H 71.6287 3.70289 4.05188 0
M  V30 769 H 71.8897 1.96834 3.95865 0
M  V30 770 N 70.9488 -0.749086 1.3866 0
M  V30 771 C 72.1738 -1.54344 1.38538 0
M  V30 772 C 72.5988 -1.88088 -0.0216655 0
M  V30 773 O 71.9568 -1.50899 -1.00494 0
M  V30 774 C 72.0048 -2.8164 2.25192 0
M  V30 775 O 71.1088 -3.7698 1.67212 0
M  V30 776 H 70.4498 -0.466654 0.472367 0
M  V30 777 H 72.9798 -0.925355 1.82478 0
M  V30 778 H 72.9898 -3.30519 2.3921 0
M  V30 779 H 71.6648 -2.56411 3.27454 0
M  V30 780 H 70.2418 -3.35699 1.6236 0
M  V30 781 N 72.4269 -1.23603 -0.977757 0
M  V30 782 C 73.6759 -1.06377 -1.71368 0
M  V30 783 C 73.9889 0.399062 -1.91486 0
M  V30 784 O 75.1949 0.691312 -2.62551 0
M  V30 785 C 73.6509 -1.85512 -3.08404 0
M  V30 786 C 73.2589 -3.36141 -2.96164 0
M  V30 787 C 75.0029 -1.76783 -3.85938 0
M  V30 788 C 72.9099 -4.07659 -4.28449 0
M  V30 789 H 71.8399 -0.394452 -0.642591 0
M  V30 790 H 74.4909 -1.47594 -1.09034 0
M  V30 791 H 72.8729 -1.37103 -3.71509 0
M  V30 792 H 74.0469 -3.92056 -2.42133 0
M  V30 793 H 72.3619 -3.45712 -2.32104 0
M  V30 794 H 74.9589 -2.27526 -4.83876 0
M  V30 795 H 75.3019 -0.731116 -4.0983 0
M  V30 796 H 75.8349 -2.22818 -3.2954 0
M  V30 797 H 72.5739 -5.11648 -4.09752 0
M  V30 798 H 72.0939 -3.5653 -4.82334 0
M  V30 799 H 73.7729 -4.141 -4.97122 0
M  V30 800 N 73.905 1.17692 -1.04816 0
M  V30 801 C 75.316 1.69501 -0.782698 0
M  V30 802 C 75.667 1.83456 0.695577 0
M  V30 803 O 74.792 1.51942 1.54086 0
M  V30 804 C 75.387 3.07874 -1.41419 0
M  V30 805 C 73.946 3.56864 -1.19686 0
M  V30 806 C 73.093 2.3322 -1.50012 0
M  V30 807 H 76.044 1.02262 -1.2136 0
M  V30 808 H 76.065 3.71528 -0.821428 0
M  V30 809 H 75.577 2.97685 -2.49009 0
M  V30 810 H 73.678 3.72337 -0.140043 0
M  V30 811 H 73.791 4.39851 -1.89916 0
M  V30 812 H 72.155 2.37501 -0.920071 0
M  V30 813 H 72.938 2.25644 -2.58727 0
M  V30 814 N 75.3831 0.828654 1.34056 0
M  V30 815 C 76.6291 0.429279 1.98818 0
M  V30 816 C 76.9841 -0.998011 1.64492 0
M  V30 817 O 76.2771 -1.68652 0.909228 0
M  V30 818 C 76.4711 0.575226 3.52741 0
M  V30 819 C 76.3001 2.01515 4.02022 0
M  V30 820 C 75.0701 2.64825 4.30344 0
M  V30 821 C 77.2681 2.98261 4.18981 0
M  V30 822 N 75.2501 3.99998 4.65698 0
M  V30 823 C 76.6211 4.18356 4.57578 0
M  V30 824 C 78.6761 2.94802 4.01243 0
M  V30 825 C 77.3791 5.35454 4.80293 0
M  V30 826 C 79.4051 4.11121 4.25128 0
M  V30 827 C 78.7671 5.29969 4.64018 0
M  V30 828 H 74.8661 0.205304 0.754569 0
M  V30 829 H 77.4501 1.07457 1.62361 0
M  V30 830 H 75.6211 -0.0401962 3.88379 0
M  V30 831 H 77.3531 0.148292 4.04428 0
M  V30 832 H 74.1081 2.16027 4.21461 0
M  V30 833 H 74.5321 4.69653 4.87601 0
M  V30 834 H 79.1741 2.04054 3.70299 0
M  V30 835 H 76.8921 6.26755 5.10102 0
M  V30 836 H 80.4781 4.0985 4.12934 0
M  V30 837 H 79.3581 6.18479 4.82134 0
M  V30 838 N 76.8612 -1.46375 0.584142 0
M  V30 839 C 78.0892 -2.06761 0.0759296 0
M  V30 840 C 78.5042 -1.43266 -1.22965 0
M  V30 841 O 77.8612 -0.538458 -1.74376 0
M  V30 842 C 77.9122 -3.61375 -0.0950384 0
M  V30 843 O 77.6332 -4.22495 1.15887 0
M  V30 844 C 79.1342 -4.38693 -0.637434 0
M  V30 845 H 76.3542 -0.668479 0.0581075 0
M  V30 846 H 78.8982 -1.8798 0.805218 0
M  V30 847 H 77.0532 -3.79578 -0.774554 0
M  V30 848 H 77.4672 -5.15385 0.973598 0
M  V30 849 H 78.9412 -5.47464 -0.706237 0
M  V30 850 H 79.4182 -4.06836 -1.65472 0
M  V30 851 H 80.0242 -4.25299 0.00725967 0
M  V30 852 N 78.3393 -0.321999 -1.54275 0
M  V30 853 C 79.2893 0.560185 -2.21011 0
M  V30 854 C 80.2733 1.08283 -1.19011 0
M  V30 855 O 81.4653 1.02011 -1.44647 0
M  V30 856 C 78.5943 1.72137 -2.97025 0
M  V30 857 C 77.6803 1.21369 -4.06363 0
M  V30 858 N 78.0713 0.425566 -5.04007 0
M  V30 859 C 76.3693 1.49255 -4.20284 0
M  V30 860 C 77.0703 0.152601 -5.815 0
M  V30 861 N 76.0463 0.738294 -5.38563 0
M  V30 862 H 79.8483 -0.049265 -2.93859 0
M  V30 863 H 77.3623 -0.127779 -1.61897 0
M  V30 864 H 79.3593 2.36512 -3.43319 0
M  V30 865 H 78.0193 2.33431 -2.25699 0
M  V30 866 H 79.0303 0.068551 -5.17855 0
M  V30 867 H 75.7073 2.11145 -3.60172 0
M  V30 868 H 77.0973 -0.481764 -6.70171 0
M  V30 869 N 79.8174 1.5752 -0.0501392 0
M  V30 870 C 80.7644 2.1147 0.924603 0
M  V30 871 C 81.7344 1.02182 1.30951 0
M  V30 872 O 82.9194 1.29723 1.39916 0
M  V30 873 C 80.0594 2.66337 2.19451 0
M  V30 874 C 79.1724 3.89708 1.86418 0
M  V30 875 C 78.3074 4.32893 3.07859 0
M  V30 876 C 77.3464 5.48967 2.70742 0
M  V30 877 N 76.4834 5.87211 3.84874 0
M  V30 878 H 81.3234 2.94465 0.457639 0
M  V30 879 H 78.8604 1.45531 0.214266 0
M  V30 880 H 80.8184 2.96247 2.93758 0
M  V30 881 H 79.4484 1.86141 2.63726 0
M  V30 882 H 78.5004 3.66396 1.02264 0
M  V30 883 H 79.8124 4.74074 1.55096 0
M  V30 884 H 78.9664 4.6435 3.90466 0
M  V30 885 H 77.7054 3.47336 3.42358 0
M  V30 886 H 76.7104 5.17183 1.86551 0
M  V30 887 H 77.9354 6.3624 2.37436 0
M  V30 888 H 75.8814 5.04607 4.19175 0
M  V30 889 H 75.7984 6.66266 3.57247 0
M  V30 890 H 77.0664 6.23282 4.68123 0
M  V30 891 N 81.2955 -0.223234 1.56011 0
M  V30 892 C 82.5415 -0.949279 1.79211 0
M  V30 893 C 82.8745 -1.84054 0.619494 0
M  V30 894 O 82.1495 -1.90726 -0.381317 0
M  V30 895 C 82.4325 -1.78965 3.12479 0
M  V30 896 C 82.2855 -0.924997 4.40186 0
M  V30 897 C 83.6045 -2.76774 3.42175 0
M  V30 898 H 80.7235 -0.343676 0.651963 0
M  V30 899 H 83.3655 -0.218253 1.88742 0
M  V30 900 H 81.5155 -2.41291 3.04485 0
M  V30 901 H 83.1875 -0.318615 4.60198 0
M  V30 902 H 81.4305 -0.230344 4.33188 0
M  V30 903 H 82.1015 -1.54735 5.29869 0
M  V30 904 H 84.5775 -2.24584 3.50287 0
M  V30 905 H 83.4535 -3.32678 4.36597 0
M  V30 906 H 83.7145 -3.54429 2.64258 0
M  V30 907 N 82.7736 -1.49793 -0.48987 0
M  V30 908 C 84.0216 -1.59525 -1.24081 0
M  V30 909 C 84.3426 -0.288953 -1.92847 0
M  V30 910 O 83.6126 0.692436 -1.83254 0
M  V30 911 H 82.1926 -0.587796 -0.460983 0
M  V30 912 H 84.8546 -1.86477 -0.566778 0
M  V30 913 H 83.9506 -2.39696 -1.99881 0
M  V30 914 N 84.2517 0.741722 -1.39055 0
M  V30 915 C 85.1997 1.87702 -1.3737 0
M  V30 916 C 86.1937 1.67427 -0.257812 0
M  V30 917 O 87.3997 1.7485 -0.427489 0
M  V30 918 H 83.7747 0.617757 -0.428812 0
M  V30 919 H 85.7457 1.86239 -2.33147 0
M  V30 920 C 84.4947 3.25315 -1.22741 0
M  V30 921 H 83.8177 3.41509 -2.07873 0
M  V30 922 H 85.2577 4.04964 -1.25618 0
M  V30 923 C 83.7167 3.36838 0.0647316 0
M  V30 924 O 84.2467 3.88073 1.03741 0
M  V30 925 N 82.4527 2.90329 0.125544 0
M  V30 926 H 81.9997 2.48823 -0.666682 0
M  V30 927 H 81.9577 2.98418 0.989639 0
M  V30 928 N 85.7298 1.2412 0.971189 0
M  V30 929 C 86.9768 1.07881 1.71371 0
M  V30 930 C 87.3048 -0.382901 1.90694 0
M  V30 931 O 86.5598 -1.29945 1.46331 0
M  V30 932 C 86.8588 1.75983 3.11071 0
M  V30 933 C 86.5248 3.25909 3.11599 0
M  V30 934 C 85.1868 3.66813 3.11451 0
M  V30 935 C 87.5388 4.21771 3.062 0
M  V30 936 C 84.8668 5.02021 3.03631 0
M  V30 937 C 87.2188 5.56982 2.99923 0
M  V30 938 C 85.8828 5.97237 2.98102 0
M  V30 939 H 85.1528 0.394764 0.62709 0
M  V30 940 H 87.7998 1.54176 1.13587 0
M  V30 941 H 86.1048 1.22072 3.72298 0
M  V30 942 H 87.8018 1.60887 3.6731 0
M  V30 943 H 84.3918 2.93353 3.12477 0
M  V30 944 H 88.5758 3.91172 3.05447 0
M  V30 945 H 83.8318 5.32411 3.0058 0
M  V30 946 H 88.0058 6.30969 2.94704 0
M  V30 947 H 85.6328 7.01967 2.91798 0
M  V30 948 N 87.2079 -1.17134 1.05439 0
M  V30 949 C 88.4359 -1.91372 0.786414 0
M  V30 950 C 88.8509 -1.76955 -0.658202 0
M  V30 951 O 88.2079 -1.10838 -1.44987 0
M  V30 952 C 88.2589 -3.42356 1.1608 0
M  V30 953 O 87.9799 -3.56332 2.54871 0
M  V30 954 C 89.4809 -4.33663 0.919322 0
M  V30 955 H 86.7009 -0.607118 0.285743 0
M  V30 956 H 89.2449 -1.48525 1.40572 0
M  V30 957 H 87.3999 -3.82939 0.586191 0
M  V30 958 H 87.8139 -4.49896 2.69618 0
M  V30 959 H 89.2879 -5.38099 1.231 0
M  V30 960 H 89.7649 -4.38959 -0.145359 0
M  V30 961 H 90.3709 -3.98796 1.47789 0
M  V30 962 N 88.686 -0.835752 -1.33615 0
M  V30 963 C 89.934 -0.429109 -1.97492 0
M  V30 964 C 90.255 1.01433 -1.66543 0
M  V30 965 O 89.525 1.70611 -0.962744 0
M  V30 966 H 88.105 -0.155686 -0.730596 0
M  V30 967 H 90.767 -1.06802 -1.63031 0
M  V30 968 H 89.863 -0.55861 -3.0706 0
M  V30 969 N 90.1641 1.46063 -0.591896 0
M  V30 970 C 91.0941 2.33172 0.123673 0
M  V30 971 C 92.0751 1.45897 0.87453 0
M  V30 972 O 93.2601 1.74698 0.848181 0
M  V30 973 C 90.3901 3.28336 1.13194 0
M  V30 974 C 89.3441 4.25124 0.495324 0
M  V30 975 C 88.6701 5.09863 1.61071 0
M  V30 976 C 89.9701 5.19143 -0.573425 0
M  V30 977 H 91.6641 2.93252 -0.603646 0
M  V30 978 H 89.2101 1.41014 -0.291741 0
M  V30 979 H 91.1631 3.88137 1.64097 0
M  V30 980 H 89.8871 2.66383 1.88965 0
M  V30 981 H 88.5461 3.66599 0.00729452 0
M  V30 982 H 88.1941 4.44288 2.35832 0
M  V30 983 H 87.8941 5.75417 1.19035 0
M  V30 984 H 89.4181 5.72529 2.12233 0
M  V30 985 H 90.8321 5.73106 -0.1491 0
M  V30 986 H 89.2291 5.93089 -0.914636 0
M  V30 987 H 90.2991 4.62519 -1.45617 0
M  V30 988 N 91.6422 0.330177 1.54103 0
M  V30 989 C 92.8722 -0.271784 2.04805 0
M  V30 990 C 93.2802 -1.45816 1.20559 0
M  V30 991 O 92.6232 -1.82247 0.2306 0
M  V30 992 C 92.6852 -0.763238 3.51305 0
M  V30 993 C 92.3492 0.301705 4.56003 0
M  V30 994 C 93.3462 1.13999 5.07248 0
M  V30 995 C 91.0312 0.451793 5.00264 0
M  V30 996 C 93.0252 2.11402 6.01322 0
M  V30 997 C 90.7122 1.42924 5.94151 0
M  V30 998 C 91.7102 2.25882 6.44567 0
M  V30 999 O 91.3982 3.21965 7.3661 0
M  V30 1000 H 91.1302 -0.058693 0.673447 0
M  V30 1001 H 93.6842 0.476395 1.99799 0
M  V30 1002 H 91.9142 -1.56244 3.5373 0
M  V30 1003 H 93.6032 -1.28427 3.85047 0
M  V30 1004 H 94.3692 1.03505 4.73827 0
M  V30 1005 H 90.2482 -0.184044 4.60632 0
M  V30 1006 H 93.7922 2.76192 6.40596 0
M  V30 1007 H 89.6892 1.53479 6.26988 0
M  V30 1008 H 90.4572 3.17281 7.54503 0
M  V30 1009 N 93.1203 -1.57491 0.0584922 0
M  V30 1010 C 94.3453 -1.97711 -0.62652 0
M  V30 1011 C 94.7703 -0.936132 -1.63151 0
M  V30 1012 O 94.1283 0.099811 -1.81025 0
M  V30 1013 C 94.1763 -3.36989 -1.28338 0
M  V30 1014 O 93.2803 -3.35433 -2.39913 0
M  V30 1015 H 92.6213 -0.643868 -0.162266 0
M  V30 1016 H 95.1513 -2.04193 0.129064 0
M  V30 1017 H 95.1613 -3.73879 -1.63335 0
M  V30 1018 H 93.8363 -4.12289 -0.546889 0
M  V30 1019 H 92.4133 -3.10298 -2.06809 0
M  V30 1020 N 94.5984 0.214957 -1.56127 0
M  V30 1021 C 95.8234 0.95924 -1.83884 0
M  V30 1022 C 96.2484 1.7689 -0.639644 0
M  V30 1023 O 95.6064 1.76566 0.411601 0
M  V30 1024 C 95.6544 1.84723 -3.09693 0
M  V30 1025 O 94.7584 2.94346 -2.8885 0
M  V30 1026 H 94.0994 0.27125 -0.606069 0
M  V30 1027 H 96.6294 0.226276 -2.03345 0
M  V30 1028 H 96.6394 2.25576 -3.39969 0
M  V30 1029 H 95.3144 1.25218 -3.96602 0
M  V30 1030 H 93.8914 2.57391 -2.69823 0
M  V30 1031 N 96.0765 1.50051 0.48192 0
M  V30 1032 C 97.3045 1.64237 1.25832 0
M  V30 1033 C 97.7195 0.321336 1.86045 0
M  V30 1034 O 97.0765 -0.695478 1.68729 0
M  V30 1035 C 97.1275 2.72548 2.37487 0
M  V30 1036 O 96.8485 3.99529 1.79745 0
M  V30 1037 C 98.3495 2.9761 3.28547 0
M  V30 1038 H 95.5695 0.55237 0.380957 0
M  V30 1039 H 98.1135 1.96207 0.576467 0
M  V30 1040 H 96.2685 2.43303 3.01467 0
M  V30 1041 H 96.6825 4.59342 2.5319 0
M  V30 1042 H 98.1565 3.77084 4.03127 0
M  V30 1043 H 98.6335 2.0826 3.86684 0
M  V30 1044 H 99.2395 3.28345 2.70314 0
M  V30 1045 N 97.5546 -0.734337 1.39446 0
M  V30 1046 C 98.8006 -1.49613 1.36908 0
M  V30 1047 C 99.1336 -1.94169 -0.0347829 0
M  V30 1048 O 98.4086 -1.66833 -0.999847 0
M  V30 1049 C 98.6916 -2.73534 2.34203 0
M  V30 1050 C 98.5446 -2.34993 3.83534 0
M  V30 1051 C 99.8636 -3.75635 2.29317 0
M  V30 1052 H 96.9826 -0.542714 0.498629 0
M  V30 1053 H 99.6246 -0.839597 1.70443 0
M  V30 1054 H 97.7746 -3.29553 2.05736 0
M  V30 1055 H 99.4466 -1.84601 4.22753 0
M  V30 1056 H 97.6896 -1.67213 4.00278 0
M  V30 1057 H 98.3606 -3.23738 4.47099 0
M  V30 1058 H 100.837 -3.29203 2.54489 0
M  V30 1059 H 99.7126 -4.60008 2.99472 0
M  V30 1060 H 99.9736 -4.22603 1.29842 0
M  V30 1061 N 99.0327 -1.24633 -0.964593 0
M  V30 1062 C 100.444 -1.08045 -1.5226 0
M  V30 1063 C 100.795 0.347116 -1.93105 0
M  V30 1064 O 99.9197 1.23588 -1.77637 0
M  V30 1065 C 100.515 -1.95514 -2.76695 0
M  V30 1066 C 99.0737 -1.8314 -3.28841 0
M  V30 1067 C 98.2207 -1.90262 -2.01732 0
M  V30 1068 H 101.172 -1.38064 -0.782553 0
M  V30 1069 H 101.193 -1.48925 -3.50145 0
M  V30 1070 H 100.705 -2.99407 -2.46936 0
M  V30 1071 H 98.8057 -0.82092 -3.63444 0
M  V30 1072 H 98.9187 -2.67406 -3.97531 0
M  V30 1073 H 97.2827 -1.34027 -2.16584 0
M  V30 1074 H 98.0657 -2.9574 -1.74334 0
M  V30 1075 N 100.511 1.16574 -1.06058 0
M  V30 1076 C 101.757 1.87324 -0.777022 0
M  V30 1077 C 102.09 1.81351 0.694645 0
M  V30 1078 O 101.365 1.22753 1.50871 0
M  V30 1079 C 101.648 3.36991 -1.26922 0
M  V30 1080 C 101.501 3.51667 -2.80447 0
M  V30 1081 C 102.82 4.3131 -0.87521 0
M  V30 1082 H 99.9388 0.680191 -0.28374 0
M  V30 1083 H 102.581 1.37036 -1.3161 0
M  V30 1084 H 100.731 3.79949 -0.81063 0
M  V30 1085 H 102.403 3.17664 -3.34495 0
M  V30 1086 H 100.646 2.93656 -3.19294 0
M  V30 1087 H 101.317 4.56766 -3.0995 0
M  V30 1088 H 103.793 3.9624 -1.27014 0
M  V30 1089 H 102.669 5.34545 -1.2471 0
M  V30 1090 H 102.93 4.41552 0.220071 0
M  V30 1091 N 101.989 0.842826 1.3317 0
M  V30 1092 C 103.236 0.440447 1.97652 0
M  V30 1093 C 103.564 -1.00123 1.6675 0
M  V30 1094 O 102.819 -1.7155 0.941761 0
M  V30 1095 C 103.118 0.612607 3.52111 0
M  V30 1096 C 102.784 2.02297 4.02972 0
M  V30 1097 C 101.446 2.40874 4.16573 0
M  V30 1098 C 103.798 2.94402 4.30089 0
M  V30 1099 C 101.126 3.70852 4.54627 0
M  V30 1100 C 103.478 4.23865 4.69597 0
M  V30 1101 C 102.142 4.62392 4.81404 0
M  V30 1102 H 101.412 0.161171 0.72326 0
M  V30 1103 H 104.059 1.07061 1.58777 0
M  V30 1104 H 102.364 -0.100849 3.9167 0
M  V30 1105 H 104.061 0.2815 4.00011 0
M  V30 1106 H 100.651 1.71338 3.92863 0
M  V30 1107 H 104.835 2.65835 4.19101 0
M  V30 1108 H 100.091 4.00501 4.61962 0
M  V30 1109 H 104.265 4.95306 4.89536 0
M  V30 1110 H 101.892 5.63154 5.10648 0
M  V30 1111 N 103.467 -1.45747 0.599634 0
M  V30 1112 C 104.415 -2.322 -0.136426 0
M  V30 1113 C 105.409 -1.45497 -0.867583 0
M  V30 1114 O 106.615 -1.62027 -0.78405 0
M  V30 1115 H 102.99 -0.749368 -0.0628588 0
M  V30 1116 H 104.961 -2.92072 0.611281 0
M  V30 1117 C 103.71 -3.28974 -1.12567 0
M  V30 1118 H 103.033 -3.9568 -0.572484 0
M  V30 1119 H 104.473 -3.92212 -1.61077 0
M  V30 1120 C 102.932 -2.55561 -2.19523 0
M  V30 1121 O 103.462 -2.33111 -3.27143 0
M  V30 1122 N 101.668 -2.15832 -1.94589 0
M  V30 1123 H 101.215 -2.3429 -1.07078 0
M  V30 1124 H 101.173 -1.67034 -2.66359 0
M  V30 1125 N 104.945 -0.338344 -1.53925 0
M  V30 1126 C 106.356 0.146651 -1.86123 0
M  V30 1127 C 106.707 1.5042 -1.2597 0
M  V30 1128 O 105.832 2.08723 -0.571294 0
M  V30 1129 C 106.427 0.272879 -3.37699 0
M  V30 1130 C 104.986 0.702103 -3.69794 0
M  V30 1131 C 104.133 -0.167304 -2.76795 0
M  V30 1132 H 107.084 -0.558123 -1.48562 0
M  V30 1133 H 107.105 1.10128 -3.64214 0
M  V30 1134 H 106.617 -0.715307 -3.81451 0
M  V30 1135 H 104.718 1.6995 -3.31584 0
M  V30 1136 H 104.831 0.495604 -4.7653 0
M  V30 1137 H 103.195 0.359527 -2.5215 0
M  V30 1138 H 103.978 -1.15253 -3.23375 0
M  V30 1139 N 106.423 1.57458 -0.0668435 0
M  V30 1140 C 107.373 2.0896 0.912119 0
M  V30 1141 C 108.357 0.998186 1.26195 0
M  V30 1142 O 109.549 1.26133 1.24175 0
M  V30 1143 C 106.678 2.6508 2.18145 0
M  V30 1144 C 105.764 3.81218 1.85832 0
M  V30 1145 N 106.155 4.90378 1.23948 0
M  V30 1146 C 104.453 3.9042 2.15612 0
M  V30 1147 C 105.154 5.71279 1.09616 0
M  V30 1148 N 104.13 5.19389 1.60423 0
M  V30 1149 H 107.932 2.90749 0.42924 0
M  V30 1150 H 105.446 1.6182 0.137184 0
M  V30 1151 H 107.443 3.0029 2.89192 0
M  V30 1152 H 106.103 1.84736 2.67025 0
M  V30 1153 H 107.114 5.09847 0.909731 0
M  V30 1154 H 103.791 3.21043 2.66903 0
M  V30 1155 H 105.181 6.69085 0.614425 0
M  V30 1156 N 107.901 -0.206675 1.56239 0
M  V30 1157 C 109.147 -0.925733 1.81113 0
M  V30 1158 C 109.502 -1.81368 0.642135 0
M  V30 1159 O 108.795 -1.88126 -0.363211 0
M  V30 1160 C 108.989 -1.78675 3.09532 0
M  V30 1161 C 108.818 -0.98365 4.3881 0
M  V30 1162 C 107.588 -0.672661 5.00803 0
M  V30 1163 C 109.786 -0.341847 5.13163 0
M  V30 1164 N 107.768 0.150283 6.13716 0
M  V30 1165 C 109.139 0.343815 6.19046 0
M  V30 1166 C 111.194 -0.256392 4.97239 0
M  V30 1167 C 109.897 1.10678 7.10734 0
M  V30 1168 C 111.923 0.493142 5.8934 0
M  V30 1169 C 111.285 1.16729 6.94661 0
M  V30 1170 H 107.384 -0.318524 0.714189 0
M  V30 1171 H 109.968 -0.195378 1.93717 0
M  V30 1172 H 108.139 -2.4888 2.98183 0
M  V30 1173 H 109.871 -2.44441 3.22538 0
M  V30 1174 H 106.626 -0.994294 4.63045 0
M  V30 1175 H 107.05 0.551026 6.74754 0
M  V30 1176 H 111.692 -0.763249 4.15854 0
M  V30 1177 H 109.41 1.6251 7.91591 0
M  V30 1178 H 112.996 0.560465 5.79094 0
M  V30 1179 H 111.876 1.738 7.64698 0
M  V30 1180 N 109.379 -1.50304 -0.473955 0
M  V30 1181 C 110.326 -1.68959 -1.57231 0
M  V30 1182 C 111.296 -0.530899 -1.57387 0
M  V30 1183 O 112.481 -0.761133 -1.74961 0
M  V30 1184 C 109.621 -1.7871 -2.95223 0
M  V30 1185 C 108.734 -3.06061 -3.04878 0
M  V30 1186 C 107.869 -3.06626 -4.33767 0
M  V30 1187 C 106.908 -4.28443 -4.37154 0
M  V30 1188 N 106.045 -4.26763 -5.5751 0
M  V30 1189 H 110.885 -2.6273 -1.40631 0
M  V30 1190 H 108.422 -1.30241 -0.683789 0
M  V30 1191 H 110.38 -1.82344 -3.75242 0
M  V30 1192 H 109.01 -0.883806 -3.10465 0
M  V30 1193 H 108.062 -3.11911 -2.17751 0
M  V30 1194 H 109.374 -3.96039 -3.0324 0
M  V30 1195 H 108.528 -3.08973 -5.22131 0
M  V30 1196 H 107.267 -2.14473 -4.3801 0
M  V30 1197 H 106.272 -4.2631 -3.47188 0
M  V30 1198 H 107.497 -5.2182 -4.34605 0
M  V30 1199 H 105.443 -3.37462 -5.62544 0
M  V30 1200 H 105.36 -5.10507 -5.57601 0
M  V30 1201 H 106.628 -4.33253 -6.48006 0
M  V30 1202 N 110.857 0.726932 -1.39834 0
M  V30 1203 C 112.085 1.51613 -1.40787 0
M  V30 1204 C 112.5 1.88799 -0.00451505 0
M  V30 1205 O 111.857 1.54662 0.968809 0
M  V30 1206 C 111.908 2.79863 -2.28821 0
M  V30 1207 O 111.629 2.44253 -3.63692 0
M  V30 1208 C 113.13 3.73837 -2.38245 0
M  V30 1209 H 110.35 0.468264 -0.480593 0
M  V30 1210 H 112.894 0.897607 -1.83748 0
M  V30 1211 H 111.049 3.38027 -1.89252 0
M  V30 1212 H 111.463 3.26695 -4.1033 0
M  V30 1213 H 112.937 4.60699 -3.04073 0
M  V30 1214 H 113.414 4.16153 -1.40403 0
M  V30 1215 H 114.02 3.21589 -2.78317 0
M  V30 1216 N 112.336 1.25143 0.95797 0
M  V30 1217 C 113.747 1.08851 1.51685 0
M  V30 1218 C 114.098 -0.33687 1.93286 0
M  V30 1219 O 113.223 -1.22644 1.7829 0
M  V30 1220 C 113.818 1.96978 2.75654 0
M  V30 1221 C 112.377 1.84881 3.27866 0
M  V30 1222 C 111.524 1.91329 2.0072 0
M  V30 1223 H 114.475 1.38478 0.77522 0
M  V30 1224 H 114.496 1.5078 3.4935 0
M  V30 1225 H 114.008 3.00712 2.45345 0
M  V30 1226 H 112.109 0.840182 3.63004 0
M  V30 1227 H 112.222 2.6951 3.96107 0
M  V30 1228 H 110.586 1.35174 2.15871 0
M  V30 1229 H 111.369 2.96661 1.72764 0
M  V30 1230 N 113.814 -1.1601 1.06675 0
M  V30 1231 C 115.039 -1.91068 0.806706 0
M  V30 1232 C 115.464 -1.77112 -0.633485 0
M  V30 1233 O 114.822 -1.09908 -1.44187 0
M  V30 1234 C 114.87 -3.39655 1.21106 0
M  V30 1235 O 113.974 -4.10893 0.352189 0
M  V30 1236 H 113.315 -0.595125 0.294486 0
M  V30 1237 H 115.845 -1.46955 1.42356 0
M  V30 1238 H 115.855 -3.90434 1.18428 0
M  V30 1239 H 114.53 -3.49132 2.26008 0
M  V30 1240 H 113.107 -3.70285 0.440868 0
M  V30 1241 N 115.292 -0.849877 -1.32721 0
M  V30 1242 C 116.539 -0.450923 -1.97416 0
M  V30 1243 C 116.867 0.992376 -1.67279 0
M  V30 1244 O 116.122 1.71048 -0.950845 0
M  V30 1245 C 116.421 -0.631272 -3.51781 0
M  V30 1246 C 116.087 -2.04432 -4.01894 0
M  V30 1247 C 114.749 -2.4308 -4.1529 0
M  V30 1248 C 117.101 -2.96679 -4.28522 0
M  V30 1249 C 114.429 -3.73257 -4.52654 0
M  V30 1250 C 116.781 -4.26349 -4.67343 0
M  V30 1251 C 115.445 -4.64939 -4.78945 0
M  V30 1252 H 114.715 -0.165004 -0.722395 0
M  V30 1253 H 117.362 -1.07901 -1.58207 0
M  V30 1254 H 115.667 0.0800767 -3.91718 0
M  V30 1255 H 117.364 -0.302709 -3.99856 0
M  V30 1256 H 113.954 -1.73419 -3.91949 0
M  V30 1257 H 118.138 -2.68054 -4.17685 0
M  V30 1258 H 113.394 -4.02946 -4.59831 0
M  V30 1259 H 117.568 -4.97895 -4.86902 0
M  V30 1260 H 115.195 -5.65855 -5.07654 0
M  V30 1261 N 116.77 1.45427 -0.607355 0
M  V30 1262 C 118.181 1.85756 -0.187535 0
M  V30 1263 C 118.532 1.5077 1.25551 0
M  V30 1264 O 117.657 0.93427 1.95193 0
M  V30 1265 C 118.252 3.37154 -0.333572 0
M  V30 1266 C 116.811 3.76387 0.0315542 0
M  V30 1267 C 115.958 2.69377 -0.658117 0
M  V30 1268 H 118.909 1.36231 -0.81405 0
M  V30 1269 H 118.93 3.78014 0.43428 0
M  V30 1270 H 118.442 3.62586 -1.38393 0
M  V30 1271 H 116.543 3.56571 1.0811 0
M  V30 1272 H 116.656 4.77731 -0.361935 0
M  V30 1273 H 115.02 2.5452 -0.0957873 0
M  V30 1274 H 115.803 2.97646 -1.7106 0
M  V30 1275 N 118.248 0.346503 1.53744 0
M  V30 1276 C 119.196 -0.52422 2.26616 0
M  V30 1277 C 120.19 -1.09948 1.28871 0
M  V30 1278 O 121.396 -1.04488 1.46568 0
M  V30 1279 H 117.771 -0.187743 0.728187 0
M  V30 1280 H 119.742 0.11239 2.98188 0
M  V30 1281 C 118.491 -1.66186 3.05414 0
M  V30 1282 H 117.814 -1.22848 3.80458 0
M  V30 1283 H 119.254 -2.24622 3.59612 0
M  V30 1284 C 117.713 -2.59302 2.1509 0
M  V30 1285 O 118.243 -3.61628 1.74895 0
M  V30 1286 N 116.449 -2.28055 1.8011 0
M  V30 1287 H 115.996 -1.44883 2.12994 0
M  V30 1288 H 115.954 -2.90615 1.19958 0
M  V30 1289 N 119.726 -1.57421 0.075193 0
M  V30 1290 C 120.975 -1.92794 -0.592731 0
M  V30 1291 C 121.288 -0.957478 -1.70563 0
M  V30 1292 O 122.494 -1.20417 -2.43335 0
M  V30 1293 C 120.95 -3.42495 -1.10569 0
M  V30 1294 C 120.558 -4.47994 -0.0236121 0
M  V30 1295 C 122.302 -3.86864 -1.74748 0
M  V30 1296 C 120.209 -5.88829 -0.550803 0
M  V30 1297 H 119.139 -0.719591 -0.225177 0
M  V30 1298 H 121.79 -1.82902 0.147978 0
M  V30 1299 H 120.172 -3.47471 -1.89947 0
M  V30 1300 H 121.346 -4.54637 0.751099 0
M  V30 1301 H 119.661 -4.13113 0.522159 0
M  V30 1302 H 122.258 -4.8947 -2.15229 0
M  V30 1303 H 122.601 -3.24417 -2.60882 0
M  V30 1304 H 123.134 -3.84504 -1.01986 0
M  V30 1305 H 119.873 -6.54929 0.273457 0
M  V30 1306 H 119.393 -5.85698 -1.29296 0
M  V30 1307 H 121.072 -6.38811 -1.02613 0
M  V30 1308 N 121.204 0.198386 -1.56346 0
M  V30 1309 C 122.154 1.2499 -1.90687 0
M  V30 1310 C 123.138 1.41158 -0.772217 0
M  V30 1311 O 124.33 1.43584 -1.03502 0
M  V30 1312 C 121.459 2.59542 -2.24706 0
M  V30 1313 C 120.545 2.47181 -3.44619 0
M  V30 1314 N 120.936 2.04495 -4.62618 0
M  V30 1315 C 119.234 2.78082 -3.48692 0
M  V30 1316 C 119.935 2.03945 -5.44776 0
M  V30 1317 N 118.911 2.45323 -4.85095 0
M  V30 1318 H 122.713 0.911149 -2.7942 0
M  V30 1319 H 120.227 0.40684 -1.57221 0
M  V30 1320 H 122.224 3.3549 -2.47491 0
M  V30 1321 H 120.884 2.94244 -1.37298 0
M  V30 1322 H 121.895 1.75256 -4.87345 0
M  V30 1323 H 118.572 3.17002 -2.71691 0
M  V30 1324 H 119.962 1.72872 -6.4928 0
M  V30 1325 N 122.682 1.50554 0.465978 0
M  V30 1326 C 123.612 1.72722 1.57128 0
M  V30 1327 C 124.593 0.576294 1.6004 0
M  V30 1328 O 125.778 0.81598 1.76225 0
M  V30 1329 C 122.908 1.82605 2.95419 0
M  V30 1330 C 121.862 2.97835 3.07373 0
M  V30 1331 C 121.188 2.92867 4.47363 0
M  V30 1332 C 122.488 4.38265 2.84114 0
M  V30 1333 H 124.182 2.65267 1.38829 0
M  V30 1334 H 121.728 1.2765 0.666441 0
M  V30 1335 H 123.681 1.96698 3.72677 0
M  V30 1336 H 122.405 0.866858 3.14886 0
M  V30 1337 H 121.064 2.83401 2.3255 0
M  V30 1338 H 120.712 1.94783 4.63755 0
M  V30 1339 H 120.412 3.70227 4.56296 0
M  V30 1340 H 121.936 3.09015 5.26633 0
M  V30 1341 H 123.35 4.53198 3.51118 0
M  V30 1342 H 121.747 5.17115 3.04487 0
M  V30 1343 H 122.817 4.50281 1.7993 0
M  V30 1344 N 124.16 -0.719506 1.40217 0
M  V30 1345 C 125.11 -1.8251 1.36653 0
M  V30 1346 C 126.094 -1.59028 0.244732 0
M  V30 1347 O 127.286 -1.70268 0.483524 0
M  V30 1348 C 124.415 -3.20599 1.22763 0
M  V30 1349 C 123.501 -3.49858 2.39708 0
M  V30 1350 N 123.892 -3.49957 3.6519 0
M  V30 1351 C 122.19 -3.80297 2.33002 0
M  V30 1352 C 122.891 -3.77449 4.42614 0
M  V30 1353 N 121.867 -3.96002 3.72402 0
M  V30 1354 H 125.669 -1.80914 2.31619 0
M  V30 1355 H 123.183 -0.918455 1.33933 0
M  V30 1356 H 125.18 -3.99766 1.18292 0
M  V30 1357 H 123.84 -3.23424 0.287614 0
M  V30 1358 H 124.851 -3.309 3.98404 0
M  V30 1359 H 121.528 -3.90635 1.47346 0
M  V30 1360 H 122.918 -3.83863 5.51451 0
M  V30 1361 N 125.638 -1.25649 -0.95132 0
M  V30 1362 C 126.57 -1.02112 -2.05197 0
M  V30 1363 C 127.583 0.0150571 -1.62793 0
M  V30 1364 O 128.772 -0.223874 -1.77091 0
M  V30 1365 C 125.872 -0.522361 -3.3485 0
M  V30 1366 C 125.045 -1.62546 -4.06076 0
M  V30 1367 C 124.104 -1.12649 -5.14001 0
M  V30 1368 O 123.13 -1.82156 -5.39266 0
M  V30 1369 N 124.332 0.03047 -5.80492 0
M  V30 1370 H 127.097 -1.96885 -2.25957 0
M  V30 1371 H 124.658 -1.16899 -1.1201 0
M  V30 1372 H 126.65 -0.172961 -4.0433 0
M  V30 1373 H 125.22 0.33151 -3.10837 0
M  V30 1374 H 124.44 -2.14628 -3.30649 0
M  V30 1375 H 125.728 -2.36644 -4.50419 0
M  V30 1376 H 125.126 0.611169 -5.62389 0
M  V30 1377 H 123.683 0.320875 -6.5101 0
M  V30 1378 N 127.117 1.15442 -1.07289 0
M  V30 1379 C 128.394 1.82306 -0.708792 0
M  V30 1380 C 128.774 1.94991 0.808807 0
M  V30 1381 O 128.122 1.50085 1.72298 0
M  V30 1382 C 128.332 3.18695 -1.42247 0
M  V30 1383 C 129.68 3.94341 -1.57417 0
M  V30 1384 O 130.704 3.28247 -1.38319 0
M  V30 1385 O 129.563 5.12839 -1.88834 0
M  V30 1386 H 126.657 0.787628 -0.252132 0
M  V30 1387 H 129.203 1.22559 -1.17377 0
M  V30 1388 H 127.975 3.04557 -2.45684 0
M  V30 1389 H 127.598 3.86128 -0.948223 0
M  V30 1390 N 128.595 0.856903 1.32268 0
M  V30 1391 C 129.844 0.457599 1.96441 0
M  V30 1392 C 130.157 -0.992426 1.68553 0
M  V30 1393 O 131.363 -1.49727 2.26482 0
M  V30 1394 C 129.819 0.767358 3.51624 0
M  V30 1395 C 129.427 2.23326 3.88367 0
M  V30 1396 C 131.171 0.435887 4.22256 0
M  V30 1397 C 129.078 2.48613 5.36606 0
M  V30 1398 H 128.008 0.167387 0.735185 0
M  V30 1399 H 130.659 1.048 1.5063 0
M  V30 1400 H 129.041 0.106367 3.95857 0
M  V30 1401 H 130.215 2.93623 3.55137 0
M  V30 1402 H 128.53 2.52948 3.30766 0
M  V30 1403 H 131.127 0.602202 5.31298 0
M  V30 1404 H 131.47 -0.622672 4.11617 0
M  V30 1405 H 132.003 1.05286 3.83614 0
M  V30 1406 H 128.742 3.53101 5.52268 0
M  V30 1407 H 128.262 1.82896 5.71235 0
M  V30 1408 H 129.941 2.32676 6.03714 0
M  V30 1409 N 130.073 -1.45103 0.615059 0
M  V30 1410 C 131.322 -2.01396 0.110718 0
M  V30 1411 C 131.635 -1.48834 -1.26916 0
M  V30 1412 O 132.841 -1.97152 -1.86664 0
M  V30 1413 C 131.297 -3.59599 0.14723 0
M  V30 1414 C 130.905 -4.21158 1.52743 0
M  V30 1415 C 132.649 -4.23428 -0.30148 0
M  V30 1416 C 130.556 -5.71535 1.51992 0
M  V30 1417 H 129.486 -0.753061 0.0376241 0
M  V30 1418 H 132.137 -1.66494 0.77149 0
M  V30 1419 H 130.519 -3.91724 -0.580339 0
M  V30 1420 H 131.693 -4.00594 2.2773 0
M  V30 1421 H 130.008 -3.69552 1.91886 0
M  V30 1422 H 132.605 -5.33703 -0.326392 0
M  V30 1423 H 132.948 -3.94629 -1.32565 0
M  V30 1424 H 133.481 -3.96047 0.373065 0
M  V30 1425 H 130.22 -6.05044 2.52193 0
M  V30 1426 H 129.74 -5.94268 0.81274 0
M  V30 1427 H 131.419 -6.34873 1.24681 0
M  V30 1428 N 131.551 -0.354651 -1.53558 0
M  V30 1429 C 132.498 0.496968 -2.25386 0
M  V30 1430 C 133.468 1.0865 -1.25636 0
M  V30 1431 O 134.653 1.12104 -1.54394 0
M  V30 1432 C 131.793 1.63637 -3.03837 0
M  V30 1433 C 130.906 1.07307 -4.18461 0
M  V30 1434 C 130.041 2.18068 -4.84376 0
M  V30 1435 C 129.08 1.59147 -5.91049 0
M  V30 1436 N 128.217 2.63695 -6.50699 0
M  V30 1437 H 133.057 -0.122075 -2.9775 0
M  V30 1438 H 130.594 -0.0720154 -1.46924 0
M  V30 1439 H 132.552 2.30734 -3.47589 0
M  V30 1440 H 131.182 2.22623 -2.33749 0
M  V30 1441 H 130.234 0.292708 -3.79272 0
M  V30 1442 H 131.546 0.602193 -4.95152 0
M  V30 1443 H 130.7 2.93007 -5.31255 0
M  V30 1444 H 129.439 2.68504 -4.07133 0
M  V30 1445 H 128.444 0.827175 -5.43542 0
M  V30 1446 H 129.669 1.09549 -6.70206 0
M  V30 1447 H 127.615 3.13365 -5.76315 0
M  V30 1448 H 127.532 2.21263 -7.22896 0
M  V30 1449 H 128.8 3.3837 -7.02229 0
M  V30 1450 N 133.029 1.57378 -0.0835403 0
M  V30 1451 C 133.976 2.13384 0.879539 0
M  V30 1452 C 134.946 1.04936 1.28754 0
M  V30 1453 O 136.131 1.32662 1.37133 0
M  V30 1454 C 133.271 2.70932 2.13752 0
M  V30 1455 C 132.384 3.93575 1.7811 0
M  V30 1456 C 131.519 4.39326 2.98607 0
M  V30 1457 C 130.558 5.54587 2.59037 0
M  V30 1458 N 129.695 5.95243 3.72331 0
M  V30 1459 H 134.535 2.9537 0.395076 0
M  V30 1460 H 132.072 1.45953 0.183349 0
M  V30 1461 H 134.03 3.02411 2.87408 0
M  V30 1462 H 132.66 1.91693 2.59718 0
M  V30 1463 H 131.712 3.68483 0.94469 0
M  V30 1464 H 133.024 4.77258 1.45005 0
M  V30 1465 H 132.178 4.72528 3.80529 0
M  V30 1466 H 130.917 3.5452 3.34913 0
M  V30 1467 H 129.922 5.21024 1.75539 0
M  V30 1468 H 131.147 6.41133 2.23887 0
M  V30 1469 H 129.093 5.13385 4.08378 0
M  V30 1470 H 129.01 6.73694 3.43034 0
M  V30 1471 H 130.278 6.33072 4.54797 0
M  V30 1472 N 134.507 -0.190092 1.56449 0
M  V30 1473 C 135.747 -0.916414 1.82705 0
M  V30 1474 C 136.111 -1.80235 0.661763 0
M  V30 1475 O 137.312 -2.56484 0.80433 0
M  V30 1476 C 135.583 -1.70691 3.14005 0
M  V30 1477 S 137.142 -2.48457 3.61683 0
M  V30 1478 H 133.96 -0.307281 0.64117 0
M  V30 1479 H 136.562 -0.179433 1.94675 0
M  V30 1480 H 135.266 -1.04677 3.96826 0
M  V30 1481 H 134.797 -2.48562 3.04927 0
M  V30 1482 H 136.812 -3.72756 3.27517 0
M  V30 1483 N 135.985 -1.50799 -0.457987 0
M  V30 1484 C 136.895 -1.73426 -1.57989 0
M  V30 1485 C 137.911 -0.617745 -1.62665 0
M  V30 1486 O 139.087 -0.897614 -1.80291 0
M  V30 1487 C 136.152 -1.83557 -2.94122 0
M  V30 1488 C 135.213 -3.07345 -2.99729 0
M  V30 1489 C 134.446 -3.16983 -4.29368 0
M  V30 1490 O 134.669 -2.33077 -5.20607 0
M  V30 1491 O 133.603 -4.09812 -4.40837 0
M  V30 1492 H 137.429 -2.68555 -1.41817 0
M  V30 1493 H 135.014 -1.35052 -0.638859 0
M  V30 1494 H 136.896 -1.92326 -3.74952 0
M  V30 1495 H 135.571 -0.916137 -3.10465 0
M  V30 1496 H 134.478 -3.04068 -2.1793 0
M  V30 1497 H 135.811 -3.9891 -2.88326 0
M  V30 1498 N 137.463 0.71206 -1.40597 0
M  V30 1499 C 138.395 1.83704 -1.37061 0
M  V30 1500 C 139.408 1.60453 -0.275426 0
M  V30 1501 O 140.597 1.70262 -0.53602 0
M  V30 1502 C 137.697 3.20172 -1.11099 0
M  V30 1503 C 136.87 3.7059 -2.3234 0
M  V30 1504 C 135.929 4.85681 -2.02485 0
M  V30 1505 O 134.955 4.9815 -2.75382 0
M  V30 1506 N 136.157 5.71735 -1.00497 0
M  V30 1507 H 138.922 1.87235 -2.34016 0
M  V30 1508 H 136.483 0.893739 -1.34996 0
M  V30 1509 H 138.475 3.94768 -0.891064 0
M  V30 1510 H 137.045 3.11767 -0.227989 0
M  V30 1511 H 136.265 2.87085 -2.7014 0
M  V30 1512 H 137.553 4.01011 -3.13157 0
M  V30 1513 H 136.951 5.64275 -0.401298 0
M  V30 1514 H 135.508 6.463 -0.844942 0
M  V30 1515 N 138.941 1.26152 0.944643 0
M  V30 1516 C 140.188 1.11492 1.69044 0
M  V30 1517 C 140.516 -0.342366 1.91463 0
M  V30 1518 O 139.771 -1.26812 1.49054 0
M  V30 1519 C 140.07 1.82541 3.07268 0
M  V30 1520 C 139.736 3.32445 3.04616 0
M  V30 1521 C 138.398 3.73337 3.036 0
M  V30 1522 C 140.75 4.28171 2.97185 0
M  V30 1523 C 138.078 5.08348 2.92915 0
M  V30 1524 C 140.43 5.63218 2.88041 0
M  V30 1525 C 139.094 6.03426 2.85366 0
M  V30 1526 H 138.364 0.407977 0.618576 0
M  V30 1527 H 141.011 1.56551 1.10291 0
M  V30 1528 H 139.316 1.29941 3.69625 0
M  V30 1529 H 141.013 1.68642 3.63815 0
M  V30 1530 H 137.603 2.99915 3.06185 0
M  V30 1531 H 141.787 3.97563 2.97081 0
M  V30 1532 H 137.043 5.38667 2.89219 0
M  V30 1533 H 141.217 6.37078 2.81254 0
M  V30 1534 H 138.844 7.07999 2.76842 0
M  V30 1535 N 140.419 -1.14872 1.07899 0
M  V30 1536 C 141.665 -1.86064 0.806725 0
M  V30 1537 C 141.998 -1.82434 -0.665706 0
M  V30 1538 O 141.273 -1.25138 -1.48899 0
M  V30 1539 C 141.556 -3.34929 1.32267 0
M  V30 1540 C 141.409 -3.47161 2.86006 0
M  V30 1541 C 142.728 -4.29863 0.943717 0
M  V30 1542 H 139.847 -0.675591 0.294526 0
M  V30 1543 H 142.489 -1.34925 1.33773 0
M  V30 1544 H 140.639 -3.78611 0.870974 0
M  V30 1545 H 142.311 -3.12302 3.39507 0
M  V30 1546 H 140.554 -2.88539 3.23925 0
M  V30 1547 H 141.225 -4.51777 3.17177 0
M  V30 1548 H 143.701 -3.9417 1.33302 0
M  V30 1549 H 142.577 -5.32494 1.33198 0
M  V30 1550 H 142.838 -4.41846 -0.149796 0
M  V30 1551 N 141.898 -0.863906 -1.31812 0
M  V30 1552 C 143.146 -0.470904 -1.96537 0
M  V30 1553 C 143.467 0.978771 -1.68657 0
M  V30 1554 O 142.737 1.6853 -0.998717 0
M  V30 1555 H 141.317 -0.171148 -0.72713 0
M  V30 1556 H 143.979 -1.10236 -1.60729 0
M  V30 1557 H 143.075 -0.623616 -3.05806 0
M  V30 1558 N 143.376 1.44774 -0.622745 0
M  V30 1559 C 144.787 1.85546 -0.207226 0
M  V30 1560 C 145.138 1.52093 1.23944 0
M  V30 1561 O 144.263 0.95492 1.94191 0
M  V30 1562 C 144.858 3.36781 -0.369313 0
M  V30 1563 C 143.417 3.76399 -0.00836847 0
M  V30 1564 C 142.564 2.68664 -0.686651 0
M  V30 1565 H 145.515 1.3536 -0.828454 0
M  V30 1566 H 145.536 3.78453 0.394162 0
M  V30 1567 H 145.048 3.61098 -1.42231 0
M  V30 1568 H 143.149 3.57698 1.04322 0
M  V30 1569 H 143.262 4.7732 -0.412584 0
M  V30 1570 H 141.626 2.54404 -0.122777 0
M  V30 1571 H 142.409 2.95815 -1.74208 0
M  V30 1572 N 144.854 0.36279 1.53368 0
M  V30 1573 C 145.784 -0.476976 2.28576 0
M  V30 1574 C 146.765 -1.08631 1.30894 0
M  V30 1575 O 147.95 -1.10409 1.59761 0
M  V30 1576 C 145.08 -1.61828 3.07293 0
M  V30 1577 C 144.034 -1.13633 4.1264 0
M  V30 1578 C 143.36 -2.36766 4.79423 0
M  V30 1579 C 144.66 -0.223061 5.21823 0
M  V30 1580 H 146.354 0.150474 2.99022 0
M  V30 1581 H 143.9 0.0738103 1.43811 0
M  V30 1582 H 145.853 -2.21237 3.58653 0
M  V30 1583 H 144.577 -2.27292 2.34533 0
M  V30 1584 H 143.236 -0.564945 3.62221 0
M  V30 1585 H 142.884 -3.0068 4.03238 0
M  V30 1586 H 142.584 -2.05192 5.50609 0
M  V30 1587 H 144.108 -2.96865 5.33576 0
M  V30 1588 H 145.522 -0.724545 5.68703 0
M  V30 1589 H 143.919 0.001678 6.001 0
M  V30 1590 H 144.989 0.735553 4.79289 0
M  V30 1591 N 146.332 -1.57332 0.0918853 0
M  V30 1592 C 147.56 -1.98574 -0.581048 0
M  V30 1593 C 147.975 -0.970903 -1.61923 0
M  V30 1594 O 147.332 0.0399054 -1.82456 0
M  V30 1595 C 147.383 -3.39872 -1.23164 0
M  V30 1596 O 147.104 -4.37469 -0.234989 0
M  V30 1597 C 148.605 -3.96099 -1.99049 0
M  V30 1598 H 145.825 -0.65261 -0.156018 0
M  V30 1599 H 148.369 -2.0379 0.170225 0
M  V30 1600 H 146.524 -3.35679 -1.93386 0
M  V30 1601 H 146.938 -5.19751 -0.70418 0
M  V30 1602 H 148.412 -4.97127 -2.39934 0
M  V30 1603 H 148.889 -3.3374 -2.85507 0
M  V30 1604 H 149.495 -4.03755 -1.3365 0
M  V30 1605 N 147.81 0.181792 -1.56548 0
M  V30 1606 C 149.056 0.901431 -1.81665 0
M  V30 1607 C 149.389 1.82347 -0.668075 0
M  V30 1608 O 148.664 1.91669 0.330615 0
M  V30 1609 C 148.947 1.70618 -3.17115 0
M  V30 1610 C 148.8 0.807964 -4.42484 0
M  V30 1611 C 150.119 2.67605 -3.49393 0
M  V30 1612 H 147.238 0.32627 -0.660846 0
M  V30 1613 H 149.88 0.168134 -1.89255 0
M  V30 1614 H 148.03 2.33133 -3.10775 0
M  V30 1615 H 149.702 0.19649 -4.60881 0
M  V30 1616 H 147.945 0.115411 -4.33646 0
M  V30 1617 H 148.616 1.40632 -5.33785 0
M  V30 1618 H 151.092 2.15218 -3.56118 0
M  V30 1619 H 149.968 3.20985 -4.45264 0
M  V30 1620 H 150.229 3.47298 -2.73563 0
M  V30 1621 N 149.288 1.51039 0.449983 0
M  V30 1622 C 150.236 1.71995 1.5659 0
M  V30 1623 C 151.23 0.586029 1.5894 0
M  V30 1624 O 152.436 0.76709 1.62837 0
M  V30 1625 H 148.811 0.543233 0.520001 0
M  V30 1626 H 150.782 2.65562 1.36085 0
M  V30 1627 C 149.531 1.8506 2.9436 0
M  V30 1628 H 148.854 2.71712 2.93279 0
M  V30 1629 H 150.294 2.0374 3.71842 0
M  V30 1630 C 148.753 0.607277 3.31382 0
M  V30 1631 O 149.283 -0.243903 4.00959 0
M  V30 1632 N 147.489 0.455073 2.87015 0
M  V30 1633 H 147.036 1.14879 2.30566 0
M  V30 1634 H 146.994 -0.375611 3.12148 0
M  V30 1635 N 150.766 -0.704594 1.40972 0
M  V30 1636 C 151.676 -1.84856 1.44448 0
M  V30 1637 C 152.692 -1.70726 0.335961 0
M  V30 1638 O 153.868 -1.92799 0.582276 0
M  V30 1639 C 150.933 -3.20758 1.31587 0
M  V30 1640 C 149.994 -3.47063 2.52677 0
M  V30 1641 C 149.227 -4.76481 2.4042 0
M  V30 1642 O 149.45 -5.52341 1.42391 0
M  V30 1643 O 148.384 -5.03367 3.30007 0
M  V30 1644 H 152.21 -1.8488 2.40942 0
M  V30 1645 H 149.795 -0.85647 1.22413 0
M  V30 1646 H 151.677 -4.01913 1.26665 0
M  V30 1647 H 150.352 -3.21438 0.382049 0
M  V30 1648 H 149.259 -2.65873 2.63177 0
M  V30 1649 H 150.592 -3.5119 3.44858 0
M  V30 1650 N 152.244 -1.26651 -0.937939 0
M  V30 1651 C 153.191 -1.0849 -2.03712 0
M  V30 1652 C 154.161 0.011033 -1.66096 0
M  V30 1653 O 155.346 -0.149353 -1.90215 0
M  V30 1654 C 152.486 -0.72735 -3.37348 0
M  V30 1655 C 151.599 -1.89986 -3.87981 0
M  V30 1656 C 150.734 -1.48513 -5.10017 0
M  V30 1657 C 149.773 -2.62575 -5.5292 0
M  V30 1658 N 148.91 -2.21762 -6.66158 0
M  V30 1659 H 153.75 -2.02551 -2.18579 0
M  V30 1660 H 151.287 -1.00844 -1.07093 0
M  V30 1661 H 153.245 -0.50092 -4.14182 0
M  V30 1662 H 151.875 0.176298 -3.22318 0
M  V30 1663 H 150.927 -2.23913 -3.07518 0
M  V30 1664 H 152.239 -2.75586 -4.15757 0
M  V30 1665 H 151.393 -1.21934 -5.94321 0
M  V30 1666 H 150.132 -0.60009 -4.83994 0
M  V30 1667 H 149.137 -2.8988 -4.67172 0
M  V30 1668 H 150.362 -3.51685 -5.80943 0
M  V30 1669 H 148.308 -1.35696 -6.41812 0
M  V30 1670 H 148.225 -3.00903 -6.93537 0
M  V30 1671 H 149.493 -1.98403 -7.53828 0
M  V30 1672 N 153.722 1.14298 -1.08507 0
M  V30 1673 C 155.138 1.37347 -0.812901 0
M  V30 1674 C 155.338 1.93052 0.577325 0
M  V30 1675 O 154.394 2.14389 1.33393 0
M  V30 1676 C 155.707 2.33359 -1.89642 0
M  V30 1677 C 157.255 2.46996 -1.92255 0
M  V30 1678 C 157.73 3.46309 -2.99724 0
M  V30 1679 N 159.221 3.53853 -2.98902 0
M  V30 1680 C 159.956 4.3055 -3.787 0
M  V30 1681 N 159.452 5.10482 -4.6838 0
M  V30 1682 N 161.245 4.25757 -3.66998 0
M  V30 1683 H 153.396 0.764867 -1.9815 0
M  V30 1684 H 155.659 0.398966 -0.859959 0
M  V30 1685 H 155.365 1.99565 -2.89597 0
M  V30 1686 H 155.239 3.33274 -1.76659 0
M  V30 1687 H 157.626 2.80081 -0.929445 0
M  V30 1688 H 157.707 1.47039 -2.09316 0
M  V30 1689 H 157.351 3.13957 -3.99241 0
M  V30 1690 H 157.281 4.46049 -2.79907 0
M  V30 1691 H 159.772 2.96812 -2.33904 0
M  V30 1692 H 160.085 5.66284 -5.25873 0
M  V30 1693 H 158.43 5.09747 -4.72422 0
M  V30 1694 H 161.621 3.62383 -2.96304 0
M  V30 1695 H 161.794 4.85279 -4.29427 0
M  V30 1696 N 155.201 0.870884 1.31352 0
M  V30 1697 C 156.617 0.562932 1.49343 0
M  V30 1698 C 156.817 -0.902725 1.80148 0
M  V30 1699 O 155.873 -1.68484 1.88067 0
M  V30 1700 C 157.186 1.46393 2.62659 0
M  V30 1701 C 158.734 1.46607 2.76542 0
M  V30 1702 C 159.209 2.35266 3.92955 0
M  V30 1703 N 160.7 2.33151 4.00243 0
M  V30 1704 C 161.435 2.98471 4.89594 0
M  V30 1705 N 160.931 3.72964 5.8384 0
M  V30 1706 N 162.724 2.87775 4.82848 0
M  V30 1707 H 154.875 1.81923 1.09626 0
M  V30 1708 H 157.138 0.777934 0.541777 0
M  V30 1709 H 156.844 2.50689 2.46674 0
M  V30 1710 H 156.718 1.16314 3.58819 0
M  V30 1711 H 159.105 0.43069 2.9194 0
M  V30 1712 H 159.186 1.8071 1.81046 0
M  V30 1713 H 158.83 3.38881 3.78315 0
M  V30 1714 H 158.76 1.98487 4.87761 0
M  V30 1715 H 161.251 1.79006 3.32814 0
M  V30 1716 H 161.564 4.19932 6.4875 0
M  V30 1717 H 159.909 3.77073 5.83816 0
M  V30 1718 H 163.1 2.29116 4.08195 0
M  V30 1719 H 163.273 3.38961 5.52277 0
M  V30 1720 N 156.679 -1.44442 0.630414 0
M  V30 1721 C 157.609 -2.33418 -0.0618083 0
M  V30 1722 C 158.59 -1.48165 -0.835541 0
M  V30 1723 O 159.775 -1.76886 -0.801564 0
M  V30 1724 C 156.905 -3.31222 -1.04449 0
M  V30 1725 C 155.859 -4.26288 -0.382436 0
M  V30 1726 C 155.185 -5.13954 -1.47497 0
M  V30 1727 C 156.485 -5.1744 0.710865 0
M  V30 1728 H 158.179 -2.91548 0.681184 0
M  V30 1729 H 155.725 -1.40191 0.329026 0
M  V30 1730 H 157.678 -3.92351 -1.53748 0
M  V30 1731 H 156.402 -2.71299 -1.81836 0
M  V30 1732 H 155.061 -3.6649 0.0899054 0
M  V30 1733 H 154.709 -4.50385 -2.2397 0
M  V30 1734 H 154.409 -5.7837 -1.03737 0
M  V30 1735 H 155.933 -5.77955 -1.96979 0
M  V30 1736 H 157.347 -5.72509 0.300996 0
M  V30 1737 H 155.744 -5.90455 1.07156 0
M  V30 1738 H 156.814 -4.58496 1.57829 0
M  V30 1739 N 158.157 -0.370918 -1.53173 0
M  V30 1740 C 159.089 0.507823 -2.23503 0
M  V30 1741 C 160.102 1.04182 -1.251 0
M  V30 1742 O 161.291 0.947286 -1.5129 0
M  V30 1743 C 158.391 1.71447 -2.92334 0
M  V30 1744 C 157.564 1.31105 -4.17289 0
M  V30 1745 C 156.623 2.38035 -4.69282 0
M  V30 1746 O 155.649 2.00204 -5.32829 0
M  V30 1747 N 156.851 3.69697 -4.47554 0
M  V30 1748 H 159.616 -0.0946382 -2.99551 0
M  V30 1749 H 157.177 -0.196358 -1.60705 0
M  V30 1750 H 159.169 2.42469 -3.24023 0
M  V30 1751 H 157.739 2.22368 -2.19707 0
M  V30 1752 H 156.959 0.430462 -3.91843 0
M  V30 1753 H 158.247 1.0179 -4.98514 0
M  V30 1754 H 157.645 4.03205 -3.9679 0
M  V30 1755 H 156.202 4.36807 -4.8378 0
M  V30 1756 N 159.635 1.57281 -0.100228 0
M  V30 1757 C 160.565 2.17328 0.853857 0
M  V30 1758 C 161.546 1.10804 1.2906 0
M  V30 1759 O 162.731 1.38963 1.35657 0
M  V30 1760 C 159.861 2.75772 2.11109 0
M  V30 1761 C 158.815 3.87713 1.81279 0
M  V30 1762 C 158.141 4.32882 3.13874 0
M  V30 1763 C 159.441 5.10677 1.09574 0
M  V30 1764 H 161.135 2.97305 0.353545 0
M  V30 1765 H 158.681 1.43009 0.168612 0
M  V30 1766 H 160.634 3.16433 2.78296 0
M  V30 1767 H 159.358 1.93057 2.63432 0
M  V30 1768 H 158.017 3.476 1.16489 0
M  V30 1769 H 157.665 3.47051 3.64095 0
M  V30 1770 H 157.365 5.08358 2.94696 0
M  V30 1771 H 158.889 4.7618 3.82211 0
M  V30 1772 H 160.303 5.48474 1.66879 0
M  V30 1773 H 158.7 5.91615 1.00557 0
M  V30 1774 H 159.77 4.84835 0.0793299 0
M  V30 1775 N 161.113 -0.173488 1.56642 0
M  V30 1776 C 162.362 -0.888758 1.81063 0
M  V30 1777 C 162.675 -1.83506 0.67712 0
M  V30 1778 O 163.881 -2.59254 0.806206 0
M  V30 1779 C 162.337 -1.63091 3.20826 0
M  V30 1780 C 161.945 -0.728357 4.4204 0
M  V30 1781 C 163.689 -2.33454 3.54541 0
M  V30 1782 C 161.596 -1.47062 5.72823 0
M  V30 1783 H 160.526 -0.335618 0.675186 0
M  V30 1784 H 163.177 -0.141712 1.82952 0
M  V30 1785 H 161.559 -2.42263 3.13248 0
M  V30 1786 H 162.733 0.0262449 4.60793 0
M  V30 1787 H 161.048 -0.134492 4.16183 0
M  V30 1788 H 163.645 -2.89578 4.49498 0
M  V30 1789 H 163.988 -3.08687 2.79317 0
M  V30 1790 H 164.521 -1.61227 3.63663 0
M  V30 1791 H 161.26 -0.760658 6.51072 0
M  V30 1792 H 160.78 -2.1986 5.58052 0
M  V30 1793 H 162.459 -2.01868 6.14702 0
M  V30 1794 N 162.591 -1.51276 -0.441967 0
M  V30 1795 C 163.524 -1.66933 -1.55591 0
M  V30 1796 C 164.502 -0.516958 -1.54163 0
M  V30 1797 O 165.686 -0.740209 -1.73358 0
M  V30 1798 C 162.813 -1.67866 -2.94174 0
M  V30 1799 C 161.859 -2.89013 -3.13646 0
M  V30 1800 S 162.692 -4.49897 -2.90436 0
M  V30 1801 C 163.848 -4.53568 -4.31308 0
M  V30 1802 H 164.081 -2.61155 -1.42076 0
M  V30 1803 H 161.614 -1.40902 -0.631341 0
M  V30 1804 H 163.572 -1.69089 -3.74058 0
M  V30 1805 H 162.233 -0.748296 -3.05056 0
M  V30 1806 H 161.426 -2.86054 -4.14957 0
M  V30 1807 H 161.028 -2.85509 -2.4158 0
M  V30 1808 H 163.32 -4.28924 -5.24434 0
M  V30 1809 H 164.263 -5.55355 -4.39303 0
M  V30 1810 H 164.671 -3.82943 -4.14747 0
M  V30 1811 N 164.069 0.697108 -1.41344 0
M  V30 1812 C 165.48 1.27697 -1.36199 0
M  V30 1813 C 165.831 1.9615 -0.0443463 0
M  V30 1814 O 164.956 1.98689 0.857419 0
M  V30 1815 C 165.551 2.32223 -2.46694 0
M  V30 1816 C 164.11 2.8579 -2.44952 0
M  V30 1817 C 163.257 1.59807 -2.26621 0
M  V30 1818 H 166.208 0.491968 -1.50882 0
M  V30 1819 H 166.229 3.1348 -2.15664 0
M  V30 1820 H 165.741 1.82373 -3.42581 0
M  V30 1821 H 163.842 3.3982 -1.52817 0
M  V30 1822 H 163.955 3.36325 -3.41207 0
M  V30 1823 H 162.319 1.8556 -1.7447 0
M  V30 1824 H 163.102 1.11956 -3.24532 0
M  V30 1825 N 165.547 1.27147 0.931209 0
M  V30 1826 C 166.51 1.09615 2.01289 0
M  V30 1827 C 167.51 0.0412581 1.60747 0
M  V30 1828 O 168.7 0.285545 1.71844 0
M  V30 1829 C 165.832 0.669447 3.34262 0
M  V30 1830 H 167.025 2.05662 2.18273 0
M  V30 1831 H 164.578 1.09885 1.11153 0
M  V30 1832 H 165.313 -0.292572 3.22978 0
M  V30 1833 H 165.098 1.43127 3.65044 0
M  V30 1834 H 166.588 0.568921 4.13706 0
M  V30 1835 N 167.025 -1.13721 1.09112 0
M  V30 1836 C 168.441 -1.36914 0.820174 0
M  V30 1837 C 168.641 -1.93356 -0.567079 0
M  V30 1838 O 167.697 -2.15093 -1.32255 0
M  V30 1839 C 169.01 -2.3235 1.90877 0
M  V30 1840 C 170.558 -2.45973 1.93562 0
M  V30 1841 C 171.033 -3.44714 3.01556 0
M  V30 1842 N 172.524 -3.52263 3.00775 0
M  V30 1843 C 173.259 -4.28536 3.80978 0
M  V30 1844 N 172.755 -5.07991 4.71081 0
M  V30 1845 N 174.548 -4.23804 3.69251 0
M  V30 1846 H 166.699 -0.754348 1.98553 0
M  V30 1847 H 168.962 -0.3944 0.862063 0
M  V30 1848 H 168.668 -1.98027 2.90651 0
M  V30 1849 H 168.542 -3.32332 1.78424 0
M  V30 1850 H 170.929 -2.79584 0.944286 0
M  V30 1851 H 171.01 -1.45926 2.10093 0
M  V30 1852 H 170.654 -3.11835 4.00901 0
M  V30 1853 H 170.584 -4.44558 2.82269 0
M  V30 1854 H 173.075 -2.95567 2.35475 0
M  V30 1855 H 173.388 -5.63487 5.28869 0
M  V30 1856 H 171.733 -5.07235 4.75119 0
M  V30 1857 H 174.924 -3.60806 2.98222 0
M  V30 1858 H 175.097 -4.82995 4.31995 0
M  V30 1859 N 168.503 -0.877838 -1.30888 0
M  V30 1860 C 169.75 -0.492696 -1.96415 0
M  V30 1861 C 170.078 0.956671 -1.69346 0
M  V30 1862 O 169.333 1.68993 -0.986913 0
M  V30 1863 C 169.632 -0.705748 -3.50363 0
M  V30 1864 C 169.298 -2.1291 -3.97467 0
M  V30 1865 C 167.96 -2.51834 -4.1004 0
M  V30 1866 C 170.312 -3.05702 -4.22132 0
M  V30 1867 C 167.64 -3.82775 -4.44635 0
M  V30 1868 C 169.992 -4.36166 -4.58194 0
M  V30 1869 C 168.656 -4.74993 -4.68975 0
M  V30 1870 H 167.926 -0.18029 -0.718733 0
M  V30 1871 H 170.573 -1.11233 -1.55883 0
M  V30 1872 H 168.878 -0.00303058 -3.918 0
M  V30 1873 H 170.575 -0.387456 -3.99124 0
M  V30 1874 H 167.165 -1.81694 -3.88182 0
M  V30 1875 H 171.349 -2.76853 -4.11906 0
M  V30 1876 H 166.605 -4.12609 -4.51181 0
M  V30 1877 H 170.779 -5.08111 -4.76231 0
M  V30 1878 H 168.406 -5.76495 -4.95537 0
M  V30 1879 N 169.982 1.44106 -0.638065 0
M  V30 1880 C 171.212 2.06037 -0.152394 0
M  V30 1881 C 171.62 1.47808 1.18108 0
M  V30 1882 O 170.963 0.598092 1.73691 0
M  V30 1883 C 171.025 3.59488 0.0293714 0
M  V30 1884 C 170.689 4.4022 -1.22702 0
M  V30 1885 C 171.686 4.73256 -2.15232 0
M  V30 1886 C 169.371 4.8048 -1.46437 0
M  V30 1887 C 171.365 5.45444 -3.29802 0
M  V30 1888 C 169.052 5.52417 -2.61303 0
M  V30 1889 C 170.05 5.84819 -3.52811 0
M  V30 1890 O 169.738 6.55289 -4.65673 0
M  V30 1891 H 169.47 0.671233 -0.0801401 0
M  V30 1892 H 172.024 1.85851 -0.874563 0
M  V30 1893 H 170.254 3.78191 0.806758 0
M  V30 1894 H 171.943 4.03164 0.470475 0
M  V30 1895 H 172.709 4.42684 -1.98131 0
M  V30 1896 H 168.588 4.54676 -0.760977 0
M  V30 1897 H 172.132 5.70653 -4.01249 0
M  V30 1898 H 168.029 5.82404 -2.78344 0
M  V30 1899 H 168.797 6.73762 -4.64744 0
M  V30 1900 N 171.46 0.379036 1.52974 0
M  V30 1901 C 172.871 -0.0972525 1.86447 0
M  V30 1902 C 173.222 -1.47027 1.29914 0
M  V30 1903 O 172.347 -2.07135 0.626433 0
M  V30 1904 C 172.942 -0.183248 3.38304 0
M  V30 1905 C 171.501 -0.603812 3.71525 0
M  V30 1906 C 170.648 0.240632 2.76254 0
M  V30 1907 H 173.599 0.597316 1.4703 0
M  V30 1908 H 173.62 -1.00432 3.67006 0
M  V30 1909 H 173.132 0.816191 3.79421 0
M  V30 1910 H 171.233 -1.61099 3.35973 0
M  V30 1911 H 171.346 -0.369086 4.77676 0
M  V30 1912 H 169.71 -0.292548 2.53014 0
M  V30 1913 H 170.493 1.23786 3.20206 0
M  V30 1914 N 172.938 -1.57226 0.108567 0
M  V30 1915 C 173.885 -2.14756 -0.845481 0
M  V30 1916 C 174.855 -1.06971 -1.27068 0
M  V30 1917 O 176.04 -1.34827 -1.35005 0
M  V30 1918 C 173.18 -2.74298 -2.09415 0
M  V30 1919 C 172.293 -3.96358 -1.71826 0
M  V30 1920 C 171.428 -4.44021 -2.9158 0
M  V30 1921 C 170.467 -5.58637 -2.50181 0
M  V30 1922 N 169.604 -6.01091 -3.62814 0
M  V30 1923 H 174.444 -2.95961 -0.348035 0
M  V30 1924 H 171.981 -1.46226 -0.160106 0
M  V30 1925 H 173.939 -3.06945 -2.82561 0
M  V30 1926 H 172.569 -1.95801 -2.56636 0
M  V30 1927 H 171.621 -3.69939 -0.885947 0
M  V30 1928 H 172.933 -4.79504 -1.37394 0
M  V30 1929 H 172.087 -4.78522 -3.72963 0
M  V30 1930 H 170.826 -3.59803 -3.29231 0
M  V30 1931 H 169.831 -5.23751 -1.67228 0
M  V30 1932 H 171.056 -6.44613 -2.13659 0
M  V30 1933 H 169.002 -5.19817 -4.00158 0
M  V30 1934 H 168.919 -6.79066 -3.32273 0
M  V30 1935 H 170.187 -6.40227 -4.44668 0
M  V30 1936 N 174.416 0.165178 -1.56732 0
M  V30 1937 C 175.662 0.882112 -1.82611 0
M  V30 1938 C 175.995 1.81628 -0.687378 0
M  V30 1939 O 175.27 1.92009 0.310267 0
M  V30 1940 C 175.553 1.67245 -3.18906 0
M  V30 1941 C 175.406 0.760987 -4.43316 0
M  V30 1942 C 176.725 2.63884 -3.52212 0
M  V30 1943 H 173.844 0.319242 -0.664269 0
M  V30 1944 H 176.486 0.148052 -1.89422 0
M  V30 1945 H 174.636 2.29824 -3.1323 0
M  V30 1946 H 176.308 0.147596 -4.61064 0
M  V30 1947 H 174.551 0.0694102 -4.33744 0
M  V30 1948 H 175.222 1.34962 -5.35247 0
M  V30 1949 H 177.698 2.11429 -3.58381 0
M  V30 1950 H 176.574 3.16245 -4.48643 0
M  V30 1951 H 176.835 3.44377 -2.77231 0
M  V30 1952 N 175.894 1.51508 0.433938 0
M  V30 1953 C 177.122 1.68157 1.20543 0
M  V30 1954 C 177.537 0.380362 1.84929 0
M  V30 1955 O 176.894 -0.641446 1.70856 0
M  V30 1956 C 176.945 2.79965 2.28696 0
M  V30 1957 O 176.666 4.05045 1.66943 0
M  V30 1958 C 178.167 3.07912 3.18912 0
M  V30 1959 H 175.387 0.56421 0.363191 0
M  V30 1960 H 177.931 1.97941 0.513754 0
M  V30 1961 H 176.086 2.5277 2.93574 0
M  V30 1962 H 176.5 4.67165 2.38448 0
M  V30 1963 H 177.974 3.89719 3.90926 0
M  V30 1964 H 178.451 2.20456 3.79863 0
M  V30 1965 H 179.057 3.36779 2.59731 0
M  V30 1966 N 177.372 -0.689602 1.41712 0
M  V30 1967 C 178.319 -1.80345 1.44029 0
M  V30 1968 C 179.289 -1.63478 0.293948 0
M  V30 1969 O 180.474 -1.84244 0.495869 0
M  V30 1970 C 177.614 -3.18272 1.33405 0
M  V30 1971 C 176.727 -3.46529 2.57956 0
M  V30 1972 C 175.862 -4.74103 2.39582 0
M  V30 1973 C 174.901 -4.95347 3.5958 0
M  V30 1974 N 174.038 -6.14151 3.40239 0
M  V30 1975 H 178.878 -1.77698 2.39222 0
M  V30 1976 H 176.415 -0.867688 1.18784 0
M  V30 1977 H 178.373 -3.97956 1.25246 0
M  V30 1978 H 177.003 -3.2008 0.418164 0
M  V30 1979 H 176.055 -2.61207 2.76542 0
M  V30 1980 H 177.367 -3.58126 3.47199 0
M  V30 1981 H 176.521 -5.61853 2.28924 0
M  V30 1982 H 175.26 -4.64763 1.47805 0
M  V30 1983 H 174.265 -4.06044 3.70686 0
M  V30 1984 H 175.49 -5.06542 4.52318 0
M  V30 1985 H 173.436 -6.06013 2.51167 0
M  V30 1986 H 173.353 -6.26543 4.23061 0
M  V30 1987 H 174.621 -7.04619 3.33365 0
M  V30 1988 N 178.85 -1.27639 -0.924453 0
M  V30 1989 C 180.08 -1.16819 -1.70402 0
M  V30 1990 C 180.488 0.277191 -1.87158 0
M  V30 1991 O 179.831 1.20025 -1.39067 0
M  V30 1992 C 179.893 -1.78305 -3.12166 0
M  V30 1993 C 179.557 -3.27502 -3.18734 0
M  V30 1994 C 180.554 -4.2409 -3.00738 0
M  V30 1995 C 178.239 -3.68269 -3.4159 0
M  V30 1996 C 180.233 -5.59422 -3.05492 0
M  V30 1997 C 177.92 -5.0373 -3.45977 0
M  V30 1998 C 178.918 -5.99116 -3.27946 0
M  V30 1999 O 178.606 -7.32108 -3.32074 0
M  V30 2000 H 178.338 -0.406931 -0.539799 0
M  V30 2001 H 180.892 -1.69078 -1.16626 0
M  V30 2002 H 179.122 -1.20528 -3.67437 0
M  V30 2003 H 180.811 -1.62154 -3.72103 0
M  V30 2004 H 181.577 -3.93931 -2.82919 0
M  V30 2005 H 177.456 -2.94496 -3.54673 0
M  V30 2006 H 181 -6.33852 -2.91337 0
M  V30 2007 H 176.897 -5.33543 -3.63321 0
M  V30 2008 H 177.665 -7.40598 -3.48507 0
M  V30 2009 N 180.328 1.1314 -1.09713 0
M  V30 2010 C 181.258 2.20748 -0.761102 0
M  V30 2011 C 182.239 1.68061 0.262566 0
M  V30 2012 O 183.424 1.93765 0.129977 0
M  V30 2013 C 180.554 3.46812 -0.184054 0
M  V30 2014 C 179.508 4.12606 -1.13757 0
M  V30 2015 C 178.834 5.33031 -0.422083 0
M  V30 2016 C 180.134 4.59603 -2.48118 0
M  V30 2017 H 181.828 2.49113 -1.66082 0
M  V30 2018 H 179.374 1.19734 -0.799987 0
M  V30 2019 H 181.327 4.21353 0.0631215 0
M  V30 2020 H 180.051 3.17851 0.750868 0
M  V30 2021 H 178.71 3.40036 -1.37007 0
M  V30 2022 H 178.358 5.00335 0.517072 0
M  V30 2023 H 178.058 5.77999 -1.05788 0
M  V30 2024 H 179.582 6.10325 -0.183277 0
M  V30 2025 H 180.996 5.25552 -2.29059 0
M  V30 2026 H 179.393 5.15321 -3.07514 0
M  V30 2027 H 180.463 3.73971 -3.08665 0
M  V30 2028 N 181.806 0.884767 1.30421 0
M  V30 2029 C 183.217 0.553656 1.78302 0
M  V30 2030 C 183.568 -0.930153 1.7275 0
M  V30 2031 O 182.693 -1.72681 1.30423 0
M  V30 2032 C 183.288 0.998234 3.2376 0
M  V30 2033 C 181.847 0.71854 3.69478 0
M  V30 2034 C 180.994 1.18132 2.50879 0
M  V30 2035 H 183.945 1.06901 1.17294 0
M  V30 2036 H 183.966 0.327118 3.79091 0
M  V30 2037 H 183.478 2.0782 3.27769 0
M  V30 2038 H 181.579 -0.349444 3.70958 0
M  V30 2039 H 181.692 1.30595 4.60958 0
M  V30 2040 H 180.056 0.600669 2.47516 0
M  V30 2041 H 180.839 2.26902 2.57624 0
M  V30 2042 N 183.284 -1.43765 0.645699 0
M  V30 2043 C 184.214 -2.33471 -0.0370477 0
M  V30 2044 C 185.195 -1.49042 -0.819779 0
M  V30 2045 O 186.38 -1.77726 -0.782758 0
M  V30 2046 C 183.51 -3.32311 -1.0093 0
M  V30 2047 C 182.464 -4.2667 -0.337201 0
M  V30 2048 C 181.79 -5.1549 -1.42037 0
M  V30 2049 C 183.09 -5.16657 0.765706 0
M  V30 2050 H 184.784 -2.90809 0.712069 0
M  V30 2051 H 182.33 -1.39834 0.343876 0
M  V30 2052 H 184.283 -3.9396 -1.49578 0
M  V30 2053 H 183.007 -2.73213 -1.78948 0
M  V30 2054 H 181.666 -3.66374 0.128771 0
M  V30 2055 H 181.314 -4.52735 -2.1918 0
M  V30 2056 H 181.014 -5.79438 -0.975966 0
M  V30 2057 H 182.538 -5.80012 -1.90838 0
M  V30 2058 H 183.952 -5.72158 0.361702 0
M  V30 2059 H 182.349 -5.89286 1.13413 0
M  V30 2060 H 183.419 -4.56796 1.62683 0
M  V30 2061 N 184.763 -0.387143 -1.52771 0
M  V30 2062 C 186.04 0.253197 -1.93954 0
M  V30 2063 C 186.42 1.64545 -1.32243 0
M  V30 2064 O 185.768 2.23191 -0.489699 0
M  V30 2065 C 185.978 0.281722 -3.47861 0
M  V30 2066 C 187.326 0.511715 -4.21505 0
M  V30 2067 O 188.35 0.362023 -3.54356 0
M  V30 2068 O 187.209 0.804847 -5.40541 0
M  V30 2069 H 184.303 0.156845 -0.811991 0
M  V30 2070 H 186.849 -0.441494 -1.63856 0
M  V30 2071 H 185.621 -0.693571 -3.85104 0
M  V30 2072 H 185.244 1.02142 -3.84256 0
M  V30 2073 N 186.241 1.57166 -0.116904 0
M  V30 2074 C 187.188 2.15202 0.83408 0
M  V30 2075 C 188.158 1.07644 1.26499 0
M  V30 2076 O 189.343 1.35541 1.34288 0
M  V30 2077 C 186.483 2.75405 2.07957 0
M  V30 2078 C 185.596 3.97264 1.69721 0
M  V30 2079 C 184.731 4.45561 2.89221 0
M  V30 2080 C 183.77 5.59956 2.47215 0
M  V30 2081 N 182.907 6.03006 3.59622 0
M  V30 2082 H 187.747 2.96141 0.332335 0
M  V30 2083 H 185.284 1.46309 0.152349 0
M  V30 2084 H 187.242 3.08439 2.80929 0
M  V30 2085 H 185.872 1.97159 2.55594 0
M  V30 2086 H 184.924 3.70404 0.866316 0
M  V30 2087 H 186.236 4.80226 1.34849 0
M  V30 2088 H 185.39 4.80493 3.7042 0
M  V30 2089 H 184.129 3.61544 3.27318 0
M  V30 2090 H 183.134 5.2463 1.64448 0
M  V30 2091 H 184.359 6.45738 2.10238 0
M  V30 2092 H 182.305 5.21931 3.97396 0
M  V30 2093 H 182.222 6.80819 3.28667 0
M  V30 2094 H 183.49 6.42576 4.41267 0
M  V30 2095 N 187.719 -0.156864 1.56817 0
M  V30 2096 C 188.967 -0.869404 1.82444 0
M  V30 2097 C 189.288 -1.82147 0.69623 0
M  V30 2098 O 188.558 -1.93847 -0.28287 0
M  V30 2099 H 187.138 -0.324043 0.673056 0
M  V30 2100 H 189.8 -0.153224 1.94297 0
M  V30 2101 H 188.896 -1.43761 2.77019 0
M  V30 2102 N 189.197 -1.51736 -0.425897 0
M  V30 2103 C 190.446 -1.64201 -1.17136 0
M  V30 2104 C 190.759 -0.369705 -1.92074 0
M  V30 2105 O 191.965 -0.373898 -2.68913 0
M  V30 2106 C 190.421 -2.90035 -2.13091 0
M  V30 2107 C 190.029 -4.24312 -1.43747 0
M  V30 2108 C 191.773 -3.1186 -2.87999 0
M  V30 2109 C 189.68 -5.41285 -2.38253 0
M  V30 2110 H 188.61 -0.611624 -0.440944 0
M  V30 2111 H 191.261 -1.78212 -0.437328 0
M  V30 2112 H 189.643 -2.69684 -2.89977 0
M  V30 2113 H 190.817 -4.55086 -0.723408 0
M  V30 2114 H 189.132 -4.08456 -0.809465 0
M  V30 2115 H 191.729 -3.96427 -3.58817 0
M  V30 2116 H 192.072 -2.25403 -3.49999 0
M  V30 2117 H 192.605 -3.32605 -2.18217 0
M  V30 2118 H 189.344 -6.30037 -1.80925 0
M  V30 2119 H 188.864 -5.14872 -3.0768 0
M  V30 2120 H 190.543 -5.73694 -2.99139 0
M  V30 2121 N 190.675 0.682077 -1.42076 0
M  V30 2122 C 191.622 1.79578 -1.44984 0
M  V30 2123 C 192.592 1.6332 -0.302614 0
M  V30 2124 O 193.777 1.83978 -0.505633 0
M  V30 2125 C 190.917 3.1756 -1.35091 0
M  V30 2126 C 190.03 3.45156 -2.59791 0
M  V30 2127 C 189.165 4.72826 -2.42093 0
M  V30 2128 C 188.204 4.93433 -3.62202 0
M  V30 2129 N 187.341 6.12338 -3.43491 0
M  V30 2130 H 192.181 1.76427 -2.40161 0
M  V30 2131 H 189.718 0.861376 -1.19242 0
M  V30 2132 H 191.676 3.97287 -1.27354 0
M  V30 2133 H 190.306 3.19854 -0.435133 0
M  V30 2134 H 189.358 2.59736 -2.77923 0
M  V30 2135 H 190.67 3.5628 -3.49094 0
M  V30 2136 H 189.824 5.60631 -2.319 0
M  V30 2137 H 188.563 4.63973 -1.50268 0
M  V30 2138 H 187.568 4.04073 -3.72834 0
M  V30 2139 H 188.793 5.04136 -4.54998 0
M  V30 2140 H 186.739 6.04672 -2.54377 0
M  V30 2141 H 186.656 6.2429 -4.26377 0
M  V30 2142 H 187.924 7.02841 -3.37097 0
M  V30 2143 N 192.153 1.28127 0.917671 0
M  V30 2144 C 193.564 1.13622 1.48145 0
M  V30 2145 C 193.915 -0.275207 1.9426 0
M  V30 2146 O 193.04 -1.1691 1.82102 0
M  V30 2147 C 193.635 2.05648 2.69248 0
M  V30 2148 C 192.194 1.95219 3.21818 0
M  V30 2149 C 191.341 1.97618 1.94532 0
M  V30 2150 H 194.292 1.40874 0.730772 0
M  V30 2151 H 194.313 1.61818 3.44377 0
M  V30 2152 H 193.825 3.08365 2.35653 0
M  V30 2153 H 191.926 0.955244 3.60147 0
M  V30 2154 H 192.039 2.81976 3.87333 0
M  V30 2155 H 190.403 1.41973 2.11461 0
M  V30 2156 H 191.186 3.02007 1.63238 0
M  V30 2157 N 193.631 -1.12557 1.10312 0
M  V30 2158 C 194.861 -1.87592 0.865617 0
M  V30 2159 C 195.269 -1.79851 -0.587389 0
M  V30 2160 O 194.612 -1.16949 -1.41664 0
M  V30 2161 C 194.674 -3.37665 1.23381 0
M  V30 2162 C 194.338 -3.69181 2.69359 0
M  V30 2163 C 195.335 -3.67652 3.67597 0
M  V30 2164 C 193.02 -3.98555 3.05711 0
M  V30 2165 C 195.014 -3.95053 5.00212 0
M  V30 2166 C 192.701 -4.25616 4.38514 0
M  V30 2167 C 193.699 -4.23851 5.35574 0
M  V30 2168 O 193.387 -4.50242 6.65986 0
M  V30 2169 H 193.119 -0.600442 0.310557 0
M  V30 2170 H 195.673 -1.4335 1.47105 0
M  V30 2171 H 193.903 -3.82454 0.571467 0
M  V30 2172 H 195.592 -3.94041 0.973994 0
M  V30 2173 H 196.358 -3.45024 3.40857 0
M  V30 2174 H 192.237 -3.99071 2.30789 0
M  V30 2175 H 195.781 -3.93591 5.75962 0
M  V30 2176 H 191.678 -4.47718 4.64994 0
M  V30 2177 H 192.446 -4.67867 6.71597 0
M  V30 2178 N 195.109 -0.891671 -1.2995 0
M  V30 2179 C 196.339 -0.527893 -1.99742 0
M  V30 2180 C 196.747 0.88979 -1.66971 0
M  V30 2181 O 196.09 1.59766 -0.906667 0
M  V30 2182 C 196.152 -0.630804 -3.53922 0
M  V30 2183 C 195.816 -2.01401 -4.10228 0
M  V30 2184 C 196.813 -2.98422 -4.25724 0
M  V30 2185 C 194.498 -2.32121 -4.45449 0
M  V30 2186 C 196.492 -4.24293 -4.75662 0
M  V30 2187 C 194.179 -3.58237 -4.95086 0
M  V30 2188 C 195.177 -4.54137 -5.10146 0
M  V30 2189 O 194.865 -5.78014 -5.58708 0
M  V30 2190 H 194.597 -0.201953 -0.645129 0
M  V30 2191 H 197.151 -1.20076 -1.66646 0
M  V30 2192 H 195.381 0.0990616 -3.86573 0
M  V30 2193 H 197.07 -0.277338 -4.04951 0
M  V30 2194 H 197.836 -2.76001 -3.98809 0
M  V30 2195 H 193.715 -1.5824 -4.32991 0
M  V30 2196 H 197.259 -4.99153 -4.87332 0
M  V30 2197 H 193.156 -3.80491 -5.21437 0
M  V30 2198 H 193.924 -5.8049 -5.77039 0
M  V30 2199 N 196.587 1.43421 -0.653314 0
M  V30 2200 C 197.998 1.85065 -0.246537 0
M  V30 2201 C 198.349 1.54688 1.2069 0
M  V30 2202 O 197.474 0.995896 1.92122 0
M  V30 2203 C 198.069 3.35922 -0.440666 0
M  V30 2204 C 196.628 3.76297 -0.0882064 0
M  V30 2205 C 195.775 2.67147 -0.743484 0
M  V30 2206 H 198.726 1.33572 -0.856979 0
M  V30 2207 H 198.747 3.79204 0.313798 0
M  V30 2208 H 198.259 3.58 -1.49858 0
M  V30 2209 H 196.36 3.5983 0.96711 0
M  V30 2210 H 196.473 4.76338 -0.513738 0
M  V30 2211 H 194.837 2.54086 -0.176712 0
M  V30 2212 H 195.62 2.92053 -1.80443 0
M  V30 2213 N 198.065 0.39524 1.52563 0
M  V30 2214 C 198.975 -0.444232 2.30356 0
M  V30 2215 C 199.991 -1.06615 1.37511 0
M  V30 2216 O 201.167 -1.07067 1.70583 0
M  V30 2217 C 198.232 -1.55315 3.09964 0
M  V30 2218 C 197.293 -0.955734 4.18526 0
M  V30 2219 C 196.526 -2.01181 4.9433 0
M  V30 2220 O 196.749 -3.22781 4.70285 0
M  V30 2221 O 195.683 -1.62579 5.79527 0
M  V30 2222 H 199.509 0.189667 3.03107 0
M  V30 2223 H 197.094 0.1588 1.48554 0
M  V30 2224 H 198.976 -2.19724 3.59582 0
M  V30 2225 H 197.651 -2.17191 2.4002 0
M  V30 2226 H 196.558 -0.274743 3.7309 0
M  V30 2227 H 197.891 -0.381109 4.90722 0
M  V30 2228 N 199.544 -1.57102 0.125237 0
M  V30 2229 C 200.494 -2.12202 -0.833936 0
M  V30 2230 C 201.478 -1.04433 -1.22403 0
M  V30 2231 O 202.67 -1.30655 -1.19408 0
M  V30 2232 C 199.799 -2.72994 -2.08157 0
M  V30 2233 C 198.885 -3.87852 -1.71556 0
M  V30 2234 N 199.276 -4.9464 -1.05662 0
M  V30 2235 C 197.574 -3.98153 -2.00973 0
M  V30 2236 C 198.275 -5.74953 -0.883376 0
M  V30 2237 N 197.251 -5.24985 -1.41036 0
M  V30 2238 H 201.053 -2.92141 -0.321035 0
M  V30 2239 H 198.567 -1.62217 -0.0770315 0
M  V30 2240 H 200.564 -3.10816 -2.77847 0
M  V30 2241 H 199.224 -1.9452 -2.59985 0
M  V30 2242 H 200.235 -5.12872 -0.719878 0
M  V30 2243 H 196.912 -3.30728 -2.54804 0
M  V30 2244 H 198.302 -6.70904 -0.365675 0
M  V30 2245 N 201.022 0.148545 -1.56898 0
M  V30 2246 C 201.952 1.18524 -2.01182 0
M  V30 2247 C 202.933 1.4489 -0.891123 0
M  V30 2248 O 204.118 1.55836 -1.15882 0
M  V30 2249 C 201.248 2.51879 -2.39112 0
M  V30 2250 C 200.202 2.40038 -3.54353 0
M  V30 2251 C 199.528 3.78089 -3.78091 0
M  V30 2252 C 200.828 1.88577 -4.87069 0
M  V30 2253 H 202.522 0.817029 -2.88036 0
M  V30 2254 H 200.068 0.391575 -1.38574 0
M  V30 2255 H 202.021 3.24627 -2.68692 0
M  V30 2256 H 200.745 2.90532 -1.49193 0
M  V30 2257 H 199.404 1.69742 -3.24936 0
M  V30 2258 H 199.052 4.14175 -2.85426 0
M  V30 2259 H 198.752 3.71028 -4.55645 0
M  V30 2260 H 200.276 4.52387 -4.10095 0
M  V30 2261 H 201.69 2.51117 -5.15377 0
M  V30 2262 H 200.087 1.9241 -5.68417 0
M  V30 2263 H 201.157 0.84136 -4.77545 0
M  V30 2264 N 202.5 1.5196 0.417844 0
M  V30 2265 C 203.746 1.65836 1.16732 0
M  V30 2266 C 204.079 0.382881 1.90388 0
M  V30 2267 O 203.354 -0.618368 1.84408 0
M  V30 2268 C 203.637 2.87466 2.16876 0
M  V30 2269 C 203.49 4.25041 1.47174 0
M  V30 2270 C 204.809 3.04613 3.17646 0
M  V30 2271 H 201.928 0.603515 0.423011 0
M  V30 2272 H 204.57 1.84494 0.454105 0
M  V30 2273 H 202.72 2.71689 2.777 0
M  V30 2274 H 204.392 4.52527 0.895376 0
M  V30 2275 H 202.635 4.26843 0.773806 0
M  V30 2276 H 203.306 5.06176 2.20204 0
M  V30 2277 H 205.782 3.1923 2.66892 0
M  V30 2278 H 204.658 3.91247 3.8499 0
M  V30 2279 H 204.919 2.17541 3.84874 0
M  V30 2280 N 203.978 -0.674533 1.42435 0
M  V30 2281 C 204.926 -1.80934 1.46169 0
M  V30 2282 C 205.92 -1.66006 0.3374 0
M  V30 2283 O 207.126 -1.72611 0.510425 0
M  V30 2284 H 203.501 -0.596594 0.457798 0
M  V30 2285 H 205.472 -1.74903 2.41767 0
M  V30 2286 C 204.221 -3.19088 1.38123 0
M  V30 2287 H 203.544 -3.31203 2.23931 0
M  V30 2288 H 204.984 -3.9851 1.44797 0
M  V30 2289 C 203.443 -3.36763 0.0960517 0
M  V30 2290 O 203.973 -3.92581 -0.851073 0
M  V30 2291 N 202.179 -2.90597 0.0131186 0
M  V30 2292 H 201.726 -2.45359 0.784639 0
M  V30 2293 H 201.684 -3.028 -0.846133 0
M  V30 2294 N 205.456 -1.28612 -0.910864 0
M  V30 2295 C 206.406 -1.09423 -2.00026 0
M  V30 2296 C 207.39 -0.0170079 -1.60891 0
M  V30 2297 O 208.582 -0.237472 -1.754 0
M  V30 2298 C 205.711 -0.76114 -3.34756 0
M  V30 2299 C 204.797 -1.87735 -3.80285 0
M  V30 2300 N 205.188 -3.11938 -3.98156 0
M  V30 2301 C 203.486 -1.76786 -4.09467 0
M  V30 2302 C 204.187 -3.84687 -4.36338 0
M  V30 2303 N 203.163 -3.12555 -4.44759 0
M  V30 2304 H 206.965 -2.03658 -2.11898 0
M  V30 2305 H 204.479 -1.19573 -1.09891 0
M  V30 2306 H 206.476 -0.604743 -4.12491 0
M  V30 2307 H 205.136 0.173403 -3.24237 0
M  V30 2308 H 206.147 -3.47516 -3.83996 0
M  V30 2309 H 202.824 -0.905284 -4.07567 0
M  V30 2310 H 204.214 -4.91518 -4.58104 0
M  V30 2311 N 206.934 1.1197 -1.10907 0
M  V30 2312 C 208.164 1.8713 -0.875553 0
M  V30 2313 C 208.572 1.8016 0.577843 0
M  V30 2314 O 207.915 1.17699 1.41042 0
M  V30 2315 C 207.977 3.37005 -1.2517 0
M  V30 2316 C 207.641 3.67748 -2.71313 0
M  V30 2317 C 208.638 3.65698 -3.69542 0
M  V30 2318 C 206.323 3.96928 -3.07821 0
M  V30 2319 C 208.317 3.92395 -5.023 0
M  V30 2320 C 206.004 4.23284 -4.40765 0
M  V30 2321 C 207.002 4.21005 -5.37814 0
M  V30 2322 O 206.69 4.46704 -6.68364 0
M  V30 2323 H 206.422 0.598786 -0.313737 0
M  V30 2324 H 208.976 1.42568 -1.47863 0
M  V30 2325 H 207.206 3.82146 -0.591741 0
M  V30 2326 H 208.895 3.93519 -0.994877 0
M  V30 2327 H 209.661 3.43211 -3.42682 0
M  V30 2328 H 205.54 3.97841 -2.32902 0
M  V30 2329 H 209.084 3.90531 -5.78041 0
M  V30 2330 H 204.981 4.45246 -4.67361 0
M  V30 2331 H 205.749 4.64299 -6.74069 0
M  V30 2332 N 208.412 0.89855 1.29475 0
M  V30 2333 C 209.659 0.523882 1.95606 0
M  V30 2334 C 209.987 -0.929608 1.70847 0
M  V30 2335 O 209.242 -1.67401 1.01367 0
M  V30 2336 C 209.541 0.761398 3.49195 0
M  V30 2337 C 209.207 2.19207 3.94029 0
M  V30 2338 C 207.869 2.58326 4.05982 0
M  V30 2339 C 210.221 3.12379 4.17216 0
M  V30 2340 C 207.549 3.898 4.38489 0
M  V30 2341 C 209.901 4.43401 4.51197 0
M  V30 2342 C 208.565 4.82394 4.61359 0
M  V30 2343 H 207.835 0.191702 0.715773 0
M  V30 2344 H 210.482 1.13699 1.54094 0
M  V30 2345 H 208.787 0.0653622 3.91745 0
M  V30 2346 H 210.484 0.450904 3.98457 0
M  V30 2347 H 207.074 1.87846 3.85242 0
M  V30 2348 H 211.258 2.83371 4.07449 0
M  V30 2349 H 206.514 4.19734 4.44559 0
M  V30 2350 H 210.688 5.15623 4.68087 0
M  V30 2351 H 208.315 5.84306 4.86303 0
M  V30 2352 N 209.89 -1.43072 0.660911 0
M  V30 2353 C 210.822 -2.29108 -0.0647641 0
M  V30 2354 C 211.835 -1.42928 -0.779448 0
M  V30 2355 O 213.024 -1.66788 -0.635921 0
M  V30 2356 C 210.124 -3.20032 -1.11503 0
M  V30 2357 C 209.297 -4.34792 -0.476955 0
M  V30 2358 C 208.356 -5.06534 -1.42513 0
M  V30 2359 O 207.382 -5.61538 -0.930771 0
M  V30 2360 N 208.584 -5.1075 -2.75889 0
M  V30 2361 H 211.349 -2.92029 0.673731 0
M  V30 2362 H 208.91 -1.53846 0.50427 0
M  V30 2363 H 210.902 -3.64892 -1.75032 0
M  V30 2364 H 209.472 -2.58658 -1.75541 0
M  V30 2365 H 208.692 -3.92752 0.337572 0
M  V30 2366 H 209.98 -5.0879 -0.0318525 0
M  V30 2367 H 209.378 -4.67447 -3.18606 0
M  V30 2368 H 207.935 -5.59302 -3.347 0
M  V30 2369 N 211.368 -0.403325 -1.52352 0
M  V30 2370 C 212.596 0.174012 -2.06167 0
M  V30 2371 C 213.011 1.39347 -1.27388 0
M  V30 2372 O 212.368 1.79597 -0.324201 0
M  V30 2373 C 212.419 0.530223 -3.5759 0
M  V30 2374 O 212.14 -0.640806 -4.33388 0
M  V30 2375 C 213.641 1.16192 -4.27802 0
M  V30 2376 H 210.861 0.0229464 -0.670608 0
M  V30 2377 H 213.405 -0.572604 -1.9632 0
M  V30 2378 H 211.56 1.22673 -3.67464 0
M  V30 2379 H 211.974 -0.344851 -5.23365 0
M  V30 2380 H 213.448 1.36141 -5.34948 0
M  V30 2381 H 213.925 2.13335 -3.83907 0
M  V30 2382 H 214.531 0.505775 -4.22282 0
M  V30 2383 N 212.846 1.57033 -0.133567 0
M  V30 2384 C 214.262 1.58035 0.222944 0
M  V30 2385 C 214.462 1.14713 1.6566 0
M  V30 2386 O 213.518 0.841218 2.38075 0
M  V30 2387 C 214.831 3.00691 -0.0236116 0
M  V30 2388 C 216.379 3.12973 0.0411512 0
M  V30 2389 C 216.854 4.57654 -0.177899 0
M  V30 2390 N 218.345 4.63033 -0.124365 0
M  V30 2391 C 219.08 5.72771 -0.268553 0
M  V30 2392 N 218.576 6.91206 -0.46972 0
M  V30 2393 N 220.369 5.61718 -0.2071 0
M  V30 2394 H 212.52 1.8349 -1.06981 0
M  V30 2395 H 214.783 0.848677 -0.422436 0
M  V30 2396 H 214.489 3.36726 -1.0153 0
M  V30 2397 H 214.363 3.70614 0.701808 0
M  V30 2398 H 216.75 2.76787 1.02338 0
M  V30 2399 H 216.831 2.45564 -0.716383 0
M  V30 2400 H 216.475 4.94542 -1.15717 0
M  V30 2401 H 216.405 5.23173 0.599797 0
M  V30 2402 H 218.896 3.7789 0.027011 0
M  V30 2403 H 219.209 7.70693 -0.570212 0
M  V30 2404 H 217.554 6.93156 -0.505876 0
M  V30 2405 H 220.745 4.68072 -0.0507986 0
M  V30 2406 H 220.918 6.47195 -0.322909 0
M  V30 2407 N 214.325 -0.140222 1.56975 0
M  V30 2408 C 215.275 -1.17827 1.95194 0
M  V30 2409 C 216.259 -1.38195 0.824075 0
M  V30 2410 O 217.451 -1.39643 1.0876 0
M  V30 2411 C 214.58 -2.51024 2.34184 0
M  V30 2412 C 213.666 -2.3422 3.53556 0
M  V30 2413 N 214.057 -1.87185 4.69889 0
M  V30 2414 C 212.355 -2.64949 3.58773 0
M  V30 2415 C 213.056 -1.83586 5.5197 0
M  V30 2416 N 212.032 -2.2715 4.93866 0
M  V30 2417 H 215.834 -0.806817 2.82609 0
M  V30 2418 H 213.348 -0.348208 1.58623 0
M  V30 2419 H 215.345 -3.26074 2.59772 0
M  V30 2420 H 214.005 -2.88945 1.48124 0
M  V30 2421 H 215.016 -1.57048 4.93514 0
M  V30 2422 H 211.693 -3.067 2.8327 0
M  V30 2423 H 213.083 -1.48655 6.55249 0
M  V30 2424 N 215.803 -1.52179 -0.40978 0
M  V30 2425 C 217.033 -1.69807 -1.17682 0
M  V30 2426 C 217.441 -0.406908 -1.84773 0
M  V30 2427 O 216.784 0.626863 -1.72673 0
M  V30 2428 C 216.846 -2.77712 -2.2829 0
M  V30 2429 C 216.51 -4.19481 -1.81341 0
M  V30 2430 C 217.507 -5.03345 -1.30154 0
M  V30 2431 C 215.192 -4.65713 -1.88194 0
M  V30 2432 C 217.186 -6.31511 -0.864416 0
M  V30 2433 C 214.873 -5.93869 -1.44093 0
M  V30 2434 C 215.871 -6.76597 -0.933023 0
M  V30 2435 O 215.559 -8.02354 -0.49838 0
M  V30 2436 H 215.291 -0.572372 -0.359675 0
M  V30 2437 H 217.845 -1.99511 -0.488311 0
M  V30 2438 H 216.075 -2.43383 -3.00502 0
M  V30 2439 H 217.764 -2.83946 -2.90051 0
M  V30 2440 H 218.53 -4.68819 -1.24232 0
M  V30 2441 H 214.409 -4.01424 -2.26671 0
M  V30 2442 H 217.953 -6.96033 -0.467286 0
M  V30 2443 H 213.85 -6.27903 -1.49694 0
M  V30 2444 H 214.618 -8.16135 -0.621747 0
M  V30 2445 N 217.281 0.66697 -1.42791 0
M  V30 2446 C 218.211 1.79218 -1.49677 0
M  V30 2447 C 219.192 1.66405 -0.352623 0
M  V30 2448 O 220.377 1.85708 -0.567993 0
M  V30 2449 C 217.507 3.17565 -1.40605 0
M  V30 2450 C 216.461 3.45124 -2.53127 0
M  V30 2451 C 215.787 4.83127 -2.29112 0
M  V30 2452 C 217.087 3.41236 -3.95418 0
M  V30 2453 H 218.781 1.73713 -2.43853 0
M  V30 2454 H 216.327 0.83432 -1.17367 0
M  V30 2455 H 218.28 3.96022 -1.44029 0
M  V30 2456 H 217.004 3.23767 -0.429271 0
M  V30 2457 H 215.663 2.69031 -2.49034 0
M  V30 2458 H 215.311 4.85988 -1.29709 0
M  V30 2459 H 215.011 5.02528 -3.04531 0
M  V30 2460 H 216.535 5.63859 -2.34297 0
M  V30 2461 H 217.949 4.09651 -4.01073 0
M  V30 2462 H 216.346 3.72173 -4.70752 0
M  V30 2463 H 217.416 2.39665 -4.21532 0
M  V30 2464 N 218.759 1.29093 0.90403 0
M  V30 2465 C 219.709 1.10482 1.99443 0
M  V30 2466 C 220.693 0.0255401 1.6088 0
M  V30 2467 O 221.885 0.24677 1.75271 0
M  V30 2468 C 219.014 0.778882 3.34348 0
M  V30 2469 C 218.1 1.89749 3.79284 0
M  V30 2470 N 218.491 3.14045 3.96497 0
M  V30 2471 C 216.789 1.78955 4.08523 0
M  V30 2472 C 217.49 3.86996 4.34292 0
M  V30 2473 N 216.466 3.14909 4.43095 0
M  V30 2474 H 220.268 2.04778 2.10815 0
M  V30 2475 H 217.782 1.20155 1.09255 0
M  V30 2476 H 219.779 0.62661 4.12164 0
M  V30 2477 H 218.439 -0.156205 3.24324 0
M  V30 2478 H 219.45 3.49548 3.82148 0
M  V30 2479 H 216.127 0.926886 4.07081 0
M  V30 2480 H 217.517 4.93941 4.55491 0
M  V30 2481 N 220.237 -1.11381 1.11499 0
M  V30 2482 C 221.465 -1.86934 0.88675 0
M  V30 2483 C 221.88 -1.80195 -0.563476 0
M  V30 2484 O 221.237 -1.18367 -1.38908 0
M  V30 2485 C 221.288 -3.35722 1.34064 0
M  V30 2486 O 221.009 -3.4232 2.73401 0
M  V30 2487 C 222.51 -4.2818 1.14791 0
M  V30 2488 H 219.73 -0.591117 0.317523 0
M  V30 2489 H 222.274 -1.40865 1.48248 0
M  V30 2490 H 220.429 -3.79294 0.788355 0
M  V30 2491 H 220.843 -4.34971 2.93087 0
M  V30 2492 H 222.317 -5.30817 1.5145 0
M  V30 2493 H 222.794 -4.39113 0.0875279 0
M  V30 2494 H 223.4 -3.90402 1.68721 0
M  V30 2495 N 221.715 -0.905404 -1.28997 0
M  V30 2496 C 222.645 -0.404212 -2.29975 0
M  V30 2497 C 223.626 0.523784 -1.61835 0
M  V30 2498 O 224.811 0.433298 -1.89304 0
M  V30 2499 C 221.941 0.364042 -3.45387 0
M  V30 2500 C 220.895 -0.474048 -4.25367 0
M  V30 2501 C 220.221 0.422045 -5.33032 0
M  V30 2502 C 221.521 -1.72696 -4.92923 0
M  V30 2503 H 223.215 -1.24807 -2.72146 0
M  V30 2504 H 220.761 -0.601585 -1.30832 0
M  V30 2505 H 222.714 0.725447 -4.15109 0
M  V30 2506 H 221.438 1.24174 -3.02074 0
M  V30 2507 H 220.097 -0.81786 -3.57361 0
M  V30 2508 H 219.745 1.29804 -4.85963 0
M  V30 2509 H 219.445 -0.135057 -5.87445 0
M  V30 2510 H 220.969 0.779517 -6.05604 0
M  V30 2511 H 222.383 -1.43495 -5.55051 0
M  V30 2512 H 220.78 -2.22582 -5.57295 0
M  V30 2513 H 221.85 -2.45964 -4.17887 0
M  V30 2514 N 223.193 1.4272 -0.668489 0
M  V30 2515 C 224.439 2.02443 -0.197076 0
M  V30 2516 C 224.794 1.51882 1.18109 0
M  V30 2517 O 224.087 0.708618 1.78015 0
M  V30 2518 C 224.281 3.57021 -0.164499 0
M  V30 2519 C 224.11 4.22583 -1.53797 0
M  V30 2520 C 222.88 4.58019 -2.13416 0
M  V30 2521 C 225.078 4.50588 -2.47941 0
M  V30 2522 N 223.06 5.08729 -3.4361 0
M  V30 2523 C 224.431 5.02782 -3.62782 0
M  V30 2524 C 226.486 4.32571 -2.46551 0
M  V30 2525 C 225.189 5.38852 -4.76478 0
M  V30 2526 C 227.215 4.69713 -3.59338 0
M  V30 2527 C 226.577 5.22053 -4.72906 0
M  V30 2528 H 222.676 0.773214 -0.116894 0
M  V30 2529 H 225.26 1.73673 -0.880108 0
M  V30 2530 H 223.431 3.85323 0.487925 0
M  V30 2531 H 225.163 4.03439 0.319207 0
M  V30 2532 H 221.918 4.43566 -1.65969 0
M  V30 2533 H 222.342 5.38521 -4.10273 0
M  V30 2534 H 226.984 3.91365 -1.59978 0
M  V30 2535 H 224.702 5.78993 -5.63731 0
M  V30 2536 H 228.288 4.57454 -3.59482 0
M  V30 2537 H 227.168 5.50258 -5.58736 0
M  V30 2538 N 224.671 0.411399 1.52136 0
M  V30 2539 C 225.618 -0.412975 2.27075 0
M  V30 2540 C 226.588 -1.03912 1.29582 0
M  V30 2541 O 227.773 -1.06296 1.58448 0
M  V30 2542 C 224.913 -1.52247 3.09701 0
M  V30 2543 C 224.026 -0.917021 4.22155 0
M  V30 2544 C 223.161 -1.9994 4.92135 0
M  V30 2545 C 222.2 -1.37101 5.96548 0
M  V30 2546 N 221.337 -2.39364 6.60038 0
M  V30 2547 H 226.177 0.232499 2.97092 0
M  V30 2548 H 223.714 0.126496 1.46555 0
M  V30 2549 H 225.672 -2.17674 3.55913 0
M  V30 2550 H 224.302 -2.13794 2.41851 0
M  V30 2551 H 223.354 -0.151742 3.80097 0
M  V30 2552 H 224.666 -0.418006 4.97045 0
M  V30 2553 H 223.82 -2.73088 5.41763 0
M  V30 2554 H 222.559 -2.53208 4.16818 0
M  V30 2555 H 221.564 -0.624873 5.46237 0
M  V30 2556 H 222.789 -0.845998 6.7381 0
M  V30 2557 H 220.735 -2.91759 5.87548 0
M  V30 2558 H 220.652 -1.9428 7.3061 0
M  V30 2559 H 221.92 -3.12074 7.14304 0
M  V30 2560 N 226.149 -1.5696 0.141893 0
M  V30 2561 C 227.112 -2.15316 -0.785587 0
M  V30 2562 C 228.112 -1.09366 -1.1788 0
M  V30 2563 O 229.302 -1.35031 -1.10056 0
M  V30 2564 C 226.434 -2.71211 -2.06537 0
M  V30 2565 H 227.627 -2.98608 -0.278041 0
M  V30 2566 H 225.18 -1.5593 -0.107519 0
M  V30 2567 H 225.915 -1.91571 -2.6167 0
M  V30 2568 H 225.7 -3.4872 -1.79268 0
M  V30 2569 H 227.19 -3.16189 -2.72789 0
M  V30 2570 N 227.627 0.131896 -1.57047 0
M  V30 2571 C 228.875 0.840269 -1.83804 0
M  V30 2572 C 229.196 1.81017 -0.72512 0
M  V30 2573 O 228.466 1.94272 0.251995 0
M  V30 2574 H 227.046 0.313294 -0.678127 0
M  V30 2575 H 229.708 0.122294 -1.94516 0
M  V30 2576 H 228.804 1.39335 -2.79271 0
M  V30 2577 N 229.106 1.52395 0.401703 0
M  V30 2578 C 230.355 1.66044 1.14509 0
M  V30 2579 C 230.668 0.400216 1.91462 0
M  V30 2580 O 231.874 0.416632 2.68284 0
M  V30 2581 C 230.33 2.93388 2.0845 0
M  V30 2582 C 229.938 4.26545 1.36978 0
M  V30 2583 C 231.682 3.16402 2.83001 0
M  V30 2584 C 229.589 5.45007 2.29611 0
M  V30 2585 H 228.519 0.618562 0.431158 0
M  V30 2586 H 231.17 1.78886 0.40892 0
M  V30 2587 H 229.552 2.74263 2.8565 0
M  V30 2588 H 230.726 4.56179 0.650916 0
M  V30 2589 H 229.041 4.09692 0.74438 0
M  V30 2590 H 231.638 4.02085 3.52465 0
M  V30 2591 H 231.981 2.30943 3.46368 0
M  V30 2592 H 232.514 3.36034 2.12898 0
M  V30 2593 H 229.253 6.32835 1.70879 0
M  V30 2594 H 228.773 5.19702 2.9945 0
M  V30 2595 H 230.452 5.7838 2.89974 0
M  V30 2596 N 230.584 -0.659388 1.43143 0
M  V30 2597 C 231.514 -1.78422 1.50625 0
M  V30 2598 C 232.495 -1.66216 0.361443 0
M  V30 2599 O 233.68 -1.85404 0.577834 0
M  V30 2600 C 230.81 -3.16815 1.42287 0
M  V30 2601 C 229.764 -3.43777 2.54954 0
M  V30 2602 C 229.09 -4.81905 2.31671 0
M  V30 2603 C 230.39 -3.39134 3.97222 0
M  V30 2604 H 232.084 -1.72417 2.44771 0
M  V30 2605 H 229.63 -0.828084 1.17808 0
M  V30 2606 H 231.583 -3.95253 1.46127 0
M  V30 2607 H 230.307 -3.23534 0.446435 0
M  V30 2608 H 228.966 -2.67707 2.50457 0
M  V30 2609 H 228.614 -4.85294 1.32284 0
M  V30 2610 H 228.314 -5.00906 3.07192 0
M  V30 2611 H 229.838 -5.62609 2.37284 0
M  V30 2612 H 231.252 -4.07518 4.03239 0
M  V30 2613 H 229.649 -3.69671 4.72719 0
M  V30 2614 H 230.719 -2.37426 4.22797 0
M  V30 2615 N 232.062 -1.29571 -0.897171 0
M  V30 2616 C 233.292 -1.20408 -1.67886 0
M  V30 2617 C 233.7 0.237429 -1.87704 0
M  V30 2618 O 233.043 1.17048 -1.41582 0
M  V30 2619 C 233.105 -1.84887 -3.08314 0
M  V30 2620 C 232.769 -3.34189 -3.11716 0
M  V30 2621 C 233.766 -4.30374 -2.91675 0
M  V30 2622 C 231.451 -3.75431 -3.33701 0
M  V30 2623 C 233.445 -5.65776 -2.93557 0
M  V30 2624 C 231.132 -5.10955 -3.35214 0
M  V30 2625 C 232.13 -6.05938 -3.15164 0
M  V30 2626 O 231.818 -7.38987 -3.1647 0
M  V30 2627 H 231.55 -0.418289 -0.531046 0
M  V30 2628 H 234.104 -1.71514 -1.13014 0
M  V30 2629 H 232.334 -1.28295 -3.64798 0
M  V30 2630 H 234.023 -1.70011 -3.6858 0
M  V30 2631 H 234.789 -3.99844 -2.74499 0
M  V30 2632 H 230.668 -3.01953 -3.48347 0
M  V30 2633 H 234.212 -6.39889 -2.77826 0
M  V30 2634 H 230.109 -5.4113 -3.51922 0
M  V30 2635 H 230.877 -7.47823 -3.3272 0
M  V30 2636 N 233.54 1.10788 -1.12088 0
M  V30 2637 C 234.487 2.17025 -0.785407 0
M  V30 2638 C 235.457 1.64265 0.246191 0
M  V30 2639 O 236.642 1.90412 0.121584 0
M  V30 2640 C 233.782 3.44249 -0.242177 0
M  V30 2641 C 232.895 4.1098 -1.33115 0
M  V30 2642 C 232.03 5.25911 -0.747741 0
M  V30 2643 C 231.069 5.84538 -1.81609 0
M  V30 2644 N 230.206 6.90853 -1.25167 0
M  V30 2645 H 235.046 2.45066 -1.69548 0
M  V30 2646 H 232.583 1.20297 -0.846582 0
M  V30 2647 H 234.541 4.17101 0.0908026 0
M  V30 2648 H 233.171 3.16571 0.631072 0
M  V30 2649 H 232.223 3.36133 -1.78097 0
M  V30 2650 H 233.535 4.50601 -2.13917 0
M  V30 2651 H 232.689 6.056 -0.365216 0
M  V30 2652 H 231.428 4.87614 0.0915188 0
M  V30 2653 H 230.433 5.03522 -2.20785 0
M  V30 2654 H 231.658 6.249 -2.6585 0
M  V30 2655 H 229.604 6.54562 -0.434174 0
M  V30 2656 H 229.521 7.29166 -1.99633 0
M  V30 2657 H 230.789 7.7433 -0.896259 0
M  V30 2658 N 235.018 0.912232 1.28515 0
M  V30 2659 C 236.434 0.610159 1.47476 0
M  V30 2660 C 236.634 -0.844955 1.82928 0
M  V30 2661 O 235.69 -1.62416 1.93332 0
M  V30 2662 C 237.003 1.54675 2.57868 0
M  V30 2663 C 238.551 1.55331 2.71738 0
M  V30 2664 C 239.026 2.47649 3.85272 0
M  V30 2665 N 240.517 2.45767 3.92623 0
M  V30 2666 C 241.252 3.13896 4.79851 0
M  V30 2667 N 240.748 3.9135 5.71679 0
M  V30 2668 N 242.541 3.02991 4.73448 0
M  V30 2669 H 234.692 1.85318 1.03783 0
M  V30 2670 H 236.955 0.794777 0.516753 0
M  V30 2671 H 236.661 2.5841 2.38574 0
M  V30 2672 H 236.535 1.27671 3.54937 0
M  V30 2673 H 238.922 0.52335 2.90422 0
M  V30 2674 H 239.003 1.86378 1.75205 0
M  V30 2675 H 238.647 3.50745 3.67342 0
M  V30 2676 H 238.577 2.13904 4.81199 0
M  V30 2677 H 241.068 1.89503 3.26951 0
M  V30 2678 H 241.381 4.40359 6.35062 0
M  V30 2679 H 239.726 3.95455 5.71524 0
M  V30 2680 H 242.917 2.41987 4.007 0
M  V30 2681 H 243.09 3.5636 5.41213 0
M  V30 2682 N 236.496 -1.42363 0.676048 0
M  V30 2683 C 237.406 -2.346 -0.00153389 0
M  V30 2684 C 238.422 -1.5516 -0.787485 0
M  V30 2685 O 239.598 -1.87723 -0.729521 0
M  V30 2686 C 236.663 -3.33705 -0.940298 0
M  V30 2687 C 235.724 -4.29042 -0.148739 0
M  V30 2688 C 234.957 -5.23413 -1.04279 0
M  V30 2689 O 235.18 -5.22749 -2.28232 0
M  V30 2690 O 234.114 -5.99795 -0.502925 0
M  V30 2691 H 237.94 -2.94082 0.758268 0
M  V30 2692 H 235.525 -1.42888 0.436289 0
M  V30 2693 H 237.407 -3.94586 -1.47917 0
M  V30 2694 H 236.082 -2.76695 -1.67993 0
M  V30 2695 H 234.989 -3.71571 0.43427 0
M  V30 2696 H 236.322 -4.89097 0.551805 0
M  V30 2697 N 237.974 -0.419461 -1.51915 0
M  V30 2698 C 239.202 0.152136 -2.0634 0
M  V30 2699 C 239.617 1.37988 -1.28859 0
M  V30 2700 O 238.974 1.79243 -0.343232 0
M  V30 2701 C 239.025 0.492266 -3.58133 0
M  V30 2702 O 238.746 -0.686736 -4.32684 0
M  V30 2703 C 240.247 1.11648 -4.2901 0
M  V30 2704 H 237.467 0.0158325 -0.670813 0
M  V30 2705 H 240.011 -0.593394 -1.95702 0
M  V30 2706 H 238.166 1.18769 -3.68745 0
M  V30 2707 H 238.58 -0.400341 -5.2297 0
M  V30 2708 H 240.054 1.3046 -5.36362 0
M  V30 2709 H 240.531 2.09251 -3.86148 0
M  V30 2710 H 241.137 0.460958 -4.22795 0
M  V30 2711 N 239.452 1.56882 -0.150215 0
M  V30 2712 C 240.68 2.00593 0.506948 0
M  V30 2713 C 241.095 1.03033 1.58208 0
M  V30 2714 O 240.452 0.0278396 1.82479 0
M  V30 2715 C 240.503 3.44209 1.10465 0
M  V30 2716 O 240.224 4.3804 0.0724636 0
M  V30 2717 C 241.725 4.03214 1.84211 0
M  V30 2718 H 238.945 0.65795 0.13169 0
M  V30 2719 H 241.489 2.03018 -0.245743 0
M  V30 2720 H 239.644 3.42625 1.80795 0
M  V30 2721 H 240.058 5.22007 0.510793 0
M  V30 2722 H 241.532 5.0569 2.21318 0
M  V30 2723 H 242.009 3.44107 2.72923 0
M  V30 2724 H 242.615 4.08437 1.18572 0
M  V30 2725 N 240.93 -0.123565 1.57115 0
M  V30 2726 C 241.88 -1.1575 1.96433 0
M  V30 2727 C 242.864 -1.37313 0.838686 0
M  V30 2728 O 244.056 -1.38482 1.10235 0
M  V30 2729 C 241.185 -2.48526 2.36833 0
M  V30 2730 C 240.271 -2.30457 3.5602 0
M  V30 2731 N 240.662 -1.8219 4.71848 0
M  V30 2732 C 238.96 -2.61129 3.61563 0
M  V30 2733 C 239.661 -1.77721 5.53886 0
M  V30 2734 N 238.637 -2.21899 4.96248 0
M  V30 2735 H 242.439 -0.776797 2.83449 0
M  V30 2736 H 239.953 -0.331364 1.58983 0
M  V30 2737 H 241.95 -3.233 2.63216 0
M  V30 2738 H 240.61 -2.87358 1.5118 0
M  V30 2739 H 241.621 -1.51805 4.95152 0
M  V30 2740 H 238.298 -3.03678 2.86507 0
M  V30 2741 H 239.688 -1.41697 6.56789 0
M  V30 2742 N 242.408 -1.52605 -0.393616 0
M  V30 2743 C 243.633 -1.71592 -1.16495 0
M  V30 2744 C 244.058 -0.43133 -1.83088 0
M  V30 2745 O 243.416 0.612523 -1.7064 0
M  V30 2746 C 243.464 -2.86318 -2.19213 0
M  V30 2747 O 242.568 -2.52969 -3.257 0
M  V30 2748 H 241.909 -0.570734 -0.33935 0
M  V30 2749 H 244.439 -1.99377 -0.459324 0
M  V30 2750 H 244.449 -3.1168 -2.63286 0
M  V30 2751 H 243.124 -3.79511 -1.7013 0
M  V30 2752 H 241.701 -2.38332 -2.86797 0
M  V30 2753 N 243.887 0.651787 -1.4349 0
M  V30 2754 C 244.85 1.74647 -1.48429 0
M  V30 2755 C 245.85 1.56513 -0.368817 0
M  V30 2756 O 247.04 1.62385 -0.630623 0
M  V30 2757 C 244.172 3.13533 -1.33827 0
M  V30 2758 H 245.365 1.71649 -2.4592 0
M  V30 2759 H 242.918 0.863573 -1.30277 0
M  V30 2760 H 243.653 3.22142 -0.37349 0
M  V30 2761 H 243.438 3.28101 -2.14691 0
M  V30 2762 H 244.928 3.93356 -1.40218 0
M  V30 2763 N 245.365 1.30045 0.890287 0
M  V30 2764 C 246.59 1.21598 1.68014 0
M  V30 2765 C 247.015 -0.218678 1.86825 0
M  V30 2766 O 246.373 -1.15756 1.39536 0
M  V30 2767 C 246.421 1.94434 3.03691 0
M  V30 2768 O 245.525 1.2678 3.92429 0
M  V30 2769 H 244.866 0.420856 0.513592 0
M  V30 2770 H 247.396 1.71775 1.11151 0
M  V30 2771 H 247.406 2.03251 3.5377 0
M  V30 2772 H 246.081 2.98777 2.89318 0
M  V30 2773 H 244.658 1.26282 3.50866 0
M  V30 2774 N 246.843 -1.10192 1.12674 0
M  V30 2775 C 248.09 -1.82205 0.883606 0
M  V30 2776 C 248.418 -1.8532 -0.590492 0
M  V30 2777 O 247.673 -1.31137 -1.45264 0
M  V30 2778 C 247.972 -3.28552 1.4067 0
M  V30 2779 C 247.638 -3.45582 2.89627 0
M  V30 2780 C 246.3 -3.49937 3.30299 0
M  V30 2781 C 248.652 -3.50768 3.85501 0
M  V30 2782 C 245.98 -3.57049 4.65546 0
M  V30 2783 C 248.332 -3.59414 5.20581 0
M  V30 2784 C 246.996 -3.62034 5.60792 0
M  V30 2785 H 246.266 -0.666735 0.323334 0
M  V30 2786 H 248.913 -1.29868 1.40736 0
M  V30 2787 H 247.218 -3.83473 0.80347 0
M  V30 2788 H 248.915 -3.82788 1.19475 0
M  V30 2789 H 245.505 -3.42871 2.57172 0
M  V30 2790 H 249.689 -3.46651 3.55171 0
M  V30 2791 H 244.945 -3.57361 4.96088 0
M  V30 2792 H 249.119 -3.62371 5.94693 0
M  V30 2793 H 246.746 -3.67298 6.6558 0
M  V30 2794 N 248.321 -0.919034 -1.28029 0
M  V30 2795 C 249.561 -0.562107 -1.96519 0
M  V30 2796 C 249.925 0.878784 -1.70708 0
M  V30 2797 O 251.126 1.34355 -2.32813 0
M  V30 2798 C 249.397 -0.868953 -3.46676 0
M  V30 2799 S 250.956 -0.619237 -4.34409 0
M  V30 2800 H 247.774 -0.2078 -0.679956 0
M  V30 2801 H 250.376 -1.18562 -1.55446 0
M  V30 2802 H 249.08 -1.91547 -3.62957 0
M  V30 2803 H 248.611 -0.234301 -3.92702 0
M  V30 2804 H 250.626 0.526995 -4.93394 0
M  V30 2805 N 249.799 1.42003 -0.683588 0
M  V30 2806 C 251.047 2.01015 -0.209101 0
M  V30 2807 C 251.368 1.54365 1.19149 0
M  V30 2808 O 250.638 0.769083 1.80172 0
M  V30 2809 H 249.218 0.743294 -0.074315 0
M  V30 2810 H 251.88 1.73798 -0.882066 0
M  V30 2811 H 250.976 3.11343 -0.2172 0
M  V30 2812 N 251.277 0.427512 1.51691 0
M  V30 2813 C 252.502 -0.143601 2.06902 0
M  V30 2814 C 252.927 -1.36536 1.29382 0
M  V30 2815 O 252.285 -1.78289 0.329043 0
M  V30 2816 C 252.333 -0.454207 3.57728 0
M  V30 2817 O 251.437 -1.54228 3.82475 0
M  V30 2818 H 250.778 -0.00617128 0.663971 0
M  V30 2819 H 253.308 0.606014 1.95419 0
M  V30 2820 H 253.318 -0.707525 4.01818 0
M  V30 2821 H 251.993 0.438812 4.13579 0
M  V30 2822 H 250.57 -1.2797 3.50254 0
M  V30 2823 N 252.755 -1.56801 0.158532 0
M  V30 2824 C 254.166 -1.83189 -0.360366 0
M  V30 2825 C 254.517 -1.07778 -1.63946 0
M  V30 2826 O 253.642 -0.326718 -2.13919 0
M  V30 2827 C 254.237 -3.32297 -0.660595 0
M  V30 2828 C 252.796 -3.59227 -1.12398 0
M  V30 2829 C 251.943 -2.76877 -0.153097 0
M  V30 2830 H 254.894 -1.54008 0.383031 0
M  V30 2831 H 254.915 -3.4908 -1.51405 0
M  V30 2832 H 254.427 -3.87156 0.270527 0
M  V30 2833 H 252.528 -3.09766 -2.07064 0
M  V30 2834 H 252.641 -4.67632 -1.04197 0
M  V30 2835 H 251.005 -2.46319 -0.647983 0
M  V30 2836 H 251.788 -3.34511 0.77182 0
M  V30 2837 N 254.233 0.115231 -1.57178 0
M  V30 2838 C 255.463 0.835224 -1.88964 0
M  V30 2839 C 255.871 1.73774 -0.74829 0
M  V30 2840 O 255.214 1.81401 0.289739 0
M  V30 2841 C 255.276 1.7178 -3.15804 0
M  V30 2842 C 254.94 0.989198 -4.46166 0
M  V30 2843 C 255.937 0.328263 -5.18863 0
M  V30 2844 C 253.622 0.969256 -4.9286 0
M  V30 2845 C 255.616 -0.342873 -6.36477 0
M  V30 2846 C 253.303 0.294324 -6.10391 0
M  V30 2847 C 254.301 -0.360582 -6.82048 0
M  V30 2848 O 253.989 -1.02474 -7.97342 0
M  V30 2849 H 253.721 0.245197 -0.629964 0
M  V30 2850 H 256.275 0.10303 -2.05141 0
M  V30 2851 H 254.505 2.49173 -2.95719 0
M  V30 2852 H 256.194 2.31255 -3.33581 0
M  V30 2853 H 256.96 0.335263 -4.8384 0
M  V30 2854 H 252.839 1.46844 -4.36987 0
M  V30 2855 H 256.383 -0.854629 -6.92345 0
M  V30 2856 H 252.28 0.285099 -6.4487 0
M  V30 2857 H 253.048 -0.929594 -8.13204 0
M  V30 2858 N 255.711 1.52812 0.385517 0
M  V30 2859 C 256.936 1.72207 1.15583 0
M  V30 2860 C 257.361 0.441034 1.82857 0
M  V30 2861 O 256.719 -0.603465 1.70962 0
M  V30 2862 C 256.767 2.87476 2.17692 0
M  V30 2863 O 255.871 2.54693 3.24354 0
M  V30 2864 H 255.212 0.572526 0.336319 0
M  V30 2865 H 257.742 1.99618 0.448744 0
M  V30 2866 H 257.752 3.13072 2.6163 0
M  V30 2867 H 256.427 3.80408 1.68115 0
M  V30 2868 H 255.004 2.3985 2.85529 0
M  V30 2869 N 257.189 -0.644168 1.43834 0
M  V30 2870 C 258.435 -1.40431 1.47141 0
M  V30 2871 C 258.79 -1.92153 0.0975577 0
M  V30 2872 O 258.083 -1.69924 -0.885232 0
M  V30 2873 C 258.277 -2.59615 2.45631 0
M  V30 2874 C 258.106 -2.1956 3.92458 0
M  V30 2875 C 256.876 -2.07456 4.60749 0
M  V30 2876 C 259.074 -1.79281 4.8204 0
M  V30 2877 N 257.056 -1.60827 5.92459 0
M  V30 2878 C 258.427 -1.43801 6.03093 0
M  V30 2879 C 260.482 -1.66545 4.6922 0
M  V30 2880 C 259.185 -0.968599 7.12749 0
M  V30 2881 C 261.211 -1.21008 5.78888 0
M  V30 2882 C 260.573 -0.864711 6.99072 0
M  V30 2883 H 256.672 -0.509182 0.593513 0
M  V30 2884 H 259.256 -0.740351 1.80075 0
M  V30 2885 H 257.427 -3.23658 2.1471 0
M  V30 2886 H 259.159 -3.26357 2.39318 0
M  V30 2887 H 255.914 -2.275 4.1538 0
M  V30 2888 H 256.338 -1.39848 6.62398 0
M  V30 2889 H 260.98 -1.91883 3.7675 0
M  V30 2890 H 258.698 -0.702715 8.05039 0
M  V30 2891 H 262.284 -1.11631 5.7099 0
M  V30 2892 H 261.164 -0.517736 7.82489 0
M  V30 2893 N 258.668 -1.30515 -0.883378 0
M  V30 2894 C 259.578 -1.18959 -2.02203 0
M  V30 2895 C 260.594 -0.109172 -1.73657 0
M  V30 2896 O 261.77 -0.324413 -1.9877 0
M  V30 2897 C 258.835 -0.883871 -3.35244 0
M  V30 2898 C 257.896 -2.04982 -3.77201 0
M  V30 2899 C 257.129 -1.75859 -5.03894 0
M  V30 2900 O 257.352 -0.687276 -5.66244 0
M  V30 2901 O 256.286 -2.61146 -5.42297 0
M  V30 2902 H 260.112 -2.14616 -2.1488 0
M  V30 2903 H 257.697 -1.10124 -1.0096 0
M  V30 2904 H 259.579 -0.728644 -4.15053 0
M  V30 2905 H 258.254 0.0427798 -3.23672 0
M  V30 2906 H 257.161 -2.26038 -2.9809 0
M  V30 2907 H 258.494 -2.95825 -3.93381 0
M  V30 2908 N 260.146 1.09593 -1.13257 0
M  V30 2909 C 261.078 2.16015 -0.766167 0
M  V30 2910 C 262.091 1.61423 0.211303 0
M  V30 2911 O 263.28 1.78498 -0.00863946 0
M  V30 2912 C 260.38 3.38706 -0.114662 0
M  V30 2913 C 259.553 4.22717 -1.12379 0
M  V30 2914 C 258.612 5.23835 -0.498301 0
M  V30 2915 O 257.638 5.573 -1.15781 0
M  V30 2916 N 258.84 5.75886 0.730417 0
M  V30 2917 H 261.605 2.48055 -1.68193 0
M  V30 2918 H 259.166 1.25292 -1.02535 0
M  V30 2919 H 261.158 4.03464 0.315991 0
M  V30 2920 H 259.728 3.04569 0.704011 0
M  V30 2921 H 258.948 3.54122 -1.73179 0
M  V30 2922 H 260.236 4.75673 -1.80589 0
M  V30 2923 H 259.634 5.50911 1.28504 0
M  V30 2924 H 258.191 6.42387 1.10376 0
M  V30 2925 N 261.624 0.925811 1.2754 0
M  V30 2926 C 262.901 0.483726 1.89524 0
M  V30 2927 C 263.281 -1.03809 1.83812 0
M  V30 2928 O 262.629 -1.89143 1.28207 0
M  V30 2929 C 262.839 1.02769 3.33526 0
M  V30 2930 C 264.187 1.08703 4.10449 0
M  V30 2931 O 265.211 0.977175 3.42534 0
M  V30 2932 O 264.07 1.25599 5.31871 0
M  V30 2933 H 261.164 0.15529 0.812289 0
M  V30 2934 H 263.71 1.01738 1.35822 0
M  V30 2935 H 262.482 2.07155 3.31967 0
M  V30 2936 H 262.105 0.475567 3.94746 0
M  V30 2937 N 263.102 -1.41638 0.69111 0
M  V30 2938 C 264.032 -2.3347 0.037248 0
M  V30 2939 C 265.013 -1.51575 -0.771947 0
M  V30 2940 O 266.198 -1.80126 -0.72582 0
M  V30 2941 C 263.328 -3.35354 -0.903064 0
M  V30 2942 C 262.282 -4.27526 -0.201288 0
M  V30 2943 C 261.608 -5.19747 -1.25565 0
M  V30 2944 C 262.908 -5.13959 0.929689 0
M  V30 2945 H 264.602 -2.88397 0.804227 0
M  V30 2946 H 262.148 -1.38669 0.388189 0
M  V30 2947 H 264.101 -3.98519 -1.36969 0
M  V30 2948 H 262.825 -2.78767 -1.70166 0
M  V30 2949 H 261.484 -3.65779 0.245265 0
M  V30 2950 H 261.132 -4.59479 -2.04666 0
M  V30 2951 H 260.832 -5.8225 -0.791128 0
M  V30 2952 H 262.356 -5.85789 -1.72288 0
M  V30 2953 H 263.77 -5.70718 0.543546 0
M  V30 2954 H 262.167 -5.85379 1.32103 0
M  V30 2955 H 263.237 -4.51389 1.77133 0
M  V30 2956 N 264.58 -0.43555 -1.51462 0
M  V30 2957 C 265.512 0.41257 -2.25456 0
M  V30 2958 C 266.525 0.987822 -1.29406 0
M  V30 2959 O 267.714 0.882266 -1.55172 0
M  V30 2960 C 264.814 1.58894 -2.99342 0
M  V30 2961 C 263.987 1.13288 -4.22474 0
M  V30 2962 C 263.046 2.17917 -4.78956 0
M  V30 2963 O 262.072 1.77425 -5.40841 0
M  V30 2964 N 263.274 3.50382 -4.62832 0
M  V30 2965 H 266.039 -0.221603 -2.9888 0
M  V30 2966 H 263.6 -0.264342 -1.59727 0
M  V30 2967 H 265.592 2.28508 -3.34015 0
M  V30 2968 H 264.162 2.12849 -2.28941 0
M  V30 2969 H 263.382 0.263881 -3.93316 0
M  V30 2970 H 264.67 0.805542 -5.02383 0
M  V30 2971 H 264.068 3.86013 -4.13534 0
M  V30 2972 H 262.625 4.15895 -5.01871 0
M  V30 2973 N 266.058 1.56714 -0.166846 0
M  V30 2974 C 267.008 2.14338 0.777382 0
M  V30 2975 C 267.992 1.07642 1.19591 0
M  V30 2976 O 269.184 1.33775 1.15902 0
M  V30 2977 C 266.313 2.78417 2.00846 0
M  V30 2978 C 265.399 3.92264 1.61212 0
M  V30 2979 N 265.79 4.97268 0.925104 0
M  V30 2980 C 264.088 4.03342 1.90346 0
M  V30 2981 C 264.789 5.77093 0.730627 0
M  V30 2982 N 263.765 5.2854 1.27067 0
M  V30 2983 H 267.567 2.9289 0.243466 0
M  V30 2984 H 265.081 1.62364 0.0339954 0
M  V30 2985 H 267.078 3.18073 2.69509 0
M  V30 2986 H 265.738 2.01344 2.54736 0
M  V30 2987 H 266.749 5.14601 0.583646 0
M  V30 2988 H 263.426 3.37368 2.45946 0
M  V30 2989 H 264.816 6.71638 0.187668 0
M  V30 2990 N 267.536 -0.106894 1.57237 0
M  V30 2991 C 268.784 -0.810921 1.85117 0
M  V30 2992 C 269.105 -1.7984 0.753827 0
M  V30 2993 O 268.375 -1.94649 -0.221056 0
M  V30 2994 H 266.955 -0.302466 0.683025 0
M  V30 2995 H 269.617 -0.0913324 1.94686 0
M  V30 2996 H 268.713 -1.34875 2.81452 0
M  V30 2997 N 269.014 -1.53014 -0.377408 0
M  V30 2998 C 269.977 -1.77957 -1.44444 0
M  V30 2999 C 270.977 -0.649763 -1.47087 0
M  V30 3000 O 272.167 -0.917897 -1.48055 0
M  V30 3001 C 269.299 -1.89089 -2.83651 0
M  V30 3002 H 270.492 -2.73243 -1.23606 0
M  V30 3003 H 268.045 -1.43912 -0.609844 0
M  V30 3004 H 268.78 -0.958293 -3.09818 0
M  V30 3005 H 268.565 -2.71254 -2.83132 0
M  V30 3006 H 270.055 -2.1002 -3.60945 0
M  V30 3007 N 270.492 0.636531 -1.44174 0
M  V30 3008 C 271.402 1.77754 -1.53103 0
M  V30 3009 C 272.418 1.68928 -0.417034 0
M  V30 3010 O 273.594 1.89801 -0.6736 0
M  V30 3011 C 270.659 3.14115 -1.46741 0
M  V30 3012 C 269.72 3.34612 -2.68948 0
M  V30 3013 C 268.953 4.64467 -2.6288 0
M  V30 3014 O 269.176 5.44919 -1.68581 0
M  V30 3015 O 268.11 4.87049 -3.53648 0
M  V30 3016 H 271.936 1.73174 -2.49489 0
M  V30 3017 H 269.521 0.79709 -1.2636 0
M  V30 3018 H 271.403 3.95412 -1.45696 0
M  V30 3019 H 270.078 3.19249 -0.534975 0
M  V30 3020 H 268.985 2.53014 -2.75562 0
M  V30 3021 H 270.318 3.34336 -3.61221 0
M  V30 3022 N 271.97 1.30982 0.876444 0
M  V30 3023 C 273.195 1.23373 1.66715 0
M  V30 3024 C 273.62 -0.19885 1.87046 0
M  V30 3025 O 272.978 -1.1427 1.40756 0
M  V30 3026 C 273.026 1.97644 3.01611 0
M  V30 3027 O 272.13 1.30935 3.91062 0
M  V30 3028 H 271.471 0.426279 0.509099 0
M  V30 3029 H 274.001 1.72944 1.09323 0
M  V30 3030 H 274.011 2.06992 3.51594 0
M  V30 3031 H 272.686 3.01829 2.86133 0
M  V30 3032 H 271.263 1.29996 3.49507 0
M  V30 3033 N 273.449 -1.08991 1.13837 0
M  V30 3034 C 274.696 -1.81258 0.902882 0
M  V30 3035 C 275.024 -1.85936 -0.570803 0
M  V30 3036 O 274.279 -1.3267 -1.43865 0
M  V30 3037 C 274.578 -3.27042 1.44147 0
M  V30 3038 C 274.244 -3.4249 2.93276 0
M  V30 3039 C 272.906 -3.46414 3.33992 0
M  V30 3040 C 275.258 -3.4666 3.892 0
M  V30 3041 C 272.586 -3.52091 4.69307 0
M  V30 3042 C 274.938 -3.53872 5.24364 0
M  V30 3043 C 273.602 -3.56066 5.646 0
M  V30 3044 H 272.872 -0.663268 0.330388 0
M  V30 3045 H 275.519 -1.28368 1.42105 0
M  V30 3046 H 273.824 -3.82599 0.844097 0
M  V30 3047 H 275.521 -3.81499 1.23528 0
M  V30 3048 H 272.111 -3.40124 2.60794 0
M  V30 3049 H 276.295 -3.42865 3.58828 0
M  V30 3050 H 271.551 -3.52079 4.9985 0
M  V30 3051 H 275.725 -3.56043 5.98503 0
M  V30 3052 H 273.352 -3.60218 6.69438 0
M  V30 3053 N 274.927 -0.932562 -1.27047 0
M  V30 3054 C 275.877 -0.406392 -2.24349 0
M  V30 3055 C 276.861 0.492066 -1.53191 0
M  V30 3056 O 278.053 0.328717 -1.73921 0
M  V30 3057 C 275.182 0.335214 -3.41659 0
M  V30 3058 C 274.268 -0.58004 -4.20115 0
M  V30 3059 N 274.659 -1.70203 -4.76303 0
M  V30 3060 C 272.957 -0.383974 -4.44344 0
M  V30 3061 C 273.658 -2.27167 -5.35509 0
M  V30 3062 N 272.634 -1.56068 -5.20715 0
M  V30 3063 H 276.436 -1.26299 -2.65378 0
M  V30 3064 H 273.95 -0.787408 -1.42034 0
M  V30 3065 H 275.947 0.729142 -4.10474 0
M  V30 3066 H 274.607 1.18868 -3.0216 0
M  V30 3067 H 275.618 -2.08433 -4.74106 0
M  V30 3068 H 272.295 0.428436 -4.15296 0
M  V30 3069 H 273.685 -3.21654 -5.89905 0
M  V30 3070 N 276.405 1.4127 -0.698611 0
M  V30 3071 C 277.337 2.292 0.00399731 0
M  V30 3072 C 278.35 1.44944 0.741279 0
M  V30 3073 O 279.539 1.68416 0.591477 0
M  V30 3074 C 276.639 3.22875 1.02979 0
M  V30 3075 C 275.812 4.35904 0.36151 0
M  V30 3076 C 274.871 5.10134 1.29033 0
M  V30 3077 O 273.897 5.63809 0.781562 0
M  V30 3078 N 275.099 5.17885 2.6225 0
M  V30 3079 H 277.864 2.9014 -0.750921 0
M  V30 3080 H 275.425 1.52455 -0.544882 0
M  V30 3081 H 277.417 3.69404 1.65296 0
M  V30 3082 H 275.987 2.63221 1.68622 0
M  V30 3083 H 275.207 3.91719 -0.441584 0
M  V30 3084 H 276.495 5.08696 -0.103055 0
M  V30 3085 H 275.893 4.7573 3.061 0
M  V30 3086 H 274.45 5.6798 3.19754 0
M  V30 3087 N 277.883 0.443576 1.51229 0
M  V30 3088 C 278.815 -0.400608 2.25672 0
M  V30 3089 C 279.828 -0.980945 1.29928 0
M  V30 3090 O 281.017 -0.874024 1.55638 0
M  V30 3091 C 278.117 -1.57304 3.00181 0
M  V30 3092 C 277.29 -1.11046 4.23069 0
M  V30 3093 C 276.349 -2.15374 4.80105 0
M  V30 3094 O 275.375 -1.74554 5.41774 0
M  V30 3095 N 276.577 -3.47922 4.64683 0
M  V30 3096 H 279.342 0.23745 2.98758 0
M  V30 3097 H 276.903 0.272809 1.59585 0
M  V30 3098 H 278.895 -2.26733 3.35223 0
M  V30 3099 H 277.465 -2.11632 2.30066 0
M  V30 3100 H 276.685 -0.243019 3.9345 0
M  V30 3101 H 277.973 -0.778888 5.02803 0
M  V30 3102 H 277.371 -3.83815 4.15575 0
M  V30 3103 H 275.928 -4.13228 5.0407 0
M  V30 3104 N 279.361 -1.56624 0.175154 0
M  V30 3105 C 280.586 -2.01813 -0.478137 0
M  V30 3106 C 281.011 -1.05457 -1.55757 0
M  V30 3107 O 280.369 -0.0347439 -1.81267 0
M  V30 3108 C 280.417 -3.45581 -1.02987 0
M  V30 3109 O 279.521 -3.52305 -2.14371 0
M  V30 3110 H 278.862 -0.65413 -0.114059 0
M  V30 3111 H 281.392 -2.02673 0.280173 0
M  V30 3112 H 281.402 -3.84965 -1.35151 0
M  V30 3113 H 280.077 -4.1521 -0.239556 0
M  V30 3114 H 278.654 -3.24783 -1.83222 0
M  V30 3115 N 280.839 0.0985539 -1.57292 0
M  V30 3116 C 282.064 0.820196 -1.90493 0
M  V30 3117 C 282.489 1.71658 -0.769094 0
M  V30 3118 O 281.847 1.79133 0.279495 0
M  V30 3119 C 281.895 1.61242 -3.22542 0
M  V30 3120 O 280.999 2.72108 -3.09888 0
M  V30 3121 H 280.34 0.225547 -0.62452 0
M  V30 3122 H 282.87 0.0748159 -2.04463 0
M  V30 3123 H 282.88 1.99737 -3.55766 0
M  V30 3124 H 281.555 0.954535 -4.04798 0
M  V30 3125 H 280.132 2.36667 -2.88172 0
M  V30 3126 N 282.317 1.53212 0.369288 0
M  V30 3127 C 283.565 1.68881 1.11012 0
M  V30 3128 C 283.886 0.441285 1.89941 0
M  V30 3129 O 283.156 -0.544623 1.88177 0
M  V30 3130 H 281.736 0.622569 0.412816 0
M  V30 3131 H 284.398 1.90391 0.416802 0
M  V30 3132 H 283.494 2.54822 1.80201 0
M  V30 3133 N 283.795 -0.628877 1.44509 0
M  V30 3134 C 285.044 -1.38437 1.4669 0
M  V30 3135 C 285.357 -1.95322 0.104272 0
M  V30 3136 O 286.563 -2.715 0.00362163 0
M  V30 3137 C 285.019 -2.50659 2.5826 0
M  V30 3138 C 284.627 -2.00277 4.0074 0
M  V30 3139 C 286.371 -3.27844 2.69664 0
M  V30 3140 C 284.278 -3.09854 5.0373 0
M  V30 3141 H 283.208 -0.520245 0.545766 0
M  V30 3142 H 285.859 -0.676313 1.70582 0
M  V30 3143 H 284.241 -3.2405 2.27612 0
M  V30 3144 H 285.415 -1.33736 4.40966 0
M  V30 3145 H 283.73 -1.35901 3.93599 0
M  V30 3146 H 286.327 -4.09534 3.43781 0
M  V30 3147 H 286.67 -3.77471 1.75559 0
M  V30 3148 H 287.203 -2.61543 2.99733 0
M  V30 3149 H 283.942 -2.65168 5.99472 0
M  V30 3150 H 283.462 -3.7503 4.68095 0
M  V30 3151 H 285.141 -3.74592 5.27532 0
M  V30 3152 N 285.273 -1.31445 -0.869486 0
M  V30 3153 C 286.203 -1.21727 -1.99261 0
M  V30 3154 C 287.184 -0.104359 -1.6978 0
M  V30 3155 O 288.369 -0.289038 -1.92037 0
M  V30 3156 C 285.499 -0.924317 -3.34774 0
M  V30 3157 C 284.453 -1.99685 -3.78563 0
M  V30 3158 C 283.779 -1.55658 -5.11541 0
M  V30 3159 C 285.079 -3.41003 -3.95619 0
M  V30 3160 H 286.773 -2.1569 -2.07649 0
M  V30 3161 H 284.319 -1.03839 -0.997675 0
M  V30 3162 H 286.272 -0.842934 -4.12883 0
M  V30 3163 H 284.996 0.0509793 -3.2656 0
M  V30 3164 H 283.655 -2.06813 -3.02694 0
M  V30 3165 H 283.303 -0.569132 -4.9977 0
M  V30 3166 H 283.003 -2.27409 -5.41811 0
M  V30 3167 H 284.527 -1.48928 -5.92159 0
M  V30 3168 H 285.941 -3.36547 -4.64122 0
M  V30 3169 H 284.338 -4.10975 -4.37286 0
M  V30 3170 H 285.408 -3.81754 -2.98985 0
M  V30 3171 N 286.751 1.08385 -1.14413 0
M  V30 3172 C 287.976 1.85057 -0.936413 0
M  V30 3173 C 288.401 1.81055 0.509971 0
M  V30 3174 O 287.759 1.1958 1.36273 0
M  V30 3175 C 287.807 3.30505 -1.44217 0
M  V30 3176 O 286.911 4.07491 -0.634409 0
M  V30 3177 H 286.252 0.573425 -0.334784 0
M  V30 3178 H 288.782 1.36799 -1.52142 0
M  V30 3179 H 288.792 3.81348 -1.45043 0
M  V30 3180 H 287.467 3.32734 -2.49522 0
M  V30 3181 H 286.044 3.66368 -0.694902 0
M  V30 3182 N 288.23 0.939286 1.26551 0
M  V30 3183 C 289.646 0.641304 1.46149 0
M  V30 3184 C 289.846 -0.805964 1.84679 0
M  V30 3185 O 288.902 -1.58278 1.96734 0
M  V30 3186 C 290.215 1.6011 2.54529 0
M  V30 3187 C 291.763 1.6106 2.68382 0
M  V30 3188 C 292.238 2.55765 3.79932 0
M  V30 3189 N 293.729 2.5404 3.87322 0
M  V30 3190 C 294.464 3.24004 4.73085 0
M  V30 3191 N 293.96 4.03388 5.63249 0
M  V30 3192 N 295.753 3.12965 4.66914 0
M  V30 3193 H 287.904 1.87478 0.998285 0
M  V30 3194 H 290.167 0.805559 0.499779 0
M  V30 3195 H 289.873 2.63412 2.33039 0
M  V30 3196 H 289.747 1.35171 3.52149 0
M  V30 3197 H 292.134 0.584835 2.89247 0
M  V30 3198 H 292.215 1.90053 1.71212 0
M  V30 3199 H 291.859 3.58458 3.5982 0
M  V30 3200 H 291.789 2.24063 4.76554 0
M  V30 3201 H 294.28 1.96396 3.22858 0
M  V30 3202 H 294.593 4.5373 6.25579 0
M  V30 3203 H 292.938 4.07489 5.63008 0
M  V30 3204 H 296.129 2.50432 3.95476 0
M  V30 3205 H 296.302 3.67759 5.33533 0
M  V30 3206 N 289.708 -1.40897 0.706093 0
M  V30 3207 C 291.119 -1.84023 0.315052 0
M  V30 3208 C 291.47 -1.5906 -1.14866 0
M  V30 3209 O 290.595 -1.06651 -1.88293 0
M  V30 3210 C 291.19 -3.34055 0.565038 0
M  V30 3211 C 289.749 -3.7571 0.227806 0
M  V30 3212 C 288.896 -2.64204 0.842122 0
M  V30 3213 H 291.847 -1.303 0.905963 0
M  V30 3214 H 291.868 -3.80107 -0.172843 0
M  V30 3215 H 291.38 -3.52192 1.63042 0
M  V30 3216 H 289.481 -3.63172 -0.832895 0
M  V30 3217 H 289.594 -4.74103 0.690174 0
M  V30 3218 H 287.958 -2.53255 0.270893 0
M  V30 3219 H 288.741 -2.85155 1.91158 0
M  V30 3220 N 291.186 -0.45159 -1.50991 0
M  V30 3221 C 292.597 0.00818571 -1.86698 0
M  V30 3222 C 292.948 1.40661 -1.3678 0
M  V30 3223 O 292.073 2.0391 -0.724546 0
M  V30 3224 C 292.668 0.0216303 -3.38793 0
M  V30 3225 C 291.227 0.425865 -3.73983 0
M  V30 3226 C 290.374 -0.372163 -2.74791 0
M  V30 3227 H 293.325 -0.666785 -1.44013 0
M  V30 3228 H 293.346 0.828078 -3.7138 0
M  V30 3229 H 292.858 -0.996288 -3.75094 0
M  V30 3230 H 290.959 1.44886 -3.43277 0
M  V30 3231 H 291.072 0.140761 -4.78893 0
M  V30 3232 H 289.436 0.171498 -2.54122 0
M  V30 3233 H 290.219 -1.38922 -3.13935 0
M  V30 3234 N 292.664 1.56529 -0.183458 0
M  V30 3235 C 293.91 1.97537 0.459036 0
M  V30 3236 C 294.243 1.06989 1.62071 0
M  V30 3237 O 293.518 0.11948 1.94133 0
M  V30 3238 C 293.801 3.47874 0.930368 0
M  V30 3239 C 293.654 4.492 -0.232317 0
M  V30 3240 C 294.973 4.01612 1.79989 0
M  V30 3241 H 292.092 0.718204 0.165383 0
M  V30 3242 H 294.734 1.88042 -0.272038 0
M  V30 3243 H 292.884 3.56095 1.55333 0
M  V30 3244 H 294.556 4.53027 -0.86972 0
M  V30 3245 H 292.799 4.24657 -0.885928 0
M  V30 3246 H 293.47 5.51823 0.139796 0
M  V30 3247 H 295.946 3.96097 1.27461 0
M  V30 3248 H 294.822 5.07195 2.09867 0
M  V30 3249 H 295.083 3.46163 2.74998 0
M  V30 3250 N 294.142 -0.090211 1.57342 0
M  V30 3251 C 295.39 -0.791241 1.85967 0
M  V30 3252 C 295.711 -1.7903 0.772859 0
M  V30 3253 O 294.981 -1.94872 -0.200398 0
M  V30 3254 H 293.561 -0.295205 0.686195 0
M  V30 3255 H 296.223 -0.0706782 1.94772 0
M  V30 3256 H 295.319 -1.31882 2.82867 0
M  V30 3257 N 295.62 -1.53406 -0.361157 0
M  V30 3258 C 296.845 -1.74024 -1.12829 0
M  V30 3259 C 297.27 -0.470069 -1.82132 0
M  V30 3260 O 296.628 0.57619 -1.719 0
M  V30 3261 C 296.676 -2.90903 -2.13091 0
M  V30 3262 O 295.78 -2.59821 -3.20261 0
M  V30 3263 H 295.121 -0.577804 -0.327168 0
M  V30 3264 H 297.651 -2.00307 -0.41693 0
M  V30 3265 H 297.661 -3.17194 -2.56616 0
M  V30 3266 H 296.336 -3.83034 -1.62042 0
M  V30 3267 H 294.913 -2.44362 -2.81677 0
M  V30 3268 N 297.098 0.621204 -1.44841 0
M  V30 3269 C 298.323 1.41244 -1.51871 0
M  V30 3270 C 298.748 1.87519 -0.147764 0
M  V30 3271 O 298.106 1.59334 0.865 0
M  V30 3272 C 298.154 2.60221 -2.49634 0
M  V30 3273 O 297.258 3.60395 -2.00473 0
M  V30 3274 H 296.599 0.42223 -0.512463 0
M  V30 3275 H 299.129 0.757305 -1.90069 0
M  V30 3276 H 299.139 3.0764 -2.67996 0
M  V30 3277 H 297.814 2.25887 -3.4921 0
M  V30 3278 H 296.391 3.19717 -1.91925 0
M  V30 3279 N 298.576 1.31904 0.862503 0
M  V30 3280 C 299.506 1.22782 1.98612 0
M  V30 3281 C 300.487 0.113362 1.69722 0
M  V30 3282 O 301.672 0.299218 1.91881 0
M  V30 3283 C 298.802 0.942058 3.34279 0
M  V30 3284 C 297.756 2.0169 3.77499 0
M  V30 3285 C 297.082 1.58369 5.10709 0
M  V30 3286 C 298.382 3.43096 3.93805 0
M  V30 3287 H 300.076 2.16788 2.06502 0
M  V30 3288 H 297.622 1.04366 0.992154 0
M  V30 3289 H 299.575 0.864818 4.1243 0
M  V30 3290 H 298.299 -0.0336603 3.26583 0
M  V30 3291 H 296.958 2.08416 3.01593 0
M  V30 3292 H 296.606 0.595628 4.99461 0
M  V30 3293 H 296.306 2.30279 5.40597 0
M  V30 3294 H 297.83 1.52067 5.91361 0
M  V30 3295 H 299.244 3.39003 4.62331 0
M  V30 3296 H 297.641 4.13288 4.35101 0
M  V30 3297 H 298.711 3.83334 2.96957 0
M  V30 3298 N 300.054 -1.07777 1.14986 0
M  V30 3299 C 300.986 -2.14769 0.800436 0
M  V30 3300 C 301.999 -1.61739 -0.185595 0
M  V30 3301 O 303.188 -1.78462 0.0370358 0
M  V30 3302 C 300.288 -3.38481 0.168533 0
M  V30 3303 C 299.461 -4.20876 1.1909 0
M  V30 3304 C 298.52 -5.22976 0.581575 0
M  V30 3305 O 297.546 -5.55388 1.24633 0
M  V30 3306 N 298.748 -5.76976 -0.638706 0
M  V30 3307 H 301.513 -2.45348 1.72118 0
M  V30 3308 H 299.074 -1.23645 1.04515 0
M  V30 3309 H 301.066 -4.03916 -0.251764 0
M  V30 3310 H 299.636 -3.05651 -0.655467 0
M  V30 3311 H 298.856 -3.51322 1.78791 0
M  V30 3312 H 300.144 -4.7274 1.88133 0
M  V30 3313 H 299.542 -5.52886 -1.19723 0
M  V30 3314 H 298.099 -6.44061 -1.00142 0
M  V30 3315 N 301.532 -0.945985 -1.26051 0
M  V30 3316 C 302.757 -0.612525 -1.98149 0
M  V30 3317 C 303.182 0.806623 -1.69927 0
M  V30 3318 O 302.54 1.54411 -0.950108 0
M  V30 3319 C 302.588 -0.866981 -3.50023 0
M  V30 3320 O 301.692 0.0585333 -4.12358 0
M  V30 3321 H 301.033 -0.23379 -0.621481 0
M  V30 3322 H 303.563 -1.27023 -1.60395 0
M  V30 3323 H 303.573 -0.789792 -4.00283 0
M  V30 3324 H 302.248 -1.90135 -3.69894 0
M  V30 3325 H 300.825 -0.0701241 -3.72834 0
M  V30 3326 N 303.011 1.40521 -0.713556 0
M  V30 3327 C 303.958 2.30723 -0.059684 0
M  V30 3328 C 304.928 1.48079 0.752448 0
M  V30 3329 O 306.113 1.76823 0.71681 0
M  V30 3330 C 303.253 3.34274 0.857594 0
M  V30 3331 C 302.366 4.31986 0.0351536 0
M  V30 3332 C 301.501 5.22605 0.951724 0
M  V30 3333 C 300.54 6.11976 0.123253 0
M  V30 3334 N 299.677 6.9502 0.99459 0
M  V30 3335 H 304.517 2.86074 -0.834596 0
M  V30 3336 H 302.054 1.40879 -0.42326 0
M  V30 3337 H 304.012 3.92879 1.40364 0
M  V30 3338 H 302.642 2.8043 1.59871 0
M  V30 3339 H 301.694 3.7518 -0.628052 0
M  V30 3340 H 303.006 4.95101 -0.606347 0
M  V30 3341 H 302.16 5.86131 1.56638 0
M  V30 3342 H 300.899 4.59759 1.62705 0
M  V30 3343 H 299.904 5.47482 -0.50435 0
M  V30 3344 H 301.129 6.76881 -0.548539 0
M  V30 3345 H 299.075 6.34764 1.6556 0
M  V30 3346 H 298.992 7.54892 0.40908 0
M  V30 3347 H 300.26 7.62997 1.59549 0
M  V30 3348 N 304.489 0.459591 1.5075 0
M  V30 3349 C 305.439 -0.358926 2.25157 0
M  V30 3350 C 306.423 -0.971285 1.28276 0
M  V30 3351 O 307.615 -0.885739 1.53244 0
M  V30 3352 C 304.744 -1.44695 3.11317 0
M  V30 3353 C 303.83 -0.842894 4.15639 0
M  V30 3354 N 304.221 0.0299373 5.05791 0
M  V30 3355 C 302.519 -1.10809 4.32015 0
M  V30 3356 C 303.22 0.371563 5.80512 0
M  V30 3357 N 302.196 -0.250409 5.43023 0
M  V30 3358 H 305.998 0.313636 2.92222 0
M  V30 3359 H 303.512 0.273021 1.60089 0
M  V30 3360 H 305.509 -2.04641 3.63218 0
M  V30 3361 H 304.169 -2.12162 2.45799 0
M  V30 3362 H 305.18 0.39797 5.16369 0
M  V30 3363 H 301.857 -1.7786 3.77719 0
M  V30 3364 H 303.247 1.08319 6.63111 0
M  V30 3365 N 305.967 -1.56429 0.191757 0
M  V30 3366 C 307.192 -2.02309 -0.456706 0
M  V30 3367 C 307.617 -1.07103 -1.5463 0
M  V30 3368 O 306.975 -0.0539677 -1.8122 0
M  V30 3369 C 307.023 -3.46654 -0.993159 0
M  V30 3370 O 306.127 -3.54559 -2.10622 0
M  V30 3371 H 305.468 -0.655303 -0.107114 0
M  V30 3372 H 307.998 -2.02364 0.301653 0
M  V30 3373 H 308.008 -3.86377 -1.31061 0
M  V30 3374 H 306.683 -4.1544 -0.195504 0
M  V30 3375 H 305.26 -3.26708 -1.79767 0
M  V30 3376 N 307.445 0.0818655 -1.57387 0
M  V30 3377 C 308.392 1.09834 -2.0299 0
M  V30 3378 C 309.362 1.39043 -0.908639 0
M  V30 3379 O 310.547 1.50282 -1.17559 0
M  V30 3380 C 307.687 2.40971 -2.47037 0
M  V30 3381 C 306.8 2.18379 -3.7274 0
M  V30 3382 C 305.935 3.43008 -4.0561 0
M  V30 3383 C 304.974 3.15736 -5.24383 0
M  V30 3384 N 304.111 4.32667 -5.52941 0
M  V30 3385 H 308.951 0.702472 -2.89602 0
M  V30 3386 H 306.488 0.33531 -1.43227 0
M  V30 3387 H 308.446 3.1752 -2.70623 0
M  V30 3388 H 307.076 2.78379 -1.63417 0
M  V30 3389 H 306.128 1.32569 -3.56552 0
M  V30 3390 H 307.44 1.94227 -4.59431 0
M  V30 3391 H 306.594 4.27958 -4.30043 0
M  V30 3392 H 305.333 3.70225 -3.17466 0
M  V30 3393 H 304.338 2.2918 -4.99757 0
M  V30 3394 H 305.563 2.8985 -6.14136 0
M  V30 3395 H 303.509 4.59935 -4.67756 0
M  V30 3396 H 303.426 4.11753 -6.34031 0
M  V30 3397 H 304.694 5.18644 -5.81918 0
M  V30 3398 N 308.923 1.53595 0.353017 0
M  V30 3399 C 310.148 1.7462 1.11904 0
M  V30 3400 C 310.573 0.479721 1.8188 0
M  V30 3401 O 309.931 -0.567066 1.72204 0
M  V30 3402 C 309.979 2.92029 2.11545 0
M  V30 3403 O 309.083 2.61516 3.18878 0
M  V30 3404 H 308.424 0.579531 0.324099 0
M  V30 3405 H 310.954 2.00525 0.406301 0
M  V30 3406 H 310.964 3.18551 2.5493 0
M  V30 3407 H 309.639 3.83888 1.60008 0
M  V30 3408 H 308.216 2.45852 2.80377 0
M  V30 3409 N 310.401 -0.613514 1.45168 0
M  V30 3410 C 311.817 -0.933629 1.29443 0
M  V30 3411 C 312.017 -2.00028 0.243101 0
M  V30 3412 O 311.073 -2.49848 -0.364992 0
M  V30 3413 C 312.386 -1.38018 2.67155 0
M  V30 3414 C 313.934 -1.49471 2.75004 0
M  V30 3415 C 314.409 -1.97503 4.13227 0
M  V30 3416 N 315.9 -2.04746 4.15491 0
M  V30 3417 C 316.635 -2.43121 5.19307 0
M  V30 3418 N 316.131 -2.80506 6.33473 0
M  V30 3419 N 317.924 -2.43408 5.06664 0
M  V30 3420 H 310.075 0.0916097 2.12202 0
M  V30 3421 H 312.338 -0.0216655 0.947752 0
M  V30 3422 H 312.044 -0.670625 3.45247 0
M  V30 3423 H 311.918 -2.34784 2.95222 0
M  V30 3424 H 314.305 -2.19519 1.9722 0
M  V30 3425 H 314.386 -0.510342 2.50657 0
M  V30 3426 H 314.03 -1.28045 4.91495 0
M  V30 3427 H 313.96 -2.96843 4.34962 0
M  V30 3428 H 316.451 -1.78468 3.33103 0
M  V30 3429 H 316.764 -3.08652 7.08487 0
M  V30 3430 H 315.109 -2.78216 6.36884 0
M  V30 3431 H 318.3 -2.13604 4.16523 0
M  V30 3432 H 318.473 -2.72989 5.87691 0
M  V30 3433 N 311.879 -1.3236 -0.855495 0
M  V30 3434 C 312.809 -1.23833 -1.97958 0
M  V30 3435 C 313.79 -0.122361 -1.69659 0
M  V30 3436 O 314.975 -0.30939 -1.9172 0
M  V30 3437 C 312.105 -0.959772 -3.33775 0
M  V30 3438 C 311.059 -2.03689 -3.76424 0
M  V30 3439 C 310.385 -1.61075 -5.09862 0
M  V30 3440 C 311.685 -3.4518 -3.9198 0
M  V30 3441 H 313.379 -2.1788 -2.0535 0
M  V30 3442 H 310.925 -1.04891 -0.986605 0
M  V30 3443 H 312.878 -0.886678 -4.11966 0
M  V30 3444 H 311.602 0.0163404 -3.26596 0
M  V30 3445 H 310.261 -2.10012 -3.00484 0
M  V30 3446 H 309.909 -0.622107 -4.99138 0
M  V30 3447 H 309.609 -2.33143 -5.39368 0
M  V30 3448 H 311.133 -1.55201 -5.90546 0
M  V30 3449 H 312.547 -3.4145 -4.60526 0
M  V30 3450 H 310.944 -4.1559 -4.32903 0
M  V30 3451 H 312.014 -3.84903 -2.94919 0
M  V30 3452 N 313.357 1.07166 -1.15556 0
M  V30 3453 C 314.605 1.79443 -0.929764 0
M  V30 3454 C 314.926 1.87246 0.544414 0
M  V30 3455 O 314.196 1.37473 1.39564 0
M  V30 3456 H 312.776 0.664625 -0.341003 0
M  V30 3457 H 315.438 1.29499 -1.45657 0
M  V30 3458 H 314.534 2.81832 -1.34079 0
M  V30 3459 N 314.835 0.952656 1.25548 0
M  V30 3460 C 315.765 0.489287 2.28316 0
M  V30 3461 C 316.746 -0.463359 1.63667 0
M  V30 3462 O 317.931 -0.36274 1.90782 0
M  V30 3463 C 315.061 -0.235603 3.465 0
M  V30 3464 C 314.015 0.631593 4.23314 0
M  V30 3465 C 313.341 -0.223923 5.34231 0
M  V30 3466 C 314.641 1.90871 4.86174 0
M  V30 3467 H 316.335 1.34822 2.67326 0
M  V30 3468 H 313.881 0.649728 1.28509 0
M  V30 3469 H 315.834 -0.570882 4.17515 0
M  V30 3470 H 314.558 -1.12877 3.06474 0
M  V30 3471 H 313.217 0.949929 3.54079 0
M  V30 3472 H 312.865 -1.11678 4.90446 0
M  V30 3473 H 312.565 0.35299 5.86539 0
M  V30 3474 H 314.089 -0.554214 6.0808 0
M  V30 3475 H 315.503 1.63997 5.49343 0
M  V30 3476 H 313.9 2.43112 5.4865 0
M  V30 3477 H 314.97 2.61304 4.08471 0
M  V30 3478 N 316.313 -1.40141 0.720998 0
M  V30 3479 C 317.245 -2.29177 0.0324669 0
M  V30 3480 C 318.258 -1.46105 -0.718126 0
M  V30 3481 O 319.447 -1.69335 -0.564608 0
M  V30 3482 C 316.547 -3.24473 -0.978292 0
M  V30 3483 C 315.72 -4.36423 -0.292115 0
M  V30 3484 C 314.779 -5.12122 -1.20901 0
M  V30 3485 O 313.805 -5.64981 -0.691766 0
M  V30 3486 N 315.007 -5.21992 -2.53978 0
M  V30 3487 H 317.772 -2.88909 0.796984 0
M  V30 3488 H 315.333 -1.51569 0.569068 0
M  V30 3489 H 317.325 -3.71987 -1.59398 0
M  V30 3490 H 315.895 -2.65871 -1.64413 0
M  V30 3491 H 315.115 -3.90967 0.503847 0
M  V30 3492 H 316.403 -5.08467 0.183971 0
M  V30 3493 H 315.801 -4.8054 -2.98493 0
M  V30 3494 H 314.358 -5.72995 -3.10677 0
M  V30 3495 N 317.792 -0.46758 -1.50504 0
M  V30 3496 C 319.017 0.0886943 -2.0721 0
M  V30 3497 C 319.442 1.33057 -1.32956 0
M  V30 3498 O 318.8 1.77354 -0.376197 0
M  V30 3499 C 318.848 0.359202 -3.58806 0
M  V30 3500 O 317.952 1.44034 -3.8643 0
M  V30 3501 H 317.293 -0.0114349 -0.663902 0
M  V30 3502 H 319.823 -0.657613 -1.93744 0
M  V30 3503 H 319.833 0.600742 -4.03553 0
M  V30 3504 H 318.508 -0.548311 -4.1227 0
M  V30 3505 H 317.085 1.18638 -3.53524 0
M  V30 3506 N 319.27 1.56325 -0.20005 0
M  V30 3507 C 320.202 2.16555 0.750771 0
M  V30 3508 C 321.215 1.12871 1.1732 0
M  V30 3509 O 322.404 1.39943 1.10807 0
M  V30 3510 C 319.504 2.71684 2.02586 0
M  V30 3511 C 318.677 4.00321 1.76244 0
M  V30 3512 C 317.736 4.40227 2.88248 0
M  V30 3513 O 316.762 5.07552 2.57642 0
M  V30 3514 N 317.964 4.04138 4.16717 0
M  V30 3515 H 320.729 2.98772 0.235685 0
M  V30 3516 H 318.29 1.6189 -0.0182594 0
M  V30 3517 H 320.282 2.95363 2.76664 0
M  V30 3518 H 318.852 1.93893 2.45202 0
M  V30 3519 H 318.072 3.84723 0.85919 0
M  V30 3520 H 319.36 4.84279 1.56048 0
M  V30 3521 H 318.758 3.49993 4.44434 0
M  V30 3522 H 317.315 4.32756 4.87407 0
M  V30 3523 N 320.748 -0.0735177 1.57428 0
M  V30 3524 C 321.68 -1.11423 2.00294 0
M  V30 3525 C 322.693 -1.35084 0.908637 0
M  V30 3526 O 323.882 -1.33355 1.18654 0
M  V30 3527 C 320.982 -2.46548 2.32523 0
M  V30 3528 C 320.155 -2.42867 3.63778 0
M  V30 3529 C 319.214 -3.60087 3.83697 0
M  V30 3530 O 318.24 -3.41595 4.55304 0
M  V30 3531 N 319.442 -4.80372 3.25919 0
M  V30 3532 H 322.207 -0.749206 2.90184 0
M  V30 3533 H 319.768 -0.262195 1.59763 0
M  V30 3534 H 321.76 -3.23607 2.43024 0
M  V30 3535 H 320.33 -2.75059 1.48531 0
M  V30 3536 H 319.55 -1.51206 3.64047 0
M  V30 3537 H 320.838 -2.37506 4.49965 0
M  V30 3538 H 320.236 -4.983 2.67795 0
M  V30 3539 H 318.793 -5.54948 3.41871 0
M  V30 3540 N 322.226 -1.5378 -0.344866 0
M  V30 3541 C 323.474 -1.70625 -1.08311 0
M  V30 3542 C 323.795 -0.471447 -1.89215 0
M  V30 3543 O 323.065 0.514616 -1.8902 0
M  V30 3544 H 321.645 -0.629058 -0.402859 0
M  V30 3545 H 324.307 -1.9103 -0.386459 0
M  V30 3546 H 323.403 -2.57656 -1.76124 0
M  V30 3547 N 323.704 0.605807 -1.45491 0
M  V30 3548 C 324.654 1.71074 -1.50724 0
M  V30 3549 C 325.638 1.5658 -0.37033 0
M  V30 3550 O 326.83 1.65887 -0.617299 0
M  V30 3551 C 323.959 3.0983 -1.47852 0
M  V30 3552 C 323.045 3.29704 -2.66751 0
M  V30 3553 N 323.436 3.19831 -3.91844 0
M  V30 3554 C 321.734 3.60579 -2.62486 0
M  V30 3555 C 322.435 3.41083 -4.71208 0
M  V30 3556 N 321.411 3.65157 -4.02693 0
M  V30 3557 H 325.213 1.61937 -2.45263 0
M  V30 3558 H 322.727 0.80912 -1.40808 0
M  V30 3559 H 324.724 3.89101 -1.49686 0
M  V30 3560 H 323.384 3.20115 -0.543714 0
M  V30 3561 H 324.395 2.98194 -4.23439 0
M  V30 3562 H 321.072 3.7769 -1.77922 0
M  V30 3563 H 322.462 3.38828 -5.80211 0
M  V30 3564 N 325.182 1.32811 0.848464 0
M  V30 3565 C 326.112 1.24882 1.97299 0
M  V30 3566 C 327.093 0.131357 1.69592 0
M  V30 3567 O 328.278 0.319553 1.91553 0
M  V30 3568 C 325.408 0.97746 3.33261 0
M  V30 3569 C 324.362 2.05682 3.75338 0
M  V30 3570 C 323.688 1.63777 5.09 0
M  V30 3571 C 324.988 3.47254 3.90144 0
M  V30 3572 H 326.682 2.18966 2.04191 0
M  V30 3573 H 324.228 1.05413 0.981029 0
M  V30 3574 H 326.181 0.908513 4.1149 0
M  V30 3575 H 324.905 0.000980011 3.266 0
M  V30 3576 H 323.564 2.11603 2.99366 0
M  V30 3577 H 323.212 0.648569 4.98801 0
M  V30 3578 H 322.912 2.36 5.38124 0
M  V30 3579 H 324.436 1.5833 5.89715 0
M  V30 3580 H 325.85 3.43888 4.58709 0
M  V30 3581 H 324.247 4.1788 4.30693 0
M  V30 3582 H 325.317 3.86462 2.92874 0
M  V30 3583 N 326.66 -1.06551 1.16123 0
M  V30 3584 C 327.623 -2.12132 0.867906 0
M  V30 3585 C 328.623 -1.60224 -0.135944 0
M  V30 3586 O 329.813 -1.73943 0.0946422 0
M  V30 3587 C 326.945 -3.396 0.297419 0
M  V30 3588 H 328.138 -2.39586 1.80385 0
M  V30 3589 H 325.691 -1.22574 0.969812 0
M  V30 3590 H 326.426 -3.17794 -0.64633 0
M  V30 3591 H 326.211 -3.78581 1.02073 0
M  V30 3592 H 327.701 -4.17455 0.110052 0
M  V30 3593 N 328.138 -0.959301 -1.25041 0
M  V30 3594 C 329.554 -0.664474 -1.4511 0
M  V30 3595 C 329.754 0.776481 -1.85938 0
M  V30 3596 O 328.81 1.55128 -1.99227 0
M  V30 3597 C 330.123 -1.64139 -2.5195 0
M  V30 3598 C 331.671 -1.65309 -2.65786 0
M  V30 3599 C 332.146 -2.61777 -3.75815 0
M  V30 3600 N 333.637 -2.60169 -3.83231 0
M  V30 3601 C 334.372 -3.31489 -4.6787 0
M  V30 3602 N 333.868 -4.12298 -5.56761 0
M  V30 3603 N 335.661 -3.20354 -4.61876 0
M  V30 3604 H 327.812 -1.89043 -0.968332 0
M  V30 3605 H 330.075 -0.813408 -0.4869 0
M  V30 3606 H 329.781 -2.67086 -2.28819 0
M  V30 3607 H 329.655 -1.40756 -3.49954 0
M  V30 3608 H 332.042 -0.630778 -2.8828 0
M  V30 3609 H 332.123 -1.92753 -1.68167 0
M  V30 3610 H 331.767 -3.64137 -3.54071 0
M  V30 3611 H 331.697 -2.31616 -4.72929 0
M  V30 3612 H 334.188 -2.01507 -3.19692 0
M  V30 3613 H 334.501 -4.63625 -6.18281 0
M  V30 3614 H 332.846 -4.16395 -5.56454 0
M  V30 3615 H 336.037 -2.56692 -3.91442 0
M  V30 3616 H 336.21 -3.76201 -5.27614 0
M  V30 3617 N 329.616 1.39756 -0.72842 0
M  V30 3618 C 331.032 1.5442 -0.403308 0
M  V30 3619 C 331.232 1.69694 1.08656 0
M  V30 3620 O 330.288 1.69373 1.87267 0
M  V30 3621 C 331.601 2.76555 -1.18058 0
M  V30 3622 C 333.149 2.90384 -1.16815 0
M  V30 3623 C 333.624 4.15449 -1.92785 0
M  V30 3624 N 335.115 4.22475 -1.89918 0
M  V30 3625 C 335.85 5.1818 -2.45514 0
M  V30 3626 N 335.346 6.19714 -3.09719 0
M  V30 3627 N 337.139 5.1035 -2.35584 0
M  V30 3628 H 329.29 1.28089 -1.69431 0
M  V30 3629 H 331.553 0.620327 -0.716867 0
M  V30 3630 H 331.259 2.7159 -2.23455 0
M  V30 3631 H 331.133 3.69033 -0.780662 0
M  V30 3632 H 333.52 2.94846 -0.12234 0
M  V30 3633 H 333.601 1.98988 -1.6074 0
M  V30 3634 H 333.245 4.11749 -2.97364 0
M  V30 3635 H 333.175 5.05877 -1.46272 0
M  V30 3636 H 335.666 3.49743 -1.43138 0
M  V30 3637 H 335.979 6.8919 -3.49625 0
M  V30 3638 H 334.324 6.20121 -3.13807 0
M  V30 3639 H 337.515 4.2996 -1.85072 0
M  V30 3640 H 337.688 5.84761 -2.79211 0
M  V30 3641 N 331.094 0.475555 1.50254 0
M  V30 3642 C 332.026 -0.352649 2.26471 0
M  V30 3643 C 333.039 -0.953165 1.3198 0
M  V30 3644 O 334.228 -0.840815 1.57457 0
M  V30 3645 C 331.328 -1.50902 3.0345 0
M  V30 3646 C 330.501 -1.02047 4.25329 0
M  V30 3647 C 329.56 -2.05142 4.84565 0
M  V30 3648 O 328.586 -1.63023 5.45355 0
M  V30 3649 N 329.788 -3.37987 4.71959 0
M  V30 3650 H 332.553 0.300767 2.98187 0
M  V30 3651 H 330.114 0.306598 1.5897 0
M  V30 3652 H 332.106 -2.19572 3.39956 0
M  V30 3653 H 330.676 -2.06705 2.34504 0
M  V30 3654 H 329.896 -0.159507 3.93877 0
M  V30 3655 H 331.184 -0.672061 5.04342 0
M  V30 3656 H 330.582 -3.74913 4.23623 0
M  V30 3657 H 329.139 -4.02443 5.12721 0
M  V30 3658 N 332.573 -1.56217 0.208337 0
M  V30 3659 C 333.505 -2.1695 -0.739276 0
M  V30 3660 C 334.518 -1.13492 -1.1672 0
M  V30 3661 O 335.707 -1.40529 -1.10063 0
M  V30 3662 C 332.807 -2.72755 -2.01142 0
M  V30 3663 C 331.98 -4.0125 -1.74118 0
M  V30 3664 C 331.039 -4.41749 -2.85909 0
M  V30 3665 O 330.065 -5.08912 -2.54946 0
M  V30 3666 N 331.267 -4.06342 -4.14568 0
M  V30 3667 H 334.032 -2.98893 -0.219837 0
M  V30 3668 H 331.593 -1.61878 0.0268445 0
M  V30 3669 H 333.585 -2.96826 -2.75094 0
M  V30 3670 H 332.155 -1.95191 -2.4417 0
M  V30 3671 H 331.375 -3.85173 -0.838775 0
M  V30 3672 H 332.663 -4.851 -1.53477 0
M  V30 3673 H 332.061 -3.52345 -4.42571 0
M  V30 3674 H 330.618 -4.35335 -4.85105 0
M  V30 3675 N 334.051 0.0651679 -1.57465 0
M  V30 3676 C 335.299 0.761555 -1.87202 0
M  V30 3677 C 335.62 1.77778 -0.801243 0
M  V30 3678 O 334.89 1.95166 0.16937 0
M  V30 3679 H 333.47 0.284251 -0.690804 0
M  V30 3680 H 336.132 0.0396827 -1.9486 0
M  V30 3681 H 335.228 1.27365 -2.84929 0
M  V30 3682 N 335.529 1.53961 0.336706 0
M  V30 3683 C 336.945 1.44378 0.680241 0
M  V30 3684 C 337.145 0.606034 1.9217 0
M  V30 3685 O 336.201 0.099688 2.52303 0
M  V30 3686 C 337.514 2.87945 0.8665 0
M  V30 3687 C 339.062 2.97763 0.964682 0
M  V30 3688 C 339.537 4.42453 1.18321 0
M  V30 3689 N 341.028 4.46008 1.25025 0
M  V30 3690 C 341.763 5.55102 1.43697 0
M  V30 3691 N 341.259 6.7419 1.59498 0
M  V30 3692 N 343.052 5.42727 1.463 0
M  V30 3693 H 335.203 2.06918 -0.479455 0
M  V30 3694 H 337.466 0.935634 -0.152619 0
M  V30 3695 H 337.172 3.51691 0.0256937 0
M  V30 3696 H 337.046 3.33293 1.76623 0
M  V30 3697 H 339.433 2.34153 1.796 0
M  V30 3698 H 339.514 2.55766 0.041708 0
M  V30 3699 H 339.158 5.06645 0.356788 0
M  V30 3700 H 339.088 4.82048 2.11985 0
M  V30 3701 H 341.579 3.60196 1.14312 0
M  V30 3702 H 341.892 7.53095 1.734 0
M  V30 3703 H 340.237 6.77123 1.56621 0
M  V30 3704 H 343.428 4.48647 1.33543 0
M  V30 3705 H 343.601 6.27806 1.6051 0
M  V30 3706 N 337.007 -0.598083 1.45811 0
M  V30 3707 C 338.232 -1.3881 1.54099 0
M  V30 3708 C 338.657 -1.8726 0.177578 0
M  V30 3709 O 338.015 -1.6069 -0.839541 0
M  V30 3710 C 338.063 -2.56217 2.53743 0
M  V30 3711 O 337.167 -3.5716 2.06182 0
M  V30 3712 H 336.508 -0.414024 0.519115 0
M  V30 3713 H 339.038 -0.726971 1.91249 0
M  V30 3714 H 339.048 -3.03337 2.72856 0
M  V30 3715 H 337.723 -2.20303 3.5276 0
M  V30 3716 H 336.3 -3.16624 1.96987 0
M  V30 3717 N 338.485 -1.33259 -0.841409 0
M  V30 3718 C 339.731 -1.25766 -1.59857 0
M  V30 3719 C 340.086 0.175602 -1.91597 0
M  V30 3720 O 339.379 1.117 -1.55672 0
M  V30 3721 C 339.573 -2.06381 -2.9179 0
M  V30 3722 C 339.402 -3.57401 -2.72937 0
M  V30 3723 C 338.172 -4.26718 -2.70628 0
M  V30 3724 C 340.37 -4.51786 -2.45753 0
M  V30 3725 N 338.352 -5.63705 -2.43125 0
M  V30 3726 C 339.723 -5.76643 -2.27777 0
M  V30 3727 C 341.778 -4.40898 -2.31329 0
M  V30 3728 C 340.481 -6.91842 -1.96841 0
M  V30 3729 C 342.507 -5.55911 -2.01786 0
M  V30 3730 C 341.869 -6.79776 -1.8462 0
M  V30 3731 H 337.968 -0.515406 -0.588117 0
M  V30 3732 H 340.552 -1.67772 -0.987955 0
M  V30 3733 H 338.723 -1.667 -3.50807 0
M  V30 3734 H 340.455 -1.90678 -3.56965 0
M  V30 3735 H 337.21 -3.78968 -2.84043 0
M  V30 3736 H 337.634 -6.35911 -2.32265 0
M  V30 3737 H 342.276 -3.45772 -2.43314 0
M  V30 3738 H 339.994 -7.86968 -1.83594 0
M  V30 3739 H 343.58 -5.49421 -1.91384 0
M  V30 3740 H 342.46 -7.67266 -1.62088 0
M  V30 3741 N 339.963 1.05934 -1.16686 0
M  V30 3742 C 341.188 1.83029 -0.975455 0
M  V30 3743 C 341.613 1.82096 0.471452 0
M  V30 3744 O 340.971 1.22443 1.33706 0
M  V30 3745 C 341.019 3.27372 -1.51195 0
M  V30 3746 O 340.123 4.06054 -0.720701 0
M  V30 3747 H 339.464 0.566194 -0.346872 0
M  V30 3748 H 341.994 1.33541 -1.55009 0
M  V30 3749 H 342.004 3.78186 -1.53099 0
M  V30 3750 H 340.679 3.27366 -2.56523 0
M  V30 3751 H 339.256 3.64812 -0.772458 0
M  V30 3752 N 341.441 0.965919 1.2453 0
M  V30 3753 C 342.69 0.622437 1.91856 0
M  V30 3754 C 343.003 -0.846006 1.76358 0
M  V30 3755 O 344.209 -1.29993 2.38357 0
M  V30 3756 C 342.665 1.0626 3.43856 0
M  V30 3757 C 342.273 2.55437 3.68043 0
M  V30 3758 C 344.017 0.792183 4.17043 0
M  V30 3759 C 341.924 2.93196 5.13605 0
M  V30 3760 H 340.854 0.229092 0.718354 0
M  V30 3761 H 343.505 1.17189 1.41206 0
M  V30 3762 H 341.887 0.441476 3.93531 0
M  V30 3763 H 343.061 3.22665 3.28974 0
M  V30 3764 H 341.376 2.8007 3.08139 0
M  V30 3765 H 343.973 1.05031 5.24283 0
M  V30 3766 H 344.316 -0.271584 4.15413 0
M  V30 3767 H 344.849 1.37419 3.73311 0
M  V30 3768 H 341.588 3.98636 5.20355 0
M  V30 3769 H 341.108 2.30651 5.53679 0
M  V30 3770 H 342.787 2.83004 5.81823 0
M  V30 3771 N 342.919 -1.39368 0.735821 0
M  V30 3772 C 344.335 -1.54204 0.411492 0
M  V30 3773 C 344.535 -1.70268 -1.07755 0
M  V30 3774 O 343.591 -1.70364 -1.86366 0
M  V30 3775 C 344.904 -2.75925 1.19523 0
M  V30 3776 C 346.452 -2.89761 1.18354 0
M  V30 3777 C 346.927 -4.14421 1.94986 0
M  V30 3778 N 348.418 -4.21462 1.92156 0
M  V30 3779 C 349.153 -5.16871 2.48258 0
M  V30 3780 N 348.649 -6.18063 3.13001 0
M  V30 3781 N 350.442 -5.09093 2.38287 0
M  V30 3782 H 342.593 -1.27189 1.70108 0
M  V30 3783 H 344.856 -0.616517 0.720147 0
M  V30 3784 H 344.562 -2.70401 2.24892 0
M  V30 3785 H 344.436 -3.68614 0.800222 0
M  V30 3786 H 346.823 -2.94777 0.137975 0
M  V30 3787 H 346.904 -1.98133 1.61793 0
M  V30 3788 H 346.548 -4.10166 2.99543 0
M  V30 3789 H 346.478 -5.05095 1.48953 0
M  V30 3790 H 348.969 -3.48979 1.44991 0
M  V30 3791 H 349.282 -6.87326 3.53275 0
M  V30 3792 H 347.627 -6.18448 3.17091 0
M  V30 3793 H 350.818 -4.28973 1.8735 0
M  V30 3794 H 350.991 -5.83272 2.82308 0
M  V30 3795 N 344.397 -0.483516 -1.5 0
M  V30 3796 C 345.36 0.292965 -2.2732 0
M  V30 3797 C 346.36 0.909499 -1.32608 0
M  V30 3798 O 347.55 0.776745 -1.55924 0
M  V30 3799 C 344.682 1.41854 -3.09984 0
M  V30 3800 H 345.875 -0.385289 -2.97415 0
M  V30 3801 H 343.428 -0.237942 -1.54478 0
M  V30 3802 H 344.163 2.13148 -2.44414 0
M  V30 3803 H 343.948 0.982114 -3.79601 0
M  V30 3804 H 345.438 1.96597 -3.68429 0
M  V30 3805 N 345.875 1.56104 -0.216619 0
M  V30 3806 C 347.123 1.97781 0.415593 0
M  V30 3807 C 347.444 1.10536 1.60645 0
M  V30 3808 O 346.714 0.181303 1.95059 0
M  V30 3809 H 345.294 0.730415 0.156534 0
M  V30 3810 H 347.956 1.92445 -0.308366 0
M  V30 3811 H 347.052 3.03072 0.74525 0
M  V30 3812 N 347.353 -0.0568162 1.57498 0
M  V30 3813 C 348.6 -0.753104 1.87975 0
M  V30 3814 C 348.928 -1.76815 0.81035 0
M  V30 3815 O 348.183 -1.94756 -0.19199 0
M  V30 3816 C 348.482 -1.48359 3.25153 0
M  V30 3817 C 348.148 -0.60713 4.46794 0
M  V30 3818 C 346.81 -0.365642 4.79809 0
M  V30 3819 C 349.162 -0.000305978 5.212 0
M  V30 3820 C 346.49 0.491905 5.84634 0
M  V30 3821 C 348.842 0.844781 6.26934 0
M  V30 3822 C 347.506 1.096 6.58441 0
M  V30 3823 H 346.776 -0.27558 0.687849 0
M  V30 3824 H 349.423 -0.0135173 1.91495 0
M  V30 3825 H 347.728 -2.29577 3.17492 0
M  V30 3826 H 349.425 -2.02739 3.45974 0
M  V30 3827 H 346.015 -0.805487 4.20963 0
M  V30 3828 H 350.199 -0.173961 4.95995 0
M  V30 3829 H 345.455 0.695131 6.07436 0
M  V30 3830 H 349.629 1.32165 6.83744 0
M  V30 3831 H 347.256 1.76224 7.39492 0
M  V30 3832 N 348.832 -1.54138 -0.328536 0
M  V30 3833 C 349.782 -1.79557 -1.4051 0
M  V30 3834 C 350.766 -0.651373 -1.47126 0
M  V30 3835 O 351.958 -0.911226 -1.51742 0
M  V30 3836 C 349.087 -2.02196 -2.77438 0
M  V30 3837 C 348.173 -3.22724 -2.75155 0
M  V30 3838 N 348.564 -4.43881 -2.42494 0
M  V30 3839 C 346.862 -3.24196 -3.06289 0
M  V30 3840 C 347.563 -5.25797 -2.48822 0
M  V30 3841 N 346.539 -4.62862 -2.8506 0
M  V30 3842 H 350.341 -2.70814 -1.1418 0
M  V30 3843 H 347.855 -1.53265 -0.536991 0
M  V30 3844 H 349.852 -2.18546 -3.55026 0
M  V30 3845 H 348.512 -1.12191 -3.04702 0
M  V30 3846 H 349.523 -4.70969 -2.15428 0
M  V30 3847 H 346.2 -2.44208 -3.38627 0
M  V30 3848 H 347.59 -6.32535 -2.26603 0
M  V30 3849 N 350.31 0.590341 -1.46126 0
M  V30 3850 C 351.721 1.17243 -1.45296 0
M  V30 3851 C 352.072 1.95281 -0.189723 0
M  V30 3852 O 351.197 2.04502 0.707674 0
M  V30 3853 C 351.792 2.13284 -2.6324 0
M  V30 3854 C 350.351 2.66832 -2.65476 0
M  V30 3855 C 349.498 1.42557 -2.3785 0
M  V30 3856 H 352.449 0.378692 -1.54116 0
M  V30 3857 H 352.47 2.96619 -2.38323 0
M  V30 3858 H 351.982 1.56459 -3.55165 0
M  V30 3859 H 350.083 3.27548 -1.77603 0
M  V30 3860 H 350.196 3.10088 -3.65215 0
M  V30 3861 H 348.56 1.72107 -1.87753 0
M  V30 3862 H 349.343 0.875741 -3.31942 0
M  V30 3863 N 351.788 1.33704 0.83433 0
M  V30 3864 C 353.016 1.28467 1.62185 0
M  V30 3865 C 353.431 -0.143526 1.88254 0
M  V30 3866 O 352.788 -1.08709 1.4659 0
M  V30 3867 C 352.839 2.06174 2.96942 0
M  V30 3868 O 352.56 3.43422 2.72016 0
M  V30 3869 C 354.061 2.08201 3.91366 0
M  V30 3870 H 351.281 0.4424 0.504503 0
M  V30 3871 H 353.825 1.76145 1.03891 0
M  V30 3872 H 351.98 1.62167 3.51825 0
M  V30 3873 H 352.394 3.83453 3.57861 0
M  V30 3874 H 353.868 2.67017 4.83121 0
M  V30 3875 H 354.345 1.07343 4.2588 0
M  V30 3876 H 354.951 2.52246 3.42421 0
M  V30 3877 N 353.266 -1.05314 1.17247 0
M  V30 3878 C 354.229 -2.112 0.890357 0
M  V30 3879 C 355.229 -1.60359 -0.118943 0
M  V30 3880 O 356.419 -1.73833 0.113086 0
M  V30 3881 C 353.551 -3.39266 0.333422 0
M  V30 3882 H 354.744 -2.37659 1.82916 0
M  V30 3883 H 352.297 -1.21538 0.982758 0
M  V30 3884 H 353.032 -3.18462 -0.612587 0
M  V30 3885 H 352.817 -3.77477 1.06082 0
M  V30 3886 H 354.307 -4.17315 0.154322 0
M  V30 3887 N 354.744 -0.972509 -1.24016 0
M  V30 3888 C 356.16 -0.679827 -1.44397 0
M  V30 3889 C 356.36 0.756716 -1.86751 0
M  V30 3890 O 355.416 1.53007 -2.00861 0
M  V30 3891 C 356.729 -1.66803 -2.50195 0
M  V30 3892 C 358.277 -1.68119 -2.64017 0
M  V30 3893 C 358.752 -2.65748 -3.73017 0
M  V30 3894 N 360.243 -2.64219 -3.8045 0
M  V30 3895 C 360.978 -3.36433 -4.64328 0
M  V30 3896 N 360.474 -4.1818 -5.52356 0
M  V30 3897 N 362.267 -3.25235 -4.58453 0
M  V30 3898 H 354.418 -1.90059 -0.948228 0
M  V30 3899 H 356.681 -0.818527 -0.478245 0
M  V30 3900 H 356.387 -2.69498 -2.25973 0
M  V30 3901 H 356.261 -1.4446 -3.48441 0
M  V30 3902 H 358.648 -0.661319 -2.87594 0
M  V30 3903 H 358.729 -1.94525 -1.66113 0
M  V30 3904 H 358.373 -3.67872 -3.50189 0
M  V30 3905 H 358.303 -2.36619 -4.70446 0
M  V30 3906 H 360.794 -2.04887 -3.17537 0
M  V30 3907 H 361.107 -4.70157 -6.13329 0
M  V30 3908 H 359.452 -4.22273 -5.52006 0
M  V30 3909 H 362.643 -2.60829 -3.88698 0
M  V30 3910 H 362.816 -3.81776 -5.23594 0
M  V30 3911 N 356.222 1.38976 -0.743202 0
M  V30 3912 C 357.638 1.53984 -0.419664 0
M  V30 3913 C 357.838 1.70837 1.0685 0
M  V30 3914 O 356.894 1.7135 1.8546 0
M  V30 3915 C 358.207 2.75287 -1.20985 0
M  V30 3916 C 359.755 2.89129 -1.19889 0
M  V30 3917 C 360.23 4.13381 -1.97181 0
M  V30 3918 N 361.721 4.20437 -1.94389 0
M  V30 3919 C 362.456 5.15547 -2.50996 0
M  V30 3920 N 361.952 6.16395 -3.16274 0
M  V30 3921 N 363.745 5.07822 -2.40984 0
M  V30 3922 H 355.896 1.26285 -1.7078 0
M  V30 3923 H 358.159 0.612689 -0.723406 0
M  V30 3924 H 357.865 2.69204 -2.26323 0
M  V30 3925 H 357.739 3.68184 -0.819759 0
M  V30 3926 H 360.126 2.947 -0.153606 0
M  V30 3927 H 360.207 1.97272 -1.62841 0
M  V30 3928 H 359.851 4.08572 -3.01714 0
M  V30 3929 H 359.781 5.04298 -1.51629 0
M  V30 3930 H 362.272 3.48205 -1.46839 0
M  V30 3931 H 362.585 6.85443 -3.56915 0
M  V30 3932 H 360.93 6.16758 -3.20367 0
M  V30 3933 H 364.121 4.27973 -1.89622 0
M  V30 3934 H 364.294 5.81767 -2.85397 0
M  V30 3935 N 357.7 0.491464 1.49741 0
M  V30 3936 C 359.111 0.0413169 1.86654 0
M  V30 3937 C 359.462 -1.36985 1.40462 0
M  V30 3938 O 358.587 -2.01917 0.778354 0
M  V30 3939 C 359.182 0.0682023 3.38731 0
M  V30 3940 C 357.741 -0.32656 3.74981 0
M  V30 3941 C 356.888 0.444888 2.73708 0
M  V30 3942 H 359.839 0.704733 1.42194 0
M  V30 3943 H 359.86 -0.729322 3.73445 0
M  V30 3944 H 359.372 1.09539 3.72321 0
M  V30 3945 H 357.473 -1.35734 3.46997 0
M  V30 3946 H 357.586 -0.013741 4.79098 0
M  V30 3947 H 355.95 -0.104062 2.54487 0
M  V30 3948 H 356.733 1.47197 3.10142 0
M  V30 3949 N 359.178 -1.55987 0.224894 0
M  V30 3950 C 360.425 -1.9839 -0.4059 0
M  V30 3951 C 360.753 -1.11261 -1.59535 0
M  V30 3952 O 360.008 -0.158314 -1.95059 0
M  V30 3953 C 360.307 -3.46394 -0.880106 0
M  V30 3954 C 359.973 -4.5046 0.19918 0
M  V30 3955 C 358.635 -4.7864 0.495661 0
M  V30 3956 C 360.987 -5.12855 0.928939 0
M  V30 3957 C 358.315 -5.66497 1.52636 0
M  V30 3958 C 360.667 -6.01828 1.949 0
M  V30 3959 C 359.331 -6.28351 2.25236 0
M  V30 3960 H 358.601 -0.725961 -0.148529 0
M  V30 3961 H 361.248 -1.88668 0.328113 0
M  V30 3962 H 359.553 -3.53337 -1.69294 0
M  V30 3963 H 361.25 -3.76577 -1.37808 0
M  V30 3964 H 357.84 -4.28579 -0.0420526 0
M  V30 3965 H 362.024 -4.9115 0.713129 0
M  V30 3966 H 357.28 -5.8531 1.76698 0
M  V30 3967 H 361.454 -6.49225 2.51951 0
M  V30 3968 H 359.081 -6.96226 3.05244 0
M  V30 3969 N 360.656 0.0484629 -1.57525 0
M  V30 3970 C 361.904 0.741657 -1.88 0
M  V30 3971 C 362.225 1.76918 -0.820054 0
M  V30 3972 O 361.495 1.95335 0.148661 0
M  V30 3973 H 360.075 0.276908 -0.69378 0
M  V30 3974 H 362.737 0.019013 -1.94891 0
M  V30 3975 H 361.833 1.24336 -2.86264 0
M  V30 3976 N 362.134 1.5431 0.320358 0
M  V30 3977 C 363.38 1.72924 1.05949 0
M  V30 3978 C 363.713 0.503185 1.87568 0
M  V30 3979 O 362.988 -0.499839 1.87968 0
M  V30 3980 C 363.271 3.00676 1.98156 0
M  V30 3981 C 363.124 4.3354 1.19845 0
M  V30 3982 C 364.443 3.24198 2.9763 0
M  V30 3983 H 361.562 0.629195 0.383774 0
M  V30 3984 H 364.204 1.87008 0.335854 0
M  V30 3985 H 362.354 2.888 2.59859 0
M  V30 3986 H 364.026 4.57305 0.605773 0
M  V30 3987 H 362.269 4.309 0.500784 0
M  V30 3988 H 362.94 5.19156 1.87567 0
M  V30 3989 H 365.416 3.35557 2.4605 0
M  V30 3990 H 364.292 4.14938 3.59329 0
M  V30 3991 H 364.553 2.41577 3.7026 0
M  V30 3992 N 363.613 -0.582584 1.46437 0
M  V30 3993 C 364.523 -1.71949 1.59595 0
M  V30 3994 C 365.539 -1.67264 0.479443 0
M  V30 3995 O 366.715 -1.87171 0.743579 0
M  V30 3996 C 363.78 -3.08452 1.58298 0
M  V30 3997 C 362.841 -3.244 2.81182 0
M  V30 3998 C 362.074 -4.54391 2.79937 0
M  V30 3999 O 362.297 -5.38287 1.8869 0
M  V30 4000 O 361.231 -4.73588 3.71481 0
M  V30 4001 H 365.057 -1.63795 2.55744 0
M  V30 4002 H 362.642 -0.749643 1.29231 0
M  V30 4003 H 364.524 -3.89732 1.60271 0
M  V30 4004 H 363.199 -3.17043 0.653094 0
M  V30 4005 H 362.106 -2.42613 2.84763 0
M  V30 4006 H 363.439 -3.20699 3.7338 0
M  V30 4007 N 365.091 -1.34144 -0.827227 0
M  V30 4008 C 366.502 -1.23557 -1.39966 0
M  V30 4009 C 366.853 0.140731 -1.95695 0
M  V30 4010 O 365.978 1.04087 -1.89723 0
M  V30 4011 C 366.573 -2.23708 -2.54441 0
M  V30 4012 C 365.132 -2.16924 -3.07605 0
M  V30 4013 C 364.279 -2.10549 -1.80456 0
M  V30 4014 H 367.23 -1.45573 -0.631991 0
M  V30 4015 H 367.251 -1.85157 -3.32411 0
M  V30 4016 H 366.763 -3.23866 -2.13851 0
M  V30 4017 H 364.864 -1.20107 -3.52711 0
M  V30 4018 H 364.977 -3.07988 -3.66988 0
M  V30 4019 H 363.341 -1.56203 -2.01178 0
M  V30 4020 H 364.124 -3.12535 -1.42046 0
M  V30 4021 N 366.569 1.04691 -1.17803 0
M  V30 4022 C 367.794 1.81984 -0.994813 0
M  V30 4023 C 368.219 1.82586 0.452112 0
M  V30 4024 O 367.577 1.23854 1.324 0
M  V30 4025 C 367.625 3.2575 -1.54659 0
M  V30 4026 O 366.729 4.05267 -0.763728 0
M  V30 4027 H 366.07 0.562483 -0.352857 0
M  V30 4028 H 368.6 1.3189 -1.56417 0
M  V30 4029 H 368.61 3.76541 -1.57102 0
M  V30 4030 H 367.285 3.24627 -2.59981 0
M  V30 4031 H 365.862 3.63972 -0.811108 0
M  V30 4032 N 368.047 0.979072 1.23499 0
M  V30 4033 C 369.295 0.645941 1.91499 0
M  V30 4034 C 369.616 -0.822948 1.76784 0
M  V30 4035 O 368.886 -1.58854 1.14639 0
M  V30 4036 H 367.466 0.235919 0.708767 0
M  V30 4037 H 370.128 1.2426 1.50152 0
M  V30 4038 H 369.224 0.896411 2.9895 0
M  V30 4039 N 369.525 -1.3858 0.750561 0
M  V30 4040 C 370.75 -2.04997 0.314812 0
M  V30 4041 C 371.175 -1.56235 -1.04749 0
M  V30 4042 O 370.533 -0.712981 -1.66692 0
M  V30 4043 C 370.581 -3.58961 0.343415 0
M  V30 4044 O 369.685 -4.07025 -0.663628 0
M  V30 4045 H 369.026 -0.649081 0.139962 0
M  V30 4046 H 371.556 -1.77313 1.02084 0
M  V30 4047 H 371.566 -4.07542 0.193233 0
M  V30 4048 H 370.241 -3.93811 1.33738 0
M  V30 4049 H 368.818 -3.6982 -0.478307 0
M  V30 4050 N 371.003 -0.499398 -1.49478 0
M  V30 4051 C 372.251 0.0455996 -2.02049 0
M  V30 4052 C 372.572 1.37633 -1.38138 0
M  V30 4053 O 371.842 1.8842 -0.536166 0
M  V30 4054 H 370.422 0.0198416 -0.746736 0
M  V30 4055 H 373.084 -0.656274 -1.83519 0
M  V30 4056 H 372.18 0.176445 -3.11601 0
M  V30 4057 N 372.481 1.55866 -0.233164 0
M  V30 4058 C 373.431 2.17442 0.685774 0
M  V30 4059 C 374.415 1.12617 1.14918 0
M  V30 4060 O 375.607 1.3857 1.10124 0
M  V30 4061 C 372.736 2.86685 1.88856 0
M  V30 4062 C 371.822 3.98749 1.4443 0
M  V30 4063 N 372.213 5.00744 0.713364 0
M  V30 4064 C 370.511 4.11052 1.73068 0
M  V30 4065 C 371.212 5.79673 0.485205 0
M  V30 4066 N 370.188 5.33454 1.04536 0
M  V30 4067 H 373.99 2.93659 0.119022 0
M  V30 4068 H 371.504 1.62362 -0.0348995 0
M  V30 4069 H 373.501 3.29218 2.55776 0
M  V30 4070 H 372.161 2.11967 2.45967 0
M  V30 4071 H 373.172 5.16613 0.364861 0
M  V30 4072 H 369.849 3.47495 2.31416 0
M  V30 4073 H 371.239 6.71829 -0.097365 0
M  V30 4074 N 373.959 -0.0401083 1.57549 0
M  V30 4075 C 375.187 -0.745196 1.93014 0
M  V30 4076 C 375.602 -1.6948 0.831984 0
M  V30 4077 O 374.959 -1.81482 -0.192463 0
M  V30 4078 C 375.01 -1.51176 3.28372 0
M  V30 4079 O 374.731 -0.600284 4.33968 0
M  V30 4080 C 376.232 -2.315 3.78051 0
M  V30 4081 H 373.452 -0.210088 0.637263 0
M  V30 4082 H 375.996 -0.000924689 2.045 0
M  V30 4083 H 374.151 -2.20801 3.18317 0
M  V30 4084 H 374.565 -1.13669 5.12035 0
M  V30 4085 H 376.039 -2.80697 4.75303 0
M  V30 4086 H 376.516 -3.12436 3.08675 0
M  V30 4087 H 377.122 -1.66971 3.91153 0
M  V30 4088 N 375.437 -1.54477 -0.31217 0
M  V30 4089 C 376.665 -1.77205 -1.068 0
M  V30 4090 C 377.08 -0.526114 -1.81321 0
M  V30 4091 O 376.437 0.503647 -1.75413 0
M  V30 4092 C 376.488 -2.97253 -2.05725 0
M  V30 4093 O 376.209 -4.1703 -1.34228 0
M  V30 4094 C 377.71 -3.32281 -2.93435 0
M  V30 4095 H 374.93 -0.591287 -0.317208 0
M  V30 4096 H 377.474 -2.01398 -0.354834 0
M  V30 4097 H 375.629 -2.753 -2.72559 0
M  V30 4098 H 376.043 -4.84636 -2.00571 0
M  V30 4099 H 377.517 -4.19551 -3.58721 0
M  V30 4100 H 377.994 -2.49945 -3.61143 0
M  V30 4101 H 378.6 -3.56353 -2.32147 0
M  V30 4102 N 376.915 0.57481 -1.46744 0
M  V30 4103 C 377.863 1.70435 -1.58286 0
M  V30 4104 C 378.857 1.63287 -0.450956 0
M  V30 4105 O 380.063 1.68685 -0.628121 0
M  V30 4106 H 376.438 0.56364 -0.497809 0
M  V30 4107 H 378.409 1.57833 -2.53242 0
M  V30 4108 C 377.158 3.08815 -1.59776 0
M  V30 4109 H 376.481 3.1499 -2.46214 0
M  V30 4110 H 377.921 3.87588 -1.71905 0
M  V30 4111 C 376.38 3.35301 -0.327812 0
M  V30 4112 O 376.91 3.97511 0.57861 0
M  V30 4113 N 375.116 2.89816 -0.213274 0
M  V30 4114 H 374.663 2.39371 -0.951798 0
M  V30 4115 H 374.621 3.0791 0.63553 0
M  V30 4116 N 378.394 1.34581 0.820102 0
M  V30 4117 C 379.641 1.27096 1.57648 0
M  V30 4118 C 379.969 -0.158317 1.93855 0
M  V30 4119 O 379.224 -1.12028 1.60463 0
M  V30 4120 C 379.523 2.10997 2.8847 0
M  V30 4121 C 379.189 3.59966 2.71543 0
M  V30 4122 C 377.851 4.00575 2.66634 0
M  V30 4123 C 380.203 4.54548 2.55021 0
M  V30 4124 C 377.531 5.33953 2.43128 0
M  V30 4125 C 379.883 5.88109 2.33047 0
M  V30 4126 C 378.547 6.27878 2.26552 0
M  V30 4127 H 377.817 0.465078 0.576874 0
M  V30 4128 H 380.464 1.6635 0.948671 0
M  V30 4129 H 378.769 1.6458 3.55557 0
M  V30 4130 H 380.466 2.0255 3.46084 0
M  V30 4131 H 377.056 3.27733 2.76205 0
M  V30 4132 H 381.24 4.24069 2.57835 0
M  V30 4133 H 376.496 5.63781 2.3656 0
M  V30 4134 H 380.67 6.60985 2.19251 0
M  V30 4135 H 378.297 7.31162 2.081 0
M  V30 4136 N 379.872 -1.04064 1.18357 0
M  V30 4137 C 380.835 -2.10243 0.912707 0
M  V30 4138 C 381.835 -1.60477 -0.101928 0
M  V30 4139 O 383.025 -1.73703 0.131517 0
M  V30 4140 C 380.157 -3.38893 0.369387 0
M  V30 4141 H 381.35 -2.35706 1.85426 0
M  V30 4142 H 378.903 -1.20489 0.995594 0
M  V30 4143 H 379.638 -3.19094 -0.578776 0
M  V30 4144 H 379.423 -3.76331 1.1008 0
M  V30 4145 H 380.913 -4.17128 0.198575 0
M  V30 4146 N 381.35 -0.985608 -1.22978 0
M  V30 4147 C 382.575 -0.675254 -1.961 0
M  V30 4148 C 383 0.752154 -1.72407 0
M  V30 4149 O 382.358 1.5131 -0.998751 0
M  V30 4150 C 382.406 -0.977899 -3.47087 0
M  V30 4151 O 381.51 -0.072685 -4.12336 0
M  V30 4152 H 380.851 -0.253443 -0.613728 0
M  V30 4153 H 383.381 -1.32061 -1.56272 0
M  V30 4154 H 383.391 -0.916739 -3.97567 0
M  V30 4155 H 382.066 -2.01807 -3.63657 0
M  V30 4156 H 380.643 -0.188703 -3.72422 0
M  V30 4157 N 382.828 1.3818 -0.7579 0
M  V30 4158 C 383.775 2.30416 -0.133057 0
M  V30 4159 C 384.745 1.50398 0.704957 0
M  V30 4160 O 385.93 1.79014 0.660192 0
M  V30 4161 C 383.07 3.36834 0.750813 0
M  V30 4162 C 382.183 4.31879 -0.102297 0
M  V30 4163 C 381.318 5.25368 0.784979 0
M  V30 4164 C 380.357 6.12058 -0.0715046 0
M  V30 4165 N 379.494 6.97832 0.772972 0
M  V30 4166 H 384.334 2.83274 -0.925186 0
M  V30 4167 H 381.871 1.39461 -0.467866 0
M  V30 4168 H 383.829 3.97145 1.27794 0
M  V30 4169 H 382.459 2.85374 1.50868 0
M  V30 4170 H 381.511 3.72991 -0.747095 0
M  V30 4171 H 382.823 4.92921 -0.763552 0
M  V30 4172 H 381.977 5.90818 1.37911 0
M  V30 4173 H 380.716 4.64703 1.47996 0
M  V30 4174 H 379.721 5.456 -0.678272 0
M  V30 4175 H 380.946 6.74793 -0.763606 0
M  V30 4176 H 378.892 6.3971 1.45282 0
M  V30 4177 H 378.809 7.55812 0.168709 0
M  V30 4178 H 380.077 7.67687 1.35194 0
M  V30 4179 N 384.306 0.507319 1.49211 0
M  V30 4180 C 385.531 -0.033725 2.07373 0
M  V30 4181 C 385.956 -1.29485 1.36437 0
M  V30 4182 O 385.314 -1.76294 0.423087 0
M  V30 4183 C 385.362 -0.263945 3.59633 0
M  V30 4184 O 384.466 -1.33737 3.90113 0
M  V30 4185 H 383.807 0.0290331 0.663365 0
M  V30 4186 H 386.337 0.708749 1.91932 0
M  V30 4187 H 386.347 -0.493536 4.05004 0
M  V30 4188 H 385.022 0.657424 4.10671 0
M  V30 4189 H 383.599 -1.09224 3.56545 0
M  V30 4190 N 385.784 -1.5574 0.241426 0
M  V30 4191 C 386.747 -2.19877 -0.647063 0
M  V30 4192 C 387.747 -1.16642 -1.10686 0
M  V30 4193 O 388.937 -1.41757 -1.01245 0
M  V30 4194 C 386.069 -2.83797 -1.88871 0
M  V30 4195 H 387.262 -2.99772 -0.087574 0
M  V30 4196 H 384.815 -1.56298 -0.00813574 0
M  V30 4197 H 385.55 -2.07824 -2.48957 0
M  V30 4198 H 385.335 -3.59414 -1.56728 0
M  V30 4199 H 386.825 -3.32898 -2.52129 0
M  V30 4200 N 387.262 0.0317525 -1.57568 0
M  V30 4201 C 388.487 0.738664 -1.938 0
M  V30 4202 C 388.912 1.68242 -0.841208 0
M  V30 4203 O 388.27 1.80157 0.203267 0
M  V30 4204 C 388.318 1.47417 -3.29091 0
M  V30 4205 O 387.422 2.5872 -3.2115 0
M  V30 4206 H 386.763 0.198856 -0.633524 0
M  V30 4207 H 389.293 -0.0119713 -2.04596 0
M  V30 4208 H 389.303 1.84468 -3.63917 0
M  V30 4209 H 387.978 0.781988 -4.08482 0
M  V30 4210 H 386.555 2.24231 -2.97951 0
M  V30 4211 N 388.74 1.54641 0.303973 0
M  V30 4212 C 389.98 1.75516 1.04755 0
M  V30 4213 C 390.344 0.528211 1.84591 0
M  V30 4214 O 391.545 0.614645 2.61678 0
M  V30 4215 C 389.816 3.00685 1.93193 0
M  V30 4216 S 391.375 3.42549 2.74237 0
M  V30 4217 H 388.193 0.616987 0.353339 0
M  V30 4218 H 390.795 1.92842 0.321292 0
M  V30 4219 H 389.499 3.8811 1.33411 0
M  V30 4220 H 389.03 2.85937 2.70191 0
M  V30 4221 H 391.045 2.99386 3.95705 0
M  V30 4222 N 390.218 -0.567019 1.47046 0
M  V30 4223 C 391.148 -1.68482 1.61667 0
M  V30 4224 C 392.129 -1.6358 0.466418 0
M  V30 4225 O 393.314 -1.81354 0.694574 0
M  V30 4226 C 390.444 -3.07124 1.62148 0
M  V30 4227 C 389.398 -3.26867 2.76301 0
M  V30 4228 C 388.724 -4.66196 2.61849 0
M  V30 4229 C 390.024 -3.13186 4.17986 0
M  V30 4230 H 391.718 -1.56502 2.5524 0
M  V30 4231 H 389.264 -0.751486 1.22836 0
M  V30 4232 H 391.217 -3.8516 1.70968 0
M  V30 4233 H 389.941 -3.2004 0.651287 0
M  V30 4234 H 388.6 -2.51237 2.66975 0
M  V30 4235 H 388.248 -4.75898 1.62879 0
M  V30 4236 H 387.948 -4.80356 3.38425 0
M  V30 4237 H 389.472 -5.46379 2.72584 0
M  V30 4238 H 390.886 -3.81049 4.2834 0
M  V30 4239 H 389.283 -3.3886 4.95272 0
M  V30 4240 H 390.353 -2.10057 4.3704 0
M  V30 4241 N 391.696 -1.35014 -0.812953 0
M  V30 4242 C 392.646 -1.23959 -1.91359 0
M  V30 4243 C 393.63 -0.136306 -1.60322 0
M  V30 4244 O 394.822 -0.366925 -1.73155 0
M  V30 4245 C 391.951 -1.00736 -3.28188 0
M  V30 4246 C 391.037 -2.15426 -3.65311 0
M  V30 4247 N 391.428 -3.40612 -3.73921 0
M  V30 4248 C 389.726 -2.06672 -3.95225 0
M  V30 4249 C 390.427 -4.15994 -4.06601 0
M  V30 4250 N 389.403 -3.44685 -4.20349 0
M  V30 4251 H 393.205 -2.18815 -1.96208 0
M  V30 4252 H 390.719 -1.27395 -1.00718 0
M  V30 4253 H 392.716 -0.909052 -4.06868 0
M  V30 4254 H 391.376 -0.067586 -3.2463 0
M  V30 4255 H 392.387 -3.75043 -3.5716 0
M  V30 4256 H 389.064 -1.20511 -3.99729 0
M  V30 4257 H 390.454 -5.24145 -4.20382 0
M  V30 4258 N 393.175 1.03435 -1.18907 0
M  V30 4259 C 394.107 2.1165 -0.879595 0
M  V30 4260 C 395.12 1.62316 0.125439 0
M  V30 4261 O 396.309 1.78201 -0.103245 0
M  V30 4262 C 393.409 3.37622 -0.294042 0
M  V30 4263 C 392.582 4.16166 -1.34629 0
M  V30 4264 C 391.641 5.20457 -0.775274 0
M  V30 4265 O 390.667 5.50379 -1.4516 0
M  V30 4266 N 391.869 5.78949 0.424126 0
M  V30 4267 H 394.634 2.38791 -1.81105 0
M  V30 4268 H 392.195 1.19681 -1.09032 0
M  V30 4269 H 394.187 4.04572 0.101679 0
M  V30 4270 H 392.757 3.07873 0.541575 0
M  V30 4271 H 391.977 3.44444 -1.91707 0
M  V30 4272 H 393.265 4.65432 -2.05549 0
M  V30 4273 H 392.663 5.56948 0.991209 0
M  V30 4274 H 391.22 6.47334 0.761691 0
M  V30 4275 N 394.653 0.992116 1.22453 0
M  V30 4276 C 395.878 0.685644 1.95739 0
M  V30 4277 C 396.303 -0.743 1.72804 0
M  V30 4278 O 395.661 -1.50778 1.00676 0
M  V30 4279 C 395.709 0.996293 3.46564 0
M  V30 4280 O 394.813 0.0945512 4.12292 0
M  V30 4281 H 394.154 0.256694 0.612376 0
M  V30 4282 H 396.684 1.32888 1.5557 0
M  V30 4283 H 396.694 0.93781 3.97076 0
M  V30 4284 H 395.369 2.03733 3.62582 0
M  V30 4285 H 393.946 0.208451 3.72317 0
M  V30 4286 N 396.131 -1.37776 0.765217 0
M  V30 4287 C 397.542 -1.82521 0.392819 0
M  V30 4288 C 397.893 -1.63789 -1.08017 0
M  V30 4289 O 397.018 -1.14542 -1.83601 0
M  V30 4290 C 397.613 -3.31358 0.706214 0
M  V30 4291 C 396.172 -3.74406 0.386952 0
M  V30 4292 C 395.319 -2.60394 0.953422 0
M  V30 4293 H 398.27 -1.2634 0.960412 0
M  V30 4294 H 398.291 -3.80498 -0.0114706 0
M  V30 4295 H 397.803 -3.44959 1.77833 0
M  V30 4296 H 395.904 -3.66377 -0.678112 0
M  V30 4297 H 396.017 -4.70749 0.890636 0
M  V30 4298 H 394.381 -2.51878 0.378064 0
M  V30 4299 H 395.164 -2.76791 2.03081 0
M  V30 4300 N 397.609 -0.515225 -1.4894 0
M  V30 4301 C 398.886 0.0879088 -1.95402 0
M  V30 4302 C 399.266 1.52745 -1.45712 0
M  V30 4303 O 398.614 2.18238 -0.677093 0
M  V30 4304 C 398.824 -0.0141055 -3.48997 0
M  V30 4305 C 400.172 0.152646 -4.24326 0
M  V30 4306 O 401.196 0.0604025 -3.56149 0
M  V30 4307 O 400.055 0.34384 -5.45417 0
M  V30 4308 H 397.149 0.0874636 -0.822362 0
M  V30 4309 H 399.695 -0.578775 -1.59525 0
M  V30 4310 H 398.467 -1.01745 -3.77841 0
M  V30 4311 H 398.09 0.692091 -3.9153 0
M  V30 4312 N 399.087 1.5561 -0.249682 0
M  V30 4313 C 400.503 1.59254 0.105103 0
M  V30 4314 C 400.703 1.26685 1.56694 0
M  V30 4315 O 399.759 1.0155 2.31179 0
M  V30 4316 C 401.072 2.99687 -0.246592 0
M  V30 4317 C 402.62 3.12416 -0.191118 0
M  V30 4318 C 403.095 4.55074 -0.516885 0
M  V30 4319 N 404.586 4.60835 -0.467489 0
M  V30 4320 C 405.321 5.69201 -0.69268 0
M  V30 4321 N 404.817 6.85817 -0.981146 0
M  V30 4322 N 406.61 5.58635 -0.623198 0
M  V30 4323 H 398.761 1.75049 -1.20298 0
M  V30 4324 H 401.024 0.815003 -0.484225 0
M  V30 4325 H 400.73 3.28267 -1.26228 0
M  V30 4326 H 400.604 3.74798 0.424962 0
M  V30 4327 H 402.991 2.83615 0.815247 0
M  V30 4328 H 403.072 2.39573 -0.896563 0
M  V30 4329 H 402.716 4.84596 -1.52082 0
M  V30 4330 H 402.646 5.26181 0.210068 0
M  V30 4331 H 405.137 3.7705 -0.253373 0
M  V30 4332 H 405.45 7.64341 -1.14032 0
M  V30 4333 H 403.795 6.87494 -1.01865 0
M  V30 4334 H 406.986 4.66406 -0.397863 0
M  V30 4335 H 407.159 6.43017 -0.802093 0
M  V30 4336 N 400.565 -0.0233959 1.57583 0
M  V30 4337 C 401.512 -1.02224 2.06927 0
M  V30 4338 C 402.482 -1.35575 0.959617 0
M  V30 4339 O 403.667 -1.45815 1.23055 0
M  V30 4340 C 400.807 -2.31636 2.5581 0
M  V30 4341 C 399.92 -2.04394 3.80588 0
M  V30 4342 C 399.055 -3.27717 4.18061 0
M  V30 4343 C 398.094 -2.96056 5.3574 0
M  V30 4344 N 397.231 -4.11847 5.68618 0
M  V30 4345 H 402.071 -0.594504 2.9201 0
M  V30 4346 H 399.608 -0.281921 1.44373 0
M  V30 4347 H 401.566 -3.07258 2.82221 0
M  V30 4348 H 400.196 -2.72122 1.73636 0
M  V30 4349 H 399.248 -1.19244 3.61227 0
M  V30 4350 H 400.56 -1.77042 4.66323 0
M  V30 4351 H 399.714 -4.11702 4.4563 0
M  V30 4352 H 398.453 -3.58188 3.30988 0
M  V30 4353 H 397.458 -2.10474 5.07918 0
M  V30 4354 H 398.683 -2.66857 6.24471 0
M  V30 4355 H 396.629 -4.42258 4.84504 0
M  V30 4356 H 396.546 -3.87938 6.48876 0
M  V30 4357 H 397.814 -4.96689 6.00766 0
M  V30 4358 N 402.043 -1.548 -0.295768 0
M  V30 4359 C 403.006 -1.85363 -1.34808 0
M  V30 4360 C 404.006 -0.726817 -1.43436 0
M  V30 4361 O 405.196 -0.995088 -1.42981 0
M  V30 4362 C 402.328 -2.03859 -2.73229 0
M  V30 4363 H 403.521 -2.7941 -1.08949 0
M  V30 4364 H 401.074 -1.46942 -0.532702 0
M  V30 4365 H 401.809 -1.12117 -3.04303 0
M  V30 4366 H 401.594 -2.8588 -2.68356 0
M  V30 4367 H 403.084 -2.28857 -3.49305 0
M  V30 4368 N 403.521 0.559213 -1.47345 0
M  V30 4369 C 404.484 1.64854 -1.59235 0
M  V30 4370 C 405.484 1.53851 -0.467607 0
M  V30 4371 O 406.674 1.58045 -0.732617 0
M  V30 4372 C 403.806 3.04388 -1.53496 0
M  V30 4373 H 404.999 1.55662 -2.56339 0
M  V30 4374 H 402.552 0.778973 -1.35505 0
M  V30 4375 H 403.287 3.19115 -0.577604 0
M  V30 4376 H 403.072 3.13783 -2.35123 0
M  V30 4377 H 404.562 3.83642 -1.6495 0
M  V30 4378 N 404.999 1.35443 0.805782 0
M  V30 4379 C 406.229 1.31687 1.59192 0
M  V30 4380 C 406.637 -0.10756 1.88894 0
M  V30 4381 O 405.98 -1.07017 1.49309 0
M  V30 4382 C 406.042 2.05686 2.94845 0
M  V30 4383 C 405.706 3.54868 2.87954 0
M  V30 4384 C 406.703 4.49444 2.61335 0
M  V30 4385 C 404.388 3.97528 3.07046 0
M  V30 4386 C 406.382 5.84655 2.53885 0
M  V30 4387 C 404.069 5.32833 2.99219 0
M  V30 4388 C 405.067 6.26209 2.72674 0
M  V30 4389 O 404.755 7.59032 2.64811 0
M  V30 4390 H 404.487 0.453878 0.50097 0
M  V30 4391 H 407.041 1.78892 1.0093 0
M  V30 4392 H 405.271 1.5312 3.55093 0
M  V30 4393 H 406.96 1.94998 3.55993 0
M  V30 4394 H 407.726 4.17804 2.46303 0
M  V30 4395 H 403.605 3.25233 3.26718 0
M  V30 4396 H 407.149 6.57508 2.33086 0
M  V30 4397 H 403.046 5.64087 3.13809 0
M  V30 4398 H 403.814 7.68967 2.80413 0
M  V30 4399 N 406.477 -1.02803 1.19454 0
M  V30 4400 C 407.888 -1.57667 0.999899 0
M  V30 4401 C 408.239 -1.91041 -0.446956 0
M  V30 4402 O 407.364 -1.70978 -1.32648 0
M  V30 4403 C 407.959 -2.86477 1.80877 0
M  V30 4404 C 406.518 -3.37911 1.65811 0
M  V30 4405 C 405.665 -2.11343 1.79526 0
M  V30 4406 H 408.616 -0.853214 1.33813 0
M  V30 4407 H 408.637 -3.57408 1.30536 0
M  V30 4408 H 408.149 -2.62155 2.86175 0
M  V30 4409 H 406.25 -3.67218 0.63102 0
M  V30 4410 H 406.363 -4.10885 2.46395 0
M  V30 4411 H 404.727 -2.23254 1.22596 0
M  V30 4412 H 405.51 -1.89461 2.86285 0
M  V30 4413 N 407.956 -0.998596 -1.21925 0
M  V30 4414 C 408.919 -0.558679 -2.22287 0
M  V30 4415 C 409.919 0.361525 -1.56683 0
M  V30 4416 O 411.109 0.152695 -1.73529 0
M  V30 4417 C 408.241 0.18661 -3.40389 0
M  V30 4418 H 409.434 -1.4463 -2.62721 0
M  V30 4419 H 406.987 -0.786413 -1.35075 0
M  V30 4420 H 407.722 1.08996 -3.05435 0
M  V30 4421 H 407.507 -0.474188 -3.89222 0
M  V30 4422 H 408.997 0.482367 -4.14805 0
M  V30 4423 N 409.434 1.37368 -0.772513 0
M  V30 4424 C 410.68 1.99969 -0.337681 0
M  V30 4425 C 411.013 1.61184 1.08321 0
M  V30 4426 O 410.288 0.858395 1.74533 0
M  V30 4427 C 410.571 3.56858 -0.482121 0
M  V30 4428 C 410.424 4.0555 -1.94549 0
M  V30 4429 C 411.743 4.39955 0.113143 0
M  V30 4430 H 408.862 0.726464 -0.124171 0
M  V30 4431 H 411.504 1.63034 -0.975699 0
M  V30 4432 H 409.654 3.88452 0.0610361 0
M  V30 4433 H 411.326 3.84518 -2.54841 0
M  V30 4434 H 409.569 3.57715 -2.45403 0
M  V30 4435 H 410.24 5.14587 -1.9976 0
M  V30 4436 H 412.716 4.14623 -0.35031 0
M  V30 4437 H 411.592 5.48897 -0.0180514 0
M  V30 4438 H 411.853 4.25403 1.20354 0
M  V30 4439 N 410.912 0.523116 1.48665 0
M  V30 4440 C 412.137 -0.0117284 2.07397 0
M  V30 4441 C 412.562 -1.28031 1.37803 0
M  V30 4442 O 411.92 -1.75836 0.441762 0
M  V30 4443 C 411.968 -0.225786 3.59892 0
M  V30 4444 O 411.072 -1.29592 3.91509 0
M  V30 4445 H 410.413 0.0360673 0.66302 0
M  V30 4446 H 412.943 0.729066 1.9117 0
M  V30 4447 H 412.953 -0.450552 4.05505 0
M  V30 4448 H 411.628 0.700944 4.09951 0
M  V30 4449 H 410.205 -1.05436 3.57684 0
M  V30 4450 N 412.39 -1.55475 0.257931 0
M  V30 4451 C 413.618 -2.03609 -0.367559 0
M  V30 4452 C 414.033 -1.13687 -1.50734 0
M  V30 4453 O 413.39 -0.153479 -1.81853 0
M  V30 4454 C 413.441 -3.51001 -0.864908 0
M  V30 4455 O 413.162 -4.37499 0.229465 0
M  V30 4456 C 414.663 -4.14946 -1.55997 0
M  V30 4457 H 411.883 -0.665459 -0.0860521 0
M  V30 4458 H 414.427 -2.00843 0.385014 0
M  V30 4459 H 412.582 -3.54266 -1.56762 0
M  V30 4460 H 412.996 -5.24286 -0.14998 0
M  V30 4461 H 414.47 -5.19735 -1.85956 0
M  V30 4462 H 414.947 -3.6209 -2.4857 0
M  V30 4463 H 415.553 -4.15635 -0.901543 0
M  V30 4464 N 413.868 0.0150385 -1.57593 0
M  V30 4465 C 415.115 0.703001 -1.89906 0
M  V30 4466 C 415.443 1.74604 -0.856944 0
M  V30 4467 O 414.698 1.95197 0.140287 0
M  V30 4468 C 414.997 1.39686 -3.28972 0
M  V30 4469 C 414.663 0.488457 -4.48246 0
M  V30 4470 C 413.325 0.2383 -4.8061 0
M  V30 4471 C 415.677 -0.137881 -5.21018 0
M  V30 4472 C 413.005 -0.646738 -5.83125 0
M  V30 4473 C 415.357 -1.0107 -6.24474 0
M  V30 4474 C 414.021 -1.27019 -6.55303 0
M  V30 4475 H 413.291 0.257246 -0.694914 0
M  V30 4476 H 415.938 -0.037259 -1.91464 0
M  V30 4477 H 414.243 2.21079 -3.23468 0
M  V30 4478 H 415.94 1.93495 -3.51227 0
M  V30 4479 H 412.53 0.693593 -4.22951 0
M  V30 4480 H 416.714 0.0423953 -4.96282 0
M  V30 4481 H 411.97 -0.855937 -6.05379 0
M  V30 4482 H 416.144 -1.50247 -6.79999 0
M  V30 4483 H 413.771 -1.95769 -7.3456 0
M  V30 4484 N 415.346 1.54954 0.287554 0
M  V30 4485 C 416.256 1.8991 1.37736 0
M  V30 4486 C 417.272 0.794701 1.54792 0
M  V30 4487 O 418.448 1.09243 1.69198 0
M  V30 4488 C 415.513 2.15108 2.71899 0
M  V30 4489 C 414.574 3.38752 2.63715 0
M  V30 4490 C 413.807 3.62739 3.91479 0
M  V30 4491 O 414.03 2.89492 4.91478 0
M  V30 4492 O 412.964 4.56267 3.92561 0
M  V30 4493 H 416.79 2.82652 1.11092 0
M  V30 4494 H 414.375 1.41315 0.484807 0
M  V30 4495 H 416.257 2.32806 3.51254 0
M  V30 4496 H 414.932 1.25551 2.9836 0
M  V30 4497 H 413.839 3.26405 1.82786 0
M  V30 4498 H 415.172 4.28483 2.42205 0
M  V30 4499 N 416.824 -0.551391 1.4764 0
M  V30 4500 C 417.771 -1.65796 1.60563 0
M  V30 4501 C 418.741 -1.59932 0.448428 0
M  V30 4502 O 419.926 -1.78679 0.669222 0
M  V30 4503 C 417.066 -3.04108 1.63133 0
M  V30 4504 C 416.179 -3.20365 2.89811 0
M  V30 4505 C 415.314 -4.49109 2.8368 0
M  V30 4506 C 414.353 -4.58819 4.05156 0
M  V30 4507 N 413.49 -5.78926 3.97227 0
M  V30 4508 H 418.33 -1.54088 2.5507 0
M  V30 4509 H 415.867 -0.75052 1.26513 0
M  V30 4510 H 417.825 -3.84207 1.62606 0
M  V30 4511 H 416.455 -3.14637 0.721341 0
M  V30 4512 H 415.507 -2.33659 3.00179 0
M  V30 4513 H 416.819 -3.23402 3.79753 0
M  V30 4514 H 415.973 -5.37475 2.81434 0
M  V30 4515 H 414.712 -4.4856 1.91431 0
M  V30 4516 H 413.717 -3.68864 4.077 0
M  V30 4517 H 414.942 -4.61124 4.98539 0
M  V30 4518 H 412.888 -5.79314 3.07785 0
M  V30 4519 H 412.805 -5.83367 4.80853 0
M  V30 4520 H 414.073 -6.69637 3.99007 0
M  V30 4521 N 418.302 -1.35869 -0.798587 0
M  V30 4522 C 419.252 -1.25982 -1.90033 0
M  V30 4523 C 420.236 -0.153303 -1.60168 0
M  V30 4524 O 421.428 -0.38527 -1.72756 0
M  V30 4525 C 418.557 -1.04211 -3.27101 0
M  V30 4526 C 417.643 -2.19289 -3.63006 0
M  V30 4527 N 418.034 -3.44559 -3.70287 0
M  V30 4528 C 416.332 -2.10852 -3.93011 0
M  V30 4529 C 417.033 -4.20283 -4.02166 0
M  V30 4530 N 416.009 -3.49124 -4.16669 0
M  V30 4531 H 419.811 -2.20883 -1.93876 0
M  V30 4532 H 417.325 -1.28457 -0.993614 0
M  V30 4533 H 419.322 -0.952155 -4.05881 0
M  V30 4534 H 417.982 -0.102013 -3.2454 0
M  V30 4535 H 418.993 -3.7881 -3.53162 0
M  V30 4536 H 415.67 -1.24744 -3.98428 0
M  V30 4537 H 417.06 -5.28575 -4.14799 0
M  V30 4538 N 419.78 1.02168 -1.19998 0
M  V30 4539 C 421.005 1.79833 -1.03319 0
M  V30 4540 C 421.43 1.83504 0.413281 0
M  V30 4541 O 420.788 1.26635 1.29743 0
M  V30 4542 C 420.836 3.22396 -1.61533 0
M  V30 4543 O 419.94 4.03555 -0.849519 0
M  V30 4544 H 419.281 0.554872 -0.364709 0
M  V30 4545 H 421.811 1.28542 -1.59179 0
M  V30 4546 H 421.821 3.73124 -1.65054 0
M  V30 4547 H 420.496 3.19039 -2.66809 0
M  V30 4548 H 419.073 3.62169 -0.888129 0
M  V30 4549 N 421.258 1.00505 1.21394 0
M  V30 4550 C 422.483 0.706367 1.95001 0
M  V30 4551 C 422.908 -0.72463 1.73582 0
M  V30 4552 O 422.266 -1.49702 1.0227 0
M  V30 4553 C 422.314 1.03299 3.45487 0
M  V30 4554 O 421.418 0.138275 4.12168 0
M  V30 4555 H 420.759 0.263175 0.609619 0
M  V30 4556 H 423.289 1.34531 1.54151 0
M  V30 4557 H 423.299 0.979872 3.96059 0
M  V30 4558 H 421.974 2.07567 3.60401 0
M  V30 4559 H 420.551 0.247928 3.72075 0
M  V30 4560 N 422.737 -1.36956 0.779787 0
M  V30 4561 C 423.962 -2.04283 0.358224 0
M  V30 4562 C 424.387 -1.58422 -1.01411 0
M  V30 4563 O 423.745 -0.748179 -1.65142 0
M  V30 4564 C 423.793 -3.58152 0.419479 0
M  V30 4565 O 422.897 -4.08342 -0.577142 0
M  V30 4566 H 422.238 -0.645967 0.153698 0
M  V30 4567 H 424.768 -1.75108 1.05822 0
M  V30 4568 H 424.778 -4.07041 0.279636 0
M  V30 4569 H 423.453 -3.90886 1.42061 0
M  V30 4570 H 422.03 -3.70751 -0.399755 0
M  V30 4571 N 424.215 -0.530993 -1.48385 0
M  V30 4572 C 425.463 0.00273189 -2.021 0
M  V30 4573 C 425.784 1.34672 -1.41027 0
M  V30 4574 O 425.054 1.8724 -0.576012 0
M  V30 4575 H 423.634 0.00399774 -0.746989 0
M  V30 4576 H 426.296 -0.695054 -1.82085 0
M  V30 4577 H 425.392 0.11031 -3.11905 0
M  V30 4578 N 425.693 1.55336 -0.266172 0
M  V30 4579 C 426.643 2.18848 0.639497 0
M  V30 4580 C 427.627 1.1503 1.12503 0
M  V30 4581 O 428.819 1.40875 1.0716 0
M  V30 4582 C 425.948 2.90626 1.82733 0
M  V30 4583 C 425.034 4.01723 1.35939 0
M  V30 4584 N 425.425 5.02145 0.606988 0
M  V30 4585 C 423.723 4.1463 1.6431 0
M  V30 4586 C 424.424 5.80572 0.362138 0
M  V30 4587 N 423.4 5.35551 0.931971 0
M  V30 4588 H 427.202 2.93845 0.0567057 0
M  V30 4589 H 424.716 1.62252 -0.0693312 0
M  V30 4590 H 426.713 3.34569 2.48735 0
M  V30 4591 H 425.373 2.17137 2.41416 0
M  V30 4592 H 426.384 5.17271 0.255198 0
M  V30 4593 H 423.061 3.52326 2.23993 0
M  V30 4594 H 424.451 6.71472 -0.239848 0
M  V30 4595 N 427.171 -0.0066808 1.57599 0
M  V30 4596 C 428.134 -0.985035 2.06953 0
M  V30 4597 C 429.134 -1.27663 0.977687 0
M  V30 4598 O 430.324 -1.22293 1.24057 0
M  V30 4599 C 427.456 -2.3118 2.50536 0
M  V30 4600 H 428.649 -0.558255 2.94658 0
M  V30 4601 H 426.202 -0.254011 1.54222 0
M  V30 4602 H 426.937 -2.78561 1.66054 0
M  V30 4603 H 426.722 -2.11338 3.3027 0
M  V30 4604 H 428.212 -3.01377 2.8907 0
M  V30 4605 N 428.649 -1.55105 -0.279332 0
M  V30 4606 C 429.895 -1.75672 -1.01327 0
M  V30 4607 C 430.228 -0.552739 -1.86168 0
M  V30 4608 O 429.503 0.449827 -1.89227 0
M  V30 4609 C 429.786 -3.05825 -1.90114 0
M  V30 4610 C 429.639 -4.36565 -1.08309 0
M  V30 4611 C 430.958 -3.31975 -2.8893 0
M  V30 4612 H 428.077 -0.639149 -0.366957 0
M  V30 4613 H 430.719 -1.87833 -0.286154 0
M  V30 4614 H 428.869 -2.95588 -2.52111 0
M  V30 4615 H 430.541 -4.58751 -0.484314 0
M  V30 4616 H 428.784 -4.32076 -0.386362 0
M  V30 4617 H 429.455 -5.23946 -1.73737 0
M  V30 4618 H 431.931 -3.41963 -2.37067 0
M  V30 4619 H 430.807 -4.2432 -3.48201 0
M  V30 4620 H 431.068 -2.51309 -3.63725 0
M  V30 4621 N 430.127 0.543554 -1.4793 0
M  V30 4622 C 431.037 1.67657 -1.64098 0
M  V30 4623 C 432.053 1.65934 -0.523622 0
M  V30 4624 O 433.229 1.85133 -0.792943 0
M  V30 4625 C 430.294 3.04146 -1.66421 0
M  V30 4626 C 429.355 3.16831 -2.89684 0
M  V30 4627 C 428.588 4.46809 -2.91886 0
M  V30 4628 O 428.811 5.33095 -2.02895 0
M  V30 4629 O 427.745 4.63573 -3.83906 0
M  V30 4630 H 431.571 1.56957 -2.59997 0
M  V30 4631 H 429.156 0.715116 -1.31173 0
M  V30 4632 H 431.038 3.85346 -1.70548 0
M  V30 4633 H 429.713 3.152 -0.736923 0
M  V30 4634 H 428.62 2.34977 -2.91095 0
M  V30 4635 H 429.953 3.10687 -3.81752 0
M  V30 4636 N 431.605 1.3629 0.791371 0
M  V30 4637 C 432.852 1.30412 1.54916 0
M  V30 4638 C 433.18 -0.117162 1.94147 0
M  V30 4639 O 432.435 -1.08599 1.62803 0
M  V30 4640 C 432.734 2.17068 2.8393 0
M  V30 4641 C 432.4 3.65645 2.63846 0
M  V30 4642 C 431.062 4.0614 2.58077 0
M  V30 4643 C 433.414 4.59855 2.45322 0
M  V30 4644 C 430.742 5.3899 2.31748 0
M  V30 4645 C 433.094 5.9292 2.2052 0
M  V30 4646 C 431.758 6.32542 2.13183 0
M  V30 4647 H 431.028 0.47721 0.566879 0
M  V30 4648 H 433.675 1.68325 0.913172 0
M  V30 4649 H 431.98 1.72085 3.51986 0
M  V30 4650 H 433.677 2.09846 3.4171 0
M  V30 4651 H 430.267 3.33518 2.69191 0
M  V30 4652 H 434.451 4.29443 2.48782 0
M  V30 4653 H 429.707 5.68672 2.24548 0
M  V30 4654 H 433.881 6.65487 2.05182 0
M  V30 4655 H 431.508 7.35412 1.92544 0
M  V30 4656 N 433.083 -1.0153 1.20538 0
M  V30 4657 C 434.033 -2.08482 0.922991 0
M  V30 4658 C 435.017 -1.60469 -0.117702 0
M  V30 4659 O 436.209 -1.76772 0.0898465 0
M  V30 4660 C 433.338 -3.39952 0.478312 0
M  V30 4661 C 432.424 -3.94662 1.5525 0
M  V30 4662 N 432.815 -4.22866 2.77521 0
M  V30 4663 C 431.113 -4.22825 1.41897 0
M  V30 4664 C 431.814 -4.67002 3.4682 0
M  V30 4665 N 430.79 -4.69356 2.74237 0
M  V30 4666 H 434.592 -2.28199 1.85209 0
M  V30 4667 H 432.106 -1.19512 1.09957 0
M  V30 4668 H 434.103 -4.16105 0.257408 0
M  V30 4669 H 432.763 -3.21648 -0.444148 0
M  V30 4670 H 433.774 -4.11732 3.1416 0
M  V30 4671 H 430.451 -4.13714 0.561015 0
M  V30 4672 H 431.841 -4.97632 4.51455 0
M  V30 4673 N 434.561 -1.01147 -1.20859 0
M  V30 4674 C 435.509 -0.57059 -2.25493 0
M  V30 4675 C 436.503 0.388109 -1.64894 0
M  V30 4676 O 437.709 0.258592 -1.78133 0
M  V30 4677 H 434.084 -0.166191 -0.733406 0
M  V30 4678 H 436.055 -1.46411 -2.60012 0
M  V30 4679 C 434.804 0.0805241 -3.47607 0
M  V30 4680 H 434.127 -0.648156 -3.94511 0
M  V30 4681 H 435.567 0.352197 -4.22535 0
M  V30 4682 C 434.026 1.32175 -3.09889 0
M  V30 4683 O 434.556 2.41553 -3.20959 0
M  V30 4684 N 432.762 1.20392 -2.64488 0
M  V30 4685 H 432.309 0.313905 -2.5568 0
M  V30 4686 H 432.267 2.03541 -2.39621 0
M  V30 4687 N 436.039 1.36541 -0.78704 0
M  V30 4688 C 436.969 2.32659 -0.197992 0
M  V30 4689 C 437.95 1.56533 0.665697 0
M  V30 4690 O 439.135 1.84698 0.60001 0
M  V30 4691 C 436.265 3.40778 0.669901 0
M  V30 4692 C 435.219 4.27897 -0.0937039 0
M  V30 4693 C 434.545 5.27163 0.894629 0
M  V30 4694 C 435.845 5.06334 -1.28154 0
M  V30 4695 H 437.539 2.82171 -1.00099 0
M  V30 4696 H 435.085 1.35665 -0.482793 0
M  V30 4697 H 437.038 4.07008 1.09191 0
M  V30 4698 H 435.762 2.89827 1.50558 0
M  V30 4699 H 434.421 3.6322 -0.49666 0
M  V30 4700 H 434.069 4.72486 1.72527 0
M  V30 4701 H 433.769 5.86317 0.388149 0
M  V30 4702 H 435.293 5.96266 1.31525 0
M  V30 4703 H 436.707 5.65617 -0.93541 0
M  V30 4704 H 435.104 5.74888 -1.72115 0
M  V30 4705 H 436.174 4.38114 -2.07807 0
M  V30 4706 N 437.518 0.538854 1.48102 0
M  V30 4707 C 438.743 0.0102694 2.07397 0
M  V30 4708 C 439.168 -1.26562 1.39153 0
M  V30 4709 O 438.526 -1.75357 0.460387 0
M  V30 4710 C 438.574 -0.187602 3.60112 0
M  V30 4711 O 437.678 -1.25432 3.92862 0
M  V30 4712 H 437.019 0.0430975 0.6626 0
M  V30 4713 H 439.549 0.749301 1.90385 0
M  V30 4714 H 439.559 -0.407517 4.0596 0
M  V30 4715 H 438.234 0.744386 4.09184 0
M  V30 4716 H 436.811 -1.01636 3.58782 0
M  V30 4717 N 438.996 -1.55193 0.274407 0
M  V30 4718 C 440.407 -1.85358 -0.223488 0
M  V30 4719 C 440.758 -1.19642 -1.555 0
M  V30 4720 O 439.883 -0.484498 -2.10907 0
M  V30 4721 C 440.478 -3.36282 -0.412285 0
M  V30 4722 C 439.037 -3.66574 -0.854413 0
M  V30 4723 C 438.184 -2.7725 0.0527056 0
M  V30 4724 H 441.135 -1.50743 0.496215 0
M  V30 4725 H 441.156 -3.59349 -1.25094 0
M  V30 4726 H 440.668 -3.84083 0.556965 0
M  V30 4727 H 438.769 -3.24273 -1.83516 0
M  V30 4728 H 438.882 -4.74073 -0.692226 0
M  V30 4729 H 437.246 -2.50447 -0.463484 0
M  V30 4730 H 438.029 -3.27865 1.01783 0
M  V30 4731 N 440.474 -0.00167713 -1.576 0
M  V30 4732 C 441.422 1.0074 -2.09652 0
M  V30 4733 C 442.416 1.35483 -1.01689 0
M  V30 4734 O 443.622 1.34028 -1.20152 0
M  V30 4735 H 439.997 0.342537 -0.669457 0
M  V30 4736 H 441.968 0.542841 -2.93421 0
M  V30 4737 C 440.717 2.2899 -2.61647 0
M  V30 4738 H 440.04 2.03124 -3.44355 0
M  V30 4739 H 441.48 2.9787 -3.01744 0
M  V30 4740 C 439.939 3.00085 -1.53136 0
M  V30 4741 O 440.469 3.91135 -0.91524 0
M  V30 4742 N 438.675 2.6194 -1.25841 0
M  V30 4743 H 438.222 1.8798 -1.76129 0
M  V30 4744 H 438.18 3.09822 -0.534576 0
M  V30 4745 N 441.952 1.55251 0.271103 0
M  V30 4746 C 443.177 1.80306 1.02491 0
M  V30 4747 C 443.602 0.575457 1.79081 0
M  V30 4748 O 442.96 -0.474987 1.74967 0
M  V30 4749 C 443.008 3.02832 1.95768 0
M  V30 4750 O 442.112 2.78051 3.04568 0
M  V30 4751 H 441.453 0.595896 0.292923 0
M  V30 4752 H 443.983 2.02397 0.299436 0
M  V30 4753 H 443.993 3.31616 2.37686 0
M  V30 4754 H 442.668 3.9183 1.39434 0
M  V30 4755 H 441.245 2.60369 2.66951 0
M  V30 4756 N 443.43 -0.535701 1.48216 0
M  V30 4757 C 444.393 -1.623 1.61838 0
M  V30 4758 C 445.393 -1.53087 0.492024 0
M  V30 4759 O 446.583 -1.5686 0.757668 0
M  V30 4760 C 443.715 -3.01907 1.58319 0
M  V30 4761 H 444.908 -1.51564 2.58783 0
M  V30 4762 H 442.461 -0.757317 1.36727 0
M  V30 4763 H 443.196 -3.18155 0.628299 0
M  V30 4764 H 442.981 -3.10003 2.40085 0
M  V30 4765 H 444.471 -3.80969 1.71033 0
M  V30 4766 N 444.908 -1.36708 -0.784132 0
M  V30 4767 C 446.324 -1.17237 -1.08294 0
M  V30 4768 C 446.524 -5.93947e-05 -2.015 0
M  V30 4769 O 445.58 0.663686 -2.43622 0
M  V30 4770 C 446.893 -2.48557 -1.69233 0
M  V30 4771 C 448.441 -2.54968 -1.8155 0
M  V30 4772 C 448.916 -3.86388 -2.45904 0
M  V30 4773 N 450.407 -3.87762 -2.53367 0
M  V30 4774 C 451.142 -4.86191 -3.03983 0
M  V30 4775 N 450.638 -5.95015 -3.54866 0
M  V30 4776 N 452.431 -4.73606 -3.02743 0
M  V30 4777 H 444.582 -2.11758 -0.16501 0
M  V30 4778 H 446.845 -0.93822 -0.135822 0
M  V30 4779 H 446.551 -3.34638 -1.08215 0
M  V30 4780 H 446.425 -2.64748 -2.68679 0
M  V30 4781 H 448.812 -1.69302 -2.41704 0
M  V30 4782 H 448.893 -2.42672 -0.80895 0
M  V30 4783 H 448.537 -4.72462 -1.86392 0
M  V30 4784 H 448.467 -3.95982 -3.4714 0
M  V30 4785 H 450.958 -3.09145 -2.17343 0
M  V30 4786 H 451.271 -6.66086 -3.91854 0
M  V30 4787 H 449.616 -5.98676 -3.53003 0
M  V30 4788 H 452.807 -3.87717 -2.62284 0
M  V30 4789 H 452.98 -5.50473 -3.41881 0
M  V30 4790 N 446.386 1.0089 -1.21074 0
M  V30 4791 C 447.611 1.78727 -1.05221 0
M  V30 4792 C 448.036 1.83932 0.393795 0
M  V30 4793 O 447.394 1.28004 1.28393 0
M  V30 4794 C 447.442 3.20665 -1.64944 0
M  V30 4795 O 446.546 4.02632 -0.892273 0
M  V30 4796 H 445.887 0.550973 -0.370574 0
M  V30 4797 H 448.417 1.26847 -1.60534 0
M  V30 4798 H 448.427 3.71352 -1.69002 0
M  V30 4799 H 447.102 3.16191 -2.70177 0
M  V30 4800 H 445.679 3.61207 -0.926492 0
M  V30 4801 N 447.864 1.01787 1.20321 0
M  V30 4802 C 448.796 0.547357 2.22568 0
M  V30 4803 C 449.809 -0.370922 1.58518 0
M  V30 4804 O 450.998 -0.169067 1.77698 0
M  V30 4805 C 448.098 -0.223031 3.38165 0
M  V30 4806 C 447.271 0.697472 4.31803 0
M  V30 4807 C 446.33 -0.025562 5.26194 0
M  V30 4808 O 445.356 0.597367 5.66057 0
M  V30 4809 N 446.558 -1.29999 5.65757 0
M  V30 4810 H 449.323 1.42668 2.63564 0
M  V30 4811 H 446.884 0.895552 1.34876 0
M  V30 4812 H 448.876 -0.716002 3.98316 0
M  V30 4813 H 447.446 -1.00366 2.9605 0
M  V30 4814 H 446.666 1.37073 3.69601 0
M  V30 4815 H 447.954 1.32347 4.91286 0
M  V30 4816 H 447.352 -1.827 5.35385 0
M  V30 4817 H 445.909 -1.73766 6.28211 0
M  V30 4818 N 449.342 -1.36122 0.79427 0
M  V30 4819 C 450.567 -2.03891 0.379871 0
M  V30 4820 C 450.992 -1.59488 -0.997251 0
M  V30 4821 O 450.35 -0.765652 -1.64339 0
M  V30 4822 C 450.398 -3.57687 0.457442 0
M  V30 4823 O 449.502 -4.08931 -0.5338 0
M  V30 4824 H 448.843 -0.6443 0.160541 0
M  V30 4825 H 451.373 -1.73976 1.07673 0
M  V30 4826 H 451.383 -4.06721 0.322792 0
M  V30 4827 H 450.058 -3.89357 1.46199 0
M  V30 4828 H 448.635 -3.71154 -0.360409 0
M  V30 4829 N 450.82 -0.546701 -1.47814 0
M  V30 4830 C 451.73 0.21026 -2.33656 0
M  V30 4831 C 452.746 0.922413 -1.47538 0
M  V30 4832 O 453.922 0.893652 -1.80488 0
M  V30 4833 C 450.987 1.23348 -3.24016 0
M  V30 4834 C 450.048 0.529883 -4.26017 0
M  V30 4835 C 449.281 1.50435 -5.12059 0
M  V30 4836 O 449.504 2.73837 -5.00369 0
M  V30 4837 O 448.438 1.03459 -5.92942 0
M  V30 4838 H 452.264 -0.493605 -2.99662 0
M  V30 4839 H 449.849 -0.307427 -1.46203 0
M  V30 4840 H 451.731 1.82438 -3.79861 0
M  V30 4841 H 450.406 1.91945 -2.60651 0
M  V30 4842 H 449.313 -0.101948 -3.73961 0
M  V30 4843 H 450.646 -0.11445 -4.92067 0
M  V30 4844 N 452.299 1.55045 -0.282633 0
M  V30 4845 C 453.715 1.59441 0.0712997 0
M  V30 4846 C 453.915 1.2998 1.53972 0
M  V30 4847 O 452.971 1.06431 2.28973 0
M  V30 4848 C 454.284 2.99097 -0.310104 0
M  V30 4849 C 455.832 3.1194 -0.257343 0
M  V30 4850 C 456.307 4.53875 -0.613297 0
M  V30 4851 N 457.798 4.5974 -0.565134 0
M  V30 4852 C 458.533 5.67603 -0.81326 0
M  V30 4853 N 458.029 6.83582 -1.1264 0
M  V30 4854 N 459.822 5.57187 -0.741553 0
M  V30 4855 H 451.973 1.72458 -1.23984 0
M  V30 4856 H 454.236 0.804549 -0.501403 0
M  V30 4857 H 453.942 3.25516 -1.33163 0
M  V30 4858 H 453.816 3.75616 0.345366 0
M  V30 4859 H 456.203 2.85281 0.754905 0
M  V30 4860 H 456.284 2.37618 -0.947178 0
M  V30 4861 H 455.928 4.81261 -1.62327 0
M  V30 4862 H 455.858 5.26508 0.09841 0
M  V30 4863 H 458.349 3.76427 -0.333294 0
M  V30 4864 H 458.662 7.6175 -1.30219 0
M  V30 4865 H 457.007 6.85179 -1.16425 0
M  V30 4866 H 460.198 4.65457 -0.496705 0
M  V30 4867 H 460.371 6.41171 -0.938306 0
M  V30 4868 N 453.777 0.010035 1.57597 0
M  V30 4869 C 455.188 -0.531426 1.78977 0
M  V30 4870 C 455.539 -1.73375 0.918454 0
M  V30 4871 O 454.664 -2.16047 0.123635 0
M  V30 4872 C 455.259 -0.97086 3.24592 0
M  V30 4873 C 453.818 -1.45756 3.47033 0
M  V30 4874 C 452.965 -0.413384 2.74201 0
M  V30 4875 H 455.916 0.236166 1.56933 0
M  V30 4876 H 455.937 -1.83633 3.33255 0
M  V30 4877 H 455.449 -0.0955893 3.87982 0
M  V30 4878 H 453.55 -2.35339 2.88871 0
M  V30 4879 H 453.663 -1.4781 4.55729 0
M  V30 4880 H 452.027 -0.877266 2.39115 0
M  V30 4881 H 452.81 0.453092 3.40297 0
M  V30 4882 N 455.255 -1.55392 -0.262866 0
M  V30 4883 C 456.501 -1.76737 -0.99458 0
M  V30 4884 C 456.834 -0.572453 -1.85571 0
M  V30 4885 O 456.109 0.429732 -1.89693 0
M  V30 4886 C 456.392 -3.07824 -1.8686 0
M  V30 4887 C 456.245 -4.3769 -1.03672 0
M  V30 4888 C 457.564 -3.35021 -2.85393 0
M  V30 4889 H 454.683 -0.643005 -0.360157 0
M  V30 4890 H 457.325 -1.88126 -0.266216 0
M  V30 4891 H 455.475 -2.98245 -2.48962 0
M  V30 4892 H 457.147 -4.59238 -0.43563 0
M  V30 4893 H 455.39 -4.32461 -0.340513 0
M  V30 4894 H 456.061 -5.25759 -1.6817 0
M  V30 4895 H 458.537 -3.44458 -2.33426 0
M  V30 4896 H 457.413 -4.27989 -3.43681 0
M  V30 4897 H 457.674 -2.55153 -3.61039 0
M  V30 4898 N 456.733 0.527833 -1.48498 0
M  V30 4899 C 457.98 1.28354 -1.56625 0
M  V30 4900 C 458.308 1.93 -0.241096 0
M  V30 4901 O 457.563 1.79967 0.768798 0
M  V30 4902 C 457.862 2.39275 -2.65485 0
M  V30 4903 C 457.528 1.92268 -4.07853 0
M  V30 4904 C 456.19 1.79166 -4.46602 0
M  V30 4905 C 458.542 1.56771 -4.97064 0
M  V30 4906 C 455.87 1.28905 -5.72364 0
M  V30 4907 C 458.222 1.07972 -6.23318 0
M  V30 4908 C 456.886 0.934887 -6.60921 0
M  V30 4909 H 456.156 0.469682 -0.573131 0
M  V30 4910 H 458.803 0.588781 -1.82224 0
M  V30 4911 H 457.108 3.1443 -2.33754 0
M  V30 4912 H 458.805 2.974 -2.68988 0
M  V30 4913 H 455.395 2.03417 -3.77252 0
M  V30 4914 H 459.579 1.65753 -4.67803 0
M  V30 4915 H 454.835 1.16381 -6.00221 0
M  V30 4916 H 459.009 0.795775 -6.91838 0
M  V30 4917 H 456.636 0.543231 -7.58257 0
M  V30 4918 N 458.211 1.37122 0.776871 0
M  V30 4919 C 459.622 1.28667 1.35284 0
M  V30 4920 C 459.973 -0.0680035 1.96082 0
M  V30 4921 O 459.098 -0.969743 1.93455 0
M  V30 4922 C 459.693 2.32997 2.45963 0
M  V30 4923 C 458.252 2.28191 2.99342 0
M  V30 4924 C 457.399 2.17101 1.72517 0
M  V30 4925 H 460.35 1.47819 0.577527 0
M  V30 4926 H 460.371 1.97366 3.2531 0
M  V30 4927 H 459.883 3.3158 2.01684 0
M  V30 4928 H 457.984 1.33115 3.4801 0
M  V30 4929 H 458.097 3.21397 3.55304 0
M  V30 4930 H 456.461 1.63562 1.95242 0
M  V30 4931 H 457.244 3.17591 1.30348 0
M  V30 4932 N 459.689 -1.00246 1.21608 0
M  V30 4933 C 460.929 -1.75589 1.04631 0
M  V30 4934 C 461.293 -1.87513 -0.412648 0
M  V30 4935 O 462.494 -2.59444 -0.703003 0
M  V30 4936 C 460.765 -3.12893 1.72722 0
M  V30 4937 S 462.324 -4.04095 1.71034 0
M  V30 4938 H 459.142 -0.604133 0.374892 0
M  V30 4939 H 461.744 -1.19927 1.54395 0
M  V30 4940 H 460.448 -3.0185 2.78055 0
M  V30 4941 H 459.979 -3.73628 1.23149 0
M  V30 4942 H 461.994 -4.9045 0.753231 0
M  V30 4943 N 461.167 -1.02423 -1.1978 0
M  V30 4944 C 462.413 -0.72878 -1.89896 0
M  V30 4945 C 462.768 0.734248 -1.77839 0
M  V30 4946 O 462.061 1.52733 -1.15685 0
M  V30 4947 C 462.255 -1.1088 -3.39765 0
M  V30 4948 C 462.084 -2.60722 -3.66407 0
M  V30 4949 C 460.854 -3.27623 -3.84696 0
M  V30 4950 C 463.052 -3.58924 -3.68345 0
M  V30 4951 N 461.034 -4.66617 -3.98926 0
M  V30 4952 C 462.405 -4.83514 -3.8809 0
M  V30 4953 C 464.46 -3.52788 -3.51347 0
M  V30 4954 C 463.163 -6.0271 -3.92598 0
M  V30 4955 C 465.189 -4.71394 -3.5713 0
M  V30 4956 C 464.551 -5.94796 -3.77356 0
M  V30 4957 H 460.65 -0.318473 -0.714212 0
M  V30 4958 H 463.234 -1.3106 -1.43984 0
M  V30 4959 H 461.405 -0.555233 -3.84411 0
M  V30 4960 H 463.137 -0.766082 -3.97383 0
M  V30 4961 H 459.892 -2.7804 -3.83393 0
M  V30 4962 H 460.316 -5.38805 -4.099 0
M  V30 4963 H 464.958 -2.58372 -3.3467 0
M  V30 4964 H 462.676 -6.97499 -4.08069 0
M  V30 4965 H 466.262 -4.6827 -3.45275 0
M  V30 4966 H 465.142 -6.85037 -3.81699 0
M  V30 4967 N 462.645 1.35699 -0.801477 0
M  V30 4968 C 463.891 1.99643 -0.389135 0
M  V30 4969 C 464.246 1.62447 1.03095 0
M  V30 4970 O 463.539 0.875064 1.7045 0
M  V30 4971 C 463.733 3.53828 -0.504041 0
M  V30 4972 C 463.562 4.06 -1.93375 0
M  V30 4973 C 462.332 4.35592 -2.561 0
M  V30 4974 C 464.53 4.24905 -2.89759 0
M  V30 4975 N 462.512 4.73663 -3.90534 0
M  V30 4976 C 463.883 4.65914 -4.09052 0
M  V30 4977 C 465.938 4.07101 -2.86658 0
M  V30 4978 C 464.641 4.90984 -5.25669 0
M  V30 4979 C 466.667 4.33324 -4.02472 0
M  V30 4980 C 466.029 4.74601 -5.20512 0
M  V30 4981 H 462.128 0.758552 -0.19006 0
M  V30 4982 H 464.712 1.64493 -1.04164 0
M  V30 4983 H 462.883 3.88219 0.118437 0
M  V30 4984 H 464.615 4.04645 -0.0667794 0
M  V30 4985 H 461.37 4.25728 -2.07492 0
M  V30 4986 H 461.794 4.96965 -4.59734 0
M  V30 4987 H 466.436 3.74335 -1.96552 0
M  V30 4988 H 464.154 5.22626 -6.1635 0
M  V30 4989 H 467.74 4.21107 -4.01447 0
M  V30 4990 H 466.62 4.94497 -6.08639 0
M  V30 4991 N 464.123 0.554532 1.47522 0
M  V30 4992 C 465.053 -0.182974 2.32782 0
M  V30 4993 C 466.034 -0.911377 1.43624 0
M  V30 4994 O 467.219 -0.892366 1.72483 0
M  V30 4995 C 464.349 -1.21513 3.25349 0
M  V30 4996 C 463.303 -0.603355 4.23726 0
M  V30 4997 C 462.629 -1.73995 5.05598 0
M  V30 4998 C 463.929 0.441121 5.20434 0
M  V30 4999 H 465.623 0.52882 2.94693 0
M  V30 5000 H 463.169 0.255759 1.41711 0
M  V30 5001 H 465.122 -1.73922 3.83835 0
M  V30 5002 H 463.846 -1.95683 2.61487 0
M  V30 5003 H 462.505 -0.10059 3.66462 0
M  V30 5004 H 462.153 -2.47063 4.38143 0
M  V30 5005 H 461.853 -1.3364 5.72201 0
M  V30 5006 H 463.377 -2.26735 5.66942 0
M  V30 5007 H 464.791 0.00319931 5.733 0
M  V30 5008 H 463.188 0.763402 5.95224 0
M  V30 5009 H 464.258 1.33799 4.66075 0
M  V30 5010 N 465.601 -1.54893 0.290851 0
M  V30 5011 C 466.533 -2.20564 -0.623236 0
M  V30 5012 C 467.546 -1.19519 -1.1054 0
M  V30 5013 O 468.735 -1.46165 -1.02459 0
M  V30 5014 C 465.835 -2.83033 -1.86401 0
M  V30 5015 C 465.008 -4.09916 -1.52604 0
M  V30 5016 C 464.067 -4.56284 -2.62091 0
M  V30 5017 O 463.093 -5.2171 -2.27612 0
M  V30 5018 N 464.295 -4.27746 -3.92446 0
M  V30 5019 H 467.06 -2.99638 -0.0610915 0
M  V30 5020 H 464.621 -1.61508 0.112615 0
M  V30 5021 H 466.613 -3.1099 -2.58973 0
M  V30 5022 H 465.183 -2.0786 -2.33481 0
M  V30 5023 H 464.403 -3.89078 -0.633424 0
M  V30 5024 H 465.691 -4.92554 -1.27547 0
M  V30 5025 H 465.089 -3.7531 -4.23272 0
M  V30 5026 H 463.646 -4.60437 -4.61347 0
M  V30 5027 N 467.08 -0.0183926 -1.57589 0
M  V30 5028 C 468.327 0.662562 -1.91354 0
M  V30 5029 C 468.655 1.72747 -0.893788 0
M  V30 5030 O 467.91 1.9545 0.0988509 0
M  V30 5031 C 468.209 1.32676 -3.31861 0
M  V30 5032 C 467.875 0.393267 -4.49182 0
M  V30 5033 C 466.537 0.136302 -4.81007 0
M  V30 5034 C 468.889 -0.248366 -5.20608 0
M  V30 5035 C 466.217 -0.770282 -5.81621 0
M  V30 5036 C 468.569 -1.14294 -6.22189 0
M  V30 5037 C 467.233 -1.4089 -6.52462 0
M  V30 5038 H 466.503 0.242448 -0.700214 0
M  V30 5039 H 469.15 -0.0778629 -1.91342 0
M  V30 5040 H 467.455 2.14168 -3.28084 0
M  V30 5041 H 469.152 1.86001 -3.55253 0
M  V30 5042 H 465.742 0.603723 -4.24327 0
M  V30 5043 H 469.926 -0.062883 -4.9626 0
M  V30 5044 H 465.182 -0.984154 -6.03427 0
M  V30 5045 H 469.356 -1.64637 -6.76659 0
M  V30 5046 H 466.983 -2.11306 -7.30242 0
M  V30 5047 N 468.558 1.5553 0.254621 0
M  V30 5048 C 469.974 1.4778 0.602753 0
M  V30 5049 C 470.174 0.707047 1.88688 0
M  V30 5050 O 469.23 0.233288 2.5142 0
M  V30 5051 C 470.543 2.92133 0.712648 0
M  V30 5052 C 472.091 3.02458 0.805488 0
M  V30 5053 C 472.566 4.48102 0.947009 0
M  V30 5054 N 474.057 4.52008 1.01207 0
M  V30 5055 C 474.792 5.61939 1.1407 0
M  V30 5056 N 474.288 6.81697 1.23536 0
M  V30 5057 N 476.081 5.49719 1.17325 0
M  V30 5058 H 468.232 2.04085 -0.588463 0
M  V30 5059 H 470.495 0.926229 -0.202001 0
M  V30 5060 H 470.201 3.51332 -0.160766 0
M  V30 5061 H 470.075 3.42187 1.58707 0
M  V30 5062 H 472.462 2.43344 1.66936 0
M  V30 5063 H 472.543 2.55627 -0.0939266 0
M  V30 5064 H 472.187 5.07824 0.087725 0
M  V30 5065 H 472.117 4.92607 1.86135 0
M  V30 5066 H 474.608 3.65749 0.950577 0
M  V30 5067 H 474.921 7.61228 1.33236 0
M  V30 5068 H 473.266 6.84473 1.20508 0
M  V30 5069 H 476.457 4.55095 1.09573 0
M  V30 5070 H 476.63 6.35432 1.27005 0
M  V30 5071 N 470.036 -0.519951 1.48776 0
M  V30 5072 C 471.261 -1.30447 1.6124 0
M  V30 5073 C 471.686 -1.86055 0.276591 0
M  V30 5074 O 471.044 -1.64915 -0.753183 0
M  V30 5075 C 471.092 -2.42406 2.66967 0
M  V30 5076 O 470.196 -3.45728 2.24824 0
M  V30 5077 H 469.537 -0.385924 0.540332 0
M  V30 5078 H 472.067 -0.624572 1.94834 0
M  V30 5079 H 472.077 -2.88447 2.88552 0
M  V30 5080 H 470.752 -2.01294 3.63941 0
M  V30 5081 H 469.329 -3.05737 2.13494 0
M  V30 5082 N 471.514 -1.37532 -0.769588 0
M  V30 5083 C 472.739 -1.36231 -1.56384 0
M  V30 5084 C 473.164 0.0495849 -1.88035 0
M  V30 5085 O 472.522 1.02723 -1.49391 0
M  V30 5086 C 472.57 -2.20986 -2.84952 0
M  V30 5087 O 471.674 -1.61597 -3.79421 0
M  V30 5088 H 471.015 -0.465387 -0.473615 0
M  V30 5089 H 473.545 -1.81085 -0.952342 0
M  V30 5090 H 473.555 -2.34277 -3.34034 0
M  V30 5091 H 472.23 -3.23612 -2.61243 0
M  V30 5092 H 470.807 -1.57359 -3.38072 0
M  V30 5093 N 472.992 0.995999 -1.22138 0
M  V30 5094 C 473.939 2.08551 -0.988687 0
M  V30 5095 C 474.909 1.65864 0.0885021 0
M  V30 5096 O 476.094 1.90704 -0.0604589 0
M  V30 5097 C 473.234 3.40374 -0.569191 0
M  V30 5098 C 472.347 3.96421 -1.71681 0
M  V30 5099 C 471.482 5.1639 -1.2456 0
M  V30 5100 C 470.521 5.64567 -2.36497 0
M  V30 5101 N 469.658 6.75777 -1.90445 0
M  V30 5102 H 474.498 2.2779 -1.92135 0
M  V30 5103 H 472.035 1.1168 -0.957388 0
M  V30 5104 H 473.993 4.16068 -0.307166 0
M  V30 5105 H 472.623 3.21145 0.326462 0
M  V30 5106 H 471.675 3.17628 -2.09324 0
M  V30 5107 H 472.987 4.2816 -2.55891 0
M  V30 5108 H 472.141 5.99362 -0.940774 0
M  V30 5109 H 470.88 4.86266 -0.373662 0
M  V30 5110 H 469.885 4.80185 -2.67772 0
M  V30 5111 H 471.11 5.96716 -3.24202 0
M  V30 5112 H 469.056 6.47443 -1.05609 0
M  V30 5113 H 468.973 7.06818 -2.68223 0
M  V30 5114 H 470.241 7.62262 -1.63022 0
M  V30 5115 N 474.47 1.03057 1.19235 0
M  V30 5116 C 475.881 0.757449 1.70645 0
M  V30 5117 C 476.232 -0.722735 1.82403 0
M  V30 5118 O 475.357 -1.56325 1.49638 0
M  V30 5119 C 475.952 1.36833 3.09939 0
M  V30 5120 C 474.511 1.14375 3.58602 0
M  V30 5121 C 473.658 1.46533 2.35422 0
M  V30 5122 H 476.609 1.19828 1.04052 0
M  V30 5123 H 476.63 0.766184 3.72706 0
M  V30 5124 H 476.142 2.44562 3.01349 0
M  V30 5125 H 474.243 0.0847542 3.72504 0
M  V30 5126 H 474.356 1.83366 4.42622 0
M  V30 5127 H 472.72 0.884712 2.38841 0
M  V30 5128 H 473.503 2.55349 2.2946 0
M  V30 5129 N 475.948 -1.35272 0.808662 0
M  V30 5130 C 477.188 -2.00534 0.395668 0
M  V30 5131 C 477.552 -1.62755 -1.01857 0
M  V30 5132 O 478.753 -2.20752 -1.53368 0
M  V30 5133 C 477.024 -3.52732 0.575771 0
M  V30 5134 S 478.583 -4.38067 0.253507 0
M  V30 5135 H 475.401 -0.694962 0.150165 0
M  V30 5136 H 478.003 -1.64823 1.05137 0
M  V30 5137 H 476.707 -3.77714 1.60499 0
M  V30 5138 H 476.238 -3.93285 -0.0951739 0
M  V30 5139 H 478.253 -4.87252 -0.938068 0
M  V30 5140 N 477.426 -0.562348 -1.47226 0
M  V30 5141 C 478.651 -0.0432632 -2.07355 0
M  V30 5142 C 479.076 1.24332 -1.41149 0
M  V30 5143 O 478.434 1.74603 -0.488226 0
M  V30 5144 C 478.482 0.130288 -3.60365 0
M  V30 5145 O 477.586 1.19166 -3.94808 0
M  V30 5146 H 476.927 -0.0536334 -0.66183 0
M  V30 5147 H 479.457 -0.779495 -1.89169 0
M  V30 5148 H 479.467 0.342881 -4.06557 0
M  V30 5149 H 478.142 -0.809389 -4.07948 0
M  V30 5150 H 476.719 0.959153 -3.60354 0
M  V30 5151 N 478.904 1.54736 -0.299062 0
M  V30 5152 C 480.181 1.92187 0.363802 0
M  V30 5153 C 480.561 1.22607 1.71845 0
M  V30 5154 O 479.909 0.361141 2.25628 0
M  V30 5155 C 480.119 3.45678 0.480377 0
M  V30 5156 C 481.467 4.17885 0.752147 0
M  V30 5157 O 482.491 3.51702 0.564264 0
M  V30 5158 O 481.35 5.35048 1.11294 0
M  V30 5159 H 478.444 0.801681 0.203066 0
M  V30 5160 H 480.99 1.66115 -0.346978 0
M  V30 5161 H 479.762 3.88443 -0.471999 0
M  V30 5162 H 479.385 3.77779 1.2397 0
M  V30 5163 N 480.382 0.0267497 1.57577 0
M  V30 5164 C 481.612 -0.6617 1.95717 0
M  V30 5165 C 482.02 -1.66331 0.901706 0
M  V30 5166 O 481.363 -1.83273 -0.125241 0
M  V30 5167 C 481.425 -1.42649 3.29987 0
M  V30 5168 C 481.089 -0.583482 4.5326 0
M  V30 5169 C 482.086 0.140221 5.19711 0
M  V30 5170 C 479.771 -0.521581 4.99585 0
M  V30 5171 C 481.765 0.914523 6.30805 0
M  V30 5172 C 479.452 0.256428 6.10562 0
M  V30 5173 C 480.45 0.973189 6.76031 0
M  V30 5174 O 480.138 1.73845 7.84878 0
M  V30 5175 H 479.87 -0.187483 0.649481 0
M  V30 5176 H 482.424 0.0820847 2.05236 0
M  V30 5177 H 480.654 -2.21536 3.16952 0
M  V30 5178 H 482.343 -2.00282 3.53047 0
M  V30 5179 H 483.109 0.101716 4.84893 0
M  V30 5180 H 478.988 -1.06904 4.48433 0
M  V30 5181 H 482.532 1.4745 6.81839 0
M  V30 5182 H 478.429 0.296657 6.44818 0
M  V30 5183 H 479.197 1.65797 8.01532 0
M  V30 5184 N 481.861 -1.55662 -0.24637 0
M  V30 5185 C 483.101 -1.79283 -0.981685 0
M  V30 5186 C 483.465 -0.596356 -1.82504 0
M  V30 5187 O 484.666 -0.711342 -2.59217 0
M  V30 5188 C 482.937 -3.07648 -1.819 0
M  V30 5189 S 484.496 -3.52491 -2.61334 0
M  V30 5190 H 481.314 -0.629676 -0.330196 0
M  V30 5191 H 483.916 -1.93901 -0.249498 0
M  V30 5192 H 482.62 -3.92794 -1.18915 0
M  V30 5193 H 482.151 -2.95768 -2.59393 0
M  V30 5194 H 484.166 -3.13866 -3.84321 0
M  V30 5195 N 483.339 0.512053 -1.4905 0
M  V30 5196 C 484.269 1.62365 -1.67809 0
M  V30 5197 C 485.25 1.61737 -0.526809 0
M  V30 5198 O 486.435 1.78651 -0.761404 0
M  V30 5199 C 483.565 3.00895 -1.73435 0
M  V30 5200 C 482.519 3.16387 -2.88242 0
M  V30 5201 C 481.845 4.56157 -2.78971 0
M  V30 5202 C 483.145 2.97457 -4.29321 0
M  V30 5203 H 484.839 1.46921 -2.60873 0
M  V30 5204 H 482.385 0.705379 -1.2554 0
M  V30 5205 H 484.338 3.78549 -1.85145 0
M  V30 5206 H 483.062 3.17403 -0.769619 0
M  V30 5207 H 481.721 2.41155 -2.76116 0
M  V30 5208 H 481.369 4.69525 -1.8043 0
M  V30 5209 H 481.069 4.67465 -3.5602 0
M  V30 5210 H 482.593 5.35886 -2.92675 0
M  V30 5211 H 484.007 3.64888 -4.42187 0
M  V30 5212 H 482.404 3.20245 -5.07507 0
M  V30 5213 H 483.474 1.93692 -4.44535 0
M  V30 5214 N 484.817 1.37938 0.762283 0
M  V30 5215 C 486.042 1.37059 1.55659 0
M  V30 5216 C 486.467 -0.0396123 1.88058 0
M  V30 5217 O 485.825 -1.01929 1.49934 0
M  V30 5218 C 485.873 2.22494 2.83776 0
M  V30 5219 O 484.977 1.63607 3.78559 0
M  V30 5220 H 484.318 0.467892 0.47114 0
M  V30 5221 H 486.848 1.81587 0.942725 0
M  V30 5222 H 486.858 2.36045 3.32786 0
M  V30 5223 H 485.533 3.24993 2.59524 0
M  V30 5224 H 484.11 1.5915 3.37233 0
M  V30 5225 N 486.295 -0.989507 1.22664 0
M  V30 5226 C 487.225 -2.09847 1.02404 0
M  V30 5227 C 488.206 -1.70007 -0.0561303 0
M  V30 5228 O 489.391 -1.93906 0.106748 0
M  V30 5229 C 486.521 -3.41996 0.604663 0
M  V30 5230 C 485.475 -3.95699 1.63115 0
M  V30 5231 C 484.801 -5.23936 1.0675 0
M  V30 5232 C 486.101 -4.25999 3.02196 0
M  V30 5233 H 487.795 -2.27054 1.95158 0
M  V30 5234 H 485.341 -1.09111 0.939727 0
M  V30 5235 H 487.294 -4.1899 0.45002 0
M  V30 5236 H 486.018 -3.24626 -0.35855 0
M  V30 5237 H 484.677 -3.2084 1.77362 0
M  V30 5238 H 484.325 -5.02909 0.0955422 0
M  V30 5239 H 484.025 -5.60833 1.75328 0
M  V30 5240 H 485.549 -6.0356 0.924516 0
M  V30 5241 H 486.963 -4.93777 2.91303 0
M  V30 5242 H 485.36 -4.74076 3.67929 0
M  V30 5243 H 486.43 -3.33636 3.51873 0
M  V30 5244 N 487.773 -1.03688 -1.18687 0
M  V30 5245 C 489.022 -0.733235 -1.879 0
M  V30 5246 C 489.335 0.741745 -1.8099 0
M  V30 5247 O 490.541 1.15875 -2.4553 0
M  V30 5248 C 488.997 -1.26127 -3.37076 0
M  V30 5249 C 488.605 -2.76461 -3.52524 0
M  V30 5250 C 490.349 -1.03398 -4.11715 0
M  V30 5251 C 488.256 -3.22642 -4.95637 0
M  V30 5252 H 487.186 -0.270584 -0.703776 0
M  V30 5253 H 489.837 -1.25222 -1.34133 0
M  V30 5254 H 488.219 -0.670165 -3.90288 0
M  V30 5255 H 489.393 -3.41296 -3.09602 0
M  V30 5256 H 487.708 -2.97559 -2.91286 0
M  V30 5257 H 490.305 -1.3542 -5.17267 0
M  V30 5258 H 490.648 0.0289246 -4.1629 0
M  V30 5259 H 491.181 -1.5895 -3.64664 0
M  V30 5260 H 487.92 -4.28296 -4.96228 0
M  V30 5261 H 487.44 -2.62539 -5.39289 0
M  V30 5262 H 489.119 -3.16444 -5.64333 0
M  V30 5263 N 489.251 1.34841 -0.815825 0
M  V30 5264 C 490.497 1.98793 -0.401129 0
M  V30 5265 C 490.83 1.64548 1.03139 0
M  V30 5266 O 490.105 0.913487 1.71714 0
M  V30 5267 C 490.388 3.55143 -0.595409 0
M  V30 5268 C 490.241 3.99155 -2.07352 0
M  V30 5269 C 491.56 4.40092 -0.0268823 0
M  V30 5270 H 488.679 0.722146 -0.14722 0
M  V30 5271 H 491.321 1.59847 -1.02707 0
M  V30 5272 H 489.471 3.8845 -0.0625779 0
M  V30 5273 H 491.143 3.76216 -2.66945 0
M  V30 5274 H 489.386 3.49726 -2.56659 0
M  V30 5275 H 490.057 5.07971 -2.1603 0
M  V30 5276 H 492.533 4.13298 -0.482042 0
M  V30 5277 H 491.409 5.48562 -0.19267 0
M  V30 5278 H 491.67 4.29016 1.06759 0
M  V30 5279 N 490.729 0.570148 1.46925 0
M  V30 5280 C 491.677 -0.183181 2.31878 0
M  V30 5281 C 492.671 -0.896721 1.43719 0
M  V30 5282 O 493.877 -0.816536 1.60414 0
M  V30 5283 H 490.252 -0.077944 0.74795 0
M  V30 5284 H 492.223 0.552312 2.93244 0
M  V30 5285 C 490.972 -1.19172 3.2664 0
M  V30 5286 H 490.295 -0.652088 3.94446 0
M  V30 5287 H 491.735 -1.68946 3.88887 0
M  V30 5288 C 490.194 -2.24627 2.51086 0
M  V30 5289 O 490.724 -3.31773 2.26472 0
M  V30 5290 N 488.93 -1.98898 2.11867 0
M  V30 5291 H 488.477 -1.11777 2.32086 0
M  V30 5292 H 488.435 -2.6967 1.61634 0
M  V30 5293 N 492.207 -1.54576 0.307264 0
M  V30 5294 C 493.137 -2.26708 -0.55907 0
M  V30 5295 C 494.118 -1.26893 -1.1328 0
M  V30 5296 O 495.303 -1.55677 -1.16097 0
M  V30 5297 C 492.433 -3.01259 -1.72801 0
M  V30 5298 C 491.387 -4.08275 -1.28435 0
M  V30 5299 C 490.713 -4.70575 -2.53895 0
M  V30 5300 C 492.013 -5.2068 -0.411038 0
M  V30 5301 H 493.707 -2.9937 0.042576 0
M  V30 5302 H 491.253 -1.43983 0.0219173 0
M  V30 5303 H 493.206 -3.50444 -2.34023 0
M  V30 5304 H 491.93 -2.26187 -2.356 0
M  V30 5305 H 490.589 -3.59949 -0.695161 0
M  V30 5306 H 490.237 -3.92136 -3.15021 0
M  V30 5307 H 489.937 -5.42854 -2.24908 0
M  V30 5308 H 491.461 -5.22527 -3.15908 0
M  V30 5309 H 492.875 -5.65721 -0.929097 0
M  V30 5310 H 491.272 -5.99716 -0.214664 0
M  V30 5311 H 492.342 -4.81629 0.562287 0
M  V30 5312 N 493.685 -0.035106 -1.57561 0
M  V30 5313 C 494.615 0.942993 -2.13612 0
M  V30 5314 C 495.596 1.33531 -1.05373 0
M  V30 5315 O 496.781 1.41287 -1.33235 0
M  V30 5316 C 493.911 2.22332 -2.66807 0
M  V30 5317 C 492.865 1.97156 -3.79886 0
M  V30 5318 C 492.191 3.31506 -4.19533 0
M  V30 5319 C 493.491 1.30596 -5.05709 0
M  V30 5320 H 495.185 0.476179 -2.95589 0
M  V30 5321 H 492.731 0.227602 -1.4219 0
M  V30 5322 H 494.684 2.91142 -3.04654 0
M  V30 5323 H 493.408 2.7119 -1.81999 0
M  V30 5324 H 492.067 1.30763 -3.42486 0
M  V30 5325 H 491.715 3.78134 -3.31698 0
M  V30 5326 H 491.415 3.15465 -4.95738 0
M  V30 5327 H 492.939 4.01574 -4.59968 0
M  V30 5328 H 494.353 1.89416 -5.41105 0
M  V30 5329 H 492.75 1.24934 -5.86951 0
M  V30 5330 H 493.82 0.279742 -4.84092 0
M  V30 5331 N 495.163 1.55791 0.238111 0
M  V30 5332 C 496.073 1.94196 1.31625 0
M  V30 5333 C 497.089 0.843545 1.52185 0
M  V30 5334 O 498.265 1.1457 1.65637 0
M  V30 5335 C 495.33 2.2365 2.64918 0
M  V30 5336 C 494.391 3.46971 2.52804 0
M  V30 5337 C 493.624 3.7501 3.79741 0
M  V30 5338 O 493.847 3.04982 4.82019 0
M  V30 5339 O 492.781 4.68525 3.77846 0
M  V30 5340 H 496.607 2.86044 1.02043 0
M  V30 5341 H 494.192 1.42786 0.439603 0
M  V30 5342 H 496.074 2.43863 3.4367 0
M  V30 5343 H 494.749 1.34979 2.94215 0
M  V30 5344 H 493.656 3.32055 1.72309 0
M  V30 5345 H 494.989 4.35971 2.28451 0
M  V30 5346 N 496.642 -0.504142 1.49319 0
M  V30 5347 C 497.919 -1.26548 1.49147 0
M  V30 5348 C 498.299 -2.09977 0.21744 0
M  V30 5349 O 497.647 -2.14028 -0.800269 0
M  V30 5350 C 497.857 -2.12489 2.76857 0
M  V30 5351 C 499.205 -2.7178 3.26222 0
M  V30 5352 O 500.229 -2.22758 2.77952 0
M  V30 5353 O 499.088 -3.61015 4.10281 0
M  V30 5354 H 496.182 -0.572495 0.596806 0
M  V30 5355 H 498.728 -0.51867 1.61579 0
M  V30 5356 H 497.5 -1.50796 3.61077 0
M  V30 5357 H 497.123 -2.94368 2.6727 0
M  V30 5358 N 498.12 -1.38341 -0.754957 0
M  V30 5359 C 499.366 -1.35678 -1.51536 0
M  V30 5360 C 499.721 0.0533985 -1.92326 0
M  V30 5361 O 499.014 1.01573 -1.6246 0
M  V30 5362 C 499.208 -2.2452 -2.78075 0
M  V30 5363 C 499.037 -3.74035 -2.49655 0
M  V30 5364 C 497.807 -4.43066 -2.42942 0
M  V30 5365 C 500.005 -4.665 -2.16523 0
M  V30 5366 N 497.987 -5.78026 -2.06783 0
M  V30 5367 C 499.358 -5.89962 -1.90644 0
M  V30 5368 C 501.413 -4.54718 -2.02821 0
M  V30 5369 C 500.116 -7.0296 -1.52444 0
M  V30 5370 C 502.142 -5.67618 -1.66023 0
M  V30 5371 C 501.504 -6.90141 -1.41015 0
M  V30 5372 H 497.603 -0.551764 -0.554148 0
M  V30 5373 H 500.187 -1.73716 -0.879258 0
M  V30 5374 H 498.358 -1.88673 -3.39496 0
M  V30 5375 H 500.09 -2.12993 -3.44116 0
M  V30 5376 H 496.845 -3.96264 -2.59367 0
M  V30 5377 H 497.269 -6.49394 -1.91353 0
M  V30 5378 H 501.911 -3.60546 -2.20831 0
M  V30 5379 H 499.629 -7.97051 -1.33174 0
M  V30 5380 H 503.215 -5.6048 -1.56055 0
M  V30 5381 H 502.095 -7.76021 -1.12965 0
M  V30 5382 N 499.598 0.982988 -1.23187 0
M  V30 5383 C 500.846 1.72052 -1.06031 0
M  V30 5384 C 501.167 1.90769 0.404019 0
M  V30 5385 O 500.437 1.47446 1.28982 0
M  V30 5386 H 499.017 0.637499 -0.389363 0
M  V30 5387 H 501.679 1.18338 -1.54862 0
M  V30 5388 H 500.775 2.7111 -1.54615 0
M  V30 5389 N 501.076 1.04316 1.18135 0
M  V30 5390 C 502.487 0.775505 1.69832 0
M  V30 5391 C 502.838 -0.703348 1.8316 0
M  V30 5392 O 501.963 -1.54729 1.51287 0
M  V30 5393 C 502.558 1.40112 3.0847 0
M  V30 5394 C 501.117 1.18172 3.57368 0
M  V30 5395 C 500.264 1.49022 2.33854 0
M  V30 5396 H 503.215 1.20925 1.02775 0
M  V30 5397 H 503.236 0.805672 3.71873 0
M  V30 5398 H 502.748 2.47744 2.98738 0
M  V30 5399 H 500.849 0.124258 3.72393 0
M  V30 5400 H 500.962 1.8805 4.40652 0
M  V30 5401 H 499.326 0.909995 2.37889 0
M  V30 5402 H 500.109 2.57768 2.26738 0
M  V30 5403 N 502.554 -1.34406 0.822964 0
M  V30 5404 C 503.794 -2.00103 0.416915 0
M  V30 5405 C 504.158 -1.63826 -1.00125 0
M  V30 5406 O 505.359 -2.22367 -1.51018 0
M  V30 5407 C 503.63 -3.52101 0.613151 0
M  V30 5408 S 505.189 -4.37774 0.299956 0
M  V30 5409 H 502.007 -0.69333 0.157527 0
M  V30 5410 H 504.609 -1.63698 1.06879 0
M  V30 5411 H 503.313 -3.75991 1.64496 0
M  V30 5412 H 502.844 -3.93364 -0.0534554 0
M  V30 5413 H 504.859 -4.8822 -0.886336 0
M  V30 5414 N 504.032 -0.577932 -1.46621 0
M  V30 5415 C 504.995 0.147805 -2.28723 0
M  V30 5416 C 505.995 0.823325 -1.38123 0
M  V30 5417 O 507.185 0.676011 -1.60548 0
M  V30 5418 C 504.317 1.21853 -3.18378 0
M  V30 5419 H 505.51 -0.573654 -2.94362 0
M  V30 5420 H 503.063 -0.335703 -1.52652 0
M  V30 5421 H 503.798 1.97173 -2.57475 0
M  V30 5422 H 503.583 0.738714 -3.85078 0
M  V30 5423 H 505.073 1.72768 -3.80186 0
M  V30 5424 N 505.51 1.54411 -0.315457 0
M  V30 5425 C 506.42 2.27737 0.56329 0
M  V30 5426 C 507.436 1.31787 1.13614 0
M  V30 5427 O 508.612 1.64791 1.15784 0
M  V30 5428 C 505.677 3.01478 1.71207 0
M  V30 5429 C 504.738 4.12997 1.17185 0
M  V30 5430 C 503.971 4.83212 2.26588 0
M  V30 5431 O 504.194 4.52884 3.46775 0
M  V30 5432 O 503.128 5.70299 1.92463 0
M  V30 5433 H 506.954 3.03683 -0.0319614 0
M  V30 5434 H 504.539 1.49178 -0.0814188 0
M  V30 5435 H 506.421 3.47683 2.38106 0
M  V30 5436 H 505.096 2.28414 2.29366 0
M  V30 5437 H 504.003 3.71159 0.468174 0
M  V30 5438 H 505.336 4.8808 0.635501 0
M  V30 5439 N 506.988 0.0434614 1.5754 0
M  V30 5440 C 507.938 -0.943039 2.07583 0
M  V30 5441 C 508.922 -1.27662 0.979342 0
M  V30 5442 O 510.114 -1.26034 1.24276 0
M  V30 5443 C 507.243 -2.22056 2.61813 0
M  V30 5444 C 506.329 -1.91471 3.78417 0
M  V30 5445 N 506.72 -1.31214 4.88484 0
M  V30 5446 C 505.018 -2.21384 3.87176 0
M  V30 5447 C 505.719 -1.18084 5.69588 0
M  V30 5448 N 504.695 -1.68116 5.16951 0
M  V30 5449 H 508.497 -0.472354 2.90079 0
M  V30 5450 H 506.011 -0.161191 1.61598 0
M  V30 5451 H 508.008 -2.93618 2.95963 0
M  V30 5452 H 506.668 -2.69738 1.80752 0
M  V30 5453 H 507.679 -0.985318 5.08441 0
M  V30 5454 H 504.356 -2.7164 3.17046 0
M  V30 5455 H 505.746 -0.713684 6.68099 0
M  V30 5456 N 508.466 -1.55915 -0.229846 0
M  V30 5457 C 509.714 -1.7819 -0.953565 0
M  V30 5458 C 510.035 -0.610504 -1.85197 0
M  V30 5459 O 509.305 0.372988 -1.92316 0
M  V30 5460 H 507.885 -0.657208 -0.355087 0
M  V30 5461 H 510.547 -1.9337 -0.243693 0
M  V30 5462 H 509.643 -2.70011 -1.56527 0
M  V30 5463 N 509.944 0.496216 -1.49584 0
M  V30 5464 C 510.854 1.62352 -1.69349 0
M  V30 5465 C 511.87 1.64184 -0.576147 0
M  V30 5466 O 513.046 1.82517 -0.85144 0
M  V30 5467 C 510.111 2.98698 -1.76013 0
M  V30 5468 C 509.172 3.07454 -2.99617 0
M  V30 5469 C 508.405 4.37296 -3.05953 0
M  V30 5470 O 508.628 5.2637 -2.19752 0
M  V30 5471 O 507.562 4.51124 -3.9846 0
M  V30 5472 H 511.388 1.48606 -2.64859 0
M  V30 5473 H 508.973 0.673022 -1.33382 0
M  V30 5474 H 510.855 3.79725 -1.82721 0
M  V30 5475 H 509.53 3.12696 -0.836828 0
M  V30 5476 H 508.437 2.25597 -2.98424 0
M  V30 5477 H 509.77 2.98385 -3.91443 0
M  V30 5478 N 511.423 1.38739 0.74761 0
M  V30 5479 C 512.373 1.32948 1.85226 0
M  V30 5480 C 513.357 0.212642 1.59489 0
M  V30 5481 O 514.549 0.449121 1.71207 0
M  V30 5482 C 511.678 1.16279 3.23008 0
M  V30 5483 C 510.764 2.32611 3.54617 0
M  V30 5484 N 511.155 3.58065 3.57244 0
M  V30 5485 C 509.453 2.25293 3.84914 0
M  V30 5486 C 510.154 4.34919 3.8629 0
M  V30 5487 N 509.13 3.64348 4.03425 0
M  V30 5488 H 512.932 2.27927 1.85544 0
M  V30 5489 H 510.446 1.32056 0.945253 0
M  V30 5490 H 512.443 1.10214 4.02068 0
M  V30 5491 H 511.103 0.222394 3.23937 0
M  V30 5492 H 512.114 3.91656 3.3886 0
M  V30 5493 H 508.791 1.39446 3.93524 0
M  V30 5494 H 510.181 5.43605 3.94896 0
M  V30 5495 N 512.901 -0.976442 1.23707 0
M  V30 5496 C 513.851 -2.0544 0.988851 0
M  V30 5497 C 514.835 -1.60762 -0.0665901 0
M  V30 5498 O 516.027 -1.76396 0.14604 0
M  V30 5499 C 513.156 -3.38258 0.586223 0
M  V30 5500 C 512.242 -3.89523 1.67728 0
M  V30 5501 N 512.633 -4.13823 2.90834 0
M  V30 5502 C 510.931 -4.18097 1.55277 0
M  V30 5503 C 511.632 -4.55731 3.61502 0
M  V30 5504 N 510.608 -4.60394 2.8903 0
M  V30 5505 H 514.41 -2.22191 1.92376 0
M  V30 5506 H 511.924 -1.15954 1.13704 0
M  V30 5507 H 513.921 -4.15075 0.389658 0
M  V30 5508 H 512.581 -3.22898 -0.341594 0
M  V30 5509 H 513.592 -4.01529 3.271 0
M  V30 5510 H 510.269 -4.11719 0.692351 0
M  V30 5511 H 511.659 -4.83018 4.67059 0
M  V30 5512 N 514.379 -1.04941 -1.1758 0
M  V30 5513 C 515.628 -0.753124 -1.87112 0
M  V30 5514 C 515.941 0.722507 -1.81767 0
M  V30 5515 O 517.147 1.13265 -2.46746 0
M  V30 5516 C 515.603 -1.29695 -3.35719 0
M  V30 5517 C 515.211 -2.80184 -3.49572 0
M  V30 5518 C 516.955 -1.07759 -4.10595 0
M  V30 5519 C 514.862 -3.2788 -4.92187 0
M  V30 5520 H 513.792 -0.278034 -0.700866 0
M  V30 5521 H 516.443 -1.26637 -1.32798 0
M  V30 5522 H 514.825 -0.711522 -3.89555 0
M  V30 5523 H 515.999 -3.44561 -3.05965 0
M  V30 5524 H 514.314 -3.00632 -2.88113 0
M  V30 5525 H 516.911 -1.40899 -5.15802 0
M  V30 5526 H 517.254 -0.0152302 -4.16297 0
M  V30 5527 H 517.787 -1.62809 -3.62957 0
M  V30 5528 H 514.526 -4.33535 -4.91658 0
M  V30 5529 H 514.046 -2.68245 -5.36475 0
M  V30 5530 H 515.725 -3.22412 -5.60945 0
M  V30 5531 N 515.857 1.33968 -0.830081 0
M  V30 5532 C 517.273 1.51003 -0.516742 0
M  V30 5533 C 517.473 1.77286 0.957694 0
M  V30 5534 O 516.529 1.82797 1.74188 0
M  V30 5535 C 517.842 2.67036 -1.38247 0
M  V30 5536 C 519.39 2.80919 -1.38034 0
M  V30 5537 C 519.865 4.00004 -2.23071 0
M  V30 5538 N 521.356 4.07224 -2.20733 0
M  V30 5539 C 522.091 4.98541 -2.83275 0
M  V30 5540 N 521.587 5.95033 -3.54835 0
M  V30 5541 N 523.38 4.91469 -2.72791 0
M  V30 5542 H 515.531 1.15168 -1.78466 0
M  V30 5543 H 517.794 0.565443 -0.760906 0
M  V30 5544 H 517.5 2.54266 -2.42985 0
M  V30 5545 H 517.374 3.62226 -1.05225 0
M  V30 5546 H 519.761 2.93127 -0.340713 0
M  V30 5547 H 519.842 1.86517 -1.75057 0
M  V30 5548 H 519.486 3.88557 -3.27087 0
M  V30 5549 H 519.416 4.93634 -1.83394 0
M  V30 5550 H 521.907 3.38162 -1.68687 0
M  V30 5551 H 522.22 6.61357 -3.99784 0
M  V30 5552 H 520.565 5.95135 -3.58942 0
M  V30 5553 H 523.756 4.15048 -2.16456 0
M  V30 5554 H 523.929 5.62439 -3.21818 0
M  V30 5555 N 517.335 0.585699 1.46312 0
M  V30 5556 C 518.584 0.0701192 2.01578 0
M  V30 5557 C 518.897 -1.29889 1.46247 0
M  V30 5558 O 520.103 -1.90598 1.93351 0
M  V30 5559 C 518.559 0.0747499 3.59822 0
M  V30 5560 C 518.167 1.44226 4.24149 0
M  V30 5561 C 519.911 -0.38673 4.22735 0
M  V30 5562 C 517.818 1.40446 5.74481 0
M  V30 5563 H 516.748 0.0224441 0.753666 0
M  V30 5564 H 519.399 0.737789 1.68015 0
M  V30 5565 H 517.781 -0.659144 3.90476 0
M  V30 5566 H 518.955 2.19612 4.05101 0
M  V30 5567 H 517.27 1.84401 3.73343 0
M  V30 5568 H 519.867 -0.433853 5.32937 0
M  V30 5569 H 520.21 -1.40489 3.91878 0
M  V30 5570 H 520.743 0.293195 3.96718 0
M  V30 5571 H 517.482 2.39952 6.10003 0
M  V30 5572 H 517.002 0.692845 5.95785 0
M  V30 5573 H 518.681 1.11865 6.37256 0
M  V30 5574 N 518.813 -1.54241 0.323641 0
M  V30 5575 C 520.224 -1.85975 -0.164405 0
M  V30 5576 C 520.575 -1.24529 -1.51615 0
M  V30 5577 O 519.7 -0.551351 -2.09258 0
M  V30 5578 C 520.295 -3.37424 -0.305091 0
M  V30 5579 C 518.854 -3.69107 -0.737358 0
M  V30 5580 C 518.001 -2.76942 0.140884 0
M  V30 5581 H 520.952 -1.49088 0.543922 0
M  V30 5582 H 520.973 -3.63147 -1.13598 0
M  V30 5583 H 520.485 -3.82116 0.678876 0
M  V30 5584 H 518.586 -3.29947 -1.73107 0
M  V30 5585 H 518.699 -4.76035 -0.541053 0
M  V30 5586 H 517.063 -2.51795 -0.383572 0
M  V30 5587 H 517.846 -3.24461 1.12162 0
M  V30 5588 N 520.291 -0.0518155 -1.57515 0
M  V30 5589 C 521.707 0.304735 -1.56664 0
M  V30 5590 C 521.907 1.71395 -1.05953 0
M  V30 5591 O 520.963 2.42123 -0.716414 0
M  V30 5592 C 522.276 0.132614 -3.00407 0
M  V30 5593 C 523.824 0.20367 -3.12337 0
M  V30 5594 C 524.299 0.0600706 -4.57961 0
M  V30 5595 N 525.79 0.116326 -4.63054 0
M  V30 5596 C 526.525 0.0293363 -5.73392 0
M  V30 5597 N 526.021 -0.110038 -6.92713 0
M  V30 5598 N 527.814 0.0849651 -5.62036 0
M  V30 5599 H 519.965 -0.973056 -1.888 0
M  V30 5600 H 522.228 -0.377781 -0.869474 0
M  V30 5601 H 521.934 -0.839019 -3.41546 0
M  V30 5602 H 521.808 0.893376 -3.66468 0
M  V30 5603 H 524.195 1.16578 -2.71097 0
M  V30 5604 H 524.276 -0.587857 -2.48954 0
M  V30 5605 H 523.92 -0.898715 -4.99886 0
M  V30 5606 H 523.85 0.87075 -5.19351 0
M  V30 5607 H 526.341 0.22327 -3.7724 0
M  V30 5608 H 526.654 -0.169104 -7.72615 0
M  V30 5609 H 524.999 -0.145132 -6.94848 0
M  V30 5610 H 528.19 0.192411 -4.67704 0
M  V30 5611 H 528.363 0.0137131 -6.47999 0
M  V30 5612 N 521.769 1.56035 0.221574 0
M  V30 5613 C 522.997 1.8313 0.962864 0
M  V30 5614 C 523.412 0.630934 1.77946 0
M  V30 5615 O 522.769 -0.400519 1.78051 0
M  V30 5616 C 522.82 3.08742 1.88045 0
M  V30 5617 O 522.541 4.24147 1.09686 0
M  V30 5618 C 524.042 3.48824 2.73563 0
M  V30 5619 H 521.262 0.608775 0.282194 0
M  V30 5620 H 523.806 2.03124 0.23681 0
M  V30 5621 H 521.961 2.90723 2.56045 0
M  V30 5622 H 522.375 4.95505 1.71974 0
M  V30 5623 H 523.849 4.39752 3.3365 0
M  V30 5624 H 524.326 2.70575 3.45956 0
M  V30 5625 H 524.932 3.69282 2.10976 0
M  V30 5626 N 523.247 -0.488276 1.49845 0
M  V30 5627 C 524.658 -1.06955 1.53028 0
M  V30 5628 C 525.009 -1.9351 0.323797 0
M  V30 5629 O 524.134 -2.08891 -0.565116 0
M  V30 5630 C 524.729 -1.94643 2.77307 0
M  V30 5631 C 523.288 -2.4791 2.83227 0
M  V30 5632 C 522.435 -1.25833 2.47106 0
M  V30 5633 H 525.386 -0.271626 1.56358 0
M  V30 5634 H 525.407 -2.79496 2.5819 0
M  V30 5635 H 524.919 -1.31621 3.65099 0
M  V30 5636 H 523.02 -3.14535 1.99745 0
M  V30 5637 H 523.133 -2.84193 3.85709 0
M  V30 5638 H 521.497 -1.58764 1.99163 0
M  V30 5639 H 522.28 -0.644993 3.37186 0
M  V30 5640 N 524.725 -1.39134 -0.740242 0
M  V30 5641 C 525.95 -1.39518 -1.53459 0
M  V30 5642 C 526.375 0.00968883 -1.88098 0
M  V30 5643 O 525.733 0.995312 -1.51536 0
M  V30 5644 C 525.781 -2.26981 -2.802 0
M  V30 5645 O 524.885 -1.69609 -3.75908 0
M  V30 5646 H 524.226 -0.475328 -0.463637 0
M  V30 5647 H 526.756 -1.83064 -0.913717 0
M  V30 5648 H 526.766 -2.41309 -3.28989 0
M  V30 5649 H 525.441 -3.29081 -2.5432 0
M  V30 5650 H 524.018 -1.64495 -3.34658 0
M  V30 5651 N 526.204 0.969867 -1.24223 0
M  V30 5652 C 527.62 1.23809 -1.00716 0
M  V30 5653 C 527.82 1.99469 0.285358 0
M  V30 5654 O 526.876 2.31764 1.00207 0
M  V30 5655 C 528.189 2.02734 -2.2208 0
M  V30 5656 C 529.737 2.15834 -2.26681 0
M  V30 5657 C 530.212 2.98154 -3.47661 0
M  V30 5658 N 531.703 3.05737 -3.47964 0
M  V30 5659 C 532.438 3.69785 -4.38231 0
M  V30 5660 N 531.934 4.35569 -5.3875 0
M  V30 5661 N 533.727 3.66775 -4.25949 0
M  V30 5662 H 525.878 0.463294 -2.07286 0
M  V30 5663 H 528.141 0.267348 -0.909521 0
M  V30 5664 H 527.847 1.54524 -3.15935 0
M  V30 5665 H 527.721 3.0347 -2.24021 0
M  V30 5666 H 530.108 2.63248 -1.33359 0
M  V30 5667 H 530.189 1.14453 -2.28767 0
M  V30 5668 H 529.833 2.51435 -4.41297 0
M  V30 5669 H 529.763 3.99729 -3.42818 0
M  V30 5670 H 532.254 2.58941 -2.75242 0
M  V30 5671 H 532.567 4.82251 -6.03866 0
M  V30 5672 H 530.912 4.34244 -5.42639 0
M  V30 5673 H 534.103 3.14558 -3.46657 0
M  V30 5674 H 534.276 4.16407 -4.96497 0
M  V30 5675 N 527.682 1.05563 1.17022 0
M  V30 5676 C 528.928 0.769074 1.87652 0
M  V30 5677 C 529.261 -0.702326 1.81055 0
M  V30 5678 O 528.536 -1.5139 1.22112 0
M  V30 5679 C 528.819 1.25492 3.37526 0
M  V30 5680 C 528.672 2.78953 3.52853 0
M  V30 5681 C 529.991 0.856919 4.31677 0
M  V30 5682 H 527.11 0.280854 0.681388 0
M  V30 5683 H 529.752 1.31027 1.37593 0
M  V30 5684 H 527.902 0.794516 3.80289 0
M  V30 5685 H 529.574 3.33146 3.19079 0
M  V30 5686 H 527.817 3.18046 2.95007 0
M  V30 5687 H 528.488 3.08011 4.58076 0
M  V30 5688 H 530.964 1.25334 3.96775 0
M  V30 5689 H 529.84 1.22443 5.35069 0
M  V30 5690 H 530.101 -0.238787 4.41455 0
M  V30 5691 N 529.16 -1.33526 0.837174 0
M  V30 5692 C 530.388 -2.02047 0.445494 0
M  V30 5693 C 530.803 -1.62995 -0.952788 0
M  V30 5694 O 530.16 -0.842447 -1.61892 0
M  V30 5695 C 530.211 -3.57221 0.554577 0
M  V30 5696 O 529.932 -3.94863 1.89776 0
M  V30 5697 C 531.433 -4.43012 0.159634 0
M  V30 5698 H 528.653 -0.647221 0.177048 0
M  V30 5699 H 531.197 -1.70492 1.12928 0
M  V30 5700 H 529.352 -3.87315 -0.0812781 0
M  V30 5701 H 529.766 -4.89569 1.88208 0
M  V30 5702 H 531.24 -5.51253 0.28701 0
M  V30 5703 H 531.717 -4.29916 -0.898289 0
M  V30 5704 H 532.323 -4.18274 0.769855 0
M  V30 5705 N 530.638 -0.59345 -1.46 0
M  V30 5706 C 531.886 -0.082988 -2.0193 0
M  V30 5707 C 532.207 1.28569 -1.46612 0
M  V30 5708 O 531.477 1.84629 -0.654909 0
M  V30 5709 H 530.057 -0.0276882 -0.746487 0
M  V30 5710 H 532.719 -0.771657 -1.78973 0
M  V30 5711 H 531.815 -0.022079 -3.12092 0
M  V30 5712 N 532.116 1.54067 -0.331816 0
M  V30 5713 C 533.364 2.00319 0.267739 0
M  V30 5714 C 533.685 1.22148 1.52003 0
M  V30 5715 O 532.955 0.325494 1.93177 0
M  V30 5716 H 531.535 0.740014 0.101922 0
M  V30 5717 H 534.197 1.89628 -0.450267 0
M  V30 5718 H 533.293 3.07765 0.518385 0
M  V30 5719 N 533.594 0.0601682 1.57485 0
M  V30 5720 C 534.84 -0.612501 1.93329 0
M  V30 5721 C 535.173 -1.6996 0.939526 0
M  V30 5722 O 534.448 -1.94472 -0.0330957 0
M  V30 5723 C 534.731 -1.20025 3.39508 0
M  V30 5724 C 534.584 -0.12059 4.49638 0
M  V30 5725 C 535.903 -2.10923 3.86264 0
M  V30 5726 H 533.022 -0.221185 0.703027 0
M  V30 5727 H 535.664 0.123768 1.89596 0
M  V30 5728 H 533.814 -1.82774 3.42821 0
M  V30 5729 H 535.486 0.51185 4.58452 0
M  V30 5730 H 533.729 0.550251 4.30296 0
M  V30 5731 H 534.4 -0.572019 5.49028 0
M  V30 5732 H 536.876 -1.58124 3.84884 0
M  V30 5733 H 535.752 -2.48987 4.8918 0
M  V30 5734 H 536.013 -3.01292 3.23536 0
M  V30 5735 N 535.072 -1.5615 -0.213296 0
M  V30 5736 C 536.319 -1.79546 -0.936462 0
M  V30 5737 C 536.647 -0.630337 -1.84003 0
M  V30 5738 O 535.902 0.384883 -1.91878 0
M  V30 5739 C 536.201 -3.08772 -1.79985 0
M  V30 5740 C 535.867 -4.38532 -1.04882 0
M  V30 5741 C 534.529 -4.73787 -0.841393 0
M  V30 5742 C 536.881 -5.18609 -0.51907 0
M  V30 5743 C 534.209 -5.86627 -0.0924403 0
M  V30 5744 C 536.561 -6.32229 0.216581 0
M  V30 5745 C 535.225 -6.6608 0.435191 0
M  V30 5746 H 534.495 -0.657004 -0.342676 0
M  V30 5747 H 537.142 -1.9041 -0.204051 0
M  V30 5748 H 535.447 -2.93065 -2.60038 0
M  V30 5749 H 537.144 -3.24077 -2.36168 0
M  V30 5750 H 533.734 -4.10855 -1.22048 0
M  V30 5751 H 537.918 -4.91801 -0.666775 0
M  V30 5752 H 533.174 -6.11338 0.087081 0
M  V30 5753 H 537.348 -6.93503 0.634538 0
M  V30 5754 H 534.975 -7.5336 1.01746 0
M  V30 5755 N 536.55 0.480323 -1.50102 0
M  V30 5756 C 537.48 1.58769 -1.71215 0
M  V30 5757 C 538.461 1.60583 -0.560997 0
M  V30 5758 O 539.646 1.76996 -0.799127 0
M  V30 5759 C 536.776 2.97148 -1.79778 0
M  V30 5760 C 535.73 3.10201 -2.94888 0
M  V30 5761 C 535.056 4.50137 -2.88584 0
M  V30 5762 C 536.356 2.88283 -4.35534 0
M  V30 5763 H 538.05 1.41354 -2.6393 0
M  V30 5764 H 535.596 0.678591 -1.27008 0
M  V30 5765 H 537.549 3.74536 -1.93133 0
M  V30 5766 H 536.273 3.15699 -0.836772 0
M  V30 5767 H 534.932 2.35244 -2.81169 0
M  V30 5768 H 534.58 4.65593 -1.90349 0
M  V30 5769 H 534.28 4.59808 -3.65856 0
M  V30 5770 H 535.804 5.29558 -3.03976 0
M  V30 5771 H 537.218 3.55427 -4.49827 0
M  V30 5772 H 535.615 3.09408 -5.14186 0
M  V30 5773 H 536.685 1.84219 -4.48544 0
M  V30 5774 N 538.028 1.39524 0.732853 0
M  V30 5775 C 539.274 1.37068 1.49467 0
M  V30 5776 C 539.607 -0.0327166 1.94172 0
M  V30 5777 O 538.882 -0.998071 1.66939 0
M  V30 5778 C 539.165 2.34494 2.73285 0
M  V30 5779 C 539.018 3.83784 2.34585 0
M  V30 5780 C 540.337 2.29717 3.75391 0
M  V30 5781 H 537.456 0.499206 0.542183 0
M  V30 5782 H 540.098 1.70532 0.837783 0
M  V30 5783 H 538.248 2.06087 3.29333 0
M  V30 5784 H 539.92 4.22949 1.84151 0
M  V30 5785 H 538.163 4.00455 1.66787 0
M  V30 5786 H 538.834 4.47444 3.23262 0
M  V30 5787 H 541.31 2.54839 3.28932 0
M  V30 5788 H 540.186 2.99962 4.59689 0
M  V30 5789 H 540.447 1.30291 4.22465 0
M  V30 5790 N 539.506 -0.963266 1.24736 0
M  V30 5791 C 540.783 -1.68248 0.9976 0
M  V30 5792 C 541.163 -2.05599 -0.478776 0
M  V30 5793 O 540.511 -1.7626 -1.45412 0
M  V30 5794 C 540.721 -2.91118 1.92487 0
M  V30 5795 C 542.069 -3.63261 2.19833 0
M  V30 5796 O 543.093 -3.01184 1.90176 0
M  V30 5797 O 541.952 -4.75019 2.7022 0
M  V30 5798 H 539.046 -0.735744 0.377637 0
M  V30 5799 H 541.592 -1.01696 1.35853 0
M  V30 5800 H 540.364 -2.60242 2.92215 0
M  V30 5801 H 539.987 -3.65402 1.56738 0
M  V30 5802 N 540.985 -1.06182 -1.16461 0
M  V30 5803 C 541.932 -0.671613 -2.20812 0
M  V30 5804 C 542.902 0.331186 -1.62765 0
M  V30 5805 O 544.087 0.22033 -1.89524 0
M  V30 5806 C 541.227 -0.063029 -3.45042 0
M  V30 5807 C 540.34 -1.11587 -4.1734 0
M  V30 5808 C 539.475 -0.473546 -5.29085 0
M  V30 5809 C 538.514 -1.51 -5.93182 0
M  V30 5810 N 537.651 -0.891118 -6.96422 0
M  V30 5811 H 542.491 -1.56589 -2.53542 0
M  V30 5812 H 540.028 -0.782951 -1.24532 0
M  V30 5813 H 541.986 0.307344 -4.16066 0
M  V30 5814 H 540.616 0.794663 -3.12866 0
M  V30 5815 H 539.668 -1.60396 -3.44931 0
M  V30 5816 H 540.98 -1.90221 -4.61104 0
M  V30 5817 H 540.134 -0.0501432 -6.06679 0
M  V30 5818 H 538.873 0.344687 -4.8648 0
M  V30 5819 H 537.878 -1.94331 -5.14311 0
M  V30 5820 H 539.103 -2.33031 -6.37866 0
M  V30 5821 H 537.049 -0.0935753 -6.55933 0
M  V30 5822 H 536.966 -1.61486 -7.38551 0
M  V30 5823 H 538.234 -0.492822 -7.77941 0
M  V30 5824 N 542.463 1.3308 -0.844243 0
M  V30 5825 C 543.411 2.31028 -0.269954 0
M  V30 5826 C 544.405 1.58381 0.600997 0
M  V30 5827 O 545.611 1.73203 0.48996 0
M  V30 5828 H 541.986 0.748866 -0.0685782 0
M  V30 5829 H 543.957 2.76967 -1.11049 0
M  V30 5830 C 542.706 3.43549 0.535676 0
M  V30 5831 H 542.029 3.99604 -0.125202 0
M  V30 5832 H 543.469 4.14267 0.903262 0
M  V30 5833 C 541.928 2.8988 1.71672 0
M  V30 5834 O 542.458 2.86511 2.81557 0
M  V30 5835 N 540.664 2.46416 1.54037 0
M  V30 5836 H 540.211 2.49356 0.64649 0
M  V30 5837 H 540.169 2.1086 2.33207 0
M  V30 5838 N 543.941 0.601185 1.45683 0
M  V30 5839 C 545.352 0.179659 1.85834 0
M  V30 5840 C 545.703 -1.26189 1.50236 0
M  V30 5841 O 544.828 -1.95587 0.925987 0
M  V30 5842 C 545.423 0.319277 3.37292 0
M  V30 5843 C 543.982 -0.0475092 3.7637 0
M  V30 5844 C 543.129 0.646692 2.69654 0
M  V30 5845 H 546.08 0.808268 1.36575 0
M  V30 5846 H 546.101 -0.4503 3.77826 0
M  V30 5847 H 545.613 1.36855 3.6317 0
M  V30 5848 H 543.714 -1.0962 3.5611 0
M  V30 5849 H 543.827 0.34168 4.7788 0
M  V30 5850 H 542.191 0.0849971 2.54558 0
M  V30 5851 H 542.974 1.69797 2.98369 0
M  V30 5852 N 545.419 -1.53889 0.339982 0
M  V30 5853 C 546.369 -2.2165 -0.534354 0
M  V30 5854 C 547.353 -1.20266 -1.06887 0
M  V30 5855 O 548.545 -1.45827 -1.00316 0
M  V30 5856 C 545.674 -2.99014 -1.68659 0
M  V30 5857 C 544.76 -4.07751 -1.16618 0
M  V30 5858 N 545.151 -5.04469 -0.366717 0
M  V30 5859 C 543.449 -4.21998 -1.4434 0
M  V30 5860 C 544.15 -5.81638 -0.0847275 0
M  V30 5861 N 543.126 -5.39388 -0.675391 0
M  V30 5862 H 546.928 -2.93781 0.0835562 0
M  V30 5863 H 544.442 -1.61736 0.146665 0
M  V30 5864 H 546.439 -3.46056 -2.32489 0
M  V30 5865 H 545.099 -2.28408 -2.30781 0
M  V30 5866 H 546.11 -5.17899 -0.00811038 0
M  V30 5867 H 542.787 -3.62612 -2.06928 0
M  V30 5868 H 544.177 -6.69563 0.559943 0
M  V30 5869 N 546.897 -0.0685191 -1.57451 0
M  V30 5870 C 547.845 0.917577 -2.13736 0
M  V30 5871 C 548.839 1.31049 -1.07344 0
M  V30 5872 O 550.045 1.28811 -1.25728 0
M  V30 5873 H 546.42 0.313835 -0.683382 0
M  V30 5874 H 548.391 0.417903 -2.95459 0
M  V30 5875 C 547.14 2.17686 -2.71123 0
M  V30 5876 H 546.463 1.88336 -3.52661 0
M  V30 5877 H 547.903 2.84803 -3.14107 0
M  V30 5878 C 546.362 2.9332 -1.65726 0
M  V30 5879 O 546.892 3.86901 -1.08031 0
M  V30 5880 N 545.098 2.56367 -1.36837 0
M  V30 5881 H 544.645 1.80341 -1.83943 0
M  V30 5882 H 544.603 3.07276 -0.665501 0
M  V30 5883 N 548.375 1.56261 0.205012 0
M  V30 5884 C 549.603 1.84141 0.943386 0
M  V30 5885 C 550.018 0.649772 1.77266 0
M  V30 5886 O 549.375 -0.381612 1.78466 0
M  V30 5887 C 549.426 3.10719 1.84759 0
M  V30 5888 O 549.147 4.25286 1.05181 0
M  V30 5889 C 550.648 3.51706 2.69848 0
M  V30 5890 H 547.868 0.611734 0.275721 0
M  V30 5891 H 550.412 2.03364 0.215253 0
M  V30 5892 H 548.567 2.93422 2.52947 0
M  V30 5893 H 548.981 4.97301 1.66709 0
M  V30 5894 H 550.455 4.43266 3.28967 0
M  V30 5895 H 550.932 2.7423 3.43067 0
M  V30 5896 H 551.538 3.71499 2.07047 0
M  V30 5897 N 549.853 -0.472356 1.50355 0
M  V30 5898 C 550.816 -1.5529 1.68576 0
M  V30 5899 C 551.816 -1.50863 0.556511 0
M  V30 5900 O 553.006 -1.53505 0.823516 0
M  V30 5901 C 550.138 -2.94921 1.70981 0
M  V30 5902 H 551.331 -1.40451 2.64978 0
M  V30 5903 H 548.884 -0.698645 1.39816 0
M  V30 5904 H 549.619 -3.15204 0.762675 0
M  V30 5905 H 549.404 -2.99541 2.53017 0
M  V30 5906 H 550.894 -3.73372 1.87037 0
M  V30 5907 N 551.331 -1.39911 -0.725443 0
M  V30 5908 C 552.241 -1.41688 -1.8698 0
M  V30 5909 C 553.257 -0.310579 -1.71206 0
M  V30 5910 O 554.433 -0.55359 -1.93642 0
M  V30 5911 C 551.498 -1.26811 -3.22676 0
M  V30 5912 C 550.559 -2.47497 -3.50776 0
M  V30 5913 C 549.792 -2.3332 -4.79997 0
M  V30 5914 O 550.015 -1.34175 -5.54394 0
M  V30 5915 O 548.949 -3.22498 -5.08211 0
M  V30 5916 H 552.775 -2.38171 -1.88436 0
M  V30 5917 H 550.36 -1.21128 -0.874548 0
M  V30 5918 H 552.242 -1.20684 -4.03749 0
M  V30 5919 H 550.917 -0.334289 -3.21969 0
M  V30 5920 H 549.824 -2.59201 -2.69751 0
M  V30 5921 H 551.157 -3.39606 -3.5627 0
M  V30 5922 N 552.809 0.956637 -1.25245 0
M  V30 5923 C 554.034 1.74104 -1.12706 0
M  V30 5924 C 554.459 1.85436 0.315429 0
M  V30 5925 O 553.817 1.33334 1.22848 0
M  V30 5926 C 553.865 3.1338 -1.78396 0
M  V30 5927 O 552.969 3.98485 -1.06224 0
M  V30 5928 H 552.31 0.53476 -0.393609 0
M  V30 5929 H 554.84 1.19924 -1.65769 0
M  V30 5930 H 554.85 3.6385 -1.846 0
M  V30 5931 H 553.525 3.04448 -2.83345 0
M  V30 5932 H 552.102 3.56952 -1.07886 0
M  V30 5933 N 554.287 1.06798 1.15896 0
M  V30 5934 C 555.703 0.792423 1.38538 0
M  V30 5935 C 555.903 -0.60592 1.92174 0
M  V30 5936 O 554.959 -1.36561 2.12385 0
M  V30 5937 C 556.272 1.86157 2.36149 0
M  V30 5938 C 557.82 1.88567 2.49823 0
M  V30 5939 C 558.295 2.9455 3.5072 0
M  V30 5940 N 559.786 2.93616 3.58251 0
M  V30 5941 C 560.521 3.72267 4.36125 0
M  V30 5942 N 560.017 4.60751 5.17379 0
M  V30 5943 N 561.81 3.60637 4.31158 0
M  V30 5944 H 553.961 1.96993 0.794198 0
M  V30 5945 H 556.224 0.853942 0.411688 0
M  V30 5946 H 555.93 2.86603 2.03843 0
M  V30 5947 H 555.804 1.71692 3.3586 0
M  V30 5948 H 558.191 0.887765 2.8143 0
M  V30 5949 H 558.272 2.0711 1.5013 0
M  V30 5950 H 557.916 3.94537 3.19849 0
M  V30 5951 H 557.846 2.73255 4.50155 0
M  V30 5952 H 560.337 2.29472 3.00252 0
M  V30 5953 H 560.65 5.17408 5.74028 0
M  V30 5954 H 558.995 4.64803 5.16704 0
M  V30 5955 H 562.186 2.90892 3.66742 0
M  V30 5956 H 562.359 4.22176 4.91601 0
M  V30 5957 N 555.766 -1.3263 0.851289 0
M  V30 5958 C 556.696 -2.31449 0.308771 0
M  V30 5959 C 557.677 -1.59531 -0.590255 0
M  V30 5960 O 558.862 -1.87351 -0.511205 0
M  V30 5961 C 555.992 -3.43586 -0.506548 0
M  V30 5962 C 554.946 -4.26963 0.297753 0
M  V30 5963 C 554.272 -5.30831 -0.642094 0
M  V30 5964 C 555.572 -4.99643 1.52166 0
M  V30 5965 H 557.266 -2.77074 1.13447 0
M  V30 5966 H 554.812 -1.33207 0.546971 0
M  V30 5967 H 556.765 -4.11754 -0.896474 0
M  V30 5968 H 555.489 -2.96681 -1.36558 0
M  V30 5969 H 554.148 -3.60437 0.669391 0
M  V30 5970 H 553.796 -4.8018 -1.49788 0
M  V30 5971 H 553.496 -5.87501 -0.107968 0
M  V30 5972 H 555.02 -6.01862 -1.02927 0
M  V30 5973 H 556.434 -5.6051 1.20421 0
M  V30 5974 H 554.831 -5.66022 1.99347 0
M  V30 5975 H 555.901 -4.27701 2.28474 0
M  V30 5976 N 557.244 -0.608902 -1.45362 0
M  V30 5977 C 558.49 -0.104762 -2.02529 0
M  V30 5978 C 558.823 1.26191 -1.47613 0
M  V30 5979 O 558.098 1.8327 -0.65134 0
M  V30 5980 C 558.381 -0.0672661 -3.60037 0
M  V30 5981 C 558.234 -1.4647 -4.25284 0
M  V30 5982 C 559.553 0.619877 -4.35713 0
M  V30 5983 H 556.672 -0.0395438 -0.735938 0
M  V30 5984 H 559.314 -0.781126 -1.73201 0
M  V30 5985 H 557.464 0.50871 -3.85155 0
M  V30 5986 H 559.136 -2.08785 -4.11347 0
M  V30 5987 H 557.379 -2.02502 -3.83634 0
M  V30 5988 H 558.05 -1.39069 -5.34195 0
M  V30 5989 H 560.526 0.130297 -4.15896 0
M  V30 5990 H 559.402 0.615224 -5.45441 0
M  V30 5991 H 559.663 1.68621 -4.0868 0
M  V30 5992 N 558.722 1.53707 -0.348139 0
M  V30 5993 C 559.968 2.01286 0.247332 0
M  V30 5994 C 560.301 1.23546 1.49834 0
M  V30 5995 O 559.576 0.324331 1.91777 0
M  V30 5996 C 559.859 3.55768 0.556858 0
M  V30 5997 C 559.712 4.44216 -0.706564 0
M  V30 5998 C 561.031 4.1841 1.3646 0
M  V30 5999 H 558.15 0.731677 0.0884201 0
M  V30 6000 H 560.792 1.84106 -0.469584 0
M  V30 6001 H 558.942 3.70539 1.16761 0
M  V30 6002 H 560.614 4.41274 -1.34444 0
M  V30 6003 H 558.857 4.12892 -1.33052 0
M  V30 6004 H 559.528 5.50202 -0.445186 0
M  V30 6005 H 562.004 4.07365 0.848113 0
M  V30 6006 H 560.88 5.26563 1.54992 0
M  V30 6007 H 561.141 3.7333 2.36805 0
M  V30 6008 N 560.2 0.0768682 1.57412 0
M  V30 6009 C 561.477 -0.632359 1.85096 0
M  V30 6010 C 561.857 -1.87479 0.9703 0
M  V30 6011 O 561.205 -2.28469 0.0379062 0
M  V30 6012 C 561.415 -0.965174 3.35388 0
M  V30 6013 C 562.763 -1.33648 4.03018 0
M  V30 6014 O 563.787 -1.05675 3.40164 0
M  V30 6015 O 562.646 -1.85959 5.13889 0
M  V30 6016 H 559.74 -0.314574 0.764835 0
M  V30 6017 H 562.286 0.108184 1.69355 0
M  V30 6018 H 561.058 -0.0829745 3.91212 0
M  V30 6019 H 560.681 -1.76231 3.5641 0
M  V30 6020 N 561.678 -1.56367 -0.196722 0
M  V30 6021 C 562.925 -1.80529 -0.917366 0
M  V30 6022 C 563.253 -0.649817 -1.83324 0
M  V30 6023 O 562.508 0.36451 -1.92275 0
M  V30 6024 C 562.807 -3.10663 -1.767 0
M  V30 6025 C 562.473 -4.3962 -1.00225 0
M  V30 6026 C 561.135 -4.74653 -0.791095 0
M  V30 6027 C 563.487 -5.1913 -0.464035 0
M  V30 6028 C 560.815 -5.86692 -0.0302155 0
M  V30 6029 C 563.167 -6.31964 0.283625 0
M  V30 6030 C 561.831 -6.65581 0.505813 0
M  V30 6031 H 561.101 -0.660602 -0.335688 0
M  V30 6032 H 563.748 -1.90615 -0.183844 0
M  V30 6033 H 562.053 -2.95807 -2.56915 0
M  V30 6034 H 563.75 -3.26563 -2.32718 0
M  V30 6035 H 560.34 -4.12127 -1.17684 0
M  V30 6036 H 564.524 -4.9248 -0.614575 0
M  V30 6037 H 559.78 -6.11211 0.151917 0
M  V30 6038 H 563.954 -6.92791 0.708057 0
M  V30 6039 H 561.581 -7.52239 1.0973 0
M  V30 6040 N 563.156 0.464375 -1.50603 0
M  V30 6041 C 564.381 1.24372 -1.65971 0
M  V30 6042 C 564.806 1.84901 -0.345453 0
M  V30 6043 O 564.164 1.67596 0.691457 0
M  V30 6044 C 564.212 2.32331 -2.7578 0
M  V30 6045 O 563.316 3.37146 -2.375 0
M  V30 6046 H 562.657 0.365604 -0.554283 0
M  V30 6047 H 565.187 0.55183 -1.97018 0
M  V30 6048 H 565.197 2.77539 -2.99059 0
M  V30 6049 H 563.872 1.87648 -3.71162 0
M  V30 6050 H 562.449 2.97602 -2.24694 0
M  V30 6051 N 564.634 1.40294 0.718013 0
M  V30 6052 C 565.566 1.36281 1.84283 0
M  V30 6053 C 566.579 0.268621 1.60569 0
M  V30 6054 O 567.768 0.528798 1.70487 0
M  V30 6055 C 564.868 1.09741 3.2064 0
M  V30 6056 C 564.041 2.30767 3.71571 0
M  V30 6057 C 563.1 2.00424 4.86535 0
M  V30 6058 O 562.126 2.73268 4.99313 0
M  V30 6059 N 563.328 0.980724 5.72156 0
M  V30 6060 H 566.093 2.3322 1.88225 0
M  V30 6061 H 563.654 1.34616 0.899453 0
M  V30 6062 H 565.646 0.874322 3.95143 0
M  V30 6063 H 564.216 0.214771 3.11861 0
M  V30 6064 H 563.436 2.68921 2.88228 0
M  V30 6065 H 564.724 3.11455 4.02335 0
M  V30 6066 H 564.122 0.377375 5.6444 0
M  V30 6067 H 562.679 0.817538 6.46653 0
M  V30 6068 N 566.112 -0.949982 1.2575 0
M  V30 6069 C 567.359 -1.69515 1.10774 0
M  V30 6070 C 567.687 -1.91316 -0.350479 0
M  V30 6071 O 566.942 -1.48515 -1.27443 0
M  V30 6072 C 567.241 -3.08039 1.81237 0
M  V30 6073 C 566.907 -3.06023 3.31151 0
M  V30 6074 C 565.569 -3.0518 3.72047 0
M  V30 6075 C 567.921 -2.98998 4.26907 0
M  V30 6076 C 565.249 -2.95067 5.07102 0
M  V30 6077 C 567.601 -2.90426 5.61992 0
M  V30 6078 C 566.265 -2.87922 6.0221 0
M  V30 6079 H 565.535 -0.6203 0.405351 0
M  V30 6080 H 568.182 -1.10953 1.56082 0
M  V30 6081 H 566.487 -3.70172 1.28373 0
M  V30 6082 H 568.184 -3.64526 1.67098 0
M  V30 6083 H 564.774 -3.07453 2.98614 0
M  V30 6084 H 568.958 -2.98764 3.963 0
M  V30 6085 H 564.214 -2.915 5.37436 0
M  V30 6086 H 568.388 -2.83952 6.35881 0
M  V30 6087 H 566.015 -2.79841 7.06819 0
M  V30 6088 N 567.59 -1.07411 -1.15328 0
M  V30 6089 C 568.815 -0.818856 -1.90551 0
M  V30 6090 C 569.24 0.622194 -1.77512 0
M  V30 6091 O 568.598 1.43484 -1.10824 0
M  V30 6092 C 568.646 -1.23267 -3.38877 0
M  V30 6093 O 567.75 -0.378345 -4.10661 0
M  V30 6094 H 567.091 -0.29827 -0.593238 0
M  V30 6095 H 569.621 -1.43289 -1.46046 0
M  V30 6096 H 569.631 -1.20912 -3.89672 0
M  V30 6097 H 568.306 -2.28226 -3.47686 0
M  V30 6098 H 566.883 -0.464437 -3.69996 0
M  V30 6099 N 569.068 1.32177 -0.85831 0
M  V30 6100 C 570.484 1.49873 -0.548656 0
M  V30 6101 C 570.684 1.79278 0.919874 0
M  V30 6102 O 569.74 1.86451 1.70271 0
M  V30 6103 C 571.053 2.64043 -1.4388 0
M  V30 6104 C 572.601 2.77928 -1.43961 0
M  V30 6105 C 573.076 3.95182 -2.31506 0
M  V30 6106 N 574.567 4.0245 -2.29321 0
M  V30 6107 C 575.302 4.9242 -2.93786 0
M  V30 6108 N 574.798 5.87373 -3.67376 0
M  V30 6109 N 576.591 4.85572 -2.83155 0
M  V30 6110 H 568.742 1.11357 -1.80868 0
M  V30 6111 H 571.005 0.549175 -0.772729 0
M  V30 6112 H 570.711 2.49055 -2.48324 0
M  V30 6113 H 570.585 3.59912 -1.12885 0
M  V30 6114 H 572.972 2.92338 -0.402813 0
M  V30 6115 H 573.053 1.82762 -1.78974 0
M  V30 6116 H 572.697 3.81531 -3.35256 0
M  V30 6117 H 572.627 4.89633 -1.93823 0
M  V30 6118 H 575.118 3.34507 -1.75822 0
M  V30 6119 H 575.431 6.52728 -4.13722 0
M  V30 6120 H 573.776 5.87388 -3.71484 0
M  V30 6121 H 576.967 4.10363 -2.25211 0
M  V30 6122 H 577.14 5.55486 -3.33676 0
M  V30 6123 N 570.547 0.616602 1.45037 0
M  V30 6124 C 571.795 0.115103 2.01772 0
M  V30 6125 C 572.116 -1.2622 1.48639 0
M  V30 6126 O 571.386 -1.83563 0.684199 0
M  V30 6127 H 569.966 0.0395607 0.745952 0
M  V30 6128 H 572.628 0.800032 1.77723 0
M  V30 6129 H 571.724 0.0717274 3.12018 0
M  V30 6130 N 572.025 -1.5352 0.356285 0
M  V30 6131 C 572.973 -2.26945 -0.50978 0
M  V30 6132 C 573.967 -1.29569 -1.09125 0
M  V30 6133 O 575.173 -1.47231 -1.03552 0
M  V30 6134 H 571.548 -0.729368 -0.183102 0
M  V30 6135 H 573.519 -2.98111 0.131374 0
M  V30 6136 C 572.268 -3.06466 -1.64237 0
M  V30 6137 H 571.591 -3.81233 -1.20423 0
M  V30 6138 H 573.031 -3.61035 -2.22327 0
M  V30 6139 C 571.49 -2.16737 -2.57928 0
M  V30 6140 O 572.02 -1.77195 -3.60507 0
M  V30 6141 N 570.226 -1.81558 -2.26903 0
M  V30 6142 H 569.773 -2.13913 -1.43524 0
M  V30 6143 H 569.731 -1.21806 -2.89846 0
M  V30 6144 N 573.503 -0.0852151 -1.57369 0
M  V30 6145 C 574.733 0.588605 -1.98038 0
M  V30 6146 C 575.141 1.62869 -0.962817 0
M  V30 6147 O 574.484 1.83611 0.057134 0
M  V30 6148 C 574.546 1.30303 -3.35054 0
M  V30 6149 C 574.21 0.414855 -4.55113 0
M  V30 6150 C 575.207 -0.333011 -5.18832 0
M  V30 6151 C 572.892 0.335804 -5.01176 0
M  V30 6152 C 574.886 -1.14801 -6.26976 0
M  V30 6153 C 572.573 -0.482857 -6.09189 0
M  V30 6154 C 573.571 -1.22342 -6.71953 0
M  V30 6155 O 573.259 -2.02855 -7.77885 0
M  V30 6156 H 572.991 0.163249 -0.655992 0
M  V30 6157 H 575.545 -0.1582 -2.0479 0
M  V30 6158 H 573.775 2.0962 -3.24956 0
M  V30 6159 H 575.464 1.87041 -3.60237 0
M  V30 6160 H 576.23 -0.281611 -4.84182 0
M  V30 6161 H 572.109 0.901869 -4.52092 0
M  V30 6162 H 575.653 -1.72654 -6.75897 0
M  V30 6163 H 571.55 -0.535773 -6.43273 0
M  V30 6164 H 572.318 -1.95432 -7.94826 0
M  V30 6165 N 574.981 1.5647 0.188427 0
M  V30 6166 C 576.397 1.50204 0.539532 0
M  V30 6167 C 576.597 0.78644 1.85519 0
M  V30 6168 O 575.653 0.339714 2.50204 0
M  V30 6169 C 576.966 2.94893 0.588103 0
M  V30 6170 C 578.514 3.05602 0.67648 0
M  V30 6171 C 578.989 4.51716 0.756101 0
M  V30 6172 N 580.48 4.55894 0.819451 0
M  V30 6173 C 581.215 5.66272 0.90134 0
M  V30 6174 N 580.711 6.86323 0.945118 0
M  V30 6175 N 582.504 5.54201 0.939043 0
M  V30 6176 H 574.655 2.01406 -0.674493 0
M  V30 6177 H 576.918 0.916828 -0.241103 0
M  V30 6178 H 576.624 3.50334 -0.309633 0
M  V30 6179 H 576.498 3.4861 1.44051 0
M  V30 6180 H 578.885 2.50206 1.56465 0
M  V30 6181 H 578.966 2.54999 -0.202262 0
M  V30 6182 H 578.61 5.07739 -0.12774 0
M  V30 6183 H 578.54 5.00058 1.65074 0
M  V30 6184 H 581.031 3.69452 0.794594 0
M  V30 6185 H 581.344 7.66194 1.0083 0
M  V30 6186 H 579.689 6.88968 0.913683 0
M  V30 6187 H 582.88 4.59333 0.901725 0
M  V30 6188 H 583.053 6.40247 0.999402 0
M  V30 6189 N 576.459 -0.456382 1.50847 0
M  V30 6190 C 577.705 -1.20914 1.62811 0
M  V30 6191 C 578.038 -1.91301 0.334304 0
M  V30 6192 O 577.313 -1.82775 -0.665098 0
M  V30 6193 C 577.596 -2.24122 2.81853 0
M  V30 6194 C 577.449 -1.57944 4.21158 0
M  V30 6195 C 578.768 -3.25295 2.96431 0
M  V30 6196 H 575.887 -0.438233 0.592554 0
M  V30 6197 H 578.529 -0.50091 1.83278 0
M  V30 6198 H 576.679 -2.84524 2.64534 0
M  V30 6199 H 578.351 -1.01025 4.50102 0
M  V30 6200 H 576.594 -0.882185 4.24735 0
M  V30 6201 H 577.265 -2.33014 5.00408 0
M  V30 6202 H 579.741 -2.7493 3.12335 0
M  V30 6203 H 578.617 -3.94822 3.81322 0
M  V30 6204 H 578.878 -3.90286 2.07676 0
M  V30 6205 N 577.937 -1.40673 -0.710563 0
M  V30 6206 C 579.162 -1.42741 -1.50465 0
M  V30 6207 C 579.587 -0.0302116 -1.88076 0
M  V30 6208 O 578.945 0.962945 -1.53613 0
M  V30 6209 C 578.993 -2.32873 -2.75322 0
M  V30 6210 O 578.097 -1.77544 -3.72226 0
M  V30 6211 H 577.438 -0.485056 -0.45345 0
M  V30 6212 H 579.968 -1.84961 -0.874681 0
M  V30 6213 H 579.978 -2.48233 -3.23797 0
M  V30 6214 H 578.653 -3.34401 -2.47283 0
M  V30 6215 H 577.23 -1.71556 -3.31093 0
M  V30 6216 N 579.415 0.9433 -1.26252 0
M  V30 6217 C 580.661 1.69226 -1.12846 0
M  V30 6218 C 581.016 1.8963 0.325282 0
M  V30 6219 O 580.309 1.46435 1.23561 0
M  V30 6220 C 580.503 3.07073 -1.82868 0
M  V30 6221 C 580.332 3.00118 -3.34902 0
M  V30 6222 C 579.102 3.03251 -4.04186 0
M  V30 6223 C 581.3 2.80418 -4.31127 0
M  V30 6224 N 579.282 2.86573 -5.42908 0
M  V30 6225 C 580.653 2.72287 -5.5701 0
M  V30 6226 C 582.708 2.65185 -4.21404 0
M  V30 6227 C 581.411 2.50479 -6.74279 0
M  V30 6228 C 583.437 2.4475 -5.38378 0
M  V30 6229 C 582.799 2.37349 -6.63208 0
M  V30 6230 H 578.898 0.626716 -0.467708 0
M  V30 6231 H 581.482 1.11645 -1.5951 0
M  V30 6232 H 579.653 3.62797 -1.38682 0
M  V30 6233 H 581.385 3.70816 -1.62103 0
M  V30 6234 H 578.14 3.12882 -3.55531 0
M  V30 6235 H 578.564 2.81408 -6.15742 0
M  V30 6236 H 583.206 2.69675 -3.25631 0
M  V30 6237 H 580.924 2.4473 -7.70151 0
M  V30 6238 H 584.51 2.33872 -5.32724 0
M  V30 6239 H 583.39 2.21746 -7.52196 0
M  V30 6240 N 580.893 1.08022 1.14757 0
M  V30 6241 C 582.304 0.829144 1.67279 0
M  V30 6242 C 582.655 -0.644721 1.85305 0
M  V30 6243 O 581.78 -1.49838 1.56133 0
M  V30 6244 C 582.375 1.49855 3.03857 0
M  V30 6245 C 580.934 1.29482 3.53428 0
M  V30 6246 C 580.081 1.56386 2.28995 0
M  V30 6247 H 583.032 1.24134 0.988762 0
M  V30 6248 H 583.053 0.923572 3.69121 0
M  V30 6249 H 582.565 2.57123 2.90705 0
M  V30 6250 H 580.666 0.242669 3.71809 0
M  V30 6251 H 580.779 2.01974 4.34446 0
M  V30 6252 H 579.143 0.985217 2.34874 0
M  V30 6253 H 579.926 2.64851 2.18423 0
M  V30 6254 N 582.371 -1.3172 0.865308 0
M  V30 6255 C 583.318 -2.2863 0.315736 0
M  V30 6256 C 584.288 -1.55524 -0.583213 0
M  V30 6257 O 585.473 -1.83694 -0.51585 0
M  V30 6258 C 582.613 -3.41735 -0.480773 0
M  V30 6259 C 581.726 -4.297 0.445167 0
M  V30 6260 C 580.861 -5.29944 -0.365012 0
M  V30 6261 C 579.9 -6.09554 0.557651 0
M  V30 6262 N 579.037 -7.01768 -0.215994 0
M  V30 6263 H 583.877 -2.75026 1.14736 0
M  V30 6264 H 581.414 -1.35302 0.577209 0
M  V30 6265 H 583.372 -4.06045 -0.958306 0
M  V30 6266 H 582.002 -2.96461 -1.27714 0
M  V30 6267 H 581.054 -3.65875 1.04113 0
M  V30 6268 H 582.366 -4.85295 1.15284 0
M  V30 6269 H 581.52 -5.99908 -0.905255 0
M  V30 6270 H 580.259 -4.74994 -1.106 0
M  V30 6271 H 579.264 -5.38485 1.10969 0
M  V30 6272 H 580.489 -6.66591 1.29742 0
M  V30 6273 H 578.435 -6.49232 -0.939878 0
M  V30 6274 H 578.352 -7.54762 0.432431 0
M  V30 6275 H 579.62 -7.76002 -0.737618 0
M  V30 6276 N 583.85 -0.624285 -1.44708 0
M  V30 6277 C 585.096 -0.126051 -2.02107 0
M  V30 6278 C 585.425 1.2496 -1.49048 0
M  V30 6279 O 584.68 1.84163 -0.662005 0
M  V30 6280 C 584.979 -0.0546353 -3.57358 0
M  V30 6281 C 584.644 -1.36815 -4.29642 0
M  V30 6282 C 583.307 -1.72792 -4.49106 0
M  V30 6283 C 585.659 -2.23549 -4.70824 0
M  V30 6284 C 582.986 -2.95222 -5.07012 0
M  V30 6285 C 585.339 -3.45243 -5.30085 0
M  V30 6286 C 584.003 -3.81452 -5.47769 0
M  V30 6287 H 583.273 -0.0461252 -0.739563 0
M  V30 6288 H 585.92 -0.809236 -1.73562 0
M  V30 6289 H 584.225 0.711891 -3.85278 0
M  V30 6290 H 585.922 0.347282 -3.99493 0
M  V30 6291 H 582.512 -1.07817 -4.14817 0
M  V30 6292 H 586.696 -1.9705 -4.55505 0
M  V30 6293 H 581.952 -3.23361 -5.18891 0
M  V30 6294 H 586.125 -4.12689 -5.60946 0
M  V30 6295 H 583.753 -4.76403 -5.92405 0
M  V30 6296 N 585.328 1.53329 -0.364422 0
M  V30 6297 C 586.291 2.24323 0.470292 0
M  V30 6298 C 587.291 1.25068 1.01067 0
M  V30 6299 O 588.481 1.49354 0.896605 0
M  V30 6300 C 585.613 2.97908 1.65722 0
M  V30 6301 H 586.806 2.9952 -0.150917 0
M  V30 6302 H 584.359 1.55868 -0.116092 0
M  V30 6303 H 585.094 2.2695 2.31655 0
M  V30 6304 H 584.879 3.70732 1.27671 0
M  V30 6305 H 586.369 3.5188 2.24878 0
M  V30 6306 N 586.806 0.0935595 1.57322 0
M  V30 6307 C 588.052 -0.571355 1.94585 0
M  V30 6308 C 588.385 -1.67929 0.975366 0
M  V30 6309 O 587.66 -1.94498 0.00816206 0
M  V30 6310 C 587.943 -1.12797 3.41978 0
M  V30 6311 C 587.796 -0.0251881 4.49793 0
M  V30 6312 C 589.115 -2.02682 3.90651 0
M  V30 6313 H 586.234 -0.206223 0.70756 0
M  V30 6314 H 588.876 0.163956 1.89291 0
M  V30 6315 H 587.026 -1.75461 3.4662 0
M  V30 6316 H 588.698 0.608979 4.57263 0
M  V30 6317 H 586.941 0.641399 4.29032 0
M  V30 6318 H 587.612 -0.455433 5.50118 0
M  V30 6319 H 590.088 -1.49925 3.88152 0
M  V30 6320 H 588.964 -2.38555 4.94351 0
M  V30 6321 H 589.225 -2.94362 3.29854 0
M  V30 6322 N 588.284 -1.56567 -0.180126 0
M  V30 6323 C 589.695 -1.7126 -0.743422 0
M  V30 6324 C 590.046 -0.70263 -1.83187 0
M  V30 6325 O 589.171 0.137856 -2.1596 0
M  V30 6326 C 589.766 -3.10512 -1.35528 0
M  V30 6327 C 588.325 -3.26919 -1.8655 0
M  V30 6328 C 587.472 -2.67213 -0.741099 0
M  V30 6329 H 590.423 -1.58636 0.0451543 0
M  V30 6330 H 590.444 -3.08673 -2.22489 0
M  V30 6331 H 589.956 -3.83997 -0.562862 0
M  V30 6332 H 588.057 -2.58376 -2.68464 0
M  V30 6333 H 588.17 -4.34574 -2.01699 0
M  V30 6334 H 586.534 -2.26788 -1.15927 0
M  V30 6335 H 587.317 -3.43277 0.0393291 0
M  V30 6336 N 589.762 0.448376 -1.51087 0
M  V30 6337 C 590.71 1.56407 -1.72161 0
M  V30 6338 C 591.704 1.58878 -0.587721 0
M  V30 6339 O 592.91 1.62755 -0.768822 0
M  V30 6340 H 589.285 0.519423 -0.543786 0
M  V30 6341 H 591.256 1.35803 -2.65707 0
M  V30 6342 C 590.005 2.94163 -1.85373 0
M  V30 6343 H 589.328 2.9299 -2.72024 0
M  V30 6344 H 590.768 3.71625 -2.04135 0
M  V30 6345 C 589.227 3.31317 -0.610803 0
M  V30 6346 O 589.757 4.00985 0.239636 0
M  V30 6347 N 587.963 2.86966 -0.458127 0
M  V30 6348 H 587.51 2.30443 -1.15124 0
M  V30 6349 H 587.468 3.12188 0.372289 0
M  V30 6350 N 591.24 1.41047 0.703093 0
M  V30 6351 C 592.17 1.45067 1.82969 0
M  V30 6352 C 593.151 0.31016 1.67248 0
M  V30 6353 O 594.336 0.520548 1.87093 0
M  V30 6354 C 591.466 1.32478 3.2104 0
M  V30 6355 C 590.42 2.44262 3.51454 0
M  V30 6356 C 589.746 2.16742 4.88801 0
M  V30 6357 C 591.046 3.86606 3.51189 0
M  V30 6358 H 592.74 2.39353 1.79863 0
M  V30 6359 H 590.286 1.15206 0.863919 0
M  V30 6360 H 592.239 1.33904 3.99559 0
M  V30 6361 H 590.963 0.346735 3.24754 0
M  V30 6362 H 589.622 2.42107 2.75282 0
M  V30 6363 H 589.27 1.17299 4.89132 0
M  V30 6364 H 588.97 2.91643 5.10116 0
M  V30 6365 H 590.494 2.19872 5.69639 0
M  V30 6366 H 591.908 3.90517 4.19725 0
M  V30 6367 H 590.305 4.61128 3.84033 0
M  V30 6368 H 591.375 4.15296 2.50315 0
M  V30 6369 N 592.718 -0.936591 1.26751 0
M  V30 6370 C 593.65 -2.03991 1.045 0
M  V30 6371 C 594.663 -1.628 0.00394261 0
M  V30 6372 O 595.852 -1.76817 0.244526 0
M  V30 6373 C 592.952 -3.34218 0.561403 0
M  V30 6374 C 592.125 -4.04151 1.67274 0
M  V30 6375 C 591.184 -5.12651 1.1864 0
M  V30 6376 O 590.21 -5.37104 1.88437 0
M  V30 6377 N 591.412 -5.80488 0.037278 0
M  V30 6378 H 594.177 -2.23644 1.99508 0
M  V30 6379 H 591.738 -1.10638 1.18198 0
M  V30 6380 H 593.73 -4.04101 0.220136 0
M  V30 6381 H 592.3 -3.11203 -0.295211 0
M  V30 6382 H 591.52 -3.28121 2.18472 0
M  V30 6383 H 592.808 -4.47626 2.41885 0
M  V30 6384 H 592.206 -5.63064 -0.545494 0
M  V30 6385 H 590.763 -6.5134 -0.244877 0
M  V30 6386 N 594.196 -1.08629 -1.14182 0
M  V30 6387 C 595.421 -0.83902 -1.89671 0
M  V30 6388 C 595.846 0.603332 -1.78161 0
M  V30 6389 O 595.204 1.42301 -1.12339 0
M  V30 6390 C 595.252 -1.26854 -3.37551 0
M  V30 6391 O 594.356 -0.42188 -4.10236 0
M  V30 6392 H 593.697 -0.304545 -0.590041 0
M  V30 6393 H 596.227 -1.4483 -1.44518 0
M  V30 6394 H 596.237 -1.25038 -3.88368 0
M  V30 6395 H 594.912 -2.31901 -3.45246 0
M  V30 6396 H 593.489 -0.503654 -3.69483 0
M  V30 6397 N 595.674 1.31259 -0.872281 0
M  V30 6398 C 596.604 2.30929 -0.345554 0
M  V30 6399 C 597.585 1.60449 0.5648 0
M  V30 6400 O 598.77 1.8814 0.481335 0
M  V30 6401 C 595.9 3.44348 0.451823 0
M  V30 6402 C 594.854 4.26435 -0.365641 0
M  V30 6403 C 594.18 5.31785 0.557562 0
M  V30 6404 C 595.48 4.97159 -1.60095 0
M  V30 6405 H 597.174 2.75234 -1.17841 0
M  V30 6406 H 594.72 1.3232 -0.568094 0
M  V30 6407 H 596.673 4.13128 0.830854 0
M  V30 6408 H 595.397 2.98816 1.31821 0
M  V30 6409 H 594.056 3.59326 -0.726649 0
M  V30 6410 H 593.704 4.82502 1.4213 0
M  V30 6411 H 593.404 5.87598 0.0144878 0
M  V30 6412 H 594.928 6.03424 0.933387 0
M  V30 6413 H 596.342 5.58523 -1.29323 0
M  V30 6414 H 594.739 5.62779 -2.08327 0
M  V30 6415 H 595.809 4.24012 -2.35249 0
M  V30 6416 N 597.152 0.631951 1.44375 0
M  V30 6417 C 598.38 0.143867 2.06399 0
M  V30 6418 C 598.795 -1.18188 1.47231 0
M  V30 6419 O 598.152 -1.72511 0.595498 0
M  V30 6420 C 598.203 0.0238253 3.61492 0
M  V30 6421 O 597.924 1.29715 4.18456 0
M  V30 6422 C 599.425 -0.492856 4.40552 0
M  V30 6423 H 596.645 0.0800542 0.666207 0
M  V30 6424 H 599.189 0.866586 1.85231 0
M  V30 6425 H 597.344 -0.649338 3.81919 0
M  V30 6426 H 597.758 1.14252 5.11905 0
M  V30 6427 H 599.232 -0.525861 5.49489 0
M  V30 6428 H 599.709 -1.52006 4.12057 0
M  V30 6429 H 600.315 0.147085 4.25046 0
M  V30 6430 N 598.631 -1.53133 0.372548 0
M  V30 6431 C 599.579 -2.27473 -0.485681 0
M  V30 6432 C 600.573 -1.30719 -1.07745 0
M  V30 6433 O 601.779 -1.48321 -1.01985 0
M  V30 6434 H 598.154 -0.731269 -0.175356 0
M  V30 6435 H 600.125 -2.97955 0.162986 0
M  V30 6436 C 598.874 -3.08191 -1.60978 0
M  V30 6437 H 598.197 -3.82488 -1.16373 0
M  V30 6438 H 599.637 -3.63373 -2.18485 0
M  V30 6439 C 598.096 -2.19461 -2.55614 0
M  V30 6440 O 598.626 -1.81008 -3.58607 0
M  V30 6441 N 596.832 -1.83955 -2.24965 0
M  V30 6442 H 596.379 -2.15423 -1.41247 0
M  V30 6443 H 596.337 -1.24874 -2.88538 0
M  V30 6444 N 600.109 -0.101901 -1.5727 0
M  V30 6445 C 601.039 0.851544 -2.17419 0
M  V30 6446 C 602.02 1.28942 -1.10941 0
M  V30 6447 O 603.205 1.35509 -1.39107 0
M  V30 6448 C 600.335 2.10816 -2.75996 0
M  V30 6449 C 599.289 1.80867 -3.87906 0
M  V30 6450 C 598.615 3.13413 -4.33216 0
M  V30 6451 C 599.915 1.0903 -5.10793 0
M  V30 6452 H 601.609 0.350381 -2.97343 0
M  V30 6453 H 599.155 0.16709 -1.43027 0
M  V30 6454 H 601.108 2.77959 -3.16729 0
M  V30 6455 H 599.832 2.63227 -1.93337 0
M  V30 6456 H 598.491 1.16119 -3.47724 0
M  V30 6457 H 598.139 3.63725 -3.47438 0
M  V30 6458 H 597.839 2.94155 -5.08671 0
M  V30 6459 H 599.363 3.81704 -4.76586 0
M  V30 6460 H 600.777 1.66295 -5.48652 0
M  V30 6461 H 599.174 0.99927 -5.91722 0
M  V30 6462 H 600.244 0.0741704 -4.84843 0
M  V30 6463 N 601.587 1.56661 0.17182 0
M  V30 6464 C 602.517 1.99401 1.21498 0
M  V30 6465 C 603.498 0.869516 1.46197 0
M  V30 6466 O 604.683 1.13556 1.57539 0
M  V30 6467 C 601.813 2.35346 2.55401 0
M  V30 6468 C 600.767 3.5075 2.45272 0
M  V30 6469 C 600.093 3.72437 3.8366 0
M  V30 6470 C 601.393 4.84216 1.95787 0
M  V30 6471 H 603.087 2.86792 0.859699 0
M  V30 6472 H 600.633 1.37977 0.412103 0
M  V30 6473 H 602.586 2.63843 3.2858 0
M  V30 6474 H 601.31 1.44864 2.92715 0
M  V30 6475 H 599.969 3.2238 1.74547 0
M  V30 6476 H 599.617 2.79246 4.18367 0
M  V30 6477 H 599.317 4.50087 3.77751 0
M  V30 6478 H 600.841 4.03334 4.58426 0
M  V30 6479 H 602.255 5.11592 2.5874 0
M  V30 6480 H 600.652 5.65498 2.00827 0
M  V30 6481 H 601.722 4.76243 0.912159 0
M  V30 6482 N 603.065 -0.440357 1.51323 0
M  V30 6483 C 604.29 -1.21716 1.67928 0
M  V30 6484 C 604.715 -1.84328 0.374826 0
M  V30 6485 O 604.073 -1.68675 -0.664706 0
M  V30 6486 C 604.121 -2.27914 2.79442 0
M  V30 6487 O 603.225 -3.33325 2.42834 0
M  V30 6488 H 602.566 -0.35674 0.560029 0
M  V30 6489 H 605.096 -0.520417 1.97871 0
M  V30 6490 H 605.106 -2.72746 3.03436 0
M  V30 6491 H 603.781 -1.8172 3.741 0
M  V30 6492 H 602.358 -2.9399 2.294 0
M  V30 6493 N 604.543 -1.41418 -0.695603 0
M  V30 6494 C 605.768 -1.44329 -1.48942 0
M  V30 6495 C 606.193 -0.0501579 -1.88033 0
M  V30 6496 O 605.551 0.946598 -1.54626 0
M  V30 6497 C 605.599 -2.3578 -2.72837 0
M  V30 6498 O 604.703 -1.81482 -3.70322 0
M  V30 6499 H 604.044 -0.489838 -0.44828 0
M  V30 6500 H 606.574 -1.85878 -0.855014 0
M  V30 6501 H 606.584 -2.51654 -3.21145 0
M  V30 6502 H 605.259 -3.37005 -2.43722 0
M  V30 6503 H 603.836 -1.75058 -3.29255 0
M  V30 6504 N 606.021 0.929856 -1.27246 0
M  V30 6505 C 606.969 2.05151 -1.09616 0
M  V30 6506 C 607.963 1.69388 -0.0198617 0
M  V30 6507 O 609.169 1.79124 -0.177417 0
M  V30 6508 H 605.544 0.671909 -0.337701 0
M  V30 6509 H 607.515 2.17168 -2.04648 0
M  V30 6510 C 606.264 3.3934 -0.757851 0
M  V30 6511 H 605.587 3.67343 -1.57795 0
M  V30 6512 H 607.027 4.18603 -0.674358 0
M  V30 6513 C 605.486 3.32582 0.537658 0
M  V30 6514 O 606.016 3.69633 1.57271 0
M  V30 6515 N 604.222 2.8568 0.532478 0
M  V30 6516 H 603.769 2.55725 -0.310233 0
M  V30 6517 H 603.727 2.81541 1.39936 0
M  V30 6518 N 607.499 1.09233 1.13605 0
M  V30 6519 C 608.429 0.751738 2.21068 0
M  V30 6520 C 609.41 -0.269688 1.67948 0
M  V30 6521 O 610.595 -0.13819 1.93708 0
M  V30 6522 C 607.725 0.16935 3.46887 0
M  V30 6523 C 606.679 1.12007 4.13084 0
M  V30 6524 C 606.005 0.399483 5.33206 0
M  V30 6525 C 607.305 2.46168 4.6065 0
M  V30 6526 H 608.999 1.65024 2.49815 0
M  V30 6527 H 606.545 0.794905 1.20072 0
M  V30 6528 H 608.498 -0.0809824 4.21322 0
M  V30 6529 H 607.222 -0.764335 3.1753 0
M  V30 6530 H 605.881 1.35564 3.40614 0
M  V30 6531 H 605.529 -0.538277 5.00112 0
M  V30 6532 H 605.229 1.03337 5.78442 0
M  V30 6533 H 606.753 0.157403 6.10397 0
M  V30 6534 H 608.167 2.26829 5.26518 0
M  V30 6535 H 606.564 3.05326 5.1662 0
M  V30 6536 H 607.634 3.07076 3.75276 0
M  V30 6537 N 608.977 -1.30795 0.87923 0
M  V30 6538 C 610.202 -2.01063 0.508769 0
M  V30 6539 C 610.627 -1.65508 -0.893803 0
M  V30 6540 O 609.985 -0.868616 -1.59138 0
M  V30 6541 C 610.033 -3.54054 0.683991 0
M  V30 6542 O 609.137 -4.11498 -0.272654 0
M  V30 6543 H 608.478 -0.632786 0.201191 0
M  V30 6544 H 611.008 -1.66776 1.18519 0
M  V30 6545 H 611.018 -4.03845 0.580798 0
M  V30 6546 H 609.693 -3.79271 1.70665 0
M  V30 6547 H 608.27 -3.72695 -0.12364 0
M  V30 6548 N 610.455 -0.639598 -1.44038 0
M  V30 6549 C 611.701 -0.156248 -2.02799 0
M  V30 6550 C 612.056 1.21145 -1.49471 0
M  V30 6551 O 611.349 1.79406 -0.672608 0
M  V30 6552 C 611.543 -0.0925348 -3.5728 0
M  V30 6553 C 611.372 -1.45252 -4.25596 0
M  V30 6554 C 610.142 -2.04145 -4.62226 0
M  V30 6555 C 612.34 -2.38812 -4.55492 0
M  V30 6556 N 610.322 -3.3329 -5.15549 0
M  V30 6557 C 611.693 -3.52578 -5.09989 0
M  V30 6558 C 613.748 -2.37785 -4.3745 0
M  V30 6559 C 612.451 -4.65525 -5.48342 0
M  V30 6560 C 614.477 -3.49802 -4.76857 0
M  V30 6561 C 613.839 -4.62292 -5.31475 0
M  V30 6562 H 609.938 -0.101292 -0.775412 0
M  V30 6563 H 612.522 -0.844938 -1.75411 0
M  V30 6564 H 610.693 0.565459 -3.84262 0
M  V30 6565 H 612.425 0.400426 -4.02714 0
M  V30 6566 H 609.18 -1.56999 -4.4682 0
M  V30 6567 H 609.604 -3.9934 -5.46678 0
M  V30 6568 H 614.246 -1.52061 -3.94509 0
M  V30 6569 H 611.964 -5.51951 -5.90233 0
M  V30 6570 H 615.55 -3.50193 -4.64603 0
M  V30 6571 H 614.43 -5.47536 -5.61403 0
M  V30 6572 N 611.933 1.52934 -0.380664 0
M  V30 6573 C 612.863 2.29118 0.450268 0
M  V30 6574 C 613.844 1.32153 1.07096 0
M  V30 6575 O 615.029 1.61038 1.08537 0
M  V30 6576 C 612.159 3.09161 1.58231 0
M  V30 6577 C 611.113 4.13938 1.0881 0
M  V30 6578 C 610.439 4.82153 2.31155 0
M  V30 6579 C 611.739 5.22048 0.162146 0
M  V30 6580 H 613.433 2.98826 -0.185361 0
M  V30 6581 H 610.979 1.43715 -0.0905886 0
M  V30 6582 H 612.932 3.61211 2.17036 0
M  V30 6583 H 611.656 2.3717 2.2454 0
M  V30 6584 H 610.315 3.62855 0.522633 0
M  V30 6585 H 609.963 4.06719 2.95953 0
M  V30 6586 H 609.663 5.52966 1.98752 0
M  V30 6587 H 611.187 5.37004 2.90618 0
M  V30 6588 H 612.601 5.6951 0.658126 0
M  V30 6589 H 610.998 6.00057 -0.0717122 0
M  V30 6590 H 612.068 4.78398 -0.791438 0
M  V30 6591 N 613.412 0.11024 1.57214 0
M  V30 6592 C 614.637 -0.561179 1.99664 0
M  V30 6593 C 615.062 -1.59985 0.989266 0
M  V30 6594 O 614.42 -1.81255 -0.0402399 0
M  V30 6595 C 614.468 -1.17189 3.41027 0
M  V30 6596 O 613.572 -2.28755 3.4314 0
M  V30 6597 H 612.913 -0.14101 0.648855 0
M  V30 6598 H 615.443 0.196128 2.03658 0
M  V30 6599 H 615.453 -1.50954 3.79047 0
M  V30 6600 H 614.128 -0.411041 4.13864 0
M  V30 6601 H 612.705 -1.96495 3.16929 0
M  V30 6602 N 614.89 -1.56749 -0.16351 0
M  V30 6603 C 615.82 -2.00042 -1.20438 0
M  V30 6604 C 616.801 -0.877256 -1.45733 0
M  V30 6605 O 617.986 -1.1439 -1.56935 0
M  V30 6606 C 615.116 -2.36697 -2.54149 0
M  V30 6607 C 614.07 -3.52046 -2.43408 0
M  V30 6608 C 613.396 -3.74466 -3.81679 0
M  V30 6609 C 614.696 -4.85247 -1.93216 0
M  V30 6610 H 616.39 -2.87244 -0.844477 0
M  V30 6611 H 613.936 -1.38194 -0.40478 0
M  V30 6612 H 615.889 -2.65582 -3.27176 0
M  V30 6613 H 614.613 -1.46414 -2.91943 0
M  V30 6614 H 613.272 -3.23301 -1.72834 0
M  V30 6615 H 612.92 -2.81461 -4.1688 0
M  V30 6616 H 612.62 -4.52084 -3.75359 0
M  V30 6617 H 614.144 -4.0576 -4.5628 0
M  V30 6618 H 615.558 -5.12957 -2.56023 0
M  V30 6619 H 613.955 -5.66556 -1.97825 0
M  V30 6620 H 615.025 -4.7672 -0.88689 0
M  V30 6621 N 616.368 0.432326 -1.51554 0
M  V30 6622 C 617.645 1.19288 -1.55015 0
M  V30 6623 C 618.025 2.08701 -0.317375 0
M  V30 6624 O 617.373 2.17602 0.697243 0
M  V30 6625 C 617.583 1.99037 -2.86679 0
M  V30 6626 C 618.931 2.55907 -3.38817 0
M  V30 6627 O 619.955 2.09243 -2.88263 0
M  V30 6628 O 618.814 3.41029 -4.27038 0
M  V30 6629 H 615.908 0.543369 -0.623441 0
M  V30 6630 H 618.454 0.440988 -1.6387 0
M  V30 6631 H 617.226 1.33397 -3.6786 0
M  V30 6632 H 616.849 2.81281 -2.8101 0
M  V30 6633 N 617.846 1.41785 0.688094 0
M  V30 6634 C 619.092 1.41753 1.4503 0
M  V30 6635 C 619.425 0.0290745 1.94178 0
M  V30 6636 O 618.7 -0.944456 1.7003 0
M  V30 6637 C 618.983 2.43069 2.65686 0
M  V30 6638 C 618.836 3.91053 2.22256 0
M  V30 6639 C 620.155 2.41543 3.67893 0
M  V30 6640 H 617.274 0.516202 0.526027 0
M  V30 6641 H 619.916 1.73111 0.783105 0
M  V30 6642 H 618.066 2.1646 3.2261 0
M  V30 6643 H 619.738 4.28594 1.70602 0
M  V30 6644 H 617.981 4.05559 1.53963 0
M  V30 6645 H 618.652 4.57501 3.08863 0
M  V30 6646 H 621.128 2.65175 3.20658 0
M  V30 6647 H 620.004 3.14434 4.49914 0
M  V30 6648 H 620.265 1.43666 4.18106 0
M  V30 6649 N 619.324 -0.923095 1.27737 0
M  V30 6650 C 620.549 -1.71054 1.17283 0
M  V30 6651 C 620.974 -1.86208 -0.266153 0
M  V30 6652 O 620.332 -1.36545 -1.1927 0
M  V30 6653 C 620.38 -3.0854 1.86642 0
M  V30 6654 O 619.484 -3.95528 1.16752 0
M  V30 6655 H 618.825 -0.524136 0.407649 0
M  V30 6656 H 621.355 -1.15487 1.6889 0
M  V30 6657 H 621.365 -3.58828 1.94182 0
M  V30 6658 H 620.04 -2.96828 2.91317 0
M  V30 6659 H 618.617 -3.53967 1.17312 0
M  V30 6660 N 620.802 -1.09834 -1.13024 0
M  V30 6661 C 621.765 -0.745058 -2.16752 0
M  V30 6662 C 622.765 0.227435 -1.59183 0
M  V30 6663 O 623.955 0.0050786 -1.74199 0
M  V30 6664 C 621.087 -0.102543 -3.40746 0
M  V30 6665 H 622.28 -1.66375 -2.49518 0
M  V30 6666 H 619.833 -0.898061 -1.27924 0
M  V30 6667 H 620.568 0.827177 -3.13573 0
M  V30 6668 H 620.353 -0.80235 -3.83803 0
M  V30 6669 H 621.843 0.129082 -4.174 0
M  V30 6670 N 622.28 1.30327 -0.886154 0
M  V30 6671 C 623.243 2.26376 -0.358687 0
M  V30 6672 C 624.243 1.52845 0.499498 0
M  V30 6673 O 625.433 1.71483 0.306485 0
M  V30 6674 C 622.565 3.37379 0.488726 0
M  V30 6675 H 623.758 2.74547 -1.20681 0
M  V30 6676 H 621.311 1.41536 -0.663113 0
M  V30 6677 H 622.046 2.94526 1.35739 0
M  V30 6678 H 621.831 3.91897 -0.126003 0
M  V30 6679 H 623.321 4.08868 0.84952 0
M  V30 6680 N 623.758 0.647228 1.43697 0
M  V30 6681 C 625.005 0.158188 2.01881 0
M  V30 6682 C 625.333 -1.22573 1.51017 0
M  V30 6683 O 624.588 -1.83086 0.69122 0
M  V30 6684 C 624.887 0.111481 3.57226 0
M  V30 6685 C 624.553 1.43633 4.27411 0
M  V30 6686 C 623.215 1.79915 4.463 0
M  V30 6687 C 625.567 2.31011 4.67208 0
M  V30 6688 C 622.895 3.03251 5.02251 0
M  V30 6689 C 625.247 3.53633 5.24525 0
M  V30 6690 C 623.911 3.90118 5.41631 0
M  V30 6691 H 623.181 0.0578851 0.738736 0
M  V30 6692 H 625.828 0.836746 1.72252 0
M  V30 6693 H 624.133 -0.650507 3.86362 0
M  V30 6694 H 625.83 -0.283682 3.99995 0
M  V30 6695 H 622.42 1.14403 4.1305 0
M  V30 6696 H 626.604 2.04272 4.52313 0
M  V30 6697 H 621.86 3.31575 5.13681 0
M  V30 6698 H 626.034 4.21561 5.5431 0
M  V30 6699 H 623.661 4.85768 5.84751 0
M  V30 6700 N 625.236 -1.5273 0.388769 0
M  V30 6701 C 626.466 -2.05693 -0.193397 0
M  V30 6702 C 626.874 -1.26038 -1.41107 0
M  V30 6703 O 626.217 -0.30001 -1.81234 0
M  V30 6704 C 626.279 -3.53962 -0.628561 0
M  V30 6705 C 625.943 -4.54519 0.475576 0
M  V30 6706 C 626.94 -5.02526 1.33281 0
M  V30 6707 C 624.625 -4.98174 0.642453 0
M  V30 6708 C 626.619 -5.92812 2.34205 0
M  V30 6709 C 624.306 -5.88262 1.65503 0
M  V30 6710 C 625.304 -6.35473 2.50325 0
M  V30 6711 O 624.992 -7.23781 3.49852 0
M  V30 6712 H 624.724 -0.675197 -0.0329395 0
M  V30 6713 H 627.278 -1.97835 0.552326 0
M  V30 6714 H 625.508 -3.59437 -1.42625 0
M  V30 6715 H 627.197 -3.89669 -1.13633 0
M  V30 6716 H 627.963 -4.6953 1.21519 0
M  V30 6717 H 623.842 -4.60999 -0.00805093 0
M  V30 6718 H 627.386 -6.29585 3.00447 0
M  V30 6719 H 623.283 -6.20672 1.77304 0
M  V30 6720 H 624.051 -7.4184 3.45855 0
M  V30 6721 N 626.714 -0.118576 -1.57153 0
M  V30 6722 C 627.664 0.842924 -2.11846 0
M  V30 6723 C 628.648 1.22845 -1.03914 0
M  V30 6724 O 629.84 1.19961 -1.30148 0
M  V30 6725 C 626.969 2.09312 -2.72109 0
M  V30 6726 C 626.055 1.73198 -3.87122 0
M  V30 6727 N 626.446 1.07758 -4.94188 0
M  V30 6728 C 624.744 2.02659 -3.97298 0
M  V30 6729 C 625.445 0.907741 -5.74574 0
M  V30 6730 N 624.421 1.4326 -5.24383 0
M  V30 6731 H 628.223 0.333416 -2.92003 0
M  V30 6732 H 625.737 0.0839073 -1.62183 0
M  V30 6733 H 627.734 2.79162 -3.09635 0
M  V30 6734 H 626.394 2.60807 -1.93416 0
M  V30 6735 H 627.405 0.741613 -5.12563 0
M  V30 6736 H 624.082 2.56204 -3.29645 0
M  V30 6737 H 625.472 0.394112 -6.70743 0
M  V30 6738 N 628.193 1.56834 0.155195 0
M  V30 6739 C 629.123 2.00678 1.19376 0
M  V30 6740 C 630.104 0.884973 1.45266 0
M  V30 6741 O 631.289 1.1522 1.56326 0
M  V30 6742 C 628.419 2.38042 2.5289 0
M  V30 6743 C 627.373 3.53332 2.41538 0
M  V30 6744 C 626.699 3.76485 3.79688 0
M  V30 6745 C 627.999 4.86265 1.9064 0
M  V30 6746 H 629.693 2.87688 0.829232 0
M  V30 6747 H 627.239 1.38407 0.397445 0
M  V30 6748 H 629.192 2.67314 3.25763 0
M  V30 6749 H 627.916 1.4796 2.91162 0
M  V30 6750 H 626.575 3.24213 1.71117 0
M  V30 6751 H 626.223 2.83667 4.15382 0
M  V30 6752 H 625.923 4.54068 3.72956 0
M  V30 6753 H 627.447 4.08174 4.54122 0
M  V30 6754 H 628.861 5.14308 2.53299 0
M  V30 6755 H 627.258 5.67597 1.94818 0
M  V30 6756 H 628.328 4.77184 0.861596 0
M  V30 6757 N 629.671 -0.424282 1.51781 0
M  V30 6758 C 631.082 -1.00368 1.57427 0
M  V30 6759 C 631.433 -1.91962 0.40558 0
M  V30 6760 O 630.558 -2.111 -0.47601 0
M  V30 6761 C 631.153 -1.82707 2.85313 0
M  V30 6762 C 629.712 -2.35675 2.93487 0
M  V30 6763 C 628.859 -1.1524 2.5222 0
M  V30 6764 H 631.81 -0.205064 1.5737 0
M  V30 6765 H 631.831 -2.68294 2.69812 0
M  V30 6766 H 631.343 -1.16017 3.70353 0
M  V30 6767 H 629.444 -3.05781 2.12906 0
M  V30 6768 H 629.557 -2.67578 3.97415 0
M  V30 6769 H 627.921 -1.50174 2.05718 0
M  V30 6770 H 628.704 -0.5014 3.39619 0
M  V30 6771 N 631.149 -1.42148 -0.680565 0
M  V30 6772 C 632.079 -1.4796 -1.80638 0
M  V30 6773 C 633.06 -0.336728 -1.66734 0
M  V30 6774 O 634.245 -0.550247 -1.86242 0
M  V30 6775 C 631.375 -1.37569 -3.18892 0
M  V30 6776 C 630.329 -2.49823 -3.47524 0
M  V30 6777 C 629.655 -2.24491 -4.85291 0
M  V30 6778 C 630.955 -3.92144 -3.44994 0
M  V30 6779 H 632.649 -2.42184 -1.76032 0
M  V30 6780 H 630.195 -1.16566 -0.845481 0
M  V30 6781 H 632.148 -1.40243 -3.97379 0
M  V30 6782 H 630.872 -0.398357 -3.24162 0
M  V30 6783 H 629.531 -2.46455 -2.71395 0
M  V30 6784 H 629.179 -1.25066 -4.87204 0
M  V30 6785 H 628.879 -2.99722 -5.05411 0
M  V30 6786 H 630.403 -2.28906 -5.66069 0
M  V30 6787 H 631.817 -3.97145 -4.13459 0
M  V30 6788 H 630.214 -4.67179 -3.76648 0
M  V30 6789 H 631.284 -4.19225 -2.43676 0
M  V30 6790 N 632.627 0.916307 -1.28225 0
M  V30 6791 C 633.577 2.00488 -1.08574 0
M  V30 6792 C 634.561 1.60897 -0.0101874 0
M  V30 6793 O 635.753 1.75499 -0.230034 0
M  V30 6794 C 632.882 3.35076 -0.746943 0
M  V30 6795 C 631.968 3.81077 -1.86121 0
M  V30 6796 N 632.359 3.99475 -3.10247 0
M  V30 6797 C 630.657 4.10212 -1.75048 0
M  V30 6798 C 631.358 4.37965 -3.82834 0
M  V30 6799 N 630.334 4.4608 -3.10667 0
M  V30 6800 H 634.136 2.1276 -2.02757 0
M  V30 6801 H 631.65 1.10397 -1.19107 0
M  V30 6802 H 633.647 4.12743 -0.587252 0
M  V30 6803 H 632.307 3.2416 0.187146 0
M  V30 6804 H 633.318 3.85466 -3.45885 0
M  V30 6805 H 629.995 4.07947 -0.887999 0
M  V30 6806 H 631.385 4.60183 -4.89572 0
M  V30 6807 N 634.105 1.10431 1.1244 0
M  V30 6808 C 635.516 0.864439 1.65482 0
M  V30 6809 C 635.867 -0.60527 1.8663 0
M  V30 6810 O 634.992 -1.46492 1.59276 0
M  V30 6811 C 635.587 1.56267 3.0061 0
M  V30 6812 C 634.146 1.3695 3.50602 0
M  V30 6813 C 633.293 1.61209 2.25626 0
M  V30 6814 H 636.244 1.26203 0.962209 0
M  V30 6815 H 636.265 1.00166 3.67079 0
M  V30 6816 H 635.777 2.63231 2.85186 0
M  V30 6817 H 633.878 0.321481 3.71211 0
M  V30 6818 H 633.991 2.11143 4.30064 0
M  V30 6819 H 632.355 1.03482 2.32731 0
M  V30 6820 H 633.138 2.69425 2.12756 0
M  V30 6821 N 635.583 -1.29855 0.893053 0
M  V30 6822 C 636.546 -2.26183 0.370687 0
M  V30 6823 C 637.546 -1.53108 -0.491385 0
M  V30 6824 O 638.736 -1.71643 -0.297386 0
M  V30 6825 C 635.868 -3.37633 -0.470827 0
M  V30 6826 H 637.061 -2.73903 1.22135 0
M  V30 6827 H 634.614 -1.41183 0.67061 0
M  V30 6828 H 635.349 -2.95241 -1.34175 0
M  V30 6829 H 635.134 -3.91825 0.146784 0
M  V30 6830 H 636.624 -4.09313 -0.827825 0
M  V30 6831 N 637.061 -0.65484 -1.43351 0
M  V30 6832 C 638.024 0.0263562 -2.29185 0
M  V30 6833 C 639.024 0.748951 -1.42293 0
M  V30 6834 O 640.214 0.589957 -1.63906 0
M  V30 6835 C 637.346 1.04806 -3.2439 0
M  V30 6836 H 638.539 -0.728883 -2.90908 0
M  V30 6837 H 636.092 -0.416149 -1.50658 0
M  V30 6838 H 636.827 1.83247 -2.67565 0
M  V30 6839 H 636.612 0.533554 -3.88453 0
M  V30 6840 H 638.102 1.52372 -3.88809 0
M  V30 6841 N 638.539 1.52521 -0.396863 0
M  V30 6842 C 639.472 2.23118 0.478926 0
M  V30 6843 C 640.45 1.23475 1.05796 0
M  V30 6844 O 641.634 1.52486 1.10817 0
M  V30 6845 C 638.761 2.95028 1.66362 0
M  V30 6846 C 637.807 4.09002 1.20913 0
M  V30 6847 S 638.64 5.35182 0.184407 0
M  V30 6848 C 639.796 6.10616 1.37471 0
M  V30 6849 H 640.029 2.97056 -0.120542 0
M  V30 6850 H 637.562 1.53334 -0.18109 0
M  V30 6851 H 639.52 3.37066 2.34301 0
M  V30 6852 H 638.181 2.20756 2.23441 0
M  V30 6853 H 637.374 4.58445 2.09389 0
M  V30 6854 H 636.976 3.69016 0.608559 0
M  V30 6855 H 639.268 6.37247 2.30048 0
M  V30 6856 H 640.211 7.02084 0.921051 0
M  V30 6857 H 640.619 5.41499 1.59495 0
M  V30 6858 N 640.017 0.126909 1.57088 0
M  V30 6859 C 641.428 -0.397201 1.82426 0
M  V30 6860 C 641.779 -1.66084 1.04453 0
M  V30 6861 O 640.904 -2.14534 0.283552 0
M  V30 6862 C 641.499 -0.727411 3.30899 0
M  V30 6863 C 640.058 -1.19612 3.56889 0
M  V30 6864 C 639.205 -0.20885 2.76512 0
M  V30 6865 H 642.156 0.351924 1.54749 0
M  V30 6866 H 642.177 -1.58407 3.45959 0
M  V30 6867 H 641.689 0.19247 3.87622 0
M  V30 6868 H 639.79 -2.13263 3.05532 0
M  V30 6869 H 639.903 -1.13598 4.65438 0
M  V30 6870 H 638.267 -0.697479 2.44964 0
M  V30 6871 H 639.05 0.704267 3.35998 0
M  V30 6872 N 641.495 -1.56914 -0.146875 0
M  V30 6873 C 642.445 -1.94693 -1.18653 0
M  V30 6874 C 643.429 -0.81821 -1.38543 0
M  V30 6875 O 644.621 -1.08167 -1.40103 0
M  V30 6876 C 641.75 -2.33117 -2.52014 0
M  V30 6877 C 640.836 -3.5256 -2.35717 0
M  V30 6878 N 641.227 -4.69091 -1.89175 0
M  V30 6879 C 639.525 -3.57647 -2.66467 0
M  V30 6880 C 640.226 -5.51187 -1.85924 0
M  V30 6881 N 639.202 -4.92899 -2.29242 0
M  V30 6882 H 643.004 -2.82264 -0.81879 0
M  V30 6883 H 640.518 -1.58474 -0.354929 0
M  V30 6884 H 642.515 -2.58387 -3.27172 0
M  V30 6885 H 641.175 -1.46898 -2.89571 0
M  V30 6886 H 642.186 -4.92844 -1.59139 0
M  V30 6887 H 638.863 -2.81967 -3.07898 0
M  V30 6888 H 640.253 -6.54613 -1.51431 0
M  V30 6889 N 642.974 0.416227 -1.52004 0
M  V30 6890 C 643.904 1.51365 -1.77795 0
M  V30 6891 C 644.885 1.58059 -0.628601 0
M  V30 6892 O 646.07 1.73447 -0.873478 0
M  V30 6893 C 643.2 2.89256 -1.92219 0
M  V30 6894 C 642.154 2.97415 -3.0778 0
M  V30 6895 C 641.48 4.37492 -3.07417 0
M  V30 6896 C 642.78 2.69551 -4.47369 0
M  V30 6897 H 644.474 1.30033 -2.69688 0
M  V30 6898 H 642.02 0.624112 -1.29772 0
M  V30 6899 H 643.973 3.66008 -2.08845 0
M  V30 6900 H 642.697 3.11866 -0.969917 0
M  V30 6901 H 641.356 2.23107 -2.90893 0
M  V30 6902 H 641.004 4.571 -2.09925 0
M  V30 6903 H 640.704 4.43877 -3.85029 0
M  V30 6904 H 642.228 5.16188 -3.26162 0
M  V30 6905 H 643.642 3.36028 -4.64497 0
M  V30 6906 H 642.039 2.87321 -5.26846 0
M  V30 6907 H 643.109 1.65029 -4.55953 0
M  V30 6908 N 644.452 1.42507 0.673017 0
M  V30 6909 C 645.382 1.48916 1.79851 0
M  V30 6910 C 646.363 0.345566 1.66553 0
M  V30 6911 O 647.548 0.560116 1.85947 0
M  V30 6912 C 644.678 1.39258 3.18158 0
M  V30 6913 C 643.632 2.51662 3.46194 0
M  V30 6914 C 642.958 2.27062 4.84094 0
M  V30 6915 C 644.258 3.93968 3.42909 0
M  V30 6916 H 645.952 2.43114 1.74745 0
M  V30 6917 H 643.498 1.17013 0.839288 0
M  V30 6918 H 645.451 1.42349 3.96629 0
M  V30 6919 H 644.175 0.415542 3.23946 0
M  V30 6920 H 642.834 2.47891 2.70084 0
M  V30 6921 H 642.482 1.27648 4.86534 0
M  V30 6922 H 642.182 3.02398 5.03815 0
M  V30 6923 H 643.706 2.31905 5.64847 0
M  V30 6924 H 645.12 3.99332 4.11347 0
M  V30 6925 H 643.517 4.6917 3.74165 0
M  V30 6926 H 644.587 4.20512 2.41449 0
M  V30 6927 N 645.93 -0.909495 1.28709 0
M  V30 6928 C 647.176 -1.66151 1.16283 0
M  V30 6929 C 647.509 -1.92067 -0.287069 0
M  V30 6930 O 646.784 -1.52409 -1.20837 0
M  V30 6931 C 647.067 -3.01676 1.9663 0
M  V30 6932 C 646.92 -2.82888 3.49707 0
M  V30 6933 C 648.239 -4.02274 1.78504 0
M  V30 6934 H 645.358 -0.602966 0.423793 0
M  V30 6935 H 648 -1.05418 1.58073 0
M  V30 6936 H 646.15 -3.53515 1.61119 0
M  V30 6937 H 647.822 -2.38026 3.95147 0
M  V30 6938 H 646.065 -2.17862 3.75125 0
M  V30 6939 H 646.736 -3.79147 4.01187 0
M  V30 6940 H 649.212 -3.59511 2.09503 0
M  V30 6941 H 648.088 -4.95056 2.37088 0
M  V30 6942 H 648.349 -4.35903 0.737647 0
M  V30 6943 N 647.408 -1.11026 -1.11852 0
M  V30 6944 C 648.656 -0.854769 -1.83134 0
M  V30 6945 C 648.977 0.621375 -1.84835 0
M  V30 6946 O 648.247 1.45129 -1.31584 0
M  V30 6947 H 646.827 -0.313229 -0.678157 0
M  V30 6948 H 649.489 -1.40178 -1.35411 0
M  V30 6949 H 648.585 -1.22311 -2.87135 0
M  V30 6950 N 648.886 1.2938 -0.899927 0
M  V30 6951 C 650.111 2.00228 -0.540692 0
M  V30 6952 C 650.536 1.66909 0.867359 0
M  V30 6953 O 649.894 0.893824 1.57735 0
M  V30 6954 C 649.942 3.52921 -0.740232 0
M  V30 6955 O 649.046 4.11879 0.207154 0
M  V30 6956 H 648.387 0.629505 -0.211233 0
M  V30 6957 H 650.917 1.6487 -1.21158 0
M  V30 6958 H 650.927 4.0287 -0.644973 0
M  V30 6959 H 649.602 3.76508 -1.76677 0
M  V30 6960 H 648.179 3.72845 0.0643315 0
M  V30 6961 N 650.364 0.662433 1.43002 0
M  V30 6962 C 651.589 0.186003 2.06564 0
M  V30 6963 C 652.014 -1.14314 1.49379 0
M  V30 6964 O 651.372 -1.70824 0.607346 0
M  V30 6965 C 651.42 0.118269 3.60406 0
M  V30 6966 O 650.524 -0.916859 4.02079 0
M  V30 6967 H 649.865 0.0990981 0.656563 0
M  V30 6968 H 652.395 0.907958 1.8335 0
M  V30 6969 H 652.405 -0.0619981 4.07953 0
M  V30 6970 H 651.08 1.08849 4.01403 0
M  V30 6971 H 649.657 -0.708635 3.66105 0
M  V30 6972 N 651.842 -1.52309 0.404946 0
M  V30 6973 C 653.09 -2.01368 -0.17186 0
M  V30 6974 C 653.411 -1.29261 -1.46002 0
M  V30 6975 O 652.681 -0.41729 -1.91404 0
M  V30 6976 H 651.261 -0.744034 -0.0664993 0
M  V30 6977 H 653.923 -1.87263 0.540228 0
M  V30 6978 H 653.019 -3.09888 -0.370957 0
M  V30 6979 N 653.32 -0.135238 -1.57019 0
M  V30 6980 C 654.25 0.805235 -2.19176 0
M  V30 6981 C 655.231 1.2656 -1.13651 0
M  V30 6982 O 656.416 1.32528 -1.4195 0
M  V30 6983 C 653.546 2.04914 -2.80406 0
M  V30 6984 C 652.5 1.72598 -3.91655 0
M  V30 6985 C 651.826 3.04154 -4.39766 0
M  V30 6986 C 653.126 0.981709 -5.12991 0
M  V30 6987 H 654.82 0.287232 -2.98019 0
M  V30 6988 H 652.366 0.136714 -1.4335 0
M  V30 6989 H 654.319 2.71178 -3.22553 0
M  V30 6990 H 653.043 2.59067 -1.98877 0
M  V30 6991 H 651.702 1.08717 -3.50109 0
M  V30 6992 H 651.35 3.56274 -3.55075 0
M  V30 6993 H 651.05 2.83299 -5.14796 0
M  V30 6994 H 652.574 3.71509 -4.84576 0
M  V30 6995 H 653.988 1.5462 -5.52056 0
M  V30 6996 H 652.385 0.873533 -5.93708 0
M  V30 6997 H 653.455 -0.0286887 -4.84892 0
M  V30 6998 N 654.798 1.5699 0.138552 0
M  V30 6999 C 656.023 1.88344 0.86841 0
M  V30 7000 C 656.448 0.725159 1.7356 0
M  V30 7001 O 655.806 -0.324992 1.78363 0
M  V30 7002 C 655.854 3.18334 1.69398 0
M  V30 7003 O 654.958 3.02863 2.79907 0
M  V30 7004 H 654.299 0.618577 0.241367 0
M  V30 7005 H 656.829 2.04207 0.126826 0
M  V30 7006 H 656.839 3.50567 2.08726 0
M  V30 7007 H 655.514 4.02238 1.05725 0
M  V30 7008 H 654.091 2.82056 2.43924 0
M  V30 7009 N 656.276 -0.40816 1.52223 0
M  V30 7010 C 657.692 -0.74685 1.41047 0
M  V30 7011 C 657.892 -1.94788 0.51573 0
M  V30 7012 O 656.948 -2.52494 -0.0181156 0
M  V30 7013 C 658.261 -0.999878 2.83589 0
M  V30 7014 C 659.809 -1.10253 2.92939 0
M  V30 7015 C 660.284 -1.38832 4.36451 0
M  V30 7016 N 661.775 -1.45694 4.3969 0
M  V30 7017 C 662.51 -1.69435 5.47795 0
M  V30 7018 N 662.006 -1.90774 6.66016 0
M  V30 7019 N 663.799 -1.71458 5.35312 0
M  V30 7020 H 655.95 0.382409 2.08929 0
M  V30 7021 H 658.213 0.108807 0.941735 0
M  V30 7022 H 657.919 -0.189723 3.51188 0
M  V30 7023 H 657.793 -1.91978 3.24691 0
M  V30 7024 H 660.18 -1.90328 2.2552 0
M  V30 7025 H 660.261 -0.160973 2.55293 0
M  V30 7026 H 659.905 -0.592741 5.04429 0
M  V30 7027 H 659.835 -2.34241 4.71634 0
M  V30 7028 H 662.326 -1.3099 3.54472 0
M  V30 7029 H 662.639 -2.08342 7.44186 0
M  V30 7030 H 660.984 -1.88037 6.69079 0
M  V30 7031 H 664.175 -1.54326 4.41929 0
M  V30 7032 H 664.348 -1.89621 6.19635 0
M  V30 7033 N 657.755 -1.42862 -0.66545 0
M  V30 7034 C 658.985 -1.47032 -1.45138 0
M  V30 7035 C 659.393 -0.0829977 -1.89018 0
M  V30 7036 O 658.736 0.914551 -1.59316 0
M  V30 7037 C 658.798 -2.34302 -2.72659 0
M  V30 7038 C 658.462 -3.82034 -2.50796 0
M  V30 7039 C 659.459 -4.73453 -2.14799 0
M  V30 7040 C 657.144 -4.26397 -2.655 0
M  V30 7041 C 659.138 -6.07228 -1.93785 0
M  V30 7042 C 656.825 -5.6023 -2.44103 0
M  V30 7043 C 657.823 -6.50462 -2.08299 0
M  V30 7044 O 657.511 -7.8182 -1.87116 0
M  V30 7045 H 657.243 -0.501969 -0.452772 0
M  V30 7046 H 659.797 -1.88137 -0.82423 0
M  V30 7047 H 658.027 -1.88063 -3.37889 0
M  V30 7048 H 659.716 -2.29818 -3.34572 0
M  V30 7049 H 660.482 -4.4046 -2.03026 0
M  V30 7050 H 656.361 -3.56448 -2.92345 0
M  V30 7051 H 659.905 -6.7762 -1.65763 0
M  V30 7052 H 655.802 -5.92793 -2.55475 0
M  V30 7053 H 656.57 -7.93274 -2.01639 0
M  V30 7054 N 659.233 0.902656 -1.29189 0
M  V30 7055 C 660.479 1.65532 -1.17163 0
M  V30 7056 C 660.812 1.92216 0.276879 0
M  V30 7057 O 660.087 1.53048 1.20027 0
M  V30 7058 C 660.37 3.00629 -1.98228 0
M  V30 7059 C 660.223 2.81029 -3.51202 0
M  V30 7060 C 661.542 4.01321 -1.80635 0
M  V30 7061 H 658.661 0.60071 -0.426985 0
M  V30 7062 H 661.303 1.04578 -1.5863 0
M  V30 7063 H 659.453 3.52656 -1.62991 0
M  V30 7064 H 661.125 2.35927 -3.96404 0
M  V30 7065 H 659.368 2.1587 -3.76275 0
M  V30 7066 H 660.039 3.77014 -4.03192 0
M  V30 7067 H 662.515 3.58394 -2.11406 0
M  V30 7068 H 661.391 4.93792 -2.3971 0
M  V30 7069 H 661.652 4.35505 -0.760754 0
M  V30 7070 N 660.711 1.11618 1.11262 0
M  V30 7071 C 661.674 0.779447 2.15539 0
M  V30 7072 C 662.674 -0.202081 1.59525 0
M  V30 7073 O 663.864 0.0226356 1.74185 0
M  V30 7074 C 660.996 0.15674 3.40539 0
M  V30 7075 H 662.189 1.70324 2.4684 0
M  V30 7076 H 659.742 0.918298 1.26479 0
M  V30 7077 H 660.477 -0.777186 3.1485 0
M  V30 7078 H 660.262 0.863308 3.82478 0
M  V30 7079 H 661.752 -0.062661 4.17553 0
M  V30 7080 N 662.189 -1.289 0.906776 0
M  V30 7081 C 663.605 -1.47733 0.603902 0
M  V30 7082 C 663.805 -1.82568 -0.852702 0
M  V30 7083 O 662.861 -1.92642 -1.63234 0
M  V30 7084 C 664.174 -2.58522 1.53581 0
M  V30 7085 C 665.722 -2.72394 1.54177 0
M  V30 7086 C 666.197 -3.86318 2.46013 0
M  V30 7087 N 667.688 -3.93661 2.441 0
M  V30 7088 C 668.423 -4.81177 3.11859 0
M  V30 7089 N 667.919 -5.73333 3.88923 0
M  V30 7090 N 669.712 -4.74728 3.00981 0
M  V30 7091 H 661.863 -1.04567 1.84877 0
M  V30 7092 H 664.126 -0.520118 0.792579 0
M  V30 7093 H 663.832 -2.39667 2.57396 0
M  V30 7094 H 663.706 -3.55475 1.26165 0
M  V30 7095 H 666.093 -2.90641 0.511034 0
M  V30 7096 H 666.174 -1.75993 1.85634 0
M  V30 7097 H 665.818 -3.68826 3.49185 0
M  V30 7098 H 665.748 -4.82102 2.11862 0
M  V30 7099 H 668.239 -3.27751 1.88115 0
M  V30 7100 H 668.552 -6.36923 4.37663 0
M  V30 7101 H 666.897 -5.73196 3.93029 0
M  V30 7102 H 670.088 -4.01722 2.40286 0
M  V30 7103 H 670.261 -5.42719 3.54062 0
M  V30 7104 N 663.667 -0.670007 -1.42649 0
M  V30 7105 C 664.597 -0.00258501 -2.335 0
M  V30 7106 C 665.578 0.794364 -1.50412 0
M  V30 7107 O 666.763 0.75248 -1.79029 0
M  V30 7108 C 663.893 0.952748 -3.33976 0
M  V30 7109 C 662.847 0.264733 -4.2718 0
M  V30 7110 C 662.173 1.33267 -5.17826 0
M  V30 7111 C 663.473 -0.853289 -5.15283 0
M  V30 7112 H 665.167 -0.761326 -2.89559 0
M  V30 7113 H 662.713 -0.367561 -1.3923 0
M  V30 7114 H 664.666 1.4287 -3.96442 0
M  V30 7115 H 663.39 1.74285 -2.7621 0
M  V30 7116 H 662.049 -0.190938 -3.66102 0
M  V30 7117 H 661.697 2.11464 -4.5639 0
M  V30 7118 H 661.397 0.877476 -5.81011 0
M  V30 7119 H 662.921 1.80965 -5.83167 0
M  V30 7120 H 664.335 -0.458763 -5.71462 0
M  V30 7121 H 662.732 -1.23398 -5.87276 0
M  V30 7122 H 663.802 -1.70412 -4.53969 0
M  V30 7123 N 665.145 1.52092 -0.413018 0
M  V30 7124 C 666.37 2.06756 0.163338 0
M  V30 7125 C 666.795 1.28073 1.37764 0
M  V30 7126 O 666.153 0.312015 1.78595 0
M  V30 7127 C 666.201 3.57278 0.488322 0
M  V30 7128 O 665.305 3.80986 1.57871 0
M  V30 7129 H 664.646 0.663882 0.0125068 0
M  V30 7130 H 667.176 1.95988 -0.587339 0
M  V30 7131 H 667.186 4.01125 0.745836 0
M  V30 7132 H 665.861 4.13978 -0.399327 0
M  V30 7133 H 664.438 3.49017 1.31306 0
M  V30 7134 N 666.623 0.143563 1.56945 0
M  V30 7135 C 667.848 -0.518701 2.00809 0
M  V30 7136 C 668.273 -1.5785 1.02298 0
M  V30 7137 O 667.631 -1.813 -0.0017839 0
M  V30 7138 C 667.679 -1.09929 3.43436 0
M  V30 7139 O 666.783 -2.21425 3.47915 0
M  V30 7140 H 666.124 -0.127215 0.6517 0
M  V30 7141 H 668.654 0.239283 2.03196 0
M  V30 7142 H 668.664 -1.4288 3.82164 0
M  V30 7143 H 667.339 -0.323162 4.14643 0
M  V30 7144 H 665.916 -1.89728 3.21026 0
M  V30 7145 N 668.101 -1.57061 -0.130224 0
M  V30 7146 C 669.049 -2.00486 -1.17933 0
M  V30 7147 C 670.043 -0.899933 -1.43519 0
M  V30 7148 O 671.249 -1.08514 -1.43613 0
M  V30 7149 H 667.624 -0.638441 -0.397363 0
M  V30 7150 H 669.595 -2.87848 -0.786501 0
M  V30 7151 C 668.344 -2.41565 -2.50084 0
M  V30 7152 H 667.667 -3.26148 -2.31231 0
M  V30 7153 H 669.107 -2.75757 -3.22078 0
M  V30 7154 C 667.566 -1.27485 -3.11848 0
M  V30 7155 O 668.096 -0.584688 -3.97422 0
M  V30 7156 N 666.302 -1.03478 -2.71552 0
M  V30 7157 H 665.849 -1.59779 -2.02061 0
M  V30 7158 H 665.807 -0.27341 -3.13209 0
M  V30 7159 N 669.579 0.400081 -1.52437 0
M  V30 7160 C 670.804 1.17221 -1.71096 0
M  V30 7161 C 671.229 1.83269 -0.423565 0
M  V30 7162 O 670.587 1.70378 0.619751 0
M  V30 7163 C 670.635 2.20425 -2.85386 0
M  V30 7164 O 669.739 3.26769 -2.51586 0
M  V30 7165 H 669.08 0.341766 -0.569291 0
M  V30 7166 H 671.61 0.467772 -1.99181 0
M  V30 7167 H 671.62 2.64605 -3.10561 0
M  V30 7168 H 670.295 1.71737 -3.78786 0
M  V30 7169 H 668.872 2.87804 -2.37114 0
M  V30 7170 N 671.057 1.43213 0.657864 0
M  V30 7171 C 672.473 1.26511 0.972992 0
M  V30 7172 C 672.673 0.181477 2.00681 0
M  V30 7173 O 671.729 -0.441649 2.48608 0
M  V30 7174 C 673.042 2.62784 1.46168 0
M  V30 7175 C 674.59 2.70278 1.57857 0
M  V30 7176 C 675.065 4.06958 2.10117 0
M  V30 7177 N 676.556 4.08999 2.17426 0
M  V30 7178 C 677.291 5.11585 2.58975 0
M  V30 7179 N 676.787 6.24548 2.99853 0
M  V30 7180 N 678.58 4.9894 2.58873 0
M  V30 7181 H 670.731 2.12384 -0.0263129 0
M  V30 7182 H 672.994 0.946638 0.0507992 0
M  V30 7183 H 672.7 3.43022 0.776474 0
M  V30 7184 H 672.574 2.87863 2.43751 0
M  V30 7185 H 674.961 1.90376 2.25479 0
M  V30 7186 H 675.042 2.4897 0.587179 0
M  V30 7187 H 674.686 4.87325 1.43098 0
M  V30 7188 H 674.616 4.25628 3.10078 0
M  V30 7189 H 677.107 3.27457 1.88627 0
M  V30 7190 H 677.42 6.98661 3.30292 0
M  V30 7191 H 675.765 6.28027 2.97669 0
M  V30 7192 H 678.956 4.09757 2.26311 0
M  V30 7193 H 679.129 5.79019 2.90932 0
M  V30 7194 N 672.536 -0.895792 1.29666 0
M  V30 7195 C 673.785 -1.64131 1.17234 0
M  V30 7196 C 674.098 -1.93665 -0.274416 0
M  V30 7197 O 675.304 -2.66472 -0.520105 0
M  V30 7198 C 673.76 -2.95764 2.05065 0
M  V30 7199 C 673.368 -2.7381 3.54587 0
M  V30 7200 C 675.112 -3.737 2.01367 0
M  V30 7201 C 673.019 -4.01194 4.34508 0
M  V30 7202 H 671.949 -0.615742 0.435175 0
M  V30 7203 H 674.6 -0.992626 1.54335 0
M  V30 7204 H 672.982 -3.61867 1.60837 0
M  V30 7205 H 674.156 -2.16277 4.06892 0
M  V30 7206 H 672.471 -2.09265 3.59996 0
M  V30 7207 H 675.068 -4.68152 2.58337 0
M  V30 7208 H 675.411 -4.04245 0.994575 0
M  V30 7209 H 675.944 -3.14444 2.43659 0
M  V30 7210 H 672.683 -3.75813 5.37071 0
M  V30 7211 H 672.203 -4.58272 3.86971 0
M  V30 7212 H 673.882 -4.69307 4.45376 0
M  V30 7213 N 674.014 -1.12206 -1.10668 0
M  V30 7214 C 674.944 -0.810086 -2.18997 0
M  V30 7215 C 675.925 0.225065 -1.68604 0
M  V30 7216 O 677.11 0.086783 -1.94006 0
M  V30 7217 C 674.24 -0.261262 -3.46316 0
M  V30 7218 C 673.194 -1.2292 -4.09969 0
M  V30 7219 C 672.52 -0.540713 -5.31959 0
M  V30 7220 C 673.82 -2.58295 -4.53962 0
M  V30 7221 H 675.514 -1.7159 -2.45352 0
M  V30 7222 H 673.06 -0.82646 -1.17922 0
M  V30 7223 H 675.013 -0.0307522 -4.21389 0
M  V30 7224 H 673.737 0.679879 -3.19445 0
M  V30 7225 H 672.396 -1.44548 -3.369 0
M  V30 7226 H 672.044 0.405492 -5.01363 0
M  V30 7227 H 671.744 -1.18637 -5.75499 0
M  V30 7228 H 673.268 -0.319184 -6.09765 0
M  V30 7229 H 674.682 -2.40709 -5.20319 0
M  V30 7230 H 673.079 -3.18916 -5.08343 0
M  V30 7231 H 674.149 -3.16918 -3.67002 0
M  V30 7232 N 675.492 1.28418 -0.913599 0
M  V30 7233 C 676.44 2.29272 -0.392037 0
M  V30 7234 C 677.434 1.61344 0.516198 0
M  V30 7235 O 678.64 1.75557 0.39746 0
M  V30 7236 H 675.015 0.744178 -0.108178 0
M  V30 7237 H 676.986 2.70691 -1.25574 0
M  V30 7238 C 675.735 3.45905 0.352815 0
M  V30 7239 H 675.058 3.98378 -0.336848 0
M  V30 7240 H 676.498 4.18473 0.682398 0
M  V30 7241 C 674.957 2.98572 1.56065 0
M  V30 7242 O 675.487 3.01033 2.65974 0
M  V30 7243 N 673.693 2.54235 1.40759 0
M  V30 7244 H 673.24 2.52432 0.513403 0
M  V30 7245 H 673.198 2.22925 2.21702 0
M  V30 7246 N 676.97 0.677563 1.42291 0
M  V30 7247 C 677.92 -0.0218641 2.2799 0
M  V30 7248 C 678.904 -0.770816 1.41235 0
M  V30 7249 O 680.096 -0.649273 1.64662 0
M  V30 7250 C 677.225 -0.970449 3.29298 0
M  V30 7251 C 676.311 -0.218695 4.23536 0
M  V30 7252 N 676.702 0.777908 4.99782 0
M  V30 7253 C 675 -0.456748 4.43655 0
M  V30 7254 C 675.701 1.22632 5.68627 0
M  V30 7255 N 674.677 0.55573 5.40752 0
M  V30 7256 H 678.479 0.742516 2.84366 0
M  V30 7257 H 675.993 0.506862 1.54288 0
M  V30 7258 H 677.99 -1.48652 3.89497 0
M  V30 7259 H 676.65 -1.73463 2.74483 0
M  V30 7260 H 677.661 1.15754 5.04798 0
M  V30 7261 H 674.338 -1.20021 3.99877 0
M  V30 7262 H 675.728 2.05231 6.39789 0
M  V30 7263 N 678.448 -1.51871 0.421078 0
M  V30 7264 C 679.38 -2.25052 -0.434065 0
M  V30 7265 C 680.393 -1.28458 -1.00013 0
M  V30 7266 O 681.582 -1.54323 -0.897033 0
M  V30 7267 C 678.682 -2.97813 -1.61743 0
M  V30 7268 C 677.855 -4.21374 -1.17315 0
M  V30 7269 C 676.914 -4.76854 -2.22478 0
M  V30 7270 O 675.94 -5.39123 -1.82577 0
M  V30 7271 N 677.142 -4.59467 -3.54782 0
M  V30 7272 H 679.907 -2.99077 0.193073 0
M  V30 7273 H 677.468 -1.59972 0.249088 0
M  V30 7274 H 679.46 -3.3182 -2.31685 0
M  V30 7275 H 678.03 -2.26899 -2.15024 0
M  V30 7276 H 677.25 -3.93046 -0.3014 0
M  V30 7277 H 678.538 -5.01591 -0.853444 0
M  V30 7278 H 677.936 -4.09832 -3.89941 0
M  V30 7279 H 676.493 -4.9788 -4.20665 0
M  V30 7280 N 679.926 -0.151884 -1.56866 0
M  V30 7281 C 680.876 0.797799 -2.13586 0
M  V30 7282 C 681.86 1.20613 -1.06496 0
M  V30 7283 O 683.052 1.17173 -1.32663 0
M  V30 7284 C 680.181 2.03493 -2.76488 0
M  V30 7285 C 679.267 1.64948 -3.90708 0
M  V30 7286 N 679.658 0.972513 -4.96363 0
M  V30 7287 C 677.956 1.94186 -4.01507 0
M  V30 7288 C 678.657 0.785661 -5.7637 0
M  V30 7289 N 677.633 1.32105 -5.27304 0
M  V30 7290 H 681.435 0.271403 -2.92644 0
M  V30 7291 H 678.949 0.049487 -1.62325 0
M  V30 7292 H 680.946 2.72532 -3.15487 0
M  V30 7293 H 679.606 2.56646 -1.98904 0
M  V30 7294 H 680.617 0.632724 -5.1402 0
M  V30 7295 H 677.294 2.49154 -3.35005 0
M  V30 7296 H 678.684 0.251749 -6.71428 0
M  V30 7297 N 681.404 1.57128 0.121893 0
M  V30 7298 C 682.652 1.84335 0.828548 0
M  V30 7299 C 682.973 0.736632 1.80551 0
M  V30 7300 O 682.243 -0.23962 1.94429 0
M  V30 7301 H 680.823 0.680108 0.30897 0
M  V30 7302 H 683.485 1.9459 0.109906 0
M  V30 7303 H 682.581 2.80152 1.37554 0
M  V30 7304 N 682.882 -0.391992 1.52647 0
M  V30 7305 C 684.11 -1.1586 1.71418 0
M  V30 7306 C 684.525 -1.8381 0.431216 0
M  V30 7307 O 683.882 -1.7256 -0.594085 0
M  V30 7308 C 683.933 -2.20888 2.86165 0
M  V30 7309 O 683.654 -1.5571 4.09495 0
M  V30 7310 C 685.155 -3.103 3.1659 0
M  V30 7311 H 682.375 -0.347494 0.574011 0
M  V30 7312 H 684.919 -0.458972 1.99283 0
M  V30 7313 H 683.074 -2.86492 2.6077 0
M  V30 7314 H 683.488 -2.25474 4.73563 0
M  V30 7315 H 684.962 -3.8003 4.00351 0
M  V30 7316 H 685.439 -3.73639 2.30848 0
M  V30 7317 H 686.045 -2.50345 3.43813 0
M  V30 7318 N 684.36 -1.4356 -0.65026 0
M  V30 7319 C 685.293 -1.434 -1.77515 0
M  V30 7320 C 686.271 -0.295082 -1.599 0
M  V30 7321 O 687.455 -0.489128 -1.82043 0
M  V30 7322 C 684.582 -1.2484 -3.14853 0
M  V30 7323 C 683.628 -2.42046 -3.51163 0
M  V30 7324 S 684.461 -4.04595 -3.50803 0
M  V30 7325 C 685.617 -3.88424 -4.90793 0
M  V30 7326 H 685.85 -2.38586 -1.77381 0
M  V30 7327 H 683.383 -1.30627 -0.823169 0
M  V30 7328 H 685.341 -1.14819 -3.94115 0
M  V30 7329 H 684.002 -0.311977 -3.12547 0
M  V30 7330 H 683.195 -2.24873 -4.51052 0
M  V30 7331 H 682.797 -2.48708 -2.79321 0
M  V30 7332 H 685.089 -3.50932 -5.79528 0
M  V30 7333 H 686.032 -4.88076 -5.13018 0
M  V30 7334 H 686.44 -3.20829 -4.64467 0
M  V30 7335 N 685.838 0.888903 -1.30139 0
M  V30 7336 C 687.249 1.45578 -1.16893 0
M  V30 7337 C 687.6 1.94825 0.231866 0
M  V30 7338 O 686.725 1.84661 1.12824 0
M  V30 7339 C 687.32 2.646 -2.11595 0
M  V30 7340 C 685.879 3.17389 -2.02339 0
M  V30 7341 C 685.026 1.90081 -2.01902 0
M  V30 7342 H 687.977 0.69921 -1.42467 0
M  V30 7343 H 687.998 3.40687 -1.69449 0
M  V30 7344 H 687.51 2.28726 -3.13538 0
M  V30 7345 H 685.611 3.5793 -1.03523 0
M  V30 7346 H 685.724 3.80955 -2.90534 0
M  V30 7347 H 684.088 2.08246 -1.46648 0
M  V30 7348 H 684.871 1.5647 -3.05568 0
M  V30 7349 N 687.317 1.12792 1.10072 0
M  V30 7350 C 688.265 0.794523 2.18609 0
M  V30 7351 C 689.259 -0.220271 1.67962 0
M  V30 7352 O 690.465 -0.0780938 1.79831 0
M  V30 7353 H 686.84 0.239123 0.712969 0
M  V30 7354 H 688.811 1.71823 2.43966 0
M  V30 7355 C 687.56 0.269548 3.46654 0
M  V30 7356 H 686.883 1.04171 3.8599 0
M  V30 7357 H 688.323 0.0746242 4.23934 0
M  V30 7358 C 686.782 -1.00333 3.21613 0
M  V30 7359 O 687.312 -2.08042 3.4363 0
M  V30 7360 N 685.518 -0.931763 2.75257 0
M  V30 7361 H 685.065 -0.0551197 2.57541 0
M  V30 7362 H 685.023 -1.78405 2.58881 0
M  V30 7363 N 688.795 -1.27931 0.920396 0
M  V30 7364 C 689.725 -2.29487 0.431024 0
M  V30 7365 C 690.706 -1.62435 -0.504861 0
M  V30 7366 O 691.891 -1.89797 -0.411176 0
M  V30 7367 C 689.021 -3.45788 -0.323709 0
M  V30 7368 C 687.975 -4.24784 0.523658 0
M  V30 7369 C 687.301 -5.33488 -0.359809 0
M  V30 7370 C 688.601 -4.90874 1.78437 0
M  V30 7371 H 690.295 -2.70671 1.27975 0
M  V30 7372 H 687.841 -1.30121 0.616813 0
M  V30 7373 H 689.794 -4.15927 -0.676952 0
M  V30 7374 H 688.518 -3.03502 -1.2064 0
M  V30 7375 H 687.177 -3.56382 0.85951 0
M  V30 7376 H 686.825 -4.87445 -1.24124 0
M  V30 7377 H 686.525 -5.87247 0.203605 0
M  V30 7378 H 688.049 -6.06472 -0.708787 0
M  V30 7379 H 689.463 -5.53339 1.49963 0
M  V30 7380 H 687.86 -5.54659 2.29071 0
M  V30 7381 H 688.93 -4.14988 2.50824 0
M  V30 7382 N 690.273 -0.685099 -1.4193 0
M  V30 7383 C 691.223 0.00977295 -2.27998 0
M  V30 7384 C 692.207 0.763315 -1.41641 0
M  V30 7385 O 693.399 0.640532 -1.65004 0
M  V30 7386 C 690.528 0.952972 -3.29808 0
M  V30 7387 C 689.614 0.196231 -4.23646 0
M  V30 7388 N 690.005 -0.804401 -4.99363 0
M  V30 7389 C 688.303 0.433213 -4.43891 0
M  V30 7390 C 689.004 -1.25646 -5.67968 0
M  V30 7391 N 687.98 -0.5844 -5.4045 0
M  V30 7392 H 691.782 -0.757586 -2.83968 0
M  V30 7393 H 689.296 -0.515037 -1.54017 0
M  V30 7394 H 691.293 1.46585 -3.9028 0
M  V30 7395 H 689.953 1.72004 -2.75399 0
M  V30 7396 H 690.964 -1.18429 -5.04177 0
M  V30 7397 H 687.641 1.17899 -4.00507 0
M  V30 7398 H 689.031 -2.08622 -6.38691 0
M  V30 7399 N 691.751 1.51645 -0.429126 0
M  V30 7400 C 693.028 1.94579 0.199614 0
M  V30 7401 C 693.408 1.3673 1.60836 0
M  V30 7402 O 692.756 0.551062 2.21756 0
M  V30 7403 C 692.966 3.48506 0.185685 0
M  V30 7404 C 694.314 4.22756 0.395282 0
M  V30 7405 O 695.338 3.55219 0.264165 0
M  V30 7406 O 694.197 5.42555 0.655475 0
M  V30 7407 H 691.291 0.816007 0.134393 0
M  V30 7408 H 693.837 1.62577 -0.486513 0
M  V30 7409 H 692.609 3.83045 -0.799508 0
M  V30 7410 H 692.232 3.86927 0.91507 0
M  V30 7411 N 693.229 0.160201 1.56784 0
M  V30 7412 C 694.459 -0.493449 2.00621 0
M  V30 7413 C 694.867 -1.5809 1.03943 0
M  V30 7414 O 694.21 -1.83675 0.0305343 0
M  V30 7415 C 694.272 -1.14169 3.4089 0
M  V30 7416 C 693.936 -0.197243 4.56574 0
M  V30 7417 C 694.933 0.580174 5.16653 0
M  V30 7418 C 692.618 -0.0963038 5.02208 0
M  V30 7419 C 694.612 1.44584 6.20785 0
M  V30 7420 C 692.299 0.772959 6.06192 0
M  V30 7421 C 693.297 1.54263 6.65351 0
M  V30 7422 O 692.985 2.39738 7.67321 0
M  V30 7423 H 692.717 -0.131764 0.663034 0
M  V30 7424 H 695.271 0.255728 2.03802 0
M  V30 7425 H 693.501 -1.93877 3.34587 0
M  V30 7426 H 695.19 -1.69641 3.6875 0
M  V30 7427 H 695.956 0.5123 4.82287 0
M  V30 7428 H 691.835 -0.685143 4.5588 0
M  V30 7429 H 695.379 2.04706 6.66889 0
M  V30 7430 H 691.276 0.842077 6.39984 0
M  V30 7431 H 692.044 2.33131 7.84597 0
M  V30 7432 N 694.707 -1.5719 -0.113559 0
M  V30 7433 C 695.947 -1.86958 -0.82621 0
M  V30 7434 C 696.311 -0.748884 -1.76793 0
M  V30 7435 O 697.512 -0.92847 -2.52256 0
M  V30 7436 C 695.783 -3.21957 -1.55173 0
M  V30 7437 S 697.342 -3.73371 -2.3052 0
M  V30 7438 H 694.16 -0.655394 -0.275643 0
M  V30 7439 H 696.762 -1.95318 -0.0842684 0
M  V30 7440 H 695.466 -4.01459 -0.851977 0
M  V30 7441 H 694.997 -3.16688 -2.33393 0
M  V30 7442 H 697.012 -3.45308 -3.56338 0
M  V30 7443 N 696.185 0.383891 -1.52853 0
M  V30 7444 C 697.41 1.154 -1.7233 0
M  V30 7445 C 697.835 1.82809 -0.44298 0
M  V30 7446 O 697.193 1.71026 0.601645 0
M  V30 7447 C 697.241 2.17386 -2.87708 0
M  V30 7448 O 696.345 3.24082 -2.55038 0
M  V30 7449 H 695.686 0.335709 -0.572883 0
M  V30 7450 H 698.216 0.44662 -1.99666 0
M  V30 7451 H 698.226 2.61296 -3.1335 0
M  V30 7452 H 696.901 1.6771 -3.80587 0
M  V30 7453 H 695.478 2.85273 -2.40153 0
M  V30 7454 N 697.663 1.43903 0.642637 0
M  V30 7455 C 699.079 1.27536 0.959519 0
M  V30 7456 C 699.279 0.202751 2.00477 0
M  V30 7457 O 698.335 -0.415256 2.49062 0
M  V30 7458 C 699.648 2.6432 1.43372 0
M  V30 7459 C 701.196 2.71937 1.54981 0
M  V30 7460 C 701.671 4.09164 2.05789 0
M  V30 7461 N 703.162 4.11282 2.13076 0
M  V30 7462 C 703.897 5.14303 2.53534 0
M  V30 7463 N 703.393 6.27693 2.93212 0
M  V30 7464 N 705.186 5.01657 2.53567 0
M  V30 7465 H 697.337 2.12344 -0.0488376 0
M  V30 7466 H 699.6 0.947124 0.0407559 0
M  V30 7467 H 699.306 3.43826 0.740048 0
M  V30 7468 H 699.18 2.90432 2.40685 0
M  V30 7469 H 701.567 1.92757 2.23448 0
M  V30 7470 H 701.648 2.49578 0.560739 0
M  V30 7471 H 701.292 4.88815 1.37921 0
M  V30 7472 H 701.222 4.28893 3.05546 0
M  V30 7473 H 703.713 3.2944 1.85143 0
M  V30 7474 H 704.026 7.02125 3.22863 0
M  V30 7475 H 702.371 6.31149 2.90991 0
M  V30 7476 H 705.562 4.12134 2.21952 0
M  V30 7477 H 705.735 5.82072 2.84774 0
M  V30 7478 N 699.141 -0.881989 1.30609 0
M  V30 7479 C 700.089 -2.00942 1.17155 0
M  V30 7480 C 701.083 -1.69198 0.0827154 0
M  V30 7481 O 702.289 -1.78342 0.243775 0
M  V30 7482 H 698.664 -0.658913 0.362406 0
M  V30 7483 H 700.635 -2.09423 2.12567 0
M  V30 7484 C 699.384 -3.36294 0.883273 0
M  V30 7485 H 698.707 -3.61233 1.7132 0
M  V30 7486 H 700.147 -4.15812 0.829255 0
M  V30 7487 C 698.606 -3.34348 -0.413851 0
M  V30 7488 O 699.136 -3.75216 -1.43444 0
M  V30 7489 N 697.342 -2.87459 -0.426082 0
M  V30 7490 H 696.889 -2.54397 0.40493 0
M  V30 7491 H 696.847 -2.8654 -1.29391 0
M  V30 7492 N 700.619 -1.13374 -1.09472 0
M  V30 7493 C 701.549 -0.833268 -2.18126 0
M  V30 7494 C 702.53 0.207169 -1.68834 0
M  V30 7495 O 703.715 0.0662012 -1.94087 0
M  V30 7496 C 700.845 -0.297979 -3.46019 0
M  V30 7497 C 699.799 -1.27261 -4.08642 0
M  V30 7498 C 699.125 -0.597104 -5.31356 0
M  V30 7499 C 700.425 -2.63095 -4.51197 0
M  V30 7500 H 702.119 -1.74182 -2.43518 0
M  V30 7501 H 699.665 -0.838921 -1.17039 0
M  V30 7502 H 701.618 -0.0754444 -4.21332 0
M  V30 7503 H 700.342 0.645959 -3.20148 0
M  V30 7504 H 699.001 -1.48113 -3.35348 0
M  V30 7505 H 698.649 0.352293 -5.01765 0
M  V30 7506 H 698.349 -1.24734 -5.74208 0
M  V30 7507 H 699.873 -0.38384 -6.09392 0
M  V30 7508 H 701.287 -2.46214 -5.17737 0
M  V30 7509 H 699.684 -3.2429 -5.04932 0
M  V30 7510 H 700.754 -3.20793 -3.6362 0
M  V30 7511 N 702.098 1.27442 -0.927168 0
M  V30 7512 C 703.328 1.9821 -0.582775 0
M  V30 7513 C 703.736 1.69361 0.843406 0
M  V30 7514 O 703.079 0.950381 1.57205 0
M  V30 7515 C 703.141 3.52048 -0.728165 0
M  V30 7516 C 702.805 4.04518 -2.12637 0
M  V30 7517 C 703.802 4.17332 -3.10048 0
M  V30 7518 C 701.487 4.38879 -2.44317 0
M  V30 7519 C 703.481 4.6378 -4.37249 0
M  V30 7520 C 701.168 4.85018 -3.71753 0
M  V30 7521 C 702.166 4.97428 -4.68033 0
M  V30 7522 O 701.854 5.42556 -5.93202 0
M  V30 7523 H 701.586 0.639314 -0.219667 0
M  V30 7524 H 704.14 1.63272 -1.24626 0
M  V30 7525 H 702.37 3.86699 -0.00758143 0
M  V30 7526 H 704.059 4.04033 -0.388906 0
M  V30 7527 H 704.825 3.91046 -2.86894 0
M  V30 7528 H 700.704 4.28462 -1.70121 0
M  V30 7529 H 704.248 4.73382 -5.12402 0
M  V30 7530 H 700.145 5.10746 -3.94726 0
M  V30 7531 H 700.913 5.60811 -5.96182 0
M  V30 7532 N 703.576 0.692616 1.41565 0
M  V30 7533 C 704.822 0.222664 2.01574 0
M  V30 7534 C 705.155 -1.1737 1.54719 0
M  V30 7535 O 704.43 -1.79161 0.757084 0
M  V30 7536 C 704.713 0.277064 3.59033 0
M  V30 7537 C 704.566 1.71016 4.16021 0
M  V30 7538 C 705.885 -0.36479 4.38586 0
M  V30 7539 H 703.004 0.0823839 0.732381 0
M  V30 7540 H 705.646 0.880778 1.68352 0
M  V30 7541 H 703.796 -0.283288 3.87466 0
M  V30 7542 H 705.468 2.32413 3.98475 0
M  V30 7543 H 703.711 2.24525 3.71175 0
M  V30 7544 H 704.382 1.69978 5.25178 0
M  V30 7545 H 706.858 0.112404 4.15948 0
M  V30 7546 H 705.734 -0.296169 5.481 0
M  V30 7547 H 705.995 -1.44506 4.17816 0
M  V30 7548 N 705.054 -1.51416 0.437162 0
M  V30 7549 C 706.279 -2.0699 -0.130424 0
M  V30 7550 C 706.704 -1.30249 -1.35709 0
M  V30 7551 O 706.062 -0.340388 -1.78076 0
M  V30 7552 C 706.11 -3.5801 -0.43142 0
M  V30 7553 O 705.214 -3.8345 -1.5179 0
M  V30 7554 H 704.555 -0.663997 -0.00194339 0
M  V30 7555 H 707.085 -1.95029 0.618445 0
M  V30 7556 H 707.095 -4.02261 -0.681926 0
M  V30 7557 H 705.77 -4.13291 0.465137 0
M  V30 7558 H 704.347 -3.51062 -1.25737 0
M  V30 7559 N 706.532 -0.168513 -1.56696 0
M  V30 7560 C 707.462 0.758563 -2.20835 0
M  V30 7561 C 708.443 1.24121 -1.1631 0
M  V30 7562 O 709.628 1.29487 -1.4473 0
M  V30 7563 C 706.758 1.9892 -2.8469 0
M  V30 7564 C 705.712 1.64252 -3.95228 0
M  V30 7565 C 705.038 2.94757 -4.46119 0
M  V30 7566 C 706.338 0.872675 -5.14958 0
M  V30 7567 H 708.032 0.223953 -2.98561 0
M  V30 7568 H 705.578 0.106277 -1.43607 0
M  V30 7569 H 707.531 2.64275 -3.28233 0
M  V30 7570 H 706.255 2.5479 -2.04327 0
M  V30 7571 H 704.914 1.01266 -3.52336 0
M  V30 7572 H 704.562 3.48662 -3.62552 0
M  V30 7573 H 704.262 2.72316 -5.2069 0
M  V30 7574 H 705.786 3.61147 -4.92347 0
M  V30 7575 H 707.2 1.42875 -5.55211 0
M  V30 7576 H 705.597 0.747402 -5.95428 0
M  V30 7577 H 706.667 -0.131535 -4.84722 0
M  V30 7578 N 708.01 1.57248 0.105221 0
M  V30 7579 C 708.94 2.04374 1.12931 0
M  V30 7580 C 709.921 0.93074 1.42377 0
M  V30 7581 O 711.106 1.20136 1.52581 0
M  V30 7582 C 708.236 2.45967 2.45189 0
M  V30 7583 C 707.19 3.60838 2.30174 0
M  V30 7584 C 706.516 3.88374 3.67518 0
M  V30 7585 C 707.816 4.92084 1.75073 0
M  V30 7586 H 709.51 2.9018 0.737287 0
M  V30 7587 H 707.056 1.39601 0.353211 0
M  V30 7588 H 709.009 2.77542 3.17094 0
M  V30 7589 H 707.733 1.57148 2.86308 0
M  V30 7590 H 706.392 3.29493 1.60716 0
M  V30 7591 H 706.04 2.96739 4.06147 0
M  V30 7592 H 705.74 4.65703 3.58321 0
M  V30 7593 H 707.264 4.22415 4.40906 0
M  V30 7594 H 708.678 5.22106 2.36809 0
M  V30 7595 H 707.075 5.73507 1.76662 0
M  V30 7596 H 708.145 4.79684 0.709347 0
M  V30 7597 N 709.488 -0.375779 1.53054 0
M  V30 7598 C 710.418 -1.46598 1.81745 0
M  V30 7599 C 711.399 -1.56337 0.670286 0
M  V30 7600 O 712.584 -1.71071 0.919158 0
M  V30 7601 C 709.714 -2.84058 1.99821 0
M  V30 7602 C 708.668 -2.8915 3.15557 0
M  V30 7603 C 707.994 -4.29187 3.18908 0
M  V30 7604 C 709.294 -2.57595 4.54359 0
M  V30 7605 H 710.988 -1.22837 2.73041 0
M  V30 7606 H 708.534 -0.589485 1.31381 0
M  V30 7607 H 710.487 -3.60342 2.18475 0
M  V30 7608 H 709.211 -3.09184 1.05226 0
M  V30 7609 H 707.87 -2.15316 2.96706 0
M  V30 7610 H 707.518 -4.51374 2.2197 0
M  V30 7611 H 707.218 -4.33512 3.96662 0
M  V30 7612 H 708.742 -5.07359 3.39734 0
M  V30 7613 H 710.156 -3.23595 4.73243 0
M  V30 7614 H 708.553 -2.73252 5.34279 0
M  V30 7615 H 709.623 -1.52882 4.60169 0
M  V30 7616 N 710.966 -1.44241 -0.634997 0
M  V30 7617 C 711.896 -1.53632 -1.7584 0
M  V30 7618 C 712.877 -0.389603 -1.65578 0
M  V30 7619 O 714.062 -0.609219 -1.84397 0
M  V30 7620 C 711.192 -1.47644 -3.14354 0
M  V30 7621 C 710.146 -2.60752 -3.394 0
M  V30 7622 C 709.472 -2.39817 -4.77904 0
M  V30 7623 C 710.772 -4.02921 -3.32343 0
M  V30 7624 H 712.466 -2.47662 -1.68238 0
M  V30 7625 H 710.012 -1.19197 -0.807969 0
M  V30 7626 H 711.965 -1.52815 -3.92716 0
M  V30 7627 H 710.689 -0.501284 -3.2273 0
M  V30 7628 H 709.348 -2.54965 -2.63417 0
M  V30 7629 H 708.996 -1.40502 -4.82978 0
M  V30 7630 H 708.696 -3.15649 -4.9562 0
M  V30 7631 H 710.22 -2.46799 -5.585 0
M  V30 7632 H 711.634 -4.10098 -4.00615 0
M  V30 7633 H 710.031 -4.78925 -3.61595 0
M  V30 7634 H 711.101 -4.26766 -2.30215 0
M  V30 7635 N 712.444 0.87505 -1.31075 0
M  V30 7636 C 713.674 1.65818 -1.2324 0
M  V30 7637 C 714.082 1.8808 0.205536 0
M  V30 7638 O 713.425 1.43548 1.14628 0
M  V30 7639 C 713.487 3.05131 -1.90093 0
M  V30 7640 C 713.151 3.05999 -3.39432 0
M  V30 7641 C 714.148 2.84328 -4.35263 0
M  V30 7642 C 711.833 3.27281 -3.81041 0
M  V30 7643 C 713.827 2.83912 -5.70678 0
M  V30 7644 C 711.514 3.26493 -5.16571 0
M  V30 7645 C 712.512 3.04834 -6.112 0
M  V30 7646 O 712.2 3.03882 -7.44252 0
M  V30 7647 H 711.932 0.52387 -0.427242 0
M  V30 7648 H 714.486 1.10086 -1.73408 0
M  V30 7649 H 712.716 3.62568 -1.34468 0
M  V30 7650 H 714.405 3.65641 -1.76242 0
M  V30 7651 H 715.171 2.67673 -4.04445 0
M  V30 7652 H 711.05 3.43171 -3.07822 0
M  V30 7653 H 714.594 2.66925 -6.44513 0
M  V30 7654 H 710.491 3.42687 -5.47025 0
M  V30 7655 H 711.259 3.19979 -7.53363 0
M  V30 7656 N 713.922 1.13953 1.08869 0
M  V30 7657 C 714.854 0.779906 2.15523 0
M  V30 7658 C 715.867 -0.20102 1.61554 0
M  V30 7659 O 717.056 0.0200049 1.78489 0
M  V30 7660 C 714.156 0.136226 3.38626 0
M  V30 7661 C 713.329 1.15069 4.21993 0
M  V30 7662 C 712.388 0.531645 5.23507 0
M  V30 7663 O 711.414 1.19327 5.56552 0
M  V30 7664 N 712.616 -0.693734 5.7634 0
M  V30 7665 H 715.381 1.69769 2.46979 0
M  V30 7666 H 712.942 1.03331 1.24637 0
M  V30 7667 H 714.934 -0.290295 4.03658 0
M  V30 7668 H 713.504 -0.684603 3.05011 0
M  V30 7669 H 712.724 1.75431 3.53012 0
M  V30 7670 H 714.012 1.83614 4.74514 0
M  V30 7671 H 713.41 -1.24994 5.51718 0
M  V30 7672 H 711.967 -1.06283 6.43076 0
M  V30 7673 N 715.4 -1.26948 0.933913 0
M  V30 7674 C 716.628 -1.98186 0.59414 0
M  V30 7675 C 717.043 -1.69614 -0.829257 0
M  V30 7676 O 716.4 -0.960213 -1.55197 0
M  V30 7677 C 716.451 -3.52123 0.818026 0
M  V30 7678 O 716.172 -3.79698 2.18543 0
M  V30 7679 C 717.673 -4.40608 0.48781 0
M  V30 7680 H 714.893 -0.632305 0.224569 0
M  V30 7681 H 717.437 -1.61646 1.25263 0
M  V30 7682 H 715.592 -3.86851 0.206246 0
M  V30 7683 H 716.006 -4.7426 2.24005 0
M  V30 7684 H 717.48 -5.47606 0.695126 0
M  V30 7685 H 717.957 -4.35394 -0.576913 0
M  V30 7686 H 718.563 -4.11411 1.078 0
M  V30 7687 N 716.879 -0.700114 -1.41195 0
M  V30 7688 C 718.126 -0.233006 -2.01155 0
M  V30 7689 C 718.454 1.16883 -1.55462 0
M  V30 7690 O 717.709 1.80395 -0.758695 0
M  V30 7691 C 718.008 -0.243986 -3.56566 0
M  V30 7692 C 717.674 -1.59397 -4.21786 0
M  V30 7693 C 716.336 -1.96355 -4.39316 0
M  V30 7694 C 718.688 -2.48192 -4.58312 0
M  V30 7695 C 716.016 -3.21683 -4.9065 0
M  V30 7696 C 718.368 -3.72857 -5.11039 0
M  V30 7697 C 717.032 -4.09951 -5.26779 0
M  V30 7698 H 716.302 -0.085263 -0.736078 0
M  V30 7699 H 718.949 -0.9001 -1.69028 0
M  V30 7700 H 717.254 0.506663 -3.8851 0
M  V30 7701 H 718.951 0.135031 -4.00773 0
M  V30 7702 H 715.541 -1.29654 -4.08519 0
M  V30 7703 H 719.725 -2.20918 -4.4442 0
M  V30 7704 H 714.981 -3.50412 -5.01021 0
M  V30 7705 H 719.155 -4.41844 -5.38282 0
M  V30 7706 H 716.782 -5.07136 -5.66319 0
M  V30 7707 N 718.357 1.51182 -0.445186 0
M  V30 7708 C 719.605 2.01753 0.11841 0
M  V30 7709 C 719.926 1.33087 1.42523 0
M  V30 7710 O 719.196 0.467891 1.9023 0
M  V30 7711 H 717.776 0.745536 0.0467492 0
M  V30 7712 H 720.438 1.85765 -0.589688 0
M  V30 7713 H 719.534 3.10762 0.288665 0
M  V30 7714 N 719.835 0.176821 1.56605 0
M  V30 7715 C 721.251 -0.179278 1.5859 0
M  V30 7716 C 721.451 -1.62433 1.19238 0
M  V30 7717 O 720.507 -2.35665 0.906552 0
M  V30 7718 C 721.82 0.106524 3.00511 0
M  V30 7719 C 723.368 0.0451731 3.12967 0
M  V30 7720 C 723.843 0.304038 4.5699 0
M  V30 7721 N 725.334 0.252008 4.62514 0
M  V30 7722 C 726.069 0.426404 5.71812 0
M  V30 7723 N 725.565 0.660155 6.89648 0
M  V30 7724 N 727.358 0.361926 5.60934 0
M  V30 7725 H 719.509 1.12001 1.8047 0
M  V30 7726 H 721.772 0.445679 0.836704 0
M  V30 7727 H 721.478 1.10778 3.33798 0
M  V30 7728 H 721.352 -0.599337 3.72408 0
M  V30 7729 H 723.739 -0.946662 2.79504 0
M  V30 7730 H 723.82 0.78383 2.43495 0
M  V30 7731 H 723.464 1.29311 4.91163 0
M  V30 7732 H 723.394 -0.455294 5.24628 0
M  V30 7733 H 725.885 0.0772102 3.77821 0
M  V30 7734 H 726.198 0.782529 7.68828 0
M  V30 7735 H 724.543 0.696835 6.91498 0
M  V30 7736 H 727.734 0.17986 4.67754 0
M  V30 7737 H 727.907 0.501263 6.46058 0
M  V30 7738 N 721.313 -1.57302 -0.09688 0
M  V30 7739 C 722.26 -2.01933 -1.11766 0
M  V30 7740 C 723.23 -0.895329 -1.39904 0
M  V30 7741 O 724.415 -1.16119 -1.51397 0
M  V30 7742 C 721.555 -2.44726 -2.43317 0
M  V30 7743 C 720.668 -3.70639 -2.21925 0
M  V30 7744 C 719.803 -4.02318 -3.46862 0
M  V30 7745 C 718.842 -5.21346 -3.20725 0
M  V30 7746 N 717.979 -5.48787 -4.37924 0
M  V30 7747 H 722.819 -2.88919 -0.730075 0
M  V30 7748 H 720.356 -1.42901 -0.348962 0
M  V30 7749 H 722.314 -2.6758 -3.20088 0
M  V30 7750 H 720.944 -1.60753 -2.79926 0
M  V30 7751 H 719.996 -3.55271 -1.35965 0
M  V30 7752 H 721.308 -4.57557 -1.98603 0
M  V30 7753 H 720.462 -4.25939 -4.32042 0
M  V30 7754 H 719.201 -3.13918 -3.73238 0
M  V30 7755 H 718.206 -4.97547 -2.33938 0
M  V30 7756 H 719.431 -6.11343 -2.95697 0
M  V30 7757 H 717.377 -4.63346 -4.64378 0
M  V30 7758 H 717.294 -6.30073 -4.17785 0
M  V30 7759 H 718.562 -5.76943 -5.24173 0
M  V30 7760 N 722.791 0.367657 -1.53252 0
M  V30 7761 C 723.721 1.45632 -1.8252 0
M  V30 7762 C 724.702 1.55979 -0.678568 0
M  V30 7763 O 725.887 1.70581 -0.928217 0
M  V30 7764 C 723.017 2.82994 -2.01325 0
M  V30 7765 C 721.971 2.87473 -3.17086 0
M  V30 7766 C 721.297 4.2749 -3.21179 0
M  V30 7767 C 722.597 2.55182 -4.55719 0
M  V30 7768 H 724.291 1.21387 -2.73689 0
M  V30 7769 H 721.837 0.58251 -1.31692 0
M  V30 7770 H 723.79 3.59179 -2.20383 0
M  V30 7771 H 722.514 3.08622 -1.06864 0
M  V30 7772 H 721.173 2.13739 -2.97844 0
M  V30 7773 H 720.821 4.5019 -2.24361 0
M  V30 7774 H 720.521 4.31403 -3.98955 0
M  V30 7775 H 722.045 5.0555 -3.42419 0
M  V30 7776 H 723.459 3.21081 -4.74953 0
M  V30 7777 H 721.856 2.70414 -5.3572 0
M  V30 7778 H 722.926 1.5044 -4.60973 0
M  V30 7779 N 724.269 1.44576 0.627338 0
M  V30 7780 C 725.219 1.48168 1.73293 0
M  V30 7781 C 726.203 0.347045 1.57113 0
M  V30 7782 O 727.395 0.592605 1.66785 0
M  V30 7783 C 724.524 1.43236 3.11991 0
M  V30 7784 C 723.61 2.61828 3.33627 0
M  V30 7785 N 724.001 3.87053 3.25612 0
M  V30 7786 C 722.299 2.57104 3.64436 0
M  V30 7787 C 723 4.66093 3.48041 0
M  V30 7788 N 721.976 3.97228 3.71095 0
M  V30 7789 H 725.778 2.42832 1.6556 0
M  V30 7790 H 723.292 1.39592 0.829934 0
M  V30 7791 H 725.289 1.43893 3.91281 0
M  V30 7792 H 723.949 0.496133 3.20887 0
M  V30 7793 H 724.96 4.18966 3.04447 0
M  V30 7794 H 721.637 1.72295 3.8029 0
M  V30 7795 H 723.027 5.75117 3.47404 0
M  V30 7796 N 725.747 -0.868086 1.31537 0
M  V30 7797 C 726.677 -1.99131 1.21939 0
M  V30 7798 C 727.658 -1.69768 0.106166 0
M  V30 7799 O 728.843 -1.92006 0.291081 0
M  V30 7800 C 725.973 -3.34676 0.927879 0
M  V30 7801 C 724.927 -3.7835 2.00088 0
M  V30 7802 C 724.253 -5.11375 1.56203 0
M  V30 7803 C 725.553 -3.95256 3.41424 0
M  V30 7804 H 727.247 -2.07419 2.15911 0
M  V30 7805 H 724.793 -0.996569 1.03945 0
M  V30 7806 H 726.746 -4.12793 0.847327 0
M  V30 7807 H 725.47 -3.26565 -0.0475042 0
M  V30 7808 H 724.129 -3.02474 2.07135 0
M  V30 7809 H 723.777 -4.99709 0.57445 0
M  V30 7810 H 723.477 -5.41568 2.27985 0
M  V30 7811 H 725.001 -5.92001 1.49558 0
M  V30 7812 H 726.415 -4.63764 3.3704 0
M  V30 7813 H 724.812 -4.36849 4.1144 0
M  V30 7814 H 725.882 -2.98579 3.82072 0
M  V30 7815 N 727.225 -1.14528 -1.08264 0
M  V30 7816 C 728.455 -0.936604 -1.8415 0
M  V30 7817 C 728.863 0.518298 -1.81962 0
M  V30 7818 O 728.206 1.37096 -1.22272 0
M  V30 7819 C 728.268 -1.36182 -3.32708 0
M  V30 7820 C 727.932 -2.83257 -3.58629 0
M  V30 7821 C 728.929 -3.81366 -3.5335 0
M  V30 7822 C 726.614 -3.20704 -3.86593 0
M  V30 7823 C 728.608 -5.14929 -3.75668 0
M  V30 7824 C 726.295 -4.54443 -4.08564 0
M  V30 7825 C 727.293 -5.51365 -4.03095 0
M  V30 7826 O 726.981 -6.8269 -4.24488 0
M  V30 7827 H 726.713 -0.333254 -0.588148 0
M  V30 7828 H 729.267 -1.5247 -1.3763 0
M  V30 7829 H 727.497 -0.717063 -3.79994 0
M  V30 7830 H 729.186 -1.12372 -3.90035 0
M  V30 7831 H 729.952 -3.53781 -3.31759 0
M  V30 7832 H 725.831 -2.45857 -3.89969 0
M  V30 7833 H 729.375 -5.90568 -3.71315 0
M  V30 7834 H 725.272 -4.81747 -4.29639 0
M  V30 7835 H 726.04 -6.8897 -4.41886 0
M  V30 7836 N 728.703 1.26451 -0.940633 0
M  V30 7837 C 729.928 1.98407 -0.60412 0
M  V30 7838 C 730.353 1.69584 0.81382 0
M  V30 7839 O 729.711 0.943553 1.54812 0
M  V30 7840 C 729.759 3.50387 -0.852136 0
M  V30 7841 O 728.863 4.1233 0.076013 0
M  V30 7842 H 728.204 0.622466 -0.231153 0
M  V30 7843 H 730.734 1.60932 -1.26342 0
M  V30 7844 H 730.744 4.00614 -0.772816 0
M  V30 7845 H 729.419 3.70696 -1.88566 0
M  V30 7846 H 727.996 3.7286 -0.0543187 0
M  V30 7847 N 730.181 0.707592 1.40822 0
M  V30 7848 C 731.131 0.0265008 2.27985 0
M  V30 7849 C 732.115 -0.740685 1.42838 0
M  V30 7850 O 733.307 -0.6142 1.66002 0
M  V30 7851 C 730.436 -0.900382 3.31282 0
M  V30 7852 C 729.522 -0.128807 4.23904 0
M  V30 7853 N 729.913 0.883744 4.9802 0
M  V30 7854 C 728.211 -0.362539 4.44524 0
M  V30 7855 C 728.912 1.34666 5.65898 0
M  V30 7856 N 727.888 0.670306 5.39451 0
M  V30 7857 H 731.69 0.802667 2.82727 0
M  V30 7858 H 729.204 0.539475 1.53178 0
M  V30 7859 H 731.201 -1.40357 3.92563 0
M  V30 7860 H 729.861 -1.67601 2.781 0
M  V30 7861 H 730.872 1.26435 5.0223 0
M  V30 7862 H 727.549 -1.11512 4.02332 0
M  V30 7863 H 728.939 2.18756 6.35292 0
M  V30 7864 N 731.66 -1.50943 0.453197 0
M  V30 7865 C 733.071 -1.86699 -0.00619892 0
M  V30 7866 C 733.422 -1.3693 -1.40515 0
M  V30 7867 O 732.547 -0.726715 -2.03833 0
M  V30 7868 C 733.142 -3.38795 -0.018025 0
M  V30 7869 C 731.701 -3.74028 -0.421885 0
M  V30 7870 C 730.848 -2.74752 0.375087 0
M  V30 7871 H 733.799 -1.43942 0.668317 0
M  V30 7872 H 733.82 -3.71468 -0.824125 0
M  V30 7873 H 733.332 -3.74988 1.00028 0
M  V30 7874 H 731.433 -3.43431 -1.44521 0
M  V30 7875 H 731.546 -4.78908 -0.135664 0
M  V30 7876 H 729.91 -2.5414 -0.168794 0
M  V30 7877 H 730.693 -3.13787 1.39256 0
M  V30 7878 N 733.138 -0.185124 -1.56509 0
M  V30 7879 C 734.387 0.456421 -1.96468 0
M  V30 7880 C 734.7 1.63448 -1.07444 0
M  V30 7881 O 735.906 2.34316 -1.37143 0
M  V30 7882 C 734.362 0.863404 -3.4939 0
M  V30 7883 C 733.97 -0.289815 -4.47062 0
M  V30 7884 C 735.714 1.47259 -3.98139 0
M  V30 7885 C 733.621 0.137571 -5.9124 0
M  V30 7886 H 732.551 0.17429 -0.733579 0
M  V30 7887 H 735.202 -0.275554 -1.81419 0
M  V30 7888 H 733.584 1.65176 -3.59907 0
M  V30 7889 H 734.758 -1.06728 -4.4827 0
M  V30 7890 H 733.073 -0.809851 -4.08449 0
M  V30 7891 H 735.67 1.80463 -5.03326 0
M  V30 7892 H 736.013 2.3755 -3.41871 0
M  V30 7893 H 736.546 0.748405 -3.90696 0
M  V30 7894 H 733.285 -0.730907 -6.51412 0
M  V30 7895 H 732.805 0.8801 -5.93308 0
M  V30 7896 H 734.484 0.576771 -6.44424 0
M  V30 7897 N 734.616 1.57351 0.0885366 0
M  V30 7898 C 735.865 1.85604 0.789556 0
M  V30 7899 C 736.178 0.775352 1.79576 0
M  V30 7900 O 737.384 0.945206 2.54515 0
M  V30 7901 C 735.84 3.29175 1.45506 0
M  V30 7902 C 735.448 4.45331 0.488278 0
M  V30 7903 C 737.192 3.66646 2.13942 0
M  V30 7904 C 735.099 5.79937 1.15874 0
M  V30 7905 H 734.029 0.692346 0.298619 0
M  V30 7906 H 736.68 1.83451 0.0425821 0
M  V30 7907 H 735.062 3.25889 2.24972 0
M  V30 7908 H 736.236 4.59977 -0.275359 0
M  V30 7909 H 734.551 4.16301 -0.0907363 0
M  V30 7910 H 737.148 4.64498 2.6485 0
M  V30 7911 H 737.491 2.956 2.93132 0
M  V30 7912 H 738.024 3.71848 1.41328 0
M  V30 7913 H 734.763 6.54232 0.407508 0
M  V30 7914 H 734.283 5.69123 1.89364 0
M  V30 7915 H 735.962 6.24718 1.68336 0
M  V30 7916 N 736.094 -0.359525 1.53444 0
M  V30 7917 C 737.024 -1.44662 1.8329 0
M  V30 7918 C 738.005 -1.55617 0.68683 0
M  V30 7919 O 739.19 -1.70086 0.93725 0
M  V30 7920 C 736.32 -2.81923 2.02822 0
M  V30 7921 C 735.274 -2.85787 3.18606 0
M  V30 7922 C 734.6 -4.25781 3.23442 0
M  V30 7923 C 735.9 -2.52762 4.57065 0
M  V30 7924 H 737.594 -1.19934 2.74329 0
M  V30 7925 H 735.14 -0.575517 1.31999 0
M  V30 7926 H 737.093 -3.58005 2.22285 0
M  V30 7927 H 735.817 -3.08051 1.085 0
M  V30 7928 H 734.476 -2.12157 2.98973 0
M  V30 7929 H 734.124 -4.48994 2.26745 0
M  V30 7930 H 733.824 -4.29281 4.01238 0
M  V30 7931 H 735.348 -5.03727 3.45096 0
M  V30 7932 H 736.762 -3.18557 4.76649 0
M  V30 7933 H 735.159 -2.67569 5.37147 0
M  V30 7934 H 736.229 -1.47993 4.61764 0
M  V30 7935 N 737.572 -1.44907 -0.619662 0
M  V30 7936 C 738.82 -1.47999 -1.37625 0
M  V30 7937 C 739.141 -0.118295 -1.94641 0
M  V30 7938 O 738.411 0.85086 -1.76457 0
M  V30 7939 H 736.991 -0.544993 -0.510873 0
M  V30 7940 H 739.653 -1.80772 -0.728522 0
M  V30 7941 H 738.749 -2.21196 -2.20179 0
M  V30 7942 N 739.05 0.861098 -1.31996 0
M  V30 7943 C 740.297 1.61481 -1.22188 0
M  V30 7944 C 740.625 1.93276 0.217853 0
M  V30 7945 O 739.88 1.56942 1.16909 0
M  V30 7946 C 740.179 2.94822 -2.02027 0
M  V30 7947 C 739.845 2.82483 -3.51446 0
M  V30 7948 C 738.507 2.78825 -3.92186 0
M  V30 7949 C 740.859 2.68878 -4.46491 0
M  V30 7950 C 738.187 2.59433 -5.26224 0
M  V30 7951 C 740.539 2.51022 -5.80664 0
M  V30 7952 C 739.203 2.45753 -6.20614 0
M  V30 7953 H 738.473 0.590902 -0.447119 0
M  V30 7954 H 741.12 0.999376 -1.63355 0
M  V30 7955 H 739.425 3.6045 -1.53569 0
M  V30 7956 H 741.122 3.52149 -1.91812 0
M  V30 7957 H 737.712 2.86152 -3.19085 0
M  V30 7958 H 741.896 2.70754 -4.1594 0
M  V30 7959 H 737.152 2.53784 -5.5624 0
M  V30 7960 H 741.326 2.39473 -6.53931 0
M  V30 7961 H 738.953 2.30485 -7.24417 0
M  V30 7962 N 740.528 1.15101 1.07655 0
M  V30 7963 C 741.944 0.893004 1.32279 0
M  V30 7964 C 742.144 -0.461701 1.96139 0
M  V30 7965 O 741.2 -1.20431 2.21929 0
M  V30 7966 C 742.513 2.03161 2.21689 0
M  V30 7967 C 744.061 2.06579 2.35147 0
M  V30 7968 C 744.536 3.19754 3.27905 0
M  V30 7969 N 746.027 3.19382 3.35484 0
M  V30 7970 C 746.762 4.03592 4.07309 0
M  V30 7971 N 746.258 4.97859 4.81776 0
M  V30 7972 N 748.051 3.91626 4.03219 0
M  V30 7973 H 740.202 2.02341 0.645886 0
M  V30 7974 H 742.465 0.882127 0.347211 0
M  V30 7975 H 742.171 3.00934 1.82021 0
M  V30 7976 H 742.045 1.96132 3.22199 0
M  V30 7977 H 744.432 1.09408 2.74069 0
M  V30 7978 H 744.513 2.17676 1.34353 0
M  V30 7979 H 744.157 4.17175 2.89702 0
M  V30 7980 H 744.087 3.05893 4.28645 0
M  V30 7981 H 746.578 2.51112 2.82403 0
M  V30 7982 H 746.891 5.58563 5.34067 0
M  V30 7983 H 745.236 5.0185 4.80803 0
M  V30 7984 H 748.427 3.17295 3.44154 0
M  V30 7985 H 748.6 4.57479 4.5893 0
M  V30 7986 N 742.006 -1.2595 0.947325 0
M  V30 7987 C 742.953 -2.26159 0.460497 0
M  V30 7988 C 743.923 -1.58919 -0.483125 0
M  V30 7989 O 745.108 -1.86603 -0.397983 0
M  V30 7990 C 742.248 -3.441 -0.26247 0
M  V30 7991 C 741.361 -4.25999 0.717539 0
M  V30 7992 C 740.496 -5.31193 -0.0272486 0
M  V30 7993 C 739.535 -6.04774 0.944177 0
M  V30 7994 N 738.672 -7.01721 0.230741 0
M  V30 7995 H 743.512 -2.67173 1.31995 0
M  V30 7996 H 741.049 -1.31358 0.662088 0
M  V30 7997 H 743.007 -4.11317 -0.698137 0
M  V30 7998 H 741.637 -3.03983 -1.08602 0
M  V30 7999 H 740.689 -3.58513 1.27171 0
M  V30 8000 H 742.001 -4.76981 1.45913 0
M  V30 8001 H 741.155 -6.04451 -0.521903 0
M  V30 8002 H 739.894 -4.81066 -0.801682 0
M  V30 8003 H 738.899 -5.30338 1.4499 0
M  V30 8004 H 740.124 -6.56991 1.71872 0
M  V30 8005 H 738.07 -6.53895 -0.525088 0
M  V30 8006 H 737.987 -7.50484 0.911556 0
M  V30 8007 H 739.255 -7.79122 -0.242616 0
M  V30 8008 N 743.484 -0.715051 -1.40445 0
M  V30 8009 C 744.733 -0.251322 -2.00128 0
M  V30 8010 C 745.046 1.16194 -1.57347 0
M  V30 8011 O 746.252 1.72416 -2.09726 0
M  V30 8012 C 744.708 -0.398407 -3.57688 0
M  V30 8013 C 744.316 -1.81828 -4.09442 0
M  V30 8014 C 746.06 0.00455625 -4.245 0
M  V30 8015 C 743.967 -1.91598 -5.59503 0
M  V30 8016 H 742.897 -0.0902081 -0.748584 0
M  V30 8017 H 745.548 -0.886062 -1.6069 0
M  V30 8018 H 743.93 0.304908 -3.94824 0
M  V30 8019 H 745.104 -2.55193 -3.83684 0
M  V30 8020 H 743.419 -2.17266 -3.55225 0
M  V30 8021 H 746.016 -0.0477303 -5.34679 0
M  V30 8022 H 746.359 1.04636 -4.02935 0
M  V30 8023 H 746.892 -0.649184 -3.92467 0
M  V30 8024 H 743.631 -2.93898 -5.85922 0
M  V30 8025 H 743.151 -1.22644 -5.87127 0
M  V30 8026 H 744.83 -1.68785 -6.24596 0
M  V30 8027 N 744.962 1.50701 -0.461195 0
M  V30 8028 C 746.373 1.867 -0.00370227 0
M  V30 8029 C 746.724 1.37673 1.39787 0
M  V30 8030 O 745.849 0.737515 2.03445 0
M  V30 8031 C 746.444 3.388 5.75786e-05 0
M  V30 8032 C 745.003 3.74247 0.402044 0
M  V30 8033 C 744.15 2.74549 -0.389652 0
M  V30 8034 H 747.101 1.43585 -0.675942 0
M  V30 8035 H 747.122 3.719 0.804414 0
M  V30 8036 H 746.634 3.74452 -1.02015 0
M  V30 8037 H 744.735 3.44192 1.42697 0
M  V30 8038 H 744.848 4.78973 0.110265 0
M  V30 8039 H 743.212 2.54226 0.155314 0
M  V30 8040 H 743.995 3.13044 -1.40919 0
M  V30 8041 N 746.441 0.193421 1.56409 0
M  V30 8042 C 747.374 -0.767384 2.1491 0
M  V30 8043 C 748.352 -1.21075 1.08534 0
M  V30 8044 O 749.536 -1.29856 1.36637 0
M  V30 8045 C 746.663 -2.03615 2.70663 0
M  V30 8046 C 745.709 -1.73505 3.89613 0
M  V30 8047 S 746.542 -0.884645 5.28142 0
M  V30 8048 C 747.698 -2.1636 5.87315 0
M  V30 8049 H 747.931 -0.270053 2.96071 0
M  V30 8050 H 745.464 -0.0215546 1.54385 0
M  V30 8051 H 747.422 -2.7648 3.03429 0
M  V30 8052 H 746.083 -2.50461 1.89547 0
M  V30 8053 H 745.276 -2.67701 4.27027 0
M  V30 8054 H 744.878 -1.08723 3.57848 0
M  V30 8055 H 747.17 -3.11629 6.01576 0
M  V30 8056 H 748.113 -1.8338 6.83943 0
M  V30 8057 H 748.521 -2.29129 5.15907 0
M  V30 8058 N 747.919 -1.57396 -0.0801906 0
M  V30 8059 C 749.167 -1.86467 -0.779384 0
M  V30 8060 C 749.488 -0.784243 -1.78535 0
M  V30 8061 O 748.758 0.187986 -1.94996 0
M  V30 8062 H 747.338 -0.68806 -0.29083 0
M  V30 8063 H 750 -1.94813 -0.0582749 0
M  V30 8064 H 749.096 -2.83701 -1.30078 0
M  V30 8065 N 749.397 0.351382 -1.53633 0
M  V30 8066 C 750.643 1.09411 -1.70754 0
M  V30 8067 C 750.976 1.88544 -0.465293 0
M  V30 8068 O 750.251 1.86923 0.537608 0
M  V30 8069 C 750.534 2.04173 -2.96623 0
M  V30 8070 C 750.387 1.28556 -4.31038 0
M  V30 8071 C 751.706 3.04102 -3.18136 0
M  V30 8072 H 748.825 0.396373 -0.621335 0
M  V30 8073 H 751.467 0.373464 -1.86293 0
M  V30 8074 H 749.617 2.65625 -2.83506 0
M  V30 8075 H 751.289 0.697786 -4.55992 0
M  V30 8076 H 749.532 0.587498 -4.29803 0
M  V30 8077 H 750.203 1.97989 -5.15271 0
M  V30 8078 H 752.679 2.5276 -3.30532 0
M  V30 8079 H 751.555 3.67616 -4.07615 0
M  V30 8080 H 751.816 3.75053 -2.34068 0
M  V30 8081 N 750.875 1.45233 0.611969 0
M  V30 8082 C 752.123 1.48727 1.36838 0
M  V30 8083 C 752.444 0.128616 1.94575 0
M  V30 8084 O 751.714 -0.84149 1.76906 0
M  V30 8085 H 750.294 0.547695 0.507976 0
M  V30 8086 H 752.956 1.81156 0.718925 0
M  V30 8087 H 752.052 2.2236 2.19003 0
M  V30 8088 N 752.353 -0.854086 1.3245 0
M  V30 8089 C 753.283 -1.97827 1.24044 0
M  V30 8090 C 754.264 -1.69646 0.124166 0
M  V30 8091 O 755.449 -1.91687 0.31143 0
M  V30 8092 C 752.579 -3.33673 0.963324 0
M  V30 8093 C 751.533 -3.76207 2.04089 0
M  V30 8094 C 750.859 -5.0969 1.61618 0
M  V30 8095 C 752.159 -3.91612 3.45597 0
M  V30 8096 H 753.853 -2.05118 2.18099 0
M  V30 8097 H 751.399 -0.985489 1.04996 0
M  V30 8098 H 753.352 -4.11871 0.891061 0
M  V30 8099 H 752.076 -3.26597 -0.0128649 0
M  V30 8100 H 750.735 -3.0026 2.10332 0
M  V30 8101 H 750.383 -4.99072 0.627418 0
M  V30 8102 H 750.083 -5.3912 2.33717 0
M  V30 8103 H 751.607 -5.90381 1.55829 0
M  V30 8104 H 753.021 -4.60163 3.4194 0
M  V30 8105 H 751.418 -4.3246 4.16051 0
M  V30 8106 H 752.488 -2.9451 3.85217 0
M  V30 8107 N 753.831 -1.1567 -1.07043 0
M  V30 8108 C 755.056 -0.957946 -1.83952 0
M  V30 8109 C 755.481 0.488807 -1.81638 0
M  V30 8110 O 754.839 1.34869 -1.21162 0
M  V30 8111 C 754.887 -1.48064 -3.288 0
M  V30 8112 O 753.991 -0.681921 -4.06723 0
M  V30 8113 H 753.332 -0.341453 -0.569479 0
M  V30 8114 H 755.862 -1.53728 -1.35015 0
M  V30 8115 H 755.872 -1.49484 -3.7963 0
M  V30 8116 H 754.547 -2.53388 -3.29799 0
M  V30 8117 H 753.124 -0.737612 -3.65532 0
M  V30 8118 N 755.309 1.25446 -0.953992 0
M  V30 8119 C 756.72 1.75047 -0.649255 0
M  V30 8120 C 757.071 1.77527 0.835385 0
M  V30 8121 O 756.196 1.39569 1.65377 0
M  V30 8122 C 756.791 3.17889 -1.17183 0
M  V30 8123 C 755.35 3.65052 -0.917267 0
M  V30 8124 C 754.497 2.44124 -1.31525 0
M  V30 8125 H 757.448 1.11342 -1.13087 0
M  V30 8126 H 757.469 3.76768 -0.531616 0
M  V30 8127 H 756.981 3.16052 -2.25239 0
M  V30 8128 H 755.082 3.72305 0.148354 0
M  V30 8129 H 755.195 4.53222 -1.55328 0
M  V30 8130 H 753.559 2.43906 -0.733624 0
M  V30 8131 H 754.342 2.44979 -2.405 0
M  V30 8132 N 756.787 0.722489 1.40064 0
M  V30 8133 C 758.034 0.264979 2.00759 0
M  V30 8134 C 758.362 -1.14395 1.57302 0
M  V30 8135 O 757.617 -1.79165 0.787298 0
M  V30 8136 C 757.916 0.300682 3.56133 0
M  V30 8137 C 757.582 1.66087 4.19197 0
M  V30 8138 C 756.244 2.03319 4.36136 0
M  V30 8139 C 758.596 2.55452 4.54306 0
M  V30 8140 C 755.924 3.29448 4.8547 0
M  V30 8141 C 758.276 3.8094 5.05042 0
M  V30 8142 C 756.94 4.1828 5.2019 0
M  V30 8143 H 756.21 0.0969625 0.734629 0
M  V30 8144 H 758.857 0.926877 1.67575 0
M  V30 8145 H 757.162 -0.44479 3.89267 0
M  V30 8146 H 758.859 -0.0712542 4.00937 0
M  V30 8147 H 755.449 1.36137 4.06405 0
M  V30 8148 H 759.633 2.27961 4.40849 0
M  V30 8149 H 754.889 3.58338 4.95382 0
M  V30 8150 H 759.063 4.50351 5.31184 0
M  V30 8151 H 756.69 5.16081 5.58179 0
M  V30 8152 N 758.265 -1.50454 0.469181 0
M  V30 8153 C 759.195 -2.31353 -0.31592 0
M  V30 8154 C 760.176 -1.38172 -0.992094 0
M  V30 8155 O 761.361 -1.67093 -0.989633 0
M  V30 8156 C 758.491 -3.1786 -1.39937 0
M  V30 8157 C 757.445 -4.19578 -0.844909 0
M  V30 8158 C 756.771 -4.9481 -2.0265 0
M  V30 8159 C 758.071 -5.22106 0.142499 0
M  V30 8160 H 759.765 -2.97237 0.359269 0
M  V30 8161 H 757.311 -1.42942 0.174224 0
M  V30 8162 H 759.264 -3.7325 -1.95607 0
M  V30 8163 H 757.988 -2.49858 -2.1033 0
M  V30 8164 H 756.647 -3.65285 -0.310189 0
M  V30 8165 H 756.295 -4.23282 -2.71737 0
M  V30 8166 H 755.995 -5.63613 -1.66174 0
M  V30 8167 H 757.519 -5.53035 -2.58815 0
M  V30 8168 H 758.933 -5.72378 -0.324966 0
M  V30 8169 H 757.33 -5.98618 0.421441 0
M  V30 8170 H 758.4 -4.7297 1.06901 0
M  V30 8171 N 759.743 -0.201713 -1.56304 0
M  V30 8172 C 760.673 0.71155 -2.22394 0
M  V30 8173 C 761.654 1.21625 -1.18917 0
M  V30 8174 O 762.839 1.26388 -1.47444 0
M  V30 8175 C 759.969 1.92837 -2.88845 0
M  V30 8176 C 758.923 1.55831 -3.98623 0
M  V30 8177 C 758.249 2.85228 -4.52271 0
M  V30 8178 C 759.549 0.763249 -5.16693 0
M  V30 8179 H 761.243 0.160573 -2.98969 0
M  V30 8180 H 758.789 0.0757916 -1.438 0
M  V30 8181 H 760.742 2.57253 -3.33764 0
M  V30 8182 H 759.466 2.50398 -2.09686 0
M  V30 8183 H 758.125 0.9377 -3.54405 0
M  V30 8184 H 757.773 3.40893 -3.69866 0
M  V30 8185 H 757.473 2.6121 -5.26349 0
M  V30 8186 H 758.997 3.50622 -4.99897 0
M  V30 8187 H 760.411 1.31066 -5.58117 0
M  V30 8188 H 758.808 0.620935 -5.96879 0
M  V30 8189 H 759.878 -0.234322 -4.84334 0
M  V30 8190 N 761.222 1.57436 0.0718424 0
M  V30 8191 C 762.185 2.02703 1.06977 0
M  V30 8192 C 763.185 0.924062 1.31597 0
M  V30 8193 O 764.375 1.18894 1.27318 0
M  V30 8194 C 761.507 2.40763 2.41342 0
M  V30 8195 H 762.7 2.92098 0.679619 0
M  V30 8196 H 760.253 1.5304 0.317565 0
M  V30 8197 H 760.988 1.54394 2.8519 0
M  V30 8198 H 760.773 3.21249 2.24814 0
M  V30 8199 H 762.263 2.76361 3.13073 0
M  V30 8200 N 762.7 -0.34323 1.53817 0
M  V30 8201 C 763.632 -1.44216 1.78141 0
M  V30 8202 C 764.645 -1.48701 0.662721 0
M  V30 8203 O 765.834 -1.51778 0.939458 0
M  V30 8204 C 762.934 -2.82872 1.86646 0
M  V30 8205 C 762.107 -3.01824 3.16577 0
M  V30 8206 C 761.166 -4.20723 3.16036 0
M  V30 8207 O 760.192 -4.14824 3.89756 0
M  V30 8208 N 761.394 -5.29276 2.38427 0
M  V30 8209 H 764.159 -1.23721 2.72971 0
M  V30 8210 H 761.72 -0.53311 1.52871 0
M  V30 8211 H 763.712 -3.60588 1.83735 0
M  V30 8212 H 762.282 -2.96509 0.990014 0
M  V30 8213 H 761.502 -2.11575 3.3261 0
M  V30 8214 H 762.79 -3.11369 4.02402 0
M  V30 8215 H 762.188 -5.36938 1.78085 0
M  V30 8216 H 760.745 -6.05484 2.41313 0
M  V30 8217 N 764.178 -1.45556 -0.604258 0
M  V30 8218 C 765.425 -1.49746 -1.36317 0
M  V30 8219 C 765.753 -0.140516 -1.93992 0
M  V30 8220 O 765.008 0.861244 -1.7573 0
M  V30 8221 C 765.307 -2.52697 -2.52743 0
M  V30 8222 C 764.973 -3.97315 -2.13195 0
M  V30 8223 C 763.635 -4.36692 -2.02123 0
M  V30 8224 C 765.987 -4.88249 -1.8238 0
M  V30 8225 C 763.315 -5.64895 -1.58463 0
M  V30 8226 C 765.667 -6.16867 -1.40205 0
M  V30 8227 C 764.331 -6.55172 -1.27694 0
M  V30 8228 H 763.601 -0.54796 -0.49882 0
M  V30 8229 H 766.248 -1.7892 -0.682643 0
M  V30 8230 H 764.553 -2.17105 -3.26148 0
M  V30 8231 H 766.25 -2.53176 -3.10971 0
M  V30 8232 H 762.84 -3.66176 -2.22739 0
M  V30 8233 H 767.024 -4.58561 -1.89829 0
M  V30 8234 H 762.28 -5.93365 -1.47402 0
M  V30 8235 H 766.454 -6.86771 -1.15408 0
M  V30 8236 H 764.081 -7.54411 -0.936375 0
M  V30 8237 N 765.656 0.84705 -1.32902 0
M  V30 8238 C 766.884 1.63403 -1.26913 0
M  V30 8239 C 767.299 1.88108 0.161483 0
M  V30 8240 O 766.656 1.45546 1.10103 0
M  V30 8241 C 766.707 2.98896 -2.03331 0
M  V30 8242 O 766.428 2.75281 -3.40811 0
M  V30 8243 C 767.929 3.93335 -2.04457 0
M  V30 8244 H 765.149 0.508701 -0.437566 0
M  V30 8245 H 767.693 1.05567 -1.75145 0
M  V30 8246 H 765.848 3.53356 -1.58802 0
M  V30 8247 H 766.262 3.61504 -3.8002 0
M  V30 8248 H 767.736 4.85647 -2.62394 0
M  V30 8249 H 768.213 4.26885 -1.03274 0
M  V30 8250 H 768.819 3.44812 -2.48967 0
M  V30 8251 N 767.134 1.16236 1.06428 0
M  V30 8252 C 768.359 0.967688 1.83441 0
M  V30 8253 C 768.784 -0.479167 1.81894 0
M  V30 8254 O 768.142 -1.34224 1.21875 0
M  V30 8255 C 768.19 1.49806 3.2801 0
M  V30 8256 O 767.294 0.703481 4.06356 0
M  V30 8257 H 766.635 0.344468 0.56766 0
M  V30 8258 H 769.165 1.54442 1.34197 0
M  V30 8259 H 769.175 1.51495 3.78831 0
M  V30 8260 H 767.85 2.55133 3.2845 0
M  V30 8261 H 766.427 0.756986 3.65136 0
M  V30 8262 N 768.612 -1.24939 0.960631 0
M  V30 8263 C 769.575 -2.239 0.49006 0
M  V30 8264 C 770.575 -1.55497 -0.409535 0
M  V30 8265 O 771.765 -1.72978 -0.205984 0
M  V30 8266 C 768.897 -3.39654 -0.291193 0
M  V30 8267 H 770.09 -2.67044 1.36482 0
M  V30 8268 H 767.643 -1.37429 0.744505 0
M  V30 8269 H 768.378 -3.01939 -1.18336 0
M  V30 8270 H 768.163 -3.90496 0.354276 0
M  V30 8271 H 769.653 -4.13125 -0.609693 0
M  V30 8272 N 770.09 -0.729906 -1.39679 0
M  V30 8273 C 771.339 -0.272534 -1.9985 0
M  V30 8274 C 771.652 1.14519 -1.58571 0
M  V30 8275 O 772.858 1.70182 -2.11543 0
M  V30 8276 C 771.314 -0.436322 -3.57245 0
M  V30 8277 C 770.922 -1.86161 -4.0749 0
M  V30 8278 C 772.666 -0.0404679 -4.24481 0
M  V30 8279 C 770.573 -1.97522 -5.5744 0
M  V30 8280 H 769.503 -0.0981428 -0.747585 0
M  V30 8281 H 772.154 -0.903056 -1.59741 0
M  V30 8282 H 770.536 0.263015 -3.95126 0
M  V30 8283 H 771.71 -2.59248 -3.80955 0
M  V30 8284 H 770.025 -2.21021 -3.529 0
M  V30 8285 H 772.622 -0.104437 -5.34598 0
M  V30 8286 H 772.965 1.00357 -4.04023 0
M  V30 8287 H 773.498 -0.690774 -3.91757 0
M  V30 8288 H 770.237 -3.00096 -5.82771 0
M  V30 8289 H 769.757 -1.28864 -5.85794 0
M  V30 8290 H 771.436 -1.754 -6.22771 0
M  V30 8291 N 771.568 1.50203 -0.477153 0
M  V30 8292 C 772.808 2.04265 0.0744065 0
M  V30 8293 C 773.172 1.35082 1.36443 0
M  V30 8294 O 774.373 1.79732 1.99875 0
M  V30 8295 C 772.644 3.56539 0.247874 0
M  V30 8296 S 774.203 4.32219 0.757117 0
M  V30 8297 H 771.021 0.71088 0.0130891 0
M  V30 8298 H 773.623 1.8453 -0.645678 0
M  V30 8299 H 772.327 4.04443 -0.696709 0
M  V30 8300 H 771.858 3.80638 0.993896 0
M  V30 8301 H 773.873 4.52789 2.0297 0
M  V30 8302 N 773.046 0.209999 1.56195 0
M  V30 8303 C 774.271 -0.433064 2.02828 0
M  V30 8304 C 774.696 -1.5337 1.08901 0
M  V30 8305 O 774.054 -1.81144 0.0751132 0
M  V30 8306 C 774.102 -0.952635 3.47789 0
M  V30 8307 O 773.206 -2.0647 3.56993 0
M  V30 8308 H 772.547 -0.0994594 0.656509 0
M  V30 8309 H 775.077 0.32525 2.01998 0
M  V30 8310 H 775.087 -1.26542 3.8788 0
M  V30 8311 H 773.762 -0.147007 4.1564 0
M  V30 8312 H 772.339 -1.75942 3.28784 0
M  V30 8313 N 774.524 -1.57472 -0.0634922 0
M  V30 8314 C 775.77 -1.87932 -0.762194 0
M  V30 8315 C 776.103 -0.803377 -1.76804 0
M  V30 8316 O 775.378 0.185468 -1.93614 0
M  V30 8317 C 775.661 -3.29053 -1.46275 0
M  V30 8318 C 775.514 -4.47309 -0.472755 0
M  V30 8319 C 776.833 -3.68537 -2.40558 0
M  V30 8320 H 773.952 -0.683521 -0.275624 0
M  V30 8321 H 776.594 -1.89983 -0.0252651 0
M  V30 8322 H 774.744 -3.27435 -2.0909 0
M  V30 8323 H 776.416 -4.61053 0.150828 0
M  V30 8324 H 774.659 -4.33286 0.211187 0
M  V30 8325 H 775.33 -5.42853 -1.00072 0
M  V30 8326 H 777.806 -3.71302 -1.87814 0
M  V30 8327 H 776.682 -4.68152 -2.86574 0
M  V30 8328 H 776.943 -2.98917 -3.25731 0
M  V30 8329 N 776.003 0.335068 -1.53997 0
M  V30 8330 C 777.249 1.07594 -1.71905 0
M  V30 8331 C 777.582 1.88039 -0.485264 0
M  V30 8332 O 776.857 1.87482 0.517752 0
M  V30 8333 C 777.14 2.01016 -2.98772 0
M  V30 8334 C 776.993 1.23977 -4.32377 0
M  V30 8335 C 778.312 3.0071 -3.21343 0
M  V30 8336 H 775.431 0.38976 -0.625505 0
M  V30 8337 H 778.073 0.353684 -1.86679 0
M  V30 8338 H 776.223 2.62603 -2.86307 0
M  V30 8339 H 777.895 0.649383 -4.56706 0
M  V30 8340 H 776.138 0.541878 -4.30402 0
M  V30 8341 H 776.809 1.92512 -5.17342 0
M  V30 8342 H 779.285 2.4924 -3.33194 0
M  V30 8343 H 778.161 3.63272 -4.11491 0
M  V30 8344 H 778.422 3.72549 -2.38033 0
M  V30 8345 N 777.481 1.45874 0.596531 0
M  V30 8346 C 778.897 1.30524 0.918459 0
M  V30 8347 C 779.097 0.266429 1.99731 0
M  V30 8348 O 778.153 -0.335809 2.50257 0
M  V30 8349 C 779.466 2.68747 1.3489 0
M  V30 8350 C 781.014 2.7673 1.46251 0
M  V30 8351 C 781.489 4.15504 1.92667 0
M  V30 8352 N 782.98 4.17853 1.99883 0
M  V30 8353 C 783.715 5.22109 2.37044 0
M  V30 8354 N 783.211 6.36704 2.73094 0
M  V30 8355 N 785.004 5.09471 2.37479 0
M  V30 8356 H 777.155 2.12081 -0.116368 0
M  V30 8357 H 779.418 0.947941 0.0106033 0
M  V30 8358 H 779.124 3.46006 0.630288 0
M  V30 8359 H 778.998 2.97942 2.31323 0
M  V30 8360 H 781.385 1.99768 2.17202 0
M  V30 8361 H 781.466 2.51236 0.481054 0
M  V30 8362 H 781.11 4.92956 1.223 0
M  V30 8363 H 781.04 4.38396 2.91747 0
M  V30 8364 H 783.531 3.35163 1.74568 0
M  V30 8365 H 783.844 7.12041 3.00362 0
M  V30 8366 H 782.189 6.40087 2.70764 0
M  V30 8367 H 785.38 4.18987 2.08728 0
M  V30 8368 H 785.553 5.90837 2.66112 0
M  V30 8369 N 778.959 -0.83999 1.33349 0
M  V30 8370 C 780.375 -1.13049 1.12659 0
M  V30 8371 C 780.575 -2.01328 -0.0832613 0
M  V30 8372 O 779.631 -2.40669 -0.763856 0
M  V30 8373 C 780.944 -1.79366 2.41347 0
M  V30 8374 C 782.492 -1.91937 2.47243 0
M  V30 8375 C 782.967 -2.6167 3.75889 0
M  V30 8376 N 784.458 -2.69184 3.76954 0
M  V30 8377 C 785.193 -3.23827 4.73206 0
M  V30 8378 N 784.689 -3.79166 5.79832 0
M  V30 8379 N 786.482 -3.22068 4.60683 0
M  V30 8380 H 778.633 -0.252432 2.10895 0
M  V30 8381 H 780.896 -0.174501 0.931801 0
M  V30 8382 H 780.602 -1.2196 3.29877 0
M  V30 8383 H 780.476 -2.79396 2.53412 0
M  V30 8384 H 782.863 -2.48498 1.59163 0
M  V30 8385 H 782.944 -0.908604 2.39119 0
M  V30 8386 H 782.588 -2.05769 4.64351 0
M  V30 8387 H 782.518 -3.63217 3.81289 0
M  V30 8388 H 785.009 -2.2994 2.99893 0
M  V30 8389 H 785.322 -4.19061 6.49313 0
M  V30 8390 H 783.667 -3.77457 5.83568 0
M  V30 8391 H 786.858 -2.78092 3.7654 0
M  V30 8392 H 787.031 -3.64351 5.35866 0
M  V30 8393 N 780.437 -1.16799 -1.0581 0
M  V30 8394 C 781.4 -0.881396 -2.11575 0
M  V30 8395 C 782.4 0.12574 -1.60308 0
M  V30 8396 O 783.59 -0.105716 -1.73879 0
M  V30 8397 C 780.722 -0.319037 -3.39404 0
M  V30 8398 H 781.915 -1.81907 -2.38432 0
M  V30 8399 H 779.468 -0.977597 -1.21954 0
M  V30 8400 H 780.203 0.626082 -3.18199 0
M  V30 8401 H 779.988 -1.04481 -3.77923 0
M  V30 8402 H 781.478 -0.13663 -4.17376 0
M  V30 8403 N 781.915 1.24427 -0.967243 0
M  V30 8404 C 783.162 1.92487 -0.62888 0
M  V30 8405 C 783.49 1.75623 0.835871 0
M  V30 8406 O 782.745 1.1027 1.61675 0
M  V30 8407 C 783.044 3.44568 -0.949096 0
M  V30 8408 C 782.71 3.816 -2.40192 0
M  V30 8409 C 781.372 3.9142 -2.799 0
M  V30 8410 C 783.724 3.99715 -3.34481 0
M  V30 8411 C 781.052 4.16771 -4.12939 0
M  V30 8412 C 783.404 4.26562 -4.67148 0
M  V30 8413 C 782.068 4.34601 -5.06634 0
M  V30 8414 H 781.338 0.704361 -0.230124 0
M  V30 8415 H 783.985 1.4772 -1.21864 0
M  V30 8416 H 782.29 3.90819 -0.277085 0
M  V30 8417 H 783.987 3.95436 -0.665692 0
M  V30 8418 H 780.577 3.74522 -2.08402 0
M  V30 8419 H 784.761 3.91531 -3.04987 0
M  V30 8420 H 780.017 4.21214 -4.43158 0
M  V30 8421 H 784.191 4.39523 -5.40178 0
M  V30 8422 H 781.818 4.53998 -6.09746 0
M  V30 8423 N 783.393 0.737304 1.3929 0
M  V30 8424 C 784.804 0.355966 1.83275 0
M  V30 8425 C 785.155 -1.11295 1.6158 0
M  V30 8426 O 784.28 -1.85871 1.10819 0
M  V30 8427 C 784.875 0.63931 3.32713 0
M  V30 8428 C 783.434 0.31144 3.75109 0
M  V30 8429 C 782.581 0.900765 2.62262 0
M  V30 8430 H 785.532 0.934763 1.28249 0
M  V30 8431 H 785.553 -0.0881293 3.80398 0
M  V30 8432 H 785.065 1.70847 3.48472 0
M  V30 8433 H 783.166 -0.751791 3.64937 0
M  V30 8434 H 783.279 0.795611 4.72448 0
M  V30 8435 H 781.643 0.327239 2.52589 0
M  V30 8436 H 782.426 1.97463 2.80826 0
M  V30 8437 N 784.871 -1.49948 0.485112 0
M  V30 8438 C 785.821 -2.25734 -0.320658 0
M  V30 8439 C 786.805 -1.29907 -0.949373 0
M  V30 8440 O 787.997 -1.54725 -0.859601 0
M  V30 8441 C 785.126 -3.13728 -1.39391 0
M  V30 8442 C 784.212 -4.1701 -0.772225 0
M  V30 8443 N 784.603 -5.05667 0.115782 0
M  V30 8444 C 782.901 -4.33834 -1.03461 0
M  V30 8445 C 783.602 -5.79798 0.47004 0
M  V30 8446 N 782.578 -5.4337 -0.158204 0
M  V30 8447 H 786.38 -2.91647 0.36319 0
M  V30 8448 H 783.894 -1.59602 0.300154 0
M  V30 8449 H 785.891 -3.66639 -1.98447 0
M  V30 8450 H 784.551 -2.49365 -2.0796 0
M  V30 8451 H 785.562 -5.15619 0.485557 0
M  V30 8452 H 782.239 -3.80684 -1.71424 0
M  V30 8453 H 783.629 -6.61177 1.19558 0
M  V30 8454 N 786.349 -0.21828 -1.56081 0
M  V30 8455 C 787.589 0.416193 -2.00118 0
M  V30 8456 C 787.953 1.5718 -1.10265 0
M  V30 8457 O 789.154 2.27206 -1.43635 0
M  V30 8458 C 787.425 0.842781 -3.47321 0
M  V30 8459 S 788.984 1.47182 -4.1338 0
M  V30 8460 H 785.802 0.132219 -0.698598 0
M  V30 8461 H 788.404 -0.326799 -1.92749 0
M  V30 8462 H 787.108 -0.00799925 -4.10399 0
M  V30 8463 H 786.639 1.61867 -3.58556 0
M  V30 8464 H 788.654 2.76087 -4.12299 0
M  V30 8465 N 787.827 1.57504 0.0551401 0
M  V30 8466 C 788.757 2.07864 1.06372 0
M  V30 8467 C 789.738 0.975565 1.39344 0
M  V30 8468 O 790.923 1.24929 1.48682 0
M  V30 8469 C 788.053 2.53643 2.3724 0
M  V30 8470 C 787.007 3.67978 2.18578 0
M  V30 8471 C 786.333 3.9987 3.54976 0
M  V30 8472 C 787.633 4.97405 1.59329 0
M  V30 8473 H 789.327 2.92379 0.644595 0
M  V30 8474 H 786.873 1.40654 0.308619 0
M  V30 8475 H 788.826 2.8749 3.08103 0
M  V30 8476 H 787.55 1.66177 2.81163 0
M  V30 8477 H 786.209 3.3444 1.50152 0
M  V30 8478 H 785.857 3.0951 3.965 0
M  V30 8479 H 785.557 4.76867 3.43324 0
M  V30 8480 H 787.081 4.36228 4.27244 0
M  V30 8481 H 788.495 5.29375 2.20078 0
M  V30 8482 H 786.892 5.78837 1.58327 0
M  V30 8483 H 787.962 4.81697 0.55638 0
M  V30 8484 N 789.305 -0.326896 1.54172 0
M  V30 8485 C 790.268 -1.38515 1.8261 0
M  V30 8486 C 791.268 -1.44872 0.697771 0
M  V30 8487 O 792.458 -1.44957 0.966078 0
M  V30 8488 C 789.59 -2.77281 1.98313 0
M  V30 8489 H 790.783 -1.14556 2.77159 0
M  V30 8490 H 788.336 -0.562199 1.45839 0
M  V30 8491 H 789.071 -3.065 1.05964 0
M  V30 8492 H 788.856 -2.74061 2.80416 0
M  V30 8493 H 790.346 -3.53845 2.21773 0
M  V30 8494 N 790.784 -1.46188 -0.588786 0
M  V30 8495 C 792.031 -1.51184 -1.34721 0
M  V30 8496 C 792.359 -0.161084 -1.93832 0
M  V30 8497 O 791.614 0.842557 -1.76634 0
M  V30 8498 C 791.913 -2.55364 -2.50048 0
M  V30 8499 C 791.579 -3.99553 -2.08969 0
M  V30 8500 C 790.241 -4.38811 -1.9748 0
M  V30 8501 C 792.593 -4.90156 -1.77191 0
M  V30 8502 C 789.921 -5.66544 -1.52463 0
M  V30 8503 C 792.273 -6.1832 -1.33654 0
M  V30 8504 C 790.937 -6.5649 -1.20738 0
M  V30 8505 H 790.207 -0.55322 -0.49298 0
M  V30 8506 H 792.854 -1.79634 -0.663627 0
M  V30 8507 H 791.159 -2.20552 -3.23827 0
M  V30 8508 H 792.856 -2.5646 -3.08268 0
M  V30 8509 H 789.446 -3.68518 -2.18843 0
M  V30 8510 H 793.63 -4.60549 -1.84955 0
M  V30 8511 H 788.886 -5.94895 -1.411 0
M  V30 8512 H 793.06 -6.87956 -1.08117 0
M  V30 8513 H 790.687 -7.55362 -0.856307 0
M  V30 8514 N 792.262 0.832906 -1.33792 0
M  V30 8515 C 793.487 1.62568 -1.28788 0
M  V30 8516 C 793.912 1.87599 0.137246 0
M  V30 8517 O 793.27 1.44436 1.0958 0
M  V30 8518 C 793.318 2.9495 -2.07453 0
M  V30 8519 O 792.422 3.86546 -1.43722 0
M  V30 8520 H 791.763 0.494809 -0.442787 0
M  V30 8521 H 794.293 1.03578 -1.76445 0
M  V30 8522 H 794.303 3.44599 -2.1844 0
M  V30 8523 H 792.978 2.76055 -3.11073 0
M  V30 8524 H 791.555 3.45044 -1.41417 0
M  V30 8525 N 793.74 1.17359 1.05189 0
M  V30 8526 C 794.97 0.985099 1.81602 0
M  V30 8527 C 795.378 -0.469872 1.83273 0
M  V30 8528 O 794.721 -1.33806 1.25864 0
M  V30 8529 C 794.783 1.44956 3.2898 0
M  V30 8530 C 794.447 2.92666 3.50993 0
M  V30 8531 C 795.444 3.906 3.43115 0
M  V30 8532 C 793.129 3.30841 3.77954 0
M  V30 8533 C 795.123 5.24709 3.61883 0
M  V30 8534 C 792.81 4.65116 3.96371 0
M  V30 8535 C 793.808 5.61859 3.88335 0
M  V30 8536 O 793.496 6.93704 4.06238 0
M  V30 8537 H 793.228 0.348731 0.579105 0
M  V30 8538 H 795.782 1.56066 1.33539 0
M  V30 8539 H 794.012 0.817559 3.77959 0
M  V30 8540 H 795.701 1.22674 3.86919 0
M  V30 8541 H 796.467 3.62453 3.22262 0
M  V30 8542 H 792.346 2.5611 3.83313 0
M  V30 8543 H 795.89 6.00205 3.55527 0
M  V30 8544 H 791.787 4.92969 4.16715 0
M  V30 8545 H 792.555 7.00443 4.23463 0
M  V30 8546 N 795.218 -1.23913 0.973828 0
M  V30 8547 C 796.151 -2.23647 0.45355 0
M  V30 8548 C 797.129 -1.55485 -0.475724 0
M  V30 8549 O 798.313 -1.84083 -0.405689 0
M  V30 8550 C 795.44 -3.36942 -0.344594 0
M  V30 8551 C 794.486 -4.23221 0.527859 0
M  V30 8552 S 795.319 -4.97877 1.97177 0
M  V30 8553 C 796.475 -6.14627 1.18258 0
M  V30 8554 H 796.708 -2.67433 1.29873 0
M  V30 8555 H 794.241 -1.33289 0.779322 0
M  V30 8556 H 796.199 -4.02647 -0.799103 0
M  V30 8557 H 794.86 -2.91703 -1.16482 0
M  V30 8558 H 794.053 -5.03928 -0.0852555 0
M  V30 8559 H 793.655 -3.6255 0.918344 0
M  V30 8560 H 795.947 -6.76066 0.440629 0
M  V30 8561 H 796.89 -6.80311 1.96425 0
M  V30 8562 H 797.298 -5.6009 0.704256 0
M  V30 8563 N 796.696 -0.74468 -1.38897 0
M  V30 8564 C 797.973 -0.222773 -1.94327 0
M  V30 8565 C 798.353 1.27731 -1.68071 0
M  V30 8566 O 797.701 2.04754 -1.01429 0
M  V30 8567 C 797.911 -0.566836 -3.44366 0
M  V30 8568 C 799.259 -0.521531 -4.21385 0
M  V30 8569 O 800.283 -0.504599 -3.52608 0
M  V30 8570 O 799.142 -0.524595 -5.43976 0
M  V30 8571 H 796.236 -0.0439259 -0.825833 0
M  V30 8572 H 798.782 -0.824197 -1.48341 0
M  V30 8573 H 797.554 -1.60321 -3.56949 0
M  V30 8574 H 797.177 0.0630577 -3.9755 0
M  V30 8575 N 798.174 1.49689 -0.493057 0
M  V30 8576 C 799.451 1.9525 0.116907 0
M  V30 8577 C 799.831 1.43429 1.54892 0
M  V30 8578 O 799.179 0.644621 2.19219 0
M  V30 8579 C 799.389 3.4898 0.037705 0
M  V30 8580 C 800.737 4.24052 0.215621 0
M  V30 8581 O 801.761 3.5602 0.113266 0
M  V30 8582 O 800.62 5.44847 0.42477 0
M  V30 8583 H 797.714 0.820973 0.099662 0
M  V30 8584 H 800.26 1.60367 -0.555029 0
M  V30 8585 H 799.032 3.79309 -0.961251 0
M  V30 8586 H 798.655 3.9046 0.750137 0
M  V30 8587 N 799.652 0.226554 1.55963 0
M  V30 8588 C 800.898 -0.404387 1.98727 0
M  V30 8589 C 801.231 -1.59059 1.11418 0
M  V30 8590 O 800.506 -1.93729 0.172971 0
M  V30 8591 C 800.789 -0.834081 3.50307 0
M  V30 8592 C 800.642 0.356104 4.48388 0
M  V30 8593 C 801.961 -1.68845 4.06423 0
M  V30 8594 H 799.08 -0.145515 0.722492 0
M  V30 8595 H 801.722 0.323791 1.87221 0
M  V30 8596 H 799.872 -1.45454 3.60244 0
M  V30 8597 H 801.544 0.99432 4.50456 0
M  V30 8598 H 799.787 1.0027 4.22053 0
M  V30 8599 H 800.458 0.0124333 5.51999 0
M  V30 8600 H 802.934 -1.16489 3.99461 0
M  V30 8601 H 801.81 -1.958 5.1279 0
M  V30 8602 H 802.071 -2.65347 3.53615 0
M  V30 8603 N 801.13 -1.57531 -0.0467866 0
M  V30 8604 C 802.376 -1.8873 -0.742218 0
M  V30 8605 C 802.709 -0.822084 -1.75941 0
M  V30 8606 O 801.984 0.164922 -1.938 0
M  V30 8607 C 802.267 -3.30586 -1.42776 0
M  V30 8608 C 802.12 -4.47785 -0.425285 0
M  V30 8609 C 803.439 -3.71068 -2.36636 0
M  V30 8610 H 800.558 -0.686406 -0.268359 0
M  V30 8611 H 803.2 -1.89999 -0.00511341 0
M  V30 8612 H 801.35 -3.29634 -2.05605 0
M  V30 8613 H 803.022 -4.60867 0.199721 0
M  V30 8614 H 801.265 -4.33037 0.25713 0
M  V30 8615 H 801.936 -5.43884 -0.943086 0
M  V30 8616 H 804.412 -3.73273 -1.83866 0
M  V30 8617 H 803.288 -4.71165 -2.81593 0
M  V30 8618 H 803.549 -3.02355 -3.22542 0
M  V30 8619 N 802.608 0.318715 -1.54344 0
M  V30 8620 C 803.538 1.39751 -1.87061 0
M  V30 8621 C 804.519 1.53741 -0.727848 0
M  V30 8622 O 805.704 1.67541 -0.982016 0
M  V30 8623 C 802.834 2.76446 -2.10226 0
M  V30 8624 C 801.788 2.77239 -3.26071 0
M  V30 8625 C 801.114 4.17056 -3.34617 0
M  V30 8626 C 802.414 2.40555 -4.63606 0
M  V30 8627 H 804.108 1.12619 -2.77412 0
M  V30 8628 H 801.654 0.540318 -1.33479 0
M  V30 8629 H 803.607 3.51985 -2.31699 0
M  V30 8630 H 802.331 3.05066 -1.16629 0
M  V30 8631 H 800.99 2.04155 -3.04493 0
M  V30 8632 H 800.638 4.42824 -2.3857 0
M  V30 8633 H 800.338 4.18492 -4.12478 0
M  V30 8634 H 801.862 4.94401 -3.5833 0
M  V30 8635 H 803.276 3.05808 -4.84927 0
M  V30 8636 H 801.673 2.53234 -5.44052 0
M  V30 8637 H 802.743 1.35698 -4.65526 0
M  V30 8638 N 804.086 1.46499 0.581025 0
M  V30 8639 C 805.334 1.51596 1.33653 0
M  V30 8640 C 805.655 0.169859 1.94259 0
M  V30 8641 O 804.925 -0.803776 1.78651 0
M  V30 8642 H 803.505 0.558346 0.496244 0
M  V30 8643 H 806.167 1.8264 0.680338 0
M  V30 8644 H 805.263 2.26956 2.14237 0
M  V30 8645 N 805.565 -0.825799 1.34232 0
M  V30 8646 C 806.528 -1.91808 1.25468 0
M  V30 8647 C 807.528 -1.59893 0.170567 0
M  V30 8648 O 808.718 -1.68986 0.422996 0
M  V30 8649 C 805.85 -3.27786 0.93644 0
M  V30 8650 H 807.043 -2.01003 2.22571 0
M  V30 8651 H 804.596 -1.01944 1.18479 0
M  V30 8652 H 805.331 -3.24285 -0.0315408 0
M  V30 8653 H 805.116 -3.52333 1.72057 0
M  V30 8654 H 806.606 -4.07782 0.900214 0
M  V30 8655 N 807.043 -1.17915 -1.04565 0
M  V30 8656 C 807.99 -0.901605 -2.12461 0
M  V30 8657 C 808.96 0.157011 -1.65356 0
M  V30 8658 O 810.145 0.0184494 -1.90791 0
M  V30 8659 C 807.285 -0.42796 -3.42436 0
M  V30 8660 C 806.398 -1.55142 -4.03181 0
M  V30 8661 C 805.533 -1.03101 -5.21098 0
M  V30 8662 C 804.572 -2.1295 -5.73863 0
M  V30 8663 N 803.709 -1.62339 -6.83074 0
M  V30 8664 H 808.549 -1.82551 -2.3554 0
M  V30 8665 H 806.086 -0.910389 -1.15544 0
M  V30 8666 H 808.044 -0.134859 -4.16982 0
M  V30 8667 H 806.674 0.458977 -3.1952 0
M  V30 8668 H 805.726 -1.96011 -3.26012 0
M  V30 8669 H 807.038 -2.37968 -4.38375 0
M  V30 8670 H 806.192 -0.692132 -6.02739 0
M  V30 8671 H 804.931 -0.17227 -4.87396 0
M  V30 8672 H 803.936 -2.47687 -4.90847 0
M  V30 8673 H 805.161 -2.9925 -6.09611 0
M  V30 8674 H 803.107 -0.787464 -6.51256 0
M  V30 8675 H 803.024 -2.38767 -7.17305 0
M  V30 8676 H 804.292 -1.31363 -7.68351 0
M  V30 8677 N 808.521 1.23394 -0.980386 0
M  V30 8678 C 809.746 1.96384 -0.666935 0
M  V30 8679 C 810.171 1.72087 0.759456 0
M  V30 8680 O 809.529 0.992328 1.51732 0
M  V30 8681 C 809.577 3.47499 -0.963177 0
M  V30 8682 O 808.681 4.12363 -0.0552051 0
M  V30 8683 H 808.022 0.614797 -0.250839 0
M  V30 8684 H 810.552 1.56831 -1.31398 0
M  V30 8685 H 810.562 3.97953 -0.899877 0
M  V30 8686 H 809.237 3.6451 -2.00264 0
M  V30 8687 H 807.814 3.72499 -0.172914 0
M  V30 8688 N 809.999 0.752036 1.385 0
M  V30 8689 C 811.245 0.307958 2.00448 0
M  V30 8690 C 811.578 -1.10702 1.59558 0
M  V30 8691 O 810.853 -1.75788 0.832391 0
M  V30 8692 C 811.136 0.429092 3.57534 0
M  V30 8693 C 810.989 1.88507 4.08393 0
M  V30 8694 C 812.308 -0.178442 4.39738 0
M  V30 8695 H 809.427 0.113373 0.728228 0
M  V30 8696 H 812.069 0.951389 1.64465 0
M  V30 8697 H 810.219 -0.118695 3.88319 0
M  V30 8698 H 811.891 2.49104 3.88259 0
M  V30 8699 H 810.134 2.40066 3.61318 0
M  V30 8700 H 810.805 1.92099 5.17496 0
M  V30 8701 H 813.281 0.28872 4.15097 0
M  V30 8702 H 812.157 -0.0634349 5.48863 0
M  V30 8703 H 812.418 -1.26655 4.23569 0
M  V30 8704 N 811.477 -1.49425 0.500989 0
M  V30 8705 C 812.409 -2.27037 -0.314159 0
M  V30 8706 C 813.422 -1.33578 -0.930626 0
M  V30 8707 O 814.611 -1.58861 -0.813968 0
M  V30 8708 C 811.711 -3.05968 -1.45729 0
M  V30 8709 C 810.884 -4.27 -0.948135 0
M  V30 8710 C 809.943 -4.87977 -1.96888 0
M  V30 8711 O 808.969 -5.48044 -1.53743 0
M  V30 8712 N 810.171 -4.77627 -3.29928 0
M  V30 8713 H 812.936 -2.97634 0.351336 0
M  V30 8714 H 810.497 -1.58427 0.333536 0
M  V30 8715 H 812.489 -3.43634 -2.1377 0
M  V30 8716 H 811.059 -2.37978 -2.02695 0
M  V30 8717 H 810.279 -3.94091 -0.0926311 0
M  V30 8718 H 811.567 -5.0541 -0.586362 0
M  V30 8719 H 810.965 -4.29926 -3.67669 0
M  V30 8720 H 809.522 -5.19478 -3.93682 0
M  V30 8721 N 812.955 -0.234822 -1.55841 0
M  V30 8722 C 813.905 0.68346 -2.17515 0
M  V30 8723 C 814.889 1.14798 -1.1274 0
M  V30 8724 O 816.081 1.09976 -1.38688 0
M  V30 8725 C 813.21 1.88551 -2.86886 0
M  V30 8726 C 812.296 1.44006 -3.98903 0
M  V30 8727 N 812.687 0.708034 -5.0082 0
M  V30 8728 C 810.985 1.7263 -4.11236 0
M  V30 8729 C 811.686 0.479036 -5.79724 0
M  V30 8730 N 810.662 1.03968 -5.33565 0
M  V30 8731 H 814.464 0.115897 -2.93671 0
M  V30 8732 H 811.978 -0.0366273 -1.62359 0
M  V30 8733 H 813.975 2.55425 -3.2949 0
M  V30 8734 H 812.635 2.45742 -2.12229 0
M  V30 8735 H 813.646 0.359363 -5.16652 0
M  V30 8736 H 810.323 2.31046 -3.47741 0
M  V30 8737 H 811.713 -0.104514 -6.71819 0
M  V30 8738 N 814.433 1.57553 0.0384317 0
M  V30 8739 C 815.363 2.0898 1.04161 0
M  V30 8740 C 816.344 0.99029 1.38301 0
M  V30 8741 O 817.529 1.26499 1.47349 0
M  V30 8742 C 814.659 2.56145 2.34536 0
M  V30 8743 C 813.613 3.70275 2.14663 0
M  V30 8744 C 812.939 4.03612 3.50715 0
M  V30 8745 C 814.239 4.99067 1.54045 0
M  V30 8746 H 815.933 2.93046 0.613548 0
M  V30 8747 H 813.479 1.40973 0.293684 0
M  V30 8748 H 815.432 2.90741 3.05037 0
M  V30 8749 H 814.156 1.6915 2.79385 0
M  V30 8750 H 812.815 3.36013 1.46597 0
M  V30 8751 H 812.463 3.13698 3.93195 0
M  V30 8752 H 812.163 4.80482 3.38247 0
M  V30 8753 H 813.687 4.40735 4.22593 0
M  V30 8754 H 815.101 5.3168 2.14451 0
M  V30 8755 H 813.498 5.80484 1.52178 0
M  V30 8756 H 814.568 4.8226 0.505259 0
M  V30 8757 N 815.911 -0.310526 1.54511 0
M  V30 8758 C 816.821 -1.4054 1.87844 0
M  V30 8759 C 817.837 -1.55954 0.771635 0
M  V30 8760 O 819.013 -1.70801 1.06719 0
M  V30 8761 C 816.078 -2.75063 2.11048 0
M  V30 8762 C 815.139 -2.68715 3.348 0
M  V30 8763 C 814.372 -3.96821 3.56887 0
M  V30 8764 O 814.595 -4.95721 2.82165 0
M  V30 8765 O 813.529 -3.99291 4.50389 0
M  V30 8766 H 817.355 -1.15275 2.80972 0
M  V30 8767 H 814.94 -0.505732 1.4058 0
M  V30 8768 H 816.822 -3.54671 2.27566 0
M  V30 8769 H 815.497 -3.00191 1.21108 0
M  V30 8770 H 814.404 -1.87611 3.23655 0
M  V30 8771 H 815.737 -2.4854 4.2484 0
M  V30 8772 N 817.389 -1.46805 -0.573248 0
M  V30 8773 C 818.614 -1.56433 -1.36175 0
M  V30 8774 C 819.039 -0.209336 -1.86932 0
M  V30 8775 O 818.397 0.812146 -1.62092 0
M  V30 8776 C 818.445 -2.58055 -2.51873 0
M  V30 8777 O 817.549 -2.12214 -3.53609 0
M  V30 8778 H 816.89 -0.526068 -0.405153 0
M  V30 8779 H 819.42 -1.92456 -0.694405 0
M  V30 8780 H 819.43 -2.77966 -2.98662 0
M  V30 8781 H 818.105 -3.56448 -2.14284 0
M  V30 8782 H 816.682 -2.02333 -3.13234 0
M  V30 8783 N 818.867 0.818669 -1.34668 0
M  V30 8784 C 819.797 1.94468 -1.29245 0
M  V30 8785 C 820.778 1.69257 -0.169101 0
M  V30 8786 O 821.963 1.90794 -0.362143 0
M  V30 8787 C 819.093 3.31001 -1.05145 0
M  V30 8788 C 818.047 3.70663 -2.13992 0
M  V30 8789 C 817.373 5.05226 -1.75074 0
M  V30 8790 C 818.673 3.82312 -3.55858 0
M  V30 8791 H 820.367 1.99263 -2.2346 0
M  V30 8792 H 817.913 0.957304 -1.07572 0
M  V30 8793 H 819.866 4.09364 -0.999949 0
M  V30 8794 H 818.59 3.26517 -0.0737312 0
M  V30 8795 H 817.249 2.94578 -2.18219 0
M  V30 8796 H 816.897 4.97233 -0.759518 0
M  V30 8797 H 816.597 5.32734 -2.47928 0
M  V30 8798 H 818.121 5.86042 -1.71427 0
M  V30 8799 H 819.535 4.50935 -3.5402 0
M  V30 8800 H 817.932 4.21278 -4.2737 0
M  V30 8801 H 819.002 2.84193 -3.9289 0
M  V30 8802 N 820.346 1.18468 1.03938 0
M  V30 8803 C 821.593 0.980833 1.77161 0
M  V30 8804 C 821.921 -0.489425 1.88242 0
M  V30 8805 O 821.176 -1.37961 1.388 0
M  V30 8806 C 821.475 1.58229 3.20466 0
M  V30 8807 C 821.141 3.07889 3.29416 0
M  V30 8808 C 819.803 3.48737 3.31566 0
M  V30 8809 C 822.155 4.03903 3.29411 0
M  V30 8810 C 819.483 4.84171 3.31355 0
M  V30 8811 C 821.835 5.39253 3.3074 0
M  V30 8812 C 820.499 5.79547 3.31182 0
M  V30 8813 H 819.769 0.358912 0.648277 0
M  V30 8814 H 822.416 1.47552 1.22069 0
M  V30 8815 H 820.721 1.00964 3.78568 0
M  V30 8816 H 822.418 1.39998 3.75768 0
M  V30 8817 H 819.008 2.75335 3.28464 0
M  V30 8818 H 823.192 3.73395 3.2694 0
M  V30 8819 H 818.448 5.14685 3.30015 0
M  V30 8820 H 822.622 6.13417 3.29686 0
M  V30 8821 H 820.249 6.84466 3.30772 0
M  V30 8822 N 821.824 -1.22873 0.986916 0
M  V30 8823 C 823.052 -1.95487 0.677663 0
M  V30 8824 C 823.467 -1.72978 -0.756572 0
M  V30 8825 O 822.824 -1.02517 -1.50985 0
M  V30 8826 C 822.875 -3.48337 0.966638 0
M  V30 8827 O 822.596 -3.70087 2.34451 0
M  V30 8828 C 824.097 -4.38142 0.674248 0
M  V30 8829 H 821.317 -0.622211 0.251185 0
M  V30 8830 H 823.861 -1.56187 1.32007 0
M  V30 8831 H 822.016 -3.85628 0.370137 0
M  V30 8832 H 822.43 -4.64332 2.43918 0
M  V30 8833 H 823.904 -5.44165 0.926759 0
M  V30 8834 H 824.381 -4.3745 -0.391728 0
M  V30 8835 H 824.987 -4.06469 1.25152 0
M  V30 8836 N 823.302 -0.75937 -1.38099 0
M  V30 8837 C 824.265 -0.14372 -2.28749 0
M  V30 8838 C 825.265 0.641338 -1.47457 0
M  V30 8839 O 826.455 0.466751 -1.67831 0
M  V30 8840 C 823.587 0.804545 -3.3127 0
M  V30 8841 H 824.78 -0.942663 -2.847 0
M  V30 8842 H 822.333 -0.526757 -1.47156 0
M  V30 8843 H 823.068 1.62895 -2.80421 0
M  V30 8844 H 822.853 0.243939 -3.9134 0
M  V30 8845 H 824.343 1.23111 -3.99041 0
M  V30 8846 N 824.78 1.49157 -0.508906 0
M  V30 8847 C 826.026 2.02773 0.0328469 0
M  V30 8848 C 826.359 1.38714 1.35912 0
M  V30 8849 O 825.634 0.525536 1.87266 0
M  V30 8850 C 825.917 3.59664 0.177088 0
M  V30 8851 C 825.77 4.34239 -1.17287 0
M  V30 8852 C 827.089 4.30505 0.913977 0
M  V30 8853 H 824.208 0.736926 0.0104631 0
M  V30 8854 H 826.85 1.781 -0.661851 0
M  V30 8855 H 825 3.80818 0.768774 0
M  V30 8856 H 826.672 4.24561 -1.80404 0
M  V30 8857 H 824.915 3.96486 -1.76016 0
M  V30 8858 H 825.586 5.42397 -1.02516 0
M  V30 8859 H 828.062 4.14054 0.412084 0
M  V30 8860 H 826.938 5.40012 0.983759 0
M  V30 8861 H 827.199 3.96302 1.95951 0
M  V30 8862 N 826.258 0.243083 1.55714 0
M  V30 8863 C 827.486 -0.386971 2.03249 0
M  V30 8864 C 827.901 -1.51812 1.12243 0
M  V30 8865 O 827.258 -1.81992 0.136119 0
M  V30 8866 C 827.309 -0.898361 3.5016 0
M  V30 8867 O 827.03 0.187708 4.37698 0
M  V30 8868 C 828.531 -1.59949 4.13438 0
M  V30 8869 H 825.751 -0.0923981 0.664608 0
M  V30 8870 H 828.295 0.365832 2.01201 0
M  V30 8871 H 826.45 -1.60136 3.52754 0
M  V30 8872 H 826.864 -0.200001 5.24119 0
M  V30 8873 H 828.338 -1.90907 5.17937 0
M  V30 8874 H 828.815 -2.52014 3.59702 0
M  V30 8875 H 829.421 -0.941163 4.14756 0
M  V30 8876 N 827.736 -1.57571 -0.0300757 0
M  V30 8877 C 828.684 -2.0758 -1.04944 0
M  V30 8878 C 829.678 -0.989384 -1.37505 0
M  V30 8879 O 830.884 -1.17427 -1.36422 0
M  V30 8880 H 827.259 -0.662419 -0.355956 0
M  V30 8881 H 829.23 -2.92268 -0.601848 0
M  V30 8882 C 827.979 -2.5698 -2.34215 0
M  V30 8883 H 827.302 -3.40193 -2.10021 0
M  V30 8884 H 828.742 -2.95682 -3.03888 0
M  V30 8885 C 827.201 -1.47059 -3.03109 0
M  V30 8886 O 827.731 -0.83625 -3.92899 0
M  V30 8887 N 825.937 -1.20538 -2.64422 0
M  V30 8888 H 825.484 -1.72305 -1.9149 0
M  V30 8889 H 825.442 -0.472045 -3.10836 0
M  V30 8890 N 829.214 0.302327 -1.54673 0
M  V30 8891 C 830.461 1.0377 -1.73891 0
M  V30 8892 C 830.789 1.87309 -0.523979 0
M  V30 8893 O 830.044 1.8936 0.494084 0
M  V30 8894 C 830.343 1.97365 -2.97963 0
M  V30 8895 C 830.009 1.29812 -4.3181 0
M  V30 8896 C 828.671 1.11121 -4.68194 0
M  V30 8897 C 831.023 0.815073 -5.14787 0
M  V30 8898 C 828.351 0.428077 -5.85136 0
M  V30 8899 C 830.703 0.145665 -6.32432 0
M  V30 8900 C 829.367 -0.0532098 -6.67479 0
M  V30 8901 H 828.637 0.379721 -0.636312 0
M  V30 8902 H 831.284 0.312708 -1.8893 0
M  V30 8903 H 829.589 2.76387 -2.777 0
M  V30 8904 H 831.286 2.54331 -3.10027 0
M  V30 8905 H 827.876 1.45366 -4.03196 0
M  V30 8906 H 832.06 0.947191 -4.87178 0
M  V30 8907 H 827.316 0.262995 -6.10834 0
M  V30 8908 H 831.49 -0.236533 -6.95998 0
M  V30 8909 H 829.117 -0.58456 -7.57949 0
M  V30 8910 N 830.692 1.47107 0.565454 0
M  V30 8911 C 831.622 1.61846 1.68309 0
M  V30 8912 C 832.603 0.468159 1.63531 0
M  V30 8913 O 833.788 0.696504 1.8128 0
M  V30 8914 C 830.918 1.62474 3.06952 0
M  V30 8915 C 829.872 2.76649 3.26572 0
M  V30 8916 C 829.198 2.62345 4.65917 0
M  V30 8917 C 830.498 4.18319 3.12741 0
M  V30 8918 H 832.192 2.55407 1.5623 0
M  V30 8919 H 829.738 1.22916 0.750179 0
M  V30 8920 H 831.691 1.71378 3.84977 0
M  V30 8921 H 830.415 0.654692 3.19971 0
M  V30 8922 H 829.074 2.67242 2.50952 0
M  V30 8923 H 828.722 1.63386 4.75725 0
M  V30 8924 H 828.422 3.38936 4.79996 0
M  V30 8925 H 829.946 2.73165 5.46089 0
M  V30 8926 H 831.36 4.28745 3.80593 0
M  V30 8927 H 829.757 4.95632 3.38333 0
M  V30 8928 H 830.827 4.37263 2.09592 0
M  V30 8929 N 832.17 -0.811516 1.35101 0
M  V30 8930 C 833.1 -1.9378 1.30275 0
M  V30 8931 C 834.081 -1.69165 0.178075 0
M  V30 8932 O 835.266 -1.90599 0.372256 0
M  V30 8933 C 832.396 -3.30439 1.06899 0
M  V30 8934 C 831.35 -3.69523 2.15955 0
M  V30 8935 C 830.676 -5.0429 1.77751 0
M  V30 8936 C 831.976 -3.80419 3.57881 0
M  V30 8937 H 833.67 -1.98075 2.24514 0
M  V30 8938 H 831.216 -0.951586 1.08078 0
M  V30 8939 H 833.169 -4.08828 1.02164 0
M  V30 8940 H 831.893 -3.26473 0.0910462 0
M  V30 8941 H 830.552 -2.93416 2.19778 0
M  V30 8942 H 830.2 -4.96823 0.785876 0
M  V30 8943 H 829.9 -5.31411 2.5075 0
M  V30 8944 H 831.424 -5.85125 1.74533 0
M  V30 8945 H 832.838 -4.49051 3.56407 0
M  V30 8946 H 831.235 -4.19005 4.29598 0
M  V30 8947 H 832.305 -2.82105 3.94391 0
M  V30 8948 N 833.648 -1.19017 -1.03309 0
M  V30 8949 C 834.873 -1.01598 -1.80811 0
M  V30 8950 C 835.298 0.430773 -1.83101 0
M  V30 8951 O 834.656 1.30946 -1.25391 0
M  V30 8952 C 834.704 -1.5845 -3.23923 0
M  V30 8953 O 833.808 -0.810972 -4.04348 0
M  V30 8954 H 833.149 -0.359398 -0.558327 0
M  V30 8955 H 835.679 -1.57945 -1.30055 0
M  V30 8956 H 835.689 -1.61486 -3.74682 0
M  V30 8957 H 834.364 -2.63752 -3.21571 0
M  V30 8958 H 832.941 -0.85353 -3.63 0
M  V30 8959 N 835.127 1.22348 -0.993418 0
M  V30 8960 C 836.057 2.26584 -0.564088 0
M  V30 8961 C 837.038 1.65102 0.409298 0
M  V30 8962 O 838.223 1.91872 0.299819 0
M  V30 8963 C 835.353 3.47087 0.121554 0
M  V30 8964 C 834.307 4.21009 -0.770429 0
M  V30 8965 C 833.633 5.34678 0.0481586 0
M  V30 8966 C 834.933 4.79636 -2.06752 0
M  V30 8967 H 836.627 2.62749 -1.43538 0
M  V30 8968 H 834.173 1.26303 -0.691628 0
M  V30 8969 H 836.126 4.19166 0.433303 0
M  V30 8970 H 834.85 3.1002 1.0274 0
M  V30 8971 H 833.509 3.50764 -1.06583 0
M  V30 8972 H 833.157 4.93852 0.954933 0
M  V30 8973 H 832.857 5.85061 -0.545641 0
M  V30 8974 H 834.381 6.09573 0.353991 0
M  V30 8975 H 835.795 5.43654 -1.81969 0
M  V30 8976 H 834.192 5.4036 -2.61019 0
M  V30 8977 H 835.262 3.99659 -2.74592 0
M  V30 8978 N 836.605 0.766683 1.37694 0
M  V30 8979 C 837.853 0.328065 1.9942 0
M  V30 8980 C 838.174 -1.09775 1.61166 0
M  V30 8981 O 837.444 -1.75288 0.874686 0
M  V30 8982 H 836.024 0.11831 0.737572 0
M  V30 8983 H 838.686 0.983686 1.68255 0
M  V30 8984 H 837.782 0.401647 3.09505 0
M  V30 8985 N 838.083 -1.48885 0.516809 0
M  V30 8986 C 839.332 -2.01686 -0.0239899 0
M  V30 8987 C 839.645 -1.40029 -1.3657 0
M  V30 8988 O 840.851 -1.84249 -1.9941 0
M  V30 8989 C 839.307 -3.59779 -0.0931825 0
M  V30 8990 C 838.915 -4.30416 1.24283 0
M  V30 8991 C 840.659 -4.20471 -0.583507 0
M  V30 8992 C 838.566 -5.80408 1.13494 0
M  V30 8993 H 837.496 -0.753892 -0.0127376 0
M  V30 8994 H 840.147 -1.71273 0.65861 0
M  V30 8995 H 838.529 -3.86976 -0.840577 0
M  V30 8996 H 839.703 -4.14905 2.00476 0
M  V30 8997 H 838.018 -3.81539 1.66785 0
M  V30 8998 H 840.615 -5.30333 -0.681987 0
M  V30 8999 H 840.958 -3.84898 -1.58617 0
M  V30 9000 H 841.491 -3.97654 0.107814 0
M  V30 9001 H 838.23 -6.20532 2.11235 0
M  V30 9002 H 837.75 -5.98368 0.414167 0
M  V30 9003 H 839.429 -6.41781 0.820162 0
M  V30 9004 N 839.561 -0.251338 -1.55583 0
M  V30 9005 C 840.511 0.660351 -2.18228 0
M  V30 9006 C 841.495 1.13596 -1.13951 0
M  V30 9007 O 842.687 1.08499 -1.39846 0
M  V30 9008 C 839.816 1.85498 -2.88869 0
M  V30 9009 C 838.902 1.39767 -4.00407 0
M  V30 9010 N 839.293 0.654876 -5.01543 0
M  V30 9011 C 837.591 1.68259 -4.13044 0
M  V30 9012 C 838.292 0.417521 -5.802 0
M  V30 9013 N 837.268 0.983032 -5.34638 0
M  V30 9014 H 841.07 0.0847425 -2.93778 0
M  V30 9015 H 838.584 -0.0538456 -1.62311 0
M  V30 9016 H 840.581 2.51916 -3.3218 0
M  V30 9017 H 839.241 2.43477 -2.14823 0
M  V30 9018 H 840.252 0.304545 -5.17004 0
M  V30 9019 H 836.929 2.27344 -3.50172 0
M  V30 9020 H 838.319 -0.175764 -6.7167 0
M  V30 9021 N 841.039 1.57585 0.0217189 0
M  V30 9022 C 841.969 2.10073 1.01939 0
M  V30 9023 C 842.95 1.0049 1.37243 0
M  V30 9024 O 844.135 1.28055 1.45999 0
M  V30 9025 C 841.265 2.58618 2.31806 0
M  V30 9026 C 840.219 3.72531 2.10724 0
M  V30 9027 C 839.545 4.07309 3.46415 0
M  V30 9028 C 840.845 5.00672 1.48743 0
M  V30 9029 H 842.539 2.9368 0.582432 0
M  V30 9030 H 840.085 1.41277 0.278715 0
M  V30 9031 H 842.038 2.9396 3.01936 0
M  V30 9032 H 840.762 1.72104 2.77575 0
M  V30 9033 H 839.421 3.37549 1.43025 0
M  V30 9034 H 839.069 3.17851 3.89846 0
M  V30 9035 H 838.769 4.84042 3.33132 0
M  V30 9036 H 840.293 4.45192 4.17895 0
M  V30 9037 H 841.707 5.33925 2.088 0
M  V30 9038 H 840.104 5.82065 1.46013 0
M  V30 9039 H 841.174 4.82769 0.45408 0
M  V30 9040 N 842.517 -0.29412 1.54831 0
M  V30 9041 C 843.465 -1.38296 1.87021 0
M  V30 9042 C 844.459 -1.5216 0.744557 0
M  V30 9043 O 845.665 -1.54196 0.92864 0
M  V30 9044 H 842.04 -0.462088 0.593278 0
M  V30 9045 H 844.011 -1.08386 2.7802 0
M  V30 9046 C 842.76 -2.74024 2.14023 0
M  V30 9047 H 842.083 -2.6414 3.00117 0
M  V30 9048 H 843.523 -3.49205 2.40482 0
M  V30 9049 C 841.982 -3.23492 0.940982 0
M  V30 9050 O 842.512 -4.01361 0.164937 0
M  V30 9051 N 840.718 -2.80902 0.744467 0
M  V30 9052 H 840.265 -2.17694 1.37721 0
M  V30 9053 H 840.223 -3.14349 -0.0563652 0
M  V30 9054 N 843.995 -1.47404 -0.557645 0
M  V30 9055 C 845.406 -1.47872 -1.13977 0
M  V30 9056 C 845.757 -0.233176 -1.94809 0
M  V30 9057 O 844.882 0.661945 -2.06027 0
M  V30 9058 C 845.477 -2.67926 -2.07368 0
M  V30 9059 C 844.036 -2.71354 -2.60852 0
M  V30 9060 C 843.183 -2.40967 -1.37223 0
M  V30 9061 H 846.134 -1.54921 -0.344268 0
M  V30 9062 H 846.155 -2.44871 -2.91236 0
M  V30 9063 H 845.667 -3.58562 -1.48509 0
M  V30 9064 H 843.768 -1.84855 -3.23511 0
M  V30 9065 H 843.881 -3.72032 -3.01876 0
M  V30 9066 H 842.245 -1.91541 -1.67882 0
M  V30 9067 H 843.028 -3.33811 -0.801583 0
M  V30 9068 N 845.473 0.80434 -1.35529 0
M  V30 9069 C 846.421 1.93769 -1.28671 0
M  V30 9070 C 847.415 1.68428 -0.181222 0
M  V30 9071 O 848.621 1.76617 -0.347338 0
M  V30 9072 H 844.996 0.636663 -0.400206 0
M  V30 9073 H 846.967 1.96673 -2.24415 0
M  V30 9074 C 845.716 3.30572 -1.07784 0
M  V30 9075 H 845.039 3.5063 -1.9209 0
M  V30 9076 H 846.479 4.1027 -1.07027 0
M  V30 9077 C 844.938 3.36193 0.218213 0
M  V30 9078 O 845.468 3.82941 1.21323 0
M  V30 9079 N 843.674 2.89455 0.257761 0
M  V30 9080 H 843.221 2.51604 -0.552562 0
M  V30 9081 H 843.179 2.93597 1.12465 0
M  V30 9082 N 846.951 1.19563 1.02676 0
M  V30 9083 C 847.898 0.935291 2.11 0
M  V30 9084 C 848.868 -0.130685 1.65585 0
M  V30 9085 O 850.053 0.0119062 1.90796 0
M  V30 9086 C 847.193 0.482384 3.41712 0
M  V30 9087 C 846.306 1.61537 4.00662 0
M  V30 9088 C 845.441 1.11378 5.19392 0
M  V30 9089 C 844.48 2.22052 5.70403 0
M  V30 9090 N 843.617 1.73185 6.80405 0
M  V30 9091 H 848.457 1.86275 2.32606 0
M  V30 9092 H 845.994 0.928656 1.14081 0
M  V30 9093 H 847.952 0.20118 4.16715 0
M  V30 9094 H 846.582 -0.408086 3.2021 0
M  V30 9095 H 845.634 2.01173 3.22852 0
M  V30 9096 H 846.946 2.44912 4.34534 0
M  V30 9097 H 846.1 0.787935 6.01562 0
M  V30 9098 H 844.839 0.249789 4.8706 0
M  V30 9099 H 843.844 2.55465 4.86845 0
M  V30 9100 H 845.069 3.08911 6.04774 0
M  V30 9101 H 843.015 0.890973 6.49921 0
M  V30 9102 H 842.932 2.50148 7.13416 0
M  V30 9103 H 844.2 1.4357 7.66164 0
M  V30 9104 N 848.429 -1.21819 0.999893 0
M  V30 9105 C 849.657 -1.94758 0.698359 0
M  V30 9106 C 850.072 -1.73771 -0.738183 0
M  V30 9107 O 849.429 -1.04113 -1.49889 0
M  V30 9108 C 849.48 -3.47292 1.00353 0
M  V30 9109 O 849.201 -3.67579 2.38363 0
M  V30 9110 C 850.702 -4.37403 0.72068 0
M  V30 9111 H 847.922 -0.619512 0.257771 0
M  V30 9112 H 850.466 -1.54778 1.33656 0
M  V30 9113 H 848.621 -3.85213 0.411018 0
M  V30 9114 H 849.035 -4.61719 2.48829 0
M  V30 9115 H 850.509 -5.43151 0.984422 0
M  V30 9116 H 850.986 -4.3784 -0.345309 0
M  V30 9117 H 851.592 -4.05119 1.29456 0
M  V30 9118 N 849.908 -0.773975 -1.37286 0
M  V30 9119 C 850.855 -0.159938 -2.30245 0
M  V30 9120 C 851.825 0.687356 -1.51211 0
M  V30 9121 O 853.01 0.639255 -1.79773 0
M  V30 9122 C 850.15 0.711452 -3.37687 0
M  V30 9123 C 849.263 -0.152692 -4.3173 0
M  V30 9124 C 848.398 0.723613 -5.26248 0
M  V30 9125 C 847.437 -0.14293 -6.11933 0
M  V30 9126 N 846.574 0.691479 -6.98687 0
M  V30 9127 H 851.414 -0.958182 -2.82175 0
M  V30 9128 H 848.951 -0.48411 -1.38906 0
M  V30 9129 H 850.909 1.2315 -3.9861 0
M  V30 9130 H 849.539 1.47528 -2.87116 0
M  V30 9131 H 848.591 -0.790574 -3.72094 0
M  V30 9132 H 849.903 -0.821027 -4.91997 0
M  V30 9133 H 849.057 1.31006 -5.92387 0
M  V30 9134 H 847.796 1.42562 -4.66398 0
M  V30 9135 H 846.801 -0.7419 -5.44771 0
M  V30 9136 H 848.026 -0.842305 -6.73856 0
M  V30 9137 H 845.972 1.37806 -6.41362 0
M  V30 9138 H 845.889 0.0804911 -7.55957 0
M  V30 9139 H 847.157 1.26225 -7.69212 0
M  V30 9140 N 851.386 1.48609 -0.524698 0
M  V30 9141 C 852.802 1.58557 -0.182199 0
M  V30 9142 C 853.002 1.52732 1.31435 0
M  V30 9143 O 852.058 1.41362 2.0922 0
M  V30 9144 C 853.371 2.90406 -0.78004 0
M  V30 9145 C 854.919 3.03924 -0.748293 0
M  V30 9146 C 855.394 4.38427 -1.32462 0
M  V30 9147 N 856.885 4.4498 -1.28635 0
M  V30 9148 C 857.62 5.47551 -1.70223 0
M  V30 9149 N 857.116 6.57103 -2.19515 0
M  V30 9150 N 858.909 5.38402 -1.61493 0
M  V30 9151 H 851.06 1.50638 -1.4974 0
M  V30 9152 H 853.323 0.714952 -0.622533 0
M  V30 9153 H 853.029 3.00308 -1.83052 0
M  V30 9154 H 852.903 3.76343 -0.254075 0
M  V30 9155 H 855.29 2.93638 0.293407 0
M  V30 9156 H 855.371 2.19611 -1.31167 0
M  V30 9157 H 855.015 4.49466 -2.36522 0
M  V30 9158 H 854.945 5.21418 -0.736967 0
M  V30 9159 H 857.436 3.66393 -0.92545 0
M  V30 9160 H 857.749 7.31499 -2.49257 0
M  V30 9161 H 856.094 6.58081 -2.23506 0
M  V30 9162 H 859.285 4.5171 -1.22785 0
M  V30 9163 H 859.458 6.18208 -1.94225 0
M  V30 9164 N 852.864 0.259585 1.55447 0
M  V30 9165 C 854.11 -0.355207 2.00274 0
M  V30 9166 C 854.465 -1.54637 1.14477 0
M  V30 9167 O 853.758 -1.90519 0.203215 0
M  V30 9168 C 853.952 -0.802727 3.48269 0
M  V30 9169 C 853.781 0.34353 4.48386 0
M  V30 9170 C 852.551 0.822317 4.98564 0
M  V30 9171 C 854.749 1.17482 5.00702 0
M  V30 9172 N 852.731 1.93966 5.82452 0
M  V30 9173 C 854.102 2.14032 5.81885 0
M  V30 9174 C 856.157 1.20994 4.82975 0
M  V30 9175 C 854.86 3.1382 6.47232 0
M  V30 9176 C 856.886 2.19618 5.4911 0
M  V30 9177 C 856.248 3.14903 6.30092 0
M  V30 9178 H 852.347 -0.0955824 0.776137 0
M  V30 9179 H 854.931 0.380062 1.90954 0
M  V30 9180 H 853.102 -1.50726 3.57961 0
M  V30 9181 H 854.834 -1.39354 3.79951 0
M  V30 9182 H 851.589 0.404272 4.71871 0
M  V30 9183 H 852.013 2.50148 6.29091 0
M  V30 9184 H 856.655 0.487104 4.19985 0
M  V30 9185 H 854.373 3.87045 7.09381 0
M  V30 9186 H 857.959 2.23057 5.37342 0
M  V30 9187 H 856.839 3.8997 6.80362 0
M  V30 9188 N 854.342 -1.57594 -0.0133615 0
M  V30 9189 C 855.59 -1.89605 -0.699596 0
M  V30 9190 C 855.911 -0.85926 -1.75048 0
M  V30 9191 O 855.181 0.105112 -1.95618 0
M  V30 9192 H 853.761 -0.699776 -0.261385 0
M  V30 9193 H 856.423 -1.94885 0.0244044 0
M  V30 9194 H 855.519 -2.88962 -1.17928 0
M  V30 9195 N 855.82 0.285905 -1.54985 0
M  V30 9196 C 857.05 1.03626 -1.78732 0
M  V30 9197 C 857.458 1.80896 -0.554377 0
M  V30 9198 O 856.801 1.77161 0.48578 0
M  V30 9199 C 856.863 2.05185 -2.95193 0
M  V30 9200 C 856.527 1.46973 -4.32722 0
M  V30 9201 C 857.524 0.891986 -5.12191 0
M  V30 9202 C 855.209 1.50081 -4.79355 0
M  V30 9203 C 857.203 0.353078 -6.36421 0
M  V30 9204 C 854.89 0.958037 -6.03544 0
M  V30 9205 C 855.888 0.385157 -6.81913 0
M  V30 9206 O 855.576 -0.149341 -8.03761 0
M  V30 9207 H 855.308 0.312416 -0.599477 0
M  V30 9208 H 857.862 0.326067 -2.02795 0
M  V30 9209 H 856.092 2.79928 -2.66791 0
M  V30 9210 H 857.781 2.66244 -3.0638 0
M  V30 9211 H 858.547 0.860762 -4.77301 0
M  V30 9212 H 854.426 1.9361 -4.18373 0
M  V30 9213 H 857.97 -0.0947181 -6.97536 0
M  V30 9214 H 853.867 0.986458 -6.37918 0
M  V30 9215 H 854.635 -0.0374719 -8.18491 0
M  V30 9216 N 857.298 1.47698 0.54982 0
M  V30 9217 C 858.523 1.58579 1.33669 0
M  V30 9218 C 858.948 0.239049 1.86575 0
M  V30 9219 O 858.306 -0.786256 1.63364 0
M  V30 9220 C 858.354 2.62029 2.47736 0
M  V30 9221 O 857.458 2.17813 3.50188 0
M  V30 9222 H 856.799 0.532447 0.396732 0
M  V30 9223 H 859.329 1.93536 0.6637 0
M  V30 9224 H 859.339 2.82682 2.94202 0
M  V30 9225 H 858.014 3.59812 2.08586 0
M  V30 9226 H 856.591 2.07291 3.09976 0
M  V30 9227 N 858.776 -0.797141 1.35954 0
M  V30 9228 C 859.706 -1.92387 1.32323 0
M  V30 9229 C 860.687 -1.68967 0.196007 0
M  V30 9230 O 861.872 -1.90193 0.39245 0
M  V30 9231 C 859.002 -3.29286 1.10398 0
M  V30 9232 C 857.956 -3.67212 2.19862 0
M  V30 9233 C 857.282 -5.02377 1.8309 0
M  V30 9234 C 858.582 -3.76602 3.61896 0
M  V30 9235 H 860.276 -1.95683 2.26602 0
M  V30 9236 H 857.822 -0.94007 1.09081 0
M  V30 9237 H 859.775 -4.07721 1.06495 0
M  V30 9238 H 858.499 -3.26358 0.125668 0
M  V30 9239 H 857.158 -2.91069 2.22878 0
M  V30 9240 H 856.806 -4.95961 0.838527 0
M  V30 9241 H 856.506 -5.28722 2.56372 0
M  V30 9242 H 858.03 -5.8324 1.80729 0
M  V30 9243 H 859.444 -4.45246 3.6115 0
M  V30 9244 H 857.841 -4.14425 4.34018 0
M  V30 9245 H 858.911 -2.77906 3.97361 0
M  V30 9246 N 860.254 -1.20106 -1.0204 0
M  V30 9247 C 861.202 -0.943231 -2.12617 0
M  V30 9248 C 862.196 0.104042 -1.6908 0
M  V30 9249 O 863.402 -0.0459732 -1.79941 0
M  V30 9250 H 859.777 -0.28767 -0.694802 0
M  V30 9251 H 861.748 -1.88221 -2.3155 0
M  V30 9252 C 860.497 -0.50771 -3.43973 0
M  V30 9253 H 859.82 -1.30514 -3.77897 0
M  V30 9254 H 861.26 -0.366486 -4.22413 0
M  V30 9255 C 859.719 0.77939 -3.27761 0
M  V30 9256 O 860.249 1.83876 -3.57145 0
M  V30 9257 N 858.455 0.739931 -2.81022 0
M  V30 9258 H 858.002 -0.122426 -2.57309 0
M  V30 9259 H 857.96 1.60147 -2.70556 0
M  V30 9260 N 861.732 1.21287 -1.00634 0
M  V30 9261 C 862.979 1.90389 -0.6898 0
M  V30 9262 C 863.307 1.78193 0.779574 0
M  V30 9263 O 862.562 1.15358 1.58085 0
M  V30 9264 C 862.861 3.41374 -1.05824 0
M  V30 9265 C 862.527 3.73766 -2.5221 0
M  V30 9266 C 861.189 3.82317 -2.92211 0
M  V30 9267 C 863.541 3.88871 -3.47028 0
M  V30 9268 C 860.869 4.03423 -4.2599 0
M  V30 9269 C 863.221 4.11484 -4.80483 0
M  V30 9270 C 861.885 4.18263 -5.20204 0
M  V30 9271 H 861.155 0.696683 -0.252416 0
M  V30 9272 H 863.802 1.43769 -1.26502 0
M  V30 9273 H 862.107 3.8974 -0.401281 0
M  V30 9274 H 863.804 3.93118 -0.79116 0
M  V30 9275 H 860.394 3.67702 -2.20212 0
M  V30 9276 H 864.578 3.8163 -3.17289 0
M  V30 9277 H 859.834 4.06902 -4.56334 0
M  V30 9278 H 864.008 4.22115 -5.53888 0
M  V30 9279 H 861.635 4.34369 -6.23881 0
M  V30 9280 N 863.21 0.781244 1.36873 0
M  V30 9281 C 864.143 0.120106 2.27884 0
M  V30 9282 C 865.121 -0.698961 1.4681 0
M  V30 9283 O 866.305 -0.671694 1.76126 0
M  V30 9284 C 863.432 -0.835804 3.28226 0
M  V30 9285 C 862.478 -0.0995527 4.26384 0
M  V30 9286 S 863.311 1.21903 5.2144 0
M  V30 9287 C 864.467 0.266904 6.25331 0
M  V30 9288 H 864.7 0.891796 2.83609 0
M  V30 9289 H 862.233 0.575075 1.43291 0
M  V30 9290 H 864.191 -1.3819 3.86541 0
M  V30 9291 H 862.852 -1.58068 2.71428 0
M  V30 9292 H 862.045 -0.82457 4.97209 0
M  V30 9293 H 861.647 0.375818 3.72107 0
M  V30 9294 H 863.939 -0.55725 6.75204 0
M  V30 9295 H 864.882 0.943603 7.01785 0
M  V30 9296 H 865.29 -0.126121 5.64359 0
M  V30 9297 N 864.689 -1.48329 0.532571 0
M  V30 9298 C 865.937 -2.021 -0.000581206 0
M  V30 9299 C 866.258 -1.4117 -1.34522 0
M  V30 9300 O 865.528 -0.578005 -1.87179 0
M  V30 9301 H 864.108 -0.746993 -0.00320281 0
M  V30 9302 H 866.77 -1.82011 0.696991 0
M  V30 9303 H 865.866 -3.11917 -0.106991 0
M  V30 9304 N 866.167 -0.267825 -1.55308 0
M  V30 9305 C 867.397 0.354073 -2.03543 0
M  V30 9306 C 867.805 1.50554 -1.14586 0
M  V30 9307 O 867.148 1.83028 -0.156991 0
M  V30 9308 C 867.21 0.904148 -3.47945 0
M  V30 9309 C 866.874 -0.11775 -4.56848 0
M  V30 9310 C 867.871 -0.934707 -5.11429 0
M  V30 9311 C 865.556 -0.249885 -5.01678 0
M  V30 9312 C 867.55 -1.87005 -6.0935 0
M  V30 9313 C 865.237 -1.18872 -5.99427 0
M  V30 9314 C 866.235 -1.99731 -6.53144 0
M  V30 9315 O 865.923 -2.92028 -7.48983 0
M  V30 9316 H 865.655 0.0857765 -0.670536 0
M  V30 9317 H 868.209 -0.395515 -2.01556 0
M  V30 9318 H 866.439 1.70368 -3.47148 0
M  V30 9319 H 868.128 1.43835 -3.79561 0
M  V30 9320 H 868.894 -0.84332 -4.77612 0
M  V30 9321 H 864.773 0.369469 -4.59517 0
M  V30 9322 H 868.317 -2.5016 -6.51203 0
M  V30 9323 H 864.214 -1.28095 -6.32663 0
M  V30 9324 H 864.982 -2.86627 -7.66673 0
M  V30 9325 N 867.645 1.57599 0.00500368 0
M  V30 9326 C 868.891 1.90631 0.691919 0
M  V30 9327 C 869.224 0.868443 1.737 0
M  V30 9328 O 868.499 -0.113482 1.94169 0
M  V30 9329 C 868.782 3.34255 1.33961 0
M  V30 9330 C 868.635 4.48755 0.306413 0
M  V30 9331 C 869.954 3.77211 2.26715 0
M  V30 9332 H 867.073 0.693279 0.250066 0
M  V30 9333 H 869.715 1.89946 -0.0452634 0
M  V30 9334 H 867.865 3.3497 1.96793 0
M  V30 9335 H 869.537 4.60176 -0.321841 0
M  V30 9336 H 867.78 4.32203 -0.371852 0
M  V30 9337 H 868.451 5.46193 0.798554 0
M  V30 9338 H 870.927 3.78017 1.73904 0
M  V30 9339 H 869.803 4.78466 2.69002 0
M  V30 9340 H 870.064 3.10801 3.14413 0
M  V30 9341 N 869.123 -0.277682 1.55134 0
M  V30 9342 C 870.372 -1.00766 1.74726 0
M  V30 9343 C 870.685 -1.87617 0.553092 0
M  V30 9344 O 871.891 -2.64058 0.631318 0
M  V30 9345 C 870.347 -1.84147 3.09221 0
M  V30 9346 C 869.955 -1.02186 4.3619 0
M  V30 9347 C 871.699 -2.56604 3.38164 0
M  V30 9348 C 869.606 -1.84978 5.61727 0
M  V30 9349 H 868.536 -0.379948 0.651273 0
M  V30 9350 H 871.187 -0.263543 1.81598 0
M  V30 9351 H 869.569 -2.62637 2.96375 0
M  V30 9352 H 870.743 -0.281459 4.5994 0
M  V30 9353 H 869.058 -0.412054 4.14356 0
M  V30 9354 H 871.655 -3.18942 4.29162 0
M  V30 9355 H 871.998 -3.26647 2.58085 0
M  V30 9356 H 872.531 -1.85147 3.52087 0
M  V30 9357 H 869.27 -1.19365 6.4454 0
M  V30 9358 H 868.79 -2.56628 5.42128 0
M  V30 9359 H 870.469 -2.42458 5.99853 0
M  V30 9360 N 870.601 -1.47988 -0.541979 0
M  V30 9361 C 871.849 -1.55086 -1.29587 0
M  V30 9362 C 872.17 -0.221304 -1.9374 0
M  V30 9363 O 871.44 0.756128 -1.80719 0
M  V30 9364 H 870.02 -0.571307 -0.481266 0
M  V30 9365 H 872.682 -1.8438 -0.631675 0
M  V30 9366 H 871.778 -2.32556 -2.08144 0
M  V30 9367 N 872.079 0.78992 -1.36375 0
M  V30 9368 C 873.304 1.58389 -1.33895 0
M  V30 9369 C 873.729 1.8794 0.0774934 0
M  V30 9370 O 873.087 1.4785 1.0493 0
M  V30 9371 C 873.135 2.88201 -2.16732 0
M  V30 9372 O 872.239 3.81778 -1.55946 0
M  V30 9373 H 871.58 0.480471 -0.458305 0
M  V30 9374 H 874.11 0.979119 -1.79651 0
M  V30 9375 H 874.12 3.37475 -2.29292 0
M  V30 9376 H 872.795 2.66019 -3.19698 0
M  V30 9377 H 871.372 3.40371 -1.52323 0
M  V30 9378 N 873.557 1.20646 1.01402 0
M  V30 9379 C 874.787 1.04238 1.78376 0
M  V30 9380 C 875.195 -0.411327 1.84675 0
M  V30 9381 O 874.538 -1.29734 1.30057 0
M  V30 9382 C 874.6 1.55349 3.24202 0
M  V30 9383 C 874.264 3.03684 3.41504 0
M  V30 9384 C 875.261 4.01318 3.30514 0
M  V30 9385 C 872.946 3.42698 3.67237 0
M  V30 9386 C 874.94 5.35956 3.45007 0
M  V30 9387 C 872.627 4.77491 3.81373 0
M  V30 9388 C 873.625 5.73929 3.70263 0
M  V30 9389 O 873.313 7.06277 3.83963 0
M  V30 9390 H 873.045 0.366978 0.567718 0
M  V30 9391 H 875.599 1.60235 1.28506 0
M  V30 9392 H 873.829 0.93739 3.75166 0
M  V30 9393 H 875.518 1.34921 3.8282 0
M  V30 9394 H 876.284 3.72522 3.10568 0
M  V30 9395 H 872.163 2.68175 3.74971 0
M  V30 9396 H 875.707 6.11212 3.36252 0
M  V30 9397 H 871.604 5.05977 4.00821 0
M  V30 9398 H 872.372 7.13561 4.00965 0
M  V30 9399 N 875.035 -1.20752 1.01276 0
M  V30 9400 C 876.283 -1.89645 0.698505 0
M  V30 9401 C 876.604 -1.78986 -0.773883 0
M  V30 9402 O 875.874 -1.18977 -1.55632 0
M  V30 9403 H 874.454 -0.701992 0.255375 0
M  V30 9404 H 877.116 -1.46668 1.28353 0
M  V30 9405 H 876.212 -2.96364 0.978512 0
M  V30 9406 N 876.513 -0.788492 -1.36457 0
M  V30 9407 C 877.738 -0.371224 -2.04051 0
M  V30 9408 C 878.163 1.004 -1.59064 0
M  V30 9409 O 877.521 1.64663 -0.758679 0
M  V30 9410 C 877.569 -0.442275 -3.57877 0
M  V30 9411 O 876.673 0.55113 -4.08701 0
M  V30 9412 H 876.014 -0.157808 -0.644975 0
M  V30 9413 H 878.544 -1.06935 -1.74431 0
M  V30 9414 H 878.554 -0.305548 -4.06854 0
M  V30 9415 H 877.229 -1.44547 -3.89973 0
M  V30 9416 H 875.806 0.37614 -3.70998 0
M  V30 9417 N 877.991 1.48044 -0.54043 0
M  V30 9418 C 878.921 2.32597 0.205178 0
M  V30 9419 C 879.902 1.42748 0.925041 0
M  V30 9420 O 881.087 1.71624 0.908784 0
M  V30 9421 C 878.217 3.24175 1.24612 0
M  V30 9422 C 877.171 4.23131 0.64376 0
M  V30 9423 C 876.497 5.03915 1.78812 0
M  V30 9424 C 877.797 5.20831 -0.39144 0
M  V30 9425 H 879.491 2.95184 -0.500676 0
M  V30 9426 H 877.037 1.41948 -0.242225 0
M  V30 9427 H 878.99 3.82158 1.77576 0
M  V30 9428 H 877.714 2.59608 1.98169 0
M  V30 9429 H 876.373 3.66349 0.135554 0
M  V30 9430 H 876.021 4.35765 2.51232 0
M  V30 9431 H 875.721 5.709 1.39094 0
M  V30 9432 H 877.245 5.64753 2.32134 0
M  V30 9433 H 878.659 5.73277 0.0515064 0
M  V30 9434 H 877.056 5.95926 -0.706569 0
M  V30 9435 H 878.126 4.6733 -1.29345 0
M  V30 9436 N 879.47 0.276058 1.55163 0
M  V30 9437 C 880.881 -0.221516 1.85381 0
M  V30 9438 C 881.232 -1.55372 1.19808 0
M  V30 9439 O 880.357 -2.10855 0.486742 0
M  V30 9440 C 880.952 -0.408706 3.36326 0
M  V30 9441 C 879.511 -0.850512 3.66665 0
M  V30 9442 C 878.658 0.055656 2.77244 0
M  V30 9443 H 881.609 0.497819 1.5069 0
M  V30 9444 H 881.63 -1.24711 3.59482 0
M  V30 9445 H 881.142 0.561052 3.84023 0
M  V30 9446 H 879.243 -1.83171 3.24468 0
M  V30 9447 H 879.356 -0.687181 4.74146 0
M  V30 9448 H 877.72 -0.460819 2.50497 0
M  V30 9449 H 878.503 1.02131 3.27756 0
M  V30 9450 N 880.948 -1.576 0.00335426 0
M  V30 9451 C 881.88 -2.0549 -1.01521 0
M  V30 9452 C 882.893 -0.973441 -1.30491 0
M  V30 9453 O 884.082 -1.25017 -1.27409 0
M  V30 9454 C 881.182 -2.44272 -2.34914 0
M  V30 9455 C 880.355 -3.75191 -2.24835 0
M  V30 9456 C 879.414 -4.00804 -3.40944 0
M  V30 9457 O 878.44 -4.71423 -3.18981 0
M  V30 9458 N 879.642 -3.48961 -4.63904 0
M  V30 9459 H 882.407 -2.93493 -0.60678 0
M  V30 9460 H 879.968 -1.60851 -0.18396 0
M  V30 9461 H 881.96 -2.58518 -3.11369 0
M  V30 9462 H 880.53 -1.6177 -2.67487 0
M  V30 9463 H 879.75 -3.70989 -1.3327 0
M  V30 9464 H 881.038 -4.61013 -2.15277 0
M  V30 9465 H 880.436 -2.9178 -4.84645 0
M  V30 9466 H 878.993 -3.68531 -5.37613 0
M  V30 9467 N 882.426 0.269451 -1.5528 0
M  V30 9468 C 883.336 1.35511 -1.91505 0
M  V30 9469 C 884.352 1.53854 -0.812712 0
M  V30 9470 O 885.528 1.67912 -1.1121 0
M  V30 9471 C 882.593 2.6937 -2.18267 0
M  V30 9472 C 881.654 2.59743 -3.41807 0
M  V30 9473 C 880.887 3.87219 -3.67283 0
M  V30 9474 O 881.11 4.88066 -2.95208 0
M  V30 9475 O 880.044 3.87209 -4.60818 0
M  V30 9476 H 883.87 1.07785 -2.8393 0
M  V30 9477 H 881.455 0.468282 -1.41871 0
M  V30 9478 H 883.337 3.48513 -2.36889 0
M  V30 9479 H 882.012 2.96874 -1.29024 0
M  V30 9480 H 880.919 1.78964 -3.28516 0
M  V30 9481 H 882.252 2.37188 -4.3128 0
M  V30 9482 N 883.904 1.48273 0.534124 0
M  V30 9483 C 884.854 1.58889 1.63519 0
M  V30 9484 C 885.838 0.44626 1.54588 0
M  V30 9485 O 887.03 0.697474 1.62679 0
M  V30 9486 C 884.159 1.62787 3.0225 0
M  V30 9487 C 883.245 2.82515 3.16301 0
M  V30 9488 N 883.636 4.06977 3.00338 0
M  V30 9489 C 881.934 2.7976 3.47347 0
M  V30 9490 C 882.635 4.87283 3.17694 0
M  V30 9491 N 881.611 4.20024 3.45081 0
M  V30 9492 H 885.413 2.52869 1.49781 0
M  V30 9493 H 882.927 1.44587 0.739479 0
M  V30 9494 H 884.924 1.68486 3.81337 0
M  V30 9495 H 883.584 0.699201 3.17082 0
M  V30 9496 H 884.595 4.37479 2.77186 0
M  V30 9497 H 881.272 1.96132 3.68563 0
M  V30 9498 H 882.662 5.96047 3.10126 0
M  V30 9499 N 885.382 -0.782676 1.36792 0
M  V30 9500 C 886.631 -1.53605 1.30723 0
M  V30 9501 C 886.944 -1.95294 -0.109296 0
M  V30 9502 O 888.15 -2.69921 -0.292398 0
M  V30 9503 C 886.606 -2.77321 2.29393 0
M  V30 9504 C 886.214 -2.42774 3.76517 0
M  V30 9505 C 887.958 -3.55289 2.32314 0
M  V30 9506 C 885.865 -3.62926 4.66947 0
M  V30 9507 H 884.795 -0.576646 0.485794 0
M  V30 9508 H 887.446 -0.858255 1.62192 0
M  V30 9509 H 885.828 -3.46934 1.90927 0
M  V30 9510 H 887.002 -1.81014 4.23758 0
M  V30 9511 H 885.317 -1.78002 3.76436 0
M  V30 9512 H 887.914 -4.44573 2.97083 0
M  V30 9513 H 888.257 -3.94361 1.3336 0
M  V30 9514 H 888.79 -2.92662 2.69432 0
M  V30 9515 H 885.529 -3.28944 5.66989 0
M  V30 9516 H 885.049 -4.23828 4.24418 0
M  V30 9517 H 886.728 -4.29873 4.83548 0
M  V30 9518 N 886.86 -1.21182 -1.00761 0
M  V30 9519 C 888.109 -1.02166 -1.73911 0
M  V30 9520 C 888.422 0.445638 -1.90456 0
M  V30 9521 O 889.628 0.755132 -2.60787 0
M  V30 9522 C 888.084 -1.77936 -3.12837 0
M  V30 9523 C 887.692 -3.28819 -3.04273 0
M  V30 9524 C 889.436 -1.67319 -3.90134 0
M  V30 9525 C 887.343 -3.97089 -4.38262 0
M  V30 9526 H 886.273 -0.378665 -0.652019 0
M  V30 9527 H 888.924 -1.44891 -1.12601 0
M  V30 9528 H 887.306 -1.28003 -3.74742 0
M  V30 9529 H 888.48 -3.86035 -2.51622 0
M  V30 9530 H 886.795 -3.39949 -2.40465 0
M  V30 9531 H 889.392 -2.15659 -4.8928 0
M  V30 9532 H 889.735 -0.630959 -4.11491 0
M  V30 9533 H 890.268 -2.14716 -3.34876 0
M  V30 9534 H 887.007 -5.01503 -4.22107 0
M  V30 9535 H 886.527 -3.44662 -4.90885 0
M  V30 9536 H 888.206 -4.01854 -5.07072 0
M  V30 9537 N 888.338 1.20213 -1.01915 0
M  V30 9538 C 889.27 2.2251 -0.549725 0
M  V30 9539 C 890.283 1.58558 0.369235 0
M  V30 9540 O 891.472 1.77715 0.167176 0
M  V30 9541 C 888.572 3.38189 0.219432 0
M  V30 9542 C 887.745 4.31729 -0.702066 0
M  V30 9543 C 886.804 5.26196 0.0199624 0
M  V30 9544 O 885.83 5.65993 -0.60339 0
M  V30 9545 N 887.032 5.65895 1.29397 0
M  V30 9546 H 889.797 2.63412 -1.42948 0
M  V30 9547 H 887.358 1.3478 -0.896987 0
M  V30 9548 H 889.35 3.98392 0.711763 0
M  V30 9549 H 887.92 2.96156 1.00051 0
M  V30 9550 H 887.14 3.69455 -1.37466 0
M  V30 9551 H 888.428 4.91145 -1.3287 0
M  V30 9552 H 887.826 5.35579 1.8213 0
M  V30 9553 H 886.383 6.28395 1.73098 0
M  V30 9554 N 889.816 0.795718 1.36037 0
M  V30 9555 C 890.763 0.196548 2.29962 0
M  V30 9556 C 891.733 -0.663213 1.52285 0
M  V30 9557 O 892.918 -0.610574 1.80767 0
M  V30 9558 C 890.058 -0.657639 3.38776 0
M  V30 9559 C 889.171 0.221358 4.31433 0
M  V30 9560 C 888.306 -0.6398 5.27333 0
M  V30 9561 C 887.345 0.240265 6.11628 0
M  V30 9562 N 886.482 -0.580237 6.99698 0
M  V30 9563 H 891.322 1.00295 2.80615 0
M  V30 9564 H 888.859 0.506147 1.38118 0
M  V30 9565 H 890.817 -1.16793 4.00519 0
M  V30 9566 H 889.447 -1.42941 2.89426 0
M  V30 9567 H 888.499 0.84967 3.70789 0
M  V30 9568 H 889.811 0.899195 4.90628 0
M  V30 9569 H 888.965 -1.21566 5.94396 0
M  V30 9570 H 887.704 -1.35124 4.68607 0
M  V30 9571 H 886.709 0.828474 5.43522 0
M  V30 9572 H 887.934 0.949403 6.72431 0
M  V30 9573 H 885.88 -1.27585 6.43473 0
M  V30 9574 H 885.797 0.0397853 7.5599 0
M  V30 9575 H 887.065 -1.13972 7.71123 0
M  V30 9576 N 891.294 -1.47756 0.548274 0
M  V30 9577 C 892.543 -2.01691 0.0187961 0
M  V30 9578 C 892.856 -1.42894 -1.33569 0
M  V30 9579 O 894.062 -1.88438 -1.95457 0
M  V30 9580 C 892.518 -3.59896 -0.016847 0
M  V30 9581 C 892.126 -4.27683 1.33385 0
M  V30 9582 C 893.87 -4.21614 -0.494188 0
M  V30 9583 C 891.777 -5.7787 1.2578 0
M  V30 9584 H 890.707 -0.753993 0.00325648 0
M  V30 9585 H 893.358 -1.69838 0.694792 0
M  V30 9586 H 891.74 -3.88672 -0.758304 0
M  V30 9587 H 892.914 -4.10559 2.09232 0
M  V30 9588 H 891.229 -3.77915 1.7484 0
M  V30 9589 H 893.826 -5.3166 -0.569342 0
M  V30 9590 H 894.169 -3.88176 -1.50417 0
M  V30 9591 H 894.702 -3.97336 0.192138 0
M  V30 9592 H 891.441 -6.15912 2.2435 0
M  V30 9593 H 890.961 -5.97355 0.540997 0
M  V30 9594 H 892.64 -6.39897 0.956109 0
M  V30 9595 N 892.772 -0.284283 -1.55015 0
M  V30 9596 C 893.719 0.599194 -2.22886 0
M  V30 9597 C 894.689 1.14264 -1.20553 0
M  V30 9598 O 895.874 1.19025 -1.49123 0
M  V30 9599 C 893.014 1.77317 -2.96062 0
M  V30 9600 C 892.127 1.26271 -4.13134 0
M  V30 9601 C 891.262 2.39922 -4.73931 0
M  V30 9602 C 890.301 1.85925 -5.8318 0
M  V30 9603 N 889.438 2.93084 -6.38002 0
M  V30 9604 H 894.278 0.0137816 -2.97997 0
M  V30 9605 H 891.815 -0.00496503 -1.47099 0
M  V30 9606 H 893.773 2.46339 -3.36709 0
M  V30 9607 H 892.403 2.33047 -2.23358 0
M  V30 9608 H 891.455 0.465296 -3.77544 0
M  V30 9609 H 892.767 0.827284 -4.91892 0
M  V30 9610 H 891.921 3.1692 -5.17346 0
M  V30 9611 H 890.66 2.86784 -3.9447 0
M  V30 9612 H 889.665 1.07409 -5.39206 0
M  V30 9613 H 890.89 1.39987 -6.64515 0
M  V30 9614 H 888.836 3.3931 -5.61431 0
M  V30 9615 H 888.753 2.53986 -7.12058 0
M  V30 9616 H 890.021 3.7003 -6.86075 0
M  V30 9617 N 894.251 1.57596 -0.0117121 0
M  V30 9618 C 895.161 2.12596 0.991964 0
M  V30 9619 C 896.177 1.07399 1.36899 0
M  V30 9620 O 897.353 1.39365 1.45394 0
M  V30 9621 C 894.418 2.62796 2.2614 0
M  V30 9622 C 893.479 3.8264 1.94642 0
M  V30 9623 C 892.712 4.30435 3.15533 0
M  V30 9624 O 892.935 3.77495 4.27614 0
M  V30 9625 O 891.869 5.22469 2.98847 0
M  V30 9626 H 895.695 2.98597 0.554371 0
M  V30 9627 H 893.28 1.47947 0.207839 0
M  V30 9628 H 895.162 2.9523 3.00695 0
M  V30 9629 H 893.837 1.79886 2.69114 0
M  V30 9630 H 892.744 3.5516 1.17526 0
M  V30 9631 H 894.077 4.66658 1.56496 0
M  V30 9632 N 895.729 -0.261212 1.5542 0
M  V30 9633 C 896.969 -0.998748 1.78338 0
M  V30 9634 C 897.333 -1.83064 0.578914 0
M  V30 9635 O 898.534 -2.59884 0.686575 0
M  V30 9636 C 896.805 -1.84828 3.05898 0
M  V30 9637 S 898.364 -2.64686 3.49981 0
M  V30 9638 H 895.182 -0.33619 0.626496 0
M  V30 9639 H 897.784 -0.26799 1.93655 0
M  V30 9640 H 896.488 -1.22658 3.91642 0
M  V30 9641 H 896.019 -2.62203 2.9328 0
M  V30 9642 H 898.034 -3.87299 3.10184 0
M  V30 9643 N 897.207 -1.48554 -0.526253 0
M  V30 9644 C 898.454 -1.56761 -1.28188 0
M  V30 9645 C 898.782 -0.24315 -1.92974 0
M  V30 9646 O 898.037 0.766883 -1.80048 0
M  V30 9647 C 898.336 -2.65739 -2.38993 0
M  V30 9648 C 898.002 -4.08057 -1.91834 0
M  V30 9649 C 896.664 -4.46792 -1.78691 0
M  V30 9650 C 899.016 -4.9723 -1.56242 0
M  V30 9651 C 896.344 -5.72501 -1.28296 0
M  V30 9652 C 898.696 -6.23432 -1.07309 0
M  V30 9653 C 897.36 -6.6102 -0.927853 0
M  V30 9654 H 896.63 -0.573631 -0.469072 0
M  V30 9655 H 899.277 -1.82287 -0.586842 0
M  V30 9656 H 897.582 -2.34088 -3.14181 0
M  V30 9657 H 899.279 -2.69304 -2.97113 0
M  V30 9658 H 895.869 -3.77469 -2.03016 0
M  V30 9659 H 900.053 -4.67979 -1.65255 0
M  V30 9660 H 895.309 -6.00345 -1.15742 0
M  V30 9661 H 899.483 -6.91923 -0.788412 0
M  V30 9662 H 897.11 -7.58314 -0.535162 0
M  V30 9663 N 898.685 0.775411 -1.37205 0
M  V30 9664 C 900.101 1.07546 -1.17924 0
M  V30 9665 C 900.301 2.01496 -0.0128897 0
M  V30 9666 O 899.357 2.44039 0.64816 0
M  V30 9667 C 900.67 1.67647 -2.49629 0
M  V30 9668 C 902.218 1.79923 -2.56119 0
M  V30 9669 C 902.693 2.43438 -3.87946 0
M  V30 9670 N 904.184 2.50893 -3.89368 0
M  V30 9671 C 904.919 3.00881 -4.88117 0
M  V30 9672 N 904.415 3.5107 -5.97262 0
M  V30 9673 N 906.208 2.99722 -4.75524 0
M  V30 9674 H 898.359 0.151524 -2.11859 0
M  V30 9675 H 900.622 0.129845 -0.939066 0
M  V30 9676 H 900.328 1.06082 -3.3532 0
M  V30 9677 H 900.202 2.66988 -2.66453 0
M  V30 9678 H 902.589 2.40621 -1.70838 0
M  V30 9679 H 902.67 0.793482 -2.43182 0
M  V30 9680 H 902.314 1.8338 -4.73639 0
M  V30 9681 H 902.244 3.44611 -3.98184 0
M  V30 9682 H 904.735 2.1537 -3.10522 0
M  V30 9683 H 905.048 3.87604 -6.68568 0
M  V30 9684 H 903.393 3.49184 -6.00912 0
M  V30 9685 H 906.584 2.5981 -3.8938 0
M  V30 9686 H 906.757 3.38369 -5.52639 0
M  V30 9687 N 900.163 1.21714 1.00117 0
M  V30 9688 C 901.11 0.979837 2.08968 0
M  V30 9689 C 902.08 -0.0955324 1.65825 0
M  V30 9690 O 903.265 0.0523742 1.90728 0
M  V30 9691 C 900.405 0.554758 3.40612 0
M  V30 9692 C 899.518 1.69999 3.97145 0
M  V30 9693 C 898.653 1.2237 5.16913 0
M  V30 9694 C 897.692 2.34101 5.65564 0
M  V30 9695 N 896.829 1.87579 6.76579 0
M  V30 9696 H 901.669 1.91167 2.28602 0
M  V30 9697 H 899.206 0.952645 1.12085 0
M  V30 9698 H 901.164 0.289526 4.16194 0
M  V30 9699 H 899.794 -0.340073 3.21004 0
M  V30 9700 H 898.846 2.07976 3.18512 0
M  V30 9701 H 900.158 2.54074 4.29241 0
M  V30 9702 H 899.312 0.915358 5.99755 0
M  V30 9703 H 898.051 0.353045 4.8642 0
M  V30 9704 H 897.056 2.65734 4.81316 0
M  V30 9705 H 898.281 3.21669 5.98085 0
M  V30 9706 H 896.227 1.02863 6.47885 0
M  V30 9707 H 896.144 2.65225 7.07949 0
M  V30 9708 H 897.412 1.5979 7.62947 0
M  V30 9709 N 901.641 -1.19671 1.02551 0
M  V30 9710 C 902.571 -2.25009 0.623965 0
M  V30 9711 C 903.552 -1.66129 -0.36538 0
M  V30 9712 O 904.737 -1.92599 -0.248842 0
M  V30 9713 C 901.867 -3.47287 -0.0294869 0
M  V30 9714 C 900.821 -4.18818 0.881781 0
M  V30 9715 C 900.147 -5.34618 0.0936189 0
M  V30 9716 C 901.447 -4.73986 2.19396 0
M  V30 9717 H 903.141 -2.58851 1.50454 0
M  V30 9718 H 900.687 -1.24425 0.724872 0
M  V30 9719 H 902.64 -4.20168 -0.322016 0
M  V30 9720 H 901.364 -3.12635 -0.944838 0
M  V30 9721 H 900.023 -3.47815 1.15845 0
M  V30 9722 H 899.671 -4.9621 -0.823661 0
M  V30 9723 H 899.371 -5.83409 0.700568 0
M  V30 9724 H 900.895 -6.10297 -0.192249 0
M  V30 9725 H 902.309 -5.38639 1.96319 0
M  V30 9726 H 900.706 -5.3325 2.75254 0
M  V30 9727 H 901.776 -3.92238 2.85092 0
M  V30 9728 N 903.119 -0.802921 -1.35613 0
M  V30 9729 C 904.53 -0.443004 -1.81368 0
M  V30 9730 C 904.881 1.03459 -1.66706 0
M  V30 9731 O 904.006 1.80372 -1.19561 0
M  V30 9732 C 904.601 -0.797324 -3.29284 0
M  V30 9733 C 903.16 -0.490055 -3.73196 0
M  V30 9734 C 902.307 -1.02487 -2.57666 0
M  V30 9735 H 905.258 -0.994888 -1.23643 0
M  V30 9736 H 905.279 -0.0934638 -3.80385 0
M  V30 9737 H 904.791 -1.87278 -3.39924 0
M  V30 9738 H 902.892 0.576818 -3.68108 0
M  V30 9739 H 903.005 -1.02012 -4.68114 0
M  V30 9740 H 901.369 -0.44738 -2.5074 0
M  V30 9741 H 902.152 -2.10636 -2.71085 0
M  V30 9742 N 904.597 1.47463 -0.556102 0
M  V30 9743 C 905.846 2.01678 -0.029492 0
M  V30 9744 C 906.159 1.436 1.32809 0
M  V30 9745 O 907.365 1.89472 1.94455 0
M  V30 9746 C 905.821 3.599 -0.00223937 0
M  V30 9747 C 905.429 4.26969 -1.35651 0
M  V30 9748 C 907.173 4.2187 0.471822 0
M  V30 9749 C 905.08 5.77194 -1.28843 0
M  V30 9750 H 904.01 0.753965 -0.00725504 0
M  V30 9751 H 906.661 1.69467 -0.703789 0
M  V30 9752 H 905.043 3.89068 0.737682 0
M  V30 9753 H 906.217 4.09444 -2.11406 0
M  V30 9754 H 904.532 3.76983 -1.76842 0
M  V30 9755 H 907.129 5.31955 0.541139 0
M  V30 9756 H 907.472 3.88968 1.48356 0
M  V30 9757 H 908.005 3.97228 -0.213207 0
M  V30 9758 H 904.744 6.14713 -2.27613 0
M  V30 9759 H 904.264 5.9706 -0.572668 0
M  V30 9760 H 905.943 6.3938 -0.990031 0
M  V30 9761 N 906.075 0.2925 1.54862 0
M  V30 9762 C 907.023 -0.603186 2.24643 0
M  V30 9763 C 908.017 -1.1439 1.24946 0
M  V30 9764 O 909.223 -1.09552 1.42823 0
M  V30 9765 H 905.598 -0.213105 0.721173 0
M  V30 9766 H 907.569 0.00799278 2.98399 0
M  V30 9767 C 906.318 -1.76769 2.99413 0
M  V30 9768 H 905.641 -1.36084 3.75927 0
M  V30 9769 H 907.081 -2.37066 3.51533 0
M  V30 9770 C 905.54 -2.66669 2.05886 0
M  V30 9771 O 906.07 -3.67525 1.62136 0
M  V30 9772 N 904.276 -2.34216 1.7202 0
M  V30 9773 H 903.823 -1.52246 2.07795 0
M  V30 9774 H 903.781 -2.94635 1.09717 0
M  V30 9775 N 907.553 -1.57587 0.0200696 0
M  V30 9776 C 908.969 -1.56018 -0.336237 0
M  V30 9777 C 909.169 -1.02478 -1.73495 0
M  V30 9778 O 908.225 -0.667487 -2.43518 0
M  V30 9779 C 909.538 -3.00079 -0.193112 0
M  V30 9780 C 911.086 -3.11863 -0.266557 0
M  V30 9781 C 911.561 -4.57747 -0.152326 0
M  V30 9782 N 913.052 -4.62726 -0.209596 0
M  V30 9783 C 913.787 -5.73217 -0.144855 0
M  V30 9784 N 913.283 -6.92794 -0.0295487 0
M  V30 9785 N 915.076 -5.61751 -0.198184 0
M  V30 9786 H 907.227 -1.90722 0.93482 0
M  V30 9787 H 909.49 -0.876909 0.360186 0
M  V30 9788 H 909.196 -3.43167 0.770036 0
M  V30 9789 H 909.07 -3.64593 -0.967029 0
M  V30 9790 H 911.457 -2.68693 -1.22016 0
M  V30 9791 H 911.538 -2.50087 0.53758 0
M  V30 9792 H 911.182 -5.01595 0.797817 0
M  V30 9793 H 911.112 -5.17491 -0.97521 0
M  V30 9794 H 913.603 -3.76713 -0.299229 0
M  V30 9795 H 913.916 -7.72799 0.0134071 0
M  V30 9796 H 912.261 -6.95 0.00510737 0
M  V30 9797 H 915.452 -4.67222 -0.286603 0
M  V30 9798 H 915.625 -6.47839 -0.144266 0
M  V30 9799 N 909.032 0.252966 -1.55557 0
M  V30 9800 C 910.443 0.822503 -1.67606 0
M  V30 9801 C 910.794 1.86265 -0.616411 0
M  V30 9802 O 909.919 2.15082 0.238447 0
M  V30 9803 C 910.514 1.49866 -3.03852 0
M  V30 9804 C 909.073 2.01597 -3.17861 0
M  V30 9805 C 908.22 0.864943 -2.63465 0
M  V30 9806 H 911.171 0.0288958 -1.58674 0
M  V30 9807 H 911.192 2.36646 -2.97958 0
M  V30 9808 H 910.704 0.741378 -3.80953 0
M  V30 9809 H 908.805 2.80224 -2.45571 0
M  V30 9810 H 908.918 2.21752 -4.24692 0
M  V30 9811 H 907.282 1.2638 -2.21134 0
M  V30 9812 H 908.065 0.120847 -3.43087 0
M  V30 9813 N 910.51 1.48831 0.518367 0
M  V30 9814 C 911.759 1.5669 1.27008 0
M  V30 9815 C 912.072 0.250934 1.93984 0
M  V30 9816 O 913.278 0.207884 2.70703 0
M  V30 9817 C 911.734 2.76387 2.30517 0
M  V30 9818 C 911.342 4.14673 1.69559 0
M  V30 9819 C 913.086 2.93566 3.06625 0
M  V30 9820 C 910.993 5.25616 2.71076 0
M  V30 9821 H 909.923 0.583362 0.477708 0
M  V30 9822 H 912.574 1.75187 0.546052 0
M  V30 9823 H 910.956 2.51348 3.06006 0
M  V30 9824 H 912.13 4.49779 1.00179 0
M  V30 9825 H 910.445 4.02708 1.05902 0
M  V30 9826 H 913.042 3.7362 3.82508 0
M  V30 9827 H 913.385 2.03462 3.63193 0
M  V30 9828 H 913.918 3.18562 2.38251 0
M  V30 9829 H 910.657 6.17723 2.19313 0
M  V30 9830 H 910.177 4.94985 3.38748 0
M  V30 9831 H 911.856 5.5422 3.3384 0
M  V30 9832 N 911.988 -0.768124 1.37614 0
M  V30 9833 C 913.265 -1.51637 1.23554 0
M  V30 9834 C 913.645 -2.1042 -0.169331 0
M  V30 9835 O 912.993 -1.95834 -1.17735 0
M  V30 9836 C 913.203 -2.59436 2.33439 0
M  V30 9837 C 914.551 -3.2674 2.71157 0
M  V30 9838 O 915.575 -2.69733 2.32642 0
M  V30 9839 O 914.434 -4.29814 3.37524 0
M  V30 9840 H 911.528 -0.671778 0.482332 0
M  V30 9841 H 914.074 -0.804779 1.49403 0
M  V30 9842 H 912.846 -2.14146 3.27502 0
M  V30 9843 H 912.469 -3.38192 2.09073 0
M  V30 9844 N 913.466 -1.22244 -0.994698 0
M  V30 9845 C 914.712 -1.05752 -1.73747 0
M  V30 9846 C 915.067 0.403416 -1.88123 0
M  V30 9847 O 914.36 1.29511 -1.412 0
M  V30 9848 C 914.554 -1.70014 -3.14372 0
M  V30 9849 C 914.383 -3.22205 -3.1371 0
M  V30 9850 C 913.153 -3.91301 -3.19705 0
M  V30 9851 C 915.351 -4.19163 -2.98005 0
M  V30 9852 N 913.333 -5.30594 -3.08778 0
M  V30 9853 C 914.704 -5.45274 -2.95087 0
M  V30 9854 C 916.759 -4.10078 -2.82383 0
M  V30 9855 C 915.462 -6.63345 -2.78146 0
M  V30 9856 C 917.488 -5.27797 -2.66803 0
M  V30 9857 C 916.85 -6.52826 -2.6457 0
M  V30 9858 H 912.949 -0.441393 -0.64552 0
M  V30 9859 H 915.533 -1.54757 -1.18146 0
M  V30 9860 H 913.704 -1.23562 -3.68221 0
M  V30 9861 H 915.436 -1.46631 -3.77202 0
M  V30 9862 H 912.191 -3.42289 -3.27315 0
M  V30 9863 H 912.615 -6.0358 -3.06628 0
M  V30 9864 H 917.257 -3.14201 -2.82909 0
M  V30 9865 H 914.975 -7.59373 -2.76367 0
M  V30 9866 H 918.561 -5.22598 -2.557 0
M  V30 9867 H 917.441 -7.42383 -2.5266 0
M  V30 9868 N 914.944 1.19125 -1.03184 0
M  V30 9869 C 915.891 2.2245 -0.6152 0
M  V30 9870 C 916.861 1.61869 0.372502 0
M  V30 9871 O 918.046 1.88901 0.268491 0
M  V30 9872 C 915.186 3.45091 0.0248027 0
M  V30 9873 C 914.299 4.20044 -1.0093 0
M  V30 9874 C 913.434 5.30119 -0.338744 0
M  V30 9875 C 912.473 5.96833 -1.35855 0
M  V30 9876 N 911.61 6.98464 -0.713594 0
M  V30 9877 H 916.45 2.57445 -1.50086 0
M  V30 9878 H 913.987 1.26485 -0.751005 0
M  V30 9879 H 915.945 4.15149 0.413131 0
M  V30 9880 H 914.575 3.10742 0.874028 0
M  V30 9881 H 913.627 3.48901 -1.51566 0
M  V30 9882 H 914.939 4.65796 -1.78425 0
M  V30 9883 H 914.093 6.0661 0.104269 0
M  V30 9884 H 912.832 4.85446 0.468382 0
M  V30 9885 H 911.837 5.1909 -1.81179 0
M  V30 9886 H 913.062 6.4359 -2.16722 0
M  V30 9887 H 911.008 6.55959 0.0733863 0
M  V30 9888 H 910.925 7.42422 -1.42638 0
M  V30 9889 H 912.193 7.78943 -0.294681 0
M  V30 9890 N 916.422 0.810101 1.35185 0
M  V30 9891 C 917.668 0.392698 1.98962 0
M  V30 9892 C 918.001 -1.03835 1.64109 0
M  V30 9893 O 917.276 -1.721 0.9062 0
M  V30 9894 C 917.559 0.580349 3.55393 0
M  V30 9895 C 917.412 2.05658 4.00031 0
M  V30 9896 C 918.731 0.00822618 4.40099 0
M  V30 9897 H 915.85 0.144157 0.722764 0
M  V30 9898 H 918.492 1.02029 1.60281 0
M  V30 9899 H 916.642 0.0461106 3.88473 0
M  V30 9900 H 918.314 2.65348 3.77344 0
M  V30 9901 H 916.557 2.55174 3.50811 0
M  V30 9902 H 917.228 2.13875 5.08883 0
M  V30 9903 H 919.704 0.464517 4.13499 0
M  V30 9904 H 918.58 0.169414 5.48638 0
M  V30 9905 H 918.841 -1.08576 4.2856 0
M  V30 9906 N 917.9 -1.47166 0.563914 0
M  V30 9907 C 919.14 -2.04351 0.0448121 0
M  V30 9908 C 919.504 -1.42808 -1.28336 0
M  V30 9909 O 920.705 -1.91079 -1.89056 0
M  V30 9910 C 918.976 -3.57378 -0.0395795 0
M  V30 9911 S 920.535 -4.35898 -0.503833 0
M  V30 9912 H 917.353 -0.710433 0.0283795 0
M  V30 9913 H 919.955 -1.80451 0.752166 0
M  V30 9914 H 918.659 -3.99693 0.931326 0
M  V30 9915 H 918.19 -3.85785 -0.770282 0
M  V30 9916 H 920.205 -4.63852 -1.76225 0
M  V30 9917 N 919.378 -0.300708 -1.54705 0
M  V30 9918 C 920.31 0.609179 -2.20956 0
M  V30 9919 C 921.323 1.09776 -1.20221 0
M  V30 9920 O 922.512 1.01527 -1.46815 0
M  V30 9921 C 919.612 1.84595 -2.84214 0
M  V30 9922 C 918.785 1.49991 -4.10879 0
M  V30 9923 C 917.844 2.5918 -4.57943 0
M  V30 9924 O 916.87 2.24285 -5.23149 0
M  V30 9925 N 918.072 3.89714 -4.30236 0
M  V30 9926 H 920.837 0.0420111 -2.99671 0
M  V30 9927 H 918.398 -0.122896 -1.61433 0
M  V30 9928 H 920.39 2.56988 -3.12633 0
M  V30 9929 H 918.96 2.32152 -2.09342 0
M  V30 9930 H 918.18 0.608637 -3.89473 0
M  V30 9931 H 919.468 1.24409 -4.93356 0
M  V30 9932 H 918.866 4.20874 -3.77997 0
M  V30 9933 H 917.423 4.58406 -4.63365 0
M  V30 9934 N 920.856 1.57574 -0.0284266 0
M  V30 9935 C 922.272 1.56194 0.327958 0
M  V30 9936 C 922.472 1.03397 1.72949 0
M  V30 9937 O 921.528 0.680392 2.4316 0
M  V30 9938 C 922.841 3.00177 0.177196 0
M  V30 9939 C 924.389 3.12 0.250014 0
M  V30 9940 C 924.864 4.57821 0.128049 0
M  V30 9941 N 926.355 4.6283 0.185054 0
M  V30 9942 C 927.09 5.73286 0.114454 0
M  V30 9943 N 926.586 6.928 -0.00719225 0
M  V30 9944 N 928.379 5.61848 0.16839 0
M  V30 9945 H 920.53 1.90224 -0.944921 0
M  V30 9946 H 922.793 0.874987 -0.364832 0
M  V30 9947 H 922.499 3.42753 -0.788224 0
M  V30 9948 H 922.373 3.65101 0.94768 0
M  V30 9949 H 924.76 2.69337 1.20589 0
M  V30 9950 H 924.841 2.49799 -0.550835 0
M  V30 9951 H 924.485 5.01165 -0.824407 0
M  V30 9952 H 924.415 5.18001 0.947753 0
M  V30 9953 H 926.906 3.76867 0.279247 0
M  V30 9954 H 927.219 7.72781 -0.0543903 0
M  V30 9955 H 925.564 6.94987 -0.0419648 0
M  V30 9956 H 928.755 4.67367 0.261821 0
M  V30 9957 H 928.928 6.47907 0.109908 0
M  V30 9958 N 922.334 -0.244713 1.55689 0
M  V30 9959 C 923.583 -0.970373 1.76824 0
M  V30 9960 C 923.896 -1.86402 0.592764 0
M  V30 9961 O 925.102 -2.62659 0.687186 0
M  V30 9962 C 923.558 -1.77547 3.13058 0
M  V30 9963 C 923.166 -0.929104 4.3826 0
M  V30 9964 C 924.91 -2.49373 3.43531 0
M  V30 9965 C 922.817 -1.73021 5.65524 0
M  V30 9966 H 921.747 -0.366048 0.659185 0
M  V30 9967 H 924.398 -0.224964 1.82116 0
M  V30 9968 H 922.78 -2.56291 3.01879 0
M  V30 9969 H 923.954 -0.183836 4.60433 0
M  V30 9970 H 922.269 -0.324071 4.15137 0
M  V30 9971 H 924.866 -3.09767 4.35831 0
M  V30 9972 H 925.209 -3.21099 2.64955 0
M  V30 9973 H 925.742 -1.77637 3.55935 0
M  V30 9974 H 922.481 -1.05666 6.46927 0
M  V30 9975 H 922.001 -2.45071 5.47449 0
M  V30 9976 H 923.68 -2.2968 6.0486 0
M  V30 9977 N 923.813 -1.49104 -0.510467 0
M  V30 9978 C 925.059 -1.58346 -1.26705 0
M  V30 9979 C 925.392 -0.265121 -1.92382 0
M  V30 9980 O 924.667 0.730558 -1.80258 0
M  V30 9981 C 924.95 -2.7359 -2.34137 0
M  V30 9982 C 924.803 -4.1519 -1.73024 0
M  V30 9983 C 926.122 -2.84511 -3.3577 0
M  V30 9984 H 923.241 -0.57637 -0.459311 0
M  V30 9985 H 925.883 -1.81353 -0.566658 0
M  V30 9986 H 924.033 -2.54105 -2.93876 0
M  V30 9987 H 925.705 -4.46167 -1.17186 0
M  V30 9988 H 923.948 -4.21279 -1.03473 0
M  V30 9989 H 924.619 -4.91683 -2.50903 0
M  V30 9990 H 927.095 -3.0222 -2.86011 0
M  V30 9991 H 925.971 -3.6684 -4.08313 0
M  V30 9992 H 926.232 -1.93471 -3.97519 0
M  V30 9993 N 925.291 0.760815 -1.38019 0
M  V30 9994 C 926.539 1.51673 -1.33566 0
M  V30 9995 C 926.86 1.94852 0.076024 0
M  V30 9996 O 926.13 1.67112 1.02227 0
M  V30 9997 H 924.71 0.562581 -0.491438 0
M  V30 9998 H 927.372 0.904832 -1.72623 0
M  V30 9999 H 926.468 2.41102 -1.98182 0
M  V30 10000 N 926.769 1.22769 0.988202 0
M  V30 10001 C 927.699 1.02627 2.09738 0
M  V30 10002 C 928.68 -0.0543211 1.70013 0
M  V30 10003 O 929.865 0.108811 1.93895 0
M  V30 10004 C 926.995 0.608302 3.41931 0
M  V30 10005 C 925.949 1.63536 3.95525 0
M  V30 10006 C 925.275 1.07308 5.23822 0
M  V30 10007 C 926.575 3.02649 4.25677 0
M  V30 10008 H 928.269 1.954 2.26847 0
M  V30 10009 H 925.815 0.940888 1.09011 0
M  V30 10010 H 927.768 0.454478 4.18942 0
M  V30 10011 H 926.492 -0.355095 3.24664 0
M  V30 10012 H 925.151 1.77704 3.20651 0
M  V30 10013 H 924.799 0.100894 5.02899 0
M  V30 10014 H 924.499 1.75925 5.60646 0
M  V30 10015 H 926.023 0.930938 6.03462 0
M  V30 10016 H 927.437 2.91828 4.93467 0
M  V30 10017 H 925.834 3.68434 4.73684 0
M  V30 10018 H 926.904 3.52228 3.33262 0
M  V30 10019 N 928.247 -1.18576 1.03814 0
M  V30 10020 C 929.177 -2.24334 0.647795 0
M  V30 10021 C 930.158 -1.66508 -0.34774 0
M  V30 10022 O 931.343 -1.92852 -0.228401 0
M  V30 10023 C 928.473 -3.47299 0.00734922 0
M  V30 10024 C 927.427 -4.17859 0.926152 0
M  V30 10025 C 926.753 -5.34489 0.150317 0
M  V30 10026 C 928.053 -4.71632 2.24411 0
M  V30 10027 H 929.747 -2.57241 1.53191 0
M  V30 10028 H 927.293 -1.23649 0.738028 0
M  V30 10029 H 929.246 -4.20486 -0.277434 0
M  V30 10030 H 927.97 -3.13619 -0.911626 0
M  V30 10031 H 926.629 -3.46567 1.19528 0
M  V30 10032 H 926.277 -4.97056 -0.770985 0
M  V30 10033 H 925.977 -5.82633 0.762407 0
M  V30 10034 H 927.501 -6.10467 -0.127508 0
M  V30 10035 H 928.915 -5.36526 2.02021 0
M  V30 10036 H 927.312 -5.303 2.80894 0
M  V30 10037 H 928.382 -3.89192 2.89236 0
M  V30 10038 N 929.725 -0.817259 -1.34754 0
M  V30 10039 C 930.973 -0.401852 -1.98065 0
M  V30 10040 C 931.294 1.03718 -1.65129 0
M  V30 10041 O 930.564 1.71921 -0.939141 0
M  V30 10042 H 929.144 -0.145603 -0.732672 0
M  V30 10043 H 931.806 -1.04545 -1.64488 0
M  V30 10044 H 930.902 -0.516241 -3.07801 0
M  V30 10045 N 931.203 1.46865 -0.571711 0
M  V30 10046 C 932.45 2.0243 -0.0531071 0
M  V30 10047 C 932.778 1.44446 1.30252 0
M  V30 10048 O 932.033 0.595182 1.8643 0
M  V30 10049 C 932.332 3.57323 0.0742311 0
M  V30 10050 C 931.998 4.34295 -1.21237 0
M  V30 10051 C 930.66 4.55044 -1.56489 0
M  V30 10052 C 933.012 4.78577 -2.0643 0
M  V30 10053 C 930.34 5.17325 -2.76752 0
M  V30 10054 C 932.692 5.42186 -3.25909 0
M  V30 10055 C 931.356 5.61165 -3.61456 0
M  V30 10056 H 930.626 0.740745 -0.0194333 0
M  V30 10057 H 933.273 1.76366 -0.74614 0
M  V30 10058 H 931.578 3.82461 0.850325 0
M  V30 10059 H 933.275 3.97982 0.491077 0
M  V30 10060 H 929.865 4.18435 -0.927922 0
M  V30 10061 H 934.049 4.62313 -1.80501 0
M  V30 10062 H 929.305 5.30211 -3.04444 0
M  V30 10063 H 933.479 5.75459 -3.92198 0
M  V30 10064 H 931.106 6.09195 -4.54737 0
M  V30 10065 N 932.681 0.308908 1.54543 0
M  V30 10066 C 933.644 -0.550857 2.22482 0
M  V30 10067 C 934.644 -1.0551 1.21344 0
M  V30 10068 O 935.834 -0.949866 1.46025 0
M  V30 10069 C 932.966 -1.76354 2.9174 0
M  V30 10070 H 934.159 0.0428395 2.99869 0
M  V30 10071 H 931.712 0.059825 1.56185 0
M  V30 10072 H 932.447 -2.39686 2.18451 0
M  V30 10073 H 932.232 -1.40954 3.65889 0
M  V30 10074 H 933.722 -2.37417 3.43545 0
M  V30 10075 N 934.159 -1.57557 0.0367827 0
M  V30 10076 C 935.122 -2.09591 -0.927589 0
M  V30 10077 C 936.122 -1.01252 -1.24919 0
M  V30 10078 O 937.312 -1.27382 -1.18825 0
M  V30 10079 C 934.444 -2.56816 -2.24184 0
M  V30 10080 H 935.637 -2.96086 -0.476784 0
M  V30 10081 H 933.19 -1.54864 -0.211385 0
M  V30 10082 H 933.925 -1.73673 -2.73876 0
M  V30 10083 H 933.71 -3.35973 -2.0215 0
M  V30 10084 H 935.2 -2.97271 -2.93291 0
M  V30 10085 N 935.637 0.236453 -1.55816 0
M  V30 10086 C 937.048 0.80468 -1.68469 0
M  V30 10087 C 937.399 1.85601 -0.636133 0
M  V30 10088 O 936.524 2.15323 0.215622 0
M  V30 10089 C 937.119 1.46634 -3.05424 0
M  V30 10090 C 935.678 1.98214 -3.19981 0
M  V30 10091 C 934.825 0.83695 -2.64368 0
M  V30 10092 H 937.776 0.0120647 -1.58695 0
M  V30 10093 H 937.797 2.33472 -3.00451 0
M  V30 10094 H 937.309 0.700931 -3.81718 0
M  V30 10095 H 935.41 2.77604 -2.4853 0
M  V30 10096 H 935.523 2.17235 -4.2702 0
M  V30 10097 H 933.887 1.24028 -2.22462 0
M  V30 10098 H 934.67 0.084451 -3.43196 0
M  V30 10099 N 937.115 1.49373 0.502552 0
M  V30 10100 C 938.362 1.58781 1.25678 0
M  V30 10101 C 938.69 0.273819 1.92563 0
M  V30 10102 O 937.945 -0.738141 1.81246 0
M  V30 10103 C 938.244 2.69508 2.34735 0
M  V30 10104 C 937.91 4.11057 1.85318 0
M  V30 10105 C 936.572 4.49578 1.7156 0
M  V30 10106 C 938.924 4.99653 1.48312 0
M  V30 10107 C 936.252 5.74469 1.19172 0
M  V30 10108 C 938.604 6.2506 0.97377 0
M  V30 10109 C 937.268 6.62412 0.822573 0
M  V30 10110 H 936.538 0.581021 0.459887 0
M  V30 10111 H 939.185 1.83197 0.557767 0
M  V30 10112 H 937.49 2.39057 3.10418 0
M  V30 10113 H 939.187 2.73997 2.92791 0
M  V30 10114 H 935.777 3.80651 1.96985 0
M  V30 10115 H 939.961 4.70549 1.57789 0
M  V30 10116 H 935.217 6.0211 1.06176 0
M  V30 10117 H 939.391 6.93089 0.678233 0
M  V30 10118 H 937.018 7.59069 0.414453 0
M  V30 10119 N 938.594 -0.753485 1.38421 0
M  V30 10120 C 939.822 -1.54272 1.37868 0
M  V30 10121 C 940.237 -1.88774 -0.0315155 0
M  V30 10122 O 939.594 -1.52785 -0.998148 0
M  V30 10123 C 939.645 -2.84179 2.23438 0
M  V30 10124 O 939.366 -2.51149 3.58965 0
M  V30 10125 C 940.867 -3.78316 2.31067 0
M  V30 10126 H 938.087 -0.47735 0.47157 0
M  V30 10127 H 940.631 -0.932509 1.82001 0
M  V30 10128 H 938.786 -3.41577 1.82767 0
M  V30 10129 H 939.2 -3.34466 4.04021 0
M  V30 10130 H 940.674 -4.66418 2.95226 0
M  V30 10131 H 941.151 -4.18757 1.32436 0
M  V30 10132 H 941.757 -3.26842 2.72129 0
M  V30 10133 N 940.072 -1.23292 -0.981677 0
M  V30 10134 C 941.004 -0.970782 -2.07626 0
M  V30 10135 C 942.017 0.0547506 -1.62708 0
M  V30 10136 O 943.206 -0.180623 -1.77584 0
M  V30 10137 C 940.306 -0.44055 -3.36024 0
M  V30 10138 C 939.479 -1.52595 -4.09919 0
M  V30 10139 C 938.538 -1.00082 -5.16595 0
M  V30 10140 O 937.564 -1.68951 -5.43548 0
M  V30 10141 N 938.766 0.172017 -5.80245 0
M  V30 10142 H 941.531 -1.91316 -2.30691 0
M  V30 10143 H 939.092 -1.14133 -1.14828 0
M  V30 10144 H 941.084 -0.0743111 -4.04632 0
M  V30 10145 H 939.654 0.407211 -3.09936 0
M  V30 10146 H 938.874 -2.06501 -3.35784 0
M  V30 10147 H 940.162 -2.2559 -4.56055 0
M  V30 10148 H 939.56 0.748129 -5.60731 0
M  V30 10149 H 938.117 0.479532 -6.50034 0
M  V30 10150 N 941.55 1.18024 -1.04442 0
M  V30 10151 C 942.79 1.89787 -0.758957 0
M  V30 10152 C 943.154 1.78757 0.700707 0
M  V30 10153 O 944.355 2.45265 1.09994 0
M  V30 10154 C 942.626 3.36047 -1.21685 0
M  V30 10155 S 944.185 4.25864 -1.05761 0
M  V30 10156 H 941.003 0.655311 -0.275841 0
M  V30 10157 H 943.605 1.42589 -1.33749 0
M  V30 10158 H 942.309 3.41606 -2.2745 0
M  V30 10159 H 941.84 3.88286 -0.63227 0
M  V30 10160 H 943.855 4.96195 0.022729 0
M  V30 10161 N 943.028 0.824394 1.34319 0
M  V30 10162 C 944.276 0.41235 1.97849 0
M  V30 10163 C 944.597 -1.02841 1.65677 0
M  V30 10164 O 943.867 -1.71421 0.948245 0
M  V30 10165 H 942.447 0.149486 0.73189 0
M  V30 10166 H 945.109 1.05416 1.63931 0
M  V30 10167 H 944.205 0.532557 3.07523 0
M  V30 10168 N 944.506 -1.46559 0.579492 0
M  V30 10169 C 945.736 -2.06484 0.0692642 0
M  V30 10170 C 946.144 -1.4293 -1.23967 0
M  V30 10171 O 945.487 -0.527632 -1.75959 0
M  V30 10172 C 945.549 -3.59078 -0.174174 0
M  V30 10173 C 945.213 -4.44805 1.04867 0
M  V30 10174 C 946.21 -4.81543 1.95991 0
M  V30 10175 C 943.895 -4.8599 1.26961 0
M  V30 10176 C 945.889 -5.58288 3.0756 0
M  V30 10177 C 943.576 -5.62495 2.38836 0
M  V30 10178 C 944.574 -5.98558 3.28964 0
M  V30 10179 O 944.262 -6.73518 4.38896 0
M  V30 10180 H 943.994 -0.673917 0.0530331 0
M  V30 10181 H 946.548 -1.89223 0.79898 0
M  V30 10182 H 944.778 -3.74634 -0.958464 0
M  V30 10183 H 946.467 -4.00941 -0.632515 0
M  V30 10184 H 947.233 -4.50307 1.80136 0
M  V30 10185 H 943.112 -4.57372 0.577184 0
M  V30 10186 H 946.656 -5.86355 3.77933 0
M  V30 10187 H 942.553 -5.93145 2.54655 0
M  V30 10188 H 943.321 -6.91938 4.37223 0
M  V30 10189 N 945.984 -0.3171 -1.54377 0
M  V30 10190 C 947.395 0.172287 -1.85903 0
M  V30 10191 C 947.746 1.52141 -1.23885 0
M  V30 10192 O 946.871 2.0949 -0.542476 0
M  V30 10193 C 947.466 0.319392 -3.37291 0
M  V30 10194 C 946.025 0.752998 -3.68791 0
M  V30 10195 C 945.172 -0.129143 -2.76999 0
M  V30 10196 H 948.123 -0.537597 -1.49317 0
M  V30 10197 H 948.144 1.15137 -3.62662 0
M  V30 10198 H 947.656 -0.662671 -3.82401 0
M  V30 10199 H 945.757 1.74504 -3.2921 0
M  V30 10200 H 945.87 0.561228 -4.75801 0
M  V30 10201 H 944.234 0.394242 -2.5163 0
M  V30 10202 H 945.017 -1.10785 -3.24933 0
M  V30 10203 N 947.462 1.57535 -0.0451378 0
M  V30 10204 C 948.425 2.1008 0.916461 0
M  V30 10205 C 949.425 1.01913 1.2438 0
M  V30 10206 O 950.615 1.2801 1.18148 0
M  V30 10207 C 947.747 2.58001 2.22818 0
M  V30 10208 H 948.94 2.96334 0.461076 0
M  V30 10209 H 946.493 1.54974 0.203169 0
M  V30 10210 H 947.228 1.75123 2.72951 0
M  V30 10211 H 947.013 3.3704 2.00366 0
M  V30 10212 H 948.503 2.98822 2.9171 0
M  V30 10213 N 948.94 -0.228186 1.55939 0
M  V30 10214 C 949.87 -1.28607 1.94891 0
M  V30 10215 C 950.851 -1.49236 0.816245 0
M  V30 10216 O 952.036 -1.61531 1.07803 0
M  V30 10217 C 949.166 -2.63719 2.25986 0
M  V30 10218 C 948.12 -2.57757 3.4168 0
M  V30 10219 C 947.446 -3.96837 3.58364 0
M  V30 10220 C 948.746 -2.13116 4.76843 0
M  V30 10221 H 950.44 -0.962531 2.83506 0
M  V30 10222 H 947.986 -0.461577 1.36402 0
M  V30 10223 H 949.939 -3.37878 2.51826 0
M  V30 10224 H 948.663 -2.97747 1.34217 0
M  V30 10225 H 947.322 -1.86055 3.15878 0
M  V30 10226 H 946.97 -4.28162 2.63982 0
M  V30 10227 H 946.67 -3.93731 4.36176 0
M  V30 10228 H 948.194 -4.72668 3.86545 0
M  V30 10229 H 949.608 -2.77015 5.01932 0
M  V30 10230 H 948.005 -2.21083 5.57891 0
M  V30 10231 H 949.075 -1.08326 4.72645 0
M  V30 10232 N 950.418 -1.49637 -0.494624 0
M  V30 10233 C 951.351 -1.61387 -1.61337 0
M  V30 10234 C 952.329 -0.462704 -1.55878 0
M  V30 10235 O 953.513 -0.679103 -1.75842 0
M  V30 10236 C 950.64 -1.57471 -2.99867 0
M  V30 10237 C 949.686 -2.77863 -3.23565 0
M  V30 10238 S 950.519 -4.3946 -3.05999 0
M  V30 10239 C 951.675 -4.382 -4.46914 0
M  V30 10240 H 951.908 -2.56024 -1.51126 0
M  V30 10241 H 949.441 -1.38607 -0.680253 0
M  V30 10242 H 951.399 -1.55898 -3.79745 0
M  V30 10243 H 950.06 -0.641107 -3.07488 0
M  V30 10244 H 949.253 -2.71361 -4.24711 0
M  V30 10245 H 948.855 -2.76882 -2.51421 0
M  V30 10246 H 951.147 -4.10312 -5.3912 0
M  V30 10247 H 952.09 -5.39645 -4.58464 0
M  V30 10248 H 952.498 -3.68197 -4.27891 0
M  V30 10249 N 951.896 0.746133 -1.38819 0
M  V30 10250 C 953.307 1.32384 -1.31648 0
M  V30 10251 C 953.658 1.96185 0.0243086 0
M  V30 10252 O 952.783 1.95567 0.92641 0
M  V30 10253 C 953.378 2.40712 -2.38418 0
M  V30 10254 C 951.937 2.94185 -2.34803 0
M  V30 10255 C 951.084 1.67639 -2.20891 0
M  V30 10256 H 954.035 0.544457 -1.49068 0
M  V30 10257 H 954.056 3.20833 -2.04564 0
M  V30 10258 H 953.568 1.94247 -3.3599 0
M  V30 10259 H 951.669 3.44959 -1.40834 0
M  V30 10260 H 951.782 3.48057 -3.29231 0
M  V30 10261 H 950.146 1.9155 -1.67871 0
M  V30 10262 H 950.929 1.23242 -3.20416 0
M  V30 10263 N 953.375 1.23811 0.975125 0
M  V30 10264 C 954.305 1.04846 2.08638 0
M  V30 10265 C 955.286 -0.0362859 1.70061 0
M  V30 10266 O 956.471 0.12937 1.93769 0
M  V30 10267 C 953.601 0.644534 3.41267 0
M  V30 10268 C 952.555 1.67722 3.93768 0
M  V30 10269 C 951.881 1.12857 5.22654 0
M  V30 10270 C 953.181 3.07147 4.22443 0
M  V30 10271 H 954.875 1.97795 2.24761 0
M  V30 10272 H 952.421 0.952397 1.08006 0
M  V30 10273 H 954.374 0.498887 4.18436 0
M  V30 10274 H 953.098 -0.320641 3.25022 0
M  V30 10275 H 951.757 1.81095 3.18748 0
M  V30 10276 H 951.405 0.154227 5.02764 0
M  V30 10277 H 951.105 1.81862 5.58749 0
M  V30 10278 H 952.629 0.994891 6.0244 0
M  V30 10279 H 954.043 2.97045 4.90344 0
M  V30 10280 H 952.44 3.73437 4.6975 0
M  V30 10281 H 953.51 3.55743 3.29507 0
M  V30 10282 N 954.853 -1.17469 1.05066 0
M  V30 10283 C 956.083 -1.91343 0.779202 0
M  V30 10284 C 956.491 -1.76986 -0.668764 0
M  V30 10285 O 955.834 -1.1037 -1.46848 0
M  V30 10286 C 955.896 -3.42938 1.0786 0
M  V30 10287 C 955.56 -3.81076 2.52249 0
M  V30 10288 C 956.557 -3.84027 3.50456 0
M  V30 10289 C 954.242 -4.12076 2.87225 0
M  V30 10290 C 956.236 -4.17445 4.81683 0
M  V30 10291 C 953.923 -4.45163 4.18656 0
M  V30 10292 C 954.921 -4.47825 5.15696 0
M  V30 10293 O 954.609 -4.80133 6.44769 0
M  V30 10294 H 954.341 -0.613974 0.282863 0
M  V30 10295 H 956.895 -1.49907 1.40417 0
M  V30 10296 H 955.125 -3.84662 0.39653 0
M  V30 10297 H 956.814 -3.98071 0.793357 0
M  V30 10298 H 957.58 -3.60203 3.24775 0
M  V30 10299 H 953.459 -4.09176 2.12358 0
M  V30 10300 H 957.003 -4.19437 5.57421 0
M  V30 10301 H 952.9 -4.68449 4.44101 0
M  V30 10302 H 953.668 -4.97995 6.49571 0
M  V30 10303 N 956.331 -0.831506 -1.3388 0
M  V30 10304 C 957.294 -0.264773 -2.27666 0
M  V30 10305 C 958.294 0.562273 -1.50649 0
M  V30 10306 O 959.484 0.377131 -1.70069 0
M  V30 10307 C 956.616 0.627814 -3.35069 0
M  V30 10308 H 957.809 -1.09225 -2.79303 0
M  V30 10309 H 955.362 -0.604021 -1.44157 0
M  V30 10310 H 956.097 1.47802 -2.88661 0
M  V30 10311 H 955.882 0.0361552 -3.92083 0
M  V30 10312 H 957.372 1.01786 -4.05005 0
M  V30 10313 N 957.809 1.4625 -0.587256 0
M  V30 10314 C 959.049 2.04254 -0.0773169 0
M  V30 10315 C 959.413 1.44831 1.26047 0
M  V30 10316 O 960.614 1.94063 1.85992 0
M  V30 10317 C 958.885 3.57396 -0.0172813 0
M  V30 10318 S 960.444 4.36644 0.434422 0
M  V30 10319 H 957.262 0.709892 -0.0396783 0
M  V30 10320 H 959.864 1.79232 -0.780779 0
M  V30 10321 H 958.568 3.98161 -0.994795 0
M  V30 10322 H 958.099 3.86962 0.70881 0
M  V30 10323 H 960.114 4.66597 1.68824 0
M  V30 10324 N 959.287 0.325282 1.54207 0
M  V30 10325 C 960.536 -0.27768 1.99779 0
M  V30 10326 C 960.849 -1.5311 1.21723 0
M  V30 10327 O 962.055 -2.21017 1.57682 0
M  V30 10328 C 960.511 -0.545329 3.55745 0
M  V30 10329 C 960.119 0.691143 4.42637 0
M  V30 10330 C 961.863 -1.10815 4.09781 0
M  V30 10331 C 959.77 0.395302 5.90077 0
M  V30 10332 H 958.7 -0.107536 0.746292 0
M  V30 10333 H 961.351 0.437773 1.78202 0
M  V30 10334 H 959.733 -1.32101 3.73317 0
M  V30 10335 H 960.907 1.46653 4.3684 0
M  V30 10336 H 959.222 1.1743 3.99499 0
M  V30 10337 H 961.819 -1.34414 5.1753 0
M  V30 10338 H 962.162 -2.05806 3.6187 0
M  V30 10339 H 962.695 -0.393608 3.95848 0
M  V30 10340 H 959.434 1.31443 6.42186 0
M  V30 10341 H 958.954 -0.34235 5.98822 0
M  V30 10342 H 960.633 0.00576877 6.47 0
M  V30 10343 N 960.765 -1.57509 0.0534917 0
M  V30 10344 C 961.697 -2.08616 -0.949322 0
M  V30 10345 C 962.71 -1.01446 -1.27328 0
M  V30 10346 O 963.899 -1.29007 -1.23367 0
M  V30 10347 C 960.999 -2.51622 -2.27024 0
M  V30 10348 C 960.172 -3.82154 -2.12785 0
M  V30 10349 C 959.231 -4.11448 -3.2802 0
M  V30 10350 O 958.257 -4.81333 -3.03822 0
M  V30 10351 N 959.459 -3.63543 -4.52567 0
M  V30 10352 H 962.224 -2.95275 -0.5131 0
M  V30 10353 H 959.785 -1.61355 -0.132693 0
M  V30 10354 H 961.777 -2.68293 -3.02986 0
M  V30 10355 H 960.347 -1.70198 -2.62205 0
M  V30 10356 H 959.567 -3.75041 -1.21399 0
M  V30 10357 H 960.855 -4.67629 -2.00501 0
M  V30 10358 H 960.253 -3.07051 -4.75117 0
M  V30 10359 H 958.81 -3.85448 -5.25617 0
M  V30 10360 N 962.243 0.219913 -1.56058 0
M  V30 10361 C 963.468 0.965073 -1.83579 0
M  V30 10362 C 963.893 1.77092 -0.634024 0
M  V30 10363 O 963.251 1.76434 0.417205 0
M  V30 10364 C 963.299 1.85705 -3.09105 0
M  V30 10365 O 962.403 2.95261 -2.87914 0
M  V30 10366 H 961.744 0.273173 -0.605204 0
M  V30 10367 H 964.274 0.23273 -2.03272 0
M  V30 10368 H 964.284 2.26655 -3.39252 0
M  V30 10369 H 962.959 1.26476 -3.96203 0
M  V30 10370 H 961.536 2.58246 -2.69005 0
M  V30 10371 N 963.721 1.49897 0.486681 0
M  V30 10372 C 964.668 1.67619 1.58658 0
M  V30 10373 C 965.638 0.517537 1.57831 0
M  V30 10374 O 966.823 0.746272 1.756 0
M  V30 10375 C 963.963 1.762 2.96728 0
M  V30 10376 C 963.076 3.03465 3.07462 0
M  V30 10377 C 962.211 3.02937 4.36351 0
M  V30 10378 C 961.25 4.24721 4.4077 0
M  V30 10379 N 960.387 4.22021 5.61108 0
M  V30 10380 H 965.227 2.61528 1.42853 0
M  V30 10381 H 962.764 1.29657 0.694807 0
M  V30 10382 H 964.722 1.79156 3.76774 0
M  V30 10383 H 963.352 0.857452 3.11203 0
M  V30 10384 H 962.404 3.10054 2.20387 0
M  V30 10385 H 963.716 3.93454 3.06586 0
M  V30 10386 H 962.87 3.04536 5.24731 0
M  V30 10387 H 961.609 2.10751 4.39813 0
M  V30 10388 H 960.614 4.23352 3.5079 0
M  V30 10389 H 961.839 5.18116 4.39013 0
M  V30 10390 H 959.785 3.3268 5.65385 0
M  V30 10391 H 959.702 5.05761 5.61909 0
M  V30 10392 H 960.97 4.27743 6.51656 0
M  V30 10393 N 965.199 -0.738761 1.39212 0
M  V30 10394 C 966.131 -1.86286 1.3353 0
M  V30 10395 C 967.144 -1.6095 0.244755 0
M  V30 10396 O 968.333 -1.71254 0.50343 0
M  V30 10397 C 965.433 -3.22234 1.04969 0
M  V30 10398 C 964.606 -3.74956 2.25226 0
M  V30 10399 C 963.665 -4.89457 1.9318 0
M  V30 10400 O 962.691 -5.03314 2.65826 0
M  V30 10401 N 963.893 -5.73548 0.895679 0
M  V30 10402 H 966.658 -1.91666 2.304 0
M  V30 10403 H 964.219 -0.919338 1.33266 0
M  V30 10404 H 966.211 -3.96397 0.815566 0
M  V30 10405 H 964.781 -3.12146 0.168451 0
M  V30 10406 H 964.001 -2.92188 2.64612 0
M  V30 10407 H 965.289 -4.06914 3.05448 0
M  V30 10408 H 964.687 -5.64938 0.293541 0
M  V30 10409 H 963.244 -6.47795 0.721451 0
M  V30 10410 N 966.677 -1.24326 -0.968545 0
M  V30 10411 C 967.64 -1.03591 -2.04454 0
M  V30 10412 C 968.64 0.0064809 -1.60799 0
M  V30 10413 O 969.83 -0.234404 -1.72616 0
M  V30 10414 C 966.962 -0.56992 -3.36102 0
M  V30 10415 H 968.155 -1.99092 -2.24282 0
M  V30 10416 H 965.708 -1.06537 -1.14366 0
M  V30 10417 H 966.443 0.388325 -3.21967 0
M  V30 10418 H 966.228 -1.32227 -3.69132 0
M  V30 10419 H 967.718 -0.445854 -4.15213 0
M  V30 10420 N 968.156 1.1691 -1.05688 0
M  V30 10421 C 969.403 1.87292 -0.76993 0
M  V30 10422 C 969.731 1.81339 0.703295 0
M  V30 10423 O 968.986 1.21959 1.5305 0
M  V30 10424 C 969.285 3.36578 -1.20207 0
M  V30 10425 C 968.951 3.62732 -2.67836 0
M  V30 10426 C 967.613 3.69579 -3.08163 0
M  V30 10427 C 969.965 3.73803 -3.63209 0
M  V30 10428 C 967.293 3.84992 -4.42717 0
M  V30 10429 C 969.645 3.90735 -4.97503 0
M  V30 10430 C 968.309 3.95823 -5.37476 0
M  V30 10431 H 967.579 0.68535 -0.281737 0
M  V30 10432 H 970.226 1.38274 -1.32486 0
M  V30 10433 H 968.531 3.87687 -0.566222 0
M  V30 10434 H 970.228 3.89409 -0.957183 0
M  V30 10435 H 966.818 3.58031 -2.35609 0
M  V30 10436 H 971.002 3.67829 -3.3319 0
M  V30 10437 H 966.258 3.87181 -4.73182 0
M  V30 10438 H 970.432 3.98243 -5.71293 0
M  V30 10439 H 968.059 4.07518 -6.41742 0
M  V30 10440 N 969.634 0.838594 1.33437 0
M  V30 10441 C 970.862 0.447644 2.01999 0
M  V30 10442 C 971.277 -0.951053 1.63096 0
M  V30 10443 O 970.634 -1.61802 0.844169 0
M  V30 10444 C 970.685 0.558378 3.57162 0
M  V30 10445 O 970.406 1.90196 3.94661 0
M  V30 10446 C 971.907 0.164348 4.42995 0
M  V30 10447 H 969.127 0.177736 0.647032 0
M  V30 10448 H 971.671 1.13109 1.70372 0
M  V30 10449 H 969.826 -0.0771563 3.87323 0
M  V30 10450 H 970.24 1.88729 4.89369 0
M  V30 10451 H 971.714 0.292876 5.51222 0
M  V30 10452 H 972.191 -0.893713 4.30011 0
M  V30 10453 H 972.797 0.774306 4.18192 0
M  V30 10454 N 971.112 -1.45937 0.595003 0
M  V30 10455 C 972.359 -2.0232 0.0853053 0
M  V30 10456 C 972.687 -1.465 -1.27937 0
M  V30 10457 O 971.942 -0.624767 -1.85459 0
M  V30 10458 C 972.241 -3.57396 -0.0173747 0
M  V30 10459 C 971.907 -4.32311 1.28131 0
M  V30 10460 C 970.569 -4.52496 1.63708 0
M  V30 10461 C 972.921 -4.75233 2.14017 0
M  V30 10462 C 970.249 -5.12857 2.84947 0
M  V30 10463 C 972.601 -5.36933 3.34493 0
M  V30 10464 C 971.265 -5.55343 3.70338 0
M  V30 10465 H 970.535 -0.740342 0.0312154 0
M  V30 10466 H 973.182 -1.75157 0.774103 0
M  V30 10467 H 971.487 -3.83766 -0.789371 0
M  V30 10468 H 973.184 -3.98713 -0.427699 0
M  V30 10469 H 969.774 -4.16905 0.994374 0
M  V30 10470 H 973.958 -4.59383 1.87833 0
M  V30 10471 H 969.214 -5.253 3.12841 0
M  V30 10472 H 973.388 -5.69147 4.01304 0
M  V30 10473 H 971.015 -6.01883 4.64371 0
M  V30 10474 N 972.59 -0.333456 -1.54032 0
M  V30 10475 C 973.815 0.270517 -2.05628 0
M  V30 10476 C 974.24 1.44231 -1.20744 0
M  V30 10477 O 973.598 1.79975 -0.218822 0
M  V30 10478 C 973.646 0.673251 -3.54259 0
M  V30 10479 O 972.75 1.77448 -3.72271 0
M  V30 10480 H 972.091 0.0469753 -0.662336 0
M  V30 10481 H 974.621 -0.484739 -1.98775 0
M  V30 10482 H 974.631 0.953194 -3.96709 0
M  V30 10483 H 973.306 -0.183747 -4.15494 0
M  V30 10484 H 971.883 1.49259 -3.41725 0
M  V30 10485 N 974.068 1.57479 -0.061844 0
M  V30 10486 C 975.479 1.80627 0.472295 0
M  V30 10487 C 975.83 0.97496 1.70261 0
M  V30 10488 O 974.955 0.1946 2.15523 0
M  V30 10489 C 975.55 3.27608 0.863616 0
M  V30 10490 C 974.109 3.51638 1.34267 0
M  V30 10491 C 973.256 2.75412 0.323009 0
M  V30 10492 H 976.207 1.56072 -0.287634 0
M  V30 10493 H 976.228 3.39113 1.72577 0
M  V30 10494 H 975.74 3.88087 -0.0320226 0
M  V30 10495 H 973.841 2.96452 2.25714 0
M  V30 10496 H 973.954 4.60342 1.32747 0
M  V30 10497 H 972.318 2.4187 0.798175 0
M  V30 10498 H 973.101 3.38623 -0.564729 0
M  V30 10499 N 975.546 -0.211634 1.56173 0
M  V30 10500 C 976.774 -0.951184 1.83739 0
M  V30 10501 C 977.189 -1.7754 0.642252 0
M  V30 10502 O 976.546 -1.78302 -0.389174 0
M  V30 10503 C 976.597 -1.86075 3.09933 0
M  V30 10504 O 976.318 -1.06983 4.24837 0
M  V30 10505 C 977.819 -2.71337 3.50559 0
M  V30 10506 H 975.039 -0.278312 0.61056 0
M  V30 10507 H 977.583 -0.223871 2.03271 0
M  V30 10508 H 975.738 -2.54189 2.92347 0
M  V30 10509 H 976.152 -1.68815 4.9659 0
M  V30 10510 H 977.626 -3.30843 4.41868 0
M  V30 10511 H 978.103 -3.44226 2.72773 0
M  V30 10512 H 978.709 -2.0862 3.70618 0
M  V30 10513 N 977.024 -1.50153 -0.478725 0
M  V30 10514 C 978.254 -1.64266 -1.253 0
M  V30 10515 C 978.662 -0.322256 -1.86435 0
M  V30 10516 O 978.005 0.704925 -1.69636 0
M  V30 10517 C 978.067 -2.67017 -2.40712 0
M  V30 10518 C 977.731 -4.10779 -2.00274 0
M  V30 10519 C 978.728 -4.96889 -1.52963 0
M  V30 10520 C 976.413 -4.5665 -2.09228 0
M  V30 10521 C 978.407 -6.26914 -1.15139 0
M  V30 10522 C 976.094 -5.86683 -1.71015 0
M  V30 10523 C 977.092 -6.71641 -1.24048 0
M  V30 10524 O 976.78 -7.99248 -0.863617 0
M  V30 10525 H 976.512 -0.555382 -0.385392 0
M  V30 10526 H 979.066 -1.97078 -0.578751 0
M  V30 10527 H 977.296 -2.29432 -3.11284 0
M  V30 10528 H 978.985 -2.70428 -3.02694 0
M  V30 10529 H 979.751 -4.62669 -1.45474 0
M  V30 10530 H 975.63 -3.90674 -2.44735 0
M  V30 10531 H 979.174 -6.93179 -0.784089 0
M  V30 10532 H 975.071 -6.20426 -1.78162 0
M  V30 10533 H 975.839 -8.12452 -0.993139 0
M  V30 10534 N 978.502 0.731368 -1.39602 0
M  V30 10535 C 979.449 1.84541 -1.38612 0
M  V30 10536 C 980.419 1.64279 -0.245287 0
M  V30 10537 O 981.604 1.85635 -0.440954 0
M  V30 10538 C 978.744 3.22092 -1.23897 0
M  V30 10539 C 977.857 3.54034 -2.47555 0
M  V30 10540 C 976.992 4.81007 -2.25402 0
M  V30 10541 C 976.031 5.05804 -3.44716 0
M  V30 10542 N 975.168 6.23981 -3.21857 0
M  V30 10543 H 980.008 1.84722 -2.33841 0
M  V30 10544 H 977.545 0.902569 -1.16156 0
M  V30 10545 H 979.503 4.01499 -1.13376 0
M  V30 10546 H 978.133 3.2118 -0.322958 0
M  V30 10547 H 977.185 2.69301 -2.68665 0
M  V30 10548 H 978.497 3.68275 -3.36415 0
M  V30 10549 H 977.651 5.68401 -2.12143 0
M  V30 10550 H 976.39 4.68946 -1.33943 0
M  V30 10551 H 975.395 4.1687 -3.58468 0
M  V30 10552 H 976.62 5.19747 -4.37081 0
M  V30 10553 H 974.566 6.13202 -2.33065 0
M  V30 10554 H 974.483 6.38826 -4.04274 0
M  V30 10555 H 975.751 7.14205 -3.123 0
M  V30 10556 N 979.98 1.24838 0.961938 0
M  V30 10557 C 980.943 1.04674 2.03902 0
M  V30 10558 C 981.943 0.00204674 1.608 0
M  V30 10559 O 983.133 0.243555 1.72489 0
M  V30 10560 C 980.265 0.587736 3.35795 0
M  V30 10561 H 981.458 2.00278 2.23223 0
M  V30 10562 H 979.011 1.07142 1.138 0
M  V30 10563 H 979.746 -0.371244 3.22168 0
M  V30 10564 H 979.531 1.34182 3.68426 0
M  V30 10565 H 981.021 0.467867 4.14971 0
M  V30 10566 N 981.458 -1.16348 1.06306 0
M  V30 10567 C 982.705 -1.86881 0.779852 0
M  V30 10568 C 983.033 -1.8171 -0.693668 0
M  V30 10569 O 982.288 -1.22769 -1.52401 0
M  V30 10570 C 982.587 -3.35936 1.21991 0
M  V30 10571 C 982.253 -3.61307 2.69756 0
M  V30 10572 C 980.915 -3.6794 3.10119 0
M  V30 10573 C 983.267 -3.71871 3.65187 0
M  V30 10574 C 980.595 -3.82639 4.44752 0
M  V30 10575 C 982.947 -3.88091 4.99568 0
M  V30 10576 C 981.611 -3.92967 5.39568 0
M  V30 10577 H 980.881 -0.683847 0.285368 0
M  V30 10578 H 983.528 -1.37569 1.33218 0
M  V30 10579 H 981.833 -3.87381 0.586774 0
M  V30 10580 H 983.53 -3.88895 0.977821 0
M  V30 10581 H 980.12 -3.56777 2.37504 0
M  V30 10582 H 984.304 -3.66057 3.35136 0
M  V30 10583 H 979.56 -3.84666 4.75228 0
M  V30 10584 H 983.734 -3.95207 5.73397 0
M  V30 10585 H 981.361 -4.04109 6.43895 0
M  V30 10586 N 982.937 -0.845659 -1.3299 0
M  V30 10587 C 983.867 -0.298957 -2.31578 0
M  V30 10588 C 984.848 0.597012 -1.59279 0
M  V30 10589 O 986.033 0.519142 -1.87132 0
M  V30 10590 C 983.163 0.521109 -3.43368 0
M  V30 10591 C 982.117 -0.279651 -4.27085 0
M  V30 10592 C 981.443 0.664591 -5.30554 0
M  V30 10593 C 982.743 -1.50046 -5.00283 0
M  V30 10594 H 984.437 -1.12272 -2.77552 0
M  V30 10595 H 981.983 -0.54132 -1.33438 0
M  V30 10596 H 983.936 0.913921 -4.1137 0
M  V30 10597 H 982.66 1.37815 -2.96099 0
M  V30 10598 H 981.319 -0.654106 -3.60717 0
M  V30 10599 H 980.967 1.51822 -4.79541 0
M  V30 10600 H 980.667 0.132871 -5.8745 0
M  V30 10601 H 982.191 1.05477 -6.01421 0
M  V30 10602 H 983.605 -1.18044 -5.61016 0
M  V30 10603 H 982.002 -1.96946 -5.66862 0
M  V30 10604 H 983.072 -2.26659 -4.28665 0
M  V30 10605 N 984.415 1.45619 -0.602734 0
M  V30 10606 C 985.655 2.0416 -0.0989764 0
M  V30 10607 C 986.019 1.4616 1.24504 0
M  V30 10608 O 987.22 1.96025 1.83923 0
M  V30 10609 C 985.491 3.57357 -0.0551869 0
M  V30 10610 S 987.05 4.3708 0.388086 0
M  V30 10611 H 983.868 0.709431 -0.0472054 0
M  V30 10612 H 986.47 1.78394 -0.799745 0
M  V30 10613 H 985.174 3.97083 -1.03697 0
M  V30 10614 H 984.705 3.87692 0.667727 0
M  V30 10615 H 986.72 4.68362 1.63865 0
M  V30 10616 N 985.893 0.34162 1.53853 0
M  V30 10617 C 986.84 -0.516058 2.24957 0
M  V30 10618 C 987.81 -1.09711 1.2471 0
M  V30 10619 O 988.995 -1.13409 1.53438 0
M  V30 10620 C 986.135 -1.66207 3.02439 0
M  V30 10621 C 985.248 -1.10851 4.17536 0
M  V30 10622 C 984.383 -2.22167 4.82509 0
M  V30 10623 C 983.422 -1.64152 5.89678 0
M  V30 10624 N 982.559 -2.69203 6.4844 0
M  V30 10625 H 987.399 0.0968275 2.97843 0
M  V30 10626 H 984.936 0.0595565 1.46979 0
M  V30 10627 H 986.894 -2.33672 3.4562 0
M  V30 10628 H 985.524 -2.24597 2.31853 0
M  V30 10629 H 984.576 -0.324853 3.7901 0
M  V30 10630 H 985.888 -0.644151 4.94623 0
M  V30 10631 H 985.042 -2.97501 5.28751 0
M  V30 10632 H 983.781 -2.71946 4.04842 0
M  V30 10633 H 982.786 -0.873228 5.42821 0
M  V30 10634 H 984.011 -1.15228 6.69253 0
M  V30 10635 H 981.957 -3.1824 5.73637 0
M  V30 10636 H 981.874 -2.27383 7.20994 0
M  V30 10637 H 983.142 -3.44312 6.99335 0
M  V30 10638 N 987.371 -1.57444 0.0701946 0
M  V30 10639 C 988.303 -2.09611 -0.927142 0
M  V30 10640 C 989.316 -1.02791 -1.26245 0
M  V30 10641 O 990.505 -1.30309 -1.21992 0
M  V30 10642 C 987.605 -2.54015 -2.24342 0
M  V30 10643 C 986.778 -3.84389 -2.08719 0
M  V30 10644 C 985.837 -4.14904 -3.23638 0
M  V30 10645 O 984.863 -4.84528 -2.98699 0
M  V30 10646 N 986.065 -3.68322 -4.48686 0
M  V30 10647 H 988.83 -2.95803 -0.481753 0
M  V30 10648 H 986.391 -1.61487 -0.115572 0
M  V30 10649 H 988.383 -2.71492 -3.00124 0
M  V30 10650 H 986.953 -1.72969 -2.60385 0
M  V30 10651 H 986.173 -3.76308 -1.17415 0
M  V30 10652 H 987.461 -4.69729 -1.9553 0
M  V30 10653 H 986.859 -3.12073 -4.71834 0
M  V30 10654 H 985.416 -3.91002 -5.21499 0
M  V30 10655 N 988.849 0.203349 -1.56283 0
M  V30 10656 C 990.079 0.940061 -1.83974 0
M  V30 10657 C 990.487 1.77703 -0.649486 0
M  V30 10658 O 989.83 1.79487 0.391189 0
M  V30 10659 C 989.892 1.89249 -3.05655 0
M  V30 10660 C 989.556 1.23828 -4.39904 0
M  V30 10661 C 990.553 0.619231 -5.16199 0
M  V30 10662 C 988.238 1.2446 -4.86636 0
M  V30 10663 C 990.232 0.0152287 -6.37398 0
M  V30 10664 C 987.919 0.636764 -6.07773 0
M  V30 10665 C 988.917 0.0231481 -6.82996 0
M  V30 10666 O 988.605 -0.575187 -8.0184 0
M  V30 10667 H 988.337 0.280199 -0.615194 0
M  V30 10668 H 990.891 0.218111 -2.04239 0
M  V30 10669 H 989.121 2.65392 -2.81254 0
M  V30 10670 H 990.81 2.4963 -3.20062 0
M  V30 10671 H 991.576 0.606545 -4.81192 0
M  V30 10672 H 987.455 1.71161 -4.28048 0
M  V30 10673 H 990.999 -0.464333 -6.96053 0
M  V30 10674 H 986.896 0.646924 -6.4225 0
M  V30 10675 H 987.664 -0.471284 -8.17142 0
M  V30 10676 N 990.327 1.50405 0.470755 0
M  V30 10677 C 991.257 1.72222 1.57676 0
M  V30 10678 C 992.238 0.57121 1.60222 0
M  V30 10679 O 993.423 0.810381 1.76484 0
M  V30 10680 C 990.553 1.81666 2.95998 0
M  V30 10681 C 989.507 2.96857 3.08318 0
M  V30 10682 C 988.833 2.91445 4.4829 0
M  V30 10683 C 990.133 4.37361 2.85504 0
M  V30 10684 H 991.827 2.64825 1.39671 0
M  V30 10685 H 989.373 1.27438 0.67049 0
M  V30 10686 H 991.326 1.95514 3.73299 0
M  V30 10687 H 990.05 0.856856 3.1516 0
M  V30 10688 H 988.709 2.82661 2.33449 0
M  V30 10689 H 988.357 1.93309 4.64371 0
M  V30 10690 H 988.057 3.68776 4.57469 0
M  V30 10691 H 989.581 3.07341 5.27611 0
M  V30 10692 H 990.995 4.52081 3.52555 0
M  V30 10693 H 989.392 5.16145 3.06127 0
M  V30 10694 H 990.462 4.49708 1.81359 0
M  V30 10695 N 991.805 -0.723954 1.39988 0
M  V30 10696 C 992.753 -1.85938 1.39749 0
M  V30 10697 C 993.747 -1.67085 0.279112 0
M  V30 10698 O 994.953 -1.74291 0.44972 0
M  V30 10699 H 991.328 -0.612246 0.436644 0
M  V30 10700 H 993.299 -1.83255 2.355 0
M  V30 10701 C 992.048 -3.23726 1.26874 0
M  V30 10702 H 991.371 -3.38835 2.12206 0
M  V30 10703 H 992.811 -4.03332 1.30765 0
M  V30 10704 C 991.27 -3.36893 -0.0218317 0
M  V30 10705 O 991.8 -3.89363 -0.987905 0
M  V30 10706 N 990.006 -2.90465 -0.0885618 0
M  V30 10707 H 989.553 -2.47954 0.698314 0
M  V30 10708 H 989.511 -2.99654 -0.951557 0
M  V30 10709 N 993.283 -1.25346 -0.955304 0
M  V30 10710 C 994.213 -1.08152 -2.06943 0
M  V30 10711 C 995.194 0.00922598 -1.70097 0
M  V30 10712 O 996.379 -0.160181 -1.93538 0
M  V30 10713 C 993.509 -0.698745 -3.40198 0
M  V30 10714 C 992.463 -1.73965 -3.9105 0
M  V30 10715 C 991.789 -1.21158 -5.20792 0
M  V30 10716 C 993.089 -3.13829 -4.17503 0
M  V30 10717 H 994.783 -2.01345 -2.21586 0
M  V30 10718 H 992.329 -0.969459 -1.06478 0
M  V30 10719 H 994.282 -0.565394 -4.1759 0
M  V30 10720 H 993.006 0.268892 -3.25491 0
M  V30 10721 H 991.665 -1.86143 -3.15827 0
M  V30 10722 H 991.313 -0.234193 -5.02455 0
M  V30 10723 H 991.013 -1.90728 -5.55785 0
M  V30 10724 H 992.537 -1.09061 -6.00781 0
M  V30 10725 H 993.951 -3.04809 -4.85556 0
M  V30 10726 H 992.348 -3.80863 -4.63749 0
M  V30 10727 H 993.418 -3.6094 -3.23806 0
M  V30 10728 N 994.761 1.15782 -1.06922 0
M  V30 10729 C 995.991 1.90079 -0.809545 0
M  V30 10730 C 996.399 1.78028 0.640523 0
M  V30 10731 O 995.742 1.12692 1.45073 0
M  V30 10732 C 995.804 3.41179 -1.13302 0
M  V30 10733 C 995.468 3.77015 -2.5828 0
M  V30 10734 C 996.465 3.78403 -3.56521 0
M  V30 10735 C 994.15 4.07455 -2.93745 0
M  V30 10736 C 996.144 4.09729 -4.88264 0
M  V30 10737 C 993.831 4.38446 -4.25686 0
M  V30 10738 C 994.829 4.39564 -5.22755 0
M  V30 10739 O 994.517 4.69814 -6.52326 0
M  V30 10740 H 994.249 0.609397 -0.292595 0
M  V30 10741 H 996.803 1.47654 -1.42784 0
M  V30 10742 H 995.033 3.83982 -0.457676 0
M  V30 10743 H 996.722 3.96759 -0.856586 0
M  V30 10744 H 997.488 3.54991 -3.30464 0
M  V30 10745 H 993.367 4.05746 -2.1884 0
M  V30 10746 H 996.911 4.10516 -5.64023 0
M  V30 10747 H 992.808 4.61325 -4.51497 0
M  V30 10748 H 993.576 4.87598 -6.57412 0
M  V30 10749 N 996.239 0.8527 1.3254 0
M  V30 10750 C 997.65 0.510012 1.79599 0
M  V30 10751 C 998.001 -0.972002 1.70431 0
M  V30 10752 O 997.126 -1.7581 1.26173 0
M  V30 10753 C 997.721 0.918986 3.26098 0
M  V30 10754 C 996.28 0.628227 3.7112 0
M  V30 10755 C 995.427 1.11979 2.53685 0
M  V30 10756 H 998.378 1.04009 1.19866 0
M  V30 10757 H 998.399 0.234577 3.79776 0
M  V30 10758 H 997.911 1.99765 3.32739 0
M  V30 10759 H 996.012 -0.4398 3.69995 0
M  V30 10760 H 996.125 1.19315 4.64005 0
M  V30 10761 H 994.489 0.540133 2.48907 0
M  V30 10762 H 995.272 2.20552 2.63081 0
M  V30 10763 N 997.718 -1.45297 0.610449 0
M  V30 10764 C 998.964 -2.02518 0.106917 0
M  V30 10765 C 999.297 -1.47747 -1.26034 0
M  V30 10766 O 998.572 -0.65329 -1.832 0
M  V30 10767 C 998.855 -3.6003 0.0710975 0
M  V30 10768 C 998.708 -4.25128 1.46922 0
M  V30 10769 C 1000.03 -4.35778 -0.61524 0
M  V30 10770 H 997.146 -0.735896 0.040327 0
M  V30 10771 H 999.788 -1.73117 0.782968 0
M  V30 10772 H 997.938 -3.85209 -0.504611 0
M  V30 10773 H 999.61 -4.11125 2.09223 0
M  V30 10774 H 997.853 -3.83418 2.02911 0
M  V30 10775 H 998.524 -5.34046 1.39637 0
M  V30 10776 H 1001 -4.1591 -0.125871 0
M  V30 10777 H 999.876 -5.45506 -0.609419 0
M  V30 10778 H 1000.14 -4.08859 -1.68186 0
M  V30 10779 N 999.196 -0.349774 -1.5367 0
M  V30 10780 C 1000.16 0.491676 -2.23864 0
M  V30 10781 C 1001.16 1.02256 -1.24098 0
M  V30 10782 O 1002.35 0.910816 -1.48492 0
M  V30 10783 C 999.481 1.68557 -2.96313 0
M  V30 10784 H 1000.67 -0.12233 -2.9965 0
M  V30 10785 H 998.227 -0.101214 -1.55972 0
M  V30 10786 H 998.962 2.3381 -2.2473 0
M  V30 10787 H 998.747 1.31203 -3.69497 0
M  V30 10788 H 1000.24 2.28225 -3.49718 0
M  V30 10789 N 1000.67 1.57404 -0.0785433 0
M  V30 10790 C 1002.09 1.57158 0.2781 0
M  V30 10791 C 1002.29 1.08847 1.69572 0
M  V30 10792 O 1001.35 0.757407 2.40873 0
M  V30 10793 C 1002.66 3.00589 0.0816067 0
M  V30 10794 C 1004.21 3.12637 0.150627 0
M  V30 10795 C 1004.68 4.57997 -0.0176685 0
M  V30 10796 N 1006.17 4.63185 0.0377145 0
M  V30 10797 C 1006.91 5.7336 -0.0679907 0
M  V30 10798 N 1006.4 6.92426 -0.227598 0
M  V30 10799 N 1008.2 5.62099 -0.0104424 0
M  V30 10800 H 1000.35 1.87121 -1.00496 0
M  V30 10801 H 1002.61 0.862937 -0.392484 0
M  V30 10802 H 1002.32 3.40072 -0.896869 0
M  V30 10803 H 1002.19 3.67931 0.831046 0
M  V30 10804 H 1004.58 2.73037 1.11959 0
M  V30 10805 H 1004.66 2.4792 -0.630028 0
M  V30 10806 H 1004.3 4.98288 -0.983431 0
M  V30 10807 H 1004.23 5.20754 0.782475 0
M  V30 10808 H 1006.72 3.77564 0.159208 0
M  V30 10809 H 1007.04 7.72217 -0.300217 0
M  V30 10810 H 1005.38 6.94502 -0.263049 0
M  V30 10811 H 1008.57 4.67964 0.112999 0
M  V30 10812 H 1008.75 6.47928 -0.0962747 0
M  V30 10813 N 1002.15 -0.195058 1.56388 0
M  V30 10814 C 1003.08 -1.26581 1.91076 0
M  V30 10815 C 1004.1 -1.41707 0.801436 0
M  V30 10816 O 1005.29 -1.42132 1.07985 0
M  V30 10817 C 1002.39 -2.63794 2.12758 0
M  V30 10818 C 1001.56 -2.70275 3.43904 0
M  V30 10819 C 1000.62 -3.88685 3.54698 0
M  V30 10820 O 999.644 -3.75786 4.2752 0
M  V30 10821 N 1000.85 -5.04141 2.87789 0
M  V30 10822 H 1003.61 -0.971401 2.83521 0
M  V30 10823 H 1001.17 -0.384976 1.57256 0
M  V30 10824 H 1003.16 -3.41434 2.17267 0
M  V30 10825 H 1001.73 -2.85723 1.26812 0
M  V30 10826 H 1000.95 -1.78909 3.51262 0
M  V30 10827 H 1002.24 -2.71597 4.30247 0
M  V30 10828 H 1001.64 -5.17519 2.28452 0
M  V30 10829 H 1000.2 -5.79727 2.97925 0
M  V30 10830 N 1003.63 -1.50653 -0.462772 0
M  V30 10831 C 1005.05 -1.38263 -0.797213 0
M  V30 10832 C 1005.25 -0.445172 -1.96521 0
M  V30 10833 O 1004.3 0.10913 -2.52264 0
M  V30 10834 C 1005.61 -2.798 -1.10146 0
M  V30 10835 C 1007.16 -2.88774 -1.20742 0
M  V30 10836 C 1007.64 -4.31163 -1.54476 0
M  V30 10837 N 1009.13 -4.34152 -1.61451 0
M  V30 10838 C 1009.86 -5.4133 -1.89074 0
M  V30 10839 N 1009.36 -6.58705 -2.1466 0
M  V30 10840 N 1011.15 -5.28783 -1.90645 0
M  V30 10841 H 1003.3 -2.10172 0.30684 0
M  V30 10842 H 1005.57 -0.945046 0.0747862 0
M  V30 10843 H 1005.27 -3.50276 -0.316207 0
M  V30 10844 H 1005.15 -3.17559 -2.03559 0
M  V30 10845 H 1007.53 -2.18512 -1.98334 0
M  V30 10846 H 1007.61 -2.54547 -0.252904 0
M  V30 10847 H 1007.26 -5.01965 -0.774207 0
M  V30 10848 H 1007.19 -4.62883 -2.51092 0
M  V30 10849 H 1009.68 -3.49519 -1.43684 0
M  V30 10850 H 1009.99 -7.36192 -2.35035 0
M  V30 10851 H 1008.34 -6.61866 -2.12035 0
M  V30 10852 H 1011.53 -4.36078 -1.70158 0
M  V30 10853 H 1011.7 -6.12396 -2.11836 0
M  V30 10854 N 1005.11 0.71652 -1.4037 0
M  V30 10855 C 1006.52 1.29562 -1.34427 0
M  V30 10856 C 1006.87 1.96192 -0.0173106 0
M  V30 10857 O 1006 1.97488 0.884719 0
M  V30 10858 C 1006.59 2.35601 -2.4347 0
M  V30 10859 C 1005.15 2.89138 -2.4099 0
M  V30 10860 C 1004.3 1.62915 -2.24397 0
M  V30 10861 H 1007.25 0.512715 -1.5019 0
M  V30 10862 H 1007.27 3.16422 -2.11323 0
M  V30 10863 H 1006.78 1.87077 -3.40035 0
M  V30 10864 H 1004.88 3.41894 -1.4812 0
M  V30 10865 H 1004.99 3.40995 -3.3654 0
M  V30 10866 H 1003.36 1.87947 -1.71896 0
M  V30 10867 H 1004.14 1.16417 -3.22958 0
M  V30 10868 N 1006.59 1.25851 0.948643 0
M  V30 10869 C 1007.83 1.10735 1.69062 0
M  V30 10870 C 1008.16 -0.351257 1.9181 0
M  V30 10871 O 1007.43 -1.24867 1.50947 0
M  V30 10872 H 1006.01 0.406796 0.626519 0
M  V30 10873 H 1008.67 1.58066 1.14022 0
M  V30 10874 H 1007.76 1.62033 2.66743 0
M  V30 10875 N 1008.06 -1.15214 1.07534 0
M  V30 10876 C 1008.99 -2.2216 0.718837 0
M  V30 10877 C 1009.98 -1.6753 -0.29459 0
M  V30 10878 O 1011.16 -1.93481 -0.166931 0
M  V30 10879 C 1008.29 -3.471 0.117836 0
M  V30 10880 C 1007.24 -4.14701 1.05862 0
M  V30 10881 C 1006.57 -5.3374 0.320284 0
M  V30 10882 C 1007.87 -4.64254 2.39302 0
M  V30 10883 H 1009.56 -2.52237 1.61297 0
M  V30 10884 H 1007.11 -1.21239 0.776992 0
M  V30 10885 H 1009.06 -4.21156 -0.143519 0
M  V30 10886 H 1007.79 -3.16361 -0.811389 0
M  V30 10887 H 1006.45 -3.42589 1.30493 0
M  V30 10888 H 1006.09 -4.99257 -0.61246 0
M  V30 10889 H 1005.79 -5.79912 0.947381 0
M  V30 10890 H 1007.32 -6.10563 0.0667721 0
M  V30 10891 H 1008.73 -5.29827 2.18988 0
M  V30 10892 H 1007.13 -5.21095 2.97623 0
M  V30 10893 H 1008.2 -3.79793 3.01472 0
M  V30 10894 N 1009.54 -0.859717 -1.32086 0
M  V30 10895 C 1010.78 -0.471939 -1.98877 0
M  V30 10896 C 1011.15 0.955689 -1.66525 0
M  V30 10897 O 1012.35 1.44829 -2.26447 0
M  V30 10898 C 1010.62 -0.710016 -3.50276 0
M  V30 10899 S 1012.18 -0.420566 -4.3678 0
M  V30 10900 H 1009 -0.176588 -0.688722 0
M  V30 10901 H 1011.6 -1.11352 -1.60689 0
M  V30 10902 H 1010.3 -1.74803 -3.71311 0
M  V30 10903 H 1009.83 -0.0550429 -3.93361 0
M  V30 10904 H 1011.85 0.751362 -4.90478 0
M  V30 10905 N 1011.02 1.44971 -0.618145 0
M  V30 10906 C 1011.95 2.28815 0.132751 0
M  V30 10907 C 1012.97 1.40551 0.821535 0
M  V30 10908 O 1014.15 1.64827 0.685155 0
M  V30 10909 C 1011.25 3.1658 1.20955 0
M  V30 10910 C 1010.43 4.33184 0.605821 0
M  V30 10911 C 1009.49 5.0208 1.57488 0
M  V30 10912 O 1008.51 5.58528 1.09706 0
M  V30 10913 N 1009.71 5.02335 2.9093 0
M  V30 10914 H 1012.48 2.939 -0.58674 0
M  V30 10915 H 1010.04 1.55276 -0.458375 0
M  V30 10916 H 1012.03 3.59535 1.85787 0
M  V30 10917 H 1010.6 2.53333 1.83143 0
M  V30 10918 H 1009.82 3.93581 -0.220827 0
M  V30 10919 H 1011.11 5.08471 0.182883 0
M  V30 10920 H 1010.51 4.57783 3.32342 0
M  V30 10921 H 1009.07 5.49119 3.51157 0
M  V30 10922 N 1012.5 0.357919 1.53482 0
M  V30 10923 C 1013.74 -0.23451 2.0144 0
M  V30 10924 C 1014.08 -1.49044 1.24497 0
M  V30 10925 O 1013.35 -1.91566 0.336535 0
M  V30 10926 C 1013.64 -0.534193 3.56116 0
M  V30 10927 C 1013.49 0.734834 4.43757 0
M  V30 10928 C 1014.81 -1.33793 4.1927 0
M  V30 10929 H 1011.93 -0.0837595 0.732225 0
M  V30 10930 H 1014.57 0.481297 1.83803 0
M  V30 10931 H 1012.72 -1.144 3.71275 0
M  V30 10932 H 1014.39 1.37251 4.40409 0
M  V30 10933 H 1012.63 1.35678 4.12036 0
M  V30 10934 H 1013.3 0.48021 5.49907 0
M  V30 10935 H 1015.78 -0.822158 4.07897 0
M  V30 10936 H 1014.66 -1.51636 5.27539 0
M  V30 10937 H 1014.92 -2.34423 3.74831 0
M  V30 10938 N 1013.98 -1.5736 0.0868897 0
M  V30 10939 C 1015.22 -1.94054 -0.578741 0
M  V30 10940 C 1015.55 -0.968047 -1.68698 0
M  V30 10941 O 1014.81 0.0137824 -1.95695 0
M  V30 10942 C 1015.11 -3.37316 -1.18123 0
M  V30 10943 C 1014.77 -4.50467 -0.197607 0
M  V30 10944 C 1013.43 -4.81145 0.072952 0
M  V30 10945 C 1015.79 -5.19036 0.474473 0
M  V30 10946 C 1013.11 -5.77723 1.02242 0
M  V30 10947 C 1015.47 -6.16632 1.41236 0
M  V30 10948 C 1014.13 -6.45719 1.69124 0
M  V30 10949 H 1013.4 -0.710093 -0.211776 0
M  V30 10950 H 1016.05 -1.90822 0.160978 0
M  V30 10951 H 1014.35 -3.37085 -1.99701 0
M  V30 10952 H 1016.05 -3.63003 -1.7038 0
M  V30 10953 H 1012.64 -4.2655 -0.418669 0
M  V30 10954 H 1016.82 -4.95518 0.278581 0
M  V30 10955 H 1012.08 -5.98578 1.24557 0
M  V30 10956 H 1016.25 -6.68862 1.939 0
M  V30 10957 H 1013.88 -7.20365 2.42855 0
M  V30 10958 N 1015.45 0.186762 -1.56489 0
M  V30 10959 C 1016.42 1.21511 -1.94339 0
M  V30 10960 C 1017.42 1.38001 -0.82537 0
M  V30 10961 O 1018.61 1.3567 -1.09266 0
M  V30 10962 C 1015.74 2.583 -2.22472 0
M  V30 10963 H 1016.93 0.891371 -2.86347 0
M  V30 10964 H 1014.49 0.428612 -1.50308 0
M  V30 10965 H 1015.22 2.95715 -1.33129 0
M  V30 10966 H 1015.01 2.47701 -3.03951 0
M  V30 10967 H 1016.5 3.32441 -2.5273 0
M  V30 10968 N 1016.93 1.50896 0.454776 0
M  V30 10969 C 1018.21 1.53227 1.21576 0
M  V30 10970 C 1018.59 0.286358 2.09149 0
M  V30 10971 O 1017.94 -0.729469 2.16543 0
M  V30 10972 C 1018.15 2.83693 2.03271 0
M  V30 10973 C 1019.5 3.34981 2.60908 0
M  V30 10974 O 1020.52 2.85126 2.13499 0
M  V30 10975 O 1019.38 4.21929 3.4733 0
M  V30 10976 H 1016.47 0.615306 0.552564 0
M  V30 10977 H 1019.02 1.63197 0.465266 0
M  V30 10978 H 1017.79 3.65839 1.38843 0
M  V30 10979 H 1017.41 2.76803 2.85422 0
M  V30 10980 N 1018.41 -0.709066 1.40748 0
M  V30 10981 C 1019.37 -1.80485 1.41272 0
M  V30 10982 C 1020.37 -1.57872 0.305463 0
M  V30 10983 O 1021.56 -1.64793 0.564691 0
M  V30 10984 C 1018.7 -3.1867 1.21087 0
M  V30 10985 H 1019.89 -1.81417 2.38805 0
M  V30 10986 H 1017.44 -0.915356 1.26692 0
M  V30 10987 H 1018.18 -3.23385 0.243406 0
M  V30 10988 H 1017.96 -3.36484 2.01299 0
M  V30 10989 H 1019.45 -3.98685 1.24257 0
M  V30 10990 N 1019.89 -1.26353 -0.941956 0
M  V30 10991 C 1021.12 -1.14626 -1.72245 0
M  V30 10992 C 1021.53 0.298588 -1.86424 0
M  V30 10993 O 1020.89 1.2045 -1.37106 0
M  V30 10994 C 1020.94 -1.80933 -3.12963 0
M  V30 10995 O 1020.66 -3.19771 -2.99463 0
M  V30 10996 C 1022.16 -1.7515 -4.07231 0
M  V30 10997 H 1019.38 -0.3992 -0.539333 0
M  V30 10998 H 1021.93 -1.66958 -1.1809 0
M  V30 10999 H 1020.08 -1.32541 -3.64021 0
M  V30 11000 H 1020.5 -3.52571 -3.88322 0
M  V30 11001 H 1021.97 -2.26183 -5.03533 0
M  V30 11002 H 1022.45 -0.717855 -4.33294 0
M  V30 11003 H 1023.05 -2.2309 -3.62093 0
M  V30 11004 N 1021.37 1.14642 -1.08144 0
M  V30 11005 C 1022.78 1.6719 -0.830923 0
M  V30 11006 C 1023.13 1.85373 0.642749 0
M  V30 11007 O 1022.25 1.56293 1.49671 0
M  V30 11008 C 1022.85 3.03697 -1.50179 0
M  V30 11009 C 1021.41 3.5329 -1.29858 0
M  V30 11010 C 1020.56 2.28828 -1.5663 0
M  V30 11011 H 1023.51 0.987441 -1.24239 0
M  V30 11012 H 1023.53 3.69023 -0.9275 0
M  V30 11013 H 1023.04 2.90431 -2.57432 0
M  V30 11014 H 1021.14 3.71783 -0.246626 0
M  V30 11015 H 1021.25 4.34231 -2.02436 0
M  V30 11016 H 1019.62 2.34769 -0.987716 0
M  V30 11017 H 1020.4 2.18141 -2.65084 0
M  V30 11018 N 1022.85 0.866709 1.31628 0
M  V30 11019 C 1024.07 0.49039 2.01004 0
M  V30 11020 C 1024.49 -0.916244 1.65077 0
M  V30 11021 O 1023.85 -1.59975 0.8783 0
M  V30 11022 C 1023.9 0.634011 3.55897 0
M  V30 11023 O 1023.62 1.98525 3.90537 0
M  V30 11024 C 1025.12 0.258277 4.42547 0
M  V30 11025 H 1022.34 0.191421 0.643117 0
M  V30 11026 H 1024.88 1.16698 1.67934 0
M  V30 11027 H 1023.04 0.00501801 3.874 0
M  V30 11028 H 1023.45 1.99067 4.85255 0
M  V30 11029 H 1024.93 0.409733 5.50477 0
M  V30 11030 H 1025.4 -0.802301 4.3181 0
M  V30 11031 H 1026.01 0.862837 4.16456 0
M  V30 11032 N 1024.32 -1.44642 0.625825 0
M  V30 11033 C 1025.57 -2.01695 0.127948 0
M  V30 11034 C 1025.89 -1.49439 -1.25271 0
M  V30 11035 O 1025.16 -0.695873 -1.83124 0
M  V30 11036 H 1023.74 -0.745685 0.0443096 0
M  V30 11037 H 1026.4 -1.7721 0.811332 0
M  V30 11038 H 1025.5 -3.11966 0.0915933 0
M  V30 11039 N 1025.8 -0.366053 -1.5329 0
M  V30 11040 C 1027.05 0.216398 -2.02246 0
M  V30 11041 C 1027.4 1.46384 -1.24858 0
M  V30 11042 O 1026.7 1.88667 -0.333977 0
M  V30 11043 C 1026.89 0.560906 -3.52971 0
M  V30 11044 C 1026.72 -0.651598 -4.44954 0
M  V30 11045 C 1025.49 -1.16381 -4.91715 0
M  V30 11046 C 1027.69 -1.51695 -4.91419 0
M  V30 11047 N 1025.67 -2.33629 -5.67706 0
M  V30 11048 C 1027.04 -2.53608 -5.65759 0
M  V30 11049 C 1029.09 -1.53977 -4.73493 0
M  V30 11050 C 1027.8 -3.57661 -6.24076 0
M  V30 11051 C 1029.82 -2.56923 -5.32677 0
M  V30 11052 C 1029.19 -3.5756 -6.06902 0
M  V30 11053 H 1025.28 0.0418889 -0.780877 0
M  V30 11054 H 1027.87 -0.510704 -1.87883 0
M  V30 11055 H 1026.04 1.25708 -3.67494 0
M  V30 11056 H 1027.77 1.12849 -3.88648 0
M  V30 11057 H 1024.53 -0.728374 -4.67965 0
M  V30 11058 H 1024.95 -2.92891 -6.10364 0
M  V30 11059 H 1029.59 -0.775265 -4.15631 0
M  V30 11060 H 1027.31 -4.34993 -6.81034 0
M  V30 11061 H 1030.9 -2.59544 -5.207 0
M  V30 11062 H 1029.78 -4.35912 -6.51882 0
M  V30 11063 N 1027.28 1.57312 -0.0952337 0
M  V30 11064 C 1028.53 1.93974 0.567319 0
M  V30 11065 C 1028.85 0.977805 1.68713 0
M  V30 11066 O 1028.12 0.0298944 1.95877 0
M  V30 11067 H 1026.7 0.71612 0.212558 0
M  V30 11068 H 1029.36 1.94254 -0.158598 0
M  V30 11069 H 1028.46 2.964 0.977423 0
M  V30 11070 N 1028.76 -0.17846 1.56586 0
M  V30 11071 C 1029.69 -1.22342 1.98884 0
M  V30 11072 C 1030.67 -1.46564 0.86331 0
M  V30 11073 O 1031.85 -1.58019 1.12887 0
M  V30 11074 C 1028.98 -2.56396 2.34261 0
M  V30 11075 C 1027.94 -2.46756 3.49708 0
M  V30 11076 C 1027.26 -3.85235 3.70807 0
M  V30 11077 C 1028.56 -1.97838 4.83381 0
M  V30 11078 H 1030.26 -0.871848 2.86425 0
M  V30 11079 H 1027.8 -0.417948 1.37801 0
M  V30 11080 H 1029.76 -3.29695 2.62448 0
M  V30 11081 H 1028.48 -2.93327 1.43621 0
M  V30 11082 H 1027.14 -1.75912 3.21637 0
M  V30 11083 H 1026.79 -4.19547 2.7747 0
M  V30 11084 H 1026.49 -3.79655 4.48481 0
M  V30 11085 H 1028.01 -4.60131 4.01387 0
M  V30 11086 H 1029.43 -2.60906 5.10491 0
M  V30 11087 H 1027.82 -2.03223 5.64642 0
M  V30 11088 H 1028.89 -0.932339 4.75852 0
M  V30 11089 N 1030.24 -1.51135 -0.446768 0
M  V30 11090 C 1031.48 -1.63578 -1.19875 0
M  V30 11091 C 1031.81 -0.346478 -1.91084 0
M  V30 11092 O 1031.09 0.653447 -1.83195 0
M  V30 11093 C 1031.37 -2.83275 -2.22323 0
M  V30 11094 C 1031.23 -4.22155 -1.55259 0
M  V30 11095 C 1032.54 -2.98496 -3.23401 0
M  V30 11096 H 1029.66 -0.595333 -0.434452 0
M  V30 11097 H 1032.31 -1.83593 -0.48923 0
M  V30 11098 H 1030.46 -2.6634 -2.82834 0
M  V30 11099 H 1032.13 -4.50736 -0.981571 0
M  V30 11100 H 1030.37 -4.25288 -0.855122 0
M  V30 11101 H 1031.04 -5.01882 -2.29823 0
M  V30 11102 H 1033.52 -3.14079 -2.72935 0
M  V30 11103 H 1032.39 -3.83828 -3.92386 0
M  V30 11104 H 1032.65 -2.10157 -3.88956 0
M  V30 11105 N 1031.71 0.701592 -1.41122 0
M  V30 11106 C 1032.65 1.8257 -1.36907 0
M  V30 11107 C 1033.62 1.6086 -0.237245 0
M  V30 11108 O 1034.81 1.83688 -0.423182 0
M  V30 11109 C 1031.94 3.19149 -1.13408 0
M  V30 11110 C 1030.98 3.59661 -2.29229 0
M  V30 11111 S 1031.81 3.65161 -3.91685 0
M  V30 11112 C 1032.97 5.04477 -3.70478 0
M  V30 11113 H 1033.2 1.85867 -2.32036 0
M  V30 11114 H 1030.74 0.869726 -1.27574 0
M  V30 11115 H 1032.69 3.97998 -1.00537 0
M  V30 11116 H 1031.36 3.13468 -0.199099 0
M  V30 11117 H 1030.55 4.58866 -2.08466 0
M  V30 11118 H 1030.15 2.88105 -2.38477 0
M  V30 11119 H 1032.44 5.91803 -3.29811 0
M  V30 11120 H 1033.39 5.3028 -4.69264 0
M  V30 11121 H 1033.79 4.75731 -3.03876 0
M  V30 11122 N 1033.19 1.2685 0.935242 0
M  V30 11123 C 1034.44 1.12522 1.67878 0
M  V30 11124 C 1034.76 -0.330894 1.92172 0
M  V30 11125 O 1034.03 -1.23259 1.52263 0
M  V30 11126 H 1032.61 0.413418 0.622169 0
M  V30 11127 H 1035.27 1.59267 1.12339 0
M  V30 11128 H 1034.37 1.64853 2.65009 0
M  V30 11129 N 1034.67 -1.14067 1.0875 0
M  V30 11130 C 1035.62 -2.17302 0.690195 0
M  V30 11131 C 1036.6 -1.58229 -0.291948 0
M  V30 11132 O 1037.8 -1.76698 -0.103411 0
M  V30 11133 C 1034.93 -3.4314 0.104835 0
M  V30 11134 C 1034.01 -4.09235 1.11298 0
M  V30 11135 N 1034.4 -4.50601 2.29765 0
M  V30 11136 C 1032.7 -4.35775 0.949535 0
M  V30 11137 C 1033.4 -5.02029 2.93839 0
M  V30 11138 N 1032.38 -4.96457 2.21431 0
M  V30 11139 H 1036.18 -2.47031 1.59226 0
M  V30 11140 H 1033.69 -1.30788 0.962722 0
M  V30 11141 H 1035.69 -4.16431 -0.197777 0
M  V30 11142 H 1034.35 -3.14888 -0.792172 0
M  V30 11143 H 1035.36 -4.43529 2.67399 0
M  V30 11144 H 1032.04 -4.17364 0.106627 0
M  V30 11145 H 1033.43 -5.43885 3.94511 0
M  V30 11146 N 1036.15 -0.873678 -1.31166 0
M  V30 11147 C 1037.08 -0.289389 -2.27366 0
M  V30 11148 C 1038.09 0.549667 -1.5324 0
M  V30 11149 O 1039.28 0.371056 -1.74601 0
M  V30 11150 C 1036.38 0.60807 -3.334 0
M  V30 11151 C 1035.56 -0.199379 -4.36945 0
M  V30 11152 C 1034.61 0.626798 -5.22454 0
M  V30 11153 O 1033.64 0.0535121 -5.69175 0
M  V30 11154 N 1034.84 1.93809 -5.47191 0
M  V30 11155 H 1037.61 -1.1161 -2.78143 0
M  V30 11156 H 1035.17 -0.735529 -1.44228 0
M  V30 11157 H 1037.16 1.16656 -3.87522 0
M  V30 11158 H 1035.73 1.33545 -2.82638 0
M  V30 11159 H 1034.95 -0.939316 -3.82845 0
M  V30 11160 H 1036.24 -0.75329 -5.03193 0
M  V30 11161 H 1035.64 2.42693 -5.10995 0
M  V30 11162 H 1034.19 2.44428 -6.04234 0
M  V30 11163 N 1037.63 1.44308 -0.633487 0
M  V30 11164 C 1039.04 1.56768 -0.29931 0
M  V30 11165 C 1039.24 1.62061 1.19743 0
M  V30 11166 O 1038.3 1.56492 1.98158 0
M  V30 11167 C 1039.61 2.8382 -0.993307 0
M  V30 11168 C 1041.16 2.97536 -0.971674 0
M  V30 11169 C 1041.63 4.27393 -1.64618 0
M  V30 11170 N 1043.13 4.34212 -1.61288 0
M  V30 11171 C 1043.86 5.33415 -2.1037 0
M  V30 11172 N 1043.36 6.3901 -2.67653 0
M  V30 11173 N 1045.15 5.24939 -2.00985 0
M  V30 11174 H 1037.3 1.39115 -1.60501 0
M  V30 11175 H 1039.56 0.666804 -0.673852 0
M  V30 11176 H 1039.27 2.85902 -2.04823 0
M  V30 11177 H 1039.14 3.73422 -0.532537 0
M  V30 11178 H 1041.53 2.95005 0.0747854 0
M  V30 11179 H 1041.61 2.09276 -1.47096 0
M  V30 11180 H 1041.26 4.30683 -2.6921 0
M  V30 11181 H 1041.19 5.14515 -1.12171 0
M  V30 11182 H 1043.68 3.58519 -1.19468 0
M  V30 11183 H 1043.99 7.10994 -3.02831 0
M  V30 11184 H 1042.33 6.39689 -2.71705 0
M  V30 11185 H 1045.53 4.41357 -1.55953 0
M  V30 11186 H 1045.7 6.02097 -2.39547 0
M  V30 11187 N 1039.1 0.374177 1.53094 0
M  V30 11188 C 1040.35 -0.213131 2.01677 0
M  V30 11189 C 1040.68 -1.47715 1.26071 0
M  V30 11190 O 1039.96 -1.91199 0.356834 0
M  V30 11191 C 1040.24 -0.496392 3.56662 0
M  V30 11192 C 1040.09 0.781859 4.42953 0
M  V30 11193 C 1041.41 -1.29339 4.20666 0
M  V30 11194 H 1038.53 -0.0759885 0.733072 0
M  V30 11195 H 1041.17 0.500765 1.83282 0
M  V30 11196 H 1039.32 -1.10455 3.72467 0
M  V30 11197 H 1041 1.41914 4.38928 0
M  V30 11198 H 1039.24 1.40041 4.10574 0
M  V30 11199 H 1039.91 0.538508 5.49367 0
M  V30 11200 H 1042.39 -0.778848 4.08746 0
M  V30 11201 H 1041.26 -1.46033 5.29118 0
M  V30 11202 H 1041.52 -2.30435 3.77296 0
M  V30 11203 N 1040.58 -1.57259 0.103575 0
M  V30 11204 C 1042 -1.57581 -0.253062 0
M  V30 11205 C 1042.2 -1.11531 -1.67819 0
M  V30 11206 O 1041.25 -0.795632 -2.39637 0
M  V30 11207 C 1042.57 -3.00681 -0.0337753 0
M  V30 11208 C 1044.12 -3.12837 -0.10087 0
M  V30 11209 C 1044.59 -4.57911 0.0905295 0
M  V30 11210 N 1046.08 -4.63186 0.0359789 0
M  V30 11211 C 1046.82 -5.73179 0.159199 0
M  V30 11212 N 1046.31 -6.91976 0.337728 0
M  V30 11213 N 1048.11 -5.62011 0.0998662 0
M  V30 11214 H 1040.26 -1.85499 1.0346 0
M  V30 11215 H 1042.52 -0.856584 0.406163 0
M  V30 11216 H 1042.23 -3.38602 0.950858 0
M  V30 11217 H 1042.1 -3.69207 -0.772406 0
M  V30 11218 H 1044.49 -2.74783 -1.07601 0
M  V30 11219 H 1044.57 -2.46886 0.66939 0
M  V30 11220 H 1044.21 -4.9666 1.06258 0
M  V30 11221 H 1044.14 -5.21933 -0.699528 0
M  V30 11222 H 1046.63 -3.7777 -0.099121 0
M  V30 11223 H 1046.95 -7.71641 0.423032 0
M  V30 11224 H 1045.29 -6.93996 0.373504 0
M  V30 11225 H 1048.48 -4.68084 -0.0385356 0
M  V30 11226 H 1048.65 -6.47693 0.199342 0
M  V30 11227 N 1042.06 0.170153 -1.56679 0
M  V30 11228 C 1043.31 0.884841 -1.817 0
M  V30 11229 C 1043.63 1.82731 -0.680763 0
M  V30 11230 O 1042.9 1.936 0.299294 0
M  V30 11231 H 1041.48 0.329738 -0.670285 0
M  V30 11232 H 1044.14 0.169691 -1.9416 0
M  V30 11233 H 1043.24 1.46104 -2.7579 0
M  V30 11234 N 1043.54 1.5137 0.438746 0
M  V30 11235 C 1044.77 1.67774 1.21077 0
M  V30 11236 C 1045.18 0.374489 1.85049 0
M  V30 11237 O 1044.54 -0.646867 1.70651 0
M  V30 11238 C 1044.59 2.79238 2.29584 0
M  V30 11239 O 1044.31 4.04513 1.68228 0
M  V30 11240 C 1045.81 3.06898 3.19888 0
M  V30 11241 H 1043.03 0.563054 0.364981 0
M  V30 11242 H 1045.58 1.97777 0.520035 0
M  V30 11243 H 1043.73 2.51837 2.94375 0
M  V30 11244 H 1044.14 4.66405 2.3993 0
M  V30 11245 H 1045.62 3.88476 3.92162 0
M  V30 11246 H 1046.1 2.19249 3.80561 0
M  V30 11247 H 1046.7 3.35952 2.60799 0
M  V30 11248 N 1045.02 -0.694098 1.41492 0
M  V30 11249 C 1046.26 -1.45415 1.40929 0
M  V30 11250 C 1046.59 -1.94491 0.0189301 0
M  V30 11251 O 1045.85 -1.7 -0.96945 0
M  V30 11252 C 1046.15 -2.6805 2.36398 0
M  V30 11253 C 1045.81 -2.37623 3.83205 0
M  V30 11254 C 1044.47 -2.29035 4.23198 0
M  V30 11255 C 1046.83 -2.12555 4.75888 0
M  V30 11256 C 1044.15 -1.93478 5.5388 0
M  V30 11257 C 1046.51 -1.78506 6.06892 0
M  V30 11258 C 1045.17 -1.68415 6.45905 0
M  V30 11259 H 1044.44 -0.53211 0.515694 0
M  V30 11260 H 1047.09 -0.793193 1.74301 0
M  V30 11261 H 1045.39 -3.39086 1.96285 0
M  V30 11262 H 1047.09 -3.26194 2.33234 0
M  V30 11263 H 1043.68 -2.45202 3.51531 0
M  V30 11264 H 1047.86 -2.18133 4.45793 0
M  V30 11265 H 1043.12 -1.84219 5.82986 0
M  V30 11266 H 1047.29 -1.58128 6.7821 0
M  V30 11267 H 1044.92 -1.40631 7.47079 0
M  V30 11268 N 1046.49 -1.27344 -0.928501 0
M  V30 11269 C 1047.72 -1.16557 -1.7155 0
M  V30 11270 C 1048.14 0.274044 -1.86093 0
M  V30 11271 O 1047.5 1.19847 -1.36038 0
M  V30 11272 C 1047.55 -1.85332 -3.09329 0
M  V30 11273 O 1046.65 -1.15074 -3.9602 0
M  V30 11274 H 1046 -0.405423 -0.525859 0
M  V30 11275 H 1048.53 -1.68399 -1.16202 0
M  V30 11276 H 1048.54 -1.92659 -3.59648 0
M  V30 11277 H 1047.21 -2.90056 -2.98061 0
M  V30 11278 H 1045.79 -1.1581 -3.54461 0
M  V30 11279 N 1047.97 1.13488 -1.09353 0
M  V30 11280 C 1048.94 2.17066 -0.735863 0
M  V30 11281 C 1049.94 1.59086 0.234181 0
M  V30 11282 O 1051.13 1.74196 0.012463 0
M  V30 11283 C 1048.26 3.40786 -0.0880975 0
M  V30 11284 H 1049.45 2.50221 -1.65316 0
M  V30 11285 H 1047 1.28304 -0.89263 0
M  V30 11286 H 1047.74 3.1322 0.840462 0
M  V30 11287 H 1047.52 3.8414 -0.786073 0
M  V30 11288 H 1049.01 4.17342 0.146775 0
M  V30 11289 N 1049.45 0.880621 1.30701 0
M  V30 11290 C 1050.86 0.547993 1.78477 0
M  V30 11291 C 1051.21 -0.935633 1.72454 0
M  V30 11292 O 1050.34 -1.73094 1.29874 0
M  V30 11293 C 1050.93 0.98795 3.24076 0
M  V30 11294 C 1049.49 0.706805 3.69704 0
M  V30 11295 C 1048.64 1.17335 2.51252 0
M  V30 11296 H 1051.59 1.06528 1.17633 0
M  V30 11297 H 1051.61 0.31508 3.79193 0
M  V30 11298 H 1051.12 2.06778 3.28427 0
M  V30 11299 H 1049.22 -0.36122 3.70845 0
M  V30 11300 H 1049.34 1.2913 4.6137 0
M  V30 11301 H 1047.7 0.592808 2.47705 0
M  V30 11302 H 1048.48 2.26083 2.58343 0
M  V30 11303 N 1050.93 -1.4397 0.641131 0
M  V30 11304 C 1051.86 -2.33458 -0.04446 0
M  V30 11305 C 1052.84 -1.48781 -0.824507 0
M  V30 11306 O 1054.03 -1.77477 -0.788397 0
M  V30 11307 C 1051.16 -3.31989 -1.01984 0
M  V30 11308 C 1050.11 -4.2656 -0.350745 0
M  V30 11309 C 1049.44 -5.15036 -1.43673 0
M  V30 11310 C 1050.74 -5.16897 0.749299 0
M  V30 11311 H 1052.43 -2.91034 0.702832 0
M  V30 11312 H 1049.98 -1.39942 0.339435 0
M  V30 11313 H 1051.93 -3.93483 -1.50828 0
M  V30 11314 H 1050.65 -2.72643 -1.79815 0
M  V30 11315 H 1049.31 -3.66413 0.117139 0
M  V30 11316 H 1048.96 -4.52037 -2.20617 0
M  V30 11317 H 1048.66 -5.79125 -0.994358 0
M  V30 11318 H 1050.18 -5.79403 -1.92678 0
M  V30 11319 H 1051.6 -5.7227 0.343534 0
M  V30 11320 H 1049.99 -5.89643 1.11541 0
M  V30 11321 H 1051.06 -4.5731 1.61232 0
M  V30 11322 N 1052.41 -0.382291 -1.52893 0
M  V30 11323 C 1053.82 0.0932841 -1.86467 0
M  V30 11324 C 1054.17 1.4675 -1.30226 0
M  V30 11325 O 1053.29 2.07001 -0.63084 0
M  V30 11326 C 1053.89 0.176048 -3.38342 0
M  V30 11327 C 1052.45 0.595904 -3.71653 0
M  V30 11328 C 1051.6 -0.246511 -2.76202 0
M  V30 11329 H 1054.55 -0.600443 -1.46903 0
M  V30 11330 H 1054.57 0.996512 -3.67219 0
M  V30 11331 H 1054.08 -0.824264 -3.79246 0
M  V30 11332 H 1052.18 1.60384 -3.36315 0
M  V30 11333 H 1052.29 0.358919 -4.77754 0
M  V30 11334 H 1050.66 0.287162 -2.53076 0
M  V30 11335 H 1051.44 -1.24467 -3.19942 0
M  V30 11336 N 1053.89 1.57202 -0.111913 0
M  V30 11337 C 1055.13 1.94125 0.547573 0
M  V30 11338 C 1055.45 0.997026 1.68282 0
M  V30 11339 O 1056.65 1.26063 2.40459 0
M  V30 11340 C 1055.11 3.44982 1.02545 0
M  V30 11341 C 1054.72 4.47927 -0.0809529 0
M  V30 11342 C 1056.46 3.90837 1.65671 0
M  V30 11343 C 1054.37 5.89955 0.413224 0
M  V30 11344 H 1053.3 0.724651 0.208321 0
M  V30 11345 H 1055.95 1.82507 -0.190625 0
M  V30 11346 H 1054.33 3.5181 1.81785 0
M  V30 11347 H 1055.51 4.52761 -0.857003 0
M  V30 11348 H 1053.82 4.11782 -0.618434 0
M  V30 11349 H 1056.42 4.9436 2.03746 0
M  V30 11350 H 1056.76 3.30417 2.53239 0
M  V30 11351 H 1057.29 3.8678 0.929844 0
M  V30 11352 H 1054.03 6.54113 -0.426238 0
M  V30 11353 H 1053.55 5.88557 1.15591 0
M  V30 11354 H 1055.23 6.41032 0.876756 0
M  V30 11355 N 1055.36 -0.161842 1.56767 0
M  V30 11356 C 1056.31 -1.20506 1.93552 0
M  V30 11357 C 1057.3 -1.39317 0.804952 0
M  V30 11358 O 1058.49 -1.41129 1.06825 0
M  V30 11359 C 1055.62 -2.54227 2.30702 0
M  V30 11360 C 1054.7 -2.3907 3.50295 0
M  V30 11361 N 1055.1 -1.93642 4.67265 0
M  V30 11362 C 1053.39 -2.69868 3.55088 0
M  V30 11363 C 1054.09 -1.91175 5.49388 0
M  V30 11364 N 1053.07 -2.33935 4.90689 0
M  V30 11365 H 1056.87 -0.845687 2.8147 0
M  V30 11366 H 1054.39 -0.370034 1.58128 0
M  V30 11367 H 1056.38 -3.29623 2.55254 0
M  V30 11368 H 1055.04 -2.90959 1.44128 0
M  V30 11369 H 1056.05 -1.63834 4.91303 0
M  V30 11370 H 1052.73 -3.10574 2.79016 0
M  V30 11371 H 1054.12 -1.57671 6.53138 0
M  V30 11372 N 1056.84 -1.516 -0.430713 0
M  V30 11373 C 1058.07 -1.68414 -1.20185 0
M  V30 11374 C 1058.48 -0.384297 -1.84847 0
M  V30 11375 O 1057.84 0.637808 -1.70992 0
M  V30 11376 C 1057.89 -2.80451 -2.28099 0
M  V30 11377 O 1057.61 -4.05399 -1.66081 0
M  V30 11378 C 1059.11 -3.0859 -3.18256 0
M  V30 11379 H 1056.33 -0.564982 -0.361989 0
M  V30 11380 H 1058.88 -1.9805 -0.50954 0
M  V30 11381 H 1057.03 -2.53395 -2.93036 0
M  V30 11382 H 1057.45 -4.67671 -2.37453 0
M  V30 11383 H 1058.92 -3.9055 -3.90096 0
M  V30 11384 H 1059.4 -2.21264 -3.79393 0
M  V30 11385 H 1060 -3.37331 -2.59014 0
M  V30 11386 N 1058.32 0.686584 -1.41858 0
M  V30 11387 C 1059.28 1.78214 -1.44126 0
M  V30 11388 C 1060.28 1.57366 -0.330541 0
M  V30 11389 O 1061.47 1.63874 -0.590837 0
M  V30 11390 C 1058.6 3.16704 -1.26142 0
M  V30 11391 H 1059.8 1.77594 -2.41661 0
M  V30 11392 H 1057.35 0.895085 -1.28132 0
M  V30 11393 H 1058.09 3.22957 -0.294823 0
M  V30 11394 H 1057.87 3.33238 -2.06627 0
M  V30 11395 H 1059.36 3.96658 -1.30584 0
M  V30 11396 N 1059.8 1.27835 0.921735 0
M  V30 11397 C 1060.71 1.12904 2.05645 0
M  V30 11398 C 1061.72 0.0575704 1.73905 0
M  V30 11399 O 1062.9 0.265261 1.99645 0
M  V30 11400 C 1059.96 0.783957 3.3772 0
M  V30 11401 C 1059.03 1.93694 3.8312 0
M  V30 11402 C 1058.26 1.60823 5.08893 0
M  V30 11403 O 1058.48 0.518873 5.68035 0
M  V30 11404 O 1057.42 2.44932 5.49811 0
M  V30 11405 H 1061.24 2.08143 2.21157 0
M  V30 11406 H 1058.83 1.07078 1.04185 0
M  V30 11407 H 1060.71 0.605107 4.17033 0
M  V30 11408 H 1059.38 -0.138849 3.23402 0
M  V30 11409 H 1058.29 2.17089 3.04669 0
M  V30 11410 H 1059.62 2.84016 4.0199 0
M  V30 11411 N 1061.28 -1.12907 1.09954 0
M  V30 11412 C 1062.21 -2.20585 0.765799 0
M  V30 11413 C 1063.19 -1.68117 -0.258989 0
M  V30 11414 O 1064.37 -1.93792 -0.125853 0
M  V30 11415 C 1061.5 -3.46772 0.191435 0
M  V30 11416 C 1060.46 -4.12363 1.14635 0
M  V30 11417 C 1059.78 -5.3294 0.433426 0
M  V30 11418 C 1061.08 -4.59073 2.49096 0
M  V30 11419 H 1062.78 -2.48759 1.66612 0
M  V30 11420 H 1060.32 -1.19563 0.802534 0
M  V30 11421 H 1062.27 -4.21365 -0.0541535 0
M  V30 11422 H 1061 -3.18011 -0.744101 0
M  V30 11423 H 1059.66 -3.39744 1.37731 0
M  V30 11424 H 1059.31 -5.00444 -0.506422 0
M  V30 11425 H 1059.01 -5.77772 1.07018 0
M  V30 11426 H 1060.53 -6.10284 0.196267 0
M  V30 11427 H 1061.94 -5.25063 2.30177 0
M  V30 11428 H 1060.34 -5.14665 3.0861 0
M  V30 11429 H 1061.41 -3.73313 3.0946 0
M  V30 11430 N 1062.75 -0.88754 -1.30232 0
M  V30 11431 C 1063.68 -0.372481 -2.3051 0
M  V30 11432 C 1064.66 0.546037 -1.61098 0
M  V30 11433 O 1065.85 0.459345 -1.88689 0
M  V30 11434 C 1062.98 0.411605 -3.44852 0
M  V30 11435 C 1061.93 -0.415383 -4.2598 0
M  V30 11436 C 1061.26 0.495463 -5.324 0
M  V30 11437 C 1062.56 -1.65886 -4.95257 0
M  V30 11438 H 1064.25 -1.21045 -2.7384 0
M  V30 11439 H 1061.8 -0.583498 -1.31648 0
M  V30 11440 H 1063.75 0.782584 -4.1407 0
M  V30 11441 H 1062.48 1.28325 -3.00334 0
M  V30 11442 H 1061.14 -0.768534 -3.58454 0
M  V30 11443 H 1060.78 1.36489 -4.84128 0
M  V30 11444 H 1060.48 -0.0540885 -5.87575 0
M  V30 11445 H 1062.01 0.862901 -6.04472 0
M  V30 11446 H 1063.42 -1.35832 -5.56976 0
M  V30 11447 H 1061.82 -2.14881 -5.60309 0
M  V30 11448 H 1062.89 -2.40181 -4.21237 0
M  V30 11449 N 1064.23 1.43628 -0.648757 0
M  V30 11450 C 1065.2 2.29172 0.0360713 0
M  V30 11451 C 1066.2 1.41974 0.754976 0
M  V30 11452 O 1067.39 1.63654 0.5969 0
M  V30 11453 C 1064.52 3.23942 1.0618 0
M  V30 11454 H 1065.71 2.91214 -0.716544 0
M  V30 11455 H 1063.26 1.50833 -0.409759 0
M  V30 11456 H 1064 2.66786 1.8438 0
M  V30 11457 H 1063.78 3.88223 0.550016 0
M  V30 11458 H 1065.27 3.8816 1.54019 0
M  V30 11459 N 1065.71 0.390394 1.52688 0
M  V30 11460 C 1066.67 -0.432149 2.25089 0
M  V30 11461 C 1067.67 -0.989296 1.26766 0
M  V30 11462 O 1068.86 -0.871126 1.50854 0
M  V30 11463 C 1066 -1.60642 3.00678 0
M  V30 11464 H 1067.19 0.201734 2.99221 0
M  V30 11465 H 1064.74 0.142531 1.55649 0
M  V30 11466 H 1065.48 -2.2777 2.3085 0
M  V30 11467 H 1065.26 -1.21361 3.72846 0
M  V30 11468 H 1066.75 -2.18873 3.55647 0
M  V30 11469 N 1067.19 -1.57141 0.120249 0
M  V30 11470 C 1068.43 -1.97124 -0.540521 0
M  V30 11471 C 1068.79 -1.0022 -1.63768 0
M  V30 11472 O 1069.99 -1.29146 -2.35743 0
M  V30 11473 C 1068.26 -3.41371 -1.05833 0
M  V30 11474 S 1069.82 -4.03367 -1.72745 0
M  V30 11475 H 1066.64 -0.688962 -0.175646 0
M  V30 11476 H 1069.24 -1.94416 0.205625 0
M  V30 11477 H 1067.95 -4.09646 -0.248656 0
M  V30 11478 H 1067.48 -3.47732 -1.83972 0
M  V30 11479 H 1069.49 -3.94227 -3.0133 0
M  V30 11480 N 1068.67 0.153526 -1.5685 0
M  V30 11481 C 1069.91 0.867232 -1.8299 0
M  V30 11482 C 1070.24 1.81462 -0.700125 0
M  V30 11483 O 1069.5 1.93207 0.311348 0
M  V30 11484 C 1069.8 1.68066 -3.15418 0
M  V30 11485 C 1069.46 0.880635 -4.42217 0
M  V30 11486 C 1068.12 0.659899 -4.76654 0
M  V30 11487 C 1070.48 0.320698 -5.20212 0
M  V30 11488 C 1067.8 -0.131588 -5.86552 0
M  V30 11489 C 1070.16 -0.457794 -6.30941 0
M  V30 11490 C 1068.82 -0.689168 -6.63933 0
M  V30 11491 H 1068.09 0.317343 -0.669608 0
M  V30 11492 H 1070.74 0.131208 -1.9105 0
M  V30 11493 H 1069.04 2.4866 -3.02779 0
M  V30 11494 H 1070.74 2.23623 -3.32857 0
M  V30 11495 H 1067.33 1.06274 -4.15215 0
M  V30 11496 H 1071.51 0.47853 -4.93988 0
M  V30 11497 H 1066.77 -0.320413 -6.1056 0
M  V30 11498 H 1070.94 -0.898839 -6.90575 0
M  V30 11499 H 1068.57 -1.30433 -7.48927 0
M  V30 11500 N 1070.14 1.51827 0.422667 0
M  V30 11501 C 1071.11 1.7359 1.49663 0
M  V30 11502 C 1072.11 0.605811 1.48952 0
M  V30 11503 O 1073.3 0.87354 1.50715 0
M  V30 11504 C 1070.43 1.80585 2.8914 0
M  V30 11505 H 1071.62 2.69453 1.31664 0
M  V30 11506 H 1069.18 1.42038 0.652298 0
M  V30 11507 H 1069.91 0.865895 3.12526 0
M  V30 11508 H 1069.7 2.62729 2.9106 0
M  V30 11509 H 1071.19 1.99212 3.67021 0
M  V30 11510 N 1071.62 -0.679052 1.4222 0
M  V30 11511 C 1073.04 -0.991665 1.25053 0
M  V30 11512 C 1073.24 -2.00928 0.151665 0
M  V30 11513 O 1072.29 -2.47925 -0.478507 0
M  V30 11514 C 1073.61 -1.50053 2.60585 0
M  V30 11515 C 1075.16 -1.61852 2.67905 0
M  V30 11516 C 1075.63 -2.16135 4.03794 0
M  V30 11517 N 1077.12 -2.23474 4.05726 0
M  V30 11518 C 1077.86 -2.66541 5.07685 0
M  V30 11519 N 1077.35 -3.09092 6.20028 0
M  V30 11520 N 1079.15 -2.66252 4.95042 0
M  V30 11521 H 1071.3 -0.00521851 2.12399 0
M  V30 11522 H 1073.56 -0.0648465 0.94578 0
M  V30 11523 H 1073.27 -0.82731 3.41831 0
M  V30 11524 H 1073.14 -2.47998 2.84213 0
M  V30 11525 H 1075.53 -2.28281 1.87008 0
M  V30 11526 H 1075.61 -0.624074 2.4807 0
M  V30 11527 H 1075.25 -1.50316 4.85147 0
M  V30 11528 H 1075.18 -3.16363 4.20978 0
M  V30 11529 H 1077.67 -1.93467 3.24621 0
M  V30 11530 H 1077.99 -3.40627 6.93681 0
M  V30 11531 H 1076.33 -3.06959 6.23539 0
M  V30 11532 H 1079.52 -2.32369 4.06352 0
M  V30 11533 H 1079.69 -2.99496 5.74636 0
M  V30 11534 N 1073.1 -1.28322 -0.914942 0
M  V30 11535 C 1074.33 -1.1837 -1.70304 0
M  V30 11536 C 1074.75 0.254291 -1.86373 0
M  V30 11537 O 1074.11 1.18398 -1.37301 0
M  V30 11538 C 1074.16 -1.88603 -3.07346 0
M  V30 11539 O 1073.26 -1.19268 -3.94777 0
M  V30 11540 H 1072.6 -0.410978 -0.52153 0
M  V30 11541 H 1075.13 -1.69622 -1.14409 0
M  V30 11542 H 1075.14 -1.96463 -3.57584 0
M  V30 11543 H 1073.82 -2.93201 -2.94967 0
M  V30 11544 H 1072.39 -1.19563 -3.53212 0
M  V30 11545 N 1074.58 1.12322 -1.10551 0
M  V30 11546 C 1075.99 1.35858 -0.837543 0
M  V30 11547 C 1076.19 1.94062 0.54241 0
M  V30 11548 O 1075.25 2.1676 1.29505 0
M  V30 11549 C 1076.56 2.299 -1.9382 0
M  V30 11550 C 1078.11 2.43488 -1.96679 0
M  V30 11551 C 1078.59 3.40846 -3.05922 0
M  V30 11552 N 1080.08 3.48404 -3.05236 0
M  V30 11553 C 1080.81 4.2365 -3.86405 0
M  V30 11554 N 1080.31 5.01951 -4.77512 0
M  V30 11555 N 1082.1 4.19068 -3.74618 0
M  V30 11556 H 1074.25 0.729002 -1.99498 0
M  V30 11557 H 1076.52 0.38339 -0.867016 0
M  V30 11558 H 1076.22 1.94309 -2.9315 0
M  V30 11559 H 1076.1 3.30033 -1.82641 0
M  V30 11560 H 1078.48 2.78359 -0.979813 0
M  V30 11561 H 1078.56 1.43239 -2.11934 0
M  V30 11562 H 1078.21 3.06704 -4.04839 0
M  V30 11563 H 1078.14 4.40927 -2.87907 0
M  V30 11564 H 1080.63 2.92545 -2.39219 0
M  V30 11565 H 1080.94 5.56707 -5.36002 0
M  V30 11566 H 1079.29 5.01143 -4.8154 0
M  V30 11567 H 1082.48 3.5698 -3.02792 0
M  V30 11568 H 1082.65 4.77455 -4.38111 0
M  V30 11569 N 1076.06 0.894434 1.2976 0
M  V30 11570 C 1077.28 0.5322 2.00455 0
M  V30 11571 C 1077.71 -0.874427 1.66539 0
M  V30 11572 O 1077.06 -1.58113 0.887129 0
M  V30 11573 C 1077.11 0.725264 3.53231 0
M  V30 11574 O 1076.22 -0.224612 4.11788 0
M  V30 11575 H 1075.56 0.208562 0.630395 0
M  V30 11576 H 1078.09 1.20458 1.65382 0
M  V30 11577 H 1078.1 0.627889 4.0314 0
M  V30 11578 H 1076.77 1.75079 3.77253 0
M  V30 11579 H 1075.35 -0.0801361 3.72814 0
M  V30 11580 N 1077.53 -1.43282 0.656365 0
M  V30 11581 C 1078.78 -2.01378 0.170702 0
M  V30 11582 C 1079.1 -1.52063 -1.22073 0
M  V30 11583 O 1078.37 -0.73456 -1.81607 0
M  V30 11584 H 1076.95 -0.744577 0.0601168 0
M  V30 11585 H 1079.62 -1.75449 0.848739 0
M  V30 11586 H 1078.71 -3.11701 0.157745 0
M  V30 11587 N 1079.01 -0.398486 -1.52479 0
M  V30 11588 C 1079.98 0.420206 -2.25315 0
M  V30 11589 C 1080.98 0.982559 -1.27289 0
M  V30 11590 O 1082.17 0.863113 -1.51314 0
M  V30 11591 C 1079.3 1.59045 -3.01525 0
M  V30 11592 H 1080.49 -0.217599 -2.9911 0
M  V30 11593 H 1078.04 -0.150784 -1.55571 0
M  V30 11594 H 1078.78 2.26542 -2.32054 0
M  V30 11595 H 1078.56 1.19382 -3.73484 0
M  V30 11596 H 1080.05 2.16984 -3.56802 0
M  V30 11597 N 1080.49 1.57075 -0.12858 0
M  V30 11598 C 1081.44 2.17084 0.835308 0
M  V30 11599 C 1082.43 1.12268 1.26855 0
M  V30 11600 O 1083.64 1.30554 1.23917 0
M  V30 11601 H 1080.01 0.694866 0.287516 0
M  V30 11602 H 1081.99 2.96839 0.304798 0
M  V30 11603 C 1080.73 2.79237 2.07177 0
M  V30 11604 H 1080.06 3.59594 1.74735 0
M  V30 11605 H 1081.5 3.24751 2.72604 0
M  V30 11606 C 1079.96 1.76803 2.86779 0
M  V30 11607 O 1080.49 1.22723 3.82494 0
M  V30 11608 N 1078.69 1.46525 2.50956 0
M  V30 11609 H 1078.24 1.90694 1.73187 0
M  V30 11610 H 1078.2 0.782326 3.04511 0
M  V30 11611 N 1081.97 -0.145205 1.5693 0
M  V30 11612 C 1083.22 -0.855955 1.82637 0
M  V30 11613 C 1083.53 -1.82255 0.710109 0
M  V30 11614 O 1084.74 -2.57758 0.852837 0
M  V30 11615 C 1083.19 -1.57278 3.23715 0
M  V30 11616 C 1082.8 -0.648507 4.43281 0
M  V30 11617 C 1084.55 -2.27021 3.58695 0
M  V30 11618 C 1082.45 -1.36706 5.75383 0
M  V30 11619 H 1081.38 -0.323385 0.68113 0
M  V30 11620 H 1084.03 -0.10869 1.83178 0
M  V30 11621 H 1082.42 -2.36574 3.17567 0
M  V30 11622 H 1083.59 0.109355 4.6067 0
M  V30 11623 H 1081.9 -0.0594029 4.16358 0
M  V30 11624 H 1084.5 -2.81423 4.54648 0
M  V30 11625 H 1084.84 -3.03598 2.8484 0
M  V30 11626 H 1085.38 -1.54642 3.66512 0
M  V30 11627 H 1082.12 -0.6431 6.52338 0
M  V30 11628 H 1081.64 -2.09759 5.61926 0
M  V30 11629 H 1083.32 -1.90748 6.18243 0
M  V30 11630 N 1083.45 -1.52049 -0.414609 0
M  V30 11631 C 1084.7 -1.65067 -1.15912 0
M  V30 11632 C 1085.01 -0.383969 -1.91794 0
M  V30 11633 O 1086.22 -0.393872 -2.68628 0
M  V30 11634 C 1084.67 -2.91611 -2.1093 0
M  V30 11635 C 1084.28 -4.25369 -1.4059 0
M  V30 11636 C 1086.02 -3.13992 -2.85674 0
M  V30 11637 C 1083.93 -5.43041 -2.34223 0
M  V30 11638 H 1082.86 -0.614884 -0.436387 0
M  V30 11639 H 1085.51 -1.78533 -0.424072 0
M  V30 11640 H 1083.89 -2.71831 -2.87965 0
M  V30 11641 H 1085.07 -4.55611 -0.689568 0
M  V30 11642 H 1083.38 -4.09047 -0.779088 0
M  V30 11643 H 1085.98 -3.99082 -3.55861 0
M  V30 11644 H 1086.32 -2.27998 -3.48314 0
M  V30 11645 H 1086.86 -3.34217 -2.1574 0
M  V30 11646 H 1083.59 -6.31364 -1.76238 0
M  V30 11647 H 1083.11 -5.17144 -3.03845 0
M  V30 11648 H 1084.79 -5.75901 -2.94868 0
M  V30 11649 N 1084.93 0.6715 -1.42579 0
M  V30 11650 C 1086.17 1.42871 -1.42941 0
M  V30 11651 C 1086.49 1.94941 -0.0480483 0
M  V30 11652 O 1085.76 1.73275 0.913921 0
M  V30 11653 H 1084.34 0.530189 -0.526221 0
M  V30 11654 H 1087.01 0.793219 -1.78028 0
M  V30 11655 H 1086.1 2.2801 -2.13114 0
M  V30 11656 N 1086.4 1.28806 0.908124 0
M  V30 11657 C 1087.63 1.19153 1.69146 0
M  V30 11658 C 1088.05 -0.249056 1.8715 0
M  V30 11659 O 1087.4 -1.16772 1.40251 0
M  V30 11660 C 1087.45 1.89167 3.08055 0
M  V30 11661 O 1087.18 3.27599 2.90879 0
M  V30 11662 C 1088.68 1.85886 4.02444 0
M  V30 11663 H 1085.9 0.413359 0.528559 0
M  V30 11664 H 1088.44 1.7003 1.13622 0
M  V30 11665 H 1086.6 1.42146 3.60379 0
M  V30 11666 H 1087.01 3.62743 3.78837 0
M  V30 11667 H 1088.48 2.39454 4.97359 0
M  V30 11668 H 1088.96 0.832483 4.31238 0
M  V30 11669 H 1089.57 2.32612 3.5605 0
M  V30 11670 N 1087.88 -1.11734 1.11145 0
M  V30 11671 C 1089.16 -1.79795 0.770261 0
M  V30 11672 C 1089.54 -1.97624 -0.742158 0
M  V30 11673 O 1088.89 -1.55847 -1.67105 0
M  V30 11674 C 1089.1 -3.13684 1.52982 0
M  V30 11675 C 1090.44 -3.88771 1.70711 0
M  V30 11676 O 1091.47 -3.23363 1.49381 0
M  V30 11677 O 1090.33 -5.06134 2.06132 0
M  V30 11678 H 1087.42 -0.778617 0.27872 0
M  V30 11679 H 1089.97 -1.18504 1.2147 0
M  V30 11680 H 1088.74 -2.96043 2.55879 0
M  V30 11681 H 1088.36 -3.82687 1.07873 0
M  V30 11682 N 1089.36 -0.901303 -1.29284 0
M  V30 11683 C 1090.31 -0.370142 -2.29636 0
M  V30 11684 C 1091.3 0.53157 -1.60844 0
M  V30 11685 O 1092.51 0.414194 -1.7517 0
M  V30 11686 H 1088.88 -0.101072 -0.745177 0
M  V30 11687 H 1090.85 -1.22985 -2.71877 0
M  V30 11688 C 1089.6 0.385806 -3.45553 0
M  V30 11689 H 1088.93 -0.298818 -3.98682 0
M  V30 11690 H 1090.37 0.722299 -4.17802 0
M  V30 11691 C 1088.82 1.58907 -2.97069 0
M  V30 11692 O 1089.35 2.68835 -2.98481 0
M  V30 11693 N 1087.56 1.43178 -2.5288 0
M  V30 11694 H 1087.11 0.537467 -2.51931 0
M  V30 11695 H 1087.07 2.23819 -2.208 0
M  V30 11696 N 1090.84 1.42931 -0.663954 0
M  V30 11697 C 1092.06 2.06544 -0.188201 0
M  V30 11698 C 1092.49 1.495 1.14155 0
M  V30 11699 O 1091.85 0.609164 1.7076 0
M  V30 11700 C 1091.89 3.60393 -0.122105 0
M  V30 11701 O 1091 4.02176 0.91258 0
M  V30 11702 H 1090.34 0.656458 -0.0997967 0
M  V30 11703 H 1092.87 1.83253 -0.909909 0
M  V30 11704 H 1092.88 4.07959 0.0576568 0
M  V30 11705 H 1091.55 4.01287 -1.09276 0
M  V30 11706 H 1090.13 3.6618 0.704738 0
M  V30 11707 N 1092.32 0.406567 1.52266 0
M  V30 11708 C 1093.56 -0.170305 2.02084 0
M  V30 11709 C 1093.89 -1.45008 1.29176 0
M  V30 11710 O 1093.17 -1.90399 0.39731 0
M  V30 11711 C 1093.45 -0.420627 3.57635 0
M  V30 11712 C 1093.31 0.87564 4.41194 0
M  V30 11713 C 1094.62 -1.20387 4.23314 0
M  V30 11714 H 1091.74 -0.0604219 0.734519 0
M  V30 11715 H 1094.39 0.539529 1.82179 0
M  V30 11716 H 1092.54 -1.0253 3.74726 0
M  V30 11717 H 1094.21 1.51192 4.35819 0
M  V30 11718 H 1092.45 1.48718 4.07511 0
M  V30 11719 H 1093.12 0.654916 5.48101 0
M  V30 11720 H 1095.6 -0.691972 4.10306 0
M  V30 11721 H 1094.47 -1.34776 5.32096 0
M  V30 11722 H 1094.73 -2.2238 3.82099 0
M  V30 11723 N 1093.79 -1.57004 0.136909 0
M  V30 11724 C 1095.04 -1.96087 -0.517477 0
M  V30 11725 C 1095.37 -1.0213 -1.65176 0
M  V30 11726 O 1094.65 -0.0617958 -1.94402 0
M  V30 11727 C 1094.93 -3.44958 -1.03323 0
M  V30 11728 C 1094.78 -4.49691 0.0988609 0
M  V30 11729 C 1096.1 -3.96091 -1.91832 0
M  V30 11730 H 1093.22 -0.712978 -0.186632 0
M  V30 11731 H 1095.86 -1.88767 0.216095 0
M  V30 11732 H 1094.01 -3.51327 -1.65836 0
M  V30 11733 H 1095.69 -4.55409 0.734847 0
M  V30 11734 H 1093.93 -4.271 0.75947 0
M  V30 11735 H 1094.6 -5.51165 -0.303554 0
M  V30 11736 H 1097.08 -3.92139 -1.39164 0
M  V30 11737 H 1095.95 -5.00742 -2.24831 0
M  V30 11738 H 1096.21 -3.37846 -2.85153 0
M  V30 11739 N 1095.27 0.136881 -1.57004 0
M  V30 11740 C 1096.2 1.17026 -2.02057 0
M  V30 11741 C 1097.18 1.44223 -0.901866 0
M  V30 11742 O 1098.37 1.54971 -1.17037 0
M  V30 11743 C 1095.5 2.50095 -2.40977 0
M  V30 11744 C 1094.45 2.37398 -3.56127 0
M  V30 11745 C 1093.78 3.75268 -3.80891 0
M  V30 11746 C 1095.08 1.84952 -4.88457 0
M  V30 11747 H 1096.77 0.795601 -2.88636 0
M  V30 11748 H 1094.32 0.381266 -1.38861 0
M  V30 11749 H 1096.27 3.22621 -2.71097 0
M  V30 11750 H 1095 2.89416 -1.51348 0
M  V30 11751 H 1093.65 1.67322 -3.26188 0
M  V30 11752 H 1093.3 4.12043 -2.88496 0
M  V30 11753 H 1093 3.67631 -4.5839 0
M  V30 11754 H 1094.53 4.49327 -4.13446 0
M  V30 11755 H 1095.94 2.4728 -5.17229 0
M  V30 11756 H 1094.34 1.88181 -5.69832 0
M  V30 11757 H 1095.41 0.805848 -4.78157 0
M  V30 11758 N 1096.75 1.52266 0.40654 0
M  V30 11759 C 1097.98 1.70598 1.17945 0
M  V30 11760 C 1098.4 0.415793 1.83447 0
M  V30 11761 O 1097.76 -0.626968 1.70114 0
M  V30 11762 C 1097.81 2.84449 2.21633 0
M  V30 11763 O 1096.91 2.50199 3.27833 0
M  V30 11764 H 1096.25 0.567837 0.344177 0
M  V30 11765 H 1098.78 1.98981 0.476211 0
M  V30 11766 H 1098.79 3.09436 2.65919 0
M  V30 11767 H 1097.47 3.78055 1.73341 0
M  V30 11768 H 1096.04 2.35892 2.88807 0
M  V30 11769 N 1098.23 -0.663929 1.42933 0
M  V30 11770 C 1099.64 -0.978346 1.26097 0
M  V30 11771 C 1099.84 -2.00756 0.172968 0
M  V30 11772 O 1098.9 -2.48418 -0.452184 0
M  V30 11773 C 1100.21 -1.4728 2.62162 0
M  V30 11774 C 1101.76 -1.59001 2.69606 0
M  V30 11775 C 1102.24 -2.1184 4.06064 0
M  V30 11776 N 1103.73 -2.19158 4.08074 0
M  V30 11777 C 1104.46 -2.61141 5.10483 0
M  V30 11778 N 1103.96 -3.02498 6.23271 0
M  V30 11779 N 1105.75 -2.60986 4.97838 0
M  V30 11780 H 1097.9 0.0173096 2.12393 0
M  V30 11781 H 1100.17 -0.0548116 0.946414 0
M  V30 11782 H 1099.87 -0.791008 3.42689 0
M  V30 11783 H 1099.75 -2.4497 2.86827 0
M  V30 11784 H 1102.13 -2.26284 1.89418 0
M  V30 11785 H 1102.21 -0.597728 2.48718 0
M  V30 11786 H 1101.86 -1.45162 4.86714 0
M  V30 11787 H 1101.79 -3.1188 4.2431 0
M  V30 11788 H 1104.28 -1.90013 3.26655 0
M  V30 11789 H 1104.59 -3.33251 6.97254 0
M  V30 11790 H 1102.94 -3.00328 6.2676 0
M  V30 11791 H 1106.13 -2.28046 4.08794 0
M  V30 11792 H 1106.3 -2.93384 5.7778 0
M  V30 11793 N 1099.71 -1.29285 -0.901281 0
M  V30 11794 C 1100.65 -1.1428 -2.00521 0
M  V30 11795 C 1101.62 -0.0365428 -1.6606 0
M  V30 11796 O 1102.81 -0.203771 -1.89709 0
M  V30 11797 C 1099.95 -0.823671 -3.35126 0
M  V30 11798 C 1099.06 -2.01021 -3.8238 0
M  V30 11799 C 1098.2 -1.6306 -5.05554 0
M  V30 11800 C 1097.24 -2.78304 -5.45173 0
M  V30 11801 N 1096.37 -2.4075 -6.59533 0
M  V30 11802 H 1101.21 -2.08729 -2.12688 0
M  V30 11803 H 1098.75 -1.0387 -1.04161 0
M  V30 11804 H 1100.71 -0.61934 -4.12577 0
M  V30 11805 H 1099.34 0.0839113 -3.22691 0
M  V30 11806 H 1098.39 -2.32629 -3.00978 0
M  V30 11807 H 1099.7 -2.8738 -4.07694 0
M  V30 11808 H 1098.86 -1.38906 -5.90584 0
M  V30 11809 H 1097.59 -0.738464 -4.82077 0
M  V30 11810 H 1096.6 -3.03142 -4.58678 0
M  V30 11811 H 1097.82 -3.68179 -5.70632 0
M  V30 11812 H 1095.77 -1.54022 -6.37662 0
M  V30 11813 H 1095.69 -3.20643 -6.84634 0
M  V30 11814 H 1096.96 -2.19912 -7.47836 0
M  V30 11815 N 1101.18 1.11143 -1.11736 0
M  V30 11816 C 1102.41 1.86474 -0.889435 0
M  V30 11817 C 1102.82 1.80584 0.564438 0
M  V30 11818 O 1102.17 1.18743 1.40163 0
M  V30 11819 C 1102.23 3.36066 -1.27671 0
M  V30 11820 C 1101.89 3.65721 -2.74038 0
M  V30 11821 C 1102.89 3.62941 -3.7225 0
M  V30 11822 C 1100.57 3.94629 -3.10762 0
M  V30 11823 C 1102.57 3.88651 -5.05202 0
M  V30 11824 C 1100.25 4.19997 -4.43899 0
M  V30 11825 C 1101.25 4.16996 -5.40928 0
M  V30 11826 O 1100.94 4.41724 -6.71666 0
M  V30 11827 H 1100.67 0.596438 -0.318178 0
M  V30 11828 H 1103.23 1.41465 -1.48918 0
M  V30 11829 H 1101.46 3.81695 -0.620124 0
M  V30 11830 H 1103.15 3.92769 -1.02409 0
M  V30 11831 H 1103.91 3.40655 -3.45223 0
M  V30 11832 H 1099.79 3.96099 -2.35853 0
M  V30 11833 H 1103.33 3.86224 -5.80927 0
M  V30 11834 H 1099.23 4.4176 -4.70657 0
M  V30 11835 H 1100 4.59276 -6.77501 0
M  V30 11836 N 1102.66 0.908147 1.28804 0
M  V30 11837 C 1103.89 0.55409 1.99343 0
M  V30 11838 C 1104.31 -0.863262 1.67908 0
M  V30 11839 O 1103.66 -1.571 0.92875 0
M  V30 11840 C 1103.71 0.746916 3.537 0
M  V30 11841 O 1103.43 2.10849 3.84024 0
M  V30 11842 C 1104.94 0.398939 4.41501 0
M  V30 11843 H 1102.16 0.211784 0.636701 0
M  V30 11844 H 1104.7 1.21981 1.64137 0
M  V30 11845 H 1102.85 0.128264 3.87188 0
M  V30 11846 H 1103.27 2.14404 4.78676 0
M  V30 11847 H 1104.74 0.584656 5.48895 0
M  V30 11848 H 1105.22 -0.664517 4.34144 0
M  V30 11849 H 1105.83 0.994892 4.135 0
M  V30 11850 N 1104.14 -1.42577 0.671525 0
M  V30 11851 C 1105.37 -2.06442 0.199152 0
M  V30 11852 C 1105.79 -1.50104 -1.1336 0
M  V30 11853 O 1105.15 -0.618211 -1.70434 0
M  V30 11854 C 1105.2 -3.60323 0.141215 0
M  V30 11855 O 1104.3 -4.02655 -0.891238 0
M  V30 11856 H 1103.64 -0.655919 0.103277 0
M  V30 11857 H 1106.17 -1.82768 0.919614 0
M  V30 11858 H 1106.18 -4.07984 -0.0360209 0
M  V30 11859 H 1104.86 -4.00702 1.11403 0
M  V30 11860 H 1103.43 -3.66549 -0.685309 0
M  V30 11861 N 1105.62 -0.414636 -1.52048 0
M  V30 11862 C 1106.85 0.158456 -2.05991 0
M  V30 11863 C 1107.26 1.38947 -1.28415 0
M  V30 11864 O 1106.6 1.80698 -0.330728 0
M  V30 11865 C 1106.66 0.568392 -3.54978 0
M  V30 11866 C 1106.33 -0.552654 -4.53646 0
M  V30 11867 C 1107.32 -1.41791 -5.00191 0
M  V30 11868 C 1105.01 -0.726917 -4.97012 0
M  V30 11869 C 1107 -2.44234 -5.88752 0
M  V30 11870 C 1104.69 -1.75464 -5.85368 0
M  V30 11871 C 1105.69 -2.61075 -6.31133 0
M  V30 11872 O 1105.37 -3.62087 -7.17738 0
M  V30 11873 H 1105.11 0.0214746 -0.675659 0
M  V30 11874 H 1107.66 -0.585825 -1.96869 0
M  V30 11875 H 1105.89 1.36504 -3.61806 0
M  V30 11876 H 1107.58 1.07003 -3.91542 0
M  V30 11877 H 1108.35 -1.29471 -4.67399 0
M  V30 11878 H 1104.22 -0.0701964 -4.60947 0
M  V30 11879 H 1107.77 -3.1109 -6.24395 0
M  V30 11880 H 1103.67 -1.87813 -6.17573 0
M  V30 11881 H 1104.43 -3.58396 -7.35863 0
M  V30 11882 N 1107.1 1.56929 -0.145233 0
M  V30 11883 C 1108.51 1.82877 0.375884 0
M  V30 11884 C 1108.86 1.06384 1.64854 0
M  V30 11885 O 1107.98 0.30857 2.14189 0
M  V30 11886 C 1108.58 3.31725 0.688744 0
M  V30 11887 C 1107.14 3.58261 1.15439 0
M  V30 11888 C 1106.28 2.76737 0.176565 0
M  V30 11889 H 1109.24 1.54328 -0.36996 0
M  V30 11890 H 1109.26 3.47784 1.54359 0
M  V30 11891 H 1108.77 3.87371 -0.237694 0
M  V30 11892 H 1106.87 3.08 2.09683 0
M  V30 11893 H 1106.98 4.66732 1.08158 0
M  V30 11894 H 1105.35 2.45761 0.668843 0
M  V30 11895 H 1106.13 3.35154 -0.743432 0
M  V30 11896 N 1108.58 -0.128553 1.57075 0
M  V30 11897 C 1109.82 -0.834322 1.85501 0
M  V30 11898 C 1110.18 -1.77943 0.731725 0
M  V30 11899 O 1109.47 -1.89702 -0.269003 0
M  V30 11900 C 1109.66 -1.63027 3.18052 0
M  V30 11901 C 1109.49 -0.763737 4.43167 0
M  V30 11902 C 1108.26 -0.42224 5.03533 0
M  V30 11903 C 1110.46 -0.0856773 5.14229 0
M  V30 11904 N 1108.44 0.455954 6.12204 0
M  V30 11905 C 1109.81 0.651902 6.16563 0
M  V30 11906 C 1111.87 -0.00826404 4.97899 0
M  V30 11907 C 1110.57 1.45961 7.04335 0
M  V30 11908 C 1112.6 0.786239 5.8615 0
M  V30 11909 C 1111.96 1.51204 6.8798 0
M  V30 11910 H 1108.06 -0.282535 0.729176 0
M  V30 11911 H 1110.64 -0.0985924 1.9445 0
M  V30 11912 H 1108.81 -2.3371 3.10216 0
M  V30 11913 H 1110.55 -2.28063 3.34319 0
M  V30 11914 H 1107.3 -0.76229 4.67425 0
M  V30 11915 H 1107.72 0.886619 6.71169 0
M  V30 11916 H 1112.37 -0.555051 4.19141 0
M  V30 11917 H 1110.08 2.01759 7.82508 0
M  V30 11918 H 1113.67 0.848372 5.75581 0
M  V30 11919 H 1112.55 2.11694 7.55086 0
M  V30 11920 N 1110.05 -1.5248 -0.398459 0
M  V30 11921 C 1110.98 -1.79549 -1.49279 0
M  V30 11922 C 1111.96 -0.647004 -1.57315 0
M  V30 11923 O 1113.15 -0.893661 -1.72416 0
M  V30 11924 C 1110.28 -1.95582 -2.86993 0
M  V30 11925 C 1109.23 -3.1123 -2.93803 0
M  V30 11926 C 1108.56 -3.12501 -4.33874 0
M  V30 11927 C 1109.86 -4.50485 -2.64312 0
M  V30 11928 H 1111.55 -2.71187 -1.26877 0
M  V30 11929 H 1109.1 -1.30492 -0.608924 0
M  V30 11930 H 1111.05 -2.13102 -3.63546 0
M  V30 11931 H 1109.78 -1.00625 -3.10712 0
M  V30 11932 H 1108.44 -2.93477 -2.19697 0
M  V30 11933 H 1108.08 -2.15245 -4.54619 0
M  V30 11934 H 1107.78 -3.90183 -4.39353 0
M  V30 11935 H 1109.31 -3.32164 -5.12347 0
M  V30 11936 H 1110.72 -4.68387 -3.30585 0
M  V30 11937 H 1109.12 -5.30163 -2.81153 0
M  V30 11938 H 1110.19 -4.57848 -1.59696 0
M  V30 11939 N 1111.53 0.65634 -1.43283 0
M  V30 11940 C 1112.46 1.78101 -1.51004 0
M  V30 11941 C 1113.44 1.66138 -0.36498 0
M  V30 11942 O 1114.63 1.85281 -0.581778 0
M  V30 11943 C 1111.76 3.16511 -1.42961 0
M  V30 11944 C 1110.71 3.43233 -2.55685 0
M  V30 11945 C 1110.04 4.81411 -2.32696 0
M  V30 11946 C 1111.34 3.38288 -3.97943 0
M  V30 11947 H 1113.03 1.71896 -2.45137 0
M  V30 11948 H 1110.58 0.825575 -1.17984 0
M  V30 11949 H 1112.53 3.94941 -1.46968 0
M  V30 11950 H 1111.25 3.23439 -0.45332 0
M  V30 11951 H 1109.91 2.67173 -2.51026 0
M  V30 11952 H 1109.56 4.85011 -1.33317 0
M  V30 11953 H 1109.26 5.00251 -3.08257 0
M  V30 11954 H 1110.79 5.62102 -2.38481 0
M  V30 11955 H 1112.2 4.06659 -4.04106 0
M  V30 11956 H 1110.6 3.68664 -4.73505 0
M  V30 11957 H 1111.67 2.36525 -4.23301 0
M  V30 11958 N 1113.01 1.29761 0.894412 0
M  V30 11959 C 1114.26 1.17806 1.64214 0
M  V30 11960 C 1114.58 -0.269588 1.93127 0
M  V30 11961 O 1113.85 -1.18352 1.56107 0
M  V30 11962 H 1112.43 0.433002 0.608702 0
M  V30 11963 H 1115.09 1.6276 1.07216 0
M  V30 11964 H 1114.19 1.73201 2.5963 0
M  V30 11965 N 1114.49 -1.10549 1.12324 0
M  V30 11966 C 1115.73 -1.84108 0.887895 0
M  V30 11967 C 1116.09 -1.83159 -0.5759 0
M  V30 11968 O 1117.29 -2.52259 -0.928367 0
M  V30 11969 C 1115.56 -3.26866 1.44545 0
M  V30 11970 S 1117.12 -4.17567 1.34846 0
M  V30 11971 H 1113.94 -0.634752 0.320329 0
M  V30 11972 H 1116.54 -1.33036 1.43254 0
M  V30 11973 H 1115.25 -3.25126 2.50442 0
M  V30 11974 H 1114.78 -3.83008 0.89825 0
M  V30 11975 H 1116.79 -4.95173 0.319143 0
M  V30 11976 N 1115.97 -0.914965 -1.28321 0
M  V30 11977 C 1116.93 -0.409024 -2.25521 0
M  V30 11978 C 1117.93 0.465327 -1.5392 0
M  V30 11979 O 1119.12 0.26821 -1.72123 0
M  V30 11980 C 1116.25 0.413452 -3.38383 0
M  V30 11981 H 1117.44 -1.26767 -2.71791 0
M  V30 11982 H 1115 -0.694477 -1.40024 0
M  V30 11983 H 1115.73 1.29145 -2.97476 0
M  V30 11984 H 1115.52 -0.213268 -3.9152 0
M  V30 11985 H 1117.01 0.758232 -4.10659 0
M  V30 11986 N 1117.44 1.42219 -0.679077 0
M  V30 11987 C 1118.41 2.29197 -0.0125475 0
M  V30 11988 C 1119.41 1.43544 0.724691 0
M  V30 11989 O 1120.6 1.64884 0.562052 0
M  V30 11990 C 1117.73 3.26122 0.992846 0
M  V30 11991 H 1118.92 2.89629 -0.778154 0
M  V30 11992 H 1116.47 1.4993 -0.44166 0
M  V30 11993 H 1117.21 2.70637 1.78679 0
M  V30 11994 H 1116.99 3.89302 0.467544 0
M  V30 11995 H 1118.48 3.91339 1.45751 0
M  V30 11996 N 1118.92 0.422693 1.51826 0
M  V30 11997 C 1119.87 -0.41063 2.28947 0
M  V30 11998 C 1120.86 -1.03389 1.34191 0
M  V30 11999 O 1122.07 -0.970533 1.51594 0
M  V30 12000 H 1118.44 -0.151219 0.736639 0
M  V30 12001 H 1120.42 0.260859 2.97258 0
M  V30 12002 C 1119.16 -1.50758 3.13317 0
M  V30 12003 H 1118.49 -1.03734 3.86108 0
M  V30 12004 H 1119.93 -2.0642 3.7036 0
M  V30 12005 C 1118.39 -2.48261 2.27746 0
M  V30 12006 O 1118.92 -3.52462 1.92701 0
M  V30 12007 N 1117.12 -2.18795 1.91251 0
M  V30 12008 H 1116.67 -1.34088 2.1995 0
M  V30 12009 H 1116.63 -2.84276 1.34293 0
M  V30 12010 N 1120.4 -1.5685 0.153553 0
M  V30 12011 C 1121.65 -1.97404 -0.490227 0
M  V30 12012 C 1122 -1.03725 -1.62046 0
M  V30 12013 O 1121.29 -0.0735247 -1.91459 0
M  V30 12014 C 1121.49 -3.42022 -1.0371 0
M  V30 12015 C 1121.32 -4.49683 0.038616 0
M  V30 12016 C 1120.09 -5.02993 0.482267 0
M  V30 12017 C 1122.28 -5.07517 0.832507 0
M  V30 12018 N 1120.27 -5.94267 1.54014 0
M  V30 12019 C 1121.64 -5.95062 1.74072 0
M  V30 12020 C 1123.69 -4.90069 0.879566 0
M  V30 12021 C 1122.4 -6.67027 2.69198 0
M  V30 12022 C 1124.42 -5.62741 1.81868 0
M  V30 12023 C 1123.78 -6.5 2.71441 0
M  V30 12024 H 1119.88 -0.767866 -0.148005 0
M  V30 12025 H 1122.47 -1.93093 0.24967 0
M  V30 12026 H 1120.64 -3.46914 -1.74658 0
M  V30 12027 H 1122.37 -3.69624 -1.64804 0
M  V30 12028 H 1119.12 -4.73527 0.0832885 0
M  V30 12029 H 1119.55 -6.44608 2.06903 0
M  V30 12030 H 1124.19 -4.22321 0.201123 0
M  V30 12031 H 1121.91 -7.34 3.38039 0
M  V30 12032 H 1125.49 -5.51234 1.86098 0
M  V30 12033 H 1124.37 -7.05246 3.42926 0
M  V30 12034 N 1121.88 0.120221 -1.57141 0
M  V30 12035 C 1123.13 0.826791 -1.83976 0
M  V30 12036 C 1123.44 1.81102 -0.739014 0
M  V30 12037 O 1124.65 2.56368 -0.893736 0
M  V30 12038 C 1123.1 1.52108 -3.26176 0
M  V30 12039 C 1122.71 0.577902 -4.44257 0
M  V30 12040 C 1124.45 2.21286 -3.62261 0
M  V30 12041 C 1122.36 1.27535 -5.77485 0
M  V30 12042 H 1121.29 0.312508 -0.686189 0
M  V30 12043 H 1123.94 0.0795343 -1.83328 0
M  V30 12044 H 1122.32 2.31492 -3.2129 0
M  V30 12045 H 1123.5 -0.182629 -4.60438 0
M  V30 12046 H 1121.81 -0.00684348 -4.16399 0
M  V30 12047 H 1124.41 2.74154 -4.59068 0
M  V30 12048 H 1124.75 2.99029 -2.89634 0
M  V30 12049 H 1125.29 1.48791 -3.68925 0
M  V30 12050 H 1122.02 0.539237 -6.53278 0
M  V30 12051 H 1121.54 2.00792 -5.65192 0
M  V30 12052 H 1123.22 1.80888 -6.21199 0
M  V30 12053 N 1123.36 1.52689 0.390367 0
M  V30 12054 C 1124.29 1.80338 1.48325 0
M  V30 12055 C 1125.27 0.655338 1.56969 0
M  V30 12056 O 1126.45 0.902792 1.7194 0
M  V30 12057 C 1123.58 1.97101 2.85952 0
M  V30 12058 C 1122.54 3.12783 2.92148 0
M  V30 12059 C 1121.86 3.14798 4.32211 0
M  V30 12060 C 1123.16 4.5188 2.61919 0
M  V30 12061 H 1124.86 2.71857 1.25437 0
M  V30 12062 H 1122.4 1.30813 0.601995 0
M  V30 12063 H 1124.36 2.15027 3.62411 0
M  V30 12064 H 1123.08 1.02271 3.10174 0
M  V30 12065 H 1121.74 2.94638 2.18137 0
M  V30 12066 H 1121.39 2.17653 4.53471 0
M  V30 12067 H 1121.09 3.92507 4.37278 0
M  V30 12068 H 1122.61 3.34877 5.10578 0
M  V30 12069 H 1124.02 4.70134 3.28096 0
M  V30 12070 H 1122.42 5.31647 2.78337 0
M  V30 12071 H 1123.49 4.58689 1.57266 0
M  V30 12072 N 1124.83 -0.648732 1.43629 0
M  V30 12073 C 1126.25 -0.964917 1.27128 0
M  V30 12074 C 1126.45 -2.00561 0.194251 0
M  V30 12075 O 1125.51 -2.48884 -0.42581 0
M  V30 12076 C 1126.82 -1.44491 2.6371 0
M  V30 12077 C 1128.37 -1.56133 2.71278 0
M  V30 12078 C 1128.84 -2.07521 4.08288 0
M  V30 12079 N 1130.33 -2.14817 4.10375 0
M  V30 12080 C 1131.07 -2.55712 5.13224 0
M  V30 12081 N 1130.56 -2.9587 6.26444 0
M  V30 12082 N 1132.36 -2.55691 5.00578 0
M  V30 12083 H 1124.51 0.0398357 2.12363 0
M  V30 12084 H 1126.77 -0.0447705 0.946942 0
M  V30 12085 H 1126.48 -0.754616 3.43509 0
M  V30 12086 H 1126.35 -2.41914 2.89409 0
M  V30 12087 H 1128.74 -2.24263 1.91808 0
M  V30 12088 H 1128.82 -0.571314 2.49338 0
M  V30 12089 H 1128.46 -1.39992 4.88226 0
M  V30 12090 H 1128.39 -3.07362 4.27594 0
M  V30 12091 H 1130.88 -1.86538 3.28652 0
M  V30 12092 H 1131.2 -3.25837 7.0075 0
M  V30 12093 H 1129.54 -2.93664 6.2991 0
M  V30 12094 H 1132.73 -2.23697 4.1119 0
M  V30 12095 H 1132.91 -2.87239 5.80859 0
M  V30 12096 N 1126.31 -1.30234 -0.887518 0
M  V30 12097 C 1127.56 -1.18675 -1.63587 0
M  V30 12098 C 1127.88 0.259342 -1.93268 0
M  V30 12099 O 1127.15 1.17523 -1.56733 0
M  V30 12100 H 1125.73 -0.436224 -0.606397 0
M  V30 12101 H 1128.39 -1.63326 -1.06351 0
M  V30 12102 H 1127.49 -1.74575 -2.58708 0
M  V30 12103 N 1127.79 1.09952 -1.12909 0
M  V30 12104 C 1129.02 1.8579 -0.910483 0
M  V30 12105 C 1129.43 1.80898 0.540484 0
M  V30 12106 O 1128.79 1.20126 1.3739 0
M  V30 12107 C 1128.84 3.33987 -1.38329 0
M  V30 12108 O 1128.56 3.38811 -2.77739 0
M  V30 12109 C 1130.06 4.26683 -1.20234 0
M  V30 12110 H 1127.28 0.587026 -0.325025 0
M  V30 12111 H 1129.83 1.38965 -1.5003 0
M  V30 12112 H 1127.98 3.78259 -0.836592 0
M  V30 12113 H 1128.4 4.31204 -2.98603 0
M  V30 12114 H 1129.87 5.28846 -1.58197 0
M  V30 12115 H 1130.35 4.38966 -0.14344 0
M  V30 12116 H 1130.95 3.88221 -1.73679 0
M  V30 12117 N 1129.27 0.921757 1.27833 0
M  V30 12118 C 1130.49 0.574599 1.99281 0
M  V30 12119 C 1130.92 -0.838905 1.68357 0
M  V30 12120 O 1130.28 -1.56196 0.920468 0
M  V30 12121 C 1130.32 0.800027 3.51613 0
M  V30 12122 O 1129.43 -0.137215 4.12172 0
M  V30 12123 H 1128.77 0.221887 0.625829 0
M  V30 12124 H 1131.3 1.23939 1.62789 0
M  V30 12125 H 1131.31 0.71326 4.01717 0
M  V30 12126 H 1129.98 1.83042 3.73455 0
M  V30 12127 H 1128.56 -0.00103872 3.729 0
M  V30 12128 N 1130.75 -1.41857 0.686609 0
M  V30 12129 C 1131.99 -2.01368 0.213801 0
M  V30 12130 C 1132.32 -1.5434 -1.18361 0
M  V30 12131 O 1131.58 -0.741447 -1.81111 0
M  V30 12132 C 1131.88 -3.56783 0.209951 0
M  V30 12133 C 1131.54 -4.23288 1.55365 0
M  V30 12134 C 1130.2 -4.41169 1.92154 0
M  V30 12135 C 1132.56 -4.6066 2.43807 0
M  V30 12136 C 1129.88 -4.93697 3.16986 0
M  V30 12137 C 1132.24 -5.14573 3.67963 0
M  V30 12138 C 1130.9 -5.30667 4.04906 0
M  V30 12139 H 1130.17 -0.736858 0.0782352 0
M  V30 12140 H 1132.82 -1.69879 0.88393 0
M  V30 12141 H 1131.12 -3.88009 -0.543712 0
M  V30 12142 H 1132.82 -4.00625 -0.173267 0
M  V30 12143 H 1129.41 -4.09738 1.2575 0
M  V30 12144 H 1133.59 -4.46507 2.16668 0
M  V30 12145 H 1128.85 -5.04342 3.45615 0
M  V30 12146 H 1133.02 -5.42473 4.36687 0
M  V30 12147 H 1130.65 -5.71133 5.01709 0
M  V30 12148 N 1132.22 -0.430739 -1.51599 0
M  V30 12149 C 1133.47 0.138133 -2.02329 0
M  V30 12150 C 1133.8 1.42934 -1.31466 0
M  V30 12151 O 1133.08 1.89743 -0.427551 0
M  V30 12152 C 1133.36 0.363677 -3.58259 0
M  V30 12153 C 1133.21 -0.94572 -4.39746 0
M  V30 12154 C 1134.53 1.13637 -4.25176 0
M  V30 12155 H 1131.65 0.0487287 -0.735387 0
M  V30 12156 H 1134.29 -0.568444 -1.81297 0
M  V30 12157 H 1132.44 0.965552 -3.7631 0
M  V30 12158 H 1134.12 -1.58107 -4.33359 0
M  V30 12159 H 1132.36 -1.55183 -4.05094 0
M  V30 12160 H 1133.03 -0.742031 -5.4699 0
M  V30 12161 H 1135.51 0.626608 -4.11355 0
M  V30 12162 H 1134.38 1.26294 -5.34173 0
M  V30 12163 H 1134.64 2.16273 -3.85588 0
M  V30 12164 N 1133.7 1.56767 -0.161869 0
M  V30 12165 C 1134.93 2.00673 0.491314 0
M  V30 12166 C 1135.34 1.04111 1.5798 0
M  V30 12167 O 1134.68 0.0324889 1.83671 0
M  V30 12168 C 1134.75 3.41011 1.13806 0
M  V30 12169 C 1134.41 4.56595 0.192384 0
M  V30 12170 C 1135.41 5.16591 -0.585671 0
M  V30 12171 C 1133.09 5.02218 0.0909594 0
M  V30 12172 C 1135.09 6.20631 -1.45245 0
M  V30 12173 C 1132.77 6.06109 -0.77941 0
M  V30 12174 C 1133.77 6.65187 -1.54971 0
M  V30 12175 O 1133.46 7.67065 -2.40555 0
M  V30 12176 H 1133.19 0.663174 0.131059 0
M  V30 12177 H 1135.74 2.03775 -0.257896 0
M  V30 12178 H 1133.97 3.34793 1.93521 0
M  V30 12179 H 1135.66 3.68931 1.69248 0
M  V30 12180 H 1136.43 4.82232 -0.517432 0
M  V30 12181 H 1132.31 4.55953 0.680292 0
M  V30 12182 H 1135.85 6.66671 -2.05415 0
M  V30 12183 H 1131.75 6.39894 -0.848887 0
M  V30 12184 H 1132.52 7.84348 -2.33966 0
M  V30 12185 N 1135.18 -0.111886 1.57202 0
M  V30 12186 C 1136.43 -0.819623 1.85499 0
M  V30 12187 C 1136.76 -1.7919 0.748629 0
M  V30 12188 O 1136.03 -1.92952 -0.244918 0
M  V30 12189 C 1136.32 -1.56324 3.24399 0
M  V30 12190 C 1136.17 -0.610081 4.45643 0
M  V30 12191 C 1137.49 -2.51777 3.60966 0
M  V30 12192 H 1134.61 -0.296512 0.674722 0
M  V30 12193 H 1137.25 -0.0836741 1.89816 0
M  V30 12194 H 1135.4 -2.1906 3.2085 0
M  V30 12195 H 1137.07 0.00898038 4.61299 0
M  V30 12196 H 1135.32 0.0778488 4.3373 0
M  V30 12197 H 1135.99 -1.16718 5.39519 0
M  V30 12198 H 1138.46 -1.99143 3.65351 0
M  V30 12199 H 1137.34 -3.00835 4.59118 0
M  V30 12200 H 1137.6 -3.34769 2.8876 0
M  V30 12201 N 1136.66 -1.52894 -0.382264 0
M  V30 12202 C 1138.07 -1.60135 -0.959887 0
M  V30 12203 C 1138.42 -0.458363 -1.90771 0
M  V30 12204 O 1137.55 0.417614 -2.12332 0
M  V30 12205 C 1138.14 -2.90243 -1.74769 0
M  V30 12206 C 1136.7 -2.99874 -2.27491 0
M  V30 12207 C 1135.85 -2.55302 -1.0824 0
M  V30 12208 H 1138.8 -1.57875 -0.161589 0
M  V30 12209 H 1138.82 -2.77108 -2.60751 0
M  V30 12210 H 1138.33 -3.73412 -1.0576 0
M  V30 12211 H 1136.43 -2.21258 -2.99793 0
M  V30 12212 H 1136.54 -4.04643 -2.56516 0
M  V30 12213 H 1134.91 -2.09781 -1.44444 0
M  V30 12214 H 1135.69 -3.40872 -0.407553 0
M  V30 12215 N 1138.14 0.641106 -1.43971 0
M  V30 12216 C 1139.36 1.43324 -1.4991 0
M  V30 12217 C 1139.79 1.87705 -0.121908 0
M  V30 12218 O 1139.15 1.58127 0.886875 0
M  V30 12219 C 1139.19 2.63637 -2.46025 0
M  V30 12220 O 1138.3 3.63123 -1.95488 0
M  V30 12221 H 1137.64 0.429252 -0.506595 0
M  V30 12222 H 1140.17 0.783427 -1.89007 0
M  V30 12223 H 1140.18 3.11304 -2.63731 0
M  V30 12224 H 1138.85 2.30678 -3.46064 0
M  V30 12225 H 1137.43 3.22332 -1.87501 0
M  V30 12226 N 1139.62 1.30703 0.880598 0
M  V30 12227 C 1140.58 1.17429 1.96832 0
M  V30 12228 C 1141.58 0.104305 1.60461 0
M  V30 12229 O 1142.77 0.352758 1.70591 0
M  V30 12230 C 1139.9 0.800099 3.31378 0
M  V30 12231 H 1141.09 2.14069 2.10034 0
M  V30 12232 H 1138.65 1.14162 1.06755 0
M  V30 12233 H 1139.38 -0.165606 3.23877 0
M  V30 12234 H 1139.17 1.57341 3.59146 0
M  V30 12235 H 1140.66 0.730826 4.11155 0
M  V30 12236 N 1141.09 -1.09351 1.1349 0
M  V30 12237 C 1142.02 -2.18037 0.835588 0
M  V30 12238 C 1143 -1.68856 -0.205373 0
M  V30 12239 O 1144.19 -1.94094 -0.0641357 0
M  V30 12240 C 1141.32 -3.45987 0.301661 0
M  V30 12241 C 1140.27 -4.08507 1.27696 0
M  V30 12242 C 1139.6 -5.31292 0.602758 0
M  V30 12243 C 1140.9 -4.50916 2.63575 0
M  V30 12244 H 1142.59 -2.43332 1.74441 0
M  V30 12245 H 1140.14 -1.1695 0.840166 0
M  V30 12246 H 1142.09 -4.21324 0.079928 0
M  V30 12247 H 1140.82 -3.20217 -0.642552 0
M  V30 12248 H 1139.48 -3.3519 1.4847 0
M  V30 12249 H 1139.12 -5.01802 -0.346953 0
M  V30 12250 H 1138.82 -5.74075 1.25345 0
M  V30 12251 H 1140.35 -6.09351 0.390325 0
M  V30 12252 H 1141.76 -5.17474 2.46765 0
M  V30 12253 H 1140.16 -5.04586 3.24827 0
M  V30 12254 H 1141.23 -3.63279 3.2118 0
M  V30 12255 N 1142.57 -0.928524 -1.27343 0
M  V30 12256 C 1143.52 -0.418768 -2.28799 0
M  V30 12257 C 1144.51 0.497334 -1.61935 0
M  V30 12258 O 1145.72 0.376945 -1.76009 0
M  V30 12259 H 1142.09 -0.116855 -0.742865 0
M  V30 12260 H 1144.07 -1.28725 -2.69207 0
M  V30 12261 C 1142.81 0.312422 -3.46294 0
M  V30 12262 H 1142.14 -0.383317 -3.97958 0
M  V30 12263 H 1143.58 0.633514 -4.19241 0
M  V30 12264 C 1142.04 1.5257 -3.00373 0
M  V30 12265 O 1142.57 2.62443 -3.04116 0
M  V30 12266 N 1140.77 1.37782 -2.5586 0
M  V30 12267 H 1140.32 0.483908 -2.53014 0
M  V30 12268 H 1140.28 2.19085 -2.25498 0
M  V30 12269 N 1144.05 1.41491 -0.694123 0
M  V30 12270 C 1145.46 1.84283 -0.299439 0
M  V30 12271 C 1145.81 1.58081 1.16211 0
M  V30 12272 O 1144.94 1.05051 1.89191 0
M  V30 12273 C 1145.53 3.34522 -0.536696 0
M  V30 12274 C 1144.09 3.7589 -0.195944 0
M  V30 12275 C 1143.24 2.64908 -0.819692 0
M  V30 12276 H 1146.19 1.31063 -0.894884 0
M  V30 12277 H 1146.21 3.79947 0.205062 0
M  V30 12278 H 1145.72 3.53561 -1.6005 0
M  V30 12279 H 1143.82 3.62452 0.863655 0
M  V30 12280 H 1143.94 4.74671 -0.649954 0
M  V30 12281 H 1142.3 2.53476 -0.249412 0
M  V30 12282 H 1143.08 2.86765 -1.88734 0
M  V30 12283 N 1145.53 0.438773 1.51369 0
M  V30 12284 C 1146.49 -0.36032 2.2635 0
M  V30 12285 C 1147.49 -0.948465 1.29849 0
M  V30 12286 O 1148.68 -0.822692 1.53549 0
M  V30 12287 C 1145.81 -1.50994 3.05636 0
M  V30 12288 H 1147.01 0.296826 2.98427 0
M  V30 12289 H 1144.56 0.191978 1.55117 0
M  V30 12290 H 1145.29 -2.2031 2.37979 0
M  V30 12291 H 1145.08 -1.09437 3.76518 0
M  V30 12292 H 1146.57 -2.07447 3.6243 0
M  V30 12293 N 1147.01 -1.56678 0.170181 0
M  V30 12294 C 1148.28 -1.88524 -0.521362 0
M  V30 12295 C 1148.66 -1.07989 -1.81388 0
M  V30 12296 O 1148.01 -0.17347 -2.27841 0
M  V30 12297 C 1148.22 -3.40527 -0.764367 0
M  V30 12298 C 1149.57 -4.10241 -1.09487 0
M  V30 12299 O 1150.59 -3.45837 -0.852945 0
M  V30 12300 O 1149.45 -5.24022 -1.55124 0
M  V30 12301 H 1146.55 -0.782161 -0.268614 0
M  V30 12302 H 1149.09 -1.68414 0.208531 0
M  V30 12303 H 1147.86 -3.91015 0.149416 0
M  V30 12304 H 1147.49 -3.66244 -1.54762 0
M  V30 12305 N 1148.48 0.103547 -1.57259 0
M  V30 12306 C 1149.76 0.839768 -1.76656 0
M  V30 12307 C 1150.14 1.9734 -0.749666 0
M  V30 12308 O 1149.49 2.27405 0.223466 0
M  V30 12309 C 1149.7 1.34218 -3.22159 0
M  V30 12310 C 1151.05 1.78835 -3.85102 0
M  V30 12311 O 1152.07 1.43861 -3.25857 0
M  V30 12312 O 1150.93 2.43474 -4.89267 0
M  V30 12313 H 1148.02 0.399928 -0.723869 0
M  V30 12314 H 1150.57 0.0860857 -1.69482 0
M  V30 12315 H 1149.34 0.52956 -3.877 0
M  V30 12316 H 1148.96 2.15811 -3.33933 0
M  V30 12317 N 1149.96 1.53094 0.37415 0
M  V30 12318 C 1151.37 1.60641 0.951381 0
M  V30 12319 C 1151.72 0.468474 1.90525 0
M  V30 12320 O 1150.85 -0.406347 2.12551 0
M  V30 12321 C 1151.44 2.91166 1.73228 0
M  V30 12322 C 1150 3.01077 2.25898 0
M  V30 12323 C 1149.15 2.55873 1.06885 0
M  V30 12324 H 1152.1 1.57959 0.153214 0
M  V30 12325 H 1152.12 2.78487 2.59278 0
M  V30 12326 H 1151.63 3.73968 1.03778 0
M  V30 12327 H 1149.73 2.22844 2.98615 0
M  V30 12328 H 1149.85 4.05998 2.54367 0
M  V30 12329 H 1148.21 2.10544 1.43329 0
M  V30 12330 H 1148.99 3.41084 0.38947 0
M  V30 12331 N 1151.44 -0.633461 1.44309 0
M  V30 12332 C 1152.66 -1.42527 1.50668 0
M  V30 12333 C 1153.09 -1.87637 0.131861 0
M  V30 12334 O 1152.45 -1.58595 -0.878477 0
M  V30 12335 C 1152.5 -2.62328 2.47419 0
M  V30 12336 O 1151.6 -3.62081 1.97411 0
M  V30 12337 H 1150.94 -0.426559 0.508864 0
M  V30 12338 H 1153.47 -0.773392 1.8942 0
M  V30 12339 H 1153.48 -3.09901 2.65378 0
M  V30 12340 H 1152.16 -2.2884 3.47283 0
M  V30 12341 H 1150.73 -3.21333 1.89208 0
M  V30 12342 N 1152.92 -1.31168 -0.873655 0
M  V30 12343 C 1154.33 -1.09745 -1.1588 0
M  V30 12344 C 1154.53 0.134471 -2.01051 0
M  V30 12345 O 1153.59 0.824857 -2.38647 0
M  V30 12346 C 1154.9 -2.36704 -1.85451 0
M  V30 12347 C 1156.45 -2.42278 -1.98167 0
M  V30 12348 C 1156.93 -3.69108 -2.71152 0
M  V30 12349 N 1158.42 -3.69981 -2.7869 0
M  V30 12350 C 1159.15 -4.64811 -3.35765 0
M  V30 12351 N 1158.65 -5.69995 -3.938 0
M  V30 12352 N 1160.44 -4.52337 -3.33688 0
M  V30 12353 H 1152.59 -2.10184 -0.306021 0
M  V30 12354 H 1154.86 -0.927058 -0.198159 0
M  V30 12355 H 1154.56 -3.26666 -1.30316 0
M  V30 12356 H 1154.44 -2.46219 -2.85755 0
M  V30 12357 H 1156.82 -1.52787 -2.52468 0
M  V30 12358 H 1156.9 -2.3673 -0.969164 0
M  V30 12359 H 1156.55 -4.58963 -2.1752 0
M  V30 12360 H 1156.48 -3.71922 -3.72803 0
M  V30 12361 H 1158.97 -2.93944 -2.37498 0
M  V30 12362 H 1159.28 -6.38438 -4.3545 0
M  V30 12363 H 1157.63 -5.73773 -3.92186 0
M  V30 12364 H 1160.82 -3.69341 -2.87584 0
M  V30 12365 H 1160.99 -5.2642 -3.77871 0
M  V30 12366 N 1154.4 1.08748 -1.14068 0
M  V30 12367 C 1155.64 1.80707 -0.904947 0
M  V30 12368 C 1155.97 1.86478 0.570167 0
M  V30 12369 O 1155.24 1.35536 1.41445 0
M  V30 12370 H 1153.82 0.669261 -0.331811 0
M  V30 12371 H 1156.48 1.31494 -1.43859 0
M  V30 12372 H 1155.57 2.83653 -1.30182 0
M  V30 12373 N 1155.87 0.935264 1.26849 0
M  V30 12374 C 1157.29 0.636661 1.46352 0
M  V30 12375 C 1157.49 -0.811823 1.84423 0
M  V30 12376 O 1156.55 -1.58902 1.9623 0
M  V30 12377 C 1157.86 1.59301 2.55036 0
M  V30 12378 C 1159.41 1.60207 2.68892 0
M  V30 12379 C 1159.88 2.54558 3.80742 0
M  V30 12380 N 1161.37 2.52809 3.88126 0
M  V30 12381 C 1162.11 3.225 4.74111 0
M  V30 12382 N 1161.6 4.01598 5.64527 0
M  V30 12383 N 1163.4 3.11481 4.67906 0
M  V30 12384 H 1155.55 1.8716 1.00423 0
M  V30 12385 H 1157.81 0.803968 0.502334 0
M  V30 12386 H 1157.52 2.62671 2.33874 0
M  V30 12387 H 1157.39 1.34052 3.52576 0
M  V30 12388 H 1159.78 0.575649 2.89431 0
M  V30 12389 H 1159.86 1.89508 1.71815 0
M  V30 12390 H 1159.5 3.57314 3.60956 0
M  V30 12391 H 1159.43 2.22549 4.77263 0
M  V30 12392 H 1161.92 1.9537 3.2348 0
M  V30 12393 H 1162.24 4.51742 6.27016 0
M  V30 12394 H 1160.58 4.057 5.64298 0
M  V30 12395 H 1163.77 2.49175 3.9627 0
M  V30 12396 H 1163.95 3.66064 5.34697 0
M  V30 12397 N 1157.35 -1.41121 0.701616 0
M  V30 12398 C 1158.28 -2.33436 0.0545974 0
M  V30 12399 C 1159.26 -1.52144 -0.760662 0
M  V30 12400 O 1160.45 -1.80661 -0.712414 0
M  V30 12401 C 1157.58 -3.36015 -0.878117 0
M  V30 12402 C 1156.53 -4.27664 -0.169511 0
M  V30 12403 C 1155.86 -5.20666 -1.21699 0
M  V30 12404 C 1157.16 -5.13254 0.967859 0
M  V30 12405 H 1158.85 -2.87791 0.825637 0
M  V30 12406 H 1156.4 -1.38377 0.398484 0
M  V30 12407 H 1158.35 -3.99526 -1.34004 0
M  V30 12408 H 1157.08 -2.80024 -1.68089 0
M  V30 12409 H 1155.73 -3.65586 0.272441 0
M  V30 12410 H 1155.38 -4.60987 -2.01246 0
M  V30 12411 H 1155.08 -5.82822 -0.747836 0
M  V30 12412 H 1156.61 -5.87053 -1.6793 0
M  V30 12413 H 1158.02 -5.70298 0.585944 0
M  V30 12414 H 1156.42 -5.84381 1.3645 0
M  V30 12415 H 1157.49 -4.5006 1.80483 0
M  V30 12416 N 1158.83 -0.446794 -1.51134 0
M  V30 12417 C 1160.08 0.116263 -2.01765 0
M  V30 12418 C 1160.4 1.42382 -1.33238 0
M  V30 12419 O 1159.67 1.9018 -0.469915 0
M  V30 12420 H 1158.25 0.0459558 -0.745585 0
M  V30 12421 H 1160.91 -0.591664 -1.85702 0
M  V30 12422 H 1160.01 0.285358 -3.10793 0
M  V30 12423 N 1160.31 1.56586 -0.178487 0
M  V30 12424 C 1161.24 2.21313 0.744486 0
M  V30 12425 C 1162.22 1.17098 1.23377 0
M  V30 12426 O 1163.4 1.45551 1.28563 0
M  V30 12427 C 1160.53 2.8595 1.97103 0
M  V30 12428 C 1159.49 3.96266 1.61732 0
M  V30 12429 C 1158.81 4.47987 2.91911 0
M  V30 12430 C 1160.11 5.15503 0.839868 0
M  V30 12431 H 1161.81 2.98698 0.204938 0
M  V30 12432 H 1159.35 1.43672 0.0971306 0
M  V30 12433 H 1161.31 3.29909 2.6218 0
M  V30 12434 H 1160.03 2.05946 2.53484 0
M  V30 12435 H 1158.69 3.52974 0.990208 0
M  V30 12436 H 1158.34 3.64765 3.46346 0
M  V30 12437 H 1158.04 5.22413 2.68995 0
M  V30 12438 H 1159.56 4.94637 3.58004 0
M  V30 12439 H 1160.98 5.5611 1.39337 0
M  V30 12440 H 1159.37 5.95891 0.709473 0
M  V30 12441 H 1160.44 4.84628 -0.162396 0
M  V30 12442 N 1161.79 -0.095206 1.57312 0
M  V30 12443 C 1163.01 -0.81614 1.90667 0
M  V30 12444 C 1163.44 -1.71494 0.772746 0
M  V30 12445 O 1162.79 -1.79192 -0.275682 0
M  V30 12446 C 1162.84 -1.60555 3.22885 0
M  V30 12447 O 1161.95 -2.71448 3.10467 0
M  V30 12448 H 1161.29 -0.224217 0.624998 0
M  V30 12449 H 1163.82 -0.070464 2.04479 0
M  V30 12450 H 1163.83 -1.98979 3.5619 0
M  V30 12451 H 1162.5 -0.945918 4.05 0
M  V30 12452 H 1161.08 -2.36053 2.88675 0
M  V30 12453 N 1163.26 -1.53291 -0.366026 0
M  V30 12454 C 1164.68 -1.43053 -0.707669 0
M  V30 12455 C 1164.88 -0.56925 -1.93292 0
M  V30 12456 O 1163.94 -0.0515214 -2.52447 0
M  V30 12457 C 1165.25 -2.86239 -0.921292 0
M  V30 12458 C 1166.8 -2.95868 -1.02133 0
M  V30 12459 C 1167.27 -4.40114 -1.26743 0
M  V30 12460 N 1168.76 -4.43541 -1.33514 0
M  V30 12461 C 1169.5 -5.52259 -1.54264 0
M  V30 12462 N 1168.99 -6.71024 -1.72335 0
M  V30 12463 N 1170.79 -5.39836 -1.5663 0
M  V30 12464 H 1162.94 -2.07795 0.43988 0
M  V30 12465 H 1165.2 -0.938376 0.134736 0
M  V30 12466 H 1164.91 -3.51578 -0.0928042 0
M  V30 12467 H 1164.78 -3.29862 -1.82951 0
M  V30 12468 H 1167.17 -2.30683 -1.84036 0
M  V30 12469 H 1167.25 -2.5564 -0.0905097 0
M  V30 12470 H 1166.89 -5.05872 -0.453409 0
M  V30 12471 H 1166.82 -4.77914 -2.21146 0
M  V30 12472 H 1169.31 -3.57949 -1.21165 0
M  V30 12473 H 1169.63 -7.49649 -1.8774 0
M  V30 12474 H 1167.97 -6.7401 -1.69514 0
M  V30 12475 H 1171.16 -4.46017 -1.4208 0
M  V30 12476 H 1171.34 -6.24629 -1.72461 0
M  V30 12477 N 1164.74 0.6258 -1.44643 0
M  V30 12478 C 1166.15 1.20751 -1.42394 0
M  V30 12479 C 1166.5 1.95685 -0.142047 0
M  V30 12480 O 1165.63 2.02715 0.757332 0
M  V30 12481 C 1166.22 2.1964 -2.57961 0
M  V30 12482 C 1164.78 2.73227 -2.5889 0
M  V30 12483 C 1163.93 1.48315 -2.34303 0
M  V30 12484 H 1166.88 0.416162 -1.53146 0
M  V30 12485 H 1166.9 3.02342 -2.31019 0
M  V30 12486 H 1166.41 1.65073 -3.51244 0
M  V30 12487 H 1164.52 3.31782 -1.69563 0
M  V30 12488 H 1164.63 3.18902 -3.57545 0
M  V30 12489 H 1162.99 1.76634 -1.83501 0
M  V30 12490 H 1163.78 0.956427 -3.29708 0
M  V30 12491 N 1166.22 1.31629 0.866686 0
M  V30 12492 C 1167.15 1.22151 1.99001 0
M  V30 12493 C 1168.13 0.107972 1.69757 0
M  V30 12494 O 1169.32 0.293125 1.91975 0
M  V30 12495 C 1166.45 0.93144 3.34577 0
M  V30 12496 C 1165.4 2.0049 3.78137 0
M  V30 12497 C 1164.73 1.56747 5.11209 0
M  V30 12498 C 1166.03 3.41844 3.94892 0
M  V30 12499 H 1167.72 2.16132 2.0719 0
M  V30 12500 H 1165.27 1.04051 0.995463 0
M  V30 12501 H 1167.22 0.851719 4.12703 0
M  V30 12502 H 1165.94 -0.0440289 3.2657 0
M  V30 12503 H 1164.6 2.07457 3.02253 0
M  V30 12504 H 1164.25 0.579767 4.99648 0
M  V30 12505 H 1163.95 2.28562 5.41326 0
M  V30 12506 H 1165.47 1.50188 5.91841 0
M  V30 12507 H 1166.89 3.37534 4.63405 0
M  V30 12508 H 1165.29 4.11905 4.36411 0
M  V30 12509 H 1166.36 3.82389 2.98172 0
M  V30 12510 N 1167.7 -1.08142 1.14644 0
M  V30 12511 C 1168.63 -2.17139 0.858667 0
M  V30 12512 C 1169.61 -1.69064 -0.187452 0
M  V30 12513 O 1170.8 -1.94151 -0.0435458 0
M  V30 12514 C 1167.93 -3.45648 0.33834 0
M  V30 12515 C 1166.88 -4.07129 1.32021 0
M  V30 12516 C 1166.21 -5.30623 0.659075 0
M  V30 12517 C 1167.51 -4.48095 2.68343 0
M  V30 12518 H 1169.2 -2.41468 1.77012 0
M  V30 12519 H 1166.75 -1.16052 0.852523 0
M  V30 12520 H 1168.7 -4.21216 0.124611 0
M  V30 12521 H 1167.42 -3.2088 -0.608553 0
M  V30 12522 H 1166.08 -3.33596 1.52016 0
M  V30 12523 H 1165.73 -5.02142 -0.293711 0
M  V30 12524 H 1165.43 -5.72714 1.31427 0
M  V30 12525 H 1166.95 -6.08903 0.454933 0
M  V30 12526 H 1168.37 -5.14828 2.5224 0
M  V30 12527 H 1166.76 -5.01113 3.30161 0
M  V30 12528 H 1167.83 -3.59852 3.25015 0
M  V30 12529 N 1169.18 -0.941978 -1.26351 0
M  V30 12530 C 1170.59 -0.644413 -1.46012 0
M  V30 12531 C 1170.79 0.802031 -1.84851 0
M  V30 12532 O 1169.85 1.57859 -1.9707 0
M  V30 12533 C 1171.16 -1.60652 -2.54188 0
M  V30 12534 C 1172.71 -1.6163 -2.68038 0
M  V30 12535 C 1173.19 -2.56573 -3.79387 0
M  V30 12536 N 1174.68 -2.54863 -3.8678 0
M  V30 12537 C 1175.41 -3.2501 -4.72394 0
M  V30 12538 N 1174.91 -4.04586 -5.6239 0
M  V30 12539 N 1176.7 -3.13958 -4.66247 0
M  V30 12540 H 1168.85 -1.8769 -0.994293 0
M  V30 12541 H 1171.11 -0.806621 -0.498063 0
M  V30 12542 H 1170.82 -2.63907 -2.32478 0
M  V30 12543 H 1170.69 -1.3592 -3.5186 0
M  V30 12544 H 1173.08 -0.59099 -2.89122 0
M  V30 12545 H 1173.16 -1.90417 -1.70807 0
M  V30 12546 H 1172.81 -3.59223 -3.59056 0
M  V30 12547 H 1172.74 -2.25077 -4.76076 0
M  V30 12548 H 1175.23 -1.97082 -3.22439 0
M  V30 12549 H 1175.54 -4.55061 -6.24612 0
M  V30 12550 H 1173.89 -4.08687 -5.62139 0
M  V30 12551 H 1177.08 -2.51273 -3.94943 0
M  V30 12552 H 1177.25 -3.68894 -5.32749 0
M  V30 12553 N 1170.66 1.40747 -0.709091 0
M  V30 12554 C 1171.59 2.33404 -0.0669763 0
M  V30 12555 C 1172.57 1.52546 0.752582 0
M  V30 12556 O 1173.75 1.81036 0.702823 0
M  V30 12557 C 1170.88 3.36476 0.860285 0
M  V30 12558 C 1169.84 4.27748 0.146828 0
M  V30 12559 C 1169.16 5.21304 1.18937 0
M  V30 12560 C 1170.46 5.12734 -0.995064 0
M  V30 12561 H 1172.16 2.87349 -0.840888 0
M  V30 12562 H 1169.7 1.38163 -0.405817 0
M  V30 12563 H 1171.65 4.00231 1.31883 0
M  V30 12564 H 1170.38 2.80912 1.66602 0
M  V30 12565 H 1169.04 3.65437 -0.291826 0
M  V30 12566 H 1168.69 4.62048 1.98798 0
M  V30 12567 H 1168.39 5.8321 0.716917 0
M  V30 12568 H 1169.91 5.87936 1.64815 0
M  V30 12569 H 1171.32 5.69979 -0.61618 0
M  V30 12570 H 1169.72 5.83649 -1.39547 0
M  V30 12571 H 1170.79 4.49097 -1.82867 0
M  V30 12572 N 1172.13 0.454803 1.50895 0
M  V30 12573 C 1173.54 -0.00421212 1.867 0
M  V30 12574 C 1173.9 -1.4037 1.3708 0
M  V30 12575 O 1173.02 -2.03755 0.728884 0
M  V30 12576 C 1173.62 -0.0144196 3.38797 0
M  V30 12577 C 1172.17 -0.417905 3.74073 0
M  V30 12578 C 1171.32 0.37801 2.74711 0
M  V30 12579 H 1174.27 0.669849 1.4387 0
M  V30 12580 H 1174.29 -0.820172 3.71555 0
M  V30 12581 H 1173.81 1.00427 3.74881 0
M  V30 12582 H 1171.91 -1.44155 3.43584 0
M  V30 12583 H 1172.02 -0.130568 4.78922 0
M  V30 12584 H 1170.38 -0.166089 2.54158 0
M  V30 12585 H 1171.17 1.3959 3.13639 0
M  V30 12586 N 1173.61 -1.56489 0.186789 0
M  V30 12587 C 1174.86 -1.97341 -0.454158 0
M  V30 12588 C 1175.19 -1.07337 -1.622 0
M  V30 12589 O 1174.44 -0.1107 -1.95387 0
M  V30 12590 C 1174.74 -3.44145 -0.964315 0
M  V30 12591 C 1174.41 -4.50812 0.0892734 0
M  V30 12592 C 1173.07 -4.79707 0.378794 0
M  V30 12593 C 1175.42 -5.14968 0.8036 0
M  V30 12594 C 1172.75 -5.70051 1.38776 0
M  V30 12595 C 1175.1 -6.06402 1.80166 0
M  V30 12596 C 1173.76 -6.33657 2.09847 0
M  V30 12597 H 1173.03 -0.722124 -0.166188 0
M  V30 12598 H 1175.68 -1.89412 0.282008 0
M  V30 12599 H 1173.99 -3.49103 -1.7786 0
M  V30 12600 H 1175.68 -3.73104 -1.4695 0
M  V30 12601 H 1172.27 -4.28349 -0.146552 0
M  V30 12602 H 1176.46 -4.92743 0.593147 0
M  V30 12603 H 1171.71 -5.89445 1.62373 0
M  V30 12604 H 1175.89 -6.55176 2.36045 0
M  V30 12605 H 1173.51 -7.03462 2.88175 0
M  V30 12606 N 1175.09 0.086862 -1.5736 0
M  V30 12607 C 1176.51 0.441284 -1.53378 0
M  V30 12608 C 1176.71 1.80046 -0.904748 0
M  V30 12609 O 1175.76 2.47484 -0.500781 0
M  V30 12610 C 1177.07 0.3962 -2.98078 0
M  V30 12611 C 1178.62 0.477468 -3.09337 0
M  V30 12612 C 1179.1 0.462448 -4.55659 0
M  V30 12613 N 1180.59 0.522963 -4.60238 0
M  V30 12614 C 1181.32 0.533313 -5.70914 0
M  V30 12615 N 1180.82 0.499376 -6.90998 0
M  V30 12616 N 1182.61 0.578742 -5.59113 0
M  V30 12617 H 1174.76 -0.803308 -1.96623 0
M  V30 12618 H 1177.03 -0.299879 -0.89932 0
M  V30 12619 H 1176.73 -0.535505 -3.47599 0
M  V30 12620 H 1176.61 1.21209 -3.57195 0
M  V30 12621 H 1178.99 1.39959 -2.59799 0
M  V30 12622 H 1179.07 -0.366717 -2.53158 0
M  V30 12623 H 1178.72 -0.455768 -5.05851 0
M  V30 12624 H 1178.65 1.32396 -5.09685 0
M  V30 12625 H 1181.14 0.554051 -3.73816 0
M  V30 12626 H 1181.45 0.510784 -7.7111 0
M  V30 12627 H 1179.8 0.466296 -6.93434 0
M  V30 12628 H 1182.99 0.602841 -4.64202 0
M  V30 12629 H 1183.16 0.583339 -6.45369 0
M  V30 12630 N 1176.57 1.53483 0.357892 0
M  V30 12631 C 1177.98 1.61641 0.934289 0
M  V30 12632 C 1178.33 0.488655 1.90017 0
M  V30 12633 O 1177.45 -0.38378 2.1297 0
M  V30 12634 C 1178.05 2.92987 1.7013 0
M  V30 12635 C 1176.61 3.03456 2.22692 0
M  V30 12636 C 1175.76 2.56992 1.04165 0
M  V30 12637 H 1178.71 1.58112 0.136452 0
M  V30 12638 H 1178.73 2.81221 2.5631 0
M  V30 12639 H 1178.24 3.75047 0.998056 0
M  V30 12640 H 1176.34 2.25999 2.96235 0
M  V30 12641 H 1176.45 4.08673 2.50046 0
M  V30 12642 H 1174.82 2.12052 1.41088 0
M  V30 12643 H 1175.6 3.41477 0.353272 0
M  V30 12644 N 1178.05 -0.61812 1.44973 0
M  V30 12645 C 1179.27 -1.40429 1.51945 0
M  V30 12646 C 1179.69 -1.88215 0.148556 0
M  V30 12647 O 1179.05 -1.61603 -0.847978 0
M  V30 12648 C 1179.1 -2.61588 2.49507 0
M  V30 12649 O 1178.82 -2.15791 3.81269 0
M  V30 12650 C 1180.32 -3.5457 2.66074 0
M  V30 12651 H 1177.54 -0.43023 0.514921 0
M  V30 12652 H 1180.08 -0.754791 1.90061 0
M  V30 12653 H 1178.24 -3.22602 2.14492 0
M  V30 12654 H 1178.65 -2.94434 4.34061 0
M  V30 12655 H 1180.13 -4.36155 3.38338 0
M  V30 12656 H 1180.6 -4.04227 1.71746 0
M  V30 12657 H 1181.21 -2.99416 3.02043 0
M  V30 12658 N 1179.52 -1.32087 -0.859693 0
M  V30 12659 C 1180.75 -1.25348 -1.64607 0
M  V30 12660 C 1181.17 0.179425 -1.87945 0
M  V30 12661 O 1180.52 1.11487 -1.44489 0
M  V30 12662 C 1180.57 -2.0047 -3.00822 0
M  V30 12663 O 1180.3 -3.38169 -2.7852 0
M  V30 12664 C 1181.8 -2.00694 -3.95268 0
M  V30 12665 H 1179.02 -0.432692 -0.512854 0
M  V30 12666 H 1181.56 -1.7413 -1.07234 0
M  V30 12667 H 1179.72 -1.55423 -3.54855 0
M  V30 12668 H 1180.13 -3.76553 -3.65113 0
M  V30 12669 H 1181.6 -2.57748 -4.88129 0
M  V30 12670 H 1182.08 -0.99196 -4.27851 0
M  V30 12671 H 1182.69 -2.45666 -3.47172 0
M  V30 12672 N 1181 1.07532 -1.15215 0
M  V30 12673 C 1182.25 1.79737 -0.924062 0
M  V30 12674 C 1182.57 1.87072 0.550356 0
M  V30 12675 O 1181.84 1.37029 1.4 0
M  V30 12676 H 1180.42 0.665704 -0.338891 0
M  V30 12677 H 1183.08 1.29961 -1.45245 0
M  V30 12678 H 1182.18 2.82256 -1.33184 0
M  V30 12679 N 1182.48 0.948665 1.2585 0
M  V30 12680 C 1183.9 0.652147 1.45668 0
M  V30 12681 C 1184.1 -0.792217 1.85273 0
M  V30 12682 O 1183.15 -1.56812 1.97905 0
M  V30 12683 C 1184.47 1.61998 2.53332 0
M  V30 12684 C 1186.01 1.6305 2.67178 0
M  V30 12685 C 1186.49 2.58582 3.78021 0
M  V30 12686 N 1187.98 2.56911 3.85423 0
M  V30 12687 C 1188.71 3.27511 4.70664 0
M  V30 12688 N 1188.21 4.07563 5.60236 0
M  V30 12689 N 1190 3.16427 4.64576 0
M  V30 12690 H 1182.15 1.88215 0.984325 0
M  V30 12691 H 1184.42 0.809251 0.493778 0
M  V30 12692 H 1184.12 2.65137 2.31075 0
M  V30 12693 H 1184 1.37784 3.51134 0
M  V30 12694 H 1186.38 0.606315 2.88804 0
M  V30 12695 H 1186.47 1.9132 1.69795 0
M  V30 12696 H 1186.11 3.61122 3.57146 0
M  V30 12697 H 1186.04 2.27598 4.74875 0
M  V30 12698 H 1188.53 1.9879 3.21389 0
M  V30 12699 H 1188.84 4.58367 6.22189 0
M  V30 12700 H 1187.19 4.11662 5.59964 0
M  V30 12701 H 1190.38 2.53364 3.93604 0
M  V30 12702 H 1190.55 3.71714 5.30785 0
M  V30 12703 N 1183.96 -1.40369 0.716545 0
M  V30 12704 C 1185.19 -2.05181 0.266143 0
M  V30 12705 C 1185.6 -1.53988 -1.09239 0
M  V30 12706 O 1184.96 -0.696859 -1.68672 0
M  V30 12707 C 1185.01 -3.60713 0.238384 0
M  V30 12708 O 1184.73 -4.10018 1.54328 0
M  V30 12709 C 1186.23 -4.42701 -0.230453 0
M  V30 12710 H 1183.45 -0.66028 0.119463 0
M  V30 12711 H 1186 -1.7976 0.97502 0
M  V30 12712 H 1184.15 -3.85101 -0.421466 0
M  V30 12713 H 1184.56 -5.0422 1.4444 0
M  V30 12714 H 1186.04 -5.51642 -0.198728 0
M  V30 12715 H 1186.52 -4.20354 -1.27276 0
M  V30 12716 H 1187.12 -4.23423 0.399155 0
M  V30 12717 N 1185.44 -0.462799 -1.50652 0
M  V30 12718 C 1186.66 0.0952726 -2.07181 0
M  V30 12719 C 1187.09 1.33479 -1.32533 0
M  V30 12720 O 1186.44 1.77473 -0.370564 0
M  V30 12721 C 1186.49 0.370592 -3.58691 0
M  V30 12722 O 1185.6 1.4526 -3.85971 0
M  V30 12723 H 1184.94 -0.00932702 -0.663934 0
M  V30 12724 H 1187.47 -0.651458 -1.93951 0
M  V30 12725 H 1187.48 0.613551 -4.0336 0
M  V30 12726 H 1186.15 -0.535219 -4.12442 0
M  V30 12727 H 1184.73 1.1976 -3.53146 0
M  V30 12728 N 1186.91 1.56388 -0.195085 0
M  V30 12729 C 1187.84 2.22091 0.720971 0
M  V30 12730 C 1188.83 1.184 1.22128 0
M  V30 12731 O 1190.01 1.46907 1.27012 0
M  V30 12732 C 1187.14 2.88025 1.94059 0
M  V30 12733 C 1186.09 3.97959 1.5752 0
M  V30 12734 C 1185.42 4.51058 2.87143 0
M  V30 12735 C 1186.72 5.16365 0.785145 0
M  V30 12736 H 1188.41 2.98898 0.173245 0
M  V30 12737 H 1185.96 1.43767 0.0818868 0
M  V30 12738 H 1187.91 3.32671 2.58666 0
M  V30 12739 H 1186.64 2.08623 2.51285 0
M  V30 12740 H 1185.3 3.54004 0.952715 0
M  V30 12741 H 1184.94 3.68418 3.42458 0
M  V30 12742 H 1184.64 5.25237 2.63439 0
M  V30 12743 H 1186.17 4.98406 3.52738 0
M  V30 12744 H 1187.58 5.57556 1.33431 0
M  V30 12745 H 1185.98 5.9661 0.646231 0
M  V30 12746 H 1187.05 4.84428 -0.213789 0
M  V30 12747 N 1188.39 -0.0785156 1.57404 0
M  V30 12748 C 1189.62 -0.790893 1.90862 0
M  V30 12749 C 1190.03 -1.7198 0.788644 0
M  V30 12750 O 1189.37 -1.82027 -0.247322 0
M  V30 12751 C 1189.44 -1.64362 3.19727 0
M  V30 12752 C 1189.1 -0.884796 4.48353 0
M  V30 12753 C 1190.1 -0.207074 5.19487 0
M  V30 12754 C 1187.78 -0.853962 4.94988 0
M  V30 12755 C 1189.78 0.491329 6.35504 0
M  V30 12756 C 1187.46 -0.151783 6.10911 0
M  V30 12757 C 1188.46 0.519669 6.8102 0
M  V30 12758 O 1188.15 1.21055 7.94733 0
M  V30 12759 H 1187.88 -0.230427 0.635515 0
M  V30 12760 H 1190.43 -0.0551231 2.05326 0
M  V30 12761 H 1188.66 -2.42203 3.01454 0
M  V30 12762 H 1190.35 -2.23406 3.38887 0
M  V30 12763 H 1191.12 -0.222247 4.84491 0
M  V30 12764 H 1187 -1.36605 4.40296 0
M  V30 12765 H 1190.54 1.01598 6.90162 0
M  V30 12766 H 1186.44 -0.134514 6.4536 0
M  V30 12767 H 1187.21 1.11914 8.10813 0
M  V30 12768 N 1189.87 -1.5367 -0.349747 0
M  V30 12769 C 1190.83 -1.80533 -1.41211 0
M  V30 12770 C 1191.83 -0.676188 -1.45892 0
M  V30 12771 O 1193.02 -0.944453 -1.46375 0
M  V30 12772 C 1190.16 -1.94175 -2.80195 0
M  V30 12773 H 1191.35 -2.75428 -1.18658 0
M  V30 12774 H 1188.9 -1.44988 -0.583787 0
M  V30 12775 H 1189.64 -1.01402 -3.08039 0
M  V30 12776 H 1189.42 -2.76316 -2.78194 0
M  V30 12777 H 1190.91 -2.16496 -3.57098 0
M  V30 12778 N 1191.35 0.610423 -1.45298 0
M  V30 12779 C 1192.63 1.36966 -1.39641 0
M  V30 12780 C 1193.01 2.10998 -0.0655757 0
M  V30 12781 O 1192.35 2.07705 0.952407 0
M  V30 12782 C 1192.56 2.31885 -2.60826 0
M  V30 12783 C 1193.91 2.9458 -3.05791 0
M  V30 12784 O 1194.94 2.42207 -2.61179 0
M  V30 12785 O 1193.79 3.89639 -3.83202 0
M  V30 12786 H 1190.89 0.61401 -0.554004 0
M  V30 12787 H 1193.43 0.633748 -1.57422 0
M  V30 12788 H 1192.21 1.76421 -3.49272 0
M  V30 12789 H 1191.83 3.12861 -2.45364 0
M  V30 12790 N 1192.83 1.32541 0.852676 0
M  V30 12791 C 1194.05 1.2636 1.64462 0
M  V30 12792 C 1194.48 -0.16508 1.87374 0
M  V30 12793 O 1193.83 -1.11712 1.42794 0
M  V30 12794 C 1193.88 2.03052 2.97997 0
M  V30 12795 O 1192.99 1.37967 3.88637 0
M  V30 12796 H 1192.33 0.435393 0.501327 0
M  V30 12797 H 1194.86 1.74888 1.06186 0
M  V30 12798 H 1194.87 2.133 3.47803 0
M  V30 12799 H 1193.54 3.06941 2.80642 0
M  V30 12800 H 1192.12 1.36279 3.47106 0
M  V30 12801 N 1194.3 -1.0692 1.15784 0
M  V30 12802 C 1195.72 -1.61069 0.944123 0
M  V30 12803 C 1196.07 -1.8936 -0.513522 0
M  V30 12804 O 1195.19 -1.66232 -1.38549 0
M  V30 12805 C 1195.79 -2.9263 1.70743 0
M  V30 12806 C 1194.35 -3.43505 1.53887 0
M  V30 12807 C 1193.49 -2.17495 1.72021 0
M  V30 12808 H 1196.44 -0.89951 1.30746 0
M  V30 12809 H 1196.46 -3.61757 1.17951 0
M  V30 12810 H 1195.98 -2.72007 2.76828 0
M  V30 12811 H 1194.08 -3.69201 0.502153 0
M  V30 12812 H 1194.19 -4.19254 2.31868 0
M  V30 12813 H 1192.55 -2.27407 1.1471 0
M  V30 12814 H 1193.34 -1.99362 2.79481 0
M  V30 12815 N 1195.78 -0.955326 -1.25345 0
M  V30 12816 C 1197.01 -0.627233 -1.97688 0
M  V30 12817 C 1197.43 0.793973 -1.70522 0
M  V30 12818 O 1196.79 1.537 -0.961556 0
M  V30 12819 C 1196.84 -0.892969 -3.49369 0
M  V30 12820 O 1195.94 0.0278871 -4.12391 0
M  V30 12821 H 1195.28 -0.238402 -0.619726 0
M  V30 12822 H 1197.81 -1.28211 -1.59446 0
M  V30 12823 H 1197.82 -0.819517 -3.99685 0
M  V30 12824 H 1196.5 -1.92879 -3.6847 0
M  V30 12825 H 1195.08 -0.0978295 -3.72772 0
M  V30 12826 N 1197.26 1.39987 -0.723979 0
M  V30 12827 C 1198.51 2.01028 -0.267511 0
M  V30 12828 C 1198.84 1.57295 1.13894 0
M  V30 12829 O 1198.12 0.796805 1.7743 0
M  V30 12830 C 1198.4 3.58326 -0.356971 0
M  V30 12831 C 1198.25 4.12109 -1.8024 0
M  V30 12832 C 1199.57 4.39289 0.267003 0
M  V30 12833 H 1196.69 0.730364 -0.0986775 0
M  V30 12834 H 1199.33 1.66348 -0.91806 0
M  V30 12835 H 1197.48 3.88001 0.196908 0
M  V30 12836 H 1199.15 3.93199 -2.41231 0
M  V30 12837 H 1197.4 3.66082 -2.32737 0
M  V30 12838 H 1198.07 5.21261 -1.81634 0
M  V30 12839 H 1200.54 4.15595 -0.20503 0
M  V30 12840 H 1199.42 5.48624 0.174004 0
M  V30 12841 H 1199.68 4.20931 1.35164 0
M  V30 12842 N 1198.74 0.470782 1.50404 0
M  V30 12843 C 1200.15 0.0155901 1.86693 0
M  V30 12844 C 1200.5 -1.38908 1.38561 0
M  V30 12845 O 1199.63 -2.02971 0.750454 0
M  V30 12846 C 1200.22 0.0215152 3.38793 0
M  V30 12847 C 1198.78 -0.378206 3.74495 0
M  V30 12848 C 1197.93 0.407126 2.74295 0
M  V30 12849 H 1200.88 0.68507 1.43152 0
M  V30 12850 H 1200.9 -0.780717 3.72404 0
M  V30 12851 H 1200.41 1.04397 3.73795 0
M  V30 12852 H 1198.51 -1.40503 3.45094 0
M  V30 12853 H 1198.63 -0.0797643 4.79034 0
M  V30 12854 H 1196.99 -0.139123 2.5432 0
M  V30 12855 H 1197.77 1.42909 3.12141 0
M  V30 12856 N 1200.22 -1.56282 0.203376 0
M  V30 12857 C 1201.44 -2.02643 -0.441658 0
M  V30 12858 C 1201.87 -1.0825 -1.5383 0
M  V30 12859 O 1201.23 -0.0674337 -1.81175 0
M  V30 12860 C 1201.27 -3.47382 -0.967369 0
M  V30 12861 O 1200.38 -3.56115 -2.07981 0
M  V30 12862 H 1199.72 -0.656081 -0.102242 0
M  V30 12863 H 1202.25 -2.02134 0.316684 0
M  V30 12864 H 1202.26 -3.8734 -1.28186 0
M  V30 12865 H 1200.93 -4.15574 -0.164625 0
M  V30 12866 H 1199.51 -3.28035 -1.77334 0
M  V30 12867 N 1201.7 0.070167 -1.57444 0
M  V30 12868 C 1202.65 1.09016 -2.00249 0
M  V30 12869 C 1203.63 1.34387 -0.884809 0
M  V30 12870 O 1204.82 1.34661 -1.14872 0
M  V30 12871 C 1201.95 2.40344 -2.45132 0
M  V30 12872 C 1201.04 2.1824 -3.63637 0
M  V30 12873 N 1201.43 1.6607 -4.7776 0
M  V30 12874 C 1199.73 2.48706 -3.70218 0
M  V30 12875 C 1200.43 1.58819 -5.59599 0
M  V30 12876 N 1199.4 2.04928 -5.03493 0
M  V30 12877 H 1203.2 0.680143 -2.85922 0
M  V30 12878 H 1200.72 0.277212 -1.60017 0
M  V30 12879 H 1202.72 3.1418 -2.74037 0
M  V30 12880 H 1201.38 2.82061 -1.60846 0
M  V30 12881 H 1202.39 1.34911 -5.00019 0
M  V30 12882 H 1199.06 2.93778 -2.96649 0
M  V30 12883 H 1200.45 1.19323 -6.6122 0
M  V30 12884 N 1203.17 1.53854 0.341593 0
M  V30 12885 C 1204.1 1.84966 1.42513 0
M  V30 12886 C 1205.08 0.704944 1.54805 0
M  V30 12887 O 1206.27 0.957036 1.68981 0
M  V30 12888 C 1203.4 2.06099 2.79536 0
M  V30 12889 C 1202.35 3.21919 2.82049 0
M  V30 12890 C 1201.68 3.28389 4.21977 0
M  V30 12891 C 1202.98 4.59984 2.4741 0
M  V30 12892 H 1204.67 2.7571 1.16724 0
M  V30 12893 H 1202.22 1.32662 0.560073 0
M  V30 12894 H 1204.17 2.26448 3.55386 0
M  V30 12895 H 1202.9 1.12087 3.06764 0
M  V30 12896 H 1201.56 3.01429 2.08653 0
M  V30 12897 H 1201.2 2.3197 4.46317 0
M  V30 12898 H 1200.9 4.0622 4.24569 0
M  V30 12899 H 1202.43 3.50951 4.99666 0
M  V30 12900 H 1203.84 4.80334 3.12973 0
M  V30 12901 H 1202.24 5.40233 2.61282 0
M  V30 12902 H 1203.31 4.6346 1.42594 0
M  V30 12903 N 1204.65 -0.602709 1.4562 0
M  V30 12904 C 1206.06 -1.1847 1.44297 0
M  V30 12905 C 1206.41 -1.95434 0.17316 0
M  V30 12906 O 1205.54 -2.03894 -0.724986 0
M  V30 12907 C 1206.13 -2.15508 2.61422 0
M  V30 12908 C 1204.69 -2.69073 2.63204 0
M  V30 12909 C 1203.84 -1.44568 2.36633 0
M  V30 12910 H 1206.79 -0.391745 1.53789 0
M  V30 12911 H 1206.81 -2.98628 2.35799 0
M  V30 12912 H 1206.32 -1.59464 3.53826 0
M  V30 12913 H 1204.42 -3.29042 1.7482 0
M  V30 12914 H 1204.54 -3.13173 3.62573 0
M  V30 12915 H 1202.9 -1.73692 1.86287 0
M  V30 12916 H 1203.68 -0.903852 3.31188 0
M  V30 12917 N 1206.13 -1.32992 -0.845635 0
M  V30 12918 C 1207.41 -1.14671 -1.58461 0
M  V30 12919 C 1207.79 0.289498 -2.09106 0
M  V30 12920 O 1207.13 1.28751 -1.88773 0
M  V30 12921 C 1207.34 -2.18206 -2.72373 0
M  V30 12922 C 1208.69 -2.5201 -3.41726 0
M  V30 12923 O 1209.72 -2.16821 -2.82608 0
M  V30 12924 O 1208.58 -3.12368 -4.48429 0
M  V30 12925 H 1205.67 -0.443088 -0.698285 0
M  V30 12926 H 1208.22 -1.44552 -0.888978 0
M  V30 12927 H 1206.99 -3.14707 -2.32541 0
M  V30 12928 H 1206.61 -1.89372 -3.49605 0
M  V30 12929 N 1207.61 1.06304 -1.1635 0
M  V30 12930 C 1209.02 1.31227 -0.90838 0
M  V30 12931 C 1209.22 1.96665 0.438779 0
M  V30 12932 O 1208.28 2.2332 1.17833 0
M  V30 12933 C 1209.59 2.19303 -2.05734 0
M  V30 12934 C 1211.14 2.3272 -2.09309 0
M  V30 12935 C 1211.62 3.24151 -3.23559 0
M  V30 12936 N 1213.11 3.31734 -3.23275 0
M  V30 12937 C 1213.84 4.02572 -4.08318 0
M  V30 12938 N 1213.34 4.75933 -5.03448 0
M  V30 12939 N 1215.13 3.98621 -3.96305 0
M  V30 12940 H 1207.28 0.622228 -2.03081 0
M  V30 12941 H 1209.54 0.336892 -0.886119 0
M  V30 12942 H 1209.25 1.78497 -3.03037 0
M  V30 12943 H 1209.12 3.19888 -1.99879 0
M  V30 12944 H 1211.51 2.72774 -1.12599 0
M  V30 12945 H 1211.59 1.31804 -2.19229 0
M  V30 12946 H 1211.24 2.84813 -4.20528 0
M  V30 12947 H 1211.17 4.25046 -3.10875 0
M  V30 12948 H 1213.66 2.79453 -2.5439 0
M  V30 12949 H 1213.97 5.27512 -5.64758 0
M  V30 12950 H 1212.32 4.74913 -5.07427 0
M  V30 12951 H 1215.51 3.40427 -3.21289 0
M  V30 12952 H 1215.68 4.5356 -4.62804 0
M  V30 12953 N 1209.09 0.96196 1.24836 0
M  V30 12954 C 1210.33 0.621634 1.93038 0
M  V30 12955 C 1210.66 -0.840257 1.75081 0
M  V30 12956 O 1209.94 -1.60381 1.10038 0
M  V30 12957 C 1210.22 0.990107 3.46221 0
M  V30 12958 C 1210.08 2.50827 3.73371 0
M  V30 12959 C 1211.39 0.520478 4.37011 0
M  V30 12960 H 1208.51 0.227312 0.701069 0
M  V30 12961 H 1211.16 1.19993 1.47315 0
M  V30 12962 H 1209.31 0.498008 3.85295 0
M  V30 12963 H 1210.98 3.07469 3.4389 0
M  V30 12964 H 1209.22 2.94277 3.18722 0
M  V30 12965 H 1209.89 2.71659 4.80526 0
M  V30 12966 H 1212.37 0.942703 4.05281 0
M  V30 12967 H 1211.24 0.806918 5.42937 0
M  V30 12968 H 1211.5 -0.579507 4.38285 0
M  V30 12969 N 1210.56 -1.39601 0.731392 0
M  V30 12970 C 1211.51 -2.27907 0.0651931 0
M  V30 12971 C 1212.5 -1.44075 -0.716334 0
M  V30 12972 O 1213.69 -1.6702 -0.585936 0
M  V30 12973 C 1210.82 -3.32763 -0.844023 0
M  V30 12974 C 1209.9 -4.24062 -0.0568388 0
M  V30 12975 N 1210.3 -4.96448 0.968146 0
M  V30 12976 C 1208.59 -4.45075 -0.287037 0
M  V30 12977 C 1209.29 -5.6353 1.44252 0
M  V30 12978 N 1208.27 -5.38236 0.761772 0
M  V30 12979 H 1212.07 -2.81324 0.850539 0
M  V30 12980 H 1209.59 -1.5224 0.565396 0
M  V30 12981 H 1211.58 -3.94888 -1.33674 0
M  V30 12982 H 1210.24 -2.80905 -1.62857 0
M  V30 12983 H 1211.25 -5.00011 1.34942 0
M  V30 12984 H 1207.93 -4.04167 -1.04667 0
M  V30 12985 H 1209.32 -6.31487 2.29508 0
M  V30 12986 N 1212.04 -0.478751 -1.50152 0
M  V30 12987 C 1213.29 0.073585 -2.02366 0
M  V30 12988 C 1213.62 1.3903 -1.36018 0
M  V30 12989 O 1212.87 1.89787 -0.477435 0
M  V30 12990 C 1213.17 0.297535 -3.56159 0
M  V30 12991 C 1212.84 -0.938419 -4.41027 0
M  V30 12992 C 1211.5 -1.27727 -4.63939 0
M  V30 12993 C 1213.85 -1.76098 -4.9055 0
M  V30 12994 C 1211.18 -2.4386 -5.33619 0
M  V30 12995 C 1213.53 -2.91366 -5.61506 0
M  V30 12996 C 1212.2 -3.25657 -5.8267 0
M  V30 12997 H 1211.47 0.0269267 -0.740511 0
M  V30 12998 H 1214.11 -0.63439 -1.80687 0
M  V30 12999 H 1212.42 1.08783 -3.76395 0
M  V30 13000 H 1214.11 0.73899 -3.94132 0
M  V30 13001 H 1210.7 -0.664441 -4.23418 0
M  V30 13002 H 1214.89 -1.51237 -4.72696 0
M  V30 13003 H 1210.14 -2.70692 -5.48211 0
M  V30 13004 H 1214.32 -3.55445 -5.98859 0
M  V30 13005 H 1211.95 -4.15751 -6.36439 0
M  V30 13006 N 1213.52 1.56172 -0.211661 0
M  V30 13007 C 1214.48 2.18602 0.688906 0
M  V30 13008 C 1215.48 1.14508 1.12892 0
M  V30 13009 O 1216.67 1.39799 1.03932 0
M  V30 13010 C 1213.81 2.80141 1.94253 0
M  V30 13011 H 1215 2.9955 0.144765 0
M  V30 13012 H 1212.55 1.56254 0.0379615 0
M  V30 13013 H 1213.29 2.03035 2.52878 0
M  V30 13014 H 1213.07 3.56358 1.63558 0
M  V30 13015 H 1214.56 3.28026 2.58436 0
M  V30 13016 N 1215 -0.0618163 1.57479 0
M  V30 13017 C 1216.22 -0.775513 1.92355 0
M  V30 13018 C 1216.65 -1.69816 0.808949 0
M  V30 13019 O 1216.01 -1.79736 -0.23761 0
M  V30 13020 C 1216.05 -1.5367 3.26218 0
M  V30 13021 O 1215.16 -2.64802 3.16155 0
M  V30 13022 H 1214.5 -0.210909 0.629614 0
M  V30 13023 H 1217.03 -0.0270752 2.04582 0
M  V30 13024 H 1217.04 -1.91379 3.6033 0
M  V30 13025 H 1215.71 -0.859798 4.06916 0
M  V30 13026 H 1214.29 -2.29876 2.93618 0
M  V30 13027 N 1216.48 -1.54033 -0.333429 0
M  V30 13028 C 1217.89 -1.63107 -0.908455 0
M  V30 13029 C 1218.24 -0.518823 -1.89216 0
M  V30 13030 O 1217.36 0.34985 -2.13553 0
M  V30 13031 C 1217.96 -2.95657 -1.65447 0
M  V30 13032 C 1216.52 -3.0696 -2.17836 0
M  V30 13033 C 1215.66 -2.58617 -1.00063 0
M  V30 13034 H 1218.62 -1.58309 -0.11128 0
M  V30 13035 H 1218.64 -2.85263 -2.51804 0
M  V30 13036 H 1218.15 -3.76588 -0.938263 0
M  V30 13037 H 1216.25 -2.30683 -2.92602 0
M  V30 13038 H 1216.36 -4.12599 -2.43513 0
M  V30 13039 H 1214.73 -2.1427 -1.37697 0
M  V30 13040 H 1215.51 -3.41996 -0.298901 0
M  V30 13041 N 1217.95 0.594978 -1.45938 0
M  V30 13042 C 1218.88 1.71536 -1.58422 0
M  V30 13043 C 1219.87 1.64441 -0.435116 0
M  V30 13044 O 1221.05 1.82647 -0.659839 0
M  V30 13045 C 1218.18 3.10163 -1.56257 0
M  V30 13046 C 1217.13 3.3208 -2.70013 0
M  V30 13047 C 1216.46 4.71108 -2.52905 0
M  V30 13048 C 1217.76 3.21105 -4.11933 0
M  V30 13049 H 1219.45 1.61344 -2.52207 0
M  V30 13050 H 1217 0.774791 -1.2138 0
M  V30 13051 H 1218.95 3.88352 -1.63587 0
M  V30 13052 H 1217.68 3.21225 -0.590093 0
M  V30 13053 H 1216.34 2.56286 -2.62132 0
M  V30 13054 H 1215.98 4.7892 -1.53768 0
M  V30 13055 H 1215.68 4.86727 -3.29197 0
M  V30 13056 H 1217.21 5.51482 -2.62107 0
M  V30 13057 H 1218.62 3.89153 -4.2099 0
M  V30 13058 H 1217.02 3.4825 -4.88715 0
M  V30 13059 H 1218.09 2.18359 -4.32952 0
M  V30 13060 N 1219.43 1.33438 0.838571 0
M  V30 13061 C 1220.38 1.20285 1.93689 0
M  V30 13062 C 1221.37 0.105686 1.60553 0
M  V30 13063 O 1222.56 0.333814 1.73824 0
M  V30 13064 C 1219.69 0.944544 3.3005 0
M  V30 13065 C 1218.77 2.08416 3.69356 0
M  V30 13066 N 1219.16 3.33415 3.80353 0
M  V30 13067 C 1217.46 1.99092 3.99097 0
M  V30 13068 C 1218.16 4.08159 4.14465 0
M  V30 13069 N 1217.14 3.36601 4.2685 0
M  V30 13070 H 1220.94 2.1503 2.00348 0
M  V30 13071 H 1218.46 1.2545 1.03131 0
M  V30 13072 H 1220.45 0.831242 4.08529 0
M  V30 13073 H 1219.11 0.00562273 3.247 0
M  V30 13074 H 1220.12 3.68159 3.64252 0
M  V30 13075 H 1216.8 1.12861 4.01956 0
M  V30 13076 H 1218.19 5.16027 4.30308 0
M  V30 13077 N 1220.91 -1.05686 1.16912 0
M  V30 13078 C 1222.16 -1.78862 0.955839 0
M  V30 13079 C 1222.49 -1.87257 -0.514645 0
M  V30 13080 O 1221.76 -1.36869 -1.38193 0
M  V30 13081 C 1222.05 -3.23021 1.59152 0
M  V30 13082 C 1221.9 -3.22669 3.13376 0
M  V30 13083 C 1223.22 -4.2073 1.29128 0
M  V30 13084 H 1220.34 -0.64931 0.348663 0
M  V30 13085 H 1222.98 -1.23561 1.44335 0
M  V30 13086 H 1221.13 -3.70243 1.17697 0
M  V30 13087 H 1222.8 -2.83562 3.63855 0
M  V30 13088 H 1221.05 -2.61149 3.46386 0
M  V30 13089 H 1221.72 -4.24394 3.52979 0
M  V30 13090 H 1224.19 -3.8198 1.65017 0
M  V30 13091 H 1223.07 -5.19851 1.76198 0
M  V30 13092 H 1223.33 -4.41595 0.21119 0
M  V30 13093 N 1222.39 -0.968567 -1.24324 0
M  V30 13094 C 1223.35 -0.504307 -2.23583 0
M  V30 13095 C 1224.35 0.399626 -1.55755 0
M  V30 13096 O 1225.54 0.194966 -1.73106 0
M  V30 13097 C 1222.67 0.26956 -3.39833 0
M  V30 13098 H 1223.87 -1.3818 -2.6617 0
M  V30 13099 H 1221.42 -0.753241 -1.36952 0
M  V30 13100 H 1222.15 1.16411 -3.02686 0
M  V30 13101 H 1221.94 -0.379133 -3.90263 0
M  V30 13102 H 1223.43 0.583376 -4.13505 0
M  V30 13103 N 1223.87 1.39211 -0.738786 0
M  V30 13104 C 1225.11 2.01209 -0.297722 0
M  V30 13105 C 1225.47 1.57579 1.10393 0
M  V30 13106 O 1224.76 0.796454 1.74262 0
M  V30 13107 C 1224.95 3.55758 -0.342224 0
M  V30 13108 C 1224.78 4.14393 -1.74666 0
M  V30 13109 C 1223.55 4.46814 -2.35978 0
M  V30 13110 C 1225.75 4.37672 -2.70089 0
M  V30 13111 N 1223.73 4.90973 -3.68536 0
M  V30 13112 C 1225.1 4.84077 -3.87388 0
M  V30 13113 C 1227.16 4.19746 -2.67802 0
M  V30 13114 C 1225.86 5.14436 -5.02741 0
M  V30 13115 C 1227.89 4.51221 -3.82301 0
M  V30 13116 C 1227.25 4.97836 -4.98336 0
M  V30 13117 H 1223.35 0.766427 -0.155283 0
M  V30 13118 H 1225.93 1.69071 -0.965568 0
M  V30 13119 H 1224.1 3.87276 0.295285 0
M  V30 13120 H 1225.84 4.04529 0.117748 0
M  V30 13121 H 1222.59 4.34744 -1.87869 0
M  V30 13122 H 1223.02 5.17405 -4.36602 0
M  V30 13123 H 1227.66 3.82906 -1.79284 0
M  V30 13124 H 1225.38 5.50179 -5.91886 0
M  V30 13125 H 1228.96 4.3897 -3.81834 0
M  V30 13126 H 1227.84 5.21728 -5.85465 0
M  V30 13127 N 1225.34 0.486708 1.49896 0
M  V30 13128 C 1226.76 0.141788 1.58969 0
M  V30 13129 C 1226.96 -1.35279 1.49338 0
M  V30 13130 O 1226.02 -2.1275 1.35992 0
M  V30 13131 C 1227.33 0.70588 2.92297 0
M  V30 13132 C 1228.88 0.670704 3.0573 0
M  V30 13133 C 1229.35 1.21261 4.41656 0
M  V30 13134 N 1230.84 1.17269 4.4811 0
M  V30 13135 C 1231.58 1.56233 5.51705 0
M  V30 13136 N 1231.07 2.02721 6.62477 0
M  V30 13137 N 1232.87 1.47738 5.42337 0
M  V30 13138 H 1225.02 1.45858 1.544 0
M  V30 13139 H 1227.28 0.604137 0.730563 0
M  V30 13140 H 1226.99 1.7535 3.04869 0
M  V30 13141 H 1226.86 0.158215 3.76868 0
M  V30 13142 H 1229.25 -0.368041 2.92796 0
M  V30 13143 H 1229.33 1.25535 2.22878 0
M  V30 13144 H 1228.97 2.25006 4.5534 0
M  V30 13145 H 1228.9 0.604031 5.23124 0
M  V30 13146 H 1231.39 0.831905 3.6863 0
M  V30 13147 H 1231.71 2.3056 7.37606 0
M  V30 13148 H 1230.05 2.06686 6.63556 0
M  V30 13149 H 1233.24 1.11249 4.54688 0
M  V30 13150 H 1233.42 1.78429 6.2295 0
M  V30 13151 N 1226.82 -1.56058 0.219941 0
M  V30 13152 C 1228.23 -1.84462 -0.288203 0
M  V30 13153 C 1228.59 -1.14128 -1.59591 0
M  V30 13154 O 1227.71 -0.410411 -2.12473 0
M  V30 13155 C 1228.31 -3.34634 -0.529689 0
M  V30 13156 C 1226.86 -3.63361 -0.982145 0
M  V30 13157 C 1226.01 -2.77265 -0.0443292 0
M  V30 13158 H 1228.96 -1.52387 0.44317 0
M  V30 13159 H 1228.98 -3.54752 -1.3759 0
M  V30 13160 H 1228.5 -3.85796 0.422243 0
M  V30 13161 H 1226.6 -3.17653 -1.94749 0
M  V30 13162 H 1226.71 -4.71361 -0.857668 0
M  V30 13163 H 1225.07 -2.48672 -0.550825 0
M  V30 13164 H 1225.86 -3.31225 0.902491 0
M  V30 13165 N 1228.3 0.053464 -1.57509 0
M  V30 13166 C 1229.71 0.603099 -1.76691 0
M  V30 13167 C 1230.06 1.76934 -0.847861 0
M  V30 13168 O 1229.19 2.16369 -0.0364962 0
M  V30 13169 C 1229.78 1.10084 -3.20417 0
M  V30 13170 C 1228.34 1.59618 -3.4088 0
M  V30 13171 C 1227.49 0.523516 -2.72313 0
M  V30 13172 H 1230.44 -0.172751 -1.57757 0
M  V30 13173 H 1230.46 1.9691 -3.25587 0
M  V30 13174 H 1229.97 0.251818 -3.87282 0
M  V30 13175 H 1228.07 2.46786 -2.79155 0
M  V30 13176 H 1228.19 1.6605 -4.49404 0
M  V30 13177 H 1226.55 0.972886 -2.35387 0
M  V30 13178 H 1227.33 -0.315629 -3.41846 0
M  V30 13179 O 1229.82 1.60297 0.196756 0
M  V30 13180 H 1230.51 1.74741 0.835779 0
M  V30 END ATOM
M  V30 BEGIN BOND
M  V30 END BOND
M  V30 END CTAB
M  END
$$$$
