drugbank_target|O34667 S-ribosylhomocysteine lyase (DB02321; DB03661; DB04182; DB04422)
 OpenBabel12092119553D

  0  0  0     0  0            999 V3000
M  V30 BEGIN CTAB
M  V30 COUNTS 2464 2491 0 0 0
M  V30 BEGIN ATOM
M  V30 1 H -0.908 1.98254 -0.117106 0
M  V30 2 N 0 1.576 0 0
M  V30 3 C 0.933 2.03868 1.02534 0
M  V30 4 C 1.911 0.928543 1.3348 0
M  V30 5 O 3.095 1.19667 1.45644 0
M  V30 6 C 0.222 2.43627 2.35294 0
M  V30 7 C -0.732 3.65373 2.2001 0
M  V30 8 S 0.101 5.13292 1.52614 0
M  V30 9 C 1.257 5.56322 2.86805 0
M  V30 10 H 1.49 2.90518 0.631377 0
M  V30 11 H -0.977 1.52953 0.210867 0
M  V30 12 H 0.981 2.67203 3.11629 0
M  V30 13 H -0.358 1.57376 2.7183 0
M  V30 14 H -1.165 3.90944 3.18086 0
M  V30 15 H -1.563 3.418 1.51819 0
M  V30 16 H 0.729 5.58782 3.83104 0
M  V30 17 H 1.672 6.56266 2.65933 0
M  V30 18 H 2.08 4.83886 2.90714 0
M  V30 19 N 1.4781 -0.272755 1.55222 0
M  V30 20 C 2.8891 -0.84378 1.66545 0
M  V30 21 C 3.2401 -1.87035 0.592641 0
M  V30 22 O 2.3651 -2.14761 -0.265818 0
M  V30 23 C 2.9601 -1.53723 3.01918 0
M  V30 24 C 1.5191 -2.05628 3.15268 0
M  V30 25 C 0.6661 -0.898424 2.62343 0
M  V30 26 H 3.6171 -0.0490998 1.58624 0
M  V30 27 H 3.6381 -2.40421 2.94921 0
M  V30 28 H 3.1501 -0.78983 3.79978 0
M  V30 29 H 1.2511 -2.83329 2.41983 0
M  V30 30 H 1.3641 -2.27142 4.21833 0
M  V30 31 H -0.2719 -1.29186 2.19506 0
M  V30 32 H 0.5111 -0.164528 3.42906 0
M  V30 33 N 2.9562 -1.48159 -0.537278 0
M  V30 34 C 4.1812 -1.59707 -1.32319 0
M  V30 35 C 4.6062 -0.254859 -1.86365 0
M  V30 36 O 3.9642 0.772378 -1.64024 0
M  V30 37 C 4.0122 -2.6412 -2.45505 0
M  V30 38 O 3.1162 -2.20774 -3.48328 0
M  V30 39 H 2.4572 -0.535791 -0.392204 0
M  V30 40 H 4.9872 -1.94092 -0.647268 0
M  V30 41 H 4.9972 -2.85166 -2.91795 0
M  V30 42 H 3.6722 -3.61567 -2.05528 0
M  V30 43 H 2.2492 -2.09911 -3.08207 0
M  V30 44 N 4.4343 0.785586 -1.36625 0
M  V30 45 C 5.6803 1.54591 -1.31261 0
M  V30 46 C 6.0133 1.93906 0.106823 0
M  V30 47 O 5.2883 1.63007 1.06108 0
M  V30 48 C 5.5713 2.82038 -2.23889 0
M  V30 49 C 5.4243 2.49066 -3.74548 0
M  V30 50 C 6.7433 3.83887 -2.15217 0
M  V30 51 H 3.8623 0.560846 -0.478143 0
M  V30 52 H 6.5043 0.902278 -1.67209 0
M  V30 53 H 4.6543 3.36961 -1.93363 0
M  V30 54 H 6.3263 2.00164 -4.15611 0
M  V30 55 H 4.5693 1.81954 -3.93796 0
M  V30 56 H 5.2403 3.40109 -4.34776 0
M  V30 57 H 7.7163 3.38421 -2.42096 0
M  V30 58 H 6.5923 4.70806 -2.82193 0
M  V30 59 H 6.8533 4.27131 -1.14068 0
M  V30 60 N 5.9124 1.20967 1.01018 0
M  V30 61 C 6.8224 0.980157 2.13143 0
M  V30 62 C 7.8384 -0.0660665 1.73875 0
M  V30 63 O 9.0144 0.122821 2.01025 0
M  V30 64 C 6.0794 0.54216 3.42435 0
M  V30 65 C 5.1404 1.65999 3.95908 0
M  V30 66 C 4.3734 1.2428 5.19028 0
M  V30 67 O 4.5964 0.114196 5.70286 0
M  V30 68 O 3.5304 2.05271 5.65816 0
M  V30 69 H 7.3564 1.91913 2.35379 0
M  V30 70 H 4.9414 0.994099 1.11526 0
M  V30 71 H 6.8234 0.30744 4.20277 0
M  V30 72 H 5.4984 -0.36815 3.216 0
M  V30 73 H 4.4054 1.94906 3.19316 0
M  V30 74 H 5.7384 2.54753 4.21143 0
M  V30 75 N 7.3905 -1.2043 1.01659 0
M  V30 76 C 8.6155 -1.94318 0.724942 0
M  V30 77 C 9.0405 -1.74266 -0.708034 0
M  V30 78 O 8.3985 -1.03694 -1.48719 0
M  V30 79 C 8.4465 -3.44486 1.06591 0
M  V30 80 O 7.5505 -4.12017 0.177599 0
M  V30 81 H 6.8915 -0.60708 0.26898 0
M  V30 82 H 9.4215 -1.52861 1.35995 0
M  V30 83 H 9.4315 -3.95106 1.01762 0
M  V30 84 H 8.1065 -3.58404 2.10997 0
M  V30 85 H 6.6835 -3.71821 0.283421 0
M  V30 86 N 8.8686 -0.792821 -1.36206 0
M  V30 87 C 10.1156 -0.366786 -1.99151 0
M  V30 88 C 10.4436 1.06243 -1.62919 0
M  V30 89 O 9.6986 1.74927 -0.877442 0
M  V30 90 C 9.9976 -0.481501 -3.54142 0
M  V30 91 C 9.6636 -1.87202 -4.10203 0
M  V30 92 C 8.3256 -2.25248 -4.25226 0
M  V30 93 C 10.6776 -2.78237 -4.40719 0
M  V30 94 C 8.0056 -3.53723 -4.68078 0
M  V30 95 C 10.3576 -4.06144 -4.85005 0
M  V30 96 C 9.0216 -4.44207 -4.98234 0
M  V30 97 H 8.2916 -0.134217 -0.728743 0
M  V30 98 H 10.9386 -1.01094 -1.62641 0
M  V30 99 H 9.2436 0.246146 -3.91026 0
M  V30 100 H 10.9406 -0.132844 -4.0078 0
M  V30 101 H 7.5306 -1.56639 -3.98951 0
M  V30 102 H 11.7146 -2.50097 -4.28679 0
M  V30 103 H 6.9706 -3.8308 -4.76508 0
M  V30 104 H 11.1446 -4.76796 -5.07581 0
M  V30 105 H 8.7716 -5.43814 -5.31197 0
M  V30 106 N 10.3467 1.47872 -0.545128 0
M  V30 107 C 11.2567 2.33633 0.212746 0
M  V30 108 C 12.2727 1.4744 0.923983 0
M  V30 109 O 13.4487 1.80393 0.895572 0
M  V30 110 C 10.5137 3.23884 1.23693 0
M  V30 111 C 9.5747 4.25961 0.534417 0
M  V30 112 C 8.8077 5.11899 1.5098 0
M  V30 113 O 9.0307 5.00077 2.7437 0
M  V30 114 O 7.9647 5.92831 1.0409 0
M  V30 115 H 11.7907 2.99714 -0.490416 0
M  V30 116 H 9.3757 1.46235 -0.305871 0
M  V30 117 H 11.2577 3.79666 1.82843 0
M  V30 118 H 9.9327 2.60446 1.92222 0
M  V30 119 H 8.8397 3.73972 -0.0979679 0
M  V30 120 H 10.1727 4.92079 -0.109213 0
M  V30 121 N 11.8248 0.280983 1.55075 0
M  V30 122 C 12.7548 -0.597469 2.25727 0
M  V30 123 C 13.7358 -1.15417 1.24952 0
M  V30 124 O 14.9208 -1.18722 1.53684 0
M  V30 125 C 12.0508 -1.7789 2.98283 0
M  V30 126 C 11.0048 -1.35347 4.06036 0
M  V30 127 C 10.3308 -2.61846 4.66198 0
M  V30 128 C 11.6308 -0.499354 5.19907 0
M  V30 129 H 13.3248 -0.00824265 2.99399 0
M  V30 130 H 10.8708 -0.0025244 1.44 0
M  V30 131 H 12.8238 -2.39937 3.46422 0
M  V30 132 H 11.5478 -2.39405 2.22155 0
M  V30 133 H 10.2068 -0.756156 3.58717 0
M  V30 134 H 9.8548 -3.21632 3.86732 0
M  V30 135 H 9.5548 -2.3409 5.38958 0
M  V30 136 H 11.0788 -3.24732 5.1709 0
M  V30 137 H 12.4928 -1.02498 5.64063 0
M  V30 138 H 10.8898 -0.316424 5.99265 0
M  V30 139 H 11.9598 0.480459 4.82514 0
M  V30 140 N 13.3029 -1.57598 0.00835791 0
M  V30 141 C 14.5799 -1.82172 -0.712235 0
M  V30 142 C 14.9599 -0.887873 -1.9152 0
M  V30 143 O 14.3079 0.06146 -2.28417 0
M  V30 144 C 14.5179 -3.30875 -1.11008 0
M  V30 145 C 15.8659 -3.96826 -1.51044 0
M  V30 146 O 16.8899 -3.35248 -1.20364 0
M  V30 147 O 15.7489 -5.05318 -2.08125 0
M  V30 148 H 12.8429 -0.750435 -0.347529 0
M  V30 149 H 15.3889 -1.69665 0.0344523 0
M  V30 150 H 14.1609 -3.90481 -0.252982 0
M  V30 151 H 13.7839 -3.48412 -1.9156 0
M  V30 152 N 14.781 0.264519 -1.55364 0
M  V30 153 C 15.731 1.32966 -1.85214 0
M  V30 154 C 16.715 1.44306 -0.711653 0
M  V30 155 O 17.907 1.47844 -0.973192 0
M  V30 156 C 15.036 2.68839 -2.13495 0
M  V30 157 C 14.122 2.61575 -3.33825 0
M  V30 158 N 14.513 2.23933 -4.53528 0
M  V30 159 C 12.811 2.92621 -3.36584 0
M  V30 160 C 13.512 2.26868 -5.35636 0
M  V30 161 N 12.488 2.65677 -4.74254 0
M  V30 162 H 16.29 1.02884 -2.75304 0
M  V30 163 H 13.804 0.473157 -1.55354 0
M  V30 164 H 15.801 3.45685 -2.33039 0
M  V30 165 H 14.461 2.99802 -1.24694 0
M  V30 166 H 15.472 1.95769 -4.79474 0
M  V30 167 H 12.149 3.2824 -2.58002 0
M  V30 168 H 13.539 2.00254 -6.41364 0
M  V30 169 N 16.2591 1.48442 0.529413 0
M  V30 170 C 17.2071 1.63452 1.65487 0
M  V30 171 C 18.2011 0.500955 1.61823 0
M  V30 172 O 19.4071 0.679695 1.66674 0
M  V30 173 H 15.7821 0.514905 0.548066 0
M  V30 174 H 17.7531 2.57975 1.49971 0
M  V30 175 C 16.5021 1.69196 3.03756 0
M  V30 176 H 15.8251 2.55784 3.07269 0
M  V30 177 H 17.2651 1.83743 3.82119 0
M  V30 178 C 15.7241 0.430765 3.34135 0
M  V30 179 O 16.2541 -0.4561 3.99102 0
M  V30 180 N 14.4601 0.302293 2.89023 0
M  V30 181 H 14.0071 1.02496 2.36331 0
M  V30 182 H 13.9651 -0.540546 3.09718 0
M  V30 183 N 17.7372 -0.778329 1.37039 0
M  V30 184 C 18.7002 -1.87301 1.32102 0
M  V30 185 C 19.7002 -1.59198 0.226405 0
M  V30 186 O 20.8902 -1.67403 0.481861 0
M  V30 187 C 18.0222 -3.24309 1.05055 0
M  V30 188 H 19.2152 -1.93093 2.29467 0
M  V30 189 H 16.7682 -0.977358 1.21973 0
M  V30 190 H 17.5032 -3.24196 0.0819373 0
M  V30 191 H 17.2882 -3.46098 1.84279 0
M  V30 192 H 18.7782 -4.04382 1.04234 0
M  V30 193 N 19.2153 -1.21501 -1.00376 0
M  V30 194 C 20.4613 -1.03452 -1.74429 0
M  V30 195 C 20.7943 0.430764 -1.89362 0
M  V30 196 O 20.0693 1.31962 -1.42886 0
M  V30 197 C 20.3523 -1.73375 -3.15615 0
M  V30 198 C 20.2053 -3.27431 -3.08397 0
M  V30 199 C 21.5243 -1.47732 -4.14564 0
M  V30 200 H 18.6433 -0.377226 -0.633143 0
M  V30 201 H 21.2853 -1.49693 -1.17013 0
M  V30 202 H 19.4353 -1.34064 -3.64636 0
M  V30 203 H 21.1073 -3.76119 -2.67081 0
M  V30 204 H 19.3503 -3.5767 -2.45468 0
M  V30 205 H 20.0213 -3.71524 -4.08258 0
M  V30 206 H 22.4973 -1.8186 -3.74254 0
M  V30 207 H 21.3733 -1.99169 -5.11491 0
M  V30 208 H 21.6343 -0.407589 -4.40217 0
M  V30 209 N 20.6934 1.19889 -1.02296 0
M  V30 210 C 21.9394 1.89701 -0.717033 0
M  V30 211 C 22.2724 1.7905 0.751989 0
M  V30 212 O 21.5474 1.17891 1.547 0
M  V30 213 C 21.8304 3.40858 -1.16136 0
M  V30 214 C 21.6834 3.60411 -2.69117 0
M  V30 215 C 23.0024 4.33876 -0.737549 0
M  V30 216 H 20.1214 0.688874 -0.261957 0
M  V30 217 H 22.7634 1.41154 -1.27183 0
M  V30 218 H 20.9134 3.82335 -0.689342 0
M  V30 219 H 22.5854 3.28145 -3.2422 0
M  V30 220 H 20.8284 3.03665 -3.0979 0
M  V30 221 H 21.4994 4.66396 -2.95261 0
M  V30 222 H 23.9754 4.00081 -1.14344 0
M  V30 223 H 22.8514 5.38242 -1.0764 0
M  V30 224 H 23.1124 4.40628 0.360436 0
M  V30 225 N 22.1715 0.800033 1.35784 0
M  V30 226 C 23.1345 0.211565 2.28221 0
M  V30 227 C 24.1345 -0.59728 1.49296 0
M  V30 228 O 25.3245 -0.416721 1.69142 0
M  V30 229 C 22.4565 -0.705846 3.33513 0
M  V30 230 H 23.6495 1.02677 2.81776 0
M  V30 231 H 21.2025 0.570211 1.45528 0
M  V30 232 H 21.9375 -1.54498 2.85133 0
M  V30 233 H 21.7225 -0.127655 3.91892 0
M  V30 234 H 23.2125 -1.11211 4.02519 0
M  V30 235 N 23.6496 -1.47581 0.552962 0
M  V30 236 C 25.0606 -1.86324 0.118463 0
M  V30 237 C 25.4116 -1.46006 -1.3106 0
M  V30 238 O 24.5366 -0.861182 -1.98526 0
M  V30 239 C 25.1316 -3.3816 0.20821 0
M  V30 240 C 23.6906 -3.7601 -0.171226 0
M  V30 241 C 22.8376 -2.71634 0.557686 0
M  V30 242 H 25.7886 -1.39159 0.762928 0
M  V30 243 H 25.8096 -3.76141 -0.574278 0
M  V30 244 H 25.3216 -3.67473 1.24841 0
M  V30 245 H 23.4226 -3.52313 -1.21269 0
M  V30 246 H 23.5356 -4.78745 0.184379 0
M  V30 247 H 21.8996 -2.547 0.00125792 0
M  V30 248 H 22.6826 -3.0379 1.59896 0
M  V30 249 N 25.1277 -0.289203 -1.54924 0
M  V30 250 C 26.3577 0.325989 -2.04012 0
M  V30 251 C 26.7657 1.48961 -1.1665 0
M  V30 252 O 26.1087 1.82794 -0.1822 0
M  V30 253 C 26.1707 0.856112 -3.49158 0
M  V30 254 C 25.8347 -0.180697 -4.56643 0
M  V30 255 C 26.8317 -1.0051 -5.10092 0
M  V30 256 C 24.5167 -0.318998 -5.01286 0
M  V30 257 C 26.5107 -1.95385 -6.06715 0
M  V30 258 C 24.1977 -1.27121 -5.97732 0
M  V30 259 C 25.1957 -2.08713 -6.50329 0
M  V30 260 O 24.8837 -3.02322 -7.44887 0
M  V30 261 H 24.6157 0.0765276 -0.671654 0
M  V30 262 H 27.1697 -0.423254 -2.00992 0
M  V30 263 H 25.3997 1.65567 -3.49463 0
M  V30 264 H 27.0887 1.38591 -3.81507 0
M  V30 265 H 27.8547 -0.90906 -4.76404 0
M  V30 266 H 23.7337 0.306108 -4.59983 0
M  V30 267 H 27.2777 -2.59111 -6.47694 0
M  V30 268 H 23.1747 -1.36801 -6.30837 0
M  V30 269 H 23.9427 -2.97165 -7.6265 0
M  V30 270 N 26.6058 1.57591 -0.0167156 0
M  V30 271 C 27.8518 1.91567 0.665582 0
M  V30 272 C 28.1848 0.892298 1.72487 0
M  V30 273 O 27.4598 -0.0867127 1.94307 0
M  V30 274 C 27.7428 3.36069 1.29342 0
M  V30 275 C 27.5958 4.49135 0.244541 0
M  V30 276 C 28.9148 3.803 2.21495 0
M  V30 277 H 26.0338 0.69666 0.240488 0
M  V30 278 H 28.6758 1.89866 -0.0714356 0
M  V30 279 H 26.8258 3.3765 1.92158 0
M  V30 280 H 28.4978 4.59689 -0.385228 0
M  V30 281 H 26.7408 4.3165 -0.431379 0
M  V30 282 H 27.4118 5.47242 0.723207 0
M  V30 283 H 29.8878 3.80377 1.68678 0
M  V30 284 H 28.7638 4.82127 2.62382 0
M  V30 285 H 29.0248 3.15104 3.101 0
M  V30 286 N 28.0839 -0.256276 1.55502 0
M  V30 287 C 29.4999 -0.604325 1.47716 0
M  V30 288 C 29.6999 -1.88763 0.705039 0
M  V30 289 O 28.7559 -2.51445 0.230613 0
M  V30 290 C 30.0689 -0.715756 2.92057 0
M  V30 291 C 31.6169 -0.808706 3.02372 0
M  V30 292 C 32.0919 -0.951777 4.48001 0
M  V30 293 N 33.5829 -1.01688 4.519 0
M  V30 294 C 34.3179 -1.14668 5.61817 0
M  V30 295 N 33.8139 -1.24261 6.81565 0
M  V30 296 N 35.6069 -1.1791 5.49594 0
M  V30 297 H 27.7579 0.586291 2.04148 0
M  V30 298 H 30.0209 0.201015 0.926443 0
M  V30 299 H 29.7269 0.157027 3.51349 0
M  V30 300 H 29.6009 -1.59071 3.42018 0
M  V30 301 H 31.9879 -1.67195 2.43166 0
M  V30 302 H 32.0689 0.0912063 2.55637 0
M  V30 303 H 31.7129 -0.0931291 5.07815 0
M  V30 304 H 31.6429 -1.86659 4.92408 0
M  V30 305 H 34.1339 -0.954468 3.65648 0
M  V30 306 H 34.4469 -1.34046 7.61086 0
M  V30 307 H 32.7919 -1.21236 6.84344 0
M  V30 308 H 35.9829 -1.10057 4.54978 0
M  V30 309 H 36.1559 -1.27681 6.35296 0
M  V30 310 N 29.562 -1.4872 -0.521534 0
M  V30 311 C 30.512 -1.60269 -1.62166 0
M  V30 312 C 31.496 -0.45935 -1.54204 0
M  V30 313 O 32.688 -0.711241 -1.62081 0
M  V30 314 C 29.817 -1.65344 -3.00859 0
M  V30 315 C 28.903 -2.85187 -3.13894 0
M  V30 316 N 29.294 -4.09509 -2.96877 0
M  V30 317 C 27.592 -2.82695 -3.44963 0
M  V30 318 C 28.293 -4.89959 -3.13552 0
M  V30 319 N 27.269 -4.22934 -3.41508 0
M  V30 320 H 31.071 -2.5413 -1.47632 0
M  V30 321 H 28.585 -1.45209 -0.727194 0
M  V30 322 H 30.582 -1.71713 -3.79895 0
M  V30 323 H 29.242 -0.726058 -3.16478 0
M  V30 324 H 30.253 -4.39814 -2.73467 0
M  V30 325 H 26.93 -1.99249 -3.66887 0
M  V30 326 H 28.32 -5.98654 -3.05061 0
M  V30 327 N 31.0401 0.771051 -1.3745 0
M  V30 328 C 32.2801 1.54264 -1.34096 0
M  V30 329 C 32.6441 1.91858 0.0737639 0
M  V30 330 O 33.8451 2.67797 0.23203 0
M  V30 331 C 32.1161 2.77326 -2.25445 0
M  V30 332 S 33.6751 3.67383 -2.39948 0
M  V30 333 H 30.4931 0.528122 -0.476034 0
M  V30 334 H 33.0951 0.906633 -1.73206 0
M  V30 335 H 31.7991 2.47788 -3.27153 0
M  V30 336 H 31.3301 3.45886 -1.87421 0
M  V30 337 H 33.3451 4.69334 -1.61059 0
M  V30 338 N 32.5182 1.22032 0.997298 0
M  V30 339 C 33.7662 1.04016 1.73278 0
M  V30 340 C 34.0872 -0.426255 1.90284 0
M  V30 341 O 33.3572 -1.30694 1.45931 0
M  V30 342 H 31.9372 0.381897 0.642 0
M  V30 343 H 34.5992 1.5347 1.20137 0
M  V30 344 H 33.6952 1.51441 2.72896 0
M  V30 345 N 33.9963 -1.19345 1.0293 0
M  V30 346 C 35.2423 -1.89318 0.727083 0
M  V30 347 C 35.5753 -1.79446 -0.742483 0
M  V30 348 O 34.8503 -1.1871 -1.54072 0
M  V30 349 C 35.1333 -3.40238 1.17942 0
M  V30 350 C 34.9863 -3.58979 2.71024 0
M  V30 351 C 36.3053 -4.33479 0.760548 0
M  V30 352 H 33.4243 -0.687475 0.265606 0
M  V30 353 H 36.0663 -1.40477 1.2793 0
M  V30 354 H 34.2163 -3.81964 0.709608 0
M  V30 355 H 35.8883 -3.26421 3.25955 0
M  V30 356 H 34.1313 -3.02018 3.11396 0
M  V30 357 H 34.8023 -4.64823 2.9773 0
M  V30 358 H 37.2783 -3.99469 1.16464 0
M  V30 359 H 36.1543 -5.37664 1.10493 0
M  V30 360 H 36.4153 -4.40813 -0.337063 0
M  V30 361 N 35.4744 -0.807222 -1.35358 0
M  V30 362 C 36.4244 -0.190706 -2.27201 0
M  V30 363 C 37.4084 0.635838 -1.47804 0
M  V30 364 O 38.6004 0.492991 -1.69996 0
M  V30 365 C 35.7294 0.659337 -3.36909 0
M  V30 366 C 34.8154 -0.176971 -4.23731 0
M  V30 367 N 35.2064 -1.24029 -4.90357 0
M  V30 368 C 33.5044 0.0412953 -4.45981 0
M  V30 369 C 34.2054 -1.75092 -5.54723 0
M  V30 370 N 33.1814 -1.05727 -5.33219 0
M  V30 371 H 36.9834 -1.0043 -2.76208 0
M  V30 372 H 34.4974 -0.648445 -1.48892 0
M  V30 373 H 36.4944 1.11706 -4.01656 0
M  V30 374 H 35.1544 1.47127 -2.89454 0
M  V30 375 H 36.1654 -1.62295 -4.91814 0
M  V30 376 H 32.8424 0.82232 -4.09322 0
M  V30 377 H 34.2324 -2.63963 -6.17878 0
M  V30 378 N 36.9525 1.47285 -0.560781 0
M  V30 379 C 37.8995 2.30058 0.18491 0
M  V30 380 C 38.8695 1.39281 0.904986 0
M  V30 381 O 40.0545 1.68241 0.899979 0
M  V30 382 C 37.1945 3.23317 1.20666 0
M  V30 383 C 36.3075 4.29186 0.492285 0
M  V30 384 C 35.4425 5.09592 1.49964 0
M  V30 385 C 34.4815 6.07232 0.770439 0
M  V30 386 N 33.6185 6.80584 1.72479 0
M  V30 387 H 38.4585 2.93302 -0.527048 0
M  V30 388 H 35.9955 1.44568 -0.271738 0
M  V30 389 H 37.9535 3.75811 1.81168 0
M  V30 390 H 36.5835 2.61929 1.88661 0
M  V30 391 H 35.6355 3.7972 -0.227333 0
M  V30 392 H 36.9475 4.98738 -0.0787929 0
M  V30 393 H 36.1015 5.66254 2.17809 0
M  V30 394 H 34.8405 4.3995 2.10464 0
M  V30 395 H 33.8455 5.49745 0.0780846 0
M  V30 396 H 35.0705 6.78884 0.171134 0
M  V30 397 H 33.0165 6.1367 2.3183 0
M  V30 398 H 32.9335 7.46319 1.20596 0
M  V30 399 H 34.2015 7.41818 2.39428 0
M  V30 400 N 38.4306 0.297415 1.54768 0
M  V30 401 C 39.6766 -0.313376 2.00364 0
M  V30 402 C 40.0096 -1.53815 1.18553 0
M  V30 403 O 39.2846 -1.92739 0.261103 0
M  V30 404 C 39.5676 -0.673525 3.53745 0
M  V30 405 C 39.4206 0.560133 4.46299 0
M  V30 406 C 40.7396 -1.50143 4.13697 0
M  V30 407 H 37.8586 -0.112428 0.728374 0
M  V30 408 H 40.5006 0.4088 1.8555 0
M  V30 409 H 38.6506 -1.28881 3.665 0
M  V30 410 H 40.3226 1.19863 4.45455 0
M  V30 411 H 38.5656 1.19405 4.17043 0
M  V30 412 H 39.2366 0.26405 5.51368 0
M  V30 413 H 41.7126 -0.981588 4.04356 0
M  V30 414 H 40.5886 -1.72221 5.21182 0
M  V30 415 H 40.8496 -2.48952 3.65343 0
M  V30 416 N 39.9087 -1.5758 0.0250728 0
M  V30 417 C 41.1567 -1.91255 -0.653151 0
M  V30 418 C 41.4777 -0.901691 -1.729 0
M  V30 419 O 40.7477 0.0573785 -1.95816 0
M  V30 420 H 39.3277 -0.705942 -0.244243 0
M  V30 421 H 41.9897 -1.94767 0.0719209 0
M  V30 422 H 41.0857 -2.91752 -1.10847 0
M  V30 423 N 41.3868 0.248026 -1.55636 0
M  V30 424 C 42.6148 0.993808 -1.81469 0
M  V30 425 C 43.0298 1.78991 -0.60064 0
M  V30 426 O 42.3868 1.77345 0.430682 0
M  V30 427 C 42.4378 1.93258 -3.05506 0
M  V30 428 O 42.1588 1.16869 -4.22224 0
M  V30 429 C 43.6598 2.79444 -3.4413 0
M  V30 430 H 40.8798 0.292486 -0.603898 0
M  V30 431 H 43.4238 0.271253 -2.02693 0
M  V30 432 H 41.5788 2.60943 -2.86335 0
M  V30 433 H 41.9928 1.80359 -4.92515 0
M  V30 434 H 43.4668 3.41066 -4.34026 0
M  V30 435 H 43.9438 3.50499 -2.64665 0
M  V30 436 H 44.5498 2.17214 -3.65648 0
M  V30 437 N 42.8649 1.48995 0.513639 0
M  V30 438 C 44.1419 1.48338 1.27495 0
M  V30 439 C 44.5219 0.204065 2.10111 0
M  V30 440 O 43.8699 -0.813881 2.13514 0
M  V30 441 C 44.0799 2.75498 2.14247 0
M  V30 442 C 45.4279 3.24484 2.73852 0
M  V30 443 O 46.4519 2.76528 2.24523 0
M  V30 444 O 45.3109 4.07974 3.6362 0
M  V30 445 H 42.4049 0.593149 0.576284 0
M  V30 446 H 44.9509 1.61246 0.528948 0
M  V30 447 H 43.7229 3.60109 1.53092 0
M  V30 448 H 43.3459 2.6539 2.96064 0
M  V30 449 N 44.343 -0.763751 1.37857 0
M  V30 450 C 45.591 -1.51957 1.33243 0
M  V30 451 C 45.912 -1.94835 -0.0801709 0
M  V30 452 O 45.182 -1.66894 -1.02582 0
M  V30 453 H 43.762 -0.563626 0.49024 0
M  V30 454 H 46.424 -0.908504 1.7243 0
M  V30 455 H 45.52 -2.41523 1.97669 0
M  V30 456 N 45.8211 -1.22559 -0.990812 0
M  V30 457 C 47.0671 -1.05297 -1.73322 0
M  V30 458 C 47.4001 0.410655 -1.89808 0
M  V30 459 O 46.6751 1.30439 -1.44277 0
M  V30 460 C 46.9581 -1.76713 -3.13759 0
M  V30 461 C 46.8111 -3.30684 -3.04907 0
M  V30 462 C 48.1301 -1.52121 -4.12974 0
M  V30 463 H 45.2491 -0.38392 -0.629106 0
M  V30 464 H 47.8911 -1.50926 -1.15418 0
M  V30 465 H 46.0411 -1.37924 -3.63193 0
M  V30 466 H 47.7131 -3.7893 -2.63077 0
M  V30 467 H 45.9561 -3.60253 -2.41661 0
M  V30 468 H 46.6271 -3.75833 -4.04294 0
M  V30 469 H 49.1031 -1.85819 -3.72304 0
M  V30 470 H 47.9791 -2.04582 -5.0935 0
M  V30 471 H 48.2401 -0.454257 -4.3976 0
M  V30 472 N 47.2992 1.18797 -1.03562 0
M  V30 473 C 48.5452 1.8893 -0.737113 0
M  V30 474 C 48.8782 1.79837 0.732956 0
M  V30 475 O 48.1532 1.19525 1.5344 0
M  V30 476 C 48.4362 3.39607 -1.19745 0
M  V30 477 C 48.2892 3.57537 -2.72924 0
M  V30 478 C 49.6082 4.33069 -0.783526 0
M  V30 479 H 46.7272 0.686057 -0.269249 0
M  V30 480 H 49.3692 1.39797 -1.28673 0
M  V30 481 H 47.5192 3.81583 -0.729855 0
M  V30 482 H 49.1912 3.24688 -3.27682 0
M  V30 483 H 47.4342 3.00363 -3.12993 0
M  V30 484 H 48.1052 4.63238 -3.00191 0
M  V30 485 H 50.5812 3.98846 -1.18581 0
M  V30 486 H 49.4572 5.3707 -1.13343 0
M  V30 487 H 49.7182 4.40986 0.313681 0
M  V30 488 N 48.7773 0.814389 1.34928 0
M  V30 489 C 49.7253 0.218424 2.31572 0
M  V30 490 C 50.7193 -0.636128 1.57002 0
M  V30 491 O 51.9253 -0.52842 1.72069 0
M  V30 492 H 48.3003 0.0518799 0.750208 0
M  V30 493 H 50.2713 1.04852 2.79372 0
M  V30 494 C 49.0203 -0.61207 3.4227 0
M  V30 495 H 48.3433 0.0361578 3.99784 0
M  V30 496 H 49.7833 -0.995317 4.12152 0
M  V30 497 C 48.2423 -1.78087 2.85984 0
M  V30 498 O 48.7723 -2.8787 2.80168 0
M  V30 499 N 46.9783 -1.59488 2.42924 0
M  V30 500 H 46.5253 -0.701874 2.47854 0
M  V30 501 H 46.4833 -2.37846 2.05613 0
M  V30 502 N 50.2554 -1.46986 0.568584 0
M  V30 503 C 51.2024 -2.30153 -0.172707 0
M  V30 504 C 52.1724 -1.39759 -0.897586 0
M  V30 505 O 53.3574 -1.68716 -0.891044 0
M  V30 506 C 50.4974 -3.23952 -1.1895 0
M  V30 507 C 49.6104 -4.29441 -0.469517 0
M  V30 508 C 48.7454 -5.1038 -1.47259 0
M  V30 509 C 47.7844 -6.07632 -0.738225 0
M  V30 510 N 46.9214 -6.8149 -1.68868 0
M  V30 511 H 51.7614 -2.93019 0.542596 0
M  V30 512 H 49.2984 -1.44422 0.279401 0
M  V30 513 H 51.2564 -3.76767 -1.79173 0
M  V30 514 H 49.8864 -2.62926 -1.87269 0
M  V30 515 H 48.9384 -3.79594 0.247467 0
M  V30 516 H 50.2504 -4.98689 0.105241 0
M  V30 517 H 49.4044 -5.67402 -2.14803 0
M  V30 518 H 48.1434 -4.4106 -2.08128 0
M  V30 519 H 47.1484 -5.49778 -0.0489293 0
M  V30 520 H 48.3734 -6.78966 -0.135129 0
M  V30 521 H 46.3194 -6.14891 -2.28573 0
M  V30 522 H 46.2364 -7.46948 -1.16636 0
M  V30 523 H 47.5044 -7.43078 -2.3549 0
M  V30 524 N 51.7335 -0.305618 -1.54608 0
M  V30 525 C 52.9805 0.302298 -2.00231 0
M  V30 526 C 53.3085 1.5354 -1.19398 0
M  V30 527 O 52.5635 1.93973 -0.259423 0
M  V30 528 C 52.8625 0.698983 -3.50498 0
M  V30 529 C 52.5285 -0.432903 -4.48817 0
M  V30 530 C 51.1905 -0.743622 -4.75419 0
M  V30 531 C 53.5425 -1.19409 -5.07337 0
M  V30 532 C 50.8705 -1.81857 -5.57804 0
M  V30 533 C 53.2225 -2.25899 -5.90891 0
M  V30 534 C 51.8865 -2.57572 -6.15803 0
M  V30 535 H 51.1565 0.110619 -0.732697 0
M  V30 536 H 53.8035 -0.425674 -1.86709 0
M  V30 537 H 52.1085 1.50711 -3.61654 0
M  V30 538 H 53.8055 1.1806 -3.83227 0
M  V30 539 H 50.3955 -0.18063 -4.28219 0
M  V30 540 H 54.5795 -0.967295 -4.86782 0
M  V30 541 H 49.8355 -2.06864 -5.75341 0
M  V30 542 H 54.0095 -2.85335 -6.35261 0
M  V30 543 H 51.6365 -3.40998 -6.7943 0
M  V30 544 N 53.2116 1.57565 -0.0334293 0
M  V30 545 C 54.4886 1.83282 0.683163 0
M  V30 546 C 54.8686 0.91823 1.90084 0
M  V30 547 O 54.2166 -0.025113 2.28486 0
M  V30 548 C 54.4266 3.32599 1.0573 0
M  V30 549 C 55.7746 3.99179 1.44711 0
M  V30 550 O 56.7986 3.3712 1.15015 0
M  V30 551 O 55.6576 5.08565 2.0006 0
M  V30 552 H 52.7516 0.755869 0.335546 0
M  V30 553 H 55.2976 1.69589 -0.0614402 0
M  V30 554 H 54.0696 3.90834 0.190828 0
M  V30 555 H 53.6926 3.51415 1.85993 0
M  V30 556 N 54.6897 -0.239769 1.55765 0
M  V30 557 C 55.9387 -0.964754 1.77131 0
M  V30 558 C 56.2517 -1.86213 0.59868 0
M  V30 559 O 57.4577 -2.6244 0.695522 0
M  V30 560 C 55.9137 -1.76552 3.1362 0
M  V30 561 C 55.5217 -0.915185 4.38553 0
M  V30 562 C 57.2657 -2.48281 3.44321 0
M  V30 563 C 55.1727 -1.71225 5.66071 0
M  V30 564 H 54.1027 -0.363953 0.660344 0
M  V30 565 H 56.7537 -0.219181 1.82186 0
M  V30 566 H 55.1357 -2.55331 3.02691 0
M  V30 567 H 56.3097 -0.169217 4.60489 0
M  V30 568 H 54.6247 -0.310889 4.15238 0
M  V30 569 H 57.2217 -3.08382 4.36812 0
M  V30 570 H 57.5647 -3.20256 2.65973 0
M  V30 571 H 58.0977 -1.76507 3.56497 0
M  V30 572 H 54.8367 -1.03612 6.4726 0
M  V30 573 H 54.3567 -2.43331 5.48224 0
M  V30 574 H 56.0357 -2.27758 6.05587 0
M  V30 575 N 56.1678 -1.49265 -0.50573 0
M  V30 576 C 57.5838 -1.35923 -0.836486 0
M  V30 577 C 57.7838 -0.388704 -1.97715 0
M  V30 578 O 56.8398 0.181336 -2.51848 0
M  V30 579 C 58.1528 -2.76531 -1.18115 0
M  V30 580 C 59.7008 -2.85197 -1.28964 0
M  V30 581 C 60.1758 -4.26561 -1.66761 0
M  V30 582 N 61.6668 -4.2935 -1.73819 0
M  V30 583 C 62.4018 -5.35693 -2.045 0
M  V30 584 N 61.8978 -6.52287 -2.33438 0
M  V30 585 N 63.6908 -5.23105 -2.05711 0
M  V30 586 H 55.8418 -2.10965 0.246519 0
M  V30 587 H 58.1048 -0.9468 0.0476887 0
M  V30 588 H 57.8108 -3.49226 -0.416398 0
M  V30 589 H 57.6848 -3.11599 -2.1257 0
M  V30 590 H 60.0718 -2.12742 -2.04511 0
M  V30 591 H 60.1528 -2.53718 -0.325704 0
M  V30 592 H 59.7968 -4.99541 -0.917656 0
M  V30 593 H 59.7268 -4.55502 -2.64246 0
M  V30 594 H 62.2178 -3.4526 -1.53635 0
M  V30 595 H 62.5308 -7.29158 -2.56024 0
M  V30 596 H 60.8758 -6.55521 -2.30905 0
M  V30 597 H 64.0668 -4.31026 -1.82577 0
M  V30 598 H 64.2398 -6.06078 -2.29289 0
M  V30 599 N 57.6459 0.756429 -1.3826 0
M  V30 600 C 58.8929 1.51547 -1.34312 0
M  V30 601 C 59.2209 1.94382 0.0677144 0
M  V30 602 O 58.4759 1.65514 1.04421 0
M  V30 603 C 58.7749 2.78313 -2.24224 0
M  V30 604 C 58.4409 2.54455 -3.72241 0
M  V30 605 C 57.1029 2.47657 -4.12576 0
M  V30 606 C 59.4549 2.3354 -4.65949 0
M  V30 607 C 56.7829 2.17956 -5.44713 0
M  V30 608 C 59.1349 2.05359 -5.9834 0
M  V30 609 C 57.7989 1.97016 -6.37762 0
M  V30 610 H 57.0689 0.55455 -0.491482 0
M  V30 611 H 59.7159 0.870039 -1.70595 0
M  V30 612 H 58.0209 3.47492 -1.80987 0
M  V30 613 H 59.7179 3.36259 -2.18474 0
M  V30 614 H 56.3079 2.60616 -3.40261 0
M  V30 615 H 60.4919 2.37772 -4.35635 0
M  V30 616 H 55.7479 2.10003 -5.74203 0
M  V30 617 H 59.9219 1.88179 -6.70494 0
M  V30 618 H 57.5489 1.73766 -7.40074 0
M  V30 619 N 59.124 1.23083 0.984299 0
M  V30 620 C 60.364 1.07226 1.74017 0
M  V30 621 C 60.728 -0.384766 1.88105 0
M  V30 622 O 61.929 -0.664411 2.60459 0
M  V30 623 C 60.2 1.77348 3.10294 0
M  V30 624 S 61.759 1.77014 4.01512 0
M  V30 625 H 58.577 0.383819 0.598502 0
M  V30 626 H 61.179 1.56158 1.17622 0
M  V30 627 H 59.883 2.82506 2.97689 0
M  V30 628 H 59.414 1.28682 3.71759 0
M  V30 629 H 61.429 0.825956 4.89277 0
M  V30 630 N 60.6021 -1.18246 1.0419 0
M  V30 631 C 61.5341 -2.2142 0.592088 0
M  V30 632 C 62.5471 -1.59233 -0.338909 0
M  V30 633 O 63.7361 -1.78002 -0.133231 0
M  V30 634 C 60.8361 -3.38546 -0.154854 0
M  V30 635 C 60.0091 -4.3031 0.784328 0
M  V30 636 C 59.0681 -5.26138 0.0804583 0
M  V30 637 O 58.0941 -5.64738 0.711292 0
M  V30 638 N 59.2961 -5.68261 -1.18574 0
M  V30 639 H 62.0611 -2.60636 1.47949 0
M  V30 640 H 59.6221 -1.33044 0.922544 0
M  V30 641 H 61.6141 -3.99678 -0.635606 0
M  V30 642 H 60.1841 -2.98012 -0.943811 0
M  V30 643 H 59.4041 -3.66764 1.44491 0
M  V30 644 H 60.6921 -4.8852 1.42218 0
M  V30 645 H 60.0901 -5.38957 -1.71876 0
M  V30 646 H 58.6471 -6.31584 -1.61074 0
M  V30 647 N 62.0802 -0.821533 -1.34494 0
M  V30 648 C 63.4912 -0.467956 -1.8074 0
M  V30 649 C 63.8422 1.01151 -1.68116 0
M  V30 650 O 62.9672 1.78707 -1.22036 0
M  V30 651 C 63.5622 -0.842627 -3.28154 0
M  V30 652 C 62.1212 -0.541439 -3.72485 0
M  V30 653 C 61.2682 -1.06028 -2.56229 0
M  V30 654 H 64.2192 -1.01183 -1.22261 0
M  V30 655 H 64.2402 -0.145876 -3.8022 0
M  V30 656 H 63.7522 -1.91945 -3.37311 0
M  V30 657 H 61.8532 0.526034 -3.68868 0
M  V30 658 H 61.9662 -1.08453 -4.66663 0
M  V30 659 H 60.3302 -0.481892 -2.501 0
M  V30 660 H 61.1132 -2.14352 -2.68157 0
M  V30 661 N 63.5583 1.46682 -0.576371 0
M  V30 662 C 64.5063 2.31953 0.17335 0
M  V30 663 C 65.5003 1.44098 0.89062 0
M  V30 664 O 66.7063 1.60759 0.809728 0
M  V30 665 H 63.0813 0.748273 0.0747727 0
M  V30 666 H 65.0523 2.93007 -0.564738 0
M  V30 667 C 63.8013 3.27142 1.17786 0
M  V30 668 H 63.1243 3.94719 0.635361 0
M  V30 669 H 64.5643 3.896 1.67296 0
M  V30 670 C 63.0233 2.52036 2.23561 0
M  V30 671 O 63.5533 2.27877 3.3081 0
M  V30 672 N 61.7593 2.12709 1.97998 0
M  V30 673 H 61.3063 2.32557 1.10792 0
M  V30 674 H 61.2643 1.62776 2.68982 0
M  V30 675 N 65.0364 0.313813 1.54444 0
M  V30 676 C 65.9834 -0.55655 2.23989 0
M  V30 677 C 66.9534 -1.11943 1.22711 0
M  V30 678 O 68.1384 -1.16158 1.51367 0
M  V30 679 C 65.2784 -1.71635 2.99392 0
M  V30 680 C 64.3914 -1.18364 4.15468 0
M  V30 681 C 63.5264 -2.30834 4.78424 0
M  V30 682 C 62.5654 -1.74762 5.86622 0
M  V30 683 N 61.7024 -2.80855 6.43479 0
M  V30 684 H 66.5424 0.0430893 2.97969 0
M  V30 685 H 64.0794 0.0330359 1.47063 0
M  V30 686 H 66.0374 -2.39868 3.41349 0
M  V30 687 H 64.6674 -2.28742 2.27765 0
M  V30 688 H 63.7194 -0.393163 3.78363 0
M  V30 689 H 65.0314 -0.733262 4.93381 0
M  V30 690 H 64.1854 -3.0699 5.23299 0
M  V30 691 H 62.9244 -2.79204 3.99871 0
M  V30 692 H 61.9294 -0.970995 5.41158 0
M  V30 693 H 63.1544 -1.2728 6.67066 0
M  V30 694 H 61.1004 -3.28535 5.67804 0
M  V30 695 H 61.0174 -2.40351 7.16776 0
M  V30 696 H 62.2854 -3.5687 6.93011 0
M  V30 697 N 66.5145 -1.57545 0.0417849 0
M  V30 698 C 67.4465 -2.07904 -0.964799 0
M  V30 699 C 68.4595 -1.00497 -1.28079 0
M  V30 700 O 69.6485 -1.28087 -1.24322 0
M  V30 701 C 66.7485 -2.49928 -2.28887 0
M  V30 702 C 65.9215 -3.80562 -2.15619 0
M  V30 703 C 64.9805 -4.08999 -3.31069 0
M  V30 704 O 64.0065 -4.79061 -3.0739 0
M  V30 705 N 65.2085 -3.6017 -4.55256 0
M  V30 706 H 67.9735 -2.94886 -0.535029 0
M  V30 707 H 65.5345 -1.61252 -0.144681 0
M  V30 708 H 67.5265 -2.66034 -3.04972 0
M  V30 709 H 66.0965 -1.68245 -2.63463 0
M  V30 710 H 65.3165 -3.74129 -1.24183 0
M  V30 711 H 66.6045 -4.66126 -2.03971 0
M  V30 712 H 66.0025 -3.03512 -4.77386 0
M  V30 713 H 64.5595 -3.81532 -5.28466 0
M  V30 714 N 67.9926 0.231505 -1.5589 0
M  V30 715 C 68.9556 1.27028 -1.90779 0
M  V30 716 C 69.9556 1.40308 -0.785507 0
M  V30 717 O 71.1456 1.38744 -1.05336 0
M  V30 718 C 68.2776 2.64566 -2.14983 0
M  V30 719 H 69.4706 0.973017 -2.83677 0
M  V30 720 H 67.0236 0.471486 -1.49019 0
M  V30 721 H 67.7586 2.99406 -1.24604 0
M  V30 722 H 67.5436 2.56305 -2.96732 0
M  V30 723 H 69.0336 3.39543 -2.43105 0
M  V30 724 N 69.4707 1.49531 0.497807 0
M  V30 725 C 70.4037 1.61043 1.6168 0
M  V30 726 C 71.3817 0.459386 1.55976 0
M  V30 727 O 72.5657 0.675358 1.75986 0
M  V30 728 C 69.6927 1.56833 3.00202 0
M  V30 729 C 68.7387 2.77173 3.24156 0
M  V30 730 S 69.5717 4.38808 3.06933 0
M  V30 731 C 70.7277 4.37248 4.47845 0
M  V30 732 H 70.9607 2.55702 1.51671 0
M  V30 733 H 68.4937 1.38462 0.683201 0
M  V30 734 H 70.4517 1.55089 3.80076 0
M  V30 735 H 69.1127 0.634561 3.07623 0
M  V30 736 H 68.3057 2.70456 4.25288 0
M  V30 737 H 67.9077 2.76346 2.5201 0
M  V30 738 H 70.1997 4.09164 5.39992 0
M  V30 739 H 71.1427 5.38668 4.59612 0
M  V30 740 H 71.5507 3.67286 4.28674 0
M  V30 741 N 70.9488 -0.749086 1.3866 0
M  V30 742 C 71.8958 -1.86291 1.36251 0
M  V30 743 C 72.8658 -1.64578 0.224347 0
M  V30 744 O 74.0508 -1.86181 0.417279 0
M  V30 745 C 71.1908 -3.23644 1.19786 0
M  V30 746 C 70.3038 -3.57158 2.43027 0
M  V30 747 C 69.4388 -4.83838 2.19258 0
M  V30 748 C 68.4778 -5.10152 3.38247 0
M  V30 749 N 67.6148 -6.28029 3.13884 0
M  V30 750 H 72.4548 -1.87685 2.3147 0
M  V30 751 H 69.9918 -0.917287 1.14997 0
M  V30 752 H 71.9498 -4.0291 1.08254 0
M  V30 753 H 70.5798 -3.21566 0.282031 0
M  V30 754 H 69.6318 -2.72701 2.65214 0
M  V30 755 H 70.9438 -3.7253 3.31697 0
M  V30 756 H 70.0978 -5.71057 2.04888 0
M  V30 757 H 68.8368 -4.70614 1.2796 0
M  V30 758 H 67.8418 -4.21401 3.53131 0
M  V30 759 H 69.0668 -5.25271 4.30427 0
M  V30 760 H 67.0128 -6.1612 2.25238 0
M  V30 761 H 66.9298 -6.43922 3.96106 0
M  V30 762 H 68.1978 -7.18124 3.03179 0
M  V30 763 N 72.4269 -1.23603 -0.977757 0
M  V30 764 C 73.8379 -1.06424 -1.53398 0
M  V30 765 C 74.1889 0.367578 -1.92726 0
M  V30 766 O 73.3139 1.25465 -1.76316 0
M  V30 767 C 73.9089 -1.92568 -2.78753 0
M  V30 768 C 72.4679 -1.79642 -3.30765 0
M  V30 769 C 71.6149 -1.88111 -2.03739 0
M  V30 770 H 74.5659 -1.37227 -0.797152 0
M  V30 771 H 74.5869 -1.45203 -3.51705 0
M  V30 772 H 74.0989 -2.96771 -2.50098 0
M  V30 773 H 72.1999 -0.782325 -3.64294 0
M  V30 774 H 72.3129 -2.63174 -4.00345 0
M  V30 775 H 70.6769 -1.31723 -2.17994 0
M  V30 776 H 71.4599 -2.93875 -1.77461 0
M  V30 777 N 73.905 1.17692 -1.04816 0
M  V30 778 C 75.182 1.83768 -0.669963 0
M  V30 779 C 75.562 1.93232 0.849986 0
M  V30 780 O 74.91 1.46397 1.75443 0
M  V30 781 C 75.12 3.21641 -1.35455 0
M  V30 782 C 76.468 3.97592 -1.49017 0
M  V30 783 O 77.492 3.31107 -1.31326 0
M  V30 784 O 76.351 5.16729 -1.77914 0
M  V30 785 H 73.445 0.792799 -0.235368 0
M  V30 786 H 75.991 1.25021 -1.14751 0
M  V30 787 H 74.763 3.097 -2.39168 0
M  V30 788 H 74.386 3.88052 -0.866107 0
M  V30 789 N 75.3831 0.828654 1.34056 0
M  V30 790 C 76.6111 0.43262 2.02326 0
M  V30 791 C 77.0261 -0.963147 1.62385 0
M  V30 792 O 76.3831 -1.62425 0.832121 0
M  V30 793 C 76.4341 0.53182 3.57567 0
M  V30 794 O 76.1551 1.87258 3.96063 0
M  V30 795 C 77.6561 0.131422 4.43105 0
M  V30 796 H 74.8761 0.172923 0.648335 0
M  V30 797 H 77.4201 1.1184 1.71208 0
M  V30 798 H 75.5751 -0.105938 3.87255 0
M  V30 799 H 75.9891 1.85087 4.90758 0
M  V30 800 H 77.4631 0.251904 5.51425 0
M  V30 801 H 77.9401 -0.925645 4.29335 0
M  V30 802 H 78.5461 0.743207 4.18756 0
M  V30 803 N 76.8612 -1.46375 0.584142 0
M  V30 804 C 78.1102 -2.01585 0.0679741 0
M  V30 805 C 78.4232 -1.46109 -1.30045 0
M  V30 806 O 79.6292 -1.93148 -1.90804 0
M  V30 807 C 78.0852 -3.5983 0.0709207 0
M  V30 808 C 77.6932 -4.24303 1.43775 0
M  V30 809 C 79.4372 -4.22693 -0.391228 0
M  V30 810 C 77.3442 -5.74631 1.39834 0
M  V30 811 H 76.2742 -0.753689 0.0216421 0
M  V30 812 H 78.9252 -1.68093 0.736001 0
M  V30 813 H 77.3072 -3.90405 -0.663299 0
M  V30 814 H 78.4812 -4.05335 2.19181 0
M  V30 815 H 76.7962 -3.73539 1.84004 0
M  V30 816 H 79.3932 -5.3289 -0.439524 0
M  V30 817 H 79.7362 -3.91728 -1.40906 0
M  V30 818 H 80.2692 -3.96749 0.288974 0
M  V30 819 H 77.0082 -6.10258 2.39303 0
M  V30 820 H 76.5282 -5.95858 0.686505 0
M  V30 821 H 78.2072 -6.37375 1.11187 0
M  V30 822 N 78.3393 -0.321999 -1.54275 0
M  V30 823 C 79.2893 0.560185 -2.21011 0
M  V30 824 C 80.2733 1.08283 -1.19011 0
M  V30 825 O 81.4653 1.02011 -1.44647 0
M  V30 826 C 78.5943 1.72137 -2.97025 0
M  V30 827 C 77.6803 1.21369 -4.06363 0
M  V30 828 N 78.0713 0.425566 -5.04007 0
M  V30 829 C 76.3693 1.49255 -4.20284 0
M  V30 830 C 77.0703 0.152601 -5.815 0
M  V30 831 N 76.0463 0.738294 -5.38563 0
M  V30 832 H 79.8483 -0.049265 -2.93859 0
M  V30 833 H 77.3623 -0.127779 -1.61897 0
M  V30 834 H 79.3593 2.36512 -3.43319 0
M  V30 835 H 78.0193 2.33431 -2.25699 0
M  V30 836 H 79.0303 0.068551 -5.17855 0
M  V30 837 H 75.7073 2.11145 -3.60172 0
M  V30 838 H 77.0973 -0.481764 -6.70171 0
M  V30 839 N 79.8174 1.5752 -0.0501392 0
M  V30 840 C 81.0454 1.96963 0.633492 0
M  V30 841 C 81.4604 0.927631 1.6444 0
M  V30 842 O 80.8174 -0.0882665 1.82286 0
M  V30 843 C 80.8684 3.36487 1.32132 0
M  V30 844 O 80.5894 4.36693 0.350894 0
M  V30 845 C 82.0904 3.90682 2.09481 0
M  V30 846 H 79.3104 0.648244 0.173266 0
M  V30 847 H 81.8544 2.0417 -0.116134 0
M  V30 848 H 80.0094 3.30434 2.02218 0
M  V30 849 H 80.4234 5.17702 0.841735 0
M  V30 850 H 81.8974 4.90591 2.5303 0
M  V30 851 H 82.3744 3.26053 2.94255 0
M  V30 852 H 82.9804 4.00069 1.44307 0
M  V30 853 N 81.2955 -0.223234 1.56011 0
M  V30 854 C 82.2255 -1.27988 1.95298 0
M  V30 855 C 83.2065 -1.48976 0.820979 0
M  V30 856 O 84.3915 -1.61188 1.08315 0
M  V30 857 C 81.5215 -2.63 2.26822 0
M  V30 858 C 80.4755 -2.56671 3.42497 0
M  V30 859 C 79.8015 -3.95697 3.59622 0
M  V30 860 C 81.1015 -2.11601 4.77517 0
M  V30 861 H 82.7955 -0.953525 2.8381 0
M  V30 862 H 80.3415 -0.457244 1.36548 0
M  V30 863 H 82.2945 -3.37077 2.52898 0
M  V30 864 H 81.0185 -2.9732 1.35161 0
M  V30 865 H 79.6775 -1.85051 3.16467 0
M  V30 866 H 79.3255 -4.27322 2.6534 0
M  V30 867 H 79.0255 -3.92345 4.37424 0
M  V30 868 H 80.5495 -4.71438 3.88044 0
M  V30 869 H 81.9635 -2.7542 5.02809 0
M  V30 870 H 80.3605 -2.19311 5.5859 0
M  V30 871 H 81.4305 -1.06824 4.72987 0
M  V30 872 N 82.7736 -1.49793 -0.48987 0
M  V30 873 C 83.6836 -1.70036 -1.61632 0
M  V30 874 C 84.6996 -0.583102 -1.63939 0
M  V30 875 O 85.8756 -0.859169 -1.82154 0
M  V30 876 C 82.9406 -1.77277 -2.97949 0
M  V30 877 C 82.0016 -3.00918 -3.06181 0
M  V30 878 C 81.2346 -3.07804 -4.35996 0
M  V30 879 O 81.4576 -2.21982 -5.25433 0
M  V30 880 O 80.3916 -4.00369 -4.49431 0
M  V30 881 H 84.2176 -2.65486 -1.47482 0
M  V30 882 H 81.8026 -1.33666 -0.667362 0
M  V30 883 H 83.6846 -1.84329 -3.78947 0
M  V30 884 H 82.3596 -0.850076 -3.12339 0
M  V30 885 H 81.2666 -2.99377 -2.2433 0
M  V30 886 H 82.5996 -3.92704 -2.96723 0
M  V30 887 N 84.2517 0.741722 -1.39055 0
M  V30 888 C 85.2017 1.84661 -1.33732 0
M  V30 889 C 86.1857 1.59397 -0.219401 0
M  V30 890 O 87.3777 1.71015 -0.456375 0
M  V30 891 C 84.5067 3.22512 -1.17647 0
M  V30 892 C 83.5927 3.53628 -2.34112 0
M  V30 893 N 83.9837 3.55723 -3.59576 0
M  V30 894 C 82.2817 3.83956 -2.26923 0
M  V30 895 C 82.9827 3.84443 -4.36553 0
M  V30 896 N 81.9587 4.01877 -3.66055 0
M  V30 897 H 85.7607 1.84576 -2.28711 0
M  V30 898 H 83.2747 0.939647 -1.32455 0
M  V30 899 H 85.2717 4.01597 -1.11917 0
M  V30 900 H 83.9317 3.2384 -0.236124 0
M  V30 901 H 84.9427 3.37196 -3.93089 0
M  V30 902 H 81.6197 3.92929 -1.41113 0
M  V30 903 H 83.0097 3.92588 -5.45274 0
M  V30 904 N 85.7298 1.2412 0.971189 0
M  V30 905 C 86.6598 1.05508 2.08304 0
M  V30 906 C 87.6408 -0.0308864 1.70072 0
M  V30 907 O 88.8258 0.135521 1.93727 0
M  V30 908 C 85.9558 0.655365 3.4106 0
M  V30 909 C 84.9098 1.68971 3.93234 0
M  V30 910 C 84.2358 1.14516 5.22293 0
M  V30 911 C 85.5358 3.08487 4.21465 0
M  V30 912 H 87.2298 1.98507 2.24132 0
M  V30 913 H 84.7758 0.955821 1.07704 0
M  V30 914 H 86.7288 0.51217 4.18276 0
M  V30 915 H 85.4528 -0.31032 3.25122 0
M  V30 916 H 84.1118 1.82106 3.18171 0
M  V30 917 H 83.7598 0.170189 5.02712 0
M  V30 918 H 83.4598 1.83635 5.58168 0
M  V30 919 H 84.9838 1.01401 6.02121 0
M  V30 920 H 86.3978 2.98601 4.89398 0
M  V30 921 H 84.7948 3.74926 4.68562 0
M  V30 922 H 85.8648 3.56787 3.28376 0
M  V30 923 N 87.2079 -1.17134 1.05439 0
M  V30 924 C 88.1379 -2.2342 0.678649 0
M  V30 925 C 89.1189 -1.66971 -0.32476 0
M  V30 926 O 90.3039 -1.93149 -0.201802 0
M  V30 927 C 87.4339 -3.47256 0.0552099 0
M  V30 928 C 86.3879 -4.16543 0.98365 0
M  V30 929 C 85.7139 -5.34231 0.223961 0
M  V30 930 C 87.0139 -4.68495 2.3089 0
M  V30 931 H 88.7079 -2.55105 1.56722 0
M  V30 932 H 86.2539 -1.2262 0.754998 0
M  V30 933 H 88.2069 -4.20828 -0.21946 0
M  V30 934 H 86.9309 -3.14846 -0.868319 0
M  V30 935 H 85.5899 -3.44887 1.24293 0
M  V30 936 H 85.2379 -4.98071 -0.702412 0
M  V30 937 H 84.9379 -5.81527 0.842627 0
M  V30 938 H 86.4619 -6.10585 -0.0433671 0
M  V30 939 H 87.8759 -5.33691 2.09396 0
M  V30 940 H 86.2729 -5.26379 2.88176 0
M  V30 941 H 87.3429 -3.85169 2.94572 0
M  V30 942 N 88.686 -0.835752 -1.33615 0
M  V30 943 C 89.649 -0.272 -2.2758 0
M  V30 944 C 90.649 0.557487 -1.50827 0
M  V30 945 O 91.839 0.37173 -1.70188 0
M  V30 946 C 88.971 0.617173 -3.35267 0
M  V30 947 H 90.164 -1.10111 -2.78954 0
M  V30 948 H 87.717 -0.608594 -1.43965 0
M  V30 949 H 88.452 1.46884 -2.89129 0
M  V30 950 H 88.237 0.0237066 -3.92093 0
M  V30 951 H 89.727 1.005 -4.05326 0
M  V30 952 N 90.1641 1.46063 -0.591896 0
M  V30 953 C 91.4111 2.02338 -0.0809991 0
M  V30 954 C 91.7391 1.46228 1.28249 0
M  V30 955 O 90.9941 0.620818 1.85592 0
M  V30 956 C 91.2931 3.57391 0.0249813 0
M  V30 957 C 90.9591 4.32583 -1.27211 0
M  V30 958 C 89.6211 4.52844 -1.62745 0
M  V30 959 C 91.9731 4.75687 -2.13005 0
M  V30 960 C 89.3011 5.13462 -2.83855 0
M  V30 961 C 91.6531 5.37644 -3.3335 0
M  V30 962 C 90.3171 5.5613 -3.69155 0
M  V30 963 H 89.5871 0.740407 -0.0296397 0
M  V30 964 H 92.2341 1.75321 -0.770374 0
M  V30 965 H 90.5391 3.83597 0.797537 0
M  V30 966 H 92.2361 3.98621 0.436184 0
M  V30 967 H 88.8261 4.17116 -0.985499 0
M  V30 968 H 93.0101 4.59782 -1.86855 0
M  V30 969 H 88.2661 5.25965 -3.11722 0
M  V30 970 H 92.4401 5.7 -4.00092 0
M  V30 971 H 90.0671 6.0287 -4.63089 0
M  V30 972 N 91.6422 0.330177 1.54103 0
M  V30 973 C 92.8702 -0.272179 2.05102 0
M  V30 974 C 93.2852 -1.45267 1.20595 0
M  V30 975 O 92.6422 -1.8094 0.238144 0
M  V30 976 C 92.6932 -0.70023 3.54653 0
M  V30 977 O 92.4142 0.433301 4.35952 0
M  V30 978 C 93.9152 -1.3647 4.21771 0
M  V30 979 H 91.1352 -0.0549159 0.668749 0
M  V30 980 H 93.6792 0.478285 1.98828 0
M  V30 981 H 91.8342 -1.40066 3.61193 0
M  V30 982 H 92.2482 0.0947539 5.24414 0
M  V30 983 H 93.7222 -1.61509 5.27843 0
M  V30 984 H 94.1992 -2.31409 3.73292 0
M  V30 985 H 94.8052 -0.706675 4.19388 0
M  V30 986 N 93.1203 -1.57491 0.0584922 0
M  V30 987 C 94.3693 -1.92155 -0.613146 0
M  V30 988 C 94.6823 -0.939334 -1.71569 0
M  V30 989 O 95.8883 -1.17829 -2.44599 0
M  V30 990 C 94.3443 -3.41303 -1.14195 0
M  V30 991 C 93.9523 -4.47944 -0.0711265 0
M  V30 992 C 95.6963 -3.84988 -1.78841 0
M  V30 993 C 93.6033 -5.88212 -0.613225 0
M  V30 994 H 92.5333 -0.717162 -0.232796 0
M  V30 995 H 95.1843 -1.83049 0.12857 0
M  V30 996 H 93.5663 -3.45437 -1.93621 0
M  V30 997 H 94.7403 -4.55408 0.702836 0
M  V30 998 H 93.0553 -4.13644 0.478313 0
M  V30 999 H 95.6523 -4.87159 -2.20408 0
M  V30 1000 H 95.9953 -3.21632 -2.64308 0
M  V30 1001 H 96.5283 -3.83401 -1.06059 0
M  V30 1002 H 93.2673 -6.55183 0.203978 0
M  V30 1003 H 92.7873 -5.84294 -1.35501 0
M  V30 1004 H 94.4663 -6.37687 -1.09383 0
M  V30 1005 N 94.5984 0.214957 -1.56127 0
M  V30 1006 C 96.0144 0.564948 -1.49267 0
M  V30 1007 C 96.2144 1.86827 -0.754838 0
M  V30 1008 O 95.2704 2.50745 -0.297198 0
M  V30 1009 C 96.5834 0.638071 -2.93852 0
M  V30 1010 C 98.1314 0.728253 -3.0441 0
M  V30 1011 C 98.6064 0.832663 -4.50367 0
M  V30 1012 N 100.097 0.896712 -4.54437 0
M  V30 1013 C 100.832 0.997324 -5.6466 0
M  V30 1014 N 100.328 1.06147 -6.8462 0
M  V30 1015 N 102.121 1.03297 -5.52527 0
M  V30 1016 H 94.2724 -0.640211 -2.02522 0
M  V30 1017 H 96.5354 -0.225507 -0.920788 0
M  V30 1018 H 96.2414 -0.250126 -3.50809 0
M  V30 1019 H 96.1154 1.49947 -3.46115 0
M  V30 1020 H 98.5024 1.60689 -2.47514 0
M  V30 1021 H 98.5834 -0.158952 -2.55306 0
M  V30 1022 H 98.2274 -0.0415417 -5.07883 0
M  V30 1023 H 98.1574 1.73538 -4.97184 0
M  V30 1024 H 100.648 0.857188 -3.6805 0
M  V30 1025 H 100.961 1.1382 -7.64372 0
M  V30 1026 H 99.3064 1.03049 -6.87318 0
M  V30 1027 H 102.497 0.979558 -4.57736 0
M  V30 1028 H 102.67 1.10793 -6.38458 0
M  V30 1029 N 96.0765 1.50051 0.48192 0
M  V30 1030 C 97.3015 1.64508 1.26301 0
M  V30 1031 C 97.7265 0.323851 1.85291 0
M  V30 1032 O 97.0845 -0.710969 1.66778 0
M  V30 1033 C 97.1325 2.7305 2.35533 0
M  V30 1034 O 96.2365 2.3355 3.39895 0
M  V30 1035 H 95.5775 0.549978 0.372048 0
M  V30 1036 H 98.1075 1.9636 0.574786 0
M  V30 1037 H 98.1175 2.95799 2.8101 0
M  V30 1038 H 96.7925 3.68946 1.91967 0
M  V30 1039 H 95.3695 2.21205 3.00204 0
M  V30 1040 N 97.5546 -0.734337 1.39446 0
M  V30 1041 C 98.5046 -1.83949 1.34709 0
M  V30 1042 C 99.4886 -1.59279 0.227851 0
M  V30 1043 O 100.681 -1.70771 0.465438 0
M  V30 1044 C 97.8096 -3.21884 1.19356 0
M  V30 1045 C 96.8956 -3.52381 2.35984 0
M  V30 1046 N 97.2866 -3.53811 3.61457 0
M  V30 1047 C 95.5846 -3.82747 2.28956 0
M  V30 1048 C 96.2856 -3.82122 4.38586 0
M  V30 1049 N 95.2616 -3.9993 3.68181 0
M  V30 1050 H 99.0636 -1.83361 2.29687 0
M  V30 1051 H 96.5776 -0.932609 1.32952 0
M  V30 1052 H 98.5746 -4.00998 1.14046 0
M  V30 1053 H 97.2346 -3.23711 0.253295 0
M  V30 1054 H 98.2456 -3.35107 3.94872 0
M  V30 1055 H 94.9226 -3.92175 1.43194 0
M  V30 1056 H 96.3126 -3.89691 5.47349 0
M  V30 1057 N 99.0327 -1.24633 -0.964593 0
M  V30 1058 C 99.9957 -1.0424 -2.04124 0
M  V30 1059 C 100.996 0.00137563 -1.608 0
M  V30 1060 O 102.186 -0.239883 -1.7254 0
M  V30 1061 C 99.3177 -0.580588 -3.3592 0
M  V30 1062 H 100.511 -1.99803 -2.23649 0
M  V30 1063 H 98.0637 -1.06899 -1.14027 0
M  V30 1064 H 98.7987 0.3781 -3.22088 0
M  V30 1065 H 98.5837 -1.33398 -3.6871 0
M  V30 1066 H 100.074 -0.459034 -4.15069 0
M  V30 1067 N 100.511 1.16574 -1.06058 0
M  V30 1068 C 101.421 2.2452 -0.680282 0
M  V30 1069 C 102.437 1.71348 0.302604 0
M  V30 1070 O 103.613 2.00822 0.152513 0
M  V30 1071 C 100.678 3.46629 -0.0700315 0
M  V30 1072 C 99.7388 4.14849 -1.10448 0
M  V30 1073 C 98.9718 5.31129 -0.523256 0
M  V30 1074 O 99.1948 5.66514 0.664709 0
M  V30 1075 O 98.1288 5.88526 -1.26179 0
M  V30 1076 H 101.955 2.59355 -1.58015 0
M  V30 1077 H 99.5398 1.24043 -0.832694 0
M  V30 1078 H 101.422 4.20543 0.268667 0
M  V30 1079 H 100.097 3.13573 0.803353 0
M  V30 1080 H 99.0038 3.42916 -1.49532 0
M  V30 1081 H 100.337 4.51954 -1.94931 0
M  V30 1082 N 101.989 0.842826 1.3317 0
M  V30 1083 C 102.936 0.276885 2.29133 0
M  V30 1084 C 103.906 -0.609527 1.54512 0
M  V30 1085 O 105.091 -0.546955 1.82792 0
M  V30 1086 C 102.231 -0.538707 3.40869 0
M  V30 1087 C 101.344 0.372169 4.30394 0
M  V30 1088 C 100.479 -0.454908 5.29249 0
M  V30 1089 C 99.5179 0.45411 6.10413 0
M  V30 1090 N 98.6549 -0.335075 7.013 0
M  V30 1091 H 103.495 1.10052 2.76934 0
M  V30 1092 H 101.032 0.554161 1.36262 0
M  V30 1093 H 102.99 -1.02709 4.0436 0
M  V30 1094 H 101.62 -1.32727 2.9425 0
M  V30 1095 H 100.672 0.97888 3.6759 0
M  V30 1096 H 101.984 1.0703 4.87182 0
M  V30 1097 H 101.138 -1.00695 5.98285 0
M  V30 1098 H 99.8769 -1.18646 4.73048 0
M  V30 1099 H 98.8819 1.01813 5.40291 0
M  V30 1100 H 100.107 1.18409 6.68697 0
M  V30 1101 H 98.0529 -1.04994 6.47543 0
M  V30 1102 H 97.9699 0.304262 7.55387 0
M  V30 1103 H 99.2379 -0.869224 7.74638 0
M  V30 1104 N 103.467 -1.45747 0.599634 0
M  V30 1105 C 104.697 -2.06369 0.0977132 0
M  V30 1106 C 105.105 -1.44624 -1.21985 0
M  V30 1107 O 104.448 -0.551831 -1.75216 0
M  V30 1108 C 104.51 -3.59284 -0.124673 0
M  V30 1109 C 104.174 -4.43318 1.10987 0
M  V30 1110 C 105.171 -4.78796 2.02609 0
M  V30 1111 C 102.856 -4.84194 1.33647 0
M  V30 1112 C 104.85 -5.53997 3.15224 0
M  V30 1113 C 102.537 -5.5915 2.46565 0
M  V30 1114 C 103.535 -5.93968 3.37182 0
M  V30 1115 O 103.223 -6.67405 4.48136 0
M  V30 1116 H 102.955 -0.673122 0.0623153 0
M  V30 1117 H 105.509 -1.88104 0.824981 0
M  V30 1118 H 103.739 -3.75919 -0.906745 0
M  V30 1119 H 105.428 -4.01775 -0.577201 0
M  V30 1120 H 106.194 -4.47781 1.86325 0
M  V30 1121 H 102.073 -4.56534 0.64016 0
M  V30 1122 H 105.617 -5.81091 3.85978 0
M  V30 1123 H 101.514 -5.89579 2.62805 0
M  V30 1124 H 102.282 -6.85847 4.46717 0
M  V30 1125 N 104.945 -0.338344 -1.53925 0
M  V30 1126 C 106.222 0.314774 -1.93051 0
M  V30 1127 C 106.602 1.68669 -1.26941 0
M  V30 1128 O 105.95 2.24636 -0.418445 0
M  V30 1129 C 106.16 0.392249 -3.46789 0
M  V30 1130 C 107.508 0.645554 -4.19664 0
M  V30 1131 O 108.532 0.474575 -3.53024 0
M  V30 1132 O 107.391 0.976408 -5.37707 0
M  V30 1133 H 104.485 0.182598 -0.80659 0
M  V30 1134 H 107.031 -0.389141 -1.65178 0
M  V30 1135 H 105.803 -0.570702 -3.87116 0
M  V30 1136 H 105.426 1.14316 -3.80812 0
M  V30 1137 N 106.423 1.57458 -0.0668435 0
M  V30 1138 C 107.373 2.0896 0.912119 0
M  V30 1139 C 108.357 0.998186 1.26195 0
M  V30 1140 O 109.549 1.26133 1.24175 0
M  V30 1141 C 106.678 2.6508 2.18145 0
M  V30 1142 C 105.764 3.81218 1.85832 0
M  V30 1143 N 106.155 4.90378 1.23948 0
M  V30 1144 C 104.453 3.9042 2.15612 0
M  V30 1145 C 105.154 5.71279 1.09616 0
M  V30 1146 N 104.13 5.19389 1.60423 0
M  V30 1147 H 107.932 2.90749 0.42924 0
M  V30 1148 H 105.446 1.6182 0.137184 0
M  V30 1149 H 107.443 3.0029 2.89192 0
M  V30 1150 H 106.103 1.84736 2.67025 0
M  V30 1151 H 107.114 5.09847 0.909731 0
M  V30 1152 H 103.791 3.21043 2.66903 0
M  V30 1153 H 105.181 6.69085 0.614425 0
M  V30 1154 N 107.901 -0.206675 1.56239 0
M  V30 1155 C 109.148 -0.928842 1.79941 0
M  V30 1156 C 109.476 -1.83734 0.638131 0
M  V30 1157 O 108.731 -1.92039 -0.376746 0
M  V30 1158 C 109.03 -1.78675 3.09532 0
M  V30 1159 C 108.696 -1.03022 4.38973 0
M  V30 1160 C 107.358 -0.821302 4.74139 0
M  V30 1161 C 109.71 -0.497081 5.18824 0
M  V30 1162 C 107.038 -0.0675719 5.86661 0
M  V30 1163 C 109.39 0.24338 6.32132 0
M  V30 1164 C 108.054 0.463422 6.65889 0
M  V30 1165 H 107.324 -0.339887 0.658451 0
M  V30 1166 H 109.971 -0.195977 1.90495 0
M  V30 1167 H 108.276 -2.58794 2.94165 0
M  V30 1168 H 109.973 -2.34792 3.25075 0
M  V30 1169 H 106.563 -1.20306 4.11369 0
M  V30 1170 H 110.747 -0.645921 4.92079 0
M  V30 1171 H 106.003 0.112995 6.11296 0
M  V30 1172 H 110.177 0.66393 6.93228 0
M  V30 1173 H 107.804 1.04938 7.52922 0
M  V30 1174 N 109.379 -1.50304 -0.473955 0
M  V30 1175 C 110.656 -1.51667 -1.23518 0
M  V30 1176 C 111.036 -0.259701 -2.09496 0
M  V30 1177 O 110.384 0.756986 -2.15597 0
M  V30 1178 C 110.594 -2.81082 -2.06868 0
M  V30 1179 C 111.942 -3.31631 -2.65153 0
M  V30 1180 O 112.966 -2.82384 -2.17113 0
M  V30 1181 O 111.825 -4.17471 -3.52675 0
M  V30 1182 H 108.919 -0.60822 -0.560355 0
M  V30 1183 H 111.465 -1.62592 -0.486011 0
M  V30 1184 H 110.237 -3.64041 -1.4349 0
M  V30 1185 H 109.86 -2.73146 -2.88924 0
M  V30 1186 N 110.857 0.726932 -1.39834 0
M  V30 1187 C 112.106 1.48214 -1.36805 0
M  V30 1188 C 112.419 1.95576 0.0305291 0
M  V30 1189 O 113.625 2.7088 0.183417 0
M  V30 1190 C 112.081 2.67854 -2.40379 0
M  V30 1191 C 111.689 2.27408 -3.85992 0
M  V30 1192 C 113.433 3.45641 -2.46439 0
M  V30 1193 C 111.34 3.43819 -4.81189 0
M  V30 1194 H 110.27 0.556606 -0.508631 0
M  V30 1195 H 112.921 0.792216 -1.65518 0
M  V30 1196 H 111.303 3.3896 -2.04749 0
M  V30 1197 H 112.477 1.63795 -4.30706 0
M  V30 1198 H 110.792 1.62692 -3.83302 0
M  V30 1199 H 113.389 4.32244 -3.14753 0
M  V30 1200 H 113.732 3.88669 -1.49139 0
M  V30 1201 H 114.265 2.8157 -2.81004 0
M  V30 1202 H 111.004 3.05834 -5.79781 0
M  V30 1203 H 110.524 4.06385 -4.41148 0
M  V30 1204 H 112.203 4.10043 -5.00474 0
M  V30 1205 N 112.336 1.25143 0.95797 0
M  V30 1206 C 113.585 1.0909 1.69654 0
M  V30 1207 C 113.898 -0.368548 1.92097 0
M  V30 1208 O 115.104 -0.649455 2.63618 0
M  V30 1209 C 113.56 1.90395 3.05414 0
M  V30 1210 C 113.168 3.4081 2.90779 0
M  V30 1211 C 114.912 1.82901 3.83076 0
M  V30 1212 C 112.819 4.14423 4.21909 0
M  V30 1213 H 111.749 0.404625 0.636235 0
M  V30 1214 H 114.4 1.4931 1.06672 0
M  V30 1215 H 112.782 1.42996 3.69281 0
M  V30 1216 H 113.956 3.95859 2.35865 0
M  V30 1217 H 112.271 3.49361 2.26575 0
M  V30 1218 H 114.868 2.35196 4.80195 0
M  V30 1219 H 115.211 0.796224 4.08615 0
M  V30 1220 H 115.744 2.28033 3.25954 0
M  V30 1221 H 112.483 5.18102 4.01561 0
M  V30 1222 H 112.003 3.64159 4.76601 0
M  V30 1223 H 113.682 4.21956 4.90471 0
M  V30 1224 N 113.814 -1.1601 1.06675 0
M  V30 1225 C 115.091 -1.82679 0.699114 0
M  V30 1226 C 115.471 -1.94559 -0.819137 0
M  V30 1227 O 114.819 -1.49169 -1.73092 0
M  V30 1228 C 115.029 -3.19445 1.40555 0
M  V30 1229 C 116.377 -3.95171 1.55323 0
M  V30 1230 O 117.401 -3.28976 1.36577 0
M  V30 1231 O 116.26 -5.13833 1.86112 0
M  V30 1232 H 113.354 -0.788954 0.247951 0
M  V30 1233 H 115.9 -1.23179 1.16726 0
M  V30 1234 H 114.672 -3.05856 2.44065 0
M  V30 1235 H 114.295 -3.86625 0.927733 0
M  V30 1236 N 115.292 -0.849877 -1.32721 0
M  V30 1237 C 116.541 -0.447175 -1.96681 0
M  V30 1238 C 116.854 1.00135 -1.68025 0
M  V30 1239 O 118.06 1.50926 -2.25685 0
M  V30 1240 C 116.516 -0.7487 -3.52026 0
M  V30 1241 C 116.124 -2.21264 -3.89546 0
M  V30 1242 C 117.868 -0.413487 -4.22481 0
M  V30 1243 C 115.775 -2.45763 -5.37917 0
M  V30 1244 H 114.705 -0.163486 -0.736063 0
M  V30 1245 H 117.356 -1.03999 -1.51183 0
M  V30 1246 H 115.738 -0.0853727 -3.95908 0
M  V30 1247 H 116.912 -2.91736 -3.56689 0
M  V30 1248 H 115.227 -2.5119 -3.32103 0
M  V30 1249 H 117.824 -0.574017 -5.3161 0
M  V30 1250 H 118.167 0.644492 -4.11281 0
M  V30 1251 H 118.7 -1.03251 -3.84167 0
M  V30 1252 H 115.439 -3.50168 -5.54132 0
M  V30 1253 H 114.959 -1.79864 -5.72197 0
M  V30 1254 H 116.638 -2.29471 -6.0494 0
M  V30 1255 N 116.77 1.45427 -0.607355 0
M  V30 1256 C 117.995 2.07124 -0.107006 0
M  V30 1257 C 118.42 1.44906 1.19933 0
M  V30 1258 O 117.778 0.541687 1.73019 0
M  V30 1259 C 117.826 3.60595 0.0194119 0
M  V30 1260 O 116.93 3.98285 1.0697 0
M  V30 1261 H 116.271 0.659868 -0.0739597 0
M  V30 1262 H 118.801 1.86683 -0.837297 0
M  V30 1263 H 118.811 4.07419 0.2177 0
M  V30 1264 H 117.486 4.05266 -0.934453 0
M  V30 1265 H 116.063 3.63133 0.847889 0
M  V30 1266 N 118.248 0.346503 1.53744 0
M  V30 1267 C 119.659 -0.136779 1.86198 0
M  V30 1268 C 120.01 -1.49749 1.26766 0
M  V30 1269 O 119.135 -2.08417 0.582355 0
M  V30 1270 C 119.73 -0.254966 3.37839 0
M  V30 1271 C 118.289 -0.682482 3.70161 0
M  V30 1272 C 117.436 0.181981 2.76702 0
M  V30 1273 H 120.387 0.565994 1.48264 0
M  V30 1274 H 120.408 -1.08195 3.64793 0
M  V30 1275 H 119.92 0.735526 3.81066 0
M  V30 1276 H 118.021 -1.68189 3.3248 0
M  V30 1277 H 118.134 -0.470326 4.76786 0
M  V30 1278 H 116.498 -0.34615 2.52337 0
M  V30 1279 H 117.281 1.16966 3.2276 0
M  V30 1280 N 119.726 -1.57421 0.075193 0
M  V30 1281 C 120.659 -2.08528 -0.926904 0
M  V30 1282 C 121.637 -0.991171 -1.28898 0
M  V30 1283 O 122.821 -1.26479 -1.39769 0
M  V30 1284 C 119.948 -2.54576 -2.23402 0
M  V30 1285 C 118.994 -3.75454 -2.02327 0
M  V30 1286 S 119.827 -5.19989 -1.27951 0
M  V30 1287 C 120.983 -5.69372 -2.59935 0
M  V30 1288 H 121.216 -2.932 -0.492048 0
M  V30 1289 H 118.749 -1.53785 -0.137651 0
M  V30 1290 H 120.707 -2.81767 -2.98526 0
M  V30 1291 H 119.368 -1.70166 -2.64012 0
M  V30 1292 H 118.561 -4.05675 -2.99071 0
M  V30 1293 H 118.163 -3.48654 -1.35339 0
M  V30 1294 H 120.455 -5.76424 -3.56008 0
M  V30 1295 H 121.398 -6.68207 -2.34319 0
M  V30 1296 H 121.806 -4.97205 -2.67296 0
M  V30 1297 N 121.204 0.198386 -1.56346 0
M  V30 1298 C 122.452 0.91747 -1.80075 0
M  V30 1299 C 122.773 1.83929 -0.647692 0
M  V30 1300 O 122.043 1.93029 0.334166 0
M  V30 1301 H 120.623 0.341774 -0.664228 0
M  V30 1302 H 123.285 0.204684 -1.93822 0
M  V30 1303 H 122.381 1.51055 -2.7311 0
M  V30 1304 N 122.682 1.50554 0.465978 0
M  V30 1305 C 123.922 1.63439 1.22747 0
M  V30 1306 C 124.286 0.329822 1.89146 0
M  V30 1307 O 125.487 0.334161 2.66715 0
M  V30 1308 C 123.758 2.78542 2.2394 0
M  V30 1309 S 125.317 3.11591 3.0896 0
M  V30 1310 H 122.135 0.576113 0.416672 0
M  V30 1311 H 124.737 1.88357 0.523641 0
M  V30 1312 H 123.441 3.71805 1.7375 0
M  V30 1313 H 122.972 2.55726 2.98944 0
M  V30 1314 H 124.987 2.55811 4.25176 0
M  V30 1315 N 124.16 -0.719506 1.40217 0
M  V30 1316 C 125.092 -1.84428 1.36084 0
M  V30 1317 C 126.105 -1.60597 0.266913 0
M  V30 1318 O 127.294 -1.70544 0.526983 0
M  V30 1319 C 124.394 -3.20757 1.094 0
M  V30 1320 C 123.567 -3.71817 2.30372 0
M  V30 1321 C 122.626 -4.86748 1.99907 0
M  V30 1322 O 121.652 -4.99603 2.72737 0
M  V30 1323 N 122.854 -5.7226 0.974635 0
M  V30 1324 H 125.619 -1.88473 2.33019 0
M  V30 1325 H 123.18 -0.900885 1.3452 0
M  V30 1326 H 125.172 -3.95235 0.870116 0
M  V30 1327 H 123.742 -3.11884 0.211452 0
M  V30 1328 H 122.962 -2.88514 2.68614 0
M  V30 1329 H 124.25 -4.02666 3.11026 0
M  V30 1330 H 123.648 -5.6448 0.371368 0
M  V30 1331 H 122.205 -6.46739 0.810656 0
M  V30 1332 N 125.638 -1.25649 -0.95132 0
M  V30 1333 C 126.866 -1.13343 -1.73092 0
M  V30 1334 C 127.281 0.312434 -1.86197 0
M  V30 1335 O 126.638 1.21465 -1.36207 0
M  V30 1336 C 126.689 -1.78602 -3.14299 0
M  V30 1337 O 126.41 -3.17537 -3.01831 0
M  V30 1338 C 127.911 -1.72119 -4.08522 0
M  V30 1339 H 125.131 -0.395181 -0.542285 0
M  V30 1340 H 127.675 -1.66076 -1.19328 0
M  V30 1341 H 125.83 -1.29832 -3.64996 0
M  V30 1342 H 126.244 -3.49676 -3.90931 0
M  V30 1343 H 127.718 -2.22435 -5.052 0
M  V30 1344 H 128.195 -0.685635 -4.33815 0
M  V30 1345 H 128.801 -2.20393 -3.63741 0
M  V30 1346 N 127.117 1.15442 -1.07289 0
M  V30 1347 C 128.365 1.85845 -0.794096 0
M  V30 1348 C 128.686 1.82692 0.681809 0
M  V30 1349 O 127.956 1.26741 1.49377 0
M  V30 1350 H 126.536 0.688089 -0.290763 0
M  V30 1351 H 129.198 1.39947 -1.3565 0
M  V30 1352 H 128.294 2.91001 -1.12804 0
M  V30 1353 N 128.595 0.856903 1.32268 0
M  V30 1354 C 129.825 0.47475 2.01071 0
M  V30 1355 C 130.233 -0.933746 1.64553 0
M  V30 1356 O 129.576 -1.62114 0.863989 0
M  V30 1357 C 129.638 0.536746 3.55471 0
M  V30 1358 C 129.302 1.90453 4.15423 0
M  V30 1359 C 130.299 2.87029 4.33486 0
M  V30 1360 C 127.984 2.20229 4.51447 0
M  V30 1361 C 129.978 4.11532 4.86744 0
M  V30 1362 C 127.665 3.44984 5.0441 0
M  V30 1363 C 128.663 4.40452 5.22007 0
M  V30 1364 O 128.351 5.62998 5.73837 0
M  V30 1365 H 128.083 0.184778 0.650256 0
M  V30 1366 H 130.637 1.15615 1.69771 0
M  V30 1367 H 128.867 -0.20152 3.86175 0
M  V30 1368 H 130.556 0.169875 4.05544 0
M  V30 1369 H 131.322 2.6533 4.05986 0
M  V30 1370 H 127.201 1.46705 4.37034 0
M  V30 1371 H 130.745 4.86056 5.00395 0
M  V30 1372 H 126.642 3.66532 5.31342 0
M  V30 1373 H 127.41 5.64987 5.92226 0
M  V30 1374 N 130.073 -1.45103 0.615059 0
M  V30 1375 C 131.303 -2.06254 0.119596 0
M  V30 1376 C 131.711 -1.4591 -1.20445 0
M  V30 1377 O 131.054 -0.570384 -1.7462 0
M  V30 1378 C 131.116 -3.59396 -0.0865591 0
M  V30 1379 C 130.78 -4.42116 1.15683 0
M  V30 1380 C 131.777 -4.7662 2.07676 0
M  V30 1381 C 129.462 -4.82749 1.38775 0
M  V30 1382 C 131.456 -5.50622 3.21082 0
M  V30 1383 C 129.143 -5.56504 2.52481 0
M  V30 1384 C 130.141 -5.90358 3.43463 0
M  V30 1385 O 129.829 -6.62615 4.55189 0
M  V30 1386 H 129.561 -0.672423 0.0694512 0
M  V30 1387 H 132.115 -1.87219 0.844885 0
M  V30 1388 H 130.345 -3.76859 -0.866823 0
M  V30 1389 H 132.034 -4.02365 -0.534555 0
M  V30 1390 H 132.8 -4.4578 1.91063 0
M  V30 1391 H 128.679 -4.55829 0.688545 0
M  V30 1392 H 132.223 -5.76965 3.92119 0
M  V30 1393 H 128.12 -5.86759 2.69043 0
M  V30 1394 H 128.888 -6.81071 4.53966 0
M  V30 1395 N 131.551 -0.354651 -1.53558 0
M  V30 1396 C 132.481 0.489091 -2.2832 0
M  V30 1397 C 133.462 1.09324 -1.30316 0
M  V30 1398 O 134.647 1.11255 -1.59173 0
M  V30 1399 C 131.777 1.63456 -3.0643 0
M  V30 1400 C 130.731 1.1582 -4.12031 0
M  V30 1401 C 130.057 2.39305 -4.7816 0
M  V30 1402 C 131.357 0.250731 -5.21698 0
M  V30 1403 H 133.051 -0.134614 -2.99097 0
M  V30 1404 H 130.597 -0.0661826 -1.43848 0
M  V30 1405 H 132.55 2.23136 -3.57475 0
M  V30 1406 H 131.274 2.28533 -2.33325 0
M  V30 1407 H 129.933 0.584146 -3.61916 0
M  V30 1408 H 129.581 3.02814 -4.01637 0
M  V30 1409 H 129.281 2.08109 -5.49513 0
M  V30 1410 H 130.805 2.99691 -5.31994 0
M  V30 1411 H 132.219 0.754695 -5.68311 0
M  V30 1412 H 130.616 0.0301468 -6.00092 0
M  V30 1413 H 131.686 -0.710125 -4.79672 0
M  V30 1414 N 133.029 1.57378 -0.0835403 0
M  V30 1415 C 134.275 1.94217 0.583733 0
M  V30 1416 C 134.608 0.964653 1.68547 0
M  V30 1417 O 133.883 -0.00422258 1.945 0
M  V30 1418 C 134.166 3.41253 1.14972 0
M  V30 1419 C 134.019 4.49768 0.0538277 0
M  V30 1420 C 135.338 3.89352 2.05166 0
M  V30 1421 H 132.457 0.706233 0.210724 0
M  V30 1422 H 135.099 1.89392 -0.1519 0
M  V30 1423 H 133.249 3.45496 1.77665 0
M  V30 1424 H 134.921 4.57641 -0.579851 0
M  V30 1425 H 133.164 4.29432 -0.614068 0
M  V30 1426 H 133.835 5.49817 0.490452 0
M  V30 1427 H 136.311 3.87189 1.52393 0
M  V30 1428 H 135.187 4.92822 2.41698 0
M  V30 1429 H 135.448 3.27973 2.96456 0
M  V30 1430 N 134.507 -0.190092 1.56449 0
M  V30 1431 C 135.753 -0.911052 1.81184 0
M  V30 1432 C 136.086 -1.82699 0.658396 0
M  V30 1433 O 135.361 -1.91491 -0.340775 0
M  V30 1434 C 135.644 -1.72297 3.16205 0
M  V30 1435 C 135.497 -0.831419 4.42049 0
M  V30 1436 C 136.816 -2.69454 3.47969 0
M  V30 1437 H 133.935 -0.32977 0.659106 0
M  V30 1438 H 136.577 -0.178169 1.89163 0
M  V30 1439 H 134.727 -2.34778 3.09534 0
M  V30 1440 H 136.399 -0.220929 4.60771 0
M  V30 1441 H 134.642 -0.138406 4.33579 0
M  V30 1442 H 135.313 -1.43461 5.33032 0
M  V30 1443 H 137.789 -2.17104 3.54972 0
M  V30 1444 H 136.665 -3.23342 4.43555 0
M  V30 1445 H 136.926 -3.48744 2.71717 0
M  V30 1446 N 135.985 -1.50799 -0.457987 0
M  V30 1447 C 137.21 -1.66496 -1.23668 0
M  V30 1448 C 137.635 -0.353288 -1.84752 0
M  V30 1449 O 136.993 0.684346 -1.67888 0
M  V30 1450 C 137.041 -2.76763 -2.3116 0
M  V30 1451 O 136.145 -2.38928 -3.36136 0
M  V30 1452 H 135.486 -0.555828 -0.363252 0
M  V30 1453 H 138.016 -1.9725 -0.543474 0
M  V30 1454 H 138.026 -3.00232 -2.76269 0
M  V30 1455 H 136.701 -3.71954 -1.86073 0
M  V30 1456 H 135.278 -2.25953 -2.96647 0
M  V30 1457 N 137.463 0.71206 -1.40597 0
M  V30 1458 C 138.711 1.46907 -1.38791 0
M  V30 1459 C 139.032 1.94998 0.00780391 0
M  V30 1460 O 138.302 1.70587 0.963174 0
M  V30 1461 H 136.882 0.545043 -0.51082 0
M  V30 1462 H 139.544 0.843882 -1.75683 0
M  V30 1463 H 138.64 2.34021 -2.06496 0
M  V30 1464 N 138.941 1.26152 0.944643 0
M  V30 1465 C 139.851 1.09176 2.07648 0
M  V30 1466 C 140.867 0.0261935 1.7398 0
M  V30 1467 O 142.043 0.229208 2.00091 0
M  V30 1468 C 139.108 0.722915 3.39079 0
M  V30 1469 C 138.169 1.86752 3.86552 0
M  V30 1470 C 137.402 1.51617 5.11711 0
M  V30 1471 O 137.625 0.416331 5.68879 0
M  V30 1472 O 136.559 2.34975 5.54139 0
M  V30 1473 H 140.385 2.0412 2.24875 0
M  V30 1474 H 137.97 1.05182 1.061 0
M  V30 1475 H 139.852 0.529787 4.18056 0
M  V30 1476 H 138.527 -0.197159 3.23099 0
M  V30 1477 H 137.434 2.11558 3.08535 0
M  V30 1478 H 138.767 2.76719 4.07047 0
M  V30 1479 N 140.419 -1.14872 1.07899 0
M  V30 1480 C 141.83 -1.67367 0.827363 0
M  V30 1481 C 142.181 -1.85236 -0.646693 0
M  V30 1482 O 141.306 -1.55974 -1.50004 0
M  V30 1483 C 141.901 -3.04016 1.49532 0
M  V30 1484 C 140.46 -3.53566 1.29106 0
M  V30 1485 C 139.607 -2.29161 1.56143 0
M  V30 1486 H 142.558 -0.990083 1.24028 0
M  V30 1487 H 142.579 -3.69219 0.919643 0
M  V30 1488 H 142.091 -2.90978 2.56814 0
M  V30 1489 H 140.192 -3.71835 0.238713 0
M  V30 1490 H 140.305 -4.34661 2.01511 0
M  V30 1491 H 138.669 -2.34978 0.982717 0
M  V30 1492 H 139.452 -2.18705 2.64619 0
M  V30 1493 N 141.898 -0.863906 -1.31812 0
M  V30 1494 C 143.126 -0.486111 -2.01108 0
M  V30 1495 C 143.541 0.919755 -1.64882 0
M  V30 1496 O 142.898 1.60162 -0.874893 0
M  V30 1497 C 142.949 -0.626435 -3.56031 0
M  V30 1498 O 142.67 -1.97693 -3.90959 0
M  V30 1499 C 144.171 -0.248857 -4.42601 0
M  V30 1500 H 141.391 -0.190052 -0.643523 0
M  V30 1501 H 143.935 -1.1634 -1.68182 0
M  V30 1502 H 142.09 0.00322717 -3.874 0
M  V30 1503 H 142.504 -1.98034 -4.85678 0
M  V30 1504 H 143.978 -0.398016 -5.50563 0
M  V30 1505 H 144.455 0.811489 -4.31638 0
M  V30 1506 H 145.061 -0.853971 -4.16638 0
M  V30 1507 N 143.376 1.44774 -0.622745 0
M  V30 1508 C 144.601 2.06999 -0.128968 0
M  V30 1509 C 145.026 1.4617 1.1839 0
M  V30 1510 O 144.384 0.560007 1.72434 0
M  V30 1511 C 144.432 3.60595 -0.0188351 0
M  V30 1512 O 143.536 3.99398 1.02739 0
M  V30 1513 H 142.877 0.659047 -0.0809544 0
M  V30 1514 H 145.407 1.85784 -0.85705 0
M  V30 1515 H 145.417 4.07627 0.174476 0
M  V30 1516 H 144.092 4.04252 -0.977384 0
M  V30 1517 H 142.669 3.64011 0.809326 0
M  V30 1518 N 144.854 0.36279 1.53368 0
M  V30 1519 C 145.817 -0.472679 2.24273 0
M  V30 1520 C 146.817 -1.012 1.24961 0
M  V30 1521 O 148.007 -0.898194 1.49259 0
M  V30 1522 C 145.139 -1.66039 2.97731 0
M  V30 1523 H 146.332 0.14773 2.99536 0
M  V30 1524 H 143.885 0.114434 1.55881 0
M  V30 1525 H 144.62 -2.31896 2.26704 0
M  V30 1526 H 144.405 -1.28066 3.70596 0
M  V30 1527 H 145.895 -2.25252 3.51641 0
M  V30 1528 N 146.332 -1.57332 0.0918853 0
M  V30 1529 C 147.242 -2.17368 -0.882505 0
M  V30 1530 C 148.258 -1.14226 -1.31257 0
M  V30 1531 O 149.434 -1.46582 -1.38115 0
M  V30 1532 C 146.499 -2.73962 -2.12476 0
M  V30 1533 C 145.56 -3.92048 -1.7492 0
M  V30 1534 C 144.793 -4.45933 -2.93223 0
M  V30 1535 O 145.016 -3.98764 -4.07852 0
M  V30 1536 O 143.95 -5.36999 -2.71875 0
M  V30 1537 H 147.776 -3.01031 -0.40172 0
M  V30 1538 H 145.361 -1.48813 -0.132291 0
M  V30 1539 H 147.243 -3.10147 -2.85283 0
M  V30 1540 H 145.918 -1.93347 -2.59613 0
M  V30 1541 H 144.825 -3.6068 -0.993025 0
M  V30 1542 H 146.158 -4.74017 -1.32548 0
M  V30 1543 N 147.81 0.181792 -1.56548 0
M  V30 1544 C 149.059 0.898348 -1.8059 0
M  V30 1545 C 149.372 1.83862 -0.667379 0
M  V30 1546 O 150.578 2.59678 -0.792446 0
M  V30 1547 C 149.034 1.64791 -3.19956 0
M  V30 1548 C 148.642 0.751789 -4.41647 0
M  V30 1549 C 150.386 2.35331 -3.53298 0
M  V30 1550 C 148.293 1.50098 -5.72035 0
M  V30 1551 H 147.223 0.339194 -0.673397 0
M  V30 1552 H 149.874 0.151413 -1.82874 0
M  V30 1553 H 148.256 2.43921 -3.11959 0
M  V30 1554 H 149.43 -0.0018076 -4.608 0
M  V30 1555 H 147.745 0.156562 -4.16106 0
M  V30 1556 H 150.342 2.91958 -4.47956 0
M  V30 1557 H 150.685 3.10164 -2.77676 0
M  V30 1558 H 151.218 1.63154 -3.62803 0
M  V30 1559 H 147.957 0.795175 -6.50659 0
M  V30 1560 H 147.477 2.22817 -5.56878 0
M  V30 1561 H 149.156 2.05125 -6.13622 0
M  V30 1562 N 149.288 1.51039 0.449983 0
M  V30 1563 C 150.534 1.63322 1.20223 0
M  V30 1564 C 150.867 0.34241 1.91158 0
M  V30 1565 O 150.142 -0.657344 1.83055 0
M  V30 1566 C 150.425 2.82801 2.22925 0
M  V30 1567 C 150.278 4.21823 1.56157 0
M  V30 1568 C 151.597 2.97807 3.24035 0
M  V30 1569 H 148.716 0.594407 0.435718 0
M  V30 1570 H 151.358 1.83489 0.493136 0
M  V30 1571 H 149.508 2.65738 2.834 0
M  V30 1572 H 151.18 4.50526 0.991162 0
M  V30 1573 H 149.423 4.25105 0.864172 0
M  V30 1574 H 150.094 5.01391 2.30891 0
M  V30 1575 H 152.57 3.13497 2.73603 0
M  V30 1576 H 151.446 3.82992 3.93202 0
M  V30 1577 H 151.707 2.09328 3.89402 0
M  V30 1578 N 150.766 -0.704594 1.40972 0
M  V30 1579 C 152.043 -1.45847 1.30338 0
M  V30 1580 C 152.423 -2.10973 -0.0732344 0
M  V30 1581 O 151.771 -2.00997 -1.08685 0
M  V30 1582 C 151.981 -2.48525 2.45023 0
M  V30 1583 C 153.329 -3.1404 2.8577 0
M  V30 1584 O 154.353 -2.58848 2.44696 0
M  V30 1585 O 153.212 -4.13981 3.56766 0
M  V30 1586 H 150.306 -0.649092 0.512454 0
M  V30 1587 H 152.852 -0.735836 1.52917 0
M  V30 1588 H 151.624 -1.98994 3.36923 0
M  V30 1589 H 151.247 -3.2831 2.24272 0
M  V30 1590 N 152.244 -1.26651 -0.937939 0
M  V30 1591 C 153.174 -1.10993 -2.05433 0
M  V30 1592 C 154.155 -0.0142161 -1.70094 0
M  V30 1593 O 155.34 -0.186837 -1.93299 0
M  V30 1594 C 152.47 -0.745561 -3.39203 0
M  V30 1595 C 151.424 -1.79337 -3.88616 0
M  V30 1596 C 150.75 -1.28324 -5.19073 0
M  V30 1597 C 152.05 -3.19553 -4.13138 0
M  V30 1598 H 153.744 -2.0438 -2.1879 0
M  V30 1599 H 151.29 -0.984041 -1.05131 0
M  V30 1600 H 153.243 -0.622888 -4.16771 0
M  V30 1601 H 151.967 0.22401 -3.25831 0
M  V30 1602 H 150.626 -1.90477 -3.13231 0
M  V30 1603 H 150.274 -0.303414 -5.02084 0
M  V30 1604 H 149.974 -1.98369 -5.53103 0
M  V30 1605 H 151.498 -1.1733 -5.99221 0
M  V30 1606 H 152.912 -3.11471 -4.81309 0
M  V30 1607 H 151.309 -3.87218 -4.58457 0
M  V30 1608 H 152.379 -3.65368 -3.18801 0
M  V30 1609 N 153.722 1.14298 -1.08507 0
M  V30 1610 C 154.652 2.21542 -0.737646 0
M  V30 1611 C 155.633 1.67773 0.280377 0
M  V30 1612 O 156.818 1.93616 0.150521 0
M  V30 1613 C 153.948 3.46988 -0.147259 0
M  V30 1614 C 152.902 4.13789 -1.09374 0
M  V30 1615 C 152.228 5.33449 -0.365524 0
M  V30 1616 C 153.528 4.62208 -2.4323 0
M  V30 1617 H 155.222 2.5086 -1.6343 0
M  V30 1618 H 152.768 1.20576 -0.787243 0
M  V30 1619 H 154.721 4.21262 0.107808 0
M  V30 1620 H 153.445 3.17037 0.784538 0
M  V30 1621 H 152.104 3.4147 -1.33393 0
M  V30 1622 H 151.752 4.99759 0.57011 0
M  V30 1623 H 151.452 5.79088 -0.996512 0
M  V30 1624 H 152.976 6.10485 -0.118534 0
M  V30 1625 H 154.39 5.27952 -2.23472 0
M  V30 1626 H 152.787 5.18553 -3.02031 0
M  V30 1627 H 153.857 3.77224 -3.04681 0
M  V30 1628 N 155.201 0.870884 1.31352 0
M  V30 1629 C 156.111 0.330783 2.32256 0
M  V30 1630 C 157.127 -0.559767 1.6475 0
M  V30 1631 O 158.303 -0.456263 1.96164 0
M  V30 1632 C 155.368 -0.458137 3.4366 0
M  V30 1633 C 154.429 0.460482 4.26823 0
M  V30 1634 C 153.662 -0.290881 5.32907 0
M  V30 1635 O 153.885 -1.51885 5.49806 0
M  V30 1636 O 152.819 0.351732 6.00871 0
M  V30 1637 H 156.645 1.16718 2.80376 0
M  V30 1638 H 154.23 0.634285 1.35267 0
M  V30 1639 H 156.112 -0.905343 4.1156 0
M  V30 1640 H 154.787 -1.27106 2.97701 0
M  V30 1641 H 153.694 0.956207 3.61673 0
M  V30 1642 H 155.027 1.23903 4.7635 0
M  V30 1643 N 156.679 -1.44442 0.630414 0
M  V30 1644 C 157.956 -1.9549 0.0655657 0
M  V30 1645 C 158.336 -1.5724 -1.40851 0
M  V30 1646 O 157.684 -0.846116 -2.12257 0
M  V30 1647 C 157.894 -3.47812 0.287691 0
M  V30 1648 C 159.242 -4.24216 0.180513 0
M  V30 1649 O 160.266 -3.55526 0.219019 0
M  V30 1650 O 159.125 -5.46434 0.0848493 0
M  V30 1651 H 156.219 -0.826688 -0.0227177 0
M  V30 1652 H 158.765 -1.54496 0.702068 0
M  V30 1653 H 157.537 -3.687 1.31056 0
M  V30 1654 H 157.16 -3.95751 -0.382984 0
M  V30 1655 N 158.157 -0.370918 -1.53173 0
M  V30 1656 C 159.385 0.217704 -2.05751 0
M  V30 1657 C 159.8 1.42018 -1.24404 0
M  V30 1658 O 159.157 1.80245 -0.286033 0
M  V30 1659 C 159.208 0.605954 -3.56385 0
M  V30 1660 O 158.929 -0.548734 -4.3465 0
M  V30 1661 C 160.43 1.2524 -4.25241 0
M  V30 1662 H 157.65 0.0371659 -0.66997 0
M  V30 1663 H 160.194 -0.530832 -1.9749 0
M  V30 1664 H 158.349 1.3044 -3.6478 0
M  V30 1665 H 158.763 -0.23376 -5.23979 0
M  V30 1666 H 160.237 1.47458 -5.3194 0
M  V30 1667 H 160.714 2.2143 -3.79296 0
M  V30 1668 H 161.32 0.595233 -4.21114 0
M  V30 1669 N 159.635 1.57281 -0.100228 0
M  V30 1670 C 160.568 2.09976 0.893612 0
M  V30 1671 C 161.546 1.01155 1.27304 0
M  V30 1672 O 162.73 1.28687 1.37739 0
M  V30 1673 C 159.857 2.58098 2.19324 0
M  V30 1674 C 158.903 3.78626 1.96328 0
M  V30 1675 S 159.736 5.21959 1.19662 0
M  V30 1676 C 160.892 5.73435 2.50844 0
M  V30 1677 H 161.125 2.93946 0.44534 0
M  V30 1678 H 158.658 1.53985 0.113167 0
M  V30 1679 H 160.616 2.8648 2.94005 0
M  V30 1680 H 159.277 1.74344 2.61272 0
M  V30 1681 H 158.47 4.10382 2.92579 0
M  V30 1682 H 158.072 3.50763 1.29775 0
M  V30 1683 H 160.364 5.82015 3.46792 0
M  V30 1684 H 161.307 6.7185 2.23659 0
M  V30 1685 H 161.715 5.01395 2.59352 0
M  V30 1686 N 161.113 -0.173488 1.56642 0
M  V30 1687 C 162.06 -1.21482 1.96242 0
M  V30 1688 C 163.03 -1.44104 0.826027 0
M  V30 1689 O 164.215 -1.5688 1.08597 0
M  V30 1690 C 161.355 -2.54964 2.32567 0
M  V30 1691 C 160.468 -2.39739 3.59373 0
M  V30 1692 C 159.603 -3.66072 3.84921 0
M  V30 1693 C 158.642 -3.45771 5.05083 0
M  V30 1694 N 157.779 -4.64169 5.26775 0
M  V30 1695 H 162.619 -0.870123 2.85014 0
M  V30 1696 H 160.156 -0.418245 1.41029 0
M  V30 1697 H 162.114 -3.32758 2.5165 0
M  V30 1698 H 160.744 -2.87433 1.46908 0
M  V30 1699 H 159.796 -1.53131 3.48217 0
M  V30 1700 H 161.108 -2.20683 4.47326 0
M  V30 1701 H 160.262 -4.52303 4.0436 0
M  V30 1702 H 159.001 -3.88105 2.9534 0
M  V30 1703 H 158.006 -2.57927 4.85545 0
M  V30 1704 H 159.231 -3.25163 5.96193 0
M  V30 1705 H 157.177 -4.86425 4.40144 0
M  V30 1706 H 157.094 -4.48019 6.08946 0
M  V30 1707 H 158.362 -5.51689 5.5069 0
M  V30 1708 N 162.591 -1.51276 -0.441967 0
M  V30 1709 C 163.501 -1.75092 -1.56141 0
M  V30 1710 C 164.517 -0.634963 -1.62001 0
M  V30 1711 O 165.693 -0.916686 -1.79329 0
M  V30 1712 C 162.758 -1.86666 -2.92158 0
M  V30 1713 C 161.819 -3.10506 -2.96453 0
M  V30 1714 C 161.052 -3.21519 -4.25982 0
M  V30 1715 O 161.275 -2.38586 -5.18105 0
M  V30 1716 O 160.209 -4.14465 -4.36466 0
M  V30 1717 H 164.035 -2.70044 -1.38961 0
M  V30 1718 H 161.62 -1.35722 -0.624499 0
M  V30 1719 H 163.502 -1.96292 -3.72891 0
M  V30 1720 H 162.177 -0.949014 -3.09476 0
M  V30 1721 H 161.084 -3.06363 -2.14692 0
M  V30 1722 H 162.417 -4.01945 -2.84079 0
M  V30 1723 N 164.069 0.697108 -1.41344 0
M  V30 1724 C 165.032 1.79281 -1.42797 0
M  V30 1725 C 166.032 1.57607 -0.318837 0
M  V30 1726 O 167.222 1.64309 -0.578642 0
M  V30 1727 C 164.354 3.17632 -1.23785 0
M  V30 1728 H 165.547 1.79385 -2.40335 0
M  V30 1729 H 163.1 0.904582 -1.27464 0
M  V30 1730 H 163.835 3.23167 -0.270814 0
M  V30 1731 H 163.62 3.34765 -2.04144 0
M  V30 1732 H 165.11 3.97617 -1.27633 0
M  V30 1733 N 165.547 1.27147 0.931209 0
M  V30 1734 C 166.793 1.13446 1.68101 0
M  V30 1735 C 167.126 -0.319628 1.91552 0
M  V30 1736 O 166.401 -1.23407 1.50336 0
M  V30 1737 C 166.684 1.91482 3.0497 0
M  V30 1738 C 166.537 3.44855 2.88782 0
M  V30 1739 C 167.856 1.71651 4.05246 0
M  V30 1740 H 164.975 0.413498 0.610072 0
M  V30 1741 H 167.617 1.56261 1.08086 0
M  V30 1742 H 165.767 1.55095 3.56199 0
M  V30 1743 H 167.439 3.9105 2.44698 0
M  V30 1744 H 165.682 3.71373 2.24198 0
M  V30 1745 H 166.353 3.94694 3.85902 0
M  V30 1746 H 168.829 2.0337 3.63015 0
M  V30 1747 H 167.705 2.28651 4.99009 0
M  V30 1748 H 167.966 0.663555 4.37092 0
M  V30 1749 N 167.025 -1.13721 1.09112 0
M  V30 1750 C 167.935 -2.22638 0.73957 0
M  V30 1751 C 168.951 -1.72091 -0.257068 0
M  V30 1752 O 170.127 -2.01155 -0.0992154 0
M  V30 1753 C 167.192 -3.46322 0.16191 0
M  V30 1754 C 166.253 -4.11775 1.21408 0
M  V30 1755 C 165.486 -5.29555 0.663891 0
M  V30 1756 O 165.709 -5.68077 -0.514274 0
M  V30 1757 O 164.643 -5.84973 1.41738 0
M  V30 1758 H 168.469 -2.55074 1.64836 0
M  V30 1759 H 166.054 -1.21791 0.865289 0
M  V30 1760 H 167.936 -4.21107 -0.157073 0
M  V30 1761 H 166.611 -3.15593 -0.719932 0
M  V30 1762 H 165.518 -3.3883 1.58571 0
M  V30 1763 H 166.851 -4.46627 2.06845 0
M  V30 1764 N 168.503 -0.877838 -1.30888 0
M  V30 1765 C 169.752 -0.488793 -1.95688 0
M  V30 1766 C 170.065 0.965485 -1.70111 0
M  V30 1767 O 171.271 1.46104 -2.28836 0
M  V30 1768 C 169.727 -0.823201 -3.50359 0
M  V30 1769 C 169.335 -2.29477 -3.84765 0
M  V30 1770 C 171.079 -0.503009 -4.21509 0
M  V30 1771 C 168.986 -2.57118 -5.32583 0
M  V30 1772 H 167.916 -0.179062 -0.732429 0
M  V30 1773 H 170.567 -1.07183 -1.48943 0
M  V30 1774 H 168.949 -0.169331 -3.95638 0
M  V30 1775 H 170.123 -2.99236 -3.5042 0
M  V30 1776 H 168.438 -2.58178 -3.267 0
M  V30 1777 H 171.035 -0.68665 -5.30273 0
M  V30 1778 H 171.378 0.557109 -4.12555 0
M  V30 1779 H 171.911 -1.11376 -3.8189 0
M  V30 1780 H 168.65 -3.61843 -5.4658 0
M  V30 1781 H 168.17 -1.91961 -5.68253 0
M  V30 1782 H 169.849 -2.42251 -5.99936 0
M  V30 1783 N 169.982 1.44106 -0.638065 0
M  V30 1784 C 171.21 2.06336 -0.152615 0
M  V30 1785 C 171.625 1.47731 1.17563 0
M  V30 1786 O 170.982 0.602806 1.72257 0
M  V30 1787 C 171.033 3.61479 -0.0391491 0
M  V30 1788 O 170.754 4.17903 -1.31487 0
M  V30 1789 C 172.255 4.40757 0.474176 0
M  V30 1790 H 169.475 0.665862 -0.0828776 0
M  V30 1791 H 172.019 1.84862 -0.87443 0
M  V30 1792 H 170.174 3.82191 0.633142 0
M  V30 1793 H 170.588 5.11416 -1.16421 0
M  V30 1794 H 172.062 5.49707 0.502562 0
M  V30 1795 H 172.539 4.12697 1.50258 0
M  V30 1796 H 173.145 4.24979 -0.165102 0
M  V30 1797 N 171.46 0.379036 1.52974 0
M  V30 1798 C 172.37 -0.468639 2.29872 0
M  V30 1799 C 173.386 -1.08067 1.36373 0
M  V30 1800 O 174.562 -1.08871 1.69438 0
M  V30 1801 C 171.627 -1.58594 3.083 0
M  V30 1802 C 170.688 -1.00007 4.17489 0
M  V30 1803 C 169.921 -2.06413 4.92168 0
M  V30 1804 O 170.144 -3.27751 4.66835 0
M  V30 1805 O 169.078 -1.68717 5.7777 0
M  V30 1806 H 172.904 0.157508 3.03291 0
M  V30 1807 H 170.489 0.143035 1.48714 0
M  V30 1808 H 172.371 -2.23525 3.57232 0
M  V30 1809 H 171.046 -2.19724 2.37703 0
M  V30 1810 H 169.953 -0.314299 3.72777 0
M  V30 1811 H 171.286 -0.433135 4.90291 0
M  V30 1812 N 172.938 -1.57226 0.108567 0
M  V30 1813 C 174.187 -1.94008 -0.551703 0
M  V30 1814 C 174.5 -0.993442 -1.68494 0
M  V30 1815 O 175.706 -1.25551 -2.40726 0
M  V30 1816 C 174.162 -3.44763 -1.03279 0
M  V30 1817 C 173.77 -4.47943 0.0714193 0
M  V30 1818 C 175.514 -3.90483 -1.66503 0
M  V30 1819 C 173.421 -5.89865 -0.425779 0
M  V30 1820 H 172.351 -0.724206 -0.209863 0
M  V30 1821 H 175.002 -1.82547 0.186741 0
M  V30 1822 H 173.384 -3.51422 -1.82533 0
M  V30 1823 H 174.558 -4.52942 0.847365 0
M  V30 1824 H 172.873 -4.11913 0.609669 0
M  V30 1825 H 175.47 -4.93925 -2.04798 0
M  V30 1826 H 175.813 -3.29877 -2.53942 0
M  V30 1827 H 176.346 -3.86581 -0.938074 0
M  V30 1828 H 173.085 -6.54202 0.412316 0
M  V30 1829 H 172.605 -5.88309 -1.16843 0
M  V30 1830 H 174.284 -6.40844 -0.890397 0
M  V30 1831 N 174.416 0.165178 -1.56732 0
M  V30 1832 C 175.827 0.727046 -1.71962 0
M  V30 1833 C 176.178 1.82508 -0.720078 0
M  V30 1834 O 175.303 2.16082 0.117242 0
M  V30 1835 C 175.898 1.32559 -3.11791 0
M  V30 1836 C 174.457 1.83422 -3.28684 0
M  V30 1837 C 173.604 0.715567 -2.67908 0
M  V30 1838 H 176.555 -0.0602896 -1.58585 0
M  V30 1839 H 176.576 2.19533 -3.10782 0
M  V30 1840 H 176.088 0.526195 -3.84516 0
M  V30 1841 H 174.189 2.65986 -2.60926 0
M  V30 1842 H 174.302 1.97543 -4.36478 0
M  V30 1843 H 172.666 1.13758 -2.27884 0
M  V30 1844 H 173.449 -0.0720836 -3.43224 0
M  V30 1845 N 175.894 1.51508 0.433938 0
M  V30 1846 C 176.857 1.72473 1.50949 0
M  V30 1847 C 177.857 0.594725 1.49398 0
M  V30 1848 O 179.047 0.862315 1.5136 0
M  V30 1849 C 176.179 1.78431 2.90474 0
M  V30 1850 H 177.372 2.68467 1.33662 0
M  V30 1851 H 174.925 1.41549 0.662836 0
M  V30 1852 H 175.66 0.842645 3.13161 0
M  V30 1853 H 175.445 2.60558 2.93005 0
M  V30 1854 H 176.935 1.96479 3.68491 0
M  V30 1855 N 177.372 -0.689602 1.41712 0
M  V30 1856 C 178.335 -1.78521 1.43746 0
M  V30 1857 C 179.335 -1.57436 0.327191 0
M  V30 1858 O 180.525 -1.64 0.587348 0
M  V30 1859 C 177.657 -3.16971 1.25467 0
M  V30 1860 H 178.85 -1.78108 2.41283 0
M  V30 1861 H 176.403 -0.89781 1.27942 0
M  V30 1862 H 177.138 -3.23019 0.287948 0
M  V30 1863 H 176.923 -3.33678 2.05917 0
M  V30 1864 H 178.413 -3.96935 1.2974 0
M  V30 1865 N 178.85 -1.27639 -0.924453 0
M  V30 1866 C 179.798 -1.10485 -2.04685 0
M  V30 1867 C 180.792 -0.0270421 -1.69378 0
M  V30 1868 O 181.998 -0.185008 -1.79047 0
M  V30 1869 H 178.373 -0.340546 -0.670472 0
M  V30 1870 H 180.344 -2.05566 -2.16298 0
M  V30 1871 C 179.093 -0.772229 -3.39016 0
M  V30 1872 H 178.416 -1.59351 -3.66671 0
M  V30 1873 H 179.856 -0.692097 -4.18313 0
M  V30 1874 C 178.315 0.523554 -3.32807 0
M  V30 1875 O 178.845 1.55702 -3.70297 0
M  V30 1876 N 177.051 0.520363 -2.85903 0
M  V30 1877 H 176.598 -0.32107 -2.55591 0
M  V30 1878 H 176.556 1.38742 -2.82131 0
M  V30 1879 N 180.328 1.1314 -1.09713 0
M  V30 1880 C 181.238 2.22242 -0.751367 0
M  V30 1881 C 182.254 1.72224 0.247938 0
M  V30 1882 O 183.43 2.01205 0.0885463 0
M  V30 1883 C 180.495 3.46231 -0.180274 0
M  V30 1884 C 179.556 4.11125 -1.2359 0
M  V30 1885 C 178.789 5.29195 -0.691966 0
M  V30 1886 O 179.012 5.68342 0.48414 0
M  V30 1887 O 177.946 5.84214 -1.44838 0
M  V30 1888 H 181.772 2.54197 -1.66186 0
M  V30 1889 H 179.357 1.21331 -0.871735 0
M  V30 1890 H 181.239 4.21185 0.134739 0
M  V30 1891 H 179.914 3.1597 0.703185 0
M  V30 1892 H 178.821 3.37985 -1.60366 0
M  V30 1893 H 180.154 4.45524 -2.09211 0
M  V30 1894 N 181.806 0.884767 1.30421 0
M  V30 1895 C 182.753 0.349642 2.28136 0
M  V30 1896 C 183.723 -0.560061 1.56373 0
M  V30 1897 O 184.908 -0.488524 1.8444 0
M  V30 1898 C 182.048 -0.42999 3.42411 0
M  V30 1899 C 181.161 0.508907 4.28992 0
M  V30 1900 C 180.296 -0.286301 5.30428 0
M  V30 1901 C 179.335 0.648079 6.08659 0
M  V30 1902 N 178.472 -0.111792 7.02011 0
M  V30 1903 H 183.312 1.18807 2.73293 0
M  V30 1904 H 180.849 0.597231 1.3443 0
M  V30 1905 H 182.807 -0.897923 4.07423 0
M  V30 1906 H 181.437 -1.23299 2.98324 0
M  V30 1907 H 180.489 1.09533 3.64289 0
M  V30 1908 H 181.801 1.22475 4.8353 0
M  V30 1909 H 180.955 -0.816098 6.01186 0
M  V30 1910 H 179.694 -1.03536 4.76583 0
M  V30 1911 H 178.699 1.18951 5.36778 0
M  V30 1912 H 179.924 1.39623 6.64592 0
M  V30 1913 H 177.87 -0.843395 6.50556 0
M  V30 1914 H 177.787 0.544429 7.54037 0
M  V30 1915 H 179.055 -0.622339 7.77012 0
M  V30 1916 N 183.284 -1.43765 0.645699 0
M  V30 1917 C 184.216 -2.29027 -0.0890605 0
M  V30 1918 C 185.229 -1.42093 -0.794563 0
M  V30 1919 O 186.418 -1.66104 -0.653575 0
M  V30 1920 C 183.518 -3.18831 -1.14891 0
M  V30 1921 C 182.691 -4.34261 -0.523043 0
M  V30 1922 C 181.75 -5.04994 -1.47878 0
M  V30 1923 O 180.776 -5.6052 -0.990277 0
M  V30 1924 N 181.978 -5.07795 -2.81291 0
M  V30 1925 H 184.743 -2.92727 0.64272 0
M  V30 1926 H 182.304 -1.54373 0.487924 0
M  V30 1927 H 184.296 -3.63015 -1.78892 0
M  V30 1928 H 182.866 -2.56782 -1.78275 0
M  V30 1929 H 182.086 -3.93088 0.295896 0
M  V30 1930 H 183.374 -5.08728 -0.0858147 0
M  V30 1931 H 182.772 -4.64042 -3.23546 0
M  V30 1932 H 181.329 -5.55721 -3.40614 0
M  V30 1933 N 184.763 -0.387143 -1.52771 0
M  V30 1934 C 186.003 0.195537 -2.03463 0
M  V30 1935 C 186.367 1.44222 -1.26744 0
M  V30 1936 O 187.568 2.10192 -1.67549 0
M  V30 1937 C 185.839 0.459097 -3.54439 0
M  V30 1938 S 187.398 1.01237 -4.26962 0
M  V30 1939 H 184.216 0.0552675 -0.708849 0
M  V30 1940 H 186.818 -0.534992 -1.88037 0
M  V30 1941 H 185.522 -0.455382 -4.07866 0
M  V30 1942 H 185.053 1.21811 -3.74066 0
M  V30 1943 H 187.068 2.29492 -4.39941 0
M  V30 1944 N 186.241 1.57166 -0.116904 0
M  V30 1945 C 187.489 1.94737 0.540533 0
M  V30 1946 C 187.81 1.00096 1.67349 0
M  V30 1947 O 187.08 0.0568854 1.95817 0
M  V30 1948 H 185.66 0.718981 0.202669 0
M  V30 1949 H 188.322 1.94017 -0.185353 0
M  V30 1950 H 187.418 2.97719 0.936483 0
M  V30 1951 N 187.719 -0.156864 1.56817 0
M  V30 1952 C 188.651 -1.21883 1.94106 0
M  V30 1953 C 189.664 -1.3971 0.835754 0
M  V30 1954 O 190.853 -1.39457 1.11418 0
M  V30 1955 C 187.953 -2.58527 2.19127 0
M  V30 1956 C 187.126 -2.61809 3.50393 0
M  V30 1957 C 186.185 -3.7992 3.64071 0
M  V30 1958 O 185.211 -3.65249 4.36557 0
M  V30 1959 N 186.413 -4.96973 2.99997 0
M  V30 1960 H 189.178 -0.901974 2.85805 0
M  V30 1961 H 186.739 -0.346513 1.58148 0
M  V30 1962 H 188.731 -3.36034 2.25529 0
M  V30 1963 H 187.301 -2.82545 1.33742 0
M  V30 1964 H 186.521 -1.7029 3.5552 0
M  V30 1965 H 187.809 -2.61024 4.36742 0
M  V30 1966 H 187.207 -5.11794 2.41004 0
M  V30 1967 H 185.764 -5.7229 3.11974 0
M  V30 1968 N 189.197 -1.51736 -0.425897 0
M  V30 1969 C 190.16 -1.73271 -1.50032 0
M  V30 1970 C 191.16 -0.602639 -1.4908 0
M  V30 1971 O 192.35 -0.87033 -1.509 0
M  V30 1972 C 189.482 -1.79969 -2.89523 0
M  V30 1973 H 190.675 -2.69172 -1.32237 0
M  V30 1974 H 188.228 -1.41899 -0.65532 0
M  V30 1975 H 188.963 -0.859241 -3.1271 0
M  V30 1976 H 188.748 -2.62109 -2.91619 0
M  V30 1977 H 190.238 -1.9843 -3.67444 0
M  V30 1978 N 190.675 0.682077 -1.42076 0
M  V30 1979 C 191.622 1.79578 -1.44984 0
M  V30 1980 C 192.592 1.6332 -0.302614 0
M  V30 1981 O 193.777 1.83978 -0.505633 0
M  V30 1982 C 190.917 3.1756 -1.35091 0
M  V30 1983 C 190.03 3.45156 -2.59791 0
M  V30 1984 C 189.165 4.72826 -2.42093 0
M  V30 1985 C 188.204 4.93433 -3.62202 0
M  V30 1986 N 187.341 6.12338 -3.43491 0
M  V30 1987 H 192.181 1.76427 -2.40161 0
M  V30 1988 H 189.718 0.861376 -1.19242 0
M  V30 1989 H 191.676 3.97287 -1.27354 0
M  V30 1990 H 190.306 3.19854 -0.435133 0
M  V30 1991 H 189.358 2.59736 -2.77923 0
M  V30 1992 H 190.67 3.5628 -3.49094 0
M  V30 1993 H 189.824 5.60631 -2.319 0
M  V30 1994 H 188.563 4.63973 -1.50268 0
M  V30 1995 H 187.568 4.04073 -3.72834 0
M  V30 1996 H 188.793 5.04136 -4.54998 0
M  V30 1997 H 186.739 6.04672 -2.54377 0
M  V30 1998 H 186.656 6.2429 -4.26377 0
M  V30 1999 H 187.924 7.02841 -3.37097 0
M  V30 2000 N 192.153 1.28127 0.917671 0
M  V30 2001 C 193.083 1.14248 2.03641 0
M  V30 2002 C 194.064 0.0412748 1.7005 0
M  V30 2003 O 195.249 0.217566 1.92977 0
M  V30 2004 C 192.379 0.799431 3.37974 0
M  V30 2005 C 191.333 1.85497 3.85713 0
M  V30 2006 C 190.659 1.36565 5.16966 0
M  V30 2007 C 191.959 3.26085 4.08002 0
M  V30 2008 H 193.653 2.07835 2.15511 0
M  V30 2009 H 191.199 1.00064 1.03553 0
M  V30 2010 H 193.152 0.689114 4.15727 0
M  V30 2011 H 191.876 -0.172145 3.26146 0
M  V30 2012 H 190.535 1.95437 3.10161 0
M  V30 2013 H 190.183 0.383253 5.01538 0
M  V30 2014 H 189.883 2.07143 5.49878 0
M  V30 2015 H 191.407 1.26848 5.97279 0
M  V30 2016 H 192.821 3.19089 4.76293 0
M  V30 2017 H 191.218 3.94462 4.52238 0
M  V30 2018 H 192.288 3.70394 3.12948 0
M  V30 2019 N 193.631 -1.12557 1.10312 0
M  V30 2020 C 194.581 -2.16331 0.720076 0
M  V30 2021 C 195.565 -1.58616 -0.270115 0
M  V30 2022 O 196.757 -1.76823 -0.0790507 0
M  V30 2023 C 193.886 -3.42963 0.152113 0
M  V30 2024 C 192.972 -4.07663 1.16927 0
M  V30 2025 N 193.363 -4.47392 2.35953 0
M  V30 2026 C 191.661 -4.34425 1.0095 0
M  V30 2027 C 192.362 -4.97932 3.0073 0
M  V30 2028 N 191.338 -4.93358 2.28252 0
M  V30 2029 H 195.14 -2.44813 1.62616 0
M  V30 2030 H 192.654 -1.29449 0.980654 0
M  V30 2031 H 194.651 -4.16664 -0.14037 0
M  V30 2032 H 193.311 -3.1595 -0.748701 0
M  V30 2033 H 194.322 -4.39802 2.73486 0
M  V30 2034 H 190.999 -4.17177 0.164134 0
M  V30 2035 H 192.389 -5.38397 4.01969 0
M  V30 2036 N 195.109 -0.891671 -1.2995 0
M  V30 2037 C 196.386 -0.433307 -1.9074 0
M  V30 2038 C 196.766 1.08646 -1.80995 0
M  V30 2039 O 196.114 1.92476 -1.23147 0
M  V30 2040 C 196.324 -0.938895 -3.36134 0
M  V30 2041 C 197.672 -0.977829 -4.13187 0
M  V30 2042 O 198.696 -0.886015 -3.45005 0
M  V30 2043 O 197.555 -1.11453 -5.35015 0
M  V30 2044 H 194.649 -0.133699 -0.816121 0
M  V30 2045 H 197.195 -0.981011 -1.38471 0
M  V30 2046 H 195.967 -1.98281 -3.37343 0
M  V30 2047 H 195.59 -0.37074 -3.95868 0
M  V30 2048 N 196.587 1.43421 -0.653314 0
M  V30 2049 C 197.517 2.33487 0.0246656 0
M  V30 2050 C 198.498 1.49475 0.811863 0
M  V30 2051 O 199.683 1.78139 0.773322 0
M  V30 2052 C 196.813 3.32841 0.99166 0
M  V30 2053 C 195.767 4.26842 0.314568 0
M  V30 2054 C 195.093 5.16236 1.39302 0
M  V30 2055 C 196.393 5.16243 -0.793095 0
M  V30 2056 H 198.087 2.90427 -0.727481 0
M  V30 2057 H 195.633 1.39649 -0.351287 0
M  V30 2058 H 197.586 3.94747 1.47487 0
M  V30 2059 H 196.31 2.74158 1.77497 0
M  V30 2060 H 194.969 3.663 -0.148199 0
M  V30 2061 H 194.617 4.53891 2.16776 0
M  V30 2062 H 194.317 5.79948 0.945223 0
M  V30 2063 H 195.841 5.81015 1.87759 0
M  V30 2064 H 197.255 5.71958 -0.392039 0
M  V30 2065 H 195.652 5.88676 -1.16536 0
M  V30 2066 H 196.722 4.55927 -1.65103 0
M  V30 2067 N 198.065 0.39524 1.52563 0
M  V30 2068 C 198.975 -0.444232 2.30356 0
M  V30 2069 C 199.991 -1.06615 1.37511 0
M  V30 2070 O 201.167 -1.07067 1.70583 0
M  V30 2071 C 198.232 -1.55315 3.09964 0
M  V30 2072 C 197.293 -0.955734 4.18526 0
M  V30 2073 C 196.526 -2.01181 4.9433 0
M  V30 2074 O 196.749 -3.22781 4.70285 0
M  V30 2075 O 195.683 -1.62579 5.79527 0
M  V30 2076 H 199.509 0.189667 3.03107 0
M  V30 2077 H 197.094 0.1588 1.48554 0
M  V30 2078 H 198.976 -2.19724 3.59582 0
M  V30 2079 H 197.651 -2.17191 2.4002 0
M  V30 2080 H 196.558 -0.274743 3.7309 0
M  V30 2081 H 197.891 -0.381109 4.90722 0
M  V30 2082 N 199.544 -1.57102 0.125237 0
M  V30 2083 C 200.792 -1.95021 -0.530198 0
M  V30 2084 C 201.113 -1.00982 -1.66816 0
M  V30 2085 O 200.383 -0.0672693 -1.95784 0
M  V30 2086 H 198.963 -0.720046 -0.198853 0
M  V30 2087 H 201.625 -1.93916 0.19564 0
M  V30 2088 H 200.721 -2.98211 -0.920681 0
M  V30 2089 N 201.022 0.148545 -1.56898 0
M  V30 2090 C 201.985 1.16736 -1.97244 0
M  V30 2091 C 202.985 1.35947 -0.858777 0
M  V30 2092 O 204.175 1.32966 -1.12542 0
M  V30 2093 C 201.307 2.52798 -2.28705 0
M  V30 2094 H 202.5 0.821279 -2.88435 0
M  V30 2095 H 200.053 0.391831 -1.51309 0
M  V30 2096 H 200.788 2.92381 -1.403 0
M  V30 2097 H 200.573 2.40216 -3.09901 0
M  V30 2098 H 202.063 3.26179 -2.60762 0
M  V30 2099 N 202.5 1.5196 0.417844 0
M  V30 2100 C 203.447 1.74678 1.50852 0
M  V30 2101 C 204.417 0.588947 1.55308 0
M  V30 2102 O 205.602 0.825544 1.72016 0
M  V30 2103 C 202.742 1.89544 2.88387 0
M  V30 2104 C 201.855 3.17166 2.93309 0
M  V30 2105 C 200.99 3.22513 4.22088 0
M  V30 2106 C 200.029 4.44372 4.20951 0
M  V30 2107 N 199.166 4.47161 5.41287 0
M  V30 2108 H 204.006 2.67768 1.30783 0
M  V30 2109 H 201.543 1.32689 0.63498 0
M  V30 2110 H 203.501 1.96146 3.68216 0
M  V30 2111 H 202.131 0.998424 3.06971 0
M  V30 2112 H 201.183 3.19778 2.06024 0
M  V30 2113 H 202.495 4.07021 2.88332 0
M  V30 2114 H 201.649 3.28139 5.10303 0
M  V30 2115 H 200.388 2.30581 4.29748 0
M  V30 2116 H 199.393 4.38902 3.31127 0
M  V30 2117 H 200.618 5.3759 4.14938 0
M  V30 2118 H 198.564 3.58108 5.49632 0
M  V30 2119 H 198.481 5.3085 5.3827 0
M  V30 2120 H 199.749 4.57005 6.3148 0
M  V30 2121 N 203.978 -0.674533 1.42435 0
M  V30 2122 C 205.394 -0.98769 1.25367 0
M  V30 2123 C 205.594 -2.00879 0.158044 0
M  V30 2124 O 204.65 -2.48075 -0.470633 0
M  V30 2125 C 205.963 -1.49224 2.6106 0
M  V30 2126 C 207.511 -1.61 2.68417 0
M  V30 2127 C 207.986 -2.14852 4.04478 0
M  V30 2128 N 209.477 -2.22185 4.06434 0
M  V30 2129 C 210.212 -2.64928 5.08528 0
M  V30 2130 N 209.708 -3.07121 6.21006 0
M  V30 2131 N 211.501 -2.64679 4.95885 0
M  V30 2132 H 203.652 0.00152503 2.124 0
M  V30 2133 H 205.915 -0.0618434 0.945981 0
M  V30 2134 H 205.621 -0.816453 3.42092 0
M  V30 2135 H 205.495 -2.47094 2.84999 0
M  V30 2136 H 207.882 -2.27686 1.87732 0
M  V30 2137 H 207.963 -0.616195 2.48267 0
M  V30 2138 H 207.607 -1.48775 4.85622 0
M  V30 2139 H 207.537 -3.15024 4.2198 0
M  V30 2140 H 210.028 -1.92435 3.25234 0
M  V30 2141 H 210.341 -3.38423 6.94759 0
M  V30 2142 H 208.686 -3.04978 6.24511 0
M  V30 2143 H 211.877 -2.31078 4.07088 0
M  V30 2144 H 212.05 -2.9767 5.75584 0
M  V30 2145 N 205.456 -1.28612 -0.910864 0
M  V30 2146 C 206.386 -1.15326 -2.03032 0
M  V30 2147 C 207.367 -0.0502924 -1.70026 0
M  V30 2148 O 208.552 -0.227797 -1.92859 0
M  V30 2149 C 205.682 -0.817343 -3.37545 0
M  V30 2150 C 204.636 -1.8754 -3.84724 0
M  V30 2151 C 203.962 -1.39305 -5.16235 0
M  V30 2152 C 205.262 -3.28244 -4.06267 0
M  V30 2153 H 206.956 -2.08975 -2.14406 0
M  V30 2154 H 204.502 -1.00612 -1.03021 0
M  V30 2155 H 206.455 -0.711151 -4.15356 0
M  V30 2156 H 205.179 0.154846 -3.26233 0
M  V30 2157 H 203.838 -1.97079 -3.09121 0
M  V30 2158 H 203.486 -0.409846 -5.01328 0
M  V30 2159 H 203.186 -2.10057 -5.48771 0
M  V30 2160 H 204.71 -1.30014 -5.96598 0
M  V30 2161 H 206.124 -3.21611 -4.74594 0
M  V30 2162 H 204.521 -3.96855 -4.5014 0
M  V30 2163 H 205.591 -3.72048 -3.10979 0
M  V30 2164 N 206.934 1.1197 -1.10907 0
M  V30 2165 C 207.867 2.16998 -0.706192 0
M  V30 2166 C 208.845 1.59903 0.294897 0
M  V30 2167 O 210.029 1.87513 0.192636 0
M  V30 2168 C 207.156 3.38673 -0.0427664 0
M  V30 2169 C 206.202 4.14414 -1.00811 0
M  V30 2170 S 207.035 4.72079 -2.52789 0
M  V30 2171 C 208.191 5.97083 -1.87731 0
M  V30 2172 H 208.424 2.50837 -1.59587 0
M  V30 2173 H 205.957 1.23508 -0.926555 0
M  V30 2174 H 207.915 4.09142 0.333668 0
M  V30 2175 H 206.576 3.03105 0.823788 0
M  V30 2176 H 205.769 5.016 -0.491259 0
M  V30 2177 H 205.371 3.49678 -1.3267 0
M  V30 2178 H 207.663 6.66599 -1.21044 0
M  V30 2179 H 208.606 6.53403 -2.72892 0
M  V30 2180 H 209.014 5.4837 -1.33979 0
M  V30 2181 N 208.412 0.89855 1.29475 0
M  V30 2182 C 209.828 0.594483 1.48115 0
M  V30 2183 C 210.028 -0.86431 1.82022 0
M  V30 2184 O 209.084 -1.64457 1.91599 0
M  V30 2185 C 210.397 1.51932 2.59494 0
M  V30 2186 C 211.945 1.5244 2.7337 0
M  V30 2187 C 212.42 2.43548 3.87877 0
M  V30 2188 N 213.911 2.41589 3.95208 0
M  V30 2189 C 214.646 3.08789 4.83153 0
M  V30 2190 N 214.142 3.85265 5.75798 0
M  V30 2191 N 215.935 2.97952 4.76635 0
M  V30 2192 H 208.086 1.84207 1.05742 0
M  V30 2193 H 210.349 0.789251 0.525154 0
M  V30 2194 H 210.055 2.55865 2.41301 0
M  V30 2195 H 209.929 1.23899 3.56271 0
M  V30 2196 H 212.316 0.492518 2.90961 0
M  V30 2197 H 212.397 1.8451 1.77172 0
M  V30 2198 H 212.041 3.46829 3.71041 0
M  V30 2199 H 211.971 2.08788 4.83441 0
M  V30 2200 H 214.462 1.86025 3.28943 0
M  V30 2201 H 214.775 4.33598 6.39697 0
M  V30 2202 H 213.12 3.89371 5.75687 0
M  V30 2203 H 216.311 2.37723 4.03244 0
M  V30 2204 H 216.484 3.50599 5.44962 0
M  V30 2205 N 209.89 -1.43072 0.660911 0
M  V30 2206 C 211.137 -2.01721 0.177445 0
M  V30 2207 C 211.465 -1.5218 -1.21126 0
M  V30 2208 O 210.72 -0.708659 -1.82419 0
M  V30 2209 C 211.019 -3.57103 0.145563 0
M  V30 2210 C 210.685 -4.26021 1.47705 0
M  V30 2211 C 209.347 -4.44563 1.84165 0
M  V30 2212 C 211.699 -4.64983 2.35458 0
M  V30 2213 C 209.027 -4.99334 3.0803 0
M  V30 2214 C 211.379 -5.21127 3.58622 0
M  V30 2215 C 210.043 -5.37884 3.95268 0
M  V30 2216 H 209.313 -0.73815 0.0649317 0
M  V30 2217 H 211.96 -1.71446 0.853144 0
M  V30 2218 H 210.265 -3.86965 -0.61361 0
M  V30 2219 H 211.962 -4.00248 -0.2455 0
M  V30 2220 H 208.552 -4.11939 1.18339 0
M  V30 2221 H 212.736 -4.50343 2.08579 0
M  V30 2222 H 207.992 -5.10493 3.36462 0
M  V30 2223 H 212.166 -5.50262 4.26831 0
M  V30 2224 H 209.793 -5.80089 4.91325 0
M  V30 2225 N 211.368 -0.403325 -1.52352 0
M  V30 2226 C 212.614 0.167015 -2.02713 0
M  V30 2227 C 212.969 1.43296 -1.28391 0
M  V30 2228 O 212.262 1.87796 -0.379885 0
M  V30 2229 C 212.456 0.474665 -3.54234 0
M  V30 2230 C 212.285 -0.759909 -4.43233 0
M  V30 2231 C 211.055 -1.28338 -4.88731 0
M  V30 2232 C 213.253 -1.63634 -4.87574 0
M  V30 2233 N 211.235 -2.47404 -5.6184 0
M  V30 2234 C 212.606 -2.67329 -5.59406 0
M  V30 2235 C 214.661 -1.65478 -4.69597 0
M  V30 2236 C 213.364 -3.72773 -6.15169 0
M  V30 2237 C 215.39 -2.69837 -5.26253 0
M  V30 2238 C 214.752 -3.72253 -5.98002 0
M  V30 2239 H 210.851 0.0228343 -0.781667 0
M  V30 2240 H 213.435 -0.556368 -1.86581 0
M  V30 2241 H 211.606 1.16709 -3.7045 0
M  V30 2242 H 213.338 1.03338 -3.91284 0
M  V30 2243 H 210.093 -0.842273 -4.6605 0
M  V30 2244 H 210.517 -3.07688 -6.0304 0
M  V30 2245 H 215.159 -0.876389 -4.13617 0
M  V30 2246 H 212.877 -4.51471 -6.70223 0
M  V30 2247 H 216.463 -2.72164 -5.14216 0
M  V30 2248 H 215.343 -4.51679 -6.41058 0
M  V30 2249 N 212.846 1.57033 -0.133567 0
M  V30 2250 C 213.776 2.1909 0.807567 0
M  V30 2251 C 214.757 1.13517 1.26681 0
M  V30 2252 O 215.942 1.41809 1.32679 0
M  V30 2253 C 213.072 2.80188 2.05212 0
M  V30 2254 C 212.026 3.91471 1.73015 0
M  V30 2255 C 211.352 4.39443 3.04622 0
M  V30 2256 C 212.652 5.12886 0.987168 0
M  V30 2257 H 214.346 2.97988 0.290403 0
M  V30 2258 H 211.892 1.43335 0.138239 0
M  V30 2259 H 213.845 3.22264 2.71521 0
M  V30 2260 H 212.569 1.98601 2.59278 0
M  V30 2261 H 211.228 3.49993 1.0909 0
M  V30 2262 H 210.876 3.54695 3.56651 0
M  V30 2263 H 210.576 5.14495 2.83847 0
M  V30 2264 H 212.1 4.8418 3.72024 0
M  V30 2265 H 213.514 5.51891 1.55208 0
M  V30 2266 H 211.911 5.93615 0.87985 0
M  V30 2267 H 212.981 4.84894 -0.0235286 0
M  V30 2268 N 214.325 -0.140222 1.56975 0
M  V30 2269 C 215.55 -0.870414 1.88251 0
M  V30 2270 C 215.975 -1.73637 0.723312 0
M  V30 2271 O 215.333 -1.78329 -0.32689 0
M  V30 2272 C 215.381 -1.69737 3.18154 0
M  V30 2273 O 214.485 -2.80229 3.02565 0
M  V30 2274 H 213.826 -0.242025 0.61832 0
M  V30 2275 H 216.356 -0.128999 2.04193 0
M  V30 2276 H 216.366 -2.09099 3.50345 0
M  V30 2277 H 215.041 -1.06152 4.02125 0
M  V30 2278 H 213.618 -2.44224 2.81796 0
M  V30 2279 N 215.803 -1.52179 -0.40978 0
M  V30 2280 C 216.735 -1.71703 -1.51825 0
M  V30 2281 C 217.748 -0.597445 -1.51441 0
M  V30 2282 O 218.937 -0.872582 -1.55719 0
M  V30 2283 C 216.037 -1.74171 -2.90719 0
M  V30 2284 C 215.21 -3.03156 -3.15302 0
M  V30 2285 C 214.269 -2.97445 -4.34065 0
M  V30 2286 O 213.295 -3.71352 -4.31377 0
M  V30 2287 N 214.497 -2.15191 -5.39141 0
M  V30 2288 H 217.262 -2.67334 -1.35472 0
M  V30 2289 H 214.823 -1.50409 -0.599069 0
M  V30 2290 H 216.815 -1.67884 -3.68235 0
M  V30 2291 H 215.385 -0.860166 -3.00533 0
M  V30 2292 H 214.605 -3.23097 -2.25836 0
M  V30 2293 H 215.893 -3.88484 -3.28569 0
M  V30 2294 H 215.291 -1.54573 -5.44173 0
M  V30 2295 H 213.848 -2.1476 -6.15403 0
M  V30 2296 N 217.281 0.66697 -1.42791 0
M  V30 2297 C 218.558 1.4234 -1.34159 0
M  V30 2298 C 218.938 2.11093 0.0172729 0
M  V30 2299 O 218.286 2.03808 1.03318 0
M  V30 2300 C 218.496 2.41942 -2.51526 0
M  V30 2301 C 219.844 3.06353 -2.93995 0
M  V30 2302 O 220.868 2.52269 -2.51473 0
M  V30 2303 O 219.727 4.04376 -3.67617 0
M  V30 2304 H 216.821 0.635277 -0.529483 0
M  V30 2305 H 219.367 0.695034 -1.54814 0
M  V30 2306 H 218.139 1.89991 -3.42081 0
M  V30 2307 H 217.762 3.22249 -2.32898 0
M  V30 2308 N 218.759 1.29093 0.90403 0
M  V30 2309 C 219.706 1.13853 2.00764 0
M  V30 2310 C 220.676 0.0330084 1.66067 0
M  V30 2311 O 221.861 0.199733 1.89752 0
M  V30 2312 C 219.001 0.816537 3.35301 0
M  V30 2313 C 218.114 2.00206 3.82807 0
M  V30 2314 C 217.249 1.61983 5.059 0
M  V30 2315 C 216.288 2.77143 5.45764 0
M  V30 2316 N 215.425 2.39346 6.60044 0
M  V30 2317 H 220.265 2.08276 2.13132 0
M  V30 2318 H 217.802 1.03648 1.04381 0
M  V30 2319 H 219.76 0.610557 4.12708 0
M  V30 2320 H 218.39 -0.090779 3.22672 0
M  V30 2321 H 217.442 2.31988 3.01473 0
M  V30 2322 H 218.754 2.86512 4.08304 0
M  V30 2323 H 217.908 1.37649 5.90879 0
M  V30 2324 H 216.647 0.728202 4.82233 0
M  V30 2325 H 215.652 3.02165 4.59322 0
M  V30 2326 H 216.877 3.66964 5.71414 0
M  V30 2327 H 214.823 1.52665 6.37989 0
M  V30 2328 H 214.74 3.19185 6.85315 0
M  V30 2329 H 216.008 2.1832 7.48303 0
M  V30 2330 N 220.237 -1.11381 1.11499 0
M  V30 2331 C 221.147 -2.21019 0.786628 0
M  V30 2332 C 222.163 -1.72597 -0.220507 0
M  V30 2333 O 223.339 -2.01321 -0.0565251 0
M  V30 2334 C 220.404 -3.459 0.235333 0
M  V30 2335 C 219.465 -4.09107 1.30115 0
M  V30 2336 C 218.698 -5.28027 0.776068 0
M  V30 2337 O 218.921 -5.6904 -0.393661 0
M  V30 2338 O 217.855 -5.81835 1.54114 0
M  V30 2339 H 221.681 -2.51521 1.70209 0
M  V30 2340 H 219.266 -1.19928 0.890928 0
M  V30 2341 H 221.148 -4.21346 -0.067715 0
M  V30 2342 H 219.823 -3.17049 -0.652828 0
M  V30 2343 H 218.73 -3.35391 1.65722 0
M  V30 2344 H 220.063 -4.42139 2.16273 0
M  V30 2345 N 221.715 -0.905404 -1.28997 0
M  V30 2346 C 222.625 -0.392246 -2.31298 0
M  V30 2347 C 223.641 0.515889 -1.66176 0
M  V30 2348 O 224.817 0.404093 -1.97304 0
M  V30 2349 C 221.882 0.36686 -3.44754 0
M  V30 2350 C 220.943 -0.573485 -4.25452 0
M  V30 2351 C 220.176 0.149488 -5.33491 0
M  V30 2352 O 220.399 1.37255 -5.5364 0
M  V30 2353 O 219.333 -0.510919 -5.99728 0
M  V30 2354 H 223.159 -1.2411 -2.77183 0
M  V30 2355 H 220.744 -0.669926 -1.33538 0
M  V30 2356 H 222.626 0.795907 -4.13816 0
M  V30 2357 H 221.301 1.19169 -3.00966 0
M  V30 2358 H 220.208 -1.05176 -3.59011 0
M  V30 2359 H 221.541 -1.36489 -4.72897 0
M  V30 2360 N 223.193 1.4272 -0.668489 0
M  V30 2361 C 224.123 2.335 -0.000100175 0
M  V30 2362 C 225.104 1.50328 0.795964 0
M  V30 2363 O 226.289 1.78949 0.754385 0
M  V30 2364 C 223.419 3.33874 0.956302 0
M  V30 2365 C 222.373 4.27152 0.269278 0
M  V30 2366 C 221.699 5.17684 1.33818 0
M  V30 2367 C 222.999 5.15373 -0.847805 0
M  V30 2368 H 224.693 2.89639 -0.758244 0
M  V30 2369 H 222.239 1.39269 -0.366079 0
M  V30 2370 H 224.192 3.9629 1.43292 0
M  V30 2371 H 222.916 2.76025 1.74579 0
M  V30 2372 H 221.575 3.66123 -0.187042 0
M  V30 2373 H 221.223 4.56165 2.1195 0
M  V30 2374 H 220.923 5.80918 0.883659 0
M  V30 2375 H 222.447 5.82974 1.81586 0
M  V30 2376 H 223.861 5.7151 -0.452681 0
M  V30 2377 H 222.258 5.87407 -1.22773 0
M  V30 2378 H 223.328 4.5415 -1.69929 0
M  V30 2379 N 224.671 0.411399 1.52136 0
M  V30 2380 C 225.601 -0.404015 2.29978 0
M  V30 2381 C 226.582 -1.04412 1.34284 0
M  V30 2382 O 227.767 -1.0527 1.63192 0
M  V30 2383 C 224.897 -1.5197 3.12286 0
M  V30 2384 C 223.851 -1.00448 4.16046 0
M  V30 2385 C 223.177 -2.21393 4.86712 0
M  V30 2386 C 224.477 -0.0569336 5.22269 0
M  V30 2387 H 226.171 0.245529 2.98392 0
M  V30 2388 H 223.717 0.119525 1.43503 0
M  V30 2389 H 225.67 -2.09715 3.6551 0
M  V30 2390 H 224.394 -2.19716 2.41646 0
M  V30 2391 H 223.053 -0.449421 3.63835 0
M  V30 2392 H 222.701 -2.87699 4.12599 0
M  V30 2393 H 222.401 -1.87571 5.56858 0
M  V30 2394 H 223.925 -2.7974 5.4275 0
M  V30 2395 H 225.339 -0.54325 5.7072 0
M  V30 2396 H 223.736 0.192594 5.99791 0
M  V30 2397 H 224.806 0.887663 4.76706 0
M  V30 2398 N 226.149 -1.5696 0.141893 0
M  V30 2399 C 227.096 -2.16501 -0.799737 0
M  V30 2400 C 228.066 -1.09643 -1.24771 0
M  V30 2401 O 229.251 -1.3766 -1.32115 0
M  V30 2402 C 226.391 -2.78679 -2.03549 0
M  V30 2403 C 225.504 -3.99914 -1.6338 0
M  V30 2404 C 224.639 -4.50106 -2.82096 0
M  V30 2405 C 223.678 -5.63819 -2.38275 0
M  V30 2406 N 222.815 -6.08651 -3.49983 0
M  V30 2407 H 227.655 -2.96632 -0.285179 0
M  V30 2408 H 225.192 -1.46533 -0.129053 0
M  V30 2409 H 227.15 -3.1287 -2.75986 0
M  V30 2410 H 225.78 -2.012 -2.52425 0
M  V30 2411 H 224.832 -3.71735 -0.807279 0
M  V30 2412 H 226.144 -4.82311 -1.27192 0
M  V30 2413 H 225.298 -4.86325 -3.62729 0
M  V30 2414 H 224.037 -3.66706 -3.21525 0
M  V30 2415 H 223.042 -5.2718 -1.56081 0
M  V30 2416 H 224.267 -6.49 -1.99938 0
M  V30 2417 H 222.213 -5.28188 -3.89042 0
M  V30 2418 H 222.13 -6.85961 -3.17794 0
M  V30 2419 H 223.398 -6.49515 -4.30988 0
M  V30 2420 N 227.627 0.131896 -1.57047 0
M  V30 2421 C 228.873 0.843179 -1.84441 0
M  V30 2422 C 229.206 1.80129 -0.725749 0
M  V30 2423 O 228.481 1.92624 0.269469 0
M  V30 2424 C 228.764 1.60442 -3.22382 0
M  V30 2425 C 228.617 0.666782 -4.4483 0
M  V30 2426 C 229.936 2.56354 -3.5773 0
M  V30 2427 H 227.055 0.305081 -0.670891 0
M  V30 2428 H 229.697 0.107839 -1.89694 0
M  V30 2429 H 227.847 2.23128 -3.18035 0
M  V30 2430 H 229.519 0.0497646 -4.61273 0
M  V30 2431 H 227.762 -0.022609 -4.33794 0
M  V30 2432 H 228.433 1.23579 -5.37989 0
M  V30 2433 H 230.909 2.0378 -3.62785 0
M  V30 2434 H 229.785 3.06657 -4.5525 0
M  V30 2435 H 230.046 3.38419 -2.84473 0
M  V30 2436 N 229.106 1.52395 0.401703 0
M  V30 2437 C 230.353 1.66817 1.14796 0
M  V30 2438 C 230.681 0.401772 1.90305 0
M  V30 2439 O 229.936 -0.615487 1.85769 0
M  V30 2440 C 230.235 2.84578 2.16217 0
M  V30 2441 C 229.901 4.22513 1.5746 0
M  V30 2442 C 228.563 4.60029 1.41161 0
M  V30 2443 C 230.915 5.0844 1.14622 0
M  V30 2444 C 228.243 5.81144 0.80552 0
M  V30 2445 C 230.595 6.30167 0.55428 0
M  V30 2446 C 229.259 6.66426 0.378482 0
M  V30 2447 H 228.529 0.610428 0.420069 0
M  V30 2448 H 231.176 1.86512 0.434212 0
M  V30 2449 H 229.481 2.59248 2.93764 0
M  V30 2450 H 231.178 2.92933 2.73845 0
M  V30 2451 H 227.768 3.92953 1.71132 0
M  V30 2452 H 231.952 4.80034 1.26021 0
M  V30 2453 H 227.208 6.07855 0.657399 0
M  V30 2454 H 231.382 6.96071 0.213983 0
M  V30 2455 H 229.009 7.60143 -0.0932606 0
M  V30 2456 N 230.584 -0.659388 1.43143 0
M  V30 2457 C 231.832 -1.41654 1.44147 0
M  V30 2458 C 232.153 -1.94893 0.0645739 0
M  V30 2459 O 231.423 -1.74044 -0.899198 0
M  V30 2460 H 230.003 -0.525708 0.530697 0
M  V30 2461 H 232.665 -0.778097 1.78694 0
M  V30 2462 H 231.761 -2.26195 2.1504 0
M  V30 2463 O 232.101 -1.40162 -0.802292 0
M  V30 2464 H 232.792 -1.28727 -1.44738 0
M  V30 END ATOM
M  V30 BEGIN BOND
M  V30 END BOND
M  V30 END CTAB
M  END
$$$$
