drugbank_target|O32449 Proline iminopeptidase (DB03833; DB07391; DB08576)
 OpenBabel12092120033D

  0  0  0     0  0            999 V3000
M  V30 BEGIN CTAB
M  V30 COUNTS 5007 5083 0 0 0
M  V30 BEGIN ATOM
M  V30 1 H -0.908 1.98254 -0.117106 0
M  V30 2 N 0 1.576 0 0
M  V30 3 C 0.933 2.03868 1.02534 0
M  V30 4 C 1.911 0.928543 1.3348 0
M  V30 5 O 3.095 1.19667 1.45644 0
M  V30 6 C 0.222 2.43627 2.35294 0
M  V30 7 C -0.732 3.65373 2.2001 0
M  V30 8 S 0.101 5.13292 1.52614 0
M  V30 9 C 1.257 5.56322 2.86805 0
M  V30 10 H 1.49 2.90518 0.631377 0
M  V30 11 H -0.977 1.52953 0.210867 0
M  V30 12 H 0.981 2.67203 3.11629 0
M  V30 13 H -0.358 1.57376 2.7183 0
M  V30 14 H -1.165 3.90944 3.18086 0
M  V30 15 H -1.563 3.418 1.51819 0
M  V30 16 H 0.729 5.58782 3.83104 0
M  V30 17 H 1.672 6.56266 2.65933 0
M  V30 18 H 2.08 4.83886 2.90714 0
M  V30 19 N 1.4781 -0.272755 1.55222 0
M  V30 20 C 2.3881 -1.35918 1.91216 0
M  V30 21 C 3.4041 -1.54026 0.809436 0
M  V30 22 O 4.5801 -1.68148 1.10852 0
M  V30 23 C 1.6451 -2.69834 2.17693 0
M  V30 24 C 0.7061 -2.6047 3.41253 0
M  V30 25 C -0.0609 -3.88 3.66458 0
M  V30 26 O 0.1621 -4.88693 2.94169 0
M  V30 27 O -0.9039 -3.88189 4.59992 0
M  V30 28 H 2.9221 -1.0839 2.83699 0
M  V30 29 H 0.5071 -0.471301 1.41771 0
M  V30 30 H 2.3891 -3.49017 2.36147 0
M  V30 31 H 1.0641 -2.97148 1.28392 0
M  V30 32 H -0.0289 -1.79663 3.28134 0
M  V30 33 H 1.3041 -2.38106 4.30774 0
M  V30 34 N 2.9562 -1.48159 -0.537278 0
M  V30 35 C 3.8882 -1.58218 -1.65831 0
M  V30 36 C 4.9012 -0.466948 -1.5596 0
M  V30 37 O 6.0902 -0.73747 -1.62553 0
M  V30 38 C 3.1902 -1.48906 -3.04434 0
M  V30 39 C 2.3632 -2.75343 -3.3986 0
M  V30 40 C 1.4222 -2.59588 -4.57712 0
M  V30 41 O 0.4482 -3.33457 -4.61297 0
M  V30 42 N 1.6502 -1.68724 -5.55439 0
M  V30 43 H 4.4152 -2.54891 -1.57641 0
M  V30 44 H 1.9762 -1.4479 -0.724386 0
M  V30 45 H 3.9682 -1.36072 -3.81139 0
M  V30 46 H 2.5382 -0.602368 -3.06741 0
M  V30 47 H 1.7582 -3.02795 -2.52406 0
M  V30 48 H 3.0462 -3.5924 -3.60311 0
M  V30 49 H 2.4442 -1.07898 -5.55315 0
M  V30 50 H 1.0012 -1.61832 -6.3139 0
M  V30 51 N 4.4343 0.785586 -1.36625 0
M  V30 52 C 5.3643 1.91259 -1.33949 0
M  V30 53 C 6.3453 1.68795 -0.210325 0
M  V30 54 O 7.5303 1.89854 -0.408561 0
M  V30 55 C 4.6603 3.28339 -1.13186 0
M  V30 56 C 3.6143 3.65335 -2.22967 0
M  V30 57 C 2.9403 5.00806 -1.87342 0
M  V30 58 C 4.2403 3.7352 -3.65075 0
M  V30 59 H 5.9343 1.93755 -2.28253 0
M  V30 60 H 3.4803 0.930788 -1.09874 0
M  V30 61 H 5.4333 4.06804 -1.09948 0
M  V30 62 H 4.1573 3.2624 -0.153332 0
M  V30 63 H 2.8163 2.89169 -2.25337 0
M  V30 64 H 2.4643 4.95233 -0.880545 0
M  V30 65 H 2.1643 5.26529 -2.60846 0
M  V30 66 H 3.6883 5.81687 -1.85667 0
M  V30 67 H 5.1023 4.42168 -3.64911 0
M  V30 68 H 3.4993 4.10731 -4.37516 0
M  V30 69 H 4.5693 2.74527 -3.99703 0
M  V30 70 N 5.9124 1.20967 1.01018 0
M  V30 71 C 7.3284 0.965905 1.27053 0
M  V30 72 C 7.5284 -0.350785 1.98423 0
M  V30 73 O 6.5844 -1.07773 2.28344 0
M  V30 74 C 7.8974 2.15294 2.09926 0
M  V30 75 C 9.4454 2.19463 2.23171 0
M  V30 76 C 9.9204 3.3767 3.09424 0
M  V30 77 N 11.4114 3.37724 3.17012 0
M  V30 78 C 12.1464 4.25837 3.83993 0
M  V30 79 N 11.6424 5.24138 4.53047 0
M  V30 80 N 13.4354 4.1366 3.80581 0
M  V30 81 H 5.5864 2.0565 0.531194 0
M  V30 82 H 7.8494 0.90024 0.297106 0
M  V30 83 H 7.5554 3.10684 1.64828 0
M  V30 84 H 7.4294 2.13923 3.10672 0
M  V30 85 H 9.8164 1.24632 2.6749 0
M  V30 86 H 9.8974 2.2488 1.21912 0
M  V30 87 H 9.5414 4.32791 2.65808 0
M  V30 88 H 9.4714 3.29491 4.10784 0
M  V30 89 H 11.9624 2.6658 2.6785 0
M  V30 90 H 12.2754 5.87684 5.01844 0
M  V30 91 H 10.6204 5.28068 4.5185 0
M  V30 92 H 13.8114 3.36127 3.25785 0
M  V30 93 H 13.9844 4.82538 4.32505 0
M  V30 94 N 7.3905 -1.2043 1.01659 0
M  V30 95 C 8.6385 -1.89423 0.704522 0
M  V30 96 C 8.9595 -1.79231 -0.768197 0
M  V30 97 O 8.2295 -1.1947 -1.55254 0
M  V30 98 H 6.8095 -0.701178 0.257602 0
M  V30 99 H 9.4715 -1.4626 1.28818 0
M  V30 100 H 8.5675 -2.96052 0.987916 0
M  V30 101 N 8.8686 -0.792821 -1.36206 0
M  V30 102 C 9.7986 -0.207853 -2.32573 0
M  V30 103 C 10.7796 0.659055 -1.56813 0
M  V30 104 O 11.9646 0.592176 -1.84951 0
M  V30 105 C 9.0946 0.655449 -3.41059 0
M  V30 106 C 8.0486 -0.111842 -4.27854 0
M  V30 107 C 7.3746 0.872274 -5.27537 0
M  V30 108 C 8.6746 -1.30299 -5.05786 0
M  V30 109 H 10.3686 -1.01294 -2.81744 0
M  V30 110 H 7.9146 -0.48854 -1.3546 0
M  V30 111 H 9.8676 1.07464 -4.07467 0
M  V30 112 H 8.5916 1.49328 -2.90463 0
M  V30 113 H 7.2506 -0.512053 -3.63006 0
M  V30 114 H 6.8986 1.70523 -4.73214 0
M  V30 115 H 6.5986 0.363291 -5.86476 0
M  V30 116 H 8.1226 1.28996 -5.96818 0
M  V30 117 H 9.5366 -0.959379 -5.65216 0
M  V30 118 H 7.9336 -1.7455 -5.74154 0
M  V30 119 H 9.0036 -2.09663 -4.37229 0
M  V30 120 N 10.3467 1.47872 -0.545128 0
M  V30 121 C 11.5767 2.06589 -0.0210534 0
M  V30 122 C 11.9847 1.39997 1.27269 0
M  V30 123 O 11.3277 0.486421 1.77143 0
M  V30 124 C 11.3897 3.58574 0.257933 0
M  V30 125 C 11.0537 4.47132 -0.944573 0
M  V30 126 C 12.0507 4.85986 -1.84699 0
M  V30 127 C 9.7357 4.88821 -1.15584 0
M  V30 128 C 11.7297 5.65314 -2.94446 0
M  V30 129 C 9.4167 5.67916 -2.25642 0
M  V30 130 C 10.4147 6.06073 -3.14905 0
M  V30 131 O 10.1027 6.83578 -4.23057 0
M  V30 132 H 9.8347 0.674971 -0.0372899 0
M  V30 133 H 12.3887 1.91037 -0.754599 0
M  V30 134 H 10.6187 3.72295 1.04564 0
M  V30 135 H 12.3077 3.99356 0.72592 0
M  V30 136 H 13.0737 4.54388 -1.69577 0
M  V30 137 H 8.9527 4.58595 -0.470279 0
M  V30 138 H 12.4967 5.95016 -3.64145 0
M  V30 139 H 8.3937 5.98927 -2.40742 0
M  V30 140 H 9.1617 7.01954 -4.20954 0
M  V30 141 N 11.8248 0.280983 1.55075 0
M  V30 142 C 13.2358 -0.215629 1.85451 0
M  V30 143 C 13.5868 -1.54991 1.203 0
M  V30 144 O 12.7118 -2.10699 0.493435 0
M  V30 145 C 13.3068 -0.398026 3.36454 0
M  V30 146 C 11.8658 -0.838866 3.66933 0
M  V30 147 C 11.0128 0.064458 2.77225 0
M  V30 148 H 13.9638 0.502601 1.50531 0
M  V30 149 H 13.9848 -1.23569 3.59876 0
M  V30 150 H 13.4968 0.573241 3.83843 0
M  V30 151 H 11.5978 -1.8214 3.25048 0
M  V30 152 H 11.7108 -0.672123 4.74362 0
M  V30 153 H 10.0748 -0.452863 2.50642 0
M  V30 154 H 10.8578 1.03172 3.2743 0
M  V30 155 N 13.3029 -1.57598 0.00835791 0
M  V30 156 C 14.7139 -1.7892 -0.53333 0
M  V30 157 C 15.0649 -0.916609 -1.73473 0
M  V30 158 O 14.1899 -0.121336 -2.1606 0
M  V30 159 C 14.7849 -3.24488 -0.974313 0
M  V30 160 C 13.3439 -3.46878 -1.46125 0
M  V30 161 C 12.4909 -2.74157 -0.416302 0
M  V30 162 H 15.4419 -1.56958 0.234495 0
M  V30 163 H 15.4629 -3.3306 -1.83988 0
M  V30 164 H 14.9749 -3.87972 -0.099718 0
M  V30 165 H 13.0759 -2.8862 -2.35646 0
M  V30 166 H 13.1889 -4.55572 -1.48295 0
M  V30 167 H 11.5529 -2.39022 -0.87981 0
M  V30 168 H 12.3359 -3.40345 0.44947 0
M  V30 169 N 14.781 0.264519 -1.55364 0
M  V30 170 C 15.711 1.33121 -1.91836 0
M  V30 171 C 16.692 1.51101 -0.781192 0
M  V30 172 O 17.877 1.64003 -1.04003 0
M  V30 173 C 15.007 2.68921 -2.19769 0
M  V30 174 C 13.961 2.65661 -3.35571 0
M  V30 175 C 13.287 4.05093 -3.49004 0
M  V30 176 C 14.587 2.24187 -4.71739 0
M  V30 177 H 16.281 1.02844 -2.81182 0
M  V30 178 H 13.827 0.493286 -1.35287 0
M  V30 179 H 15.78 3.43663 -2.43872 0
M  V30 180 H 14.504 3.00799 -1.27231 0
M  V30 181 H 13.163 1.93377 -3.1145 0
M  V30 182 H 12.811 4.34206 -2.53917 0
M  V30 183 H 12.511 4.03804 -4.26868 0
M  V30 184 H 14.035 4.81561 -3.75408 0
M  V30 185 H 15.449 2.88654 -4.9533 0
M  V30 186 H 13.846 2.34044 -5.52579 0
M  V30 187 H 14.916 1.19327 -4.69988 0
M  V30 188 N 16.2591 1.48442 0.529413 0
M  V30 189 C 17.2221 1.62524 1.61612 0
M  V30 190 C 18.2221 0.498509 1.52877 0
M  V30 191 O 19.4121 0.76431 1.56537 0
M  V30 192 C 16.5441 1.59597 3.01233 0
M  V30 193 H 17.7371 2.59423 1.50465 0
M  V30 194 H 15.2901 1.37047 0.751514 0
M  V30 195 H 16.0251 0.641781 3.17886 0
M  V30 196 H 15.8101 2.41397 3.08982 0
M  V30 197 H 17.3001 1.72646 3.80241 0
M  V30 198 N 17.7372 -0.778329 1.37039 0
M  V30 199 C 18.7002 -1.87301 1.32102 0
M  V30 200 C 19.7002 -1.59198 0.226405 0
M  V30 201 O 20.8902 -1.67403 0.481861 0
M  V30 202 C 18.0222 -3.24309 1.05055 0
M  V30 203 H 19.2152 -1.93093 2.29467 0
M  V30 204 H 16.7682 -0.977358 1.21973 0
M  V30 205 H 17.5032 -3.24196 0.0819373 0
M  V30 206 H 17.2882 -3.46098 1.84279 0
M  V30 207 H 18.7782 -4.04382 1.04234 0
M  V30 208 N 19.2153 -1.21501 -1.00376 0
M  V30 209 C 20.4453 -1.05746 -1.77486 0
M  V30 210 C 20.8533 0.395655 -1.85017 0
M  V30 211 O 20.1963 1.28626 -1.31152 0
M  V30 212 C 20.2583 -1.58092 -3.22873 0
M  V30 213 C 19.9223 -3.06568 -3.38917 0
M  V30 214 C 20.9193 -4.04106 -3.271 0
M  V30 215 C 18.6043 -3.45799 -3.64319 0
M  V30 216 C 20.5983 -5.38862 -3.40451 0
M  V30 217 C 18.2853 -4.80707 -3.77311 0
M  V30 218 C 19.2833 -5.77047 -3.65384 0
M  V30 219 O 18.9713 -7.09507 -3.77961 0
M  V30 220 H 18.7033 -0.371778 -0.564586 0
M  V30 221 H 21.2573 -1.61319 -1.27143 0
M  V30 222 H 19.4873 -0.969163 -3.74358 0
M  V30 223 H 21.1763 -1.38162 -3.81662 0
M  V30 224 H 21.9423 -3.75141 -3.07399 0
M  V30 225 H 17.8213 -2.71344 -3.72684 0
M  V30 226 H 21.3653 -6.14041 -3.31058 0
M  V30 227 H 17.2623 -5.09357 -3.96517 0
M  V30 228 H 18.0303 -7.16935 -3.94901 0
M  V30 229 N 20.6934 1.19889 -1.02296 0
M  V30 230 C 21.9704 1.85148 -0.630832 0
M  V30 231 C 22.3504 1.91385 0.890782 0
M  V30 232 O 21.6984 1.42642 1.78509 0
M  V30 233 C 21.9084 3.24442 -1.28602 0
M  V30 234 C 23.2564 4.00663 -1.4055 0
M  V30 235 O 24.2804 3.33818 -1.24273 0
M  V30 236 O 23.1394 5.20387 -1.66913 0
M  V30 237 H 20.2334 0.797613 -0.218499 0
M  V30 238 H 22.7794 1.27427 -1.12074 0
M  V30 239 H 21.5514 3.14704 -2.32545 0
M  V30 240 H 21.1744 3.89802 -0.7836 0
M  V30 241 N 22.1715 0.800033 1.35784 0
M  V30 242 C 23.3965 0.388511 2.03729 0
M  V30 243 C 23.8215 -0.990481 1.5991 0
M  V30 244 O 23.1795 -1.64013 0.772612 0
M  V30 245 C 23.2275 0.4726 3.5749 0
M  V30 246 O 22.3315 -0.51646 4.09153 0
M  V30 247 H 21.6725 0.163271 0.643614 0
M  V30 248 H 24.2025 1.0841 1.73518 0
M  V30 249 H 24.2125 0.34003 4.06581 0
M  V30 250 H 22.8875 1.47848 3.88734 0
M  V30 251 H 21.4645 -0.344673 3.71304 0
M  V30 252 N 23.6496 -1.47581 0.552962 0
M  V30 253 C 24.8976 -2.02082 0.0272703 0
M  V30 254 C 25.2186 -1.4301 -1.32563 0
M  V30 255 O 24.4886 -0.603745 -1.86365 0
M  V30 256 H 23.0686 -0.746966 0.00709182 0
M  V30 257 H 25.7306 -1.81033 0.722008 0
M  V30 258 H 24.8266 -3.12034 -0.0639951 0
M  V30 259 N 25.1277 -0.289203 -1.54924 0
M  V30 260 C 26.3737 0.316922 -2.00916 0
M  V30 261 C 26.7287 1.52424 -1.17408 0
M  V30 262 O 26.0217 1.90097 -0.239536 0
M  V30 263 C 26.2157 0.736119 -3.49737 0
M  V30 264 C 26.0447 -0.429036 -4.47649 0
M  V30 265 C 24.8147 -0.917311 -4.96904 0
M  V30 266 C 27.0127 -1.27016 -4.98369 0
M  V30 267 N 24.9947 -2.05046 -5.78644 0
M  V30 268 C 26.3657 -2.25097 -5.77695 0
M  V30 269 C 28.4207 -1.30188 -4.80578 0
M  V30 270 C 27.1237 -3.26114 -6.41126 0
M  V30 271 C 29.1497 -2.30057 -5.44819 0
M  V30 272 C 28.5117 -3.2687 -6.23968 0
M  V30 273 H 24.6107 0.0807535 -0.777819 0
M  V30 274 H 27.1947 -0.416434 -1.90194 0
M  V30 275 H 25.3657 1.43867 -3.60773 0
M  V30 276 H 27.0977 1.32078 -3.82541 0
M  V30 277 H 23.8527 -0.494248 -4.71014 0
M  V30 278 H 24.2767 -2.62108 -6.24202 0
M  V30 279 H 28.9187 -0.567163 -4.18979 0
M  V30 280 H 26.6367 -4.00512 -7.01866 0
M  V30 281 H 30.2227 -2.33271 -5.32988 0
M  V30 282 H 29.1027 -4.02883 -6.72796 0
M  V30 283 N 26.6058 1.57591 -0.0167156 0
M  V30 284 C 27.5358 2.12496 0.967858 0
M  V30 285 C 28.5168 1.03807 1.34752 0
M  V30 286 O 29.7018 1.31577 1.42833 0
M  V30 287 C 26.8318 2.64194 2.25431 0
M  V30 288 C 25.7858 3.77559 2.01576 0
M  V30 289 C 25.1118 4.15636 3.36379 0
M  V30 290 C 26.4118 5.04151 1.36489 0
M  V30 291 H 28.1058 2.95013 0.510643 0
M  V30 292 H 25.6518 1.41915 0.244181 0
M  V30 293 H 27.6048 3.01236 2.94678 0
M  V30 294 H 26.3288 1.78821 2.73296 0
M  V30 295 H 24.9878 3.40937 1.34751 0
M  V30 296 H 24.6358 3.27263 3.81979 0
M  V30 297 H 24.3358 4.92022 3.21229 0
M  V30 298 H 25.8598 4.5525 4.06915 0
M  V30 299 H 27.2738 5.38857 1.95718 0
M  V30 300 H 25.6708 5.85453 1.31776 0
M  V30 301 H 26.7408 4.83733 0.336219 0
M  V30 302 N 28.0839 -0.256276 1.55502 0
M  V30 303 C 29.3609 -1.00789 1.67633 0
M  V30 304 C 29.7409 -2.03706 0.553826 0
M  V30 305 O 29.0889 -2.24145 -0.443969 0
M  V30 306 C 29.2989 -1.64968 3.07549 0
M  V30 307 C 30.6469 -2.15505 3.65845 0
M  V30 308 O 31.6709 -1.74925 3.1029 0
M  V30 309 O 30.5299 -2.89986 4.63217 0
M  V30 310 H 27.6239 -0.468553 0.681459 0
M  V30 311 H 30.1699 -0.250806 1.67836 0
M  V30 312 H 28.9419 -0.904785 3.80696 0
M  V30 313 H 28.5649 -2.47321 3.11317 0
M  V30 314 N 29.562 -1.4872 -0.521534 0
M  V30 315 C 30.79 -1.60843 -1.30142 0
M  V30 316 C 31.205 -0.271897 -1.86832 0
M  V30 317 O 30.562 0.739969 -1.66825 0
M  V30 318 C 30.613 -2.66155 -2.4463 0
M  V30 319 O 30.334 -3.94623 -1.90275 0
M  V30 320 C 31.835 -2.88795 -3.36322 0
M  V30 321 H 29.055 -0.542075 -0.395468 0
M  V30 322 H 31.599 -1.94609 -0.628285 0
M  V30 323 H 29.754 -2.35224 -3.07812 0
M  V30 324 H 30.168 -4.52468 -2.65279 0
M  V30 325 H 31.642 -3.66264 -4.12983 0
M  V30 326 H 32.119 -1.97934 -3.9207 0
M  V30 327 H 32.725 -3.21063 -2.78924 0
M  V30 328 N 31.0401 0.771051 -1.3745 0
M  V30 329 C 32.2881 1.52661 -1.32435 0
M  V30 330 C 32.6091 1.9479 0.0905024 0
M  V30 331 O 31.8791 1.66348 1.03466 0
M  V30 332 H 30.4591 0.566218 -0.487244 0
M  V30 333 H 33.1211 0.917636 -1.71946 0
M  V30 334 H 32.2171 2.42568 -1.96385 0
M  V30 335 N 32.5182 1.22032 0.997298 0
M  V30 336 C 33.7952 0.950823 1.70935 0
M  V30 337 C 34.1752 -0.535292 2.042 0
M  V30 338 O 33.5232 -1.50217 1.72183 0
M  V30 339 C 33.7332 1.84386 2.96315 0
M  V30 340 C 35.0812 2.09732 3.69185 0
M  V30 341 O 36.1052 1.81798 3.06314 0
M  V30 342 O 34.9642 2.57018 4.82291 0
M  V30 343 H 32.0582 0.357204 0.745878 0
M  V30 344 H 34.6042 1.32997 1.05404 0
M  V30 345 H 33.3762 2.84928 2.68201 0
M  V30 346 H 32.9992 1.46602 3.69586 0
M  V30 347 N 33.9963 -1.19345 1.0293 0
M  V30 348 C 35.2443 -1.88665 0.724574 0
M  V30 349 C 35.5653 -1.80036 -0.749144 0
M  V30 350 O 34.8353 -1.2111 -1.53978 0
M  V30 351 H 33.4153 -0.698406 0.265025 0
M  V30 352 H 36.0773 -1.44885 1.30362 0
M  V30 353 H 35.1733 -2.94987 1.01926 0
M  V30 354 N 35.4744 -0.807222 -1.35358 0
M  V30 355 C 36.4244 -0.190706 -2.27201 0
M  V30 356 C 37.4084 0.635838 -1.47804 0
M  V30 357 O 38.6004 0.492991 -1.69996 0
M  V30 358 C 35.7294 0.659337 -3.36909 0
M  V30 359 C 34.8154 -0.176971 -4.23731 0
M  V30 360 N 35.2064 -1.24029 -4.90357 0
M  V30 361 C 33.5044 0.0412953 -4.45981 0
M  V30 362 C 34.2054 -1.75092 -5.54723 0
M  V30 363 N 33.1814 -1.05727 -5.33219 0
M  V30 364 H 36.9834 -1.0043 -2.76208 0
M  V30 365 H 34.4974 -0.648445 -1.48892 0
M  V30 366 H 36.4944 1.11706 -4.01656 0
M  V30 367 H 35.1544 1.47127 -2.89454 0
M  V30 368 H 36.1654 -1.62295 -4.91814 0
M  V30 369 H 32.8424 0.82232 -4.09322 0
M  V30 370 H 34.2324 -2.63963 -6.17878 0
M  V30 371 N 36.9525 1.47285 -0.560781 0
M  V30 372 C 38.3685 1.58065 -0.22081 0
M  V30 373 C 38.5685 1.55892 1.27671 0
M  V30 374 O 37.6245 1.46422 2.0571 0
M  V30 375 C 38.9375 2.88418 -0.850625 0
M  V30 376 C 40.4855 3.02009 -0.822184 0
M  V30 377 C 40.9605 4.35066 -1.43113 0
M  V30 378 N 42.4515 4.41711 -1.39448 0
M  V30 379 C 43.1865 5.43237 -1.83525 0
M  V30 380 N 42.6825 6.51555 -2.35474 0
M  V30 381 N 44.4755 5.34304 -1.74574 0
M  V30 382 H 36.6265 1.46941 -1.53369 0
M  V30 383 H 38.8895 0.699558 -0.639783 0
M  V30 384 H 38.5955 2.95755 -1.9032 0
M  V30 385 H 38.4695 3.75612 -0.345773 0
M  V30 386 H 40.8565 2.94266 0.221714 0
M  V30 387 H 40.9375 2.16347 -1.36483 0
M  V30 388 H 40.5815 4.43565 -2.47412 0
M  V30 389 H 40.5115 5.19465 -0.863899 0
M  V30 390 H 43.0025 3.64027 -1.01452 0
M  V30 391 H 43.3155 7.25203 -2.67021 0
M  V30 392 H 41.6605 6.52435 -2.39487 0
M  V30 393 H 44.8515 4.48581 -1.33763 0
M  V30 394 H 45.0245 6.13288 -2.09242 0
M  V30 395 N 38.4306 0.297415 1.54768 0
M  V30 396 C 39.6796 -0.313669 1.99246 0
M  V30 397 C 39.9926 -1.55281 1.18942 0
M  V30 398 O 41.1986 -2.23825 1.5367 0
M  V30 399 C 39.6546 -0.609407 3.54703 0
M  V30 400 C 39.2626 0.611192 4.43811 0
M  V30 401 C 41.0066 -1.18188 4.07715 0
M  V30 402 C 38.9136 0.288805 5.90694 0
M  V30 403 H 37.8436 -0.120979 0.744231 0
M  V30 404 H 40.4946 0.40556 1.78962 0
M  V30 405 H 38.8766 -1.38813 3.70873 0
M  V30 406 H 40.0506 1.3875 4.39414 0
M  V30 407 H 38.3656 1.10205 4.01552 0
M  V30 408 H 40.9626 -1.43727 5.15021 0
M  V30 409 H 41.3056 -2.12299 3.58099 0
M  V30 410 H 41.8386 -0.464944 3.95074 0
M  V30 411 H 38.5776 1.19838 6.44453 0
M  V30 412 H 38.0976 -0.450305 5.98107 0
M  V30 413 H 39.7766 -0.110933 6.46905 0
M  V30 414 N 39.9087 -1.5758 0.0250728 0
M  V30 415 C 41.1387 -1.95646 -0.663783 0
M  V30 416 C 41.5467 -0.899935 -1.66427 0
M  V30 417 O 40.8897 0.127191 -1.83259 0
M  V30 418 C 40.9517 -3.29835 -1.43 0
M  V30 419 C 40.6157 -4.53197 -0.588305 0
M  V30 420 C 41.6127 -5.19726 0.13469 0
M  V30 421 C 39.2977 -4.99529 -0.526897 0
M  V30 422 C 41.2917 -6.30902 0.90781 0
M  V30 423 C 38.9787 -6.10589 0.24993 0
M  V30 424 C 39.9767 -6.76134 0.965994 0
M  V30 425 O 39.6647 -7.85062 1.7301 0
M  V30 426 H 39.3967 -0.649282 -0.188174 0
M  V30 427 H 41.9507 -2.05245 0.0799006 0
M  V30 428 H 40.1807 -3.16716 -2.21873 0
M  V30 429 H 41.8697 -3.52833 -2.00658 0
M  V30 430 H 42.6357 -4.84904 0.0965562 0
M  V30 431 H 38.5147 -4.48319 -1.07381 0
M  V30 432 H 42.0587 -6.81995 1.46724 0
M  V30 433 H 37.9557 -6.44849 0.289795 0
M  V30 434 H 38.7237 -8.01708 1.64944 0
M  V30 435 N 41.3868 0.248026 -1.55636 0
M  V30 436 C 42.6328 0.973427 -1.78594 0
M  V30 437 C 42.9878 1.83007 -0.593823 0
M  V30 438 O 42.2808 1.87097 0.412961 0
M  V30 439 C 42.4748 1.86819 -3.04686 0
M  V30 440 C 42.3038 1.09965 -4.36048 0
M  V30 441 C 41.0738 0.805204 -4.98843 0
M  V30 442 C 43.2718 0.477783 -5.12076 0
M  V30 443 N 41.2538 0.0124859 -6.13899 0
M  V30 444 C 42.6248 -0.179565 -6.1974 0
M  V30 445 C 44.6798 0.388136 -4.96385 0
M  V30 446 C 43.3828 -0.91795 -7.13419 0
M  V30 447 C 45.4088 -0.336716 -5.90441 0
M  V30 448 C 44.7708 -0.982705 -6.97511 0
M  V30 449 H 40.8698 0.337348 -0.705493 0
M  V30 450 H 43.4538 0.24667 -1.93131 0
M  V30 451 H 41.6248 2.56698 -2.9148 0
M  V30 452 H 43.3568 2.52907 -3.15944 0
M  V30 453 H 40.1118 1.11671 -4.60246 0
M  V30 454 H 40.5358 -0.371933 -6.75978 0
M  V30 455 H 45.1778 0.873237 -4.13684 0
M  V30 456 H 42.8958 -1.41466 -7.95621 0
M  V30 457 H 46.4818 -0.406731 -5.80377 0
M  V30 458 H 45.3618 -1.53464 -7.69037 0
M  V30 459 N 42.8649 1.48995 0.513639 0
M  V30 460 C 43.7749 1.67443 1.64317 0
M  V30 461 C 44.7909 0.556947 1.64846 0
M  V30 462 O 45.9669 0.830082 1.83498 0
M  V30 463 C 43.0319 1.72515 3.00732 0
M  V30 464 C 42.0929 2.96009 3.1093 0
M  V30 465 C 41.3259 3.00829 4.40837 0
M  V30 466 O 41.5489 2.13594 5.28898 0
M  V30 467 O 40.4829 3.93168 4.55744 0
M  V30 468 H 44.3089 2.63106 1.51687 0
M  V30 469 H 41.8939 1.32588 0.688543 0
M  V30 470 H 43.7759 1.78277 3.81831 0
M  V30 471 H 42.4509 0.800278 3.13651 0
M  V30 472 H 41.3579 2.9577 2.29065 0
M  V30 473 H 42.6909 3.87934 3.02933 0
M  V30 474 N 44.343 -0.763751 1.37857 0
M  V30 475 C 45.273 -1.89103 1.36975 0
M  V30 476 C 46.254 -1.68439 0.237152 0
M  V30 477 O 47.439 -1.8918 0.438713 0
M  V30 478 C 44.569 -3.26496 1.18395 0
M  V30 479 C 43.523 -3.61741 2.28751 0
M  V30 480 C 42.849 -4.97762 1.95286 0
M  V30 481 C 44.149 -3.67665 3.70972 0
M  V30 482 H 45.843 -1.90099 2.31307 0
M  V30 483 H 43.389 -0.91319 1.11341 0
M  V30 484 H 45.342 -4.05003 1.16406 0
M  V30 485 H 44.066 -3.25955 0.205215 0
M  V30 486 H 42.725 -2.85547 2.29909 0
M  V30 487 H 42.373 -4.93769 0.959221 0
M  V30 488 H 42.073 -5.22313 2.69189 0
M  V30 489 H 43.597 -5.7866 1.94898 0
M  V30 490 H 45.011 -4.36307 3.719 0
M  V30 491 H 43.408 -4.03718 4.43995 0
M  V30 492 H 44.478 -2.68134 4.0402 0
M  V30 493 N 45.8211 -1.22559 -0.990812 0
M  V30 494 C 47.0461 -1.07862 -1.77145 0
M  V30 495 C 47.4711 0.366447 -1.84496 0
M  V30 496 O 46.8291 1.26478 -1.29896 0
M  V30 497 C 46.8771 -1.69686 -3.18181 0
M  V30 498 O 45.9811 -0.951946 -4.01263 0
M  V30 499 H 45.3221 -0.378712 -0.545411 0
M  V30 500 H 47.8521 -1.62399 -1.2445 0
M  V30 501 H 47.8621 -1.74496 -3.68802 0
M  V30 502 H 46.5371 -2.74841 -3.12146 0
M  V30 503 H 45.1141 -0.980011 -3.59792 0
M  V30 504 N 47.2992 1.18797 -1.03562 0
M  V30 505 C 48.5472 1.88278 -0.734569 0
M  V30 506 C 48.8682 1.8043 0.739586 0
M  V30 507 O 48.1382 1.21925 1.53333 0
M  V30 508 H 46.7182 0.696991 -0.268725 0
M  V30 509 H 49.3802 1.44192 -1.31129 0
M  V30 510 H 48.4762 2.94443 -1.03489 0
M  V30 511 N 48.7773 0.814389 1.34928 0
M  V30 512 C 49.7253 0.218424 2.31572 0
M  V30 513 C 50.7193 -0.636128 1.57002 0
M  V30 514 O 51.9253 -0.52842 1.72069 0
M  V30 515 H 48.3003 0.0518799 0.750208 0
M  V30 516 H 50.2713 1.04852 2.79372 0
M  V30 517 C 49.0203 -0.61207 3.4227 0
M  V30 518 H 48.3433 0.0361578 3.99784 0
M  V30 519 H 49.7833 -0.995317 4.12152 0
M  V30 520 C 48.2423 -1.78087 2.85984 0
M  V30 521 O 48.7723 -2.8787 2.80168 0
M  V30 522 N 46.9783 -1.59488 2.42924 0
M  V30 523 H 46.5253 -0.701874 2.47854 0
M  V30 524 H 46.4833 -2.37846 2.05613 0
M  V30 525 N 50.2554 -1.46986 0.568584 0
M  V30 526 C 51.6664 -1.86188 0.138219 0
M  V30 527 C 52.0174 -1.47388 -1.29504 0
M  V30 528 O 51.1424 -0.88219 -1.97602 0
M  V30 529 C 51.7374 -3.3792 0.244065 0
M  V30 530 C 50.2964 -3.76171 -0.131335 0
M  V30 531 C 49.4434 -2.71027 0.586465 0
M  V30 532 H 52.3944 -1.38342 0.777645 0
M  V30 533 H 52.4154 -3.76729 -0.534351 0
M  V30 534 H 51.9274 -3.66128 1.28731 0
M  V30 535 H 50.0284 -3.5358 -1.17526 0
M  V30 536 H 50.1414 -4.78523 0.235146 0
M  V30 537 H 48.5054 -2.54684 0.0282722 0
M  V30 538 H 49.2884 -3.02077 1.63109 0
M  V30 539 N 51.7335 -0.305618 -1.54608 0
M  V30 540 C 52.6815 0.584119 -2.25146 0
M  V30 541 C 53.6755 1.13326 -1.25911 0
M  V30 542 O 54.8815 1.08337 -1.43747 0
M  V30 543 H 51.2565 0.206983 -0.722954 0
M  V30 544 H 53.2275 -0.033291 -2.98381 0
M  V30 545 C 51.9765 1.74225 -3.009 0
M  V30 546 H 51.2995 1.32892 -3.77067 0
M  V30 547 H 52.7395 2.34077 -3.53531 0
M  V30 548 C 51.1985 2.64914 -2.0814 0
M  V30 549 O 51.7285 3.66137 -1.65246 0
M  V30 550 N 49.9345 2.3275 -1.74 0
M  V30 551 H 49.4815 1.50479 -2.09078 0
M  V30 552 H 49.4395 2.93694 -1.12211 0
M  V30 553 N 53.2116 1.57565 -0.0334293 0
M  V30 554 C 54.4596 1.91598 0.642999 0
M  V30 555 C 54.7806 0.910847 1.7242 0
M  V30 556 O 54.0506 -0.0469931 1.95844 0
M  V30 557 H 52.6306 0.707228 0.240496 0
M  V30 558 H 55.2926 1.94726 -0.0822488 0
M  V30 559 H 54.3886 2.92336 1.09298 0
M  V30 560 N 54.6897 -0.239769 1.55765 0
M  V30 561 C 55.6367 -1.29696 1.90913 0
M  V30 562 C 56.6067 -1.47478 0.764164 0
M  V30 563 O 57.7917 -1.61345 1.01845 0
M  V30 564 C 54.9317 -2.64598 2.21544 0
M  V30 565 C 54.0447 -2.54765 3.48882 0
M  V30 566 C 53.1797 -3.82069 3.69049 0
M  V30 567 C 52.2187 -3.66883 4.89963 0
M  V30 568 N 51.3557 -4.86094 5.06614 0
M  V30 569 H 56.1957 -0.990224 2.81067 0
M  V30 570 H 53.7327 -0.477684 1.39128 0
M  V30 571 H 55.6907 -3.43132 2.3731 0
M  V30 572 H 54.3207 -2.93405 1.34585 0
M  V30 573 H 53.3727 -1.67763 3.41409 0
M  V30 574 H 54.6847 -2.39457 4.37563 0
M  V30 575 H 53.8387 -4.69046 3.84812 0
M  V30 576 H 52.5777 -4.00282 2.78614 0
M  V30 577 H 51.5827 -2.78289 4.74168 0
M  V30 578 H 52.8077 -3.50157 5.81865 0
M  V30 579 H 50.7537 -5.04655 4.19117 0
M  V30 580 H 50.6707 -4.73443 5.89396 0
M  V30 581 H 51.9387 -5.74549 5.26795 0
M  V30 582 N 56.1678 -1.49265 -0.50573 0
M  V30 583 C 57.5788 -1.51769 -1.08734 0
M  V30 584 C 57.9298 -0.301192 -1.93874 0
M  V30 585 O 57.0548 0.589456 -2.08217 0
M  V30 586 C 57.6498 -2.75017 -1.97867 0
M  V30 587 C 56.2088 -2.80314 -2.51199 0
M  V30 588 C 55.3558 -2.4562 -1.28709 0
M  V30 589 H 58.3068 -1.56031 -0.289855 0
M  V30 590 H 58.3278 -2.5491 -2.82491 0
M  V30 591 H 57.8398 -3.63539 -1.35873 0
M  V30 592 H 55.9408 -1.96061 -3.16845 0
M  V30 593 H 56.0538 -3.82366 -2.88675 0
M  V30 594 H 54.4178 -1.97297 -1.61078 0
M  V30 595 H 55.2008 -3.36411 -0.6843 0
M  V30 596 N 57.6459 0.756429 -1.3826 0
M  V30 597 C 58.6089 1.85176 -1.35065 0
M  V30 598 C 59.6089 1.58818 -0.251703 0
M  V30 599 O 60.7989 1.66615 -0.508433 0
M  V30 600 C 57.9309 3.22596 -1.10201 0
M  V30 601 H 59.1239 1.89417 -2.3251 0
M  V30 602 H 56.6769 0.95783 -1.23512 0
M  V30 603 H 57.4119 3.24025 -0.133504 0
M  V30 604 H 57.1969 3.43122 -1.89762 0
M  V30 605 H 58.6869 4.02673 -1.10654 0
M  V30 606 N 59.124 1.23083 0.984299 0
M  V30 607 C 60.37 1.06214 1.72761 0
M  V30 608 C 60.703 -0.400584 1.90024 0
M  V30 609 O 59.978 -1.29672 1.44967 0
M  V30 610 C 60.261 1.78375 3.12817 0
M  V30 611 C 60.114 3.32296 3.03149 0
M  V30 612 C 61.433 1.54309 4.12161 0
M  V30 613 H 58.552 0.387251 0.627061 0
M  V30 614 H 61.194 1.51536 1.14616 0
M  V30 615 H 59.344 1.39848 3.62457 0
M  V30 616 H 61.016 3.8032 2.61064 0
M  V30 617 H 59.259 3.6153 2.39747 0
M  V30 618 H 59.93 3.77972 4.02295 0
M  V30 619 H 62.406 1.87791 3.71314 0
M  V30 620 H 61.282 2.07281 5.08258 0
M  V30 621 H 61.543 0.477572 4.39513 0
M  V30 622 N 60.6021 -1.18246 1.0419 0
M  V30 623 C 61.8491 -1.88257 0.746017 0
M  V30 624 C 62.1771 -1.80429 -0.726331 0
M  V30 625 O 61.4321 -1.2 -1.54591 0
M  V30 626 C 61.7311 -3.38082 1.15911 0
M  V30 627 C 61.3971 -3.66114 2.63195 0
M  V30 628 C 60.0591 -3.73474 3.03432 0
M  V30 629 C 62.4111 -3.78398 3.5842 0
M  V30 630 C 59.7391 -3.90599 4.37778 0
M  V30 631 C 62.0911 -3.97039 4.92487 0
M  V30 632 C 60.7551 -4.02635 5.32392 0
M  V30 633 H 60.0251 -0.688883 0.272987 0
M  V30 634 H 62.6721 -1.3995 1.30715 0
M  V30 635 H 60.9771 -3.88377 0.516806 0
M  V30 636 H 62.6741 -3.90596 0.907516 0
M  V30 637 H 59.2641 -3.61003 2.3103 0
M  V30 638 H 63.4481 -3.72042 3.28479 0
M  V30 639 H 58.7041 -3.93175 4.68213 0
M  V30 640 H 62.8781 -4.05486 5.66175 0
M  V30 641 H 60.5051 -4.15657 6.36501 0
M  V30 642 N 62.0802 -0.821533 -1.34494 0
M  V30 643 C 63.3292 -0.405355 -1.97585 0
M  V30 644 C 63.6422 1.03677 -1.65863 0
M  V30 645 O 64.8482 1.55679 -2.22433 0
M  V30 646 C 63.3042 -0.673861 -3.53535 0
M  V30 647 C 62.9122 -2.12951 -3.94152 0
M  V30 648 C 64.6562 -0.32378 -4.23263 0
M  V30 649 C 62.5632 -2.34298 -5.43009 0
M  V30 650 H 61.4932 -0.147836 -0.739365 0
M  V30 651 H 64.1442 -1.00769 -1.53355 0
M  V30 652 H 62.5262 -0.00137554 -3.96 0
M  V30 653 H 63.7002 -2.84104 -3.62797 0
M  V30 654 H 62.0152 -2.44089 -3.37356 0
M  V30 655 H 64.6122 -0.461126 -5.32708 0
M  V30 656 H 64.9552 0.731586 -4.09821 0
M  V30 657 H 65.4882 -0.950786 -3.8627 0
M  V30 658 H 62.2272 -3.38335 -5.61435 0
M  V30 659 H 61.7472 -1.67687 -5.75883 0
M  V30 660 H 63.4262 -2.16588 -6.09671 0
M  V30 661 N 63.5583 1.46682 -0.576371 0
M  V30 662 C 64.5083 2.27278 0.181288 0
M  V30 663 C 65.4923 1.35497 0.867721 0
M  V30 664 O 66.6843 1.59717 0.762863 0
M  V30 665 C 63.8133 3.21703 1.19841 0
M  V30 666 C 62.8993 4.20969 0.51442 0
M  V30 667 N 63.2903 5.03999 -0.426407 0
M  V30 668 C 61.5883 4.39373 0.765963 0
M  V30 669 C 62.2893 5.75812 -0.825565 0
M  V30 670 N 61.2653 5.43315 -0.176116 0
M  V30 671 H 65.0673 2.88863 -0.541785 0
M  V30 672 H 62.5813 1.57455 -0.397697 0
M  V30 673 H 64.5783 3.78145 1.75533 0
M  V30 674 H 63.2383 2.61677 1.92238 0
M  V30 675 H 64.2493 5.11659 -0.8016 0
M  V30 676 H 60.9263 3.90502 1.47698 0
M  V30 677 H 62.3163 6.52577 -1.59976 0
M  V30 678 N 65.0364 0.313813 1.54444 0
M  V30 679 C 66.2844 -0.291099 1.99993 0
M  V30 680 C 66.6054 -1.53418 1.20366 0
M  V30 681 O 65.8754 -1.93544 0.302927 0
M  V30 682 H 64.4554 -0.110552 0.738774 0
M  V30 683 H 67.1174 0.428106 1.9014 0
M  V30 684 H 66.2134 -0.554268 3.07139 0
M  V30 685 N 66.5145 -1.57545 0.0417849 0
M  V30 686 C 67.7625 -1.91937 -0.632829 0
M  V30 687 C 68.0835 -0.919978 -1.71934 0
M  V30 688 O 67.3535 0.0366064 -1.95866 0
M  V30 689 H 65.9335 -0.708493 -0.236742 0
M  V30 690 H 68.5955 -1.9468 0.0925745 0
M  V30 691 H 67.6915 -2.92912 -1.07746 0
M  V30 692 N 67.9926 0.231505 -1.5589 0
M  V30 693 C 69.4036 0.799327 -1.68724 0
M  V30 694 C 69.7546 1.85398 -0.642022 0
M  V30 695 O 68.8796 2.1539 0.208784 0
M  V30 696 C 69.4746 1.45664 -3.05888 0
M  V30 697 C 68.0336 1.97197 -3.20609 0
M  V30 698 C 67.1806 0.828552 -2.64632 0
M  V30 699 H 70.1316 0.00702616 -1.58698 0
M  V30 700 H 70.1526 2.32517 -3.01191 0
M  V30 701 H 69.6646 0.688808 -3.81939 0
M  V30 702 H 67.7656 2.76813 -2.4941 0
M  V30 703 H 67.8786 2.15878 -4.27707 0
M  V30 704 H 66.2426 1.23321 -2.22854 0
M  V30 705 H 67.0256 0.0735544 -3.43221 0
M  V30 706 N 69.4707 1.49531 0.497807 0
M  V30 707 C 70.7187 1.58865 1.24926 0
M  V30 708 C 71.0397 0.278721 1.92998 0
M  V30 709 O 70.3097 -0.702144 1.82885 0
M  V30 710 H 68.8897 0.585343 0.464094 0
M  V30 711 H 71.5517 1.86174 0.57666 0
M  V30 712 H 70.6477 2.38633 2.01149 0
M  V30 713 N 70.9488 -0.749086 1.3866 0
M  V30 714 C 72.1968 -1.50535 1.34847 0
M  V30 715 C 72.5178 -1.94909 -0.0595016 0
M  V30 716 O 71.7878 -1.67973 -1.00806 0
M  V30 717 H 70.3678 -0.558395 0.49619 0
M  V30 718 H 73.0298 -0.890165 1.73384 0
M  V30 719 H 72.1258 -2.39413 2.00219 0
M  V30 720 N 72.4269 -1.23603 -0.977757 0
M  V30 721 C 73.6749 -1.06759 -1.71601 0
M  V30 722 C 73.9959 0.395929 -1.90938 0
M  V30 723 O 73.2659 1.28356 -1.47992 0
M  V30 724 H 71.8459 -0.392062 -0.635843 0
M  V30 725 H 74.5079 -1.55362 -1.1768 0
M  V30 726 H 73.6039 -1.55763 -2.70452 0
M  V30 727 N 73.905 1.17692 -1.04816 0
M  V30 728 C 75.154 1.87192 -0.751132 0
M  V30 729 C 75.467 1.8169 0.724441 0
M  V30 730 O 76.673 2.46625 1.13527 0
M  V30 731 C 75.129 3.35857 -1.29338 0
M  V30 732 C 74.737 3.4987 -2.79812 0
M  V30 733 C 76.481 4.10709 -1.07322 0
M  V30 734 C 74.388 4.92536 -3.27356 0
M  V30 735 H 73.318 0.701162 -0.277288 0
M  V30 736 H 75.969 1.32932 -1.26496 0
M  V30 737 H 74.351 3.89631 -0.707376 0
M  V30 738 H 75.525 3.06332 -3.44235 0
M  V30 739 H 73.84 2.88433 -3.00325 0
M  V30 740 H 76.437 5.15952 -1.4035 0
M  V30 741 H 76.78 4.16299 -0.0108001 0
M  V30 742 H 77.313 3.6313 -1.62423 0
M  V30 743 H 74.052 4.92119 -4.33012 0
M  V30 744 H 73.572 5.3676 -2.67673 0
M  V30 745 H 75.251 5.61288 -3.21815 0
M  V30 746 N 75.3831 0.828654 1.34056 0
M  V30 747 C 76.6081 0.431637 2.02859 0
M  V30 748 C 77.0331 -0.956339 1.61975 0
M  V30 749 O 76.3911 -1.62338 0.807228 0
M  V30 750 C 76.4391 0.548323 3.56407 0
M  V30 751 O 75.5431 -0.429556 4.10157 0
M  V30 752 H 74.8841 0.176886 0.640006 0
M  V30 753 H 77.4141 1.12066 1.71179 0
M  V30 754 H 77.4241 0.426196 4.05768 0
M  V30 755 H 76.0991 1.5606 3.8551 0
M  V30 756 H 74.6761 -0.265836 3.71951 0
M  V30 757 N 76.8612 -1.46375 0.584142 0
M  V30 758 C 78.2722 -1.86031 0.157959 0
M  V30 759 C 78.6232 -1.48753 -1.27933 0
M  V30 760 O 77.7482 -0.903098 -1.96655 0
M  V30 761 C 78.3432 -3.37642 0.279892 0
M  V30 762 C 76.9022 -3.76289 -0.09143 0
M  V30 763 C 76.0492 -2.7039 0.615178 0
M  V30 764 H 79.0002 -1.37509 0.792274 0
M  V30 765 H 79.0212 -3.77275 -0.494364 0
M  V30 766 H 78.5332 -3.64742 1.32607 0
M  V30 767 H 76.6342 -3.54806 -1.13769 0
M  V30 768 H 76.7472 -4.78246 0.285886 0
M  V30 769 H 75.1112 -2.5464 0.0552833 0
M  V30 770 H 75.8942 -3.0033 1.66303 0
M  V30 771 N 78.3393 -0.321999 -1.54275 0
M  V30 772 C 79.2893 0.560185 -2.21011 0
M  V30 773 C 80.2733 1.08283 -1.19011 0
M  V30 774 O 81.4653 1.02011 -1.44647 0
M  V30 775 C 78.5943 1.72137 -2.97025 0
M  V30 776 C 77.6803 1.21369 -4.06363 0
M  V30 777 N 78.0713 0.425566 -5.04007 0
M  V30 778 C 76.3693 1.49255 -4.20284 0
M  V30 779 C 77.0703 0.152601 -5.815 0
M  V30 780 N 76.0463 0.738294 -5.38563 0
M  V30 781 H 79.8483 -0.049265 -2.93859 0
M  V30 782 H 77.3623 -0.127779 -1.61897 0
M  V30 783 H 79.3593 2.36512 -3.43319 0
M  V30 784 H 78.0193 2.33431 -2.25699 0
M  V30 785 H 79.0303 0.068551 -5.17855 0
M  V30 786 H 75.7073 2.11145 -3.60172 0
M  V30 787 H 77.0973 -0.481764 -6.70171 0
M  V30 788 N 79.8174 1.5752 -0.0501392 0
M  V30 789 C 80.7674 2.07981 0.934231 0
M  V30 790 C 81.7514 0.984745 1.27246 0
M  V30 791 O 82.9434 1.24809 1.25506 0
M  V30 792 C 80.0724 2.62751 2.20945 0
M  V30 793 C 79.1584 3.79225 1.89865 0
M  V30 794 N 79.5494 4.89036 1.29142 0
M  V30 795 C 77.8474 3.88111 2.19741 0
M  V30 796 C 78.5484 5.70084 1.15669 0
M  V30 797 N 77.5244 5.17659 1.65923 0
M  V30 798 H 81.3264 2.90277 0.460053 0
M  V30 799 H 78.8404 1.61665 0.15434 0
M  V30 800 H 80.8374 2.97205 2.9236 0
M  V30 801 H 79.4974 1.81894 2.6897 0
M  V30 802 H 80.5084 5.08854 0.963756 0
M  V30 803 H 77.1854 3.18194 2.70293 0
M  V30 804 H 78.5754 6.68395 0.685356 0
M  V30 805 N 81.2955 -0.223234 1.56011 0
M  V30 806 C 82.7115 -0.572856 1.48965 0
M  V30 807 C 82.9115 -1.87225 0.74492 0
M  V30 808 O 81.9675 -2.50899 0.283896 0
M  V30 809 C 83.2805 -0.653646 2.9351 0
M  V30 810 C 84.8285 -0.744386 3.0402 0
M  V30 811 C 85.3035 -0.856535 4.49919 0
M  V30 812 N 86.7945 -0.9208 4.53955 0
M  V30 813 C 87.5295 -1.02726 5.64123 0
M  V30 814 N 87.0255 -1.09777 6.84047 0
M  V30 815 N 88.8185 -1.06226 5.51971 0
M  V30 816 H 80.9695 0.629462 2.02858 0
M  V30 817 H 83.2325 0.220621 0.921971 0
M  V30 818 H 82.9385 0.231518 3.50937 0
M  V30 819 H 82.8125 -1.51781 3.45315 0
M  V30 820 H 85.1995 -1.61999 2.46658 0
M  V30 821 H 85.2805 0.14541 2.55386 0
M  V30 822 H 84.9245 0.0146069 5.07898 0
M  V30 823 H 84.8545 -1.76172 4.96257 0
M  V30 824 H 87.3455 -0.876694 3.6759 0
M  V30 825 H 87.6585 -1.17872 7.63758 0
M  V30 826 H 86.0035 -1.06693 6.86762 0
M  V30 827 H 89.1945 -1.00382 4.5721 0
M  V30 828 H 89.3675 -1.14177 6.37862 0
M  V30 829 N 82.7736 -1.49793 -0.48987 0
M  V30 830 C 83.7056 -1.63413 -1.60713 0
M  V30 831 C 84.7186 -0.516329 -1.54395 0
M  V30 832 O 85.9076 -0.788812 -1.60125 0
M  V30 833 C 83.0076 -1.58516 -2.99543 0
M  V30 834 C 82.1806 -2.86016 -3.30928 0
M  V30 835 C 81.2396 -2.74018 -4.49222 0
M  V30 836 O 80.2656 -3.47964 -4.50455 0
M  V30 837 N 81.4676 -1.86309 -5.4979 0
M  V30 838 H 84.2326 -2.59777 -1.49452 0
M  V30 839 H 81.7936 -1.47022 -0.677955 0
M  V30 840 H 83.7856 -1.48128 -3.76617 0
M  V30 841 H 82.3556 -0.69965 -3.0467 0
M  V30 842 H 81.5756 -3.10672 -2.42645 0
M  V30 843 H 82.8636 -3.70521 -3.487 0
M  V30 844 H 82.2616 -1.2551 -5.51601 0
M  V30 845 H 80.8186 -1.81837 -6.25922 0
M  V30 846 N 84.2517 0.741722 -1.39055 0
M  V30 847 C 85.1817 1.869 -1.39966 0
M  V30 848 C 86.1627 1.6804 -0.26392 0
M  V30 849 O 87.3477 1.88458 -0.468755 0
M  V30 850 C 84.4777 3.24572 -1.23574 0
M  V30 851 C 83.4317 3.58056 -2.34477 0
M  V30 852 C 82.7577 4.94593 -2.0318 0
M  V30 853 C 84.0577 3.61716 -3.76774 0
M  V30 854 H 85.7517 1.86395 -2.34302 0
M  V30 855 H 83.2977 0.895361 -1.1278 0
M  V30 856 H 85.2507 4.031 -1.22834 0
M  V30 857 H 83.9747 3.25587 -0.257045 0
M  V30 858 H 82.6337 2.81854 -2.34423 0
M  V30 859 H 82.2817 4.92181 -1.03765 0
M  V30 860 H 81.9817 5.17964 -2.77465 0
M  V30 861 H 83.5057 5.75486 -2.04079 0
M  V30 862 H 84.9197 4.30335 -3.78794 0
M  V30 863 H 83.3167 3.96603 -4.50362 0
M  V30 864 H 84.3867 2.61672 -4.08235 0
M  V30 865 N 85.7298 1.2412 0.971189 0
M  V30 866 C 86.9768 1.07881 1.71371 0
M  V30 867 C 87.3048 -0.382901 1.90694 0
M  V30 868 O 86.5598 -1.29945 1.46331 0
M  V30 869 C 86.8588 1.75983 3.11071 0
M  V30 870 C 86.5248 3.25909 3.11599 0
M  V30 871 C 85.1868 3.66813 3.11451 0
M  V30 872 C 87.5388 4.21771 3.062 0
M  V30 873 C 84.8668 5.02021 3.03631 0
M  V30 874 C 87.2188 5.56982 2.99923 0
M  V30 875 C 85.8828 5.97237 2.98102 0
M  V30 876 H 85.1528 0.394764 0.62709 0
M  V30 877 H 87.7998 1.54176 1.13587 0
M  V30 878 H 86.1048 1.22072 3.72298 0
M  V30 879 H 87.8018 1.60887 3.6731 0
M  V30 880 H 84.3918 2.93353 3.12477 0
M  V30 881 H 88.5758 3.91172 3.05447 0
M  V30 882 H 83.8318 5.32411 3.0058 0
M  V30 883 H 88.0058 6.30969 2.94704 0
M  V30 884 H 85.6328 7.01967 2.91798 0
M  V30 885 N 87.2079 -1.17134 1.05439 0
M  V30 886 C 88.4849 -1.83411 0.679699 0
M  V30 887 C 88.8649 -1.9368 -0.839726 0
M  V30 888 O 88.2129 -1.47325 -1.74664 0
M  V30 889 C 88.4229 -3.20918 1.37159 0
M  V30 890 C 89.7709 -3.96796 1.51123 0
M  V30 891 O 90.7949 -3.30406 1.3308 0
M  V30 892 O 89.6539 -5.15778 1.80651 0
M  V30 893 H 86.7479 -0.79154 0.239569 0
M  V30 894 H 89.2939 -1.24411 1.15413 0
M  V30 895 H 88.0659 -3.08428 2.40807 0
M  V30 896 H 87.6889 -3.87587 0.886674 0
M  V30 897 N 88.686 -0.835752 -1.33615 0
M  V30 898 C 90.097 -0.487099 -1.80234 0
M  V30 899 C 90.448 0.993627 -1.69179 0
M  V30 900 O 89.573 1.77403 -1.23924 0
M  V30 901 C 90.168 -0.877385 -3.27242 0
M  V30 902 C 88.727 -0.580915 -3.7189 0
M  V30 903 C 87.874 -1.0874 -2.5509 0
M  V30 904 H 90.825 -1.02474 -1.2118 0
M  V30 905 H 90.846 -0.186195 -3.80044 0
M  V30 906 H 90.358 -1.95512 -3.35256 0
M  V30 907 H 88.459 0.486881 -3.69405 0
M  V30 908 H 88.572 -1.13396 -4.65487 0
M  V30 909 H 86.936 -0.508392 -2.49575 0
M  V30 910 H 87.719 -2.17184 -2.65868 0
M  V30 911 N 90.1641 1.46063 -0.591896 0
M  V30 912 C 91.0741 2.34192 0.13831 0
M  V30 913 C 92.0901 1.50305 0.876608 0
M  V30 914 O 93.2661 1.8315 0.837728 0
M  V30 915 C 90.3311 3.27656 1.13326 0
M  V30 916 C 89.3921 4.27445 0.39863 0
M  V30 917 C 88.6251 5.16443 1.34618 0
M  V30 918 O 88.8481 5.08553 2.58321 0
M  V30 919 O 87.7821 5.95843 0.851768 0
M  V30 920 H 91.6081 2.98002 -0.58552 0
M  V30 921 H 89.1931 1.45188 -0.352239 0
M  V30 922 H 91.0751 3.85291 1.70671 0
M  V30 923 H 89.7501 2.6643 1.83839 0
M  V30 924 H 88.6571 3.73471 -0.216895 0
M  V30 925 H 89.9901 4.91482 -0.265709 0
M  V30 926 N 91.6422 0.330177 1.54103 0
M  V30 927 C 93.0582 -0.0222371 1.59585 0
M  V30 928 C 93.2582 -1.49902 1.34654 0
M  V30 929 O 92.3142 -2.25592 1.13421 0
M  V30 930 C 93.6272 0.401932 2.98002 0
M  V30 931 C 95.1752 0.353145 3.11001 0
M  V30 932 C 95.6502 0.752576 4.51775 0
M  V30 933 N 97.1412 0.706239 4.57784 0
M  V30 934 C 97.8762 0.987417 5.64834 0
M  V30 935 N 97.3722 1.33607 6.79795 0
M  V30 936 N 99.1652 0.91254 5.54643 0
M  V30 937 H 91.3162 1.29228 1.68564 0
M  V30 938 H 93.5792 0.525906 0.78875 0
M  V30 939 H 93.2852 1.4311 3.21267 0
M  V30 940 H 93.1592 -0.229699 3.765 0
M  V30 941 H 95.5462 -0.666822 2.87467 0
M  V30 942 H 95.6272 1.0198 2.34593 0
M  V30 943 H 95.2712 1.77049 4.76042 0
M  V30 944 H 95.2012 0.0635409 5.26562 0
M  V30 945 H 97.6922 0.44889 3.75224 0
M  V30 946 H 98.0052 1.53582 7.57385 0
M  V30 947 H 96.3502 1.37439 6.81275 0
M  V30 948 H 99.5412 0.639601 4.6371 0
M  V30 949 H 99.7142 1.13503 6.37982 0
M  V30 950 N 93.1203 -1.57491 0.0584922 0
M  V30 951 C 94.3503 -1.9701 -0.622134 0
M  V30 952 C 94.7583 -0.935034 -1.6448 0
M  V30 953 O 94.1013 0.0882904 -1.83488 0
M  V30 954 C 94.1633 -3.32794 -1.35972 0
M  V30 955 C 93.8273 -4.54343 -0.492043 0
M  V30 956 C 94.8243 -5.19323 0.244901 0
M  V30 957 C 92.5093 -5.00534 -0.420821 0
M  V30 958 C 94.5033 -6.28835 1.04143 0
M  V30 959 C 92.1903 -6.09921 0.379389 0
M  V30 960 C 93.1883 -6.73933 1.10919 0
M  V30 961 O 92.8763 -7.81216 1.89623 0
M  V30 962 H 92.6083 -0.653127 -0.174359 0
M  V30 963 H 95.1623 -2.05029 0.123418 0
M  V30 964 H 93.3923 -3.21351 -2.15105 0
M  V30 965 H 95.0813 -3.5701 -1.93129 0
M  V30 966 H 95.8473 -4.8459 0.19939 0
M  V30 967 H 91.7263 -4.50496 -0.978474 0
M  V30 968 H 95.2703 -6.7873 1.61157 0
M  V30 969 H 91.1673 -6.44089 0.426512 0
M  V30 970 H 91.9353 -7.98029 1.81913 0
M  V30 971 N 94.5984 0.214957 -1.56127 0
M  V30 972 C 95.5454 1.26642 -1.92952 0
M  V30 973 C 96.5154 1.46244 -0.78753 0
M  V30 974 O 97.7004 1.59704 -1.04399 0
M  V30 975 C 94.8404 2.6104 -2.25726 0
M  V30 976 C 93.9534 2.49183 -3.52891 0
M  V30 977 C 93.0884 3.76149 -3.7508 0
M  V30 978 C 92.1274 3.59041 -4.95738 0
M  V30 979 N 91.2644 4.77972 -5.14283 0
M  V30 980 H 96.1044 0.945384 -2.82607 0
M  V30 981 H 93.6414 0.455489 -1.3987 0
M  V30 982 H 95.5994 3.39313 -2.42739 0
M  V30 983 H 94.2294 2.91227 -1.39236 0
M  V30 984 H 93.2814 1.6231 -3.44034 0
M  V30 985 H 94.5934 2.32466 -4.41318 0
M  V30 986 H 93.7474 4.62865 -3.92226 0
M  V30 987 H 92.4864 3.95799 -2.84947 0
M  V30 988 H 91.4914 2.7071 -4.78535 0
M  V30 989 H 92.7164 3.40856 -5.87362 0
M  V30 990 H 90.6624 4.97923 -4.27093 0
M  V30 991 H 90.5794 4.64006 -5.96853 0
M  V30 992 H 91.8474 5.66096 -5.35869 0
M  V30 993 N 96.0765 1.50051 0.48192 0
M  V30 994 C 97.3225 1.60736 1.2366 0
M  V30 995 C 97.6555 0.301786 1.91841 0
M  V30 996 O 96.9305 -0.696025 1.8162 0
M  V30 997 C 97.2135 2.78009 2.28874 0
M  V30 998 C 97.0665 4.18416 1.65069 0
M  V30 999 C 98.3855 2.90867 3.30279 0
M  V30 1000 H 95.5045 0.585031 0.448228 0
M  V30 1001 H 98.1465 1.82402 0.531946 0
M  V30 1002 H 96.2965 2.59667 2.88973 0
M  V30 1003 H 97.9685 4.48322 1.0865 0
M  V30 1004 H 96.2115 4.23177 0.954148 0
M  V30 1005 H 96.8825 4.96381 2.41474 0
M  V30 1006 H 99.3585 3.07623 2.80191 0
M  V30 1007 H 98.2345 3.74566 4.01238 0
M  V30 1008 H 98.4955 2.01021 3.93755 0
M  V30 1009 N 97.5546 -0.734337 1.39446 0
M  V30 1010 C 98.4846 -1.86155 1.40955 0
M  V30 1011 C 99.4656 -1.67898 0.272827 0
M  V30 1012 O 100.651 -1.88207 0.478743 0
M  V30 1013 C 97.7806 -3.23912 1.25294 0
M  V30 1014 C 96.7346 -3.56808 2.36373 0
M  V30 1015 C 96.0606 -4.93508 2.058 0
M  V30 1016 C 97.3606 -3.59713 3.78687 0
M  V30 1017 H 99.0546 -1.8515 2.35287 0
M  V30 1018 H 96.6006 -0.889367 1.13253 0
M  V30 1019 H 98.5536 -4.02443 1.2497 0
M  V30 1020 H 97.2776 -3.25446 0.274308 0
M  V30 1021 H 95.9366 -2.80606 2.35914 0
M  V30 1022 H 95.5846 -4.91623 1.06374 0
M  V30 1023 H 95.2846 -5.16486 2.80208 0
M  V30 1024 H 96.8086 -5.74396 2.07128 0
M  V30 1025 H 98.2226 -4.2832 3.81071 0
M  V30 1026 H 96.6196 -3.94209 4.52459 0
M  V30 1027 H 97.6896 -2.59504 4.09617 0
M  V30 1028 N 99.0327 -1.24633 -0.964593 0
M  V30 1029 C 99.9627 -1.06611 -2.07741 0
M  V30 1030 C 100.944 0.0218666 -1.70086 0
M  V30 1031 O 102.129 -0.145793 -1.93652 0
M  V30 1032 C 99.2587 -0.673444 -3.40708 0
M  V30 1033 C 98.2127 -1.71054 -3.92332 0
M  V30 1034 C 97.5387 -1.17285 -5.21678 0
M  V30 1035 C 98.8387 -3.10718 -4.19824 0
M  V30 1036 H 100.533 -1.99693 -2.23076 0
M  V30 1037 H 98.0787 -0.96152 -1.07195 0
M  V30 1038 H 100.032 -0.534345 -4.17998 0
M  V30 1039 H 98.7557 0.293073 -3.25282 0
M  V30 1040 H 97.4147 -1.83791 -3.17201 0
M  V30 1041 H 97.0627 -0.196847 -5.02615 0
M  V30 1042 H 96.7627 -1.86592 -5.57187 0
M  V30 1043 H 98.2867 -1.04593 -6.01575 0
M  V30 1044 H 99.7007 -3.01192 -4.87808 0
M  V30 1045 H 98.0977 -3.77406 -4.66567 0
M  V30 1046 H 99.1677 -3.58524 -3.26479 0
M  V30 1047 N 100.511 1.16574 -1.06058 0
M  V30 1048 C 101.758 1.87047 -0.775873 0
M  V30 1049 C 102.086 1.81562 0.697534 0
M  V30 1050 O 101.341 1.22445 1.52662 0
M  V30 1051 C 101.64 3.36195 -1.21275 0
M  V30 1052 C 101.306 3.6188 -2.68986 0
M  V30 1053 C 99.9678 3.68599 -3.09335 0
M  V30 1054 C 102.32 3.72648 -3.64394 0
M  V30 1055 C 99.6478 3.83584 -4.43937 0
M  V30 1056 C 102 3.89154 -4.98741 0
M  V30 1057 C 100.664 3.94114 -5.3873 0
M  V30 1058 H 99.9338 0.684452 -0.283912 0
M  V30 1059 H 102.581 1.37853 -1.32925 0
M  V30 1060 H 100.886 3.87505 -0.578528 0
M  V30 1061 H 102.583 3.89103 -0.969542 0
M  V30 1062 H 99.1728 3.57281 -2.36744 0
M  V30 1063 H 103.357 3.66769 -3.34356 0
M  V30 1064 H 98.6128 3.85677 -4.74409 0
M  V30 1065 H 102.787 3.96427 -5.72554 0
M  V30 1066 H 100.414 4.05478 -6.43033 0
M  V30 1067 N 101.989 0.842826 1.3317 0
M  V30 1068 C 103.266 0.362216 1.92217 0
M  V30 1069 C 103.646 -1.15289 1.76838 0
M  V30 1070 O 102.994 -1.96914 1.15919 0
M  V30 1071 C 103.204 0.813495 3.39387 0
M  V30 1072 C 104.552 0.823804 4.16532 0
M  V30 1073 O 105.576 0.757358 3.48055 0
M  V30 1074 O 104.435 0.915193 5.38782 0
M  V30 1075 H 101.529 0.103317 0.820521 0
M  V30 1076 H 104.075 0.928942 1.42017 0
M  V30 1077 H 102.847 1.85624 3.4447 0
M  V30 1078 H 102.47 0.223561 3.96971 0
M  V30 1079 N 103.467 -1.45747 0.599634 0
M  V30 1080 C 104.399 -2.28628 -0.161879 0
M  V30 1081 C 105.412 -1.39494 -0.839367 0
M  V30 1082 O 106.601 -1.63941 -0.706089 0
M  V30 1083 C 103.701 -3.15014 -1.24976 0
M  V30 1084 C 102.874 -4.32378 -0.660935 0
M  V30 1085 C 101.933 -5.00033 -1.63869 0
M  V30 1086 O 100.959 -5.57085 -1.1681 0
M  V30 1087 N 102.161 -4.98589 -2.97303 0
M  V30 1088 H 104.926 -2.94624 0.549265 0
M  V30 1089 H 102.487 -1.55847 0.438565 0
M  V30 1090 H 104.479 -3.5714 -1.9035 0
M  V30 1091 H 103.049 -2.5098 -1.86354 0
M  V30 1092 H 102.269 -3.9383 0.170688 0
M  V30 1093 H 103.557 -5.08197 -0.247619 0
M  V30 1094 H 102.955 -4.53514 -3.38145 0
M  V30 1095 H 101.512 -5.44603 -3.58121 0
M  V30 1096 N 104.945 -0.338344 -1.53925 0
M  V30 1097 C 106.361 0.0137736 -1.59594 0
M  V30 1098 C 106.561 1.49186 -1.35447 0
M  V30 1099 O 105.617 2.24987 -1.14616 0
M  V30 1100 C 106.93 -0.41773 -2.97784 0
M  V30 1101 C 108.478 -0.369633 -3.1081 0
M  V30 1102 C 108.953 -0.776524 -4.51369 0
M  V30 1103 N 110.444 -0.730506 -4.57403 0
M  V30 1104 C 111.179 -1.01736 -5.64303 0
M  V30 1105 N 110.675 -1.3721 -6.79077 0
M  V30 1106 N 112.468 -0.941942 -5.54151 0
M  V30 1107 H 104.619 -1.3012 -1.67876 0
M  V30 1108 H 106.882 -0.530082 -0.78595 0
M  V30 1109 H 106.588 -1.44811 -3.20504 0
M  V30 1110 H 106.462 0.209729 -3.76616 0
M  V30 1111 H 108.849 0.651568 -2.87817 0
M  V30 1112 H 108.93 -1.03223 -2.34049 0
M  V30 1113 H 108.574 -1.79571 -4.75096 0
M  V30 1114 H 108.504 -0.0914649 -5.26521 0
M  V30 1115 H 110.995 -0.468783 -3.74981 0
M  V30 1116 H 111.308 -1.57597 -7.5656 0
M  V30 1117 H 109.653 -1.4105 -6.80536 0
M  V30 1118 H 112.844 -0.664184 -4.63364 0
M  V30 1119 H 113.017 -1.16884 -6.37371 0
M  V30 1120 N 106.423 1.57458 -0.0668435 0
M  V30 1121 C 107.671 1.92919 0.602214 0
M  V30 1122 C 107.992 0.947215 1.70449 0
M  V30 1123 O 107.262 -0.00544117 1.95899 0
M  V30 1124 H 105.842 0.71217 0.22544 0
M  V30 1125 H 108.504 1.94508 -0.123535 0
M  V30 1126 H 107.6 2.94589 1.03073 0
M  V30 1127 N 107.901 -0.206675 1.56239 0
M  V30 1128 C 109.141 -0.93574 1.81723 0
M  V30 1129 C 109.505 -1.80927 0.642609 0
M  V30 1130 O 110.706 -2.57323 0.777081 0
M  V30 1131 C 108.977 -1.74012 3.12177 0
M  V30 1132 S 110.536 -2.52279 3.59028 0
M  V30 1133 H 107.354 -0.314065 0.637875 0
M  V30 1134 H 109.956 -0.200071 1.94474 0
M  V30 1135 H 108.66 -1.0888 3.95693 0
M  V30 1136 H 108.191 -2.51782 3.02274 0
M  V30 1137 H 110.206 -3.76209 3.23545 0
M  V30 1138 N 109.379 -1.50304 -0.473955 0
M  V30 1139 C 110.627 -1.60832 -1.22382 0
M  V30 1140 C 110.948 -0.30939 -1.9253 0
M  V30 1141 O 110.218 0.67296 -1.83978 0
M  V30 1142 H 108.798 -0.592652 -0.454723 0
M  V30 1143 H 111.46 -1.87068 -0.546968 0
M  V30 1144 H 110.556 -2.41803 -1.97327 0
M  V30 1145 N 110.857 0.726932 -1.39834 0
M  V30 1146 C 112.273 1.03354 -1.21615 0
M  V30 1147 C 112.473 2.01327 -0.08338 0
M  V30 1148 O 111.529 2.46158 0.56238 0
M  V30 1149 C 112.842 1.58811 -2.55342 0
M  V30 1150 C 114.39 1.70851 -2.62257 0
M  V30 1151 C 114.865 2.29716 -3.96225 0
M  V30 1152 N 116.356 2.37116 -3.97907 0
M  V30 1153 C 117.091 2.83619 -4.98345 0
M  V30 1154 N 116.587 3.29958 -6.09179 0
M  V30 1155 N 118.38 2.82901 -4.8572 0
M  V30 1156 H 110.531 0.0773069 -2.12259 0
M  V30 1157 H 112.794 0.0969102 -0.943034 0
M  V30 1158 H 112.5 0.942855 -3.38826 0
M  V30 1159 H 112.374 2.57502 -2.75632 0
M  V30 1160 H 114.761 2.34497 -1.79152 0
M  V30 1161 H 114.842 0.707913 -2.45809 0
M  V30 1162 H 114.486 1.66696 -4.79765 0
M  V30 1163 H 114.416 3.30469 -4.09997 0
M  V30 1164 H 116.907 2.04374 -3.17868 0
M  V30 1165 H 117.22 3.63976 -6.8172 0
M  V30 1166 H 115.565 3.27946 -6.12761 0
M  V30 1167 H 118.756 2.46027 -3.98231 0
M  V30 1168 H 118.929 3.18827 -5.6414 0
M  V30 1169 N 112.336 1.25143 0.95797 0
M  V30 1170 C 113.561 1.12521 1.74223 0
M  V30 1171 C 113.986 -0.317402 1.85403 0
M  V30 1172 O 113.344 -1.2299 1.33204 0
M  V30 1173 C 113.392 1.78062 3.1357 0
M  V30 1174 O 112.496 1.058 3.98598 0
M  V30 1175 H 111.837 0.39304 0.535178 0
M  V30 1176 H 114.367 1.65641 1.201 0
M  V30 1177 H 114.377 1.84213 3.64046 0
M  V30 1178 H 113.052 2.83021 3.04749 0
M  V30 1179 H 111.629 1.07506 3.57067 0
M  V30 1180 N 113.814 -1.1601 1.06675 0
M  V30 1181 C 115.23 -1.38622 0.790948 0
M  V30 1182 C 115.43 -1.92109 -0.607965 0
M  V30 1183 O 114.486 -2.12239 -1.36787 0
M  V30 1184 C 115.799 -2.36347 1.85905 0
M  V30 1185 C 117.347 -2.50023 1.88301 0
M  V30 1186 C 117.822 -3.51033 2.94176 0
M  V30 1187 N 119.313 -3.58563 2.93235 0
M  V30 1188 C 120.048 -4.36521 3.71803 0
M  V30 1189 N 119.544 -5.17869 4.602 0
M  V30 1190 N 121.337 -4.31541 3.60178 0
M  V30 1191 H 113.488 -0.796294 1.96908 0
M  V30 1192 H 115.751 -0.412597 0.853503 0
M  V30 1193 H 115.457 -2.04147 2.86386 0
M  V30 1194 H 115.331 -3.36042 1.71334 0
M  V30 1195 H 117.718 -2.81524 0.884769 0
M  V30 1196 H 117.799 -1.5035 2.06951 0
M  V30 1197 H 117.443 -3.20268 3.94196 0
M  V30 1198 H 117.373 -4.50445 2.72776 0
M  V30 1199 H 119.864 -3.00496 2.29152 0
M  V30 1200 H 120.177 -5.74578 5.16797 0
M  V30 1201 H 118.522 -5.17199 4.64253 0
M  V30 1202 H 121.713 -3.67051 2.90502 0
M  V30 1203 H 121.886 -4.9205 4.21653 0
M  V30 1204 N 115.292 -0.849877 -1.32721 0
M  V30 1205 C 116.703 -0.506188 -1.79707 0
M  V30 1206 C 117.054 0.975627 -1.70223 0
M  V30 1207 O 116.179 1.76078 -1.25799 0
M  V30 1208 C 116.774 -0.912044 -3.26293 0
M  V30 1209 C 115.333 -0.620326 -3.71253 0
M  V30 1210 C 114.48 -1.11439 -2.53922 0
M  V30 1211 H 117.431 -1.03754 -1.20087 0
M  V30 1212 H 117.452 -0.226493 -3.79825 0
M  V30 1213 H 116.964 -1.99057 -3.33164 0
M  V30 1214 H 115.065 0.447674 -3.69901 0
M  V30 1215 H 115.178 -1.18327 -4.64258 0
M  V30 1216 H 113.542 -0.534834 -2.49021 0
M  V30 1217 H 114.325 -2.19992 -2.6355 0
M  V30 1218 N 116.77 1.45427 -0.607355 0
M  V30 1219 C 117.72 2.27612 0.133038 0
M  V30 1220 C 118.704 1.37307 0.838785 0
M  V30 1221 O 119.896 1.61299 0.728813 0
M  V30 1222 C 117.025 3.24173 1.12991 0
M  V30 1223 C 116.111 4.21965 0.425011 0
M  V30 1224 N 116.502 5.02982 -0.533217 0
M  V30 1225 C 114.8 4.40899 0.672593 0
M  V30 1226 C 115.501 5.73931 -0.947518 0
M  V30 1227 N 114.477 5.42819 -0.291321 0
M  V30 1228 H 118.279 2.87649 -0.602935 0
M  V30 1229 H 115.793 1.56576 -0.431006 0
M  V30 1230 H 117.79 3.81783 1.67473 0
M  V30 1231 H 116.45 2.65696 1.86644 0
M  V30 1232 H 117.461 5.09843 -0.90995 0
M  V30 1233 H 114.138 3.93547 1.39382 0
M  V30 1234 H 115.528 6.49037 -1.73782 0
M  V30 1235 N 118.248 0.346503 1.53744 0
M  V30 1236 C 119.211 -0.496439 2.23759 0
M  V30 1237 C 120.211 -1.0252 1.2388 0
M  V30 1238 O 121.401 -0.913974 1.48297 0
M  V30 1239 C 118.533 -1.69187 2.95954 0
M  V30 1240 H 119.726 0.115952 2.99676 0
M  V30 1241 H 117.279 0.0978939 1.55993 0
M  V30 1242 H 118.014 -2.34288 2.24231 0
M  V30 1243 H 117.799 -1.31989 3.69217 0
M  V30 1244 H 119.289 -2.28969 3.49232 0
M  V30 1245 N 119.726 -1.57421 0.075193 0
M  V30 1246 C 120.951 -1.98364 -0.605515 0
M  V30 1247 C 121.376 -0.953383 -1.62149 0
M  V30 1248 O 120.734 0.0806053 -1.81121 0
M  V30 1249 C 120.782 -3.38332 -1.24756 0
M  V30 1250 O 119.886 -3.37959 -2.36342 0
M  V30 1251 H 119.227 -0.645553 -0.155428 0
M  V30 1252 H 121.757 -2.04044 0.150714 0
M  V30 1253 H 121.767 -3.75591 -1.5936 0
M  V30 1254 H 120.442 -4.12846 -0.503129 0
M  V30 1255 H 119.019 -3.12474 -2.03506 0
M  V30 1256 N 121.204 0.198386 -1.56346 0
M  V30 1257 C 122.134 1.24865 -1.9731 0
M  V30 1258 C 123.115 1.47651 -0.844576 0
M  V30 1259 O 124.3 1.59444 -1.10866 0
M  V30 1260 C 121.43 2.59358 -2.30977 0
M  V30 1261 C 120.384 2.5119 -3.46537 0
M  V30 1262 C 119.71 3.89926 -3.65871 0
M  V30 1263 C 121.01 2.03977 -4.80823 0
M  V30 1264 H 122.704 0.908252 -2.85291 0
M  V30 1265 H 120.25 0.435462 -1.37258 0
M  V30 1266 H 122.203 3.33011 -2.58228 0
M  V30 1267 H 120.927 2.95132 -1.39874 0
M  V30 1268 H 119.586 1.79993 -3.19371 0
M  V30 1269 H 119.234 4.23046 -2.72105 0
M  V30 1270 H 118.934 3.85336 -4.4361 0
M  V30 1271 H 120.458 4.65205 -3.95495 0
M  V30 1272 H 121.872 2.67386 -5.07127 0
M  V30 1273 H 120.269 2.10397 -5.62008 0
M  V30 1274 H 121.339 0.992861 -4.74626 0
M  V30 1275 N 122.682 1.50554 0.465978 0
M  V30 1276 C 123.959 1.5232 1.22712 0
M  V30 1277 C 124.339 0.270807 2.09356 0
M  V30 1278 O 123.687 -0.745541 2.15995 0
M  V30 1279 C 123.897 2.82175 2.05374 0
M  V30 1280 C 125.245 3.33033 2.6339 0
M  V30 1281 O 126.269 2.83531 2.15612 0
M  V30 1282 O 125.128 4.19336 3.50456 0
M  V30 1283 H 122.222 0.611183 0.557122 0
M  V30 1284 H 124.768 1.62847 0.477381 0
M  V30 1285 H 123.54 3.64797 1.41558 0
M  V30 1286 H 123.163 2.74675 2.87471 0
M  V30 1287 N 124.16 -0.719506 1.40217 0
M  V30 1288 C 125.108 -1.85493 1.40339 0
M  V30 1289 C 126.102 -1.66995 0.284415 0
M  V30 1290 O 127.308 -1.74148 0.455252 0
M  V30 1291 H 123.683 -0.610857 0.438586 0
M  V30 1292 H 125.654 -1.82506 2.36081 0
M  V30 1293 C 124.403 -3.23321 1.27901 0
M  V30 1294 H 123.726 -3.38159 2.1328 0
M  V30 1295 H 125.166 -4.02914 1.32045 0
M  V30 1296 C 123.625 -3.36898 -0.0111355 0
M  V30 1297 O 124.155 -3.89674 -0.975538 0
M  V30 1298 N 122.361 -2.90492 -0.0793393 0
M  V30 1299 H 121.908 -2.47731 0.706183 0
M  V30 1300 H 121.866 -2.99955 -0.942038 0
M  V30 1301 N 125.638 -1.25649 -0.95132 0
M  V30 1302 C 126.586 -1.06118 -2.06982 0
M  V30 1303 C 127.58 0.00889169 -1.69398 0
M  V30 1304 O 128.786 -0.146988 -1.79399 0
M  V30 1305 H 125.161 -0.326248 -0.677544 0
M  V30 1306 H 127.132 -2.00932 -2.2061 0
M  V30 1307 C 125.881 -0.700145 -3.40578 0
M  V30 1308 H 125.204 -1.51537 -3.69968 0
M  V30 1309 H 126.644 -0.603211 -4.19687 0
M  V30 1310 C 125.103 0.59403 -3.31622 0
M  V30 1311 O 125.633 1.63522 -3.66911 0
M  V30 1312 N 123.839 0.58089 -2.84735 0
M  V30 1313 H 123.386 -0.266783 -2.56215 0
M  V30 1314 H 123.344 1.44695 -2.79125 0
M  V30 1315 N 127.117 1.15442 -1.07289 0
M  V30 1316 C 128.345 1.90096 -0.81676 0
M  V30 1317 C 128.76 1.7798 0.629966 0
M  V30 1318 O 128.117 1.1313 1.43206 0
M  V30 1319 C 128.168 3.40466 -1.21512 0
M  V30 1320 O 127.889 3.52232 -2.60508 0
M  V30 1321 C 129.39 4.32145 -0.988198 0
M  V30 1322 H 126.61 0.602495 -0.295366 0
M  V30 1323 H 129.154 1.4627 -1.42918 0
M  V30 1324 H 127.309 3.81958 -0.647039 0
M  V30 1325 H 127.723 4.45549 -2.76742 0
M  V30 1326 H 129.197 5.36072 -1.31645 0
M  V30 1327 H 129.674 4.39135 0.0755063 0
M  V30 1328 H 130.28 3.96395 -1.54115 0
M  V30 1329 N 128.595 0.856903 1.32268 0
M  V30 1330 C 129.823 0.475439 2.01363 0
M  V30 1331 C 130.238 -0.928486 1.64392 0
M  V30 1332 O 129.595 -1.60624 0.866387 0
M  V30 1333 C 129.646 0.607545 3.56358 0
M  V30 1334 O 129.367 1.95617 3.92002 0
M  V30 1335 C 130.868 0.225382 4.42727 0
M  V30 1336 H 128.088 0.186636 0.644521 0
M  V30 1337 H 130.632 1.15446 1.68797 0
M  V30 1338 H 128.787 -0.0237719 3.87393 0
M  V30 1339 H 129.201 1.95455 4.86721 0
M  V30 1340 H 130.675 0.368813 5.50767 0
M  V30 1341 H 131.152 -0.834369 4.31202 0
M  V30 1342 H 131.758 0.831864 4.17085 0
M  V30 1343 N 130.073 -1.45103 0.615059 0
M  V30 1344 C 131.319 -2.03035 0.121804 0
M  V30 1345 C 131.674 -1.47393 -1.23665 0
M  V30 1346 O 130.967 -0.642061 -1.80522 0
M  V30 1347 C 131.161 -3.57386 0.0318797 0
M  V30 1348 C 130.99 -4.28 1.38007 0
M  V30 1349 C 129.76 -4.65624 1.9627 0
M  V30 1350 C 131.958 -4.5948 2.31047 0
M  V30 1351 N 129.94 -5.21132 3.24492 0
M  V30 1352 C 131.311 -5.159 3.43872 0
M  V30 1353 C 133.366 -4.41423 2.30326 0
M  V30 1354 C 132.069 -5.56165 4.5615 0
M  V30 1355 C 134.095 -4.82726 3.41658 0
M  V30 1356 C 133.457 -5.39245 4.53205 0
M  V30 1357 H 129.556 -0.77702 0.0881159 0
M  V30 1358 H 132.14 -1.76819 0.815044 0
M  V30 1359 H 130.311 -3.83247 -0.630599 0
M  V30 1360 H 132.043 -4.01976 -0.468721 0
M  V30 1361 H 128.798 -4.49421 1.49392 0
M  V30 1362 H 129.222 -5.53377 3.90004 0
M  V30 1363 H 133.864 -3.97033 1.45343 0
M  V30 1364 H 131.582 -5.99517 5.41854 0
M  V30 1365 H 135.168 -4.7048 3.42257 0
M  V30 1366 H 134.048 -5.70616 5.37929 0
M  V30 1367 N 131.551 -0.354651 -1.53558 0
M  V30 1368 C 132.501 0.513179 -2.2215 0
M  V30 1369 C 133.485 1.05734 -1.21281 0
M  V30 1370 O 134.677 0.989202 -1.46778 0
M  V30 1371 C 131.806 1.65798 -3.00609 0
M  V30 1372 C 130.892 1.12722 -4.08845 0
M  V30 1373 N 131.283 0.318563 -5.04796 0
M  V30 1374 C 129.581 1.40307 -4.23356 0
M  V30 1375 C 130.282 0.0292224 -5.81693 0
M  V30 1376 N 129.258 0.623891 -5.40008 0
M  V30 1377 H 133.06 -0.111586 -2.93688 0
M  V30 1378 H 130.574 -0.162091 -1.61589 0
M  V30 1379 H 132.571 2.29176 -3.48258 0
M  V30 1380 H 131.231 2.28591 -2.306 0
M  V30 1381 H 132.242 -0.0413091 -5.17884 0
M  V30 1382 H 128.919 2.03458 -3.6457 0
M  V30 1383 H 130.309 -0.623808 -6.68998 0
M  V30 1384 N 133.029 1.57378 -0.0835403 0
M  V30 1385 C 133.959 2.1641 0.87686 0
M  V30 1386 C 134.94 1.09429 1.30228 0
M  V30 1387 O 136.125 1.37516 1.37124 0
M  V30 1388 C 133.255 2.73517 2.14022 0
M  V30 1389 C 132.209 3.85769 1.85381 0
M  V30 1390 C 131.535 4.29529 3.18448 0
M  V30 1391 C 132.835 5.09486 1.14984 0
M  V30 1392 H 134.529 2.96914 0.385059 0
M  V30 1393 H 132.075 1.42823 0.18377 0
M  V30 1394 H 134.028 3.13463 2.81636 0
M  V30 1395 H 132.752 1.90252 2.65465 0
M  V30 1396 H 131.411 3.46345 1.20169 0
M  V30 1397 H 131.059 3.43169 3.67755 0
M  V30 1398 H 130.759 5.05204 3.00071 0
M  V30 1399 H 132.283 4.72099 3.8724 0
M  V30 1400 H 133.697 5.46674 1.72687 0
M  V30 1401 H 132.094 5.90515 1.06826 0
M  V30 1402 H 133.164 4.84724 0.130749 0
M  V30 1403 N 134.507 -0.190092 1.56449 0
M  V30 1404 C 135.753 -0.911052 1.81184 0
M  V30 1405 C 136.086 -1.82699 0.658396 0
M  V30 1406 O 135.361 -1.91491 -0.340775 0
M  V30 1407 C 135.644 -1.72297 3.16205 0
M  V30 1408 C 135.497 -0.831419 4.42049 0
M  V30 1409 C 136.816 -2.69454 3.47969 0
M  V30 1410 H 133.935 -0.32977 0.659106 0
M  V30 1411 H 136.577 -0.178169 1.89163 0
M  V30 1412 H 134.727 -2.34778 3.09534 0
M  V30 1413 H 136.399 -0.220929 4.60771 0
M  V30 1414 H 134.642 -0.138406 4.33579 0
M  V30 1415 H 135.313 -1.43461 5.33032 0
M  V30 1416 H 137.789 -2.17104 3.54972 0
M  V30 1417 H 136.665 -3.23342 4.43555 0
M  V30 1418 H 136.926 -3.48744 2.71717 0
M  V30 1419 N 135.985 -1.50799 -0.457987 0
M  V30 1420 C 136.948 -1.7005 -1.53674 0
M  V30 1421 C 137.948 -0.570881 -1.50325 0
M  V30 1422 O 139.138 -0.838126 -1.52712 0
M  V30 1423 C 136.27 -1.73788 -2.93276 0
M  V30 1424 H 137.463 -2.66306 -1.37917 0
M  V30 1425 H 135.016 -1.40477 -0.685271 0
M  V30 1426 H 135.751 -0.792717 -3.14462 0
M  V30 1427 H 135.536 -2.55864 -2.97113 0
M  V30 1428 H 137.026 -1.90591 -3.71571 0
M  V30 1429 N 137.463 0.71206 -1.40597 0
M  V30 1430 C 138.74 1.46536 -1.29563 0
M  V30 1431 C 139.12 2.10931 0.0844217 0
M  V30 1432 O 138.468 2.00418 1.0975 0
M  V30 1433 C 138.678 2.49821 -2.43701 0
M  V30 1434 C 140.026 3.15551 -2.841 0
M  V30 1435 O 141.05 2.60142 -2.4332 0
M  V30 1436 O 139.909 4.15867 -3.54566 0
M  V30 1437 H 137.003 0.651801 -0.509004 0
M  V30 1438 H 139.549 0.743935 -1.52524 0
M  V30 1439 H 138.321 2.00778 -3.35863 0
M  V30 1440 H 137.944 3.29495 -2.22528 0
M  V30 1441 N 138.941 1.26152 0.944643 0
M  V30 1442 C 140.19 1.10883 1.68487 0
M  V30 1443 C 140.503 -0.348153 1.92477 0
M  V30 1444 O 141.709 -0.621459 2.64292 0
M  V30 1445 C 140.165 1.93624 3.03377 0
M  V30 1446 C 139.773 3.43875 2.87148 0
M  V30 1447 C 141.517 1.86954 3.81115 0
M  V30 1448 C 139.424 4.18875 4.1749 0
M  V30 1449 H 138.354 0.41135 0.631907 0
M  V30 1450 H 141.005 1.50433 1.05082 0
M  V30 1451 H 139.387 1.46904 3.67743 0
M  V30 1452 H 140.561 3.98338 2.31653 0
M  V30 1453 H 138.876 3.51744 2.22856 0
M  V30 1454 H 141.473 2.40275 4.77673 0
M  V30 1455 H 141.816 0.839518 4.07747 0
M  V30 1456 H 142.349 2.31477 3.23517 0
M  V30 1457 H 139.088 5.22332 3.96043 0
M  V30 1458 H 138.608 3.69193 4.72712 0
M  V30 1459 H 140.287 4.27134 4.85968 0
M  V30 1460 N 140.419 -1.14872 1.07899 0
M  V30 1461 C 141.329 -2.2341 0.715915 0
M  V30 1462 C 142.345 -1.71808 -0.275306 0
M  V30 1463 O 143.521 -2.01039 -0.120545 0
M  V30 1464 C 140.586 -3.46474 0.125168 0
M  V30 1465 C 139.647 -4.13039 1.17034 0
M  V30 1466 C 138.88 -5.30229 0.607688 0
M  V30 1467 O 139.103 -5.675 -0.574497 0
M  V30 1468 O 138.037 -5.86444 1.35526 0
M  V30 1469 H 141.863 -2.56808 1.62121 0
M  V30 1470 H 139.448 -1.22702 0.852322 0
M  V30 1471 H 141.33 -4.20917 -0.201729 0
M  V30 1472 H 140.005 -3.14811 -0.753364 0
M  V30 1473 H 138.912 -3.40493 1.54968 0
M  V30 1474 H 140.245 -4.48796 2.02097 0
M  V30 1475 N 141.898 -0.863906 -1.31812 0
M  V30 1476 C 143.314 -0.555004 -1.49639 0
M  V30 1477 C 143.514 0.912266 -1.79666 0
M  V30 1478 O 142.57 1.69479 -1.87171 0
M  V30 1479 C 143.883 -1.44998 -2.63431 0
M  V30 1480 C 145.431 -1.45138 -2.77316 0
M  V30 1481 C 145.906 -2.33179 -3.94197 0
M  V30 1482 N 147.397 -2.31025 -4.01474 0
M  V30 1483 C 148.132 -2.95871 -4.9117 0
M  V30 1484 N 147.628 -3.69863 -5.8581 0
M  V30 1485 N 149.421 -2.85211 -4.84367 0
M  V30 1486 H 141.572 -1.81339 -1.10589 0
M  V30 1487 H 143.835 -0.77505 -0.545895 0
M  V30 1488 H 143.541 -2.49377 -2.48 0
M  V30 1489 H 143.415 -1.14409 -3.59431 0
M  V30 1490 H 145.802 -0.415201 -2.92164 0
M  V30 1491 H 145.883 -1.79747 -1.82001 0
M  V30 1492 H 145.527 -3.3687 -3.80107 0
M  V30 1493 H 145.457 -1.95897 -4.88807 0
M  V30 1494 H 147.948 -1.77238 -3.33759 0
M  V30 1495 H 148.261 -4.16486 -6.50968 0
M  V30 1496 H 146.606 -3.73971 -5.85808 0
M  V30 1497 H 149.797 -2.26948 -4.09405 0
M  V30 1498 H 149.97 -3.36027 -5.54066 0
M  V30 1499 N 143.376 1.44774 -0.622745 0
M  V30 1500 C 144.306 2.33382 0.0741861 0
M  V30 1501 C 145.287 1.47719 0.843387 0
M  V30 1502 O 146.472 1.76458 0.810934 0
M  V30 1503 C 143.602 3.30663 1.06204 0
M  V30 1504 C 142.556 4.26079 0.405037 0
M  V30 1505 C 141.882 5.13165 1.5022 0
M  V30 1506 C 143.182 5.1781 -0.683414 0
M  V30 1507 H 144.876 2.91905 -0.665713 0
M  V30 1508 H 142.422 1.40363 -0.321587 0
M  V30 1509 H 144.375 3.9153 1.55827 0
M  V30 1510 H 143.099 2.70331 1.83272 0
M  V30 1511 H 141.758 3.66532 -0.0704683 0
M  V30 1512 H 141.406 4.49191 2.26355 0
M  V30 1513 H 141.106 5.77812 1.06803 0
M  V30 1514 H 142.63 5.76902 2.00041 0
M  V30 1515 H 144.044 5.72661 -0.270631 0
M  V30 1516 H 142.441 5.91015 -1.04023 0
M  V30 1517 H 143.511 4.59326 -1.55395 0
M  V30 1518 N 144.854 0.36279 1.53368 0
M  V30 1519 C 146.27 0.0116182 1.59596 0
M  V30 1520 C 146.47 -1.47012 1.37803 0
M  V30 1521 O 145.526 -2.23136 1.18181 0
M  V30 1522 C 146.839 0.465052 2.97082 0
M  V30 1523 C 148.387 0.419033 3.10182 0
M  V30 1524 C 148.862 0.848235 4.50077 0
M  V30 1525 N 150.353 0.803183 4.56183 0
M  V30 1526 C 151.088 1.107 5.62613 0
M  V30 1527 N 150.584 1.47996 6.76808 0
M  V30 1528 N 152.377 1.02998 5.52583 0
M  V30 1529 H 144.528 1.32775 1.65785 0
M  V30 1530 H 146.791 0.542518 0.777417 0
M  V30 1531 H 146.497 1.49892 3.18159 0
M  V30 1532 H 146.371 -0.149786 3.76902 0
M  V30 1533 H 148.758 -0.605696 2.88817 0
M  V30 1534 H 148.839 1.06933 2.32377 0
M  V30 1535 H 148.483 1.87107 4.7218 0
M  V30 1536 H 148.413 0.175218 5.26308 0
M  V30 1537 H 150.904 0.52838 3.74188 0
M  V30 1538 H 151.217 1.69613 7.53957 0
M  V30 1539 H 149.562 1.51859 6.78206 0
M  V30 1540 H 152.753 0.737817 4.62249 0
M  V30 1541 H 152.926 1.2701 6.35431 0
M  V30 1542 N 146.332 -1.57332 0.0918853 0
M  V30 1543 C 147.242 -2.17368 -0.882505 0
M  V30 1544 C 148.258 -1.14226 -1.31257 0
M  V30 1545 O 149.434 -1.46582 -1.38115 0
M  V30 1546 C 146.499 -2.73962 -2.12476 0
M  V30 1547 C 145.56 -3.92048 -1.7492 0
M  V30 1548 C 144.793 -4.45933 -2.93223 0
M  V30 1549 O 145.016 -3.98764 -4.07852 0
M  V30 1550 O 143.95 -5.36999 -2.71875 0
M  V30 1551 H 147.776 -3.01031 -0.40172 0
M  V30 1552 H 145.361 -1.48813 -0.132291 0
M  V30 1553 H 147.243 -3.10147 -2.85283 0
M  V30 1554 H 145.918 -1.93347 -2.59613 0
M  V30 1555 H 144.825 -3.6068 -0.993025 0
M  V30 1556 H 146.158 -4.74017 -1.32548 0
M  V30 1557 N 147.81 0.181792 -1.56548 0
M  V30 1558 C 148.743 1.25366 -1.90679 0
M  V30 1559 C 149.721 1.43299 -0.768376 0
M  V30 1560 O 150.905 1.58475 -1.02068 0
M  V30 1561 C 148.032 2.61826 -2.1486 0
M  V30 1562 C 147.078 2.60688 -3.37556 0
M  V30 1563 S 147.911 2.10804 -4.92262 0
M  V30 1564 C 149.067 3.49062 -5.19525 0
M  V30 1565 H 149.3 0.962277 -2.81296 0
M  V30 1566 H 146.833 0.385892 -1.495 0
M  V30 1567 H 148.791 3.40371 -2.29473 0
M  V30 1568 H 147.452 2.88169 -1.24969 0
M  V30 1569 H 146.645 3.61058 -3.51643 0
M  V30 1570 H 146.247 1.90232 -3.22006 0
M  V30 1571 H 148.539 4.45003 -5.10861 0
M  V30 1572 H 149.482 3.39859 -6.2121 0
M  V30 1573 H 149.89 3.4459 -4.47122 0
M  V30 1574 N 149.288 1.51039 0.449983 0
M  V30 1575 C 150.251 1.70863 1.5277 0
M  V30 1576 C 151.251 0.578846 1.5002 0
M  V30 1577 O 152.441 0.846213 1.52266 0
M  V30 1578 C 149.573 1.75341 2.9235 0
M  V30 1579 H 150.766 2.67034 1.36502 0
M  V30 1580 H 148.319 1.40838 0.677812 0
M  V30 1581 H 149.054 0.809383 3.14037 0
M  V30 1582 H 148.839 2.57436 2.95752 0
M  V30 1583 H 150.329 1.92559 3.70555 0
M  V30 1584 N 150.766 -0.704594 1.40972 0
M  V30 1585 C 152.014 -1.46169 1.39568 0
M  V30 1586 C 152.335 -1.95 0.00253745 0
M  V30 1587 O 151.605 -1.71095 -0.954114 0
M  V30 1588 H 150.185 -0.542326 0.513704 0
M  V30 1589 H 152.847 -0.834553 1.76128 0
M  V30 1590 H 151.943 -2.32922 2.07735 0
M  V30 1591 N 152.244 -1.26651 -0.937939 0
M  V30 1592 C 153.49 -1.12553 -1.687 0
M  V30 1593 C 153.823 0.329782 -1.91379 0
M  V30 1594 O 153.098 1.24202 -1.4968 0
M  V30 1595 C 153.381 -1.89862 -3.05981 0
M  V30 1596 C 153.234 -3.43318 -2.90607 0
M  V30 1597 C 154.553 -1.69499 -4.0615 0
M  V30 1598 H 151.672 -0.410257 -0.612257 0
M  V30 1599 H 154.314 -1.55685 -1.08913 0
M  V30 1600 H 152.464 -1.53204 -3.57017 0
M  V30 1601 H 154.136 -3.89747 -2.46769 0
M  V30 1602 H 152.379 -3.70179 -2.26164 0
M  V30 1603 H 153.05 -3.92642 -3.8799 0
M  V30 1604 H 155.526 -2.01442 -3.64088 0
M  V30 1605 H 154.402 -2.26002 -5.00214 0
M  V30 1606 H 154.663 -0.640365 -4.37438 0
M  V30 1607 N 153.722 1.14298 -1.08507 0
M  V30 1608 C 154.632 2.23027 -0.727753 0
M  V30 1609 C 155.648 1.71952 0.26619 0
M  V30 1610 O 156.824 2.011 0.109882 0
M  V30 1611 C 153.889 3.46403 -0.143541 0
M  V30 1612 C 152.95 4.12413 -1.19223 0
M  V30 1613 C 152.183 5.29899 -0.635798 0
M  V30 1614 O 152.406 5.67796 0.544393 0
M  V30 1615 O 151.34 5.85717 -1.38634 0
M  V30 1616 H 155.166 2.55945 -1.63481 0
M  V30 1617 H 152.751 1.22248 -0.858817 0
M  V30 1618 H 154.633 4.21018 0.179404 0
M  V30 1619 H 153.308 3.15206 0.736659 0
M  V30 1620 H 152.215 3.39667 -1.56772 0
M  V30 1621 H 153.548 4.47718 -2.04474 0
M  V30 1622 N 155.201 0.870884 1.31352 0
M  V30 1623 C 156.133 0.28455 2.27427 0
M  V30 1624 C 157.146 -0.552927 1.53123 0
M  V30 1625 O 158.335 -0.374771 1.74521 0
M  V30 1626 C 155.435 -0.615164 3.3327 0
M  V30 1627 C 154.608 0.190079 4.36987 0
M  V30 1628 C 153.667 -0.637917 5.22319 0
M  V30 1629 O 152.693 -0.065626 5.69162 0
M  V30 1630 N 153.895 -1.94973 5.46778 0
M  V30 1631 H 156.66 1.11017 2.7838 0
M  V30 1632 H 154.221 0.732458 1.44384 0
M  V30 1633 H 156.213 -1.1748 3.87273 0
M  V30 1634 H 154.783 -1.34146 2.82354 0
M  V30 1635 H 154.003 0.931165 3.83044 0
M  V30 1636 H 155.291 0.742579 5.03352 0
M  V30 1637 H 154.689 -2.4378 5.10478 0
M  V30 1638 H 153.246 -2.45713 6.03712 0
M  V30 1639 N 156.679 -1.44442 0.630414 0
M  V30 1640 C 157.925 -2.02894 0.143332 0
M  V30 1641 C 158.28 -1.48697 -1.22094 0
M  V30 1642 O 157.573 -0.661171 -1.79831 0
M  V30 1643 C 157.767 -3.57332 0.0697835 0
M  V30 1644 C 157.596 -4.26512 1.42539 0
M  V30 1645 C 156.366 -4.63516 2.01198 0
M  V30 1646 C 158.564 -4.57004 2.35907 0
M  V30 1647 N 156.546 -5.17661 3.30001 0
M  V30 1648 C 157.917 -5.12223 3.49324 0
M  V30 1649 C 159.972 -4.38955 2.34995 0
M  V30 1650 C 158.675 -5.51295 4.62024 0
M  V30 1651 C 160.701 -4.79075 3.46758 0
M  V30 1652 C 160.063 -5.34407 4.58899 0
M  V30 1653 H 156.162 -0.776041 0.0963523 0
M  V30 1654 H 158.746 -1.75945 0.833752 0
M  V30 1655 H 156.917 -3.83894 -0.589915 0
M  V30 1656 H 158.649 -4.02451 -0.42606 0
M  V30 1657 H 155.404 -4.47811 1.54151 0
M  V30 1658 H 155.828 -5.4921 3.95851 0
M  V30 1659 H 160.47 -3.95469 1.49545 0
M  V30 1660 H 158.188 -5.93736 5.48182 0
M  V30 1661 H 161.774 -4.66824 3.47227 0
M  V30 1662 H 160.654 -5.64878 5.4395 0
M  V30 1663 N 158.157 -0.370918 -1.53173 0
M  V30 1664 C 159.087 0.464847 -2.28826 0
M  V30 1665 C 160.068 1.07936 -1.31468 0
M  V30 1666 O 161.253 1.0956 -1.60344 0
M  V30 1667 C 158.383 1.60196 -3.08147 0
M  V30 1668 C 157.337 1.11443 -4.13237 0
M  V30 1669 C 156.663 2.3422 -4.80672 0
M  V30 1670 C 157.963 0.195384 -5.21934 0
M  V30 1671 H 159.657 -0.166329 -2.98938 0
M  V30 1672 H 157.203 -0.0814359 -1.4377 0
M  V30 1673 H 159.156 2.19332 -3.59822 0
M  V30 1674 H 157.88 2.26045 -2.35735 0
M  V30 1675 H 156.539 0.545727 -3.62515 0
M  V30 1676 H 156.187 2.98537 -4.04827 0
M  V30 1677 H 155.887 2.02269 -5.51689 0
M  V30 1678 H 157.411 2.94032 -5.35143 0
M  V30 1679 H 158.825 0.694375 -5.69079 0
M  V30 1680 H 157.222 -0.0335027 -6.00091 0
M  V30 1681 H 158.292 -0.760961 -4.78892 0
M  V30 1682 N 159.635 1.57281 -0.100228 0
M  V30 1683 C 160.881 1.94826 0.563101 0
M  V30 1684 C 161.214 0.982475 1.67514 0
M  V30 1685 O 160.489 0.0164069 1.94493 0
M  V30 1686 C 160.772 3.42453 1.11346 0
M  V30 1687 C 160.625 4.498 0.00612081 0
M  V30 1688 C 161.944 3.91506 2.01024 0
M  V30 1689 H 159.063 0.708428 0.203221 0
M  V30 1690 H 161.705 1.8922 -0.171979 0
M  V30 1691 H 159.855 3.47361 1.7399 0
M  V30 1692 H 161.527 4.57 -0.628357 0
M  V30 1693 H 159.77 4.28756 -0.659581 0
M  V30 1694 H 160.441 5.50306 0.432109 0
M  V30 1695 H 162.917 3.88784 1.48278 0
M  V30 1696 H 161.793 4.95358 2.36457 0
M  V30 1697 H 162.054 3.31099 2.92961 0
M  V30 1698 N 161.113 -0.173488 1.56642 0
M  V30 1699 C 162.36 -0.890465 1.81871 0
M  V30 1700 C 162.688 -1.82339 0.67696 0
M  V30 1701 O 161.943 -1.92795 -0.335926 0
M  V30 1702 C 162.242 -1.72069 3.13252 0
M  V30 1703 C 161.908 -0.936878 4.41059 0
M  V30 1704 C 160.57 -0.720545 4.75775 0
M  V30 1705 C 162.922 -0.386919 5.19762 0
M  V30 1706 C 160.25 0.0568829 5.86672 0
M  V30 1707 C 162.602 0.37741 6.31473 0
M  V30 1708 C 161.266 0.604563 6.64757 0
M  V30 1709 H 160.536 -0.325844 0.665512 0
M  V30 1710 H 163.183 -0.155527 1.90867 0
M  V30 1711 H 161.488 -2.52496 2.99588 0
M  V30 1712 H 163.185 -2.27844 3.29982 0
M  V30 1713 H 159.775 -1.11553 4.13828 0
M  V30 1714 H 163.959 -0.541398 4.93338 0
M  V30 1715 H 159.215 0.242635 6.10918 0
M  V30 1716 H 163.389 0.810825 6.91664 0
M  V30 1717 H 161.016 1.20885 7.50527 0
M  V30 1718 N 162.591 -1.51276 -0.441967 0
M  V30 1719 C 163.839 -1.63392 -1.18943 0
M  V30 1720 C 164.16 -0.350159 -1.9183 0
M  V30 1721 O 163.43 0.633784 -1.85364 0
M  V30 1722 H 162.01 -0.602164 -0.442049 0
M  V30 1723 H 164.672 -1.88186 -0.507165 0
M  V30 1724 H 163.768 -2.45934 -1.92154 0
M  V30 1725 N 164.069 0.697108 -1.41344 0
M  V30 1726 C 165.317 1.45426 -1.40341 0
M  V30 1727 C 165.638 1.94996 -0.0128787 0
M  V30 1728 O 164.908 1.71599 0.945027 0
M  V30 1729 H 163.488 0.539594 -0.516573 0
M  V30 1730 H 166.15 0.825201 -1.76569 0
M  V30 1731 H 165.246 2.31817 -2.08967 0
M  V30 1732 N 165.547 1.27147 0.931209 0
M  V30 1733 C 166.772 1.16191 1.71797 0
M  V30 1734 C 167.197 -0.278004 1.86034 0
M  V30 1735 O 166.555 -1.20137 1.35782 0
M  V30 1736 C 166.603 1.84673 3.09723 0
M  V30 1737 O 165.707 1.14231 3.96264 0
M  V30 1738 H 165.048 0.404303 0.526721 0
M  V30 1739 H 167.578 1.68152 1.1656 0
M  V30 1740 H 167.588 1.91893 3.60057 0
M  V30 1741 H 166.263 2.89421 2.98677 0
M  V30 1742 H 164.84 1.15056 3.54706 0
M  V30 1743 N 167.025 -1.13721 1.09112 0
M  V30 1744 C 168.271 -1.85413 0.836283 0
M  V30 1745 C 168.626 -1.8175 -0.631249 0
M  V30 1746 O 167.919 -1.24238 -1.45861 0
M  V30 1747 C 168.113 -3.32861 1.30146 0
M  V30 1748 C 167.942 -3.50882 2.81268 0
M  V30 1749 C 166.712 -3.65312 3.49106 0
M  V30 1750 C 168.91 -3.47196 3.7942 0
M  V30 1751 N 166.892 -3.71563 4.88686 0
M  V30 1752 C 168.263 -3.59777 5.04936 0
M  V30 1753 C 170.318 -3.30577 3.72321 0
M  V30 1754 C 169.021 -3.57455 6.24194 0
M  V30 1755 C 171.047 -3.29562 4.91063 0
M  V30 1756 C 170.409 -3.42691 6.15421 0
M  V30 1757 H 166.508 -0.694812 0.358832 0
M  V30 1758 H 169.092 -1.36246 1.39087 0
M  V30 1759 H 167.263 -3.80602 0.774361 0
M  V30 1760 H 168.995 -3.92346 0.99229 0
M  V30 1761 H 165.75 -3.6685 2.9953 0
M  V30 1762 H 166.174 -3.78387 5.61384 0
M  V30 1763 H 170.816 -3.19332 2.77105 0
M  V30 1764 H 168.534 -3.67475 7.19714 0
M  V30 1765 H 172.12 -3.17905 4.87266 0
M  V30 1766 H 171 -3.41862 7.05762 0
M  V30 1767 N 168.503 -0.877838 -1.30888 0
M  V30 1768 C 169.751 -0.491723 -1.96027 0
M  V30 1769 C 170.072 0.960827 -1.69685 0
M  V30 1770 O 169.342 1.67462 -1.01654 0
M  V30 1771 H 167.922 -0.17885 -0.725273 0
M  V30 1772 H 170.584 -1.11935 -1.59551 0
M  V30 1773 H 169.68 -0.656016 -3.05128 0
M  V30 1774 N 169.982 1.44106 -0.638065 0
M  V30 1775 C 171.207 2.0685 -0.150916 0
M  V30 1776 C 171.632 1.47417 1.16833 0
M  V30 1777 O 170.99 0.578264 1.71831 0
M  V30 1778 C 171.038 3.60555 -0.05708 0
M  V30 1779 O 170.142 4.00465 0.984972 0
M  V30 1780 H 169.483 0.658151 -0.0879399 0
M  V30 1781 H 172.013 1.84865 -0.876707 0
M  V30 1782 H 172.023 4.07789 0.131232 0
M  V30 1783 H 170.698 4.03193 -1.02021 0
M  V30 1784 H 169.275 3.64849 0.770672 0
M  V30 1785 N 171.46 0.379036 1.52974 0
M  V30 1786 C 172.688 -0.20679 2.05864 0
M  V30 1787 C 173.103 -1.41356 1.25155 0
M  V30 1788 O 172.46 -1.8009 0.295588 0
M  V30 1789 C 172.511 -0.587045 3.56702 0
M  V30 1790 O 172.232 0.571776 4.34353 0
M  V30 1791 C 173.733 -1.22983 4.25899 0
M  V30 1792 H 170.953 -0.0336123 0.670158 0
M  V30 1793 H 173.497 0.541298 1.97206 0
M  V30 1794 H 171.652 -1.28504 3.65466 0
M  V30 1795 H 172.066 0.261544 5.23847 0
M  V30 1796 H 173.54 -1.44635 5.32715 0
M  V30 1797 H 174.017 -2.19416 3.80465 0
M  V30 1798 H 174.623 -0.572892 4.21424 0
M  V30 1799 N 172.938 -1.57226 0.108567 0
M  V30 1800 C 173.868 -2.17778 -0.84232 0
M  V30 1801 C 174.849 -1.11487 -1.2847 0
M  V30 1802 O 176.034 -1.39681 -1.34918 0
M  V30 1803 C 173.164 -2.76888 -2.09644 0
M  V30 1804 C 172.118 -3.88669 -1.79221 0
M  V30 1805 C 171.444 -4.34541 -3.11574 0
M  V30 1806 C 172.744 -5.11251 -1.06864 0
M  V30 1807 H 174.438 -2.97489 -0.337774 0
M  V30 1808 H 171.984 -1.43097 -0.161025 0
M  V30 1809 H 173.937 -3.17904 -2.76614 0
M  V30 1810 H 172.661 -1.94451 -2.62405 0
M  V30 1811 H 171.32 -3.48213 -1.14644 0
M  V30 1812 H 170.968 -3.48977 -3.62249 0
M  V30 1813 H 170.668 -5.09914 -2.91996 0
M  V30 1814 H 172.192 -4.782 -3.7968 0
M  V30 1815 H 173.606 -5.49352 -1.63968 0
M  V30 1816 H 172.003 -5.9214 -0.974178 0
M  V30 1817 H 173.073 -4.8487 -0.0536168 0
M  V30 1818 N 174.416 0.165178 -1.56732 0
M  V30 1819 C 175.379 1.18822 -1.95995 0
M  V30 1820 C 176.379 1.3685 -0.84431 0
M  V30 1821 O 177.569 1.34152 -1.11126 0
M  V30 1822 C 174.701 2.5521 -2.26011 0
M  V30 1823 H 175.894 0.851825 -2.87548 0
M  V30 1824 H 173.447 0.407857 -1.50885 0
M  V30 1825 H 174.182 2.93852 -1.37191 0
M  V30 1826 H 173.967 2.43489 -3.07336 0
M  V30 1827 H 175.457 3.28927 -2.57288 0
M  V30 1828 N 175.894 1.51508 0.433938 0
M  V30 1829 C 176.824 1.76016 1.53429 0
M  V30 1830 C 177.805 0.610112 1.58782 0
M  V30 1831 O 178.99 0.853177 1.74455 0
M  V30 1832 C 176.12 1.88831 2.9148 0
M  V30 1833 C 175.074 3.04288 3.00987 0
M  V30 1834 C 174.4 3.0229 4.4105 0
M  V30 1835 C 175.7 4.44193 2.74754 0
M  V30 1836 H 177.394 2.68152 1.33171 0
M  V30 1837 H 174.94 1.29035 0.639214 0
M  V30 1838 H 176.893 2.04559 3.6842 0
M  V30 1839 H 175.617 0.933455 3.12976 0
M  V30 1840 H 174.276 2.8827 2.26486 0
M  V30 1841 H 173.924 2.04576 4.59519 0
M  V30 1842 H 173.624 3.79822 4.4834 0
M  V30 1843 H 175.148 3.20116 5.1996 0
M  V30 1844 H 176.562 4.60544 3.41426 0
M  V30 1845 H 174.959 5.23457 2.9345 0
M  V30 1846 H 176.029 4.53996 1.70339 0
M  V30 1847 N 177.372 -0.689602 1.41712 0
M  V30 1848 C 178.335 -1.78521 1.43746 0
M  V30 1849 C 179.335 -1.57436 0.327191 0
M  V30 1850 O 180.525 -1.64 0.587348 0
M  V30 1851 C 177.657 -3.16971 1.25467 0
M  V30 1852 H 178.85 -1.78108 2.41283 0
M  V30 1853 H 176.403 -0.89781 1.27942 0
M  V30 1854 H 177.138 -3.23019 0.287948 0
M  V30 1855 H 176.923 -3.33678 2.05917 0
M  V30 1856 H 178.413 -3.96935 1.2974 0
M  V30 1857 N 178.85 -1.27639 -0.924453 0
M  V30 1858 C 180.08 -1.16819 -1.70402 0
M  V30 1859 C 180.488 0.277191 -1.87158 0
M  V30 1860 O 179.831 1.20025 -1.39067 0
M  V30 1861 C 179.893 -1.78305 -3.12166 0
M  V30 1862 C 179.557 -3.27502 -3.18734 0
M  V30 1863 C 180.554 -4.2409 -3.00738 0
M  V30 1864 C 178.239 -3.68269 -3.4159 0
M  V30 1865 C 180.233 -5.59422 -3.05492 0
M  V30 1866 C 177.92 -5.0373 -3.45977 0
M  V30 1867 C 178.918 -5.99116 -3.27946 0
M  V30 1868 O 178.606 -7.32108 -3.32074 0
M  V30 1869 H 178.338 -0.406931 -0.539799 0
M  V30 1870 H 180.892 -1.69078 -1.16626 0
M  V30 1871 H 179.122 -1.20528 -3.67437 0
M  V30 1872 H 180.811 -1.62154 -3.72103 0
M  V30 1873 H 181.577 -3.93931 -2.82919 0
M  V30 1874 H 177.456 -2.94496 -3.54673 0
M  V30 1875 H 181 -6.33852 -2.91337 0
M  V30 1876 H 176.897 -5.33543 -3.63321 0
M  V30 1877 H 177.665 -7.40598 -3.48507 0
M  V30 1878 N 180.328 1.1314 -1.09713 0
M  V30 1879 C 181.291 2.16831 -0.742751 0
M  V30 1880 C 182.291 1.59159 0.229129 0
M  V30 1881 O 183.481 1.74199 0.00693237 0
M  V30 1882 C 180.613 3.40756 -0.0989168 0
M  V30 1883 H 181.806 2.49695 -1.66109 0
M  V30 1884 H 179.359 1.2802 -0.896699 0
M  V30 1885 H 180.094 3.13485 0.830514 0
M  V30 1886 H 179.879 3.83888 -0.798265 0
M  V30 1887 H 181.369 4.17386 0.133524 0
M  V30 1888 N 181.806 0.884767 1.30421 0
M  V30 1889 C 182.738 0.308655 2.27112 0
M  V30 1890 C 183.751 -0.536655 1.53701 0
M  V30 1891 O 184.94 -0.35624 1.74909 0
M  V30 1892 C 182.04 -0.579782 3.33904 0
M  V30 1893 C 181.213 0.236417 4.36761 0
M  V30 1894 C 180.272 -0.582482 5.22966 0
M  V30 1895 O 179.298 -0.00525502 5.692 0
M  V30 1896 N 180.5 -1.89163 5.48815 0
M  V30 1897 H 183.265 1.13964 2.77186 0
M  V30 1898 H 180.826 0.747731 1.43599 0
M  V30 1899 H 182.818 -1.13366 3.88497 0
M  V30 1900 H 181.388 -1.31144 2.83761 0
M  V30 1901 H 180.608 0.97174 3.82035 0
M  V30 1902 H 181.896 0.795924 5.02536 0
M  V30 1903 H 181.294 -2.38352 5.13035 0
M  V30 1904 H 179.851 -2.39296 6.06284 0
M  V30 1905 N 183.284 -1.43765 0.645699 0
M  V30 1906 C 184.512 -2.06253 0.163556 0
M  V30 1907 C 184.927 -1.48352 -1.16778 0
M  V30 1908 O 184.284 -0.611932 -1.71935 0
M  V30 1909 C 184.335 -3.61453 0.0583186 0
M  V30 1910 O 184.056 -4.172 1.33702 0
M  V30 1911 C 185.557 -4.41002 -0.450795 0
M  V30 1912 H 182.777 -0.665413 0.0864077 0
M  V30 1913 H 185.321 -1.84396 0.884222 0
M  V30 1914 H 183.476 -3.82522 -0.612865 0
M  V30 1915 H 183.89 -5.10791 1.19131 0
M  V30 1916 H 185.364 -5.49966 -0.473403 0
M  V30 1917 H 185.841 -4.13488 -1.48068 0
M  V30 1918 H 186.447 -4.24886 0.187637 0
M  V30 1919 N 184.763 -0.387143 -1.52771 0
M  V30 1920 C 185.713 0.465942 -2.23188 0
M  V30 1921 C 186.697 1.03138 -1.23496 0
M  V30 1922 O 187.889 0.957845 -1.48843 0
M  V30 1923 C 185.018 1.59384 -3.04059 0
M  V30 1924 C 184.104 1.04024 -4.11144 0
M  V30 1925 N 184.495 0.211416 -5.05358 0
M  V30 1926 C 182.793 1.31295 -4.26237 0
M  V30 1927 C 183.494 -0.0941698 -5.81624 0
M  V30 1928 N 182.47 0.509207 -5.4121 0
M  V30 1929 H 186.272 -0.173856 -2.93385 0
M  V30 1930 H 183.786 -0.19633 -1.61209 0
M  V30 1931 H 185.783 2.21738 -3.53041 0
M  V30 1932 H 184.443 2.23648 -2.35397 0
M  V30 1933 H 185.454 -0.151151 -5.17679 0
M  V30 1934 H 182.131 1.95679 -3.68803 0
M  V30 1935 H 183.521 -0.765572 -6.67524 0
M  V30 1936 N 186.241 1.57166 -0.116904 0
M  V30 1937 C 187.652 1.82169 0.408809 0
M  V30 1938 C 188.003 1.03393 1.66746 0
M  V30 1939 O 187.128 0.269886 2.1471 0
M  V30 1940 C 187.723 3.30429 0.748466 0
M  V30 1941 C 186.282 3.5612 1.21882 0
M  V30 1942 C 185.429 2.76374 0.226452 0
M  V30 1943 H 188.38 1.5497 -0.342063 0
M  V30 1944 H 188.401 3.44943 1.60607 0
M  V30 1945 H 187.913 3.87737 -0.167784 0
M  V30 1946 H 186.014 3.04168 2.15204 0
M  V30 1947 H 186.127 4.64705 1.16559 0
M  V30 1948 H 184.491 2.44515 0.713063 0
M  V30 1949 H 185.274 3.3644 -0.682859 0
M  V30 1950 N 187.719 -0.156864 1.56817 0
M  V30 1951 C 188.629 -1.2136 2.00771 0
M  V30 1952 C 189.645 -1.47598 0.921459 0
M  V30 1953 O 190.821 -1.59462 1.2302 0
M  V30 1954 C 187.886 -2.52943 2.37109 0
M  V30 1955 C 186.947 -2.34439 3.59634 0
M  V30 1956 C 186.18 -3.59748 3.94229 0
M  V30 1957 O 186.403 -4.65526 3.29609 0
M  V30 1958 O 185.337 -3.52998 4.8752 0
M  V30 1959 H 189.163 -0.870468 2.90958 0
M  V30 1960 H 186.748 -0.36484 1.44877 0
M  V30 1961 H 188.63 -3.30538 2.61386 0
M  V30 1962 H 187.305 -2.86806 1.5008 0
M  V30 1963 H 186.212 -1.54828 3.40557 0
M  V30 1964 H 187.545 -2.05496 4.4725 0
M  V30 1965 N 189.197 -1.51736 -0.425897 0
M  V30 1966 C 190.613 -1.40166 -0.76326 0
M  V30 1967 C 190.813 -0.492962 -1.95377 0
M  V30 1968 O 189.869 0.0475815 -2.52455 0
M  V30 1969 C 191.182 -2.82403 -1.03291 0
M  V30 1970 C 192.73 -2.91632 -1.13665 0
M  V30 1971 C 193.205 -4.34801 -1.43916 0
M  V30 1972 N 194.696 -4.3796 -1.50816 0
M  V30 1973 C 195.431 -5.4578 -1.75817 0
M  V30 1974 N 194.927 -6.63744 -1.98534 0
M  V30 1975 N 196.72 -5.33274 -1.77694 0
M  V30 1976 H 188.871 -2.09361 0.358 0
M  V30 1977 H 191.134 -0.942941 0.0978094 0
M  V30 1978 H 190.84 -3.50943 -0.230696 0
M  V30 1979 H 190.714 -3.22428 -1.95754 0
M  V30 1980 H 193.101 -2.23284 -1.92947 0
M  V30 1981 H 193.182 -2.55088 -0.190756 0
M  V30 1982 H 192.826 -5.03703 -0.65157 0
M  V30 1983 H 192.756 -4.68868 -2.39729 0
M  V30 1984 H 195.247 -3.52919 -1.35118 0
M  V30 1985 H 195.56 -7.41704 -2.17013 0
M  V30 1986 H 193.905 -6.66839 -1.95832 0
M  V30 1987 H 197.096 -4.40098 -1.59473 0
M  V30 1988 H 197.269 -6.1738 -1.9684 0
M  V30 1989 N 190.675 0.682077 -1.42076 0
M  V30 1990 C 191.921 1.44428 -1.42367 0
M  V30 1991 C 192.254 1.94164 -0.0373056 0
M  V30 1992 O 191.529 1.70429 0.937239 0
M  V30 1993 C 191.812 2.64654 -2.44194 0
M  V30 1994 C 191.665 2.20596 -3.91991 0
M  V30 1995 C 192.984 3.66865 -2.431 0
M  V30 1996 H 190.103 0.523834 -0.518428 0
M  V30 1997 H 192.745 0.77576 -1.73442 0
M  V30 1998 H 190.895 3.2169 -2.17826 0
M  V30 1999 H 192.567 1.68783 -4.29313 0
M  V30 2000 H 190.81 1.52242 -4.06208 0
M  V30 2001 H 191.481 3.06921 -4.58807 0
M  V30 2002 H 193.957 3.19531 -2.66532 0
M  V30 2003 H 192.833 4.48577 -3.16339 0
M  V30 2004 H 193.094 4.17493 -1.45437 0
M  V30 2005 N 192.153 1.28127 0.917671 0
M  V30 2006 C 193.378 1.18007 1.70555 0
M  V30 2007 C 193.803 -0.258257 1.86319 0
M  V30 2008 O 193.161 -1.1869 1.37049 0
M  V30 2009 C 193.209 1.87948 3.07746 0
M  V30 2010 O 192.313 1.18427 3.9503 0
M  V30 2011 H 191.654 0.409867 0.522403 0
M  V30 2012 H 194.184 1.69379 1.1477 0
M  V30 2013 H 194.194 1.95701 3.58001 0
M  V30 2014 H 192.869 2.92573 2.95591 0
M  V30 2015 H 191.446 1.18811 3.53466 0
M  V30 2016 N 193.631 -1.12557 1.10312 0
M  V30 2017 C 194.541 -2.21841 0.763142 0
M  V30 2018 C 195.557 -1.72354 -0.238801 0
M  V30 2019 O 196.733 -2.01249 -0.0778746 0
M  V30 2020 C 193.798 -3.46131 0.198632 0
M  V30 2021 C 192.859 -4.10464 1.25769 0
M  V30 2022 C 192.092 -5.28821 0.72002 0
M  V30 2023 O 192.315 -5.6859 -0.453993 0
M  V30 2024 O 191.249 -5.83437 1.47935 0
M  V30 2025 H 195.075 -2.53312 1.67532 0
M  V30 2026 H 192.66 -1.20867 0.878157 0
M  V30 2027 H 194.542 -4.2125 -0.112401 0
M  V30 2028 H 193.217 -3.16338 -0.686419 0
M  V30 2029 H 192.124 -3.3713 1.62156 0
M  V30 2030 H 193.457 -4.44408 2.11571 0
M  V30 2031 N 195.109 -0.891671 -1.2995 0
M  V30 2032 C 196.042 -0.307994 -2.26112 0
M  V30 2033 C 197.02 0.575262 -1.52084 0
M  V30 2034 O 198.204 0.523864 -1.81074 0
M  V30 2035 C 195.331 0.561734 -3.34009 0
M  V30 2036 C 194.377 -0.253107 -4.25748 0
M  V30 2037 S 195.21 -1.64572 -5.09584 0
M  V30 2038 C 196.366 -0.782699 -6.20987 0
M  V30 2039 H 196.599 -1.12309 -2.75271 0
M  V30 2040 H 194.132 -0.691509 -1.38049 0
M  V30 2041 H 196.09 1.05777 -3.96638 0
M  V30 2042 H 194.751 1.35099 -2.83561 0
M  V30 2043 H 193.944 0.410908 -5.02322 0
M  V30 2044 H 193.546 -0.682004 -3.67729 0
M  V30 2045 H 195.838 -0.00257476 -6.775 0
M  V30 2046 H 196.781 -1.52026 -6.91588 0
M  V30 2047 H 197.189 -0.340638 -5.63471 0
M  V30 2048 N 196.587 1.43421 -0.653314 0
M  V30 2049 C 197.833 2.02111 -0.166992 0
M  V30 2050 C 198.166 1.51423 1.21592 0
M  V30 2051 O 197.441 0.707389 1.8118 0
M  V30 2052 C 197.724 3.5966 -0.177948 0
M  V30 2053 C 197.577 4.20579 -1.59478 0
M  V30 2054 C 198.896 4.37413 0.4856 0
M  V30 2055 H 196.015 0.734374 -0.0621557 0
M  V30 2056 H 198.657 1.70717 -0.834016 0
M  V30 2057 H 196.807 3.86537 0.390032 0
M  V30 2058 H 198.479 4.04732 -2.21336 0
M  V30 2059 H 196.722 3.77226 -2.14204 0
M  V30 2060 H 197.393 5.29665 -1.5543 0
M  V30 2061 H 199.869 4.161 0.00234528 0
M  V30 2062 H 198.745 5.47075 0.447207 0
M  V30 2063 H 199.006 4.13672 1.55974 0
M  V30 2064 N 198.065 0.39524 1.52563 0
M  V30 2065 C 198.995 -0.428384 2.29537 0
M  V30 2066 C 199.976 -1.05831 1.33169 0
M  V30 2067 O 201.161 -1.06995 1.62067 0
M  V30 2068 C 198.291 -1.55274 3.10656 0
M  V30 2069 C 197.245 -1.04855 4.14957 0
M  V30 2070 C 196.571 -2.26543 4.84337 0
M  V30 2071 C 197.871 -0.112324 5.22179 0
M  V30 2072 H 199.565 0.213867 2.98635 0
M  V30 2073 H 197.111 0.104298 1.43622 0
M  V30 2074 H 199.064 -2.1358 3.63265 0
M  V30 2075 H 197.788 -2.22266 2.39302 0
M  V30 2076 H 196.447 -0.487985 3.63338 0
M  V30 2077 H 196.095 -2.92059 4.09525 0
M  V30 2078 H 195.795 -1.93466 5.54837 0
M  V30 2079 H 197.319 -2.85481 5.39753 0
M  V30 2080 H 198.733 -0.603752 5.70112 0
M  V30 2081 H 197.13 0.128968 5.99961 0
M  V30 2082 H 198.2 0.837052 4.77621 0
M  V30 2083 N 199.544 -1.57102 0.125237 0
M  V30 2084 C 200.96 -1.57915 -0.231322 0
M  V30 2085 C 201.16 -1.13833 -1.66266 0
M  V30 2086 O 200.216 -0.828581 -2.38518 0
M  V30 2087 C 201.529 -3.00699 0.00766489 0
M  V30 2088 C 203.077 -3.12947 -0.0577483 0
M  V30 2089 C 203.552 -4.57742 0.153626 0
M  V30 2090 N 205.043 -4.63092 0.0998073 0
M  V30 2091 C 205.778 -5.72905 0.238174 0
M  V30 2092 N 205.274 -6.91445 0.433057 0
M  V30 2093 N 207.067 -5.6182 0.177308 0
M  V30 2094 H 199.218 -1.84055 1.06007 0
M  V30 2095 H 201.481 -0.850905 0.417929 0
M  V30 2096 H 201.187 -3.3726 0.997431 0
M  V30 2097 H 201.061 -3.70236 -0.721452 0
M  V30 2098 H 203.448 -2.7624 -1.03804 0
M  V30 2099 H 203.529 -2.4594 0.70335 0
M  V30 2100 H 203.173 -4.95149 1.13092 0
M  V30 2101 H 203.103 -5.22848 -0.627534 0
M  V30 2102 H 205.594 -3.77871 -0.047051 0
M  V30 2103 H 205.907 -7.70985 0.529332 0
M  V30 2104 H 204.252 -6.93415 0.469109 0
M  V30 2105 H 207.443 -4.68093 0.0259748 0
M  V30 2106 H 207.616 -6.47357 0.288582 0
M  V30 2107 N 201.022 0.148545 -1.56898 0
M  V30 2108 C 202.27 0.859717 -1.82902 0
M  V30 2109 C 202.591 1.81775 -0.70588 0
M  V30 2110 O 201.861 1.93994 0.272586 0
M  V30 2111 H 200.441 0.320469 -0.674766 0
M  V30 2112 H 203.103 0.142918 -1.94375 0
M  V30 2113 H 202.199 1.4229 -2.77777 0
M  V30 2114 N 202.5 1.5196 0.417844 0
M  V30 2115 C 203.749 1.6482 1.16264 0
M  V30 2116 C 204.062 0.379886 1.91876 0
M  V30 2117 O 205.268 0.388154 2.68711 0
M  V30 2118 C 203.724 2.91161 2.1155 0
M  V30 2119 C 203.332 4.25068 1.41495 0
M  V30 2120 C 205.076 3.13383 2.86341 0
M  V30 2121 C 202.983 5.42541 2.35379 0
M  V30 2122 H 201.913 0.613954 0.437694 0
M  V30 2123 H 204.564 1.78442 0.427871 0
M  V30 2124 H 202.946 2.71218 2.88543 0
M  V30 2125 H 204.12 4.55463 0.699263 0
M  V30 2126 H 202.435 4.0888 0.787792 0
M  V30 2127 H 205.032 3.98324 3.5671 0
M  V30 2128 H 205.375 2.27256 3.48798 0
M  V30 2129 H 205.908 3.33757 2.1645 0
M  V30 2130 H 202.647 6.30987 1.77582 0
M  V30 2131 H 202.167 5.16497 3.04945 0
M  V30 2132 H 203.846 5.75272 2.96093 0
M  V30 2133 N 203.978 -0.674533 1.42435 0
M  V30 2134 C 205.225 -1.43459 1.42919 0
M  V30 2135 C 205.553 -1.94446 0.0457312 0
M  V30 2136 O 204.808 -1.7132 -0.94593 0
M  V30 2137 C 205.107 -2.64767 2.40069 0
M  V30 2138 C 204.773 -2.3232 3.86443 0
M  V30 2139 C 203.435 -2.23182 4.26314 0
M  V30 2140 C 205.787 -2.05977 4.78773 0
M  V30 2141 C 203.115 -1.85827 5.56494 0
M  V30 2142 C 205.467 -1.70125 6.09295 0
M  V30 2143 C 204.131 -1.59498 6.48164 0
M  V30 2144 H 203.401 -0.524952 0.522978 0
M  V30 2145 H 206.048 -0.769097 1.75377 0
M  V30 2146 H 204.353 -3.36349 2.00939 0
M  V30 2147 H 206.05 -3.22949 2.37707 0
M  V30 2148 H 202.64 -2.40334 3.54877 0
M  V30 2149 H 206.824 -2.11969 4.48757 0
M  V30 2150 H 202.08 -1.76168 5.8547 0
M  V30 2151 H 206.254 -1.48767 6.80324 0
M  V30 2152 H 203.881 -1.30322 7.48946 0
M  V30 2153 N 205.456 -1.28612 -0.910864 0
M  V30 2154 C 206.684 -1.18792 -1.69399 0
M  V30 2155 C 207.099 0.253039 -1.87097 0
M  V30 2156 O 206.456 1.17071 -1.40003 0
M  V30 2157 C 206.507 -1.88511 -3.08457 0
M  V30 2158 O 206.228 -3.26979 -2.91576 0
M  V30 2159 C 207.729 -1.85029 -4.02839 0
M  V30 2160 H 204.949 -0.412233 -0.529438 0
M  V30 2161 H 207.493 -1.69788 -1.13984 0
M  V30 2162 H 205.648 -1.41379 -3.60681 0
M  V30 2163 H 206.062 -3.61936 -3.79608 0
M  V30 2164 H 207.536 -2.38395 -4.97867 0
M  V30 2165 H 208.013 -0.823303 -4.31414 0
M  V30 2166 H 208.619 -2.31853 -3.56545 0
M  V30 2167 N 206.934 1.1197 -1.10907 0
M  V30 2168 C 207.864 2.19928 -0.784473 0
M  V30 2169 C 208.845 1.6833 0.244726 0
M  V30 2170 O 210.03 1.93892 0.109418 0
M  V30 2171 C 207.16 3.46597 -0.220827 0
M  V30 2172 C 206.114 4.11376 -1.18127 0
M  V30 2173 C 205.44 5.32554 -0.478594 0
M  V30 2174 C 206.74 4.56945 -2.52979 0
M  V30 2175 H 208.434 2.47337 -1.68715 0
M  V30 2176 H 205.98 1.18879 -0.812642 0
M  V30 2177 H 207.933 4.21396 0.0184278 0
M  V30 2178 H 206.657 3.1863 0.717113 0
M  V30 2179 H 205.316 3.38564 -1.40606 0
M  V30 2180 H 204.964 5.00856 0.463976 0
M  V30 2181 H 204.664 5.76844 -1.11912 0
M  V30 2182 H 206.188 6.10096 -0.248 0
M  V30 2183 H 207.602 5.23093 -2.3462 0
M  V30 2184 H 205.999 5.1203 -3.12962 0
M  V30 2185 H 207.069 3.70676 -3.12614 0
M  V30 2186 N 208.412 0.89855 1.29475 0
M  V30 2187 C 209.828 0.594483 1.48115 0
M  V30 2188 C 210.028 -0.86431 1.82022 0
M  V30 2189 O 209.084 -1.64457 1.91599 0
M  V30 2190 C 210.397 1.51932 2.59494 0
M  V30 2191 C 211.945 1.5244 2.7337 0
M  V30 2192 C 212.42 2.43548 3.87877 0
M  V30 2193 N 213.911 2.41589 3.95208 0
M  V30 2194 C 214.646 3.08789 4.83153 0
M  V30 2195 N 214.142 3.85265 5.75798 0
M  V30 2196 N 215.935 2.97952 4.76635 0
M  V30 2197 H 208.086 1.84207 1.05742 0
M  V30 2198 H 210.349 0.789251 0.525154 0
M  V30 2199 H 210.055 2.55865 2.41301 0
M  V30 2200 H 209.929 1.23899 3.56271 0
M  V30 2201 H 212.316 0.492518 2.90961 0
M  V30 2202 H 212.397 1.8451 1.77172 0
M  V30 2203 H 212.041 3.46829 3.71041 0
M  V30 2204 H 211.971 2.08788 4.83441 0
M  V30 2205 H 214.462 1.86025 3.28943 0
M  V30 2206 H 214.775 4.33598 6.39697 0
M  V30 2207 H 213.12 3.89371 5.75687 0
M  V30 2208 H 216.311 2.37723 4.03244 0
M  V30 2209 H 216.484 3.50599 5.44962 0
M  V30 2210 N 209.89 -1.43072 0.660911 0
M  V30 2211 C 210.837 -2.30785 -0.0259884 0
M  V30 2212 C 211.807 -1.45184 -0.806888 0
M  V30 2213 O 212.992 -1.74041 -0.781943 0
M  V30 2214 C 210.132 -3.30861 -0.981067 0
M  V30 2215 C 209.245 -4.31558 -0.195458 0
M  V30 2216 C 208.38 -5.18712 -1.14503 0
M  V30 2217 C 207.419 -6.11097 -0.350299 0
M  V30 2218 N 206.556 -6.90849 -1.25186 0
M  V30 2219 H 211.396 -2.88975 0.727846 0
M  V30 2220 H 208.933 -1.42353 0.370682 0
M  V30 2221 H 210.891 -3.87399 -1.54849 0
M  V30 2222 H 209.521 -2.74304 -1.70169 0
M  V30 2223 H 208.573 -3.77252 0.488374 0
M  V30 2224 H 209.885 -4.9701 0.422176 0
M  V30 2225 H 209.039 -5.79914 -1.78284 0
M  V30 2226 H 207.778 -4.53404 -1.79656 0
M  V30 2227 H 206.783 -5.48976 0.300808 0
M  V30 2228 H 208.008 -6.7845 0.296941 0
M  V30 2229 H 205.954 -6.28182 -1.89005 0
M  V30 2230 H 205.871 -7.52854 -0.688971 0
M  V30 2231 H 207.139 -7.5655 -1.87757 0
M  V30 2232 N 211.368 -0.403325 -1.52352 0
M  V30 2233 C 212.3 0.4603 -2.2453 0
M  V30 2234 C 213.313 1.01505 -1.27282 0
M  V30 2235 O 214.502 0.914982 -1.53266 0
M  V30 2236 C 211.602 1.65208 -2.95905 0
M  V30 2237 C 210.775 1.22224 -4.19976 0
M  V30 2238 C 209.834 2.28028 -4.74226 0
M  V30 2239 O 208.86 1.88857 -5.36956 0
M  V30 2240 N 210.062 3.6012 -4.55295 0
M  V30 2241 H 212.827 -0.158156 -2.99282 0
M  V30 2242 H 210.388 -0.230402 -1.60252 0
M  V30 2243 H 212.38 2.35541 -3.29093 0
M  V30 2244 H 210.95 2.17658 -2.24374 0
M  V30 2245 H 210.17 0.34725 -3.92668 0
M  V30 2246 H 211.458 0.911924 -5.00561 0
M  V30 2247 H 210.856 3.94698 -4.05253 0
M  V30 2248 H 209.413 4.26447 -4.92936 0
M  V30 2249 N 212.846 1.57033 -0.133567 0
M  V30 2250 C 214.262 1.58035 0.222944 0
M  V30 2251 C 214.462 1.14713 1.6566 0
M  V30 2252 O 213.518 0.841218 2.38075 0
M  V30 2253 C 214.831 3.00691 -0.0236116 0
M  V30 2254 C 216.379 3.12973 0.0411512 0
M  V30 2255 C 216.854 4.57654 -0.177899 0
M  V30 2256 N 218.345 4.63033 -0.124365 0
M  V30 2257 C 219.08 5.72771 -0.268553 0
M  V30 2258 N 218.576 6.91206 -0.46972 0
M  V30 2259 N 220.369 5.61718 -0.2071 0
M  V30 2260 H 212.52 1.8349 -1.06981 0
M  V30 2261 H 214.783 0.848677 -0.422436 0
M  V30 2262 H 214.489 3.36726 -1.0153 0
M  V30 2263 H 214.363 3.70614 0.701808 0
M  V30 2264 H 216.75 2.76787 1.02338 0
M  V30 2265 H 216.831 2.45564 -0.716383 0
M  V30 2266 H 216.475 4.94542 -1.15717 0
M  V30 2267 H 216.405 5.23173 0.599797 0
M  V30 2268 H 218.896 3.7789 0.027011 0
M  V30 2269 H 219.209 7.70693 -0.570212 0
M  V30 2270 H 217.554 6.93156 -0.505876 0
M  V30 2271 H 220.745 4.68072 -0.0507986 0
M  V30 2272 H 220.918 6.47195 -0.322909 0
M  V30 2273 N 214.325 -0.140222 1.56975 0
M  V30 2274 C 215.255 -1.17456 2.01808 0
M  V30 2275 C 216.236 -1.44415 0.898794 0
M  V30 2276 O 217.421 -1.5522 1.16707 0
M  V30 2277 C 214.551 -2.50607 2.40444 0
M  V30 2278 C 213.505 -2.38155 3.55621 0
M  V30 2279 C 212.831 -3.76078 3.80091 0
M  V30 2280 C 214.131 -1.85991 4.88062 0
M  V30 2281 H 215.825 -0.801743 2.88466 0
M  V30 2282 H 213.371 -0.38422 1.38779 0
M  V30 2283 H 215.324 -3.23197 2.7041 0
M  V30 2284 H 214.048 -2.89737 1.50732 0
M  V30 2285 H 212.707 -1.68016 3.25832 0
M  V30 2286 H 212.355 -4.12656 2.87618 0
M  V30 2287 H 212.055 -3.68606 4.57606 0
M  V30 2288 H 213.579 -4.50206 4.12488 0
M  V30 2289 H 214.993 -2.4838 5.16701 0
M  V30 2290 H 213.39 -1.89393 5.6943 0
M  V30 2291 H 214.46 -0.816023 4.77984 0
M  V30 2292 N 215.803 -1.52179 -0.40978 0
M  V30 2293 C 216.753 -1.71857 -1.49831 0
M  V30 2294 C 217.737 -0.572469 -1.50372 0
M  V30 2295 O 218.929 -0.829509 -1.56359 0
M  V30 2296 C 216.058 -1.87206 -2.87765 0
M  V30 2297 C 215.144 -3.07685 -2.91875 0
M  V30 2298 N 215.535 -4.30403 -2.65683 0
M  V30 2299 C 213.833 -3.07505 -3.23043 0
M  V30 2300 C 214.534 -5.11868 -2.76344 0
M  V30 2301 N 213.51 -4.47101 -3.09195 0
M  V30 2302 H 217.312 -2.64381 -1.28375 0
M  V30 2303 H 214.826 -1.50203 -0.617479 0
M  V30 2304 H 216.823 -1.99419 -3.66111 0
M  V30 2305 H 215.483 -0.958814 -3.10221 0
M  V30 2306 H 216.494 -4.58887 -2.4009 0
M  V30 2307 H 213.171 -2.25915 -3.51096 0
M  V30 2308 H 214.561 -6.19634 -2.59814 0
M  V30 2309 N 217.281 0.66697 -1.42791 0
M  V30 2310 C 218.527 1.42754 -1.44889 0
M  V30 2311 C 218.882 1.92283 -0.0669755 0
M  V30 2312 O 218.175 1.68494 0.912154 0
M  V30 2313 C 218.369 2.6349 -2.4147 0
M  V30 2314 C 218.198 2.25776 -3.88915 0
M  V30 2315 C 216.968 2.1476 -4.57391 0
M  V30 2316 C 219.166 1.86927 -4.79127 0
M  V30 2317 N 217.148 1.70232 -5.89826 0
M  V30 2318 C 218.519 1.53378 -6.00729 0
M  V30 2319 C 220.574 1.73989 -4.66511 0
M  V30 2320 C 219.277 1.08187 -7.11117 0
M  V30 2321 C 221.303 1.30203 -5.76889 0
M  V30 2322 C 220.665 0.975818 -6.97608 0
M  V30 2323 H 216.764 0.518559 -0.585338 0
M  V30 2324 H 219.348 0.768906 -1.78874 0
M  V30 2325 H 217.519 3.27033 -2.09533 0
M  V30 2326 H 219.251 3.30123 -2.34096 0
M  V30 2327 H 216.006 2.3408 -4.11708 0
M  V30 2328 H 216.43 1.50369 -6.6009 0
M  V30 2329 H 221.072 1.97853 -3.7365 0
M  V30 2330 H 218.79 0.830701 -8.03819 0
M  V30 2331 H 222.376 1.20701 -5.69142 0
M  V30 2332 H 221.256 0.642157 -7.81566 0
M  V30 2333 N 218.759 1.29093 0.90403 0
M  V30 2334 C 219.989 1.19516 1.68522 0
M  V30 2335 C 220.397 -0.24738 1.87576 0
M  V30 2336 O 219.74 -1.17798 1.40959 0
M  V30 2337 C 219.802 1.83249 3.0929 0
M  V30 2338 C 219.466 3.32531 3.13484 0
M  V30 2339 C 220.463 4.28821 2.93953 0
M  V30 2340 C 218.148 3.73656 3.35688 0
M  V30 2341 C 220.142 5.64212 2.96553 0
M  V30 2342 C 217.829 5.0917 3.37919 0
M  V30 2343 C 218.827 6.04258 3.18373 0
M  V30 2344 O 218.515 7.37298 3.20385 0
M  V30 2345 H 218.247 0.415467 0.533257 0
M  V30 2346 H 220.801 1.70912 1.13922 0
M  V30 2347 H 219.031 1.26358 3.65473 0
M  V30 2348 H 220.72 1.68054 3.69476 0
M  V30 2349 H 221.486 3.98382 2.76616 0
M  V30 2350 H 217.365 3.00101 3.49943 0
M  V30 2351 H 220.909 6.38407 2.81216 0
M  V30 2352 H 216.806 5.39256 3.54787 0
M  V30 2353 H 217.574 7.46048 3.36681 0
M  V30 2354 N 220.237 -1.11381 1.11499 0
M  V30 2355 C 221.467 -1.86663 0.885464 0
M  V30 2356 C 221.875 -1.80464 -0.568281 0
M  V30 2357 O 221.218 -1.18445 -1.40415 0
M  V30 2358 C 221.28 -3.36337 1.26956 0
M  V30 2359 C 220.944 -3.66304 2.73259 0
M  V30 2360 C 221.941 -3.63733 3.71476 0
M  V30 2361 C 219.626 -3.9529 3.09921 0
M  V30 2362 C 221.62 -3.89725 5.04374 0
M  V30 2363 C 219.307 -4.20941 4.43004 0
M  V30 2364 C 220.305 -4.18147 5.40039 0
M  V30 2365 O 219.993 -4.43153 6.70724 0
M  V30 2366 H 219.725 -0.597114 0.316908 0
M  V30 2367 H 222.279 -1.41782 1.48617 0
M  V30 2368 H 220.509 -3.81826 0.611999 0
M  V30 2369 H 222.198 -3.92986 1.01573 0
M  V30 2370 H 222.964 -3.41389 3.44498 0
M  V30 2371 H 218.843 -3.966 2.35009 0
M  V30 2372 H 222.387 -3.8746 5.80104 0
M  V30 2373 H 218.284 -4.42761 4.69716 0
M  V30 2374 H 219.052 -4.60717 6.76522 0
M  V30 2375 N 221.715 -0.905404 -1.28997 0
M  V30 2376 C 222.647 -0.344748 -2.26592 0
M  V30 2377 C 223.66 0.512135 -1.54535 0
M  V30 2378 O 224.849 0.328368 -1.75454 0
M  V30 2379 C 221.949 0.526587 -3.34784 0
M  V30 2380 C 221.122 -0.305871 -4.36329 0
M  V30 2381 C 220.181 0.499209 -5.23827 0
M  V30 2382 O 219.207 -0.0853004 -5.69136 0
M  V30 2383 N 220.409 1.80408 -5.51755 0
M  V30 2384 H 223.174 -1.18359 -2.75338 0
M  V30 2385 H 220.735 -0.770481 -1.42391 0
M  V30 2386 H 222.727 1.07171 -3.90252 0
M  V30 2387 H 221.297 1.26613 -2.85811 0
M  V30 2388 H 220.517 -1.0324 -3.80441 0
M  V30 2389 H 221.805 -0.875773 -5.01206 0
M  V30 2390 H 221.203 2.3016 -5.16762 0
M  V30 2391 H 219.76 2.29621 -6.10014 0
M  V30 2392 N 223.193 1.4272 -0.668489 0
M  V30 2393 C 224.47 1.95248 -0.117373 0
M  V30 2394 C 224.85 1.60919 1.36632 0
M  V30 2395 O 224.198 0.902095 2.09939 0
M  V30 2396 C 224.408 3.46927 -0.379806 0
M  V30 2397 C 225.756 4.23588 -0.292923 0
M  V30 2398 O 226.78 3.5482 -0.313204 0
M  V30 2399 O 225.639 5.46017 -0.229697 0
M  V30 2400 H 222.733 0.827 0.00079152 0
M  V30 2401 H 225.279 1.52581 -0.742783 0
M  V30 2402 H 224.051 3.65096 -1.40786 0
M  V30 2403 H 223.674 3.96627 0.277923 0
M  V30 2404 N 224.671 0.411399 1.52136 0
M  V30 2405 C 225.919 -0.163322 2.01439 0
M  V30 2406 C 226.24 -1.45453 1.29879 0
M  V30 2407 O 225.51 -1.91225 0.4254 0
M  V30 2408 H 224.09 -0.0633447 0.744309 0
M  V30 2409 H 226.752 0.548161 1.87033 0
M  V30 2410 H 225.848 -0.357817 3.10042 0
M  V30 2411 N 226.149 -1.5696 0.141893 0
M  V30 2412 C 227.112 -2.15316 -0.785587 0
M  V30 2413 C 228.112 -1.09366 -1.1788 0
M  V30 2414 O 229.302 -1.35031 -1.10056 0
M  V30 2415 C 226.434 -2.71211 -2.06537 0
M  V30 2416 H 227.627 -2.98608 -0.278041 0
M  V30 2417 H 225.18 -1.5593 -0.107519 0
M  V30 2418 H 225.915 -1.91571 -2.6167 0
M  V30 2419 H 225.7 -3.4872 -1.79268 0
M  V30 2420 H 227.19 -3.16189 -2.72789 0
M  V30 2421 N 227.627 0.131896 -1.57047 0
M  V30 2422 C 228.852 0.860418 -1.8871 0
M  V30 2423 C 229.277 1.73251 -0.73251 0
M  V30 2424 O 228.635 1.785 0.317429 0
M  V30 2425 C 228.683 1.68047 -3.19049 0
M  V30 2426 O 227.787 2.7862 -3.04047 0
M  V30 2427 H 227.128 0.238743 -0.619595 0
M  V30 2428 H 229.658 0.118169 -2.04258 0
M  V30 2429 H 229.668 2.07238 -3.51449 0
M  V30 2430 H 228.343 1.04018 -4.02682 0
M  V30 2431 H 226.92 2.42726 -2.83088 0
M  V30 2432 N 229.106 1.52395 0.401703 0
M  V30 2433 C 230.522 1.41363 0.740864 0
M  V30 2434 C 230.722 0.523982 1.94568 0
M  V30 2435 O 229.778 -0.00741204 2.52499 0
M  V30 2436 C 231.091 2.84011 0.987847 0
M  V30 2437 C 232.639 2.93404 1.09011 0
M  V30 2438 C 233.114 4.37036 1.3698 0
M  V30 2439 N 234.605 4.40304 1.43829 0
M  V30 2440 C 235.34 5.48508 1.67112 0
M  V30 2441 N 234.836 6.66819 1.87949 0
M  V30 2442 N 236.629 5.36034 1.69187 0
M  V30 2443 H 228.78 2.08765 -0.391262 0
M  V30 2444 H 231.043 0.941265 -0.112798 0
M  V30 2445 H 230.749 3.51265 0.174835 0
M  V30 2446 H 230.623 3.25502 1.906 0
M  V30 2447 H 233.01 2.26325 1.8937 0
M  V30 2448 H 233.091 2.55359 0.15015 0
M  V30 2449 H 232.735 5.04676 0.571353 0
M  V30 2450 H 232.665 4.72623 2.3224 0
M  V30 2451 H 235.156 3.55024 1.29486 0
M  V30 2452 H 235.469 7.45063 2.05185 0
M  V30 2453 H 233.814 6.6987 1.85199 0
M  V30 2454 H 237.005 4.42579 1.52451 0
M  V30 2455 H 237.178 6.20434 1.86993 0
M  V30 2456 N 230.584 -0.659388 1.43143 0
M  V30 2457 C 231.831 -1.41935 1.44433 0
M  V30 2458 C 232.159 -1.94387 0.0663522 0
M  V30 2459 O 231.414 -1.72314 -0.927706 0
M  V30 2460 C 231.713 -2.62206 2.42864 0
M  V30 2461 C 231.379 -2.28208 3.88886 0
M  V30 2462 C 230.041 -2.18647 4.28657 0
M  V30 2463 C 232.393 -2.00887 4.8093 0
M  V30 2464 C 229.721 -1.79914 5.58433 0
M  V30 2465 C 232.073 -1.63653 6.11065 0
M  V30 2466 C 230.737 -1.52614 6.49819 0
M  V30 2467 H 230.007 -0.519376 0.528517 0
M  V30 2468 H 232.654 -0.750453 1.76183 0
M  V30 2469 H 230.959 -3.34199 2.04495 0
M  V30 2470 H 232.656 -3.2041 2.41119 0
M  V30 2471 H 229.246 -2.36557 3.57406 0
M  V30 2472 H 233.43 -2.07198 4.5098 0
M  V30 2473 H 228.686 -1.69948 5.87305 0
M  V30 2474 H 232.86 -1.41543 6.81864 0
M  V30 2475 H 230.487 -1.22371 7.50286 0
M  V30 2476 N 232.062 -1.29571 -0.897171 0
M  V30 2477 C 233.309 -1.17689 -1.6479 0
M  V30 2478 C 233.637 0.27107 -1.92602 0
M  V30 2479 O 232.892 1.21193 -1.53658 0
M  V30 2480 C 233.191 -1.9382 -3.00281 0
M  V30 2481 C 232.857 -3.43522 -2.92068 0
M  V30 2482 C 231.519 -3.84348 -2.89535 0
M  V30 2483 C 233.871 -4.38906 -2.81089 0
M  V30 2484 C 231.199 -5.18869 -2.73846 0
M  V30 2485 C 233.551 -5.73521 -2.66939 0
M  V30 2486 C 232.215 -6.13601 -2.62774 0
M  V30 2487 H 231.485 -0.430654 -0.603008 0
M  V30 2488 H 234.132 -1.60536 -1.04404 0
M  V30 2489 H 232.437 -1.4357 -3.64547 0
M  V30 2490 H 234.134 -1.82028 -3.57305 0
M  V30 2491 H 230.724 -3.11072 -2.94842 0
M  V30 2492 H 234.908 -4.08315 -2.82121 0
M  V30 2493 H 230.164 -5.4903 -2.69027 0
M  V30 2494 H 234.338 -6.47078 -2.57416 0
M  V30 2495 H 231.965 -7.17786 -2.50375 0
M  V30 2496 N 233.54 1.10788 -1.12088 0
M  V30 2497 C 234.951 1.64181 -0.88891 0
M  V30 2498 C 235.302 1.87508 0.577498 0
M  V30 2499 O 234.427 1.61434 1.44112 0
M  V30 2500 C 235.022 2.98257 -1.60712 0
M  V30 2501 C 233.581 3.4853 -1.42139 0
M  V30 2502 C 232.728 2.23208 -1.6454 0
M  V30 2503 H 235.679 0.943368 -1.27618 0
M  V30 2504 H 235.7 3.65552 -1.05604 0
M  V30 2505 H 235.212 2.81246 -2.67436 0
M  V30 2506 H 233.313 3.70692 -0.376552 0
M  V30 2507 H 233.426 4.26882 -2.17505 0
M  V30 2508 H 231.79 2.31169 -1.06925 0
M  V30 2509 H 232.573 2.08733 -2.72554 0
M  V30 2510 N 235.018 0.912232 1.28515 0
M  V30 2511 C 235.928 0.404506 2.31086 0
M  V30 2512 C 236.944 -0.50707 1.66448 0
M  V30 2513 O 238.12 -0.393624 1.97516 0
M  V30 2514 C 235.185 -0.348572 3.44943 0
M  V30 2515 C 234.246 0.59604 4.25142 0
M  V30 2516 C 233.479 -0.121194 5.33562 0
M  V30 2517 O 233.702 -1.34317 5.5436 0
M  V30 2518 O 232.636 0.542716 5.99448 0
M  V30 2519 H 236.462 1.25579 2.76521 0
M  V30 2520 H 234.047 0.676998 1.33181 0
M  V30 2521 H 235.929 -0.77395 4.14232 0
M  V30 2522 H 234.604 -1.17571 3.01594 0
M  V30 2523 H 233.511 1.07079 3.58448 0
M  V30 2524 H 234.844 1.38995 4.72167 0
M  V30 2525 N 236.496 -1.42363 0.676048 0
M  V30 2526 C 237.443 -2.308 -0.00150904 0
M  V30 2527 C 238.413 -1.46032 -0.791444 0
M  V30 2528 O 239.598 -1.74861 -0.76344 0
M  V30 2529 C 236.738 -3.31883 -0.945919 0
M  V30 2530 C 235.851 -4.31741 -0.149675 0
M  V30 2531 C 234.986 -5.19898 -1.08995 0
M  V30 2532 C 234.025 -6.11434 -0.285465 0
M  V30 2533 N 233.162 -6.92138 -1.17851 0
M  V30 2534 H 238.002 -2.88187 0.758455 0
M  V30 2535 H 235.539 -1.41952 0.38576 0
M  V30 2536 H 237.497 -3.89019 -1.50731 0
M  V30 2537 H 236.127 -2.76093 -1.6725 0
M  V30 2538 H 235.179 -3.76713 0.528359 0
M  V30 2539 H 236.491 -4.96534 0.474866 0
M  V30 2540 H 235.645 -5.81772 -1.72123 0
M  V30 2541 H 234.384 -4.55284 -1.74837 0
M  V30 2542 H 233.389 -5.48627 0.359018 0
M  V30 2543 H 234.614 -6.78097 0.368883 0
M  V30 2544 H 232.56 -6.30152 -1.82332 0
M  V30 2545 H 232.477 -7.53542 -0.609082 0
M  V30 2546 H 233.745 -7.58499 -1.79722 0
M  V30 2547 N 237.974 -0.419461 -1.51915 0
M  V30 2548 C 239.22 0.145505 -2.02879 0
M  V30 2549 C 239.575 1.41926 -1.29903 0
M  V30 2550 O 238.868 1.87383 -0.399782 0
M  V30 2551 C 239.062 0.437067 -3.54717 0
M  V30 2552 C 238.891 -0.806877 -4.42402 0
M  V30 2553 C 237.661 -1.33514 -4.87342 0
M  V30 2554 C 239.859 -1.68796 -4.85811 0
M  V30 2555 N 237.841 -2.53349 -5.59185 0
M  V30 2556 C 239.212 -2.73247 -5.56539 0
M  V30 2557 C 241.267 -1.70449 -4.67816 0
M  V30 2558 C 239.97 -3.79276 -6.11181 0
M  V30 2559 C 241.996 -2.75403 -5.23361 0
M  V30 2560 C 241.358 -3.78575 -5.9402 0
M  V30 2561 H 237.457 0.0145424 -0.781865 0
M  V30 2562 H 240.041 -0.576126 -1.85981 0
M  V30 2563 H 238.212 1.12774 -3.71667 0
M  V30 2564 H 239.944 0.99182 -3.92358 0
M  V30 2565 H 236.699 -0.891657 -4.65131 0
M  V30 2566 H 237.123 -3.14066 -5.99743 0
M  V30 2567 H 241.765 -0.920209 -4.12664 0
M  V30 2568 H 239.483 -4.58554 -6.65397 0
M  V30 2569 H 243.069 -2.77603 -5.113 0
M  V30 2570 H 241.949 -4.58453 -6.36231 0
M  V30 2571 N 239.452 1.56882 -0.150215 0
M  V30 2572 C 240.362 2.20494 0.801222 0
M  V30 2573 C 241.378 1.19019 1.26927 0
M  V30 2574 O 242.554 1.51607 1.32579 0
M  V30 2575 C 239.619 2.81659 2.02161 0
M  V30 2576 C 238.68 3.9827 1.60249 0
M  V30 2577 C 237.913 4.56508 2.7647 0
M  V30 2578 O 238.136 4.13627 3.92771 0
M  V30 2579 O 237.07 5.46719 2.51757 0
M  V30 2580 H 240.896 3.02315 0.289717 0
M  V30 2581 H 238.481 1.49202 0.0769684 0
M  V30 2582 H 240.363 3.20522 2.73576 0
M  V30 2583 H 239.038 2.02849 2.52258 0
M  V30 2584 H 237.945 3.64117 0.858477 0
M  V30 2585 H 239.278 4.78609 1.14864 0
M  V30 2586 N 240.93 -0.123565 1.57115 0
M  V30 2587 C 242.346 -0.476961 1.52306 0
M  V30 2588 C 242.546 -1.82109 0.86248 0
M  V30 2589 O 241.602 -2.48586 0.442884 0
M  V30 2590 C 242.915 -0.465661 2.97073 0
M  V30 2591 C 244.463 -0.549534 3.08138 0
M  V30 2592 C 244.938 -0.568669 4.54456 0
M  V30 2593 N 246.429 -0.630237 4.58892 0
M  V30 2594 C 247.164 -0.666415 5.69514 0
M  V30 2595 N 246.66 -0.660514 6.89644 0
M  V30 2596 N 248.453 -0.709077 5.5761 0
M  V30 2597 H 240.604 0.757198 1.98445 0
M  V30 2598 H 242.867 0.278808 0.906074 0
M  V30 2599 H 242.573 0.454232 3.48754 0
M  V30 2600 H 242.447 -1.29513 3.54269 0
M  V30 2601 H 244.834 -1.45985 2.56461 0
M  V30 2602 H 244.915 0.307532 2.53945 0
M  V30 2603 H 244.559 0.337581 5.06777 0
M  V30 2604 H 244.489 -1.44256 5.06456 0
M  V30 2605 H 246.98 -0.641146 3.72421 0
M  V30 2606 H 247.293 -0.690616 7.69708 0
M  V30 2607 H 245.638 -0.628012 6.92157 0
M  V30 2608 H 248.829 -0.711019 4.62668 0
M  V30 2609 H 249.002 -0.733804 6.43832 0
M  V30 2610 N 242.408 -1.52605 -0.393616 0
M  V30 2611 C 243.654 -1.67672 -1.14079 0
M  V30 2612 C 243.987 -0.413121 -1.89755 0
M  V30 2613 O 243.262 0.588952 -1.85369 0
M  V30 2614 C 243.545 -2.9088 -2.12276 0
M  V30 2615 C 243.398 -4.27329 -1.40394 0
M  V30 2616 C 244.717 -3.09628 -3.12759 0
M  V30 2617 H 241.836 -0.610168 -0.413356 0
M  V30 2618 H 244.478 -1.85193 -0.424696 0
M  V30 2619 H 242.628 -2.76073 -2.73342 0
M  V30 2620 H 244.3 -4.53894 -0.82327 0
M  V30 2621 H 242.543 -4.2802 -0.705801 0
M  V30 2622 H 243.214 -5.09615 -2.12123 0
M  V30 2623 H 245.69 -3.23436 -2.61779 0
M  V30 2624 H 244.566 -3.97322 -3.78717 0
M  V30 2625 H 244.827 -2.23637 -3.81365 0
M  V30 2626 N 243.887 0.651787 -1.4349 0
M  V30 2627 C 244.817 1.77621 -1.51569 0
M  V30 2628 C 245.798 1.66022 -0.370253 0
M  V30 2629 O 246.983 1.85095 -0.587658 0
M  V30 2630 C 244.113 3.16056 -1.43966 0
M  V30 2631 C 243.067 3.4242 -2.56774 0
M  V30 2632 C 242.393 4.8067 -2.34223 0
M  V30 2633 C 243.693 3.37023 -3.99015 0
M  V30 2634 H 245.387 1.71117 -2.45681 0
M  V30 2635 H 242.933 0.821825 -1.18246 0
M  V30 2636 H 244.886 3.94472 -1.48221 0
M  V30 2637 H 243.61 3.23293 -0.463586 0
M  V30 2638 H 242.269 2.66375 -2.51873 0
M  V30 2639 H 241.917 4.84585 -1.34856 0
M  V30 2640 H 241.617 4.9927 -3.09844 0
M  V30 2641 H 243.141 5.61342 -2.40265 0
M  V30 2642 H 244.555 4.05374 -4.05395 0
M  V30 2643 H 242.952 3.67159 -4.74673 0
M  V30 2644 H 244.022 2.3518 -4.2405 0
M  V30 2645 N 245.365 1.30045 0.890287 0
M  V30 2646 C 246.59 1.21598 1.68014 0
M  V30 2647 C 247.015 -0.218678 1.86825 0
M  V30 2648 O 246.373 -1.15756 1.39536 0
M  V30 2649 C 246.421 1.94434 3.03691 0
M  V30 2650 O 245.525 1.2678 3.92429 0
M  V30 2651 H 244.866 0.420856 0.513592 0
M  V30 2652 H 247.396 1.71775 1.11151 0
M  V30 2653 H 247.406 2.03251 3.5377 0
M  V30 2654 H 246.081 2.98777 2.89318 0
M  V30 2655 H 244.658 1.26282 3.50866 0
M  V30 2656 N 246.843 -1.10192 1.12674 0
M  V30 2657 C 248.092 -1.81573 0.8783 0
M  V30 2658 C 248.405 -1.86249 -0.597557 0
M  V30 2659 O 249.611 -2.5386 -0.962681 0
M  V30 2660 C 248.067 -3.26149 1.52167 0
M  V30 2661 C 247.675 -3.29763 3.03249 0
M  V30 2662 C 249.419 -4.0234 1.3536 0
M  V30 2663 C 247.326 -4.68815 3.60508 0
M  V30 2664 H 246.256 -0.680394 0.324931 0
M  V30 2665 H 248.907 -1.23902 1.35353 0
M  V30 2666 H 247.289 -3.83832 0.974104 0
M  V30 2667 H 248.463 -2.8189 3.6452 0
M  V30 2668 H 246.778 -2.67059 3.19481 0
M  V30 2669 H 249.375 -5.05058 1.75559 0
M  V30 2670 H 249.718 -4.15235 0.297554 0
M  V30 2671 H 250.251 -3.51079 1.87052 0
M  V30 2672 H 246.99 -4.61121 4.65884 0
M  V30 2673 H 246.51 -5.17045 3.04014 0
M  V30 2674 H 248.189 -5.37785 3.59717 0
M  V30 2675 N 248.321 -0.919034 -1.28029 0
M  V30 2676 C 249.251 -0.428581 -2.29533 0
M  V30 2677 C 250.232 0.50659 -1.62381 0
M  V30 2678 O 251.417 0.413195 -1.89753 0
M  V30 2679 C 248.547 0.327388 -3.45753 0
M  V30 2680 C 247.501 -0.519137 -4.2484 0
M  V30 2681 C 246.827 0.365486 -5.33449 0
M  V30 2682 C 248.127 -1.77914 -4.91064 0
M  V30 2683 H 249.821 -1.27687 -2.70807 0
M  V30 2684 H 247.367 -0.615428 -1.30186 0
M  V30 2685 H 249.32 0.681378 -4.15855 0
M  V30 2686 H 248.044 1.20963 -3.03374 0
M  V30 2687 H 246.703 -0.855717 -3.56473 0
M  V30 2688 H 246.351 1.24642 -4.87312 0
M  V30 2689 H 246.051 -0.197356 -5.87268 0
M  V30 2690 H 247.575 0.715241 -6.06396 0
M  V30 2691 H 248.989 -1.49374 -5.53498 0
M  V30 2692 H 247.386 -2.2848 -5.54903 0
M  V30 2693 H 248.456 -2.50382 -4.15255 0
M  V30 2694 N 249.799 1.42003 -0.683588 0
M  V30 2695 C 251.024 2.06265 -0.216647 0
M  V30 2696 C 251.449 1.51059 1.12083 0
M  V30 2697 O 250.807 0.632638 1.69904 0
M  V30 2698 C 250.855 3.60191 -0.171759 0
M  V30 2699 O 249.959 4.03396 0.857069 0
M  V30 2700 H 249.3 0.65502 -0.108834 0
M  V30 2701 H 251.83 1.81982 -0.935077 0
M  V30 2702 H 251.84 4.08 0.0014303 0
M  V30 2703 H 250.515 3.99743 -1.14796 0
M  V30 2704 H 249.092 3.67117 0.654208 0
M  V30 2705 N 251.277 0.427512 1.51691 0
M  V30 2706 C 252.554 -0.201684 1.94557 0
M  V30 2707 C 252.934 -1.60981 1.36559 0
M  V30 2708 O 252.282 -2.21814 0.548702 0
M  V30 2709 C 252.492 -0.189394 3.48486 0
M  V30 2710 C 253.84 -0.39978 4.22714 0
M  V30 2711 O 254.864 -0.267945 3.55191 0
M  V30 2712 O 253.723 -0.661249 5.42485 0
M  V30 2713 H 250.817 -0.135261 0.815864 0
M  V30 2714 H 253.363 0.484782 1.62628 0
M  V30 2715 H 252.135 0.795431 3.8313 0
M  V30 2716 H 251.758 -0.919187 3.86829 0
M  V30 2717 N 252.755 -1.56801 0.158532 0
M  V30 2718 C 254.032 -1.88131 -0.535357 0
M  V30 2719 C 254.412 -1.06638 -1.82186 0
M  V30 2720 O 253.76 -0.156533 -2.27963 0
M  V30 2721 C 253.97 -3.39949 -0.789653 0
M  V30 2722 C 255.318 -4.09416 -1.12533 0
M  V30 2723 O 256.342 -3.45194 -0.878622 0
M  V30 2724 O 255.201 -5.22855 -1.59014 0
M  V30 2725 H 252.295 -0.780143 -0.27442 0
M  V30 2726 H 254.841 -1.68564 0.19601 0
M  V30 2727 H 253.613 -3.91115 0.120353 0
M  V30 2728 H 253.236 -3.65084 -1.57479 0
M  V30 2729 N 254.233 0.115231 -1.57178 0
M  V30 2730 C 255.143 1.15994 -2.03918 0
M  V30 2731 C 256.159 1.45103 -0.960268 0
M  V30 2732 O 257.335 1.56144 -1.27204 0
M  V30 2733 C 254.4 2.46568 -2.43732 0
M  V30 2734 C 253.461 2.24822 -3.65723 0
M  V30 2735 C 252.694 3.4917 -4.03629 0
M  V30 2736 O 252.917 4.56623 -3.41835 0
M  V30 2737 O 251.851 3.39949 -4.96708 0
M  V30 2738 H 255.677 0.793019 -2.93164 0
M  V30 2739 H 253.262 0.3263 -1.45793 0
M  V30 2740 H 255.144 3.23492 -2.70057 0
M  V30 2741 H 253.819 2.82726 -1.57631 0
M  V30 2742 H 252.726 1.45744 -3.44542 0
M  V30 2743 H 254.059 1.93566 -4.52541 0
M  V30 2744 N 255.711 1.52812 0.385517 0
M  V30 2745 C 257.127 1.4214 0.725829 0
M  V30 2746 C 257.327 0.544589 1.94001 0
M  V30 2747 O 256.383 0.0193693 2.52493 0
M  V30 2748 C 257.696 2.85042 0.957668 0
M  V30 2749 C 259.244 2.94543 1.05892 0
M  V30 2750 C 259.719 4.38464 1.32337 0
M  V30 2751 N 261.21 4.41804 1.39151 0
M  V30 2752 C 261.945 5.5025 1.61285 0
M  V30 2753 N 261.441 6.68775 1.80866 0
M  V30 2754 N 263.234 5.37798 1.63492 0
M  V30 2755 H 255.385 2.08338 -0.413383 0
M  V30 2756 H 257.648 0.940016 -0.122775 0
M  V30 2757 H 257.354 3.51431 0.137568 0
M  V30 2758 H 257.228 3.27505 1.87137 0
M  V30 2759 H 259.615 2.28321 1.86959 0
M  V30 2760 H 259.696 2.55504 0.123057 0
M  V30 2761 H 259.34 5.05254 0.517793 0
M  V30 2762 H 259.27 4.75059 2.27214 0
M  V30 2763 H 261.761 3.56377 1.25713 0
M  V30 2764 H 262.074 7.47197 1.97271 0
M  V30 2765 H 260.419 6.71797 1.78083 0
M  V30 2766 H 263.61 4.44171 1.47749 0
M  V30 2767 H 263.783 6.22382 1.80402 0
M  V30 2768 N 257.189 -0.644168 1.43834 0
M  V30 2769 C 258.136 -1.75671 1.49694 0
M  V30 2770 C 259.106 -1.6246 0.345809 0
M  V30 2771 O 260.291 -1.82573 0.554234 0
M  V30 2772 C 257.431 -3.13867 1.43463 0
M  V30 2773 C 256.544 -3.38147 2.6885 0
M  V30 2774 C 255.679 -4.66241 2.54544 0
M  V30 2775 C 254.718 -4.83657 3.75157 0
M  V30 2776 N 253.855 -6.03016 3.59605 0
M  V30 2777 H 258.695 -1.69998 2.44754 0
M  V30 2778 H 256.232 -0.829458 1.21484 0
M  V30 2779 H 258.19 -3.9377 1.37843 0
M  V30 2780 H 256.82 -3.18588 0.519783 0
M  V30 2781 H 255.872 -2.52276 2.84712 0
M  V30 2782 H 257.184 -3.46899 3.58417 0
M  V30 2783 H 256.338 -5.54285 2.46683 0
M  V30 2784 H 255.077 -4.59826 1.62516 0
M  V30 2785 H 254.082 -3.94046 3.83416 0
M  V30 2786 H 255.307 -4.91896 4.68204 0
M  V30 2787 H 253.253 -5.97715 2.7032 0
M  V30 2788 H 253.17 -6.12766 4.42779 0
M  V30 2789 H 254.438 -6.93657 3.55613 0
M  V30 2790 N 258.668 -1.30515 -0.883378 0
M  V30 2791 C 259.945 -1.10086 -1.6168 0
M  V30 2792 C 260.325 0.349269 -2.08191 0
M  V30 2793 O 259.673 1.34105 -1.85008 0
M  V30 2794 C 259.883 -2.10315 -2.78511 0
M  V30 2795 C 261.231 -2.42119 -3.48803 0
M  V30 2796 O 262.255 -2.08638 -2.88702 0
M  V30 2797 O 261.114 -2.99396 -4.57192 0
M  V30 2798 H 258.208 -0.422907 -0.710689 0
M  V30 2799 H 260.754 -1.41947 -0.930015 0
M  V30 2800 H 259.526 -3.07917 -2.41459 0
M  V30 2801 H 259.149 -1.79282 -3.54886 0
M  V30 2802 N 260.146 1.09593 -1.13257 0
M  V30 2803 C 261.392 1.82003 -0.89458 0
M  V30 2804 C 261.725 1.85402 0.577906 0
M  V30 2805 O 261 1.32099 1.42759 0
M  V30 2806 C 261.283 3.28237 -1.48096 0
M  V30 2807 C 261.136 3.3312 -3.02244 0
M  V30 2808 C 262.455 4.24871 -1.14774 0
M  V30 2809 H 259.574 0.66077 -0.326424 0
M  V30 2810 H 262.216 1.28389 -1.40058 0
M  V30 2811 H 260.366 3.74024 -1.05062 0
M  V30 2812 H 262.038 2.95748 -3.54021 0
M  V30 2813 H 260.281 2.72756 -3.37323 0
M  V30 2814 H 260.952 4.3613 -3.38371 0
M  V30 2815 H 263.428 3.87361 -1.51957 0
M  V30 2816 H 262.304 5.25532 -1.58452 0
M  V30 2817 H 262.565 4.42058 -0.0611849 0
M  V30 2818 N 261.624 0.925811 1.2754 0
M  V30 2819 C 262.873 0.561084 1.93739 0
M  V30 2820 C 263.186 -0.901685 1.73577 0
M  V30 2821 O 264.392 -1.37511 2.34101 0
M  V30 2822 C 262.848 0.952668 3.47062 0
M  V30 2823 C 262.456 2.43599 3.75983 0
M  V30 2824 C 264.2 0.659103 4.19352 0
M  V30 2825 C 262.107 2.76707 5.22673 0
M  V30 2826 H 261.037 0.206122 0.725279 0
M  V30 2827 H 263.688 1.12637 1.44863 0
M  V30 2828 H 262.07 0.316053 3.94737 0
M  V30 2829 H 263.244 3.12035 3.39073 0
M  V30 2830 H 261.559 2.70125 3.16893 0
M  V30 2831 H 264.156 0.882985 5.27359 0
M  V30 2832 H 264.499 -0.403607 4.14339 0
M  V30 2833 H 265.032 1.25473 3.77494 0
M  V30 2834 H 261.771 3.8188 5.32774 0
M  V30 2835 H 261.291 2.12919 5.60737 0
M  V30 2836 H 262.97 2.6435 5.90532 0
M  V30 2837 N 263.102 -1.41638 0.69111 0
M  V30 2838 C 264.065 -2.29178 0.0319786 0
M  V30 2839 C 265.065 -1.44153 -0.712496 0
M  V30 2840 O 266.255 -1.65354 -0.548053 0
M  V30 2841 C 263.387 -3.26952 -0.965161 0
M  V30 2842 H 264.58 -2.88959 0.802681 0
M  V30 2843 H 262.133 -1.4955 0.454356 0
M  V30 2844 H 262.868 -2.72142 -1.76378 0
M  V30 2845 H 262.653 -3.89685 -0.434522 0
M  V30 2846 H 264.143 -3.92561 -1.42428 0
M  V30 2847 N 264.58 -0.43555 -1.51462 0
M  V30 2848 C 265.543 0.365137 -2.26273 0
M  V30 2849 C 266.543 0.951227 -1.29647 0
M  V30 2850 O 267.733 0.825958 -1.53374 0
M  V30 2851 C 264.865 1.51645 -3.05314 0
M  V30 2852 H 266.058 -0.290474 -2.9849 0
M  V30 2853 H 263.611 -0.188676 -1.55157 0
M  V30 2854 H 264.346 2.20816 -2.3751 0
M  V30 2855 H 264.131 1.10238 -3.76284 0
M  V30 2856 H 265.621 2.08218 -3.61987 0
M  V30 2857 N 266.058 1.56714 -0.166846 0
M  V30 2858 C 267.288 2.00828 0.48494 0
M  V30 2859 C 267.696 1.04612 1.57648 0
M  V30 2860 O 267.039 0.0383201 1.8366 0
M  V30 2861 C 267.101 3.4137 1.12723 0
M  V30 2862 C 266.765 4.56654 0.177886 0
M  V30 2863 C 267.762 5.16402 -0.60207 0
M  V30 2864 C 265.447 5.02244 0.0750139 0
M  V30 2865 C 267.441 6.20167 -1.47215 0
M  V30 2866 C 265.128 6.05859 -0.798649 0
M  V30 2867 C 266.126 6.64691 -1.57082 0
M  V30 2868 O 265.814 7.66297 -2.42989 0
M  V30 2869 H 265.546 0.663587 0.128953 0
M  V30 2870 H 268.1 2.03692 -0.264365 0
M  V30 2871 H 266.33 3.35406 1.92457 0
M  V30 2872 H 268.019 3.69466 1.68076 0
M  V30 2873 H 268.785 4.82065 -0.53274 0
M  V30 2874 H 264.664 4.56167 0.665812 0
M  V30 2875 H 268.208 6.66016 -2.07531 0
M  V30 2876 H 264.105 6.39621 -0.869199 0
M  V30 2877 H 264.873 7.83601 -2.36455 0
M  V30 2878 N 267.536 -0.106894 1.57237 0
M  V30 2879 C 268.952 -0.46078 1.52804 0
M  V30 2880 C 269.152 -1.81184 0.881746 0
M  V30 2881 O 268.208 -2.48102 0.469224 0
M  V30 2882 C 269.521 -0.434127 2.9755 0
M  V30 2883 C 271.069 -0.516821 3.08704 0
M  V30 2884 C 271.544 -0.520436 4.55033 0
M  V30 2885 N 273.035 -0.58153 4.59535 0
M  V30 2886 C 273.77 -0.605973 5.70189 0
M  V30 2887 N 273.266 -0.587331 6.90306 0
M  V30 2888 N 275.059 -0.649895 5.5833 0
M  V30 2889 H 267.21 0.778203 1.9763 0
M  V30 2890 H 269.473 0.288403 0.903066 0
M  V30 2891 H 269.179 0.491197 3.48253 0
M  V30 2892 H 269.053 -1.25748 3.55622 0
M  V30 2893 H 271.44 -1.43256 2.57995 0
M  V30 2894 H 271.521 0.334449 2.53604 0
M  V30 2895 H 271.165 0.391313 5.0639 0
M  V30 2896 H 271.095 -1.38876 5.07958 0
M  V30 2897 H 273.586 -0.60161 3.73081 0
M  V30 2898 H 273.899 -0.60894 7.70397 0
M  V30 2899 H 272.244 -0.554564 6.92784 0
M  V30 2900 H 275.435 -0.661907 4.63397 0
M  V30 2901 H 275.608 -0.665476 6.44574 0
M  V30 2902 N 269.014 -1.53014 -0.377408 0
M  V30 2903 C 269.946 -1.74884 -1.48149 0
M  V30 2904 C 270.959 -0.629433 -1.5014 0
M  V30 2905 O 272.148 -0.905416 -1.53833 0
M  V30 2906 C 269.248 -1.80299 -2.86959 0
M  V30 2907 C 268.421 -3.09776 -3.08801 0
M  V30 2908 C 267.48 -3.06586 -4.27658 0
M  V30 2909 O 266.506 -3.80419 -4.23403 0
M  V30 2910 N 267.708 -2.26578 -5.34455 0
M  V30 2911 H 270.473 -2.70147 -1.29771 0
M  V30 2912 H 268.034 -1.51646 -0.56703 0
M  V30 2913 H 270.026 -1.75657 -3.64591 0
M  V30 2914 H 268.596 -0.92372 -2.98641 0
M  V30 2915 H 267.816 -3.27815 -2.18931 0
M  V30 2916 H 269.104 -3.95366 -3.20255 0
M  V30 2917 H 268.502 -1.66081 -5.40771 0
M  V30 2918 H 267.059 -2.27766 -6.10709 0
M  V30 2919 N 270.492 0.636531 -1.44174 0
M  V30 2920 C 271.908 0.954104 -1.27941 0
M  V30 2921 C 272.108 2.0039 -0.211248 0
M  V30 2922 O 271.164 2.49236 0.404695 0
M  V30 2923 C 272.477 1.4225 -2.64925 0
M  V30 2924 C 274.025 1.53827 -2.72592 0
M  V30 2925 C 274.5 2.04053 -4.10032 0
M  V30 2926 N 275.991 2.11331 -4.12182 0
M  V30 2927 C 276.726 2.51352 -5.15374 0
M  V30 2928 N 276.222 2.90549 -6.2893 0
M  V30 2929 N 278.015 2.51438 -5.02728 0
M  V30 2930 H 270.166 -0.0578386 -2.12321 0
M  V30 2931 H 272.429 0.0367406 -0.947288 0
M  V30 2932 H 272.135 0.725466 -3.44136 0
M  V30 2933 H 272.009 2.39451 -2.9145 0
M  V30 2934 H 274.396 2.22628 -1.93702 0
M  V30 2935 H 274.477 0.550154 -2.49814 0
M  V30 2936 H 274.121 1.35848 -4.89395 0
M  V30 2937 H 274.051 3.03726 -4.30184 0
M  V30 2938 H 276.542 1.83745 -3.30222 0
M  V30 2939 H 276.855 3.19884 -7.03487 0
M  V30 2940 H 275.2 2.88313 -6.32377 0
M  V30 2941 H 278.391 2.20203 -4.13072 0
M  V30 2942 H 278.564 2.82304 -5.83274 0
M  V30 2943 N 271.97 1.30982 0.876444 0
M  V30 2944 C 272.9 1.20668 1.99903 0
M  V30 2945 C 273.881 0.095354 1.69833 0
M  V30 2946 O 275.066 0.27885 1.92188 0
M  V30 2947 C 272.196 0.90655 3.3526 0
M  V30 2948 C 271.15 1.97675 3.79617 0
M  V30 2949 C 270.476 1.52943 5.1236 0
M  V30 2950 C 271.776 3.389 3.97422 0
M  V30 2951 H 273.47 2.14586 2.0879 0
M  V30 2952 H 271.016 1.03308 1.00317 0
M  V30 2953 H 272.969 0.821025 4.13324 0
M  V30 2954 H 271.693 -0.0682969 3.26529 0
M  V30 2955 H 270.352 2.05205 3.03787 0
M  V30 2956 H 270 0.54262 5.00065 0
M  V30 2957 H 269.7 2.24532 5.43009 0
M  V30 2958 H 271.224 1.45786 5.92941 0
M  V30 2959 H 272.638 3.34081 4.659 0
M  V30 2960 H 271.035 4.0865 4.3946 0
M  V30 2961 H 272.105 3.80163 3.01006 0
M  V30 2962 N 273.449 -1.08991 1.13837 0
M  V30 2963 C 274.677 -1.85011 0.926202 0
M  V30 2964 C 275.092 -1.8135 -0.525127 0
M  V30 2965 O 274.449 -1.21287 -1.36366 0
M  V30 2966 C 274.5 -3.32802 1.41155 0
M  V30 2967 O 274.221 -3.36444 2.80601 0
M  V30 2968 C 275.722 -4.25649 1.23847 0
M  V30 2969 H 272.942 -0.584249 0.32999 0
M  V30 2970 H 275.486 -1.37688 1.51202 0
M  V30 2971 H 273.641 -3.77536 0.868631 0
M  V30 2972 H 274.055 -4.28657 3.02248 0
M  V30 2973 H 275.529 -5.27485 1.62675 0
M  V30 2974 H 276.006 -4.38828 0.18065 0
M  V30 2975 H 276.612 -3.86735 1.76964 0
M  V30 2976 N 274.927 -0.932562 -1.27047 0
M  V30 2977 C 276.152 -0.591474 -1.98787 0
M  V30 2978 C 276.577 0.824601 -1.69062 0
M  V30 2979 O 275.935 1.5541 -0.933677 0
M  V30 2980 C 275.983 -0.829808 -3.50922 0
M  V30 2981 O 275.087 0.102266 -4.12273 0
M  V30 2982 H 274.428 -0.227185 -0.623926 0
M  V30 2983 H 276.958 -1.25314 -1.61733 0
M  V30 2984 H 276.968 -0.747292 -4.01098 0
M  V30 2985 H 275.643 -1.86201 -3.7189 0
M  V30 2986 H 274.22 -0.0305761 -3.72887 0
M  V30 2987 N 276.405 1.4127 -0.698611 0
M  V30 2988 C 277.368 2.29158 -0.044132 0
M  V30 2989 C 278.368 1.44529 0.704841 0
M  V30 2990 O 279.558 1.65643 0.539276 0
M  V30 2991 C 276.69 3.27459 0.947809 0
M  V30 2992 H 277.883 2.88529 -0.817994 0
M  V30 2993 H 275.436 1.49307 -0.46228 0
M  V30 2994 H 276.171 2.73073 1.74933 0
M  V30 2995 H 275.956 3.8991 0.41385 0
M  V30 2996 H 277.446 3.93311 1.40344 0
M  V30 2997 N 277.883 0.443576 1.51229 0
M  V30 2998 C 279.16 -0.181038 1.9476 0
M  V30 2999 C 279.54 -1.59523 1.38259 0
M  V30 3000 O 278.888 -2.2122 0.572198 0
M  V30 3001 C 279.098 -0.152422 3.48667 0
M  V30 3002 C 280.446 -0.354923 4.23114 0
M  V30 3003 O 281.47 -0.230257 3.55455 0
M  V30 3004 O 280.329 -0.603674 5.43156 0
M  V30 3005 H 277.423 -0.1266 0.817252 0
M  V30 3006 H 279.969 0.502004 1.62105 0
M  V30 3007 H 278.741 0.836022 3.82265 0
M  V30 3008 H 278.364 -0.878107 3.87782 0
M  V30 3009 N 279.361 -1.56624 0.175154 0
M  V30 3010 C 280.772 -1.83561 -0.340916 0
M  V30 3011 C 281.123 -1.09511 -1.62794 0
M  V30 3012 O 280.248 -0.349389 -2.13561 0
M  V30 3013 C 280.843 -3.32979 -0.625313 0
M  V30 3014 C 279.402 -3.60399 -1.08581 0
M  V30 3015 C 278.549 -2.77024 -0.123722 0
M  V30 3016 H 281.5 -1.53593 0.399344 0
M  V30 3017 H 281.521 -3.50666 -1.47694 0
M  V30 3018 H 281.033 -3.86847 0.311575 0
M  V30 3019 H 279.134 -3.11945 -2.03767 0
M  V30 3020 H 279.247 -4.68711 -0.992317 0
M  V30 3021 H 277.611 -2.46993 -0.621821 0
M  V30 3022 H 278.394 -3.33674 0.807256 0
M  V30 3023 N 280.839 0.0985539 -1.57292 0
M  V30 3024 C 281.771 1.14595 -1.98496 0
M  V30 3025 C 282.784 1.36512 -0.887031 0
M  V30 3026 O 283.973 1.35225 -1.16518 0
M  V30 3027 C 281.073 2.50216 -2.28572 0
M  V30 3028 C 280.246 2.48624 -3.59868 0
M  V30 3029 C 279.305 3.66146 -3.7792 0
M  V30 3030 O 278.331 3.48795 -4.49812 0
M  V30 3031 N 279.533 4.85496 -3.18235 0
M  V30 3032 H 282.298 0.795277 -2.88956 0
M  V30 3033 H 279.859 0.287579 -1.59325 0
M  V30 3034 H 281.851 3.27432 -2.37845 0
M  V30 3035 H 280.421 2.77387 -1.44136 0
M  V30 3036 H 279.641 1.56978 -3.61596 0
M  V30 3037 H 280.929 2.44635 -4.46129 0
M  V30 3038 H 280.327 5.02497 -2.59833 0
M  V30 3039 H 278.884 5.60317 -3.32999 0
M  V30 3040 N 282.317 1.53212 0.369288 0
M  V30 3041 C 283.563 1.69466 1.11397 0
M  V30 3042 C 283.896 0.443257 1.89074 0
M  V30 3043 O 283.171 -0.559386 1.86282 0
M  V30 3044 C 283.454 2.9422 2.07621 0
M  V30 3045 C 283.307 4.29508 1.33577 0
M  V30 3046 C 284.626 3.14565 3.07794 0
M  V30 3047 H 281.745 0.616667 0.403597 0
M  V30 3048 H 284.387 1.85845 0.395179 0
M  V30 3049 H 282.537 2.80387 2.68916 0
M  V30 3050 H 284.209 4.55147 0.750955 0
M  V30 3051 H 282.452 4.29088 0.637618 0
M  V30 3052 H 283.123 5.12926 2.03989 0
M  V30 3053 H 285.599 3.2756 2.56601 0
M  V30 3054 H 284.475 4.03297 3.72348 0
M  V30 3055 H 284.736 2.29675 3.77759 0
M  V30 3056 N 283.795 -0.628877 1.44509 0
M  V30 3057 C 284.727 -1.754 1.47538 0
M  V30 3058 C 285.74 -1.58575 0.368506 0
M  V30 3059 O 286.929 -1.66847 0.634376 0
M  V30 3060 C 284.029 -3.1315 1.29577 0
M  V30 3061 C 283.202 -3.56413 2.53551 0
M  V30 3062 C 282.261 -4.7305 2.30457 0
M  V30 3063 O 281.287 -4.81247 3.03957 0
M  V30 3064 N 282.489 -5.64903 1.3366 0
M  V30 3065 H 285.254 -1.73272 2.44534 0
M  V30 3066 H 282.815 -0.813512 1.39977 0
M  V30 3067 H 284.807 -3.88902 1.11971 0
M  V30 3068 H 283.377 -3.09908 0.409371 0
M  V30 3069 H 282.597 -2.70847 2.86419 0
M  V30 3070 H 283.885 -3.82071 3.36005 0
M  V30 3071 H 283.283 -5.60975 0.729604 0
M  V30 3072 H 281.84 -6.40275 1.22032 0
M  V30 3073 N 285.273 -1.31445 -0.869486 0
M  V30 3074 C 286.203 -1.21727 -1.99261 0
M  V30 3075 C 287.184 -0.104359 -1.6978 0
M  V30 3076 O 288.369 -0.289038 -1.92037 0
M  V30 3077 C 285.499 -0.924317 -3.34774 0
M  V30 3078 C 284.453 -1.99685 -3.78563 0
M  V30 3079 C 283.779 -1.55658 -5.11541 0
M  V30 3080 C 285.079 -3.41003 -3.95619 0
M  V30 3081 H 286.773 -2.1569 -2.07649 0
M  V30 3082 H 284.319 -1.03839 -0.997675 0
M  V30 3083 H 286.272 -0.842934 -4.12883 0
M  V30 3084 H 284.996 0.0509793 -3.2656 0
M  V30 3085 H 283.655 -2.06813 -3.02694 0
M  V30 3086 H 283.303 -0.569132 -4.9977 0
M  V30 3087 H 283.003 -2.27409 -5.41811 0
M  V30 3088 H 284.527 -1.48928 -5.92159 0
M  V30 3089 H 285.941 -3.36547 -4.64122 0
M  V30 3090 H 284.338 -4.10975 -4.37286 0
M  V30 3091 H 285.408 -3.81754 -2.98985 0
M  V30 3092 N 286.751 1.08385 -1.14413 0
M  V30 3093 C 287.661 2.18856 -0.844951 0
M  V30 3094 C 288.677 1.73121 0.174668 0
M  V30 3095 O 289.853 2.014 0.00312857 0
M  V30 3096 C 286.918 3.45155 -0.32696 0
M  V30 3097 C 285.979 4.05513 -1.40916 0
M  V30 3098 C 285.212 5.25784 -0.915793 0
M  V30 3099 O 285.435 5.69884 0.242651 0
M  V30 3100 O 284.369 5.77545 -1.69487 0
M  V30 3101 H 288.195 2.46919 -1.76818 0
M  V30 3102 H 285.78 1.17524 -0.922411 0
M  V30 3103 H 287.662 4.21377 -0.0440211 0
M  V30 3104 H 286.337 3.18668 0.568539 0
M  V30 3105 H 285.244 3.30879 -1.74556 0
M  V30 3106 H 286.577 4.3625 -2.27919 0
M  V30 3107 N 288.23 0.939286 1.26551 0
M  V30 3108 C 289.193 0.451987 2.24699 0
M  V30 3109 C 290.193 -0.435869 1.5478 0
M  V30 3110 O 291.383 -0.235314 1.72603 0
M  V30 3111 C 288.515 -0.348801 3.39111 0
M  V30 3112 H 289.708 1.3193 2.69322 0
M  V30 3113 H 287.261 0.721072 1.38673 0
M  V30 3114 H 287.996 -1.23444 2.99887 0
M  V30 3115 H 287.781 0.287945 3.91041 0
M  V30 3116 H 289.271 -0.679726 4.12031 0
M  V30 3117 N 289.708 -1.40897 0.706093 0
M  V30 3118 C 290.671 -2.29131 0.0562841 0
M  V30 3119 C 291.671 -1.44901 -0.697166 0
M  V30 3120 O 292.861 -1.65926 -0.530484 0
M  V30 3121 C 289.993 -3.27957 -0.93043 0
M  V30 3122 H 291.186 -2.88091 0.833284 0
M  V30 3123 H 288.739 -1.4906 0.470192 0
M  V30 3124 H 289.474 -2.73997 -1.73482 0
M  V30 3125 H 289.259 -3.90124 -0.393166 0
M  V30 3126 H 290.749 -3.94049 -1.38256 0
M  V30 3127 N 291.186 -0.45159 -1.50991 0
M  V30 3128 C 292.133 0.352625 -2.2809 0
M  V30 3129 C 293.103 1.0044 -1.32291 0
M  V30 3130 O 294.288 1.02058 -1.6121 0
M  V30 3131 C 291.428 1.43983 -3.13629 0
M  V30 3132 C 290.541 0.804772 -4.24438 0
M  V30 3133 C 289.676 1.86822 -4.97263 0
M  V30 3134 C 288.715 1.21236 -5.99973 0
M  V30 3135 N 287.852 2.2178 -6.66152 0
M  V30 3136 H 292.692 -0.311186 -2.96371 0
M  V30 3137 H 290.229 -0.165308 -1.46168 0
M  V30 3138 H 292.187 2.08161 -3.61559 0
M  V30 3139 H 290.817 2.07307 -2.47434 0
M  V30 3140 H 289.869 0.0509129 -3.80366 0
M  V30 3141 H 291.181 0.286076 -4.97979 0
M  V30 3142 H 290.335 2.58628 -5.48813 0
M  V30 3143 H 289.074 2.42068 -4.23385 0
M  V30 3144 H 288.079 0.479828 -5.47702 0
M  V30 3145 H 289.304 0.667051 -6.75816 0
M  V30 3146 H 287.25 2.76079 -5.95077 0
M  V30 3147 H 287.167 1.74841 -7.35504 0
M  V30 3148 H 288.435 2.93026 -7.22327 0
M  V30 3149 N 292.664 1.56529 -0.183458 0
M  V30 3150 C 293.594 2.21549 0.737456 0
M  V30 3151 C 294.575 1.17489 1.23005 0
M  V30 3152 O 295.76 1.45959 1.281 0
M  V30 3153 C 292.89 2.86575 1.96194 0
M  V30 3154 C 291.844 3.96778 1.60473 0
M  V30 3155 C 291.17 4.48911 2.90487 0
M  V30 3156 C 292.47 5.15767 0.823497 0
M  V30 3157 H 294.164 2.98761 0.195453 0
M  V30 3158 H 291.71 1.43702 0.0925686 0
M  V30 3159 H 293.663 3.30739 2.61131 0
M  V30 3160 H 292.387 2.06749 2.52828 0
M  V30 3161 H 291.046 3.53286 0.978997 0
M  V30 3162 H 290.694 3.65862 3.45186 0
M  V30 3163 H 290.394 5.23265 2.67335 0
M  V30 3164 H 291.918 4.95771 3.56432 0
M  V30 3165 H 293.332 5.56549 1.37571 0
M  V30 3166 H 291.729 5.96114 0.690551 0
M  V30 3167 H 292.799 4.84574 -0.177782 0
M  V30 3168 N 294.142 -0.090211 1.57342 0
M  V30 3169 C 295.388 -0.788838 1.8748 0
M  V30 3170 C 295.743 -1.76105 0.7749 0
M  V30 3171 O 295.036 -1.90302 -0.222663 0
M  V30 3172 C 295.23 -1.55222 3.21933 0
M  V30 3173 C 295.059 -0.655441 4.44898 0
M  V30 3174 C 293.829 -0.299325 5.04413 0
M  V30 3175 C 296.027 0.0397458 5.14285 0
M  V30 3176 N 294.009 0.605108 6.10911 0
M  V30 3177 C 295.38 0.802061 6.1479 0
M  V30 3178 C 297.435 0.113154 4.97771 0
M  V30 3179 C 296.138 1.63093 7.00566 0
M  V30 3180 C 298.164 0.928942 5.84059 0
M  V30 3181 C 297.526 1.67936 6.84088 0
M  V30 3182 H 293.625 -0.26467 0.735849 0
M  V30 3183 H 296.209 -0.0511453 1.94633 0
M  V30 3184 H 294.38 -2.26076 3.15823 0
M  V30 3185 H 296.112 -2.19843 3.39781 0
M  V30 3186 H 292.867 -0.648079 4.69145 0
M  V30 3187 H 293.291 1.05002 6.68808 0
M  V30 3188 H 297.933 -0.452676 4.2037 0
M  V30 3189 H 295.651 2.20781 7.77355 0
M  V30 3190 H 299.237 0.988478 5.73341 0
M  V30 3191 H 298.117 2.30044 7.49699 0
M  V30 3192 N 295.62 -1.53406 -0.361157 0
M  V30 3193 C 296.845 -1.74024 -1.12829 0
M  V30 3194 C 297.27 -0.470069 -1.82132 0
M  V30 3195 O 296.628 0.57619 -1.719 0
M  V30 3196 C 296.676 -2.90903 -2.13091 0
M  V30 3197 O 295.78 -2.59821 -3.20261 0
M  V30 3198 H 295.121 -0.577804 -0.327168 0
M  V30 3199 H 297.651 -2.00307 -0.41693 0
M  V30 3200 H 297.661 -3.17194 -2.56616 0
M  V30 3201 H 296.336 -3.83034 -1.62042 0
M  V30 3202 H 294.913 -2.44362 -2.81677 0
M  V30 3203 N 297.098 0.621204 -1.44841 0
M  V30 3204 C 298.344 1.3826 -1.48365 0
M  V30 3205 C 298.677 1.93831 -0.119624 0
M  V30 3206 O 297.952 1.74251 0.864111 0
M  V30 3207 C 298.235 2.54058 -2.55199 0
M  V30 3208 C 298.088 2.03772 -4.00995 0
M  V30 3209 C 299.407 3.56225 -2.58442 0
M  V30 3210 H 296.526 0.501374 -0.540179 0
M  V30 3211 H 299.168 0.7015 -1.76576 0
M  V30 3212 H 297.318 3.12162 -2.31274 0
M  V30 3213 H 298.99 1.50423 -4.36086 0
M  V30 3214 H 297.233 1.34876 -4.12299 0
M  V30 3215 H 297.904 2.87185 -4.71411 0
M  V30 3216 H 300.38 3.07939 -2.79844 0
M  V30 3217 H 299.256 4.34756 -3.3508 0
M  V30 3218 H 299.517 4.10949 -1.63013 0
M  V30 3219 N 298.576 1.31904 0.862503 0
M  V30 3220 C 299.822 1.23207 1.61838 0
M  V30 3221 C 300.177 -0.206062 1.91293 0
M  V30 3222 O 299.47 -1.14162 1.53875 0
M  V30 3223 C 299.664 2.01713 2.95037 0
M  V30 3224 C 299.493 3.53014 2.78588 0
M  V30 3225 C 298.263 4.22359 2.77382 0
M  V30 3226 C 300.461 4.47819 2.52909 0
M  V30 3227 N 298.443 5.59766 2.52062 0
M  V30 3228 C 299.814 5.72947 2.36922 0
M  V30 3229 C 301.869 4.37162 2.38314 0
M  V30 3230 C 300.572 6.88623 2.07823 0
M  V30 3231 C 302.598 5.5263 2.10604 0
M  V30 3232 C 301.96 6.76752 1.95411 0
M  V30 3233 H 298.059 0.505984 0.596242 0
M  V30 3234 H 300.643 1.66179 1.01452 0
M  V30 3235 H 298.814 1.61098 3.53415 0
M  V30 3236 H 300.546 1.84975 3.59953 0
M  V30 3237 H 297.301 3.74401 2.90036 0
M  V30 3238 H 297.725 6.32135 2.42352 0
M  V30 3239 H 302.367 3.41857 2.48784 0
M  V30 3240 H 300.085 7.83948 1.9609 0
M  V30 3241 H 303.671 5.46307 2.00101 0
M  V30 3242 H 302.551 7.6459 1.74274 0
M  V30 3243 N 300.054 -1.07777 1.14986 0
M  V30 3244 C 300.964 -2.18404 0.856546 0
M  V30 3245 C 301.98 -1.73211 -0.165485 0
M  V30 3246 O 303.156 -2.01399 0.00755219 0
M  V30 3247 C 300.221 -3.44977 0.34526 0
M  V30 3248 C 299.282 -4.0476 1.43065 0
M  V30 3249 C 298.515 -5.25291 0.943663 0
M  V30 3250 O 298.738 -5.70004 -0.212426 0
M  V30 3251 O 297.672 -5.76638 1.72547 0
M  V30 3252 H 301.498 -2.45978 1.78125 0
M  V30 3253 H 299.083 -1.17033 0.928631 0
M  V30 3254 H 300.965 -4.21348 0.0663671 0
M  V30 3255 H 299.64 -3.18965 -0.551631 0
M  V30 3256 H 298.547 -3.29949 1.76309 0
M  V30 3257 H 299.88 -4.35035 2.30229 0
M  V30 3258 N 301.532 -0.945985 -1.26051 0
M  V30 3259 C 302.78 -0.594941 -1.93145 0
M  V30 3260 C 303.101 0.86953 -1.7454 0
M  V30 3261 O 302.371 1.61838 -1.10387 0
M  V30 3262 H 300.951 -0.217044 -0.714773 0
M  V30 3263 H 303.613 -1.20235 -1.53393 0
M  V30 3264 H 302.709 -0.816835 -3.01221 0
M  V30 3265 N 303.011 1.40521 -0.713556 0
M  V30 3266 C 303.921 2.34522 -0.0606667 0
M  V30 3267 C 304.937 1.57193 0.74607 0
M  V30 3268 O 306.113 1.89591 0.679493 0
M  V30 3269 C 303.178 3.36081 0.851491 0
M  V30 3270 C 302.239 4.29286 0.0349339 0
M  V30 3271 C 301.472 5.25994 0.903649 0
M  V30 3272 O 301.695 5.28616 2.14292 0
M  V30 3273 O 300.629 6.00918 0.343723 0
M  V30 3274 H 304.455 2.91968 -0.835972 0
M  V30 3275 H 302.04 1.41681 -0.47402 0
M  V30 3276 H 303.922 3.98369 1.37404 0
M  V30 3277 H 302.597 2.81052 1.60598 0
M  V30 3278 H 301.504 3.70289 -0.532633 0
M  V30 3279 H 302.837 4.87462 -0.681287 0
M  V30 3280 N 304.489 0.459591 1.5075 0
M  V30 3281 C 305.717 -0.0973749 2.06671 0
M  V30 3282 C 306.132 -1.34524 1.32472 0
M  V30 3283 O 305.489 -1.7827 0.390634 0
M  V30 3284 C 305.54 -0.39714 3.59312 0
M  V30 3285 O 305.261 0.801214 4.30711 0
M  V30 3286 C 306.762 -1.00234 4.31819 0
M  V30 3287 H 303.982 0.00195854 0.670997 0
M  V30 3288 H 306.526 0.645072 1.94059 0
M  V30 3289 H 304.681 -1.08951 3.71764 0
M  V30 3290 H 305.095 0.538857 5.21725 0
M  V30 3291 H 306.569 -1.16193 5.39632 0
M  V30 3292 H 307.046 -1.98939 3.91561 0
M  V30 3293 H 307.652 -0.348699 4.23868 0
M  V30 3294 N 305.967 -1.56429 0.191757 0
M  V30 3295 C 307.213 -1.97777 -0.448554 0
M  V30 3296 C 307.546 -1.07847 -1.61501 0
M  V30 3297 O 306.821 -0.129774 -1.94067 0
M  V30 3298 C 307.104 -3.48362 -0.911906 0
M  V30 3299 C 306.957 -4.4907 0.256136 0
M  V30 3300 C 308.276 -4.02561 -1.77857 0
M  V30 3301 H 305.395 -0.719071 -0.161572 0
M  V30 3302 H 308.037 -1.87896 0.282007 0
M  V30 3303 H 306.187 -3.56914 -1.53442 0
M  V30 3304 H 307.859 -4.5256 0.893733 0
M  V30 3305 H 306.102 -4.24181 0.908436 0
M  V30 3306 H 306.773 -5.51889 -0.11053 0
M  V30 3307 H 309.249 -3.96767 -1.25359 0
M  V30 3308 H 308.125 -5.08301 -2.07174 0
M  V30 3309 H 308.386 -3.47616 -2.73158 0
M  V30 3310 N 307.445 0.0818655 -1.57387 0
M  V30 3311 C 308.673 0.796108 -1.9097 0
M  V30 3312 C 309.088 1.71626 -0.786757 0
M  V30 3313 O 308.445 1.80908 0.240513 0
M  V30 3314 C 308.496 1.59829 -3.24248 0
M  V30 3315 O 308.217 0.715131 -4.32224 0
M  V30 3316 C 309.718 2.41442 -3.7178 0
M  V30 3317 H 306.938 0.22691 -0.631469 0
M  V30 3318 H 309.482 0.0551439 -2.04426 0
M  V30 3319 H 307.637 2.29163 -3.12351 0
M  V30 3320 H 308.051 1.27205 -5.08841 0
M  V30 3321 H 309.525 2.932 -4.67694 0
M  V30 3322 H 310.002 3.2051 -3.00283 0
M  V30 3323 H 310.608 1.77283 -3.86589 0
M  V30 3324 N 308.923 1.53595 0.353017 0
M  V30 3325 C 309.853 1.83902 1.43883 0
M  V30 3326 C 310.834 0.693421 1.55324 0
M  V30 3327 O 312.019 0.944452 1.69687 0
M  V30 3328 C 309.149 2.04016 2.8106 0
M  V30 3329 C 308.103 3.19814 2.84434 0
M  V30 3330 C 307.429 3.25244 4.24406 0
M  V30 3331 C 308.729 4.58133 2.50822 0
M  V30 3332 H 310.423 2.74835 1.1877 0
M  V30 3333 H 307.969 1.32242 0.569917 0
M  V30 3334 H 309.922 2.238 3.57059 0
M  V30 3335 H 308.646 1.09804 3.07588 0
M  V30 3336 H 307.305 2.9987 2.10887 0
M  V30 3337 H 306.953 2.28646 4.48029 0
M  V30 3338 H 306.653 4.03054 4.27576 0
M  V30 3339 H 308.177 3.47228 5.0226 0
M  V30 3340 H 309.591 4.77995 3.16534 0
M  V30 3341 H 307.988 5.38276 2.6529 0
M  V30 3342 H 309.058 4.62387 1.46034 0
M  V30 3343 N 310.401 -0.613514 1.45168 0
M  V30 3344 C 311.331 -1.7354 1.56225 0
M  V30 3345 C 312.312 -1.64981 0.41414 0
M  V30 3346 O 313.497 -1.83472 0.636526 0
M  V30 3347 C 310.627 -3.12128 1.52295 0
M  V30 3348 C 309.581 -3.35491 2.65762 0
M  V30 3349 C 308.907 -4.74291 2.46885 0
M  V30 3350 C 310.207 -3.26325 4.0781 0
M  V30 3351 H 311.901 -1.64543 2.50132 0
M  V30 3352 H 309.447 -0.790185 1.20383 0
M  V30 3353 H 311.4 -3.90404 1.58628 0
M  V30 3354 H 310.124 -3.2195 0.549139 0
M  V30 3355 H 308.783 -2.59603 2.58847 0
M  V30 3356 H 308.431 -4.80839 1.47657 0
M  V30 3357 H 308.131 -4.9088 3.22972 0
M  V30 3358 H 309.655 -5.54775 2.55063 0
M  V30 3359 H 311.069 -3.94483 4.16 0
M  V30 3360 H 309.466 -3.54445 4.8424 0
M  V30 3361 H 310.536 -2.23855 4.30136 0
M  V30 3362 N 311.879 -1.3236 -0.855495 0
M  V30 3363 C 313.29 -1.2056 -1.42556 0
M  V30 3364 C 313.641 0.182209 -1.95352 0
M  V30 3365 O 312.766 1.08088 -1.87472 0
M  V30 3366 C 313.361 -2.1826 -2.59129 0
M  V30 3367 C 311.92 -2.10351 -3.12137 0
M  V30 3368 C 311.067 -2.06674 -1.84882 0
M  V30 3369 H 314.018 -1.442 -0.662727 0
M  V30 3370 H 314.039 -1.78064 -3.36264 0
M  V30 3371 H 313.551 -3.19257 -2.20673 0
M  V30 3372 H 311.652 -1.12599 -3.55179 0
M  V30 3373 H 311.765 -3.00135 -3.73438 0
M  V30 3374 H 310.129 -1.51901 -2.04446 0
M  V30 3375 H 310.912 -3.09451 -1.48643 0
M  V30 3376 N 313.357 1.07166 -1.15556 0
M  V30 3377 C 314.582 1.84053 -0.955988 0
M  V30 3378 C 315.007 1.81586 0.490739 0
M  V30 3379 O 314.365 1.21018 1.34997 0
M  V30 3380 C 314.413 3.28957 -1.47714 0
M  V30 3381 O 313.517 4.06795 -0.677593 0
M  V30 3382 H 312.858 0.569842 -0.340847 0
M  V30 3383 H 315.388 1.35178 -1.53584 0
M  V30 3384 H 315.398 3.79788 -1.4908 0
M  V30 3385 H 314.073 3.30068 -2.53037 0
M  V30 3386 H 312.65 3.6561 -0.733721 0
M  V30 3387 N 314.835 0.952656 1.25548 0
M  V30 3388 C 316.251 0.656769 1.4546 0
M  V30 3389 C 316.451 -0.78633 1.85524 0
M  V30 3390 O 315.507 -1.56183 1.98402 0
M  V30 3391 C 316.82 1.62801 2.52817 0
M  V30 3392 C 318.368 1.63897 2.66659 0
M  V30 3393 C 318.843 2.5978 3.77198 0
M  V30 3394 N 320.334 2.58133 3.84606 0
M  V30 3395 C 321.069 3.29003 4.69621 0
M  V30 3396 N 320.565 4.09339 5.58939 0
M  V30 3397 N 322.358 3.179 4.63569 0
M  V30 3398 H 314.509 1.88526 0.978344 0
M  V30 3399 H 316.772 0.810815 0.491206 0
M  V30 3400 H 316.478 2.65869 2.30232 0
M  V30 3401 H 316.352 1.38898 3.50695 0
M  V30 3402 H 318.739 0.615481 2.8861 0
M  V30 3403 H 318.82 1.91858 1.69187 0
M  V30 3404 H 318.464 3.62254 3.55997 0
M  V30 3405 H 318.394 2.29105 4.7415 0
M  V30 3406 H 320.885 1.99809 3.20757 0
M  V30 3407 H 321.198 4.6034 6.20731 0
M  V30 3408 H 319.543 4.13438 5.58654 0
M  V30 3409 H 322.734 2.54612 3.92798 0
M  V30 3410 H 322.907 3.73398 5.29602 0
M  V30 3411 N 316.313 -1.40141 0.720998 0
M  V30 3412 C 317.223 -2.34486 0.0731031 0
M  V30 3413 C 318.239 -1.57587 -0.737723 0
M  V30 3414 O 319.415 -1.89949 -0.669429 0
M  V30 3415 C 316.48 -3.36528 -0.833656 0
M  V30 3416 C 315.541 -4.29298 -0.0121673 0
M  V30 3417 C 314.774 -5.26466 -0.875742 0
M  V30 3418 O 314.997 -5.29745 -2.11485 0
M  V30 3419 O 313.931 -6.01092 -0.31185 0
M  V30 3420 H 317.757 -2.9152 0.851444 0
M  V30 3421 H 315.342 -1.41427 0.481527 0
M  V30 3422 H 317.224 -3.99093 -1.35289 0
M  V30 3423 H 315.899 -2.81899 -1.59105 0
M  V30 3424 H 314.806 -3.70001 0.552262 0
M  V30 3425 H 316.139 -4.87094 0.707129 0
M  V30 3426 N 317.792 -0.46758 -1.50504 0
M  V30 3427 C 319.017 0.0886943 -2.0721 0
M  V30 3428 C 319.442 1.33057 -1.32956 0
M  V30 3429 O 318.8 1.77354 -0.376197 0
M  V30 3430 C 318.848 0.359202 -3.58806 0
M  V30 3431 O 317.952 1.44034 -3.8643 0
M  V30 3432 H 317.293 -0.0114349 -0.663902 0
M  V30 3433 H 319.823 -0.657613 -1.93744 0
M  V30 3434 H 319.833 0.600742 -4.03553 0
M  V30 3435 H 318.508 -0.548311 -4.1227 0
M  V30 3436 H 317.085 1.18638 -3.53524 0
M  V30 3437 N 319.27 1.56325 -0.20005 0
M  V30 3438 C 320.233 2.18084 0.705132 0
M  V30 3439 C 321.233 1.13666 1.1374 0
M  V30 3440 O 322.423 1.39023 1.04968 0
M  V30 3441 C 319.555 2.78689 1.96329 0
M  V30 3442 H 320.748 2.99435 0.167023 0
M  V30 3443 H 318.301 1.56221 0.0495725 0
M  V30 3444 H 319.036 2.0115 2.5438 0
M  V30 3445 H 318.821 3.55133 1.66202 0
M  V30 3446 H 320.311 3.26096 2.60866 0
M  V30 3447 N 320.748 -0.0735177 1.57428 0
M  V30 3448 C 321.973 -0.789787 1.91774 0
M  V30 3449 C 322.398 -1.70413 0.796306 0
M  V30 3450 O 321.756 -1.79555 -0.250961 0
M  V30 3451 C 321.804 -1.5609 3.25067 0
M  V30 3452 O 320.908 -2.67144 3.14178 0
M  V30 3453 H 320.249 -0.215582 0.628029 0
M  V30 3454 H 322.779 -0.0422781 2.04556 0
M  V30 3455 H 322.789 -1.94052 3.58898 0
M  V30 3456 H 321.464 -0.890015 4.06265 0
M  V30 3457 H 320.041 -2.32052 2.91901 0
M  V30 3458 N 322.226 -1.5378 -0.344866 0
M  V30 3459 C 323.473 -1.70963 -1.08526 0
M  V30 3460 C 323.801 -0.472126 -1.88683 0
M  V30 3461 O 323.056 0.546116 -1.87926 0
M  V30 3462 C 323.355 -2.92407 -2.05506 0
M  V30 3463 C 323.021 -4.28066 -1.41671 0
M  V30 3464 C 321.683 -4.64951 -1.2399 0
M  V30 3465 C 324.035 -5.12344 -0.956726 0
M  V30 3466 C 321.363 -5.83733 -0.589277 0
M  V30 3467 C 323.715 -6.3179 -0.320015 0
M  V30 3468 C 322.379 -6.67372 -0.130881 0
M  V30 3469 H 321.649 -0.625598 -0.397124 0
M  V30 3470 H 324.296 -1.87995 -0.36469 0
M  V30 3471 H 322.601 -2.69973 -2.8394 0
M  V30 3472 H 324.298 -3.02895 -2.62784 0
M  V30 3473 H 320.888 -3.99034 -1.56429 0
M  V30 3474 H 325.072 -4.8438 -1.08118 0
M  V30 3475 H 320.328 -6.09877 -0.431344 0
M  V30 3476 H 324.502 -6.96386 0.0445072 0
M  V30 3477 H 322.129 -7.59273 0.375318 0
M  V30 3478 N 323.704 0.605807 -1.45491 0
M  V30 3479 C 324.952 1.36207 -1.49305 0
M  V30 3480 C 325.273 1.94519 -0.136863 0
M  V30 3481 O 324.543 1.77261 0.833983 0
M  V30 3482 H 323.123 0.50565 -0.549843 0
M  V30 3483 H 325.785 0.711239 -1.81459 0
M  V30 3484 H 324.881 2.18058 -2.23287 0
M  V30 3485 N 325.182 1.32811 0.848464 0
M  V30 3486 C 326.092 1.24278 1.98978 0
M  V30 3487 C 327.108 0.155176 1.73307 0
M  V30 3488 O 328.284 0.376999 1.9784 0
M  V30 3489 C 325.349 0.972444 3.32783 0
M  V30 3490 C 324.41 2.14911 3.71634 0
M  V30 3491 C 323.643 1.89157 4.99054 0
M  V30 3492 O 323.866 0.837165 5.64223 0
M  V30 3493 O 322.8 2.75433 5.35183 0
M  V30 3494 H 326.626 2.20238 2.09115 0
M  V30 3495 H 324.211 1.12762 0.980052 0
M  V30 3496 H 326.093 0.838432 4.12975 0
M  V30 3497 H 324.768 0.043051 3.23671 0
M  V30 3498 H 323.675 2.33862 2.91992 0
M  V30 3499 H 325.008 3.06151 3.85399 0
M  V30 3500 N 326.66 -1.06551 1.16123 0
M  V30 3501 C 327.937 -1.76097 0.85142 0
M  V30 3502 C 328.317 -2.00802 -0.6513 0
M  V30 3503 O 327.665 -1.63302 -1.59827 0
M  V30 3504 C 327.875 -3.06384 1.67122 0
M  V30 3505 C 329.223 -3.80585 1.88255 0
M  V30 3506 O 330.247 -3.16218 1.63966 0
M  V30 3507 O 329.106 -4.96212 2.2899 0
M  V30 3508 H 326.2 -0.765102 0.313923 0
M  V30 3509 H 328.746 -1.12844 1.26745 0
M  V30 3510 H 327.518 -2.84071 2.69108 0
M  V30 3511 H 327.141 -3.77371 1.25206 0
M  V30 3512 N 328.138 -0.959301 -1.25041 0
M  V30 3513 C 329.415 -0.533805 -1.88175 0
M  V30 3514 C 329.795 0.988994 -1.865 0
M  V30 3515 O 329.143 1.85677 -1.33177 0
M  V30 3516 C 329.353 -1.11575 -3.30684 0
M  V30 3517 C 330.701 -1.19548 -4.07423 0
M  V30 3518 O 331.725 -1.06765 -3.39823 0
M  V30 3519 O 330.584 -1.39656 -5.28354 0
M  V30 3520 H 327.678 -0.176772 -0.807887 0
M  V30 3521 H 330.224 -1.05303 -1.33076 0
M  V30 3522 H 328.996 -2.15884 -3.26358 0
M  V30 3523 H 328.619 -0.580059 -3.93346 0
M  V30 3524 N 329.616 1.39756 -0.72842 0
M  V30 3525 C 330.863 2.00645 -0.273487 0
M  V30 3526 C 331.191 1.57786 1.13727 0
M  V30 3527 O 330.446 0.794886 1.7883 0
M  V30 3528 C 330.745 3.56002 -0.315776 0
M  V30 3529 C 330.411 4.18489 -1.67863 0
M  V30 3530 C 329.073 4.3527 -2.05166 0
M  V30 3531 C 331.425 4.53219 -2.57375 0
M  V30 3532 C 328.753 4.84069 -3.31503 0
M  V30 3533 C 331.105 5.03423 -3.83077 0
M  V30 3534 C 329.769 5.18413 -4.20481 0
M  V30 3535 H 329.039 0.734211 -0.100076 0
M  V30 3536 H 331.686 1.6718 -0.933972 0
M  V30 3537 H 329.991 3.89452 0.428285 0
M  V30 3538 H 331.688 4.00963 0.0542575 0
M  V30 3539 H 328.278 4.05824 -1.37858 0
M  V30 3540 H 332.462 4.39878 -2.29827 0
M  V30 3541 H 327.718 4.93859 -3.60435 0
M  V30 3542 H 331.892 5.2927 -4.52599 0
M  V30 3543 H 329.519 5.55987 -5.18443 0
M  V30 3544 N 331.094 0.475555 1.50254 0
M  V30 3545 C 332.057 -0.305016 2.27161 0
M  V30 3546 C 333.057 -0.916519 1.32123 0
M  V30 3547 O 334.247 -0.785003 1.5551 0
M  V30 3548 C 331.379 -1.43496 3.09227 0
M  V30 3549 H 332.572 0.369511 2.97615 0
M  V30 3550 H 330.125 0.229747 1.54602 0
M  V30 3551 H 330.86 -2.14441 2.43281 0
M  V30 3552 H 330.645 -1.00223 3.79075 0
M  V30 3553 H 332.135 -1.98548 3.67381 0
M  V30 3554 N 332.573 -1.56217 0.208337 0
M  V30 3555 C 333.503 -2.22694 -0.702116 0
M  V30 3556 C 334.484 -1.19432 -1.2112 0
M  V30 3557 O 335.669 -1.47978 -1.25762 0
M  V30 3558 C 332.799 -2.8966 -1.9161 0
M  V30 3559 C 331.753 -3.9928 -1.5414 0
M  V30 3560 C 331.079 -4.53476 -2.83308 0
M  V30 3561 C 332.379 -5.17012 -0.741339 0
M  V30 3562 H 334.073 -2.99034 -0.147898 0
M  V30 3563 H 331.619 -1.43831 -0.0696951 0
M  V30 3564 H 333.572 -3.34852 -2.55836 0
M  V30 3565 H 332.296 -2.10746 -2.49507 0
M  V30 3566 H 330.955 -3.54799 -0.922668 0
M  V30 3567 H 330.603 -3.71308 -3.39322 0
M  V30 3568 H 330.303 -5.27451 -2.58976 0
M  V30 3569 H 331.827 -5.01378 -3.485 0
M  V30 3570 H 333.241 -5.58667 -1.28699 0
M  V30 3571 H 331.638 -5.97137 -0.595627 0
M  V30 3572 H 332.708 -4.8423 0.254851 0
M  V30 3573 N 334.051 0.0651679 -1.57465 0
M  V30 3574 C 335.014 1.06117 -2.03155 0
M  V30 3575 C 336.014 1.31204 -0.929632 0
M  V30 3576 O 337.204 1.26813 -1.19432 0
M  V30 3577 C 334.336 2.4032 -2.41783 0
M  V30 3578 H 335.529 0.667231 -2.92383 0
M  V30 3579 H 333.082 0.311075 -1.53173 0
M  V30 3580 H 333.817 2.84532 -1.55601 0
M  V30 3581 H 333.602 2.23451 -3.22199 0
M  V30 3582 H 335.092 3.11898 -2.77685 0
M  V30 3583 N 335.529 1.53961 0.336706 0
M  V30 3584 C 336.776 1.71536 1.07618 0
M  V30 3585 C 337.104 0.482125 1.8843 0
M  V30 3586 O 336.359 -0.536142 1.88213 0
M  V30 3587 C 336.658 2.93493 2.03953 0
M  V30 3588 C 336.324 4.28811 1.39399 0
M  V30 3589 C 334.986 4.65602 1.21523 0
M  V30 3590 C 337.338 5.12844 0.929541 0
M  V30 3591 C 334.666 5.84037 0.558312 0
M  V30 3592 C 337.018 6.31951 0.286505 0
M  V30 3593 C 335.682 6.67432 0.0954869 0
M  V30 3594 H 334.952 0.627696 0.393801 0
M  V30 3595 H 337.599 1.88186 0.354715 0
M  V30 3596 H 335.904 2.71475 2.82504 0
M  V30 3597 H 337.601 3.04285 2.61174 0
M  V30 3598 H 334.191 3.99858 1.54311 0
M  V30 3599 H 338.375 4.84947 1.05548 0
M  V30 3600 H 333.631 6.10097 0.398995 0
M  V30 3601 H 337.805 6.96352 -0.0814376 0
M  V30 3602 H 335.432 7.59063 -0.415579 0
M  V30 3603 N 337.007 -0.598083 1.45811 0
M  V30 3604 C 337.97 -1.69018 1.54808 0
M  V30 3605 C 338.97 -1.55037 0.426652 0
M  V30 3606 O 340.16 -1.59932 0.690456 0
M  V30 3607 C 337.292 -3.0835 1.45371 0
M  V30 3608 H 338.485 -1.62403 2.52121 0
M  V30 3609 H 336.038 -0.814626 1.33392 0
M  V30 3610 H 336.773 -3.20534 0.492793 0
M  V30 3611 H 336.558 -3.19907 2.26721 0
M  V30 3612 H 338.048 -3.8788 1.54721 0
M  V30 3613 N 338.485 -1.33259 -0.841409 0
M  V30 3614 C 339.901 -1.12538 -1.13169 0
M  V30 3615 C 340.101 0.0854037 -2.01319 0
M  V30 3616 O 339.157 0.766417 -2.40587 0
M  V30 3617 C 340.47 -2.41156 -1.79623 0
M  V30 3618 C 342.018 -2.47038 -1.922 0
M  V30 3619 C 342.493 -3.7561 -2.6207 0
M  V30 3620 N 343.984 -3.76667 -2.69585 0
M  V30 3621 C 344.719 -4.72861 -3.2433 0
M  V30 3622 N 344.215 -5.79428 -3.79783 0
M  V30 3623 N 346.008 -4.6034 -3.22558 0
M  V30 3624 H 338.159 -2.10868 -0.254676 0
M  V30 3625 H 340.422 -0.931615 -0.175493 0
M  V30 3626 H 340.128 -3.29747 -1.22311 0
M  V30 3627 H 340.002 -2.53114 -2.79666 0
M  V30 3628 H 342.389 -1.58898 -2.48667 0
M  V30 3629 H 342.47 -2.39022 -0.911148 0
M  V30 3630 H 342.114 -4.64131 -2.06263 0
M  V30 3631 H 342.044 -3.80902 -3.63622 0
M  V30 3632 H 344.535 -2.99648 -2.30259 0
M  V30 3633 H 344.848 -6.48867 -4.19752 0
M  V30 3634 H 343.193 -5.83166 -3.78078 0
M  V30 3635 H 346.384 -3.76244 -2.78492 0
M  V30 3636 H 346.557 -5.35478 -3.64921 0
M  V30 3637 N 339.963 1.05934 -1.16686 0
M  V30 3638 C 341.212 1.78188 -0.945085 0
M  V30 3639 C 341.525 1.88338 0.528021 0
M  V30 3640 O 342.731 2.57258 0.867799 0
M  V30 3641 C 341.187 3.20277 -1.64167 0
M  V30 3642 C 340.795 3.18281 -3.15279 0
M  V30 3643 C 342.539 3.97039 -1.502 0
M  V30 3644 C 340.446 4.55112 -3.7766 0
M  V30 3645 H 339.376 0.667866 -0.349959 0
M  V30 3646 H 342.027 1.18794 -1.39858 0
M  V30 3647 H 340.409 3.79952 -1.11589 0
M  V30 3648 H 341.583 2.68167 -3.74731 0
M  V30 3649 H 339.898 2.55018 -3.29173 0
M  V30 3650 H 342.495 4.98194 -1.94183 0
M  V30 3651 H 342.838 4.13845 -0.451461 0
M  V30 3652 H 343.371 3.43894 -1.99954 0
M  V30 3653 H 340.11 4.43512 -4.82677 0
M  V30 3654 H 339.63 5.05406 -3.22994 0
M  V30 3655 H 341.309 5.24064 -3.79428 0
M  V30 3656 N 341.441 0.965919 1.2453 0
M  V30 3657 C 342.351 0.502154 2.29163 0
M  V30 3658 C 343.367 -0.436017 1.68448 0
M  V30 3659 O 344.543 -0.309497 1.99008 0
M  V30 3660 C 341.608 -0.201956 3.46111 0
M  V30 3661 C 340.669 0.775821 4.22232 0
M  V30 3662 C 339.902 0.105217 5.33596 0
M  V30 3663 O 340.125 -1.10683 5.59558 0
M  V30 3664 O 339.059 0.796475 5.96607 0
M  V30 3665 H 342.885 1.37194 2.70946 0
M  V30 3666 H 340.47 0.732875 1.30189 0
M  V30 3667 H 342.352 -0.597564 4.17142 0
M  V30 3668 H 341.027 -1.04673 3.06309 0
M  V30 3669 H 339.934 1.22185 3.53584 0
M  V30 3670 H 341.267 1.58896 4.65846 0
M  V30 3671 N 342.919 -1.39368 0.735821 0
M  V30 3672 C 343.867 -2.32443 0.0855131 0
M  V30 3673 C 344.861 -1.53104 -0.724954 0
M  V30 3674 O 346.067 -1.68762 -0.626047 0
M  V30 3675 H 342.442 -0.751948 0.00885257 0
M  V30 3676 H 344.413 -2.84916 0.886883 0
M  V30 3677 C 343.162 -3.38206 -0.806983 0
M  V30 3678 H 342.485 -3.99335 -0.19274 0
M  V30 3679 H 343.925 -4.05779 -1.2296 0
M  V30 3680 C 342.384 -2.75321 -1.94165 0
M  V30 3681 O 342.914 -2.63231 -3.03435 0
M  V30 3682 N 341.12 -2.33396 -1.73132 0
M  V30 3683 H 340.667 -2.4343 -0.842596 0
M  V30 3684 H 340.625 -1.91661 -2.49225 0
M  V30 3685 N 344.397 -0.483516 -1.5 0
M  V30 3686 C 345.347 0.32306 -2.257 0
M  V30 3687 C 346.331 0.950755 -1.29805 0
M  V30 3688 O 347.523 0.861247 -1.54634 0
M  V30 3689 C 344.652 1.39724 -3.13579 0
M  V30 3690 C 343.738 0.776663 -4.16928 0
M  V30 3691 N 344.129 -0.1104 -5.0568 0
M  V30 3692 C 342.427 1.03922 -4.33724 0
M  V30 3693 C 343.128 -0.46387 -5.79848 0
M  V30 3694 N 342.104 0.163987 -5.43353 0
M  V30 3695 H 345.906 -0.360086 -2.91686 0
M  V30 3696 H 343.42 -0.298456 -1.59634 0
M  V30 3697 H 345.417 1.98837 -3.66428 0
M  V30 3698 H 344.077 2.08225 -2.49143 0
M  V30 3699 H 345.088 -0.480069 -5.1567 0
M  V30 3700 H 341.765 1.71829 -3.80501 0
M  V30 3701 H 343.155 -1.18854 -6.61304 0
M  V30 3702 N 345.875 1.56104 -0.216619 0
M  V30 3703 C 347.105 2.02269 0.420802 0
M  V30 3704 C 347.513 1.09575 1.5424 0
M  V30 3705 O 346.856 0.0967308 1.83445 0
M  V30 3706 C 346.918 3.44784 1.01806 0
M  V30 3707 C 346.582 4.56988 0.0325154 0
M  V30 3708 C 347.579 5.14225 -0.766055 0
M  V30 3709 C 345.264 5.02228 -0.0848092 0
M  V30 3710 C 347.258 6.15169 -1.6687 0
M  V30 3711 C 344.945 6.03011 -0.990994 0
M  V30 3712 C 345.943 6.59357 -1.78149 0
M  V30 3713 O 345.631 7.58179 -2.67245 0
M  V30 3714 H 345.363 0.667353 0.107776 0
M  V30 3715 H 347.917 2.02747 -0.329034 0
M  V30 3716 H 346.147 3.41359 1.81689 0
M  V30 3717 H 347.836 3.74626 1.56237 0
M  V30 3718 H 348.602 4.80126 -0.685836 0
M  V30 3719 H 344.481 4.58054 0.520349 0
M  V30 3720 H 348.025 6.59076 -2.28615 0
M  V30 3721 H 343.922 6.36532 -1.07225 0
M  V30 3722 H 344.69 7.75682 -2.61265 0
M  V30 3723 N 347.353 -0.0568162 1.57498 0
M  V30 3724 C 348.6 -0.753104 1.87975 0
M  V30 3725 C 348.928 -1.76815 0.81035 0
M  V30 3726 O 348.183 -1.94756 -0.19199 0
M  V30 3727 C 348.482 -1.48359 3.25153 0
M  V30 3728 C 348.148 -0.60713 4.46794 0
M  V30 3729 C 346.81 -0.365642 4.79809 0
M  V30 3730 C 349.162 -0.000305978 5.212 0
M  V30 3731 C 346.49 0.491905 5.84634 0
M  V30 3732 C 348.842 0.844781 6.26934 0
M  V30 3733 C 347.506 1.096 6.58441 0
M  V30 3734 H 346.776 -0.27558 0.687849 0
M  V30 3735 H 349.423 -0.0135173 1.91495 0
M  V30 3736 H 347.728 -2.29577 3.17492 0
M  V30 3737 H 349.425 -2.02739 3.45974 0
M  V30 3738 H 346.015 -0.805487 4.20963 0
M  V30 3739 H 350.199 -0.173961 4.95995 0
M  V30 3740 H 345.455 0.695131 6.07436 0
M  V30 3741 H 349.629 1.32165 6.83744 0
M  V30 3742 H 347.256 1.76224 7.39492 0
M  V30 3743 N 348.832 -1.54138 -0.328536 0
M  V30 3744 C 350.06 -1.76062 -1.08673 0
M  V30 3745 C 350.475 -0.506852 -1.81869 0
M  V30 3746 O 349.832 0.522223 -1.74869 0
M  V30 3747 C 349.883 -2.95054 -2.08866 0
M  V30 3748 O 349.604 -4.15583 -1.38644 0
M  V30 3749 C 351.105 -3.2915 -2.96943 0
M  V30 3750 H 348.325 -0.587889 -0.323461 0
M  V30 3751 H 350.869 -2.0101 -0.376175 0
M  V30 3752 H 349.024 -2.72394 -2.75464 0
M  V30 3753 H 349.438 -4.82481 -2.05699 0
M  V30 3754 H 350.912 -4.15723 -3.63151 0
M  V30 3755 H 351.389 -2.461 -3.63774 0
M  V30 3756 H 351.995 -3.53871 -2.35914 0
M  V30 3757 N 350.31 0.590341 -1.46126 0
M  V30 3758 C 351.26 1.69466 -1.5253 0
M  V30 3759 C 352.244 1.56179 -0.386917 0
M  V30 3760 O 353.436 1.65223 -0.634858 0
M  V30 3761 C 350.565 3.08245 -1.5113 0
M  V30 3762 C 349.651 3.26856 -2.70233 0
M  V30 3763 N 350.042 3.15657 -3.95214 0
M  V30 3764 C 348.34 3.57775 -2.66296 0
M  V30 3765 C 349.041 3.36066 -4.74799 0
M  V30 3766 N 348.017 3.60865 -4.06543 0
M  V30 3767 H 351.819 1.59326 -2.46966 0
M  V30 3768 H 349.333 0.79414 -1.41659 0
M  V30 3769 H 351.33 3.87492 -1.53804 0
M  V30 3770 H 349.99 3.19521 -0.577636 0
M  V30 3771 H 351.001 2.93686 -4.26578 0
M  V30 3772 H 347.678 3.75782 -1.81918 0
M  V30 3773 H 349.068 3.32655 -5.83772 0
M  V30 3774 N 351.788 1.33704 0.83433 0
M  V30 3775 C 352.718 1.26967 1.95963 0
M  V30 3776 C 353.699 0.149337 1.69443 0
M  V30 3777 O 354.884 0.339852 1.91203 0
M  V30 3778 C 352.014 1.01275 3.32206 0
M  V30 3779 C 350.968 2.09652 3.73136 0
M  V30 3780 C 350.294 1.69166 5.07235 0
M  V30 3781 C 351.594 3.51372 3.86439 0
M  V30 3782 H 353.288 2.2112 2.01857 0
M  V30 3783 H 350.834 1.06447 0.969793 0
M  V30 3784 H 352.787 0.952106 4.10503 0
M  V30 3785 H 351.511 0.0356203 3.26581 0
M  V30 3786 H 350.17 2.14766 2.97104 0
M  V30 3787 H 349.818 0.701437 4.98085 0
M  V30 3788 H 349.518 2.41694 5.35591 0
M  V30 3789 H 351.042 1.64576 5.88003 0
M  V30 3790 H 352.456 3.48734 4.55036 0
M  V30 3791 H 350.853 4.22425 4.26236 0
M  V30 3792 H 351.923 3.89546 2.88759 0
M  V30 3793 N 353.266 -1.05314 1.17247 0
M  V30 3794 C 354.514 -1.77941 0.958194 0
M  V30 3795 C 354.835 -1.88089 -0.514556 0
M  V30 3796 O 354.105 -1.39676 -1.37359 0
M  V30 3797 H 352.685 -0.659116 0.351533 0
M  V30 3798 H 355.347 -1.27166 1.47699 0
M  V30 3799 H 354.443 -2.79663 1.38546 0
M  V30 3800 N 354.744 -0.972509 -1.24016 0
M  V30 3801 C 355.991 -0.637034 -1.92219 0
M  V30 3802 C 356.319 0.828418 -1.75976 0
M  V30 3803 O 355.574 1.61206 -1.10955 0
M  V30 3804 C 355.873 -0.963694 -3.44162 0
M  V30 3805 C 355.539 -2.41807 -3.80579 0
M  V30 3806 C 354.201 -2.81556 -3.9023 0
M  V30 3807 C 356.553 -3.36172 -3.98293 0
M  V30 3808 C 353.881 -4.14702 -4.15017 0
M  V30 3809 C 356.233 -4.68952 -4.24578 0
M  V30 3810 C 354.897 -5.08472 -4.32449 0
M  V30 3811 H 354.167 -0.233107 -0.703379 0
M  V30 3812 H 356.814 -1.2249 -1.47202 0
M  V30 3813 H 355.119 -0.29365 -3.90698 0
M  V30 3814 H 356.816 -0.682449 -3.9515 0
M  V30 3815 H 353.406 -2.09988 -3.73635 0
M  V30 3816 H 357.59 -3.06644 -3.90234 0
M  V30 3817 H 352.846 -4.4494 -4.19331 0
M  V30 3818 H 357.02 -5.42037 -4.37229 0
M  V30 3819 H 354.647 -6.11665 -4.51409 0
M  V30 3820 N 356.222 1.38976 -0.743202 0
M  V30 3821 C 357.152 2.33171 -0.123873 0
M  V30 3822 C 358.133 1.54336 0.71516 0
M  V30 3823 O 359.318 1.82696 0.658467 0
M  V30 3824 C 356.448 3.38474 0.777978 0
M  V30 3825 C 355.402 4.27979 0.0424758 0
M  V30 3826 C 354.728 5.2405 1.06189 0
M  V30 3827 C 356.028 5.10155 -1.1198 0
M  V30 3828 H 357.722 2.85213 -0.910709 0
M  V30 3829 H 355.268 1.37133 -0.439388 0
M  V30 3830 H 357.221 4.03328 1.22084 0
M  V30 3831 H 355.945 2.84891 1.59702 0
M  V30 3832 H 354.604 3.64616 -0.380853 0
M  V30 3833 H 354.252 4.66758 1.87472 0
M  V30 3834 H 353.952 5.84785 0.574485 0
M  V30 3835 H 355.476 5.9178 1.50428 0
M  V30 3836 H 356.89 5.68307 -0.75499 0
M  V30 3837 H 355.287 5.80073 -1.53738 0
M  V30 3838 H 356.357 4.44504 -1.93764 0
M  V30 3839 N 357.7 0.491464 1.49741 0
M  V30 3840 C 358.61 -0.296835 2.32715 0
M  V30 3841 C 359.626 -0.976536 1.44013 0
M  V30 3842 O 360.802 -0.960023 1.77047 0
M  V30 3843 C 357.867 -1.35288 3.19215 0
M  V30 3844 C 356.928 -0.687632 4.23757 0
M  V30 3845 C 356.161 -1.69336 5.06123 0
M  V30 3846 O 356.384 -2.92219 4.89861 0
M  V30 3847 O 355.318 -1.25394 5.88693 0
M  V30 3848 H 359.144 0.382048 3.01287 0
M  V30 3849 H 356.729 0.252953 1.47243 0
M  V30 3850 H 358.611 -1.96411 3.72828 0
M  V30 3851 H 357.286 -2.01487 2.53347 0
M  V30 3852 H 356.193 -0.0369159 3.74082 0
M  V30 3853 H 357.526 -0.0682566 4.92153 0
M  V30 3854 N 359.178 -1.55987 0.224894 0
M  V30 3855 C 360.403 -2.03232 -0.41369 0
M  V30 3856 C 360.828 -1.10359 -1.52323 0
M  V30 3857 O 360.186 -0.092395 -1.81064 0
M  V30 3858 C 360.234 -3.48682 -0.919405 0
M  V30 3859 O 359.338 -3.58947 -2.03054 0
M  V30 3860 H 358.679 -0.657428 -0.0931903 0
M  V30 3861 H 361.209 -2.01679 0.34451 0
M  V30 3862 H 361.219 -3.8907 -1.22835 0
M  V30 3863 H 359.894 -4.15761 -0.107339 0
M  V30 3864 H 358.471 -3.30448 -1.72796 0
M  V30 3865 N 360.656 0.0484629 -1.57525 0
M  V30 3866 C 361.933 0.777447 -1.79486 0
M  V30 3867 C 362.313 1.94597 -0.818251 0
M  V30 3868 O 361.661 2.28047 0.143767 0
M  V30 3869 C 361.871 1.22864 -3.26658 0
M  V30 3870 C 363.219 1.65251 -3.91123 0
M  V30 3871 O 364.243 1.32372 -3.3069 0
M  V30 3872 O 363.102 2.26207 -4.97486 0
M  V30 3873 H 360.196 0.374357 -0.737419 0
M  V30 3874 H 362.742 0.0267359 -1.69679 0
M  V30 3875 H 361.514 0.393589 -3.89316 0
M  V30 3876 H 361.137 2.03996 -3.41279 0
M  V30 3877 N 362.134 1.5431 0.320358 0
M  V30 3878 C 363.411 1.63322 1.07635 0
M  V30 3879 C 363.791 0.46912 2.05821 0
M  V30 3880 O 363.139 -0.536274 2.22118 0
M  V30 3881 C 363.349 3.00465 1.77544 0
M  V30 3882 C 364.697 3.56621 2.30449 0
M  V30 3883 O 365.721 3.02791 1.87606 0
M  V30 3884 O 364.58 4.5083 3.08892 0
M  V30 3885 H 361.674 0.661502 0.496331 0
M  V30 3886 H 364.22 1.66656 0.319992 0
M  V30 3887 H 362.992 3.76629 1.06143 0
M  V30 3888 H 362.615 3.00824 2.59982 0
M  V30 3889 N 363.613 -0.582584 1.46437 0
M  V30 3890 C 364.545 -1.70618 1.53043 0
M  V30 3891 C 365.558 -1.57322 0.418769 0
M  V30 3892 O 366.747 -1.64744 0.687136 0
M  V30 3893 C 363.847 -3.08869 1.39474 0
M  V30 3894 C 363.02 -3.48166 2.64762 0
M  V30 3895 C 362.079 -4.65478 2.4539 0
M  V30 3896 O 361.105 -4.71333 3.19114 0
M  V30 3897 N 362.307 -5.60365 1.51564 0
M  V30 3898 H 365.072 -1.65405 2.49923 0
M  V30 3899 H 362.633 -0.768567 1.42494 0
M  V30 3900 H 364.625 -3.85143 1.24287 0
M  V30 3901 H 363.195 -3.08449 0.507758 0
M  V30 3902 H 362.415 -2.61598 2.9489 0
M  V30 3903 H 363.703 -3.71188 3.4799 0
M  V30 3904 H 363.101 -5.5837 0.907705 0
M  V30 3905 H 361.658 -6.36068 1.4234 0
M  V30 3906 N 365.091 -1.34144 -0.827227 0
M  V30 3907 C 366.021 -1.28005 -1.95287 0
M  V30 3908 C 367.002 -0.158321 -1.69362 0
M  V30 3909 O 368.187 -0.349987 -1.9102 0
M  V30 3910 C 365.317 -1.03036 -3.31664 0
M  V30 3911 C 364.271 -2.11628 -3.72019 0
M  V30 3912 C 363.597 -1.71854 -5.0633 0
M  V30 3913 C 364.897 -3.53417 -3.8457 0
M  V30 3914 H 366.591 -2.22187 -2.00682 0
M  V30 3915 H 364.137 -1.0696 -0.964135 0
M  V30 3916 H 366.09 -0.973863 -4.09993 0
M  V30 3917 H 364.814 -0.0529391 -3.26557 0
M  V30 3918 H 363.473 -2.16339 -2.95961 0
M  V30 3919 H 363.121 -0.727841 -4.97706 0
M  V30 3920 H 362.821 -2.44531 -5.34302 0
M  V30 3921 H 364.345 -1.67692 -5.87122 0
M  V30 3922 H 365.759 -3.51142 -4.5318 0
M  V30 3923 H 364.156 -4.24679 -4.2399 0
M  V30 3924 H 365.226 -3.91072 -2.86689 0
M  V30 3925 N 366.569 1.04691 -1.17803 0
M  V30 3926 C 367.499 2.14494 -0.92275 0
M  V30 3927 C 368.48 1.69546 0.137179 0
M  V30 3928 O 369.665 1.94195 -0.0141108 0
M  V30 3929 C 366.795 3.44491 -0.440803 0
M  V30 3930 C 365.749 4.03031 -1.4405 0
M  V30 3931 C 365.075 5.28432 -0.81631 0
M  V30 3932 C 366.375 4.39932 -2.81527 0
M  V30 3933 H 368.069 2.36107 -1.84103 0
M  V30 3934 H 365.615 1.1347 -0.886599 0
M  V30 3935 H 367.568 4.2066 -0.249602 0
M  V30 3936 H 366.292 3.22546 0.513025 0
M  V30 3937 H 364.951 3.28937 -1.61853 0
M  V30 3938 H 364.599 5.02792 0.144511 0
M  V30 3939 H 364.299 5.68559 -1.48371 0
M  V30 3940 H 365.823 6.07284 -0.635496 0
M  V30 3941 H 367.237 5.07113 -2.67412 0
M  V30 3942 H 365.634 4.9109 -3.44892 0
M  V30 3943 H 366.704 3.50045 -3.35554 0
M  V30 3944 N 368.047 0.979072 1.23499 0
M  V30 3945 C 369.463 0.687475 1.44034 0
M  V30 3946 C 369.663 -0.746801 1.8715 0
M  V30 3947 O 368.719 -1.51939 2.0167 0
M  V30 3948 C 370.032 1.68127 2.49307 0
M  V30 3949 C 371.58 1.69516 2.63122 0
M  V30 3950 C 372.055 2.67723 3.71603 0
M  V30 3951 N 373.546 2.66233 3.79044 0
M  V30 3952 C 374.281 3.38891 4.62537 0
M  V30 3953 N 373.777 4.21103 5.50131 0
M  V30 3954 N 375.57 3.27661 4.56721 0
M  V30 3955 H 367.721 1.90559 0.938135 0
M  V30 3956 H 369.984 0.821051 0.473897 0
M  V30 3957 H 369.69 2.70693 2.2454 0
M  V30 3958 H 369.564 1.46306 3.4767 0
M  V30 3959 H 371.951 0.676561 2.8724 0
M  V30 3960 H 372.032 1.95404 1.65079 0
M  V30 3961 H 371.676 3.69724 3.48233 0
M  V30 3962 H 371.606 2.39111 4.69184 0
M  V30 3963 H 374.097 2.06568 3.16446 0
M  V30 3964 H 374.41 4.73403 6.10827 0
M  V30 3965 H 372.755 4.25195 5.49759 0
M  V30 3966 H 375.946 2.62887 3.87309 0
M  V30 3967 H 376.119 3.84547 5.21562 0
M  V30 3968 N 369.525 -1.3858 0.750561 0
M  V30 3969 C 370.473 -2.32339 0.110162 0
M  V30 3970 C 371.467 -1.53864 -0.708674 0
M  V30 3971 O 372.673 -1.69417 -0.608112 0
M  V30 3972 H 369.048 -0.751812 0.0168275 0
M  V30 3973 H 371.019 -2.83959 0.917053 0
M  V30 3974 C 369.768 -3.39043 -0.771067 0
M  V30 3975 H 369.091 -3.99517 -0.150374 0
M  V30 3976 H 370.531 -4.07061 -1.1865 0
M  V30 3977 C 368.99 -2.77365 -1.91234 0
M  V30 3978 O 369.52 -2.66434 -3.00626 0
M  V30 3979 N 367.726 -2.35219 -1.70646 0
M  V30 3980 H 367.273 -2.4431 -0.81673 0
M  V30 3981 H 367.231 -1.94294 -2.47178 0
M  V30 3982 N 371.003 -0.499398 -1.49478 0
M  V30 3983 C 372.249 0.0457576 -2.02748 0
M  V30 3984 C 372.582 1.36793 -1.37846 0
M  V30 3985 O 371.857 1.87596 -0.513601 0
M  V30 3986 C 372.14 0.199986 -3.59544 0
M  V30 3987 C 371.993 -1.1452 -4.34977 0
M  V30 3988 C 373.312 0.94137 -4.29914 0
M  V30 3989 H 370.431 0.0151552 -0.736844 0
M  V30 3990 H 373.073 -0.650498 -1.78518 0
M  V30 3991 H 371.223 0.793007 -3.8032 0
M  V30 3992 H 372.895 -1.77697 -4.25701 0
M  V30 3993 H 371.138 -1.73488 -3.97598 0
M  V30 3994 H 371.809 -0.990607 -5.43039 0
M  V30 3995 H 374.285 0.43844 -4.13784 0
M  V30 3996 H 373.161 1.01812 -5.39375 0
M  V30 3997 H 373.422 1.98471 -3.95046 0
M  V30 3998 N 372.481 1.55866 -0.233164 0
M  V30 3999 C 373.892 1.847 0.272554 0
M  V30 4000 C 374.243 1.15477 1.58617 0
M  V30 4001 O 373.368 0.42841 2.12117 0
M  V30 4002 C 373.963 3.35071 0.501299 0
M  V30 4003 C 372.522 3.6418 0.951304 0
M  V30 4004 C 371.669 2.77292 0.0208209 0
M  V30 4005 H 374.62 1.52005 -0.456074 0
M  V30 4006 H 374.641 3.55906 1.34577 0
M  V30 4007 H 374.153 3.85424 -0.454936 0
M  V30 4008 H 372.254 3.19293 1.92049 0
M  V30 4009 H 372.367 4.72071 0.817675 0
M  V30 4010 H 370.731 2.49131 0.529723 0
M  V30 4011 H 371.514 3.30448 -0.93054 0
M  V30 4012 N 373.959 -0.0401083 1.57549 0
M  V30 4013 C 374.889 -1.04384 2.08869 0
M  V30 4014 C 375.87 -1.38407 0.988817 0
M  V30 4015 O 377.055 -1.47483 1.26342 0
M  V30 4016 C 374.185 -2.34808 2.55895 0
M  V30 4017 C 373.139 -2.15057 3.70047 0
M  V30 4018 C 372.465 -3.51145 4.03239 0
M  V30 4019 C 373.765 -1.54576 4.98902 0
M  V30 4020 H 375.459 -0.616666 2.92981 0
M  V30 4021 H 373.005 -0.295184 1.40942 0
M  V30 4022 H 374.958 -3.05346 2.90417 0
M  V30 4023 H 373.682 -2.79565 1.68853 0
M  V30 4024 H 372.341 -1.46954 3.35857 0
M  V30 4025 H 371.989 -3.93529 3.13279 0
M  V30 4026 H 371.689 -3.38758 4.80122 0
M  V30 4027 H 373.213 -4.23062 4.40285 0
M  V30 4028 H 374.627 -2.15017 5.31451 0
M  V30 4029 H 373.024 -1.52796 5.80322 0
M  V30 4030 H 374.094 -0.51039 4.82206 0
M  V30 4031 N 375.437 -1.54477 -0.31217 0
M  V30 4032 C 376.686 -1.72438 -1.04633 0
M  V30 4033 C 376.999 -0.511163 -1.88803 0
M  V30 4034 O 378.205 -0.572341 -2.65399 0
M  V30 4035 C 376.661 -3.05043 -1.9099 0
M  V30 4036 C 376.269 -4.33806 -1.11877 0
M  V30 4037 C 378.013 -3.32364 -2.64073 0
M  V30 4038 C 375.92 -5.57467 -1.97445 0
M  V30 4039 H 374.85 -0.642647 -0.394361 0
M  V30 4040 H 377.501 -1.80966 -0.303929 0
M  V30 4041 H 375.883 -2.90451 -2.69173 0
M  V30 4042 H 377.057 -4.59199 -0.383843 0
M  V30 4043 H 375.372 -4.13336 -0.504252 0
M  V30 4044 H 377.969 -4.21951 -3.28423 0
M  V30 4045 H 378.312 -2.50745 -3.32314 0
M  V30 4046 H 378.845 -3.47875 -1.92944 0
M  V30 4047 H 375.584 -6.41722 -1.33692 0
M  V30 4048 H 375.104 -5.36277 -2.6864 0
M  V30 4049 H 376.783 -5.94303 -2.5576 0
M  V30 4050 N 376.915 0.57481 -1.46744 0
M  V30 4051 C 378.331 0.898981 -1.31873 0
M  V30 4052 C 378.531 1.99313 -0.29605 0
M  V30 4053 O 377.587 2.50728 0.298621 0
M  V30 4054 C 378.9 1.30886 -2.7072 0
M  V30 4055 C 380.448 1.42127 -2.78871 0
M  V30 4056 C 380.923 1.86478 -4.18318 0
M  V30 4057 N 382.414 1.93658 -4.20774 0
M  V30 4058 C 383.149 2.29267 -5.2557 0
M  V30 4059 N 382.645 2.63612 -6.40688 0
M  V30 4060 N 384.438 2.29889 -5.1294 0
M  V30 4061 H 376.589 -0.147839 -2.11885 0
M  V30 4062 H 378.852 -0.00347013 -0.947994 0
M  V30 4063 H 378.558 0.578853 -3.46904 0
M  V30 4064 H 378.432 2.26874 -3.01343 0
M  V30 4065 H 380.819 2.14213 -2.0297 0
M  V30 4066 H 380.9 0.443705 -2.51922 0
M  V30 4067 H 380.544 1.14968 -4.94717 0
M  V30 4068 H 380.474 2.85207 -4.42679 0
M  V30 4069 H 382.965 1.69574 -3.37718 0
M  V30 4070 H 383.278 2.89759 -7.16421 0
M  V30 4071 H 381.623 2.61232 -6.44036 0
M  V30 4072 H 384.814 2.02485 -4.22039 0
M  V30 4073 H 384.987 2.57312 -5.94722 0
M  V30 4074 N 378.394 1.34581 0.820102 0
M  V30 4075 C 379.344 1.22943 1.92013 0
M  V30 4076 C 380.328 0.127802 1.60392 0
M  V30 4077 O 381.52 0.357737 1.73347 0
M  V30 4078 C 378.649 0.989938 3.28717 0
M  V30 4079 C 377.735 2.13486 3.66449 0
M  V30 4080 N 378.126 3.38625 3.75722 0
M  V30 4081 C 376.424 2.04573 3.96315 0
M  V30 4082 C 377.125 4.13832 4.08801 0
M  V30 4083 N 376.101 3.42451 4.22171 0
M  V30 4084 H 379.903 2.17771 1.97365 0
M  V30 4085 H 377.417 1.2686 1.01392 0
M  V30 4086 H 379.414 0.887462 4.07345 0
M  V30 4087 H 378.074 0.0503691 3.24661 0
M  V30 4088 H 379.085 3.73143 3.59144 0
M  V30 4089 H 375.762 1.1839 4.00362 0
M  V30 4090 H 377.152 5.21909 4.23156 0
M  V30 4091 N 379.872 -1.04064 1.18357 0
M  V30 4092 C 381.121 -1.76662 0.973313 0
M  V30 4093 C 381.434 -1.89154 -0.497991 0
M  V30 4094 O 382.64 -2.58606 -0.826762 0
M  V30 4095 C 381.096 -3.17624 1.69242 0
M  V30 4096 C 380.704 -3.13225 3.20303 0
M  V30 4097 C 382.448 -3.946 1.56497 0
M  V30 4098 C 380.355 -4.49046 3.84853 0
M  V30 4099 H 379.285 -0.662214 0.36054 0
M  V30 4100 H 381.936 -1.16553 1.41731 0
M  V30 4101 H 380.318 -3.78129 1.1762 0
M  V30 4102 H 381.492 -2.62172 3.78949 0
M  V30 4103 H 379.807 -2.49749 3.33189 0
M  V30 4104 H 382.404 -4.95042 2.02084 0
M  V30 4105 H 382.747 -4.13074 0.517243 0
M  V30 4106 H 383.28 -3.4067 2.05399 0
M  V30 4107 H 380.019 -4.35777 4.89672 0
M  V30 4108 H 379.539 -5.00203 3.30994 0
M  V30 4109 H 381.218 -5.17961 3.87718 0
M  V30 4110 N 381.35 -0.985608 -1.22978 0
M  V30 4111 C 382.761 -0.693593 -1.73338 0
M  V30 4112 C 383.112 0.789935 -1.79595 0
M  V30 4113 O 382.237 1.61771 -1.43733 0
M  V30 4114 C 382.832 -1.25235 -3.14804 0
M  V30 4115 C 381.391 -1.00987 -3.626 0
M  V30 4116 C 380.538 -1.37695 -2.40698 0
M  V30 4117 H 383.489 -1.15884 -1.08428 0
M  V30 4118 H 383.51 -0.627329 -3.75293 0
M  V30 4119 H 383.022 -2.33209 -3.10218 0
M  V30 4120 H 381.123 0.0535565 -3.72562 0
M  V30 4121 H 381.236 -1.66812 -4.49122 0
M  V30 4122 H 379.6 -0.795459 -2.4196 0
M  V30 4123 H 380.383 -2.46657 -2.38779 0
M  V30 4124 N 382.828 1.3818 -0.7579 0
M  V30 4125 C 383.791 2.28764 -0.141286 0
M  V30 4126 C 384.791 1.47388 0.642907 0
M  V30 4127 O 385.981 1.67781 0.468536 0
M  V30 4128 C 383.113 3.31184 0.808069 0
M  V30 4129 H 384.306 2.848 -0.939633 0
M  V30 4130 H 381.859 1.47212 -0.525191 0
M  V30 4131 H 382.594 2.80247 1.63193 0
M  V30 4132 H 382.379 3.91314 0.248104 0
M  V30 4133 H 383.869 3.98909 1.23536 0
M  V30 4134 N 384.306 0.507319 1.49211 0
M  V30 4135 C 385.552 -0.0350047 2.0277 0
M  V30 4136 C 385.885 -1.3606 1.38569 0
M  V30 4137 O 385.16 -1.87321 0.523542 0
M  V30 4138 C 385.443 -0.180916 3.59645 0
M  V30 4139 C 385.296 1.16825 4.34364 0
M  V30 4140 C 386.615 -0.918558 4.30407 0
M  V30 4141 H 383.734 -0.0112473 0.736914 0
M  V30 4142 H 386.376 0.659956 1.7817 0
M  V30 4143 H 384.526 -0.772826 3.80736 0
M  V30 4144 H 386.198 1.79952 4.24753 0
M  V30 4145 H 384.441 1.75594 3.96673 0
M  V30 4146 H 385.112 1.01939 5.42506 0
M  V30 4147 H 387.588 -0.41649 4.1401 0
M  V30 4148 H 386.464 -0.989505 5.39907 0
M  V30 4149 H 386.725 -1.96373 3.96093 0
M  V30 4150 N 385.784 -1.5574 0.241426 0
M  V30 4151 C 387.033 -1.97986 -0.385295 0
M  V30 4152 C 387.346 -1.13267 -1.59468 0
M  V30 4153 O 388.552 -1.45501 -2.2922 0
M  V30 4154 C 387.008 -3.52275 -0.736884 0
M  V30 4155 C 386.616 -4.45726 0.450796 0
M  V30 4156 C 388.36 -4.03189 -1.3281 0
M  V30 4157 C 386.267 -5.91352 0.0756662 0
M  V30 4158 H 385.197 -0.739386 -0.147731 0
M  V30 4159 H 387.848 -1.80308 0.340779 0
M  V30 4160 H 386.23 -3.65628 -1.52094 0
M  V30 4161 H 387.404 -4.44131 1.22819 0
M  V30 4162 H 385.719 -4.05264 0.956573 0
M  V30 4163 H 388.316 -5.09505 -1.62201 0
M  V30 4164 H 388.659 -3.50212 -2.25071 0
M  V30 4165 H 389.192 -3.93141 -0.607069 0
M  V30 4166 H 385.931 -6.48354 0.965272 0
M  V30 4167 H 385.451 -5.96095 -0.665635 0
M  V30 4168 H 387.13 -6.46084 -0.344075 0
M  V30 4169 N 387.262 0.0317525 -1.57568 0
M  V30 4170 C 388.508 0.724175 -1.8943 0
M  V30 4171 C 388.841 1.75149 -0.838836 0
M  V30 4172 O 388.116 1.93948 0.146422 0
M  V30 4173 C 388.399 1.39615 -3.31933 0
M  V30 4174 C 388.252 0.382537 -4.4817 0
M  V30 4175 C 389.571 2.33084 -3.73309 0
M  V30 4176 H 386.69 0.261797 -0.688935 0
M  V30 4177 H 389.332 -0.013017 -1.89996 0
M  V30 4178 H 387.482 2.02451 -3.31581 0
M  V30 4179 H 389.154 -0.243689 -4.60656 0
M  V30 4180 H 387.397 -0.29844 -4.32772 0
M  V30 4181 H 388.068 0.891145 -5.44759 0
M  V30 4182 H 390.544 1.80295 -3.7501 0
M  V30 4183 H 389.42 2.77084 -4.73831 0
M  V30 4184 H 389.681 3.19643 -3.05419 0
M  V30 4185 N 388.74 1.54641 0.303973 0
M  V30 4186 C 389.69 1.8177 1.37636 0
M  V30 4187 C 390.674 0.674697 1.46071 0
M  V30 4188 O 391.866 0.935251 1.50273 0
M  V30 4189 C 388.995 2.06584 2.74186 0
M  V30 4190 C 388.081 3.2706 2.69986 0
M  V30 4191 N 388.472 4.47682 2.35402 0
M  V30 4192 C 386.77 3.29028 3.01092 0
M  V30 4193 C 387.471 5.29689 2.40426 0
M  V30 4194 N 386.447 4.67339 2.7766 0
M  V30 4195 H 390.249 2.72596 1.09857 0
M  V30 4196 H 387.763 1.541 0.51254 0
M  V30 4197 H 389.76 2.24166 3.51504 0
M  V30 4198 H 388.42 1.17024 3.02879 0
M  V30 4199 H 389.431 4.74336 2.07908 0
M  V30 4200 H 386.108 2.49565 3.34699 0
M  V30 4201 H 387.498 6.3606 2.16512 0
M  V30 4202 N 390.218 -0.567019 1.47046 0
M  V30 4203 C 391.466 -1.322 1.52864 0
M  V30 4204 C 391.787 -1.94088 0.188388 0
M  V30 4205 O 391.057 -1.7941 -0.786693 0
M  V30 4206 H 389.637 -0.490894 0.563056 0
M  V30 4207 H 392.299 -0.662879 1.83281 0
M  V30 4208 H 391.395 -2.12062 2.2899 0
M  V30 4209 N 391.696 -1.35014 -0.812953 0
M  V30 4210 C 393.112 -1.14914 -1.10757 0
M  V30 4211 C 393.312 0.0426818 -2.01455 0
M  V30 4212 O 392.368 0.715212 -2.42159 0
M  V30 4213 C 393.681 -2.44911 -1.74468 0
M  V30 4214 C 395.229 -2.5106 -1.86917 0
M  V30 4215 C 395.704 -3.81085 -2.54044 0
M  V30 4216 N 397.195 -3.82301 -2.61535 0
M  V30 4217 C 397.93 -4.79634 -3.14227 0
M  V30 4218 N 397.426 -5.87353 -3.67407 0
M  V30 4219 N 399.219 -4.67078 -3.12721 0
M  V30 4220 H 391.37 -2.1136 -0.20989 0
M  V30 4221 H 393.633 -0.935128 -0.155692 0
M  V30 4222 H 393.339 -3.32267 -1.15289 0
M  V30 4223 H 393.213 -2.58989 -2.74234 0
M  V30 4224 H 395.6 -1.64137 -2.45241 0
M  V30 4225 H 395.681 -2.40901 -0.860242 0
M  V30 4226 H 395.325 -4.68402 -1.96372 0
M  V30 4227 H 395.255 -3.88529 -3.55461 0
M  V30 4228 H 397.746 -3.04465 -2.23851 0
M  V30 4229 H 398.059 -6.57624 -4.05894 0
M  V30 4230 H 396.404 -5.91054 -3.65623 0
M  V30 4231 H 399.595 -3.82067 -2.70449 0
M  V30 4232 H 399.768 -5.43098 -3.53481 0
M  V30 4233 N 393.175 1.03435 -1.18907 0
M  V30 4234 C 394.405 1.8012 -1.01195 0
M  V30 4235 C 394.813 1.8395 0.442613 0
M  V30 4236 O 394.156 1.27836 1.31923 0
M  V30 4237 C 394.218 3.26792 -1.49823 0
M  V30 4238 C 393.882 3.46609 -2.97844 0
M  V30 4239 C 394.879 3.37278 -3.95651 0
M  V30 4240 C 392.564 3.73001 -3.36416 0
M  V30 4241 C 394.558 3.54054 -5.30023 0
M  V30 4242 C 392.245 3.89423 -4.70949 0
M  V30 4243 C 393.243 3.79951 -5.67562 0
M  V30 4244 O 392.931 3.95895 -6.99659 0
M  V30 4245 H 392.663 0.573865 -0.357289 0
M  V30 4246 H 395.217 1.31207 -1.58031 0
M  V30 4247 H 393.447 3.76703 -0.873578 0
M  V30 4248 H 395.136 3.85055 -1.28404 0
M  V30 4249 H 395.902 3.16846 -3.67197 0
M  V30 4250 H 391.781 3.79469 -2.61772 0
M  V30 4251 H 395.325 3.46577 -6.05417 0
M  V30 4252 H 391.222 4.09351 -4.99101 0
M  V30 4253 H 391.99 4.13019 -7.06653 0
M  V30 4254 N 394.653 0.992116 1.22453 0
M  V30 4255 C 395.93 0.583508 1.86694 0
M  V30 4256 C 396.31 -0.9392 1.89056 0
M  V30 4257 O 395.658 -1.82081 1.38053 0
M  V30 4258 C 395.868 1.20304 3.2761 0
M  V30 4259 C 397.216 1.30308 4.0411 0
M  V30 4260 O 398.24 1.15737 3.36873 0
M  V30 4261 O 397.099 1.53615 5.24466 0
M  V30 4262 H 394.193 0.198129 0.802916 0
M  V30 4263 H 396.739 1.08794 1.30238 0
M  V30 4264 H 395.511 2.24461 3.2052 0
M  V30 4265 H 395.134 0.684144 3.9167 0
M  V30 4266 N 396.131 -1.37776 0.765217 0
M  V30 4267 C 397.064 -2.28008 0.0935025 0
M  V30 4268 C 398.042 -1.45985 -0.716047 0
M  V30 4269 O 399.226 -1.75331 -0.692203 0
M  V30 4270 C 396.353 -3.27228 -0.874052 0
M  V30 4271 C 395.399 -4.26239 -0.149307 0
M  V30 4272 S 396.232 -5.22827 1.15809 0
M  V30 4273 C 397.388 -6.256 0.193906 0
M  V30 4274 H 397.621 -2.84631 0.858637 0
M  V30 4275 H 395.154 -1.43952 0.558313 0
M  V30 4276 H 397.112 -3.84902 -1.42691 0
M  V30 4277 H 395.773 -2.69565 -1.61225 0
M  V30 4278 H 394.966 -4.96213 -0.88254 0
M  V30 4279 H 394.568 -3.7252 0.332366 0
M  V30 4280 H 396.86 -6.74508 -0.636011 0
M  V30 4281 H 397.803 -7.02838 0.861638 0
M  V30 4282 H 398.211 -5.64173 -0.191975 0
M  V30 4283 N 397.609 -0.515225 -1.4894 0
M  V30 4284 C 398.572 0.244681 -2.2789 0
M  V30 4285 C 399.572 0.881166 -1.34507 0
M  V30 4286 O 400.762 0.743497 -1.57537 0
M  V30 4287 C 397.894 1.35247 -3.12923 0
M  V30 4288 H 399.087 -0.448289 -2.96531 0
M  V30 4289 H 396.64 -0.270656 -1.53939 0
M  V30 4290 H 397.375 2.07916 -2.48881 0
M  V30 4291 H 397.16 0.901374 -3.81599 0
M  V30 4292 H 398.65 1.88737 -3.72516 0
M  V30 4293 N 399.087 1.5561 -0.249682 0
M  V30 4294 C 400.327 2.00916 0.37579 0
M  V30 4295 C 400.691 1.13409 1.54927 0
M  V30 4296 O 401.892 1.48183 2.24266 0
M  V30 4297 C 400.163 3.48949 0.772633 0
M  V30 4298 S 401.722 4.16261 1.38824 0
M  V30 4299 H 398.54 0.70112 0.118117 0
M  V30 4300 H 401.142 1.92052 -0.365567 0
M  V30 4301 H 399.846 4.103 -0.090683 0
M  V30 4302 H 399.377 3.61745 1.5461 0
M  V30 4303 H 401.392 4.17778 2.67724 0
M  V30 4304 N 400.565 -0.0233959 1.57583 0
M  V30 4305 C 401.497 -1.04994 2.03737 0
M  V30 4306 C 402.51 -1.32125 0.951152 0
M  V30 4307 O 403.699 -1.29512 1.22837 0
M  V30 4308 C 400.799 -2.39026 2.40249 0
M  V30 4309 C 399.972 -2.31171 3.7132 0
M  V30 4310 C 399.031 -3.47698 3.94959 0
M  V30 4311 O 398.057 -3.26937 4.65941 0
M  V30 4312 N 399.259 -4.6976 3.41037 0
M  V30 4313 H 402.024 -0.656507 2.92421 0
M  V30 4314 H 399.585 -0.211235 1.60516 0
M  V30 4315 H 401.577 -3.15712 2.53196 0
M  V30 4316 H 400.147 -2.70194 1.57207 0
M  V30 4317 H 399.367 -1.39547 3.68674 0
M  V30 4318 H 400.655 -2.23071 4.57293 0
M  V30 4319 H 400.053 -4.89528 2.83512 0
M  V30 4320 H 398.61 -5.43791 3.59353 0
M  V30 4321 N 402.043 -1.548 -0.295768 0
M  V30 4322 C 403.289 -1.74588 -1.03184 0
M  V30 4323 C 403.622 -0.532962 -1.86744 0
M  V30 4324 O 402.897 0.469872 -1.88739 0
M  V30 4325 C 403.18 -3.03791 -1.93347 0
M  V30 4326 C 403.033 -4.35392 -1.12933 0
M  V30 4327 C 404.352 -3.28892 -2.92435 0
M  V30 4328 H 401.471 -0.635221 -0.373715 0
M  V30 4329 H 404.113 -1.87519 -0.30606 0
M  V30 4330 H 402.263 -2.92898 -2.55232 0
M  V30 4331 H 403.935 -4.58211 -0.532943 0
M  V30 4332 H 402.178 -4.31642 -0.432168 0
M  V30 4333 H 402.849 -5.22074 -1.79284 0
M  V30 4334 H 405.325 -3.39429 -2.4068 0
M  V30 4335 H 404.201 -4.20603 -3.52682 0
M  V30 4336 H 404.462 -2.47437 -3.6637 0
M  V30 4337 N 403.521 0.559213 -1.47345 0
M  V30 4338 C 404.453 1.68161 -1.55738 0
M  V30 4339 C 405.466 1.56636 -0.443744 0
M  V30 4340 O 406.655 1.6363 -0.713258 0
M  V30 4341 C 403.755 3.06611 -1.4437 0
M  V30 4342 C 402.928 3.4391 -2.70268 0
M  V30 4343 C 401.987 4.61515 -2.52765 0
M  V30 4344 O 401.013 4.66197 -3.26572 0
M  V30 4345 N 402.215 5.57883 -1.6046 0
M  V30 4346 H 404.98 1.61408 -2.52522 0
M  V30 4347 H 402.541 0.7458 -1.43699 0
M  V30 4348 H 404.533 3.83117 -1.30398 0
M  V30 4349 H 403.103 3.07602 -0.556766 0
M  V30 4350 H 402.323 2.56873 -2.99015 0
M  V30 4351 H 403.611 3.65605 -3.53851 0
M  V30 4352 H 403.009 5.56855 -0.996422 0
M  V30 4353 H 401.566 6.33723 -1.52441 0
M  V30 4354 N 404.999 1.35443 0.805782 0
M  V30 4355 C 405.947 1.28465 1.93906 0
M  V30 4356 C 406.941 0.17943 1.68447 0
M  V30 4357 O 408.147 0.345459 1.76654 0
M  V30 4358 H 404.522 0.399528 0.637088 0
M  V30 4359 H 406.493 2.24206 1.96912 0
M  V30 4360 C 405.242 1.07432 3.30687 0
M  V30 4361 H 404.565 1.91716 3.50835 0
M  V30 4362 H 406.005 1.06591 4.10383 0
M  V30 4363 C 404.464 -0.22179 3.36169 0
M  V30 4364 O 404.994 -1.21731 3.82811 0
M  V30 4365 N 403.2 -0.260841 2.89427 0
M  V30 4366 H 402.747 0.549884 2.51663 0
M  V30 4367 H 402.705 -1.12777 2.93477 0
M  V30 4368 N 406.477 -1.02803 1.19454 0
M  V30 4369 C 407.44 -2.09264 0.934955 0
M  V30 4370 C 408.44 -1.60576 -0.0849015 0
M  V30 4371 O 409.63 -1.73554 0.149933 0
M  V30 4372 C 406.762 -3.38482 0.40531 0
M  V30 4373 H 407.955 -2.33726 1.87916 0
M  V30 4374 H 405.508 -1.19426 1.00832 0
M  V30 4375 H 406.243 -3.19689 -0.544899 0
M  V30 4376 H 406.028 -3.75142 1.14065 0
M  V30 4377 H 407.518 -4.16894 0.242806 0
M  V30 4378 N 407.956 -0.998596 -1.21925 0
M  V30 4379 C 409.202 -0.688337 -1.91399 0
M  V30 4380 C 409.557 0.771805 -1.76241 0
M  V30 4381 O 408.85 1.55153 -1.1242 0
M  V30 4382 C 409.044 -1.03648 -3.42041 0
M  V30 4383 C 408.873 -2.52892 -3.71855 0
M  V30 4384 C 407.643 -3.19389 -3.91559 0
M  V30 4385 C 409.841 -3.5103 -3.75875 0
M  V30 4386 N 407.823 -4.5805 -4.08734 0
M  V30 4387 C 409.194 -4.75174 -3.98259 0
M  V30 4388 C 411.249 -3.45257 -3.58751 0
M  V30 4389 C 409.952 -5.94247 -4.05294 0
M  V30 4390 C 411.978 -4.63712 -3.67049 0
M  V30 4391 C 411.34 -5.86658 -3.89887 0
M  V30 4392 H 407.439 -0.303251 -0.720807 0
M  V30 4393 H 410.023 -1.27977 -1.46731 0
M  V30 4394 H 408.194 -0.473569 -3.85502 0
M  V30 4395 H 409.926 -0.681619 -3.98919 0
M  V30 4396 H 406.681 -2.69846 -3.89205 0
M  V30 4397 H 407.105 -5.29989 -4.21237 0
M  V30 4398 H 411.747 -2.51215 -3.40075 0
M  V30 4399 H 409.465 -6.88687 -4.22772 0
M  V30 4400 H 413.051 -4.6084 -3.5513 0
M  V30 4401 H 411.931 -6.76786 -3.96144 0
M  V30 4402 N 409.434 1.37368 -0.772513 0
M  V30 4403 C 410.711 1.93839 -0.26188 0
M  V30 4404 C 411.091 1.7061 1.24319 0
M  V30 4405 O 410.439 1.05534 2.02669 0
M  V30 4406 C 410.649 3.43154 -0.636102 0
M  V30 4407 C 411.997 4.20249 -0.606324 0
M  V30 4408 O 413.021 3.5152 -0.575538 0
M  V30 4409 O 411.88 5.42809 -0.634086 0
M  V30 4410 H 408.974 0.82478 -0.0605555 0
M  V30 4411 H 411.52 1.4665 -0.853917 0
M  V30 4412 H 410.292 3.53647 -1.6748 0
M  V30 4413 H 409.915 3.97596 -0.0170516 0
M  V30 4414 N 410.912 0.523116 1.48665 0
M  V30 4415 C 411.842 -0.23231 2.32342 0
M  V30 4416 C 412.823 -0.941637 1.41659 0
M  V30 4417 O 414.008 -0.928751 1.70552 0
M  V30 4418 C 411.138 -1.28387 3.22698 0
M  V30 4419 C 410.092 -0.693098 4.22351 0
M  V30 4420 C 409.418 -1.8468 5.01794 0
M  V30 4421 C 410.718 0.33063 5.21252 0
M  V30 4422 H 412.412 0.466192 2.95748 0
M  V30 4423 H 409.958 0.225643 1.42221 0
M  V30 4424 H 411.911 -1.82024 3.80059 0
M  V30 4425 H 410.635 -2.01186 2.57278 0
M  V30 4426 H 409.294 -0.178299 3.66166 0
M  V30 4427 H 408.942 -2.56301 4.32804 0
M  V30 4428 H 408.642 -1.45747 5.69238 0
M  V30 4429 H 410.166 -2.38709 5.62006 0
M  V30 4430 H 411.58 -0.118407 5.73178 0
M  V30 4431 H 409.977 0.636974 5.9671 0
M  V30 4432 H 411.047 1.23883 4.68808 0
M  V30 4433 N 412.39 -1.55475 0.257931 0
M  V30 4434 C 413.353 -2.20551 -0.623706 0
M  V30 4435 C 414.353 -1.17809 -1.09443 0
M  V30 4436 O 415.543 -1.42823 -0.997362 0
M  V30 4437 C 412.675 -2.85784 -1.8585 0
M  V30 4438 H 413.868 -2.99848 -0.0557743 0
M  V30 4439 H 411.421 -1.56298 0.0084422 0
M  V30 4440 H 412.156 -2.10453 -2.46739 0
M  V30 4441 H 411.941 -3.61057 -1.52907 0
M  V30 4442 H 413.431 -3.35553 -2.48584 0
M  V30 4443 N 413.868 0.0150385 -1.57593 0
M  V30 4444 C 414.815 1.01126 -2.07466 0
M  V30 4445 C 415.785 1.35064 -0.966794 0
M  V30 4446 O 416.97 1.4516 -1.23827 0
M  V30 4447 C 414.11 2.30276 -2.57035 0
M  V30 4448 C 413.223 2.02373 -3.81666 0
M  V30 4449 C 412.358 3.25496 -4.19793 0
M  V30 4450 C 411.397 2.93211 -5.37303 0
M  V30 4451 N 410.534 4.08826 -5.70794 0
M  V30 4452 H 415.374 0.57901 -2.92321 0
M  V30 4453 H 412.911 0.27426 -1.44521 0
M  V30 4454 H 414.869 3.05757 -2.83846 0
M  V30 4455 H 413.499 2.71197 -1.75077 0
M  V30 4456 H 412.551 1.17327 -3.61854 0
M  V30 4457 H 413.863 1.74567 -4.67256 0
M  V30 4458 H 413.017 4.09333 -4.47807 0
M  V30 4459 H 411.756 3.56428 -3.32882 0
M  V30 4460 H 410.761 2.07777 -5.09027 0
M  V30 4461 H 411.986 2.63542 -6.25877 0
M  V30 4462 H 409.932 4.39682 -4.86842 0
M  V30 4463 H 409.849 3.84491 -6.50924 0
M  V30 4464 H 411.117 4.93496 -6.03392 0
M  V30 4465 N 415.346 1.54954 0.287554 0
M  V30 4466 C 416.309 1.86076 1.33823 0
M  V30 4467 C 417.309 0.734414 1.43049 0
M  V30 4468 O 418.499 1.00266 1.42452 0
M  V30 4469 C 415.631 2.05305 2.72144 0
M  V30 4470 H 416.824 2.79984 1.07465 0
M  V30 4471 H 414.377 1.47223 0.524902 0
M  V30 4472 H 415.112 1.1373 3.03704 0
M  V30 4473 H 414.897 2.873 2.66836 0
M  V30 4474 H 416.387 2.30706 3.48087 0
M  V30 4475 N 416.824 -0.551391 1.4764 0
M  V30 4476 C 418.07 -1.30789 1.55774 0
M  V30 4477 C 418.425 -1.91143 0.219562 0
M  V30 4478 O 417.718 -1.7521 -0.775375 0
M  V30 4479 C 417.912 -2.43469 2.61644 0
M  V30 4480 C 417.741 -1.94157 4.05627 0
M  V30 4481 C 416.511 -1.77734 4.7301 0
M  V30 4482 C 418.709 -1.48262 4.92466 0
M  V30 4483 N 416.691 -1.22823 6.01488 0
M  V30 4484 C 418.062 -1.05156 6.11017 0
M  V30 4485 C 420.117 -1.36367 4.78862 0
M  V30 4486 C 418.82 -0.513357 7.17466 0
M  V30 4487 C 420.846 -0.839484 5.85411 0
M  V30 4488 C 420.208 -0.418377 7.03156 0
M  V30 4489 H 416.307 -0.470406 0.624694 0
M  V30 4490 H 418.891 -0.624331 1.84419 0
M  V30 4491 H 417.062 -3.09348 2.34859 0
M  V30 4492 H 418.794 -3.10477 2.59589 0
M  V30 4493 H 415.549 -2.00623 4.29007 0
M  V30 4494 H 415.973 -0.974393 6.69951 0
M  V30 4495 H 420.615 -1.67535 3.88191 0
M  V30 4496 H 418.333 -0.189318 8.07878 0
M  V30 4497 H 421.919 -0.750921 5.76934 0
M  V30 4498 H 420.799 -0.0190538 7.84198 0
M  V30 4499 N 418.302 -1.35869 -0.798587 0
M  V30 4500 C 419.713 -1.26498 -1.37314 0
M  V30 4501 C 420.064 0.0991899 -1.95949 0
M  V30 4502 O 419.189 1.0004 -1.91888 0
M  V30 4503 C 419.784 -2.29054 -2.49639 0
M  V30 4504 C 418.343 -2.234 -3.02935 0
M  V30 4505 C 417.49 -2.14329 -1.75949 0
M  V30 4506 H 420.441 -1.46881 -0.600971 0
M  V30 4507 H 420.462 -1.92166 -3.28409 0
M  V30 4508 H 419.974 -3.2833 -2.06933 0
M  V30 4509 H 418.075 -1.27562 -3.50084 0
M  V30 4510 H 418.188 -3.15703 -3.60372 0
M  V30 4511 H 416.552 -1.60435 -1.9782 0
M  V30 4512 H 417.335 -3.15477 -1.35384 0
M  V30 4513 N 419.78 1.02168 -1.19998 0
M  V30 4514 C 420.69 2.14069 -0.959774 0
M  V30 4515 C 421.706 1.73804 0.082655 0
M  V30 4516 O 422.882 2.01133 -0.103633 0
M  V30 4517 C 419.947 3.42936 -0.509459 0
M  V30 4518 C 419.008 3.97474 -1.62213 0
M  V30 4519 C 418.241 5.2019 -1.19321 0
M  V30 4520 O 418.464 5.70369 -0.0597726 0
M  V30 4521 O 417.398 5.67749 -1.99863 0
M  V30 4522 H 421.224 2.37199 -1.89658 0
M  V30 4523 H 418.809 1.12469 -0.983411 0
M  V30 4524 H 420.691 4.20551 -0.267322 0
M  V30 4525 H 419.366 3.21234 0.398821 0
M  V30 4526 H 418.273 3.21161 -1.9185 0
M  V30 4527 H 419.606 4.23555 -2.50723 0
M  V30 4528 N 421.258 1.00505 1.21394 0
M  V30 4529 C 422.221 0.570459 2.21987 0
M  V30 4530 C 423.221 -0.353211 1.56873 0
M  V30 4531 O 424.411 -0.14349 1.73608 0
M  V30 4532 C 421.543 -0.168555 3.40483 0
M  V30 4533 H 422.736 1.46021 2.6195 0
M  V30 4534 H 420.289 0.793565 1.34656 0
M  V30 4535 H 421.024 -1.07374 3.06009 0
M  V30 4536 H 420.809 0.494823 3.88965 0
M  V30 4537 H 422.299 -0.460362 4.15055 0
M  V30 4538 N 422.737 -1.36956 0.779787 0
M  V30 4539 C 423.647 -2.33965 0.172491 0
M  V30 4540 C 424.663 -1.60574 -0.670222 0
M  V30 4541 O 425.839 -1.92617 -0.588263 0
M  V30 4542 C 422.904 -3.39761 -0.690173 0
M  V30 4543 C 421.965 -4.28964 0.169924 0
M  V30 4544 C 421.198 -5.29707 -0.651662 0
M  V30 4545 O 421.421 -5.38238 -1.88827 0
M  V30 4546 O 420.355 -6.01873 -0.0566264 0
M  V30 4547 H 424.181 -2.87647 0.974321 0
M  V30 4548 H 421.766 -1.39258 0.541078 0
M  V30 4549 H 423.648 -4.04471 -1.1824 0
M  V30 4550 H 422.323 -2.88394 -1.47006 0
M  V30 4551 H 421.23 -3.67326 0.708696 0
M  V30 4552 H 422.563 -4.83656 0.913085 0
M  V30 4553 N 424.215 -0.530993 -1.48385 0
M  V30 4554 C 425.145 0.219985 -2.32461 0
M  V30 4555 C 426.126 0.934111 -1.42156 0
M  V30 4556 O 427.311 0.919694 -1.71042 0
M  V30 4557 C 424.441 1.26674 -3.23375 0
M  V30 4558 C 423.395 0.67069 -4.22712 0
M  V30 4559 C 422.721 1.82017 -5.02766 0
M  V30 4560 C 424.021 -0.358268 -5.2107 0
M  V30 4561 H 425.715 -0.48187 -2.95497 0
M  V30 4562 H 423.261 -0.233182 -1.42099 0
M  V30 4563 H 425.214 1.80006 -3.81019 0
M  V30 4564 H 423.938 1.99818 -2.58341 0
M  V30 4565 H 422.597 0.158878 -3.66256 0
M  V30 4566 H 422.245 2.54002 -4.34157 0
M  V30 4567 H 421.945 1.42727 -5.70003 0
M  V30 4568 H 423.469 2.35725 -5.63264 0
M  V30 4569 H 424.883 0.0880081 -5.73232 0
M  V30 4570 H 423.28 -0.66861 -5.96364 0
M  V30 4571 H 424.35 -1.26367 -4.68145 0
M  V30 4572 N 425.693 1.55336 -0.266172 0
M  V30 4573 C 426.643 2.18848 0.639497 0
M  V30 4574 C 427.627 1.1503 1.12503 0
M  V30 4575 O 428.819 1.40875 1.0716 0
M  V30 4576 C 425.948 2.90626 1.82733 0
M  V30 4577 C 425.034 4.01723 1.35939 0
M  V30 4578 N 425.425 5.02145 0.606988 0
M  V30 4579 C 423.723 4.1463 1.6431 0
M  V30 4580 C 424.424 5.80572 0.362138 0
M  V30 4581 N 423.4 5.35551 0.931971 0
M  V30 4582 H 427.202 2.93845 0.0567057 0
M  V30 4583 H 424.716 1.62252 -0.0693312 0
M  V30 4584 H 426.713 3.34569 2.48735 0
M  V30 4585 H 425.373 2.17137 2.41416 0
M  V30 4586 H 426.384 5.17271 0.255198 0
M  V30 4587 H 423.061 3.52326 2.23993 0
M  V30 4588 H 424.451 6.71472 -0.239848 0
M  V30 4589 N 427.171 -0.0066808 1.57599 0
M  V30 4590 C 428.42 -0.692078 1.89455 0
M  V30 4591 C 428.733 -1.75306 0.867586 0
M  V30 4592 O 429.939 -2.49262 1.07614 0
M  V30 4593 C 428.395 -1.2821 3.36289 0
M  V30 4594 C 428.003 -0.256291 4.47266 0
M  V30 4595 C 429.747 -1.94608 3.77264 0
M  V30 4596 C 427.654 -0.855927 5.85173 0
M  V30 4597 H 426.584 -0.262252 0.706923 0
M  V30 4598 H 429.235 0.052769 1.83424 0
M  V30 4599 H 427.617 -2.0774 3.37135 0
M  V30 4600 H 428.791 0.513923 4.57925 0
M  V30 4601 H 427.106 0.306862 4.15268 0
M  V30 4602 H 429.703 -2.40364 4.77629 0
M  V30 4603 H 430.046 -2.77382 3.10427 0
M  V30 4604 H 430.579 -1.21822 3.78688 0
M  V30 4605 H 427.318 -0.0671161 6.55466 0
M  V30 4606 H 426.838 -1.59546 5.78191 0
M  V30 4607 H 428.517 -1.35658 6.32618 0
M  V30 4608 N 428.649 -1.55105 -0.279332 0
M  V30 4609 C 429.895 -1.75672 -1.01327 0
M  V30 4610 C 430.228 -0.552739 -1.86168 0
M  V30 4611 O 429.503 0.449827 -1.89227 0
M  V30 4612 C 429.786 -3.05825 -1.90114 0
M  V30 4613 C 429.639 -4.36565 -1.08309 0
M  V30 4614 C 430.958 -3.31975 -2.8893 0
M  V30 4615 H 428.077 -0.639149 -0.366957 0
M  V30 4616 H 430.719 -1.87833 -0.286154 0
M  V30 4617 H 428.869 -2.95588 -2.52111 0
M  V30 4618 H 430.541 -4.58751 -0.484314 0
M  V30 4619 H 428.784 -4.32076 -0.386362 0
M  V30 4620 H 429.455 -5.23946 -1.73737 0
M  V30 4621 H 431.931 -3.41963 -2.37067 0
M  V30 4622 H 430.807 -4.2432 -3.48201 0
M  V30 4623 H 431.068 -2.51309 -3.63725 0
M  V30 4624 N 430.127 0.543554 -1.4793 0
M  V30 4625 C 431.037 1.67657 -1.64098 0
M  V30 4626 C 432.053 1.65934 -0.523622 0
M  V30 4627 O 433.229 1.85133 -0.792943 0
M  V30 4628 C 430.294 3.04146 -1.66421 0
M  V30 4629 C 429.355 3.16831 -2.89684 0
M  V30 4630 C 428.588 4.46809 -2.91886 0
M  V30 4631 O 428.811 5.33095 -2.02895 0
M  V30 4632 O 427.745 4.63573 -3.83906 0
M  V30 4633 H 431.571 1.56957 -2.59997 0
M  V30 4634 H 429.156 0.715116 -1.31173 0
M  V30 4635 H 431.038 3.85346 -1.70548 0
M  V30 4636 H 429.713 3.152 -0.736923 0
M  V30 4637 H 428.62 2.34977 -2.91095 0
M  V30 4638 H 429.953 3.10687 -3.81752 0
M  V30 4639 N 431.605 1.3629 0.791371 0
M  V30 4640 C 432.853 1.30154 1.5461 0
M  V30 4641 C 433.174 -0.119409 1.94634 0
M  V30 4642 O 432.444 -1.05924 1.64794 0
M  V30 4643 H 431.024 0.478784 0.573389 0
M  V30 4644 H 433.686 1.70565 0.94306 0
M  V30 4645 H 432.782 1.92762 2.45457 0
M  V30 4646 N 433.083 -1.0153 1.20538 0
M  V30 4647 C 434.046 -2.0826 0.957098 0
M  V30 4648 C 435.046 -1.60657 -0.0678655 0
M  V30 4649 O 436.236 -1.73385 0.168332 0
M  V30 4650 C 433.368 -3.38033 0.441188 0
M  V30 4651 H 434.561 -2.31719 1.90384 0
M  V30 4652 H 432.114 -1.1835 1.02093 0
M  V30 4653 H 432.849 -3.20249 -0.510961 0
M  V30 4654 H 432.634 -3.73911 1.18038 0
M  V30 4655 H 434.124 -4.16613 0.287009 0
M  V30 4656 N 434.561 -1.01147 -1.20859 0
M  V30 4657 C 435.809 -0.696486 -1.89719 0
M  V30 4658 C 436.13 0.775788 -1.78904 0
M  V30 4659 O 435.4 1.55759 -1.18811 0
M  V30 4660 H 433.98 -0.254628 -0.702263 0
M  V30 4661 H 436.642 -1.28197 -1.46804 0
M  V30 4662 H 435.738 -0.975357 -2.96468 0
M  V30 4663 N 436.039 1.36541 -0.78704 0
M  V30 4664 C 436.989 2.27459 -0.156957 0
M  V30 4665 C 437.973 1.46843 0.657709 0
M  V30 4666 O 439.165 1.69245 0.518173 0
M  V30 4667 C 436.294 3.35893 0.709278 0
M  V30 4668 C 435.38 4.23947 -0.114049 0
M  V30 4669 N 435.771 4.92145 -1.16736 0
M  V30 4670 C 434.069 4.4587 0.107497 0
M  V30 4671 C 434.77 5.57261 -1.66837 0
M  V30 4672 N 433.746 5.3473 -0.977992 0
M  V30 4673 H 437.548 2.77669 -0.963185 0
M  V30 4674 H 435.062 1.49839 -0.62627 0
M  V30 4675 H 437.059 3.99953 1.17656 0
M  V30 4676 H 435.719 2.87238 1.51408 0
M  V30 4677 H 436.73 4.94169 -1.54976 0
M  V30 4678 H 433.407 4.08056 0.882994 0
M  V30 4679 H 434.797 6.21728 -2.54762 0
M  V30 4680 N 437.518 0.538854 1.48102 0
M  V30 4681 C 438.743 0.0102694 2.07397 0
M  V30 4682 C 439.168 -1.26562 1.39153 0
M  V30 4683 O 438.526 -1.75357 0.460387 0
M  V30 4684 C 438.574 -0.187602 3.60112 0
M  V30 4685 O 437.678 -1.25432 3.92862 0
M  V30 4686 H 437.019 0.0430975 0.6626 0
M  V30 4687 H 439.549 0.749301 1.90385 0
M  V30 4688 H 439.559 -0.407517 4.0596 0
M  V30 4689 H 438.234 0.744386 4.09184 0
M  V30 4690 H 436.811 -1.01636 3.58782 0
M  V30 4691 N 438.996 -1.55193 0.274407 0
M  V30 4692 C 440.226 -2.03692 -0.345442 0
M  V30 4693 C 440.634 -1.15224 -1.50067 0
M  V30 4694 O 439.977 -0.164749 -1.8296 0
M  V30 4695 C 440.039 -3.48325 -0.88939 0
M  V30 4696 C 439.703 -4.56794 0.137115 0
M  V30 4697 C 440.7 -5.11028 0.956378 0
M  V30 4698 C 438.385 -5.01568 0.27115 0
M  V30 4699 C 440.379 -6.08552 1.89587 0
M  V30 4700 C 438.066 -5.98918 1.21412 0
M  V30 4701 C 439.064 -6.52291 2.02498 0
M  V30 4702 O 438.752 -7.47738 2.952 0
M  V30 4703 H 438.484 -0.670893 -0.0829332 0
M  V30 4704 H 441.038 -2.01387 0.404056 0
M  V30 4705 H 439.268 -3.47867 -1.68895 0
M  V30 4706 H 440.957 -3.80167 -1.42225 0
M  V30 4707 H 441.723 -4.7725 0.863559 0
M  V30 4708 H 437.602 -4.5967 -0.349987 0
M  V30 4709 H 441.146 -6.50137 2.52918 0
M  V30 4710 H 437.043 -6.32114 1.30776 0
M  V30 4711 H 437.811 -7.65451 2.89874 0
M  V30 4712 N 440.474 -0.00167713 -1.576 0
M  V30 4713 C 441.751 0.719951 -1.81868 0
M  V30 4714 C 442.131 1.91895 -0.879747 0
M  V30 4715 O 441.479 2.28389 0.0711423 0
M  V30 4716 C 441.689 1.12409 -3.30402 0
M  V30 4717 C 443.037 1.52724 -3.96182 0
M  V30 4718 O 444.061 1.21784 -3.34734 0
M  V30 4719 O 442.92 2.10265 -5.04431 0
M  V30 4720 H 440.014 0.350707 -0.748955 0
M  V30 4721 H 442.56 -0.0272597 -1.69678 0
M  V30 4722 H 441.332 0.269532 -3.90371 0
M  V30 4723 H 440.955 1.93035 -3.47596 0
M  V30 4724 N 441.952 1.55251 0.271103 0
M  V30 4725 C 442.862 1.9136 1.35714 0
M  V30 4726 C 443.878 0.811075 1.5394 0
M  V30 4727 O 445.054 1.11031 1.6803 0
M  V30 4728 C 442.119 2.1798 2.69603 0
M  V30 4729 C 441.18 3.4153 2.60107 0
M  V30 4730 C 440.413 3.66871 3.8761 0
M  V30 4731 O 440.636 2.94689 4.8838 0
M  V30 4732 O 439.57 4.60405 3.87699 0
M  V30 4733 H 443.396 2.83815 1.08088 0
M  V30 4734 H 440.981 1.41821 0.469792 0
M  V30 4735 H 442.863 2.36518 3.48765 0
M  V30 4736 H 441.538 1.28708 2.97012 0
M  V30 4737 H 440.445 3.28325 1.79314 0
M  V30 4738 H 441.778 4.31027 2.37647 0
M  V30 4739 N 443.43 -0.535701 1.48216 0
M  V30 4740 C 444.841 -1.11769 1.49548 0
M  V30 4741 C 445.192 -1.94442 0.26207 0
M  V30 4742 O 444.317 -2.06987 -0.631287 0
M  V30 4743 C 444.912 -2.03367 2.70975 0
M  V30 4744 C 443.471 -2.56795 2.75196 0
M  V30 4745 C 442.618 -1.33631 2.42977 0
M  V30 4746 H 445.569 -0.321232 1.55415 0
M  V30 4747 H 445.59 -2.87569 2.49167 0
M  V30 4748 H 445.102 -1.43169 3.60727 0
M  V30 4749 H 443.203 -3.20731 1.89638 0
M  V30 4750 H 443.316 -2.9632 3.76472 0
M  V30 4751 H 441.68 -1.6502 1.94012 0
M  V30 4752 H 442.463 -0.75194 3.34964 0
M  V30 4753 N 444.908 -1.36708 -0.784132 0
M  V30 4754 C 446.156 -1.30972 -1.53918 0
M  V30 4755 C 446.477 0.109086 -1.94695 0
M  V30 4756 O 445.747 1.05048 -1.65353 0
M  V30 4757 H 444.327 -0.481819 -0.570841 0
M  V30 4758 H 446.989 -1.71063 -0.934002 0
M  V30 4759 H 446.085 -1.94061 -2.44431 0
M  V30 4760 N 446.386 1.0089 -1.21074 0
M  V30 4761 C 447.635 1.74019 -1.01981 0
M  V30 4762 C 447.948 1.90408 0.447665 0
M  V30 4763 O 449.154 2.60707 0.757906 0
M  V30 4764 C 447.61 3.13026 -1.77603 0
M  V30 4765 C 447.218 3.04623 -3.28495 0
M  V30 4766 C 448.962 3.90312 -1.66904 0
M  V30 4767 C 446.869 4.38685 -3.96623 0
M  V30 4768 H 445.799 0.652422 -0.377971 0
M  V30 4769 H 448.45 1.12755 -1.44771 0
M  V30 4770 H 446.832 3.74878 -1.27604 0
M  V30 4771 H 448.006 2.52032 -3.85767 0
M  V30 4772 H 446.321 2.40827 -3.39693 0
M  V30 4773 H 448.918 4.8951 -2.15138 0
M  V30 4774 H 449.261 4.11558 -0.62658 0
M  V30 4775 H 449.794 3.35104 -2.14359 0
M  V30 4776 H 446.533 4.22641 -5.01054 0
M  V30 4777 H 446.053 4.91252 -3.4414 0
M  V30 4778 H 447.732 5.075 -4.01314 0
M  V30 4779 N 447.864 1.01787 1.20321 0
M  V30 4780 C 448.794 0.609625 2.25401 0
M  V30 4781 C 449.775 -0.375951 1.65893 0
M  V30 4782 O 450.96 -0.261101 1.92437 0
M  V30 4783 C 448.09 -0.0515995 3.47262 0
M  V30 4784 C 447.044 0.855095 4.19371 0
M  V30 4785 C 446.37 0.0595757 5.34667 0
M  V30 4786 C 447.67 2.16374 4.75373 0
M  V30 4787 H 449.364 1.48803 2.59804 0
M  V30 4788 H 446.91 0.716934 1.24884 0
M  V30 4789 H 448.863 -0.348764 4.19954 0
M  V30 4790 H 447.587 -0.964726 3.12027 0
M  V30 4791 H 446.246 1.13628 3.48546 0
M  V30 4792 H 445.894 -0.85524 4.95676 0
M  V30 4793 H 445.594 0.663406 5.83843 0
M  V30 4794 H 447.118 -0.231105 6.10162 0
M  V30 4795 H 448.532 1.92885 5.39878 0
M  V30 4796 H 446.929 2.71853 5.34991 0
M  V30 4797 H 447.999 2.82589 3.94045 0
M  V30 4798 N 449.342 -1.36122 0.79427 0
M  V30 4799 C 450.292 -2.27373 0.169017 0
M  V30 4800 C 451.276 -1.4719 -0.649913 0
M  V30 4801 O 452.468 -1.69518 -0.50919 0
M  V30 4802 C 449.597 -3.36264 -0.691455 0
M  V30 4803 C 448.683 -4.2388 0.13653 0
M  V30 4804 N 449.074 -4.91519 1.19345 0
M  V30 4805 C 447.372 -4.45921 -0.0838499 0
M  V30 4806 C 448.073 -5.56369 1.6979 0
M  V30 4807 N 447.049 -5.34204 1.00634 0
M  V30 4808 H 450.851 -2.77154 0.977897 0
M  V30 4809 H 448.365 -1.49504 0.634208 0
M  V30 4810 H 450.362 -4.00572 -1.15534 0
M  V30 4811 H 449.022 -2.88037 -1.49883 0
M  V30 4812 H 450.033 -4.9334 1.57594 0
M  V30 4813 H 446.71 -4.08518 -0.861341 0
M  V30 4814 H 448.1 -6.20368 2.58055 0
M  V30 4815 N 450.82 -0.546701 -1.47814 0
M  V30 4816 C 451.752 0.244196 -2.27895 0
M  V30 4817 C 452.765 0.88911 -1.36377 0
M  V30 4818 O 453.954 0.764733 -1.61289 0
M  V30 4819 C 451.054 1.36252 -3.10304 0
M  V30 4820 C 450.227 0.816382 -4.29714 0
M  V30 4821 C 449.286 1.81789 -4.93801 0
M  V30 4822 O 448.312 1.36818 -5.52512 0
M  V30 4823 N 449.514 3.15085 -4.87547 0
M  V30 4824 H 452.279 -0.442694 -2.96412 0
M  V30 4825 H 449.84 -0.382095 -1.57327 0
M  V30 4826 H 451.832 2.03102 -3.50045 0
M  V30 4827 H 450.402 1.95281 -2.44099 0
M  V30 4828 H 449.622 -0.0285981 -3.9419 0
M  V30 4829 H 450.91 0.430668 -5.06974 0
M  V30 4830 H 450.308 3.54275 -4.41028 0
M  V30 4831 H 448.865 3.77522 -5.31339 0
M  V30 4832 N 452.299 1.55045 -0.282633 0
M  V30 4833 C 453.229 2.2579 0.595066 0
M  V30 4834 C 454.21 1.25074 1.15284 0
M  V30 4835 O 455.395 1.5381 1.18559 0
M  V30 4836 C 452.525 2.98472 1.77572 0
M  V30 4837 C 451.479 4.0618 1.34914 0
M  V30 4838 C 450.805 4.66477 2.6135 0
M  V30 4839 C 452.105 5.1996 0.493821 0
M  V30 4840 H 453.799 2.994 0.00505653 0
M  V30 4841 H 451.345 1.44 0.000992001 0
M  V30 4842 H 453.298 3.46677 2.39568 0
M  V30 4843 H 452.022 2.2241 2.39168 0
M  V30 4844 H 450.681 3.58797 0.752338 0
M  V30 4845 H 450.329 3.87074 3.2122 0
M  V30 4846 H 450.029 5.39207 2.33516 0
M  V30 4847 H 451.553 5.17435 3.24181 0
M  V30 4848 H 452.967 5.64172 1.01898 0
M  V30 4849 H 451.364 5.99299 0.310047 0
M  V30 4850 H 452.434 4.82462 -0.485593 0
M  V30 4851 N 453.777 0.010035 1.57597 0
M  V30 4852 C 454.71 -1.01234 2.04516 0
M  V30 4853 C 455.688 -1.32886 0.937024 0
M  V30 4854 O 456.872 -1.44879 1.20592 0
M  V30 4855 C 453.999 -2.33738 2.45121 0
M  V30 4856 C 453.045 -2.17679 3.66767 0
M  V30 4857 S 453.878 -1.49343 5.14254 0
M  V30 4858 C 455.034 -2.83256 5.58137 0
M  V30 4859 H 455.267 -0.612866 2.90914 0
M  V30 4860 H 452.8 -0.201124 1.53084 0
M  V30 4861 H 454.758 -3.09922 2.69182 0
M  V30 4862 H 453.419 -2.70823 1.59103 0
M  V30 4863 H 452.612 -3.1559 3.92962 0
M  V30 4864 H 452.214 -1.4964 3.42759 0
M  V30 4865 H 454.506 -3.79538 5.6121 0
M  V30 4866 H 455.449 -2.61749 6.57946 0
M  V30 4867 H 455.857 -2.87627 4.85727 0
M  V30 4868 N 455.255 -1.55392 -0.262866 0
M  V30 4869 C 456.504 -1.75679 -0.990943 0
M  V30 4870 C 456.817 -0.57097 -1.87081 0
M  V30 4871 O 458.023 -0.656486 -2.63444 0
M  V30 4872 C 456.479 -3.10964 -1.81188 0
M  V30 4873 C 456.087 -4.37146 -0.980188 0
M  V30 4874 C 457.831 -3.40597 -2.53365 0
M  V30 4875 C 455.738 -5.63466 -1.7961 0
M  V30 4876 H 454.668 -0.654868 -0.373716 0
M  V30 4877 H 457.319 -1.81841 -0.246203 0
M  V30 4878 H 455.701 -2.98867 -2.59797 0
M  V30 4879 H 456.875 -4.60187 -0.237558 0
M  V30 4880 H 455.19 -4.14731 -0.372497 0
M  V30 4881 H 457.787 -4.32186 -3.14833 0
M  V30 4882 H 458.13 -2.6119 -3.24169 0
M  V30 4883 H 458.663 -3.53838 -1.81779 0
M  V30 4884 H 455.402 -6.4565 -1.13209 0
M  V30 4885 H 454.922 -5.44552 -2.51443 0
M  V30 4886 H 456.601 -6.02139 -2.36723 0
M  V30 4887 N 456.733 0.527833 -1.48498 0
M  V30 4888 C 457.696 1.61439 -1.62696 0
M  V30 4889 C 458.696 1.52824 -0.500136 0
M  V30 4890 O 459.886 1.56456 -0.765976 0
M  V30 4891 C 457.018 3.01063 -1.59918 0
M  V30 4892 H 458.211 1.50189 -2.59583 0
M  V30 4893 H 455.764 0.750055 -1.37127 0
M  V30 4894 H 456.499 3.17818 -0.645163 0
M  V30 4895 H 456.284 3.08725 -2.41726 0
M  V30 4896 H 457.774 3.80057 -1.73051 0
M  V30 4897 N 458.211 1.37122 0.776871 0
M  V30 4898 C 459.439 1.3523 1.5659 0
M  V30 4899 C 459.854 -0.0635518 1.88693 0
M  V30 4900 O 459.211 -1.02394 1.51069 0
M  V30 4901 C 459.262 2.18583 2.8793 0
M  V30 4902 O 458.983 3.5465 2.57206 0
M  V30 4903 C 460.484 2.24612 3.82183 0
M  V30 4904 H 457.704 0.4634 0.485285 0
M  V30 4905 H 460.248 1.80392 0.963266 0
M  V30 4906 H 458.403 1.76943 3.4463 0
M  V30 4907 H 458.817 3.98286 3.41275 0
M  V30 4908 H 460.291 2.87267 4.71361 0
M  V30 4909 H 460.768 1.25309 4.20944 0
M  V30 4910 H 461.374 2.66543 3.31414 0
M  V30 4911 N 459.689 -1.00246 1.21608 0
M  V30 4912 C 460.966 -1.71336 0.943568 0
M  V30 4913 C 461.346 -2.03972 -0.543943 0
M  V30 4914 O 460.694 -1.71545 -1.50946 0
M  V30 4915 C 460.904 -2.97094 1.83128 0
M  V30 4916 C 462.252 -3.70071 2.08165 0
M  V30 4917 O 463.276 -3.07081 1.80498 0
M  V30 4918 O 462.135 -4.83376 2.54971 0
M  V30 4919 H 459.229 -0.747386 0.354039 0
M  V30 4920 H 461.775 -1.05967 1.32549 0
M  V30 4921 H 460.547 -2.69407 2.83788 0
M  V30 4922 H 460.17 -3.70204 1.45034 0
M  V30 4923 N 461.167 -1.02423 -1.1978 0
M  V30 4924 C 462.583 -0.740459 -1.41384 0
M  V30 4925 C 462.783 0.676827 -1.89793 0
M  V30 4926 O 461.839 1.4435 -2.0717 0
M  V30 4927 C 463.152 -1.77264 -2.42895 0
M  V30 4928 C 464.7 -1.79165 -2.56649 0
M  V30 4929 C 465.175 -2.8133 -3.6141 0
M  V30 4930 N 466.666 -2.80118 -3.68901 0
M  V30 4931 C 467.401 -3.55824 -4.49641 0
M  V30 4932 N 466.897 -4.41231 -5.34123 0
M  V30 4933 N 468.69 -3.44387 -4.44246 0
M  V30 4934 H 460.841 -1.9391 -0.866764 0
M  V30 4935 H 463.104 -0.838074 -0.443098 0
M  V30 4936 H 462.81 -2.7884 -2.14339 0
M  V30 4937 H 462.684 -1.59108 -3.42001 0
M  V30 4938 H 465.071 -0.782702 -2.84531 0
M  V30 4939 H 465.152 -2.01396 -1.57713 0
M  V30 4940 H 464.796 -3.82394 -3.34271 0
M  V30 4941 H 464.726 -2.56359 -4.59986 0
M  V30 4942 H 467.217 -2.1817 -3.08562 0
M  V30 4943 H 467.53 -4.95747 -5.92836 0
M  V30 4944 H 465.875 -4.45306 -5.33599 0
M  V30 4945 H 469.066 -2.7708 -3.77285 0
M  V30 4946 H 469.239 -4.0364 -5.06931 0
M  V30 4947 N 462.645 1.35699 -0.801477 0
M  V30 4948 C 463.892 1.98913 -0.379459 0
M  V30 4949 C 464.22 1.63592 1.05204 0
M  V30 4950 O 463.475 0.888563 1.74365 0
M  V30 4951 C 463.774 3.53828 -0.504041 0
M  V30 4952 C 463.44 4.09002 -1.8981 0
M  V30 4953 C 462.102 4.23783 -2.27951 0
M  V30 4954 C 464.454 4.38939 -2.81038 0
M  V30 4955 C 461.782 4.65816 -3.56696 0
M  V30 4956 C 464.134 4.82409 -4.09224 0
M  V30 4957 C 462.798 4.95395 -4.4737 0
M  V30 4958 H 462.068 0.727874 -0.138854 0
M  V30 4959 H 464.715 1.61994 -1.02128 0
M  V30 4960 H 463.02 3.91175 0.221242 0
M  V30 4961 H 464.717 4.00687 -0.158361 0
M  V30 4962 H 461.307 3.97946 -1.59176 0
M  V30 4963 H 465.491 4.27077 -2.52821 0
M  V30 4964 H 460.747 4.74059 -3.86106 0
M  V30 4965 H 464.921 5.04535 -4.80018 0
M  V30 4966 H 462.548 5.27724 -5.47185 0
M  V30 4967 N 464.123 0.554532 1.47522 0
M  V30 4968 C 465.086 -0.184174 2.28459 0
M  V30 4969 C 466.086 -0.845195 1.36796 0
M  V30 4970 O 467.276 -0.701467 1.59452 0
M  V30 4971 C 464.408 -1.26903 3.16399 0
M  V30 4972 H 465.601 0.526751 2.95238 0
M  V30 4973 H 463.154 0.311375 1.53167 0
M  V30 4974 H 463.889 -2.01244 2.54306 0
M  V30 4975 H 463.674 -0.799883 3.83854 0
M  V30 4976 H 465.164 -1.78794 3.77389 0
M  V30 4977 N 465.601 -1.54893 0.290851 0
M  V30 4978 C 466.849 -1.99538 -0.320756 0
M  V30 4979 C 467.17 -1.18075 -1.55188 0
M  V30 4980 O 466.44 -0.274162 -1.93972 0
M  V30 4981 H 465.02 -0.737052 -0.121507 0
M  V30 4982 H 467.682 -1.90755 0.399832 0
M  V30 4983 H 466.778 -3.06282 -0.599802 0
M  V30 4984 N 467.08 -0.0183926 -1.57589 0
M  V30 4985 C 468.027 0.967022 -2.09565 0
M  V30 4986 C 468.997 1.32983 -0.995225 0
M  V30 4987 O 470.182 1.42501 -1.26878 0
M  V30 4988 C 467.322 2.24772 -2.61861 0
M  V30 4989 C 466.435 1.94232 -3.85873 0
M  V30 4990 C 465.57 3.16518 -4.26603 0
M  V30 4991 C 464.609 2.81748 -5.43401 0
M  V30 4992 N 463.746 3.96626 -5.79338 0
M  V30 4993 H 468.586 0.516874 -2.93483 0
M  V30 4994 H 466.123 0.243544 -1.4507 0
M  V30 4995 H 468.081 2.99667 -2.90268 0
M  V30 4996 H 466.711 2.67423 -1.8079 0
M  V30 4997 H 465.763 1.09625 -3.64262 0
M  V30 4998 H 467.075 1.64616 -4.70853 0
M  V30 4999 H 466.229 3.99743 -4.56389 0
M  V30 5000 H 464.968 3.49286 -3.40368 0
M  V30 5001 H 463.973 1.96933 -5.1332 0
M  V30 5002 H 465.198 2.50207 -6.31327 0
M  V30 5003 H 463.144 4.29257 -4.96059 0
M  V30 5004 H 463.061 3.70598 -6.58933 0
M  V30 5005 H 464.329 4.80586 -6.13724 0
M  V30 5006 O 468.597 1.61027 0.12348 0
M  V30 5007 H 469.288 1.78369 0.755254 0
M  V30 END ATOM
M  V30 BEGIN BOND
M  V30 END BOND
M  V30 END CTAB
M  END
$$$$
