drugbank_target|P50416 Carnitine O-palmitoyltransferase 1, liver isoform (DB00583; DB01016; DB01074)
 OpenBabel12092119313D

  0  0  0     0  0            999 V3000
M  V30 BEGIN CTAB
M  V30 COUNTS 12396 12557 0 0 0
M  V30 BEGIN ATOM
M  V30 1 H -0.908 1.98254 -0.117106 0
M  V30 2 N 0 1.576 0 0
M  V30 3 C 0.933 2.03868 1.02534 0
M  V30 4 C 1.911 0.928543 1.3348 0
M  V30 5 O 3.095 1.19667 1.45644 0
M  V30 6 C 0.222 2.43627 2.35294 0
M  V30 7 C -0.732 3.65373 2.2001 0
M  V30 8 S 0.101 5.13292 1.52614 0
M  V30 9 C 1.257 5.56322 2.86805 0
M  V30 10 H 1.49 2.90518 0.631377 0
M  V30 11 H -0.977 1.52953 0.210867 0
M  V30 12 H 0.981 2.67203 3.11629 0
M  V30 13 H -0.358 1.57376 2.7183 0
M  V30 14 H -1.165 3.90944 3.18086 0
M  V30 15 H -1.563 3.418 1.51819 0
M  V30 16 H 0.729 5.58782 3.83104 0
M  V30 17 H 1.672 6.56266 2.65933 0
M  V30 18 H 2.08 4.83886 2.90714 0
M  V30 19 N 1.4781 -0.272755 1.55222 0
M  V30 20 C 2.4411 -1.32041 1.87344 0
M  V30 21 C 3.4411 -1.42342 0.74803 0
M  V30 22 O 4.6311 -1.41488 1.0162 0
M  V30 23 C 1.7631 -2.70173 2.07893 0
M  V30 24 H 2.9561 -1.04789 2.80997 0
M  V30 25 H 0.5091 -0.51083 1.47717 0
M  V30 26 H 1.2441 -3.02605 1.16622 0
M  V30 27 H 1.0291 -2.64082 2.89833 0
M  V30 28 H 2.5191 -3.45869 2.34017 0
M  V30 29 N 2.9562 -1.48159 -0.537278 0
M  V30 30 C 3.8662 -1.64807 -1.6696 0
M  V30 31 C 4.8822 -0.530651 -1.65711 0
M  V30 32 O 6.0582 -0.800784 -1.84796 0
M  V30 33 C 3.1232 -1.67708 -3.03438 0
M  V30 34 C 2.1842 -2.91025 -3.156 0
M  V30 35 C 1.4172 -2.93778 -4.45567 0
M  V30 36 O 1.6402 -2.05153 -5.3223 0
M  V30 37 O 0.5742 -3.85868 -4.61941 0
M  V30 38 H 4.4002 -2.6066 -1.55853 0
M  V30 39 H 1.9852 -1.31475 -0.709549 0
M  V30 40 H 3.8672 -1.7218 -3.84619 0
M  V30 41 H 2.5422 -0.750278 -3.14885 0
M  V30 42 H 1.4492 -2.92089 -2.33741 0
M  V30 43 H 2.7822 -3.83065 -3.09066 0
M  V30 44 N 4.4343 0.785586 -1.36625 0
M  V30 45 C 5.3973 1.87999 -1.31107 0
M  V30 46 C 6.3973 1.59316 -0.217959 0
M  V30 47 O 7.5873 1.67656 -0.472977 0
M  V30 48 C 4.7193 3.24861 -1.03334 0
M  V30 49 H 5.9123 1.94307 -2.2844 0
M  V30 50 H 3.4653 0.983813 -1.21453 0
M  V30 51 H 4.2003 3.24235 -0.0647432 0
M  V30 52 H 3.9853 3.4707 -1.82441 0
M  V30 53 H 5.4753 4.04929 -1.02088 0
M  V30 54 N 5.9124 1.20967 1.01018 0
M  V30 55 C 6.8624 0.93182 2.08089 0
M  V30 56 C 7.8464 -0.110898 1.60517 0
M  V30 57 O 9.0384 0.0973392 1.76732 0
M  V30 58 C 6.1674 0.492719 3.39746 0
M  V30 59 C 5.2534 1.56922 3.94 0
M  V30 60 N 5.6444 2.79312 4.21686 0
M  V30 61 C 3.9424 1.43688 4.2222 0
M  V30 62 C 4.6434 3.48797 4.65527 0
M  V30 63 N 3.6194 2.76224 4.68189 0
M  V30 64 H 7.4214 1.86175 2.27412 0
M  V30 65 H 4.9354 1.10463 1.19045 0
M  V30 66 H 6.9324 0.275044 4.15992 0
M  V30 67 H 5.5924 -0.430509 3.21833 0
M  V30 68 H 6.6034 3.15903 4.10397 0
M  V30 69 H 3.2804 0.578548 4.13472 0
M  V30 70 H 4.6704 4.53561 4.95714 0
M  V30 71 N 7.3905 -1.2043 1.01659 0
M  V30 72 C 8.3225 -2.22626 0.544988 0
M  V30 73 C 9.3355 -1.58479 -0.372609 0
M  V30 74 O 10.5245 -1.77679 -0.170958 0
M  V30 75 C 7.6245 -3.38141 -0.22663 0
M  V30 76 C 6.7975 -4.31877 0.692876 0
M  V30 77 C 5.8565 -5.26191 -0.0311616 0
M  V30 78 O 4.8825 -5.6612 0.591343 0
M  V30 79 N 6.0845 -5.65618 -1.30601 0
M  V30 80 H 8.8495 -2.63716 1.42388 0
M  V30 81 H 6.4105 -1.34971 0.894116 0
M  V30 82 H 8.4025 -3.98239 -0.72024 0
M  V30 83 H 6.9725 -2.95943 -1.00681 0
M  V30 84 H 6.1925 -3.69746 1.36679 0
M  V30 85 H 7.4805 -4.91426 1.31824 0
M  V30 86 H 6.8785 -5.3519 -1.83269 0
M  V30 87 H 5.4355 -6.28025 -1.74435 0
M  V30 88 N 8.8686 -0.792821 -1.36206 0
M  V30 89 C 9.8316 -0.199459 -2.2833 0
M  V30 90 C 10.8316 0.605189 -1.48977 0
M  V30 91 O 12.0216 0.425685 -1.68919 0
M  V30 92 C 9.1536 0.723523 -3.33134 0
M  V30 93 H 10.3466 -1.01181 -2.82316 0
M  V30 94 H 7.8996 -0.562485 -1.45828 0
M  V30 95 H 8.6346 1.56008 -2.84309 0
M  V30 96 H 8.4196 0.148436 -3.91819 0
M  V30 97 H 9.9096 1.13344 -4.01924 0
M  V30 98 N 10.3467 1.47872 -0.545128 0
M  V30 99 C 11.5927 2.02793 -0.0166104 0
M  V30 100 C 11.9257 1.41987 1.32489 0
M  V30 101 O 11.2007 0.571045 1.85928 0
M  V30 102 C 11.4837 3.59989 0.0893294 0
M  V30 103 C 11.3367 4.3125 -1.27841 0
M  V30 104 C 12.6557 4.32606 0.808724 0
M  V30 105 H 9.7747 0.736962 -0.00751035 0
M  V30 106 H 12.4167 1.76433 -0.705085 0
M  V30 107 H 10.5667 3.82579 0.675681 0
M  V30 108 H 12.2387 4.20035 -1.90704 0
M  V30 109 H 10.4817 3.92076 -1.85632 0
M  V30 110 H 11.1527 5.39736 -1.15713 0
M  V30 111 H 13.6287 4.14936 0.310992 0
M  V30 112 H 12.5047 5.42251 0.851782 0
M  V30 113 H 12.7657 4.00963 1.86229 0
M  V30 114 N 11.8248 0.280983 1.55075 0
M  V30 115 C 12.7878 -0.590896 2.21452 0
M  V30 116 C 13.7878 -1.07682 1.19421 0
M  V30 117 O 14.9778 -0.97605 1.44288 0
M  V30 118 C 12.1098 -1.81587 2.88511 0
M  V30 119 H 13.3028 -0.0112554 2.99898 0
M  V30 120 H 10.8558 0.0316438 1.56268 0
M  V30 121 H 11.5908 -2.43587 2.14093 0
M  V30 122 H 11.3758 -1.4753 3.63287 0
M  V30 123 H 12.8658 -2.43575 3.39206 0
M  V30 124 N 13.3029 -1.57598 0.00835791 0
M  V30 125 C 14.5499 -1.90928 -0.674732 0
M  V30 126 C 14.8779 -0.88277 -1.73313 0
M  V30 127 O 14.1329 0.111294 -1.95383 0
M  V30 128 C 14.4319 -3.3101 -1.34787 0
M  V30 129 C 14.0979 -4.48922 -0.421861 0
M  V30 130 C 12.7599 -4.8091 -0.166927 0
M  V30 131 C 15.1119 -5.20755 0.215211 0
M  V30 132 C 12.4399 -5.821 0.733232 0
M  V30 133 C 14.7919 -6.22905 1.1033 0
M  V30 134 C 13.4559 -6.53346 1.36733 0
M  V30 135 H 12.7259 -0.698656 -0.246902 0
M  V30 136 H 15.3729 -1.91387 0.0656779 0
M  V30 137 H 13.6779 -3.26714 -2.16253 0
M  V30 138 H 15.3749 -3.54061 -1.8826 0
M  V30 139 H 11.9649 -4.23934 -0.630729 0
M  V30 140 H 16.1489 -4.9629 0.0312829 0
M  V30 141 H 11.4049 -6.04042 0.945712 0
M  V30 142 H 15.5789 -6.77694 1.60325 0
M  V30 143 H 13.2059 -7.31573 2.06652 0
M  V30 144 N 14.781 0.264519 -1.55364 0
M  V30 145 C 15.713 1.34965 -1.85248 0
M  V30 146 C 16.726 1.45136 -0.737525 0
M  V30 147 O 17.915 1.46801 -1.01547 0
M  V30 148 C 15.015 2.73008 -2.00797 0
M  V30 149 C 14.188 2.85324 -3.31525 0
M  V30 150 C 13.247 4.04097 -3.37034 0
M  V30 151 O 12.273 3.94455 -4.10358 0
M  V30 152 N 13.475 5.16458 -2.65049 0
M  V30 153 H 16.24 1.09672 -2.78913 0
M  V30 154 H 13.801 0.454635 -1.55386 0
M  V30 155 H 15.793 3.50772 -2.01844 0
M  V30 156 H 14.363 2.91087 -1.1396 0
M  V30 157 H 13.583 1.94377 -3.42945 0
M  V30 158 H 14.871 2.9049 -4.17724 0
M  V30 159 H 14.269 5.27181 -2.05175 0
M  V30 160 H 12.826 5.92422 -2.71809 0
M  V30 161 N 16.2591 1.48442 0.529413 0
M  V30 162 C 17.5061 1.56488 1.28521 0
M  V30 163 C 17.8341 0.239042 1.93025 0
M  V30 164 O 17.0891 -0.770713 1.79885 0
M  V30 165 C 17.3881 2.6523 2.39558 0
M  V30 166 C 17.0541 4.07648 1.92702 0
M  V30 167 C 15.7161 4.46411 1.79641 0
M  V30 168 C 18.0681 4.96896 1.573 0
M  V30 169 C 15.3961 5.72226 1.29514 0
M  V30 170 C 17.7481 6.23202 1.08636 0
M  V30 171 C 16.4121 6.60821 0.941919 0
M  V30 172 H 15.6821 0.572631 0.470292 0
M  V30 173 H 18.3291 1.82161 0.59072 0
M  V30 174 H 16.6341 2.33419 3.14679 0
M  V30 175 H 18.3311 2.68671 2.97686 0
M  V30 176 H 14.9211 3.77036 2.03819 0
M  V30 177 H 19.1051 4.67626 1.66251 0
M  V30 178 H 14.3611 6.00097 1.17019 0
M  V30 179 H 18.5351 6.91753 0.803136 0
M  V30 180 H 16.1621 7.58198 0.5513 0
M  V30 181 N 17.7372 -0.778329 1.37039 0
M  V30 182 C 18.9652 -1.56734 1.35063 0
M  V30 183 C 19.3802 -1.88686 -0.0655597 0
M  V30 184 O 18.7372 -1.5096 -1.02554 0
M  V30 185 C 18.7882 -2.88163 2.18276 0
M  V30 186 O 18.5092 -2.57583 3.54376 0
M  V30 187 C 20.0102 -3.82422 2.24206 0
M  V30 188 H 17.2302 -0.485778 0.462883 0
M  V30 189 H 19.7742 -0.965185 1.8029 0
M  V30 190 H 17.9292 -3.44818 1.76576 0
M  V30 191 H 18.3432 -3.41699 3.97922 0
M  V30 192 H 19.8172 -4.71667 2.86765 0
M  V30 193 H 20.2942 -4.21078 1.24861 0
M  V30 194 H 20.9002 -3.31697 2.6619 0
M  V30 195 N 19.2153 -1.21501 -1.00376 0
M  V30 196 C 20.4613 -1.03452 -1.74429 0
M  V30 197 C 20.7943 0.430764 -1.89362 0
M  V30 198 O 20.0693 1.31962 -1.42886 0
M  V30 199 C 20.3523 -1.73375 -3.15615 0
M  V30 200 C 20.2053 -3.27431 -3.08397 0
M  V30 201 C 21.5243 -1.47732 -4.14564 0
M  V30 202 H 18.6433 -0.377226 -0.633143 0
M  V30 203 H 21.2853 -1.49693 -1.17013 0
M  V30 204 H 19.4353 -1.34064 -3.64636 0
M  V30 205 H 21.1073 -3.76119 -2.67081 0
M  V30 206 H 19.3503 -3.5767 -2.45468 0
M  V30 207 H 20.0213 -3.71524 -4.08258 0
M  V30 208 H 22.4973 -1.8186 -3.74254 0
M  V30 209 H 21.3733 -1.99169 -5.11491 0
M  V30 210 H 21.6343 -0.407589 -4.40217 0
M  V30 211 N 20.6934 1.19889 -1.02296 0
M  V30 212 C 21.9214 1.9339 -0.735399 0
M  V30 213 C 22.3364 1.75148 0.704887 0
M  V30 214 O 21.6934 1.06954 1.47875 0
M  V30 215 C 21.7444 3.45313 -1.06962 0
M  V30 216 O 21.4654 3.62964 -2.45334 0
M  V30 217 C 22.9664 4.35948 -0.804021 0
M  V30 218 H 20.1864 0.61448 -0.269546 0
M  V30 219 H 22.7304 1.522 -1.36585 0
M  V30 220 H 20.8854 3.84359 -0.484455 0
M  V30 221 H 21.2994 4.56886 -2.57595 0
M  V30 222 H 22.7734 5.41174 -1.0879 0
M  V30 223 H 23.2504 4.3842 0.261691 0
M  V30 224 H 23.8564 4.02574 -1.37164 0
M  V30 225 N 22.1715 0.800033 1.35784 0
M  V30 226 C 23.5825 0.439142 1.81462 0
M  V30 227 C 23.9335 -1.03813 1.66485 0
M  V30 228 O 23.0585 -1.80626 1.19177 0
M  V30 229 C 23.6535 0.790314 3.29453 0
M  V30 230 C 22.2125 0.482111 3.733 0
M  V30 231 C 21.3595 1.01938 2.57883 0
M  V30 232 H 24.3105 0.992254 1.23855 0
M  V30 233 H 24.3315 0.0853677 3.80404 0
M  V30 234 H 23.8435 1.86554 3.40322 0
M  V30 235 H 21.9445 -0.584652 3.67984 0
M  V30 236 H 22.0575 1.01015 4.6833 0
M  V30 237 H 20.4215 0.442043 2.50835 0
M  V30 238 H 21.2045 2.10059 2.71533 0
M  V30 239 N 23.6496 -1.47581 0.552962 0
M  V30 240 C 24.9266 -1.95563 -0.0381515 0
M  V30 241 C 25.3066 -1.49552 -1.48988 0
M  V30 242 O 24.6546 -0.732414 -2.16444 0
M  V30 243 C 24.8646 -3.48848 0.102919 0
M  V30 244 C 26.2126 -4.24577 -0.0446082 0
M  V30 245 O 27.2366 -3.56187 0.0302548 0
M  V30 246 O 26.0956 -5.46116 -0.204923 0
M  V30 247 H 23.1896 -0.824321 -0.0665067 0
M  V30 248 H 25.7356 -1.58001 0.619186 0
M  V30 249 H 24.5076 -3.75129 1.11328 0
M  V30 250 H 24.1306 -3.93165 -0.592224 0
M  V30 251 N 25.1277 -0.289203 -1.54924 0
M  V30 252 C 26.3757 0.322879 -1.99504 0
M  V30 253 C 26.6967 1.55313 -1.1791 0
M  V30 254 O 25.9667 1.94001 -0.272097 0
M  V30 255 H 24.5467 0.122291 -0.736922 0
M  V30 256 H 27.2087 -0.397802 -1.90797 0
M  V30 257 H 26.3047 0.603061 -3.06218 0
M  V30 258 N 26.6058 1.57591 -0.0167156 0
M  V30 259 C 27.8548 1.90461 0.663877 0
M  V30 260 C 28.1678 0.893515 1.73999 0
M  V30 261 O 29.3738 1.11302 2.47637 0
M  V30 262 C 27.8298 3.38155 1.23204 0
M  V30 263 C 27.4378 4.47597 0.189866 0
M  V30 264 C 29.1818 3.80111 1.88986 0
M  V30 265 C 27.0888 5.86379 0.768964 0
M  V30 266 H 26.0188 0.710738 0.251729 0
M  V30 267 H 28.6698 1.83326 -0.0799926 0
M  V30 268 H 27.0518 3.40182 2.02712 0
M  V30 269 H 28.2258 4.57112 -0.581846 0
M  V30 270 H 26.5408 4.14766 -0.368475 0
M  V30 271 H 29.1378 4.81145 2.33247 0
M  V30 272 H 29.4808 3.14511 2.72743 0
M  V30 273 H 30.0138 3.80454 1.16187 0
M  V30 274 H 26.7528 6.55493 -0.0301957 0
M  V30 275 H 26.2728 5.80496 1.50945 0
M  V30 276 H 27.9518 6.34563 1.26251 0
M  V30 277 N 28.0839 -0.256276 1.55502 0
M  V30 278 C 29.3609 -1.00789 1.67633 0
M  V30 279 C 29.7409 -2.03706 0.553826 0
M  V30 280 O 29.0889 -2.24145 -0.443969 0
M  V30 281 C 29.2989 -1.64968 3.07549 0
M  V30 282 C 30.6469 -2.15505 3.65845 0
M  V30 283 O 31.6709 -1.74925 3.1029 0
M  V30 284 O 30.5299 -2.89986 4.63217 0
M  V30 285 H 27.6239 -0.468553 0.681459 0
M  V30 286 H 30.1699 -0.250806 1.67836 0
M  V30 287 H 28.9419 -0.904785 3.80696 0
M  V30 288 H 28.5649 -2.47321 3.11317 0
M  V30 289 N 29.562 -1.4872 -0.521534 0
M  V30 290 C 30.492 -1.66771 -1.63431 0
M  V30 291 C 31.473 -0.516499 -1.62069 0
M  V30 292 O 32.658 -0.750013 -1.79132 0
M  V30 293 C 29.788 -1.71515 -3.01993 0
M  V30 294 C 28.742 -2.86222 -3.18216 0
M  V30 295 C 28.068 -2.76061 -4.57924 0
M  V30 296 C 29.368 -4.27419 -3.00184 0
M  V30 297 H 31.062 -2.59932 -1.48579 0
M  V30 298 H 28.608 -1.25089 -0.713358 0
M  V30 299 H 30.561 -1.82731 -3.7972 0
M  V30 300 H 29.285 -0.749393 -3.17886 0
M  V30 301 H 27.944 -2.74575 -2.42908 0
M  V30 302 H 27.592 -1.77437 -4.70665 0
M  V30 303 H 27.292 -3.53037 -4.69722 0
M  V30 304 H 28.816 -2.89256 -5.37739 0
M  V30 305 H 30.23 -4.39855 -3.67697 0
M  V30 306 H 28.627 -5.05458 -3.2347 0
M  V30 307 H 29.697 -4.43293 -1.96518 0
M  V30 308 N 31.0401 0.771051 -1.3745 0
M  V30 309 C 32.4561 1.07171 -1.18265 0
M  V30 310 C 32.6561 2.01491 -0.019287 0
M  V30 311 O 31.7121 2.44244 0.640408 0
M  V30 312 C 33.0251 1.66854 -2.50161 0
M  V30 313 C 34.5731 1.79109 -2.56689 0
M  V30 314 C 35.0481 2.42205 -3.88717 0
M  V30 315 N 36.5391 2.49655 -3.90162 0
M  V30 316 C 37.2741 2.9933 -4.8907 0
M  V30 317 N 36.7701 3.49172 -5.98374 0
M  V30 318 N 38.5631 2.9821 -4.76474 0
M  V30 319 H 30.7141 0.144796 -2.11906 0
M  V30 320 H 32.9771 0.126863 -0.939473 0
M  V30 321 H 32.6831 1.05017 -3.35655 0
M  V30 322 H 32.5571 2.6614 -2.673 0
M  V30 323 H 34.9441 2.40077 -1.71601 0
M  V30 324 H 35.0251 0.785757 -2.43433 0
M  V30 325 H 34.6691 1.81875 -4.74219 0
M  V30 326 H 34.5991 3.43345 -3.99276 0
M  V30 327 H 37.0901 2.14383 -3.11205 0
M  V30 328 H 37.4031 3.8548 -6.69795 0
M  V30 329 H 35.7481 3.47275 -6.02018 0
M  V30 330 H 38.9391 2.58572 -3.90203 0
M  V30 331 H 39.1121 3.36613 -5.53711 0
M  V30 332 N 32.5182 1.22032 0.997298 0
M  V30 333 C 33.4482 1.01065 2.10495 0
M  V30 334 C 34.4292 -0.0669542 1.69968 0
M  V30 335 O 35.6142 0.0943987 1.9397 0
M  V30 336 C 32.7442 0.582874 3.42374 0
M  V30 337 C 31.6982 1.60592 3.96729 0
M  V30 338 C 31.0242 1.03412 5.24605 0
M  V30 339 C 32.3242 2.99478 4.27914 0
M  V30 340 H 34.0182 1.93708 2.28292 0
M  V30 341 H 31.5642 0.932761 1.09707 0
M  V30 342 H 33.5172 0.423332 4.19268 0
M  V30 343 H 32.2412 -0.379213 3.24391 0
M  V30 344 H 30.9002 1.75316 3.21963 0
M  V30 345 H 30.5482 0.063518 5.0296 0
M  V30 346 H 30.2482 1.71754 5.61938 0
M  V30 347 H 31.7722 0.886066 6.04137 0
M  V30 348 H 33.1862 2.88153 4.95622 0
M  V30 349 H 31.5832 3.64903 4.76409 0
M  V30 350 H 32.6532 3.49742 3.3587 0
M  V30 351 N 33.9963 -1.19345 1.0293 0
M  V30 352 C 35.2213 -1.93538 0.745511 0
M  V30 353 C 35.6463 -1.75007 -0.689511 0
M  V30 354 O 35.0043 -1.05265 -1.47611 0
M  V30 355 C 35.0523 -3.43336 1.10239 0
M  V30 356 O 34.1563 -4.11806 0.221289 0
M  V30 357 H 33.4973 -0.604193 0.275404 0
M  V30 358 H 36.0273 -1.5141 1.37609 0
M  V30 359 H 36.0373 -3.94004 1.05947 0
M  V30 360 H 34.7123 -3.56146 2.14786 0
M  V30 361 H 33.2893 -3.715 0.322842 0
M  V30 362 N 35.4744 -0.807222 -1.35358 0
M  V30 363 C 36.4244 -0.190706 -2.27201 0
M  V30 364 C 37.4084 0.635838 -1.47804 0
M  V30 365 O 38.6004 0.492991 -1.69996 0
M  V30 366 C 35.7294 0.659337 -3.36909 0
M  V30 367 C 34.8154 -0.176971 -4.23731 0
M  V30 368 N 35.2064 -1.24029 -4.90357 0
M  V30 369 C 33.5044 0.0412953 -4.45981 0
M  V30 370 C 34.2054 -1.75092 -5.54723 0
M  V30 371 N 33.1814 -1.05727 -5.33219 0
M  V30 372 H 36.9834 -1.0043 -2.76208 0
M  V30 373 H 34.4974 -0.648445 -1.48892 0
M  V30 374 H 36.4944 1.11706 -4.01656 0
M  V30 375 H 35.1544 1.47127 -2.89454 0
M  V30 376 H 36.1654 -1.62295 -4.91814 0
M  V30 377 H 32.8424 0.82232 -4.09322 0
M  V30 378 H 34.2324 -2.63963 -6.17878 0
M  V30 379 N 36.9525 1.47285 -0.560781 0
M  V30 380 C 37.8625 2.33846 0.187954 0
M  V30 381 C 38.8785 1.48412 0.908293 0
M  V30 382 O 40.0545 1.81332 0.876388 0
M  V30 383 C 37.1195 3.25178 1.2025 0
M  V30 384 C 36.1805 4.26504 0.489208 0
M  V30 385 C 35.4135 5.13472 1.45542 0
M  V30 386 O 35.6365 5.02959 2.6905 0
M  V30 387 O 34.5705 5.93902 0.977963 0
M  V30 388 H 38.3965 2.99177 -0.522177 0
M  V30 389 H 35.9815 1.45903 -0.321364 0
M  V30 390 H 37.8635 3.81584 1.78805 0
M  V30 391 H 36.5385 2.6247 1.89449 0
M  V30 392 H 35.4455 3.73847 -0.137627 0
M  V30 393 H 36.7785 4.91935 -0.161399 0
M  V30 394 N 38.4306 0.297415 1.54768 0
M  V30 395 C 39.3936 -0.567375 2.22066 0
M  V30 396 C 40.3936 -1.06409 1.20556 0
M  V30 397 O 41.5836 -0.960691 1.45315 0
M  V30 398 C 38.7156 -1.78517 2.90421 0
M  V30 399 H 39.9086 0.0205534 2.99893 0
M  V30 400 H 37.4616 0.0482163 1.56226 0
M  V30 401 H 38.1966 -2.41303 2.16664 0
M  V30 402 H 37.9816 -1.43669 3.64831 0
M  V30 403 H 39.4716 -2.39964 3.41771 0
M  V30 404 N 39.9087 -1.5758 0.0250728 0
M  V30 405 C 40.8387 -2.13007 -0.956575 0
M  V30 406 C 41.8197 -1.0452 -1.342 0
M  V30 407 O 43.0047 -1.32332 -1.42133 0
M  V30 408 C 40.1347 -2.65386 -2.24026 0
M  V30 409 C 39.0887 -3.78623 -1.99571 0
M  V30 410 C 38.4147 -4.17414 -3.3417 0
M  V30 411 C 39.7147 -5.04867 -1.33814 0
M  V30 412 H 41.4087 -2.9528 -0.494991 0
M  V30 413 H 38.9547 -1.42042 -0.236651 0
M  V30 414 H 40.9077 -3.02794 -2.93076 0
M  V30 415 H 39.6317 -1.80268 -2.72343 0
M  V30 416 H 38.2907 -3.41646 -1.32941 0
M  V30 417 H 37.9387 -3.29284 -3.80238 0
M  V30 418 H 37.6387 -4.93719 -3.18615 0
M  V30 419 H 39.1627 -4.57402 -4.04495 0
M  V30 420 H 40.5767 -5.39888 -1.92857 0
M  V30 421 H 38.9737 -5.86144 -1.28669 0
M  V30 422 H 40.0437 -4.83904 -0.310561 0
M  V30 423 N 41.3868 0.248026 -1.55636 0
M  V30 424 C 42.8028 0.596483 -1.48035 0
M  V30 425 C 43.0028 1.88386 -0.715039 0
M  V30 426 O 42.0588 2.51319 -0.243944 0
M  V30 427 C 43.3718 0.700258 -2.92433 0
M  V30 428 C 44.9198 0.792659 -3.02797 0
M  V30 429 C 45.3948 0.928005 -4.485 0
M  V30 430 N 46.8858 0.992903 -4.52433 0
M  V30 431 C 47.6208 1.11687 -5.62418 0
M  V30 432 N 47.1168 1.20645 -6.82214 0
M  V30 433 N 48.9098 1.14994 -5.50212 0
M  V30 434 H 41.0608 -0.597109 -2.03834 0
M  V30 435 H 43.3238 -0.205925 -0.925364 0
M  V30 436 H 43.0298 -0.175658 -3.51261 0
M  V30 437 H 42.9038 1.57255 -3.42857 0
M  V30 438 H 45.2908 1.65903 -2.4405 0
M  V30 439 H 45.3718 -0.104762 -2.55585 0
M  V30 440 H 45.0158 0.0661971 -5.07857 0
M  V30 441 H 44.9458 1.84045 -4.93391 0
M  V30 442 H 47.4368 0.935064 -3.66149 0
M  V30 443 H 47.7498 1.30008 -7.61786 0
M  V30 444 H 46.0948 1.17605 -6.84977 0
M  V30 445 H 49.2858 1.07643 -4.55555 0
M  V30 446 H 49.4588 1.24311 -6.35965 0
M  V30 447 N 42.8649 1.48995 0.513639 0
M  V30 448 C 43.7969 1.60836 1.63293 0
M  V30 449 C 44.8099 0.491701 1.55197 0
M  V30 450 O 45.9989 0.763238 1.6136 0
M  V30 451 C 43.0989 1.53731 3.02027 0
M  V30 452 C 42.2719 2.80715 3.35437 0
M  V30 453 C 41.3309 2.66837 4.53525 0
M  V30 454 O 40.3569 3.40753 4.55934 0
M  V30 455 N 41.5589 1.77539 5.52684 0
M  V30 456 H 44.3239 2.57366 1.53566 0
M  V30 457 H 41.8849 1.45925 0.701259 0
M  V30 458 H 43.8769 1.42118 3.78926 0
M  V30 459 H 42.4469 0.651092 3.05744 0
M  V30 460 H 41.6669 3.06772 2.47557 0
M  V30 461 H 42.9549 3.64927 3.54551 0
M  V30 462 H 42.3529 1.16719 5.53528 0
M  V30 463 H 40.9099 1.71856 6.28736 0
M  V30 464 N 44.343 -0.763751 1.37857 0
M  V30 465 C 45.592 -1.51789 1.32827 0
M  V30 466 C 45.905 -1.95426 -0.0823719 0
M  V30 467 O 47.111 -2.70298 -0.255172 0
M  V30 468 C 45.567 -2.74133 2.33193 0
M  V30 469 C 45.175 -2.37562 3.79827 0
M  V30 470 C 46.919 -3.52054 2.37188 0
M  V30 471 C 44.826 -3.56456 4.71904 0
M  V30 472 H 43.756 -0.569896 0.493695 0
M  V30 473 H 46.407 -0.835822 1.63359 0
M  V30 474 H 44.789 -3.4427 1.9569 0
M  V30 475 H 45.963 -1.75157 4.26212 0
M  V30 476 H 44.278 -1.72798 3.78853 0
M  V30 477 H 46.875 -4.40437 3.03182 0
M  V30 478 H 47.218 -3.92486 1.38782 0
M  V30 479 H 47.751 -2.88921 2.7344 0
M  V30 480 H 44.49 -3.21099 5.71468 0
M  V30 481 H 44.01 -4.17938 4.30218 0
M  V30 482 H 45.689 -4.23168 4.89426 0
M  V30 483 N 45.8211 -1.22559 -0.990812 0
M  V30 484 C 47.0511 -1.07623 -1.76355 0
M  V30 485 C 47.4591 0.37601 -1.85426 0
M  V30 486 O 46.8021 1.27228 -1.32509 0
M  V30 487 C 46.8641 -1.61507 -3.21179 0
M  V30 488 C 46.5281 -3.10146 -3.35646 0
M  V30 489 C 47.5251 -4.07553 -3.22796 0
M  V30 490 C 45.2101 -3.49644 -3.60631 0
M  V30 491 C 47.2041 -5.42442 -3.34716 0
M  V30 492 C 44.8911 -4.84682 -3.72192 0
M  V30 493 C 45.8891 -5.8089 -3.59243 0
M  V30 494 O 45.5771 -7.13476 -3.70415 0
M  V30 495 H 45.3091 -0.377745 -0.560611 0
M  V30 496 H 47.8631 -1.62658 -1.25425 0
M  V30 497 H 46.0931 -1.00881 -3.73309 0
M  V30 498 H 47.7821 -1.42202 -3.80175 0
M  V30 499 H 48.5481 -3.78381 -3.03403 0
M  V30 500 H 44.4271 -2.75282 -3.69785 0
M  V30 501 H 47.9711 -6.17518 -3.24526 0
M  V30 502 H 43.8681 -5.13534 -3.91092 0
M  V30 503 H 44.6361 -7.21083 -3.87275 0
M  V30 504 N 47.2992 1.18797 -1.03562 0
M  V30 505 C 48.2292 2.24472 -0.643019 0
M  V30 506 C 49.2102 1.66433 0.351283 0
M  V30 507 O 50.3952 1.92803 0.232505 0
M  V30 508 C 47.5252 3.473 4.24935e-05 0
M  V30 509 C 46.4792 4.18055 -0.917257 0
M  V30 510 C 45.8052 5.34519 -0.138941 0
M  V30 511 C 47.1052 4.72109 -2.23407 0
M  V30 512 H 48.7992 2.57566 -1.52643 0
M  V30 513 H 46.3452 1.23806 -0.735394 0
M  V30 514 H 48.2982 4.20426 0.286383 0
M  V30 515 H 47.0222 3.13424 0.918299 0
M  V30 516 H 45.6812 3.46821 -1.1879 0
M  V30 517 H 45.3292 4.96891 0.781562 0
M  V30 518 H 45.0292 5.82794 -0.750005 0
M  V30 519 H 46.5532 6.10438 0.1405 0
M  V30 520 H 47.9672 5.36955 -2.00879 0
M  V30 521 H 46.3642 5.30897 -2.79765 0
M  V30 522 H 47.4342 3.89807 -2.88407 0
M  V30 523 N 48.7773 0.814389 1.34928 0
M  V30 524 C 50.0023 0.410097 2.03305 0
M  V30 525 C 50.4273 -0.973464 1.60951 0
M  V30 526 O 49.7853 -1.63185 0.789964 0
M  V30 527 C 49.8333 0.51049 3.56968 0
M  V30 528 O 48.9373 -0.473035 4.09678 0
M  V30 529 H 48.2783 0.170088 0.641846 0
M  V30 530 H 50.8083 1.10244 1.72358 0
M  V30 531 H 50.8183 0.383135 4.06197 0
M  V30 532 H 49.4933 1.51963 3.87144 0
M  V30 533 H 48.0703 -0.305272 3.71648 0
M  V30 534 N 50.2554 -1.46986 0.568584 0
M  V30 535 C 51.5034 -2.02041 0.0487022 0
M  V30 536 C 51.8244 -1.44408 -1.31039 0
M  V30 537 O 51.0944 -0.623477 -1.85714 0
M  V30 538 H 49.6744 -0.746849 0.015014 0
M  V30 539 H 52.3364 -1.80257 0.741168 0
M  V30 540 H 51.4324 -3.12085 -0.0308961 0
M  V30 541 N 51.7335 -0.305618 -1.54608 0
M  V30 542 C 52.6635 0.561482 -2.26649 0
M  V30 543 C 53.6445 1.13415 -1.26772 0
M  V30 544 O 54.8295 1.16262 -1.55553 0
M  V30 545 C 51.9595 1.73122 -3.01075 0
M  V30 546 C 50.9135 1.2887 -4.08138 0
M  V30 547 C 50.2395 2.54396 -4.70305 0
M  V30 548 C 51.5395 0.416578 -5.20636 0
M  V30 549 H 53.2335 -0.0393902 -2.99374 0
M  V30 550 H 50.7795 -0.020385 -1.43986 0
M  V30 551 H 52.7325 2.34396 -3.50195 0
M  V30 552 H 51.4565 2.3584 -2.25936 0
M  V30 553 H 50.1155 0.698991 -3.59875 0
M  V30 554 H 49.7635 3.15439 -3.918 0
M  V30 555 H 49.4635 2.25486 -5.42614 0
M  V30 556 H 50.9875 3.16464 -5.2219 0
M  V30 557 H 52.4015 0.935116 -5.65622 0
M  V30 558 H 50.7985 0.221046 -5.99693 0
M  V30 559 H 51.8685 -0.557162 -4.81688 0
M  V30 560 N 53.2116 1.57565 -0.0334293 0
M  V30 561 C 54.1616 2.06978 0.956237 0
M  V30 562 C 55.1456 0.971193 1.28283 0
M  V30 563 O 56.3376 1.23471 1.26822 0
M  V30 564 C 53.4666 2.60393 2.23719 0
M  V30 565 C 52.5526 3.7719 1.93877 0
M  V30 566 N 52.9436 4.87639 1.34321 0
M  V30 567 C 51.2416 3.85758 2.23845 0
M  V30 568 C 51.9426 5.68825 1.21709 0
M  V30 569 N 50.9186 5.1587 1.71404 0
M  V30 570 H 54.7206 2.89773 0.490815 0
M  V30 571 H 52.2346 1.61492 0.171478 0
M  V30 572 H 54.2316 2.94088 2.95496 0
M  V30 573 H 52.8916 1.79031 2.70884 0
M  V30 574 H 53.9026 5.07803 1.01767 0
M  V30 575 H 50.5796 3.1531 2.73653 0
M  V30 576 H 51.9696 6.67631 0.75621 0
M  V30 577 N 54.6897 -0.239769 1.55765 0
M  V30 578 C 55.9147 -0.988373 1.82335 0
M  V30 579 C 56.3397 -1.77886 0.611421 0
M  V30 580 O 55.6977 -1.75889 -0.439639 0
M  V30 581 C 55.7457 -1.89627 3.06715 0
M  V30 582 O 54.8497 -2.98904 2.84131 0
M  V30 583 H 54.1907 -0.280858 0.601677 0
M  V30 584 H 56.7207 -0.258597 2.02959 0
M  V30 585 H 56.7307 -2.30957 3.36338 0
M  V30 586 H 55.4057 -1.31511 3.9456 0
M  V30 587 H 53.9827 -2.61651 2.65694 0
M  V30 588 N 56.1678 -1.49265 -0.50573 0
M  V30 589 C 57.4138 -1.59723 -1.25937 0
M  V30 590 C 57.7688 -0.278236 -1.90378 0
M  V30 591 O 57.0618 0.72113 -1.77511 0
M  V30 592 C 57.2558 -2.69008 -2.35308 0
M  V30 593 C 57.0848 -4.11405 -1.81592 0
M  V30 594 C 55.8548 -4.78252 -1.63105 0
M  V30 595 C 58.0528 -4.96792 -1.33048 0
M  V30 596 N 56.0348 -6.0498 -1.04269 0
M  V30 597 C 57.4058 -6.13962 -0.863168 0
M  V30 598 C 59.4608 -4.82828 -1.21577 0
M  V30 599 C 58.1638 -7.18705 -0.292489 0
M  V30 600 C 60.1898 -5.87716 -0.65907 0
M  V30 601 C 59.5518 -7.0411 -0.201954 0
M  V30 602 H 55.6508 -0.638864 -0.450973 0
M  V30 603 H 58.2348 -1.86251 -0.567326 0
M  V30 604 H 56.4058 -2.4426 -3.01979 0
M  V30 605 H 58.1378 -2.69013 -3.02348 0
M  V30 606 H 54.8928 -4.34974 -1.87336 0
M  V30 607 H 55.3168 -6.72631 -0.767919 0
M  V30 608 H 59.9588 -3.93159 -1.55518 0
M  V30 609 H 57.6768 -8.08078 0.0591987 0
M  V30 610 H 61.2628 -5.7897 -0.573156 0
M  V30 611 H 60.1428 -7.83885 0.222101 0
M  V30 612 N 57.6459 0.756429 -1.3826 0
M  V30 613 C 58.5929 1.87011 -1.35261 0
M  V30 614 C 59.5629 1.64695 -0.215616 0
M  V30 615 O 60.7479 1.864 -0.407399 0
M  V30 616 C 57.8879 3.24275 -1.18068 0
M  V30 617 C 57.0009 3.58442 -2.41129 0
M  V30 618 C 56.1359 4.84994 -2.16689 0
M  V30 619 C 55.1749 5.11939 -3.35537 0
M  V30 620 N 54.3119 6.29685 -3.10549 0
M  V30 621 H 59.1519 1.8891 -2.30472 0
M  V30 622 H 56.6889 0.923373 -1.14509 0
M  V30 623 H 58.6469 4.03479 -1.06116 0
M  V30 624 H 57.2769 3.21711 -0.264973 0
M  V30 625 H 56.3289 2.74103 -2.63764 0
M  V30 626 H 57.6409 3.74283 -3.29717 0
M  V30 627 H 56.7949 5.72135 -2.01857 0
M  V30 628 H 55.5339 4.71286 -1.25462 0
M  V30 629 H 54.5389 4.23268 -3.50891 0
M  V30 630 H 55.7639 5.27546 -4.27635 0
M  V30 631 H 53.7099 6.17306 -2.21967 0
M  V30 632 H 53.6269 6.46014 -3.92686 0
M  V30 633 H 54.8949 7.19722 -2.99367 0
M  V30 634 N 59.124 1.23083 0.984299 0
M  V30 635 C 60.071 1.00854 2.07598 0
M  V30 636 C 61.041 -0.0726709 1.65941 0
M  V30 637 O 62.226 0.0786535 1.90638 0
M  V30 638 C 59.366 0.601645 3.39815 0
M  V30 639 C 58.479 1.75456 3.94765 0
M  V30 640 C 57.614 1.29482 5.15177 0
M  V30 641 C 56.653 2.41873 5.62284 0
M  V30 642 N 55.79 1.96885 6.73929 0
M  V30 643 H 60.63 1.943 2.25946 0
M  V30 644 H 58.167 0.968001 1.10762 0
M  V30 645 H 60.125 0.346854 4.15756 0
M  V30 646 H 58.755 -0.295803 3.21442 0
M  V30 647 H 57.807 2.12346 3.15616 0
M  V30 648 H 59.119 2.59965 4.25699 0
M  V30 649 H 58.273 0.997923 5.98437 0
M  V30 650 H 57.012 0.420046 4.85888 0
M  V30 651 H 56.017 2.72342 4.77608 0
M  V30 652 H 57.242 3.29881 5.93595 0
M  V30 653 H 55.188 1.11782 6.46406 0
M  V30 654 H 55.105 2.74956 7.04227 0
M  V30 655 H 56.373 1.70289 7.60672 0
M  V30 656 N 60.6021 -1.18246 1.0419 0
M  V30 657 C 61.5491 -2.2192 0.634037 0
M  V30 658 C 62.5191 -1.62179 -0.358765 0
M  V30 659 O 63.7041 -1.89122 -0.252466 0
M  V30 660 C 60.8441 -3.451 0.00445535 0
M  V30 661 C 59.9571 -4.19174 1.04487 0
M  V30 662 C 59.0921 -5.29813 0.383676 0
M  V30 663 C 58.1311 -5.9566 1.4091 0
M  V30 664 N 57.2681 -6.97834 0.772784 0
M  V30 665 H 62.1081 -2.56164 1.52263 0
M  V30 666 H 59.6451 -1.25843 0.761701 0
M  V30 667 H 61.6031 -4.15485 -0.377919 0
M  V30 668 H 60.2331 -3.11472 -0.847652 0
M  V30 669 H 59.2851 -3.47604 1.54518 0
M  V30 670 H 60.5971 -4.64267 1.82368 0
M  V30 671 H 59.7511 -6.06677 -0.0528366 0
M  V30 672 H 58.4901 -4.85825 -0.427208 0
M  V30 673 H 57.4951 -5.17535 1.85574 0
M  V30 674 H 58.7201 -6.4173 2.22171 0
M  V30 675 H 56.6661 -6.55998 -0.0177708 0
M  V30 676 H 56.5831 -7.41186 1.48928 0
M  V30 677 H 57.8511 -7.78665 0.36071 0
M  V30 678 N 62.0802 -0.821533 -1.34494 0
M  V30 679 C 63.3272 -0.408946 -1.98328 0
M  V30 680 C 63.6552 1.02764 -1.65136 0
M  V30 681 O 62.9102 1.73026 -0.914349 0
M  V30 682 C 63.2092 -0.556512 -3.53041 0
M  V30 683 C 62.8752 -1.95861 -4.0614 0
M  V30 684 C 61.5372 -2.34217 -4.20352 0
M  V30 685 C 63.8892 -2.87523 -4.34718 0
M  V30 686 C 61.2172 -3.63572 -4.6047 0
M  V30 687 C 63.5692 -4.1634 -4.76281 0
M  V30 688 C 62.2332 -4.54675 -4.88699 0
M  V30 689 H 61.5032 -0.149644 -0.725732 0
M  V30 690 H 64.1502 -1.04521 -1.6046 0
M  V30 691 H 62.4552 0.163148 -3.9146 0
M  V30 692 H 64.1522 -0.217826 -4.00408 0
M  V30 693 H 60.7422 -1.65066 -3.95539 0
M  V30 694 H 64.9262 -2.59133 -4.23277 0
M  V30 695 H 60.1822 -3.93101 -4.68275 0
M  V30 696 H 64.3562 -4.87455 -4.97354 0
M  V30 697 H 61.9832 -5.54959 -5.19542 0
M  V30 698 N 63.5583 1.46682 -0.576371 0
M  V30 699 C 64.8073 2.01619 -0.0572825 0
M  V30 700 C 65.1203 1.45417 1.30818 0
M  V30 701 O 66.3263 1.92133 1.91825 0
M  V30 702 C 64.7823 3.59863 -0.0518371 0
M  V30 703 C 64.3903 4.25059 -1.41523 0
M  V30 704 C 66.1343 4.2248 0.413639 0
M  V30 705 C 64.0413 5.75364 -1.36785 0
M  V30 706 H 62.9713 0.753794 -0.0176448 0
M  V30 707 H 65.6223 1.68481 -0.727076 0
M  V30 708 H 64.0043 3.90048 0.683994 0
M  V30 709 H 65.1783 4.06491 -2.17029 0
M  V30 710 H 63.4933 3.7451 -1.8202 0
M  V30 711 H 66.0903 5.3265 0.467779 0
M  V30 712 H 66.4333 3.90976 1.42982 0
M  V30 713 H 66.9663 3.96897 -0.267929 0
M  V30 714 H 63.7053 6.11518 -2.36063 0
M  V30 715 H 63.2253 5.96214 -0.654895 0
M  V30 716 H 64.9043 6.37955 -1.07805 0
M  V30 717 N 65.0364 0.313813 1.54444 0
M  V30 718 C 66.4524 -0.0391619 1.59552 0
M  V30 719 C 66.6524 -1.51322 1.33056 0
M  V30 720 O 65.7084 -2.26782 1.11022 0
M  V30 721 C 67.0214 0.370302 2.98411 0
M  V30 722 C 68.5694 0.320139 3.11358 0
M  V30 723 C 69.0444 0.704617 4.52547 0
M  V30 724 N 70.5354 0.657645 4.58508 0
M  V30 725 C 71.2704 0.927453 5.6585 0
M  V30 726 N 70.7664 1.26389 6.81174 0
M  V30 727 N 72.5594 0.853662 5.5558 0
M  V30 728 H 64.7104 1.27433 1.69925 0
M  V30 729 H 66.9734 0.517511 0.794284 0
M  V30 730 H 66.6794 1.39694 3.22767 0
M  V30 731 H 66.5534 -0.269619 3.76235 0
M  V30 732 H 68.9404 -0.697275 2.86744 0
M  V30 733 H 69.0214 0.99486 2.35661 0
M  V30 734 H 68.6654 1.7199 4.77893 0
M  V30 735 H 68.5954 0.00768843 5.26599 0
M  V30 736 H 71.0864 0.409067 3.75679 0
M  V30 737 H 71.3994 1.4554 7.58972 0
M  V30 738 H 69.7444 1.30206 6.82694 0
M  V30 739 H 72.9354 0.590383 4.64362 0
M  V30 740 H 73.1084 1.0673 6.3915 0
M  V30 741 N 66.5145 -1.57545 0.0417849 0
M  V30 742 C 67.7615 -1.92317 -0.634082 0
M  V30 743 C 68.0895 -0.919334 -1.71402 0
M  V30 744 O 67.3445 0.0698253 -1.95575 0
M  V30 745 C 67.6435 -3.33794 -1.27735 0
M  V30 746 C 67.3095 -4.49716 -0.326543 0
M  V30 747 C 65.9715 -4.81156 -0.0648814 0
M  V30 748 C 68.3235 -5.20182 0.325623 0
M  V30 749 C 65.6515 -5.80414 0.856539 0
M  V30 750 C 68.0035 -6.20424 1.23518 0
M  V30 751 C 66.6675 -6.50298 1.5056 0
M  V30 752 H 65.9375 -0.703736 -0.232027 0
M  V30 753 H 68.5845 -1.91205 0.106259 0
M  V30 754 H 66.8895 -3.31228 -2.09274 0
M  V30 755 H 68.5865 -3.57975 -1.80707 0
M  V30 756 H 65.1765 -4.25176 -0.540665 0
M  V30 757 H 69.3605 -4.96112 0.136546 0
M  V30 758 H 64.6165 -6.019 1.07363 0
M  V30 759 H 68.7905 -6.74141 1.74664 0
M  V30 760 H 66.4175 -7.27025 2.22123 0
M  V30 761 N 67.9926 0.231505 -1.5589 0
M  V30 762 C 68.9396 1.28682 -1.91598 0
M  V30 763 C 69.9096 1.47071 -0.771974 0
M  V30 764 O 71.0946 1.60802 -1.027 0
M  V30 765 C 68.2346 2.6342 -2.22944 0
M  V30 766 C 67.3476 2.52912 -3.50228 0
M  V30 767 C 66.4826 3.80106 -3.7107 0
M  V30 768 C 65.5216 3.64279 -4.91902 0
M  V30 769 N 64.6586 4.834 -5.09184 0
M  V30 770 H 69.4986 0.975305 -2.81588 0
M  V30 771 H 67.0356 0.470299 -1.39379 0
M  V30 772 H 68.9936 3.41869 -2.39126 0
M  V30 773 H 67.6236 2.92687 -1.36139 0
M  V30 774 H 66.6756 1.6595 -3.42294 0
M  V30 775 H 67.9876 2.37133 -4.38827 0
M  V30 776 H 67.1416 4.66999 -3.87295 0
M  V30 777 H 65.8806 3.98799 -2.80733 0
M  V30 778 H 64.8856 2.7577 -4.75637 0
M  V30 779 H 66.1106 3.47067 -5.83714 0
M  V30 780 H 64.0566 5.02425 -4.21788 0
M  V30 781 H 63.9736 4.70311 -5.91898 0
M  V30 782 H 65.2416 5.71747 -5.29835 0
M  V30 783 N 69.4707 1.49531 0.497807 0
M  V30 784 C 70.4187 1.66926 1.61983 0
M  V30 785 C 71.4127 0.535167 1.60724 0
M  V30 786 O 72.6187 0.714896 1.65195 0
M  V30 787 H 68.9937 0.526415 0.537021 0
M  V30 788 H 70.9647 2.61098 1.44465 0
M  V30 789 C 69.7137 1.75602 3.00099 0
M  V30 790 H 69.0367 2.62244 3.01775 0
M  V30 791 H 70.4767 1.91807 3.78135 0
M  V30 792 C 68.9357 0.501543 3.33146 0
M  V30 793 O 69.4657 -0.371342 3.9998 0
M  V30 794 N 67.6717 0.363531 2.88317 0
M  V30 795 H 67.2187 1.07485 2.34104 0
M  V30 796 H 67.1767 -0.474728 3.10795 0
M  V30 797 N 70.9488 -0.749086 1.3866 0
M  V30 798 C 72.1968 -1.50535 1.34847 0
M  V30 799 C 72.5178 -1.94909 -0.0595016 0
M  V30 800 O 71.7878 -1.67973 -1.00806 0
M  V30 801 H 70.3678 -0.558395 0.49619 0
M  V30 802 H 73.0298 -0.890165 1.73384 0
M  V30 803 H 72.1258 -2.39413 2.00219 0
M  V30 804 N 72.4269 -1.23603 -0.977757 0
M  V30 805 C 73.6759 -1.06377 -1.71368 0
M  V30 806 C 73.9889 0.399062 -1.91486 0
M  V30 807 O 75.1949 0.691312 -2.62551 0
M  V30 808 C 73.6509 -1.85512 -3.08404 0
M  V30 809 C 73.2589 -3.36141 -2.96164 0
M  V30 810 C 75.0029 -1.76783 -3.85938 0
M  V30 811 C 72.9099 -4.07659 -4.28449 0
M  V30 812 H 71.8399 -0.394452 -0.642591 0
M  V30 813 H 74.4909 -1.47594 -1.09034 0
M  V30 814 H 72.8729 -1.37103 -3.71509 0
M  V30 815 H 74.0469 -3.92056 -2.42133 0
M  V30 816 H 72.3619 -3.45712 -2.32104 0
M  V30 817 H 74.9589 -2.27526 -4.83876 0
M  V30 818 H 75.3019 -0.731116 -4.0983 0
M  V30 819 H 75.8349 -2.22818 -3.2954 0
M  V30 820 H 72.5739 -5.11648 -4.09752 0
M  V30 821 H 72.0939 -3.5653 -4.82334 0
M  V30 822 H 73.7729 -4.141 -4.97122 0
M  V30 823 N 73.905 1.17692 -1.04816 0
M  V30 824 C 75.154 1.87192 -0.751132 0
M  V30 825 C 75.467 1.8169 0.724441 0
M  V30 826 O 76.673 2.46625 1.13527 0
M  V30 827 C 75.129 3.35857 -1.29338 0
M  V30 828 C 74.737 3.4987 -2.79812 0
M  V30 829 C 76.481 4.10709 -1.07322 0
M  V30 830 C 74.388 4.92536 -3.27356 0
M  V30 831 H 73.318 0.701162 -0.277288 0
M  V30 832 H 75.969 1.32932 -1.26496 0
M  V30 833 H 74.351 3.89631 -0.707376 0
M  V30 834 H 75.525 3.06332 -3.44235 0
M  V30 835 H 73.84 2.88433 -3.00325 0
M  V30 836 H 76.437 5.15952 -1.4035 0
M  V30 837 H 76.78 4.16299 -0.0108001 0
M  V30 838 H 77.313 3.6313 -1.62423 0
M  V30 839 H 74.052 4.92119 -4.33012 0
M  V30 840 H 73.572 5.3676 -2.67673 0
M  V30 841 H 75.251 5.61288 -3.21815 0
M  V30 842 N 75.3831 0.828654 1.34056 0
M  V30 843 C 76.6111 0.43262 2.02326 0
M  V30 844 C 77.0261 -0.963147 1.62385 0
M  V30 845 O 76.3831 -1.62425 0.832121 0
M  V30 846 C 76.4341 0.53182 3.57567 0
M  V30 847 O 76.1551 1.87258 3.96063 0
M  V30 848 C 77.6561 0.131422 4.43105 0
M  V30 849 H 74.8761 0.172923 0.648335 0
M  V30 850 H 77.4201 1.1184 1.71208 0
M  V30 851 H 75.5751 -0.105938 3.87255 0
M  V30 852 H 75.9891 1.85087 4.90758 0
M  V30 853 H 77.4631 0.251904 5.51425 0
M  V30 854 H 77.9401 -0.925645 4.29335 0
M  V30 855 H 78.5461 0.743207 4.18756 0
M  V30 856 N 76.8612 -1.46375 0.584142 0
M  V30 857 C 78.1092 -2.01978 0.0701287 0
M  V30 858 C 78.4302 -1.4579 -1.295 0
M  V30 859 O 77.7002 -0.64314 -1.85042 0
M  V30 860 H 76.2802 -0.746648 0.0229345 0
M  V30 861 H 78.9422 -1.79461 0.760245 0
M  V30 862 H 78.0382 -3.121 0.0022064 0
M  V30 863 N 78.3393 -0.321999 -1.54275 0
M  V30 864 C 79.5853 0.281461 -2.00837 0
M  V30 865 C 79.9183 1.51909 -1.20985 0
M  V30 866 O 79.1933 1.923 -0.291733 0
M  V30 867 C 79.4763 0.617162 -3.54772 0
M  V30 868 C 79.3293 -0.631064 -4.45351 0
M  V30 869 C 80.6483 1.43542 -4.16033 0
M  V30 870 H 77.7673 0.100826 -0.730071 0
M  V30 871 H 80.4093 -0.438268 -1.84876 0
M  V30 872 H 78.5593 1.23034 -3.68504 0
M  V30 873 H 80.2313 -1.26934 -4.43492 0
M  V30 874 H 78.4743 -1.26025 -4.15091 0
M  V30 875 H 79.1453 -0.351735 -5.50878 0
M  V30 876 H 81.6213 0.917134 -4.05867 0
M  V30 877 H 80.4973 1.63907 -5.23856 0
M  V30 878 H 80.7583 2.43108 -3.69257 0
M  V30 879 N 79.8174 1.5752 -0.0501392 0
M  V30 880 C 81.0474 1.96678 0.632573 0
M  V30 881 C 81.4554 0.926298 1.64974 0
M  V30 882 O 80.7984 -0.09802 1.83438 0
M  V30 883 C 80.8604 3.32068 1.37735 0
M  V30 884 C 80.5244 4.54076 0.516131 0
M  V30 885 C 81.5214 5.19445 -0.217357 0
M  V30 886 C 79.2064 5.00304 0.44736 0
M  V30 887 C 81.2004 6.29378 -1.00807 0
M  V30 888 C 78.8874 6.10114 -0.347038 0
M  V30 889 C 79.8854 6.74512 -1.07344 0
M  V30 890 O 79.5734 7.82211 -1.85477 0
M  V30 891 H 79.3054 0.652193 0.177821 0
M  V30 892 H 81.8594 2.05091 -0.112543 0
M  V30 893 H 80.0894 3.20206 2.16807 0
M  V30 894 H 81.7784 3.55981 1.95019 0
M  V30 895 H 82.5444 4.84689 -0.173688 0
M  V30 896 H 78.4234 4.49971 1.00235 0
M  V30 897 H 81.9674 6.79575 -1.57556 0
M  V30 898 H 77.8644 6.44307 -0.392349 0
M  V30 899 H 78.6324 7.98982 -1.77678 0
M  V30 900 N 81.2955 -0.223234 1.56011 0
M  V30 901 C 82.7065 -0.790368 1.69145 0
M  V30 902 C 83.0575 -1.85055 0.651845 0
M  V30 903 O 82.1825 -2.15498 -0.197359 0
M  V30 904 C 82.7775 -1.4404 3.06656 0
M  V30 905 C 81.3365 -1.95494 3.2165 0
M  V30 906 C 80.4835 -0.814506 2.65068 0
M  V30 907 H 83.4345 0.00139011 1.587 0
M  V30 908 H 83.4555 -2.30916 3.0242 0
M  V30 909 H 82.9675 -0.668543 3.82298 0
M  V30 910 H 81.0685 -2.75487 2.50874 0
M  V30 911 H 81.1815 -2.13607 4.28846 0
M  V30 912 H 79.5455 -1.22137 2.23505 0
M  V30 913 H 80.3285 -0.0553515 3.43255 0
M  V30 914 N 82.7736 -1.49793 -0.48987 0
M  V30 915 C 83.7366 -1.66752 -1.57246 0
M  V30 916 C 84.7366 -0.538867 -1.51502 0
M  V30 917 O 85.9266 -0.805545 -1.54456 0
M  V30 918 C 83.0586 -1.67528 -2.96896 0
M  V30 919 H 84.2516 -2.63321 -1.43534 0
M  V30 920 H 81.8046 -1.38992 -0.714914 0
M  V30 921 H 82.5396 -0.725837 -3.16073 0
M  V30 922 H 82.3246 -2.49504 -3.02473 0
M  V30 923 H 83.8146 -1.82667 -3.7553 0
M  V30 924 N 84.2517 0.741722 -1.39055 0
M  V30 925 C 85.4767 1.53607 -1.39354 0
M  V30 926 C 85.9017 1.88096 0.0116905 0
M  V30 927 O 85.2597 1.5143 0.996924 0
M  V30 928 C 85.3077 2.80441 -2.26682 0
M  V30 929 O 84.4117 3.76088 -1.69208 0
M  V30 930 H 83.7527 0.464142 -0.474835 0
M  V30 931 H 86.2827 0.915665 -1.82967 0
M  V30 932 H 86.2927 3.29246 -2.40959 0
M  V30 933 H 84.9677 2.5467 -3.2881 0
M  V30 934 H 83.5447 3.34833 -1.64138 0
M  V30 935 N 85.7298 1.2412 0.971189 0
M  V30 936 C 87.1408 1.07236 1.52831 0
M  V30 937 C 87.4918 -0.357352 1.92918 0
M  V30 938 O 86.6168 -1.24528 1.76979 0
M  V30 939 C 87.2118 1.94043 2.77728 0
M  V30 940 C 85.7708 1.81394 3.29808 0
M  V30 941 C 84.9178 1.89189 2.02738 0
M  V30 942 H 87.8688 1.37648 0.789864 0
M  V30 943 H 87.8898 1.47066 3.5093 0
M  V30 944 H 87.4018 2.98093 2.4852 0
M  V30 945 H 85.5028 0.801634 3.63874 0
M  V30 946 H 85.6158 2.65294 3.98944 0
M  V30 947 H 83.9798 1.32877 2.17292 0
M  V30 948 H 84.7628 2.94812 1.759 0
M  V30 949 N 87.2079 -1.17134 1.05439 0
M  V30 950 C 88.4329 -1.91913 0.786396 0
M  V30 951 C 88.8579 -1.7643 -0.652234 0
M  V30 952 O 88.2159 -1.08372 -1.45345 0
M  V30 953 C 88.2639 -3.40921 1.17497 0
M  V30 954 O 87.3679 -4.11244 0.308589 0
M  V30 955 H 86.7089 -0.598215 0.288158 0
M  V30 956 H 89.2389 -1.48457 1.4079 0
M  V30 957 H 89.2489 -3.91668 1.14281 0
M  V30 958 H 87.9239 -3.5151 2.22292 0
M  V30 959 H 86.5009 -3.70731 0.40157 0
M  V30 960 N 88.686 -0.835752 -1.33615 0
M  V30 961 C 89.911 -0.442389 -2.02627 0
M  V30 962 C 90.336 0.947735 -1.62479 0
M  V30 963 O 89.694 1.61907 -0.815826 0
M  V30 964 C 89.742 -0.567216 -3.56111 0
M  V30 965 O 88.846 0.407799 -4.10379 0
M  V30 966 H 88.187 -0.180278 -0.639059 0
M  V30 967 H 90.717 -1.12972 -1.70583 0
M  V30 968 H 90.727 -0.447708 -4.05536 0
M  V30 969 H 89.402 -1.58103 -3.84677 0
M  V30 970 H 87.979 0.246107 -3.72087 0
M  V30 971 N 90.1641 1.46063 -0.591896 0
M  V30 972 C 91.4101 2.03203 -0.0894879 0
M  V30 973 C 91.7651 1.45407 1.25994 0
M  V30 974 O 91.0581 0.61326 1.8152 0
M  V30 975 C 91.2521 3.57391 0.0249813 0
M  V30 976 C 91.0811 4.30142 -1.3118 0
M  V30 977 C 89.8511 4.68688 -1.88838 0
M  V30 978 C 92.0491 4.63098 -2.23708 0
M  V30 979 N 90.0311 5.26228 -3.1616 0
M  V30 980 C 91.4021 5.21305 -3.3562 0
M  V30 981 C 93.4571 4.45031 -2.23274 0
M  V30 982 C 92.1601 5.63351 -4.47245 0
M  V30 983 C 94.1861 4.881 -3.33935 0
M  V30 984 C 93.5481 5.46386 -4.44569 0
M  V30 985 H 89.6471 0.778323 -0.0757431 0
M  V30 986 H 92.2311 1.78094 -0.78681 0
M  V30 987 H 90.4021 3.82195 0.69149 0
M  V30 988 H 92.1341 4.0118 0.532613 0
M  V30 989 H 88.8891 4.5174 -1.42223 0
M  V30 990 H 89.3131 5.59512 -3.8115 0
M  V30 991 H 93.9551 3.99295 -1.39008 0
M  V30 992 H 91.6731 6.08061 -5.32247 0
M  V30 993 H 95.2591 4.75866 -3.34728 0
M  V30 994 H 94.1391 5.79102 -5.28782 0
M  V30 995 N 91.6422 0.330177 1.54103 0
M  V30 996 C 92.5722 -0.525353 2.27513 0
M  V30 997 C 93.5532 -1.11383 1.2856 0
M  V30 998 O 94.7382 -1.13773 1.57383 0
M  V30 999 C 91.8682 -1.6831 3.03791 0
M  V30 1000 C 90.8222 -1.2236 4.10137 0
M  V30 1001 C 90.1482 -2.46882 4.74293 0
M  V30 1002 C 91.4482 -0.333697 5.21233 0
M  V30 1003 H 93.1422 0.087013 2.99274 0
M  V30 1004 H 90.6882 0.0432893 1.43935 0
M  V30 1005 H 92.6412 -2.28795 3.5388 0
M  V30 1006 H 91.3652 -2.32216 2.29659 0
M  V30 1007 H 90.0242 -0.64165 3.60941 0
M  V30 1008 H 89.6722 -3.09165 3.96769 0
M  V30 1009 H 89.3722 -2.16825 5.46133 0
M  V30 1010 H 90.8962 -3.08117 5.27159 0
M  V30 1011 H 92.3102 -0.845013 5.67038 0
M  V30 1012 H 90.7072 -0.125612 5.99969 0
M  V30 1013 H 91.7772 0.633724 4.80741 0
M  V30 1014 N 93.1203 -1.57491 0.0584922 0
M  V30 1015 C 94.3693 -1.92155 -0.613146 0
M  V30 1016 C 94.6823 -0.939334 -1.71569 0
M  V30 1017 O 95.8883 -1.17829 -2.44599 0
M  V30 1018 C 94.3443 -3.41303 -1.14195 0
M  V30 1019 C 93.9523 -4.47944 -0.0711265 0
M  V30 1020 C 95.6963 -3.84988 -1.78841 0
M  V30 1021 C 93.6033 -5.88212 -0.613225 0
M  V30 1022 H 92.5333 -0.717162 -0.232796 0
M  V30 1023 H 95.1843 -1.83049 0.12857 0
M  V30 1024 H 93.5663 -3.45437 -1.93621 0
M  V30 1025 H 94.7403 -4.55408 0.702836 0
M  V30 1026 H 93.0553 -4.13644 0.478313 0
M  V30 1027 H 95.6523 -4.87159 -2.20408 0
M  V30 1028 H 95.9953 -3.21632 -2.64308 0
M  V30 1029 H 96.5283 -3.83401 -1.06059 0
M  V30 1030 H 93.2673 -6.55183 0.203978 0
M  V30 1031 H 92.7873 -5.84294 -1.35501 0
M  V30 1032 H 94.4663 -6.37687 -1.09383 0
M  V30 1033 N 94.5984 0.214957 -1.56127 0
M  V30 1034 C 95.8444 0.939762 -1.79712 0
M  V30 1035 C 96.1774 1.83723 -0.629247 0
M  V30 1036 O 95.4524 1.90925 0.371197 0
M  V30 1037 C 95.7354 1.77306 -3.13424 0
M  V30 1038 C 95.5884 0.90164 -4.40671 0
M  V30 1039 C 96.9074 2.74956 -3.43638 0
M  V30 1040 H 94.0264 0.340214 -0.653776 0
M  V30 1041 H 96.6684 0.20824 -1.88855 0
M  V30 1042 H 94.8184 2.39673 -3.0576 0
M  V30 1043 H 96.4904 0.294206 -4.60361 0
M  V30 1044 H 94.7334 0.207368 -4.33304 0
M  V30 1045 H 95.4044 1.51923 -5.30682 0
M  V30 1046 H 97.8804 2.22724 -3.51473 0
M  V30 1047 H 96.7564 3.30358 -4.38355 0
M  V30 1048 H 97.0174 3.53023 -2.66134 0
M  V30 1049 N 96.0765 1.50051 0.48192 0
M  V30 1050 C 97.3225 1.60736 1.2366 0
M  V30 1051 C 97.6555 0.301786 1.91841 0
M  V30 1052 O 96.9305 -0.696025 1.8162 0
M  V30 1053 C 97.2135 2.78009 2.28874 0
M  V30 1054 C 97.0665 4.18416 1.65069 0
M  V30 1055 C 98.3855 2.90867 3.30279 0
M  V30 1056 H 95.5045 0.585031 0.448228 0
M  V30 1057 H 98.1465 1.82402 0.531946 0
M  V30 1058 H 96.2965 2.59667 2.88973 0
M  V30 1059 H 97.9685 4.48322 1.0865 0
M  V30 1060 H 96.2115 4.23177 0.954148 0
M  V30 1061 H 96.8825 4.96381 2.41474 0
M  V30 1062 H 99.3585 3.07623 2.80191 0
M  V30 1063 H 98.2345 3.74566 4.01238 0
M  V30 1064 H 98.4955 2.01021 3.93755 0
M  V30 1065 N 97.5546 -0.734337 1.39446 0
M  V30 1066 C 98.8006 -1.49613 1.36908 0
M  V30 1067 C 99.1336 -1.94169 -0.0347829 0
M  V30 1068 O 98.4086 -1.66833 -0.999847 0
M  V30 1069 C 98.6916 -2.73534 2.34203 0
M  V30 1070 C 98.5446 -2.34993 3.83534 0
M  V30 1071 C 99.8636 -3.75635 2.29317 0
M  V30 1072 H 96.9826 -0.542714 0.498629 0
M  V30 1073 H 99.6246 -0.839597 1.70443 0
M  V30 1074 H 97.7746 -3.29553 2.05736 0
M  V30 1075 H 99.4466 -1.84601 4.22753 0
M  V30 1076 H 97.6896 -1.67213 4.00278 0
M  V30 1077 H 98.3606 -3.23738 4.47099 0
M  V30 1078 H 100.837 -3.29203 2.54489 0
M  V30 1079 H 99.7126 -4.60008 2.99472 0
M  V30 1080 H 99.9736 -4.22603 1.29842 0
M  V30 1081 N 99.0327 -1.24633 -0.964593 0
M  V30 1082 C 100.281 -1.08573 -1.70459 0
M  V30 1083 C 100.602 0.375655 -1.91347 0
M  V30 1084 O 99.8717 1.26779 -1.49345 0
M  V30 1085 H 98.4517 -0.398784 -0.631649 0
M  V30 1086 H 101.114 -1.56601 -1.16026 0
M  V30 1087 H 100.21 -1.58623 -2.68785 0
M  V30 1088 N 100.511 1.16574 -1.06058 0
M  V30 1089 C 101.757 1.87324 -0.777022 0
M  V30 1090 C 102.09 1.81351 0.694645 0
M  V30 1091 O 101.365 1.22753 1.50871 0
M  V30 1092 C 101.648 3.36991 -1.26922 0
M  V30 1093 C 101.501 3.51667 -2.80447 0
M  V30 1094 C 102.82 4.3131 -0.87521 0
M  V30 1095 H 99.9388 0.680191 -0.28374 0
M  V30 1096 H 102.581 1.37036 -1.3161 0
M  V30 1097 H 100.731 3.79949 -0.81063 0
M  V30 1098 H 102.403 3.17664 -3.34495 0
M  V30 1099 H 100.646 2.93656 -3.19294 0
M  V30 1100 H 101.317 4.56766 -3.0995 0
M  V30 1101 H 103.793 3.9624 -1.27014 0
M  V30 1102 H 102.669 5.34545 -1.2471 0
M  V30 1103 H 102.93 4.41552 0.220071 0
M  V30 1104 N 101.989 0.842826 1.3317 0
M  V30 1105 C 102.922 0.223862 2.27099 0
M  V30 1106 C 103.9 -0.631311 1.49844 0
M  V30 1107 O 105.084 -0.590708 1.79005 0
M  V30 1108 C 102.211 -0.685313 3.31694 0
M  V30 1109 C 101.257 0.094919 4.26394 0
M  V30 1110 S 102.09 1.45546 5.15341 0
M  V30 1111 C 103.246 0.551685 6.23464 0
M  V30 1112 H 103.479 1.02015 2.79249 0
M  V30 1113 H 101.012 0.639797 1.4052 0
M  V30 1114 H 102.97 -1.20426 3.92438 0
M  V30 1115 H 101.631 -1.4553 2.78352 0
M  V30 1116 H 100.824 -0.597059 5.00451 0
M  V30 1117 H 100.426 0.545054 3.70007 0
M  V30 1118 H 102.718 -0.248877 6.77043 0
M  V30 1119 H 103.661 1.26253 6.96754 0
M  V30 1120 H 104.069 0.131275 5.64347 0
M  V30 1121 N 103.467 -1.45747 0.599634 0
M  V30 1122 C 104.695 -2.06668 0.0978551 0
M  V30 1123 C 105.11 -1.44562 -1.21439 0
M  V30 1124 O 104.467 -0.556923 -1.73795 0
M  V30 1125 C 104.518 -3.61456 -0.0567044 0
M  V30 1126 O 104.239 -4.21242 1.20361 0
M  V30 1127 C 105.74 -4.39345 -0.590869 0
M  V30 1128 H 102.96 -0.667825 0.0651943 0
M  V30 1129 H 105.504 -1.87115 0.82511 0
M  V30 1130 H 103.659 -3.80378 -0.734251 0
M  V30 1131 H 104.073 -5.14323 1.02821 0
M  V30 1132 H 105.547 -5.48182 -0.648131 0
M  V30 1133 H 106.024 -4.08568 -1.61147 0
M  V30 1134 H 106.63 -4.25268 0.0523679 0
M  V30 1135 N 104.945 -0.338344 -1.53925 0
M  V30 1136 C 106.173 0.261298 -2.05243 0
M  V30 1137 C 106.588 1.44625 -1.21363 0
M  V30 1138 O 105.945 1.80811 -0.247736 0
M  V30 1139 C 105.996 0.681412 -3.5502 0
M  V30 1140 O 105.717 -0.456414 -4.35716 0
M  V30 1141 C 107.218 1.34232 -4.22489 0
M  V30 1142 H 104.438 0.0513685 -0.669031 0
M  V30 1143 H 106.982 -0.488822 -1.98572 0
M  V30 1144 H 105.137 1.38148 -3.61931 0
M  V30 1145 H 105.551 -0.122564 -5.24357 0
M  V30 1146 H 107.025 1.58708 -5.28693 0
M  V30 1147 H 107.502 2.29426 -3.74514 0
M  V30 1148 H 108.108 0.684424 -4.19757 0
M  V30 1149 N 106.423 1.57458 -0.0668435 0
M  V30 1150 C 107.356 2.08033 0.93795 0
M  V30 1151 C 108.334 0.984321 1.29421 0
M  V30 1152 O 109.518 1.25736 1.40437 0
M  V30 1153 C 106.645 2.53388 2.24749 0
M  V30 1154 C 105.691 3.74376 2.04315 0
M  V30 1155 S 106.524 5.19303 1.30706 0
M  V30 1156 C 107.68 5.67986 2.62951 0
M  V30 1157 H 107.913 2.92935 0.50759 0
M  V30 1158 H 105.446 1.5371 0.145804 0
M  V30 1159 H 107.404 2.8018 3.00016 0
M  V30 1160 H 106.065 1.68763 2.64911 0
M  V30 1161 H 105.258 4.04083 3.01218 0
M  V30 1162 H 104.86 3.47931 1.37186 0
M  V30 1163 H 107.152 5.74528 3.5906 0
M  V30 1164 H 108.095 6.66955 2.3786 0
M  V30 1165 H 108.503 4.95781 2.69929 0
M  V30 1166 N 107.901 -0.206675 1.56239 0
M  V30 1167 C 109.131 -0.943975 1.83773 0
M  V30 1168 C 109.539 -1.77841 0.645703 0
M  V30 1169 O 108.882 -1.79403 -0.395008 0
M  V30 1170 C 108.944 -1.899 3.05251 0
M  V30 1171 C 108.608 -1.24764 4.39639 0
M  V30 1172 C 109.605 -0.630216 5.16066 0
M  V30 1173 C 107.29 -1.25496 4.8637 0
M  V30 1174 C 109.284 -0.0287946 6.37393 0
M  V30 1175 C 106.971 -0.649698 6.07637 0
M  V30 1176 C 107.969 -0.0376845 6.8299 0
M  V30 1177 O 107.657 0.55812 8.0196 0
M  V30 1178 H 107.389 -0.281508 0.614597 0
M  V30 1179 H 109.943 -0.222458 2.04192 0
M  V30 1180 H 108.173 -2.6599 2.80689 0
M  V30 1181 H 109.862 -2.5031 3.1953 0
M  V30 1182 H 110.628 -0.616785 4.81062 0
M  V30 1183 H 106.507 -1.72072 4.27683 0
M  V30 1184 H 110.051 0.449518 6.9615 0
M  V30 1185 H 105.948 -0.660592 6.42111 0
M  V30 1186 H 106.716 0.453891 8.17241 0
M  V30 1187 N 109.379 -1.50304 -0.473955 0
M  V30 1188 C 110.342 -1.6841 -1.55469 0
M  V30 1189 C 111.342 -0.554905 -1.50922 0
M  V30 1190 O 112.532 -0.821882 -1.53593 0
M  V30 1191 C 109.664 -1.70667 -2.95102 0
M  V30 1192 H 110.857 -2.64828 -1.40733 0
M  V30 1193 H 108.41 -1.39742 -0.700132 0
M  V30 1194 H 109.145 -0.75932 -3.15285 0
M  V30 1195 H 108.93 -2.52698 -2.9981 0
M  V30 1196 H 110.42 -1.8664 -3.73571 0
M  V30 1197 N 110.857 0.726932 -1.39834 0
M  V30 1198 C 111.804 1.841 -1.39197 0
M  V30 1199 C 112.774 1.642 -0.250502 0
M  V30 1200 O 113.959 1.85494 -0.446846 0
M  V30 1201 C 111.099 3.21697 -1.24919 0
M  V30 1202 C 110.212 3.53247 -2.48678 0
M  V30 1203 C 109.347 4.80289 -2.26928 0
M  V30 1204 C 108.386 5.04707 -3.4632 0
M  V30 1205 N 107.523 6.22956 -3.23836 0
M  V30 1206 H 112.363 1.83979 -2.34427 0
M  V30 1207 H 109.9 0.898876 -1.16442 0
M  V30 1208 H 111.858 4.01137 -1.1465 0
M  V30 1209 H 110.488 3.21076 -0.333153 0
M  V30 1210 H 109.54 2.68447 -2.69519 0
M  V30 1211 H 110.852 3.67205 -3.37582 0
M  V30 1212 H 110.006 5.67725 -2.13947 0
M  V30 1213 H 108.745 4.68519 -1.35431 0
M  V30 1214 H 107.75 4.1573 -3.5979 0
M  V30 1215 H 108.975 5.18357 -4.38729 0
M  V30 1216 H 106.921 6.12459 -2.35011 0
M  V30 1217 H 106.838 6.37539 -4.063 0
M  V30 1218 H 108.106 7.1321 -3.14566 0
M  V30 1219 N 112.336 1.25143 0.95797 0
M  V30 1220 C 113.585 1.0909 1.69654 0
M  V30 1221 C 113.898 -0.368548 1.92097 0
M  V30 1222 O 115.104 -0.649455 2.63618 0
M  V30 1223 C 113.56 1.90395 3.05414 0
M  V30 1224 C 113.168 3.4081 2.90779 0
M  V30 1225 C 114.912 1.82901 3.83076 0
M  V30 1226 C 112.819 4.14423 4.21909 0
M  V30 1227 H 111.749 0.404625 0.636235 0
M  V30 1228 H 114.4 1.4931 1.06672 0
M  V30 1229 H 112.782 1.42996 3.69281 0
M  V30 1230 H 113.956 3.95859 2.35865 0
M  V30 1231 H 112.271 3.49361 2.26575 0
M  V30 1232 H 114.868 2.35196 4.80195 0
M  V30 1233 H 115.211 0.796224 4.08615 0
M  V30 1234 H 115.744 2.28033 3.25954 0
M  V30 1235 H 112.483 5.18102 4.01561 0
M  V30 1236 H 112.003 3.64159 4.76601 0
M  V30 1237 H 113.682 4.21956 4.90471 0
M  V30 1238 N 113.814 -1.1601 1.06675 0
M  V30 1239 C 115.091 -1.82679 0.699114 0
M  V30 1240 C 115.471 -1.94559 -0.819137 0
M  V30 1241 O 114.819 -1.49169 -1.73092 0
M  V30 1242 C 115.029 -3.19445 1.40555 0
M  V30 1243 C 116.377 -3.95171 1.55323 0
M  V30 1244 O 117.401 -3.28976 1.36577 0
M  V30 1245 O 116.26 -5.13833 1.86112 0
M  V30 1246 H 113.354 -0.788954 0.247951 0
M  V30 1247 H 115.9 -1.23179 1.16726 0
M  V30 1248 H 114.672 -3.05856 2.44065 0
M  V30 1249 H 114.295 -3.86625 0.927733 0
M  V30 1250 N 115.292 -0.849877 -1.32721 0
M  V30 1251 C 116.703 -0.506188 -1.79707 0
M  V30 1252 C 117.054 0.975627 -1.70223 0
M  V30 1253 O 116.179 1.76078 -1.25799 0
M  V30 1254 C 116.774 -0.912044 -3.26293 0
M  V30 1255 C 115.333 -0.620326 -3.71253 0
M  V30 1256 C 114.48 -1.11439 -2.53922 0
M  V30 1257 H 117.431 -1.03754 -1.20087 0
M  V30 1258 H 117.452 -0.226493 -3.79825 0
M  V30 1259 H 116.964 -1.99057 -3.33164 0
M  V30 1260 H 115.065 0.447674 -3.69901 0
M  V30 1261 H 115.178 -1.18327 -4.64258 0
M  V30 1262 H 113.542 -0.534834 -2.49021 0
M  V30 1263 H 114.325 -2.19992 -2.6355 0
M  V30 1264 N 116.77 1.45427 -0.607355 0
M  V30 1265 C 117.995 2.07124 -0.107006 0
M  V30 1266 C 118.42 1.44906 1.19933 0
M  V30 1267 O 117.778 0.541687 1.73019 0
M  V30 1268 C 117.826 3.60595 0.0194119 0
M  V30 1269 O 116.93 3.98285 1.0697 0
M  V30 1270 H 116.271 0.659868 -0.0739597 0
M  V30 1271 H 118.801 1.86683 -0.837297 0
M  V30 1272 H 118.811 4.07419 0.2177 0
M  V30 1273 H 117.486 4.05266 -0.934453 0
M  V30 1274 H 116.063 3.63133 0.847889 0
M  V30 1275 N 118.248 0.346503 1.53744 0
M  V30 1276 C 119.178 -0.501193 2.28058 0
M  V30 1277 C 120.159 -1.10014 1.29734 0
M  V30 1278 O 121.344 -1.12097 1.58581 0
M  V30 1279 C 118.474 -1.65078 3.05559 0
M  V30 1280 C 117.428 -1.18003 4.11411 0
M  V30 1281 C 116.754 -2.41837 4.76884 0
M  V30 1282 C 118.054 -0.278394 5.21558 0
M  V30 1283 H 119.748 0.11875 2.99164 0
M  V30 1284 H 117.294 0.0585531 1.43881 0
M  V30 1285 H 119.247 -2.25028 3.56287 0
M  V30 1286 H 117.971 -2.29767 2.32109 0
M  V30 1287 H 116.63 -0.603331 3.61601 0
M  V30 1288 H 116.278 -3.0494 4.00026 0
M  V30 1289 H 115.978 -2.1102 5.48402 0
M  V30 1290 H 117.502 -3.02508 5.30397 0
M  V30 1291 H 118.916 -0.784823 5.67903 0
M  V30 1292 H 117.313 -0.0619707 6.00068 0
M  V30 1293 H 118.383 0.684677 4.80042 0
M  V30 1294 N 119.726 -1.57421 0.075193 0
M  V30 1295 C 120.974 -1.93236 -0.591974 0
M  V30 1296 C 121.295 -0.956241 -1.69944 0
M  V30 1297 O 120.565 -0.00494792 -1.95899 0
M  V30 1298 H 119.145 -0.713355 -0.22166 0
M  V30 1299 H 121.807 -1.9444 0.133848 0
M  V30 1300 H 120.903 -2.95131 -1.01509 0
M  V30 1301 N 121.204 0.198386 -1.56346 0
M  V30 1302 C 122.453 0.917451 -1.79627 0
M  V30 1303 C 122.766 1.8456 -0.64784 0
M  V30 1304 O 123.972 2.60504 -0.764859 0
M  V30 1305 C 122.428 1.68175 -3.18191 0
M  V30 1306 C 122.036 0.798589 -4.40825 0
M  V30 1307 C 123.78 2.39065 -3.50782 0
M  V30 1308 C 121.687 1.56157 -5.70411 0
M  V30 1309 H 120.617 0.346317 -0.669762 0
M  V30 1310 H 123.268 0.170801 -1.82703 0
M  V30 1311 H 121.65 2.47216 -3.09354 0
M  V30 1312 H 122.824 0.0470665 -4.60776 0
M  V30 1313 H 121.139 0.200686 -4.15916 0
M  V30 1314 H 123.736 2.96692 -4.44835 0
M  V30 1315 H 124.079 3.13091 -2.74371 0
M  V30 1316 H 124.612 1.66993 -3.61052 0
M  V30 1317 H 121.351 0.864142 -6.49779 0
M  V30 1318 H 120.871 2.2871 -5.54483 0
M  V30 1319 H 122.55 2.11622 -6.11412 0
M  V30 1320 N 122.682 1.50554 0.465978 0
M  V30 1321 C 123.931 1.61038 1.21448 0
M  V30 1322 C 124.244 0.31865 1.92987 0
M  V30 1323 O 125.45 0.302469 2.6981 0
M  V30 1324 C 123.906 2.84283 2.20706 0
M  V30 1325 C 123.514 4.20352 1.54946 0
M  V30 1326 C 125.258 3.04115 2.96166 0
M  V30 1327 C 123.165 5.34778 2.5252 0
M  V30 1328 H 122.095 0.599718 0.457005 0
M  V30 1329 H 124.746 1.7699 0.484424 0
M  V30 1330 H 123.128 2.61901 2.97025 0
M  V30 1331 H 124.302 4.53008 0.843811 0
M  V30 1332 H 122.617 4.06167 0.917475 0
M  V30 1333 H 125.214 3.86774 3.69202 0
M  V30 1334 H 125.557 2.16045 3.55852 0
M  V30 1335 H 126.09 3.26702 2.26959 0
M  V30 1336 H 122.829 6.25018 1.97566 0
M  V30 1337 H 122.349 5.06534 3.21222 0
M  V30 1338 H 124.028 5.65561 3.14245 0
M  V30 1339 N 124.16 -0.719506 1.40217 0
M  V30 1340 C 125.123 -1.8153 1.39927 0
M  V30 1341 C 126.123 -1.58095 0.293723 0
M  V30 1342 O 127.313 -1.65209 0.552429 0
M  V30 1343 C 124.445 -3.19561 1.18716 0
M  V30 1344 H 125.638 -1.83186 2.37451 0
M  V30 1345 H 123.191 -0.924746 1.26008 0
M  V30 1346 H 123.926 -3.23557 0.219366 0
M  V30 1347 H 123.711 -3.3797 1.98793 0
M  V30 1348 H 125.201 -3.99598 1.21291 0
M  V30 1349 N 125.638 -1.25649 -0.95132 0
M  V30 1350 C 126.585 -1.06323 -2.04851 0
M  V30 1351 C 127.555 0.0286491 -1.66075 0
M  V30 1352 O 128.74 -0.12917 -1.90362 0
M  V30 1353 C 125.88 -0.691529 -3.381 0
M  V30 1354 C 124.993 -1.85861 -3.89974 0
M  V30 1355 C 124.128 -1.43096 -5.11563 0
M  V30 1356 C 123.167 -2.56696 -5.55674 0
M  V30 1357 N 122.304 -2.14684 -6.68472 0
M  V30 1358 H 127.144 -2.00222 -2.20715 0
M  V30 1359 H 124.681 -0.997027 -1.08156 0
M  V30 1360 H 126.639 -0.456963 -4.1469 0
M  V30 1361 H 125.269 0.210474 -3.22113 0
M  V30 1362 H 124.321 -2.20639 -3.09875 0
M  V30 1363 H 125.633 -2.71161 -4.18657 0
M  V30 1364 H 124.787 -1.15624 -5.9558 0
M  V30 1365 H 123.526 -0.548722 -4.84603 0
M  V30 1366 H 122.531 -2.84909 -4.7022 0
M  V30 1367 H 123.756 -3.45503 -5.8464 0
M  V30 1368 H 121.702 -1.28881 -6.43215 0
M  V30 1369 H 121.619 -2.9353 -6.96689 0
M  V30 1370 H 122.887 -1.90397 -7.5589 0
M  V30 1371 N 127.117 1.15442 -1.07289 0
M  V30 1372 C 128.366 1.85557 -0.790669 0
M  V30 1373 C 128.679 1.83186 0.685739 0
M  V30 1374 O 129.885 2.48977 1.0827 0
M  V30 1375 C 128.341 3.33038 -1.36433 0
M  V30 1376 C 127.949 3.43856 -2.8717 0
M  V30 1377 C 129.693 4.0834 -1.1601 0
M  V30 1378 C 127.6 4.85482 -3.3773 0
M  V30 1379 H 126.53 0.695122 -0.292098 0
M  V30 1380 H 129.181 1.30219 -1.29287 0
M  V30 1381 H 127.563 3.88043 -0.789864 0
M  V30 1382 H 128.737 2.98961 -3.50655 0
M  V30 1383 H 127.052 2.81998 -3.06376 0
M  V30 1384 H 129.649 5.12859 -1.51262 0
M  V30 1385 H 129.992 4.16182 -0.0991007 0
M  V30 1386 H 130.525 3.59603 -1.70089 0
M  V30 1387 H 127.264 4.82823 -4.43353 0
M  V30 1388 H 126.784 5.30961 -2.78999 0
M  V30 1389 H 128.463 5.54335 -3.33648 0
M  V30 1390 N 128.595 0.856903 1.32268 0
M  V30 1391 C 129.543 0.291987 2.3076 0
M  V30 1392 C 130.537 -0.585857 1.58947 0
M  V30 1393 O 131.743 -0.47341 1.73663 0
M  V30 1394 H 128.118 0.075721 0.748178 0
M  V30 1395 H 130.089 1.13687 2.75895 0
M  V30 1396 C 128.838 -0.502869 3.44044 0
M  V30 1397 H 128.161 0.163328 3.99466 0
M  V30 1398 H 129.601 -0.863691 4.1511 0
M  V30 1399 C 128.06 -1.68898 2.91505 0
M  V30 1400 O 128.59 -2.78811 2.89184 0
M  V30 1401 N 126.796 -1.51679 2.47875 0
M  V30 1402 H 126.343 -0.622666 2.49961 0
M  V30 1403 H 126.301 -2.31184 2.13076 0
M  V30 1404 N 130.073 -1.45103 0.615059 0
M  V30 1405 C 131.489 -1.57137 0.279322 0
M  V30 1406 C 131.689 -1.60523 -1.21797 0
M  V30 1407 O 130.745 -1.53956 -2.00134 0
M  V30 1408 C 132.058 -2.85062 0.957083 0
M  V30 1409 C 133.606 -2.98749 0.933706 0
M  V30 1410 C 134.081 -4.29455 1.59162 0
M  V30 1411 N 135.572 -4.36231 1.55746 0
M  V30 1412 C 136.307 -5.36051 2.0356 0
M  V30 1413 N 135.803 -6.42367 2.59494 0
M  V30 1414 N 137.596 -5.27456 1.94284 0
M  V30 1415 H 129.747 -1.41148 1.58717 0
M  V30 1416 H 132.01 -0.675331 0.665306 0
M  V30 1417 H 131.716 -2.88488 2.01166 0
M  V30 1418 H 131.59 -3.7407 0.48494 0
M  V30 1419 H 133.977 -2.94886 -0.112347 0
M  V30 1420 H 134.058 -2.11132 1.44419 0
M  V30 1421 H 133.702 -4.34077 2.63704 0
M  V30 1422 H 133.632 -5.15901 1.0561 0
M  V30 1423 H 136.123 -3.60011 1.14893 0
M  V30 1424 H 136.436 -7.14793 2.93752 0
M  V30 1425 H 134.781 -6.43097 2.63537 0
M  V30 1426 H 137.972 -4.43308 1.5032 0
M  V30 1427 H 138.145 -6.05099 2.3186 0
M  V30 1428 N 131.551 -0.354651 -1.53558 0
M  V30 1429 C 132.779 0.239515 -2.05509 0
M  V30 1430 C 133.194 1.4333 -1.2289 0
M  V30 1431 O 132.551 1.80538 -0.266899 0
M  V30 1432 C 132.602 0.643719 -3.55723 0
M  V30 1433 O 132.323 -0.502602 -4.35207 0
M  V30 1434 C 133.824 1.29743 -4.23889 0
M  V30 1435 H 131.044 0.0442697 -0.669538 0
M  V30 1436 H 133.588 -0.509856 -1.98042 0
M  V30 1437 H 131.743 1.34302 -3.63376 0
M  V30 1438 H 132.157 -0.178172 -5.24197 0
M  V30 1439 H 133.631 1.53091 -5.30346 0
M  V30 1440 H 134.108 2.25441 -3.76926 0
M  V30 1441 H 134.714 0.639865 -4.20459 0
M  V30 1442 N 133.029 1.57378 -0.0835403 0
M  V30 1443 C 133.959 2.1641 0.87686 0
M  V30 1444 C 134.94 1.09429 1.30228 0
M  V30 1445 O 136.125 1.37516 1.37124 0
M  V30 1446 C 133.255 2.73517 2.14022 0
M  V30 1447 C 132.209 3.85769 1.85381 0
M  V30 1448 C 131.535 4.29529 3.18448 0
M  V30 1449 C 132.835 5.09486 1.14984 0
M  V30 1450 H 134.529 2.96914 0.385059 0
M  V30 1451 H 132.075 1.42823 0.18377 0
M  V30 1452 H 134.028 3.13463 2.81636 0
M  V30 1453 H 132.752 1.90252 2.65465 0
M  V30 1454 H 131.411 3.46345 1.20169 0
M  V30 1455 H 131.059 3.43169 3.67755 0
M  V30 1456 H 130.759 5.05204 3.00071 0
M  V30 1457 H 132.283 4.72099 3.8724 0
M  V30 1458 H 133.697 5.46674 1.72687 0
M  V30 1459 H 132.094 5.90515 1.06826 0
M  V30 1460 H 133.164 4.84724 0.130749 0
M  V30 1461 N 134.507 -0.190092 1.56449 0
M  V30 1462 C 135.417 -1.25591 1.98152 0
M  V30 1463 C 136.433 -1.49519 0.889944 0
M  V30 1464 O 137.609 -1.62036 1.19609 0
M  V30 1465 C 134.674 -2.57916 2.3169 0
M  V30 1466 C 133.735 -2.42015 3.5458 0
M  V30 1467 C 132.968 -3.6803 3.8651 0
M  V30 1468 O 133.191 -4.72413 3.1966 0
M  V30 1469 O 132.125 -3.6326 4.79923 0
M  V30 1470 H 135.951 -0.931988 2.89046 0
M  V30 1471 H 133.536 -0.395488 1.4407 0
M  V30 1472 H 135.418 -3.36008 2.54316 0
M  V30 1473 H 134.093 -2.89925 1.43963 0
M  V30 1474 H 133 -1.62017 3.37196 0
M  V30 1475 H 134.333 -2.14937 4.4279 0
M  V30 1476 N 135.985 -1.50799 -0.457987 0
M  V30 1477 C 137.213 -1.66218 -1.23203 0
M  V30 1478 C 137.628 -0.350894 -1.85511 0
M  V30 1479 O 136.985 0.668546 -1.69814 0
M  V30 1480 C 137.036 -2.76291 -2.33121 0
M  V30 1481 O 136.757 -4.02338 -1.73366 0
M  V30 1482 C 138.258 -3.028 -3.2377 0
M  V30 1483 H 135.478 -0.558361 -0.372121 0
M  V30 1484 H 138.022 -1.97099 -0.545179 0
M  V30 1485 H 136.177 -2.48068 -2.97558 0
M  V30 1486 H 136.591 -4.63312 -2.4585 0
M  V30 1487 H 138.065 -3.8345 -3.97077 0
M  V30 1488 H 138.542 -2.14385 -3.83322 0
M  V30 1489 H 139.148 -3.32604 -2.65056 0
M  V30 1490 N 137.463 0.71206 -1.40597 0
M  V30 1491 C 138.426 1.80785 -1.40888 0
M  V30 1492 C 139.426 1.57937 -0.302103 0
M  V30 1493 O 140.616 1.64913 -0.561182 0
M  V30 1494 C 137.748 3.18927 -1.20409 0
M  V30 1495 H 138.941 1.81924 -2.38419 0
M  V30 1496 H 136.494 0.91805 -1.26497 0
M  V30 1497 H 137.229 3.23436 -0.236522 0
M  V30 1498 H 137.014 3.36911 -2.00582 0
M  V30 1499 H 138.504 3.98949 -1.23408 0
M  V30 1500 N 138.941 1.26152 0.944643 0
M  V30 1501 C 139.889 1.07215 2.06417 0
M  V30 1502 C 140.883 9.2007e-05 1.694 0
M  V30 1503 O 142.089 0.1565 1.79318 0
M  V30 1504 H 138.464 0.329837 0.675805 0
M  V30 1505 H 140.435 2.02099 2.19541 0
M  V30 1506 C 139.184 0.718197 3.40202 0
M  V30 1507 H 138.507 1.53497 3.69159 0
M  V30 1508 H 139.947 0.625459 4.19361 0
M  V30 1509 C 138.406 -0.576435 3.31932 0
M  V30 1510 O 138.936 -1.61574 3.67773 0
M  V30 1511 N 137.142 -0.565781 2.85039 0
M  V30 1512 H 136.689 0.280367 2.5607 0
M  V30 1513 H 136.647 -1.43213 2.79888 0
M  V30 1514 N 140.419 -1.14872 1.07899 0
M  V30 1515 C 141.659 -1.8745 0.814965 0
M  V30 1516 C 142.023 -1.80758 -0.64733 0
M  V30 1517 O 143.224 -2.48422 -1.02664 0
M  V30 1518 C 141.495 -3.32286 1.31607 0
M  V30 1519 S 143.054 -4.22537 1.18357 0
M  V30 1520 H 139.872 -0.646833 0.295174 0
M  V30 1521 H 142.474 -1.38555 1.37923 0
M  V30 1522 H 141.178 -3.34703 2.37491 0
M  V30 1523 H 140.709 -3.86238 0.747261 0
M  V30 1524 H 142.724 -4.96044 0.124586 0
M  V30 1525 N 141.898 -0.863906 -1.31812 0
M  V30 1526 C 142.831 -0.259963 -2.26714 0
M  V30 1527 C 143.809 0.607392 -1.50829 0
M  V30 1528 O 144.993 0.562155 -1.79922 0
M  V30 1529 C 142.12 0.632456 -3.32743 0
M  V30 1530 C 141.166 -0.162743 -4.26189 0
M  V30 1531 S 141.999 -1.53726 -5.12961 0
M  V30 1532 C 143.155 -0.650803 -6.22507 0
M  V30 1533 H 143.388 -1.06445 -2.77591 0
M  V30 1534 H 140.921 -0.662071 -1.39485 0
M  V30 1535 H 142.879 1.14167 -3.94305 0
M  V30 1536 H 141.54 1.41083 -2.80632 0
M  V30 1537 H 140.733 0.517366 -5.01338 0
M  V30 1538 H 140.335 -0.60385 -3.69093 0
M  V30 1539 H 142.627 0.141134 -6.77353 0
M  V30 1540 H 143.57 -1.37322 -6.94657 0
M  V30 1541 H 143.978 -0.221041 -5.64067 0
M  V30 1542 N 143.376 1.44774 -0.622745 0
M  V30 1543 C 144.601 2.06999 -0.128968 0
M  V30 1544 C 145.026 1.4617 1.1839 0
M  V30 1545 O 144.384 0.560007 1.72434 0
M  V30 1546 C 144.432 3.60595 -0.0188351 0
M  V30 1547 O 143.536 3.99398 1.02739 0
M  V30 1548 H 142.877 0.659047 -0.0809544 0
M  V30 1549 H 145.407 1.85784 -0.85705 0
M  V30 1550 H 145.417 4.07627 0.174476 0
M  V30 1551 H 144.092 4.04252 -0.977384 0
M  V30 1552 H 142.669 3.64011 0.809326 0
M  V30 1553 N 144.854 0.36279 1.53368 0
M  V30 1554 C 146.079 -0.231226 2.06107 0
M  V30 1555 C 146.504 -1.419 1.23474 0
M  V30 1556 O 145.862 -1.79524 0.253128 0
M  V30 1557 C 145.91 -0.605523 3.5548 0
M  V30 1558 O 145.014 -1.70312 3.7559 0
M  V30 1559 H 144.355 -0.034327 0.663112 0
M  V30 1560 H 146.885 0.522584 1.97814 0
M  V30 1561 H 146.895 -0.877314 3.98456 0
M  V30 1562 H 145.57 0.263004 4.15068 0
M  V30 1563 H 144.147 -1.4271 3.44512 0
M  V30 1564 N 146.332 -1.57332 0.0918853 0
M  V30 1565 C 147.264 -2.10869 -0.898168 0
M  V30 1566 C 148.277 -1.04521 -1.24817 0
M  V30 1567 O 149.466 -1.31977 -1.20184 0
M  V30 1568 C 146.566 -2.57083 -2.2082 0
M  V30 1569 C 145.739 -3.87229 -2.03402 0
M  V30 1570 C 144.798 -4.19324 -3.17889 0
M  V30 1571 O 143.824 -4.88598 -2.91994 0
M  V30 1572 N 145.026 -3.74471 -4.43567 0
M  V30 1573 H 147.791 -2.96439 -0.440943 0
M  V30 1574 H 145.352 -1.61631 -0.0933064 0
M  V30 1575 H 147.344 -2.75602 -2.96354 0
M  V30 1576 H 145.914 -1.76541 -2.57977 0
M  V30 1577 H 145.134 -3.7789 -1.12218 0
M  V30 1578 H 146.422 -4.72379 -1.89038 0
M  V30 1579 H 145.82 -3.18546 -4.67488 0
M  V30 1580 H 144.377 -3.98151 -5.16061 0
M  V30 1581 N 147.81 0.181792 -1.56548 0
M  V30 1582 C 149.038 0.915947 -1.85521 0
M  V30 1583 C 149.453 1.76282 -0.676016 0
M  V30 1584 O 148.81 1.79012 0.355077 0
M  V30 1585 C 148.861 1.80126 -3.13427 0
M  V30 1586 O 148.582 0.988562 -4.26801 0
M  V30 1587 C 150.083 2.64597 -3.55673 0
M  V30 1588 H 147.303 0.26661 -0.61576 0
M  V30 1589 H 149.847 0.185039 -2.03661 0
M  V30 1590 H 148.002 2.48563 -2.97145 0
M  V30 1591 H 148.416 1.59308 -4.99721 0
M  V30 1592 H 149.89 3.2235 -4.48101 0
M  V30 1593 H 150.367 3.38958 -2.79292 0
M  V30 1594 H 150.973 2.0151 -3.74532 0
M  V30 1595 N 149.288 1.51039 0.449983 0
M  V30 1596 C 150.235 1.71439 1.54523 0
M  V30 1597 C 151.205 0.555871 1.56522 0
M  V30 1598 O 152.39 0.788871 1.73728 0
M  V30 1599 C 149.53 1.83384 2.92343 0
M  V30 1600 C 148.643 3.10873 2.9997 0
M  V30 1601 C 147.778 3.13488 4.28834 0
M  V30 1602 C 146.817 4.35343 4.30282 0
M  V30 1603 N 145.954 4.35579 5.5065 0
M  V30 1604 H 150.794 2.64934 1.36433 0
M  V30 1605 H 148.331 1.31312 0.662982 0
M  V30 1606 H 150.289 1.88291 3.72293 0
M  V30 1607 H 148.919 0.933086 3.0902 0
M  V30 1608 H 147.971 3.15336 2.12761 0
M  V30 1609 H 149.283 4.00814 2.96901 0
M  V30 1610 H 148.437 3.17241 5.17149 0
M  V30 1611 H 147.176 2.21414 4.34543 0
M  V30 1612 H 146.181 4.3178 3.40362 0
M  V30 1613 H 147.406 5.28668 4.26248 0
M  V30 1614 H 145.352 3.46369 5.57104 0
M  V30 1615 H 145.269 5.19313 5.49409 0
M  V30 1616 H 146.537 4.43507 6.41032 0
M  V30 1617 N 150.766 -0.704594 1.40972 0
M  V30 1618 C 151.714 -1.83994 1.42299 0
M  V30 1619 C 152.708 -1.66684 0.302111 0
M  V30 1620 O 153.914 -1.73655 0.473697 0
M  V30 1621 H 150.289 -0.606171 0.44504 0
M  V30 1622 H 152.26 -1.79992 2.38003 0
M  V30 1623 C 151.009 -3.21946 1.31323 0
M  V30 1624 H 150.332 -3.35878 2.16855 0
M  V30 1625 H 151.772 -4.01491 1.36311 0
M  V30 1626 C 150.231 -3.36891 0.0245977 0
M  V30 1627 O 150.761 -3.90687 -0.934153 0
M  V30 1628 N 148.967 -2.90559 -0.0485243 0
M  V30 1629 H 148.514 -2.46968 0.732419 0
M  V30 1630 H 148.472 -3.00937 -0.910171 0
M  V30 1631 N 152.244 -1.26651 -0.937939 0
M  V30 1632 C 153.49 -1.12553 -1.687 0
M  V30 1633 C 153.823 0.329782 -1.91379 0
M  V30 1634 O 153.098 1.24202 -1.4968 0
M  V30 1635 C 153.381 -1.89862 -3.05981 0
M  V30 1636 C 153.234 -3.43318 -2.90607 0
M  V30 1637 C 154.553 -1.69499 -4.0615 0
M  V30 1638 H 151.672 -0.410257 -0.612257 0
M  V30 1639 H 154.314 -1.55685 -1.08913 0
M  V30 1640 H 152.464 -1.53204 -3.57017 0
M  V30 1641 H 154.136 -3.89747 -2.46769 0
M  V30 1642 H 152.379 -3.70179 -2.26164 0
M  V30 1643 H 153.05 -3.92642 -3.8799 0
M  V30 1644 H 155.526 -2.01442 -3.64088 0
M  V30 1645 H 154.402 -2.26002 -5.00214 0
M  V30 1646 H 154.663 -0.640365 -4.37438 0
M  V30 1647 N 153.722 1.14298 -1.08507 0
M  V30 1648 C 154.968 1.85633 -0.816581 0
M  V30 1649 C 155.301 1.82784 0.656021 0
M  V30 1650 O 154.576 1.25926 1.48233 0
M  V30 1651 C 154.859 3.34223 -1.34041 0
M  V30 1652 C 154.712 3.45639 -2.87843 0
M  V30 1653 C 156.031 4.29356 -0.9665 0
M  V30 1654 H 153.15 0.67402 -0.298104 0
M  V30 1655 H 155.792 1.34214 -1.34487 0
M  V30 1656 H 153.942 3.78144 -0.89104 0
M  V30 1657 H 155.614 3.10498 -3.41158 0
M  V30 1658 H 153.857 2.86817 -3.25451 0
M  V30 1659 H 154.528 4.50089 -3.19569 0
M  V30 1660 H 157.004 3.93457 -1.35391 0
M  V30 1661 H 155.88 5.3178 -1.3602 0
M  V30 1662 H 156.141 4.41919 0.126362 0
M  V30 1663 N 155.201 0.870884 1.31352 0
M  V30 1664 C 156.426 0.495957 2.01383 0
M  V30 1665 C 156.851 -0.904324 1.64935 0
M  V30 1666 O 156.209 -1.59687 0.858466 0
M  V30 1667 C 156.257 0.661433 3.54482 0
M  V30 1668 O 155.361 -0.298851 4.11316 0
M  V30 1669 H 154.702 0.197158 0.634054 0
M  V30 1670 H 157.232 1.17455 1.67527 0
M  V30 1671 H 157.242 0.555072 4.04207 0
M  V30 1672 H 155.917 1.68246 3.8035 0
M  V30 1673 H 154.494 -0.147368 3.72609 0
M  V30 1674 N 156.679 -1.44442 0.630414 0
M  V30 1675 C 157.927 -2.01653 0.134351 0
M  V30 1676 C 158.248 -1.49836 -1.24796 0
M  V30 1677 O 157.518 -0.701684 -1.82902 0
M  V30 1678 H 156.098 -0.74554 0.0466769 0
M  V30 1679 H 158.76 -1.76952 0.816955 0
M  V30 1680 H 157.856 -3.11935 0.101498 0
M  V30 1681 N 158.157 -0.370918 -1.53173 0
M  V30 1682 C 159.403 0.217423 -2.01631 0
M  V30 1683 C 159.736 1.47983 -1.25756 0
M  V30 1684 O 159.011 1.91274 -0.352764 0
M  V30 1685 C 159.294 0.503982 -3.56556 0
M  V30 1686 C 159.147 -0.77243 -4.43118 0
M  V30 1687 C 160.466 1.30234 -4.20389 0
M  V30 1688 H 157.585 0.0775486 -0.732909 0
M  V30 1689 H 160.227 -0.496863 -1.83388 0
M  V30 1690 H 158.377 1.11248 -3.72231 0
M  V30 1691 H 160.049 -1.4098 -4.39229 0
M  V30 1692 H 158.292 -1.39167 -4.10871 0
M  V30 1693 H 158.963 -0.526815 -5.4948 0
M  V30 1694 H 161.439 0.787546 -4.08579 0
M  V30 1695 H 160.315 1.47158 -5.28806 0
M  V30 1696 H 160.576 2.31237 -3.76805 0
M  V30 1697 N 159.635 1.57281 -0.100228 0
M  V30 1698 C 160.565 2.17328 0.853857 0
M  V30 1699 C 161.546 1.10804 1.2906 0
M  V30 1700 O 162.731 1.38963 1.35657 0
M  V30 1701 C 159.861 2.75772 2.11109 0
M  V30 1702 C 158.815 3.87713 1.81279 0
M  V30 1703 C 158.141 4.32882 3.13874 0
M  V30 1704 C 159.441 5.10677 1.09574 0
M  V30 1705 H 161.135 2.97305 0.353545 0
M  V30 1706 H 158.681 1.43009 0.168612 0
M  V30 1707 H 160.634 3.16433 2.78296 0
M  V30 1708 H 159.358 1.93057 2.63432 0
M  V30 1709 H 158.017 3.476 1.16489 0
M  V30 1710 H 157.665 3.47051 3.64095 0
M  V30 1711 H 157.365 5.08358 2.94696 0
M  V30 1712 H 158.889 4.7618 3.82211 0
M  V30 1713 H 160.303 5.48474 1.66879 0
M  V30 1714 H 158.7 5.91615 1.00557 0
M  V30 1715 H 159.77 4.84835 0.0793299 0
M  V30 1716 N 161.113 -0.173488 1.56642 0
M  V30 1717 C 162.36 -0.890465 1.81871 0
M  V30 1718 C 162.688 -1.82339 0.67696 0
M  V30 1719 O 161.943 -1.92795 -0.335926 0
M  V30 1720 C 162.242 -1.72069 3.13252 0
M  V30 1721 C 161.908 -0.936878 4.41059 0
M  V30 1722 C 160.57 -0.720545 4.75775 0
M  V30 1723 C 162.922 -0.386919 5.19762 0
M  V30 1724 C 160.25 0.0568829 5.86672 0
M  V30 1725 C 162.602 0.37741 6.31473 0
M  V30 1726 C 161.266 0.604563 6.64757 0
M  V30 1727 H 160.536 -0.325844 0.665512 0
M  V30 1728 H 163.183 -0.155527 1.90867 0
M  V30 1729 H 161.488 -2.52496 2.99588 0
M  V30 1730 H 163.185 -2.27844 3.29982 0
M  V30 1731 H 159.775 -1.11553 4.13828 0
M  V30 1732 H 163.959 -0.541398 4.93338 0
M  V30 1733 H 159.215 0.242635 6.10918 0
M  V30 1734 H 163.389 0.810825 6.91664 0
M  V30 1735 H 161.016 1.20885 7.50527 0
M  V30 1736 N 162.591 -1.51276 -0.441967 0
M  V30 1737 C 163.839 -1.63392 -1.18943 0
M  V30 1738 C 164.16 -0.350159 -1.9183 0
M  V30 1739 O 163.43 0.633784 -1.85364 0
M  V30 1740 H 162.01 -0.602164 -0.442049 0
M  V30 1741 H 164.672 -1.88186 -0.507165 0
M  V30 1742 H 163.768 -2.45934 -1.92154 0
M  V30 1743 N 164.069 0.697108 -1.41344 0
M  V30 1744 C 165.297 1.48593 -1.43972 0
M  V30 1745 C 165.712 1.88747 -0.0445612 0
M  V30 1746 O 165.069 1.56682 0.935785 0
M  V30 1747 C 165.12 2.74946 -2.34706 0
M  V30 1748 O 164.841 2.36484 -3.68791 0
M  V30 1749 C 166.342 3.687 -2.46121 0
M  V30 1750 H 163.562 0.457964 -0.490418 0
M  V30 1751 H 166.106 0.858429 -1.8561 0
M  V30 1752 H 164.261 3.33937 -1.9638 0
M  V30 1753 H 164.675 3.17918 -4.17167 0
M  V30 1754 H 166.149 4.54145 -3.13777 0
M  V30 1755 H 166.626 4.13081 -1.49199 0
M  V30 1756 H 167.232 3.15613 -2.85076 0
M  V30 1757 N 165.547 1.27147 0.931209 0
M  V30 1758 C 166.795 1.13055 1.6752 0
M  V30 1759 C 167.116 -0.324791 1.92276 0
M  V30 1760 O 166.386 -1.22775 1.52654 0
M  V30 1761 H 164.966 0.415391 0.620854 0
M  V30 1762 H 167.628 1.59623 1.11833 0
M  V30 1763 H 166.724 1.65694 2.64485 0
M  V30 1764 N 167.025 -1.13721 1.09112 0
M  V30 1765 C 167.955 -2.21148 0.749385 0
M  V30 1766 C 168.936 -1.6792 -0.271475 0
M  V30 1767 O 170.121 -1.93693 -0.140251 0
M  V30 1768 C 167.251 -3.46905 0.165659 0
M  V30 1769 C 166.205 -4.13203 1.11567 0
M  V30 1770 C 165.531 -5.33248 0.393809 0
M  V30 1771 C 166.831 -4.60912 2.45678 0
M  V30 1772 H 168.525 -2.4999 1.64758 0
M  V30 1773 H 166.071 -1.20156 0.793626 0
M  V30 1774 H 168.024 -4.21313 -0.085466 0
M  V30 1775 H 166.748 -3.17449 -0.767714 0
M  V30 1776 H 165.407 -3.40758 1.35202 0
M  V30 1777 H 165.055 -5.00054 -0.543599 0
M  V30 1778 H 164.755 -5.78552 1.02721 0
M  V30 1779 H 166.279 -6.10413 0.150908 0
M  V30 1780 H 167.693 -5.26759 2.26269 0
M  V30 1781 H 166.09 -5.16944 3.04776 0
M  V30 1782 H 167.16 -3.75603 3.06677 0
M  V30 1783 N 168.503 -0.877838 -1.30888 0
M  V30 1784 C 169.749 -0.502773 -1.97088 0
M  V30 1785 C 170.104 0.936274 -1.68082 0
M  V30 1786 O 169.397 1.65162 -0.971196 0
M  V30 1787 C 169.591 -0.705748 -3.50363 0
M  V30 1788 C 169.42 -2.16297 -3.94266 0
M  V30 1789 C 168.19 -2.80614 -4.20219 0
M  V30 1790 C 170.388 -3.13606 -4.07622 0
M  V30 1791 N 168.37 -4.17007 -4.50532 0
M  V30 1792 C 169.741 -4.35051 -4.41736 0
M  V30 1793 C 171.796 -3.09491 -3.90026 0
M  V30 1794 C 170.499 -5.52911 -4.60089 0
M  V30 1795 C 172.525 -4.26616 -4.09576 0
M  V30 1796 C 171.887 -5.46825 -4.44029 0
M  V30 1797 H 167.986 -0.233168 -0.746429 0
M  V30 1798 H 170.57 -1.13408 -1.58261 0
M  V30 1799 H 168.741 -0.103976 -3.88261 0
M  V30 1800 H 170.473 -0.298291 -4.03599 0
M  V30 1801 H 167.228 -2.3152 -4.13153 0
M  V30 1802 H 167.652 -4.87426 -4.69834 0
M  V30 1803 H 172.294 -2.17657 -3.62471 0
M  V30 1804 H 170.012 -6.45255 -4.86489 0
M  V30 1805 H 173.598 -4.24894 -3.97438 0
M  V30 1806 H 172.478 -6.35947 -4.58848 0
M  V30 1807 N 169.982 1.44106 -0.638065 0
M  V30 1808 C 171.228 2.02277 -0.145546 0
M  V30 1809 C 171.561 1.50125 1.23191 0
M  V30 1810 O 170.836 0.688133 1.8192 0
M  V30 1811 C 171.119 3.59829 -0.139791 0
M  V30 1812 C 170.972 4.22247 -1.55008 0
M  V30 1813 C 172.291 4.36873 0.531966 0
M  V30 1814 H 169.41 0.734992 -0.0543632 0
M  V30 1815 H 172.052 1.71592 -0.815863 0
M  V30 1816 H 170.202 3.86102 0.431007 0
M  V30 1817 H 171.874 4.07057 -2.1703 0
M  V30 1818 H 170.117 3.79476 -2.10191 0
M  V30 1819 H 170.788 5.31284 -1.49804 0
M  V30 1820 H 173.264 4.16074 0.0464781 0
M  V30 1821 H 172.14 5.4657 0.505206 0
M  V30 1822 H 172.401 4.11995 1.60352 0
M  V30 1823 N 171.46 0.379036 1.52974 0
M  V30 1824 C 172.423 -0.448865 2.24762 0
M  V30 1825 C 173.423 -0.998689 1.26027 0
M  V30 1826 O 174.613 -0.882313 1.50203 0
M  V30 1827 C 171.745 -1.62872 2.99476 0
M  V30 1828 H 172.938 0.179491 2.99362 0
M  V30 1829 H 170.491 0.13096 1.5575 0
M  V30 1830 H 171.226 -2.29479 2.29151 0
M  V30 1831 H 171.011 -1.24128 3.71934 0
M  V30 1832 H 172.501 -2.2151 3.5401 0
M  V30 1833 N 172.938 -1.57226 0.108567 0
M  V30 1834 C 173.868 -2.17778 -0.84232 0
M  V30 1835 C 174.849 -1.11487 -1.2847 0
M  V30 1836 O 176.034 -1.39681 -1.34918 0
M  V30 1837 C 173.164 -2.76888 -2.09644 0
M  V30 1838 C 172.118 -3.88669 -1.79221 0
M  V30 1839 C 171.444 -4.34541 -3.11574 0
M  V30 1840 C 172.744 -5.11251 -1.06864 0
M  V30 1841 H 174.438 -2.97489 -0.337774 0
M  V30 1842 H 171.984 -1.43097 -0.161025 0
M  V30 1843 H 173.937 -3.17904 -2.76614 0
M  V30 1844 H 172.661 -1.94451 -2.62405 0
M  V30 1845 H 171.32 -3.48213 -1.14644 0
M  V30 1846 H 170.968 -3.48977 -3.62249 0
M  V30 1847 H 170.668 -5.09914 -2.91996 0
M  V30 1848 H 172.192 -4.782 -3.7968 0
M  V30 1849 H 173.606 -5.49352 -1.63968 0
M  V30 1850 H 172.003 -5.9214 -0.974178 0
M  V30 1851 H 173.073 -4.8487 -0.0536168 0
M  V30 1852 N 174.416 0.165178 -1.56732 0
M  V30 1853 C 175.665 0.879143 -1.81532 0
M  V30 1854 C 175.978 1.83144 -0.686842 0
M  V30 1855 O 177.184 2.58823 -0.819944 0
M  V30 1856 C 175.64 1.61388 -3.21686 0
M  V30 1857 C 175.248 0.704904 -4.4242 0
M  V30 1858 C 176.992 2.3157 -3.55774 0
M  V30 1859 C 174.899 1.44022 -5.73595 0
M  V30 1860 H 173.829 0.332033 -0.676957 0
M  V30 1861 H 176.48 0.132008 -1.83025 0
M  V30 1862 H 174.862 2.40599 -3.14529 0
M  V30 1863 H 176.036 -0.0506815 -4.60772 0
M  V30 1864 H 174.351 0.112419 -4.16248 0
M  V30 1865 H 176.948 2.8719 -4.51028 0
M  V30 1866 H 177.291 3.07201 -2.8095 0
M  V30 1867 H 177.824 1.59297 -3.64513 0
M  V30 1868 H 174.563 0.72612 -6.51466 0
M  V30 1869 H 174.083 2.16898 -5.5921 0
M  V30 1870 H 175.762 1.98606 -6.15764 0
M  V30 1871 N 175.894 1.51508 0.433938 0
M  V30 1872 C 177.14 1.64588 1.18484 0
M  V30 1873 C 177.473 0.362666 1.90784 0
M  V30 1874 O 176.748 -0.637892 1.83742 0
M  V30 1875 C 177.031 2.85149 2.19913 0
M  V30 1876 C 176.884 4.23456 1.51674 0
M  V30 1877 C 178.203 3.01227 3.20858 0
M  V30 1878 H 175.322 0.598994 0.429389 0
M  V30 1879 H 177.964 1.84002 0.473647 0
M  V30 1880 H 176.114 2.68729 2.80566 0
M  V30 1881 H 177.786 4.51552 0.943322 0
M  V30 1882 H 176.029 4.25998 0.819035 0
M  V30 1883 H 176.7 5.03812 2.2556 0
M  V30 1884 H 179.176 3.16382 2.70263 0
M  V30 1885 H 178.052 3.87141 3.89118 0
M  V30 1886 H 178.313 2.13447 3.8716 0
M  V30 1887 N 177.372 -0.689602 1.41712 0
M  V30 1888 C 178.6 -1.47827 1.44758 0
M  V30 1889 C 179.015 -1.88721 0.0545703 0
M  V30 1890 O 178.372 -1.57176 -0.927463 0
M  V30 1891 C 178.423 -2.73698 2.3616 0
M  V30 1892 O 178.144 -2.34524 3.7004 0
M  V30 1893 C 179.645 -3.67389 2.48072 0
M  V30 1894 H 176.865 -0.455357 0.49284 0
M  V30 1895 H 179.409 -0.848574 1.86063 0
M  V30 1896 H 177.564 -3.32891 1.98148 0
M  V30 1897 H 177.978 -3.15701 4.18847 0
M  V30 1898 H 179.452 -4.52475 3.16181 0
M  V30 1899 H 179.929 -4.12284 1.51388 0
M  V30 1900 H 180.535 -3.14097 2.86746 0
M  V30 1901 N 178.85 -1.27639 -0.924453 0
M  V30 1902 C 179.783 -1.04966 -2.02626 0
M  V30 1903 C 180.761 0.0309505 -1.62571 0
M  V30 1904 O 181.945 -0.114846 -1.8815 0
M  V30 1905 C 179.072 -0.59292 -3.3347 0
M  V30 1906 C 178.118 -1.66858 -3.92506 0
M  V30 1907 S 178.951 -3.2619 -4.24689 0
M  V30 1908 C 180.107 -2.82325 -5.58609 0
M  V30 1909 H 180.34 -1.98252 -2.21547 0
M  V30 1910 H 177.873 -1.11506 -1.06798 0
M  V30 1911 H 179.831 -0.336086 -4.09122 0
M  V30 1912 H 178.492 0.319939 -3.12466 0
M  V30 1913 H 177.685 -1.30038 -4.86935 0
M  V30 1914 H 177.287 -1.87766 -3.2345 0
M  V30 1915 H 179.579 -2.2783 -6.38044 0
M  V30 1916 H 180.522 -3.75511 -6.00331 0
M  V30 1917 H 180.93 -2.21367 -5.19285 0
M  V30 1918 N 180.328 1.1314 -1.09713 0
M  V30 1919 C 181.744 1.36477 -0.827423 0
M  V30 1920 C 181.944 1.93654 0.556817 0
M  V30 1921 O 181 2.15791 1.31112 0
M  V30 1922 C 182.313 2.31334 -1.92106 0
M  V30 1923 C 183.861 2.44943 -1.94864 0
M  V30 1924 C 184.336 3.4311 -3.0338 0
M  V30 1925 N 185.827 3.50662 -3.02639 0
M  V30 1926 C 186.562 4.2651 -3.83246 0
M  V30 1927 N 186.058 5.05485 -4.73768 0
M  V30 1928 N 187.851 4.2184 -3.71493 0
M  V30 1929 H 180.002 0.743807 -1.9895 0
M  V30 1930 H 182.265 0.389823 -0.864143 0
M  V30 1931 H 181.971 1.96483 -2.91698 0
M  V30 1932 H 181.845 3.31381 -1.80184 0
M  V30 1933 H 184.232 2.79079 -0.959099 0
M  V30 1934 H 184.313 1.4481 -2.10864 0
M  V30 1935 H 183.957 3.09704 -4.02549 0
M  V30 1936 H 183.887 4.43055 -2.84622 0
M  V30 1937 H 186.378 2.94315 -2.37039 0
M  V30 1938 H 186.691 5.60675 -5.3185 0
M  V30 1939 H 185.036 5.04708 -4.77802 0
M  V30 1940 H 188.227 3.5922 -3.00131 0
M  V30 1941 H 188.4 4.80697 -4.3455 0
M  V30 1942 N 181.806 0.884767 1.30421 0
M  V30 1943 C 183.036 0.517293 2.00019 0
M  V30 1944 C 183.444 -0.898632 1.66497 0
M  V30 1945 O 182.787 -1.60245 0.898181 0
M  V30 1946 C 182.849 0.612025 3.54252 0
M  V30 1947 C 182.513 1.99222 4.1129 0
M  V30 1948 C 183.51 2.9616 4.273 0
M  V30 1949 C 181.195 2.29755 4.46674 0
M  V30 1950 C 183.189 4.21764 4.77906 0
M  V30 1951 C 180.876 3.55606 4.96979 0
M  V30 1952 C 181.874 4.51425 5.12547 0
M  V30 1953 O 181.562 5.75043 5.61766 0
M  V30 1954 H 181.294 0.198529 0.64619 0
M  V30 1955 H 183.848 1.1919 1.67281 0
M  V30 1956 H 182.078 -0.119561 3.86515 0
M  V30 1957 H 183.767 0.255859 4.05093 0
M  V30 1958 H 184.533 2.73882 4.00267 0
M  V30 1959 H 180.412 1.55942 4.33824 0
M  V30 1960 H 183.956 4.96561 4.89972 0
M  V30 1961 H 179.853 3.7772 5.23448 0
M  V30 1962 H 180.621 5.77422 5.80109 0
M  V30 1963 N 183.284 -1.43765 0.645699 0
M  V30 1964 C 184.509 -2.06767 0.161883 0
M  V30 1965 C 184.934 -1.48034 -1.16049 0
M  V30 1966 O 184.292 -0.587369 -1.71522 0
M  V30 1967 C 184.34 -3.60519 0.0762003 0
M  V30 1968 O 183.444 -4.00982 -0.963721 0
M  V30 1969 H 182.785 -0.657675 0.091429 0
M  V30 1970 H 185.315 -1.84397 0.886499 0
M  V30 1971 H 185.325 -4.07853 -0.109604 0
M  V30 1972 H 184 -4.02646 1.04157 0
M  V30 1973 H 182.577 -3.65253 -0.751312 0
M  V30 1974 N 184.763 -0.387143 -1.52771 0
M  V30 1975 C 185.693 0.440551 -2.29306 0
M  V30 1976 C 186.674 1.06535 -1.32606 0
M  V30 1977 O 187.859 1.07853 -1.61497 0
M  V30 1978 C 184.989 1.56919 -3.09829 0
M  V30 1979 C 183.943 1.07054 -4.14395 0
M  V30 1980 C 183.269 2.29109 -4.83129 0
M  V30 1981 C 184.569 0.140015 -5.22112 0
M  V30 1982 H 186.263 -0.198026 -2.98744 0
M  V30 1983 H 183.809 -0.09668 -1.43675 0
M  V30 1984 H 185.762 2.15503 -3.62128 0
M  V30 1985 H 184.486 2.23532 -2.3812 0
M  V30 1986 H 183.145 0.507247 -3.63074 0
M  V30 1987 H 182.793 2.94227 -4.0797 0
M  V30 1988 H 182.493 1.96406 -5.53804 0
M  V30 1989 H 184.017 2.88339 -5.38231 0
M  V30 1990 H 185.431 0.633978 -5.69784 0
M  V30 1991 H 183.828 -0.0971485 -6.00021 0
M  V30 1992 H 184.898 -0.811711 -4.78058 0
M  V30 1993 N 186.241 1.57166 -0.116904 0
M  V30 1994 C 187.188 2.15202 0.83408 0
M  V30 1995 C 188.158 1.07644 1.26499 0
M  V30 1996 O 189.343 1.35541 1.34288 0
M  V30 1997 C 186.483 2.75405 2.07957 0
M  V30 1998 C 185.596 3.97264 1.69721 0
M  V30 1999 C 184.731 4.45561 2.89221 0
M  V30 2000 C 183.77 5.59956 2.47215 0
M  V30 2001 N 182.907 6.03006 3.59622 0
M  V30 2002 H 187.747 2.96141 0.332335 0
M  V30 2003 H 185.284 1.46309 0.152349 0
M  V30 2004 H 187.242 3.08439 2.80929 0
M  V30 2005 H 185.872 1.97159 2.55594 0
M  V30 2006 H 184.924 3.70404 0.866316 0
M  V30 2007 H 186.236 4.80226 1.34849 0
M  V30 2008 H 185.39 4.80493 3.7042 0
M  V30 2009 H 184.129 3.61544 3.27318 0
M  V30 2010 H 183.134 5.2463 1.64448 0
M  V30 2011 H 184.359 6.45738 2.10238 0
M  V30 2012 H 182.305 5.21931 3.97396 0
M  V30 2013 H 182.222 6.80819 3.28667 0
M  V30 2014 H 183.49 6.42576 4.41267 0
M  V30 2015 N 187.719 -0.156864 1.56817 0
M  V30 2016 C 188.965 -0.872416 1.83076 0
M  V30 2017 C 189.298 -1.81261 0.697001 0
M  V30 2018 O 188.573 -1.92171 -0.30008 0
M  V30 2019 C 188.856 -1.65551 3.19789 0
M  V30 2020 C 188.709 -0.737467 4.43713 0
M  V30 2021 C 190.028 -2.62012 3.53606 0
M  V30 2022 H 187.147 -0.315715 0.665953 0
M  V30 2023 H 189.789 -0.138004 1.89498 0
M  V30 2024 H 187.939 -2.28159 3.14445 0
M  V30 2025 H 189.611 -0.123143 4.61136 0
M  V30 2026 H 187.854 -0.0464067 4.33775 0
M  V30 2027 H 188.525 -1.32122 5.35955 0
M  V30 2028 H 191.001 -2.09525 3.59497 0
M  V30 2029 H 189.877 -3.13861 4.50314 0
M  V30 2030 H 190.138 -3.42902 2.79053 0
M  V30 2031 N 189.197 -1.51736 -0.425897 0
M  V30 2032 C 190.127 -1.76827 -1.52494 0
M  V30 2033 C 191.108 -0.618524 -1.58456 0
M  V30 2034 O 192.293 -0.862416 -1.74 0
M  V30 2035 C 189.423 -1.90374 -2.90474 0
M  V30 2036 C 188.377 -3.0588 -2.99369 0
M  V30 2037 C 187.703 -3.04625 -4.3944 0
M  V30 2038 C 189.003 -4.45644 -2.72394 0
M  V30 2039 H 190.697 -2.68855 -1.31748 0
M  V30 2040 H 188.243 -1.29372 -0.632362 0
M  V30 2041 H 190.196 -2.0651 -3.6733 0
M  V30 2042 H 188.92 -0.95004 -3.12477 0
M  V30 2043 H 187.579 -2.89467 -2.24954 0
M  V30 2044 H 187.227 -2.0701 -4.58428 0
M  V30 2045 H 186.927 -3.82195 -4.46319 0
M  V30 2046 H 188.451 -3.22869 -5.18255 0
M  V30 2047 H 189.865 -4.62348 -3.38979 0
M  V30 2048 H 188.262 -5.25006 -2.9067 0
M  V30 2049 H 189.332 -4.54893 -1.67929 0
M  V30 2050 N 190.675 0.682077 -1.42076 0
M  V30 2051 C 191.605 1.80796 -1.47767 0
M  V30 2052 C 192.586 1.6677 -0.334954 0
M  V30 2053 O 193.771 1.863 -0.548264 0
M  V30 2054 C 190.901 3.19038 -1.37229 0
M  V30 2055 C 189.855 3.47789 -2.49453 0
M  V30 2056 C 189.181 4.8553 -2.23975 0
M  V30 2057 C 190.481 3.45411 -3.91776 0
M  V30 2058 H 192.175 1.7629 -2.41997 0
M  V30 2059 H 189.721 0.846721 -1.16476 0
M  V30 2060 H 191.674 3.97528 -1.39821 0
M  V30 2061 H 190.398 3.24204 -0.394907 0
M  V30 2062 H 189.057 2.71657 -2.46166 0
M  V30 2063 H 188.705 4.87337 -1.24547 0
M  V30 2064 H 188.405 5.0573 -2.99184 0
M  V30 2065 H 189.929 5.66312 -2.28304 0
M  V30 2066 H 191.343 4.13882 -3.96705 0
M  V30 2067 H 189.74 3.77145 -4.66778 0
M  V30 2068 H 190.81 2.44122 -4.18966 0
M  V30 2069 N 192.153 1.28127 0.917671 0
M  V30 2070 C 193.378 1.18007 1.70555 0
M  V30 2071 C 193.803 -0.258257 1.86319 0
M  V30 2072 O 193.161 -1.1869 1.37049 0
M  V30 2073 C 193.209 1.87948 3.07746 0
M  V30 2074 O 192.313 1.18427 3.9503 0
M  V30 2075 H 191.654 0.409867 0.522403 0
M  V30 2076 H 194.184 1.69379 1.1477 0
M  V30 2077 H 194.194 1.95701 3.58001 0
M  V30 2078 H 192.869 2.92573 2.95591 0
M  V30 2079 H 191.446 1.18811 3.53466 0
M  V30 2080 N 193.631 -1.12557 1.10312 0
M  V30 2081 C 194.861 -1.87592 0.865617 0
M  V30 2082 C 195.269 -1.79851 -0.587389 0
M  V30 2083 O 194.612 -1.16949 -1.41664 0
M  V30 2084 C 194.674 -3.37665 1.23381 0
M  V30 2085 C 194.338 -3.69181 2.69359 0
M  V30 2086 C 195.335 -3.67652 3.67597 0
M  V30 2087 C 193.02 -3.98555 3.05711 0
M  V30 2088 C 195.014 -3.95053 5.00212 0
M  V30 2089 C 192.701 -4.25616 4.38514 0
M  V30 2090 C 193.699 -4.23851 5.35574 0
M  V30 2091 O 193.387 -4.50242 6.65986 0
M  V30 2092 H 193.119 -0.600442 0.310557 0
M  V30 2093 H 195.673 -1.4335 1.47105 0
M  V30 2094 H 193.903 -3.82454 0.571467 0
M  V30 2095 H 195.592 -3.94041 0.973994 0
M  V30 2096 H 196.358 -3.45024 3.40857 0
M  V30 2097 H 192.237 -3.99071 2.30789 0
M  V30 2098 H 195.781 -3.93591 5.75962 0
M  V30 2099 H 191.678 -4.47718 4.64994 0
M  V30 2100 H 192.446 -4.67867 6.71597 0
M  V30 2101 N 195.109 -0.891671 -1.2995 0
M  V30 2102 C 196.059 -0.334811 -2.25528 0
M  V30 2103 C 197.043 0.540553 -1.51548 0
M  V30 2104 O 198.235 0.383882 -1.72787 0
M  V30 2105 C 195.364 0.44374 -3.4042 0
M  V30 2106 C 194.45 -0.44609 -4.21747 0
M  V30 2107 N 194.841 -1.54963 -4.81477 0
M  V30 2108 C 193.139 -0.242415 -4.45341 0
M  V30 2109 C 193.84 -2.10015 -5.42465 0
M  V30 2110 N 192.816 -1.39423 -5.25416 0
M  V30 2111 H 196.618 -1.17792 -2.69262 0
M  V30 2112 H 194.132 -0.741822 -1.44467 0
M  V30 2113 H 196.129 0.859362 -4.07947 0
M  V30 2114 H 194.789 1.28421 -2.98225 0
M  V30 2115 H 195.8 -1.93244 -4.80497 0
M  V30 2116 H 192.477 0.560342 -4.13723 0
M  V30 2117 H 193.867 -3.02724 -5.9984 0
M  V30 2118 N 196.587 1.43421 -0.653314 0
M  V30 2119 C 197.835 2.01414 -0.166415 0
M  V30 2120 C 198.156 1.51803 1.22397 0
M  V30 2121 O 197.426 0.730693 1.81763 0
M  V30 2122 H 196.006 0.744703 -0.0585319 0
M  V30 2123 H 198.668 1.75629 -0.845003 0
M  V30 2124 H 197.764 3.11734 -0.151111 0
M  V30 2125 N 198.065 0.39524 1.52563 0
M  V30 2126 C 199.311 -0.177763 2.02622 0
M  V30 2127 C 199.666 -1.43974 1.27629 0
M  V30 2128 O 198.959 -1.87995 0.36992 0
M  V30 2129 C 199.153 -0.493444 3.53977 0
M  V30 2130 C 198.982 0.736392 4.4363 0
M  V30 2131 C 197.752 1.25744 4.89404 0
M  V30 2132 C 199.95 1.61046 4.88435 0
M  V30 2133 N 197.932 2.44421 5.63145 0
M  V30 2134 C 199.303 2.64359 5.60816 0
M  V30 2135 C 201.358 1.62985 4.70468 0
M  V30 2136 C 200.061 3.69505 6.17137 0
M  V30 2137 C 202.087 2.67042 5.27677 0
M  V30 2138 C 201.449 3.69077 5.99968 0
M  V30 2139 H 197.548 -0.0269794 0.781534 0
M  V30 2140 H 200.132 0.546466 1.86874 0
M  V30 2141 H 198.303 -1.18672 3.69826 0
M  V30 2142 H 200.035 -1.05412 3.90731 0
M  V30 2143 H 196.79 0.817546 4.6649 0
M  V30 2144 H 197.214 3.04485 6.04663 0
M  V30 2145 H 201.856 0.854442 4.14076 0
M  V30 2146 H 199.574 4.4791 6.72608 0
M  V30 2147 H 203.16 2.69433 5.15652 0
M  V30 2148 H 202.04 4.48273 6.43444 0
M  V30 2149 N 199.544 -1.57102 0.125237 0
M  V30 2150 C 200.477 -2.11371 -0.860094 0
M  V30 2151 C 201.455 -1.03168 -1.25679 0
M  V30 2152 O 202.639 -1.30862 -1.35674 0
M  V30 2153 C 199.766 -2.61555 -2.1519 0
M  V30 2154 C 198.812 -3.81701 -1.9028 0
M  V30 2155 S 199.645 -5.23797 -1.11343 0
M  V30 2156 C 200.801 -5.77353 -2.41689 0
M  V30 2157 H 201.034 -2.94617 -0.39852 0
M  V30 2158 H 198.567 -1.54145 -0.0886555 0
M  V30 2159 H 200.525 -2.91122 -2.89411 0
M  V30 2160 H 199.186 -1.78479 -2.58465 0
M  V30 2161 H 198.379 -4.14985 -2.86014 0
M  V30 2162 H 197.981 -3.52783 -1.24178 0
M  V30 2163 H 200.273 -5.87458 -3.37489 0
M  V30 2164 H 201.216 -6.75323 -2.12942 0
M  V30 2165 H 201.624 -5.05457 -2.51342 0
M  V30 2166 N 201.022 0.148545 -1.56898 0
M  V30 2167 C 202.269 0.861418 -1.83264 0
M  V30 2168 C 202.597 1.81239 -0.705883 0
M  V30 2169 O 201.852 1.93305 0.305212 0
M  V30 2170 C 202.151 1.67064 -3.1595 0
M  V30 2171 C 201.817 0.866591 -4.42494 0
M  V30 2172 C 200.479 0.644762 -4.76861 0
M  V30 2173 C 202.831 0.30418 -5.20312 0
M  V30 2174 C 200.159 -0.15021 -5.86508 0
M  V30 2175 C 202.511 -0.477824 -6.30793 0
M  V30 2176 C 201.175 -0.710244 -6.63711 0
M  V30 2177 H 200.445 0.315215 -0.670612 0
M  V30 2178 H 203.092 0.125142 -1.91091 0
M  V30 2179 H 201.397 2.47698 -3.03567 0
M  V30 2180 H 203.094 2.22566 -3.33565 0
M  V30 2181 H 199.684 1.04955 -4.15551 0
M  V30 2182 H 203.868 0.462844 -4.94137 0
M  V30 2183 H 199.124 -0.339796 -6.10455 0
M  V30 2184 H 203.298 -0.92076 -6.90286 0
M  V30 2185 H 200.925 -1.3281 -7.48509 0
M  V30 2186 N 202.5 1.5196 0.417844 0
M  V30 2187 C 203.728 1.69426 1.18753 0
M  V30 2188 C 204.143 0.399955 1.84515 0
M  V30 2189 O 203.5 -0.623288 1.71527 0
M  V30 2190 C 203.551 2.82375 2.25714 0
M  V30 2191 O 203.272 4.06793 1.62638 0
M  V30 2192 C 204.773 3.11277 3.15628 0
M  V30 2193 H 201.993 0.568031 0.357186 0
M  V30 2194 H 204.537 1.98475 0.49273 0
M  V30 2195 H 202.692 2.5587 2.90877 0
M  V30 2196 H 203.106 4.69667 2.3348 0
M  V30 2197 H 204.58 3.93843 3.86771 0
M  V30 2198 H 205.057 2.24473 3.77503 0
M  V30 2199 H 205.663 3.39515 2.56144 0
M  V30 2200 N 203.978 -0.674533 1.42435 0
M  V30 2201 C 204.888 -1.81751 1.48337 0
M  V30 2202 C 205.904 -1.69975 0.372099 0
M  V30 2203 O 207.08 -1.91521 0.62304 0
M  V30 2204 C 204.145 -3.17895 1.38361 0
M  V30 2205 C 203.206 -3.41625 2.59982 0
M  V30 2206 C 202.439 -4.71274 2.50473 0
M  V30 2207 O 202.662 -5.49197 1.54075 0
M  V30 2208 O 201.596 -4.96254 3.4061 0
M  V30 2209 H 205.422 -1.79728 2.44809 0
M  V30 2210 H 203.007 -0.830312 1.24202 0
M  V30 2211 H 204.889 -3.99136 1.35161 0
M  V30 2212 H 203.564 -3.20555 0.450144 0
M  V30 2213 H 202.471 -2.60231 2.68757 0
M  V30 2214 H 203.804 -3.43796 3.52229 0
M  V30 2215 N 205.456 -1.28612 -0.910864 0
M  V30 2216 C 206.406 -1.09423 -2.00026 0
M  V30 2217 C 207.39 -0.0170079 -1.60891 0
M  V30 2218 O 208.582 -0.237472 -1.754 0
M  V30 2219 C 205.711 -0.76114 -3.34756 0
M  V30 2220 C 204.797 -1.87735 -3.80285 0
M  V30 2221 N 205.188 -3.11938 -3.98156 0
M  V30 2222 C 203.486 -1.76786 -4.09467 0
M  V30 2223 C 204.187 -3.84687 -4.36338 0
M  V30 2224 N 203.163 -3.12555 -4.44759 0
M  V30 2225 H 206.965 -2.03658 -2.11898 0
M  V30 2226 H 204.479 -1.19573 -1.09891 0
M  V30 2227 H 206.476 -0.604743 -4.12491 0
M  V30 2228 H 205.136 0.173403 -3.24237 0
M  V30 2229 H 206.147 -3.47516 -3.83996 0
M  V30 2230 H 202.824 -0.905284 -4.07567 0
M  V30 2231 H 204.214 -4.91518 -4.58104 0
M  V30 2232 N 206.934 1.1197 -1.10907 0
M  V30 2233 C 208.182 1.83225 -0.852819 0
M  V30 2234 C 208.503 1.84769 0.623341 0
M  V30 2235 O 207.773 1.3143 1.45269 0
M  V30 2236 H 206.353 0.67849 -0.312507 0
M  V30 2237 H 209.015 1.3556 -1.40033 0
M  V30 2238 H 208.111 2.87265 -1.22005 0
M  V30 2239 N 208.412 0.89855 1.29475 0
M  V30 2240 C 209.359 0.373819 2.27753 0
M  V30 2241 C 210.329 -0.543444 1.56958 0
M  V30 2242 O 211.514 -0.468934 1.84948 0
M  V30 2243 C 208.654 -0.393648 3.42848 0
M  V30 2244 C 207.767 0.554379 4.28428 0
M  V30 2245 C 206.902 -0.230026 5.30702 0
M  V30 2246 C 205.941 0.712599 6.07938 0
M  V30 2247 N 205.078 -0.0373283 7.0209 0
M  V30 2248 H 209.918 1.21699 2.72017 0
M  V30 2249 H 207.455 0.611456 1.33789 0
M  V30 2250 H 209.413 -0.85466 4.08352 0
M  V30 2251 H 208.043 -1.20128 2.99615 0
M  V30 2252 H 207.095 1.13391 3.63107 0
M  V30 2253 H 208.407 1.27597 4.82204 0
M  V30 2254 H 207.561 -0.752288 6.02018 0
M  V30 2255 H 206.3 -0.984758 4.77654 0
M  V30 2256 H 205.305 1.24637 5.35486 0
M  V30 2257 H 206.53 1.46664 6.63074 0
M  V30 2258 H 204.476 -0.774348 6.51414 0
M  V30 2259 H 204.393 0.624374 7.53417 0
M  V30 2260 H 205.661 -0.539891 7.77628 0
M  V30 2261 N 209.89 -1.43072 0.660911 0
M  V30 2262 C 210.823 -2.28074 -0.0758862 0
M  V30 2263 C 211.801 -1.40271 -0.822362 0
M  V30 2264 O 212.985 -1.69713 -0.820352 0
M  V30 2265 C 210.112 -3.19843 -1.11437 0
M  V30 2266 C 209.158 -4.23957 -0.465069 0
M  V30 2267 S 209.991 -5.29978 0.767078 0
M  V30 2268 C 211.147 -6.25314 -0.270682 0
M  V30 2269 H 211.38 -2.90216 0.645139 0
M  V30 2270 H 208.913 -1.47697 0.449995 0
M  V30 2271 H 210.871 -3.73257 -1.70849 0
M  V30 2272 H 209.532 -2.56863 -1.80776 0
M  V30 2273 H 208.725 -4.88299 -1.24819 0
M  V30 2274 H 208.327 -3.73959 0.0551242 0
M  V30 2275 H 210.619 -6.67932 -1.13459 0
M  V30 2276 H 211.562 -7.07293 0.337916 0
M  V30 2277 H 211.97 -5.61195 -0.609937 0
M  V30 2278 N 211.368 -0.403325 -1.52352 0
M  V30 2279 C 212.593 0.176499 -2.06648 0
M  V30 2280 C 213.018 1.38577 -1.27193 0
M  V30 2281 O 212.376 1.7879 -0.300637 0
M  V30 2282 C 212.424 0.511061 -3.5696 0
M  V30 2283 O 211.528 1.60294 -3.79973 0
M  V30 2284 H 210.869 0.0167337 -0.663789 0
M  V30 2285 H 213.399 -0.574848 -1.96359 0
M  V30 2286 H 213.409 0.771362 -4.00642 0
M  V30 2287 H 212.084 -0.37296 -4.14224 0
M  V30 2288 H 210.661 1.33526 -3.48174 0
M  V30 2289 N 212.846 1.57033 -0.133567 0
M  V30 2290 C 214.262 1.58035 0.222944 0
M  V30 2291 C 214.462 1.14713 1.6566 0
M  V30 2292 O 213.518 0.841218 2.38075 0
M  V30 2293 C 214.831 3.00691 -0.0236116 0
M  V30 2294 C 216.379 3.12973 0.0411512 0
M  V30 2295 C 216.854 4.57654 -0.177899 0
M  V30 2296 N 218.345 4.63033 -0.124365 0
M  V30 2297 C 219.08 5.72771 -0.268553 0
M  V30 2298 N 218.576 6.91206 -0.46972 0
M  V30 2299 N 220.369 5.61718 -0.2071 0
M  V30 2300 H 212.52 1.8349 -1.06981 0
M  V30 2301 H 214.783 0.848677 -0.422436 0
M  V30 2302 H 214.489 3.36726 -1.0153 0
M  V30 2303 H 214.363 3.70614 0.701808 0
M  V30 2304 H 216.75 2.76787 1.02338 0
M  V30 2305 H 216.831 2.45564 -0.716383 0
M  V30 2306 H 216.475 4.94542 -1.15717 0
M  V30 2307 H 216.405 5.23173 0.599797 0
M  V30 2308 H 218.896 3.7789 0.027011 0
M  V30 2309 H 219.209 7.70693 -0.570212 0
M  V30 2310 H 217.554 6.93156 -0.505876 0
M  V30 2311 H 220.745 4.68072 -0.0507986 0
M  V30 2312 H 220.918 6.47195 -0.322909 0
M  V30 2313 N 214.325 -0.140222 1.56975 0
M  V30 2314 C 215.288 -1.15689 1.97861 0
M  V30 2315 C 216.288 -1.3549 0.865974 0
M  V30 2316 O 217.478 -1.32367 1.13246 0
M  V30 2317 C 214.61 -2.51582 2.30042 0
M  V30 2318 H 215.803 -0.805971 2.88867 0
M  V30 2319 H 213.356 -0.383801 1.51515 0
M  V30 2320 H 214.091 -2.91632 1.41849 0
M  V30 2321 H 213.876 -2.38569 3.11171 0
M  V30 2322 H 215.366 -3.24792 2.62488 0
M  V30 2323 N 215.803 -1.52179 -0.40978 0
M  V30 2324 C 217.031 -1.70054 -1.17853 0
M  V30 2325 C 217.446 -0.409735 -1.843 0
M  V30 2326 O 216.803 0.614183 -1.71855 0
M  V30 2327 C 216.854 -2.83568 -2.24213 0
M  V30 2328 O 216.575 -4.0765 -1.60478 0
M  V30 2329 C 218.076 -3.12947 -3.13973 0
M  V30 2330 H 215.296 -0.569917 -0.354169 0
M  V30 2331 H 217.84 -1.98734 -0.482198 0
M  V30 2332 H 215.995 -2.57409 -2.89516 0
M  V30 2333 H 216.409 -4.70899 -2.30986 0
M  V30 2334 H 217.883 -3.95889 -3.84677 0
M  V30 2335 H 218.36 -2.26472 -3.76307 0
M  V30 2336 H 218.966 -3.40868 -2.5434 0
M  V30 2337 N 217.281 0.66697 -1.42791 0
M  V30 2338 C 218.228 1.7803 -1.4688 0
M  V30 2339 C 219.198 1.6299 -0.319919 0
M  V30 2340 O 220.383 1.83432 -0.525118 0
M  V30 2341 C 217.523 3.1611 -1.38451 0
M  V30 2342 C 216.636 3.42381 -2.63437 0
M  V30 2343 C 215.771 4.70232 -2.47094 0
M  V30 2344 C 214.81 4.89564 -3.67415 0
M  V30 2345 N 213.947 6.08661 -3.49966 0
M  V30 2346 H 218.787 1.7387 -2.42019 0
M  V30 2347 H 216.324 0.84868 -1.20149 0
M  V30 2348 H 218.282 3.95914 -1.31561 0
M  V30 2349 H 216.912 3.19374 -0.469033 0
M  V30 2350 H 215.964 2.56774 -2.80662 0
M  V30 2351 H 217.276 3.52557 -3.52853 0
M  V30 2352 H 216.43 5.5814 -2.37834 0
M  V30 2353 H 215.169 4.62353 -1.5518 0
M  V30 2354 H 214.174 4.00096 -3.77099 0
M  V30 2355 H 215.399 4.99282 -4.6032 0
M  V30 2356 H 213.345 6.0194 -2.60776 0
M  V30 2357 H 213.262 6.19733 -4.32975 0
M  V30 2358 H 214.53 6.99226 -3.44532 0
M  V30 2359 N 218.759 1.29093 0.90403 0
M  V30 2360 C 220.008 1.16187 1.64874 0
M  V30 2361 C 220.321 -0.286742 1.93487 0
M  V30 2362 O 221.527 -0.537062 2.66135 0
M  V30 2363 C 219.983 2.03177 2.97064 0
M  V30 2364 C 219.591 3.52836 2.76062 0
M  V30 2365 C 221.335 1.98984 3.74974 0
M  V30 2366 C 219.242 4.31945 4.03952 0
M  V30 2367 H 218.172 0.431246 0.618501 0
M  V30 2368 H 220.823 1.53699 1.00243 0
M  V30 2369 H 219.205 1.5853 3.62883 0
M  V30 2370 H 220.379 4.05507 2.18863 0
M  V30 2371 H 218.694 3.58656 2.11553 0
M  V30 2372 H 221.291 2.55351 4.69787 0
M  V30 2373 H 221.634 0.968815 4.0487 0
M  V30 2374 H 222.167 2.41652 3.15989 0
M  V30 2375 H 218.906 5.34667 3.79225 0
M  V30 2376 H 218.426 3.84045 4.60727 0
M  V30 2377 H 220.105 4.42379 4.72133 0
M  V30 2378 N 220.237 -1.11381 1.11499 0
M  V30 2379 C 221.483 -1.83597 0.875423 0
M  V30 2380 C 221.838 -1.83048 -0.592555 0
M  V30 2381 O 221.131 -1.27304 -1.43193 0
M  V30 2382 C 221.325 -3.30026 1.37177 0
M  V30 2383 C 221.154 -3.44837 2.88647 0
M  V30 2384 C 219.924 -3.57825 3.56776 0
M  V30 2385 C 222.122 -3.3907 3.86699 0
M  V30 2386 N 220.104 -3.61113 4.96458 0
M  V30 2387 C 221.475 -3.48986 5.12454 0
M  V30 2388 C 223.53 -3.22605 3.7925 0
M  V30 2389 C 222.233 -3.44135 6.31636 0
M  V30 2390 C 224.259 -3.19072 4.97943 0
M  V30 2391 C 223.621 -3.29559 6.22551 0
M  V30 2392 H 219.72 -0.687044 0.37349 0
M  V30 2393 H 222.304 -1.33265 1.41946 0
M  V30 2394 H 220.475 -3.78874 0.854919 0
M  V30 2395 H 222.207 -3.90153 1.07529 0
M  V30 2396 H 218.962 -3.60414 3.07244 0
M  V30 2397 H 219.386 -3.66394 5.69284 0
M  V30 2398 H 224.028 -3.13382 2.83816 0
M  V30 2399 H 221.746 -3.52126 7.27347 0
M  V30 2400 H 225.332 -3.07498 4.93899 0
M  V30 2401 H 224.212 -3.26815 7.12855 0
M  V30 2402 N 221.715 -0.905404 -1.28997 0
M  V30 2403 C 222.648 -0.331959 -2.25773 0
M  V30 2404 C 223.626 0.559099 -1.52685 0
M  V30 2405 O 224.81 0.50463 -1.8162 0
M  V30 2406 C 221.937 0.526276 -3.34586 0
M  V30 2407 C 220.983 -0.298249 -4.25456 0
M  V30 2408 S 221.816 -1.69968 -5.0781 0
M  V30 2409 C 222.972 -0.848519 -6.20122 0
M  V30 2410 H 223.205 -1.15222 -2.74064 0
M  V30 2411 H 220.738 -0.706112 -1.37308 0
M  V30 2412 H 222.696 1.01565 -3.97737 0
M  V30 2413 H 221.357 1.32084 -2.84978 0
M  V30 2414 H 220.55 0.357607 -5.0273 0
M  V30 2415 H 220.152 -0.720968 -3.66985 0
M  V30 2416 H 222.444 -0.0744325 -6.77459 0
M  V30 2417 H 223.387 -1.59353 -6.89937 0
M  V30 2418 H 223.795 -0.400383 -5.63078 0
M  V30 2419 N 223.193 1.4272 -0.668489 0
M  V30 2420 C 224.441 2.01226 -0.187769 0
M  V30 2421 C 224.762 1.53092 1.2078 0
M  V30 2422 O 224.032 0.74993 1.80977 0
M  V30 2423 H 222.612 0.744041 -0.0664272 0
M  V30 2424 H 225.274 1.74723 -0.863583 0
M  V30 2425 H 224.37 3.11556 -0.184166 0
M  V30 2426 N 224.671 0.411399 1.52136 0
M  V30 2427 C 225.604 -0.457614 2.23565 0
M  V30 2428 C 226.582 -1.04613 1.24478 0
M  V30 2429 O 227.766 -1.09356 1.53536 0
M  V30 2430 C 224.893 -1.6354 2.96602 0
M  V30 2431 C 223.939 -1.17005 4.10137 0
M  V30 2432 S 224.772 -0.13333 5.35334 0
M  V30 2433 C 225.928 -1.31638 6.119 0
M  V30 2434 H 226.161 0.148883 2.96927 0
M  V30 2435 H 223.694 0.195713 1.53155 0
M  V30 2436 H 225.652 -2.31074 3.39286 0
M  V30 2437 H 224.313 -2.21324 2.22878 0
M  V30 2438 H 223.506 -2.05005 4.60422 0
M  V30 2439 H 223.108 -0.573319 3.6958 0
M  V30 2440 H 225.4 -2.23957 6.39413 0
M  V30 2441 H 226.343 -0.854014 7.02931 0
M  V30 2442 H 226.751 -1.54321 5.42997 0
M  V30 2443 N 226.149 -1.5696 0.141893 0
M  V30 2444 C 227.395 -1.9625 -0.511248 0
M  V30 2445 C 227.728 -1.02654 -1.64851 0
M  V30 2446 O 227.003 -0.0679676 -1.94381 0
M  V30 2447 C 227.286 -3.45285 -1.02227 0
M  V30 2448 C 227.139 -4.49658 0.113138 0
M  V30 2449 C 228.458 -3.96698 -1.90574 0
M  V30 2450 H 225.577 -0.713567 -0.184367 0
M  V30 2451 H 228.219 -1.88698 0.222087 0
M  V30 2452 H 226.369 -3.51852 -1.64719 0
M  V30 2453 H 228.041 -4.55174 0.749302 0
M  V30 2454 H 226.284 -4.26857 0.773026 0
M  V30 2455 H 226.955 -5.51258 -0.286053 0
M  V30 2456 H 229.431 -3.92578 -1.37918 0
M  V30 2457 H 228.307 -5.01453 -2.2324 0
M  V30 2458 H 228.568 -3.3875 -2.84079 0
M  V30 2459 N 227.627 0.131896 -1.57047 0
M  V30 2460 C 228.574 1.16236 -1.99393 0
M  V30 2461 C 229.544 1.41863 -0.863943 0
M  V30 2462 O 230.729 1.53946 -1.12718 0
M  V30 2463 C 227.869 2.48708 -2.39245 0
M  V30 2464 C 226.982 2.30127 -3.65603 0
M  V30 2465 C 226.117 3.55738 -3.94492 0
M  V30 2466 C 225.156 3.32259 -5.14073 0
M  V30 2467 N 224.293 4.50039 -5.38896 0
M  V30 2468 H 229.133 0.794251 -2.87221 0
M  V30 2469 H 226.67 0.380707 -1.42088 0
M  V30 2470 H 228.628 3.25969 -2.60384 0
M  V30 2471 H 227.258 2.83437 -1.54478 0
M  V30 2472 H 226.31 1.43845 -3.52154 0
M  V30 2473 H 227.622 2.08746 -4.5302 0
M  V30 2474 H 226.776 4.41423 -4.1621 0
M  V30 2475 H 225.515 3.80138 -3.05526 0
M  V30 2476 H 224.52 2.44963 -4.92212 0
M  V30 2477 H 225.745 3.09242 -6.04604 0
M  V30 2478 H 223.691 4.74584 -4.52886 0
M  V30 2479 H 223.608 4.31716 -6.2061 0
M  V30 2480 H 224.876 5.36895 -5.65123 0
M  V30 2481 N 229.106 1.52395 0.401703 0
M  V30 2482 C 230.355 1.66044 1.14509 0
M  V30 2483 C 230.668 0.400216 1.91462 0
M  V30 2484 O 231.874 0.416632 2.68284 0
M  V30 2485 C 230.33 2.93388 2.0845 0
M  V30 2486 C 229.938 4.26545 1.36978 0
M  V30 2487 C 231.682 3.16402 2.83001 0
M  V30 2488 C 229.589 5.45007 2.29611 0
M  V30 2489 H 228.519 0.618562 0.431158 0
M  V30 2490 H 231.17 1.78886 0.40892 0
M  V30 2491 H 229.552 2.74263 2.8565 0
M  V30 2492 H 230.726 4.56179 0.650916 0
M  V30 2493 H 229.041 4.09692 0.74438 0
M  V30 2494 H 231.638 4.02085 3.52465 0
M  V30 2495 H 231.981 2.30943 3.46368 0
M  V30 2496 H 232.514 3.36034 2.12898 0
M  V30 2497 H 229.253 6.32835 1.70879 0
M  V30 2498 H 228.773 5.19702 2.9945 0
M  V30 2499 H 230.452 5.7838 2.89974 0
M  V30 2500 N 230.584 -0.659388 1.43143 0
M  V30 2501 C 231.831 -1.41935 1.44433 0
M  V30 2502 C 232.159 -1.94387 0.0663522 0
M  V30 2503 O 231.414 -1.72314 -0.927706 0
M  V30 2504 C 231.713 -2.62206 2.42864 0
M  V30 2505 C 231.379 -2.28208 3.88886 0
M  V30 2506 C 230.041 -2.18647 4.28657 0
M  V30 2507 C 232.393 -2.00887 4.8093 0
M  V30 2508 C 229.721 -1.79914 5.58433 0
M  V30 2509 C 232.073 -1.63653 6.11065 0
M  V30 2510 C 230.737 -1.52614 6.49819 0
M  V30 2511 H 230.007 -0.519376 0.528517 0
M  V30 2512 H 232.654 -0.750453 1.76183 0
M  V30 2513 H 230.959 -3.34199 2.04495 0
M  V30 2514 H 232.656 -3.2041 2.41119 0
M  V30 2515 H 229.246 -2.36557 3.57406 0
M  V30 2516 H 233.43 -2.07198 4.5098 0
M  V30 2517 H 228.686 -1.69948 5.87305 0
M  V30 2518 H 232.86 -1.41543 6.81864 0
M  V30 2519 H 230.487 -1.22371 7.50286 0
M  V30 2520 N 232.062 -1.29571 -0.897171 0
M  V30 2521 C 233.287 -1.20705 -1.68656 0
M  V30 2522 C 233.712 0.228582 -1.86706 0
M  V30 2523 O 233.07 1.16494 -1.3892 0
M  V30 2524 C 233.118 -1.9282 -3.04717 0
M  V30 2525 O 232.222 -1.24697 -3.93096 0
M  V30 2526 H 231.563 -0.418126 -0.515816 0
M  V30 2527 H 234.093 -1.71183 -1.12061 0
M  V30 2528 H 234.103 -2.01372 -3.54843 0
M  V30 2529 H 232.778 -2.97239 -2.90899 0
M  V30 2530 H 231.355 -1.2442 -3.51531 0
M  V30 2531 N 233.54 1.10788 -1.12088 0
M  V30 2532 C 234.788 1.8231 -0.872205 0
M  V30 2533 C 235.109 1.85419 0.603709 0
M  V30 2534 O 234.379 1.32963 1.43867 0
M  V30 2535 H 232.959 0.675137 -0.319686 0
M  V30 2536 H 235.621 1.34068 -1.41463 0
M  V30 2537 H 234.717 2.85955 -1.25045 0
M  V30 2538 N 235.018 0.912232 1.28515 0
M  V30 2539 C 236.434 0.610159 1.47476 0
M  V30 2540 C 236.634 -0.844955 1.82928 0
M  V30 2541 O 235.69 -1.62416 1.93332 0
M  V30 2542 C 237.003 1.54675 2.57868 0
M  V30 2543 C 238.551 1.55331 2.71738 0
M  V30 2544 C 239.026 2.47649 3.85272 0
M  V30 2545 N 240.517 2.45767 3.92623 0
M  V30 2546 C 241.252 3.13896 4.79851 0
M  V30 2547 N 240.748 3.9135 5.71679 0
M  V30 2548 N 242.541 3.02991 4.73448 0
M  V30 2549 H 234.692 1.85318 1.03783 0
M  V30 2550 H 236.955 0.794777 0.516753 0
M  V30 2551 H 236.661 2.5841 2.38574 0
M  V30 2552 H 236.535 1.27671 3.54937 0
M  V30 2553 H 238.922 0.52335 2.90422 0
M  V30 2554 H 239.003 1.86378 1.75205 0
M  V30 2555 H 238.647 3.50745 3.67342 0
M  V30 2556 H 238.577 2.13904 4.81199 0
M  V30 2557 H 241.068 1.89503 3.26951 0
M  V30 2558 H 241.381 4.40359 6.35062 0
M  V30 2559 H 239.726 3.95455 5.71524 0
M  V30 2560 H 242.917 2.41987 4.007 0
M  V30 2561 H 243.09 3.5636 5.41213 0
M  V30 2562 N 236.496 -1.42363 0.676048 0
M  V30 2563 C 237.443 -2.308 -0.00150904 0
M  V30 2564 C 238.413 -1.46032 -0.791444 0
M  V30 2565 O 239.598 -1.74861 -0.76344 0
M  V30 2566 C 236.738 -3.31883 -0.945919 0
M  V30 2567 C 235.851 -4.31741 -0.149675 0
M  V30 2568 C 234.986 -5.19898 -1.08995 0
M  V30 2569 C 234.025 -6.11434 -0.285465 0
M  V30 2570 N 233.162 -6.92138 -1.17851 0
M  V30 2571 H 238.002 -2.88187 0.758455 0
M  V30 2572 H 235.539 -1.41952 0.38576 0
M  V30 2573 H 237.497 -3.89019 -1.50731 0
M  V30 2574 H 236.127 -2.76093 -1.6725 0
M  V30 2575 H 235.179 -3.76713 0.528359 0
M  V30 2576 H 236.491 -4.96534 0.474866 0
M  V30 2577 H 235.645 -5.81772 -1.72123 0
M  V30 2578 H 234.384 -4.55284 -1.74837 0
M  V30 2579 H 233.389 -5.48627 0.359018 0
M  V30 2580 H 234.614 -6.78097 0.368883 0
M  V30 2581 H 232.56 -6.30152 -1.82332 0
M  V30 2582 H 232.477 -7.53542 -0.609082 0
M  V30 2583 H 233.745 -7.58499 -1.79722 0
M  V30 2584 N 237.974 -0.419461 -1.51915 0
M  V30 2585 C 239.385 0.0477853 -1.86639 0
M  V30 2586 C 239.736 1.43531 -1.33766 0
M  V30 2587 O 238.861 2.05401 -0.68113 0
M  V30 2588 C 239.456 0.0934885 -3.38671 0
M  V30 2589 C 238.015 0.505097 -3.72996 0
M  V30 2590 C 237.162 -0.313792 -2.75519 0
M  V30 2591 H 240.113 -0.636088 -1.45395 0
M  V30 2592 H 240.134 0.906667 -3.6954 0
M  V30 2593 H 239.646 -0.916501 -3.77123 0
M  V30 2594 H 237.747 1.52135 -3.40126 0
M  V30 2595 H 237.86 0.242309 -4.78487 0
M  V30 2596 H 236.224 0.225363 -2.53701 0
M  V30 2597 H 237.007 -1.32232 -3.16812 0
M  V30 2598 N 239.452 1.56882 -0.150215 0
M  V30 2599 C 240.385 2.12712 0.826358 0
M  V30 2600 C 241.363 1.05154 1.24022 0
M  V30 2601 O 242.547 1.33004 1.33575 0
M  V30 2602 C 239.674 2.64945 2.11002 0
M  V30 2603 C 238.72 3.8468 1.84183 0
M  V30 2604 S 239.553 5.25502 1.02995 0
M  V30 2605 C 240.709 5.81125 2.32474 0
M  V30 2606 H 240.942 2.95214 0.351598 0
M  V30 2607 H 238.475 1.54267 0.0641211 0
M  V30 2608 H 240.433 2.95689 2.84742 0
M  V30 2609 H 239.094 1.82568 2.55593 0
M  V30 2610 H 238.287 4.19482 2.79375 0
M  V30 2611 H 237.889 3.54714 1.1855 0
M  V30 2612 H 240.181 5.92753 3.281 0
M  V30 2613 H 241.124 6.78625 2.02171 0
M  V30 2614 H 241.532 5.09392 2.43269 0
M  V30 2615 N 240.93 -0.123565 1.57115 0
M  V30 2616 C 241.86 -1.15309 2.03042 0
M  V30 2617 C 242.841 -1.43454 0.914061 0
M  V30 2618 O 244.026 -1.53973 1.18347 0
M  V30 2619 C 241.156 -2.48043 2.43089 0
M  V30 2620 C 240.11 -2.3437 3.58127 0
M  V30 2621 C 239.436 -3.72026 3.84059 0
M  V30 2622 C 240.736 -1.80804 4.90007 0
M  V30 2623 H 242.43 -0.771102 2.893 0
M  V30 2624 H 239.976 -0.369479 1.39179 0
M  V30 2625 H 241.929 -3.20311 2.73823 0
M  V30 2626 H 240.653 -2.88122 1.53796 0
M  V30 2627 H 239.312 -1.64551 3.27595 0
M  V30 2628 H 238.96 -4.09582 2.91979 0
M  V30 2629 H 238.66 -3.63732 4.6149 0
M  V30 2630 H 240.184 -4.45806 4.1724 0
M  V30 2631 H 241.598 -2.42886 5.19307 0
M  V30 2632 H 239.995 -1.83343 5.71407 0
M  V30 2633 H 241.065 -0.76528 4.78823 0
M  V30 2634 N 242.408 -1.52605 -0.393616 0
M  V30 2635 C 243.638 -1.71046 -1.15874 0
M  V30 2636 C 244.046 -0.426483 -1.84331 0
M  V30 2637 O 243.389 0.608513 -1.73329 0
M  V30 2638 C 243.451 -2.80118 -2.25332 0
M  V30 2639 C 243.115 -4.21381 -1.76881 0
M  V30 2640 C 244.112 -5.04697 -1.24808 0
M  V30 2641 C 241.797 -4.67683 -1.83244 0
M  V30 2642 C 243.791 -6.32393 -0.797387 0
M  V30 2643 C 241.478 -5.95364 -1.37787 0
M  V30 2644 C 242.476 -6.77549 -0.861208 0
M  V30 2645 O 242.164 -8.02837 -0.413252 0
M  V30 2646 H 241.896 -0.576155 -0.353583 0
M  V30 2647 H 244.45 -2.00018 -0.467123 0
M  V30 2648 H 242.68 -2.46557 -2.97904 0
M  V30 2649 H 244.369 -2.87006 -2.87023 0
M  V30 2650 H 245.135 -4.70111 -1.19252 0
M  V30 2651 H 241.014 -4.03805 -2.22401 0
M  V30 2652 H 244.558 -6.9649 -0.393437 0
M  V30 2653 H 240.455 -6.29455 -1.43026 0
M  V30 2654 H 241.223 -8.16749 -0.53515 0
M  V30 2655 N 243.887 0.651787 -1.4349 0
M  V30 2656 C 245.112 1.44434 -1.48841 0
M  V30 2657 C 245.537 1.8779 -0.107955 0
M  V30 2658 O 244.895 1.57464 0.898602 0
M  V30 2659 C 244.943 2.65458 -2.44059 0
M  V30 2660 O 244.047 3.64566 -1.92784 0
M  V30 2661 H 243.388 0.433005 -0.503391 0
M  V30 2662 H 245.918 0.797451 -1.88419 0
M  V30 2663 H 245.928 3.13255 -2.6141 0
M  V30 2664 H 244.603 2.33244 -3.4434 0
M  V30 2665 H 243.18 3.23716 -1.851 0
M  V30 2666 N 245.365 1.30045 0.890287 0
M  V30 2667 C 246.612 1.18561 1.64163 0
M  V30 2668 C 246.94 -0.260852 1.92743 0
M  V30 2669 O 246.195 -1.20376 1.54299 0
M  V30 2670 C 246.494 1.95409 2.99249 0
M  V30 2671 C 246.16 3.45066 2.90242 0
M  V30 2672 C 244.822 3.85878 2.87492 0
M  V30 2673 C 247.174 4.4039 2.78758 0
M  V30 2674 C 244.502 5.20314 2.7109 0
M  V30 2675 C 246.854 5.74928 2.63894 0
M  V30 2676 C 245.518 6.14986 2.59516 0
M  V30 2677 H 244.788 0.433846 0.600715 0
M  V30 2678 H 247.435 1.61088 1.03552 0
M  V30 2679 H 245.74 1.45501 3.63781 0
M  V30 2680 H 247.437 1.8392 3.56334 0
M  V30 2681 H 244.027 3.12631 2.93189 0
M  V30 2682 H 248.211 4.09806 2.79952 0
M  V30 2683 H 243.467 5.50449 2.66112 0
M  V30 2684 H 247.641 6.48434 2.53981 0
M  V30 2685 H 245.268 7.19104 2.46565 0
M  V30 2686 N 246.843 -1.10192 1.12674 0
M  V30 2687 C 247.775 -2.16418 0.754701 0
M  V30 2688 C 248.788 -1.61309 -0.21986 0
M  V30 2689 O 249.977 -1.785 -0.000826841 0
M  V30 2690 C 247.077 -3.38762 0.096698 0
M  V30 2691 C 246.25 -4.23307 1.10136 0
M  V30 2692 C 245.309 -5.24092 0.470513 0
M  V30 2693 O 244.335 -5.57906 1.12824 0
M  V30 2694 N 245.537 -5.75491 -0.760948 0
M  V30 2695 H 248.302 -2.48943 1.66875 0
M  V30 2696 H 245.863 -1.25834 1.01869 0
M  V30 2697 H 247.855 -4.03291 -0.337384 0
M  V30 2698 H 246.425 -3.04192 -0.720153 0
M  V30 2699 H 245.645 -3.55036 1.71299 0
M  V30 2700 H 246.933 -4.76624 1.78064 0
M  V30 2701 H 246.331 -5.50222 -1.31424 0
M  V30 2702 H 244.888 -6.41792 -1.13781 0
M  V30 2703 N 248.321 -0.919034 -1.28029 0
M  V30 2704 C 249.549 -0.570971 -1.98866 0
M  V30 2705 C 249.964 0.848996 -1.68634 0
M  V30 2706 O 249.321 1.56307 -0.942036 0
M  V30 2707 C 249.372 -0.776876 -3.53054 0
M  V30 2708 O 249.093 -2.14097 -3.82222 0
M  V30 2709 C 250.594 -0.436356 -4.41147 0
M  V30 2710 H 247.814 -0.217175 -0.634883 0
M  V30 2711 H 250.358 -1.23368 -1.63097 0
M  V30 2712 H 248.513 -0.161085 -3.87065 0
M  V30 2713 H 248.927 -2.18455 -4.76841 0
M  V30 2714 H 250.401 -0.63117 -5.4838 0
M  V30 2715 H 250.878 0.627686 -4.34692 0
M  V30 2716 H 251.484 -1.02991 -4.12641 0
M  V30 2717 N 249.799 1.42003 -0.683588 0
M  V30 2718 C 251.024 2.06265 -0.216647 0
M  V30 2719 C 251.449 1.51059 1.12083 0
M  V30 2720 O 250.807 0.632638 1.69904 0
M  V30 2721 C 250.855 3.60191 -0.171759 0
M  V30 2722 O 249.959 4.03396 0.857069 0
M  V30 2723 H 249.3 0.65502 -0.108834 0
M  V30 2724 H 251.83 1.81982 -0.935077 0
M  V30 2725 H 251.84 4.08 0.0014303 0
M  V30 2726 H 250.515 3.99743 -1.14796 0
M  V30 2727 H 249.092 3.67117 0.654208 0
M  V30 2728 N 251.277 0.427512 1.51691 0
M  V30 2729 C 252.207 -0.3796 2.30394 0
M  V30 2730 C 253.188 -1.02982 1.35384 0
M  V30 2731 O 254.373 -1.03534 1.643 0
M  V30 2732 C 251.503 -1.48649 3.1388 0
M  V30 2733 C 250.457 -0.960294 4.17088 0
M  V30 2734 C 249.783 -2.16219 4.89033 0
M  V30 2735 C 251.083 -0.00153679 5.223 0
M  V30 2736 H 252.777 0.277164 2.98114 0
M  V30 2737 H 250.323 0.134739 1.43368 0
M  V30 2738 H 252.276 -2.05826 3.67714 0
M  V30 2739 H 251 -2.1714 2.43962 0
M  V30 2740 H 249.659 -0.410806 3.64291 0
M  V30 2741 H 249.307 -2.83307 4.15628 0
M  V30 2742 H 249.007 -1.81654 5.58816 0
M  V30 2743 H 250.531 -2.73968 5.45687 0
M  V30 2744 H 251.945 -0.482687 5.71264 0
M  V30 2745 H 250.342 0.256199 5.99553 0
M  V30 2746 H 251.412 0.938174 4.75738 0
M  V30 2747 N 252.755 -1.56801 0.158532 0
M  V30 2748 C 254.166 -1.83189 -0.360366 0
M  V30 2749 C 254.517 -1.07778 -1.63946 0
M  V30 2750 O 253.642 -0.326718 -2.13919 0
M  V30 2751 C 254.237 -3.32297 -0.660595 0
M  V30 2752 C 252.796 -3.59227 -1.12398 0
M  V30 2753 C 251.943 -2.76877 -0.153097 0
M  V30 2754 H 254.894 -1.54008 0.383031 0
M  V30 2755 H 254.915 -3.4908 -1.51405 0
M  V30 2756 H 254.427 -3.87156 0.270527 0
M  V30 2757 H 252.528 -3.09766 -2.07064 0
M  V30 2758 H 252.641 -4.67632 -1.04197 0
M  V30 2759 H 251.005 -2.46319 -0.647983 0
M  V30 2760 H 251.788 -3.34511 0.77182 0
M  V30 2761 N 254.233 0.115231 -1.57178 0
M  V30 2762 C 255.649 0.468877 -1.52557 0
M  V30 2763 C 255.849 1.81649 -0.872125 0
M  V30 2764 O 254.905 2.48347 -0.45606 0
M  V30 2765 C 256.218 0.4499 -2.97315 0
M  V30 2766 C 257.766 0.533185 -3.08425 0
M  V30 2767 C 258.241 0.54456 -4.54751 0
M  V30 2768 N 259.732 0.605892 -4.5922 0
M  V30 2769 C 260.467 0.636203 -5.6986 0
M  V30 2770 N 259.963 0.623931 -6.89985 0
M  V30 2771 N 261.756 0.679496 -5.57978 0
M  V30 2772 H 253.907 -0.767712 -1.9804 0
M  V30 2773 H 256.17 -0.283609 -0.904583 0
M  V30 2774 H 255.876 -0.472721 -3.48509 0
M  V30 2775 H 255.75 1.27632 -3.5495 0
M  V30 2776 H 258.137 1.44623 -2.57232 0
M  V30 2777 H 258.218 -0.320995 -2.53778 0
M  V30 2778 H 257.862 -0.364452 -5.06591 0
M  V30 2779 H 257.792 1.41568 -5.07214 0
M  V30 2780 H 260.283 0.621386 -3.72756 0
M  V30 2781 H 260.596 0.649787 -7.70063 0
M  V30 2782 H 258.941 0.591296 -6.9248 0
M  V30 2783 H 262.132 0.686472 -4.63039 0
M  V30 2784 H 262.305 0.69965 -6.44212 0
M  V30 2785 N 255.711 1.52812 0.385517 0
M  V30 2786 C 256.641 1.80808 1.47752 0
M  V30 2787 C 257.622 0.660318 1.5676 0
M  V30 2788 O 258.807 0.908246 1.71652 0
M  V30 2789 C 255.937 1.98008 2.85324 0
M  V30 2790 C 254.891 3.13709 2.91154 0
M  V30 2791 C 254.217 3.16169 4.31209 0
M  V30 2792 C 255.517 4.52709 2.60483 0
M  V30 2793 H 257.211 2.72253 1.24573 0
M  V30 2794 H 254.757 1.31003 0.597839 0
M  V30 2795 H 256.71 2.16176 3.61726 0
M  V30 2796 H 255.434 1.03255 3.09848 0
M  V30 2797 H 254.093 2.95329 2.17201 0
M  V30 2798 H 253.741 2.19092 4.52778 0
M  V30 2799 H 253.441 3.93894 4.36029 0
M  V30 2800 H 254.965 3.36496 5.09512 0
M  V30 2801 H 256.379 4.71173 3.26602 0
M  V30 2802 H 254.776 5.32528 2.76648 0
M  V30 2803 H 255.846 4.59186 1.55809 0
M  V30 2804 N 257.189 -0.644168 1.43834 0
M  V30 2805 C 258.6 -1.22554 1.40845 0
M  V30 2806 C 258.951 -1.9585 0.117115 0
M  V30 2807 O 258.076 -2.01734 -0.783086 0
M  V30 2808 C 258.671 -2.22907 2.55143 0
M  V30 2809 C 257.23 -2.76501 2.5539 0
M  V30 2810 C 256.377 -1.51287 2.32396 0
M  V30 2811 H 259.328 -0.43563 1.52604 0
M  V30 2812 H 259.349 -3.05259 2.2715 0
M  V30 2813 H 258.861 -1.69533 3.49114 0
M  V30 2814 H 256.962 -3.33914 1.65324 0
M  V30 2815 H 257.075 -3.23429 3.53455 0
M  V30 2816 H 255.439 -1.78957 1.81236 0
M  V30 2817 H 256.222 -0.998336 3.28463 0
M  V30 2818 N 258.668 -1.30515 -0.883378 0
M  V30 2819 C 259.914 -1.19607 -1.63774 0
M  V30 2820 C 260.247 0.248314 -1.92606 0
M  V30 2821 O 259.522 1.17742 -1.54813 0
M  V30 2822 C 259.805 -2.02669 -2.97653 0
M  V30 2823 C 259.658 -3.55335 -2.75784 0
M  V30 2824 C 260.977 -1.86573 -3.98596 0
M  V30 2825 H 258.096 -0.435856 -0.594305 0
M  V30 2826 H 260.738 -1.60165 -1.02212 0
M  V30 2827 H 258.888 -1.68208 -3.50197 0
M  V30 2828 H 260.56 -3.99863 -2.30016 0
M  V30 2829 H 258.803 -3.79438 -2.1026 0
M  V30 2830 H 259.474 -4.08745 -3.70988 0
M  V30 2831 H 261.95 -2.16703 -3.55217 0
M  V30 2832 H 260.826 -2.47014 -4.90179 0
M  V30 2833 H 261.087 -0.825321 -4.34328 0
M  V30 2834 N 260.146 1.09593 -1.13257 0
M  V30 2835 C 261.557 1.63229 -0.906274 0
M  V30 2836 C 261.908 1.8811 0.557578 0
M  V30 2837 O 261.033 1.62953 1.42391 0
M  V30 2838 C 261.628 2.96535 -1.63867 0
M  V30 2839 C 260.187 3.47003 -1.45828 0
M  V30 2840 C 259.334 2.2145 -1.66898 0
M  V30 2841 H 262.285 0.92978 -1.28611 0
M  V30 2842 H 262.306 3.64411 -1.09476 0
M  V30 2843 H 261.818 2.78394 -2.70404 0
M  V30 2844 H 259.919 3.70272 -0.415848 0
M  V30 2845 H 260.032 4.24551 -2.2202 0
M  V30 2846 H 258.396 2.30022 -1.09371 0
M  V30 2847 H 259.179 2.0583 -2.74752 0
M  V30 2848 N 261.624 0.925811 1.2754 0
M  V30 2849 C 262.587 0.428129 2.25166 0
M  V30 2850 C 263.587 -0.452261 1.54309 0
M  V30 2851 O 264.777 -0.253608 1.72344 0
M  V30 2852 C 261.909 -0.384749 3.38722 0
M  V30 2853 H 263.102 1.29066 2.70706 0
M  V30 2854 H 260.655 0.706323 1.3943 0
M  V30 2855 H 261.39 -1.26618 2.98561 0
M  V30 2856 H 261.175 0.246454 3.91325 0
M  V30 2857 H 262.665 -0.723389 4.11287 0
M  V30 2858 N 263.102 -1.41638 0.69111 0
M  V30 2859 C 264.348 -2.01598 0.220519 0
M  V30 2860 C 264.681 -1.54594 -1.17535 0
M  V30 2861 O 263.956 -0.755177 -1.79241 0
M  V30 2862 C 264.239 -3.59062 0.273243 0
M  V30 2863 C 264.092 -4.16203 1.70573 0
M  V30 2864 C 265.411 -4.38546 -0.369457 0
M  V30 2865 H 262.53 -0.732468 0.0816045 0
M  V30 2866 H 265.172 -1.68445 0.878986 0
M  V30 2867 H 263.322 -3.87435 -0.287411 0
M  V30 2868 H 264.994 -3.98722 2.31989 0
M  V30 2869 H 263.237 -3.71414 2.2413 0
M  V30 2870 H 263.908 -5.25358 1.69419 0
M  V30 2871 H 266.384 -4.1596 0.107977 0
M  V30 2872 H 265.26 -5.48069 -0.302002 0
M  V30 2873 H 265.521 -4.17662 -1.44951 0
M  V30 2874 N 264.58 -0.43555 -1.51462 0
M  V30 2875 C 265.527 0.376797 -2.27703 0
M  V30 2876 C 266.497 1.01838 -1.31219 0
M  V30 2877 O 267.682 1.03762 -1.60119 0
M  V30 2878 C 264.822 1.47301 -3.12084 0
M  V30 2879 C 263.935 0.849744 -4.2356 0
M  V30 2880 C 263.07 1.92086 -4.95254 0
M  V30 2881 C 262.109 1.27593 -5.98654 0
M  V30 2882 N 261.246 2.28833 -6.63762 0
M  V30 2883 H 266.086 -0.279734 -2.96684 0
M  V30 2884 H 263.623 -0.149795 -1.46335 0
M  V30 2885 H 265.581 2.11984 -3.59331 0
M  V30 2886 H 264.211 2.0992 -2.45221 0
M  V30 2887 H 263.263 0.0912529 -3.80291 0
M  V30 2888 H 264.575 0.338878 -4.97648 0
M  V30 2889 H 263.729 2.64435 -5.46039 0
M  V30 2890 H 262.468 2.46545 -4.20793 0
M  V30 2891 H 261.473 0.537893 -5.47162 0
M  V30 2892 H 262.698 0.738693 -6.7507 0
M  V30 2893 H 260.644 2.82375 -5.92115 0
M  V30 2894 H 260.561 1.82632 -7.33608 0
M  V30 2895 H 261.829 3.00671 -7.19178 0
M  V30 2896 N 266.058 1.56714 -0.166846 0
M  V30 2897 C 267.335 1.88412 0.525373 0
M  V30 2898 C 267.715 1.07602 1.81618 0
M  V30 2899 O 267.063 0.168621 2.27877 0
M  V30 2900 C 267.273 3.40363 0.771613 0
M  V30 2901 C 268.621 4.10007 1.1036 0
M  V30 2902 O 269.645 3.45655 0.860304 0
M  V30 2903 O 268.504 5.2369 1.56239 0
M  V30 2904 H 265.598 0.781587 0.270278 0
M  V30 2905 H 268.144 1.68458 -0.204946 0
M  V30 2906 H 266.916 3.91046 -0.141093 0
M  V30 2907 H 266.539 3.65914 1.55541 0
M  V30 2908 N 267.536 -0.106894 1.57237 0
M  V30 2909 C 268.764 -0.826389 1.8968 0
M  V30 2910 C 269.179 -1.72856 0.759353 0
M  V30 2911 O 268.536 -1.80503 -0.269263 0
M  V30 2912 C 268.587 -1.64967 3.21665 0
M  V30 2913 O 268.308 -0.783804 4.31031 0
M  V30 2914 C 269.809 -2.47326 3.67892 0
M  V30 2915 H 267.029 -0.236927 0.627779 0
M  V30 2916 H 269.573 -0.0876593 2.04312 0
M  V30 2917 H 267.728 -2.34103 3.08666 0
M  V30 2918 H 268.142 -1.35284 5.06753 0
M  V30 2919 H 269.616 -3.00604 4.6297 0
M  V30 2920 H 270.093 -3.25247 2.95146 0
M  V30 2921 H 270.699 -1.83411 3.83719 0
M  V30 2922 N 269.014 -1.53014 -0.377408 0
M  V30 2923 C 270.26 -1.68872 -1.12294 0
M  V30 2924 C 270.593 -0.433224 -1.89306 0
M  V30 2925 O 269.868 0.569258 -1.85983 0
M  V30 2926 C 270.151 -2.93115 -2.09179 0
M  V30 2927 C 270.004 -4.28794 -1.35853 0
M  V30 2928 C 271.323 -3.12928 -3.09458 0
M  V30 2929 H 268.442 -0.614518 -0.406862 0
M  V30 2930 H 271.084 -1.85633 -0.40503 0
M  V30 2931 H 269.234 -2.78956 -2.70399 0
M  V30 2932 H 270.906 -4.54742 -0.775082 0
M  V30 2933 H 269.149 -4.28744 -0.660364 0
M  V30 2934 H 269.82 -5.11837 -2.06706 0
M  V30 2935 H 272.296 -3.26194 -2.58334 0
M  V30 2936 H 271.172 -4.01316 -3.74482 0
M  V30 2937 H 271.433 -2.27669 -3.78971 0
M  V30 2938 N 270.492 0.636531 -1.44174 0
M  V30 2939 C 271.44 1.76995 -1.50915 0
M  V30 2940 C 272.434 1.65053 -0.381295 0
M  V30 2941 O 273.64 1.71197 -0.55601 0
M  V30 2942 H 270.015 0.584247 -0.473455 0
M  V30 2943 H 271.986 1.68432 -2.4632 0
M  V30 2944 C 270.735 3.15314 -1.46534 0
M  V30 2945 H 270.058 3.25149 -2.32633 0
M  V30 2946 H 271.498 3.9453 -1.55312 0
M  V30 2947 C 269.957 3.3639 -0.185305 0
M  V30 2948 O 270.487 3.94699 0.746688 0
M  V30 2949 N 268.693 2.9046 -0.0901606 0
M  V30 2950 H 268.24 2.43193 -0.849416 0
M  V30 2951 H 268.198 3.04937 0.765553 0
M  V30 2952 N 271.97 1.30982 0.876444 0
M  V30 2953 C 273.386 1.09498 1.16113 0
M  V30 2954 C 273.586 -0.13875 2.01022 0
M  V30 2955 O 272.642 -0.829935 2.38471 0
M  V30 2956 C 273.955 2.36308 1.85954 0
M  V30 2957 C 275.503 2.41856 1.98683 0
M  V30 2958 C 275.978 3.6853 2.71937 0
M  V30 2959 N 277.469 3.69387 2.79477 0
M  V30 2960 C 278.204 4.64096 3.36753 0
M  V30 2961 N 277.7 5.69155 3.95012 0
M  V30 2962 N 279.493 4.51626 3.3465 0
M  V30 2963 H 271.644 2.10118 0.310494 0
M  V30 2964 H 273.907 0.926634 0.200131 0
M  V30 2965 H 273.613 3.26388 1.31011 0
M  V30 2966 H 273.487 2.4561 2.86278 0
M  V30 2967 H 275.874 1.52249 2.52793 0
M  V30 2968 H 275.955 2.36523 0.9742 0
M  V30 2969 H 275.599 4.58499 2.18496 0
M  V30 2970 H 275.529 3.71127 3.73593 0
M  V30 2971 H 278.02 2.93438 2.38123 0
M  V30 2972 H 278.333 6.3751 4.36808 0
M  V30 2973 H 276.678 5.72937 3.93406 0
M  V30 2974 H 279.869 3.68728 2.8837 0
M  V30 2975 H 280.042 5.25614 3.7899 0
M  V30 2976 N 273.449 -1.08991 1.13837 0
M  V30 2977 C 274.679 -1.84743 0.924859 0
M  V30 2978 C 275.087 -1.81629 -0.529874 0
M  V30 2979 O 274.43 -1.21397 -1.37872 0
M  V30 2980 C 274.492 -3.33568 1.34061 0
M  V30 2981 C 274.156 -3.60425 2.80968 0
M  V30 2982 C 275.153 -3.55771 3.79108 0
M  V30 2983 C 272.838 -3.88627 3.18236 0
M  V30 2984 C 274.832 -3.78939 5.12527 0
M  V30 2985 C 272.519 -4.11449 4.51833 0
M  V30 2986 C 273.517 -4.06598 5.48787 0
M  V30 2987 O 273.205 -4.28826 6.79973 0
M  V30 2988 H 272.937 -0.590258 0.329502 0
M  V30 2989 H 275.491 -1.38598 1.51591 0
M  V30 2990 H 273.721 -3.80442 0.692853 0
M  V30 2991 H 275.41 -3.90743 1.09886 0
M  V30 2992 H 276.176 -3.34005 3.51661 0
M  V30 2993 H 272.055 -3.91526 2.43369 0
M  V30 2994 H 275.599 -3.75068 5.88192 0
M  V30 2995 H 271.496 -4.32698 4.79002 0
M  V30 2996 H 272.264 -4.46264 6.86142 0
M  V30 2997 N 274.927 -0.932562 -1.27047 0
M  V30 2998 C 275.857 -0.452902 -2.29066 0
M  V30 2999 C 276.838 0.489338 -1.62909 0
M  V30 3000 O 278.023 0.393046 -1.90181 0
M  V30 3001 C 275.153 0.290698 -3.46081 0
M  V30 3002 C 274.107 -0.564168 -4.24265 0
M  V30 3003 C 273.433 0.308886 -5.33807 0
M  V30 3004 C 274.733 -1.83112 -4.89149 0
M  V30 3005 H 276.427 -1.30552 -2.69437 0
M  V30 3006 H 273.973 -0.629201 -1.29526 0
M  V30 3007 H 275.926 0.637233 -4.16554 0
M  V30 3008 H 274.65 1.17738 -3.0464 0
M  V30 3009 H 273.309 -0.893477 -3.55545 0
M  V30 3010 H 272.957 1.19467 -4.88607 0
M  V30 3011 H 272.657 -0.259633 -5.87026 0
M  V30 3012 H 274.181 0.650884 -6.07121 0
M  V30 3013 H 275.595 -1.55236 -5.51883 0
M  V30 3014 H 273.992 -2.34353 -5.52448 0
M  V30 3015 H 275.062 -2.54772 -4.12576 0
M  V30 3016 N 276.405 1.4127 -0.698611 0
M  V30 3017 C 277.337 2.292 0.00399731 0
M  V30 3018 C 278.35 1.44944 0.741279 0
M  V30 3019 O 279.539 1.68416 0.591477 0
M  V30 3020 C 276.639 3.22875 1.02979 0
M  V30 3021 C 275.812 4.35904 0.36151 0
M  V30 3022 C 274.871 5.10134 1.29033 0
M  V30 3023 O 273.897 5.63809 0.781562 0
M  V30 3024 N 275.099 5.17885 2.6225 0
M  V30 3025 H 277.864 2.9014 -0.750921 0
M  V30 3026 H 275.425 1.52455 -0.544882 0
M  V30 3027 H 277.417 3.69404 1.65296 0
M  V30 3028 H 275.987 2.63221 1.68622 0
M  V30 3029 H 275.207 3.91719 -0.441584 0
M  V30 3030 H 276.495 5.08696 -0.103055 0
M  V30 3031 H 275.893 4.7573 3.061 0
M  V30 3032 H 274.45 5.6798 3.19754 0
M  V30 3033 N 277.883 0.443576 1.51229 0
M  V30 3034 C 279.108 -0.121648 2.07043 0
M  V30 3035 C 279.533 -1.35156 1.30823 0
M  V30 3036 O 278.891 -1.7793 0.347934 0
M  V30 3037 C 278.939 -0.41624 3.5819 0
M  V30 3038 O 278.043 -1.50163 3.8409 0
M  V30 3039 H 277.384 0.000871367 0.663999 0
M  V30 3040 H 279.914 0.626706 1.94765 0
M  V30 3041 H 279.924 -0.664867 4.02546 0
M  V30 3042 H 278.599 0.482653 4.1309 0
M  V30 3043 H 277.176 -1.24248 3.51592 0
M  V30 3044 N 279.361 -1.56624 0.175154 0
M  V30 3045 C 280.607 -1.9729 -0.469506 0
M  V30 3046 C 280.94 -1.06128 -1.62636 0
M  V30 3047 O 280.215 -0.109183 -1.94193 0
M  V30 3048 C 280.498 -3.47375 -0.948804 0
M  V30 3049 C 280.351 -4.49317 0.208491 0
M  V30 3050 C 281.67 -4.00652 -1.82116 0
M  V30 3051 H 278.789 -0.717317 -0.16919 0
M  V30 3052 H 281.431 -1.88184 0.262062 0
M  V30 3053 H 279.581 -3.55267 -1.57219 0
M  V30 3054 H 281.253 -4.53482 0.845682 0
M  V30 3055 H 279.496 -4.25121 0.863395 0
M  V30 3056 H 280.167 -5.51741 -0.169059 0
M  V30 3057 H 282.643 -3.95416 -1.2956 0
M  V30 3058 H 281.519 -5.06075 -2.12554 0
M  V30 3059 H 281.78 -3.44699 -2.7683 0
M  V30 3060 N 280.839 0.0985539 -1.57292 0
M  V30 3061 C 282.255 0.45267 -1.53046 0
M  V30 3062 C 282.455 1.80713 -0.891342 0
M  V30 3063 O 281.511 2.4785 -0.482375 0
M  V30 3064 C 282.824 0.418341 -2.97776 0
M  V30 3065 C 284.372 0.500443 -3.08973 0
M  V30 3066 C 284.847 0.496297 -4.55303 0
M  V30 3067 N 286.338 0.557151 -4.59837 0
M  V30 3068 C 287.073 0.575726 -5.70502 0
M  V30 3069 N 286.569 0.550714 -6.90608 0
M  V30 3070 N 288.362 0.620277 -5.58667 0
M  V30 3071 H 280.513 -0.788673 -1.97215 0
M  V30 3072 H 282.776 -0.293188 -0.901524 0
M  V30 3073 H 282.482 -0.509659 -3.47988 0
M  V30 3074 H 282.356 1.2386 -3.56284 0
M  V30 3075 H 284.743 1.41886 -2.58751 0
M  V30 3076 H 284.824 -0.347894 -2.53423 0
M  V30 3077 H 284.468 -0.418162 -5.06176 0
M  V30 3078 H 284.398 1.3618 -5.08687 0
M  V30 3079 H 286.889 0.581816 -3.73394 0
M  V30 3080 H 287.202 0.568075 -7.70709 0
M  V30 3081 H 285.547 0.517816 -6.93068 0
M  V30 3082 H 288.738 0.637322 -4.63741 0
M  V30 3083 H 288.911 0.631283 -6.44918 0
M  V30 3084 N 282.317 1.53212 0.369288 0
M  V30 3085 C 283.728 1.60943 0.946276 0
M  V30 3086 C 284.079 0.47452 1.90375 0
M  V30 3087 O 283.204 -0.399597 2.12679 0
M  V30 3088 C 283.799 2.91715 1.72302 0
M  V30 3089 C 282.358 3.01792 2.24941 0
M  V30 3090 C 281.505 2.56211 1.06072 0
M  V30 3091 H 284.456 1.58007 0.148198 0
M  V30 3092 H 284.477 2.79309 2.58393 0
M  V30 3093 H 283.989 3.74295 1.0259 0
M  V30 3094 H 282.09 2.23791 2.97906 0
M  V30 3095 H 282.203 4.06803 2.53077 0
M  V30 3096 H 280.567 2.10998 1.4266 0
M  V30 3097 H 281.35 3.41206 0.378639 0
M  V30 3098 N 283.795 -0.628877 1.44509 0
M  V30 3099 C 284.725 -1.75187 1.54376 0
M  V30 3100 C 285.706 -1.65411 0.396618 0
M  V30 3101 O 286.891 -1.84137 0.617031 0
M  V30 3102 C 284.021 -3.13725 1.48976 0
M  V30 3103 C 282.975 -3.38291 2.62189 0
M  V30 3104 C 282.301 -4.76883 2.41841 0
M  V30 3105 C 283.601 -3.30632 4.04326 0
M  V30 3106 H 285.295 -1.67187 2.48373 0
M  V30 3107 H 282.841 -0.802909 1.19538 0
M  V30 3108 H 284.794 -3.92064 1.54478 0
M  V30 3109 H 283.518 -3.22515 0.514961 0
M  V30 3110 H 282.177 -2.62334 2.56079 0
M  V30 3111 H 281.825 -4.82378 1.42548 0
M  V30 3112 H 281.525 -4.94278 3.17747 0
M  V30 3113 H 283.049 -5.57449 2.49165 0
M  V30 3114 H 284.463 -3.98873 4.11793 0
M  V30 3115 H 282.86 -3.59561 4.80454 0
M  V30 3116 H 283.93 -2.28404 4.27738 0
M  V30 3117 N 285.273 -1.31445 -0.869486 0
M  V30 3118 C 286.206 -1.13465 -1.97992 0
M  V30 3119 C 287.184 -0.0380291 -1.62556 0
M  V30 3120 O 288.368 -0.194544 -1.87493 0
M  V30 3121 C 285.495 -0.733822 -3.30655 0
M  V30 3122 C 284.541 -1.83356 -3.85075 0
M  V30 3123 S 285.374 -3.43909 -4.10472 0
M  V30 3124 C 286.53 -3.05763 -5.46132 0
M  V30 3125 H 286.763 -2.07471 -2.1294 0
M  V30 3126 H 284.296 -1.15936 -1.01972 0
M  V30 3127 H 286.254 -0.509306 -4.07328 0
M  V30 3128 H 284.915 0.187123 -3.13542 0
M  V30 3129 H 284.108 -1.50574 -4.80982 0
M  V30 3130 H 283.71 -2.01315 -3.15195 0
M  V30 3131 H 286.002 -2.54686 -6.27807 0
M  V30 3132 H 286.945 -4.00635 -5.83864 0
M  V30 3133 H 287.353 -2.43192 -5.09429 0
M  V30 3134 N 286.751 1.08385 -1.14413 0
M  V30 3135 C 287.698 2.15311 -0.831265 0
M  V30 3136 C 288.668 1.64751 0.211292 0
M  V30 3137 O 289.853 1.90627 0.0811674 0
M  V30 3138 C 286.993 3.43658 -0.315143 0
M  V30 3139 C 286.106 4.08064 -1.41802 0
M  V30 3140 C 285.241 5.24207 -0.859126 0
M  V30 3141 C 284.28 5.80554 -1.93967 0
M  V30 3142 N 283.417 6.88042 -1.39793 0
M  V30 3143 H 288.257 2.41415 -1.74708 0
M  V30 3144 H 285.794 1.18474 -0.871909 0
M  V30 3145 H 287.752 4.172 0.00230884 0
M  V30 3146 H 286.382 3.17839 0.56378 0
M  V30 3147 H 285.434 3.3228 -1.85187 0
M  V30 3148 H 286.746 4.45962 -2.23427 0
M  V30 3149 H 285.9 6.04689 -0.49359 0
M  V30 3150 H 284.639 4.87699 -0.011932 0
M  V30 3151 H 283.644 4.98725 -2.31415 0
M  V30 3152 H 284.869 6.19121 -2.79046 0
M  V30 3153 H 282.815 6.53493 -0.572919 0
M  V30 3154 H 282.732 7.24767 -2.15054 0
M  V30 3155 H 284 7.72255 -1.0603 0
M  V30 3156 N 288.23 0.939286 1.26551 0
M  V30 3157 C 289.14 0.453432 2.30176 0
M  V30 3158 C 290.156 -0.471649 1.67486 0
M  V30 3159 O 291.332 -0.35164 1.98306 0
M  V30 3160 C 288.397 -0.275326 3.45605 0
M  V30 3161 C 287.458 0.686084 4.23782 0
M  V30 3162 C 286.691 -0.00798994 5.33699 0
M  V30 3163 O 286.914 -1.22528 5.57085 0
M  V30 3164 O 285.848 0.669746 5.98162 0
M  V30 3165 H 289.674 1.31416 2.73795 0
M  V30 3166 H 287.259 0.705095 1.31715 0
M  V30 3167 H 289.141 -0.685911 4.1578 0
M  V30 3168 H 287.816 -1.11147 3.0402 0
M  V30 3169 H 286.723 1.14658 3.56096 0
M  V30 3170 H 288.056 1.48979 4.69112 0
M  V30 3171 N 289.708 -1.40897 0.706093 0
M  V30 3172 C 290.618 -2.3455 0.0482286 0
M  V30 3173 C 291.634 -1.56796 -0.754396 0
M  V30 3174 O 292.81 -1.89228 -0.689538 0
M  V30 3175 C 289.875 -3.35625 -0.869303 0
M  V30 3176 C 288.936 -4.29261 -0.0576994 0
M  V30 3177 C 288.169 -5.25508 -0.931531 0
M  V30 3178 O 288.392 -5.27472 -2.17092 0
M  V30 3179 O 287.326 -6.00727 -0.375587 0
M  V30 3180 H 291.152 -2.92407 0.820476 0
M  V30 3181 H 288.737 -1.4193 0.4665 0
M  V30 3182 H 290.619 -3.97635 -1.39514 0
M  V30 3183 H 289.294 -2.80196 -1.62086 0
M  V30 3184 H 288.201 -3.70566 0.512988 0
M  V30 3185 H 289.534 -4.87817 0.655426 0
M  V30 3186 N 291.186 -0.45159 -1.50991 0
M  V30 3187 C 292.463 0.170707 -1.94854 0
M  V30 3188 C 292.843 1.58788 -1.39103 0
M  V30 3189 O 292.191 2.20913 -0.583921 0
M  V30 3190 C 292.401 0.133929 -3.48743 0
M  V30 3191 C 293.749 0.33248 -4.23296 0
M  V30 3192 O 294.773 0.211403 -3.55572 0
M  V30 3193 O 293.632 0.57486 -5.43468 0
M  V30 3194 H 290.726 0.122264 -0.817912 0
M  V30 3195 H 293.272 -0.510594 -1.61836 0
M  V30 3196 H 292.044 -0.856283 -3.81816 0
M  V30 3197 H 291.667 0.857529 -3.88242 0
M  V30 3198 N 292.664 1.56529 -0.183458 0
M  V30 3199 C 293.911 1.97244 0.458357 0
M  V30 3200 C 294.239 1.06992 1.62428 0
M  V30 3201 O 293.494 0.106542 1.9541 0
M  V30 3202 C 293.793 3.43939 0.971637 0
M  V30 3203 C 293.459 4.5083 -0.0796784 0
M  V30 3204 C 292.121 4.79786 -0.368584 0
M  V30 3205 C 294.473 5.15138 -0.792638 0
M  V30 3206 C 291.801 5.70345 -1.37563 0
M  V30 3207 C 294.153 6.06784 -1.78875 0
M  V30 3208 C 292.817 6.34102 -2.08497 0
M  V30 3209 H 292.087 0.721768 0.167725 0
M  V30 3210 H 294.734 1.89472 -0.277976 0
M  V30 3211 H 293.039 3.48724 1.78602 0
M  V30 3212 H 294.736 3.72791 1.47744 0
M  V30 3213 H 291.326 4.28317 0.155668 0
M  V30 3214 H 295.51 4.92868 -0.582659 0
M  V30 3215 H 290.766 5.89789 -1.61118 0
M  V30 3216 H 294.94 6.55677 -2.3465 0
M  V30 3217 H 292.567 7.04074 -2.86678 0
M  V30 3218 N 294.142 -0.090211 1.57342 0
M  V30 3219 C 295.089 -1.10909 2.02405 0
M  V30 3220 C 296.059 -1.39523 0.901252 0
M  V30 3221 O 297.244 -1.50903 1.1676 0
M  V30 3222 C 294.384 -2.42277 2.45755 0
M  V30 3223 C 293.497 -2.20352 3.71576 0
M  V30 3224 C 292.632 -3.45154 4.03785 0
M  V30 3225 C 291.671 -3.18512 5.22701 0
M  V30 3226 N 290.808 -4.35593 5.50639 0
M  V30 3227 H 295.648 -0.71782 2.89225 0
M  V30 3228 H 293.185 -0.342901 1.43048 0
M  V30 3229 H 295.143 -3.18951 2.68935 0
M  V30 3230 H 293.773 -2.79242 1.61938 0
M  V30 3231 H 292.825 -1.34458 3.55844 0
M  V30 3232 H 294.137 -1.96661 4.58395 0
M  V30 3233 H 293.291 -4.30233 4.27767 0
M  V30 3234 H 292.03 -3.71904 3.15498 0
M  V30 3235 H 291.035 -2.31827 4.98534 0
M  V30 3236 H 292.26 -2.93103 6.12591 0
M  V30 3237 H 290.206 -4.6241 4.6531 0
M  V30 3238 H 290.123 -4.1511 6.31838 0
M  V30 3239 H 291.391 -5.21723 5.7916 0
M  V30 3240 N 295.62 -1.53406 -0.361157 0
M  V30 3241 C 297.036 -1.43277 -0.703124 0
M  V30 3242 C 297.236 -0.575384 -1.9311 0
M  V30 3243 O 296.292 -0.0595362 -2.5243 0
M  V30 3244 C 297.605 -2.8653 -0.9122 0
M  V30 3245 C 299.153 -2.96191 -1.01193 0
M  V30 3246 C 299.628 -4.40514 -1.25345 0
M  V30 3247 N 301.119 -4.43962 -1.32105 0
M  V30 3248 C 301.854 -5.52746 -1.5251 0
M  V30 3249 N 301.35 -6.71567 -1.70203 0
M  V30 3250 N 303.143 -5.40331 -1.54916 0
M  V30 3251 H 295.294 -2.07654 0.446475 0
M  V30 3252 H 297.557 -0.937944 0.137715 0
M  V30 3253 H 297.263 -3.51605 -0.0816414 0
M  V30 3254 H 297.137 -3.30441 -1.81903 0
M  V30 3255 H 299.524 -2.31266 -1.83303 0
M  V30 3256 H 299.605 -2.55667 -0.0823929 0
M  V30 3257 H 299.249 -5.06014 -0.437346 0
M  V30 3258 H 299.179 -4.78614 -2.19627 0
M  V30 3259 H 301.67 -3.58332 -1.20028 0
M  V30 3260 H 301.983 -7.50241 -1.85359 0
M  V30 3261 H 300.328 -6.74545 -1.67373 0
M  V30 3262 H 303.519 -4.46465 -1.40663 0
M  V30 3263 H 303.692 -6.25173 -1.70477 0
M  V30 3264 N 297.098 0.621204 -1.44841 0
M  V30 3265 C 298.031 1.7459 -1.46947 0
M  V30 3266 C 299.009 1.59273 -0.327238 0
M  V30 3267 O 300.193 1.81021 -0.525706 0
M  V30 3268 C 297.32 3.12274 -1.31159 0
M  V30 3269 C 296.366 3.46216 -2.49072 0
M  V30 3270 S 297.199 3.4258 -4.11581 0
M  V30 3271 C 298.355 4.82867 -3.98233 0
M  V30 3272 H 298.588 1.72538 -2.42111 0
M  V30 3273 H 296.121 0.796683 -1.32259 0
M  V30 3274 H 298.079 3.91722 -1.22737 0
M  V30 3275 H 296.74 3.11855 -0.374885 0
M  V30 3276 H 295.933 4.4643 -2.33915 0
M  V30 3277 H 295.535 2.74253 -2.54286 0
M  V30 3278 H 297.827 5.7234 -3.62537 0
M  V30 3279 H 298.77 5.0308 -4.98313 0
M  V30 3280 H 299.178 4.57908 -3.30121 0
M  V30 3281 N 298.576 1.31904 0.862503 0
M  V30 3282 C 299.804 1.24998 1.64873 0
M  V30 3283 C 300.219 -0.183425 1.87907 0
M  V30 3284 O 299.576 -1.11794 1.44251 0
M  V30 3285 C 299.627 1.99829 3.01248 0
M  V30 3286 O 299.348 3.37575 2.79239 0
M  V30 3287 C 300.849 1.99852 3.95694 0
M  V30 3288 H 298.069 0.431599 0.513773 0
M  V30 3289 H 300.613 1.73901 1.07604 0
M  V30 3290 H 298.768 1.54668 3.55185 0
M  V30 3291 H 299.182 3.75776 3.65914 0
M  V30 3292 H 300.656 2.56709 4.88676 0
M  V30 3293 H 301.133 0.982852 4.28062 0
M  V30 3294 H 301.739 2.44926 3.47694 0
M  V30 3295 N 300.054 -1.07777 1.14986 0
M  V30 3296 C 301.017 -2.13041 0.845358 0
M  V30 3297 C 302.017 -1.60071 -0.152931 0
M  V30 3298 O 303.207 -1.74033 0.0761879 0
M  V30 3299 C 300.339 -3.39896 0.261383 0
M  V30 3300 H 301.532 -2.41485 1.77834 0
M  V30 3301 H 299.085 -1.23595 0.956757 0
M  V30 3302 H 299.82 -3.17091 -0.68 0
M  V30 3303 H 299.605 -3.79642 0.980514 0
M  V30 3304 H 301.095 -4.17548 0.0657687 0
M  V30 3305 N 301.532 -0.945985 -1.26051 0
M  V30 3306 C 302.462 -0.477172 -2.28572 0
M  V30 3307 C 303.443 0.472032 -1.63419 0
M  V30 3308 O 304.628 0.372853 -1.90587 0
M  V30 3309 C 301.758 0.253975 -3.4637 0
M  V30 3310 C 300.712 -0.609135 -4.23643 0
M  V30 3311 C 300.038 0.252252 -5.34105 0
M  V30 3312 C 301.338 -1.8829 -4.8718 0
M  V30 3313 H 303.032 -1.33402 -2.68038 0
M  V30 3314 H 300.578 -0.642904 -1.28852 0
M  V30 3315 H 302.531 0.593016 -4.17207 0
M  V30 3316 H 301.255 1.145 -3.05871 0
M  V30 3317 H 299.914 -0.931138 -3.54578 0
M  V30 3318 H 299.562 1.14278 -4.89846 0
M  V30 3319 H 299.262 -0.32188 -5.86718 0
M  V30 3320 H 300.786 0.586454 -6.07777 0
M  V30 3321 H 302.2 -1.61081 -5.50205 0
M  V30 3322 H 300.597 -2.40199 -5.49931 0
M  V30 3323 H 301.667 -2.59134 -4.09851 0
M  V30 3324 N 303.011 1.40521 -0.713556 0
M  V30 3325 C 303.974 2.29098 -0.0684347 0
M  V30 3326 C 304.974 1.45268 0.689472 0
M  V30 3327 O 306.164 1.66205 0.521677 0
M  V30 3328 C 303.296 3.28446 0.913024 0
M  V30 3329 H 304.489 2.87645 -0.84855 0
M  V30 3330 H 302.042 1.48809 -0.47809 0
M  V30 3331 H 302.777 2.74913 1.72027 0
M  V30 3332 H 302.562 3.90327 0.372472 0
M  V30 3333 H 304.052 3.94777 1.36165 0
M  V30 3334 N 304.489 0.459591 1.5075 0
M  V30 3335 C 305.421 -0.37665 2.26084 0
M  V30 3336 C 306.434 -0.967109 1.30961 0
M  V30 3337 O 307.623 -0.857468 1.56556 0
M  V30 3338 C 304.723 -1.54112 3.01832 0
M  V30 3339 C 303.896 -1.06553 4.24223 0
M  V30 3340 C 302.955 -2.1027 4.82362 0
M  V30 3341 O 301.981 -1.68798 5.43595 0
M  V30 3342 N 303.183 -3.42974 4.68347 0
M  V30 3343 H 305.948 0.269124 2.98489 0
M  V30 3344 H 303.509 0.28972 1.59287 0
M  V30 3345 H 305.501 -2.23165 3.37608 0
M  V30 3346 H 304.071 -2.0918 2.32298 0
M  V30 3347 H 303.291 -0.201274 3.93686 0
M  V30 3348 H 304.579 -0.725516 5.03601 0
M  V30 3349 H 303.977 -3.79385 4.19623 0
M  V30 3350 H 302.534 -4.07858 5.08424 0
M  V30 3351 N 305.967 -1.56429 0.191757 0
M  V30 3352 C 307.244 -1.89224 -0.495332 0
M  V30 3353 C 307.624 -1.10478 -1.79883 0
M  V30 3354 O 306.972 -0.204852 -2.2758 0
M  V30 3355 C 307.182 -3.41548 -0.717367 0
M  V30 3356 C 308.53 -4.11711 -1.03823 0
M  V30 3357 O 309.554 -3.4698 -0.805204 0
M  V30 3358 O 308.413 -5.2611 -1.47887 0
M  V30 3359 H 305.507 -0.785788 -0.25781 0
M  V30 3360 H 308.053 -1.68111 0.231721 0
M  V30 3361 H 306.825 -3.90772 0.203287 0
M  V30 3362 H 306.448 -3.68342 -1.497 0
M  V30 3363 N 307.445 0.0818655 -1.57387 0
M  V30 3364 C 308.692 0.782914 -1.86753 0
M  V30 3365 C 309.02 1.78082 -0.782118 0
M  V30 3366 O 308.275 1.94426 0.22295 0
M  V30 3367 C 308.574 1.53513 -3.22752 0
M  V30 3368 C 308.24 0.678134 -4.45771 0
M  V30 3369 C 306.902 0.441929 -4.79166 0
M  V30 3370 C 309.254 0.0832243 -5.21134 0
M  V30 3371 C 306.582 -0.398833 -5.85343 0
M  V30 3372 C 308.934 -0.744935 -6.28199 0
M  V30 3373 C 307.598 -0.991107 -6.60101 0
M  V30 3374 H 306.868 0.286489 -0.683378 0
M  V30 3375 H 309.515 0.0439808 -1.91449 0
M  V30 3376 H 307.82 2.34599 -3.138 0
M  V30 3377 H 309.517 2.08218 -3.42705 0
M  V30 3378 H 306.107 0.872357 -4.19628 0
M  V30 3379 H 310.291 0.252847 -4.95655 0
M  V30 3380 H 305.547 -0.598405 -6.08465 0
M  V30 3381 H 309.721 -1.21271 -6.8576 0
M  V30 3382 H 307.348 -1.64437 -7.42202 0
M  V30 3383 N 308.923 1.53595 0.353017 0
M  V30 3384 C 309.886 1.80232 1.41594 0
M  V30 3385 C 310.886 0.673081 1.46035 0
M  V30 3386 O 312.076 0.941335 1.46576 0
M  V30 3387 C 309.208 1.93578 2.80607 0
M  V30 3388 H 310.401 2.75174 1.19244 0
M  V30 3389 H 307.954 1.44864 0.586872 0
M  V30 3390 H 308.689 1.00746 3.08254 0
M  V30 3391 H 308.474 2.75724 2.78781 0
M  V30 3392 H 309.964 2.15735 3.57558 0
M  V30 3393 N 310.401 -0.613514 1.45168 0
M  V30 3394 C 311.647 -1.37471 1.49096 0
M  V30 3395 C 311.98 -1.93765 0.129901 0
M  V30 3396 O 311.255 -1.74707 -0.854858 0
M  V30 3397 C 311.538 -2.52701 2.56542 0
M  V30 3398 C 311.391 -2.01643 4.0207 0
M  V30 3399 C 312.71 -3.54849 2.60327 0
M  V30 3400 H 309.829 -0.498502 0.54283 0
M  V30 3401 H 312.471 -0.692125 1.76945 0
M  V30 3402 H 310.621 -3.10931 2.32926 0
M  V30 3403 H 312.293 -1.48108 4.36877 0
M  V30 3404 H 310.536 -1.32688 4.13009 0
M  V30 3405 H 311.207 -2.84681 4.72928 0
M  V30 3406 H 313.683 -3.0645 2.81474 0
M  V30 3407 H 312.559 -4.32973 3.37381 0
M  V30 3408 H 312.82 -4.10079 1.6519 0
M  V30 3409 N 311.879 -1.3236 -0.855495 0
M  V30 3410 C 313.127 -1.22629 -1.60644 0
M  V30 3411 C 313.448 0.212136 -1.93843 0
M  V30 3412 O 312.718 1.13666 -1.59552 0
M  V30 3413 H 311.298 -0.450882 -0.595579 0
M  V30 3414 H 313.96 -1.65871 -1.02337 0
M  V30 3415 H 313.056 -1.80832 -2.54374 0
M  V30 3416 N 313.357 1.07166 -1.15556 0
M  V30 3417 C 314.287 2.16403 -0.877046 0
M  V30 3418 C 315.268 1.69217 0.173111 0
M  V30 3419 O 316.453 1.94181 0.027084 0
M  V30 3420 C 313.583 3.45349 -0.367632 0
M  V30 3421 C 312.537 4.05995 -1.35468 0
M  V30 3422 C 311.863 5.30045 -0.704038 0
M  V30 3423 C 313.163 4.45804 -2.72132 0
M  V30 3424 H 314.857 2.39959 -1.79053 0
M  V30 3425 H 312.403 1.15325 -0.862331 0
M  V30 3426 H 314.356 4.21095 -0.160317 0
M  V30 3427 H 313.08 3.21385 0.581326 0
M  V30 3428 H 311.739 3.32296 -1.54839 0
M  V30 3429 H 311.387 5.02373 0.251128 0
M  V30 3430 H 311.087 5.71579 -1.36277 0
M  V30 3431 H 312.611 6.08495 -0.50654 0
M  V30 3432 H 314.025 5.12671 -2.56595 0
M  V30 3433 H 312.422 4.98296 -3.34397 0
M  V30 3434 H 313.492 3.57083 -3.28054 0
M  V30 3435 N 314.835 0.952656 1.25548 0
M  V30 3436 C 316.083 0.605176 1.92826 0
M  V30 3437 C 316.404 -0.860261 1.74999 0
M  V30 3438 O 315.674 -1.6125 1.11244 0
M  V30 3439 H 314.254 0.220832 0.713612 0
M  V30 3440 H 316.916 1.21047 1.52754 0
M  V30 3441 H 316.012 0.832798 3.00784 0
M  V30 3442 N 316.313 -1.40141 0.720998 0
M  V30 3443 C 317.724 -1.83678 0.334553 0
M  V30 3444 C 318.075 -1.6027 -1.13173 0
M  V30 3445 O 317.2 -1.08643 -1.87152 0
M  V30 3446 C 317.795 -3.33437 0.600437 0
M  V30 3447 C 316.354 -3.75447 0.267642 0
M  V30 3448 C 315.501 -2.63296 0.870097 0
M  V30 3449 H 318.452 -1.29331 0.919732 0
M  V30 3450 H 318.473 -3.80269 -0.132517 0
M  V30 3451 H 317.985 -3.50442 1.66768 0
M  V30 3452 H 316.086 -3.64035 -0.794329 0
M  V30 3453 H 316.199 -4.73344 0.74042 0
M  V30 3454 H 314.563 -2.52954 0.297739 0
M  V30 3455 H 315.346 -2.83112 1.94172 0
M  V30 3456 N 317.792 -0.46758 -1.50504 0
M  V30 3457 C 319.208 -0.121533 -1.59137 0
M  V30 3458 C 319.408 1.3717 -1.47603 0
M  V30 3459 O 318.464 2.14464 -1.33272 0
M  V30 3460 C 319.777 -0.6686 -2.93173 0
M  V30 3461 C 321.325 -0.631716 -3.06559 0
M  V30 3462 C 321.8 -1.15627 -4.43164 0
M  V30 3463 N 323.291 -1.11553 -4.49567 0
M  V30 3464 C 324.026 -1.49195 -5.5365 0
M  V30 3465 N 323.522 -1.94269 -6.65005 0
M  V30 3466 N 325.315 -1.4082 -5.44175 0
M  V30 3467 H 317.466 -1.4388 -1.56245 0
M  V30 3468 H 319.729 -0.594784 -0.738198 0
M  V30 3469 H 319.435 -1.71453 -3.07078 0
M  V30 3470 H 319.309 -0.11021 -3.77039 0
M  V30 3471 H 321.696 0.405297 -2.92304 0
M  V30 3472 H 321.777 -1.22687 -2.24458 0
M  V30 3473 H 321.421 -2.1919 -4.58168 0
M  V30 3474 H 321.351 -0.537365 -5.23851 0
M  V30 3475 H 323.842 -0.784895 -3.69659 0
M  V30 3476 H 324.155 -2.21148 -7.40482 0
M  V30 3477 H 322.5 -1.98219 -6.66134 0
M  V30 3478 H 325.691 -1.0545 -4.56068 0
M  V30 3479 H 325.864 -1.70481 -6.25172 0
M  V30 3480 N 319.27 1.56325 -0.20005 0
M  V30 3481 C 320.2 2.22318 0.713916 0
M  V30 3482 C 321.181 1.18788 1.21752 0
M  V30 3483 O 322.366 1.47309 1.26545 0
M  V30 3484 C 319.496 2.88639 1.93144 0
M  V30 3485 C 318.45 3.98457 1.56255 0
M  V30 3486 C 317.776 4.51967 2.85709 0
M  V30 3487 C 319.076 5.16612 0.768747 0
M  V30 3488 H 320.77 2.98952 0.163755 0
M  V30 3489 H 318.316 1.43792 0.0773219 0
M  V30 3490 H 320.269 3.33491 2.57608 0
M  V30 3491 H 318.993 2.09419 2.50621 0
M  V30 3492 H 317.652 3.54305 0.941471 0
M  V30 3493 H 317.3 3.69503 3.41287 0
M  V30 3494 H 317 5.26071 2.6177 0
M  V30 3495 H 318.524 4.99523 3.51154 0
M  V30 3496 H 319.938 5.57977 1.3166 0
M  V30 3497 H 318.335 5.96812 0.627286 0
M  V30 3498 H 319.405 4.84358 -0.229168 0
M  V30 3499 N 320.748 -0.0735177 1.57428 0
M  V30 3500 C 321.68 -1.11423 2.00294 0
M  V30 3501 C 322.693 -1.35084 0.908637 0
M  V30 3502 O 323.882 -1.33355 1.18654 0
M  V30 3503 C 320.982 -2.46548 2.32523 0
M  V30 3504 C 320.155 -2.42867 3.63778 0
M  V30 3505 C 319.214 -3.60087 3.83697 0
M  V30 3506 O 318.24 -3.41595 4.55304 0
M  V30 3507 N 319.442 -4.80372 3.25919 0
M  V30 3508 H 322.207 -0.749206 2.90184 0
M  V30 3509 H 319.768 -0.262195 1.59763 0
M  V30 3510 H 321.76 -3.23607 2.43024 0
M  V30 3511 H 320.33 -2.75059 1.48531 0
M  V30 3512 H 319.55 -1.51206 3.64047 0
M  V30 3513 H 320.838 -2.37506 4.49965 0
M  V30 3514 H 320.236 -4.983 2.67795 0
M  V30 3515 H 318.793 -5.54948 3.41871 0
M  V30 3516 N 322.226 -1.5378 -0.344866 0
M  V30 3517 C 323.472 -1.72158 -1.0832 0
M  V30 3518 C 323.827 -0.478218 -1.86362 0
M  V30 3519 O 323.12 0.529152 -1.84148 0
M  V30 3520 C 323.314 -2.92407 -2.05506 0
M  V30 3521 C 323.143 -4.28318 -1.37017 0
M  V30 3522 C 321.913 -4.92832 -1.11558 0
M  V30 3523 C 324.111 -5.08086 -0.797071 0
M  V30 3524 N 322.093 -6.12619 -0.396358 0
M  V30 3525 C 323.464 -6.1965 -0.208336 0
M  V30 3526 C 325.519 -4.92986 -0.697787 0
M  V30 3527 C 324.222 -7.17763 0.470023 0
M  V30 3528 C 326.248 -5.91391 -0.033171 0
M  V30 3529 C 325.61 -7.02292 0.544599 0
M  V30 3530 H 321.709 -0.683017 -0.380805 0
M  V30 3531 H 324.293 -1.91211 -0.366961 0
M  V30 3532 H 322.464 -2.74857 -2.74423 0
M  V30 3533 H 324.196 -2.9951 -2.72169 0
M  V30 3534 H 320.951 -4.52362 -1.40234 0
M  V30 3535 H 321.375 -6.7698 -0.0515119 0
M  V30 3536 H 326.017 -4.07414 -1.13022 0
M  V30 3537 H 323.735 -8.0291 0.914351 0
M  V30 3538 H 327.321 -5.81784 0.0430009 0
M  V30 3539 H 326.201 -7.77129 1.05073 0
M  V30 3540 N 323.704 0.605807 -1.45491 0
M  V30 3541 C 324.934 1.38934 -1.52908 0
M  V30 3542 C 325.342 1.88513 -0.161086 0
M  V30 3543 O 324.685 1.62962 0.847891 0
M  V30 3544 C 324.747 2.62737 -2.45376 0
M  V30 3545 C 324.411 2.34785 -3.92078 0
M  V30 3546 C 325.408 1.95038 -4.8193 0
M  V30 3547 C 323.093 2.47642 -4.37011 0
M  V30 3548 C 325.087 1.68511 -6.14722 0
M  V30 3549 C 322.774 2.20728 -5.69844 0
M  V30 3550 C 323.772 1.81225 -6.58519 0
M  V30 3551 O 323.46 1.54627 -7.88889 0
M  V30 3552 H 323.192 0.431629 -0.520262 0
M  V30 3553 H 325.746 0.74573 -1.91384 0
M  V30 3554 H 323.976 3.29824 -2.01874 0
M  V30 3555 H 325.665 3.24783 -2.43456 0
M  V30 3556 H 326.431 1.84639 -4.48479 0
M  V30 3557 H 322.31 2.77356 -3.68232 0
M  V30 3558 H 325.854 1.37602 -6.83894 0
M  V30 3559 H 321.751 2.30744 -6.02849 0
M  V30 3560 H 322.519 1.68665 -8.00933 0
M  V30 3561 N 325.182 1.32811 0.848464 0
M  V30 3562 C 326.112 1.24882 1.97299 0
M  V30 3563 C 327.093 0.131357 1.69592 0
M  V30 3564 O 328.278 0.319553 1.91553 0
M  V30 3565 C 325.408 0.97746 3.33261 0
M  V30 3566 C 324.362 2.05682 3.75338 0
M  V30 3567 C 323.688 1.63777 5.09 0
M  V30 3568 C 324.988 3.47254 3.90144 0
M  V30 3569 H 326.682 2.18966 2.04191 0
M  V30 3570 H 324.228 1.05413 0.981029 0
M  V30 3571 H 326.181 0.908513 4.1149 0
M  V30 3572 H 324.905 0.000980011 3.266 0
M  V30 3573 H 323.564 2.11603 2.99366 0
M  V30 3574 H 323.212 0.648569 4.98801 0
M  V30 3575 H 322.912 2.36 5.38124 0
M  V30 3576 H 324.436 1.5833 5.89715 0
M  V30 3577 H 325.85 3.43888 4.58709 0
M  V30 3578 H 324.247 4.1788 4.30693 0
M  V30 3579 H 325.317 3.86462 2.92874 0
M  V30 3580 N 326.66 -1.06551 1.16123 0
M  V30 3581 C 327.607 -2.13961 0.865414 0
M  V30 3582 C 328.577 -1.65066 -0.185055 0
M  V30 3583 O 329.762 -1.90732 -0.05083 0
M  V30 3584 C 326.902 -3.43113 0.369776 0
M  V30 3585 C 326.015 -4.05756 1.48276 0
M  V30 3586 C 325.15 -5.22773 0.942414 0
M  V30 3587 C 324.189 -5.77395 2.03179 0
M  V30 3588 N 323.326 -6.85731 1.50721 0
M  V30 3589 H 328.166 -2.38605 1.78527 0
M  V30 3590 H 325.703 -1.17072 0.890646 0
M  V30 3591 H 327.661 -4.17151 0.0640643 0
M  V30 3592 H 326.291 -3.18695 -0.513143 0
M  V30 3593 H 325.343 -3.29292 1.9045 0
M  V30 3594 H 326.655 -4.42351 2.30493 0
M  V30 3595 H 325.809 -6.03827 0.589729 0
M  V30 3596 H 324.548 -4.87618 0.0895191 0
M  V30 3597 H 323.553 -4.94981 2.3932 0
M  V30 3598 H 324.778 -6.14603 2.8886 0
M  V30 3599 H 322.724 -6.52499 0.676811 0
M  V30 3600 H 322.641 -7.21254 2.26557 0
M  V30 3601 H 323.909 -7.7047 1.18303 0
M  V30 3602 N 328.138 -0.959301 -1.25041 0
M  V30 3603 C 329.068 -0.501388 -2.28053 0
M  V30 3604 C 330.049 0.454673 -1.63911 0
M  V30 3605 O 331.234 0.352618 -1.90972 0
M  V30 3606 C 328.364 0.217224 -3.4662 0
M  V30 3607 C 327.318 -0.654034 -4.22973 0
M  V30 3608 C 326.644 0.195589 -5.34342 0
M  V30 3609 C 327.944 -1.93447 -4.85155 0
M  V30 3610 H 329.638 -1.36238 -2.66608 0
M  V30 3611 H 327.184 -0.656534 -1.28163 0
M  V30 3612 H 329.137 0.548732 -4.17812 0
M  V30 3613 H 327.861 1.1125 -3.07068 0
M  V30 3614 H 326.52 -0.968693 -3.5357 0
M  V30 3615 H 326.168 1.09076 -4.91031 0
M  V30 3616 H 325.868 -0.384091 -5.86343 0
M  V30 3617 H 327.392 0.521958 -6.08365 0
M  V30 3618 H 328.806 -1.66908 -5.48466 0
M  V30 3619 H 327.203 -2.46018 -5.47353 0
M  V30 3620 H 328.273 -2.63466 -4.07079 0
M  V30 3621 N 329.616 1.39756 -0.72842 0
M  V30 3622 C 330.563 2.30647 -0.0841519 0
M  V30 3623 C 331.533 1.48869 0.7367 0
M  V30 3624 O 332.718 1.77574 0.698015 0
M  V30 3625 C 329.858 3.35165 0.822091 0
M  V30 3626 C 328.971 4.31999 -0.0106663 0
M  V30 3627 C 328.106 5.23585 0.896241 0
M  V30 3628 C 327.145 6.12072 0.0583381 0
M  V30 3629 N 326.282 6.96035 0.920818 0
M  V30 3630 H 331.122 2.85173 -0.864891 0
M  V30 3631 H 328.659 1.40422 -0.438179 0
M  V30 3632 H 330.617 3.94345 1.36189 0
M  V30 3633 H 329.247 2.8211 1.56888 0
M  V30 3634 H 328.299 3.74492 -0.66781 0
M  V30 3635 H 329.611 4.9443 -0.658825 0
M  V30 3636 H 328.765 5.87759 1.50412 0
M  V30 3637 H 327.504 4.61459 1.57819 0
M  V30 3638 H 326.509 5.46916 -0.562389 0
M  V30 3639 H 327.734 6.76261 -0.6203 0
M  V30 3640 H 325.68 6.36485 1.58818 0
M  V30 3641 H 325.597 7.55284 0.32899 0
M  V30 3642 H 326.865 7.64646 1.51447 0
M  V30 3643 N 331.094 0.475555 1.50254 0
M  V30 3644 C 332.319 -0.0777042 2.07254 0
M  V30 3645 C 332.744 -1.3235 1.3366 0
M  V30 3646 O 332.102 -1.77152 0.385597 0
M  V30 3647 C 332.15 -0.340169 3.58992 0
M  V30 3648 O 331.254 -1.41982 3.87188 0
M  V30 3649 H 330.595 0.0149556 0.663832 0
M  V30 3650 H 333.125 0.667878 1.93392 0
M  V30 3651 H 333.135 -0.579332 4.03866 0
M  V30 3652 H 331.81 0.570167 4.11973 0
M  V30 3653 H 330.387 -1.16762 3.54148 0
M  V30 3654 N 332.573 -1.56217 0.208337 0
M  V30 3655 C 333.819 -1.98998 -0.42086 0
M  V30 3656 C 334.174 -1.09331 -1.58317 0
M  V30 3657 O 333.467 -0.140466 -1.91084 0
M  V30 3658 C 333.661 -3.45441 -0.916797 0
M  V30 3659 C 333.49 -4.49273 0.195925 0
M  V30 3660 C 332.26 -5.00998 0.657956 0
M  V30 3661 C 334.458 -5.04294 1.00956 0
M  V30 3662 N 332.44 -5.88514 1.74712 0
M  V30 3663 C 333.811 -5.88607 1.94785 0
M  V30 3664 C 335.866 -4.86692 1.05049 0
M  V30 3665 C 334.569 -6.572 2.9237 0
M  V30 3666 C 336.595 -5.56034 2.01446 0
M  V30 3667 C 335.957 -6.40105 2.94016 0
M  V30 3668 H 332.056 -0.772574 -0.121048 0
M  V30 3669 H 334.64 -1.92101 0.317075 0
M  V30 3670 H 332.811 -3.52812 -1.62413 0
M  V30 3671 H 334.543 -3.75164 -1.51771 0
M  V30 3672 H 331.298 -4.72945 0.248912 0
M  V30 3673 H 331.722 -6.36975 2.2933 0
M  V30 3674 H 336.364 -4.21359 0.348759 0
M  V30 3675 H 334.082 -7.21723 3.63512 0
M  V30 3676 H 337.668 -5.44385 2.0527 0
M  V30 3677 H 336.548 -6.92816 3.6739 0
M  V30 3678 N 334.051 0.0651679 -1.57465 0
M  V30 3679 C 335.297 0.758912 -1.88712 0
M  V30 3680 C 335.652 1.7485 -0.802819 0
M  V30 3681 O 334.945 1.90632 0.192359 0
M  V30 3682 C 335.139 1.50081 -3.24362 0
M  V30 3683 C 334.968 0.584579 -4.45884 0
M  V30 3684 C 333.738 0.219039 -5.04825 0
M  V30 3685 C 335.936 -0.121559 -5.14156 0
M  V30 3686 N 333.918 -0.702222 -6.09871 0
M  V30 3687 C 335.289 -0.899767 -6.13436 0
M  V30 3688 C 337.344 -0.192331 -4.97528 0
M  V30 3689 C 336.047 -1.74218 -6.97883 0
M  V30 3690 C 338.073 -1.02174 -5.82507 0
M  V30 3691 C 337.435 -1.78798 -6.8133 0
M  V30 3692 H 333.534 0.25293 -0.739967 0
M  V30 3693 H 336.118 0.0201744 -1.9469 0
M  V30 3694 H 334.289 2.21023 -3.1938 0
M  V30 3695 H 336.021 2.14409 -3.43236 0
M  V30 3696 H 332.776 0.57336 -4.70117 0
M  V30 3697 H 333.2 -1.15629 -6.67052 0
M  V30 3698 H 337.842 0.385741 -4.21037 0
M  V30 3699 H 335.56 -2.3312 -7.73745 0
M  V30 3700 H 339.146 -1.07957 -5.71696 0
M  V30 3701 H 338.026 -2.41942 -7.45945 0
M  V30 3702 N 335.529 1.53961 0.336706 0
M  V30 3703 C 336.492 1.81724 1.39675 0
M  V30 3704 C 337.492 0.688532 1.45313 0
M  V30 3705 O 338.682 0.956829 1.45569 0
M  V30 3706 C 335.814 1.96543 2.78538 0
M  V30 3707 H 337.007 2.76424 1.16318 0
M  V30 3708 H 334.56 1.45478 0.571474 0
M  V30 3709 H 335.295 1.0401 3.07168 0
M  V30 3710 H 335.08 2.78665 2.75841 0
M  V30 3711 H 336.57 2.19516 3.5525 0
M  V30 3712 N 337.007 -0.598083 1.45811 0
M  V30 3713 C 338.235 -1.38322 1.53866 0
M  V30 3714 C 338.65 -1.87992 0.174479 0
M  V30 3715 O 338.007 -1.62756 -0.825627 0
M  V30 3716 C 338.058 -2.58125 2.53089 0
M  V30 3717 O 337.779 -2.10516 3.84206 0
M  V30 3718 C 339.28 -3.50869 2.70935 0
M  V30 3719 H 336.5 -0.423093 0.520801 0
M  V30 3720 H 339.044 -0.728527 1.91083 0
M  V30 3721 H 337.199 -3.19615 2.18917 0
M  V30 3722 H 337.613 -2.88425 4.38077 0
M  V30 3723 H 339.087 -4.31451 3.44317 0
M  V30 3724 H 339.564 -4.01822 1.77301 0
M  V30 3725 H 340.17 -2.95225 3.06141 0
M  V30 3726 N 338.485 -1.33259 -0.841409 0
M  V30 3727 C 339.433 -1.23279 -1.97244 0
M  V30 3728 C 340.427 -0.134706 -1.68864 0
M  V30 3729 O 341.633 -0.298501 -1.77508 0
M  V30 3730 H 338.008 -0.382497 -0.647457 0
M  V30 3731 H 339.979 -2.18906 -2.02787 0
M  V30 3732 C 338.728 -0.986268 -3.33419 0
M  V30 3733 H 338.051 -1.82347 -3.55794 0
M  V30 3734 H 339.491 -0.956728 -4.13065 0
M  V30 3735 C 337.95 0.310842 -3.35463 0
M  V30 3736 O 338.48 1.31838 -3.79449 0
M  V30 3737 N 336.686 0.337485 -2.88634 0
M  V30 3738 H 336.233 -0.482967 -2.53032 0
M  V30 3739 H 336.191 1.20518 -2.90384 0
M  V30 3740 N 339.963 1.05934 -1.16686 0
M  V30 3741 C 341.193 1.82226 -0.973515 0
M  V30 3742 C 341.601 1.8297 0.481532 0
M  V30 3743 O 340.944 1.25009 1.34604 0
M  V30 3744 C 341.006 3.29897 -1.42858 0
M  V30 3745 C 340.67 3.52849 -2.90425 0
M  V30 3746 C 341.667 3.45595 -3.88407 0
M  V30 3747 C 339.352 3.80053 -3.28428 0
M  V30 3748 C 341.346 3.65217 -5.22394 0
M  V30 3749 C 339.033 3.99325 -4.62583 0
M  V30 3750 C 340.031 3.91905 -5.59374 0
M  V30 3751 O 339.719 4.10647 -6.91104 0
M  V30 3752 H 339.451 0.581314 -0.345036 0
M  V30 3753 H 342.005 1.3453 -1.55212 0
M  V30 3754 H 340.235 3.78472 -0.793477 0
M  V30 3755 H 341.924 3.87692 -1.20207 0
M  V30 3756 H 342.69 3.24564 -3.60393 0
M  V30 3757 H 338.569 3.84936 -2.53664 0
M  V30 3758 H 342.113 3.59341 -5.9793 0
M  V30 3759 H 338.01 4.19846 -4.90306 0
M  V30 3760 H 338.778 4.27915 -6.97733 0
M  V30 3761 N 341.441 0.965919 1.2453 0
M  V30 3762 C 342.687 0.62776 1.92839 0
M  V30 3763 C 343.02 -0.834694 1.75347 0
M  V30 3764 O 342.295 -1.60031 1.10546 0
M  V30 3765 C 342.578 1.00109 3.45905 0
M  V30 3766 C 342.431 2.52011 3.72573 0
M  V30 3767 C 343.75 0.53435 4.36844 0
M  V30 3768 H 340.869 0.229537 0.700344 0
M  V30 3769 H 343.511 1.2046 1.46933 0
M  V30 3770 H 341.661 0.510238 3.85135 0
M  V30 3771 H 343.333 3.08559 3.42912 0
M  V30 3772 H 341.576 2.95287 3.17786 0
M  V30 3773 H 342.247 2.73183 4.79661 0
M  V30 3774 H 344.723 0.955565 4.04979 0
M  V30 3775 H 343.599 0.824152 5.42678 0
M  V30 3776 H 343.86 -0.565589 4.38467 0
M  V30 3777 N 342.919 -1.39368 0.735821 0
M  V30 3778 C 344.144 -2.05319 0.293052 0
M  V30 3779 C 344.569 -1.55115 -1.064 0
M  V30 3780 O 343.927 -0.695261 -1.67439 0
M  V30 3781 C 343.975 -3.59305 0.305323 0
M  V30 3782 O 343.079 -4.06299 -0.706761 0
M  V30 3783 H 342.42 -0.650529 0.13307 0
M  V30 3784 H 344.95 -1.78386 1.00197 0
M  V30 3785 H 344.96 -4.07724 0.149997 0
M  V30 3786 H 343.635 -3.95207 1.29553 0
M  V30 3787 H 342.212 -3.69292 -0.517504 0
M  V30 3788 N 344.397 -0.483516 -1.5 0
M  V30 3789 C 345.674 0.129337 -1.95172 0
M  V30 3790 C 346.054 1.55802 -1.4244 0
M  V30 3791 O 345.402 2.19625 -0.630649 0
M  V30 3792 C 345.612 0.0599251 -3.48949 0
M  V30 3793 C 346.96 0.242617 -4.23906 0
M  V30 3794 O 347.984 0.135933 -3.55941 0
M  V30 3795 O 346.843 0.459454 -5.44565 0
M  V30 3796 H 343.937 0.104887 -0.820322 0
M  V30 3797 H 346.483 -0.544807 -1.60717 0
M  V30 3798 H 345.255 -0.937079 -3.79914 0
M  V30 3799 H 344.878 0.774984 -3.89974 0
M  V30 3800 N 345.875 1.56104 -0.216619 0
M  V30 3801 C 347.121 1.99219 0.410301 0
M  V30 3802 C 347.476 1.10169 1.57735 0
M  V30 3803 O 346.769 0.150598 1.91007 0
M  V30 3804 C 346.963 3.45923 0.898464 0
M  V30 3805 C 346.792 4.49163 -0.219748 0
M  V30 3806 C 345.562 5.00642 -0.684516 0
M  V30 3807 C 347.76 5.03751 -1.03629 0
M  V30 3808 N 345.742 5.87579 -1.7783 0
M  V30 3809 C 347.113 5.87566 -1.97904 0
M  V30 3810 C 349.168 4.86128 -1.07629 0
M  V30 3811 C 347.871 6.5564 -2.95851 0
M  V30 3812 C 349.897 5.54958 -2.04392 0
M  V30 3813 C 349.259 6.38536 -2.97407 0
M  V30 3814 H 345.358 0.773206 0.11695 0
M  V30 3815 H 347.942 1.9193 -0.327258 0
M  V30 3816 H 346.113 3.53669 1.6054 0
M  V30 3817 H 347.845 3.75963 1.49779 0
M  V30 3818 H 344.6 4.72807 -0.27399 0
M  V30 3819 H 345.024 6.3575 -2.32705 0
M  V30 3820 H 349.666 4.21168 -0.371099 0
M  V30 3821 H 347.384 7.19785 -3.67335 0
M  V30 3822 H 350.97 5.43289 -2.08154 0
M  V30 3823 H 349.85 6.90858 -3.71059 0
M  V30 3824 N 347.353 -0.0568162 1.57498 0
M  V30 3825 C 348.599 -0.748893 1.89111 0
M  V30 3826 C 348.954 -1.74422 0.81208 0
M  V30 3827 O 348.247 -1.90731 -0.182247 0
M  V30 3828 C 348.441 -1.48359 3.25153 0
M  V30 3829 C 348.27 -0.560924 4.46188 0
M  V30 3830 C 347.04 -0.192264 5.04934 0
M  V30 3831 C 349.238 0.148824 5.14085 0
M  V30 3832 N 347.22 0.734555 6.0949 0
M  V30 3833 C 348.591 0.932286 6.12951 0
M  V30 3834 C 350.646 0.218713 4.97419 0
M  V30 3835 C 349.349 1.77917 6.96949 0
M  V30 3836 C 351.375 1.05262 5.81957 0
M  V30 3837 C 350.737 1.82409 6.80372 0
M  V30 3838 H 346.836 -0.249002 0.741298 0
M  V30 3839 H 349.42 -0.00984926 1.94698 0
M  V30 3840 H 347.591 -2.19326 3.20547 0
M  V30 3841 H 349.323 -2.12586 3.44368 0
M  V30 3842 H 346.078 -0.548421 4.70414 0
M  V30 3843 H 346.502 1.19165 6.6643 0
M  V30 3844 H 351.144 -0.363407 4.21235 0
M  V30 3845 H 348.862 2.3722 7.72497 0
M  V30 3846 H 352.448 1.10987 5.71116 0
M  V30 3847 H 351.328 2.45895 7.44651 0
M  V30 3848 N 348.832 -1.54138 -0.328536 0
M  V30 3849 C 349.742 -1.86192 -1.42723 0
M  V30 3850 C 350.758 -0.753382 -1.56844 0
M  V30 3851 O 351.934 -1.04718 -1.72035 0
M  V30 3852 C 348.999 -2.07824 -2.77507 0
M  V30 3853 C 348.06 -3.31641 -2.72603 0
M  V30 3854 C 347.293 -3.52232 -4.00959 0
M  V30 3855 O 347.516 -2.7636 -4.9898 0
M  V30 3856 O 346.45 -4.45699 -4.0452 0
M  V30 3857 H 350.276 -2.79608 -1.18547 0
M  V30 3858 H 347.861 -1.3998 -0.522104 0
M  V30 3859 H 349.743 -2.23411 -3.57303 0
M  V30 3860 H 348.418 -1.17596 -3.01584 0
M  V30 3861 H 347.325 -3.21444 -1.91376 0
M  V30 3862 H 348.658 -4.2191 -2.53481 0
M  V30 3863 N 350.31 0.590341 -1.46126 0
M  V30 3864 C 351.22 1.72793 -1.58681 0
M  V30 3865 C 352.236 1.67516 -0.470566 0
M  V30 3866 O 353.412 1.87562 -0.733642 0
M  V30 3867 C 350.477 3.09287 -1.5666 0
M  V30 3868 C 349.538 3.25886 -2.79458 0
M  V30 3869 C 348.771 4.55869 -2.77524 0
M  V30 3870 O 348.994 5.3928 -1.85832 0
M  V30 3871 O 347.928 4.75552 -3.68964 0
M  V30 3872 H 351.754 1.65149 -2.54872 0
M  V30 3873 H 349.339 0.756486 -1.28832 0
M  V30 3874 H 351.221 3.90577 -1.58202 0
M  V30 3875 H 349.896 3.17385 -0.636271 0
M  V30 3876 H 348.803 2.44119 -2.83472 0
M  V30 3877 H 350.136 3.22675 -3.71674 0
M  V30 3878 N 351.788 1.33704 0.83433 0
M  V30 3879 C 353.018 1.28281 1.6195 0
M  V30 3880 C 353.426 -0.147603 1.88623 0
M  V30 3881 O 352.769 -1.1016 1.47005 0
M  V30 3882 C 352.831 1.99386 2.99141 0
M  V30 3883 C 352.495 3.48681 2.95416 0
M  V30 3884 C 353.492 4.438 2.70809 0
M  V30 3885 C 351.177 3.90925 3.15409 0
M  V30 3886 C 353.171 5.79138 2.66229 0
M  V30 3887 C 350.858 5.26366 3.10454 0
M  V30 3888 C 351.856 6.20284 2.85895 0
M  V30 3889 O 351.544 7.53245 2.80852 0
M  V30 3890 H 351.276 0.44315 0.510484 0
M  V30 3891 H 353.83 1.76711 1.04702 0
M  V30 3892 H 352.06 1.45554 3.58261 0
M  V30 3893 H 353.749 1.87403 3.60049 0
M  V30 3894 H 354.515 4.12485 2.5511 0
M  V30 3895 H 350.394 3.18229 3.33543 0
M  V30 3896 H 353.938 6.52416 2.4698 0
M  V30 3897 H 349.835 5.57304 3.25703 0
M  V30 3898 H 350.603 7.62846 2.96661 0
M  V30 3899 N 353.266 -1.05314 1.17247 0
M  V30 3900 C 354.515 -1.77685 0.954521 0
M  V30 3901 C 354.828 -1.88616 -0.518025 0
M  V30 3902 O 356.034 -2.57714 -0.854144 0
M  V30 3903 C 354.49 -3.19402 1.65863 0
M  V30 3904 C 354.098 -3.16605 3.16963 0
M  V30 3905 C 355.842 -3.96237 1.52303 0
M  V30 3906 C 353.749 -4.53103 3.80068 0
M  V30 3907 H 352.679 -0.666 0.353496 0
M  V30 3908 H 355.33 -1.1805 1.40486 0
M  V30 3909 H 353.712 -3.79355 1.13602 0
M  V30 3910 H 354.886 -2.66176 3.76148 0
M  V30 3911 H 353.201 -2.53268 3.30521 0
M  V30 3912 H 355.798 -4.97157 1.96822 0
M  V30 3913 H 356.141 -4.136 0.473401 0
M  V30 3914 H 356.674 -3.42829 2.01775 0
M  V30 3915 H 353.413 -4.40946 4.85023 0
M  V30 3916 H 352.933 -5.03686 3.2567 0
M  V30 3917 H 354.612 -5.22045 3.82202 0
M  V30 3918 N 354.744 -0.972509 -1.24016 0
M  V30 3919 C 355.974 -0.653853 -1.9598 0
M  V30 3920 C 356.382 0.781801 -1.72292 0
M  V30 3921 O 355.725 1.53677 -1.00644 0
M  V30 3922 C 355.787 -0.854608 -3.49194 0
M  V30 3923 C 355.451 -2.27082 -3.96589 0
M  V30 3924 C 356.448 -3.24892 -4.05883 0
M  V30 3925 C 354.133 -2.5998 -4.29786 0
M  V30 3926 C 356.127 -4.53684 -4.47716 0
M  V30 3927 C 353.814 -3.88997 -4.71301 0
M  V30 3928 C 354.812 -4.85661 -4.80232 0
M  V30 3929 O 354.5 -6.12376 -5.20818 0
M  V30 3930 H 354.232 -0.242572 -0.630979 0
M  V30 3931 H 356.786 -1.30431 -1.58673 0
M  V30 3932 H 355.016 -0.146985 -3.86421 0
M  V30 3933 H 356.705 -0.534311 -4.02368 0
M  V30 3934 H 357.471 -3.00805 -3.80449 0
M  V30 3935 H 353.35 -1.85457 -4.22051 0
M  V30 3936 H 356.894 -5.29135 -4.54601 0
M  V30 3937 H 352.791 -4.12882 -4.96184 0
M  V30 3938 H 353.559 -6.16013 -5.38953 0
M  V30 3939 N 356.222 1.38976 -0.743202 0
M  V30 3940 C 357.152 2.33171 -0.123873 0
M  V30 3941 C 358.133 1.54336 0.71516 0
M  V30 3942 O 359.318 1.82696 0.658467 0
M  V30 3943 C 356.448 3.38474 0.777978 0
M  V30 3944 C 355.402 4.27979 0.0424758 0
M  V30 3945 C 354.728 5.2405 1.06189 0
M  V30 3946 C 356.028 5.10155 -1.1198 0
M  V30 3947 H 357.722 2.85213 -0.910709 0
M  V30 3948 H 355.268 1.37133 -0.439388 0
M  V30 3949 H 357.221 4.03328 1.22084 0
M  V30 3950 H 355.945 2.84891 1.59702 0
M  V30 3951 H 354.604 3.64616 -0.380853 0
M  V30 3952 H 354.252 4.66758 1.87472 0
M  V30 3953 H 353.952 5.84785 0.574485 0
M  V30 3954 H 355.476 5.9178 1.50428 0
M  V30 3955 H 356.89 5.68307 -0.75499 0
M  V30 3956 H 355.287 5.80073 -1.53738 0
M  V30 3957 H 356.357 4.44504 -1.93764 0
M  V30 3958 N 357.7 0.491464 1.49741 0
M  V30 3959 C 359.116 0.146835 1.58923 0
M  V30 3960 C 359.316 -1.34804 1.49767 0
M  V30 3961 O 358.372 -2.12317 1.36667 0
M  V30 3962 C 359.685 0.715157 2.92072 0
M  V30 3963 C 361.233 0.680407 3.05515 0
M  V30 3964 C 361.708 1.22663 4.41269 0
M  V30 3965 N 363.199 1.18691 4.47735 0
M  V30 3966 C 363.934 1.57984 5.51207 0
M  V30 3967 N 363.43 2.04824 6.6183 0
M  V30 3968 N 365.223 1.49459 5.41866 0
M  V30 3969 H 357.374 1.46347 1.53936 0
M  V30 3970 H 359.637 0.606453 0.728642 0
M  V30 3971 H 359.343 1.76317 3.04311 0
M  V30 3972 H 359.217 0.17018 3.76816 0
M  V30 3973 H 361.604 -0.358743 2.92911 0
M  V30 3974 H 361.685 1.26242 2.22478 0
M  V30 3975 H 361.329 2.26451 4.54623 0
M  V30 3976 H 361.259 0.620637 5.2293 0
M  V30 3977 H 363.75 0.843605 3.68364 0
M  V30 3978 H 364.063 2.32901 7.3687 0
M  V30 3979 H 362.408 2.08791 6.62896 0
M  V30 3980 H 365.599 1.12692 4.54333 0
M  V30 3981 H 365.772 1.80406 6.22381 0
M  V30 3982 N 359.178 -1.55987 0.224894 0
M  V30 3983 C 360.426 -1.97998 -0.405099 0
M  V30 3984 C 360.747 -1.11387 -1.60056 0
M  V30 3985 O 360.017 -0.191645 -1.9496 0
M  V30 3986 H 358.597 -0.731235 -0.152658 0
M  V30 3987 H 361.259 -1.92279 0.318567 0
M  V30 3988 H 360.355 -3.03463 -0.729167 0
M  V30 3989 N 360.656 0.0484629 -1.57525 0
M  V30 3990 C 362.072 0.40375 -1.54409 0
M  V30 3991 C 362.272 1.77786 -0.948384 0
M  V30 3992 O 361.328 2.46189 -0.560983 0
M  V30 3993 C 362.641 0.323394 -2.98956 0
M  V30 3994 C 364.189 0.401892 -3.10409 0
M  V30 3995 C 364.664 0.351195 -4.56652 0
M  V30 3996 N 366.155 0.410576 -4.61377 0
M  V30 3997 C 366.89 0.393933 -5.72045 0
M  V30 3998 N 366.386 0.330724 -6.9201 0
M  V30 3999 N 368.179 0.442227 -5.60358 0
M  V30 4000 H 360.33 -0.851016 -1.94606 0
M  V30 4001 H 362.593 -0.321721 -0.89174 0
M  V30 4002 H 362.299 -0.62011 -3.4619 0
M  V30 4003 H 362.173 1.12463 -3.60044 0
M  V30 4004 H 364.56 1.33582 -2.63134 0
M  V30 4005 H 364.641 -0.428342 -2.52188 0
M  V30 4006 H 364.285 -0.578987 -5.04589 0
M  V30 4007 H 364.215 1.19928 -5.12762 0
M  V30 4008 H 366.706 0.462729 -3.75056 0
M  V30 4009 H 367.019 0.322592 -7.72126 0
M  V30 4010 H 365.364 0.29706 -6.94365 0
M  V30 4011 H 368.555 0.489464 -4.65534 0
M  V30 4012 H 368.728 0.425788 -6.466 0
M  V30 4013 N 362.134 1.5431 0.320358 0
M  V30 4014 C 363.382 1.72327 1.05583 0
M  V30 4015 C 363.703 0.50149 1.88441 0
M  V30 4016 O 362.973 -0.48448 1.89815 0
M  V30 4017 H 361.553 0.635387 0.3928 0
M  V30 4018 H 364.215 1.91621 0.356019 0
M  V30 4019 H 363.311 2.60426 1.72003 0
M  V30 4020 N 363.613 -0.582584 1.46437 0
M  V30 4021 C 365.024 -1.1647 1.45916 0
M  V30 4022 C 365.375 -1.95177 0.200077 0
M  V30 4023 O 364.5 -2.04874 -0.696819 0
M  V30 4024 C 365.095 -2.11885 2.64367 0
M  V30 4025 C 363.654 -2.65421 2.66887 0
M  V30 4026 C 362.801 -1.41294 2.38603 0
M  V30 4027 H 365.752 -0.370514 1.54314 0
M  V30 4028 H 365.773 -2.9535 2.39892 0
M  V30 4029 H 365.285 -1.54573 3.5599 0
M  V30 4030 H 363.386 -3.26602 1.79338 0
M  V30 4031 H 363.499 -3.08147 3.66854 0
M  V30 4032 H 361.863 -1.71109 1.88663 0
M  V30 4033 H 362.646 -0.858125 3.32402 0
M  V30 4034 N 365.091 -1.34144 -0.827227 0
M  V30 4035 C 366.021 -1.28005 -1.95287 0
M  V30 4036 C 367.002 -0.158321 -1.69362 0
M  V30 4037 O 368.187 -0.349987 -1.9102 0
M  V30 4038 C 365.317 -1.03036 -3.31664 0
M  V30 4039 C 364.271 -2.11628 -3.72019 0
M  V30 4040 C 363.597 -1.71854 -5.0633 0
M  V30 4041 C 364.897 -3.53417 -3.8457 0
M  V30 4042 H 366.591 -2.22187 -2.00682 0
M  V30 4043 H 364.137 -1.0696 -0.964135 0
M  V30 4044 H 366.09 -0.973863 -4.09993 0
M  V30 4045 H 364.814 -0.0529391 -3.26557 0
M  V30 4046 H 363.473 -2.16339 -2.95961 0
M  V30 4047 H 363.121 -0.727841 -4.97706 0
M  V30 4048 H 362.821 -2.44531 -5.34302 0
M  V30 4049 H 364.345 -1.67692 -5.87122 0
M  V30 4050 H 365.759 -3.51142 -4.5318 0
M  V30 4051 H 364.156 -4.24679 -4.2399 0
M  V30 4052 H 365.226 -3.91072 -2.86689 0
M  V30 4053 N 366.569 1.04691 -1.17803 0
M  V30 4054 C 367.502 2.12068 -0.842765 0
M  V30 4055 C 368.48 1.61455 0.192608 0
M  V30 4056 O 369.664 1.88359 0.072995 0
M  V30 4057 C 366.791 3.37715 -0.258063 0
M  V30 4058 C 365.837 4.07164 -1.26962 0
M  V30 4059 S 366.67 4.55047 -2.82299 0
M  V30 4060 C 367.826 5.83935 -2.25323 0
M  V30 4061 H 368.059 2.4018 -1.75217 0
M  V30 4062 H 365.592 1.17366 -1.00323 0
M  V30 4063 H 367.55 4.10435 0.0727935 0
M  V30 4064 H 366.211 3.0773 0.629357 0
M  V30 4065 H 365.404 4.9746 -0.809263 0
M  V30 4066 H 365.006 3.40533 -1.54639 0
M  V30 4067 H 367.298 6.57552 -1.63192 0
M  V30 4068 H 368.241 6.34725 -3.13894 0
M  V30 4069 H 368.649 5.3874 -1.68582 0
M  V30 4070 N 368.047 0.979072 1.23499 0
M  V30 4071 C 369.293 0.648178 1.92163 0
M  V30 4072 C 369.626 -0.816049 1.76222 0
M  V30 4073 O 368.901 -1.58849 1.12237 0
M  V30 4074 C 369.184 1.03773 3.44824 0
M  V30 4075 C 369.037 2.55948 3.69879 0
M  V30 4076 C 370.356 0.580653 4.36253 0
M  V30 4077 H 367.475 0.236952 0.69787 0
M  V30 4078 H 370.117 1.22012 1.45647 0
M  V30 4079 H 368.267 0.551058 3.84572 0
M  V30 4080 H 369.939 3.12179 3.3962 0
M  V30 4081 H 368.182 2.98641 3.14636 0
M  V30 4082 H 368.853 2.78255 4.76737 0
M  V30 4083 H 371.329 0.998465 4.03943 0
M  V30 4084 H 370.205 0.881663 5.41773 0
M  V30 4085 H 370.466 -0.519052 4.39042 0
M  V30 4086 N 369.525 -1.3858 0.750561 0
M  V30 4087 C 370.473 -2.32339 0.110162 0
M  V30 4088 C 371.467 -1.53864 -0.708674 0
M  V30 4089 O 372.673 -1.69417 -0.608112 0
M  V30 4090 H 369.048 -0.751812 0.0168275 0
M  V30 4091 H 371.019 -2.83959 0.917053 0
M  V30 4092 C 369.768 -3.39043 -0.771067 0
M  V30 4093 H 369.091 -3.99517 -0.150374 0
M  V30 4094 H 370.531 -4.07061 -1.1865 0
M  V30 4095 C 368.99 -2.77365 -1.91234 0
M  V30 4096 O 369.52 -2.66434 -3.00626 0
M  V30 4097 N 367.726 -2.35219 -1.70646 0
M  V30 4098 H 367.273 -2.4431 -0.81673 0
M  V30 4099 H 367.231 -1.94294 -2.47178 0
M  V30 4100 N 371.003 -0.499398 -1.49478 0
M  V30 4101 C 372.228 0.044722 -2.07352 0
M  V30 4102 C 372.653 1.30207 -1.35749 0
M  V30 4103 O 372.011 1.76516 -0.413732 0
M  V30 4104 C 372.059 0.283013 -3.59488 0
M  V30 4105 O 371.163 1.35804 -3.89398 0
M  V30 4106 H 370.504 -0.0255147 -0.66351 0
M  V30 4107 H 373.034 -0.698561 -1.92305 0
M  V30 4108 H 373.044 0.515007 -4.04737 0
M  V30 4109 H 371.719 -0.635636 -4.11014 0
M  V30 4110 H 370.296 1.11113 -3.55961 0
M  V30 4111 N 372.481 1.55866 -0.233164 0
M  V30 4112 C 373.429 2.22176 0.68851 0
M  V30 4113 C 374.423 1.20487 1.19076 0
M  V30 4114 O 375.629 1.38536 1.14925 0
M  V30 4115 H 372.004 0.712511 0.240483 0
M  V30 4116 H 373.975 2.98212 0.105935 0
M  V30 4117 C 372.724 2.92446 1.88071 0
M  V30 4118 H 372.047 3.70458 1.50337 0
M  V30 4119 H 373.487 3.42226 2.50314 0
M  V30 4120 C 371.946 1.95555 2.74335 0
M  V30 4121 O 372.476 1.47986 3.73447 0
M  V30 4122 N 370.682 1.62953 2.40613 0
M  V30 4123 H 370.229 2.01831 1.60069 0
M  V30 4124 H 370.187 0.983886 2.98609 0
M  V30 4125 N 373.959 -0.0401083 1.57549 0
M  V30 4126 C 375.189 -0.744115 1.92734 0
M  V30 4127 C 375.597 -1.70005 0.830348 0
M  V30 4128 O 374.94 -1.82576 -0.20286 0
M  V30 4129 C 375.002 -1.56516 3.2364 0
M  V30 4130 C 374.666 -0.7752 4.50377 0
M  V30 4131 C 375.663 -0.0803326 5.19838 0
M  V30 4132 C 373.348 -0.733002 4.96923 0
M  V30 4133 C 375.342 0.646154 6.34116 0
M  V30 4134 C 373.029 -0.00276321 6.111 0
M  V30 4135 C 374.027 0.685585 6.7955 0
M  V30 4136 O 373.715 1.40399 7.91545 0
M  V30 4137 H 373.447 -0.214861 0.640945 0
M  V30 4138 H 376.001 -0.00503675 2.05399 0
M  V30 4139 H 374.231 -2.3478 3.07271 0
M  V30 4140 H 375.92 -2.15076 3.44234 0
M  V30 4141 H 376.686 -0.104035 4.84888 0
M  V30 4142 H 372.565 -1.25827 4.43496 0
M  V30 4143 H 376.109 1.18398 6.87479 0
M  V30 4144 H 372.006 0.0229012 6.45496 0
M  V30 4145 H 372.774 1.31653 8.07843 0
M  V30 4146 N 375.437 -1.54477 -0.31217 0
M  V30 4147 C 376.667 -1.76948 -1.06645 0
M  V30 4148 C 377.075 -0.523593 -1.81811 0
M  V30 4149 O 376.418 0.51578 -1.76311 0
M  V30 4150 C 376.48 -2.91668 -2.10166 0
M  V30 4151 C 376.144 -4.30165 -1.54296 0
M  V30 4152 C 377.141 -5.10603 -0.978793 0
M  V30 4153 C 374.826 -4.76738 -1.58196 0
M  V30 4154 C 376.82 -6.3573 -0.461048 0
M  V30 4155 C 374.507 -6.01831 -1.06034 0
M  V30 4156 C 375.505 -6.81161 -0.500844 0
M  V30 4157 O 375.193 -8.03899 0.0128958 0
M  V30 4158 H 374.925 -0.594088 -0.322546 0
M  V30 4159 H 377.479 -2.02213 -0.360441 0
M  V30 4160 H 375.709 -2.62001 -2.84416 0
M  V30 4161 H 377.398 -3.01817 -2.71406 0
M  V30 4162 H 378.164 -4.75771 -0.941651 0
M  V30 4163 H 374.043 -4.15027 -2.00683 0
M  V30 4164 H 377.587 -6.97596 -0.0236894 0
M  V30 4165 H 373.484 -6.36152 -1.09459 0
M  V30 4166 H 374.252 -8.18437 -0.101457 0
M  V30 4167 N 376.915 0.57481 -1.46744 0
M  V30 4168 C 377.878 1.66533 -1.57478 0
M  V30 4169 C 378.878 1.54338 -0.451263 0
M  V30 4170 O 380.068 1.58814 -0.715813 0
M  V30 4171 C 377.2 3.05999 -1.50259 0
M  V30 4172 H 378.393 1.58372 -2.54673 0
M  V30 4173 H 375.946 0.793301 -1.34672 0
M  V30 4174 H 376.681 3.19709 -0.543725 0
M  V30 4175 H 376.466 3.16259 -2.31781 0
M  V30 4176 H 377.956 3.8537 -1.60872 0
M  V30 4177 N 378.394 1.34581 0.820102 0
M  V30 4178 C 379.327 1.20735 1.93644 0
M  V30 4179 C 380.305 0.0983343 1.62302 0
M  V30 4180 O 381.489 0.263997 1.86642 0
M  V30 4181 C 378.616 0.856037 3.27704 0
M  V30 4182 C 377.662 1.97521 3.78005 0
M  V30 4183 S 378.495 3.58906 3.97425 0
M  V30 4184 C 379.651 3.25822 5.34407 0
M  V30 4185 H 379.884 2.15231 2.05093 0
M  V30 4186 H 377.417 1.1964 0.97599 0
M  V30 4187 H 379.375 0.660133 4.05157 0
M  V30 4188 H 378.036 -0.0706253 3.14021 0
M  V30 4189 H 377.229 1.68321 4.75062 0
M  V30 4190 H 376.831 2.12875 3.07507 0
M  V30 4191 H 379.123 2.77812 6.17922 0
M  V30 4192 H 380.066 4.22029 5.68592 0
M  V30 4193 H 380.474 2.61932 5.00052 0
M  V30 4194 N 379.872 -1.04064 1.18357 0
M  V30 4195 C 381.149 -1.74252 0.888581 0
M  V30 4196 C 381.529 -2.02138 -0.60856 0
M  V30 4197 O 380.877 -1.66656 -1.56327 0
M  V30 4198 C 381.087 -3.0277 1.73584 0
M  V30 4199 C 382.435 -3.76506 1.96286 0
M  V30 4200 O 383.459 -3.12668 1.70637 0
M  V30 4201 O 382.318 -4.91243 2.39464 0
M  V30 4202 H 379.412 -0.758271 0.330082 0
M  V30 4203 H 381.958 -1.1013 1.2911 0
M  V30 4204 H 380.73 -2.78299 2.75073 0
M  V30 4205 H 380.353 -3.74631 1.33183 0
M  V30 4206 N 381.35 -0.985608 -1.22978 0
M  V30 4207 C 382.28 -0.549649 -2.26939 0
M  V30 4208 C 383.261 0.419803 -1.64838 0
M  V30 4209 O 384.446 0.31203 -1.91677 0
M  V30 4210 C 381.576 0.143652 -3.47003 0
M  V30 4211 C 380.53 -0.743606 -4.21491 0
M  V30 4212 C 379.856 0.0822027 -5.34637 0
M  V30 4213 C 381.156 -2.03694 -4.80943 0
M  V30 4214 H 382.85 -1.41862 -2.63658 0
M  V30 4215 H 380.396 -0.683571 -1.26741 0
M  V30 4216 H 382.349 0.459985 -4.18882 0
M  V30 4217 H 381.073 1.04711 -3.09359 0
M  V30 4218 H 379.732 -1.04347 -3.51436 0
M  V30 4219 H 379.38 0.986359 -4.93234 0
M  V30 4220 H 379.08 -0.508377 -5.85397 0
M  V30 4221 H 380.604 0.392797 -6.09335 0
M  V30 4222 H 382.018 -1.78504 -5.44802 0
M  V30 4223 H 380.415 -2.57573 -5.42011 0
M  V30 4224 H 381.485 -2.72042 -4.01399 0
M  V30 4225 N 382.828 1.3818 -0.7579 0
M  V30 4226 C 383.758 2.33027 -0.148597 0
M  V30 4227 C 384.739 1.55085 0.69875 0
M  V30 4228 O 385.924 1.83384 0.639053 0
M  V30 4229 C 383.054 3.3928 0.742034 0
M  V30 4230 C 382.008 4.28 -0.00291946 0
M  V30 4231 C 381.334 5.25146 1.00625 0
M  V30 4232 C 382.634 5.08938 -1.17385 0
M  V30 4233 H 384.328 2.84231 -0.940909 0
M  V30 4234 H 381.874 1.36659 -0.453908 0
M  V30 4235 H 383.827 4.046 1.17799 0
M  V30 4236 H 382.551 2.86569 1.56671 0
M  V30 4237 H 381.21 3.64192 -0.419504 0
M  V30 4238 H 380.858 4.68721 1.8251 0
M  V30 4239 H 380.558 5.85361 0.512428 0
M  V30 4240 H 382.082 5.93342 1.44143 0
M  V30 4241 H 383.496 5.67474 -0.815224 0
M  V30 4242 H 381.893 5.7841 -1.59882 0
M  V30 4243 H 382.963 4.42424 -1.98468 0
M  V30 4244 N 384.306 0.507319 1.49211 0
M  V30 4245 C 385.536 -0.0315292 2.06576 0
M  V30 4246 C 385.944 -1.30791 1.36713 0
M  V30 4247 O 385.287 -1.78324 0.441181 0
M  V30 4248 C 385.349 -0.349104 3.57801 0
M  V30 4249 C 385.013 0.830475 4.49391 0
M  V30 4250 C 386.01 1.72271 4.90529 0
M  V30 4251 C 383.695 1.03107 4.91604 0
M  V30 4252 C 385.689 2.79964 5.72625 0
M  V30 4253 C 383.376 2.11116 5.73475 0
M  V30 4254 C 384.374 2.99379 6.1389 0
M  V30 4255 O 384.062 4.05523 6.94123 0
M  V30 4256 H 383.794 0.0201002 0.675701 0
M  V30 4257 H 386.348 0.705737 1.92895 0
M  V30 4258 H 384.578 -1.14005 3.69513 0
M  V30 4259 H 386.267 -0.827319 3.97379 0
M  V30 4260 H 387.033 1.57958 4.58557 0
M  V30 4261 H 382.912 0.353417 4.59643 0
M  V30 4262 H 386.456 3.48884 6.04091 0
M  V30 4263 H 382.353 2.25421 6.0486 0
M  V30 4264 H 383.121 4.02953 7.1244 0
M  V30 4265 N 385.784 -1.5574 0.241426 0
M  V30 4266 C 387.033 -1.97986 -0.385295 0
M  V30 4267 C 387.346 -1.13267 -1.59468 0
M  V30 4268 O 388.552 -1.45501 -2.2922 0
M  V30 4269 C 387.008 -3.52275 -0.736884 0
M  V30 4270 C 386.616 -4.45726 0.450796 0
M  V30 4271 C 388.36 -4.03189 -1.3281 0
M  V30 4272 C 386.267 -5.91352 0.0756662 0
M  V30 4273 H 385.197 -0.739386 -0.147731 0
M  V30 4274 H 387.848 -1.80308 0.340779 0
M  V30 4275 H 386.23 -3.65628 -1.52094 0
M  V30 4276 H 387.404 -4.44131 1.22819 0
M  V30 4277 H 385.719 -4.05264 0.956573 0
M  V30 4278 H 388.316 -5.09505 -1.62201 0
M  V30 4279 H 388.659 -3.50212 -2.25071 0
M  V30 4280 H 389.192 -3.93141 -0.607069 0
M  V30 4281 H 385.931 -6.48354 0.965272 0
M  V30 4282 H 385.451 -5.96095 -0.665635 0
M  V30 4283 H 387.13 -6.46084 -0.344075 0
M  V30 4284 N 387.262 0.0317525 -1.57568 0
M  V30 4285 C 388.192 1.03274 -2.0942 0
M  V30 4286 C 389.173 1.3788 -0.996143 0
M  V30 4287 O 390.358 1.46811 -1.27122 0
M  V30 4288 C 387.488 2.33448 -2.57137 0
M  V30 4289 C 386.442 2.13091 -3.71182 0
M  V30 4290 C 385.768 3.49001 -4.05095 0
M  V30 4291 C 387.068 1.51928 -4.99715 0
M  V30 4292 H 388.762 0.60112 -2.93303 0
M  V30 4293 H 386.308 0.287705 -1.41097 0
M  V30 4294 H 388.261 3.03802 -2.92032 0
M  V30 4295 H 386.985 2.78665 -1.70333 0
M  V30 4296 H 385.644 1.45171 -3.36632 0
M  V30 4297 H 385.292 3.91862 -3.15362 0
M  V30 4298 H 384.992 3.36207 -4.81911 0
M  V30 4299 H 386.516 4.20721 -4.42522 0
M  V30 4300 H 387.93 2.12196 -5.32584 0
M  V30 4301 H 386.327 1.49716 -5.81124 0
M  V30 4302 H 387.397 0.484811 -4.8247 0
M  V30 4303 N 388.74 1.54641 0.303973 0
M  V30 4304 C 390.151 1.64811 0.877163 0
M  V30 4305 C 390.502 0.554838 1.88191 0
M  V30 4306 O 389.627 -0.309033 2.14182 0
M  V30 4307 C 390.222 2.9876 1.59775 0
M  V30 4308 C 388.781 3.11061 2.11938 0
M  V30 4309 C 387.928 2.60479 0.951097 0
M  V30 4310 H 390.879 1.58493 0.0810486 0
M  V30 4311 H 390.9 2.90017 2.46314 0
M  V30 4312 H 390.412 3.7831 0.866226 0
M  V30 4313 H 388.513 2.36225 2.88146 0
M  V30 4314 H 388.626 4.17171 2.35595 0
M  V30 4315 H 386.99 2.16859 1.33583 0
M  V30 4316 H 387.773 3.42504 0.233581 0
M  V30 4317 N 390.218 -0.567019 1.47046 0
M  V30 4318 C 391.446 -1.35027 1.56765 0
M  V30 4319 C 391.861 -1.8758 0.214316 0
M  V30 4320 O 391.218 -1.64471 -0.790919 0
M  V30 4321 C 391.269 -2.52698 2.58507 0
M  V30 4322 O 390.99 -2.0232 3.88585 0
M  V30 4323 C 392.491 -3.45043 2.78316 0
M  V30 4324 H 389.711 -0.41195 0.529658 0
M  V30 4325 H 392.255 -0.687832 1.92585 0
M  V30 4326 H 390.41 -3.149 2.25648 0
M  V30 4327 H 390.824 -2.79068 4.44096 0
M  V30 4328 H 392.298 -4.2405 3.53391 0
M  V30 4329 H 392.775 -3.97971 1.85784 0
M  V30 4330 H 393.381 -2.88665 3.12334 0
M  V30 4331 N 391.696 -1.35014 -0.812953 0
M  V30 4332 C 392.646 -1.23959 -1.91359 0
M  V30 4333 C 393.63 -0.136306 -1.60322 0
M  V30 4334 O 394.822 -0.366925 -1.73155 0
M  V30 4335 C 391.951 -1.00736 -3.28188 0
M  V30 4336 C 391.037 -2.15426 -3.65311 0
M  V30 4337 N 391.428 -3.40612 -3.73921 0
M  V30 4338 C 389.726 -2.06672 -3.95225 0
M  V30 4339 C 390.427 -4.15994 -4.06601 0
M  V30 4340 N 389.403 -3.44685 -4.20349 0
M  V30 4341 H 393.205 -2.18815 -1.96208 0
M  V30 4342 H 390.719 -1.27395 -1.00718 0
M  V30 4343 H 392.716 -0.909052 -4.06868 0
M  V30 4344 H 391.376 -0.067586 -3.2463 0
M  V30 4345 H 392.387 -3.75043 -3.5716 0
M  V30 4346 H 389.064 -1.20511 -3.99729 0
M  V30 4347 H 390.454 -5.24145 -4.20382 0
M  V30 4348 N 393.175 1.03435 -1.18907 0
M  V30 4349 C 394.424 1.76143 -0.982669 0
M  V30 4350 C 394.737 1.89416 0.487953 0
M  V30 4351 O 395.943 2.59041 0.813036 0
M  V30 4352 C 394.399 3.16722 -1.70924 0
M  V30 4353 C 394.007 3.11522 -3.21959 0
M  V30 4354 C 395.751 3.93764 -1.58588 0
M  V30 4355 C 393.658 4.46999 -3.87228 0
M  V30 4356 H 392.588 0.660292 -0.364047 0
M  V30 4357 H 395.239 1.158 -1.42347 0
M  V30 4358 H 393.621 3.775 -1.19623 0
M  V30 4359 H 394.795 2.60158 -3.80335 0
M  V30 4360 H 393.11 2.47978 -3.34508 0
M  V30 4361 H 395.707 4.93963 -2.04707 0
M  V30 4362 H 396.05 4.12794 -0.539142 0
M  V30 4363 H 396.583 3.39576 -2.07203 0
M  V30 4364 H 393.322 4.33174 -4.91976 0
M  V30 4365 H 392.842 4.98441 -3.33642 0
M  V30 4366 H 394.521 5.15898 -3.90459 0
M  V30 4367 N 394.653 0.992116 1.22453 0
M  V30 4368 C 395.585 0.500024 2.23679 0
M  V30 4369 C 396.598 -0.404463 1.57696 0
M  V30 4370 O 397.787 -0.206722 1.77299 0
M  V30 4371 C 394.887 -0.294711 3.37616 0
M  V30 4372 C 394.06 0.605723 4.33186 0
M  V30 4373 C 393.119 -0.13717 5.26021 0
M  V30 4374 O 392.145 0.477164 5.67196 0
M  V30 4375 N 393.347 -1.4197 5.62872 0
M  V30 4376 H 396.112 1.37045 2.66531 0
M  V30 4377 H 393.673 0.866741 1.36745 0
M  V30 4378 H 395.665 -0.800329 3.96707 0
M  V30 4379 H 394.235 -1.06623 2.93854 0
M  V30 4380 H 393.455 1.29202 3.72425 0
M  V30 4381 H 394.743 1.21896 4.93983 0
M  V30 4382 H 394.141 -1.94015 5.31389 0
M  V30 4383 H 392.698 -1.87052 6.24383 0
M  V30 4384 N 396.131 -1.37776 0.765217 0
M  V30 4385 C 397.094 -2.28686 0.153416 0
M  V30 4386 C 398.094 -1.47727 -0.635081 0
M  V30 4387 O 399.284 -1.68027 -0.459632 0
M  V30 4388 C 396.416 -3.31608 -0.790495 0
M  V30 4389 H 397.609 -2.84297 0.954723 0
M  V30 4390 H 395.162 -1.46932 0.53299 0
M  V30 4391 H 395.897 -2.81109 -1.61705 0
M  V30 4392 H 395.682 -3.9144 -0.227348 0
M  V30 4393 H 397.172 -3.99559 -1.21419 0
M  V30 4394 N 397.609 -0.515225 -1.4894 0
M  V30 4395 C 398.572 0.244681 -2.2789 0
M  V30 4396 C 399.572 0.881166 -1.34507 0
M  V30 4397 O 400.762 0.743497 -1.57537 0
M  V30 4398 C 397.894 1.35247 -3.12923 0
M  V30 4399 H 399.087 -0.448289 -2.96531 0
M  V30 4400 H 396.64 -0.270656 -1.53939 0
M  V30 4401 H 397.375 2.07916 -2.48881 0
M  V30 4402 H 397.16 0.901374 -3.81599 0
M  V30 4403 H 398.65 1.88737 -3.72516 0
M  V30 4404 N 399.087 1.5561 -0.249682 0
M  V30 4405 C 400.503 1.59254 0.105103 0
M  V30 4406 C 400.703 1.26685 1.56694 0
M  V30 4407 O 399.759 1.0155 2.31179 0
M  V30 4408 C 401.072 2.99687 -0.246592 0
M  V30 4409 C 402.62 3.12416 -0.191118 0
M  V30 4410 C 403.095 4.55074 -0.516885 0
M  V30 4411 N 404.586 4.60835 -0.467489 0
M  V30 4412 C 405.321 5.69201 -0.69268 0
M  V30 4413 N 404.817 6.85817 -0.981146 0
M  V30 4414 N 406.61 5.58635 -0.623198 0
M  V30 4415 H 398.761 1.75049 -1.20298 0
M  V30 4416 H 401.024 0.815003 -0.484225 0
M  V30 4417 H 400.73 3.28267 -1.26228 0
M  V30 4418 H 400.604 3.74798 0.424962 0
M  V30 4419 H 402.991 2.83615 0.815247 0
M  V30 4420 H 403.072 2.39573 -0.896563 0
M  V30 4421 H 402.716 4.84596 -1.52082 0
M  V30 4422 H 402.646 5.26181 0.210068 0
M  V30 4423 H 405.137 3.7705 -0.253373 0
M  V30 4424 H 405.45 7.64341 -1.14032 0
M  V30 4425 H 403.795 6.87494 -1.01865 0
M  V30 4426 H 406.986 4.66406 -0.397863 0
M  V30 4427 H 407.159 6.43017 -0.802093 0
M  V30 4428 N 400.565 -0.0233959 1.57583 0
M  V30 4429 C 401.528 -1.00693 2.05897 0
M  V30 4430 C 402.528 -1.28693 0.964092 0
M  V30 4431 O 403.718 -1.23602 1.22753 0
M  V30 4432 C 400.85 -2.33825 2.4807 0
M  V30 4433 H 402.043 -0.589476 2.9405 0
M  V30 4434 H 399.596 -0.270354 1.53944 0
M  V30 4435 H 400.331 -2.80307 1.6309 0
M  V30 4436 H 400.116 -2.1483 3.2801 0
M  V30 4437 H 401.606 -3.04426 2.85857 0
M  V30 4438 N 402.043 -1.548 -0.295768 0
M  V30 4439 C 403.291 -1.73985 -1.02828 0
M  V30 4440 C 403.612 -0.531406 -1.87619 0
M  V30 4441 O 402.882 0.454221 -1.90561 0
M  V30 4442 H 401.462 -0.641556 -0.382642 0
M  V30 4443 H 404.124 -1.92163 -0.325489 0
M  V30 4444 H 403.22 -2.63129 -1.67838 0
M  V30 4445 N 403.521 0.559213 -1.47345 0
M  V30 4446 C 404.469 1.68747 -1.60085 0
M  V30 4447 C 405.463 1.628 -0.46825 0
M  V30 4448 O 406.669 1.68009 -0.645977 0
M  V30 4449 H 403.044 0.558329 -0.503759 0
M  V30 4450 H 405.015 1.55138 -2.54902 0
M  V30 4451 C 403.764 3.07103 -1.63042 0
M  V30 4452 H 403.087 3.12361 -2.49541 0
M  V30 4453 H 404.527 3.85743 -1.76006 0
M  V30 4454 C 402.986 3.34935 -0.363357 0
M  V30 4455 O 403.516 3.98102 0.536416 0
M  V30 4456 N 401.722 2.89574 -0.244 0
M  V30 4457 H 401.269 2.38348 -0.977133 0
M  V30 4458 H 401.227 3.08566 0.602836 0
M  V30 4459 N 404.999 1.35443 0.805782 0
M  V30 4460 C 405.962 1.28301 1.89925 0
M  V30 4461 C 406.962 0.194285 1.59622 0
M  V30 4462 O 408.152 0.448036 1.6834 0
M  V30 4463 C 405.284 0.984997 3.2636 0
M  V30 4464 H 406.477 2.2553 1.97677 0
M  V30 4465 H 404.03 1.19979 1.00173 0
M  V30 4466 H 404.765 0.016603 3.24296 0
M  V30 4467 H 404.55 1.77269 3.4974 0
M  V30 4468 H 406.04 0.960651 4.064 0
M  V30 4469 N 406.477 -1.02803 1.19454 0
M  V30 4470 C 407.726 -1.7562 0.991996 0
M  V30 4471 C 408.039 -1.89672 -0.477901 0
M  V30 4472 O 409.245 -2.59468 -0.799287 0
M  V30 4473 C 407.701 -3.15812 1.72601 0
M  V30 4474 C 407.309 -3.0981 3.23607 0
M  V30 4475 C 409.053 -3.92918 1.60674 0
M  V30 4476 C 406.96 -4.44939 3.89594 0
M  V30 4477 H 405.89 -0.658352 0.367543 0
M  V30 4478 H 408.541 -1.15044 1.42959 0
M  V30 4479 H 406.923 -3.7686 1.21624 0
M  V30 4480 H 408.097 -2.58138 3.81709 0
M  V30 4481 H 406.412 -2.46201 3.35819 0
M  V30 4482 H 409.009 -4.9287 2.07323 0
M  V30 4483 H 409.352 -4.12502 0.561025 0
M  V30 4484 H 409.885 -3.38472 2.09001 0
M  V30 4485 H 406.624 -4.30559 4.94267 0
M  V30 4486 H 406.144 -4.96664 3.36281 0
M  V30 4487 H 407.823 -5.1382 3.93189 0
M  V30 4488 N 407.956 -0.998596 -1.21925 0
M  V30 4489 C 408.906 -0.524743 -2.21879 0
M  V30 4490 C 409.89 0.41017 -1.55584 0
M  V30 4491 O 411.082 0.236063 -1.75419 0
M  V30 4492 C 408.211 0.153636 -3.42956 0
M  V30 4493 C 407.297 -0.801918 -4.16449 0
M  V30 4494 N 407.688 -1.95211 -4.66611 0
M  V30 4495 C 405.986 -0.618972 -4.41684 0
M  V30 4496 C 406.687 -2.55234 -5.22715 0
M  V30 4497 N 405.663 -1.83451 -5.1171 0
M  V30 4498 H 409.465 -1.40189 -2.58311 0
M  V30 4499 H 406.979 -0.86159 -1.3766 0
M  V30 4500 H 408.976 0.510534 -4.13762 0
M  V30 4501 H 407.636 1.02684 -3.08036 0
M  V30 4502 H 408.647 -2.33271 -4.62391 0
M  V30 4503 H 405.324 0.207694 -4.16983 0
M  V30 4504 H 406.714 -3.52471 -5.72026 0
M  V30 4505 N 409.434 1.37368 -0.772513 0
M  V30 4506 C 410.397 2.28601 -0.165541 0
M  V30 4507 C 411.397 1.48062 0.627238 0
M  V30 4508 O 412.587 1.68268 0.450715 0
M  V30 4509 C 409.719 3.32023 0.772897 0
M  V30 4510 H 410.912 2.83787 -0.969787 0
M  V30 4511 H 408.465 1.46647 -0.540775 0
M  V30 4512 H 409.2 2.81962 1.60212 0
M  V30 4513 H 408.985 3.91555 0.206585 0
M  V30 4514 H 410.475 4.00197 1.19298 0
M  V30 4515 N 410.912 0.523116 1.48665 0
M  V30 4516 C 412.161 -0.01544 2.01694 0
M  V30 4517 C 412.474 -1.35975 1.40606 0
M  V30 4518 O 413.68 -1.98627 1.85093 0
M  V30 4519 C 412.136 -0.0779303 3.59816 0
M  V30 4520 C 411.744 1.26107 4.29885 0
M  V30 4521 C 413.488 -0.565678 4.20714 0
M  V30 4522 C 411.395 1.15954 5.79921 0
M  V30 4523 H 410.325 -0.00954163 0.75394 0
M  V30 4524 H 412.976 0.665865 1.70993 0
M  V30 4525 H 411.358 -0.824165 3.87329 0
M  V30 4526 H 412.532 2.02233 4.14051 0
M  V30 4527 H 410.847 1.68401 3.80828 0
M  V30 4528 H 413.444 -0.6595 5.30617 0
M  V30 4529 H 413.787 -1.56984 3.85567 0
M  V30 4530 H 414.32 0.12467 3.97605 0
M  V30 4531 H 411.059 2.13864 6.19631 0
M  V30 4532 H 410.579 0.439529 5.98187 0
M  V30 4533 H 412.258 0.847361 6.41427 0
M  V30 4534 N 412.39 -1.55475 0.257931 0
M  V30 4535 C 413.32 -2.24815 -0.630912 0
M  V30 4536 C 414.301 -1.23224 -1.17259 0
M  V30 4537 O 415.486 -1.51904 -1.20991 0
M  V30 4538 C 412.616 -2.95609 -1.82298 0
M  V30 4539 C 411.57 -4.03982 -1.41359 0
M  V30 4540 C 410.896 -4.6226 -2.68738 0
M  V30 4541 C 412.196 -5.19109 -0.57648 0
M  V30 4542 H 413.89 -2.99354 -0.0526878 0
M  V30 4543 H 411.436 -1.4398 -0.023901 0
M  V30 4544 H 413.389 -3.42822 -2.45054 0
M  V30 4545 H 412.113 -2.18577 -2.42676 0
M  V30 4546 H 410.772 -3.57555 -0.809324 0
M  V30 4547 H 410.42 -3.81915 -3.27338 0
M  V30 4548 H 410.12 -5.35424 -2.42065 0
M  V30 4549 H 411.644 -5.12212 -3.32372 0
M  V30 4550 H 413.058 -5.62479 -1.10861 0
M  V30 4551 H 411.455 -5.98729 -0.405351 0
M  V30 4552 H 412.525 -4.83174 0.408776 0
M  V30 4553 N 413.868 0.0150385 -1.57593 0
M  V30 4554 C 414.798 1.01047 -2.10503 0
M  V30 4555 C 415.779 1.36816 -1.01071 0
M  V30 4556 O 416.964 1.45455 -1.28672 0
M  V30 4557 C 414.094 2.30708 -2.59598 0
M  V30 4558 C 413.048 2.09142 -3.73421 0
M  V30 4559 C 412.374 3.44685 -4.08774 0
M  V30 4560 C 413.674 1.46619 -5.01298 0
M  V30 4561 H 415.368 0.569978 -2.93925 0
M  V30 4562 H 412.914 0.272724 -1.41394 0
M  V30 4563 H 414.867 3.00687 -2.95238 0
M  V30 4564 H 413.591 2.76843 -1.73279 0
M  V30 4565 H 412.25 1.41592 -3.38153 0
M  V30 4566 H 411.898 3.88495 -3.195 0
M  V30 4567 H 411.598 3.31077 -4.8545 0
M  V30 4568 H 413.122 4.16004 -4.4696 0
M  V30 4569 H 414.536 2.06535 -5.34805 0
M  V30 4570 H 412.933 1.43544 -5.82679 0
M  V30 4571 H 414.003 0.433611 -4.82957 0
M  V30 4572 N 415.346 1.54954 0.287554 0
M  V30 4573 C 416.576 1.78622 1.03816 0
M  V30 4574 C 416.984 0.552451 1.80955 0
M  V30 4575 O 416.327 -0.487665 1.77109 0
M  V30 4576 C 416.389 2.94975 2.055 0
M  V30 4577 C 416.053 4.32565 1.47433 0
M  V30 4578 C 417.05 5.12096 0.897436 0
M  V30 4579 C 414.735 4.79195 1.50591 0
M  V30 4580 C 416.729 6.36383 0.359851 0
M  V30 4581 C 414.416 6.03441 0.964459 0
M  V30 4582 C 415.414 6.81872 0.392413 0
M  V30 4583 O 415.102 8.03777 -0.140788 0
M  V30 4584 H 414.834 0.599144 0.313053 0
M  V30 4585 H 417.388 2.02761 0.328225 0
M  V30 4586 H 415.618 2.66493 2.80211 0
M  V30 4587 H 417.307 3.06097 2.6657 0
M  V30 4588 H 418.073 4.77209 0.865841 0
M  V30 4589 H 413.952 4.18167 1.94055 0
M  V30 4590 H 417.496 6.97545 -0.0872951 0
M  V30 4591 H 413.393 6.37813 0.993246 0
M  V30 4592 H 414.161 8.18495 -0.0287617 0
M  V30 4593 N 416.824 -0.551391 1.4764 0
M  V30 4594 C 418.24 -0.877887 1.33287 0
M  V30 4595 C 418.44 -1.98817 0.327721 0
M  V30 4596 O 417.496 -2.51171 -0.258695 0
M  V30 4597 C 418.809 -1.26563 2.72768 0
M  V30 4598 C 420.357 -1.37673 2.81097 0
M  V30 4599 C 420.832 -1.79799 4.21232 0
M  V30 4600 N 422.323 -1.8694 4.23802 0
M  V30 4601 C 423.058 -2.20876 5.29151 0
M  V30 4602 N 422.554 -2.53386 6.448 0
M  V30 4603 N 424.347 -2.217 5.16532 0
M  V30 4604 H 416.498 0.18153 2.11623 0
M  V30 4605 H 418.761 0.0185514 0.947818 0
M  V30 4606 H 418.467 -0.523591 3.47781 0
M  V30 4607 H 418.341 -2.22052 3.04915 0
M  V30 4608 H 420.728 -2.10956 2.06353 0
M  V30 4609 H 420.809 -0.40357 2.52596 0
M  V30 4610 H 420.453 -1.07083 4.96483 0
M  V30 4611 H 420.383 -2.78128 4.4716 0
M  V30 4612 H 422.874 -1.64179 3.40373 0
M  V30 4613 H 423.187 -2.78325 7.20941 0
M  V30 4614 H 421.532 -2.50953 6.48111 0
M  V30 4615 H 424.723 -1.95745 4.25207 0
M  V30 4616 H 424.896 -2.47818 5.98741 0
M  V30 4617 N 418.302 -1.35869 -0.798587 0
M  V30 4618 C 419.718 -1.16082 -1.09532 0
M  V30 4619 C 419.918 0.0213124 -2.01489 0
M  V30 4620 O 418.974 0.689488 -2.42904 0
M  V30 4621 C 420.287 -2.46748 -1.7186 0
M  V30 4622 C 421.835 -2.53028 -1.84244 0
M  V30 4623 C 422.31 -3.83758 -2.49988 0
M  V30 4624 N 423.801 -3.85053 -2.57465 0
M  V30 4625 C 424.536 -4.8294 -3.09122 0
M  V30 4626 N 424.032 -5.91217 -3.61157 0
M  V30 4627 N 425.825 -4.70369 -3.0775 0
M  V30 4628 H 417.976 -2.11571 -0.187461 0
M  V30 4629 H 420.239 -0.936726 -0.145765 0
M  V30 4630 H 419.945 -3.33471 -1.11759 0
M  V30 4631 H 419.819 -2.61883 -2.71472 0
M  V30 4632 H 422.206 -1.66729 -2.43486 0
M  V30 4633 H 422.287 -2.418 -0.834643 0
M  V30 4634 H 421.931 -4.70459 -1.91393 0
M  V30 4635 H 421.861 -3.92278 -3.5132 0
M  V30 4636 H 424.352 -3.06822 -2.20609 0
M  V30 4637 H 424.665 -6.61892 -3.98896 0
M  V30 4638 H 423.01 -5.94899 -3.59333 0
M  V30 4639 H 426.201 -3.84914 -2.66381 0
M  V30 4640 H 426.374 -5.46816 -3.47701 0
M  V30 4641 N 419.78 1.02168 -1.19998 0
M  V30 4642 C 420.727 2.10601 -0.944228 0
M  V30 4643 C 421.697 1.65639 0.123664 0
M  V30 4644 O 422.882 1.9079 -0.0199941 0
M  V30 4645 C 420.022 3.41504 -0.496865 0
M  V30 4646 C 419.135 3.99973 -1.63234 0
M  V30 4647 C 418.27 5.18915 -1.13579 0
M  V30 4648 C 417.309 5.69456 -2.24468 0
M  V30 4649 N 416.446 6.79665 -1.76068 0
M  V30 4650 H 421.286 2.31814 -1.8726 0
M  V30 4651 H 418.823 1.13686 -0.933483 0
M  V30 4652 H 420.781 4.16626 -0.218843 0
M  V30 4653 H 419.411 3.2038 0.394508 0
M  V30 4654 H 418.463 3.21997 -2.0254 0
M  V30 4655 H 419.775 4.33492 -2.46752 0
M  V30 4656 H 418.929 6.01222 -0.813429 0
M  V30 4657 H 417.668 4.8695 -0.270434 0
M  V30 4658 H 416.673 4.85757 -2.57526 0
M  V30 4659 H 417.898 6.03459 -3.11472 0
M  V30 4660 H 415.844 6.49538 -0.918516 0
M  V30 4661 H 415.761 7.12349 -2.5317 0
M  V30 4662 H 417.029 7.65549 -1.46817 0
M  V30 4663 N 421.258 1.00505 1.21394 0
M  V30 4664 C 422.188 0.585684 2.26035 0
M  V30 4665 C 423.169 -0.393525 1.65485 0
M  V30 4666 O 424.354 -0.281497 1.92149 0
M  V30 4667 C 421.484 -0.0884283 3.47187 0
M  V30 4668 C 420.438 0.810567 4.20254 0
M  V30 4669 C 419.764 0.00286382 5.347 0
M  V30 4670 C 421.064 2.1132 4.77641 0
M  V30 4671 H 422.758 1.46039 2.61368 0
M  V30 4672 H 420.304 0.703648 1.25638 0
M  V30 4673 H 422.257 -0.393286 4.19561 0
M  V30 4674 H 420.981 -0.997766 3.10986 0
M  V30 4675 H 419.64 1.09925 3.49731 0
M  V30 4676 H 419.288 -0.907765 4.94741 0
M  V30 4677 H 418.988 0.601444 5.84514 0
M  V30 4678 H 420.512 -0.295808 6.09883 0
M  V30 4679 H 421.926 1.87148 5.41893 0
M  V30 4680 H 420.323 2.66164 5.37845 0
M  V30 4681 H 421.393 2.78393 3.9702 0
M  V30 4682 N 422.737 -1.36956 0.779787 0
M  V30 4683 C 424.014 -1.93697 0.272156 0
M  V30 4684 C 424.394 -1.71267 -1.23413 0
M  V30 4685 O 423.742 -1.06607 -2.02107 0
M  V30 4686 C 423.952 -3.42812 0.654291 0
M  V30 4687 C 425.3 -4.19921 0.628602 0
M  V30 4688 O 426.324 -3.51209 0.594172 0
M  V30 4689 O 425.183 -5.42465 0.662864 0
M  V30 4690 H 422.277 -0.824447 0.0649286 0
M  V30 4691 H 424.823 -1.46196 0.861682 0
M  V30 4692 H 423.595 -3.52754 1.69353 0
M  V30 4693 H 423.218 -3.97582 0.0381369 0
M  V30 4694 N 424.215 -0.530993 -1.48385 0
M  V30 4695 C 425.631 -0.188919 -1.58478 0
M  V30 4696 C 425.831 1.30786 -1.53288 0
M  V30 4697 O 424.887 2.08619 -1.42248 0
M  V30 4698 C 426.2 -0.792343 -2.90073 0
M  V30 4699 C 427.748 -0.76117 -3.03604 0
M  V30 4700 C 428.223 -1.34319 -4.37861 0
M  V30 4701 N 429.714 -1.3052 -4.44431 0
M  V30 4702 C 430.449 -1.72543 -5.46824 0
M  V30 4703 N 429.945 -2.22299 -6.56167 0
M  V30 4704 N 431.738 -1.63773 -5.37712 0
M  V30 4705 H 423.889 -1.50377 -1.50002 0
M  V30 4706 H 426.152 -0.625559 -0.712306 0
M  V30 4707 H 425.858 -1.84323 -2.99529 0
M  V30 4708 H 425.732 -0.270026 -3.76232 0
M  V30 4709 H 428.119 0.280957 -2.93759 0
M  V30 4710 H 428.2 -1.32097 -2.19053 0
M  V30 4711 H 427.844 -2.38425 -4.4846 0
M  V30 4712 H 427.774 -0.759064 -5.21101 0
M  V30 4713 H 430.265 -0.940973 -3.65997 0
M  V30 4714 H 430.578 -2.52356 -7.30436 0
M  V30 4715 H 428.923 -2.26293 -6.57127 0
M  V30 4716 H 432.114 -1.24698 -4.51185 0
M  V30 4717 H 432.287 -1.96844 -6.17379 0
M  V30 4718 N 425.693 1.55336 -0.266172 0
M  V30 4719 C 426.603 2.2583 0.635458 0
M  V30 4720 C 427.619 1.28106 1.17749 0
M  V30 4721 O 428.795 1.61024 1.20968 0
M  V30 4722 C 425.86 2.95879 1.80712 0
M  V30 4723 C 424.921 4.09059 1.30265 0
M  V30 4724 C 424.154 4.75759 2.41846 0
M  V30 4725 O 424.377 4.41622 3.61007 0
M  V30 4726 O 423.311 5.63888 2.1051 0
M  V30 4727 H 427.137 3.03631 0.0646693 0
M  V30 4728 H 424.722 1.49361 -0.0339177 0
M  V30 4729 H 426.604 3.39932 2.49047 0
M  V30 4730 H 425.279 2.21002 2.36516 0
M  V30 4731 H 424.186 3.69482 0.586019 0
M  V30 4732 H 425.519 4.85811 0.790458 0
M  V30 4733 N 427.171 -0.0066808 1.57599 0
M  V30 4734 C 428.081 -1.01671 2.11424 0
M  V30 4735 C 429.097 -1.38143 1.05795 0
M  V30 4736 O 430.273 -1.47011 1.37658 0
M  V30 4737 C 427.338 -2.29192 2.60139 0
M  V30 4738 C 426.399 -1.99094 3.80342 0
M  V30 4739 C 425.632 -3.20535 4.26724 0
M  V30 4740 O 425.855 -4.3199 3.72479 0
M  V30 4741 O 424.789 -3.04924 5.18946 0
M  V30 4742 H 428.615 -0.589181 2.9793 0
M  V30 4743 H 426.2 -0.225091 1.47695 0
M  V30 4744 H 428.082 -3.0412 2.917 0
M  V30 4745 H 426.757 -2.71195 1.76733 0
M  V30 4746 H 425.664 -1.21663 3.53764 0
M  V30 4747 H 426.997 -1.61931 4.648 0
M  V30 4748 N 428.649 -1.55105 -0.279332 0
M  V30 4749 C 429.898 -1.74618 -1.00952 0
M  V30 4750 C 430.211 -0.551096 -1.87676 0
M  V30 4751 O 431.417 -0.628507 -2.64125 0
M  V30 4752 C 429.873 -3.09025 -1.84476 0
M  V30 4753 C 429.481 -4.36081 -1.0265 0
M  V30 4754 C 431.225 -3.37891 -2.56963 0
M  V30 4755 C 429.132 -5.6153 -1.85576 0
M  V30 4756 H 428.062 -0.650868 -0.38064 0
M  V30 4757 H 430.713 -1.81569 -0.265475 0
M  V30 4758 H 429.095 -2.96095 -2.62952 0
M  V30 4759 H 430.269 -4.59909 -0.286354 0
M  V30 4760 H 428.584 -4.14312 -0.416464 0
M  V30 4761 H 431.181 -4.28822 -3.19399 0
M  V30 4762 H 431.524 -2.57737 -3.26921 0
M  V30 4763 H 432.057 -3.5189 -1.85522 0
M  V30 4764 H 428.796 -6.44413 -1.2005 0
M  V30 4765 H 428.316 -5.41854 -2.57204 0
M  V30 4766 H 429.995 -5.99594 -2.43096 0
M  V30 4767 N 430.127 0.543554 -1.4793 0
M  V30 4768 C 431.074 1.64942 -1.6144 0
M  V30 4769 C 432.044 1.59692 -0.456903 0
M  V30 4770 O 433.229 1.78321 -0.678688 0
M  V30 4771 C 430.369 3.03238 -1.64744 0
M  V30 4772 C 429.482 3.18823 -2.91506 0
M  V30 4773 C 428.617 4.47599 -2.86057 0
M  V30 4774 C 427.656 4.56664 -4.07584 0
M  V30 4775 N 426.793 5.76811 -4.00292 0
M  V30 4776 H 431.633 1.52733 -2.55884 0
M  V30 4777 H 429.17 0.7438 -1.2691 0
M  V30 4778 H 431.128 3.83339 -1.64641 0
M  V30 4779 H 429.758 3.1425 -0.738017 0
M  V30 4780 H 428.81 2.32064 -3.01414 0
M  V30 4781 H 430.122 3.21384 -3.81463 0
M  V30 4782 H 429.276 5.35975 -2.84281 0
M  V30 4783 H 428.015 4.47538 -1.93807 0
M  V30 4784 H 427.02 3.66697 -4.09651 0
M  V30 4785 H 428.245 4.58474 -5.00978 0
M  V30 4786 H 426.191 5.77673 -3.10853 0
M  V30 4787 H 426.108 5.80808 -4.8394 0
M  V30 4788 H 427.376 6.67512 -4.02553 0
M  V30 4789 N 431.605 1.3629 0.791371 0
M  V30 4790 C 433.016 1.27225 1.36641 0
M  V30 4791 C 433.367 -0.0887968 1.95999 0
M  V30 4792 O 432.492 -0.990207 1.92416 0
M  V30 4793 C 433.087 2.30375 2.48421 0
M  V30 4794 C 431.646 2.25004 3.01746 0
M  V30 4795 C 430.793 2.15259 1.7481 0
M  V30 4796 H 433.744 1.47198 0.593173 0
M  V30 4797 H 433.765 1.93905 3.27385 0
M  V30 4798 H 433.277 3.29422 2.05189 0
M  V30 4799 H 431.378 1.29417 3.49403 0
M  V30 4800 H 431.491 3.1761 3.58693 0
M  V30 4801 H 429.855 1.61482 1.96966 0
M  V30 4802 H 430.638 3.16191 1.33709 0
M  V30 4803 N 433.083 -1.0153 1.20538 0
M  V30 4804 C 434.332 -1.74558 1.01057 0
M  V30 4805 C 434.645 -1.90168 -0.457756 0
M  V30 4806 O 435.851 -2.60301 -0.771722 0
M  V30 4807 C 434.307 -3.13963 1.75941 0
M  V30 4808 C 433.915 -3.06361 3.26875 0
M  V30 4809 C 435.659 -3.91191 1.64832 0
M  V30 4810 C 433.566 -4.40782 3.94291 0
M  V30 4811 H 432.496 -0.654417 0.374505 0
M  V30 4812 H 435.147 -1.13521 1.44171 0
M  V30 4813 H 433.529 -3.75549 1.25614 0
M  V30 4814 H 434.703 -2.54074 3.84425 0
M  V30 4815 H 433.018 -2.42625 3.38411 0
M  V30 4816 H 435.615 -4.90644 2.12539 0
M  V30 4817 H 435.958 -4.11884 0.604745 0
M  V30 4818 H 436.491 -3.36236 2.12579 0
M  V30 4819 H 433.23 -4.25292 4.98805 0
M  V30 4820 H 432.75 -4.9307 3.41529 0
M  V30 4821 H 434.429 -5.09621 3.98617 0
M  V30 4822 N 434.561 -1.01147 -1.20859 0
M  V30 4823 C 435.977 -0.725422 -1.42161 0
M  V30 4824 C 436.177 0.696919 -1.89064 0
M  V30 4825 O 435.233 1.46539 -2.05627 0
M  V30 4826 C 436.546 -1.74678 -2.44761 0
M  V30 4827 C 438.094 -1.76433 -2.58535 0
M  V30 4828 C 438.569 -2.77481 -3.64374 0
M  V30 4829 N 440.06 -2.76189 -3.71852 0
M  V30 4830 C 440.795 -3.51035 -4.53389 0
M  V30 4831 N 440.291 -4.35541 -5.38773 0
M  V30 4832 N 442.084 -3.39655 -4.47873 0
M  V30 4833 H 434.235 -1.92979 -0.887282 0
M  V30 4834 H 436.498 -0.833327 -0.451962 0
M  V30 4835 H 436.204 -2.76551 -2.17285 0
M  V30 4836 H 436.078 -1.55472 -3.43669 0
M  V30 4837 H 438.465 -0.75248 -2.85345 0
M  V30 4838 H 438.546 -1.99712 -1.5984 0
M  V30 4839 H 438.19 -3.78827 -3.38308 0
M  V30 4840 H 438.12 -2.51466 -4.6268 0
M  V30 4841 H 440.611 -2.14885 -3.10858 0
M  V30 4842 H 440.924 -4.89432 -5.98061 0
M  V30 4843 H 439.269 -4.39621 -5.38292 0
M  V30 4844 H 442.46 -2.73063 -3.80203 0
M  V30 4845 H 442.633 -3.9824 -5.11184 0
M  V30 4846 N 436.039 1.36541 -0.78704 0
M  V30 4847 C 436.969 2.32659 -0.197992 0
M  V30 4848 C 437.95 1.56533 0.665697 0
M  V30 4849 O 439.135 1.84698 0.60001 0
M  V30 4850 C 436.265 3.40778 0.669901 0
M  V30 4851 C 435.219 4.27897 -0.0937039 0
M  V30 4852 C 434.545 5.27163 0.894629 0
M  V30 4853 C 435.845 5.06334 -1.28154 0
M  V30 4854 H 437.539 2.82171 -1.00099 0
M  V30 4855 H 435.085 1.35665 -0.482793 0
M  V30 4856 H 437.038 4.07008 1.09191 0
M  V30 4857 H 435.762 2.89827 1.50558 0
M  V30 4858 H 434.421 3.6322 -0.49666 0
M  V30 4859 H 434.069 4.72486 1.72527 0
M  V30 4860 H 433.769 5.86317 0.388149 0
M  V30 4861 H 435.293 5.96266 1.31525 0
M  V30 4862 H 436.707 5.65617 -0.93541 0
M  V30 4863 H 435.104 5.74888 -1.72115 0
M  V30 4864 H 436.174 4.38114 -2.07807 0
M  V30 4865 N 437.518 0.538854 1.48102 0
M  V30 4866 C 438.448 -0.207654 2.32575 0
M  V30 4867 C 439.429 -0.926559 1.4265 0
M  V30 4868 O 440.614 -0.91061 1.71527 0
M  V30 4869 C 437.744 -1.24957 3.24042 0
M  V30 4870 C 436.698 -0.648263 4.23062 0
M  V30 4871 C 436.024 -1.79348 5.03725 0
M  V30 4872 C 437.324 0.385897 5.20872 0
M  V30 4873 H 439.018 0.497534 2.95237 0
M  V30 4874 H 436.564 0.240715 1.41974 0
M  V30 4875 H 438.517 -1.77983 3.81969 0
M  V30 4876 H 437.241 -1.98446 2.59397 0
M  V30 4877 H 435.9 -0.139452 3.66335 0
M  V30 4878 H 435.548 -2.51696 4.35498 0
M  V30 4879 H 435.248 -1.39702 5.70751 0
M  V30 4880 H 436.772 -2.32735 5.64506 0
M  V30 4881 H 438.186 -0.057607 5.73271 0
M  V30 4882 H 436.583 0.700227 5.96001 0
M  V30 4883 H 437.653 1.28848 4.67468 0
M  V30 4884 N 438.996 -1.55193 0.274407 0
M  V30 4885 C 440.244 -1.99187 -0.341902 0
M  V30 4886 C 440.565 -1.16422 -1.56431 0
M  V30 4887 O 439.835 -0.253573 -1.94252 0
M  V30 4888 H 438.415 -0.735721 -0.129317 0
M  V30 4889 H 441.077 -1.91168 0.379578 0
M  V30 4890 H 440.173 -3.05629 -0.632253 0
M  V30 4891 N 440.474 -0.00167713 -1.576 0
M  V30 4892 C 441.699 0.69739 -1.95323 0
M  V30 4893 C 442.124 1.6642 -0.876706 0
M  V30 4894 O 441.482 1.80548 0.165007 0
M  V30 4895 C 441.53 1.40403 -3.32144 0
M  V30 4896 O 440.634 2.5185 -3.26566 0
M  V30 4897 H 439.975 0.185373 -0.637599 0
M  V30 4898 H 442.505 -0.0553665 -2.04525 0
M  V30 4899 H 442.515 1.76707 -3.67748 0
M  V30 4900 H 441.19 0.695167 -4.10049 0
M  V30 4901 H 439.767 2.17861 -3.0264 0
M  V30 4902 N 441.952 1.55251 0.271103 0
M  V30 4903 C 443.18 1.79974 1.02064 0
M  V30 4904 C 443.595 0.574003 1.79863 0
M  V30 4905 O 442.952 -0.456962 1.76686 0
M  V30 4906 C 443.003 3.02603 1.97772 0
M  V30 4907 O 442.724 4.20443 1.23124 0
M  V30 4908 C 444.225 3.39944 2.84522 0
M  V30 4909 H 441.445 0.599489 0.301419 0
M  V30 4910 H 443.989 2.02268 0.301313 0
M  V30 4911 H 442.144 2.8243 2.65165 0
M  V30 4912 H 442.558 4.89783 1.87651 0
M  V30 4913 H 444.032 4.28915 3.47471 0
M  V30 4914 H 444.509 2.59432 3.54389 0
M  V30 4915 H 445.115 3.62383 2.22618 0
M  V30 4916 N 443.43 -0.535701 1.48216 0
M  V30 4917 C 444.679 -1.28828 1.55197 0
M  V30 4918 C 444.992 -1.94263 0.228278 0
M  V30 4919 O 446.198 -2.70927 0.176278 0
M  V30 4920 C 444.654 -2.33727 2.73678 0
M  V30 4921 C 444.262 -1.74386 4.12666 0
M  V30 4922 C 446.006 -3.1003 2.89968 0
M  V30 4923 C 443.913 -2.77192 5.22416 0
M  V30 4924 H 442.843 -0.484484 0.577747 0
M  V30 4925 H 445.494 -0.56646 1.74538 0
M  V30 4926 H 443.876 -3.08919 2.4776 0
M  V30 4927 H 445.05 -1.05421 4.48579 0
M  V30 4928 H 443.365 -1.10595 4.01445 0
M  V30 4929 H 445.962 -3.86842 3.6913 0
M  V30 4930 H 446.305 -3.65542 1.9921 0
M  V30 4931 H 446.838 -2.41952 3.15759 0
M  V30 4932 H 443.577 -2.26507 6.15122 0
M  V30 4933 H 443.097 -3.44502 4.90998 0
M  V30 4934 H 444.776 -3.40285 5.50286 0
M  V30 4935 N 444.908 -1.36708 -0.784132 0
M  V30 4936 C 446.319 -1.27947 -1.35965 0
M  V30 4937 C 446.67 0.0784013 -1.96043 0
M  V30 4938 O 445.795 0.979989 -1.92938 0
M  V30 4939 C 446.39 -2.31689 -2.47195 0
M  V30 4940 C 444.949 -2.26601 -3.00548 0
M  V30 4941 C 444.096 -2.16184 -1.73666 0
M  V30 4942 H 447.047 -1.4751 -0.585358 0
M  V30 4943 H 447.068 -1.95638 -3.26352 0
M  V30 4944 H 446.58 -3.30506 -2.03439 0
M  V30 4945 H 444.681 -1.31268 -3.48711 0
M  V30 4946 H 444.794 -3.19508 -3.57004 0
M  V30 4947 H 443.158 -1.62524 -1.96107 0
M  V30 4948 H 443.941 -3.16896 -1.32031 0
M  V30 4949 N 446.386 1.0089 -1.21074 0
M  V30 4950 C 447.316 2.1145 -0.990523 0
M  V30 4951 C 448.297 1.69897 0.0831699 0
M  V30 4952 O 449.482 1.94052 -0.0758853 0
M  V30 4953 C 446.612 3.42914 -0.550177 0
M  V30 4954 C 445.566 3.98244 -1.56799 0
M  V30 4955 C 444.892 5.25568 -0.984013 0
M  V30 4956 C 446.192 4.30752 -2.95381 0
M  V30 4957 H 447.886 2.3013 -1.91521 0
M  V30 4958 H 445.432 1.10592 -0.92225 0
M  V30 4959 H 447.385 4.19653 -0.383305 0
M  V30 4960 H 446.109 3.24014 0.41015 0
M  V30 4961 H 444.768 3.23621 -1.72236 0
M  V30 4962 H 444.416 5.02998 -0.0155216 0
M  V30 4963 H 444.116 5.63551 -1.66384 0
M  V30 4964 H 445.64 6.04955 -0.828378 0
M  V30 4965 H 447.054 4.98349 -2.8341 0
M  V30 4966 H 445.451 4.79869 -3.60341 0
M  V30 4967 H 446.521 3.39192 -3.46521 0
M  V30 4968 N 447.864 1.01787 1.20321 0
M  V30 4969 C 449.104 0.716493 1.91431 0
M  V30 4970 C 449.468 -0.740352 1.77152 0
M  V30 4971 O 450.669 -1.1543 2.42754 0
M  V30 4972 C 448.94 1.14169 3.38674 0
M  V30 4973 S 450.499 0.962482 4.28114 0
M  V30 4974 H 447.317 0.261175 0.661293 0
M  V30 4975 H 449.919 1.30539 1.45533 0
M  V30 4976 H 448.623 2.19784 3.46588 0
M  V30 4977 H 448.154 0.545621 3.89598 0
M  V30 4978 H 450.169 -0.133253 4.96021 0
M  V30 4979 N 449.342 -1.36122 0.79427 0
M  V30 4980 C 450.567 -2.03891 0.379871 0
M  V30 4981 C 450.992 -1.59488 -0.997251 0
M  V30 4982 O 450.35 -0.765652 -1.64339 0
M  V30 4983 C 450.398 -3.57687 0.457442 0
M  V30 4984 O 449.502 -4.08931 -0.5338 0
M  V30 4985 H 448.843 -0.6443 0.160541 0
M  V30 4986 H 451.373 -1.73976 1.07673 0
M  V30 4987 H 451.383 -4.06721 0.322792 0
M  V30 4988 H 450.058 -3.89357 1.46199 0
M  V30 4989 H 448.635 -3.71154 -0.360409 0
M  V30 4990 N 450.82 -0.546701 -1.47814 0
M  V30 4991 C 451.783 0.196287 -2.28358 0
M  V30 4992 C 452.783 0.852437 -1.36346 0
M  V30 4993 O 453.973 0.709913 -1.59078 0
M  V30 4994 C 451.105 1.28579 -3.15722 0
M  V30 4995 H 452.298 -0.511086 -2.95513 0
M  V30 4996 H 449.851 -0.303248 -1.5333 0
M  V30 4997 H 450.586 2.0259 -2.53235 0
M  V30 4998 H 450.371 0.820229 -3.83425 0
M  V30 4999 H 451.861 1.80793 -3.76435 0
M  V30 5000 N 452.299 1.55045 -0.282633 0
M  V30 5001 C 453.231 2.2023 0.634924 0
M  V30 5002 C 454.244 1.18931 1.11172 0
M  V30 5003 O 455.433 1.4562 1.03233 0
M  V30 5004 C 452.533 2.82041 1.87899 0
M  V30 5005 C 451.706 4.091 1.54776 0
M  V30 5006 C 450.765 4.54887 2.64507 0
M  V30 5007 O 449.791 5.20496 2.30375 0
M  V30 5008 N 450.993 4.25659 3.94709 0
M  V30 5009 H 453.758 2.99601 0.0769811 0
M  V30 5010 H 451.319 1.61565 -0.104048 0
M  V30 5011 H 453.311 3.09613 2.60619 0
M  V30 5012 H 451.881 2.06618 2.3458 0
M  V30 5013 H 451.101 3.88736 0.654049 0
M  V30 5014 H 452.389 4.9187 1.30158 0
M  V30 5015 H 451.787 3.7306 4.25256 0
M  V30 5016 H 450.344 4.57984 4.63782 0
M  V30 5017 N 453.777 0.010035 1.57597 0
M  V30 5018 C 455.023 -0.668011 1.92118 0
M  V30 5019 C 455.378 -1.70821 0.885328 0
M  V30 5020 O 454.671 -1.91333 -0.101187 0
M  V30 5021 C 454.865 -1.34434 3.31153 0
M  V30 5022 C 454.694 -0.371176 4.48166 0
M  V30 5023 C 453.464 0.0220686 5.05295 0
M  V30 5024 C 455.662 0.366731 5.12991 0
M  V30 5025 N 453.644 0.9924 6.05826 0
M  V30 5026 C 455.015 1.19142 6.08445 0
M  V30 5027 C 457.07 0.429489 4.96044 0
M  V30 5028 C 455.773 2.07317 6.88776 0
M  V30 5029 C 457.799 1.2985 5.76969 0
M  V30 5030 C 457.161 2.11101 6.72023 0
M  V30 5031 H 453.26 -0.217337 0.751192 0
M  V30 5032 H 455.844 0.0727375 1.94564 0
M  V30 5033 H 454.015 -2.05533 3.29561 0
M  V30 5034 H 455.747 -1.97789 3.53075 0
M  V30 5035 H 452.502 -0.348409 4.72317 0
M  V30 5036 H 452.926 1.47324 6.60776 0
M  V30 5037 H 457.568 -0.18442 4.22398 0
M  V30 5038 H 455.286 2.69771 7.61741 0
M  V30 5039 H 458.872 1.3511 5.65894 0
M  V30 5040 H 457.752 2.77257 7.33552 0
M  V30 5041 N 455.255 -1.55392 -0.262866 0
M  V30 5042 C 456.165 -1.92077 -1.34698 0
M  V30 5043 C 457.181 -0.819227 -1.53508 0
M  V30 5044 O 458.357 -1.11921 -1.67439 0
M  V30 5045 C 455.422 -2.19407 -2.68443 0
M  V30 5046 C 454.483 -3.42905 -2.58292 0
M  V30 5047 C 453.716 -3.68921 -3.85659 0
M  V30 5048 O 453.939 -2.97275 -4.8681 0
M  V30 5049 O 452.873 -4.62455 -3.85252 0
M  V30 5050 H 456.699 -2.84384 -1.06581 0
M  V30 5051 H 454.284 -1.42069 -0.462264 0
M  V30 5052 H 456.166 -2.38365 -3.47506 0
M  V30 5053 H 454.841 -1.30282 -2.96325 0
M  V30 5054 H 453.748 -3.29272 -1.7757 0
M  V30 5055 H 455.081 -4.32282 -2.35358 0
M  V30 5056 N 456.733 0.527833 -1.48498 0
M  V30 5057 C 458.149 0.856571 -1.34666 0
M  V30 5058 C 458.349 1.98271 -0.35931 0
M  V30 5059 O 457.405 2.51551 0.218703 0
M  V30 5060 C 458.718 1.22207 -2.74747 0
M  V30 5061 C 460.266 1.33183 -2.83251 0
M  V30 5062 C 460.741 1.73075 -4.24039 0
M  V30 5063 N 462.232 1.80174 -4.26722 0
M  V30 5064 C 462.967 2.1243 -5.32598 0
M  V30 5065 N 462.463 2.43096 -6.4875 0
M  V30 5066 N 464.256 2.13454 -5.19994 0
M  V30 5067 H 456.407 -0.215174 -2.11307 0
M  V30 5068 H 458.67 -0.0336281 -0.947403 0
M  V30 5069 H 458.376 0.468195 -3.4857 0
M  V30 5070 H 458.25 2.17173 -3.08409 0
M  V30 5071 H 460.637 2.07647 -2.09683 0
M  V30 5072 H 460.718 0.363333 -2.53206 0
M  V30 5073 H 460.362 0.991712 -4.98124 0
M  V30 5074 H 460.292 2.70979 -4.51529 0
M  V30 5075 H 462.783 1.58744 -3.42942 0
M  V30 5076 H 463.096 2.6682 -7.25277 0
M  V30 5077 H 461.441 2.40611 -6.52021 0
M  V30 5078 H 464.632 1.88956 -4.28268 0
M  V30 5079 H 464.805 2.38261 -6.02608 0
M  V30 5080 N 458.211 1.37122 0.776871 0
M  V30 5081 C 459.144 1.26835 1.89705 0
M  V30 5082 C 460.122 0.14992 1.61907 0
M  V30 5083 O 461.306 0.323242 1.85708 0
M  V30 5084 C 458.433 0.95986 3.24814 0
M  V30 5085 C 457.479 2.09447 3.7153 0
M  V30 5086 S 458.312 3.71368 3.85806 0
M  V30 5087 C 459.468 3.42659 5.23771 0
M  V30 5088 H 459.701 2.21647 1.98141 0
M  V30 5089 H 457.234 1.22685 0.937433 0
M  V30 5090 H 459.192 0.788696 4.02852 0
M  V30 5091 H 457.853 0.0293137 3.14086 0
M  V30 5092 H 457.046 1.8335 4.69467 0
M  V30 5093 H 456.648 2.2255 3.00578 0
M  V30 5094 H 458.94 2.9733 6.0877 0
M  V30 5095 H 459.883 4.39905 5.54878 0
M  V30 5096 H 460.291 2.77708 4.91466 0
M  V30 5097 N 459.689 -1.00246 1.21608 0
M  V30 5098 C 460.936 -1.74061 1.03485 0
M  V30 5099 C 461.264 -1.89658 -0.431308 0
M  V30 5100 O 460.519 -1.42976 -1.33627 0
M  V30 5101 C 460.818 -3.15448 1.68009 0
M  V30 5102 C 460.484 -3.19792 3.17874 0
M  V30 5103 C 459.146 -3.20685 3.58768 0
M  V30 5104 C 461.498 -3.16835 4.13842 0
M  V30 5105 C 458.826 -3.16309 4.94131 0
M  V30 5106 C 461.178 -3.14001 5.49169 0
M  V30 5107 C 459.842 -3.13204 5.89457 0
M  V30 5108 H 459.112 -0.636934 0.378677 0
M  V30 5109 H 461.759 -1.17473 1.51236 0
M  V30 5110 H 460.064 -3.75284 1.12557 0
M  V30 5111 H 461.761 -3.71285 1.51487 0
M  V30 5112 H 458.351 -3.19842 2.85305 0
M  V30 5113 H 462.535 -3.15303 3.83272 0
M  V30 5114 H 457.791 -3.14032 5.24589 0
M  V30 5115 H 461.965 -3.10667 6.23265 0
M  V30 5116 H 459.592 -3.09568 6.94314 0
M  V30 5117 N 461.167 -1.02423 -1.1978 0
M  V30 5118 C 462.115 -0.594474 -2.24875 0
M  V30 5119 C 463.109 0.370598 -1.65296 0
M  V30 5120 O 464.315 0.239684 -1.78397 0
M  V30 5121 H 460.69 -0.173961 -0.731602 0
M  V30 5122 H 462.661 -1.4916 -2.58445 0
M  V30 5123 C 461.41 0.0436512 -3.47673 0
M  V30 5124 H 460.733 -0.689963 -3.93801 0
M  V30 5125 H 462.173 0.307362 -4.22884 0
M  V30 5126 C 460.632 1.28881 -3.11274 0
M  V30 5127 O 461.162 2.38135 -3.23503 0
M  V30 5128 N 459.368 1.1758 -2.6575 0
M  V30 5129 H 458.915 0.286769 -2.55999 0
M  V30 5130 H 458.873 2.00988 -2.41767 0
M  V30 5131 N 462.645 1.35699 -0.801477 0
M  V30 5132 C 463.873 2.03157 -0.391768 0
M  V30 5133 C 464.288 1.60412 0.995668 0
M  V30 5134 O 463.645 0.799228 1.64069 0
M  V30 5135 C 463.696 3.58566 -0.459671 0
M  V30 5136 O 463.417 3.99756 -1.7924 0
M  V30 5137 C 464.918 4.4328 -0.0421205 0
M  V30 5138 H 462.138 0.651688 -0.159825 0
M  V30 5139 H 464.682 1.73426 -1.08368 0
M  V30 5140 H 462.837 3.86963 0.183939 0
M  V30 5141 H 463.251 4.94387 -1.75162 0
M  V30 5142 H 464.725 5.51821 -0.140754 0
M  V30 5143 H 465.202 4.27383 1.01196 0
M  V30 5144 H 465.808 4.20168 -0.658687 0
M  V30 5145 N 464.123 0.554532 1.47522 0
M  V30 5146 C 465.348 0.0322661 2.07375 0
M  V30 5147 C 465.773 -1.25079 1.40488 0
M  V30 5148 O 465.131 -1.74859 0.47896 0
M  V30 5149 C 465.179 -0.149397 3.6029 0
M  V30 5150 O 464.283 -1.21259 3.9417 0
M  V30 5151 H 463.624 0.0501228 0.662106 0
M  V30 5152 H 466.154 0.769452 1.8958 0
M  V30 5153 H 466.164 -0.364437 4.06369 0
M  V30 5154 H 464.839 0.787743 4.08372 0
M  V30 5155 H 463.416 -0.97825 3.5984 0
M  V30 5156 N 465.601 -1.54893 0.290851 0
M  V30 5157 C 467.017 -1.59476 -0.0628432 0
M  V30 5158 C 467.217 -1.30795 -1.5328 0
M  V30 5159 O 466.273 -1.07644 -2.28406 0
M  V30 5160 C 467.586 -2.98928 0.325962 0
M  V30 5161 C 469.134 -3.11799 0.273882 0
M  V30 5162 C 469.609 -4.53544 0.637359 0
M  V30 5163 N 471.1 -4.59433 0.589507 0
M  V30 5164 C 471.835 -5.67164 0.84335 0
M  V30 5165 N 471.331 -6.82975 1.16263 0
M  V30 5166 N 473.124 -5.56786 0.771091 0
M  V30 5167 H 465.275 -1.71798 1.24896 0
M  V30 5168 H 467.538 -0.801879 0.505663 0
M  V30 5169 H 467.244 -3.24805 1.34887 0
M  V30 5170 H 467.118 -3.75793 -0.325441 0
M  V30 5171 H 469.505 -2.85677 -0.739765 0
M  V30 5172 H 469.586 -2.37112 0.959766 0
M  V30 5173 H 469.23 -4.80394 1.64877 0
M  V30 5174 H 469.16 -5.26553 -0.0704866 0
M  V30 5175 H 471.651 -3.76245 0.353252 0
M  V30 5176 H 471.964 -7.61048 1.34257 0
M  V30 5177 H 470.309 -6.84552 1.20057 0
M  V30 5178 H 473.5 -4.65187 0.521383 0
M  V30 5179 H 473.673 -6.40664 0.972295 0
M  V30 5180 N 467.08 -0.0183926 -1.57589 0
M  V30 5181 C 468.329 0.66185 -1.90532 0
M  V30 5182 C 468.642 1.73904 -0.895366 0
M  V30 5183 O 469.848 2.47518 -1.11566 0
M  V30 5184 C 468.304 1.22844 -3.38286 0
M  V30 5185 C 467.912 0.185103 -4.47617 0
M  V30 5186 C 469.656 1.88581 -3.80312 0
M  V30 5187 C 467.563 0.762723 -5.86461 0
M  V30 5188 H 466.493 0.250972 -0.711006 0
M  V30 5189 H 469.144 -0.0819435 -1.83317 0
M  V30 5190 H 467.526 2.0235 -3.40398 0
M  V30 5191 H 468.7 -0.58671 -4.5705 0
M  V30 5192 H 467.015 -0.372889 -4.14727 0
M  V30 5193 H 469.612 2.32735 -4.81392 0
M  V30 5194 H 469.955 2.72408 -3.14801 0
M  V30 5195 H 470.488 1.15782 -3.80578 0
M  V30 5196 H 467.227 -0.0371713 -6.55489 0
M  V30 5197 H 466.747 1.50327 -5.80656 0
M  V30 5198 H 468.426 1.25576 -6.34697 0
M  V30 5199 N 468.558 1.5553 0.254621 0
M  V30 5200 C 469.969 1.67518 0.824286 0
M  V30 5201 C 470.32 0.614429 1.86331 0
M  V30 5202 O 469.445 -0.240736 2.15057 0
M  V30 5203 C 470.04 3.03692 1.50189 0
M  V30 5204 C 468.599 3.17646 2.01935 0
M  V30 5205 C 467.746 2.63373 0.867746 0
M  V30 5206 H 470.697 1.58671 0.0305843 0
M  V30 5207 H 470.718 2.97706 2.36962 0
M  V30 5208 H 470.23 3.80874 0.745431 0
M  V30 5209 H 468.331 2.45273 2.80485 0
M  V30 5210 H 468.444 4.24455 2.22204 0
M  V30 5211 H 466.808 2.20999 1.26616 0
M  V30 5212 H 467.591 3.43074 0.124498 0
M  V30 5213 N 470.036 -0.519951 1.48776 0
M  V30 5214 C 471.284 -1.2727 1.56993 0
M  V30 5215 C 471.605 -1.9339 0.25004 0
M  V30 5216 O 470.875 -1.81822 -0.729216 0
M  V30 5217 H 469.455 -0.472732 0.578389 0
M  V30 5218 H 472.117 -0.604234 1.85297 0
M  V30 5219 H 471.213 -2.04669 2.3562 0
M  V30 5220 N 471.514 -1.37532 -0.769588 0
M  V30 5221 C 472.424 -1.35668 -1.91393 0
M  V30 5222 C 473.44 -0.255954 -1.72107 0
M  V30 5223 O 474.616 -0.491704 -1.95305 0
M  V30 5224 C 471.681 -1.16481 -3.26547 0
M  V30 5225 C 470.742 -2.36212 -3.58472 0
M  V30 5226 C 469.975 -2.17932 -4.87177 0
M  V30 5227 O 470.198 -1.1647 -5.58382 0
M  V30 5228 O 469.132 -3.06167 -5.18214 0
M  V30 5229 H 472.958 -2.32055 -1.95918 0
M  V30 5230 H 470.543 -1.18284 -0.912641 0
M  V30 5231 H 472.425 -1.07778 -4.07384 0
M  V30 5232 H 471.1 -0.231687 -3.2287 0
M  V30 5233 H 470.007 -2.50488 -2.77861 0
M  V30 5234 H 471.34 -3.281 -3.66894 0
M  V30 5235 N 472.992 0.995999 -1.22138 0
M  V30 5236 C 473.902 2.11985 -1.00496 0
M  V30 5237 C 474.918 1.7394 0.0457701 0
M  V30 5238 O 476.094 2.00868 -0.146273 0
M  V30 5239 C 473.159 3.41779 -0.582086 0
M  V30 5240 C 472.22 3.93943 -1.70608 0
M  V30 5241 C 471.453 5.17542 -1.30328 0
M  V30 5242 O 471.676 5.70114 -0.180743 0
M  V30 5243 O 470.61 5.63382 -2.11861 0
M  V30 5244 H 474.436 2.33123 -1.94647 0
M  V30 5245 H 472.021 1.10358 -1.00705 0
M  V30 5246 H 473.903 4.1989 -0.356467 0
M  V30 5247 H 472.578 3.22007 0.330592 0
M  V30 5248 H 471.485 3.17019 -1.98619 0
M  V30 5249 H 472.818 4.18141 -2.59651 0
M  V30 5250 N 474.47 1.03057 1.19235 0
M  V30 5251 C 475.698 0.747697 1.92917 0
M  V30 5252 C 476.113 -0.69372 1.75593 0
M  V30 5253 O 475.47 -1.47191 1.07894 0
M  V30 5254 C 475.521 1.09159 3.44625 0
M  V30 5255 O 475.242 2.47641 3.61394 0
M  V30 5256 C 476.743 0.831763 4.35427 0
M  V30 5257 H 473.963 0.273453 0.612751 0
M  V30 5258 H 476.507 1.37552 1.51327 0
M  V30 5259 H 474.662 0.508919 3.84043 0
M  V30 5260 H 475.076 2.60499 4.55237 0
M  V30 5261 H 476.55 1.12233 5.4047 0
M  V30 5262 H 477.027 -0.233769 4.38577 0
M  V30 5263 H 477.633 1.39725 4.01693 0
M  V30 5264 N 475.948 -1.35272 0.808662 0
M  V30 5265 C 477.225 -1.93077 0.313181 0
M  V30 5266 C 477.605 -1.73847 -1.19752 0
M  V30 5267 O 476.953 -1.1087 -1.998 0
M  V30 5268 C 477.163 -3.41347 0.726859 0
M  V30 5269 C 478.511 -4.18493 0.717532 0
M  V30 5270 O 479.535 -3.4987 0.668535 0
M  V30 5271 O 478.394 -5.40937 0.777779 0
M  V30 5272 H 475.488 -0.822885 0.0824018 0
M  V30 5273 H 478.034 -1.44335 0.892499 0
M  V30 5274 H 476.806 -3.49082 1.76797 0
M  V30 5275 H 476.429 -3.97411 0.122461 0
M  V30 5276 N 477.426 -0.562348 -1.47226 0
M  V30 5277 C 478.654 -0.0452275 -2.06851 0
M  V30 5278 C 479.069 1.25078 -1.41424 0
M  V30 5279 O 478.426 1.75156 -0.512513 0
M  V30 5280 C 478.477 0.148674 -3.61194 0
M  V30 5281 O 478.198 -1.09602 -4.24169 0
M  V30 5282 C 479.699 0.702488 -4.37699 0
M  V30 5283 H 476.919 -0.0481775 -0.669268 0
M  V30 5284 H 479.463 -0.777223 -1.89155 0
M  V30 5285 H 477.618 0.830817 -3.78386 0
M  V30 5286 H 478.032 -0.896982 -5.16773 0
M  V30 5287 H 479.506 0.78743 -5.46355 0
M  V30 5288 H 479.983 1.71493 -4.04335 0
M  V30 5289 H 480.589 0.0558772 -4.25263 0
M  V30 5290 N 478.904 1.54736 -0.299062 0
M  V30 5291 C 480.153 1.99279 0.311549 0
M  V30 5292 C 480.466 1.19107 1.55154 0
M  V30 5293 O 481.672 1.53908 2.23662 0
M  V30 5294 C 480.128 3.54768 0.605632 0
M  V30 5295 C 479.736 4.43746 -0.615914 0
M  V30 5296 C 481.48 4.07841 1.17754 0
M  V30 5297 C 479.387 5.90663 -0.29509 0
M  V30 5298 H 478.317 0.744359 0.120187 0
M  V30 5299 H 480.968 1.78919 -0.407464 0
M  V30 5300 H 479.35 3.71021 1.38419 0
M  V30 5301 H 480.524 4.39267 -1.39218 0
M  V30 5302 H 478.839 4.01434 -1.10633 0
M  V30 5303 H 481.436 5.15174 1.43179 0
M  V30 5304 H 481.779 3.58324 2.11918 0
M  V30 5305 H 482.312 3.95123 0.460739 0
M  V30 5306 H 479.051 6.44325 -1.20524 0
M  V30 5307 H 478.571 5.98155 0.44394 0
M  V30 5308 H 480.25 6.46916 0.104048 0
M  V30 5309 N 480.382 0.0267497 1.57577 0
M  V30 5310 C 481.314 -0.984594 2.06974 0
M  V30 5311 C 482.327 -1.29032 0.992705 0
M  V30 5312 O 483.516 -1.25539 1.26895 0
M  V30 5313 C 480.616 -2.31262 2.47732 0
M  V30 5314 C 479.789 -2.1924 3.78487 0
M  V30 5315 C 478.848 -3.34956 4.05821 0
M  V30 5316 O 477.874 -3.11948 4.76106 0
M  V30 5317 N 479.076 -4.58672 3.55809 0
M  V30 5318 H 481.841 -0.563143 2.94362 0
M  V30 5319 H 479.402 -0.160061 1.61107 0
M  V30 5320 H 481.394 -3.07496 2.63112 0
M  V30 5321 H 479.964 -2.65056 1.65723 0
M  V30 5322 H 479.184 -1.27747 3.72927 0
M  V30 5323 H 480.472 -2.08409 4.64158 0
M  V30 5324 H 479.87 -4.8026 2.98942 0
M  V30 5325 H 478.427 -5.32083 3.76472 0
M  V30 5326 N 481.861 -1.55662 -0.24637 0
M  V30 5327 C 482.811 -1.86753 -1.30795 0
M  V30 5328 C 483.795 -0.728445 -1.43466 0
M  V30 5329 O 484.987 -0.99038 -1.46699 0
M  V30 5330 C 482.116 -2.16618 -2.66329 0
M  V30 5331 C 481.202 -3.36855 -2.57661 0
M  V30 5332 N 481.593 -4.56111 -2.18624 0
M  V30 5333 C 479.891 -3.39976 -2.88673 0
M  V30 5334 C 480.592 -5.38247 -2.20601 0
M  V30 5335 N 479.568 -4.77322 -2.60124 0
M  V30 5336 H 483.37 -2.76486 -0.996642 0
M  V30 5337 H 480.884 -1.55896 -0.454994 0
M  V30 5338 H 482.881 -2.37057 -3.42942 0
M  V30 5339 H 481.541 -1.28185 -2.98327 0
M  V30 5340 H 482.552 -4.81726 -1.9016 0
M  V30 5341 H 479.229 -2.61815 -3.25206 0
M  V30 5342 H 480.619 -6.43657 -1.92756 0
M  V30 5343 N 483.339 0.512053 -1.4905 0
M  V30 5344 C 484.272 1.63209 -1.59493 0
M  V30 5345 C 485.25 1.56407 -0.444481 0
M  V30 5346 O 486.434 1.76623 -0.658535 0
M  V30 5347 C 483.561 3.01685 -1.53961 0
M  V30 5348 C 482.607 3.26786 -2.74068 0
M  V30 5349 S 483.44 3.11107 -4.35859 0
M  V30 5350 C 484.596 4.51997 -4.32954 0
M  V30 5351 H 484.829 1.54104 -2.54243 0
M  V30 5352 H 482.362 0.696382 -1.37804 0
M  V30 5353 H 484.32 3.81538 -1.51455 0
M  V30 5354 H 482.981 3.08215 -0.605178 0
M  V30 5355 H 482.174 4.27849 -2.66386 0
M  V30 5356 H 481.776 2.54635 -2.73928 0
M  V30 5357 H 484.068 5.43871 -4.03993 0
M  V30 5358 H 485.011 4.64731 -5.34257 0
M  V30 5359 H 485.419 4.32159 -3.63178 0
M  V30 5360 N 484.817 1.37938 0.762283 0
M  V30 5361 C 486.233 1.18945 1.06415 0
M  V30 5362 C 486.433 0.0321163 2.01474 0
M  V30 5363 O 485.489 -0.624844 2.44647 0
M  V30 5364 C 486.802 2.51218 1.65258 0
M  V30 5365 C 488.35 2.57824 1.7747 0
M  V30 5366 C 488.825 3.90251 2.39725 0
M  V30 5367 N 490.316 3.91744 2.47166 0
M  V30 5368 C 491.051 4.90966 2.96209 0
M  V30 5369 N 490.547 6.00585 3.45354 0
M  V30 5370 N 492.34 4.78363 2.9517 0
M  V30 5371 H 484.491 2.11994 0.131301 0
M  V30 5372 H 486.754 0.940262 0.120879 0
M  V30 5373 H 486.46 3.36317 1.02878 0
M  V30 5374 H 486.334 2.68989 2.64433 0
M  V30 5375 H 488.721 1.73126 2.3898 0
M  V30 5376 H 488.802 2.43928 0.770241 0
M  V30 5377 H 488.446 4.75368 1.78852 0
M  V30 5378 H 488.376 4.01454 3.40796 0
M  V30 5379 H 490.867 3.12563 2.12397 0
M  V30 5380 H 491.18 6.72236 3.81207 0
M  V30 5381 H 489.525 6.04217 3.43434 0
M  V30 5382 H 492.716 3.91841 2.56082 0
M  V30 5383 H 492.889 5.55843 3.33081 0
M  V30 5384 N 486.295 -0.989507 1.22664 0
M  V30 5385 C 487.572 -1.70326 0.961688 0
M  V30 5386 C 487.952 -2.04537 -0.522279 0
M  V30 5387 O 487.3 -1.73136 -1.49118 0
M  V30 5388 C 487.51 -2.95135 1.86269 0
M  V30 5389 C 488.858 -3.67842 2.12078 0
M  V30 5390 O 489.882 -3.0515 1.83745 0
M  V30 5391 O 488.741 -4.80644 2.60083 0
M  V30 5392 H 485.835 -0.743589 0.361946 0
M  V30 5393 H 488.381 -1.04555 1.33665 0
M  V30 5394 H 487.153 -2.66382 2.8663 0
M  V30 5395 H 486.776 -3.68645 1.48952 0
M  V30 5396 N 487.773 -1.03688 -1.18687 0
M  V30 5397 C 488.998 -0.757819 -1.93059 0
M  V30 5398 C 489.423 0.678353 -1.75442 0
M  V30 5399 O 488.781 1.46938 -1.06203 0
M  V30 5400 C 488.829 -1.12423 -3.42627 0
M  V30 5401 O 487.933 -0.247505 -4.11657 0
M  V30 5402 H 487.274 -0.279245 -0.602427 0
M  V30 5403 H 489.804 -1.3857 -1.5053 0
M  V30 5404 H 489.814 -1.08454 -3.93322 0
M  V30 5405 H 488.489 -2.17049 -3.54771 0
M  V30 5406 H 487.066 -0.34649 -3.71287 0
M  V30 5407 N 489.251 1.34841 -0.815825 0
M  V30 5408 C 490.198 2.29644 -0.230664 0
M  V30 5409 C 491.168 1.53253 0.640533 0
M  V30 5410 O 492.353 1.81653 0.583672 0
M  V30 5411 C 489.493 3.39715 0.607275 0
M  V30 5412 C 488.606 4.31056 -0.28538 0
M  V30 5413 C 487.741 5.28225 0.561446 0
M  V30 5414 C 486.78 6.11204 -0.331035 0
M  V30 5415 N 485.917 7.00483 0.476302 0
M  V30 5416 H 490.757 2.79095 -1.0445 0
M  V30 5417 H 488.294 1.37351 -0.526595 0
M  V30 5418 H 490.252 4.02208 1.10835 0
M  V30 5419 H 488.882 2.91517 1.38629 0
M  V30 5420 H 487.934 3.69487 -0.904621 0
M  V30 5421 H 489.246 4.89239 -0.97193 0
M  V30 5422 H 488.4 5.96135 1.12728 0
M  V30 5423 H 487.139 4.70562 1.28153 0
M  V30 5424 H 486.144 5.42232 -0.909069 0
M  V30 5425 H 487.369 6.70947 -1.04912 0
M  V30 5426 H 485.315 6.45296 1.18019 0
M  V30 5427 H 485.232 7.55847 -0.152008 0
M  V30 5428 H 486.5 7.7273 1.02512 0
M  V30 5429 N 490.729 0.570148 1.46925 0
M  V30 5430 C 491.679 -0.190921 2.27199 0
M  V30 5431 C 492.663 -0.873457 1.35128 0
M  V30 5432 O 493.855 -0.769627 1.59392 0
M  V30 5433 C 490.984 -1.21204 3.21192 0
M  V30 5434 C 490.07 -0.532261 4.20747 0
M  V30 5435 N 490.461 0.405038 5.04176 0
M  V30 5436 C 488.759 -0.784582 4.39045 0
M  V30 5437 C 489.46 0.801149 5.76157 0
M  V30 5438 N 488.436 0.153082 5.43384 0
M  V30 5439 H 492.238 0.529535 2.8909 0
M  V30 5440 H 489.752 0.391019 1.57622 0
M  V30 5441 H 491.749 -1.77135 3.77398 0
M  V30 5442 H 490.409 -1.93345 2.6086 0
M  V30 5443 H 491.42 0.779903 5.11994 0
M  V30 5444 H 488.097 -1.49352 3.89872 0
M  V30 5445 H 489.487 1.57208 6.5325 0
M  V30 5446 N 492.207 -1.54576 0.307264 0
M  V30 5447 C 493.456 -1.99442 -0.300976 0
M  V30 5448 C 493.769 -1.19928 -1.5452 0
M  V30 5449 O 494.975 -1.55092 -2.22842 0
M  V30 5450 C 493.431 -3.55084 -0.586809 0
M  V30 5451 C 493.039 -4.43413 0.639438 0
M  V30 5452 C 494.783 -4.0846 -1.1559 0
M  V30 5453 C 492.69 -5.90499 0.326411 0
M  V30 5454 H 491.62 -0.744986 -0.116238 0
M  V30 5455 H 494.271 -1.787 0.416947 0
M  V30 5456 H 492.653 -3.71749 -1.36449 0
M  V30 5457 H 493.827 -4.38522 1.41545 0
M  V30 5458 H 492.142 -4.00842 1.1276 0
M  V30 5459 H 494.739 -5.15926 -1.40445 0
M  V30 5460 H 495.082 -3.59443 -2.10015 0
M  V30 5461 H 495.615 -3.95362 -0.439778 0
M  V30 5462 H 492.354 -6.43676 1.23939 0
M  V30 5463 H 491.874 -5.98382 -0.412212 0
M  V30 5464 H 493.553 -6.46962 -0.0697393 0
M  V30 5465 N 493.685 -0.035106 -1.57561 0
M  V30 5466 C 494.931 0.64318 -1.92331 0
M  V30 5467 C 495.264 1.71434 -0.912368 0
M  V30 5468 O 494.539 1.94395 0.0640303 0
M  V30 5469 C 494.822 1.25411 -3.37556 0
M  V30 5470 C 494.675 0.192109 -4.4939 0
M  V30 5471 C 495.994 2.17041 -3.82859 0
M  V30 5472 H 493.113 0.232341 -0.699419 0
M  V30 5473 H 495.755 -0.0935889 -1.89769 0
M  V30 5474 H 493.905 1.88205 -3.39869 0
M  V30 5475 H 495.577 -0.438849 -4.59208 0
M  V30 5476 H 493.82 -0.481725 -4.31117 0
M  V30 5477 H 494.491 0.659292 -5.48049 0
M  V30 5478 H 496.967 1.64228 -3.8232 0
M  V30 5479 H 495.843 2.56738 -4.85157 0
M  V30 5480 H 496.104 3.06401 -3.18702 0
M  V30 5481 N 495.163 1.55791 0.238111 0
M  V30 5482 C 496.409 1.78297 0.966337 0
M  V30 5483 C 496.742 0.601903 1.84637 0
M  V30 5484 O 496.017 -0.399499 1.90353 0
M  V30 5485 C 496.3 3.10758 1.81939 0
M  V30 5486 C 496.153 4.39283 0.966958 0
M  V30 5487 C 497.472 3.39519 2.80027 0
M  V30 5488 H 494.591 0.648654 0.349882 0
M  V30 5489 H 497.233 1.88525 0.236253 0
M  V30 5490 H 495.383 3.02168 2.44185 0
M  V30 5491 H 497.055 4.59873 0.362514 0
M  V30 5492 H 495.298 4.32948 0.271669 0
M  V30 5493 H 495.969 5.28368 1.59784 0
M  V30 5494 H 498.445 3.48128 2.27917 0
M  V30 5495 H 497.321 4.33402 3.36829 0
M  V30 5496 H 497.582 2.60864 3.56934 0
M  V30 5497 N 496.642 -0.504142 1.49319 0
M  V30 5498 C 497.872 -1.28071 1.62116 0
M  V30 5499 C 498.28 -1.86955 0.290566 0
M  V30 5500 O 497.623 -1.68415 -0.733616 0
M  V30 5501 C 497.685 -2.4521 2.62893 0
M  V30 5502 C 497.349 -2.07218 4.0732 0
M  V30 5503 C 498.346 -1.61375 4.94221 0
M  V30 5504 C 496.031 -2.16949 4.53033 0
M  V30 5505 C 498.025 -1.25763 6.2487 0
M  V30 5506 C 495.712 -1.80949 5.83696 0
M  V30 5507 C 496.71 -1.3543 6.69438 0
M  V30 5508 O 496.398 -0.99915 7.97667 0
M  V30 5509 H 496.13 -0.394763 0.54876 0
M  V30 5510 H 498.684 -0.612118 1.96067 0
M  V30 5511 H 496.914 -3.15134 2.24115 0
M  V30 5512 H 498.603 -3.0724 2.65252 0
M  V30 5513 H 499.369 -1.53306 4.60133 0
M  V30 5514 H 495.248 -2.5133 3.86463 0
M  V30 5515 H 498.792 -0.901631 6.91749 0
M  V30 5516 H 494.689 -1.88667 6.17313 0
M  V30 5517 H 495.457 -1.13089 8.1065 0
M  V30 5518 N 498.12 -1.38341 -0.754957 0
M  V30 5519 C 499.07 -1.31964 -1.85929 0
M  V30 5520 C 500.054 -0.204181 -1.59599 0
M  V30 5521 O 501.246 -0.440036 -1.71443 0
M  V30 5522 C 498.375 -1.14565 -3.2362 0
M  V30 5523 C 497.461 -2.30727 -3.55846 0
M  V30 5524 N 497.852 -3.56165 -3.59138 0
M  V30 5525 C 496.15 -2.23249 -3.86104 0
M  V30 5526 C 496.851 -4.32865 -3.88591 0
M  V30 5527 N 495.827 -3.62203 -4.05351 0
M  V30 5528 H 499.629 -2.2694 -1.8675 0
M  V30 5529 H 497.143 -1.31553 -0.952243 0
M  V30 5530 H 499.14 -1.0808 -4.02647 0
M  V30 5531 H 497.8 -0.205212 -3.24051 0
M  V30 5532 H 498.811 -3.89854 -3.40932 0
M  V30 5533 H 495.488 -1.37357 -3.94258 0
M  V30 5534 H 496.878 -5.41504 -3.97773 0
M  V30 5535 N 499.598 0.982988 -1.23187 0
M  V30 5536 C 501.014 1.2487 -0.993967 0
M  V30 5537 C 501.214 1.99155 0.306498 0
M  V30 5538 O 500.27 2.30688 1.0266 0
M  V30 5539 C 501.583 2.05078 -2.19917 0
M  V30 5540 C 503.131 2.18227 -2.2438 0
M  V30 5541 C 503.606 3.01825 -3.44479 0
M  V30 5542 N 505.097 3.09411 -3.44702 0
M  V30 5543 C 505.832 3.74412 -4.34285 0
M  V30 5544 N 505.328 4.41259 -5.341 0
M  V30 5545 N 507.121 3.71273 -4.22035 0
M  V30 5546 H 499.272 0.485253 -2.06783 0
M  V30 5547 H 501.535 0.276979 -0.906635 0
M  V30 5548 H 501.241 1.57867 -3.14279 0
M  V30 5549 H 501.115 3.05829 -2.2079 0
M  V30 5550 H 503.502 2.64648 -1.30559 0
M  V30 5551 H 503.583 1.16873 -2.2754 0
M  V30 5552 H 503.227 2.56102 -4.38605 0
M  V30 5553 H 503.157 4.03342 -3.38559 0
M  V30 5554 H 505.648 2.61845 -2.7248 0
M  V30 5555 H 505.961 4.88629 -5.98717 0
M  V30 5556 H 504.306 4.39975 -5.38002 0
M  V30 5557 H 507.497 3.18217 -3.43301 0
M  V30 5558 H 507.67 4.21649 -4.92053 0
M  V30 5559 N 501.076 1.04316 1.18135 0
M  V30 5560 C 502.324 0.746542 1.87806 0
M  V30 5561 C 502.645 -0.728082 1.80898 0
M  V30 5562 O 501.915 -1.52554 1.22899 0
M  V30 5563 H 500.495 0.273157 0.695265 0
M  V30 5564 H 503.157 1.32044 1.43354 0
M  V30 5565 H 502.253 1.05362 2.93778 0
M  V30 5566 N 502.554 -1.34406 0.822964 0
M  V30 5567 C 503.97 -1.51275 0.508727 0
M  V30 5568 C 504.17 -1.76776 -0.967083 0
M  V30 5569 O 503.226 -1.81871 -1.75155 0
M  V30 5570 C 504.539 -2.67765 1.36829 0
M  V30 5571 C 506.087 -2.81647 1.36542 0
M  V30 5572 C 506.562 -4.01181 2.20947 0
M  V30 5573 N 508.053 -4.08388 2.18571 0
M  V30 5574 C 508.788 -5.00036 2.80627 0
M  V30 5575 N 508.284 -5.96906 3.51674 0
M  V30 5576 N 510.077 -4.92908 2.70181 0
M  V30 5577 H 502.228 -1.16113 1.77852 0
M  V30 5578 H 504.491 -0.56947 0.757897 0
M  V30 5579 H 504.197 -2.55551 2.41633 0
M  V30 5580 H 504.071 -3.62779 1.03303 0
M  V30 5581 H 506.458 -2.93303 0.325163 0
M  V30 5582 H 506.539 -1.87443 1.74066 0
M  V30 5583 H 506.183 -3.90286 3.25022 0
M  V30 5584 H 506.113 -4.94599 1.80774 0
M  V30 5585 H 508.604 -3.39051 1.66891 0
M  V30 5586 H 508.917 -6.63468 3.96271 0
M  V30 5587 H 507.262 -5.9703 3.5578 0
M  V30 5588 H 510.453 -4.1619 2.14251 0
M  V30 5589 H 510.626 -5.64137 3.18831 0
M  V30 5590 N 504.032 -0.577932 -1.46621 0
M  V30 5591 C 505.262 -0.0670668 -2.06491 0
M  V30 5592 C 505.67 1.24119 -1.42798 0
M  V30 5593 O 505.013 1.76016 -0.525759 0
M  V30 5594 C 505.075 0.177995 -3.59059 0
M  V30 5595 C 504.739 -1.04394 -4.44917 0
M  V30 5596 C 505.736 -1.95479 -4.81751 0
M  V30 5597 C 503.421 -1.26444 -4.86125 0
M  V30 5598 C 505.415 -3.06965 -5.58615 0
M  V30 5599 C 503.102 -2.38237 -5.62749 0
M  V30 5600 C 504.1 -3.28327 -5.98908 0
M  V30 5601 O 503.788 -4.38179 -6.73984 0
M  V30 5602 H 503.52 -0.0523159 -0.673973 0
M  V30 5603 H 506.074 -0.796966 -1.89308 0
M  V30 5604 H 504.304 0.962451 -3.74531 0
M  V30 5605 H 505.993 0.636782 -4.00874 0
M  V30 5606 H 506.759 -1.79657 -4.50498 0
M  V30 5607 H 502.638 -0.572316 -4.57434 0
M  V30 5608 H 506.182 -3.77309 -5.86757 0
M  V30 5609 H 502.079 -2.54023 -5.93416 0
M  V30 5610 H 502.847 -4.36486 -6.92403 0
M  V30 5611 N 505.51 1.54411 -0.315457 0
M  V30 5612 C 506.757 2.00419 0.289543 0
M  V30 5613 C 507.085 1.20373 1.52776 0
M  V30 5614 O 506.34 0.271769 1.93804 0
M  V30 5615 C 506.639 3.50936 0.676652 0
M  V30 5616 C 506.305 4.48532 -0.461472 0
M  V30 5617 C 504.967 4.74936 -0.773879 0
M  V30 5618 C 507.319 5.06567 -1.22637 0
M  V30 5619 C 504.647 5.56634 -1.85405 0
M  V30 5620 C 506.999 5.89441 -2.29657 0
M  V30 5621 C 505.663 6.1415 -2.61488 0
M  V30 5622 H 504.933 0.733386 0.105951 0
M  V30 5623 H 507.58 1.86434 -0.437554 0
M  V30 5624 H 505.885 3.62606 1.48405 0
M  V30 5625 H 507.582 3.83971 1.15618 0
M  V30 5626 H 504.172 4.28096 -0.207893 0
M  V30 5627 H 508.356 4.86157 -0.998271 0
M  V30 5628 H 503.612 5.74012 -2.10523 0
M  V30 5629 H 507.786 6.33432 -2.89374 0
M  V30 5630 H 505.413 6.77245 -3.45317 0
M  V30 5631 N 506.988 0.0434614 1.5754 0
M  V30 5632 C 507.935 -0.93356 2.11077 0
M  V30 5633 C 508.905 -1.31383 1.01626 0
M  V30 5634 O 510.09 -1.40465 1.29129 0
M  V30 5635 C 507.23 -2.20578 2.65404 0
M  V30 5636 C 506.343 -1.88068 3.88914 0
M  V30 5637 C 505.478 -3.09691 4.31584 0
M  V30 5638 C 504.517 -2.73067 5.47815 0
M  V30 5639 N 503.654 -3.87359 5.85574 0
M  V30 5640 H 508.494 -0.470118 2.94268 0
M  V30 5641 H 506.031 -0.220434 1.45439 0
M  V30 5642 H 507.989 -2.95011 2.94999 0
M  V30 5643 H 506.619 -2.64513 1.85021 0
M  V30 5644 H 505.671 -1.03816 3.6596 0
M  V30 5645 H 506.983 -1.57104 4.73413 0
M  V30 5646 H 506.137 -3.92431 4.62691 0
M  V30 5647 H 504.876 -3.43827 3.45882 0
M  V30 5648 H 503.881 -1.88742 5.16388 0
M  V30 5649 H 505.106 -2.40131 6.35227 0
M  V30 5650 H 503.052 -4.21311 5.02825 0
M  V30 5651 H 502.969 -3.60068 6.64746 0
M  V30 5652 H 504.237 -4.70761 6.21292 0
M  V30 5653 N 508.466 -1.55915 -0.229846 0
M  V30 5654 C 509.712 -1.78807 -0.956868 0
M  V30 5655 C 510.045 -0.611687 -1.84315 0
M  V30 5656 O 509.32 0.389398 -1.90562 0
M  V30 5657 C 509.603 -3.11718 -1.80288 0
M  V30 5658 C 509.456 -4.3979 -0.943649 0
M  V30 5659 C 510.775 -3.40999 -2.78222 0
M  V30 5660 H 507.894 -0.6505 -0.346437 0
M  V30 5661 H 510.536 -1.88648 -0.226252 0
M  V30 5662 H 508.686 -3.03459 -2.42579 0
M  V30 5663 H 510.358 -4.60059 -0.338121 0
M  V30 5664 H 508.601 -4.33086 -0.248705 0
M  V30 5665 H 509.272 -5.29208 -1.5698 0
M  V30 5666 H 511.748 -3.49332 -2.26067 0
M  V30 5667 H 510.624 -4.35183 -3.34526 0
M  V30 5668 H 510.885 -2.62754 -3.55546 0
M  V30 5669 N 509.944 0.496216 -1.49584 0
M  V30 5670 C 511.19 1.24918 -1.60521 0
M  V30 5671 C 511.545 1.90197 -0.290352 0
M  V30 5672 O 510.838 1.77967 0.709813 0
M  V30 5673 C 511.032 2.3359 -2.705 0
M  V30 5674 C 510.861 1.78969 -4.12553 0
M  V30 5675 C 509.631 1.60057 -4.79281 0
M  V30 5676 C 511.829 1.29883 -4.97629 0
M  V30 5677 N 509.811 1.00415 -6.05632 0
M  V30 5678 C 511.182 0.824057 -6.14499 0
M  V30 5679 C 513.237 1.18501 -4.83593 0
M  V30 5680 C 511.94 0.246721 -7.18877 0
M  V30 5681 C 513.966 0.621634 -5.88124 0
M  V30 5682 C 513.328 0.157116 -7.04225 0
M  V30 5683 H 509.427 0.446896 -0.641722 0
M  V30 5684 H 512.011 0.555456 -1.86609 0
M  V30 5685 H 510.182 3.00418 -2.46178 0
M  V30 5686 H 511.914 3.00628 -2.70933 0
M  V30 5687 H 508.669 1.84562 -4.36158 0
M  V30 5688 H 509.093 0.725074 -6.73106 0
M  V30 5689 H 513.735 1.53012 -3.94141 0
M  V30 5690 H 511.453 -0.110651 -8.08024 0
M  V30 5691 H 515.039 0.536279 -5.79323 0
M  V30 5692 H 513.919 -0.272009 -7.83728 0
M  V30 5693 N 511.423 1.38739 0.74761 0
M  V30 5694 C 512.353 1.39173 1.87492 0
M  V30 5695 C 513.334 0.256794 1.6815 0
M  V30 5696 O 514.519 0.460762 1.88655 0
M  V30 5697 C 511.649 1.22197 3.25093 0
M  V30 5698 C 510.603 2.32957 3.59047 0
M  V30 5699 C 509.929 2.01082 4.95449 0
M  V30 5700 C 511.229 3.75237 3.6331 0
M  V30 5701 H 512.923 2.3351 1.87386 0
M  V30 5702 H 510.469 1.12399 0.900134 0
M  V30 5703 H 512.422 1.21124 4.03617 0
M  V30 5704 H 511.146 0.243241 3.25693 0
M  V30 5705 H 509.805 2.33226 2.82845 0
M  V30 5706 H 509.453 1.01678 4.92616 0
M  V30 5707 H 509.153 2.75267 5.19136 0
M  V30 5708 H 510.677 2.01638 5.76346 0
M  V30 5709 H 512.091 3.76966 4.31937 0
M  V30 5710 H 510.488 4.48677 3.98509 0
M  V30 5711 H 511.558 4.07122 2.634 0
M  V30 5712 N 512.901 -0.976442 1.23707 0
M  V30 5713 C 514.131 -1.75087 1.09673 0
M  V30 5714 C 514.539 -1.85852 -0.354344 0
M  V30 5715 O 513.882 -1.33985 -1.25673 0
M  V30 5716 C 513.944 -3.19272 1.65245 0
M  V30 5717 C 513.608 -3.32004 3.14042 0
M  V30 5718 C 514.605 -3.18017 4.11292 0
M  V30 5719 C 512.29 -3.56525 3.53829 0
M  V30 5720 C 514.284 -3.28363 5.46312 0
M  V30 5721 C 511.971 -3.6651 4.88993 0
M  V30 5722 C 512.969 -3.52439 5.85043 0
M  V30 5723 O 512.657 -3.62063 7.1775 0
M  V30 5724 H 512.389 -0.556164 0.384262 0
M  V30 5725 H 514.943 -1.23518 1.64111 0
M  V30 5726 H 513.173 -3.72107 1.05231 0
M  V30 5727 H 514.862 -3.7849 1.46629 0
M  V30 5728 H 515.628 -2.98966 3.81896 0
M  V30 5729 H 511.507 -3.66547 2.79579 0
M  V30 5730 H 515.051 -3.17297 6.21263 0
M  V30 5731 H 510.948 -3.85072 5.18063 0
M  V30 5732 H 511.716 -3.78833 7.25553 0
M  V30 5733 N 514.379 -1.04941 -1.1758 0
M  V30 5734 C 515.329 -0.618378 -2.19454 0
M  V30 5735 C 516.313 0.343813 -1.57184 0
M  V30 5736 O 517.505 0.16145 -1.76262 0
M  V30 5737 C 514.634 0.00803847 -3.43299 0
M  V30 5738 C 513.72 -0.977827 -4.12673 0
M  V30 5739 N 514.111 -2.14826 -4.57912 0
M  V30 5740 C 512.409 -0.805748 -4.38661 0
M  V30 5741 C 513.11 -2.77174 -5.11419 0
M  V30 5742 N 512.086 -2.04989 -5.03468 0
M  V30 5743 H 515.888 -1.51018 -2.52132 0
M  V30 5744 H 513.402 -0.919201 -1.33882 0
M  V30 5745 H 515.399 0.334584 -4.15555 0
M  V30 5746 H 514.059 0.895272 -3.12114 0
M  V30 5747 H 515.07 -2.52673 -4.52081 0
M  V30 5748 H 511.747 0.0306506 -4.17489 0
M  V30 5749 H 513.137 -3.76416 -5.56562 0
M  V30 5750 N 515.857 1.33968 -0.830081 0
M  V30 5751 C 517.134 1.92554 -0.343858 0
M  V30 5752 C 517.514 1.7573 1.16971 0
M  V30 5753 O 516.862 1.14035 1.98011 0
M  V30 5754 C 517.072 3.40147 -0.781073 0
M  V30 5755 C 518.42 4.17299 -0.78402 0
M  V30 5756 O 519.444 3.48762 -0.724112 0
M  V30 5757 O 518.303 5.39631 -0.863739 0
M  V30 5758 H 515.397 0.821469 -0.0954827 0
M  V30 5759 H 517.943 1.42897 -0.915348 0
M  V30 5760 H 516.715 3.46225 -1.82329 0
M  V30 5761 H 516.338 3.97166 -0.18567 0
M  V30 5762 N 517.335 0.585699 1.46312 0
M  V30 5763 C 518.583 0.072278 2.01971 0
M  V30 5764 C 518.904 -1.29345 1.45928 0
M  V30 5765 O 518.174 -1.84973 0.645109 0
M  V30 5766 H 516.754 0.023729 0.746623 0
M  V30 5767 H 519.416 0.762155 1.7938 0
M  V30 5768 H 518.512 0.00552767 3.121 0
M  V30 5769 N 518.813 -1.54241 0.323641 0
M  V30 5770 C 520.229 -1.59574 -0.0290018 0
M  V30 5771 C 520.429 -1.34017 -1.50472 0
M  V30 5772 O 519.485 -1.12464 -2.26071 0
M  V30 5773 C 520.798 -2.98169 0.389295 0
M  V30 5774 C 522.346 -3.11148 0.339958 0
M  V30 5775 C 522.821 -4.5209 0.733418 0
M  V30 5776 N 524.312 -4.5808 0.686827 0
M  V30 5777 C 525.047 -5.65248 0.963464 0
M  V30 5778 N 524.543 -6.80355 1.30724 0
M  V30 5779 N 526.336 -5.55025 0.88902 0
M  V30 5780 H 518.487 -1.6911 1.28512 0
M  V30 5781 H 520.75 -0.790972 0.522558 0
M  V30 5782 H 520.456 -3.21871 1.41746 0
M  V30 5783 H 520.33 -3.76399 -0.245657 0
M  V30 5784 H 522.717 -2.87182 -0.679002 0
M  V30 5785 H 522.798 -2.35023 1.00985 0
M  V30 5786 H 522.442 -4.76788 1.75029 0
M  V30 5787 H 522.372 -5.26584 0.0412189 0
M  V30 5788 H 524.863 -3.75411 0.43298 0
M  V30 5789 H 525.176 -7.58029 1.5037 0
M  V30 5790 H 523.521 -6.81851 1.3455 0
M  V30 5791 H 526.712 -4.63977 0.619939 0
M  V30 5792 H 526.885 -6.38458 1.10797 0
M  V30 5793 N 520.291 -0.0518155 -1.57515 0
M  V30 5794 C 521.221 0.920283 -2.146 0
M  V30 5795 C 522.202 1.32406 -1.06783 0
M  V30 5796 O 523.387 1.39866 -1.34726 0
M  V30 5797 C 520.517 2.1949 -2.6915 0
M  V30 5798 C 519.471 1.93116 -3.81956 0
M  V30 5799 C 518.797 3.27037 -4.23026 0
M  V30 5800 C 520.097 1.25225 -5.07066 0
M  V30 5801 H 521.791 0.444801 -2.96077 0
M  V30 5802 H 519.337 0.212508 -1.42423 0
M  V30 5803 H 521.29 2.87894 -3.07725 0
M  V30 5804 H 520.014 2.69244 -1.84865 0
M  V30 5805 H 518.673 1.27123 -3.43854 0
M  V30 5806 H 518.321 3.74595 -3.3569 0
M  V30 5807 H 518.021 3.10189 -4.99056 0
M  V30 5808 H 519.545 3.96673 -4.64202 0
M  V30 5809 H 520.959 1.83666 -5.43083 0
M  V30 5810 H 519.356 1.18702 -5.88243 0
M  V30 5811 H 520.426 0.228382 -4.84362 0
M  V30 5812 N 521.769 1.56035 0.221574 0
M  V30 5813 C 522.699 1.95434 1.2778 0
M  V30 5814 C 523.68 0.822564 1.48889 0
M  V30 5815 O 524.865 1.08486 1.61072 0
M  V30 5816 C 521.995 2.27102 2.62759 0
M  V30 5817 C 520.949 3.4277 2.56306 0
M  V30 5818 C 520.275 3.60043 3.95314 0
M  V30 5819 C 521.575 4.77742 2.11093 0
M  V30 5820 H 523.269 2.83912 0.950504 0
M  V30 5821 H 520.815 1.36596 0.455791 0
M  V30 5822 H 522.768 2.53256 3.36807 0
M  V30 5823 H 521.492 1.35478 2.97176 0
M  V30 5824 H 520.151 3.16664 1.84715 0
M  V30 5825 H 519.799 2.65794 4.27039 0
M  V30 5826 H 519.499 4.37841 3.91879 0
M  V30 5827 H 521.023 3.88545 4.71025 0
M  V30 5828 H 522.437 5.03102 2.74885 0
M  V30 5829 H 520.834 5.58823 2.18716 0
M  V30 5830 H 521.904 4.731 1.06321 0
M  V30 5831 N 523.247 -0.488276 1.49845 0
M  V30 5832 C 524.194 -1.58836 1.67451 0
M  V30 5833 C 525.164 -1.57886 0.515857 0
M  V30 5834 O 526.349 -1.75679 0.744403 0
M  V30 5835 C 523.489 -2.96915 1.75885 0
M  V30 5836 C 522.602 -3.07784 3.03138 0
M  V30 5837 C 521.737 -4.36673 3.02473 0
M  V30 5838 C 520.776 -4.41222 4.24252 0
M  V30 5839 N 519.913 -5.61557 4.21424 0
M  V30 5840 H 524.753 -1.43131 2.61376 0
M  V30 5841 H 522.29 -0.696186 1.29583 0
M  V30 5842 H 524.248 -3.76965 1.78755 0
M  V30 5843 H 522.878 -3.11295 0.85414 0
M  V30 5844 H 521.93 -2.20717 3.09819 0
M  V30 5845 H 523.242 -3.07005 3.93128 0
M  V30 5846 H 522.396 -5.25055 3.03977 0
M  V30 5847 H 521.135 -4.40037 2.10283 0
M  V30 5848 H 520.14 -3.5124 4.22978 0
M  V30 5849 H 521.365 -4.39564 5.17649 0
M  V30 5850 H 519.311 -5.65738 3.32078 0
M  V30 5851 H 519.228 -5.62447 5.05163 0
M  V30 5852 H 520.496 -6.52111 4.2705 0
M  V30 5853 N 524.725 -1.39134 -0.740242 0
M  V30 5854 C 526.136 -1.32208 -1.31825 0
M  V30 5855 C 526.487 0.0159919 -1.96193 0
M  V30 5856 O 525.612 0.918111 -1.95958 0
M  V30 5857 C 526.207 -2.39436 -2.39699 0
M  V30 5858 C 524.766 -2.36048 -2.93187 0
M  V30 5859 C 523.913 -2.21599 -1.66701 0
M  V30 5860 H 526.864 -1.49298 -0.538133 0
M  V30 5861 H 526.885 -2.05922 -3.19963 0
M  V30 5862 H 526.397 -3.36811 -1.92821 0
M  V30 5863 H 524.498 -1.42295 -3.44359 0
M  V30 5864 H 524.611 -3.30704 -3.46658 0
M  V30 5865 H 522.975 -1.68681 -1.90837 0
M  V30 5866 H 523.758 -3.20936 -1.21882 0
M  V30 5867 N 526.204 0.969867 -1.24223 0
M  V30 5868 C 527.62 1.23809 -1.00716 0
M  V30 5869 C 527.82 1.99469 0.285358 0
M  V30 5870 O 526.876 2.31764 1.00207 0
M  V30 5871 C 528.189 2.02734 -2.2208 0
M  V30 5872 C 529.737 2.15834 -2.26681 0
M  V30 5873 C 530.212 2.98154 -3.47661 0
M  V30 5874 N 531.703 3.05737 -3.47964 0
M  V30 5875 C 532.438 3.69785 -4.38231 0
M  V30 5876 N 531.934 4.35569 -5.3875 0
M  V30 5877 N 533.727 3.66775 -4.25949 0
M  V30 5878 H 525.878 0.463294 -2.07286 0
M  V30 5879 H 528.141 0.267348 -0.909521 0
M  V30 5880 H 527.847 1.54524 -3.15935 0
M  V30 5881 H 527.721 3.0347 -2.24021 0
M  V30 5882 H 530.108 2.63248 -1.33359 0
M  V30 5883 H 530.189 1.14453 -2.28767 0
M  V30 5884 H 529.833 2.51435 -4.41297 0
M  V30 5885 H 529.763 3.99729 -3.42818 0
M  V30 5886 H 532.254 2.58941 -2.75242 0
M  V30 5887 H 532.567 4.82251 -6.03866 0
M  V30 5888 H 530.912 4.34244 -5.42639 0
M  V30 5889 H 534.103 3.14558 -3.46657 0
M  V30 5890 H 534.276 4.16407 -4.96497 0
M  V30 5891 N 527.682 1.05563 1.17022 0
M  V30 5892 C 528.592 0.670758 2.24807 0
M  V30 5893 C 529.608 -0.309865 1.71219 0
M  V30 5894 O 530.784 -0.161025 2.00755 0
M  V30 5895 C 527.849 0.055337 3.46656 0
M  V30 5896 C 526.91 1.08688 4.15314 0
M  V30 5897 C 526.143 0.500736 5.31346 0
M  V30 5898 O 526.366 -0.688718 5.66227 0
M  V30 5899 O 525.3 1.23683 5.89055 0
M  V30 5900 H 529.126 1.56914 2.60023 0
M  V30 5901 H 526.711 0.827428 1.24395 0
M  V30 5902 H 528.593 -0.286492 4.20425 0
M  V30 5903 H 527.268 -0.816638 3.13229 0
M  V30 5904 H 526.175 1.48077 3.43546 0
M  V30 5905 H 527.508 1.93014 4.52777 0
M  V30 5906 N 529.16 -1.33526 0.837174 0
M  V30 5907 C 530.093 -2.27192 0.214233 0
M  V30 5908 C 531.071 -1.49575 -0.637657 0
M  V30 5909 O 532.255 -1.78753 -0.598291 0
M  V30 5910 C 529.382 -3.31401 -0.699367 0
M  V30 5911 C 528.428 -4.26431 0.0768429 0
M  V30 5912 S 529.261 -5.15954 1.4336 0
M  V30 5913 C 530.417 -6.23692 0.525251 0
M  V30 5914 H 530.65 -2.79679 1.00831 0
M  V30 5915 H 528.183 -1.4079 0.633834 0
M  V30 5916 H 530.141 -3.91924 -1.22088 0
M  V30 5917 H 528.802 -2.77732 -1.46709 0
M  V30 5918 H 527.995 -5.00193 -0.618268 0
M  V30 5919 H 527.597 -3.70235 0.529364 0
M  V30 5920 H 529.889 -6.76931 -0.277575 0
M  V30 5921 H 530.832 -6.97283 1.23299 0
M  V30 5922 H 531.24 -5.64398 0.107351 0
M  V30 5923 N 530.638 -0.59345 -1.46 0
M  V30 5924 C 531.548 0.135817 -2.34207 0
M  V30 5925 C 532.564 0.875008 -1.50398 0
M  V30 5926 O 533.74 0.835778 -1.83239 0
M  V30 5927 C 530.805 1.12977 -3.27776 0
M  V30 5928 C 529.866 0.394081 -4.27487 0
M  V30 5929 C 529.099 1.34068 -5.16586 0
M  V30 5930 O 529.322 2.5778 -5.08828 0
M  V30 5931 O 528.256 0.845426 -5.95933 0
M  V30 5932 H 532.082 -0.588691 -2.9794 0
M  V30 5933 H 529.667 -0.353784 -1.45151 0
M  V30 5934 H 531.549 1.70261 -3.85473 0
M  V30 5935 H 530.224 1.83556 -2.66625 0
M  V30 5936 H 529.131 -0.220869 -3.73447 0
M  V30 5937 H 530.464 -0.270939 -4.91454 0
M  V30 5938 N 532.116 1.54067 -0.331816 0
M  V30 5939 C 533.048 2.22139 0.564538 0
M  V30 5940 C 534.061 1.22408 1.07332 0
M  V30 5941 O 535.25 1.4883 0.985481 0
M  V30 5942 C 532.35 2.87876 1.78831 0
M  V30 5943 C 531.523 4.13817 1.41682 0
M  V30 5944 C 530.582 4.63072 2.49901 0
M  V30 5945 O 529.608 5.27562 2.13699 0
M  V30 5946 N 530.81 4.38001 3.80967 0
M  V30 5947 H 533.575 2.99694 -0.0183736 0
M  V30 5948 H 531.136 1.61153 -0.155396 0
M  V30 5949 H 533.128 3.17747 2.50637 0
M  V30 5950 H 531.698 2.13977 2.27887 0
M  V30 5951 H 530.918 3.9062 0.530044 0
M  V30 5952 H 532.206 4.95762 1.14443 0
M  V30 5953 H 531.604 3.864 4.13173 0
M  V30 5954 H 530.161 4.72507 4.48977 0
M  V30 5955 N 533.594 0.0601682 1.57485 0
M  V30 5956 C 534.526 -0.94047 2.09016 0
M  V30 5957 C 535.539 -1.26897 1.01985 0
M  V30 5958 O 536.728 -1.22819 1.29529 0
M  V30 5959 C 533.828 -2.25955 2.52582 0
M  V30 5960 C 533.001 -2.11163 3.83052 0
M  V30 5961 C 532.06 -3.26273 4.12835 0
M  V30 5962 O 531.086 -3.01779 4.82616 0
M  V30 5963 N 532.288 -4.51022 3.65458 0
M  V30 5964 H 535.053 -0.500578 2.9549 0
M  V30 5965 H 532.614 -0.125852 1.6141 0
M  V30 5966 H 534.606 -3.01846 2.69575 0
M  V30 5967 H 533.176 -2.61481 1.71308 0
M  V30 5968 H 532.396 -1.19808 3.75552 0
M  V30 5969 H 533.684 -1.98517 4.68475 0
M  V30 5970 H 533.082 -4.73811 3.09062 0
M  V30 5971 H 531.639 -5.23978 3.87673 0
M  V30 5972 N 535.072 -1.5615 -0.213296 0
M  V30 5973 C 536.005 -1.88115 -1.29182 0
M  V30 5974 C 536.983 -0.739348 -1.44819 0
M  V30 5975 O 538.167 -0.988541 -1.605 0
M  V30 5976 C 535.294 -2.09541 -2.66102 0
M  V30 5977 C 534.34 -3.32236 -2.67436 0
M  V30 5978 S 535.173 -4.87915 -2.20679 0
M  V30 5979 C 536.329 -5.12387 -3.59458 0
M  V30 5980 H 536.562 -2.793 -1.01876 0
M  V30 5981 H 534.095 -1.48692 -0.415934 0
M  V30 5982 H 536.053 -2.22568 -3.44925 0
M  V30 5983 H 534.714 -1.19138 -2.90628 0
M  V30 5984 H 533.907 -3.44297 -3.6807 0
M  V30 5985 H 533.509 -3.18108 -1.96681 0
M  V30 5986 H 535.801 -5.01791 -4.55205 0
M  V30 5987 H 536.744 -6.14236 -3.52306 0
M  V30 5988 H 537.152 -4.40089 -3.53528 0
M  V30 5989 N 536.55 0.480323 -1.50102 0
M  V30 5990 C 537.482 1.59669 -1.64433 0
M  V30 5991 C 538.495 1.54063 -0.52615 0
M  V30 5992 O 539.684 1.59619 -0.798992 0
M  V30 5993 C 536.784 2.98527 -1.6042 0
M  V30 5994 C 535.957 3.291 -2.88117 0
M  V30 5995 C 535.016 4.47468 -2.76873 0
M  V30 5996 O 534.042 4.4823 -3.50825 0
M  V30 5997 N 535.244 5.48593 -1.89806 0
M  V30 5998 H 538.009 1.47795 -2.60723 0
M  V30 5999 H 535.57 0.66858 -1.4745 0
M  V30 6000 H 537.562 3.75666 -1.50523 0
M  V30 6001 H 536.132 3.04218 -0.719036 0
M  V30 6002 H 535.352 2.40662 -3.12211 0
M  V30 6003 H 536.64 3.46334 -3.72734 0
M  V30 6004 H 536.038 5.50791 -1.2902 0
M  V30 6005 H 534.595 6.24752 -1.85819 0
M  V30 6006 N 538.028 1.39524 0.732853 0
M  V30 6007 C 539.444 1.21176 1.03868 0
M  V30 6008 C 539.644 0.0748448 2.01361 0
M  V30 6009 O 538.7 -0.57281 2.45917 0
M  V30 6010 C 540.013 2.54667 1.59892 0
M  V30 6011 C 541.561 2.6153 1.71962 0
M  V30 6012 C 542.036 3.95248 2.31394 0
M  V30 6013 N 543.527 3.96899 2.38801 0
M  V30 6014 C 544.262 4.97138 2.85729 0
M  V30 6015 N 543.758 6.07775 3.32537 0
M  V30 6016 N 545.551 4.84516 2.84957 0
M  V30 6017 H 537.702 2.12225 0.086304 0
M  V30 6018 H 539.965 0.942614 0.100907 0
M  V30 6019 H 539.671 3.38423 0.95721 0
M  V30 6020 H 539.545 2.74538 2.58668 0
M  V30 6021 H 541.932 1.78156 2.35254 0
M  V30 6022 H 542.013 2.45507 0.718327 0
M  V30 6023 H 541.657 4.79054 1.68729 0
M  V30 6024 H 541.587 4.08593 3.32204 0
M  V30 6025 H 544.078 3.16998 2.05719 0
M  V30 6026 H 544.391 6.8017 3.66862 0
M  V30 6027 H 542.736 6.11366 3.30541 0
M  V30 6028 H 545.927 3.97185 2.47713 0
M  V30 6029 H 546.1 5.62783 3.21215 0
M  V30 6030 N 539.506 -0.963266 1.24736 0
M  V30 6031 C 540.755 -1.70115 1.08369 0
M  V30 6032 C 541.068 -1.91939 -0.376688 0
M  V30 6033 O 542.274 -2.6334 -0.660624 0
M  V30 6034 C 540.73 -3.06218 1.89099 0
M  V30 6035 C 540.338 -2.92221 3.39574 0
M  V30 6036 C 542.082 -3.83848 1.81275 0
M  V30 6037 C 539.989 -4.23662 4.12631 0
M  V30 6038 H 538.919 -0.637944 0.401924 0
M  V30 6039 H 541.57 -1.07304 1.48856 0
M  V30 6040 H 539.952 -3.69884 1.41429 0
M  V30 6041 H 541.126 -2.37541 3.94856 0
M  V30 6042 H 539.441 -2.28054 3.48397 0
M  V30 6043 H 542.038 -4.81188 2.33158 0
M  V30 6044 H 542.381 -4.08949 0.778895 0
M  V30 6045 H 542.914 -3.26918 2.26649 0
M  V30 6046 H 539.653 -4.03753 5.16395 0
M  V30 6047 H 539.173 -4.78141 3.62135 0
M  V30 6048 H 540.852 -4.92256 4.19873 0
M  V30 6049 N 540.985 -1.06182 -1.16461 0
M  V30 6050 C 541.915 -0.692861 -2.22984 0
M  V30 6051 C 542.896 0.314122 -1.67174 0
M  V30 6052 O 544.081 0.189499 -1.93273 0
M  V30 6053 C 541.211 -0.07732 -3.47214 0
M  V30 6054 C 540.165 -1.01015 -4.15909 0
M  V30 6055 C 539.491 -0.257973 -5.34077 0
M  V30 6056 C 540.791 -2.33868 -4.67015 0
M  V30 6057 H 542.485 -1.58343 -2.54102 0
M  V30 6058 H 540.031 -0.76279 -1.22137 0
M  V30 6059 H 541.984 0.19266 -4.20959 0
M  V30 6060 H 540.708 0.848254 -3.15392 0
M  V30 6061 H 539.367 -1.26486 -3.44088 0
M  V30 6062 H 539.015 0.670684 -4.98509 0
M  V30 6063 H 538.715 -0.879638 -5.80979 0
M  V30 6064 H 540.239 0.00448788 -6.106 0
M  V30 6065 H 541.653 -2.1279 -5.32347 0
M  V30 6066 H 540.05 -2.91522 -5.24533 0
M  V30 6067 H 541.12 -2.97019 -3.83286 0
M  V30 6068 N 542.463 1.3308 -0.844243 0
M  V30 6069 C 543.74 1.92178 -0.364261 0
M  V30 6070 C 544.12 1.76961 1.15101 0
M  V30 6071 O 543.468 1.16128 1.9679 0
M  V30 6072 C 543.678 3.393 -0.817106 0
M  V30 6073 C 545.026 4.16444 -0.828236 0
M  V30 6074 O 546.05 3.47975 -0.761062 0
M  V30 6075 O 544.909 5.38685 -0.920926 0
M  V30 6076 H 542.003 0.820411 -0.10419 0
M  V30 6077 H 544.549 1.41918 -0.930453 0
M  V30 6078 H 543.321 3.44272 -1.85991 0
M  V30 6079 H 542.944 3.96947 -0.227785 0
M  V30 6080 N 543.941 0.601185 1.45683 0
M  V30 6081 C 544.889 -0.133955 2.32214 0
M  V30 6082 C 545.883 -0.866034 1.45589 0
M  V30 6083 O 547.089 -0.782326 1.6211 0
M  V30 6084 H 543.464 -0.0620613 0.749435 0
M  V30 6085 H 545.435 0.614389 2.92007 0
M  V30 6086 C 544.184 -1.12216 3.29094 0
M  V30 6087 H 543.507 -0.568273 3.95741 0
M  V30 6088 H 544.947 -1.60659 3.92383 0
M  V30 6089 C 543.406 -2.19251 2.55794 0
M  V30 6090 O 543.936 -3.26894 2.33459 0
M  V30 6091 N 542.142 -1.9436 2.16039 0
M  V30 6092 H 541.689 -1.06829 2.34404 0
M  V30 6093 H 541.647 -2.66181 1.67318 0
M  V30 6094 N 545.419 -1.53889 0.339982 0
M  V30 6095 C 546.647 -2.05271 -0.259114 0
M  V30 6096 C 547.062 -1.21517 -1.44496 0
M  V30 6097 O 546.419 -0.24966 -1.80784 0
M  V30 6098 C 546.47 -3.55092 -0.677634 0
M  V30 6099 O 546.191 -4.35667 0.461051 0
M  V30 6100 C 547.692 -4.22631 -1.33782 0
M  V30 6101 H 544.912 -0.669085 -0.0506566 0
M  V30 6102 H 547.456 -1.9852 0.490935 0
M  V30 6103 H 545.611 -3.62077 -1.37763 0
M  V30 6104 H 546.025 -5.24343 0.128144 0
M  V30 6105 H 547.499 -5.28861 -1.58145 0
M  V30 6106 H 547.976 -3.74758 -2.29027 0
M  V30 6107 H 548.582 -4.19829 -0.679957 0
M  V30 6108 N 546.897 -0.0685191 -1.57451 0
M  V30 6109 C 548.122 0.613919 -1.98106 0
M  V30 6110 C 548.547 1.62551 -0.946501 0
M  V30 6111 O 547.905 1.81085 0.0882824 0
M  V30 6112 C 547.953 1.26189 -3.378 0
M  V30 6113 O 547.057 2.37773 -3.36954 0
M  V30 6114 H 546.398 0.158163 -0.644888 0
M  V30 6115 H 548.928 -0.142063 -2.04106 0
M  V30 6116 H 548.938 1.60951 -3.74912 0
M  V30 6117 H 547.613 0.520625 -4.12629 0
M  V30 6118 H 546.19 2.04829 -3.11608 0
M  V30 6119 N 548.375 1.56261 0.205012 0
M  V30 6120 C 549.285 1.96944 1.27476 0
M  V30 6121 C 550.301 0.875636 1.50362 0
M  V30 6122 O 551.477 1.18058 1.6317 0
M  V30 6123 C 548.542 2.29219 2.60115 0
M  V30 6124 C 547.603 3.52255 2.45387 0
M  V30 6125 C 546.836 3.8298 3.71701 0
M  V30 6126 O 547.059 3.15138 4.75441 0
M  V30 6127 O 545.993 4.76435 3.67823 0
M  V30 6128 H 549.819 2.88144 0.959527 0
M  V30 6129 H 547.404 1.43686 0.409217 0
M  V30 6130 H 549.286 2.51098 3.3842 0
M  V30 6131 H 547.961 1.4119 2.91285 0
M  V30 6132 H 546.868 3.35635 1.65227 0
M  V30 6133 H 548.201 4.40719 2.19152 0
M  V30 6134 N 549.853 -0.472356 1.50355 0
M  V30 6135 C 551.264 -1.05326 1.54154 0
M  V30 6136 C 551.615 -1.93155 0.344303 0
M  V30 6137 O 550.74 -2.09479 -0.542928 0
M  V30 6138 C 551.335 -1.91691 2.79356 0
M  V30 6139 C 549.894 -2.44892 2.8584 0
M  V30 6140 C 549.041 -1.23205 2.48426 0
M  V30 6141 H 551.992 -0.255027 1.56637 0
M  V30 6142 H 552.013 -2.76742 2.6114 0
M  V30 6143 H 551.525 -1.27741 3.66475 0
M  V30 6144 H 549.626 -3.12399 2.0307 0
M  V30 6145 H 549.739 -2.80086 3.88701 0
M  V30 6146 H 548.103 -1.56643 2.00836 0
M  V30 6147 H 548.886 -0.609194 3.37852 0
M  V30 6148 N 551.331 -1.39911 -0.725443 0
M  V30 6149 C 552.263 -1.35301 -1.85003 0
M  V30 6150 C 553.276 -0.260102 -1.60709 0
M  V30 6151 O 554.465 -0.519749 -1.70766 0
M  V30 6152 C 551.565 -1.08039 -3.21218 0
M  V30 6153 C 550.738 -2.28793 -3.7279 0
M  V30 6154 C 549.797 -1.97841 -4.87591 0
M  V30 6155 O 548.823 -2.70616 -5.00755 0
M  V30 6156 N 550.025 -0.950367 -5.72668 0
M  V30 6157 H 552.79 -2.32218 -1.89459 0
M  V30 6158 H 550.351 -1.34137 -0.90658 0
M  V30 6159 H 552.343 -0.853354 -3.95601 0
M  V30 6160 H 550.913 -0.198229 -3.11971 0
M  V30 6161 H 550.133 -2.67388 -2.8965 0
M  V30 6162 H 551.421 -3.09317 -4.03981 0
M  V30 6163 H 550.819 -0.347436 -5.64632 0
M  V30 6164 H 549.376 -0.783232 -6.47077 0
M  V30 6165 N 552.809 0.956637 -1.25245 0
M  V30 6166 C 554.22 1.51569 -1.09012 0
M  V30 6167 C 554.571 1.93322 0.334813 0
M  V30 6168 O 553.696 1.78421 1.22454 0
M  V30 6169 C 554.291 2.75444 -1.97271 0
M  V30 6170 C 552.85 3.27669 -1.8523 0
M  V30 6171 C 551.997 2.00517 -1.91542 0
M  V30 6172 H 554.948 0.773746 -1.3856 0
M  V30 6173 H 554.969 3.4919 -1.51151 0
M  V30 6174 H 554.481 2.45024 -3.00973 0
M  V30 6175 H 552.582 3.62914 -0.844045 0
M  V30 6176 H 552.695 3.9582 -2.69932 0
M  V30 6177 H 551.059 2.15727 -1.35404 0
M  V30 6178 H 551.842 1.72448 -2.96844 0
M  V30 6179 N 554.287 1.06798 1.15896 0
M  V30 6180 C 555.535 0.786211 1.8618 0
M  V30 6181 C 555.856 -0.689547 1.82401 0
M  V30 6182 O 555.126 -1.49913 1.26107 0
M  V30 6183 H 553.706 0.287843 0.689315 0
M  V30 6184 H 556.368 1.35055 1.40521 0
M  V30 6185 H 555.464 1.1157 2.91477 0
M  V30 6186 N 555.766 -1.3263 0.851289 0
M  V30 6187 C 556.676 -2.32722 0.296268 0
M  V30 6188 C 557.692 -1.63901 -0.584162 0
M  V30 6189 O 558.868 -1.95465 -0.485334 0
M  V30 6190 C 555.933 -3.42942 -0.509103 0
M  V30 6191 C 554.994 -4.2746 0.397069 0
M  V30 6192 C 554.227 -5.32416 -0.36996 0
M  V30 6193 O 554.45 -5.47491 -1.6003 0
M  V30 6194 O 553.384 -6.01327 0.262493 0
M  V30 6195 H 557.21 -2.82078 1.12543 0
M  V30 6196 H 554.795 -1.36194 0.614135 0
M  V30 6197 H 556.677 -4.1017 -0.96634 0
M  V30 6198 H 555.352 -2.95781 -1.31512 0
M  V30 6199 H 554.259 -3.63053 0.902411 0
M  V30 6200 H 555.592 -4.78136 1.16818 0
M  V30 6201 N 557.244 -0.608902 -1.45362 0
M  V30 6202 C 558.207 0.0992563 -2.28985 0
M  V30 6203 C 559.207 0.793841 -1.39838 0
M  V30 6204 O 560.397 0.641804 -1.61946 0
M  V30 6205 C 557.529 1.15073 -3.20891 0
M  V30 6206 H 558.722 -0.635964 -2.93079 0
M  V30 6207 H 556.275 -0.368007 -1.51906 0
M  V30 6208 H 557.01 1.91667 -2.616 0
M  V30 6209 H 556.795 0.656867 -3.86559 0
M  V30 6210 H 558.285 1.64665 -3.83765 0
M  V30 6211 N 558.722 1.53707 -0.348139 0
M  V30 6212 C 560.138 1.596 0.00361134 0
M  V30 6213 C 560.338 1.36394 1.4832 0
M  V30 6214 O 559.394 1.16046 2.24253 0
M  V30 6215 C 560.707 2.97512 -0.436682 0
M  V30 6216 C 562.255 3.10568 -0.389416 0
M  V30 6217 C 562.73 4.50866 -0.805249 0
M  V30 6218 N 564.221 4.56929 -0.759616 0
M  V30 6219 C 564.956 5.63643 -1.05327 0
M  V30 6220 N 564.452 6.78189 -1.41531 0
M  V30 6221 N 566.245 5.5354 -0.977207 0
M  V30 6222 H 558.396 1.67044 -1.31187 0
M  V30 6223 H 560.659 0.782559 -0.535075 0
M  V30 6224 H 560.365 3.19575 -1.46849 0
M  V30 6225 H 560.239 3.76742 0.185744 0
M  V30 6226 H 562.626 2.88226 0.633228 0
M  V30 6227 H 562.707 2.33387 -1.04711 0
M  V30 6228 H 562.351 4.73943 -1.82593 0
M  V30 6229 H 562.281 5.26452 -0.124989 0
M  V30 6230 H 564.772 3.74675 -0.49265 0
M  V30 6231 H 565.085 7.55541 -1.62411 0
M  V30 6232 H 563.43 6.79624 -1.45381 0
M  V30 6233 H 566.621 4.62932 -0.693675 0
M  V30 6234 H 566.794 6.36614 -1.2094 0
M  V30 6235 N 560.2 0.0768682 1.57412 0
M  V30 6236 C 561.13 -0.886026 2.16037 0
M  V30 6237 C 562.111 -1.30691 1.08876 0
M  V30 6238 O 563.296 -1.37705 1.36934 0
M  V30 6239 C 560.426 -2.1518 2.72608 0
M  V30 6240 C 559.38 -1.87015 3.8498 0
M  V30 6241 C 558.706 -3.20266 4.28175 0
M  V30 6242 C 560.006 -1.17143 5.08994 0
M  V30 6243 H 561.7 -0.397642 2.96748 0
M  V30 6244 H 559.246 -0.189823 1.42743 0
M  V30 6245 H 561.199 -2.82962 3.12266 0
M  V30 6246 H 559.923 -2.66269 1.89125 0
M  V30 6247 H 558.582 -1.21636 3.45833 0
M  V30 6248 H 558.23 -3.69207 3.41607 0
M  V30 6249 H 557.93 -3.0221 5.03927 0
M  V30 6250 H 559.454 -3.89237 4.70454 0
M  V30 6251 H 560.868 -1.75003 5.45937 0
M  V30 6252 H 559.265 -1.09328 5.90057 0
M  V30 6253 H 560.335 -0.151295 4.84664 0
M  V30 6254 N 561.678 -1.56367 -0.196722 0
M  V30 6255 C 562.641 -1.93561 -1.22746 0
M  V30 6256 C 563.641 -0.816566 -1.38524 0
M  V30 6257 O 564.831 -1.084 -1.36363 0
M  V30 6258 C 561.963 -2.20823 -2.59712 0
M  V30 6259 H 563.156 -2.85774 -0.909586 0
M  V30 6260 H 560.709 -1.50032 -0.438174 0
M  V30 6261 H 561.444 -1.31243 -2.96557 0
M  V30 6262 H 561.229 -3.02368 -2.49632 0
M  V30 6263 H 562.719 -2.50608 -3.34044 0
M  V30 6264 N 563.156 0.464375 -1.50603 0
M  V30 6265 C 564.119 1.54393 -1.69397 0
M  V30 6266 C 565.119 1.50566 -0.564504 0
M  V30 6267 O 566.309 1.53066 -0.831645 0
M  V30 6268 C 563.441 2.9401 -1.72543 0
M  V30 6269 H 564.634 1.39044 -2.65719 0
M  V30 6270 H 562.187 0.69122 -1.40185 0
M  V30 6271 H 562.922 3.14795 -0.77938 0
M  V30 6272 H 562.707 2.98195 -2.54602 0
M  V30 6273 H 564.197 3.72375 -1.89015 0
M  V30 6274 N 564.634 1.40294 0.718013 0
M  V30 6275 C 565.564 1.43118 1.84498 0
M  V30 6276 C 566.545 0.292403 1.67568 0
M  V30 6277 O 567.73 0.500675 1.87635 0
M  V30 6278 C 564.86 1.29065 3.22427 0
M  V30 6279 C 563.814 2.40521 3.54025 0
M  V30 6280 C 563.14 2.11546 4.91073 0
M  V30 6281 C 564.44 3.82859 3.55269 0
M  V30 6282 H 566.134 2.37432 1.82391 0
M  V30 6283 H 563.68 1.14283 0.87609 0
M  V30 6284 H 565.633 1.29658 4.00957 0
M  V30 6285 H 564.357 0.312271 3.25104 0
M  V30 6286 H 563.016 2.39173 2.77834 0
M  V30 6287 H 562.664 1.12104 4.90348 0
M  V30 6288 H 562.364 2.86216 5.1318 0
M  V30 6289 H 563.888 2.13817 5.71939 0
M  V30 6290 H 565.302 3.86044 4.23843 0
M  V30 6291 H 563.699 4.57029 3.88902 0
M  V30 6292 H 564.769 4.12617 2.54706 0
M  V30 6293 N 566.112 -0.949982 1.2575 0
M  V30 6294 C 567.34 -1.72972 1.13527 0
M  V30 6295 C 567.755 -1.8623 -0.310453 0
M  V30 6296 O 567.112 -1.36336 -1.2132 0
M  V30 6297 C 567.163 -3.14108 1.78936 0
M  V30 6298 O 566.884 -3.01493 3.17858 0
M  V30 6299 C 568.385 -4.08338 1.72554 0
M  V30 6300 H 565.605 -0.541864 0.395758 0
M  V30 6301 H 568.149 -1.19151 1.66202 0
M  V30 6302 H 566.304 -3.64858 1.30221 0
M  V30 6303 H 566.718 -3.90559 3.50092 0
M  V30 6304 H 568.192 -5.04963 2.22973 0
M  V30 6305 H 568.669 -4.33742 0.690251 0
M  V30 6306 H 569.275 -3.63506 2.2078 0
M  V30 6307 N 567.59 -1.07411 -1.15328 0
M  V30 6308 C 568.553 -0.698914 -2.18284 0
M  V30 6309 C 569.553 0.261149 -1.58665 0
M  V30 6310 O 570.743 0.0420277 -1.74149 0
M  V30 6311 C 567.875 -0.0302427 -3.40887 0
M  V30 6312 H 569.068 -1.61045 -2.52991 0
M  V30 6313 H 566.621 -0.870724 -1.298 0
M  V30 6314 H 567.356 0.893505 -3.11748 0
M  V30 6315 H 567.141 -0.720759 -3.85419 0
M  V30 6316 H 568.631 0.21759 -4.17033 0
M  V30 6317 N 569.068 1.32177 -0.85831 0
M  V30 6318 C 570.316 1.96735 -0.462568 0
M  V30 6319 C 570.637 1.6824 0.985911 0
M  V30 6320 O 569.907 0.991564 1.68952 0
M  V30 6321 H 568.487 0.727849 -0.168064 0
M  V30 6322 H 571.149 1.61195 -1.09554 0
M  V30 6323 H 570.245 3.06068 -0.610647 0
M  V30 6324 N 570.547 0.616602 1.45037 0
M  V30 6325 C 571.824 0.0469086 1.95544 0
M  V30 6326 C 572.204 -1.42345 1.55888 0
M  V30 6327 O 571.552 -2.13055 0.825824 0
M  V30 6328 C 571.762 0.254489 3.48071 0
M  V30 6329 C 573.11 0.140025 4.24369 0
M  V30 6330 O 574.134 0.185084 3.55719 0
M  V30 6331 O 572.993 0.0327034 5.4649 0
M  V30 6332 H 570.087 -0.0306051 0.826433 0
M  V30 6333 H 572.633 0.687293 1.55159 0
M  V30 6334 H 571.405 1.27532 3.69934 0
M  V30 6335 H 571.028 -0.42073 3.95368 0
M  V30 6336 N 572.025 -1.5352 0.356285 0
M  V30 6337 C 573.441 -1.59599 0.00485267 0
M  V30 6338 C 573.641 -1.37179 -1.47595 0
M  V30 6339 O 572.697 -1.17234 -2.23635 0
M  V30 6340 C 574.01 -2.97277 0.452454 0
M  V30 6341 C 575.558 -3.10357 0.405881 0
M  V30 6342 C 576.033 -4.50432 0.829148 0
M  V30 6343 N 577.524 -4.5652 0.783838 0
M  V30 6344 C 578.259 -5.63077 1.08315 0
M  V30 6345 N 577.755 -6.77429 1.45126 0
M  V30 6346 N 579.548 -5.53014 1.00655 0
M  V30 6347 H 571.699 -1.66346 1.32071 0
M  V30 6348 H 573.962 -0.77971 0.539218 0
M  V30 6349 H 573.668 -3.18792 1.48542 0
M  V30 6350 H 573.542 -3.76836 -0.165762 0
M  V30 6351 H 575.929 -2.88558 -0.617934 0
M  V30 6352 H 576.01 -2.32828 1.05947 0
M  V30 6353 H 575.654 -4.72968 1.85103 0
M  V30 6354 H 575.584 -5.26378 0.152906 0
M  V30 6355 H 578.075 -3.74408 0.512513 0
M  V30 6356 H 578.388 -7.54669 1.66415 0
M  V30 6357 H 576.733 -6.78844 1.48983 0
M  V30 6358 H 579.924 -4.62557 0.718215 0
M  V30 6359 H 580.097 -6.35964 1.24315 0
M  V30 6360 N 573.503 -0.0852151 -1.57369 0
M  V30 6361 C 574.749 0.581666 -1.94279 0
M  V30 6362 C 575.082 1.68444 -0.966446 0
M  V30 6363 O 574.357 1.945 0.00215277 0
M  V30 6364 C 574.64 1.14609 -3.41375 0
M  V30 6365 C 574.493 0.0490414 -4.49773 0
M  V30 6366 C 575.812 2.04751 -3.8957 0
M  V30 6367 H 572.931 0.209972 -0.706456 0
M  V30 6368 H 575.573 -0.153915 -1.89376 0
M  V30 6369 H 573.723 1.77297 -3.45685 0
M  V30 6370 H 575.395 -0.584721 -4.57579 0
M  V30 6371 H 573.638 -0.618638 -4.29366 0
M  V30 6372 H 574.309 0.484601 -5.49869 0
M  V30 6373 H 576.785 1.51981 -3.87351 0
M  V30 6374 H 575.661 2.41173 -4.93079 0
M  V30 6375 H 575.922 2.96107 -3.28288 0
M  V30 6376 N 574.981 1.5647 0.188427 0
M  V30 6377 C 576.392 1.70864 0.752494 0
M  V30 6378 C 576.743 0.692905 1.83557 0
M  V30 6379 O 575.868 -0.149307 2.15884 0
M  V30 6380 C 576.463 3.09789 1.37173 0
M  V30 6381 C 575.022 3.25925 1.88281 0
M  V30 6382 C 574.169 2.66817 0.755259 0
M  V30 6383 H 577.12 1.58657 -0.0367408 0
M  V30 6384 H 577.141 3.07489 2.24122 0
M  V30 6385 H 576.653 3.83693 0.583219 0
M  V30 6386 H 574.754 2.56948 2.6983 0
M  V30 6387 H 574.867 4.33498 2.04001 0
M  V30 6388 H 573.231 2.2617 1.17128 0
M  V30 6389 H 574.014 3.43294 -0.0211237 0
M  V30 6390 N 576.459 -0.456382 1.50847 0
M  V30 6391 C 577.705 -1.20618 1.63777 0
M  V30 6392 C 578.06 -1.8936 0.340677 0
M  V30 6393 O 577.353 -1.79786 -0.662378 0
M  V30 6394 C 577.547 -2.26336 2.76599 0
M  V30 6395 C 577.376 -1.67968 4.17153 0
M  V30 6396 C 576.146 -1.47293 4.83356 0
M  V30 6397 C 578.344 -1.16643 5.00898 0
M  V30 6398 N 576.326 -0.843222 6.08081 0
M  V30 6399 C 577.697 -0.660843 6.16468 0
M  V30 6400 C 579.752 -1.05637 4.86565 0
M  V30 6401 C 578.455 -0.0560365 7.19278 0
M  V30 6402 C 580.481 -0.465485 5.89565 0
M  V30 6403 C 579.843 0.0296516 7.04394 0
M  V30 6404 H 575.942 -0.429725 0.653345 0
M  V30 6405 H 578.526 -0.505784 1.88016 0
M  V30 6406 H 576.697 -2.93785 2.54056 0
M  V30 6407 H 578.429 -2.9334 2.78808 0
M  V30 6408 H 575.184 -1.72934 4.40898 0
M  V30 6409 H 575.608 -0.546357 6.74792 0
M  V30 6410 H 580.25 -1.42508 3.98059 0
M  V30 6411 H 577.968 0.324845 8.07447 0
M  V30 6412 H 581.554 -0.382493 5.80541 0
M  V30 6413 H 580.434 0.479705 7.82731 0
M  V30 6414 N 577.937 -1.40673 -0.710563 0
M  V30 6415 C 578.9 -1.4108 -1.80635 0
M  V30 6416 C 579.9 -0.303783 -1.57904 0
M  V30 6417 O 581.09 -0.562937 -1.64853 0
M  V30 6418 C 578.222 -1.20748 -3.18799 0
M  V30 6419 H 579.415 -2.38612 -1.81671 0
M  V30 6420 H 576.968 -1.26595 -0.916704 0
M  V30 6421 H 577.703 -0.239964 -3.23411 0
M  V30 6422 H 577.488 -2.00941 -3.36698 0
M  V30 6423 H 578.978 -1.23833 -3.98817 0
M  V30 6424 N 579.415 0.9433 -1.26252 0
M  V30 6425 C 580.831 1.21644 -1.03319 0
M  V30 6426 C 581.031 2.0003 0.242983 0
M  V30 6427 O 580.087 2.33838 0.952688 0
M  V30 6428 C 581.4 1.97978 -2.2633 0
M  V30 6429 C 582.948 2.10978 -2.31209 0
M  V30 6430 C 583.423 2.90713 -3.53907 0
M  V30 6431 N 584.914 2.98287 -3.54371 0
M  V30 6432 C 585.649 3.60406 -4.45976 0
M  V30 6433 N 585.145 4.24043 -5.47868 0
M  V30 6434 N 586.938 3.57658 -4.33633 0
M  V30 6435 H 579.089 0.419221 -2.08222 0
M  V30 6436 H 581.352 0.247995 -0.914988 0
M  V30 6437 H 581.058 1.47788 -3.19142 0
M  V30 6438 H 580.932 2.9865 -2.30408 0
M  V30 6439 H 583.319 2.6036 -1.38913 0
M  V30 6440 H 583.4 1.09575 -2.31143 0
M  V30 6441 H 583.044 2.42018 -4.46531 0
M  V30 6442 H 582.974 3.92367 -3.5122 0
M  V30 6443 H 585.465 2.53044 -2.80673 0
M  V30 6444 H 585.778 4.69334 -6.13959 0
M  V30 6445 H 584.123 4.22637 -5.51728 0
M  V30 6446 H 587.314 3.07134 -3.53251 0
M  V30 6447 H 587.487 4.05782 -5.05218 0
M  V30 6448 N 580.893 1.08022 1.14757 0
M  V30 6449 C 582.133 0.816959 1.87364 0
M  V30 6450 C 582.497 -0.645407 1.80827 0
M  V30 6451 O 583.698 -1.024 2.48531 0
M  V30 6452 C 581.969 1.31961 3.32146 0
M  V30 6453 S 583.528 1.18806 4.2241 0
M  V30 6454 H 580.346 0.295862 0.646519 0
M  V30 6455 H 582.948 1.3807 1.38408 0
M  V30 6456 H 581.652 2.37847 3.3445 0
M  V30 6457 H 581.183 0.751371 3.86158 0
M  V30 6458 H 583.198 0.129865 4.9603 0
M  V30 6459 N 582.371 -1.3172 0.865308 0
M  V30 6460 C 583.787 -1.4958 0.556596 0
M  V30 6461 C 583.987 -1.79763 -0.910353 0
M  V30 6462 O 583.043 -1.87351 -1.6928 0
M  V30 6463 C 584.356 -2.63277 1.45279 0
M  V30 6464 C 585.904 -2.77161 1.45433 0
M  V30 6465 C 586.379 -3.93949 2.33598 0
M  V30 6466 N 587.87 -4.01228 2.31453 0
M  V30 6467 C 588.605 -4.90855 2.96393 0
M  V30 6468 N 588.101 -5.85416 3.70486 0
M  V30 6469 N 589.894 -4.84063 2.85726 0
M  V30 6470 H 582.045 -1.10396 1.81456 0
M  V30 6471 H 584.308 -0.54507 0.775631 0
M  V30 6472 H 584.014 -2.47734 2.49641 0
M  V30 6473 H 583.888 -3.59309 1.14792 0
M  V30 6474 H 586.275 -2.9212 0.41831 0
M  V30 6475 H 586.356 -1.8181 1.79941 0
M  V30 6476 H 586 -3.79748 3.37274 0
M  V30 6477 H 585.93 -4.88598 1.96417 0
M  V30 6478 H 588.421 -3.3357 1.77593 0
M  V30 6479 H 588.734 -6.50525 4.17178 0
M  V30 6480 H 587.079 -5.85409 3.74594 0
M  V30 6481 H 590.27 -4.09163 2.27384 0
M  V30 6482 H 590.443 -5.53708 3.36617 0
M  V30 6483 N 583.85 -0.624285 -1.44708 0
M  V30 6484 C 584.782 0.12305 -2.28869 0
M  V30 6485 C 585.795 0.81557 -1.40898 0
M  V30 6486 O 586.984 0.678162 -1.65116 0
M  V30 6487 C 584.084 1.19612 -3.1709 0
M  V30 6488 C 583.257 0.587452 -4.33437 0
M  V30 6489 C 582.316 1.55358 -5.02743 0
M  V30 6490 O 581.341 1.07338 -5.58988 0
M  V30 6491 N 582.543 2.88798 -5.03563 0
M  V30 6492 H 585.308 -0.599193 -2.93649 0
M  V30 6493 H 582.87 -0.464954 -1.5508 0
M  V30 6494 H 584.861 1.84261 -3.60319 0
M  V30 6495 H 583.432 1.82067 -2.54107 0
M  V30 6496 H 582.652 -0.237509 -3.93484 0
M  V30 6497 H 583.94 0.161326 -5.08544 0
M  V30 6498 H 583.338 3.30399 -4.59188 0
M  V30 6499 H 581.894 3.48826 -5.50603 0
M  V30 6500 N 585.328 1.53329 -0.364422 0
M  V30 6501 C 586.291 2.24323 0.470292 0
M  V30 6502 C 587.291 1.25068 1.01067 0
M  V30 6503 O 588.481 1.49354 0.896605 0
M  V30 6504 C 585.613 2.97908 1.65722 0
M  V30 6505 H 586.806 2.9952 -0.150917 0
M  V30 6506 H 584.359 1.55868 -0.116092 0
M  V30 6507 H 585.094 2.2695 2.31655 0
M  V30 6508 H 584.879 3.70732 1.27671 0
M  V30 6509 H 586.369 3.5188 2.24878 0
M  V30 6510 N 586.806 0.0935595 1.57322 0
M  V30 6511 C 588.036 -0.578095 1.98347 0
M  V30 6512 C 588.444 -1.62357 0.971441 0
M  V30 6513 O 587.787 -1.83639 -0.0473959 0
M  V30 6514 C 587.849 -1.28525 3.3574 0
M  V30 6515 C 587.513 -0.390714 4.55327 0
M  V30 6516 C 588.51 0.360522 5.18648 0
M  V30 6517 C 586.195 -0.309221 5.01347 0
M  V30 6518 C 588.189 1.18125 6.26359 0
M  V30 6519 C 585.876 0.515157 6.08925 0
M  V30 6520 C 586.874 1.25904 6.71295 0
M  V30 6521 O 586.562 2.06978 7.76798 0
M  V30 6522 H 586.294 -0.159767 0.656849 0
M  V30 6523 H 588.848 0.169058 2.04703 0
M  V30 6524 H 587.078 -2.07894 3.26063 0
M  V30 6525 H 588.767 -1.85128 3.61223 0
M  V30 6526 H 589.533 0.307285 4.84026 0
M  V30 6527 H 585.412 -0.877881 4.52564 0
M  V30 6528 H 588.956 1.76236 6.74971 0
M  V30 6529 H 584.853 0.56988 6.42979 0
M  V30 6530 H 585.621 1.99644 7.93779 0
M  V30 6531 N 588.284 -1.56567 -0.180126 0
M  V30 6532 C 589.531 -1.81492 -0.898167 0
M  V30 6533 C 589.859 -0.669225 -1.82624 0
M  V30 6534 O 589.114 0.344096 -1.92651 0
M  V30 6535 C 589.413 -3.1252 -1.73395 0
M  V30 6536 C 589.079 -4.40658 -0.955567 0
M  V30 6537 C 587.741 -4.75465 -0.740707 0
M  V30 6538 C 590.093 -5.19593 -0.408948 0
M  V30 6539 C 587.421 -5.86691 0.0320128 0
M  V30 6540 C 589.773 -6.31627 0.350638 0
M  V30 6541 C 588.437 -6.65007 0.576378 0
M  V30 6542 H 587.707 -0.664125 -0.328662 0
M  V30 6543 H 590.354 -1.908 -0.163616 0
M  V30 6544 H 588.659 -2.98515 -2.53763 0
M  V30 6545 H 590.356 -3.29013 -2.29241 0
M  V30 6546 H 586.946 -4.13352 -1.13306 0
M  V30 6547 H 591.13 -4.93104 -0.562307 0
M  V30 6548 H 586.386 -6.11016 0.216735 0
M  V30 6549 H 590.56 -6.92001 0.781497 0
M  V30 6550 H 588.187 -7.51033 1.17703 0
M  V30 6551 N 589.762 0.448376 -1.51087 0
M  V30 6552 C 591.01 1.19635 -1.62886 0
M  V30 6553 C 591.331 1.91977 -0.342024 0
M  V30 6554 O 590.601 1.85094 0.641636 0
M  V30 6555 H 589.181 0.444598 -0.600285 0
M  V30 6556 H 591.843 0.515138 -1.87969 0
M  V30 6557 H 590.939 1.93194 -2.45117 0
M  V30 6558 N 591.24 1.41047 0.703093 0
M  V30 6559 C 592.656 1.23351 1.01275 0
M  V30 6560 C 592.856 0.11754 2.01157 0
M  V30 6561 O 591.912 -0.520518 2.47077 0
M  V30 6562 C 593.225 2.58001 1.54454 0
M  V30 6563 C 594.773 2.65119 1.66376 0
M  V30 6564 C 595.248 4.00067 2.22958 0
M  V30 6565 N 596.739 4.01875 2.30328 0
M  V30 6566 C 597.474 5.03087 2.75119 0
M  V30 6567 N 596.97 6.14692 3.19571 0
M  V30 6568 N 598.763 4.90451 2.74616 0
M  V30 6569 H 590.914 2.1236 0.0412686 0
M  V30 6570 H 593.177 0.944543 0.08089 0
M  V30 6571 H 592.883 3.40378 0.88521 0
M  V30 6572 H 592.757 2.79962 2.52786 0
M  V30 6573 H 595.144 1.83106 2.31422 0
M  V30 6574 H 595.225 2.46975 0.666089 0
M  V30 6575 H 594.869 4.82526 1.58529 0
M  V30 6576 H 594.799 4.15547 3.23462 0
M  V30 6577 H 597.29 3.21291 1.98949 0
M  V30 6578 H 597.603 6.87799 3.52352 0
M  V30 6579 H 595.948 6.18239 3.17498 0
M  V30 6580 H 599.139 4.0235 2.39233 0
M  V30 6581 H 599.312 5.6947 3.09206 0
M  V30 6582 N 592.718 -0.936591 1.26751 0
M  V30 6583 C 593.966 -1.67998 1.12343 0
M  V30 6584 C 594.287 -1.92137 -0.332938 0
M  V30 6585 O 593.557 -1.52132 -1.23421 0
M  V30 6586 H 592.137 -0.622609 0.412756 0
M  V30 6587 H 594.799 -1.12509 1.59147 0
M  V30 6588 H 593.895 -2.65185 1.64571 0
M  V30 6589 N 594.196 -1.08629 -1.14182 0
M  V30 6590 C 595.143 -0.718299 -2.19338 0
M  V30 6591 C 596.113 0.296587 -1.63431 0
M  V30 6592 O 597.298 0.180079 -1.89948 0
M  V30 6593 C 594.438 -0.136203 -3.44831 0
M  V30 6594 C 593.551 -1.20414 -4.14879 0
M  V30 6595 C 592.686 -0.585666 -5.27962 0
M  V30 6596 C 591.725 -1.63548 -5.89846 0
M  V30 6597 N 590.862 -1.03864 -6.94375 0
M  V30 6598 H 595.702 -1.61932 -2.50164 0
M  V30 6599 H 593.239 -0.80919 -1.22844 0
M  V30 6600 H 595.197 0.219021 -4.16625 0
M  V30 6601 H 593.827 0.728121 -3.14481 0
M  V30 6602 H 592.879 -1.67676 -3.41451 0
M  V30 6603 H 594.191 -1.99959 -4.56966 0
M  V30 6604 H 593.345 -0.178818 -6.06436 0
M  V30 6605 H 592.084 0.24142 -4.87102 0
M  V30 6606 H 591.089 -2.05197 -5.10073 0
M  V30 6607 H 592.314 -2.46509 -6.3278 0
M  V30 6608 H 590.26 -0.232687 -6.55587 0
M  V30 6609 H 590.177 -1.77116 -7.3496 0
M  V30 6610 H 591.445 -0.657724 -7.7672 0
M  V30 6611 N 595.674 1.31259 -0.872281 0
M  V30 6612 C 596.622 2.30404 -0.318897 0
M  V30 6613 C 597.616 1.5962 0.567267 0
M  V30 6614 O 598.822 1.74204 0.453111 0
M  V30 6615 H 595.197 0.747243 -0.0844474 0
M  V30 6616 H 597.168 2.74549 -1.16899 0
M  V30 6617 C 595.917 3.44608 0.462683 0
M  V30 6618 H 595.24 3.99248 -0.209936 0
M  V30 6619 H 596.68 4.1609 0.815187 0
M  V30 6620 C 595.139 2.93456 1.65485 0
M  V30 6621 O 595.669 2.92418 2.75417 0
M  V30 6622 N 593.875 2.49628 1.48776 0
M  V30 6623 H 593.422 2.50671 0.593452 0
M  V30 6624 H 593.38 2.15759 2.28682 0
M  V30 6625 N 597.152 0.631951 1.44375 0
M  V30 6626 C 598.099 -0.0724807 2.30686 0
M  V30 6627 C 599.069 -0.835975 1.43529 0
M  V30 6628 O 600.254 -0.816849 1.7243 0
M  V30 6629 C 597.394 -1.04753 3.28817 0
M  V30 6630 C 596.507 -0.282367 4.31076 0
M  V30 6631 C 595.642 -1.2493 5.163 0
M  V30 6632 C 594.681 -0.473349 6.10267 0
M  V30 6633 N 593.818 -1.39079 6.88187 0
M  V30 6634 H 598.658 0.669477 2.90383 0
M  V30 6635 H 596.195 0.341927 1.43071 0
M  V30 6636 H 598.153 -1.62623 3.842 0
M  V30 6637 H 596.783 -1.75661 2.70819 0
M  V30 6638 H 595.835 0.412268 3.78159 0
M  V30 6639 H 597.147 0.321955 4.9776 0
M  V30 6640 H 596.301 -1.89931 5.76204 0
M  V30 6641 H 595.04 -1.88755 4.49692 0
M  V30 6642 H 594.045 0.190142 5.49471 0
M  V30 6643 H 595.27 0.16019 6.78911 0
M  V30 6644 H 593.216 -2.01623 6.24247 0
M  V30 6645 H 593.133 -0.840513 7.51313 0
M  V30 6646 H 594.401 -2.02961 7.52613 0
M  V30 6647 N 598.631 -1.53133 0.372548 0
M  V30 6648 C 599.563 -2.23557 -0.505444 0
M  V30 6649 C 600.576 -1.25211 -1.04049 0
M  V30 6650 O 601.765 -1.51391 -0.945675 0
M  V30 6651 C 598.865 -2.92516 -1.71136 0
M  V30 6652 C 598.038 -4.17428 -1.30661 0
M  V30 6653 C 597.097 -4.69535 -2.37536 0
M  V30 6654 O 596.123 -5.33042 -1.99637 0
M  V30 6655 N 597.325 -4.47947 -3.6922 0
M  V30 6656 H 600.09 -2.9954 0.0978259 0
M  V30 6657 H 597.651 -1.60684 0.198068 0
M  V30 6658 H 599.643 -3.24281 -2.42124 0
M  V30 6659 H 598.213 -2.19944 -2.22134 0
M  V30 6660 H 597.433 -3.91888 -0.426292 0
M  V30 6661 H 598.721 -4.98622 -1.01259 0
M  V30 6662 H 598.119 -3.97219 -4.02783 0
M  V30 6663 H 596.676 -4.84245 -4.36292 0
M  V30 6664 N 600.109 -0.101901 -1.5727 0
M  V30 6665 C 601.334 0.571759 -1.99363 0
M  V30 6666 C 601.759 1.60507 -0.980768 0
M  V30 6667 O 601.117 1.81231 0.0498517 0
M  V30 6668 C 601.165 1.18996 -3.404 0
M  V30 6669 O 600.269 2.30572 -3.41922 0
M  V30 6670 H 599.61 0.144449 -0.648098 0
M  V30 6671 H 602.14 -0.185325 -2.03759 0
M  V30 6672 H 602.15 1.52962 -3.78241 0
M  V30 6673 H 600.825 0.432984 -4.1364 0
M  V30 6674 H 599.402 1.98173 -3.15883 0
M  V30 6675 N 601.587 1.56661 0.17182 0
M  V30 6676 C 602.517 1.99401 1.21498 0
M  V30 6677 C 603.498 0.869516 1.46197 0
M  V30 6678 O 604.683 1.13556 1.57539 0
M  V30 6679 C 601.813 2.35346 2.55401 0
M  V30 6680 C 600.767 3.5075 2.45272 0
M  V30 6681 C 600.093 3.72437 3.8366 0
M  V30 6682 C 601.393 4.84216 1.95787 0
M  V30 6683 H 603.087 2.86792 0.859699 0
M  V30 6684 H 600.633 1.37977 0.412103 0
M  V30 6685 H 602.586 2.63843 3.2858 0
M  V30 6686 H 601.31 1.44864 2.92715 0
M  V30 6687 H 599.969 3.2238 1.74547 0
M  V30 6688 H 599.617 2.79246 4.18367 0
M  V30 6689 H 599.317 4.50087 3.77751 0
M  V30 6690 H 600.841 4.03334 4.58426 0
M  V30 6691 H 602.255 5.11592 2.5874 0
M  V30 6692 H 600.652 5.65498 2.00827 0
M  V30 6693 H 601.722 4.76243 0.912159 0
M  V30 6694 N 603.065 -0.440357 1.51323 0
M  V30 6695 C 604.342 -1.20109 1.5438 0
M  V30 6696 C 604.722 -2.08866 0.306303 0
M  V30 6697 O 604.07 -2.1723 -0.708773 0
M  V30 6698 C 604.28 -2.00555 2.8562 0
M  V30 6699 C 605.628 -2.577 3.37455 0
M  V30 6700 O 606.652 -2.10769 2.8715 0
M  V30 6701 O 605.511 -3.43289 4.25224 0
M  V30 6702 H 602.605 -0.546668 0.620551 0
M  V30 6703 H 605.151 -0.449672 1.63634 0
M  V30 6704 H 603.923 -1.35346 3.67147 0
M  V30 6705 H 603.546 -2.82768 2.79514 0
M  V30 6706 N 604.543 -1.41418 -0.695603 0
M  V30 6707 C 605.506 -1.42988 -1.79129 0
M  V30 6708 C 606.506 -0.320514 -1.57573 0
M  V30 6709 O 607.696 -0.58039 -1.64247 0
M  V30 6710 C 604.828 -1.24122 -3.175 0
M  V30 6711 H 606.021 -2.40526 -1.7913 0
M  V30 6712 H 603.574 -1.2756 -0.903225 0
M  V30 6713 H 604.309 -0.274253 -3.23138 0
M  V30 6714 H 604.094 -2.045 -3.34547 0
M  V30 6715 H 605.584 -1.28056 -3.97481 0
M  V30 6716 N 606.021 0.929856 -1.27246 0
M  V30 6717 C 607.267 1.6798 -1.13625 0
M  V30 6718 C 607.6 1.91586 0.317589 0
M  V30 6719 O 606.875 1.50467 1.23247 0
M  V30 6720 C 607.158 3.04766 -1.91806 0
M  V30 6721 C 607.011 2.88415 -3.45162 0
M  V30 6722 C 608.33 4.05063 -1.72082 0
M  V30 6723 H 605.449 0.609632 -0.414147 0
M  V30 6724 H 608.091 1.0792 -1.56376 0
M  V30 6725 H 606.241 3.56034 -1.55474 0
M  V30 6726 H 607.913 2.44282 -3.91311 0
M  V30 6727 H 606.156 2.23802 -3.71611 0
M  V30 6728 H 606.827 3.85482 -3.95105 0
M  V30 6729 H 609.303 3.62798 -2.03757 0
M  V30 6730 H 608.179 4.98765 -2.29182 0
M  V30 6731 H 608.44 4.37021 -0.668206 0
M  V30 6732 N 607.499 1.09233 1.13605 0
M  V30 6733 C 608.409 0.741939 2.22559 0
M  V30 6734 C 609.425 -0.255236 1.72118 0
M  V30 6735 O 610.601 -0.0970747 2.01166 0
M  V30 6736 C 607.666 0.165595 3.46304 0
M  V30 6737 C 606.727 1.21846 4.11645 0
M  V30 6738 C 605.96 0.669526 5.29484 0
M  V30 6739 O 606.183 -0.508228 5.68131 0
M  V30 6740 O 605.117 1.42361 5.84822 0
M  V30 6741 H 608.943 1.65107 2.54899 0
M  V30 6742 H 606.528 0.866584 1.21699 0
M  V30 6743 H 608.41 -0.152592 4.21124 0
M  V30 6744 H 607.085 -0.716573 3.15669 0
M  V30 6745 H 605.992 1.58931 3.38662 0
M  V30 6746 H 607.325 2.07321 4.46407 0
M  V30 6747 N 608.977 -1.30795 0.87923 0
M  V30 6748 C 609.924 -2.28282 0.339968 0
M  V30 6749 C 610.894 -1.56134 -0.566685 0
M  V30 6750 O 612.079 -1.84231 -0.496338 0
M  V30 6751 C 609.219 -3.42225 -0.444501 0
M  V30 6752 C 608.332 -4.29204 0.490717 0
M  V30 6753 C 607.467 -5.30302 -0.308784 0
M  V30 6754 C 606.506 -6.08929 0.622272 0
M  V30 6755 N 605.643 -7.01957 -0.14155 0
M  V30 6756 H 610.483 -2.73794 1.17647 0
M  V30 6757 H 608.02 -1.34682 0.591527 0
M  V30 6758 H 609.978 -4.07038 -0.915186 0
M  V30 6759 H 608.608 -2.97799 -1.24562 0
M  V30 6760 H 607.66 -3.6475 1.07988 0
M  V30 6761 H 608.972 -4.84045 1.20425 0
M  V30 6762 H 608.126 -6.00835 -0.841575 0
M  V30 6763 H 606.865 -4.7614 -1.05556 0
M  V30 6764 H 605.87 -5.37278 1.16674 0
M  V30 6765 H 607.095 -6.65178 1.36804 0
M  V30 6766 H 605.041 -6.50192 -0.870966 0
M  V30 6767 H 604.958 -7.54261 0.51246 0
M  V30 6768 H 606.226 -7.76741 -0.655271 0
M  V30 6769 N 610.455 -0.639598 -1.44038 0
M  V30 6770 C 611.418 0.0506628 -2.29144 0
M  V30 6771 C 612.418 0.764001 -1.41491 0
M  V30 6772 O 613.608 0.607309 -1.63271 0
M  V30 6773 C 610.74 1.0824 -3.2326 0
M  V30 6774 H 611.933 -0.697987 -2.91664 0
M  V30 6775 H 609.486 -0.400146 -1.51091 0
M  V30 6776 H 610.221 1.86075 -2.65606 0
M  V30 6777 H 610.006 0.574725 -3.87865 0
M  V30 6778 H 611.496 1.56487 -3.87171 0
M  V30 6779 N 611.933 1.52934 -0.380664 0
M  V30 6780 C 612.896 2.24809 0.446473 0
M  V30 6781 C 613.896 1.26133 0.997347 0
M  V30 6782 O 615.086 1.50297 0.880714 0
M  V30 6783 C 612.218 2.99649 1.62553 0
M  V30 6784 H 613.411 2.99343 -0.182677 0
M  V30 6785 H 610.964 1.55736 -0.132618 0
M  V30 6786 H 611.699 2.29395 2.29235 0
M  V30 6787 H 611.484 3.72066 1.23732 0
M  V30 6788 H 612.974 3.54246 2.21133 0
M  V30 6789 N 613.412 0.11024 1.57214 0
M  V30 6790 C 614.659 -0.54987 1.94891 0
M  V30 6791 C 614.987 -1.67243 0.992984 0
M  V30 6792 O 614.242 -1.95694 0.0152703 0
M  V30 6793 C 614.541 -1.13102 3.39032 0
M  V30 6794 C 614.207 -0.130713 4.5071 0
M  V30 6795 C 612.869 0.14437 4.80983 0
M  V30 6796 C 615.221 0.551472 5.18274 0
M  V30 6797 C 612.549 1.10807 5.76141 0
M  V30 6798 C 614.901 1.50375 6.14467 0
M  V30 6799 C 613.565 1.78691 6.43138 0
M  V30 6800 H 612.835 -0.201212 0.713158 0
M  V30 6801 H 615.482 0.189288 1.90562 0
M  V30 6802 H 613.787 -1.94675 3.40013 0
M  V30 6803 H 615.484 -1.64973 3.65493 0
M  V30 6804 H 612.074 -0.355301 4.27125 0
M  V30 6805 H 616.258 0.35211 4.95049 0
M  V30 6806 H 611.514 1.3343 5.96663 0
M  V30 6807 H 615.688 2.03808 6.65909 0
M  V30 6808 H 613.315 2.53522 7.1668 0
M  V30 6809 N 614.89 -1.56749 -0.16351 0
M  V30 6810 C 616.137 -1.82434 -0.878866 0
M  V30 6811 C 616.465 -0.688557 -1.81904 0
M  V30 6812 O 615.72 0.323644 -1.93005 0
M  V30 6813 C 616.019 -3.14342 -1.70071 0
M  V30 6814 C 615.685 -4.41647 -0.908775 0
M  V30 6815 C 614.347 -4.76224 -0.690236 0
M  V30 6816 C 616.699 -5.19998 -0.353815 0
M  V30 6817 C 614.027 -5.86624 0.0942374 0
M  V30 6818 C 616.379 -6.3122 0.41761 0
M  V30 6819 C 615.043 -6.64358 0.646879 0
M  V30 6820 H 614.313 -0.667574 -0.3216 0
M  V30 6821 H 616.96 -1.90963 -0.14337 0
M  V30 6822 H 615.265 -3.0119 -2.50583 0
M  V30 6823 H 616.962 -3.31426 -2.25738 0
M  V30 6824 H 613.552 -4.1453 -1.08916 0
M  V30 6825 H 617.736 -4.93673 -0.509975 0
M  V30 6826 H 612.992 -6.10751 0.281529 0
M  V30 6827 H 617.166 -6.91133 0.854849 0
M  V30 6828 H 614.793 -7.49742 1.25662 0
M  V30 6829 N 616.368 0.432326 -1.51554 0
M  V30 6830 C 617.614 1.18309 -1.64714 0
M  V30 6831 C 617.947 1.90745 -0.364696 0
M  V30 6832 O 617.222 1.8381 0.635936 0
M  V30 6833 C 617.505 2.1961 -2.85383 0
M  V30 6834 C 617.358 1.51223 -4.23617 0
M  V30 6835 C 618.677 3.20538 -3.01569 0
M  V30 6836 H 615.796 0.428751 -0.599451 0
M  V30 6837 H 618.438 0.471689 -1.84052 0
M  V30 6838 H 616.588 2.8028 -2.69027 0
M  V30 6839 H 618.26 0.938516 -4.51652 0
M  V30 6840 H 616.503 0.814501 -4.26085 0
M  V30 6841 H 617.174 2.25024 -5.04052 0
M  V30 6842 H 619.65 2.69926 -3.16669 0
M  V30 6843 H 618.526 3.88706 -3.87555 0
M  V30 6844 H 618.787 3.86933 -2.13859 0
M  V30 6845 N 617.846 1.41785 0.688094 0
M  V30 6846 C 619.074 1.44915 1.47673 0
M  V30 6847 C 619.489 0.0565786 1.88715 0
M  V30 6848 O 618.846 -0.92579 1.57275 0
M  V30 6849 C 618.897 2.36452 2.73446 0
M  V30 6850 O 618.618 3.7029 2.34131 0
M  V30 6851 C 620.119 2.48463 3.67125 0
M  V30 6852 H 617.339 0.493324 0.454832 0
M  V30 6853 H 619.883 1.86153 0.846594 0
M  V30 6854 H 618.038 1.98502 3.3268 0
M  V30 6855 H 618.452 4.19183 3.15255 0
M  V30 6856 H 619.926 3.16662 4.52138 0
M  V30 6857 H 620.403 1.51826 4.12123 0
M  V30 6858 H 621.009 2.8708 3.13792 0
M  V30 6859 N 619.324 -0.923095 1.27737 0
M  V30 6860 C 620.254 -2.04124 1.13383 0
M  V30 6861 C 621.235 -1.70066 0.0340658 0
M  V30 6862 O 622.42 -1.93068 0.209383 0
M  V30 6863 C 619.55 -3.3831 0.785097 0
M  V30 6864 C 618.504 -3.86496 1.8386 0
M  V30 6865 C 617.83 -5.1754 1.34373 0
M  V30 6866 C 619.13 -4.09381 3.24353 0
M  V30 6867 H 620.824 -2.1639 2.06919 0
M  V30 6868 H 618.37 -1.03976 0.996243 0
M  V30 6869 H 620.323 -4.16016 0.671485 0
M  V30 6870 H 619.047 -3.2607 -0.185969 0
M  V30 6871 H 617.706 -3.10987 1.9412 0
M  V30 6872 H 617.354 -5.01696 0.361989 0
M  V30 6873 H 617.054 -5.50751 2.04811 0
M  V30 6874 H 618.578 -5.97811 1.24315 0
M  V30 6875 H 619.992 -4.77641 3.17067 0
M  V30 6876 H 618.389 -4.53906 3.92542 0
M  V30 6877 H 619.459 -3.14515 3.69064 0
M  V30 6878 N 620.802 -1.09834 -1.13024 0
M  V30 6879 C 622.079 -0.749225 -1.80682 0
M  V30 6880 C 622.459 0.765171 -1.96744 0
M  V30 6881 O 621.807 1.68912 -1.53886 0
M  V30 6882 C 622.017 -1.49311 -3.15448 0
M  V30 6883 C 623.365 -1.66162 -3.90737 0
M  V30 6884 O 624.389 -1.45597 -3.25085 0
M  V30 6885 O 623.248 -2.00211 -5.08505 0
M  V30 6886 H 620.342 -0.269614 -0.781817 0
M  V30 6887 H 622.888 -1.20078 -1.19914 0
M  V30 6888 H 621.66 -2.52407 -2.99009 0
M  V30 6889 H 621.283 -1.034 -3.8392 0
M  V30 6890 N 622.28 1.30327 -0.886154 0
M  V30 6891 C 623.19 2.31854 -0.357866 0
M  V30 6892 C 624.206 1.65392 0.540502 0
M  V30 6893 O 625.382 1.96683 0.433339 0
M  V30 6894 C 622.447 3.44171 0.417999 0
M  V30 6895 C 621.508 4.26257 -0.510263 0
M  V30 6896 C 620.741 5.3321 0.228669 0
M  V30 6897 O 620.964 5.51542 1.45458 0
M  V30 6898 O 619.898 6.0042 -0.421832 0
M  V30 6899 H 623.724 2.78995 -1.19982 0
M  V30 6900 H 621.309 1.34518 -0.650028 0
M  V30 6901 H 623.191 4.12588 0.857251 0
M  V30 6902 H 621.866 2.99164 1.23623 0
M  V30 6903 H 620.773 3.60533 -0.99835 0
M  V30 6904 H 622.106 4.74871 -1.29454 0
M  V30 6905 N 623.758 0.647228 1.43697 0
M  V30 6906 C 624.986 0.16575 2.06235 0
M  V30 6907 C 625.401 -1.1662 1.48476 0
M  V30 6908 O 624.758 -1.7187 0.613762 0
M  V30 6909 C 624.809 0.0621651 3.61447 0
M  V30 6910 O 624.53 1.34146 4.17057 0
M  V30 6911 C 626.031 -0.446102 4.4105 0
M  V30 6912 H 623.251 0.0871158 0.665321 0
M  V30 6913 H 625.795 0.886183 1.84301 0
M  V30 6914 H 623.95 -0.608794 3.82587 0
M  V30 6915 H 624.364 1.19675 5.10664 0
M  V30 6916 H 625.838 -0.46755 5.50016 0
M  V30 6917 H 626.315 -1.47627 4.13646 0
M  V30 6918 H 626.921 0.192159 4.24866 0
M  V30 6919 N 625.236 -1.5273 0.388769 0
M  V30 6920 C 626.146 -2.30165 -0.453993 0
M  V30 6921 C 627.162 -1.37058 -1.07197 0
M  V30 6922 O 628.338 -1.70127 -1.0779 0
M  V30 6923 C 625.403 -3.09303 -1.56628 0
M  V30 6924 C 624.464 -4.18117 -0.973467 0
M  V30 6925 C 623.697 -4.93472 -2.03275 0
M  V30 6926 O 623.92 -4.68913 -3.24772 0
M  V30 6927 O 622.854 -5.78833 -1.65034 0
M  V30 6928 H 626.68 -3.03185 0.176816 0
M  V30 6929 H 624.265 -1.4862 0.152501 0
M  V30 6930 H 626.147 -3.58648 -2.21246 0
M  V30 6931 H 624.822 -2.39098 -2.18206 0
M  V30 6932 H 623.729 -3.7297 -0.290556 0
M  V30 6933 H 625.062 -4.90556 -0.401908 0
M  V30 6934 N 626.714 -0.118576 -1.57153 0
M  V30 6935 C 627.624 0.845484 -2.18835 0
M  V30 6936 C 628.64 1.29299 -1.16438 0
M  V30 6937 O 629.816 1.35607 -1.48905 0
M  V30 6938 C 626.881 2.07795 -2.77529 0
M  V30 6939 C 625.942 1.6824 -3.9496 0
M  V30 6940 C 625.175 2.85612 -4.50845 0
M  V30 6941 O 625.398 4.01025 -4.05629 0
M  V30 6942 O 624.332 2.62721 -5.41536 0
M  V30 6943 H 628.158 0.350568 -3.0167 0
M  V30 6944 H 625.743 0.107013 -1.49016 0
M  V30 6945 H 627.625 2.79978 -3.14945 0
M  V30 6946 H 626.3 2.56294 -1.97725 0
M  V30 6947 H 625.207 0.931663 -3.62313 0
M  V30 6948 H 626.54 1.24484 -4.76198 0
M  V30 6949 N 628.193 1.56834 0.155195 0
M  V30 6950 C 629.441 1.82536 0.867462 0
M  V30 6951 C 629.762 0.698168 1.82073 0
M  V30 6952 O 629.032 -0.280807 1.93877 0
M  V30 6953 H 627.612 0.673401 0.323327 0
M  V30 6954 H 630.274 1.94313 0.151156 0
M  V30 6955 H 629.37 2.77171 1.43466 0
M  V30 6956 N 629.671 -0.424282 1.51781 0
M  V30 6957 C 630.901 -1.19297 1.68677 0
M  V30 6958 C 631.309 -1.85152 0.389258 0
M  V30 6959 O 630.652 -1.72067 -0.643311 0
M  V30 6960 C 630.714 -2.30929 2.75521 0
M  V30 6961 C 630.378 -1.85335 4.17732 0
M  V30 6962 C 631.375 -1.34951 5.0208 0
M  V30 6963 C 629.06 -1.92629 4.63896 0
M  V30 6964 C 631.054 -0.924636 6.30658 0
M  V30 6965 C 628.741 -1.49754 5.92467 0
M  V30 6966 C 629.739 -0.997543 6.75676 0
M  V30 6967 O 629.427 -0.57492 8.01842 0
M  V30 6968 H 629.159 -0.36512 0.568914 0
M  V30 6969 H 631.713 -0.507327 1.99036 0
M  V30 6970 H 629.943 -3.02811 2.40505 0
M  V30 6971 H 631.632 -2.92748 2.81165 0
M  V30 6972 H 632.398 -1.287 4.67612 0
M  V30 6973 H 628.277 -2.30491 3.99243 0
M  V30 6974 H 631.821 -0.533682 6.95556 0
M  V30 6975 H 627.718 -1.55679 6.26446 0
M  V30 6976 H 628.486 -0.699597 8.15505 0
M  V30 6977 N 631.149 -1.42148 -0.680565 0
M  V30 6978 C 632.565 -1.24947 -0.992995 0
M  V30 6979 C 632.765 -0.149527 -2.00944 0
M  V30 6980 O 631.821 0.481145 -2.47873 0
M  V30 6981 C 633.134 -2.60426 -1.5033 0
M  V30 6982 C 634.682 -2.67733 -1.62137 0
M  V30 6983 C 635.157 -4.03564 -2.16565 0
M  V30 6984 N 636.648 -4.05488 -2.23905 0
M  V30 6985 C 637.383 -5.07401 -2.67081 0
M  V30 6986 N 636.879 -6.19698 -3.09751 0
M  V30 6987 N 638.672 -4.94758 -2.66778 0
M  V30 6988 H 630.823 -2.12399 -0.0074788 0
M  V30 6989 H 633.086 -0.94571 -0.0658529 0
M  V30 6990 H 632.792 -3.41743 -0.830947 0
M  V30 6991 H 632.666 -2.83949 -2.483 0
M  V30 6992 H 635.053 -1.86765 -2.2848 0
M  V30 6993 H 635.134 -2.48004 -0.626713 0
M  V30 6994 H 634.778 -4.84987 -1.50833 0
M  V30 6995 H 634.708 -4.20641 -3.1681 0
M  V30 6996 H 637.199 -3.24415 -1.93812 0
M  V30 6997 H 637.512 -6.93318 -3.41365 0
M  V30 6998 H 635.857 -6.23212 -3.07623 0
M  V30 6999 H 639.048 -4.06105 -2.32801 0
M  V30 7000 H 639.221 -5.74317 -3.00107 0
M  V30 7001 N 632.627 0.916307 -1.28225 0
M  V30 7002 C 633.852 1.7043 -1.18188 0
M  V30 7003 C 634.277 1.86346 0.256274 0
M  V30 7004 O 633.635 1.37175 1.18544 0
M  V30 7005 C 633.683 3.07546 -1.88275 0
M  V30 7006 O 632.787 3.94904 -1.18848 0
M  V30 7007 H 632.128 0.521967 -0.410423 0
M  V30 7008 H 634.658 1.14589 -1.69501 0
M  V30 7009 H 634.668 3.57793 -1.96082 0
M  V30 7010 H 633.343 2.95279 -2.92887 0
M  V30 7011 H 631.92 3.53339 -1.19187 0
M  V30 7012 N 634.105 1.10431 1.1244 0
M  V30 7013 C 635.015 0.765502 2.21759 0
M  V30 7014 C 636.031 -0.236966 1.72379 0
M  V30 7015 O 637.207 -0.0757329 2.01258 0
M  V30 7016 C 634.272 0.202316 3.46109 0
M  V30 7017 C 633.333 1.26205 4.1033 0
M  V30 7018 C 632.566 0.725648 5.28744 0
M  V30 7019 O 632.789 -0.447942 5.68638 0
M  V30 7020 O 631.723 1.48555 5.83279 0
M  V30 7021 H 635.549 1.67801 2.53133 0
M  V30 7022 H 633.134 0.879443 1.20773 0
M  V30 7023 H 635.016 -0.107918 4.21262 0
M  V30 7024 H 633.691 -0.683052 3.16411 0
M  V30 7025 H 632.598 1.62514 3.36957 0
M  V30 7026 H 633.931 2.12044 4.44183 0
M  V30 7027 N 635.583 -1.29855 0.893053 0
M  V30 7028 C 636.86 -1.90694 0.435336 0
M  V30 7029 C 637.24 -1.8111 -1.08454 0
M  V30 7030 O 636.588 -1.23352 -1.92345 0
M  V30 7031 C 636.798 -3.36033 0.942472 0
M  V30 7032 C 638.146 -4.13083 0.982226 0
M  V30 7033 O 639.17 -3.4491 0.889686 0
M  V30 7034 O 638.029 -5.34896 1.12022 0
M  V30 7035 H 635.123 -0.815978 0.134567 0
M  V30 7036 H 637.669 -1.38367 0.982484 0
M  V30 7037 H 636.441 -3.37132 1.9864 0
M  V30 7038 H 636.064 -3.95828 0.374952 0
M  V30 7039 N 637.061 -0.65484 -1.43351 0
M  V30 7040 C 638.472 -0.248506 -1.85039 0
M  V30 7041 C 638.823 1.20526 -1.54816 0
M  V30 7042 O 637.948 1.92016 -0.99794 0
M  V30 7043 C 638.543 -0.444241 -3.35875 0
M  V30 7044 C 637.102 -0.0922108 -3.76287 0
M  V30 7045 C 636.249 -0.746327 -2.67068 0
M  V30 7046 H 639.2 -0.8584 -1.33481 0
M  V30 7047 H 639.221 0.309762 -3.79237 0
M  V30 7048 H 638.733 -1.50239 -3.5784 0
M  V30 7049 H 636.834 0.96328 -3.59933 0
M  V30 7050 H 636.947 -0.518807 -4.76283 0
M  V30 7051 H 635.311 -0.179416 -2.54067 0
M  V30 7052 H 636.094 -1.80754 -2.91861 0
M  V30 7053 N 638.539 1.52521 -0.396863 0
M  V30 7054 C 639.816 1.94112 0.240842 0
M  V30 7055 C 640.196 1.33288 1.637 0
M  V30 7056 O 639.544 0.503901 2.22875 0
M  V30 7057 C 639.754 3.48033 0.259567 0
M  V30 7058 C 641.102 4.21822 0.484866 0
M  V30 7059 O 642.126 3.54579 0.339453 0
M  V30 7060 O 640.985 5.41042 0.770412 0
M  V30 7061 H 638.079 0.812973 0.151671 0
M  V30 7062 H 640.625 1.63572 -0.451918 0
M  V30 7063 H 639.397 3.84655 -0.718078 0
M  V30 7064 H 639.02 3.84899 0.996937 0
M  V30 7065 N 640.017 0.126909 1.57088 0
M  V30 7066 C 641.245 -0.53667 1.99819 0
M  V30 7067 C 641.66 -1.5972 1.00673 0
M  V30 7068 O 641.017 -1.825 0.000747365 0
M  V30 7069 C 641.068 -1.15563 3.42531 0
M  V30 7070 O 640.789 -0.137483 4.37884 0
M  V30 7071 C 642.29 -1.90176 4.00435 0
M  V30 7072 H 639.51 -0.141443 0.655923 0
M  V30 7073 H 642.054 0.215578 2.03361 0
M  V30 7074 H 640.209 -1.85861 3.39904 0
M  V30 7075 H 640.623 -0.588229 5.21191 0
M  V30 7076 H 642.097 -2.28801 5.02349 0
M  V30 7077 H 642.574 -2.78002 3.40017 0
M  V30 7078 H 643.18 -1.24623 4.06632 0
M  V30 7079 N 641.495 -1.56914 -0.146875 0
M  V30 7080 C 642.72 -1.87881 -0.878386 0
M  V30 7081 C 643.145 -0.715945 -1.73942 0
M  V30 7082 O 642.503 0.334447 -1.78189 0
M  V30 7083 C 642.551 -3.17431 -1.71084 0
M  V30 7084 O 641.655 -3.01374 -2.81509 0
M  V30 7085 H 640.996 -0.617289 -0.244644 0
M  V30 7086 H 643.526 -2.04136 -0.137654 0
M  V30 7087 H 643.536 -3.49455 -2.10582 0
M  V30 7088 H 642.211 -4.01671 -1.07856 0
M  V30 7089 H 640.788 -2.80758 -2.45416 0
M  V30 7090 N 642.974 0.416227 -1.52004 0
M  V30 7091 C 643.907 1.52736 -1.6955 0
M  V30 7092 C 644.885 1.53264 -0.54305 0
M  V30 7093 O 646.069 1.72077 -0.769527 0
M  V30 7094 C 643.196 2.91283 -1.72835 0
M  V30 7095 C 642.242 3.08695 -2.94295 0
M  V30 7096 S 643.075 2.82758 -4.54762 0
M  V30 7097 C 644.231 4.23548 -4.60823 0
M  V30 7098 H 644.464 1.37623 -2.63528 0
M  V30 7099 H 641.997 0.607335 -1.41954 0
M  V30 7100 H 643.955 3.71134 -1.75413 0
M  V30 7101 H 642.616 3.03742 -0.799966 0
M  V30 7102 H 641.809 4.10042 -2.93056 0
M  V30 7103 H 641.411 2.36699 -2.89568 0
M  V30 7104 H 643.703 5.17078 -4.37763 0
M  V30 7105 H 644.646 4.29813 -5.62731 0
M  V30 7106 H 645.054 4.08188 -3.89927 0
M  V30 7107 N 644.452 1.42507 0.673017 0
M  V30 7108 C 645.729 1.33554 1.42908 0
M  V30 7109 C 646.109 -0.0262211 2.11084 0
M  V30 7110 O 645.457 -1.04181 2.03368 0
M  V30 7111 C 645.667 2.50498 2.43006 0
M  V30 7112 C 647.015 2.92694 3.07596 0
M  V30 7113 O 648.039 2.50401 2.53333 0
M  V30 7114 O 646.898 3.65899 4.05931 0
M  V30 7115 H 643.992 0.526785 0.637516 0
M  V30 7116 H 646.538 1.54518 0.701591 0
M  V30 7117 H 645.31 3.41272 1.9144 0
M  V30 7118 H 644.933 2.3153 3.23233 0
M  V30 7119 N 645.93 -0.909495 1.28709 0
M  V30 7120 C 647.155 -1.69801 1.1909 0
M  V30 7121 C 647.58 -1.86479 -0.246388 0
M  V30 7122 O 646.938 -1.37802 -1.17815 0
M  V30 7123 C 646.986 -3.06543 1.89904 0
M  V30 7124 O 646.09 -3.94268 1.2094 0
M  V30 7125 H 645.431 -0.519783 0.413185 0
M  V30 7126 H 647.961 -1.13689 1.70106 0
M  V30 7127 H 647.971 -3.56748 1.97977 0
M  V30 7128 H 646.646 -2.93722 2.94449 0
M  V30 7129 H 645.223 -3.52702 1.2106 0
M  V30 7130 N 647.408 -1.11026 -1.11852 0
M  V30 7131 C 648.638 -0.877544 -1.87037 0
M  V30 7132 C 649.046 0.575925 -1.80221 0
M  V30 7133 O 648.389 1.40916 -1.17849 0
M  V30 7134 C 648.451 -1.25529 -3.36872 0
M  V30 7135 C 648.115 -2.71704 -3.67459 0
M  V30 7136 C 649.112 -3.69931 -3.65304 0
M  V30 7137 C 646.797 -3.08243 -3.966 0
M  V30 7138 C 648.791 -5.02717 -3.9186 0
M  V30 7139 C 646.478 -4.41215 -4.22815 0
M  V30 7140 C 647.476 -5.38262 -4.20432 0
M  V30 7141 O 647.164 -6.68839 -4.45992 0
M  V30 7142 H 646.896 -0.314374 -0.598452 0
M  V30 7143 H 649.45 -1.48015 -1.42411 0
M  V30 7144 H 647.68 -0.595808 -3.82082 0
M  V30 7145 H 649.369 -0.999064 -3.93413 0
M  V30 7146 H 650.135 -3.43047 -3.42846 0
M  V30 7147 H 646.014 -2.33326 -3.97593 0
M  V30 7148 H 649.558 -5.78456 -3.89916 0
M  V30 7149 H 645.455 -4.67835 -4.44748 0
M  V30 7150 H 646.223 -6.74563 -4.63581 0
M  V30 7151 N 648.886 1.2938 -0.899927 0
M  V30 7152 C 649.849 2.25983 -0.382677 0
M  V30 7153 C 650.849 1.53366 0.483259 0
M  V30 7154 O 652.039 1.71798 0.28828 0
M  V30 7155 C 649.171 3.37878 0.452915 0
M  V30 7156 H 650.364 2.73252 -1.23586 0
M  V30 7157 H 647.917 1.40825 -0.678088 0
M  V30 7158 H 648.652 2.95949 1.32608 0
M  V30 7159 H 648.437 3.91742 -0.167562 0
M  V30 7160 H 649.927 4.09746 0.806107 0
M  V30 7161 N 650.364 0.662433 1.43002 0
M  V30 7162 C 651.311 -0.0235324 2.30788 0
M  V30 7163 C 652.281 -0.805342 1.4527 0
M  V30 7164 O 653.466 -0.78009 1.74124 0
M  V30 7165 C 650.606 -0.977545 3.30965 0
M  V30 7166 C 649.719 -0.190865 4.31578 0
M  V30 7167 C 648.854 -1.13951 5.18834 0
M  V30 7168 C 647.893 -0.343796 6.11134 0
M  V30 7169 N 647.03 -1.2445 6.90982 0
M  V30 7170 H 651.87 0.730921 2.88897 0
M  V30 7171 H 649.407 0.372197 1.42313 0
M  V30 7172 H 651.365 -1.54437 3.87563 0
M  V30 7173 H 649.995 -1.69877 2.74484 0
M  V30 7174 H 649.047 0.492388 3.772 0
M  V30 7175 H 650.359 0.427464 4.96965 0
M  V30 7176 H 649.513 -1.77666 5.80103 0
M  V30 7177 H 648.252 -1.79174 4.53595 0
M  V30 7178 H 647.257 0.30665 5.48944 0
M  V30 7179 H 648.482 0.304161 6.78419 0
M  V30 7180 H 646.428 -1.88336 6.28383 0
M  V30 7181 H 646.345 -0.680959 7.52927 0
M  V30 7182 H 647.613 -1.86952 7.56749 0
M  V30 7183 N 651.842 -1.52309 0.404946 0
M  V30 7184 C 653.067 -2.06666 -0.1743 0
M  V30 7185 C 653.492 -1.27341 -1.38441 0
M  V30 7186 O 652.85 -0.302539 -1.78758 0
M  V30 7187 C 652.898 -3.57014 -0.507262 0
M  V30 7188 O 652.002 -3.80144 -1.59889 0
M  V30 7189 H 651.343 -0.663807 -0.0160273 0
M  V30 7190 H 653.873 -1.96297 0.576937 0
M  V30 7191 H 653.883 -4.00724 -0.767098 0
M  V30 7192 H 652.558 -4.14184 0.377368 0
M  V30 7193 H 651.135 -3.48316 -1.33155 0
M  V30 7194 N 653.32 -0.135238 -1.57019 0
M  V30 7195 C 654.25 0.805235 -2.19176 0
M  V30 7196 C 655.231 1.2656 -1.13651 0
M  V30 7197 O 656.416 1.32528 -1.4195 0
M  V30 7198 C 653.546 2.04914 -2.80406 0
M  V30 7199 C 652.5 1.72598 -3.91655 0
M  V30 7200 C 651.826 3.04154 -4.39766 0
M  V30 7201 C 653.126 0.981709 -5.12991 0
M  V30 7202 H 654.82 0.287232 -2.98019 0
M  V30 7203 H 652.366 0.136714 -1.4335 0
M  V30 7204 H 654.319 2.71178 -3.22553 0
M  V30 7205 H 653.043 2.59067 -1.98877 0
M  V30 7206 H 651.702 1.08717 -3.50109 0
M  V30 7207 H 651.35 3.56274 -3.55075 0
M  V30 7208 H 651.05 2.83299 -5.14796 0
M  V30 7209 H 652.574 3.71509 -4.84576 0
M  V30 7210 H 653.988 1.5462 -5.52056 0
M  V30 7211 H 652.385 0.873533 -5.93708 0
M  V30 7212 H 653.455 -0.0286887 -4.84892 0
M  V30 7213 N 654.798 1.5699 0.138552 0
M  V30 7214 C 655.728 2.01933 1.17241 0
M  V30 7215 C 656.709 0.90033 1.44319 0
M  V30 7216 O 657.894 1.16872 1.55095 0
M  V30 7217 C 655.024 2.40711 2.50351 0
M  V30 7218 C 653.978 3.55874 2.37776 0
M  V30 7219 C 653.304 3.80491 3.75674 0
M  V30 7220 C 654.604 4.8826 1.85472 0
M  V30 7221 H 656.298 2.88551 0.798672 0
M  V30 7222 H 653.844 1.3882 0.382743 0
M  V30 7223 H 655.797 2.70754 3.22909 0
M  V30 7224 H 654.521 1.5104 2.89576 0
M  V30 7225 H 653.18 3.2601 1.67669 0
M  V30 7226 H 652.828 2.88057 4.12349 0
M  V30 7227 H 652.528 4.57998 3.68119 0
M  V30 7228 H 654.052 4.12967 4.49767 0
M  V30 7229 H 655.466 5.16965 2.4783 0
M  V30 7230 H 653.863 5.69631 1.88787 0
M  V30 7231 H 654.933 4.78071 0.810935 0
M  V30 7232 N 656.276 -0.40816 1.52223 0
M  V30 7233 C 657.226 -1.49648 1.72016 0
M  V30 7234 C 658.21 -1.50311 0.574069 0
M  V30 7235 O 659.402 -1.56271 0.831173 0
M  V30 7236 C 656.531 -2.87566 1.87512 0
M  V30 7237 C 655.617 -2.91547 3.07995 0
M  V30 7238 N 656.008 -2.65225 4.30685 0
M  V30 7239 C 654.306 -3.22715 3.07849 0
M  V30 7240 C 655.007 -2.75799 5.12162 0
M  V30 7241 N 653.983 -3.08719 4.4743 0
M  V30 7242 H 657.785 -1.28093 2.64517 0
M  V30 7243 H 655.299 -0.61588 1.50269 0
M  V30 7244 H 657.296 -3.65899 1.99809 0
M  V30 7245 H 655.956 -3.10118 0.962114 0
M  V30 7246 H 656.967 -2.39601 4.59142 0
M  V30 7247 H 653.644 -3.50856 2.26289 0
M  V30 7248 H 655.034 -2.59155 6.1991 0
M  V30 7249 N 657.755 -1.42862 -0.66545 0
M  V30 7250 C 659.003 -1.43546 -1.42264 0
M  V30 7251 C 659.324 -0.0563116 -1.94919 0
M  V30 7252 O 658.594 0.906568 -1.73661 0
M  V30 7253 H 657.174 -0.528464 -0.527953 0
M  V30 7254 H 659.836 -1.78363 -0.785665 0
M  V30 7255 H 658.932 -2.14079 -2.27105 0
M  V30 7256 N 659.233 0.902656 -1.29189 0
M  V30 7257 C 660.649 1.18296 -1.07137 0
M  V30 7258 C 660.849 2.00701 0.179223 0
M  V30 7259 O 659.905 2.3675 0.877812 0
M  V30 7260 C 661.218 1.90677 -2.32514 0
M  V30 7261 C 662.766 2.03515 -2.37804 0
M  V30 7262 C 663.241 2.79307 -3.62976 0
M  V30 7263 N 664.732 2.86862 -3.63681 0
M  V30 7264 C 665.467 3.46035 -4.57217 0
M  V30 7265 N 664.963 4.06399 -5.61081 0
M  V30 7266 N 666.756 3.43681 -4.44792 0
M  V30 7267 H 658.907 0.352765 -2.0945 0
M  V30 7268 H 661.17 0.21876 -0.922414 0
M  V30 7269 H 660.876 1.3756 -3.23682 0
M  V30 7270 H 660.75 2.91169 -2.39793 0
M  V30 7271 H 663.137 2.55809 -1.47125 0
M  V30 7272 H 663.218 1.02166 -2.34512 0
M  V30 7273 H 662.862 2.2769 -4.54004 0
M  V30 7274 H 662.792 3.80995 -3.63525 0
M  V30 7275 H 665.283 2.43987 -2.88581 0
M  V30 7276 H 665.596 4.49564 -6.2858 0
M  V30 7277 H 663.941 4.0487 -5.64894 0
M  V30 7278 H 667.132 2.9574 -3.62843 0
M  V30 7279 H 667.305 3.89503 -5.17872 0
M  V30 7280 N 660.711 1.11618 1.11262 0
M  V30 7281 C 661.951 0.876154 1.8467 0
M  V30 7282 C 662.315 -0.587551 1.82789 0
M  V30 7283 O 663.516 -0.944411 2.51663 0
M  V30 7284 C 661.787 1.42461 3.2778 0
M  V30 7285 S 663.346 1.32185 4.18417 0
M  V30 7286 H 660.164 0.31628 0.636779 0
M  V30 7287 H 662.766 1.42404 1.33946 0
M  V30 7288 H 661.47 2.48367 3.26714 0
M  V30 7289 H 661.001 0.873844 3.83572 0
M  V30 7290 H 663.016 0.287607 4.95366 0
M  V30 7291 N 662.189 -1.289 0.906776 0
M  V30 7292 C 663.419 -1.99112 0.551168 0
M  V30 7293 C 663.827 -1.67998 -0.870243 0
M  V30 7294 O 663.17 -0.92525 -1.58697 0
M  V30 7295 C 663.232 -3.53162 0.672065 0
M  V30 7296 C 662.896 -4.07849 2.06174 0
M  V30 7297 C 663.893 -4.22212 3.0337 0
M  V30 7298 C 661.578 -4.4271 2.37304 0
M  V30 7299 C 663.572 -4.70678 4.29815 0
M  V30 7300 C 661.259 -4.90871 3.6399 0
M  V30 7301 C 662.257 -5.04811 4.6006 0
M  V30 7302 O 661.945 -5.51925 5.84495 0
M  V30 7303 H 661.677 -0.642728 0.209469 0
M  V30 7304 H 664.231 -1.65234 1.22012 0
M  V30 7305 H 662.461 -3.86662 -0.05394 0
M  V30 7306 H 664.15 -4.046 0.324579 0
M  V30 7307 H 664.916 -3.9556 2.80637 0
M  V30 7308 H 660.795 -4.31114 1.63283 0
M  V30 7309 H 664.339 -4.81474 5.04806 0
M  V30 7310 H 660.236 -5.16961 3.86551 0
M  V30 7311 H 661.004 -5.70225 5.87185 0
M  V30 7312 N 663.667 -0.670007 -1.42649 0
M  V30 7313 C 664.944 -0.119451 -1.95235 0
M  V30 7314 C 665.324 1.36461 -1.61064 0
M  V30 7315 O 664.672 2.09843 -0.904329 0
M  V30 7316 C 664.882 -0.383498 -3.46887 0
M  V30 7317 C 666.23 -0.297431 -4.23557 0
M  V30 7318 O 667.254 -0.31698 -3.54787 0
M  V30 7319 O 666.113 -0.235507 -5.45992 0
M  V30 7320 H 663.207 -8.85474e-05 -0.827 0
M  V30 7321 H 665.753 -0.744406 -1.52501 0
M  V30 7322 H 664.525 -1.41174 -3.64946 0
M  V30 7323 H 664.148 0.273702 -3.96657 0
M  V30 7324 N 665.145 1.52092 -0.413018 0
M  V30 7325 C 666.561 1.59471 -0.0640836 0
M  V30 7326 C 666.761 1.42562 1.42402 0
M  V30 7327 O 665.817 1.25453 2.19129 0
M  V30 7328 C 667.13 2.95392 -0.562474 0
M  V30 7329 C 668.678 3.08637 -0.520788 0
M  V30 7330 C 669.153 4.47044 -0.995752 0
M  V30 7331 N 670.644 4.53296 -0.952732 0
M  V30 7332 C 671.379 5.58669 -1.29138 0
M  V30 7333 N 670.875 6.71576 -1.70168 0
M  V30 7334 N 672.668 5.48898 -1.2111 0
M  V30 7335 H 664.819 1.6133 -1.38153 0
M  V30 7336 H 667.082 0.75916 -0.567785 0
M  V30 7337 H 666.788 3.13059 -1.60271 0
M  V30 7338 H 666.662 3.77191 0.0257875 0
M  V30 7339 H 669.049 2.90652 0.510412 0
M  V30 7340 H 669.13 2.28735 -1.14515 0
M  V30 7341 H 668.774 4.65773 -2.0253 0
M  V30 7342 H 668.704 5.25448 -0.348162 0
M  V30 7343 H 671.195 3.72248 -0.651119 0
M  V30 7344 H 671.508 7.47973 -1.9431 0
M  V30 7345 H 669.853 6.72847 -1.74075 0
M  V30 7346 H 673.044 4.59573 -0.889396 0
M  V30 7347 H 673.217 6.30912 -1.47833 0
M  V30 7348 N 666.623 0.143563 1.56945 0
M  V30 7349 C 667.869 -0.502787 1.97088 0
M  V30 7350 C 668.224 -1.62703 1.02691 0
M  V30 7351 O 667.517 -1.91502 0.0613323 0
M  V30 7352 C 667.711 -1.05885 3.41355 0
M  V30 7353 C 667.54 0.00998209 4.49699 0
M  V30 7354 C 666.31 0.450229 5.0329 0
M  V30 7355 C 668.508 0.800174 5.08037 0
M  V30 7356 N 666.49 1.50227 5.95235 0
M  V30 7357 C 667.861 1.70279 5.96158 0
M  V30 7358 C 669.916 0.848344 4.9062 0
M  V30 7359 C 668.619 2.64945 6.68728 0
M  V30 7360 C 670.645 1.78281 5.63888 0
M  V30 7361 C 670.007 2.67296 6.51715 0
M  V30 7362 H 666.106 -0.152891 0.766908 0
M  V30 7363 H 668.69 0.23737 1.93248 0
M  V30 7364 H 666.861 -1.76863 3.45795 0
M  V30 7365 H 668.593 -1.67154 3.68567 0
M  V30 7366 H 665.348 0.0531355 4.7357 0
M  V30 7367 H 665.772 2.02795 6.45913 0
M  V30 7368 H 670.414 0.174228 4.22441 0
M  V30 7369 H 668.132 3.33358 7.36137 0
M  V30 7370 H 671.718 1.82584 5.52408 0
M  V30 7371 H 670.598 3.38428 7.07415 0
M  V30 7372 N 668.101 -1.57061 -0.130224 0
M  V30 7373 C 669.348 -1.84257 -0.839972 0
M  V30 7374 C 669.676 -0.726986 -1.80403 0
M  V30 7375 O 668.931 0.282632 -1.93648 0
M  V30 7376 C 669.23 -3.17878 -1.63365 0
M  V30 7377 C 668.896 -4.43475 -0.814891 0
M  V30 7378 C 667.558 -4.77581 -0.589066 0
M  V30 7379 C 669.91 -5.20631 -0.243437 0
M  V30 7380 C 667.238 -5.86292 0.218648 0
M  V30 7381 C 669.59 -6.30192 0.551408 0
M  V30 7382 C 668.254 -6.62837 0.787653 0
M  V30 7383 H 667.524 -0.674245 -0.307367 0
M  V30 7384 H 670.171 -1.91224 -0.102832 0
M  V30 7385 H 668.476 -3.06437 -2.44138 0
M  V30 7386 H 670.173 -3.3614 -2.18658 0
M  V30 7387 H 666.763 -4.16747 -1.00098 0
M  V30 7388 H 670.947 -4.94644 -0.405145 0
M  V30 7389 H 666.203 -6.10017 0.411016 0
M  V30 7390 H 670.377 -6.89165 1.00126 0
M  V30 7391 H 668.004 -7.46908 1.41537 0
M  V30 7392 N 669.579 0.400081 -1.52437 0
M  V30 7393 C 670.856 1.15973 -1.57511 0
M  V30 7394 C 671.236 2.0798 -0.361572 0
M  V30 7395 O 670.584 2.19032 0.650929 0
M  V30 7396 C 670.794 1.92912 -2.90837 0
M  V30 7397 C 672.142 2.48662 -3.44169 0
M  V30 7398 O 673.166 2.03081 -2.92637 0
M  V30 7399 O 672.025 3.31894 -4.34176 0
M  V30 7400 H 669.119 0.530023 -0.634827 0
M  V30 7401 H 671.665 0.40613 -1.64769 0
M  V30 7402 H 670.437 1.25564 -3.70607 0
M  V30 7403 H 670.06 2.75257 -2.86913 0
M  V30 7404 N 671.057 1.43213 0.657864 0
M  V30 7405 C 672.004 1.48011 1.77092 0
M  V30 7406 C 672.974 0.330291 1.62783 0
M  V30 7407 O 674.159 0.536787 1.83094 0
M  V30 7408 C 671.299 1.40461 3.15222 0
M  V30 7409 C 670.412 2.65612 3.40697 0
M  V30 7410 C 669.547 2.50083 4.68649 0
M  V30 7411 C 668.586 3.70525 4.87214 0
M  V30 7412 N 667.723 3.53835 6.0642 0
M  V30 7413 H 672.563 2.43121 1.72326 0
M  V30 7414 H 670.1 1.20687 0.841013 0
M  V30 7415 H 672.058 1.34079 3.95068 0
M  V30 7416 H 670.688 0.489359 3.19069 0
M  V30 7417 H 669.74 2.82292 2.54982 0
M  V30 7418 H 671.052 3.5509 3.50303 0
M  V30 7419 H 670.206 2.41383 5.56614 0
M  V30 7420 H 668.945 1.58121 4.61356 0
M  V30 7421 H 667.95 3.79639 3.97686 0
M  V30 7422 H 669.175 4.63489 4.96341 0
M  V30 7423 H 667.121 2.64604 6.00267 0
M  V30 7424 H 667.038 4.36912 6.16963 0
M  V30 7425 H 668.306 3.48978 6.97019 0
M  V30 7426 N 672.536 -0.895792 1.29666 0
M  V30 7427 C 673.761 -1.68528 1.20885 0
M  V30 7428 C 674.186 -1.8673 -0.226595 0
M  V30 7429 O 673.544 -1.39044 -1.16347 0
M  V30 7430 C 673.592 -3.04512 1.93144 0
M  V30 7431 O 672.696 -3.92963 1.25115 0
M  V30 7432 H 672.037 -0.515371 0.418675 0
M  V30 7433 H 674.567 -1.11878 1.71302 0
M  V30 7434 H 674.577 -3.54628 2.0175 0
M  V30 7435 H 673.252 -2.90582 2.97548 0
M  V30 7436 H 671.829 -3.51399 1.24794 0
M  V30 7437 N 674.014 -1.12206 -1.10668 0
M  V30 7438 C 675.261 -0.875875 -1.82578 0
M  V30 7439 C 675.589 0.598342 -1.85068 0
M  V30 7440 O 674.844 1.45818 -1.3052 0
M  V30 7441 C 675.143 -1.39276 -3.29146 0
M  V30 7442 C 674.809 -2.8816 -3.46806 0
M  V30 7443 C 673.471 -3.28813 -3.51334 0
M  V30 7444 C 675.823 -3.8401 -3.52399 0
M  V30 7445 C 673.151 -4.64028 -3.59019 0
M  V30 7446 C 675.503 -5.19053 -3.61617 0
M  V30 7447 C 674.167 -5.59252 -3.64408 0
M  V30 7448 H 673.437 -0.320505 -0.6681 0
M  V30 7449 H 676.084 -1.40184 -1.30464 0
M  V30 7450 H 674.389 -0.787207 -3.8381 0
M  V30 7451 H 676.086 -1.17851 -3.83291 0
M  V30 7452 H 672.676 -2.55716 -3.43958 0
M  V30 7453 H 676.86 -3.53698 -3.48154 0
M  V30 7454 H 672.116 -4.94568 -3.59461 0
M  V30 7455 H 676.29 -5.93152 -3.64889 0
M  V30 7456 H 673.917 -6.64017 -3.70116 0
M  V30 7457 N 675.492 1.28418 -0.913599 0
M  V30 7458 C 676.72 1.99106 -0.562536 0
M  V30 7459 C 677.135 1.68273 0.856137 0
M  V30 7460 O 676.492 0.935401 1.56705 0
M  V30 7461 C 676.543 3.5338 -0.761903 0
M  V30 7462 O 676.264 3.83127 -2.12475 0
M  V30 7463 C 677.765 4.41328 -0.417651 0
M  V30 7464 H 674.985 0.635798 -0.214481 0
M  V30 7465 H 677.529 1.63618 -1.22676 0
M  V30 7466 H 675.684 3.8713 -0.144676 0
M  V30 7467 H 676.098 4.77763 -2.16431 0
M  V30 7468 H 677.572 5.48642 -0.607919 0
M  V30 7469 H 678.049 4.34422 0.646108 0
M  V30 7470 H 678.655 4.13074 -1.01241 0
M  V30 7471 N 676.97 0.677563 1.42291 0
M  V30 7472 C 678.217 0.200975 2.015 0
M  V30 7473 C 678.545 -1.19342 1.53583 0
M  V30 7474 O 677.8 -1.81579 0.7299 0
M  V30 7475 C 678.099 0.187229 3.56909 0
M  V30 7476 C 677.765 1.52667 4.24268 0
M  V30 7477 C 676.427 1.89341 4.42384 0
M  V30 7478 C 678.779 2.40869 4.62203 0
M  V30 7479 C 676.107 3.13836 4.95705 0
M  V30 7480 C 678.459 3.64679 5.16906 0
M  V30 7481 C 677.123 4.01519 5.33234 0
M  V30 7482 H 676.393 0.0735418 0.737342 0
M  V30 7483 H 679.04 0.873095 1.70439 0
M  V30 7484 H 677.345 -0.568407 3.87655 0
M  V30 7485 H 679.042 -0.198773 4.00507 0
M  V30 7486 H 675.632 1.23138 4.1053 0
M  V30 7487 H 679.816 2.1382 4.47878 0
M  V30 7488 H 675.072 3.42396 5.06532 0
M  V30 7489 H 679.246 4.33224 5.45243 0
M  V30 7490 H 676.873 4.98062 5.74316 0
M  V30 7491 N 678.448 -1.51871 0.421078 0
M  V30 7492 C 679.694 -2.02237 -0.151014 0
M  V30 7493 C 680.027 -1.30554 -1.43768 0
M  V30 7494 O 679.302 -0.41546 -1.90011 0
M  V30 7495 C 679.585 -3.5802 -0.386482 0
M  V30 7496 C 679.438 -4.40339 0.9177 0
M  V30 7497 C 680.757 -4.24444 -1.16342 0
M  V30 7498 H 677.876 -0.735062 -0.0534102 0
M  V30 7499 H 680.518 -1.81656 0.556888 0
M  V30 7500 H 678.668 -3.75688 -0.989494 0
M  V30 7501 H 680.34 -4.34357 1.55344 0
M  V30 7502 H 678.583 -4.06073 1.526 0
M  V30 7503 H 679.254 -5.47451 0.707187 0
M  V30 7504 H 681.73 -4.10948 -0.652788 0
M  V30 7505 H 680.606 -5.33358 -1.29693 0
M  V30 7506 H 680.867 -3.84204 -2.18724 0
M  V30 7507 N 679.926 -0.151884 -1.56866 0
M  V30 7508 C 681.172 0.498742 -1.96572 0
M  V30 7509 C 681.505 1.64194 -1.03702 0
M  V30 7510 O 680.78 1.94334 -0.0803432 0
M  V30 7511 C 681.063 1.00027 -3.45929 0
M  V30 7512 C 680.916 -0.141767 -4.49577 0
M  V30 7513 C 682.235 1.88044 -3.97904 0
M  V30 7514 H 679.354 0.17982 -0.714726 0
M  V30 7515 H 681.996 -0.234097 -1.88552 0
M  V30 7516 H 680.146 1.62476 -3.52894 0
M  V30 7517 H 681.818 -0.778269 -4.54687 0
M  V30 7518 H 680.061 -0.80019 -4.26356 0
M  V30 7519 H 680.732 0.250947 -5.51429 0
M  V30 7520 H 683.208 1.35416 -3.93449 0
M  V30 7521 H 682.084 2.20043 -5.02864 0
M  V30 7522 H 682.345 2.81916 -3.40552 0
M  V30 7523 N 681.404 1.57128 0.121893 0
M  V30 7524 C 682.651 1.847 0.830188 0
M  V30 7525 C 682.979 0.736543 1.80015 0
M  V30 7526 O 682.234 -0.272358 1.93796 0
M  V30 7527 C 682.533 3.1874 1.61677 0
M  V30 7528 C 682.199 4.43901 0.791361 0
M  V30 7529 C 680.861 4.77887 0.563731 0
M  V30 7530 C 683.213 5.20753 0.215823 0
M  V30 7531 C 680.541 5.86168 -0.249737 0
M  V30 7532 C 682.893 6.29891 -0.584821 0
M  V30 7533 C 681.557 6.6241 -0.822794 0
M  V30 7534 H 680.827 0.675866 0.303787 0
M  V30 7535 H 683.474 1.91276 0.0926894 0
M  V30 7536 H 681.779 3.07728 2.42509 0
M  V30 7537 H 683.476 3.37295 2.16872 0
M  V30 7538 H 680.066 4.17272 0.978867 0
M  V30 7539 H 684.25 4.94851 0.378907 0
M  V30 7540 H 679.506 6.0979 -0.44336 0
M  V30 7541 H 683.68 6.88624 -1.03779 0
M  V30 7542 H 681.307 7.46147 -1.45496 0
M  V30 7543 N 682.882 -0.391992 1.52647 0
M  V30 7544 C 683.829 -1.47866 1.77213 0
M  V30 7545 C 684.799 -1.54286 0.615223 0
M  V30 7546 O 685.984 -1.7059 0.854622 0
M  V30 7547 C 683.124 -2.85129 1.94411 0
M  V30 7548 C 682.237 -2.87883 3.22098 0
M  V30 7549 C 681.372 -4.16553 3.29631 0
M  V30 7550 C 680.411 -4.13348 4.51453 0
M  V30 7551 N 679.548 -5.33619 4.56284 0
M  V30 7552 H 684.388 -1.26219 2.6995 0
M  V30 7553 H 681.925 -0.612367 1.33748 0
M  V30 7554 H 683.883 -3.64833 2.02367 0
M  V30 7555 H 682.513 -3.05232 1.05038 0
M  V30 7556 H 681.565 -2.00567 3.23229 0
M  V30 7557 H 682.877 -2.81382 4.11856 0
M  V30 7558 H 682.031 -5.0466 3.36753 0
M  V30 7559 H 680.77 -4.25773 2.37842 0
M  V30 7560 H 679.775 -3.23629 4.44459 0
M  V30 7561 H 681 -4.05754 5.44555 0
M  V30 7562 H 678.946 -5.43474 3.67385 0
M  V30 7563 H 678.863 -5.29182 5.3991 0
M  V30 7564 H 680.131 -6.23632 4.67657 0
M  V30 7565 N 684.36 -1.4356 -0.65026 0
M  V30 7566 C 685.308 -1.49219 -1.78427 0
M  V30 7567 C 686.302 -0.365528 -1.65409 0
M  V30 7568 O 687.508 -0.539649 -1.7172 0
M  V30 7569 H 683.883 -0.467858 -0.588738 0
M  V30 7570 H 685.854 -2.44701 -1.70774 0
M  V30 7571 C 684.603 -1.43519 -3.16698 0
M  V30 7572 H 683.926 -2.2952 -3.27354 0
M  V30 7573 H 685.366 -1.5154 -3.95995 0
M  V30 7574 C 683.825 -0.153197 -3.36552 0
M  V30 7575 O 684.355 0.784317 -3.93969 0
M  V30 7576 N 682.561 -0.0624402 -2.90533 0
M  V30 7577 H 682.108 -0.826172 -2.43992 0
M  V30 7578 H 682.066 0.794616 -3.04193 0
M  V30 7579 N 685.838 0.888903 -1.30139 0
M  V30 7580 C 687.086 1.63713 -1.18501 0
M  V30 7581 C 687.407 1.9324 0.261399 0
M  V30 7582 O 686.677 1.56608 1.17689 0
M  V30 7583 H 685.257 0.606861 -0.435579 0
M  V30 7584 H 687.919 1.06525 -1.63213 0
M  V30 7585 H 687.015 2.58894 -1.743 0
M  V30 7586 N 687.317 1.12792 1.10072 0
M  V30 7587 C 688.264 0.79921 2.16521 0
M  V30 7588 C 689.234 -0.235726 1.64419 0
M  V30 7589 O 690.419 -0.109457 1.90486 0
M  V30 7590 C 687.559 0.264091 3.44088 0
M  V30 7591 C 686.672 1.35729 4.10124 0
M  V30 7592 C 685.807 0.781212 5.25424 0
M  V30 7593 C 684.846 1.85327 5.8337 0
M  V30 7594 N 683.983 1.29564 6.90042 0
M  V30 7595 H 688.823 1.71105 2.43981 0
M  V30 7596 H 686.36 0.854225 1.19756 0
M  V30 7597 H 688.318 -0.0642423 4.17151 0
M  V30 7598 H 686.948 -0.610901 3.16967 0
M  V30 7599 H 686 1.80234 3.34993 0
M  V30 7600 H 687.312 2.16782 4.4923 0
M  V30 7601 H 686.466 0.403769 6.05355 0
M  V30 7602 H 685.205 -0.0604686 4.87663 0
M  V30 7603 H 684.21 2.23986 5.02106 0
M  V30 7604 H 685.435 2.69824 6.23195 0
M  V30 7605 H 683.381 0.475844 6.54272 0
M  V30 7606 H 683.298 2.04271 7.2788 0
M  V30 7607 H 684.566 0.945545 7.73744 0
M  V30 7608 N 688.795 -1.27931 0.920396 0
M  V30 7609 C 689.728 -2.2537 0.358285 0
M  V30 7610 C 690.706 -1.53328 -0.541242 0
M  V30 7611 O 691.89 -1.82196 -0.483399 0
M  V30 7612 C 689.017 -3.35178 -0.487193 0
M  V30 7613 C 688.063 -4.25079 0.347881 0
M  V30 7614 S 688.896 -5.05792 1.75883 0
M  V30 7615 C 690.052 -6.19089 0.920832 0
M  V30 7616 H 690.285 -2.72701 1.18413 0
M  V30 7617 H 687.818 -1.36474 0.722088 0
M  V30 7618 H 689.776 -3.98895 -0.96916 0
M  V30 7619 H 688.437 -2.865 -1.28749 0
M  V30 7620 H 687.63 -5.03113 -0.298912 0
M  V30 7621 H 687.232 -3.66119 0.763748 0
M  V30 7622 H 689.524 -6.77326 0.15349 0
M  V30 7623 H 690.467 -6.8803 1.67394 0
M  V30 7624 H 690.875 -5.62573 0.466069 0
M  V30 7625 N 690.273 -0.685099 -1.4193 0
M  V30 7626 C 691.521 -0.21124 -2.00993 0
M  V30 7627 C 691.842 1.18985 -1.54491 0
M  V30 7628 O 691.112 1.8009 -0.771 0
M  V30 7629 H 689.692 -0.0751059 -0.743215 0
M  V30 7630 H 692.354 -0.883915 -1.73704 0
M  V30 7631 H 691.45 -0.220513 -3.1132 0
M  V30 7632 N 691.751 1.51645 -0.429126 0
M  V30 7633 C 692.681 2.30434 0.377148 0
M  V30 7634 C 693.662 1.35493 1.02838 0
M  V30 7635 O 694.847 1.6441 1.03359 0
M  V30 7636 C 691.977 3.14038 1.48315 0
M  V30 7637 C 690.931 4.1719 0.955855 0
M  V30 7638 C 690.257 4.89263 2.15698 0
M  V30 7639 C 691.557 5.223 -0.00402136 0
M  V30 7640 H 693.251 2.98085 -0.280336 0
M  V30 7641 H 690.797 1.43354 -0.136265 0
M  V30 7642 H 692.75 3.67933 2.05435 0
M  V30 7643 H 691.474 2.44193 2.16881 0
M  V30 7644 H 690.133 3.64335 0.406929 0
M  V30 7645 H 689.781 4.15929 2.82864 0
M  V30 7646 H 689.481 5.59009 1.81059 0
M  V30 7647 H 691.005 5.45978 2.73387 0
M  V30 7648 H 692.419 5.71315 0.476607 0
M  V30 7649 H 690.816 5.99525 -0.26258 0
M  V30 7650 H 691.886 4.75638 -0.943236 0
M  V30 7651 N 693.229 0.160201 1.56784 0
M  V30 7652 C 694.177 -0.791402 2.18723 0
M  V30 7653 C 695.171 -1.24567 1.14801 0
M  V30 7654 O 696.377 -1.21262 1.33025 0
M  V30 7655 H 692.752 -0.273458 0.700517 0
M  V30 7656 H 694.723 -0.244931 2.97393 0
M  V30 7657 C 693.472 -2.01509 2.83354 0
M  V30 7658 H 692.795 -1.67454 3.63041 0
M  V30 7659 H 694.235 -2.66006 3.30177 0
M  V30 7660 C 692.694 -2.83159 1.82545 0
M  V30 7661 O 693.224 -3.79944 1.30405 0
M  V30 7662 N 691.43 -2.47953 1.51552 0
M  V30 7663 H 690.977 -1.69309 1.94144 0
M  V30 7664 H 690.935 -3.02873 0.843519 0
M  V30 7665 N 694.707 -1.5719 -0.113559 0
M  V30 7666 C 695.67 -1.99796 -1.12314 0
M  V30 7667 C 696.67 -0.888847 -1.34001 0
M  V30 7668 O 697.86 -1.15476 -1.30426 0
M  V30 7669 C 694.992 -2.34279 -2.47641 0
M  V30 7670 H 696.185 -2.90193 -0.756825 0
M  V30 7671 H 693.738 -1.52144 -0.358029 0
M  V30 7672 H 694.473 -1.46778 -2.89183 0
M  V30 7673 H 694.258 -3.15175 -2.33253 0
M  V30 7674 H 695.748 -2.67963 -3.2029 0
M  V30 7675 N 696.185 0.383891 -1.52853 0
M  V30 7676 C 697.095 1.49343 -1.80925 0
M  V30 7677 C 698.111 1.59458 -0.696348 0
M  V30 7678 O 699.287 1.75698 -0.984481 0
M  V30 7679 C 696.352 2.84819 -1.97684 0
M  V30 7680 C 695.413 2.84382 -3.21598 0
M  V30 7681 C 694.646 4.13397 -3.37548 0
M  V30 7682 O 694.869 5.08619 -2.58192 0
M  V30 7683 O 693.803 4.20325 -4.30826 0
M  V30 7684 H 697.629 1.2855 -2.75152 0
M  V30 7685 H 695.214 0.572229 -1.38007 0
M  V30 7686 H 697.096 3.65125 -2.10385 0
M  V30 7687 H 695.771 3.05627 -1.06647 0
M  V30 7688 H 694.678 2.0284 -3.14336 0
M  V30 7689 H 696.011 2.68526 -4.12498 0
M  V30 7690 N 697.663 1.43903 0.642637 0
M  V30 7691 C 698.613 1.46321 1.74854 0
M  V30 7692 C 699.597 0.330361 1.57472 0
M  V30 7693 O 700.789 0.574881 1.67404 0
M  V30 7694 C 697.918 1.39919 3.13493 0
M  V30 7695 C 697.004 2.58274 3.36385 0
M  V30 7696 N 697.395 3.83578 3.29699 0
M  V30 7697 C 695.693 2.53224 3.67142 0
M  V30 7698 C 696.394 4.62375 3.52965 0
M  V30 7699 N 695.37 3.93269 3.75287 0
M  V30 7700 H 699.172 2.41062 1.68126 0
M  V30 7701 H 696.686 1.38704 0.844693 0
M  V30 7702 H 698.683 1.39735 3.92785 0
M  V30 7703 H 697.343 0.46207 3.21395 0
M  V30 7704 H 698.354 4.15713 3.08874 0
M  V30 7705 H 695.031 1.68252 3.82096 0
M  V30 7706 H 696.421 5.714 3.53485 0
M  V30 7707 N 699.141 -0.881989 1.30609 0
M  V30 7708 C 700.366 -1.67236 1.22665 0
M  V30 7709 C 700.791 -1.8696 -0.206777 0
M  V30 7710 O 700.149 -1.4027 -1.14865 0
M  V30 7711 C 700.197 -3.02446 1.96363 0
M  V30 7712 O 699.301 -3.91614 1.29276 0
M  V30 7713 H 698.642 -0.510902 0.424117 0
M  V30 7714 H 701.172 -1.10055 1.72479 0
M  V30 7715 H 701.182 -3.52468 2.055 0
M  V30 7716 H 699.857 -2.8741 3.00613 0
M  V30 7717 H 698.434 -3.50055 1.28514 0
M  V30 7718 N 700.619 -1.13374 -1.09472 0
M  V30 7719 C 701.865 -0.906459 -1.82085 0
M  V30 7720 C 702.22 0.5614 -1.84027 0
M  V30 7721 O 701.513 1.41012 -1.29716 0
M  V30 7722 C 701.707 -1.42759 -3.2765 0
M  V30 7723 C 701.536 -2.94459 -3.39888 0
M  V30 7724 C 700.306 -3.62798 -3.51718 0
M  V30 7725 C 702.504 -3.92398 -3.32457 0
M  V30 7726 N 700.486 -5.02516 -3.52635 0
M  V30 7727 C 701.857 -5.18304 -3.40237 0
M  V30 7728 C 703.912 -3.84671 -3.16122 0
M  V30 7729 C 702.615 -6.37386 -3.33364 0
M  V30 7730 C 704.641 -5.03287 -3.10574 0
M  V30 7731 C 704.003 -6.28055 -3.18945 0
M  V30 7732 H 700.102 -0.385097 -0.680606 0
M  V30 7733 H 702.686 -1.44187 -1.30836 0
M  V30 7734 H 700.857 -0.919102 -3.77369 0
M  V30 7735 H 702.589 -1.14136 -3.88272 0
M  V30 7736 H 699.344 -3.13317 -3.55147 0
M  V30 7737 H 699.768 -5.75421 -3.56679 0
M  V30 7738 H 704.41 -2.89094 -3.0852 0
M  V30 7739 H 702.128 -7.33219 -3.3973 0
M  V30 7740 H 705.714 -4.99047 -2.9907 0
M  V30 7741 H 704.594 -7.18299 -3.14668 0
M  V30 7742 N 702.098 1.27442 -0.927168 0
M  V30 7743 C 703.061 2.2512 -0.430525 0
M  V30 7744 C 704.061 1.54357 0.450619 0
M  V30 7745 O 705.251 1.72371 0.251774 0
M  V30 7746 C 702.383 3.38763 0.381144 0
M  V30 7747 H 703.576 2.70569 -1.29354 0
M  V30 7748 H 701.129 1.39355 -0.707806 0
M  V30 7749 H 701.864 2.98695 1.263 0
M  V30 7750 H 701.649 3.91298 -0.250618 0
M  V30 7751 H 703.139 4.11364 0.719012 0
M  V30 7752 N 703.576 0.692616 1.41565 0
M  V30 7753 C 704.853 0.150496 1.9502 0
M  V30 7754 C 705.233 -1.33881 1.63215 0
M  V30 7755 O 704.581 -2.08378 0.937598 0
M  V30 7756 C 704.791 0.438636 3.46233 0
M  V30 7757 C 706.139 0.364777 4.2303 0
M  V30 7758 O 707.163 0.373383 3.54238 0
M  V30 7759 O 706.022 0.32234 5.45549 0
M  V30 7760 H 703.116 0.0132454 0.826894 0
M  V30 7761 H 705.662 0.768574 1.51298 0
M  V30 7762 H 704.434 1.46962 3.62654 0
M  V30 7763 H 704.057 -0.210562 3.97042 0
M  V30 7764 N 705.054 -1.51416 0.437162 0
M  V30 7765 C 706.017 -2.26312 -0.362729 0
M  V30 7766 C 707.017 -1.29748 -0.949847 0
M  V30 7767 O 708.207 -1.53462 -0.824325 0
M  V30 7768 C 705.339 -3.05475 -1.5132 0
M  V30 7769 H 706.532 -2.98459 0.29365 0
M  V30 7770 H 704.085 -1.55137 0.190327 0
M  V30 7771 H 704.82 -2.37744 -2.20563 0
M  V30 7772 H 704.605 -3.76401 -1.09838 0
M  V30 7773 H 706.095 -3.62209 -2.07833 0
M  V30 7774 N 706.532 -0.168513 -1.56696 0
M  V30 7775 C 707.943 0.348694 -1.83415 0
M  V30 7776 C 708.294 1.63257 -1.0882 0
M  V30 7777 O 707.419 2.13707 -0.340333 0
M  V30 7778 C 708.014 0.639423 -3.32711 0
M  V30 7779 C 706.573 1.10108 -3.59935 0
M  V30 7780 C 705.72 0.135464 -2.76969 0
M  V30 7781 H 708.671 -0.392829 -1.53761 0
M  V30 7782 H 708.692 1.49179 -3.50037 0
M  V30 7783 H 708.204 -0.295173 -3.86976 0
M  V30 7784 H 706.305 2.05088 -3.11079 0
M  V30 7785 H 706.418 1.01218 -4.68286 0
M  V30 7786 H 704.782 0.632286 -2.46727 0
M  V30 7787 H 705.565 -0.793104 -3.34013 0
M  V30 7788 N 708.01 1.57248 0.105221 0
M  V30 7789 C 709.259 1.84756 0.809198 0
M  V30 7790 C 709.572 0.756262 1.80389 0
M  V30 7791 O 710.778 0.918158 2.55504 0
M  V30 7792 C 709.234 3.27613 1.48989 0
M  V30 7793 C 708.842 4.44788 0.535484 0
M  V30 7794 C 710.586 3.64356 2.17819 0
M  V30 7795 C 708.493 5.78676 1.22019 0
M  V30 7796 H 707.423 0.689139 0.305946 0
M  V30 7797 H 710.074 1.83395 0.0620371 0
M  V30 7798 H 708.456 3.23485 2.28415 0
M  V30 7799 H 709.63 4.60243 -0.226557 0
M  V30 7800 H 707.945 4.16374 -0.0465769 0
M  V30 7801 H 710.542 4.61663 2.69761 0
M  V30 7802 H 710.885 2.92474 2.96251 0
M  V30 7803 H 711.418 3.70328 1.45264 0
M  V30 7804 H 708.157 6.53763 0.476875 0
M  V30 7805 H 707.677 5.67083 1.9539 0
M  V30 7806 H 709.356 6.22897 1.74952 0
M  V30 7807 N 709.488 -0.375779 1.53054 0
M  V30 7808 C 710.734 -1.12114 1.68992 0
M  V30 7809 C 711.067 -1.8926 0.435238 0
M  V30 7810 O 710.342 -1.86044 -0.567278 0
M  V30 7811 C 710.625 -2.08867 2.93337 0
M  V30 7812 C 710.478 -1.35397 4.28938 0
M  V30 7813 C 711.797 -3.09124 3.13257 0
M  V30 7814 H 708.916 -0.406207 0.614951 0
M  V30 7815 H 711.558 -0.403054 1.85676 0
M  V30 7816 H 709.708 -2.70102 2.79244 0
M  V30 7817 H 711.38 -0.770242 4.54824 0
M  V30 7818 H 709.623 -0.655801 4.28814 0
M  V30 7819 H 710.294 -2.06161 5.12056 0
M  V30 7820 H 712.77 -2.57987 3.26469 0
M  V30 7821 H 711.646 -3.74054 4.01715 0
M  V30 7822 H 711.907 -3.78729 2.28072 0
M  V30 7823 N 710.966 -1.44241 -0.634997 0
M  V30 7824 C 711.929 -1.50457 -1.72903 0
M  V30 7825 C 712.929 -0.387058 -1.56072 0
M  V30 7826 O 714.119 -0.649531 -1.61638 0
M  V30 7827 C 711.251 -1.37477 -3.1195 0
M  V30 7828 H 712.444 -2.47907 -1.68767 0
M  V30 7829 H 709.997 -1.31276 -0.84831 0
M  V30 7830 H 710.732 -0.41106 -3.21684 0
M  V30 7831 H 710.517 -2.18506 -3.25573 0
M  V30 7832 H 712.007 -1.44799 -3.91692 0
M  V30 7833 N 712.444 0.87505 -1.31075 0
M  V30 7834 C 713.394 1.96933 -1.14898 0
M  V30 7835 C 714.378 1.60783 -0.0613703 0
M  V30 7836 O 715.57 1.74678 -0.285751 0
M  V30 7837 C 712.699 3.3253 -0.853166 0
M  V30 7838 C 711.785 3.74963 -1.98151 0
M  V30 7839 N 712.176 3.89403 -3.22799 0
M  V30 7840 C 710.474 4.04436 -1.8801 0
M  V30 7841 C 711.175 4.25563 -3.96574 0
M  V30 7842 N 710.151 4.3597 -3.24701 0
M  V30 7843 H 713.953 2.06201 -2.09424 0
M  V30 7844 H 711.467 1.06551 -1.22558 0
M  V30 7845 H 713.464 4.10666 -0.718266 0
M  V30 7846 H 712.124 3.24592 0.0839218 0
M  V30 7847 H 713.135 3.74266 -3.57974 0
M  V30 7848 H 709.812 4.04915 -1.01733 0
M  V30 7849 H 711.202 4.44375 -5.03965 0
M  V30 7850 N 713.922 1.13953 1.08869 0
M  V30 7851 C 714.852 0.844824 2.17681 0
M  V30 7852 C 715.833 -0.198213 1.68941 0
M  V30 7853 O 717.018 -0.0559073 1.9412 0
M  V30 7854 C 714.148 0.316325 3.45856 0
M  V30 7855 C 713.102 1.29426 4.07962 0
M  V30 7856 C 712.428 0.625275 5.31031 0
M  V30 7857 C 713.728 2.65484 4.49795 0
M  V30 7858 H 715.422 1.75471 2.42591 0
M  V30 7859 H 712.968 0.845116 1.16592 0
M  V30 7860 H 714.921 0.0977876 4.21287 0
M  V30 7861 H 713.645 -0.628972 3.20486 0
M  V30 7862 H 712.304 1.49889 3.34558 0
M  V30 7863 H 711.952 -0.325678 5.01945 0
M  V30 7864 H 711.652 1.27777 5.73539 0
M  V30 7865 H 713.176 0.416152 6.0918 0
M  V30 7866 H 714.59 2.48957 5.16424 0
M  V30 7867 H 712.987 3.26963 5.03205 0
M  V30 7868 H 714.057 3.22717 3.61914 0
M  V30 7869 N 715.4 -1.26948 0.933913 0
M  V30 7870 C 716.646 -1.94716 0.587985 0
M  V30 7871 C 717.001 -1.71994 -0.862312 0
M  V30 7872 O 716.294 -1.04208 -1.60783 0
M  V30 7873 C 716.488 -3.46963 0.857406 0
M  V30 7874 C 716.317 -3.84489 2.33234 0
M  V30 7875 C 715.087 -4.07621 2.98618 0
M  V30 7876 C 717.285 -3.93602 3.31031 0
M  V30 7877 N 715.267 -4.31976 4.362 0
M  V30 7878 C 716.638 -4.22404 4.53845 0
M  V30 7879 C 718.693 -3.76201 3.26155 0
M  V30 7880 C 717.396 -4.35615 5.72391 0
M  V30 7881 C 719.422 -3.90641 4.4402 0
M  V30 7882 C 718.784 -4.19835 5.65613 0
M  V30 7883 H 714.883 -0.735586 0.2654 0
M  V30 7884 H 717.467 -1.53181 1.20182 0
M  V30 7885 H 715.638 -3.87442 0.27268 0
M  V30 7886 H 717.37 -4.01921 0.47348 0
M  V30 7887 H 714.125 -4.02696 2.49264 0
M  V30 7888 H 714.549 -4.48199 5.07392 0
M  V30 7889 H 719.191 -3.52665 2.3321 0
M  V30 7890 H 716.909 -4.57975 6.65796 0
M  V30 7891 H 720.495 -3.78589 4.41771 0
M  V30 7892 H 719.375 -4.30765 6.55295 0
M  V30 7893 N 716.879 -0.700114 -1.41195 0
M  V30 7894 C 717.789 -0.0382854 -2.34569 0
M  V30 7895 C 718.805 0.761036 -1.56474 0
M  V30 7896 O 719.981 0.697553 -1.88934 0
M  V30 7897 C 717.046 0.883522 -3.35253 0
M  V30 7898 C 716.107 0.0758957 -4.29233 0
M  V30 7899 C 715.34 0.9538 -5.25108 0
M  V30 7900 O 715.563 2.19326 -5.26547 0
M  V30 7901 O 714.497 0.401049 -6.00562 0
M  V30 7902 H 718.323 -0.808073 -2.92752 0
M  V30 7903 H 715.908 -0.460479 -1.42127 0
M  V30 7904 H 717.79 1.41199 -3.9704 0
M  V30 7905 H 716.465 1.63272 -2.79506 0
M  V30 7906 H 715.372 -0.497274 -3.7078 0
M  V30 7907 H 716.705 -0.634741 -4.8809 0
M  V30 7908 N 718.357 1.51182 -0.445186 0
M  V30 7909 C 719.587 2.06269 0.116922 0
M  V30 7910 C 719.995 1.31188 1.36332 0
M  V30 7911 O 719.338 0.367067 1.79995 0
M  V30 7912 C 719.4 3.56051 0.496757 0
M  V30 7913 C 719.064 4.52441 -0.64394 0
M  V30 7914 C 720.061 4.97233 -1.5184 0
M  V30 7915 C 717.746 4.95447 -0.826905 0
M  V30 7916 C 719.74 5.83712 -2.56046 0
M  V30 7917 C 717.427 5.81714 -1.87222 0
M  V30 7918 C 718.425 6.25745 -2.73738 0
M  V30 7919 O 718.113 7.10298 -3.76474 0
M  V30 7920 H 717.845 0.675954 0.00785733 0
M  V30 7921 H 720.399 1.95648 -0.625371 0
M  V30 7922 H 718.629 3.64483 1.29187 0
M  V30 7923 H 720.318 3.93618 0.990928 0
M  V30 7924 H 721.084 4.64696 -1.38862 0
M  V30 7925 H 716.963 4.60712 -0.163052 0
M  V30 7926 H 720.507 6.18 -3.23607 0
M  V30 7927 H 716.404 6.13664 -2.00218 0
M  V30 7928 H 717.172 7.28493 -3.73149 0
M  V30 7929 N 719.835 0.176821 1.56605 0
M  V30 7930 C 721.081 -0.467406 1.9734 0
M  V30 7931 C 721.414 -1.62523 1.06301 0
M  V30 7932 O 720.689 -1.94182 0.11125 0
M  V30 7933 C 720.972 -0.945106 3.47476 0
M  V30 7934 C 720.825 0.213273 4.49294 0
M  V30 7935 C 722.144 -1.8169 4.00845 0
M  V30 7936 H 719.263 -0.168426 0.717497 0
M  V30 7937 H 721.905 0.264065 1.88156 0
M  V30 7938 H 720.055 -1.56841 3.55434 0
M  V30 7939 H 721.727 0.850508 4.53392 0
M  V30 7940 H 719.97 0.867918 4.25029 0
M  V30 7941 H 720.641 -0.163187 5.51759 0
M  V30 7942 H 723.117 -1.29139 3.95553 0
M  V30 7943 H 721.993 -2.12015 5.06301 0
M  V30 7944 H 722.254 -2.76463 3.44994 0
M  V30 7945 N 721.313 -1.57302 -0.09688 0
M  V30 7946 C 722.246 -1.97179 -1.14872 0
M  V30 7947 C 723.224 -0.844734 -1.38935 0
M  V30 7948 O 724.408 -1.10487 -1.52725 0
M  V30 7949 C 721.535 -2.28703 -2.49826 0
M  V30 7950 C 720.581 -3.51158 -2.42054 0
M  V30 7951 S 721.414 -5.0294 -1.83879 0
M  V30 7952 C 722.57 -5.37639 -3.2046 0
M  V30 7953 H 722.803 -2.86088 -0.808771 0
M  V30 7954 H 720.336 -1.51368 -0.304492 0
M  V30 7955 H 722.294 -2.47541 -3.27466 0
M  V30 7956 H 720.955 -1.40368 -2.8099 0
M  V30 7957 H 720.148 -3.70651 -3.41517 0
M  V30 7958 H 719.75 -3.31821 -1.72543 0
M  V30 7959 H 722.042 -5.34175 -4.16729 0
M  V30 7960 H 722.985 -6.38677 -3.05773 0
M  V30 7961 H 723.393 -4.651 -3.19909 0
M  V30 7962 N 722.791 0.367657 -1.53252 0
M  V30 7963 C 724.016 1.13566 -1.73544 0
M  V30 7964 C 724.441 1.82329 -0.462344 0
M  V30 7965 O 723.799 1.71655 0.583472 0
M  V30 7966 C 723.847 2.14322 -2.89997 0
M  V30 7967 O 722.951 3.21359 -2.58461 0
M  V30 7968 H 722.292 0.329614 -0.576412 0
M  V30 7969 H 724.822 0.425417 -2.00128 0
M  V30 7970 H 724.832 2.57958 -3.16104 0
M  V30 7971 H 723.507 1.63664 -3.82344 0
M  V30 7972 H 722.084 2.8271 -2.43165 0
M  V30 7973 N 724.269 1.44576 0.627338 0
M  V30 7974 C 725.518 1.46837 1.38281 0
M  V30 7975 C 725.831 0.10635 1.95311 0
M  V30 7976 O 727.037 0.00651084 2.71499 0
M  V30 7977 C 725.493 2.58527 2.50384 0
M  V30 7978 C 725.101 4.00953 1.99851 0
M  V30 7979 C 726.845 2.70013 3.27557 0
M  V30 7980 C 724.752 5.0406 3.09318 0
M  V30 7981 H 723.682 0.546319 0.519664 0
M  V30 7982 H 726.333 1.70654 0.674497 0
M  V30 7983 H 724.715 2.27957 3.23808 0
M  V30 7984 H 725.889 4.41108 1.33267 0
M  V30 7985 H 724.204 3.93743 1.35482 0
M  V30 7986 H 726.801 3.44217 4.09168 0
M  V30 7987 H 727.144 1.75961 3.77284 0
M  V30 7988 H 727.677 3.00011 2.61224 0
M  V30 7989 H 724.416 5.99753 2.6453 0
M  V30 7990 H 723.936 4.68493 3.74532 0
M  V30 7991 H 725.615 5.2793 3.74031 0
M  V30 7992 N 725.747 -0.868086 1.31537 0
M  V30 7993 C 727.024 -1.60384 1.11965 0
M  V30 7994 C 727.404 -2.08584 -0.324949 0
M  V30 7995 O 726.752 -1.86561 -1.31937 0
M  V30 7996 C 726.962 -2.76038 2.13551 0
M  V30 7997 C 728.31 -3.45954 2.46173 0
M  V30 7998 O 729.334 -2.86247 2.11993 0
M  V30 7999 O 728.193 -4.53666 3.04711 0
M  V30 8000 H 725.287 -0.705705 0.431172 0
M  V30 8001 H 727.833 -0.913385 1.43022 0
M  V30 8002 H 726.605 -2.37849 3.10714 0
M  V30 8003 H 726.228 -3.52769 1.83411 0
M  V30 8004 N 727.225 -1.14528 -1.08264 0
M  V30 8005 C 728.45 -0.938381 -1.84957 0
M  V30 8006 C 728.875 0.508044 -1.81109 0
M  V30 8007 O 728.233 1.36146 -1.19724 0
M  V30 8008 C 728.281 -1.44568 -3.30352 0
M  V30 8009 O 727.385 -0.638745 -4.07423 0
M  V30 8010 H 726.726 -0.335394 -0.573068 0
M  V30 8011 H 729.256 -1.52287 -1.36637 0
M  V30 8012 H 729.266 -1.45449 -3.81194 0
M  V30 8013 H 727.941 -2.49876 -3.32468 0
M  V30 8014 H 726.518 -0.698801 -3.66294 0
M  V30 8015 N 728.703 1.26451 -0.940633 0
M  V30 8016 C 729.633 2.28773 -0.467479 0
M  V30 8017 C 730.614 1.63218 0.478955 0
M  V30 8018 O 731.799 1.90427 0.380929 0
M  V30 8019 C 728.929 3.46259 0.268656 0
M  V30 8020 C 727.883 4.23898 -0.591171 0
M  V30 8021 C 727.209 5.33993 0.274891 0
M  V30 8022 C 728.509 4.87974 -1.86223 0
M  V30 8023 H 730.203 2.68601 -1.32265 0
M  V30 8024 H 727.749 1.29123 -0.637436 0
M  V30 8025 H 729.702 4.16951 0.610696 0
M  V30 8026 H 728.426 3.05383 1.15796 0
M  V30 8027 H 727.085 3.54969 -0.916098 0
M  V30 8028 H 726.733 4.89358 1.16353 0
M  V30 8029 H 726.433 5.86849 -0.297006 0
M  V30 8030 H 727.957 6.07523 0.612213 0
M  V30 8031 H 729.371 5.50883 -1.58747 0
M  V30 8032 H 727.768 5.50945 -2.37866 0
M  V30 8033 H 728.838 4.10945 -2.57394 0
M  V30 8034 N 730.181 0.707592 1.40822 0
M  V30 8035 C 731.113 0.0105968 2.29198 0
M  V30 8036 C 732.126 -0.732035 1.45414 0
M  V30 8037 O 733.315 -0.580741 1.68789 0
M  V30 8038 C 730.415 -1.00921 3.23525 0
M  V30 8039 C 729.588 -0.333747 4.36125 0
M  V30 8040 C 728.647 -1.25783 5.10945 0
M  V30 8041 O 727.673 -0.745646 5.64295 0
M  V30 8042 N 728.875 -2.58947 5.19545 0
M  V30 8043 H 731.64 0.76938 2.89656 0
M  V30 8044 H 729.201 0.554579 1.52105 0
M  V30 8045 H 731.193 -1.6294 3.70449 0
M  V30 8046 H 729.763 -1.66942 2.6429 0
M  V30 8047 H 728.983 0.466518 3.9143 0
M  V30 8048 H 730.271 0.135444 5.0862 0
M  V30 8049 H 729.669 -3.03065 4.7767 0
M  V30 8050 H 728.226 -3.16131 5.70004 0
M  V30 8051 N 731.66 -1.50943 0.453197 0
M  V30 8052 C 732.59 -2.31005 -0.34044 0
M  V30 8053 C 733.571 -1.37112 -1.00669 0
M  V30 8054 O 734.756 -1.66033 -1.0073 0
M  V30 8055 C 731.886 -3.16358 -1.433 0
M  V30 8056 C 730.84 -4.18658 -0.889363 0
M  V30 8057 C 730.166 -4.92633 -2.07887 0
M  V30 8058 C 731.466 -5.22227 0.0871142 0
M  V30 8059 H 733.16 -2.97601 0.327723 0
M  V30 8060 H 730.706 -1.43119 0.159054 0
M  V30 8061 H 732.659 -3.71155 -1.99555 0
M  V30 8062 H 731.383 -2.47613 -2.12968 0
M  V30 8063 H 730.042 -3.64936 -0.348915 0
M  V30 8064 H 729.69 -4.20376 -2.76211 0
M  V30 8065 H 729.39 -5.61819 -1.72143 0
M  V30 8066 H 730.914 -5.50258 -2.64666 0
M  V30 8067 H 732.328 -5.72001 -0.385656 0
M  V30 8068 H 730.725 -5.99032 0.357926 0
M  V30 8069 H 731.795 -4.74077 1.01879 0
M  V30 8070 N 733.138 -0.185124 -1.56509 0
M  V30 8071 C 734.386 0.455357 -1.96903 0
M  V30 8072 C 734.707 1.62839 -1.07277 0
M  V30 8073 O 733.977 1.95385 -0.141966 0
M  V30 8074 H 732.557 0.171218 -0.727113 0
M  V30 8075 H 735.219 -0.26953 -1.93027 0
M  V30 8076 H 734.315 0.80616 -3.01509 0
M  V30 8077 N 734.616 1.57351 0.0885366 0
M  V30 8078 C 735.846 1.90355 0.80303 0
M  V30 8079 C 736.254 0.777678 1.72478 0
M  V30 8080 O 735.597 -0.258908 1.81866 0
M  V30 8081 C 735.659 3.18674 1.66395 0
M  V30 8082 C 735.323 4.4778 0.913327 0
M  V30 8083 C 736.32 5.19345 0.240148 0
M  V30 8084 C 734.005 4.94434 0.885462 0
M  V30 8085 C 735.999 6.35803 -0.450854 0
M  V30 8086 C 733.686 6.10802 0.190679 0
M  V30 8087 C 734.684 6.81337 -0.476295 0
M  V30 8088 O 734.372 7.95488 -1.15992 0
M  V30 8089 H 734.104 0.634035 0.234469 0
M  V30 8090 H 736.658 2.05287 0.0681959 0
M  V30 8091 H 734.888 2.99906 2.44117 0
M  V30 8092 H 736.577 3.37458 2.2556 0
M  V30 8093 H 737.343 4.84339 0.253092 0
M  V30 8094 H 733.222 4.39417 1.39406 0
M  V30 8095 H 736.766 6.90795 -0.972019 0
M  V30 8096 H 732.663 6.45261 0.175603 0
M  V30 8097 H 733.431 8.11509 -1.06749 0
M  V30 8098 N 736.094 -0.359525 1.53444 0
M  V30 8099 C 737.057 -1.42357 1.7963 0
M  V30 8100 C 738.057 -1.46319 0.666884 0
M  V30 8101 O 739.247 -1.46974 0.935113 0
M  V30 8102 C 736.379 -2.81425 1.92387 0
M  V30 8103 H 737.572 -1.20409 2.74666 0
M  V30 8104 H 735.125 -0.593007 1.44614 0
M  V30 8105 H 735.86 -3.08679 0.994384 0
M  V30 8106 H 735.645 -2.79947 2.74539 0
M  V30 8107 H 737.135 -3.5847 2.14218 0
M  V30 8108 N 737.572 -1.44907 -0.619662 0
M  V30 8109 C 738.482 -1.55168 -1.75955 0
M  V30 8110 C 739.498 -0.43672 -1.6843 0
M  V30 8111 O 740.674 -0.695704 -1.89002 0
M  V30 8112 C 737.739 -1.50397 -3.12381 0
M  V30 8113 C 736.8 -2.72835 -3.31451 0
M  V30 8114 C 736.033 -2.68283 -4.61368 0
M  V30 8115 O 736.256 -1.74929 -5.42914 0
M  V30 8116 O 735.19 -3.59308 -4.82889 0
M  V30 8117 H 739.016 -2.51493 -1.7025 0
M  V30 8118 H 736.601 -1.27282 -0.782289 0
M  V30 8119 H 738.483 -1.50301 -3.93685 0
M  V30 8120 H 737.158 -0.572197 -3.18603 0
M  V30 8121 H 736.065 -2.78496 -2.49781 0
M  V30 8122 H 737.398 -3.65098 -3.30098 0
M  V30 8123 N 739.05 0.861098 -1.31996 0
M  V30 8124 C 740.327 1.59788 -1.12814 0
M  V30 8125 C 740.707 2.08753 0.313882 0
M  V30 8126 O 740.055 1.87258 1.30946 0
M  V30 8127 C 740.265 2.74901 -2.15012 0
M  V30 8128 C 741.613 3.44643 -2.48004 0
M  V30 8129 O 742.637 2.85119 -2.13508 0
M  V30 8130 O 741.496 4.52044 -3.07113 0
M  V30 8131 H 738.59 0.703408 -0.434909 0
M  V30 8132 H 741.136 0.905788 -1.43505 0
M  V30 8133 H 739.908 2.36198 -3.11971 0
M  V30 8134 H 739.531 3.51792 -1.85279 0
M  V30 8135 N 740.528 1.15101 1.07655 0
M  V30 8136 C 741.776 0.922149 1.79836 0
M  V30 8137 C 742.097 -0.552346 1.87014 0
M  V30 8138 O 741.367 -1.40145 1.3688 0
M  V30 8139 H 739.947 0.338182 0.666064 0
M  V30 8140 H 742.609 1.45107 1.30115 0
M  V30 8141 H 741.705 1.32883 2.82398 0
M  V30 8142 N 742.006 -1.2595 0.947325 0
M  V30 8143 C 742.956 -2.23859 0.432547 0
M  V30 8144 C 743.94 -1.53755 -0.474154 0
M  V30 8145 O 745.132 -1.74293 -0.308397 0
M  V30 8146 C 742.261 -3.42027 -0.295318 0
M  V30 8147 C 741.347 -4.19409 0.62903 0
M  V30 8148 N 741.738 -4.74284 1.7575 0
M  V30 8149 C 740.036 -4.43866 0.435805 0
M  V30 8150 C 740.737 -5.32821 2.33401 0
M  V30 8151 N 739.713 -5.18858 1.62135 0
M  V30 8152 H 743.515 -2.63886 1.29388 0
M  V30 8153 H 741.029 -1.41105 0.80393 0
M  V30 8154 H 743.026 -4.11297 -0.681188 0
M  V30 8155 H 741.686 -3.03526 -1.15334 0
M  V30 8156 H 742.697 -4.71641 2.13952 0
M  V30 8157 H 739.374 -4.15768 -0.37994 0
M  V30 8158 H 740.764 -5.86111 3.28517 0
M  V30 8159 N 743.484 -0.715051 -1.40445 0
M  V30 8160 C 744.724 -0.258742 -2.02756 0
M  V30 8161 C 745.088 1.12661 -1.55472 0
M  V30 8162 O 746.289 1.67988 -2.09842 0
M  V30 8163 C 744.56 -0.335201 -3.55825 0
M  V30 8164 S 746.119 0.044201 -4.38778 0
M  V30 8165 H 742.937 -0.102683 -0.703546 0
M  V30 8166 H 745.539 -0.937151 -1.71574 0
M  V30 8167 H 744.243 -1.34511 -3.87731 0
M  V30 8168 H 743.774 0.361705 -3.91734 0
M  V30 8169 H 745.789 1.26639 -4.79768 0
M  V30 8170 N 744.962 1.50701 -0.461195 0
M  V30 8171 C 745.909 2.2831 0.338094 0
M  V30 8172 C 746.879 1.32928 0.995957 0
M  V30 8173 O 748.064 1.61857 1.0103 0
M  V30 8174 C 745.204 3.14539 1.41983 0
M  V30 8175 C 744.317 4.24942 0.77773 0
M  V30 8176 C 743.452 4.98443 1.83652 0
M  V30 8177 C 742.491 6.00733 1.17413 0
M  V30 8178 N 741.628 6.6755 2.17533 0
M  V30 8179 H 746.468 2.96167 -0.330051 0
M  V30 8180 H 744.005 1.4606 -0.174611 0
M  V30 8181 H 745.963 3.62877 2.05855 0
M  V30 8182 H 744.593 2.48749 2.05727 0
M  V30 8183 H 743.645 3.80391 0.0266924 0
M  V30 8184 H 744.957 4.98151 0.254362 0
M  V30 8185 H 744.111 5.50449 2.55129 0
M  V30 8186 H 742.85 4.24917 2.39367 0
M  V30 8187 H 741.855 5.47997 0.444944 0
M  V30 8188 H 743.08 6.76227 0.624006 0
M  V30 8189 H 741.026 5.96823 2.72284 0
M  V30 8190 H 740.943 7.36603 1.70154 0
M  V30 8191 H 742.211 7.24178 2.88421 0
M  V30 8192 N 746.441 0.193421 1.56409 0
M  V30 8193 C 747.689 -0.444908 1.97142 0
M  V30 8194 C 748.01 -1.62268 1.08139 0
M  V30 8195 O 747.28 -1.95307 0.152326 0
M  V30 8196 H 745.86 -0.16736 0.728011 0
M  V30 8197 H 748.522 0.279763 1.92882 0
M  V30 8198 H 747.618 -0.790159 3.01932 0
M  V30 8199 N 747.919 -1.57396 -0.0801906 0
M  V30 8200 C 749.196 -1.77883 -0.813451 0
M  V30 8201 C 749.576 -0.778879 -1.96206 0
M  V30 8202 O 748.924 0.189683 -2.27711 0
M  V30 8203 C 749.134 -3.24116 -1.2942 0
M  V30 8204 C 750.482 -3.87714 -1.73098 0
M  V30 8205 O 751.506 -3.27956 -1.39007 0
M  V30 8206 O 750.365 -4.92828 -2.36184 0
M  V30 8207 H 747.459 -0.729727 -0.389138 0
M  V30 8208 H 750.005 -1.69591 -0.0609166 0
M  V30 8209 H 748.777 -3.88443 -0.471947 0
M  V30 8210 H 748.4 -3.371 -2.1083 0
M  V30 8211 N 749.397 0.351382 -1.53633 0
M  V30 8212 C 750.646 1.08988 -1.69719 0
M  V30 8213 C 750.959 1.90043 -0.462948 0
M  V30 8214 O 752.165 2.66769 -0.504613 0
M  V30 8215 C 750.621 1.98691 -3.00083 0
M  V30 8216 C 750.229 1.22881 -4.30818 0
M  V30 8217 C 751.973 2.72446 -3.25536 0
M  V30 8218 C 749.88 2.11568 -5.52262 0
M  V30 8219 H 748.81 0.410588 -0.632403 0
M  V30 8220 H 751.461 0.349886 -1.80133 0
M  V30 8221 H 749.843 2.76478 -2.83506 0
M  V30 8222 H 751.017 0.500582 -4.58073 0
M  V30 8223 H 749.332 0.60928 -4.11918 0
M  V30 8224 H 751.929 3.39055 -4.13456 0
M  V30 8225 H 752.272 3.38588 -2.42206 0
M  V30 8226 H 752.805 2.01735 -3.42852 0
M  V30 8227 H 749.544 1.4998 -6.38111 0
M  V30 8228 H 749.064 2.82201 -5.29266 0
M  V30 8229 H 750.743 2.70802 -5.87601 0
M  V30 8230 N 750.875 1.45233 0.611969 0
M  V30 8231 C 751.823 1.53898 1.74408 0
M  V30 8232 C 752.817 0.409254 1.64382 0
M  V30 8233 O 754.023 0.584988 1.70229 0
M  V30 8234 H 750.398 0.483303 0.576127 0
M  V30 8235 H 752.369 2.49143 1.64227 0
M  V30 8236 C 751.118 1.51865 3.12782 0
M  V30 8237 H 750.441 2.38118 3.21154 0
M  V30 8238 H 751.881 1.61986 3.91838 0
M  V30 8239 C 750.34 0.242374 3.36027 0
M  V30 8240 O 750.87 -0.679587 3.9591 0
M  V30 8241 N 749.076 0.139448 2.90265 0
M  V30 8242 H 748.623 0.890571 2.41716 0
M  V30 8243 H 748.581 -0.713686 3.06193 0
M  V30 8244 N 752.353 -0.854086 1.3245 0
M  V30 8245 C 753.764 -1.42427 1.20712 0
M  V30 8246 C 754.115 -1.95371 -0.18013 0
M  V30 8247 O 753.24 -1.87587 -1.07889 0
M  V30 8248 C 753.835 -2.58897 2.18536 0
M  V30 8249 C 752.394 -3.11913 2.10683 0
M  V30 8250 C 751.541 -1.84661 2.06871 0
M  V30 8251 H 754.492 -0.661192 1.4427 0
M  V30 8252 H 754.513 -3.36074 1.78422 0
M  V30 8253 H 754.025 -2.20333 3.19492 0
M  V30 8254 H 752.126 -3.55059 1.12977 0
M  V30 8255 H 752.239 -3.73119 3.00532 0
M  V30 8256 H 750.603 -2.04285 1.52118 0
M  V30 8257 H 751.386 -1.48314 3.09609 0
M  V30 8258 N 753.831 -1.1567 -1.07043 0
M  V30 8259 C 754.779 -0.852204 -2.16426 0
M  V30 8260 C 755.773 0.175661 -1.68487 0
M  V30 8261 O 756.979 0.0303874 -1.79974 0
M  V30 8262 H 753.354 -0.257942 -0.706378 0
M  V30 8263 H 755.325 -1.78231 -2.39324 0
M  V30 8264 C 754.074 -0.361362 -3.45817 0
M  V30 8265 H 753.397 -1.14369 -3.83092 0
M  V30 8266 H 754.837 -0.186997 -4.23587 0
M  V30 8267 C 753.296 0.917703 -3.2416 0
M  V30 8268 O 753.826 1.98858 -3.49025 0
M  V30 8269 N 752.032 0.858456 -2.77631 0
M  V30 8270 H 751.579 -0.0131821 -2.57597 0
M  V30 8271 H 751.537 1.71478 -2.6352 0
M  V30 8272 N 755.309 1.25446 -0.953992 0
M  V30 8273 C 756.558 1.92441 -0.604101 0
M  V30 8274 C 756.871 1.75543 0.862796 0
M  V30 8275 O 758.077 2.37106 1.32262 0
M  V30 8276 C 756.533 3.44854 -1.02974 0
M  V30 8277 C 756.141 3.70464 -2.51914 0
M  V30 8278 C 757.885 4.1778 -0.752352 0
M  V30 8279 C 755.792 5.1638 -2.88281 0
M  V30 8280 H 754.722 0.720508 -0.222227 0
M  V30 8281 H 757.373 1.42318 -1.15836 0
M  V30 8282 H 755.755 3.93935 -0.403904 0
M  V30 8283 H 756.929 3.32038 -3.19511 0
M  V30 8284 H 755.244 3.10797 -2.77117 0
M  V30 8285 H 757.841 5.25261 -1.00024 0
M  V30 8286 H 758.184 4.15135 0.311212 0
M  V30 8287 H 758.717 3.74605 -1.33851 0
M  V30 8288 H 755.456 5.24135 -3.93653 0
M  V30 8289 H 754.976 5.55855 -2.25357 0
M  V30 8290 H 756.655 5.84497 -2.77439 0
M  V30 8291 N 756.787 0.722489 1.40064 0
M  V30 8292 C 758.198 0.336507 1.83642 0
M  V30 8293 C 758.549 -1.13002 1.6039 0
M  V30 8294 O 757.674 -1.87036 1.08842 0
M  V30 8295 C 758.269 0.603985 3.33373 0
M  V30 8296 C 756.828 0.271637 3.75419 0
M  V30 8297 C 755.975 0.872898 2.63203 0
M  V30 8298 H 758.926 0.921108 1.29233 0
M  V30 8299 H 758.947 -0.128471 3.80283 0
M  V30 8300 H 758.459 1.67141 3.50265 0
M  V30 8301 H 756.56 -0.790455 3.64119 0
M  V30 8302 H 756.673 0.745457 4.73265 0
M  V30 8303 H 755.037 0.300431 2.52922 0
M  V30 8304 H 755.82 1.94473 2.82905 0
M  V30 8305 N 758.265 -1.50454 0.469181 0
M  V30 8306 C 759.495 -2.06429 -0.0840913 0
M  V30 8307 C 759.903 -1.3334 -1.34227 0
M  V30 8308 O 759.246 -0.395656 -1.79389 0
M  V30 8309 C 759.308 -3.56797 -0.440049 0
M  V30 8310 C 758.972 -4.51359 0.715838 0
M  V30 8311 C 759.969 -4.94754 1.59732 0
M  V30 8312 C 757.654 -4.94069 0.905621 0
M  V30 8313 C 759.648 -5.79564 2.653 0
M  V30 8314 C 757.335 -5.78662 1.96453 0
M  V30 8315 C 758.333 -6.21311 2.83658 0
M  V30 8316 O 758.021 -7.04218 3.87727 0
M  V30 8317 H 757.753 -0.675994 0.00289751 0
M  V30 8318 H 760.307 -1.94629 0.656417 0
M  V30 8319 H 758.537 -3.66492 -1.23372 0
M  V30 8320 H 760.226 -3.95145 -0.928181 0
M  V30 8321 H 760.992 -4.62428 1.46237 0
M  V30 8322 H 756.871 -4.60394 0.236326 0
M  V30 8323 H 760.415 -6.12774 3.33398 0
M  V30 8324 H 756.312 -6.10401 2.09955 0
M  V30 8325 H 757.08 -7.22464 3.84692 0
M  V30 8326 N 759.743 -0.201713 -1.56304 0
M  V30 8327 C 761.154 0.309711 -1.84113 0
M  V30 8328 C 761.505 1.60912 -1.12258 0
M  V30 8329 O 760.63 2.12937 -0.385587 0
M  V30 8330 C 761.225 0.568706 -3.33993 0
M  V30 8331 C 759.784 1.02448 -3.6219 0
M  V30 8332 C 758.931 0.0766842 -2.77194 0
M  V30 8333 H 761.882 -0.425356 -1.52893 0
M  V30 8334 H 761.903 1.41721 -3.53122 0
M  V30 8335 H 761.415 -0.37719 -3.86263 0
M  V30 8336 H 759.516 1.98443 -3.15359 0
M  V30 8337 H 759.629 0.912619 -4.70328 0
M  V30 8338 H 757.993 0.579809 -2.48013 0
M  V30 8339 H 758.776 -0.863774 -3.32256 0
M  V30 8340 N 761.222 1.57436 0.0718424 0
M  V30 8341 C 762.45 1.91474 0.783932 0
M  V30 8342 C 762.865 0.797669 1.71122 0
M  V30 8343 O 762.222 -0.228989 1.81058 0
M  V30 8344 C 762.273 3.25259 1.57761 0
M  V30 8345 O 761.994 4.3267 0.687596 0
M  V30 8346 C 763.495 3.7331 2.3907 0
M  V30 8347 H 760.715 0.632901 0.222885 0
M  V30 8348 H 763.259 2.04457 0.0421262 0
M  V30 8349 H 761.414 3.13804 2.27169 0
M  V30 8350 H 761.828 5.09641 1.23962 0
M  V30 8351 H 763.302 4.69551 2.90216 0
M  V30 8352 H 763.779 3.02318 3.18591 0
M  V30 8353 H 764.385 3.8771 1.74818 0
M  V30 8354 N 762.7 -0.34323 1.53817 0
M  V30 8355 C 764.116 -0.686355 1.44088 0
M  V30 8356 C 764.316 -1.92426 0.597882 0
M  V30 8357 O 763.372 -2.52343 0.0889918 0
M  V30 8358 C 764.685 -0.878698 2.87575 0
M  V30 8359 C 766.233 -0.977296 2.97352 0
M  V30 8360 C 766.708 -1.20195 4.41947 0
M  V30 8361 N 768.199 -1.26915 4.45474 0
M  V30 8362 C 768.934 -1.46049 5.54488 0
M  V30 8363 N 768.43 -1.62354 6.73508 0
M  V30 8364 N 770.223 -1.48599 5.42102 0
M  V30 8365 H 762.374 0.470679 2.07119 0
M  V30 8366 H 764.637 0.148652 0.936273 0
M  V30 8367 H 764.343 -0.040602 3.51677 0
M  V30 8368 H 764.217 -1.78034 3.32541 0
M  V30 8369 H 766.604 -1.80591 2.3339 0
M  V30 8370 H 766.685 -0.0525498 2.55746 0
M  V30 8371 H 766.329 -0.378262 5.06489 0
M  V30 8372 H 766.259 -2.14027 4.81145 0
M  V30 8373 H 768.75 -1.15837 3.59708 0
M  V30 8374 H 769.063 -1.76591 7.52353 0
M  V30 8375 H 767.408 -1.5949 6.76453 0
M  V30 8376 H 770.599 -1.35443 4.48077 0
M  V30 8377 H 770.772 -1.6317 6.2712 0
M  V30 8378 N 764.178 -1.45556 -0.604258 0
M  V30 8379 C 765.108 -1.57327 -1.72541 0
M  V30 8380 C 766.089 -0.424637 -1.64714 0
M  V30 8381 O 767.274 -0.648196 -1.83063 0
M  V30 8382 C 764.404 -1.54279 -3.11152 0
M  V30 8383 C 763.358 -2.67893 -3.33792 0
M  V30 8384 C 762.684 -2.499 -4.72709 0
M  V30 8385 C 763.984 -4.0988 -3.23722 0
M  V30 8386 H 765.678 -2.51175 -1.62947 0
M  V30 8387 H 763.224 -1.20884 -0.782504 0
M  V30 8388 H 765.177 -1.6111 -3.89386 0
M  V30 8389 H 763.901 -0.569627 -3.21594 0
M  V30 8390 H 762.56 -2.60495 -2.57949 0
M  V30 8391 H 762.208 -1.50715 -4.79889 0
M  V30 8392 H 761.908 -3.26091 -4.88813 0
M  V30 8393 H 763.432 -2.5859 -5.5314 0
M  V30 8394 H 764.846 -4.18503 -3.91826 0
M  V30 8395 H 763.243 -4.86487 -3.51355 0
M  V30 8396 H 764.313 -4.31553 -2.21111 0
M  V30 8397 N 765.656 0.84705 -1.32902 0
M  V30 8398 C 766.588 1.96308 -1.18304 0
M  V30 8399 C 767.601 1.62386 -0.116082 0
M  V30 8400 O 768.79 1.74713 -0.365751 0
M  V30 8401 C 765.89 3.29556 -0.790305 0
M  V30 8402 C 765.063 3.91668 -1.94717 0
M  V30 8403 C 764.122 5.0326 -1.53674 0
M  V30 8404 O 763.148 5.22847 -2.24989 0
M  V30 8405 N 764.35 5.78852 -0.437075 0
M  V30 8406 H 767.115 2.09369 -2.14441 0
M  V30 8407 H 764.676 1.02233 -1.25539 0
M  V30 8408 H 766.668 4.01624 -0.49799 0
M  V30 8409 H 765.238 3.12497 0.0801286 0
M  V30 8410 H 764.458 3.12292 -2.40557 0
M  V30 8411 H 765.746 4.299 -2.72146 0
M  V30 8412 H 765.144 5.65484 0.156316 0
M  V30 8413 H 763.701 6.51479 -0.204399 0
M  V30 8414 N 767.134 1.16236 1.06428 0
M  V30 8415 C 768.38 0.954417 1.79617 0
M  V30 8416 C 768.735 -0.512411 1.85451 0
M  V30 8417 O 768.028 -1.37523 1.33409 0
M  V30 8418 C 768.222 1.51396 3.2375 0
M  V30 8419 C 768.051 3.03367 3.31962 0
M  V30 8420 C 766.821 3.71996 3.41975 0
M  V30 8421 C 769.019 4.01075 3.21937 0
M  V30 8422 N 767.001 5.11688 3.39187 0
M  V30 8423 C 768.372 5.27142 3.26376 0
M  V30 8424 C 770.427 3.92917 3.05812 0
M  V30 8425 C 769.13 6.46 3.16348 0
M  V30 8426 C 771.156 5.11344 2.97121 0
M  V30 8427 C 770.518 6.36291 3.02181 0
M  V30 8428 H 766.617 0.403007 0.670156 0
M  V30 8429 H 769.201 1.47605 1.26968 0
M  V30 8430 H 767.372 1.01883 3.74799 0
M  V30 8431 H 769.104 1.2439 3.85109 0
M  V30 8432 H 765.859 3.22623 3.46715 0
M  V30 8433 H 766.283 5.84676 3.41297 0
M  V30 8434 H 770.925 2.97172 3.00746 0
M  V30 8435 H 768.643 7.41968 3.2017 0
M  V30 8436 H 772.229 5.06801 2.85734 0
M  V30 8437 H 771.109 7.26389 2.95513 0
M  V30 8438 N 768.612 -1.24939 0.960631 0
M  V30 8439 C 769.889 -1.88118 0.535807 0
M  V30 8440 C 770.269 -1.86605 -0.987009 0
M  V30 8441 O 769.617 -1.33375 -1.85536 0
M  V30 8442 C 769.827 -3.30565 1.11927 0
M  V30 8443 C 771.175 -4.07296 1.19981 0
M  V30 8444 O 772.199 -3.39709 1.07126 0
M  V30 8445 O 771.058 -5.28206 1.40218 0
M  V30 8446 H 768.152 -0.807698 0.177631 0
M  V30 8447 H 770.698 -1.32964 1.05445 0
M  V30 8448 H 769.47 -3.26128 2.16231 0
M  V30 8449 H 769.093 -3.93284 0.584245 0
M  V30 8450 N 770.09 -0.729906 -1.39679 0
M  V30 8451 C 771.339 -0.272534 -1.9985 0
M  V30 8452 C 771.652 1.14519 -1.58571 0
M  V30 8453 O 772.858 1.70182 -2.11543 0
M  V30 8454 C 771.314 -0.436322 -3.57245 0
M  V30 8455 C 770.922 -1.86161 -4.0749 0
M  V30 8456 C 772.666 -0.0404679 -4.24481 0
M  V30 8457 C 770.573 -1.97522 -5.5744 0
M  V30 8458 H 769.503 -0.0981428 -0.747585 0
M  V30 8459 H 772.154 -0.903056 -1.59741 0
M  V30 8460 H 770.536 0.263015 -3.95126 0
M  V30 8461 H 771.71 -2.59248 -3.80955 0
M  V30 8462 H 770.025 -2.21021 -3.529 0
M  V30 8463 H 772.622 -0.104437 -5.34598 0
M  V30 8464 H 772.965 1.00357 -4.04023 0
M  V30 8465 H 773.498 -0.690774 -3.91757 0
M  V30 8466 H 770.237 -3.00096 -5.82771 0
M  V30 8467 H 769.757 -1.28864 -5.85794 0
M  V30 8468 H 771.436 -1.754 -6.22771 0
M  V30 8469 N 771.568 1.50203 -0.477153 0
M  V30 8470 C 772.979 1.86685 -0.0235041 0
M  V30 8471 C 773.33 1.39148 1.38319 0
M  V30 8472 O 772.455 0.759051 2.02651 0
M  V30 8473 C 773.05 3.38781 -0.0358767 0
M  V30 8474 C 771.609 3.74652 0.362327 0
M  V30 8475 C 770.756 2.7412 -0.41875 0
M  V30 8476 H 773.707 1.4286 -0.691133 0
M  V30 8477 H 773.728 3.72732 0.764924 0
M  V30 8478 H 773.24 3.73349 -1.05981 0
M  V30 8479 H 771.341 3.45686 1.39039 0
M  V30 8480 H 771.454 4.79063 0.059457 0
M  V30 8481 H 769.818 2.54376 0.128341 0
M  V30 8482 H 770.601 3.11532 -1.44231 0
M  V30 8483 N 773.046 0.209999 1.56195 0
M  V30 8484 C 774.294 -0.423974 1.97603 0
M  V30 8485 C 774.615 -1.61112 1.09854 0
M  V30 8486 O 773.885 -1.95134 0.173032 0
M  V30 8487 H 772.465 -0.159629 0.729745 0
M  V30 8488 H 775.127 0.300205 1.92574 0
M  V30 8489 H 774.223 -0.75809 3.02753 0
M  V30 8490 N 774.524 -1.57472 -0.0634922 0
M  V30 8491 C 775.434 -2.07621 -1.09227 0
M  V30 8492 C 776.45 -1.00746 -1.41867 0
M  V30 8493 O 777.626 -1.32269 -1.51878 0
M  V30 8494 C 774.691 -2.51707 -2.38421 0
M  V30 8495 C 773.752 -3.72917 -2.12676 0
M  V30 8496 C 772.985 -4.14891 -3.3571 0
M  V30 8497 O 773.208 -3.56663 -4.45137 0
M  V30 8498 O 772.142 -5.07616 -3.23434 0
M  V30 8499 H 775.968 -2.95612 -0.696205 0
M  V30 8500 H 773.553 -1.46787 -0.27819 0
M  V30 8501 H 775.435 -2.80547 -3.14438 0
M  V30 8502 H 774.11 -1.66842 -2.77391 0
M  V30 8503 H 773.017 -3.49148 -1.34337 0
M  V30 8504 H 774.35 -4.5866 -1.78583 0
M  V30 8505 N 776.003 0.335068 -1.53997 0
M  V30 8506 C 777.243 1.0827 -1.7337 0
M  V30 8507 C 777.607 1.85618 -0.490913 0
M  V30 8508 O 778.808 2.62864 -0.561799 0
M  V30 8509 C 777.079 1.99212 -2.96731 0
M  V30 8510 S 778.638 2.81083 -3.36954 0
M  V30 8511 H 775.456 0.365698 -0.609743 0
M  V30 8512 H 778.058 0.360079 -1.92155 0
M  V30 8513 H 776.762 1.41204 -3.85344 0
M  V30 8514 H 776.293 2.75898 -2.80436 0
M  V30 8515 H 778.308 4.01657 -2.91352 0
M  V30 8516 N 777.481 1.45874 0.596531 0
M  V30 8517 C 778.413 1.51408 1.7207 0
M  V30 8518 C 779.426 0.403738 1.57714 0
M  V30 8519 O 780.615 0.671384 1.65393 0
M  V30 8520 C 777.715 1.3652 3.10186 0
M  V30 8521 C 776.888 2.61428 3.50677 0
M  V30 8522 C 775.947 2.40937 4.67799 0
M  V30 8523 O 774.973 3.14602 4.74357 0
M  V30 8524 N 776.175 1.4621 5.61785 0
M  V30 8525 H 778.94 2.48333 1.67782 0
M  V30 8526 H 776.501 1.41755 0.782129 0
M  V30 8527 H 778.493 1.20606 3.86311 0
M  V30 8528 H 777.063 0.478302 3.08919 0
M  V30 8529 H 776.283 2.92381 2.644 0
M  V30 8530 H 777.571 3.44432 3.74491 0
M  V30 8531 H 776.969 0.854382 5.59211 0
M  V30 8532 H 775.526 1.36264 6.37397 0
M  V30 8533 N 778.959 -0.83999 1.33349 0
M  V30 8534 C 779.869 -1.98182 1.25543 0
M  V30 8535 C 780.885 -1.73204 0.166208 0
M  V30 8536 O 782.061 -1.97596 0.389589 0
M  V30 8537 C 779.126 -3.32157 0.993614 0
M  V30 8538 C 778.187 -3.70258 2.17273 0
M  V30 8539 C 777.42 -4.9784 1.92331 0
M  V30 8540 O 777.643 -5.63679 0.873074 0
M  V30 8541 O 776.577 -5.33418 2.78835 0
M  V30 8542 H 780.403 -2.07708 2.21565 0
M  V30 8543 H 777.988 -0.972852 1.13384 0
M  V30 8544 H 779.87 -4.12433 0.864711 0
M  V30 8545 H 778.545 -3.23637 0.0636596 0
M  V30 8546 H 777.452 -2.90497 2.35716 0
M  V30 8547 H 778.785 -3.83442 3.08598 0
M  V30 8548 N 780.437 -1.16799 -1.0581 0
M  V30 8549 C 781.683 -0.953935 -1.78963 0
M  V30 8550 C 782.016 0.516638 -1.87202 0
M  V30 8551 O 781.291 1.38338 -1.36721 0
M  V30 8552 C 781.574 -1.58808 -3.23191 0
M  V30 8553 C 781.427 -3.13032 -3.23003 0
M  V30 8554 C 782.746 -1.2868 -4.20867 0
M  V30 8555 H 779.865 -0.347972 -0.64968 0
M  V30 8556 H 782.507 -1.44204 -1.23715 0
M  V30 8557 H 780.657 -1.17303 -3.70368 0
M  V30 8558 H 782.329 -3.63553 -2.83949 0
M  V30 8559 H 780.572 -3.46108 -2.61518 0
M  V30 8560 H 781.243 -3.52527 -4.24769 0
M  V30 8561 H 783.719 -1.6461 -3.82155 0
M  V30 8562 H 782.595 -1.75645 -5.20038 0
M  V30 8563 H 782.856 -0.206491 -4.41618 0
M  V30 8564 N 781.915 1.24427 -0.967243 0
M  V30 8565 C 783.164 1.91789 -0.624478 0
M  V30 8566 C 783.477 1.76448 0.844129 0
M  V30 8567 O 784.683 2.38495 1.2974 0
M  V30 8568 C 783.139 3.43743 -1.06626 0
M  V30 8569 C 782.747 3.67771 -2.55829 0
M  V30 8570 C 784.491 4.16958 -0.79662 0
M  V30 8571 C 782.398 5.13293 -2.93742 0
M  V30 8572 H 781.328 0.71811 -0.229856 0
M  V30 8573 H 783.979 1.41081 -1.17339 0
M  V30 8574 H 782.361 3.93484 -0.445663 0
M  V30 8575 H 783.535 3.28631 -3.23015 0
M  V30 8576 H 781.85 3.07841 -2.80398 0
M  V30 8577 H 784.447 5.24171 -1.05589 0
M  V30 8578 H 784.79 4.15442 0.267163 0
M  V30 8579 H 785.323 3.73164 -1.37816 0
M  V30 8580 H 782.062 5.19931 -3.9919 0
M  V30 8581 H 781.582 5.53433 -2.3124 0
M  V30 8582 H 783.261 5.81521 -2.83623 0
M  V30 8583 N 783.393 0.737304 1.3929 0
M  V30 8584 C 784.303 0.100464 2.34385 0
M  V30 8585 C 785.319 -0.719282 1.58437 0
M  V30 8586 O 786.495 -0.647216 1.90717 0
M  V30 8587 C 783.56 -0.794325 3.37478 0
M  V30 8588 C 782.621 0.0379345 4.29283 0
M  V30 8589 C 781.854 -0.814241 5.27452 0
M  V30 8590 O 782.077 -2.05288 5.32177 0
M  V30 8591 O 781.011 -0.241679 6.01415 0
M  V30 8592 H 784.837 0.885407 2.90507 0
M  V30 8593 H 782.422 0.497999 1.40856 0
M  V30 8594 H 784.304 -1.30622 4.00644 0
M  V30 8595 H 782.979 -1.55804 2.83737 0
M  V30 8596 H 781.886 0.595405 3.69331 0
M  V30 8597 H 783.219 0.763926 4.86236 0
M  V30 8598 N 784.871 -1.49948 0.485112 0
M  V30 8599 C 786.099 -2.06806 -0.0622824 0
M  V30 8600 C 786.514 -1.34736 -1.32256 0
M  V30 8601 O 785.871 -0.420836 -1.77582 0
M  V30 8602 C 785.922 -3.59934 -0.336096 0
M  V30 8603 O 785.643 -4.29289 0.874203 0
M  V30 8604 C 787.144 -4.33459 -0.928903 0
M  V30 8605 H 784.364 -0.670867 0.0133472 0
M  V30 8606 H 786.908 -1.92937 0.677917 0
M  V30 8607 H 785.063 -3.7356 -1.02625 0
M  V30 8608 H 785.477 -5.20735 0.627332 0
M  V30 8609 H 786.951 -5.41527 -1.07017 0
M  V30 8610 H 787.428 -3.94881 -1.92265 0
M  V30 8611 H 788.034 -4.24399 -0.276705 0
M  V30 8612 N 786.349 -0.21828 -1.56081 0
M  V30 8613 C 787.574 0.422302 -2.03055 0
M  V30 8614 C 787.999 1.5279 -1.09713 0
M  V30 8615 O 787.357 1.81102 -0.0847187 0
M  V30 8616 C 787.405 0.934177 -3.48289 0
M  V30 8617 O 786.509 2.04574 -3.58083 0
M  V30 8618 H 785.85 0.0959764 -0.657027 0
M  V30 8619 H 788.38 -0.335958 -2.01823 0
M  V30 8620 H 788.39 1.24484 -3.88546 0
M  V30 8621 H 787.065 0.124963 -4.15712 0
M  V30 8622 H 785.642 1.74196 -3.29712 0
M  V30 8623 N 787.827 1.57504 0.0551401 0
M  V30 8624 C 788.757 2.07864 1.06372 0
M  V30 8625 C 789.738 0.975565 1.39344 0
M  V30 8626 O 790.923 1.24929 1.48682 0
M  V30 8627 C 788.053 2.53643 2.3724 0
M  V30 8628 C 787.007 3.67978 2.18578 0
M  V30 8629 C 786.333 3.9987 3.54976 0
M  V30 8630 C 787.633 4.97405 1.59329 0
M  V30 8631 H 789.327 2.92379 0.644595 0
M  V30 8632 H 786.873 1.40654 0.308619 0
M  V30 8633 H 788.826 2.8749 3.08103 0
M  V30 8634 H 787.55 1.66177 2.81163 0
M  V30 8635 H 786.209 3.3444 1.50152 0
M  V30 8636 H 785.857 3.0951 3.965 0
M  V30 8637 H 785.557 4.76867 3.43324 0
M  V30 8638 H 787.081 4.36228 4.27244 0
M  V30 8639 H 788.495 5.29375 2.20078 0
M  V30 8640 H 786.892 5.78837 1.58327 0
M  V30 8641 H 787.962 4.81697 0.55638 0
M  V30 8642 N 789.305 -0.326896 1.54172 0
M  V30 8643 C 790.253 -1.42232 1.84046 0
M  V30 8644 C 791.247 -1.53705 0.712115 0
M  V30 8645 O 792.453 -1.56131 0.895724 0
M  V30 8646 H 788.828 -0.474568 0.583343 0
M  V30 8647 H 790.799 -1.14259 2.75658 0
M  V30 8648 C 789.548 -2.78502 2.08163 0
M  V30 8649 H 788.871 -2.70447 2.94446 0
M  V30 8650 H 790.311 -3.54228 2.33021 0
M  V30 8651 C 788.77 -3.25415 0.872152 0
M  V30 8652 O 789.3 -4.01621 0.0797648 0
M  V30 8653 N 787.506 -2.82418 0.684716 0
M  V30 8654 H 787.053 -2.20566 1.33072 0
M  V30 8655 H 787.011 -3.14159 -0.123031 0
M  V30 8656 N 790.784 -1.46188 -0.588786 0
M  V30 8657 C 792.012 -1.54743 -1.37339 0
M  V30 8658 C 792.427 -0.186446 -1.87877 0
M  V30 8659 O 791.784 0.815247 -1.63279 0
M  V30 8660 C 791.835 -2.54727 -2.56508 0
M  V30 8661 O 791.556 -3.85539 -2.08066 0
M  V30 8662 C 793.057 -2.73163 -3.49137 0
M  V30 8663 H 790.277 -0.523484 -0.419768 0
M  V30 8664 H 792.821 -1.91543 -0.716345 0
M  V30 8665 H 790.976 -2.20948 -3.18215 0
M  V30 8666 H 791.39 -4.39905 -2.85629 0
M  V30 8667 H 792.864 -3.47057 -4.2925 0
M  V30 8668 H 793.341 -1.79856 -4.00685 0
M  V30 8669 H 793.947 -3.08014 -2.9327 0
M  V30 8670 N 792.262 0.832906 -1.33792 0
M  V30 8671 C 793.225 1.92471 -1.24449 0
M  V30 8672 C 794.225 1.59981 -0.162085 0
M  V30 8673 O 795.415 1.69208 -0.414029 0
M  V30 8674 C 792.547 3.28278 -0.919044 0
M  V30 8675 H 793.74 2.0218 -2.21502 0
M  V30 8676 H 791.293 1.0257 -1.17936 0
M  V30 8677 H 792.028 3.24263 0.048738 0
M  V30 8678 H 791.813 3.53241 -1.70187 0
M  V30 8679 H 793.303 4.08253 -0.878576 0
M  V30 8680 N 793.74 1.17359 1.05189 0
M  V30 8681 C 794.688 0.886527 2.15043 0
M  V30 8682 C 795.682 -0.148834 1.68745 0
M  V30 8683 O 796.888 -0.00175123 1.8 0
M  V30 8684 H 793.263 0.269147 0.702185 0
M  V30 8685 H 795.234 1.82016 2.36459 0
M  V30 8686 C 793.983 0.416333 3.45198 0
M  V30 8687 H 793.306 1.20449 3.81225 0
M  V30 8688 H 794.746 0.254362 4.23236 0
M  V30 8689 C 793.205 -0.866016 3.25579 0
M  V30 8690 O 793.735 -1.9328 3.52144 0
M  V30 8691 N 791.941 -0.814179 2.78961 0
M  V30 8692 H 791.488 0.0541618 2.57543 0
M  V30 8693 H 791.446 -1.67264 2.66214 0
M  V30 8694 N 795.218 -1.23913 0.973828 0
M  V30 8695 C 796.148 -2.27453 0.527969 0
M  V30 8696 C 797.129 -1.6443 -0.435513 0
M  V30 8697 O 798.314 -1.9137 -0.330306 0
M  V30 8698 C 795.444 -3.4685 -0.176757 0
M  V30 8699 C 794.398 -4.22181 0.703352 0
M  V30 8700 C 793.724 -5.34534 -0.133215 0
M  V30 8701 C 795.024 -4.82865 1.99096 0
M  V30 8702 H 796.718 -2.65 1.3934 0
M  V30 8703 H 794.264 -1.27388 0.671446 0
M  V30 8704 H 796.217 -4.18424 -0.499934 0
M  V30 8705 H 794.941 -3.08346 -1.07659 0
M  V30 8706 H 793.6 -3.52416 1.00989 0
M  V30 8707 H 793.248 -4.92271 -1.03338 0
M  V30 8708 H 792.948 -5.85855 0.452494 0
M  V30 8709 H 794.472 -6.08933 -0.450924 0
M  V30 8710 H 795.886 -5.46481 1.73297 0
M  V30 8711 H 794.283 -5.44444 2.52389 0
M  V30 8712 H 795.353 -4.03977 2.68199 0
M  V30 8713 N 796.696 -0.74468 -1.38897 0
M  V30 8714 C 797.626 -0.126355 -2.33158 0
M  V30 8715 C 798.607 0.713517 -1.54412 0
M  V30 8716 O 799.792 0.656523 -1.82766 0
M  V30 8717 C 796.922 0.774375 -3.38557 0
M  V30 8718 C 795.876 0.0379214 -4.27983 0
M  V30 8719 C 795.202 1.05631 -5.24162 0
M  V30 8720 C 796.502 -1.12523 -5.10035 0
M  V30 8721 H 798.196 -0.913744 -2.85116 0
M  V30 8722 H 795.742 -0.440847 -1.37086 0
M  V30 8723 H 797.695 1.21655 -4.03458 0
M  V30 8724 H 796.419 1.59399 -2.85061 0
M  V30 8725 H 795.078 -0.384733 -3.64576 0
M  V30 8726 H 794.726 1.86975 -4.66958 0
M  V30 8727 H 794.426 0.568261 -5.84846 0
M  V30 8728 H 795.95 1.49799 -5.9194 0
M  V30 8729 H 797.364 -0.761037 -5.68226 0
M  V30 8730 H 795.761 -1.54355 -5.79909 0
M  V30 8731 H 796.831 -1.94237 -4.44297 0
M  V30 8732 N 798.174 1.49689 -0.493057 0
M  V30 8733 C 799.137 2.27502 0.278485 0
M  V30 8734 C 800.137 1.33184 0.901037 0
M  V30 8735 O 801.327 1.56415 0.766801 0
M  V30 8736 C 798.459 3.10881 1.39878 0
M  V30 8737 H 799.652 2.97163 -0.404219 0
M  V30 8738 H 797.205 1.54324 -0.247774 0
M  V30 8739 H 797.94 2.45767 2.11587 0
M  V30 8740 H 797.725 3.80219 0.957924 0
M  V30 8741 H 799.215 3.69673 1.94247 0
M  V30 8742 N 799.652 0.226554 1.55963 0
M  V30 8743 C 800.6 -0.697922 2.21882 0
M  V30 8744 C 801.594 -1.19586 1.19981 0
M  V30 8745 O 802.8 -1.15511 1.38048 0
M  V30 8746 H 799.175 -0.243501 0.711485 0
M  V30 8747 H 801.146 -0.118576 2.98164 0
M  V30 8748 C 799.895 -1.89309 2.91646 0
M  V30 8749 H 799.218 -1.51906 3.69817 0
M  V30 8750 H 800.658 -2.51762 3.41162 0
M  V30 8751 C 799.117 -2.75162 1.94391 0
M  V30 8752 O 799.647 -3.74071 1.46402 0
M  V30 8753 N 797.853 -2.41302 1.61932 0
M  V30 8754 H 797.4 -1.60923 2.01151 0
M  V30 8755 H 797.358 -2.99023 0.971219 0
M  V30 8756 N 801.13 -1.57531 -0.0467866 0
M  V30 8757 C 802.407 -1.79568 -0.775536 0
M  V30 8758 C 802.787 -0.820322 -1.94509 0
M  V30 8759 O 802.135 0.14134 -2.28062 0
M  V30 8760 C 802.345 -3.26789 -1.22516 0
M  V30 8761 C 803.693 -3.91299 -1.64835 0
M  V30 8762 O 804.717 -3.30831 -1.3202 0
M  V30 8763 O 803.576 -4.97727 -2.25677 0
M  V30 8764 H 800.67 -0.737817 -0.373572 0
M  V30 8765 H 803.216 -1.69682 -0.0249302 0
M  V30 8766 H 801.988 -3.89357 -0.389446 0
M  V30 8767 H 801.611 -3.41496 -2.03633 0
M  V30 8768 N 802.608 0.318715 -1.54344 0
M  V30 8769 C 803.854 1.05765 -1.73037 0
M  V30 8770 C 804.187 1.87514 -0.505181 0
M  V30 8771 O 803.462 1.88021 0.497838 0
M  V30 8772 C 803.745 1.97836 -3.00887 0
M  V30 8773 C 803.598 1.19384 -4.33668 0
M  V30 8774 C 804.917 2.97285 -3.24514 0
M  V30 8775 H 802.036 0.383104 -0.629603 0
M  V30 8776 H 804.678 0.333864 -1.87044 0
M  V30 8777 H 802.828 2.59552 -2.89076 0
M  V30 8778 H 804.5 0.600906 -4.57369 0
M  V30 8779 H 802.743 0.496198 -4.30953 0
M  V30 8780 H 803.414 1.87014 -5.19355 0
M  V30 8781 H 805.89 2.45693 -3.35819 0
M  V30 8782 H 804.766 3.58887 -4.15321 0
M  V30 8783 H 805.027 3.70003 -2.41971 0
M  V30 8784 N 804.086 1.46499 0.581025 0
M  V30 8785 C 805.363 1.42372 1.34125 0
M  V30 8786 C 805.743 0.108073 2.10823 0
M  V30 8787 O 805.091 -0.910366 2.09582 0
M  V30 8788 C 805.301 2.65445 2.26583 0
M  V30 8789 C 806.649 3.11664 2.88359 0
M  V30 8790 O 807.673 2.66006 2.36896 0
M  V30 8791 O 806.532 3.90974 3.81839 0
M  V30 8792 H 803.626 0.566262 0.602724 0
M  V30 8793 H 806.172 1.58667 0.601903 0
M  V30 8794 H 804.944 3.52756 1.69348 0
M  V30 8795 H 804.567 2.51618 3.07854 0
M  V30 8796 N 805.565 -0.825799 1.34232 0
M  V30 8797 C 806.812 -1.58185 1.26427 0
M  V30 8798 C 807.14 -1.93786 -0.166533 0
M  V30 8799 O 806.395 -1.59986 -1.12707 0
M  V30 8800 C 806.694 -2.89362 2.09772 0
M  V30 8801 C 806.36 -2.73066 3.58812 0
M  V30 8802 C 805.022 -2.68329 3.99441 0
M  V30 8803 C 807.374 -2.56946 4.53462 0
M  V30 8804 C 804.702 -2.4539 5.32917 0
M  V30 8805 C 807.054 -2.35538 5.87115 0
M  V30 8806 C 805.718 -2.29212 6.26912 0
M  V30 8807 H 804.988 -0.57884 0.462629 0
M  V30 8808 H 807.635 -0.955714 1.65947 0
M  V30 8809 H 805.94 -3.56251 1.63071 0
M  V30 8810 H 807.637 -3.4694 2.01081 0
M  V30 8811 H 804.227 -2.77591 3.26559 0
M  V30 8812 H 808.411 -2.59631 4.22972 0
M  V30 8813 H 803.667 -2.38947 5.62774 0
M  V30 8814 H 807.841 -2.22051 6.6005 0
M  V30 8815 H 805.468 -2.11197 7.30274 0
M  V30 8816 N 807.043 -1.17915 -1.04565 0
M  V30 8817 C 807.993 -0.869634 -2.10764 0
M  V30 8818 C 808.977 0.158502 -1.60117 0
M  V30 8819 O 810.169 -0.04483 -1.76943 0
M  V30 8820 C 807.298 -0.391642 -3.41059 0
M  V30 8821 C 806.384 -1.45156 -3.98485 0
M  V30 8822 N 806.775 -2.6667 -4.29792 0
M  V30 8823 C 805.073 -1.3109 -4.263 0
M  V30 8824 C 805.774 -3.34823 -4.75677 0
M  V30 8825 N 804.75 -2.62203 -4.76183 0
M  V30 8826 H 808.552 -1.79342 -2.32838 0
M  V30 8827 H 806.066 -1.0688 -1.22272 0
M  V30 8828 H 808.063 -0.151428 -4.16625 0
M  V30 8829 H 806.723 0.525862 -3.20413 0
M  V30 8830 H 807.734 -3.0358 -4.19594 0
M  V30 8831 H 804.411 -0.455545 -4.15007 0
M  V30 8832 H 805.801 -4.38645 -5.0896 0
M  V30 8833 N 808.521 1.23394 -0.980386 0
M  V30 8834 C 809.746 1.96384 -0.666935 0
M  V30 8835 C 810.171 1.72087 0.759456 0
M  V30 8836 O 809.529 0.992328 1.51732 0
M  V30 8837 C 809.577 3.47499 -0.963177 0
M  V30 8838 O 808.681 4.12363 -0.0552051 0
M  V30 8839 H 808.022 0.614797 -0.250839 0
M  V30 8840 H 810.552 1.56831 -1.31398 0
M  V30 8841 H 810.562 3.97953 -0.899877 0
M  V30 8842 H 809.237 3.6451 -2.00264 0
M  V30 8843 H 807.814 3.72499 -0.172914 0
M  V30 8844 N 809.999 0.752036 1.385 0
M  V30 8845 C 811.246 0.307503 2.00152 0
M  V30 8846 C 811.574 -1.11033 1.59693 0
M  V30 8847 O 810.829 -1.77455 0.825125 0
M  V30 8848 C 811.128 0.376155 3.55415 0
M  V30 8849 C 810.794 1.74942 4.15579 0
M  V30 8850 C 809.456 2.12525 4.31725 0
M  V30 8851 C 811.808 2.65031 4.48785 0
M  V30 8852 C 809.136 3.39671 4.78373 0
M  V30 8853 C 811.488 3.91567 4.96848 0
M  V30 8854 C 810.152 4.2922 5.11201 0
M  V30 8855 H 809.422 0.112523 0.732407 0
M  V30 8856 H 812.069 0.962213 1.65571 0
M  V30 8857 H 810.374 -0.362121 3.90123 0
M  V30 8858 H 812.071 0.0138065 4.00998 0
M  V30 8859 H 808.661 1.44726 4.03426 0
M  V30 8860 H 812.845 2.3726 4.35914 0
M  V30 8861 H 808.101 3.68765 4.8767 0
M  V30 8862 H 812.275 4.61517 5.21512 0
M  V30 8863 H 809.902 5.27805 5.47107 0
M  V30 8864 N 811.477 -1.49425 0.500989 0
M  V30 8865 C 812.888 -1.86624 0.0532011 0
M  V30 8866 C 813.239 -1.41331 -1.36088 0
M  V30 8867 O 812.364 -0.791195 -2.01418 0
M  V30 8868 C 812.959 -3.38681 0.0897693 0
M  V30 8869 C 811.518 -3.75181 -0.302677 0
M  V30 8870 C 810.665 -2.73419 0.462307 0
M  V30 8871 H 813.616 -1.41743 0.713773 0
M  V30 8872 H 813.637 -3.73902 -0.705528 0
M  V30 8873 H 813.149 -3.71616 1.11907 0
M  V30 8874 H 811.25 -3.47855 -1.33521 0
M  V30 8875 H 811.363 -4.79097 0.0167653 0
M  V30 8876 H 809.727 -2.54548 -0.0878557 0
M  V30 8877 H 810.51 -3.09198 1.49169 0
M  V30 8878 N 812.955 -0.234822 -1.55841 0
M  V30 8879 C 814.202 0.39326 -1.98645 0
M  V30 8880 C 814.53 1.58823 -1.12274 0
M  V30 8881 O 813.785 1.94954 -0.170731 0
M  V30 8882 C 814.084 0.858032 -3.46947 0
M  V30 8883 C 813.75 -0.227858 -4.50324 0
M  V30 8884 C 812.412 -0.526128 -4.78315 0
M  V30 8885 C 814.764 -0.961576 -5.12253 0
M  V30 8886 C 812.092 -1.5624 -5.65514 0
M  V30 8887 C 814.444 -1.98728 -6.00575 0
M  V30 8888 C 813.108 -2.29233 -6.26904 0
M  V30 8889 H 812.378 0.143904 -0.726892 0
M  V30 8890 H 815.025 -0.34012 -1.88455 0
M  V30 8891 H 813.33 1.67041 -3.54408 0
M  V30 8892 H 815.027 1.35407 -3.77447 0
M  V30 8893 H 811.617 0.0147624 -4.28597 0
M  V30 8894 H 815.801 -0.744388 -4.90686 0
M  V30 8895 H 811.057 -1.80422 -5.84173 0
M  V30 8896 H 815.231 -2.5608 -6.47608 0
M  V30 8897 H 812.858 -3.09671 -6.94268 0
M  V30 8898 N 814.433 1.57553 0.0384317 0
M  V30 8899 C 815.679 1.89121 0.732199 0
M  V30 8900 C 816.012 0.831404 1.75503 0
M  V30 8901 O 815.287 -0.154642 1.93884 0
M  V30 8902 C 815.57 3.31338 1.41021 0
M  V30 8903 C 815.423 4.48004 0.401532 0
M  V30 8904 C 816.742 3.72318 2.34665 0
M  V30 8905 H 813.861 0.687819 0.264715 0
M  V30 8906 H 816.503 1.89999 -0.00496279 0
M  V30 8907 H 814.653 3.3072 2.03854 0
M  V30 8908 H 816.325 4.60755 -0.224159 0
M  V30 8909 H 814.568 4.32895 -0.280092 0
M  V30 8910 H 815.239 5.44377 0.91423 0
M  V30 8911 H 817.715 3.74243 1.81883 0
M  V30 8912 H 816.591 4.72652 2.7909 0
M  V30 8913 H 816.852 3.04062 3.20934 0
M  V30 8914 N 815.911 -0.310526 1.54511 0
M  V30 8915 C 816.874 -1.3657 1.84068 0
M  V30 8916 C 817.874 -1.44123 0.713097 0
M  V30 8917 O 819.064 -1.43924 0.981399 0
M  V30 8918 C 816.196 -2.75162 2.01243 0
M  V30 8919 H 817.389 -1.1161 2.78358 0
M  V30 8920 H 814.942 -0.546699 1.46427 0
M  V30 8921 H 815.677 -3.05359 1.09208 0
M  V30 8922 H 815.462 -2.71071 2.83307 0
M  V30 8923 H 816.952 -3.51473 2.25514 0
M  V30 8924 N 817.389 -1.46805 -0.573248 0
M  V30 8925 C 818.636 -1.52604 -1.3311 0
M  V30 8926 C 818.964 -0.181633 -1.9365 0
M  V30 8927 O 818.219 0.823775 -1.77517 0
M  V30 8928 C 818.518 -2.58001 -2.47326 0
M  V30 8929 C 818.184 -4.01747 -2.04719 0
M  V30 8930 C 816.846 -4.40881 -1.92814 0
M  V30 8931 C 819.198 -4.92008 -1.71982 0
M  V30 8932 C 816.526 -5.68129 -1.46445 0
M  V30 8933 C 818.878 -6.19703 -1.27089 0
M  V30 8934 C 817.542 -6.57733 -1.13768 0
M  V30 8935 H 816.812 -0.558417 -0.487084 0
M  V30 8936 H 819.459 -1.80327 -0.644538 0
M  V30 8937 H 817.764 -2.23974 -3.2147 0
M  V30 8938 H 819.461 -2.59715 -3.05531 0
M  V30 8939 H 816.051 -3.70819 -2.14922 0
M  V30 8940 H 820.235 -4.62485 -1.8006 0
M  V30 8941 H 815.491 -5.96359 -1.34783 0
M  V30 8942 H 819.665 -6.89064 -1.00814 0
M  V30 8943 H 817.292 -7.56228 -0.776142 0
M  V30 8944 N 818.867 0.818669 -1.34668 0
M  V30 8945 C 820.115 1.57201 -1.27013 0
M  V30 8946 C 820.436 1.94354 0.158599 0
M  V30 8947 O 819.706 1.62626 1.09223 0
M  V30 8948 H 818.286 0.582919 -0.467135 0
M  V30 8949 H 820.948 0.977234 -1.6863 0
M  V30 8950 H 820.044 2.49291 -1.87778 0
M  V30 8951 N 820.346 1.18468 1.03938 0
M  V30 8952 C 821.293 0.912859 2.1198 0
M  V30 8953 C 822.263 -0.14824 1.65437 0
M  V30 8954 O 823.448 -0.008331 1.90798 0
M  V30 8955 C 820.588 0.446114 3.42204 0
M  V30 8956 C 819.701 1.57278 4.02353 0
M  V30 8957 C 818.836 1.05863 5.20544 0
M  V30 8958 C 817.875 2.1599 5.72726 0
M  V30 8959 N 817.012 1.65959 6.82204 0
M  V30 8960 H 821.852 1.83798 2.34569 0
M  V30 8961 H 819.389 0.916504 1.15059 0
M  V30 8962 H 821.347 0.15697 4.16905 0
M  V30 8963 H 819.977 -0.442025 3.19759 0
M  V30 8964 H 819.029 1.97737 3.24968 0
M  V30 8965 H 820.341 2.40289 4.37107 0
M  V30 8966 H 819.495 0.724087 6.02364 0
M  V30 8967 H 818.234 0.198116 4.87297 0
M  V30 8968 H 817.239 2.50287 4.89527 0
M  V30 8969 H 818.464 3.02479 6.08016 0
M  V30 8970 H 816.41 0.82199 6.5083 0
M  V30 8971 H 816.327 2.42567 7.16029 0
M  V30 8972 H 817.595 1.35436 7.67644 0
M  V30 8973 N 821.824 -1.22873 0.986916 0
M  V30 8974 C 823.072 -1.91084 0.658121 0
M  V30 8975 C 823.393 -1.77304 -0.811675 0
M  V30 8976 O 822.663 -1.15649 -1.58121 0
M  V30 8977 H 821.243 -0.707251 0.240427 0
M  V30 8978 H 823.905 -1.49357 1.25213 0
M  V30 8979 H 823.001 -2.98373 0.915428 0
M  V30 8980 N 823.302 -0.75937 -1.38099 0
M  V30 8981 C 824.551 -0.314864 -1.99227 0
M  V30 8982 C 824.864 1.1113 -1.60964 0
M  V30 8983 O 826.07 1.65657 -2.15105 0
M  V30 8984 C 824.526 -0.512001 -3.56239 0
M  V30 8985 C 824.134 -1.94762 -4.0345 0
M  V30 8986 C 825.878 -0.130497 -4.24299 0
M  V30 8987 C 823.785 -2.09301 -5.53125 0
M  V30 8988 H 822.715 -0.113978 -0.745335 0
M  V30 8989 H 825.366 -0.936736 -1.57789 0
M  V30 8990 H 823.748 0.179144 -3.95595 0
M  V30 8991 H 824.922 -2.67271 -3.75371 0
M  V30 8992 H 823.237 -2.28457 -3.48133 0
M  V30 8993 H 825.834 -0.21781 -5.34256 0
M  V30 8994 H 826.177 0.917644 -4.0606 0
M  V30 8995 H 826.71 -0.773716 -3.90203 0
M  V30 8996 H 823.449 -3.1239 -5.76275 0
M  V30 8997 H 822.969 -1.41261 -5.82928 0
M  V30 8998 H 824.648 -1.88571 -6.1891 0
M  V30 8999 N 824.78 1.49157 -0.508906 0
M  V30 9000 C 826.029 2.0167 0.0346854 0
M  V30 9001 C 826.342 1.39302 1.37311 0
M  V30 9002 O 827.548 1.83189 2.00385 0
M  V30 9003 C 826.004 3.59725 0.112261 0
M  V30 9004 C 825.612 4.31069 -1.21999 0
M  V30 9005 C 827.356 4.20155 0.605798 0
M  V30 9006 C 825.263 5.81001 -1.10415 0
M  V30 9007 H 824.193 0.753814 0.0167355 0
M  V30 9008 H 826.844 1.7162 -0.649518 0
M  V30 9009 H 825.226 3.86525 0.861087 0
M  V30 9010 H 826.4 4.15962 -1.98273 0
M  V30 9011 H 824.715 3.82418 -1.64759 0
M  V30 9012 H 827.312 5.29964 0.710102 0
M  V30 9013 H 827.655 3.84051 1.60656 0
M  V30 9014 H 828.188 3.97705 -0.0867239 0
M  V30 9015 H 824.927 6.21643 -2.07941 0
M  V30 9016 H 824.447 5.9858 -0.382428 0
M  V30 9017 H 826.126 6.42207 -0.786116 0
M  V30 9018 N 826.258 0.243083 1.55714 0
M  V30 9019 C 827.205 -0.658078 2.21219 0
M  V30 9020 C 828.175 -1.1742 1.17481 0
M  V30 9021 O 829.36 -1.22937 1.45915 0
M  V30 9022 C 826.5 -1.85104 2.91257 0
M  V30 9023 C 825.613 -1.3718 4.09641 0
M  V30 9024 C 824.748 -2.52403 4.67404 0
M  V30 9025 C 823.787 -2.01321 5.78045 0
M  V30 9026 N 822.924 -3.09896 6.30007 0
M  V30 9027 H 827.764 -0.0927854 2.97856 0
M  V30 9028 H 825.301 -0.0340375 1.47061 0
M  V30 9029 H 827.259 -2.55179 3.3006 0
M  V30 9030 H 825.889 -2.38887 2.17101 0
M  V30 9031 H 824.941 -0.565232 3.76177 0
M  V30 9032 H 826.253 -0.957409 4.89525 0
M  V30 9033 H 825.407 -3.30525 5.08761 0
M  V30 9034 H 824.146 -2.97142 3.86728 0
M  V30 9035 H 823.151 -1.21667 5.36169 0
M  V30 9036 H 824.376 -1.57556 6.6057 0
M  V30 9037 H 822.322 -3.54077 5.52237 0
M  V30 9038 H 822.239 -2.72776 7.05074 0
M  V30 9039 H 823.507 -3.8809 6.76023 0
M  V30 9040 N 827.736 -1.57571 -0.0300757 0
M  V30 9041 C 828.683 -2.06492 -1.03101 0
M  V30 9042 C 829.653 -0.953862 -1.3598 0
M  V30 9043 O 830.838 -1.22436 -1.46335 0
M  V30 9044 C 827.978 -2.54826 -2.32718 0
M  V30 9045 C 827.091 -3.79718 -2.06006 0
M  V30 9046 C 826.226 -4.16668 -3.29487 0
M  V30 9047 C 825.265 -5.3448 -2.98324 0
M  V30 9048 N 824.402 -5.66867 -4.14254 0
M  V30 9049 H 829.242 -2.91755 -0.606877 0
M  V30 9050 H 826.779 -1.44252 -0.288038 0
M  V30 9051 H 828.737 -2.80916 -3.08451 0
M  V30 9052 H 827.367 -1.72481 -2.72856 0
M  V30 9053 H 826.419 -3.60718 -1.20774 0
M  V30 9054 H 827.731 -4.65569 -1.79017 0
M  V30 9055 H 826.885 -4.43881 -4.13588 0
M  V30 9056 H 825.624 -3.29466 -3.59588 0
M  V30 9057 H 824.629 -5.07021 -2.12625 0
M  V30 9058 H 825.854 -6.23334 -2.69502 0
M  V30 9059 H 823.8 -4.82625 -4.44308 0
M  V30 9060 H 823.717 -6.47226 -3.90685 0
M  V30 9061 H 824.985 -5.98656 -4.99231 0
M  V30 9062 N 829.214 0.302327 -1.54673 0
M  V30 9063 C 830.454 1.04568 -1.75627 0
M  V30 9064 C 830.818 1.84535 -0.530175 0
M  V30 9065 O 832.019 2.61613 -0.61743 0
M  V30 9066 C 830.29 1.92873 -3.0089 0
M  V30 9067 S 831.849 2.73872 -3.4284 0
M  V30 9068 H 828.667 0.352682 -0.617362 0
M  V30 9069 H 831.269 0.319239 -1.92876 0
M  V30 9070 H 829.973 1.32998 -3.88252 0
M  V30 9071 H 829.504 2.69887 -2.86225 0
M  V30 9072 H 831.519 3.95386 -2.99807 0
M  V30 9073 N 830.692 1.47107 0.565454 0
M  V30 9074 C 832.108 1.32443 0.890566 0
M  V30 9075 C 832.308 0.308735 1.99121 0
M  V30 9076 O 831.364 -0.28265 2.50913 0
M  V30 9077 C 832.677 2.71548 1.2916 0
M  V30 9078 C 834.225 2.7977 1.40349 0
M  V30 9079 C 834.7 4.19497 1.83811 0
M  V30 9080 N 836.191 4.21998 1.90975 0
M  V30 9081 C 836.926 5.2702 2.25916 0
M  V30 9082 N 836.422 6.42353 2.59527 0
M  V30 9083 N 838.215 5.14393 2.26619 0
M  V30 9084 H 830.366 2.11786 -0.161328 0
M  V30 9085 H 832.629 0.947952 -0.00950631 0
M  V30 9086 H 832.335 3.47265 0.556753 0
M  V30 9087 H 832.209 3.02782 2.24951 0
M  V30 9088 H 834.596 2.0433 2.12916 0
M  V30 9089 H 834.677 2.522 0.427655 0
M  V30 9090 H 834.321 4.95439 1.11816 0
M  V30 9091 H 834.251 4.44486 2.82382 0
M  V30 9092 H 836.742 3.38791 1.6742 0
M  V30 9093 H 837.055 7.18252 2.85191 0
M  V30 9094 H 835.4 6.45687 2.57126 0
M  V30 9095 H 838.591 4.2332 1.99794 0
M  V30 9096 H 838.764 5.96349 2.5352 0
M  V30 9097 N 832.17 -0.811516 1.35101 0
M  V30 9098 C 833.398 -1.59981 1.31201 0
M  V30 9099 C 833.813 -1.8847 -0.111552 0
M  V30 9100 O 833.17 -1.48414 -1.06205 0
M  V30 9101 C 833.221 -2.934 2.11184 0
M  V30 9102 O 832.942 -2.66148 3.4799 0
M  V30 9103 C 834.443 -3.87776 2.14813 0
M  V30 9104 H 831.663 -0.496921 0.450899 0
M  V30 9105 H 834.207 -1.00886 1.77883 0
M  V30 9106 H 832.362 -3.49022 1.68115 0
M  V30 9107 H 832.776 -3.51301 3.89471 0
M  V30 9108 H 834.25 -4.7852 2.75178 0
M  V30 9109 H 834.727 -4.23997 1.14556 0
M  V30 9110 H 835.333 -3.3809 2.58022 0
M  V30 9111 N 833.648 -1.19017 -1.03309 0
M  V30 9112 C 834.873 -1.01598 -1.80811 0
M  V30 9113 C 835.298 0.430773 -1.83101 0
M  V30 9114 O 834.656 1.30946 -1.25391 0
M  V30 9115 C 834.704 -1.5845 -3.23923 0
M  V30 9116 O 833.808 -0.810972 -4.04348 0
M  V30 9117 H 833.149 -0.359398 -0.558327 0
M  V30 9118 H 835.679 -1.57945 -1.30055 0
M  V30 9119 H 835.689 -1.61486 -3.74682 0
M  V30 9120 H 834.364 -2.63752 -3.21571 0
M  V30 9121 H 832.941 -0.85353 -3.63 0
M  V30 9122 N 835.127 1.22348 -0.993418 0
M  V30 9123 C 836.538 1.72893 -0.704616 0
M  V30 9124 C 836.889 1.80095 0.778483 0
M  V30 9125 O 836.014 1.4476 1.60853 0
M  V30 9126 C 836.609 3.14 -1.27237 0
M  V30 9127 C 835.168 3.61949 -1.03294 0
M  V30 9128 C 834.315 2.39816 -1.39225 0
M  V30 9129 H 837.266 1.07688 -1.16572 0
M  V30 9130 H 837.287 3.74886 -0.651212 0
M  V30 9131 H 836.799 3.08727 -2.3518 0
M  V30 9132 H 834.9 3.72588 0.0298329 0
M  V30 9133 H 835.013 4.48051 -1.69668 0
M  V30 9134 H 833.377 2.41448 -0.810849 0
M  V30 9135 H 834.16 2.37203 -2.48172 0
M  V30 9136 N 836.605 0.766683 1.37694 0
M  V30 9137 C 837.882 0.25366 1.93948 0
M  V30 9138 C 838.262 -1.25041 1.70082 0
M  V30 9139 O 837.61 -2.03115 1.04674 0
M  V30 9140 C 837.82 0.621549 3.43421 0
M  V30 9141 C 839.168 0.588504 4.20502 0
M  V30 9142 O 840.192 0.560632 3.5176 0
M  V30 9143 O 839.051 0.61107 5.43073 0
M  V30 9144 H 836.145 0.0570586 0.825029 0
M  V30 9145 H 838.691 0.847693 1.47011 0
M  V30 9146 H 837.463 1.65979 3.54354 0
M  V30 9147 H 837.086 0.000197027 3.976 0
M  V30 9148 N 838.083 -1.48885 0.516809 0
M  V30 9149 C 839.046 -2.27916 -0.242256 0
M  V30 9150 C 840.046 -1.34601 -0.879735 0
M  V30 9151 O 841.236 -1.57616 -0.74182 0
M  V30 9152 C 838.368 -3.13067 -1.34914 0
M  V30 9153 H 839.561 -2.96483 0.451444 0
M  V30 9154 H 837.114 -1.5391 0.272294 0
M  V30 9155 H 837.849 -2.49102 -2.07651 0
M  V30 9156 H 837.634 -3.81695 -0.897313 0
M  V30 9157 H 839.124 -3.72716 -1.88341 0
M  V30 9158 N 839.561 -0.251338 -1.55583 0
M  V30 9159 C 840.808 0.372169 -1.99051 0
M  V30 9160 C 841.136 1.57623 -1.13953 0
M  V30 9161 O 840.391 1.94762 -0.191398 0
M  V30 9162 C 840.69 0.821186 -3.47838 0
M  V30 9163 C 840.356 -0.275608 -4.50057 0
M  V30 9164 C 839.018 -0.57683 -4.7773 0
M  V30 9165 C 841.37 -1.01585 -5.11204 0
M  V30 9166 C 838.698 -1.62229 -5.63825 0
M  V30 9167 C 841.05 -2.05087 -5.98433 0
M  V30 9168 C 839.714 -2.35869 -6.24437 0
M  V30 9169 H 838.984 0.136186 -0.728378 0
M  V30 9170 H 841.631 -0.360089 -1.88084 0
M  V30 9171 H 839.936 1.63272 -3.56159 0
M  V30 9172 H 841.633 1.31396 -3.78861 0
M  V30 9173 H 838.223 -0.030697 -4.28589 0
M  V30 9174 H 842.407 -0.79639 -4.89869 0
M  V30 9175 H 837.663 -1.86607 -5.82226 0
M  V30 9176 H 841.837 -2.62934 -6.44855 0
M  V30 9177 H 839.464 -3.17017 -6.90944 0
M  V30 9178 N 841.039 1.57585 0.0217189 0
M  V30 9179 C 842.285 1.89887 0.712099 0
M  V30 9180 C 842.618 0.849971 1.74611 0
M  V30 9181 O 841.893 -0.13407 1.94037 0
M  V30 9182 C 842.176 3.32815 1.37499 0
M  V30 9183 C 842.029 4.48405 0.353993 0
M  V30 9184 C 843.348 3.74786 2.30703 0
M  V30 9185 H 840.467 0.690588 0.257405 0
M  V30 9186 H 843.109 1.89983 -0.0251145 0
M  V30 9187 H 841.259 3.32863 2.00335 0
M  V30 9188 H 842.931 4.60491 -0.273015 0
M  V30 9189 H 841.174 4.32573 -0.32599 0
M  V30 9190 H 841.845 5.45316 0.85644 0
M  V30 9191 H 844.321 3.76151 1.77904 0
M  V30 9192 H 843.197 4.75585 2.74061 0
M  V30 9193 H 843.458 3.07449 3.17691 0
M  V30 9194 N 842.517 -0.29412 1.54831 0
M  V30 9195 C 843.449 -1.38476 1.82639 0
M  V30 9196 C 844.462 -1.46517 0.709694 0
M  V30 9197 O 845.651 -1.48712 0.987269 0
M  V30 9198 C 842.751 -2.76791 1.95551 0
M  V30 9199 C 841.924 -2.91599 3.26019 0
M  V30 9200 C 840.983 -4.10456 3.29261 0
M  V30 9201 O 840.009 -4.02214 4.02756 0
M  V30 9202 N 841.211 -5.21422 2.55145 0
M  V30 9203 H 843.976 -1.14974 2.76769 0
M  V30 9204 H 841.537 -0.484206 1.5449 0
M  V30 9205 H 843.529 -3.5456 1.95113 0
M  V30 9206 H 842.099 -2.93209 1.08384 0
M  V30 9207 H 841.319 -2.00886 3.39173 0
M  V30 9208 H 842.607 -2.98409 4.12104 0
M  V30 9209 H 842.005 -5.31 1.95078 0
M  V30 9210 H 840.562 -5.97501 2.60454 0
M  V30 9211 N 843.995 -1.47404 -0.557645 0
M  V30 9212 C 844.925 -1.62736 -1.67449 0
M  V30 9213 C 845.906 -0.476824 -1.6328 0
M  V30 9214 O 847.091 -0.706108 -1.80908 0
M  V30 9215 C 844.221 -1.641 -3.06086 0
M  V30 9216 C 843.175 -2.78377 -3.25101 0
M  V30 9217 C 842.501 -2.64812 -4.6452 0
M  V30 9218 C 843.801 -4.19971 -3.10518 0
M  V30 9219 H 845.495 -2.56232 -1.54873 0
M  V30 9220 H 843.041 -1.23312 -0.743649 0
M  V30 9221 H 844.994 -1.73417 -3.84063 0
M  V30 9222 H 843.718 -0.671652 -3.19619 0
M  V30 9223 H 842.377 -2.6857 -2.49531 0
M  V30 9224 H 842.025 -1.65906 -4.74852 0
M  V30 9225 H 841.725 -3.41477 -4.78191 0
M  V30 9226 H 843.249 -2.76057 -5.44633 0
M  V30 9227 H 844.663 -4.30757 -3.78313 0
M  V30 9228 H 843.06 -4.97419 -3.35699 0
M  V30 9229 H 844.13 -4.38369 -2.0727 0
M  V30 9230 N 845.473 0.80434 -1.35529 0
M  V30 9231 C 846.436 1.89788 -1.28503 0
M  V30 9232 C 847.436 1.59601 -0.195983 0
M  V30 9233 O 848.626 1.68292 -0.449827 0
M  V30 9234 C 845.758 3.26255 -0.98847 0
M  V30 9235 H 846.951 1.97436 -2.25741 0
M  V30 9236 H 844.504 1.00046 -1.20086 0
M  V30 9237 H 845.239 3.24294 -0.0200541 0
M  V30 9238 H 845.024 3.49551 -1.77641 0
M  V30 9239 H 846.514 4.06298 -0.964975 0
M  V30 9240 N 846.951 1.19563 1.02676 0
M  V30 9241 C 847.881 0.959024 2.12897 0
M  V30 9242 C 848.862 -0.108382 1.69754 0
M  V30 9243 O 850.047 0.0470698 1.94143 0
M  V30 9244 C 847.177 0.499211 3.43693 0
M  V30 9245 C 846.131 1.5087 4.00528 0
M  V30 9246 C 845.457 0.905884 5.2697 0
M  V30 9247 C 846.757 2.88954 4.3509 0
M  V30 9248 H 848.451 1.88084 2.32948 0
M  V30 9249 H 845.997 0.905731 1.11949 0
M  V30 9250 H 847.95 0.320965 4.20176 0
M  V30 9251 H 846.674 -0.458205 3.2337 0
M  V30 9252 H 845.333 1.67413 3.26142 0
M  V30 9253 H 844.981 -0.0591506 5.02965 0
M  V30 9254 H 844.681 1.58 5.65959 0
M  V30 9255 H 846.205 0.73848 6.06118 0
M  V30 9256 H 847.619 2.75981 5.02501 0
M  V30 9257 H 846.016 3.53177 4.85166 0
M  V30 9258 H 847.086 3.41447 3.44299 0
M  V30 9259 N 848.429 -1.21819 0.999893 0
M  V30 9260 C 849.361 -2.23356 0.514256 0
M  V30 9261 C 850.374 -1.5795 -0.394413 0
M  V30 9262 O 851.563 -1.77427 -0.195428 0
M  V30 9263 C 848.663 -3.37797 -0.273207 0
M  V30 9264 C 847.836 -4.32791 0.633293 0
M  V30 9265 C 846.895 -5.26098 -0.103673 0
M  V30 9266 O 845.921 -5.66881 0.513269 0
M  V30 9267 N 847.123 -5.63764 -1.38383 0
M  V30 9268 H 849.888 -2.65653 1.3874 0
M  V30 9269 H 847.449 -1.3619 0.875431 0
M  V30 9270 H 849.441 -3.97209 -0.775053 0
M  V30 9271 H 848.011 -2.94527 -1.0475 0
M  V30 9272 H 847.231 -3.71595 1.31571 0
M  V30 9273 H 848.519 -4.93196 1.25039 0
M  V30 9274 H 847.917 -5.32614 -1.90627 0
M  V30 9275 H 846.474 -6.25562 -1.83073 0
M  V30 9276 N 849.908 -0.773975 -1.37286 0
M  V30 9277 C 850.838 -0.175782 -2.32837 0
M  V30 9278 C 851.819 0.680603 -1.5589 0
M  V30 9279 O 853.004 0.617607 -1.84117 0
M  V30 9280 C 850.134 0.702388 -3.40123 0
M  V30 9281 C 849.088 -0.0528687 -4.27967 0
M  V30 9282 C 848.414 0.944891 -5.26285 0
M  V30 9283 C 849.714 -1.23316 -5.07534 0
M  V30 9284 H 851.408 -0.974016 -2.83114 0
M  V30 9285 H 848.954 -0.469826 -1.3612 0
M  V30 9286 H 850.907 1.13069 -4.05947 0
M  V30 9287 H 849.631 1.53316 -2.88378 0
M  V30 9288 H 848.29 -0.461978 -3.63678 0
M  V30 9289 H 847.938 1.77028 -4.70819 0
M  V30 9290 H 847.638 0.444079 -5.8592 0
M  V30 9291 H 849.162 1.37209 -5.94984 0
M  V30 9292 H 850.576 -0.881395 -5.66484 0
M  V30 9293 H 848.973 -1.66621 -5.76504 0
M  V30 9294 H 850.043 -2.03617 -4.40077 0
M  V30 9295 N 851.386 1.48609 -0.524698 0
M  V30 9296 C 852.349 2.28041 0.230166 0
M  V30 9297 C 853.349 1.35065 0.872584 0
M  V30 9298 O 854.539 1.58007 0.73345 0
M  V30 9299 C 851.671 3.13778 1.33252 0
M  V30 9300 H 852.864 2.96239 -0.467161 0
M  V30 9301 H 850.417 1.53763 -0.280452 0
M  V30 9302 H 851.152 2.502 2.06327 0
M  V30 9303 H 850.937 3.82165 0.877058 0
M  V30 9304 H 852.427 3.7371 1.86362 0
M  V30 9305 N 852.864 0.259585 1.55447 0
M  V30 9306 C 853.814 -0.648769 2.18575 0
M  V30 9307 C 854.798 -1.1299 1.14552 0
M  V30 9308 O 855.99 -1.07756 1.4042 0
M  V30 9309 C 853.119 -1.83963 2.89849 0
M  V30 9310 C 852.205 -1.37641 4.01143 0
M  V30 9311 N 852.596 -0.628269 5.01883 0
M  V30 9312 C 850.894 -1.66066 4.1393 0
M  V30 9313 C 851.595 -0.386746 5.80413 0
M  V30 9314 N 850.571 -0.954665 5.35151 0
M  V30 9315 H 854.373 -0.0691616 2.93819 0
M  V30 9316 H 851.887 0.0624525 1.6228 0
M  V30 9317 H 853.884 -2.50151 3.33512 0
M  V30 9318 H 852.544 -2.42334 2.16112 0
M  V30 9319 H 853.555 -0.277123 5.17158 0
M  V30 9320 H 850.232 -2.25484 3.51373 0
M  V30 9321 H 851.622 0.211382 6.71567 0
M  V30 9322 N 854.342 -1.57594 -0.0133615 0
M  V30 9323 C 855.572 -1.93969 -0.711295 0
M  V30 9324 C 855.98 -0.859084 -1.68572 0
M  V30 9325 O 855.323 0.171842 -1.82894 0
M  V30 9326 C 855.385 -3.2625 -1.51001 0
M  V30 9327 C 855.049 -4.51628 -0.698645 0
M  V30 9328 C 856.046 -5.19899 0.00791185 0
M  V30 9329 C 853.731 -4.98095 -0.648553 0
M  V30 9330 C 855.725 -6.32928 0.753691 0
M  V30 9331 C 853.412 -6.11017 0.10096 0
M  V30 9332 C 854.41 -6.78289 0.800828 0
M  V30 9333 O 854.098 -7.89048 1.53814 0
M  V30 9334 H 853.83 -0.6445 -0.203951 0
M  V30 9335 H 856.384 -2.05378 0.0298267 0
M  V30 9336 H 854.614 -3.11211 -2.29531 0
M  V30 9337 H 856.303 -3.47835 -2.09202 0
M  V30 9338 H 857.069 -4.84995 -0.0217192 0
M  V30 9339 H 852.948 -4.45568 -1.18282 0
M  V30 9340 H 856.492 -6.85371 1.3005 0
M  V30 9341 H 852.389 -6.45364 0.132459 0
M  V30 9342 H 853.157 -8.05492 1.45345 0
M  V30 9343 N 855.82 0.285905 -1.54985 0
M  V30 9344 C 856.767 1.35306 -1.86978 0
M  V30 9345 C 857.737 1.49682 -0.720046 0
M  V30 9346 O 858.922 1.64297 -0.970107 0
M  V30 9347 C 856.062 2.71059 -2.13591 0
M  V30 9348 C 855.175 2.6501 -3.41165 0
M  V30 9349 C 854.31 3.92856 -3.57544 0
M  V30 9350 C 853.349 3.81266 -4.78855 0
M  V30 9351 N 852.486 5.00919 -4.9196 0
M  V30 9352 H 857.326 1.07323 -2.78003 0
M  V30 9353 H 854.863 0.518776 -1.37649 0
M  V30 9354 H 856.821 3.50026 -2.27019 0
M  V30 9355 H 855.451 2.97271 -1.25816 0
M  V30 9356 H 854.503 1.77824 -3.36278 0
M  V30 9357 H 855.815 2.52342 -4.30262 0
M  V30 9358 H 854.969 4.80263 -3.70718 0
M  V30 9359 H 853.708 4.08377 -2.66608 0
M  V30 9360 H 852.713 2.92243 -4.65698 0
M  V30 9361 H 853.938 3.67277 -5.71213 0
M  V30 9362 H 851.884 5.16875 -4.03951 0
M  V30 9363 H 851.801 4.90732 -5.75081 0
M  V30 9364 H 853.069 5.89935 -5.09507 0
M  V30 9365 N 857.298 1.47698 0.54982 0
M  V30 9366 C 858.575 1.45185 1.31075 0
M  V30 9367 C 858.955 0.152768 2.10547 0
M  V30 9368 O 858.303 -0.865706 2.11466 0
M  V30 9369 C 858.513 2.70192 2.20902 0
M  V30 9370 C 859.861 3.1771 2.81683 0
M  V30 9371 O 860.885 2.70971 2.312 0
M  V30 9372 O 859.744 3.98986 3.7346 0
M  V30 9373 H 856.838 0.57892 0.590577 0
M  V30 9374 H 859.384 1.59908 0.568112 0
M  V30 9375 H 858.156 3.56269 1.61828 0
M  V30 9376 H 857.779 2.58091 3.02448 0
M  V30 9377 N 858.776 -0.797141 1.35954 0
M  V30 9378 C 859.709 -1.91567 1.24005 0
M  V30 9379 C 860.687 -1.62112 0.125868 0
M  V30 9380 O 861.871 -1.86167 0.295638 0
M  V30 9381 C 858.998 -3.26204 0.911535 0
M  V30 9382 C 858.044 -3.74598 2.03909 0
M  V30 9383 S 858.877 -3.91276 3.656 0
M  V30 9384 C 860.033 -5.288 3.34846 0
M  V30 9385 H 860.266 -2.0141 2.18681 0
M  V30 9386 H 857.799 -0.955542 1.2128 0
M  V30 9387 H 859.757 -4.03979 0.728805 0
M  V30 9388 H 858.418 -3.14095 -0.0173159 0
M  V30 9389 H 857.611 -4.72137 1.7636 0
M  V30 9390 H 857.213 -3.03849 2.18064 0
M  V30 9391 H 859.505 -6.13117 2.8826 0
M  V30 9392 H 860.448 -5.61347 4.31619 0
M  V30 9393 H 860.856 -4.95534 2.70382 0
M  V30 9394 N 860.254 -1.20106 -1.0204 0
M  V30 9395 C 861.502 -1.0069 -1.75231 0
M  V30 9396 C 861.823 0.462491 -1.89436 0
M  V30 9397 O 861.093 1.33455 -1.4341 0
M  V30 9398 H 859.673 -0.369576 -0.649171 0
M  V30 9399 H 862.335 -1.51149 -1.23044 0
M  V30 9400 H 861.431 -1.46205 -2.75736 0
M  V30 9401 N 861.732 1.21287 -1.00634 0
M  V30 9402 C 862.679 2.23705 -0.567876 0
M  V30 9403 C 863.649 1.61043 0.406753 0
M  V30 9404 O 864.834 1.88289 0.308499 0
M  V30 9405 C 861.974 3.44961 0.097996 0
M  V30 9406 C 861.087 4.22091 -0.919972 0
M  V30 9407 C 860.222 5.30718 -0.226222 0
M  V30 9408 C 859.261 5.99581 -1.23165 0
M  V30 9409 N 858.398 6.99821 -0.565278 0
M  V30 9410 H 863.238 2.60571 -1.44592 0
M  V30 9411 H 860.775 1.28049 -0.724006 0
M  V30 9412 H 862.733 4.1418 0.501097 0
M  V30 9413 H 861.363 3.08818 0.939744 0
M  V30 9414 H 860.415 3.52038 -1.44131 0
M  V30 9415 H 861.727 4.69476 -1.68505 0
M  V30 9416 H 860.881 6.06253 0.232917 0
M  V30 9417 H 859.62 4.84343 0.571247 0
M  V30 9418 H 858.625 5.22816 -1.70128 0
M  V30 9419 H 859.85 6.48042 -2.03022 0
M  V30 9420 H 857.796 6.55656 0.212508 0
M  V30 9421 H 857.713 7.4528 -1.26858 0
M  V30 9422 H 858.981 7.79393 -0.129389 0
M  V30 9423 N 863.21 0.781244 1.36873 0
M  V30 9424 C 864.457 0.349889 1.99454 0
M  V30 9425 C 864.785 -1.07621 1.62013 0
M  V30 9426 O 864.04 -1.75665 0.86258 0
M  V30 9427 C 864.339 0.45146 3.54537 0
M  V30 9428 C 864.005 1.83718 4.11775 0
M  V30 9429 C 862.667 2.21634 4.2712 0
M  V30 9430 C 865.019 2.7449 4.43063 0
M  V30 9431 C 862.347 3.49742 4.7106 0
M  V30 9432 C 864.699 4.02017 4.88431 0
M  V30 9433 C 863.363 4.39967 5.01982 0
M  V30 9434 H 862.633 0.128033 0.729855 0
M  V30 9435 H 865.28 0.997117 1.63493 0
M  V30 9436 H 863.585 -0.279288 3.90803 0
M  V30 9437 H 865.282 0.0988609 4.00878 0
M  V30 9438 H 861.872 1.53251 4.00265 0
M  V30 9439 H 866.056 2.46453 4.30783 0
M  V30 9440 H 861.312 3.79026 4.79738 0
M  V30 9441 H 865.486 4.72475 5.11605 0
M  V30 9442 H 863.113 5.39291 5.35788 0
M  V30 9443 N 864.689 -1.48329 0.532571 0
M  V30 9444 C 865.929 -2.044 0.00145618 0
M  V30 9445 C 866.293 -1.40053 -1.31336 0
M  V30 9446 O 867.494 -1.87026 -1.93066 0
M  V30 9447 C 865.765 -3.57214 -0.115376 0
M  V30 9448 S 867.324 -4.34731 -0.59618 0
M  V30 9449 H 864.142 -0.710876 0.0133038 0
M  V30 9450 H 866.744 -1.82006 0.71372 0
M  V30 9451 H 865.448 -4.01579 0.846335 0
M  V30 9452 H 864.979 -3.84065 -0.85194 0
M  V30 9453 H 866.994 -4.6001 -1.86025 0
M  V30 9454 N 866.167 -0.267825 -1.55308 0
M  V30 9455 C 867.097 0.616585 -2.25212 0
M  V30 9456 C 868.078 1.16472 -1.23969 0
M  V30 9457 O 869.263 1.20021 -1.52672 0
M  V30 9458 C 866.393 1.80412 -2.96764 0
M  V30 9459 C 865.347 1.38784 -4.04874 0
M  V30 9460 C 864.673 2.65789 -4.63961 0
M  V30 9461 C 865.973 0.543415 -5.19465 0
M  V30 9462 H 867.667 0.0336257 -2.99381 0
M  V30 9463 H 865.213 0.0147328 -1.43992 0
M  V30 9464 H 867.166 2.42866 -3.44375 0
M  V30 9465 H 865.89 2.4128 -2.20118 0
M  V30 9466 H 864.549 0.786541 -3.58063 0
M  V30 9467 H 864.197 3.24899 -3.83992 0
M  V30 9468 H 863.897 2.38651 -5.36954 0
M  V30 9469 H 865.421 3.29104 -5.14318 0
M  V30 9470 H 866.835 1.07277 -5.63174 0
M  V30 9471 H 865.232 0.367219 -5.98975 0
M  V30 9472 H 866.302 -0.439534 -4.82904 0
M  V30 9473 N 867.645 1.57599 0.00500368 0
M  V30 9474 C 868.873 1.94626 0.702016 0
M  V30 9475 C 869.288 0.86953 1.67585 0
M  V30 9476 O 868.645 -0.15199 1.81866 0
M  V30 9477 C 868.696 3.31658 1.43824 0
M  V30 9478 O 868.417 4.35197 0.503467 0
M  V30 9479 C 869.918 3.83114 2.23021 0
M  V30 9480 H 867.138 0.641785 0.195841 0
M  V30 9481 H 869.682 2.04451 -0.0446287 0
M  V30 9482 H 867.837 3.23156 2.13655 0
M  V30 9483 H 868.251 5.1444 1.02235 0
M  V30 9484 H 869.725 4.81438 2.7004 0
M  V30 9485 H 870.202 3.15559 3.05482 0
M  V30 9486 H 870.808 3.94775 1.58216 0
M  V30 9487 N 869.123 -0.277682 1.55134 0
M  V30 9488 C 870.353 -1.02677 1.79279 0
M  V30 9489 C 870.761 -1.80599 0.563962 0
M  V30 9490 O 870.104 -1.77416 -0.476378 0
M  V30 9491 C 870.166 -2.03617 2.96277 0
M  V30 9492 C 869.83 -1.44676 4.33495 0
M  V30 9493 C 870.827 -0.864811 5.12657 0
M  V30 9494 C 868.512 -1.47537 4.80144 0
M  V30 9495 C 870.506 -0.319322 6.366 0
M  V30 9496 C 868.193 -0.926016 6.04043 0
M  V30 9497 C 869.191 -0.348988 6.82108 0
M  V30 9498 O 868.879 0.191964 8.03671 0
M  V30 9499 H 868.611 -0.309232 0.601125 0
M  V30 9500 H 871.165 -0.315308 2.02965 0
M  V30 9501 H 869.395 -2.78509 2.68272 0
M  V30 9502 H 871.084 -2.64616 3.07788 0
M  V30 9503 H 871.85 -0.835438 4.7775 0
M  V30 9504 H 867.729 -1.91389 4.19394 0
M  V30 9505 H 871.273 0.131709 6.97476 0
M  V30 9506 H 867.17 -0.952613 6.38432 0
M  V30 9507 H 867.938 0.0808779 8.1846 0
M  V30 9508 N 870.601 -1.47988 -0.541979 0
M  V30 9509 C 871.511 -1.64276 -1.67483 0
M  V30 9510 C 872.527 -0.525387 -1.65879 0
M  V30 9511 O 873.703 -0.794912 -1.85049 0
M  V30 9512 C 870.768 -1.66744 -3.03969 0
M  V30 9513 C 869.829 -2.90021 -3.16522 0
M  V30 9514 C 869.062 -2.92362 -4.46498 0
M  V30 9515 O 869.285 -2.03462 -5.32878 0
M  V30 9516 O 868.219 -3.84399 -4.63164 0
M  V30 9517 H 872.045 -2.60164 -1.5668 0
M  V30 9518 H 869.63 -1.31249 -0.71372 0
M  V30 9519 H 871.512 -1.70958 -3.85164 0
M  V30 9520 H 870.187 -0.740277 -3.15122 0
M  V30 9521 H 869.094 -2.91345 -2.34667 0
M  V30 9522 H 870.427 -3.82082 -3.10281 0
M  V30 9523 N 872.079 0.78992 -1.36375 0
M  V30 9524 C 873.042 1.88414 -1.30509 0
M  V30 9525 C 874.042 1.59384 -0.2129 0
M  V30 9526 O 875.232 1.67805 -0.467651 0
M  V30 9527 C 872.364 3.25188 -1.02302 0
M  V30 9528 H 873.557 1.95031 -2.27822 0
M  V30 9529 H 871.11 0.987664 -1.2114 0
M  V30 9530 H 871.845 3.24254 -0.0544486 0
M  V30 9531 H 871.63 3.47647 -1.81338 0
M  V30 9532 H 873.12 4.05252 -1.00801 0
M  V30 9533 N 873.557 1.20646 1.01402 0
M  V30 9534 C 874.782 1.04462 1.79172 0
M  V30 9535 C 875.207 -0.401588 1.83763 0
M  V30 9536 O 874.565 -1.28934 1.27459 0
M  V30 9537 C 874.613 1.63583 3.21361 0
M  V30 9538 O 873.717 0.875198 4.03006 0
M  V30 9539 H 873.058 0.368235 0.552539 0
M  V30 9540 H 875.588 1.59994 1.27526 0
M  V30 9541 H 875.598 1.67426 3.72065 0
M  V30 9542 H 874.273 2.68835 3.17334 0
M  V30 9543 H 872.85 0.911172 3.61597 0
M  V30 9544 N 875.035 -1.20752 1.01276 0
M  V30 9545 C 875.968 -2.22091 0.524472 0
M  V30 9546 C 876.946 -1.5692 -0.426017 0
M  V30 9547 O 878.13 -1.8528 -0.346919 0
M  V30 9548 C 875.257 -3.37868 -0.237224 0
M  V30 9549 C 874.303 -4.21327 0.662236 0
M  V30 9550 S 875.136 -4.91352 2.12916 0
M  V30 9551 C 876.292 -6.10553 1.37752 0
M  V30 9552 H 876.525 -2.63166 1.38315 0
M  V30 9553 H 874.058 -1.30742 0.821332 0
M  V30 9554 H 876.016 -4.04985 -0.670599 0
M  V30 9555 H 874.677 -2.95261 -1.07143 0
M  V30 9556 H 873.87 -5.03944 0.0751085 0
M  V30 9557 H 873.472 -3.59445 1.03322 0
M  V30 9558 H 875.764 -6.74322 0.655491 0
M  V30 9559 H 876.707 -6.73717 2.17969 0
M  V30 9560 H 877.115 -5.57566 0.882088 0
M  V30 9561 N 876.513 -0.788492 -1.36457 0
M  V30 9562 C 877.741 -0.372365 -2.03522 0
M  V30 9563 C 878.156 1.01093 -1.59454 0
M  V30 9564 O 877.513 1.64824 -0.783535 0
M  V30 9565 C 877.564 -0.425435 -3.58988 0
M  V30 9566 O 877.285 -1.75418 -4.01448 0
M  V30 9567 C 878.786 0.000180167 -4.433 0
M  V30 9568 H 876.006 -0.1536 -0.653183 0
M  V30 9569 H 878.55 -1.06708 -1.74452 0
M  V30 9570 H 876.705 0.220856 -3.8677 0
M  V30 9571 H 877.119 -1.70437 -4.96036 0
M  V30 9572 H 878.593 -0.0880919 -5.5193 0
M  V30 9573 H 879.07 1.05269 -4.26398 0
M  V30 9574 H 879.676 -0.618563 -4.20778 0
M  V30 9575 N 877.991 1.48044 -0.54043 0
M  V30 9576 C 879.407 1.58354 -0.199006 0
M  V30 9577 C 879.607 1.54118 1.29807 0
M  V30 9578 O 878.663 1.43573 2.07709 0
M  V30 9579 C 879.976 2.89563 -0.810797 0
M  V30 9580 C 881.524 3.03113 -0.780486 0
M  V30 9581 C 881.999 4.36997 -1.37104 0
M  V30 9582 N 883.49 4.43591 -1.33347 0
M  V30 9583 C 884.225 5.45714 -1.76021 0
M  V30 9584 N 883.721 6.54738 -2.26473 0
M  V30 9585 N 885.514 5.36659 -1.67194 0
M  V30 9586 H 877.665 1.49041 -1.51329 0
M  V30 9587 H 879.928 0.708309 -0.630081 0
M  V30 9588 H 879.634 2.9835 -1.86227 0
M  V30 9589 H 879.508 3.76053 -0.293977 0
M  V30 9590 H 881.895 2.93932 0.262246 0
M  V30 9591 H 881.976 2.18207 -1.33489 0
M  V30 9592 H 881.62 4.46932 -2.41276 0
M  V30 9593 H 881.55 5.20607 -0.792229 0
M  V30 9594 H 884.041 3.65391 -0.964259 0
M  V30 9595 H 884.354 7.28814 -2.57002 0
M  V30 9596 H 882.699 6.55673 -2.30473 0
M  V30 9597 H 885.89 4.50382 -1.27569 0
M  V30 9598 H 886.063 6.16113 -2.00771 0
M  V30 9599 N 879.47 0.276058 1.55163 0
M  V30 9600 C 880.4 -0.604633 2.25536 0
M  V30 9601 C 881.381 -1.15813 1.24585 0
M  V30 9602 O 882.566 -1.1921 1.53306 0
M  V30 9603 C 879.696 -1.78836 2.97716 0
M  V30 9604 C 878.65 -1.36635 4.05604 0
M  V30 9605 C 877.976 -2.63325 4.65364 0
M  V30 9606 C 879.276 -0.515858 5.19746 0
M  V30 9607 H 880.97 -0.0177483 2.99395 0
M  V30 9608 H 878.516 -0.00709627 1.43998 0
M  V30 9609 H 880.469 -2.41036 3.45658 0
M  V30 9610 H 879.193 -2.40109 2.21394 0
M  V30 9611 H 877.852 -0.767541 3.58475 0
M  V30 9612 H 877.5 -3.22858 3.85709 0
M  V30 9613 H 877.2 -2.358 5.38212 0
M  V30 9614 H 878.724 -3.26372 5.16056 0
M  V30 9615 H 880.138 -1.04289 5.63735 0
M  V30 9616 H 878.535 -0.335449 5.99162 0
M  V30 9617 H 879.605 0.465137 4.82664 0
M  V30 9618 N 880.948 -1.576 0.00335426 0
M  V30 9619 C 882.195 -1.90713 -0.680791 0
M  V30 9620 C 882.523 -0.877263 -1.73592 0
M  V30 9621 O 881.778 0.117497 -1.95347 0
M  V30 9622 C 882.077 -3.3058 -1.35837 0
M  V30 9623 C 881.743 -4.48786 -0.436111 0
M  V30 9624 C 880.405 -4.80855 -0.182195 0
M  V30 9625 C 882.757 -5.20821 0.198677 0
M  V30 9626 C 880.085 -5.8233 0.714747 0
M  V30 9627 C 882.437 -6.23252 1.08351 0
M  V30 9628 C 881.101 -6.53776 1.34658 0
M  V30 9629 H 880.371 -0.697869 -0.249119 0
M  V30 9630 H 883.018 -1.91407 0.0596011 0
M  V30 9631 H 881.323 -3.26026 -2.17289 0
M  V30 9632 H 883.02 -3.53462 -1.89383 0
M  V30 9633 H 879.61 -4.23731 -0.644186 0
M  V30 9634 H 883.794 -4.96298 0.0155259 0
M  V30 9635 H 879.05 -6.04339 0.926529 0
M  V30 9636 H 883.224 -6.78199 1.58172 0
M  V30 9637 H 880.851 -7.32225 2.04328 0
M  V30 9638 N 882.426 0.269451 -1.5528 0
M  V30 9639 C 883.842 0.616827 -1.47199 0
M  V30 9640 C 884.042 1.89354 -0.68901 0
M  V30 9641 O 883.098 2.51631 -0.209287 0
M  V30 9642 C 884.411 0.740492 -2.9144 0
M  V30 9643 C 885.959 0.834312 -3.01676 0
M  V30 9644 C 886.434 0.989725 -4.47178 0
M  V30 9645 N 887.925 1.05516 -4.51022 0
M  V30 9646 C 888.66 1.19427 -5.60825 0
M  V30 9647 N 888.156 1.30035 -6.80487 0
M  V30 9648 N 889.949 1.22566 -5.48575 0
M  V30 9649 H 882.1 -0.568962 -2.04638 0
M  V30 9650 H 884.363 -0.193153 -0.928114 0
M  V30 9651 H 884.069 -0.127234 -3.5147 0
M  V30 9652 H 883.943 1.61965 -3.40657 0
M  V30 9653 H 886.33 1.6925 -2.4174 0
M  V30 9654 H 886.411 -0.0695298 -2.55705 0
M  V30 9655 H 886.055 0.136179 -5.07717 0
M  V30 9656 H 885.985 1.90827 -4.90808 0
M  V30 9657 H 888.476 0.985434 -3.64825 0
M  V30 9658 H 888.789 1.40494 -7.59922 0
M  V30 9659 H 887.134 1.27033 -6.83292 0
M  V30 9660 H 890.325 1.13911 -4.54029 0
M  V30 9661 H 890.498 1.33063 -6.34191 0
M  V30 9662 N 883.904 1.48273 0.534124 0
M  V30 9663 C 884.814 1.65162 1.66609 0
M  V30 9664 C 885.83 0.534177 1.65598 0
M  V30 9665 O 887.006 0.804715 1.84625 0
M  V30 9666 C 884.071 1.68354 3.03081 0
M  V30 9667 C 883.132 2.91696 3.1498 0
M  V30 9668 C 882.365 2.94725 4.44941 0
M  V30 9669 O 882.588 2.06285 5.31792 0
M  V30 9670 O 881.522 3.8685 4.61119 0
M  V30 9671 H 885.348 2.60991 1.55298 0
M  V30 9672 H 882.933 1.31626 0.706749 0
M  V30 9673 H 884.815 1.72998 3.84252 0
M  V30 9674 H 883.49 0.756978 3.14725 0
M  V30 9675 H 882.397 2.92586 2.33119 0
M  V30 9676 H 883.73 3.83722 3.0825 0
M  V30 9677 N 885.382 -0.782676 1.36792 0
M  V30 9678 C 886.63 -1.53778 1.31136 0
M  V30 9679 C 886.951 -1.94706 -0.107014 0
M  V30 9680 O 886.221 -1.65465 -1.04872 0
M  V30 9681 H 884.801 -0.570328 0.482426 0
M  V30 9682 H 887.463 -0.932181 1.71162 0
M  V30 9683 H 886.559 -2.44224 1.94321 0
M  V30 9684 N 886.86 -1.21182 -1.00761 0
M  V30 9685 C 888.276 -0.968607 -1.26847 0
M  V30 9686 C 888.476 0.346561 -1.98497 0
M  V30 9687 O 887.532 1.07287 -2.28573 0
M  V30 9688 C 888.845 -2.1574 -2.09467 0
M  V30 9689 C 890.393 -2.19937 -2.22703 0
M  V30 9690 C 890.868 -3.38328 -3.08704 0
M  V30 9691 N 892.359 -3.38398 -3.16293 0
M  V30 9692 C 893.094 -4.26653 -3.83086 0
M  V30 9693 N 892.59 -5.25101 -4.5193 0
M  V30 9694 N 894.383 -4.14469 -3.797 0
M  V30 9695 H 886.534 -2.05763 -0.526816 0
M  V30 9696 H 888.797 -0.90087 -0.29519 0
M  V30 9697 H 888.503 -3.11034 -1.64167 0
M  V30 9698 H 888.377 -2.14584 -3.10216 0
M  V30 9699 H 890.764 -1.25201 -2.67224 0
M  V30 9700 H 890.845 -2.25139 -1.21433 0
M  V30 9701 H 890.489 -4.33356 -2.64886 0
M  V30 9702 H 890.419 -3.30364 -4.10082 0
M  V30 9703 H 892.91 -2.67149 -2.67282 0
M  V30 9704 H 893.223 -5.8875 -5.00592 0
M  V30 9705 H 891.568 -5.29029 -4.50726 0
M  V30 9706 H 894.759 -3.3682 -3.25069 0
M  V30 9707 H 894.932 -4.83458 -4.31477 0
M  V30 9708 N 888.338 1.20213 -1.01915 0
M  V30 9709 C 889.566 1.93622 -0.729255 0
M  V30 9710 C 889.981 1.74923 0.710444 0
M  V30 9711 O 889.338 1.06484 1.48214 0
M  V30 9712 C 889.389 3.45651 -1.05865 0
M  V30 9713 O 889.11 3.63741 -2.44181 0
M  V30 9714 C 890.611 4.36201 -0.790176 0
M  V30 9715 H 887.831 0.615333 -0.267594 0
M  V30 9716 H 890.375 1.52633 -1.36101 0
M  V30 9717 H 888.53 3.84511 -0.47225 0
M  V30 9718 H 888.944 4.57702 -2.56143 0
M  V30 9719 H 890.418 5.41516 -1.07071 0
M  V30 9720 H 890.895 4.38334 0.275609 0
M  V30 9721 H 891.501 4.03008 -1.35885 0
M  V30 9722 N 889.816 0.795718 1.36037 0
M  V30 9723 C 890.726 0.199784 2.33748 0
M  V30 9724 C 891.742 -0.651436 1.61345 0
M  V30 9725 O 892.918 -0.565743 1.93291 0
M  V30 9726 C 889.983 -0.650475 3.40543 0
M  V30 9727 C 889.044 0.219974 4.28736 0
M  V30 9728 C 888.277 -0.589798 5.30431 0
M  V30 9729 O 888.5 -1.82532 5.40406 0
M  V30 9730 O 887.434 0.0136187 6.01898 0
M  V30 9731 H 891.26 1.00782 2.8649 0
M  V30 9732 H 888.845 0.557293 1.38617 0
M  V30 9733 H 890.727 -1.13512 4.05824 0
M  V30 9734 H 889.402 -1.4363 2.9009 0
M  V30 9735 H 888.309 0.751516 3.66474 0
M  V30 9736 H 889.642 0.969468 4.82558 0
M  V30 9737 N 891.294 -1.47756 0.548274 0
M  V30 9738 C 892.522 -2.06884 0.0254873 0
M  V30 9739 C 892.937 -1.40225 -1.26422 0
M  V30 9740 O 892.294 -0.495776 -1.75637 0
M  V30 9741 C 892.345 -3.61036 -0.183134 0
M  V30 9742 O 892.066 -4.25195 1.05549 0
M  V30 9743 C 893.567 -4.37008 -0.744222 0
M  V30 9744 H 890.787 -0.669697 0.041789 0
M  V30 9745 H 893.331 -1.89888 0.759138 0
M  V30 9746 H 891.486 -3.77576 -0.866886 0
M  V30 9747 H 891.9 -5.17606 0.847629 0
M  V30 9748 H 893.374 -5.45579 -0.839529 0
M  V30 9749 H 893.851 -4.0268 -1.75344 0
M  V30 9750 H 894.457 -4.25191 -0.0964542 0
M  V30 9751 N 892.772 -0.284283 -1.55015 0
M  V30 9752 C 894.018 0.330352 -2.00091 0
M  V30 9753 C 894.351 1.54814 -1.17244 0
M  V30 9754 O 893.626 1.92954 -0.244753 0
M  V30 9755 C 893.909 0.703492 -3.53161 0
M  V30 9756 C 893.762 -0.522275 -4.46758 0
M  V30 9757 C 895.081 1.53645 -4.12409 0
M  V30 9758 H 892.2 0.118599 -0.727395 0
M  V30 9759 H 894.842 -0.393054 -1.8589 0
M  V30 9760 H 892.992 1.31983 -3.65394 0
M  V30 9761 H 894.664 -1.16082 -4.46456 0
M  V30 9762 H 892.907 -1.15865 -4.1804 0
M  V30 9763 H 893.578 -0.217295 -5.51572 0
M  V30 9764 H 896.054 1.01583 -4.0351 0
M  V30 9765 H 894.93 1.76633 -5.19704 0
M  V30 9766 H 895.191 2.5204 -3.63219 0
M  V30 9767 N 894.251 1.57596 -0.0117121 0
M  V30 9768 C 895.667 1.55837 0.344506 0
M  V30 9769 C 895.867 1.01557 1.74036 0
M  V30 9770 O 894.923 0.654563 2.43868 0
M  V30 9771 C 896.236 2.99973 0.209023 0
M  V30 9772 C 897.784 3.11717 0.283092 0
M  V30 9773 C 898.259 4.57659 0.176599 0
M  V30 9774 N 899.75 4.62608 0.234133 0
M  V30 9775 C 900.485 5.73132 0.175252 0
M  V30 9776 N 899.981 6.92768 0.0662888 0
M  V30 9777 N 901.774 5.61638 0.227972 0
M  V30 9778 H 893.925 1.91215 -0.924692 0
M  V30 9779 H 896.188 0.878807 -0.355531 0
M  V30 9780 H 895.894 3.4357 -0.751826 0
M  V30 9781 H 895.768 3.64075 0.98635 0
M  V30 9782 H 898.155 2.68043 1.23439 0
M  V30 9783 H 898.236 2.50369 -0.52431 0
M  V30 9784 H 897.88 5.02011 -0.771205 0
M  V30 9785 H 897.81 5.16967 1.00264 0
M  V30 9786 H 900.301 3.76549 0.319203 0
M  V30 9787 H 900.614 7.72795 0.0275765 0
M  V30 9788 H 898.959 6.94993 0.0317502 0
M  V30 9789 H 902.15 4.67063 0.311377 0
M  V30 9790 H 902.323 6.47754 0.178621 0
M  V30 9791 N 895.729 -0.261212 1.5542 0
M  V30 9792 C 896.954 -1.01341 1.80955 0
M  V30 9793 C 897.379 -1.78711 0.586849 0
M  V30 9794 O 896.737 -1.75266 -0.463837 0
M  V30 9795 C 896.785 -1.93835 3.04073 0
M  V30 9796 O 895.889 -3.02791 2.79985 0
M  V30 9797 H 895.23 -0.289123 0.597749 0
M  V30 9798 H 897.76 -0.286543 2.02584 0
M  V30 9799 H 897.77 -2.3557 3.33123 0
M  V30 9800 H 896.445 -1.36936 3.9271 0
M  V30 9801 H 895.022 -2.65287 2.62063 0
M  V30 9802 N 897.207 -1.48554 -0.526253 0
M  V30 9803 C 898.447 -1.58362 -1.29232 0
M  V30 9804 C 898.811 -0.253353 -1.90321 0
M  V30 9805 O 900.012 -0.226439 -2.67845 0
M  V30 9806 C 898.283 -2.69294 -2.3498 0
M  V30 9807 S 899.842 -2.98891 -3.21262 0
M  V30 9808 H 896.66 -0.558859 -0.439543 0
M  V30 9809 H 899.262 -1.86094 -0.599099 0
M  V30 9810 H 897.966 -3.64504 -1.88587 0
M  V30 9811 H 897.497 -2.43475 -3.09004 0
M  V30 9812 H 899.512 -2.38475 -4.35137 0
M  V30 9813 N 898.685 0.775411 -1.37205 0
M  V30 9814 C 899.913 1.56446 -1.35397 0
M  V30 9815 C 900.328 1.887 0.0615437 0
M  V30 9816 O 899.685 1.51178 1.02233 0
M  V30 9817 C 899.736 2.87697 -2.18889 0
M  V30 9818 O 899.457 2.56828 -3.54924 0
M  V30 9819 C 900.958 3.81944 -2.25019 0
M  V30 9820 H 898.178 0.484792 -0.463916 0
M  V30 9821 H 900.722 0.961346 -1.80495 0
M  V30 9822 H 898.877 3.44442 -1.7731 0
M  V30 9823 H 899.291 3.40851 -3.98649 0
M  V30 9824 H 900.765 4.71055 -2.87769 0
M  V30 9825 H 901.242 4.20811 -1.25757 0
M  V30 9826 H 901.848 3.3113 -2.66895 0
M  V30 9827 N 900.163 1.21714 1.00117 0
M  V30 9828 C 901.391 1.06278 1.77518 0
M  V30 9829 C 901.806 -0.387193 1.84787 0
M  V30 9830 O 901.163 -1.26854 1.31203 0
M  V30 9831 C 901.214 1.65795 3.21239 0
M  V30 9832 O 900.935 3.05119 3.14378 0
M  V30 9833 C 902.436 1.55521 4.15124 0
M  V30 9834 H 899.656 0.373013 0.557765 0
M  V30 9835 H 902.2 1.61133 1.25922 0
M  V30 9836 H 900.355 1.15022 3.69931 0
M  V30 9837 H 900.769 3.33643 4.04701 0
M  V30 9838 H 902.243 2.01902 5.13751 0
M  V30 9839 H 902.72 0.510307 4.36225 0
M  V30 9840 H 903.326 2.0556 3.72324 0
M  V30 9841 N 901.641 -1.19671 1.02551 0
M  V30 9842 C 902.551 -2.26441 0.613329 0
M  V30 9843 C 903.567 -1.70375 -0.353339 0
M  V30 9844 O 904.743 -2.0028 -0.212064 0
M  V30 9845 C 901.808 -3.46684 -0.0329028 0
M  V30 9846 C 900.869 -4.17945 0.980837 0
M  V30 9847 C 900.102 -5.32448 0.36535 0
M  V30 9848 O 900.325 -5.64291 -0.832596 0
M  V30 9849 O 899.259 -5.92012 1.08652 0
M  V30 9850 H 903.085 -2.63932 1.50246 0
M  V30 9851 H 900.67 -1.2646 0.795502 0
M  V30 9852 H 902.552 -4.1956 -0.393395 0
M  V30 9853 H 901.227 -3.1105 -0.896089 0
M  V30 9854 H 900.134 -3.47204 1.39286 0
M  V30 9855 H 901.467 -4.57542 1.81428 0
M  V30 9856 N 903.119 -0.802921 -1.35613 0
M  V30 9857 C 904.344 -0.392846 -2.03645 0
M  V30 9858 C 904.769 0.987075 -1.6012 0
M  V30 9859 O 904.127 1.63849 -0.776101 0
M  V30 9860 C 904.175 -0.480208 -3.57388 0
M  V30 9861 O 903.279 0.507751 -4.09262 0
M  V30 9862 H 902.62 -0.16464 -0.643265 0
M  V30 9863 H 905.15 -1.08779 -1.73287 0
M  V30 9864 H 905.16 -0.348683 -4.06507 0
M  V30 9865 H 903.835 -1.48675 -3.88418 0
M  V30 9866 H 902.412 0.336769 -3.71376 0
M  V30 9867 N 904.597 1.47463 -0.556102 0
M  V30 9868 C 905.837 2.04372 -0.0339743 0
M  V30 9869 C 906.201 1.42125 1.29091 0
M  V30 9870 O 907.402 1.90074 1.90066 0
M  V30 9871 C 905.673 3.57352 0.0585316 0
M  V30 9872 S 907.232 4.35625 0.526943 0
M  V30 9873 H 904.05 0.710574 -0.0246115 0
M  V30 9874 H 906.652 1.80848 -0.742585 0
M  V30 9875 H 905.356 4.00181 -0.910116 0
M  V30 9876 H 904.887 3.85371 0.790731 0
M  V30 9877 H 906.902 4.62911 1.78683 0
M  V30 9878 N 906.075 0.2925 1.54862 0
M  V30 9879 C 907.352 -0.371946 1.92031 0
M  V30 9880 C 907.732 -1.72363 1.21878 0
M  V30 9881 O 907.08 -2.25779 0.351573 0
M  V30 9882 C 907.29 -0.495027 3.45471 0
M  V30 9883 C 908.638 -0.769855 4.17562 0
M  V30 9884 O 909.662 -0.579168 3.5146 0
M  V30 9885 O 908.521 -1.13561 5.34571 0
M  V30 9886 H 905.615 -0.206463 0.800813 0
M  V30 9887 H 908.161 0.339933 1.6626 0
M  V30 9888 H 906.933 0.455528 3.88639 0
M  V30 9889 H 906.556 -1.2557 3.7725 0
M  V30 9890 N 907.553 -1.57587 0.0200696 0
M  V30 9891 C 908.8 -1.91424 -0.660525 0
M  V30 9892 C 909.128 -0.895626 -1.72652 0
M  V30 9893 O 908.383 0.096771 -1.95461 0
M  V30 9894 C 908.682 -3.32002 -1.32323 0
M  V30 9895 C 908.348 -4.49223 -0.388487 0
M  V30 9896 C 907.01 -4.81021 -0.131184 0
M  V30 9897 C 909.362 -5.20581 0.253906 0
M  V30 9898 C 906.69 -5.81539 0.776471 0
M  V30 9899 C 909.042 -6.22067 1.14956 0
M  V30 9900 C 907.706 -6.52311 1.41584 0
M  V30 9901 H 906.976 -0.700472 -0.241703 0
M  V30 9902 H 909.623 -1.91333 0.0798991 0
M  V30 9903 H 907.928 -3.28312 -2.13819 0
M  V30 9904 H 909.625 -3.5545 -1.85623 0
M  V30 9905 H 906.215 -4.24391 -0.599207 0
M  V30 9906 H 910.399 -4.96253 0.068164 0
M  V30 9907 H 905.655 -6.03322 0.990575 0
M  V30 9908 H 909.829 -6.76484 1.65357 0
M  V30 9909 H 907.456 -7.30017 2.12083 0
M  V30 9910 N 909.032 0.252966 -1.55557 0
M  V30 9911 C 910.278 0.983306 -1.77367 0
M  V30 9912 C 910.611 1.85203 -0.584258 0
M  V30 9913 O 909.886 1.89963 0.417644 0
M  V30 9914 C 910.169 1.84896 -3.09007 0
M  V30 9915 C 910.022 1.00883 -4.38341 0
M  V30 9916 C 911.341 2.83254 -3.36831 0
M  V30 9917 H 908.46 0.356056 -0.645286 0
M  V30 9918 H 911.102 0.254232 -1.88291 0
M  V30 9919 H 909.252 2.47058 -2.99825 0
M  V30 9920 H 910.924 0.40638 -4.59507 0
M  V30 9921 H 909.167 0.31297 -4.3267 0
M  V30 9922 H 909.838 1.64818 -5.2682 0
M  V30 9923 H 912.314 2.31228 -3.45937 0
M  V30 9924 H 911.19 3.40949 -4.30169 0
M  V30 9925 H 911.451 3.59407 -2.57447 0
M  V30 9926 N 910.51 1.48831 0.518367 0
M  V30 9927 C 911.926 1.35209 0.847979 0
M  V30 9928 C 912.126 0.371927 1.98038 0
M  V30 9929 O 911.182 -0.202681 2.51685 0
M  V30 9930 C 912.495 2.7552 1.20455 0
M  V30 9931 C 914.043 2.84094 1.31377 0
M  V30 9932 C 914.518 4.25132 1.70372 0
M  V30 9933 N 916.009 4.27861 1.77453 0
M  V30 9934 C 916.744 5.3394 2.09035 0
M  V30 9935 N 916.24 6.50285 2.3896 0
M  V30 9936 N 918.033 5.21343 2.10139 0
M  V30 9937 H 910.184 2.11166 -0.228624 0
M  V30 9938 H 912.447 0.94717 -0.0396599 0
M  V30 9939 H 912.153 3.48861 0.445991 0
M  V30 9940 H 912.027 3.09785 2.15204 0
M  V30 9941 H 914.414 2.11001 2.06307 0
M  V30 9942 H 914.495 2.53433 0.347203 0
M  V30 9943 H 914.139 4.98745 0.959975 0
M  V30 9944 H 914.069 4.53245 2.68098 0
M  V30 9945 H 916.56 3.43945 1.56557 0
M  V30 9946 H 916.873 7.26961 2.62196 0
M  V30 9947 H 915.218 6.5354 2.36454 0
M  V30 9948 H 918.409 4.29462 1.86225 0
M  V30 9949 H 918.582 6.04112 2.34419 0
M  V30 9950 N 911.988 -0.768124 1.37614 0
M  V30 9951 C 912.951 -1.86314 1.3349 0
M  V30 9952 C 913.951 -1.59025 0.23823 0
M  V30 9953 O 915.141 -1.6704 0.494288 0
M  V30 9954 C 912.273 -3.23519 1.07462 0
M  V30 9955 H 913.466 -1.91382 2.30896 0
M  V30 9956 H 911.019 -0.968267 1.22696 0
M  V30 9957 H 911.754 -3.24127 0.106028 0
M  V30 9958 H 911.539 -3.44719 1.86846 0
M  V30 9959 H 913.029 -4.03597 1.07236 0
M  V30 9960 N 913.466 -1.22244 -0.994698 0
M  V30 9961 C 914.399 -0.934168 -2.08203 0
M  V30 9962 C 915.377 0.122231 -1.6214 0
M  V30 9963 O 916.561 -0.00896598 -1.88498 0
M  V30 9964 C 913.688 -0.404646 -3.36274 0
M  V30 9965 C 912.734 -1.44544 -4.01259 0
M  V30 9966 S 913.567 -3.01816 -4.42343 0
M  V30 9967 C 914.723 -2.50497 -5.73587 0
M  V30 9968 H 914.956 -1.85493 -2.32335 0
M  V30 9969 H 912.489 -1.0533 -1.12893 0
M  V30 9970 H 914.447 -0.105719 -4.10364 0
M  V30 9971 H 913.108 0.494971 -3.10176 0
M  V30 9972 H 912.301 -1.02478 -4.93472 0
M  V30 9973 H 911.903 -1.69298 -3.33488 0
M  V30 9974 H 914.195 -1.91626 -6.49835 0
M  V30 9975 H 915.138 -3.41193 -6.20478 0
M  V30 9976 H 915.546 -1.91845 -5.30901 0
M  V30 9977 N 914.944 1.19125 -1.03184 0
M  V30 9978 C 916.19 1.89163 -0.731111 0
M  V30 9979 C 916.523 1.79604 0.738662 0
M  V30 9980 O 915.798 1.19037 1.53819 0
M  V30 9981 C 916.081 3.39986 -1.18666 0
M  V30 9982 C 915.934 3.58401 -2.71788 0
M  V30 9983 C 917.253 4.33316 -0.769772 0
M  V30 9984 H 914.372 0.686908 -0.267069 0
M  V30 9985 H 917.014 1.40205 -1.28229 0
M  V30 9986 H 915.164 3.81813 -0.717736 0
M  V30 9987 H 916.836 3.25727 -3.26649 0
M  V30 9988 H 915.079 3.01355 -3.12038 0
M  V30 9989 H 915.75 4.64189 -2.98719 0
M  V30 9990 H 918.226 3.9922 -1.17314 0
M  V30 9991 H 917.102 5.37427 -1.11637 0
M  V30 9992 H 917.363 4.40884 0.327681 0
M  V30 9993 N 916.422 0.810101 1.35185 0
M  V30 9994 C 917.699 0.315235 1.93043 0
M  V30 9995 C 918.079 -1.19567 1.73974 0
M  V30 9996 O 917.427 -1.99682 1.11083 0
M  V30 9997 C 917.637 0.730492 3.41269 0
M  V30 9998 C 918.985 0.721985 4.18417 0
M  V30 9999 O 920.009 0.672258 3.49799 0
M  V30 10000 O 918.868 0.783535 5.40854 0
M  V30 10001 H 915.962 0.0832774 0.822796 0
M  V30 10002 H 918.508 0.894034 1.4424 0
M  V30 10003 H 917.28 1.77169 3.48894 0
M  V30 10004 H 916.903 0.12669 3.97398 0
M  V30 10005 N 917.9 -1.47166 0.563914 0
M  V30 10006 C 919.311 -1.86231 0.132307 0
M  V30 10007 C 919.662 -1.46976 -1.29971 0
M  V30 10008 O 918.787 -0.875911 -1.97881 0
M  V30 10009 C 919.382 -3.37996 0.233335 0
M  V30 10010 C 917.941 -3.76127 -0.143278 0
M  V30 10011 C 917.088 -2.71212 0.577857 0
M  V30 10012 H 920.039 -1.38588 0.773249 0
M  V30 10013 H 920.06 -3.76558 -0.546309 0
M  V30 10014 H 919.572 -3.66535 1.27568 0
M  V30 10015 H 917.673 -3.53205 -1.18648 0
M  V30 10016 H 917.786 -4.78595 0.219952 0
M  V30 10017 H 916.15 -2.54692 0.020186 0
M  V30 10018 H 916.933 -3.02593 1.62149 0
M  V30 10019 N 919.378 -0.300708 -1.54705 0
M  V30 10020 C 920.341 0.562648 -2.22187 0
M  V30 10021 C 921.341 1.06152 -1.20782 0
M  V30 10022 O 922.531 0.957596 -1.45519 0
M  V30 10023 C 919.663 1.77899 -2.908 0
M  V30 10024 H 920.856 -0.0269361 -2.99888 0
M  V30 10025 H 918.409 -0.0515412 -1.56215 0
M  V30 10026 H 919.144 2.40841 -2.17177 0
M  V30 10027 H 918.929 1.42892 -3.65136 0
M  V30 10028 H 920.419 2.39236 -3.42281 0
M  V30 10029 N 920.856 1.57574 -0.0284266 0
M  V30 10030 C 921.788 2.07079 0.982391 0
M  V30 10031 C 922.801 0.994078 1.28926 0
M  V30 10032 O 923.99 1.27028 1.25404 0
M  V30 10033 C 921.09 2.47978 2.30998 0
M  V30 10034 C 920.263 3.7872 2.18838 0
M  V30 10035 C 919.322 4.06177 3.34524 0
M  V30 10036 O 918.348 4.76438 3.11441 0
M  V30 10037 N 919.55 3.56297 4.58293 0
M  V30 10038 H 922.315 2.94421 0.560011 0
M  V30 10039 H 919.876 1.61124 0.158347 0
M  V30 10040 H 921.868 2.63439 3.07216 0
M  V30 10041 H 920.438 1.66005 2.64879 0
M  V30 10042 H 919.658 3.73062 1.27351 0
M  V30 10043 H 920.946 4.6438 2.07915 0
M  V30 10044 H 920.344 2.99453 4.79942 0
M  V30 10045 H 918.901 3.77038 5.31682 0
M  V30 10046 N 922.334 -0.244713 1.55689 0
M  V30 10047 C 923.562 -0.989944 1.8168 0
M  V30 10048 C 923.977 -1.78863 0.604449 0
M  V30 10049 O 923.334 -1.77437 -0.426907 0
M  V30 10050 C 923.385 -1.92607 3.05916 0
M  V30 10051 O 923.106 -1.1597 4.22472 0
M  V30 10052 C 924.607 -2.78711 3.44724 0
M  V30 10053 H 921.827 -0.2912 0.604519 0
M  V30 10054 H 924.371 -0.266938 2.0275 0
M  V30 10055 H 922.526 -2.60333 2.8689 0
M  V30 10056 H 922.94 -1.79311 4.92898 0
M  V30 10057 H 924.414 -3.40141 4.34751 0
M  V30 10058 H 924.891 -3.49935 2.6541 0
M  V30 10059 H 925.497 -2.16435 3.66109 0
M  V30 10060 N 923.813 -1.49104 -0.510467 0
M  V30 10061 C 925.059 -1.58346 -1.26705 0
M  V30 10062 C 925.392 -0.265121 -1.92382 0
M  V30 10063 O 924.667 0.730558 -1.80258 0
M  V30 10064 C 924.95 -2.7359 -2.34137 0
M  V30 10065 C 924.803 -4.1519 -1.73024 0
M  V30 10066 C 926.122 -2.84511 -3.3577 0
M  V30 10067 H 923.241 -0.57637 -0.459311 0
M  V30 10068 H 925.883 -1.81353 -0.566658 0
M  V30 10069 H 924.033 -2.54105 -2.93876 0
M  V30 10070 H 925.705 -4.46167 -1.17186 0
M  V30 10071 H 923.948 -4.21279 -1.03473 0
M  V30 10072 H 924.619 -4.91683 -2.50903 0
M  V30 10073 H 927.095 -3.0222 -2.86011 0
M  V30 10074 H 925.971 -3.6684 -4.08313 0
M  V30 10075 H 926.232 -1.93471 -3.97519 0
M  V30 10076 N 925.291 0.760815 -1.38019 0
M  V30 10077 C 926.201 1.90526 -1.36884 0
M  V30 10078 C 927.217 1.71941 -0.266908 0
M  V30 10079 O 928.393 1.94988 -0.50413 0
M  V30 10080 C 925.458 3.25799 -1.18558 0
M  V30 10081 C 924.519 3.56961 -2.3849 0
M  V30 10082 C 923.752 4.8578 -2.21029 0
M  V30 10083 O 923.975 5.57629 -1.20023 0
M  V30 10084 O 922.909 5.16254 -3.0946 0
M  V30 10085 H 926.735 1.94437 -2.33298 0
M  V30 10086 H 924.32 0.905091 -1.18863 0
M  V30 10087 H 926.202 4.0669 -1.1037 0
M  V30 10088 H 924.877 3.22716 -0.252241 0
M  V30 10089 H 923.784 2.7626 -2.52252 0
M  V30 10090 H 925.117 3.64798 -3.30429 0
M  V30 10091 N 926.769 1.22769 0.988202 0
M  V30 10092 C 927.701 0.959757 2.08138 0
M  V30 10093 C 928.714 -0.0633787 1.62677 0
M  V30 10094 O 929.903 0.171203 1.77677 0
M  V30 10095 C 927.003 0.422724 3.36253 0
M  V30 10096 C 926.176 1.50419 4.10722 0
M  V30 10097 C 925.235 0.973407 5.17118 0
M  V30 10098 O 924.261 1.66066 5.44436 0
M  V30 10099 N 925.463 -0.202787 5.80146 0
M  V30 10100 H 928.228 1.9009 2.31702 0
M  V30 10101 H 925.789 1.13522 1.15431 0
M  V30 10102 H 927.781 0.0528514 4.04665 0
M  V30 10103 H 926.351 -0.423642 3.09716 0
M  V30 10104 H 925.571 2.04718 3.36874 0
M  V30 10105 H 926.859 2.23169 4.57245 0
M  V30 10106 H 926.257 -0.777856 5.60327 0
M  V30 10107 H 924.814 -0.513998 6.4977 0
M  V30 10108 N 928.247 -1.18576 1.03814 0
M  V30 10109 C 929.663 -1.4051 0.756909 0
M  V30 10110 C 929.863 -1.9057 -0.654631 0
M  V30 10111 O 928.919 -2.0884 -1.41922 0
M  V30 10112 C 930.232 -2.4081 1.80087 0
M  V30 10113 C 931.78 -2.54541 1.82148 0
M  V30 10114 C 932.255 -3.58102 2.85529 0
M  V30 10115 N 933.746 -3.65607 2.84404 0
M  V30 10116 C 934.481 -4.45458 3.61047 0
M  V30 10117 N 933.977 -5.28937 4.47434 0
M  V30 10118 N 935.77 -4.40196 3.49548 0
M  V30 10119 H 927.921 -0.844075 1.94908 0
M  V30 10120 H 930.184 -0.433287 0.843188 0
M  V30 10121 H 929.89 -2.1107 2.81322 0
M  V30 10122 H 929.764 -3.4012 1.63089 0
M  V30 10123 H 932.151 -2.83598 0.815855 0
M  V30 10124 H 932.232 -1.55352 2.03223 0
M  V30 10125 H 931.876 -3.29786 3.86269 0
M  V30 10126 H 931.806 -4.56963 2.6171 0
M  V30 10127 H 934.297 -3.05994 2.21756 0
M  V30 10128 H 934.61 -5.8701 5.02632 0
M  V30 10129 H 932.955 -5.28366 4.51503 0
M  V30 10130 H 936.146 -3.74026 2.81464 0
M  V30 10131 H 936.319 -5.02186 4.09528 0
M  V30 10132 N 929.725 -0.817259 -1.34754 0
M  V30 10133 C 930.655 -0.249769 -2.3216 0
M  V30 10134 C 931.636 0.630663 -1.57977 0
M  V30 10135 O 932.821 0.558719 -1.85989 0
M  V30 10136 C 929.951 0.593825 -3.42186 0
M  V30 10137 C 928.905 -0.188997 -4.27583 0
M  V30 10138 C 928.231 0.776979 -5.29025 0
M  V30 10139 C 929.531 -1.39401 -5.03354 0
M  V30 10140 H 931.225 -1.06359 -2.79872 0
M  V30 10141 H 928.771 -0.512894 -1.34556 0
M  V30 10142 H 930.724 1.00097 -4.09339 0
M  V30 10143 H 929.448 1.44064 -2.93109 0
M  V30 10144 H 928.107 -0.577445 -3.62024 0
M  V30 10145 H 927.755 1.61959 -4.76212 0
M  V30 10146 H 927.455 0.257448 -5.87036 0
M  V30 10147 H 928.979 1.18211 -5.99048 0
M  V30 10148 H 930.393 -1.06117 -5.63393 0
M  V30 10149 H 928.79 -1.84878 -5.70912 0
M  V30 10150 H 929.86 -2.17515 -4.33377 0
M  V30 10151 N 931.203 1.46865 -0.571711 0
M  V30 10152 C 932.15 2.30189 0.167808 0
M  V30 10153 C 933.12 1.3995 0.89461 0
M  V30 10154 O 934.305 1.68905 0.887451 0
M  V30 10155 C 931.445 3.24205 1.1826 0
M  V30 10156 C 930.558 4.2954 0.460376 0
M  V30 10157 C 929.693 5.10693 1.46173 0
M  V30 10158 C 928.732 6.07788 0.725291 0
M  V30 10159 N 927.869 6.81847 1.67417 0
M  V30 10160 H 932.709 2.92902 -0.548831 0
M  V30 10161 H 930.246 1.44362 -0.282474 0
M  V30 10162 H 932.204 3.77147 1.7837 0
M  V30 10163 H 930.834 2.63324 1.86709 0
M  V30 10164 H 929.886 3.79541 -0.255546 0
M  V30 10165 H 931.198 4.98665 -0.115855 0
M  V30 10166 H 930.352 5.67857 2.13595 0
M  V30 10167 H 929.091 4.41502 2.07188 0
M  V30 10168 H 928.096 5.49787 0.037228 0
M  V30 10169 H 929.321 6.78993 0.120678 0
M  V30 10170 H 927.267 6.15376 2.27263 0
M  V30 10171 H 927.184 7.47195 1.15046 0
M  V30 10172 H 928.452 7.43577 2.33908 0
M  V30 10173 N 932.681 0.308908 1.54543 0
M  V30 10174 C 933.611 -0.556657 2.26768 0
M  V30 10175 C 934.592 -1.13145 1.27013 0
M  V30 10176 O 935.777 -1.15931 1.558 0
M  V30 10177 C 932.907 -1.72481 3.01443 0
M  V30 10178 C 931.861 -1.28001 4.08411 0
M  V30 10179 C 931.187 -2.53395 4.70845 0
M  V30 10180 C 932.487 -0.405497 5.20724 0
M  V30 10181 H 934.181 0.0457618 2.99365 0
M  V30 10182 H 931.727 0.0234495 1.43981 0
M  V30 10183 H 933.68 -2.3365 3.50693 0
M  V30 10184 H 932.404 -2.35359 2.26437 0
M  V30 10185 H 931.063 -0.69133 3.60022 0
M  V30 10186 H 930.711 -3.14604 3.92471 0
M  V30 10187 H 930.411 -2.2433 5.43093 0
M  V30 10188 H 931.935 -3.15352 5.22863 0
M  V30 10189 H 933.349 -0.923076 5.6582 0
M  V30 10190 H 931.746 -0.208282 5.99738 0
M  V30 10191 H 932.816 0.567412 4.81569 0
M  V30 10192 N 934.159 -1.57557 0.0367827 0
M  V30 10193 C 935.406 -1.92114 -0.640185 0
M  V30 10194 C 935.734 -0.913887 -1.71693 0
M  V30 10195 O 934.989 0.0760343 -1.95552 0
M  V30 10196 C 935.288 -3.33387 -1.28794 0
M  V30 10197 C 934.954 -4.4961 -0.340819 0
M  V30 10198 C 933.616 -4.81133 -0.0801574 0
M  V30 10199 C 935.968 -5.20283 0.309106 0
M  V30 10200 C 933.296 -5.80683 0.838107 0
M  V30 10201 C 935.648 -6.20813 1.21547 0
M  V30 10202 C 934.312 -6.50773 1.48495 0
M  V30 10203 H 933.582 -0.702996 -0.23426 0
M  V30 10204 H 936.229 -1.91238 0.100188 0
M  V30 10205 H 934.534 -3.30561 -2.10324 0
M  V30 10206 H 936.231 -3.57399 -1.81843 0
M  V30 10207 H 932.821 -4.25002 -0.554161 0
M  V30 10208 H 937.005 -4.96153 0.120794 0
M  V30 10209 H 932.261 -6.02238 1.05451 0
M  V30 10210 H 936.435 -6.74692 1.72522 0
M  V30 10211 H 934.062 -7.27727 2.19814 0
M  V30 10212 N 935.637 0.236453 -1.55816 0
M  V30 10213 C 936.584 1.29289 -1.91188 0
M  V30 10214 C 937.554 1.47315 -0.767301 0
M  V30 10215 O 938.739 1.61128 -1.02189 0
M  V30 10216 C 935.879 2.64126 -2.22107 0
M  V30 10217 C 934.992 2.54022 -3.49423 0
M  V30 10218 C 934.127 3.81282 -3.69861 0
M  V30 10219 C 933.166 3.65839 -4.90743 0
M  V30 10220 N 932.303 4.85014 -5.07647 0
M  V30 10221 H 937.143 0.98424 -2.81277 0
M  V30 10222 H 934.68 0.474722 -1.39229 0
M  V30 10223 H 936.638 3.42626 -2.3804 0
M  V30 10224 H 935.268 2.93118 -1.35209 0
M  V30 10225 H 934.32 1.67036 -3.41765 0
M  V30 10226 H 935.632 2.38525 -4.38072 0
M  V30 10227 H 934.786 4.68226 -3.8581 0
M  V30 10228 H 933.525 3.99688 -2.79465 0
M  V30 10229 H 932.53 2.77279 -4.74759 0
M  V30 10230 H 933.755 3.48918 -5.82609 0
M  V30 10231 H 931.701 5.03762 -4.20191 0
M  V30 10232 H 931.618 4.72188 -5.90402 0
M  V30 10233 H 932.886 5.73427 -5.28017 0
M  V30 10234 N 937.115 1.49373 0.502552 0
M  V30 10235 C 938.045 1.68839 1.61294 0
M  V30 10236 C 939.026 0.537096 1.61398 0
M  V30 10237 O 940.211 0.772764 1.78163 0
M  V30 10238 C 937.341 1.75347 2.99784 0
M  V30 10239 C 936.295 2.90251 3.14545 0
M  V30 10240 C 935.621 2.8187 4.54371 0
M  V30 10241 C 936.921 4.31207 2.94717 0
M  V30 10242 H 938.615 2.61803 1.45257 0
M  V30 10243 H 936.161 1.25987 0.697371 0
M  V30 10244 H 938.114 1.87552 3.77362 0
M  V30 10245 H 936.838 0.789814 3.16906 0
M  V30 10246 H 935.497 2.77646 2.39392 0
M  V30 10247 H 935.145 1.83416 4.68367 0
M  V30 10248 H 934.845 3.5899 4.65188 0
M  V30 10249 H 936.369 2.96081 5.34012 0
M  V30 10250 H 937.783 4.44501 3.62065 0
M  V30 10251 H 936.18 5.09536 3.17007 0
M  V30 10252 H 937.25 4.45759 1.90857 0
M  V30 10253 N 938.594 -0.753485 1.38421 0
M  V30 10254 C 939.557 -1.84888 1.35459 0
M  V30 10255 C 940.557 -1.58764 0.255083 0
M  V30 10256 O 941.747 -1.66507 0.511978 0
M  V30 10257 C 938.879 -3.22361 1.10888 0
M  V30 10258 H 940.072 -1.88922 2.32913 0
M  V30 10259 H 937.625 -0.955199 1.23716 0
M  V30 10260 H 938.36 -3.23996 0.1404 0
M  V30 10261 H 938.145 -3.42717 1.90492 0
M  V30 10262 H 939.635 -4.02437 1.1151 0
M  V30 10263 N 940.072 -1.23292 -0.981677 0
M  V30 10264 C 941.297 -1.09176 -1.76339 0
M  V30 10265 C 941.722 0.352726 -1.84763 0
M  V30 10266 O 941.08 1.25509 -1.30832 0
M  V30 10267 C 941.128 -1.72046 -3.16911 0
M  V30 10268 O 940.232 -0.98174 -4.00544 0
M  V30 10269 H 939.573 -0.382755 -0.542581 0
M  V30 10270 H 942.103 -1.63319 -1.23239 0
M  V30 10271 H 942.113 -1.77232 -3.67495 0
M  V30 10272 H 940.788 -2.77154 -3.10095 0
M  V30 10273 H 939.365 -1.00672 -3.59054 0
M  V30 10274 N 941.55 1.18024 -1.04442 0
M  V30 10275 C 942.46 2.25436 -0.649276 0
M  V30 10276 C 943.476 1.70915 0.326189 0
M  V30 10277 O 944.652 2.00592 0.180174 0
M  V30 10278 C 941.717 3.46693 -0.0222558 0
M  V30 10279 C 940.778 4.16332 -1.0472 0
M  V30 10280 C 940.011 5.31799 -0.450011 0
M  V30 10281 O 940.234 5.65544 0.742717 0
M  V30 10282 O 939.168 5.90209 -1.18056 0
M  V30 10283 H 942.994 2.61508 -1.54426 0
M  V30 10284 H 940.579 1.25178 -0.81552 0
M  V30 10285 H 942.461 4.20132 0.326597 0
M  V30 10286 H 941.136 3.12436 0.84649 0
M  V30 10287 H 940.043 3.44944 -1.44792 0
M  V30 10288 H 941.376 4.54598 -1.88684 0
M  V30 10289 N 943.028 0.824394 1.34319 0
M  V30 10290 C 943.975 0.245282 2.29493 0
M  V30 10291 C 944.945 -0.630762 1.53657 0
M  V30 10292 O 946.13 -0.572094 1.82021 0
M  V30 10293 C 943.27 -0.585631 3.40095 0
M  V30 10294 C 942.383 0.312821 4.30866 0
M  V30 10295 C 941.518 -0.527801 5.28571 0
M  V30 10296 C 940.557 0.369946 6.10981 0
M  V30 10297 N 939.694 -0.43169 7.00772 0
M  V30 10298 H 944.534 1.06225 2.78425 0
M  V30 10299 H 942.071 0.53533 1.37013 0
M  V30 10300 H 944.029 -1.08271 4.02906 0
M  V30 10301 H 942.659 -1.3677 2.92393 0
M  V30 10302 H 941.711 0.928129 3.68904 0
M  V30 10303 H 943.023 1.00306 4.8861 0
M  V30 10304 H 942.177 -1.0893 5.96841 0
M  V30 10305 H 940.916 -1.25154 4.71368 0
M  V30 10306 H 939.921 0.943577 5.41643 0
M  V30 10307 H 941.146 1.09182 6.70266 0
M  V30 10308 H 939.092 -1.13908 6.46035 0
M  V30 10309 H 939.009 0.200133 7.55735 0
M  V30 10310 H 940.277 -0.975894 7.73367 0
M  V30 10311 N 944.506 -1.46559 0.579492 0
M  V30 10312 C 945.456 -2.27316 -0.17645 0
M  V30 10313 C 946.44 -1.35681 -0.864835 0
M  V30 10314 O 947.632 -1.59879 -0.759462 0
M  V30 10315 C 944.761 -3.21957 -1.19157 0
M  V30 10316 C 943.847 -4.21077 -0.505459 0
M  V30 10317 N 944.238 -5.03908 0.437133 0
M  V30 10318 C 942.536 -4.39535 -0.75661 0
M  V30 10319 C 943.237 -5.75635 0.837819 0
M  V30 10320 N 942.213 -5.43276 0.187679 0
M  V30 10321 H 946.015 -2.88747 0.547932 0
M  V30 10322 H 943.529 -1.5737 0.401048 0
M  V30 10323 H 945.526 -3.78518 -1.74728 0
M  V30 10324 H 944.186 -2.62085 -1.9168 0
M  V30 10325 H 945.197 -5.11487 0.812488 0
M  V30 10326 H 941.874 -3.90815 -1.46867 0
M  V30 10327 H 943.264 -6.52235 1.61364 0
M  V30 10328 N 945.984 -0.3171 -1.54377 0
M  V30 10329 C 946.916 0.58571 -2.2159 0
M  V30 10330 C 947.929 1.08495 -1.21378 0
M  V30 10331 O 949.118 0.999638 -1.47883 0
M  V30 10332 C 946.218 1.8157 -2.86156 0
M  V30 10333 C 945.391 1.45625 -4.12447 0
M  V30 10334 C 944.45 2.54308 -4.60667 0
M  V30 10335 O 943.476 2.18724 -5.25498 0
M  V30 10336 N 944.678 3.85129 -4.34345 0
M  V30 10337 H 947.443 0.0102247 -2.99698 0
M  V30 10338 H 945.004 -0.140011 -1.61293 0
M  V30 10339 H 946.996 2.53657 -3.15341 0
M  V30 10340 H 945.566 2.29919 -2.11793 0
M  V30 10341 H 944.786 0.567294 -3.90097 0
M  V30 10342 H 946.074 1.19169 -4.94648 0
M  V30 10343 H 945.472 4.16841 -3.8244 0
M  V30 10344 H 944.029 4.53466 -4.68201 0
M  V30 10345 N 947.462 1.57535 -0.0451378 0
M  V30 10346 C 948.412 2.07683 0.940829 0
M  V30 10347 C 949.396 0.9807 1.27558 0
M  V30 10348 O 950.588 1.2441 1.25901 0
M  V30 10349 C 947.717 2.62049 2.21778 0
M  V30 10350 C 946.803 3.78621 1.91068 0
M  V30 10351 N 947.194 4.88623 1.30694 0
M  V30 10352 C 945.492 3.87411 2.20972 0
M  V30 10353 C 946.193 5.69714 1.17478 0
M  V30 10354 N 945.169 5.17129 1.67566 0
M  V30 10355 H 948.971 2.90129 0.469267 0
M  V30 10356 H 946.485 1.61615 0.159472 0
M  V30 10357 H 948.482 2.96276 2.93302 0
M  V30 10358 H 947.142 1.81039 2.69546 0
M  V30 10359 H 948.153 5.08545 0.979907 0
M  V30 10360 H 944.83 3.17335 2.71302 0
M  V30 10361 H 946.22 6.68174 0.706574 0
M  V30 10362 N 948.94 -0.228186 1.55939 0
M  V30 10363 C 949.873 -1.30971 1.86874 0
M  V30 10364 C 950.851 -1.45517 0.725496 0
M  V30 10365 O 952.035 -1.61436 0.973181 0
M  V30 10366 C 949.162 -2.68089 2.06992 0
M  V30 10367 C 948.208 -2.70594 3.29669 0
M  V30 10368 S 949.041 -2.25325 4.85787 0
M  V30 10369 C 950.197 -3.64331 5.08934 0
M  V30 10370 H 950.43 -1.04536 2.78315 0
M  V30 10371 H 947.963 -0.430103 1.48288 0
M  V30 10372 H 949.921 -3.47033 2.19267 0
M  V30 10373 H 948.582 -2.91752 1.16359 0
M  V30 10374 H 947.775 -3.71338 3.4077 0
M  V30 10375 H 947.377 -1.99708 3.16216 0
M  V30 10376 H 949.669 -4.59972 4.97425 0
M  V30 10377 H 950.612 -3.58151 6.10847 0
M  V30 10378 H 951.02 -3.57711 4.36695 0
M  V30 10379 N 950.418 -1.49637 -0.494624 0
M  V30 10380 C 951.648 -1.62928 -1.27036 0
M  V30 10381 C 952.056 -0.302464 -1.86767 0
M  V30 10382 O 951.399 0.722878 -1.68879 0
M  V30 10383 C 951.461 -2.64449 -2.43531 0
M  V30 10384 C 951.125 -4.08632 -2.0462 0
M  V30 10385 C 952.122 -4.95238 -1.58225 0
M  V30 10386 C 949.807 -4.54405 -2.1406 0
M  V30 10387 C 951.801 -6.25658 -1.21782 0
M  V30 10388 C 949.488 -5.84836 -1.77228 0
M  V30 10389 C 950.486 -6.70287 -1.31165 0
M  V30 10390 O 950.174 -7.98287 -0.948339 0
M  V30 10391 H 949.906 -0.551263 -0.391261 0
M  V30 10392 H 952.46 -1.96453 -0.599621 0
M  V30 10393 H 950.69 -2.26117 -3.137 0
M  V30 10394 H 952.379 -2.67203 -3.05545 0
M  V30 10395 H 953.145 -4.611 -1.50373 0
M  V30 10396 H 949.024 -3.88056 -2.48865 0
M  V30 10397 H 952.568 -6.92309 -0.857566 0
M  V30 10398 H 948.465 -6.18502 -1.84732 0
M  V30 10399 H 949.233 -8.11353 -1.07925 0
M  V30 10400 N 951.896 0.746133 -1.38819 0
M  V30 10401 C 953.312 1.0502 -1.20179 0
M  V30 10402 C 953.512 2.01423 -0.0556271 0
M  V30 10403 O 952.568 2.45359 0.59625 0
M  V30 10404 C 953.881 1.62315 -2.53129 0
M  V30 10405 C 955.429 1.74449 -2.59878 0
M  V30 10406 C 955.904 2.35155 -3.93022 0
M  V30 10407 N 957.395 2.42577 -3.94602 0
M  V30 10408 C 958.13 2.9046 -4.94389 0
M  V30 10409 N 957.626 3.38322 -6.04574 0
M  V30 10410 N 959.419 2.89568 -4.81775 0
M  V30 10411 H 951.57 0.106551 -2.12133 0
M  V30 10412 H 953.833 0.109897 -0.941609 0
M  V30 10413 H 953.539 0.98946 -3.37495 0
M  V30 10414 H 953.413 2.61276 -2.72057 0
M  V30 10415 H 955.8 2.36943 -1.75903 0
M  V30 10416 H 955.881 0.741721 -2.4481 0
M  V30 10417 H 955.525 1.73292 -4.77422 0
M  V30 10418 H 955.455 3.36088 -4.05404 0
M  V30 10419 H 957.946 2.08735 -3.15021 0
M  V30 10420 H 958.259 3.73336 -6.76639 0
M  V30 10421 H 956.604 3.3636 -6.08184 0
M  V30 10422 H 959.795 2.51492 -3.94803 0
M  V30 10423 H 959.968 3.26571 -5.59692 0
M  V30 10424 N 953.375 1.23811 0.975125 0
M  V30 10425 C 954.305 1.04846 2.08638 0
M  V30 10426 C 955.286 -0.0362859 1.70061 0
M  V30 10427 O 956.471 0.12937 1.93769 0
M  V30 10428 C 953.601 0.644534 3.41267 0
M  V30 10429 C 952.555 1.67722 3.93768 0
M  V30 10430 C 951.881 1.12857 5.22654 0
M  V30 10431 C 953.181 3.07147 4.22443 0
M  V30 10432 H 954.875 1.97795 2.24761 0
M  V30 10433 H 952.421 0.952397 1.08006 0
M  V30 10434 H 954.374 0.498887 4.18436 0
M  V30 10435 H 953.098 -0.320641 3.25022 0
M  V30 10436 H 951.757 1.81095 3.18748 0
M  V30 10437 H 951.405 0.154227 5.02764 0
M  V30 10438 H 951.105 1.81862 5.58749 0
M  V30 10439 H 952.629 0.994891 6.0244 0
M  V30 10440 H 954.043 2.97045 4.90344 0
M  V30 10441 H 952.44 3.73437 4.6975 0
M  V30 10442 H 953.51 3.55743 3.29507 0
M  V30 10443 N 954.853 -1.17469 1.05066 0
M  V30 10444 C 955.816 -2.19648 0.654793 0
M  V30 10445 C 956.816 -1.58107 -0.293063 0
M  V30 10446 O 958.006 -1.74029 -0.077106 0
M  V30 10447 C 955.138 -3.40878 -0.0384437 0
M  V30 10448 H 956.331 -2.56184 1.55915 0
M  V30 10449 H 953.884 -1.31528 0.844396 0
M  V30 10450 H 954.619 -3.09885 -0.956133 0
M  V30 10451 H 954.404 -3.86792 0.642961 0
M  V30 10452 H 955.894 -4.1651 -0.301568 0
M  V30 10453 N 956.331 -0.831506 -1.3388 0
M  V30 10454 C 957.264 -0.2046 -2.27281 0
M  V30 10455 C 958.242 0.643992 -1.49303 0
M  V30 10456 O 959.426 0.605863 -1.78498 0
M  V30 10457 C 956.553 0.713409 -3.31101 0
M  V30 10458 C 955.599 -0.0587654 -4.2646 0
M  V30 10459 S 956.432 -1.41172 -5.16557 0
M  V30 10460 C 957.588 -0.498807 -6.23909 0
M  V30 10461 H 957.821 -0.996442 -2.80104 0
M  V30 10462 H 955.354 -0.62786 -1.41058 0
M  V30 10463 H 957.312 1.23748 -3.91403 0
M  V30 10464 H 955.973 1.47885 -2.77108 0
M  V30 10465 H 955.166 0.639466 -4.99927 0
M  V30 10466 H 954.768 -0.513665 -3.70456 0
M  V30 10467 H 957.06 0.306268 -6.76807 0
M  V30 10468 H 958.003 -1.20342 -6.97799 0
M  V30 10469 H 958.411 -0.0834242 -5.64438 0
M  V30 10470 N 957.809 1.4625 -0.587256 0
M  V30 10471 C 959.037 2.06744 -0.08033 0
M  V30 10472 C 959.452 1.43527 1.2266 0
M  V30 10473 O 958.809 0.542168 1.74261 0
M  V30 10474 C 958.86 3.61394 0.0873469 0
M  V30 10475 O 958.581 4.22247 -1.16785 0
M  V30 10476 C 960.082 4.38828 0.628095 0
M  V30 10477 H 957.302 0.668354 -0.0595301 0
M  V30 10478 H 959.846 1.87808 -0.809217 0
M  V30 10479 H 958.001 3.79742 0.766473 0
M  V30 10480 H 958.415 5.15176 -0.984565 0
M  V30 10481 H 959.889 5.47613 0.694583 0
M  V30 10482 H 960.366 4.07188 1.64606 0
M  V30 10483 H 960.972 4.25297 -0.0163115 0
M  V30 10484 N 959.287 0.325282 1.54207 0
M  V30 10485 C 960.535 -0.276229 2.00203 0
M  V30 10486 C 960.856 -1.52519 1.21503 0
M  V30 10487 O 960.126 -1.93313 0.317302 0
M  V30 10488 H 958.706 -0.105059 0.739575 0
M  V30 10489 H 961.368 0.442225 1.89817 0
M  V30 10490 H 960.464 -0.531427 3.07542 0
M  V30 10491 N 960.765 -1.57509 0.0534917 0
M  V30 10492 C 961.99 -1.97511 -0.632794 0
M  V30 10493 C 962.415 -0.930947 -1.63447 0
M  V30 10494 O 961.773 0.105558 -1.80992 0
M  V30 10495 C 961.821 -3.3658 -1.29407 0
M  V30 10496 O 960.925 -3.3467 -2.40977 0
M  V30 10497 H 960.266 -0.643349 -0.16431 0
M  V30 10498 H 962.796 -2.04232 0.12258 0
M  V30 10499 H 962.806 -3.73359 -1.64521 0
M  V30 10500 H 961.481 -4.12113 -0.559976 0
M  V30 10501 H 960.058 -3.09639 -2.07793 0
M  V30 10502 N 962.243 0.219913 -1.56058 0
M  V30 10503 C 963.491 0.942199 -1.78793 0
M  V30 10504 C 963.812 1.84804 -0.622284 0
M  V30 10505 O 963.082 1.9255 0.360735 0
M  V30 10506 H 961.662 0.350895 -0.659455 0
M  V30 10507 H 964.324 0.231376 -1.93522 0
M  V30 10508 H 963.42 1.54804 -2.71002 0
M  V30 10509 N 963.721 1.49897 0.486681 0
M  V30 10510 C 964.97 1.59349 1.23656 0
M  V30 10511 C 965.283 0.292024 1.93408 0
M  V30 10512 O 966.489 0.265258 2.70201 0
M  V30 10513 C 964.945 2.81215 2.24602 0
M  V30 10514 C 964.553 4.18177 1.60725 0
M  V30 10515 C 966.297 3.00004 3.00329 0
M  V30 10516 C 964.204 5.31247 2.59866 0
M  V30 10517 H 963.134 0.593363 0.465227 0
M  V30 10518 H 965.785 1.76306 0.508769 0
M  V30 10519 H 964.167 2.57783 3.00606 0
M  V30 10520 H 965.341 4.51802 0.90616 0
M  V30 10521 H 963.656 4.04864 0.973362 0
M  V30 10522 H 966.253 3.81649 3.74497 0
M  V30 10523 H 966.596 2.1112 3.58795 0
M  V30 10524 H 967.129 3.23544 2.3144 0
M  V30 10525 H 963.868 6.22236 2.06161 0
M  V30 10526 H 963.388 5.02059 3.28172 0
M  V30 10527 H 965.067 5.61177 3.22009 0
M  V30 10528 N 965.199 -0.738761 1.39212 0
M  V30 10529 C 966.476 -1.48982 1.26742 0
M  V30 10530 C 966.856 -2.10732 -0.12466 0
M  V30 10531 O 966.204 -1.98287 -1.13554 0
M  V30 10532 C 966.414 -2.54427 2.38889 0
M  V30 10533 C 967.762 -3.20915 2.78027 0
M  V30 10534 O 968.786 -2.64738 2.38311 0
M  V30 10535 O 967.645 -4.22558 3.46565 0
M  V30 10536 H 964.739 -0.661395 0.496473 0
M  V30 10537 H 967.285 -0.772907 1.51077 0
M  V30 10538 H 966.057 -2.07151 3.3197 0
M  V30 10539 H 965.68 -3.33682 2.162 0
M  V30 10540 N 966.677 -1.24326 -0.968545 0
M  V30 10541 C 968.093 -1.00847 -1.23701 0
M  V30 10542 C 968.293 0.283235 -1.99499 0
M  V30 10543 O 967.349 0.999607 -2.31871 0
M  V30 10544 C 968.662 -2.22295 -2.02498 0
M  V30 10545 C 970.21 -2.26911 -2.15593 0
M  V30 10546 C 970.685 -3.47978 -2.97784 0
M  V30 10547 N 972.176 -3.48289 -3.05367 0
M  V30 10548 C 972.911 -4.38625 -3.69318 0
M  V30 10549 N 972.407 -5.39213 -4.34995 0
M  V30 10550 N 974.2 -4.26339 -3.66322 0
M  V30 10551 H 966.351 -2.07335 -0.461087 0
M  V30 10552 H 968.614 -0.909805 -0.26638 0
M  V30 10553 H 968.32 -3.161 -1.54188 0
M  V30 10554 H 968.194 -2.24344 -3.03232 0
M  V30 10555 H 970.581 -1.33639 -2.63106 0
M  V30 10556 H 970.662 -2.28888 -1.14209 0
M  V30 10557 H 970.306 -4.41564 -2.50965 0
M  V30 10558 H 970.236 -3.43244 -3.99364 0
M  V30 10559 H 972.727 -2.75517 -2.58648 0
M  V30 10560 H 973.04 -6.04378 -4.81608 0
M  V30 10561 H 971.385 -5.43101 -4.33667 0
M  V30 10562 H 974.576 -3.46991 -3.14189 0
M  V30 10563 H 974.749 -4.9694 -4.15878 0
M  V30 10564 N 968.156 1.1691 -1.05688 0
M  V30 10565 C 969.106 2.19056 -0.632339 0
M  V30 10566 C 970.09 1.574 0.333797 0
M  V30 10567 O 971.282 1.76361 0.150223 0
M  V30 10568 C 968.411 3.43297 -0.0138209 0
M  V30 10569 C 967.497 4.12042 -1.00408 0
M  V30 10570 N 967.888 4.56535 -2.17737 0
M  V30 10571 C 966.186 4.38139 -0.833663 0
M  V30 10572 C 966.887 5.09644 -2.80425 0
M  V30 10573 N 965.863 5.02153 -2.08191 0
M  V30 10574 H 969.665 2.51165 -1.52621 0
M  V30 10575 H 967.179 1.33294 -0.927707 0
M  V30 10576 H 969.176 4.1576 0.308117 0
M  V30 10577 H 967.836 3.12677 0.87538 0
M  V30 10578 H 968.847 4.50463 -2.55546 0
M  V30 10579 H 965.524 4.175 0.00406684 0
M  V30 10580 H 966.914 5.54153 -3.79952 0
M  V30 10581 N 969.634 0.838594 1.33437 0
M  V30 10582 C 970.564 0.286672 2.31734 0
M  V30 10583 C 971.545 -0.605451 1.5896 0
M  V30 10584 O 972.73 -0.529059 1.86854 0
M  V30 10585 C 969.86 -0.539311 3.43087 0
M  V30 10586 C 968.814 0.256997 4.27228 0
M  V30 10587 C 968.14 -0.692718 5.30194 0
M  V30 10588 C 969.44 1.47391 5.01072 0
M  V30 10589 H 971.134 1.10798 2.78144 0
M  V30 10590 H 968.68 0.534235 1.33723 0
M  V30 10591 H 970.633 -0.935724 4.1088 0
M  V30 10592 H 969.357 -1.39383 2.95364 0
M  V30 10593 H 968.016 0.634967 3.61059 0
M  V30 10594 H 967.664 -1.54363 4.78729 0
M  V30 10595 H 967.364 -0.164023 5.87371 0
M  V30 10596 H 968.888 -1.08665 6.00853 0
M  V30 10597 H 970.302 1.15067 5.61634 0
M  V30 10598 H 968.699 1.93937 5.67898 0
M  V30 10599 H 969.769 2.24382 4.29861 0
M  V30 10600 N 971.112 -1.45937 0.595003 0
M  V30 10601 C 972.359 -2.0232 0.0853053 0
M  V30 10602 C 972.687 -1.465 -1.27937 0
M  V30 10603 O 971.942 -0.624767 -1.85459 0
M  V30 10604 C 972.241 -3.57396 -0.0173747 0
M  V30 10605 C 971.907 -4.32311 1.28131 0
M  V30 10606 C 970.569 -4.52496 1.63708 0
M  V30 10607 C 972.921 -4.75233 2.14017 0
M  V30 10608 C 970.249 -5.12857 2.84947 0
M  V30 10609 C 972.601 -5.36933 3.34493 0
M  V30 10610 C 971.265 -5.55343 3.70338 0
M  V30 10611 H 970.535 -0.740342 0.0312154 0
M  V30 10612 H 973.182 -1.75157 0.774103 0
M  V30 10613 H 971.487 -3.83766 -0.789371 0
M  V30 10614 H 973.184 -3.98713 -0.427699 0
M  V30 10615 H 969.774 -4.16905 0.994374 0
M  V30 10616 H 973.958 -4.59383 1.87833 0
M  V30 10617 H 969.214 -5.253 3.12841 0
M  V30 10618 H 973.388 -5.69147 4.01304 0
M  V30 10619 H 971.015 -6.01883 4.64371 0
M  V30 10620 N 972.59 -0.333456 -1.54032 0
M  V30 10621 C 973.83 0.266604 -2.02654 0
M  V30 10622 C 974.194 1.48568 -1.21621 0
M  V30 10623 O 975.395 2.15925 -1.60093 0
M  V30 10624 C 973.666 0.582825 -3.52616 0
M  V30 10625 S 975.225 1.16113 -4.23159 0
M  V30 10626 H 972.043 0.0800344 -0.706481 0
M  V30 10627 H 974.645 -0.468876 -1.89794 0
M  V30 10628 H 973.349 -0.312401 -4.09209 0
M  V30 10629 H 972.88 1.34824 -3.69576 0
M  V30 10630 H 974.895 2.44743 -4.31642 0
M  V30 10631 N 974.068 1.57479 -0.061844 0
M  V30 10632 C 974.998 2.15181 0.9066 0
M  V30 10633 C 975.979 1.07624 1.31724 0
M  V30 10634 O 977.164 1.35614 1.39006 0
M  V30 10635 C 974.294 2.70542 2.17771 0
M  V30 10636 C 973.248 3.83178 1.9068 0
M  V30 10637 C 972.574 4.25099 3.24337 0
M  V30 10638 C 973.874 5.07853 1.21994 0
M  V30 10639 H 975.568 2.96355 0.42594 0
M  V30 10640 H 973.114 1.42556 0.203435 0
M  V30 10641 H 975.067 3.09552 2.85929 0
M  V30 10642 H 973.791 1.86575 2.68062 0
M  V30 10643 H 972.45 3.44656 1.24931 0
M  V30 10644 H 972.098 3.38069 3.72449 0
M  V30 10645 H 971.798 5.01021 3.07005 0
M  V30 10646 H 973.322 4.66718 3.93709 0
M  V30 10647 H 974.736 5.44242 1.80204 0
M  V30 10648 H 973.133 5.88987 1.14954 0
M  V30 10649 H 974.203 4.84497 0.197536 0
M  V30 10650 N 975.546 -0.211634 1.56173 0
M  V30 10651 C 976.776 -0.949805 1.83473 0
M  V30 10652 C 977.184 -1.78045 0.640053 0
M  V30 10653 O 976.527 -1.79277 -0.400702 0
M  V30 10654 C 976.589 -1.90868 3.04647 0
M  V30 10655 C 976.253 -1.26159 4.39241 0
M  V30 10656 C 977.25 -0.646597 5.15863 0
M  V30 10657 C 974.935 -1.27039 4.85969 0
M  V30 10658 C 976.929 -0.0490313 6.37381 0
M  V30 10659 C 974.616 -0.668987 6.07427 0
M  V30 10660 C 975.614 -0.0593687 6.82974 0
M  V30 10661 O 975.302 0.532656 8.02133 0
M  V30 10662 H 975.034 -0.283458 0.6137 0
M  V30 10663 H 977.588 -0.22894 2.0412 0
M  V30 10664 H 975.818 -2.6688 2.79843 0
M  V30 10665 H 977.507 -2.51323 3.18734 0
M  V30 10666 H 978.273 -0.632056 4.80864 0
M  V30 10667 H 974.152 -1.73429 4.27134 0
M  V30 10668 H 977.696 0.427414 6.96289 0
M  V30 10669 H 973.593 -0.680975 6.41898 0
M  V30 10670 H 974.361 0.427942 8.17381 0
M  V30 10671 N 977.024 -1.50153 -0.478725 0
M  V30 10672 C 978.27 -1.60998 -1.23318 0
M  V30 10673 C 978.603 -0.305868 -1.91776 0
M  V30 10674 O 977.878 0.692158 -1.81767 0
M  V30 10675 C 978.161 -2.78495 -2.28282 0
M  V30 10676 C 978.014 -4.18767 -1.64178 0
M  V30 10677 C 979.333 -2.91569 -3.2966 0
M  V30 10678 H 976.452 -0.585983 -0.446982 0
M  V30 10679 H 979.094 -1.82514 -0.528063 0
M  V30 10680 H 977.244 -2.60281 -2.8842 0
M  V30 10681 H 978.916 -4.48552 -1.07696 0
M  V30 10682 H 977.159 -4.23379 -0.94514 0
M  V30 10683 H 977.83 -4.96894 -2.40417 0
M  V30 10684 H 980.306 -3.08219 -2.79536 0
M  V30 10685 H 979.182 -3.75419 -4.0044 0
M  V30 10686 H 979.443 -2.01859 -3.93326 0
M  V30 10687 N 978.502 0.731368 -1.39602 0
M  V30 10688 C 979.748 1.49321 -1.37227 0
M  V30 10689 C 980.081 1.94176 0.0306502 0
M  V30 10690 O 979.356 1.67046 0.996294 0
M  V30 10691 C 979.639 2.73035 -2.34784 0
M  V30 10692 C 979.492 2.34176 -3.84033 0
M  V30 10693 C 980.811 3.75146 -2.30116 0
M  V30 10694 H 977.93 0.541652 -0.499783 0
M  V30 10695 H 980.572 0.835968 -1.70621 0
M  V30 10696 H 978.722 3.29114 -2.06437 0
M  V30 10697 H 980.394 1.83701 -4.23145 0
M  V30 10698 H 978.637 1.66361 -4.00633 0
M  V30 10699 H 979.308 3.22786 -4.47787 0
M  V30 10700 H 981.784 3.28661 -2.55189 0
M  V30 10701 H 980.66 4.5937 -3.00451 0
M  V30 10702 H 980.921 4.22326 -1.30741 0
M  V30 10703 N 979.98 1.24838 0.961938 0
M  V30 10704 C 981.205 1.11967 1.7458 0
M  V30 10705 C 981.63 -0.323287 1.85301 0
M  V30 10706 O 980.988 -1.23412 1.32812 0
M  V30 10707 C 981.036 1.77066 3.14134 0
M  V30 10708 O 980.14 1.04534 3.98932 0
M  V30 10709 H 979.481 0.391338 0.536424 0
M  V30 10710 H 982.011 1.65259 1.20626 0
M  V30 10711 H 982.021 1.83056 3.64629 0
M  V30 10712 H 980.696 2.82052 3.05646 0
M  V30 10713 H 979.273 1.06372 3.57407 0
M  V30 10714 N 981.458 -1.16348 1.06306 0
M  V30 10715 C 982.405 -2.20741 0.673962 0
M  V30 10716 C 983.375 -1.628 -0.329454 0
M  V30 10717 O 984.56 -1.89547 -0.218313 0
M  V30 10718 C 981.7 -3.45036 0.0667008 0
M  V30 10719 C 980.813 -4.17221 1.12031 0
M  V30 10720 C 979.948 -5.29034 0.479176 0
M  V30 10721 C 978.987 -5.93021 1.51631 0
M  V30 10722 N 978.124 -6.96327 0.898528 0
M  V30 10723 H 982.964 -2.53376 1.56859 0
M  V30 10724 H 980.501 -1.24449 0.784276 0
M  V30 10725 H 982.459 -4.16099 -0.302916 0
M  V30 10726 H 981.089 -3.1295 -0.791333 0
M  V30 10727 H 980.141 -3.4476 1.60763 0
M  V30 10728 H 981.453 -4.60902 1.90712 0
M  V30 10729 H 980.607 -6.06674 0.0565993 0
M  V30 10730 H 979.346 -4.86517 -0.33951 0
M  V30 10731 H 978.351 -5.14104 1.94878 0
M  V30 10732 H 979.576 -6.37618 2.3371 0
M  V30 10733 H 977.522 -6.55923 0.100555 0
M  V30 10734 H 977.439 -7.38379 1.62272 0
M  V30 10735 H 978.707 -7.77888 0.5011 0
M  V30 10736 N 982.937 -0.845659 -1.3299 0
M  V30 10737 C 984.167 -0.457686 -2.01467 0
M  V30 10738 C 984.575 0.947664 -1.63756 0
M  V30 10739 O 983.918 1.62841 -0.850213 0
M  V30 10740 C 983.98 -0.506589 -3.55913 0
M  V30 10741 C 983.644 -1.86924 -4.17023 0
M  V30 10742 C 984.641 -2.83344 -4.35904 0
M  V30 10743 C 982.326 -2.16394 -4.53298 0
M  V30 10744 C 984.32 -4.07391 -4.90216 0
M  V30 10745 C 982.007 -3.40695 -5.07316 0
M  V30 10746 C 983.005 -4.3601 -5.25722 0
M  V30 10747 O 982.693 -5.58112 -5.7859 0
M  V30 10748 H 982.425 -0.179258 -0.651799 0
M  V30 10749 H 984.979 -1.14172 -1.70745 0
M  V30 10750 H 983.209 0.234253 -3.8599 0
M  V30 10751 H 984.898 -0.135487 -4.05674 0
M  V30 10752 H 985.664 -2.61879 -4.08221 0
M  V30 10753 H 981.543 -1.42994 -4.38262 0
M  V30 10754 H 985.087 -4.81796 -5.04498 0
M  V30 10755 H 980.984 -3.62014 -5.3443 0
M  V30 10756 H 981.752 -5.59946 -5.96995 0
M  V30 10757 N 984.415 1.45619 -0.602734 0
M  V30 10758 C 985.345 2.33258 0.106342 0
M  V30 10759 C 986.326 1.46543 0.863664 0
M  V30 10760 O 987.511 1.75324 0.835175 0
M  V30 10761 C 984.641 3.29168 1.10751 0
M  V30 10762 C 983.595 4.25481 0.463717 0
M  V30 10763 C 982.921 5.11046 1.57278 0
M  V30 10764 C 984.221 5.18702 -0.61199 0
M  V30 10765 H 985.915 2.92795 -0.625423 0
M  V30 10766 H 983.461 1.40793 -0.302213 0
M  V30 10767 H 985.414 3.89346 1.61208 0
M  V30 10768 H 984.138 2.6778 1.8698 0
M  V30 10769 H 982.797 3.66595 -0.0199496 0
M  V30 10770 H 982.445 4.46029 2.32524 0
M  V30 10771 H 982.145 5.76286 1.14755 0
M  V30 10772 H 983.669 5.74091 2.07972 0
M  V30 10773 H 985.083 5.72979 -0.191686 0
M  V30 10774 H 983.48 5.92393 -0.958686 0
M  V30 10775 H 984.55 4.61424 -1.4905 0
M  V30 10776 N 985.893 0.34162 1.53853 0
M  V30 10777 C 986.856 -0.503541 2.236 0
M  V30 10778 C 987.856 -1.02912 1.23554 0
M  V30 10779 O 989.046 -0.918678 1.48007 0
M  V30 10780 C 986.178 -1.70126 2.95415 0
M  V30 10781 H 987.371 0.106437 2.99711 0
M  V30 10782 H 984.924 0.0929408 1.56023 0
M  V30 10783 H 985.659 -2.34999 2.23486 0
M  V30 10784 H 985.444 -1.33161 3.68796 0
M  V30 10785 H 986.934 -2.30077 3.48503 0
M  V30 10786 N 987.371 -1.57444 0.0701946 0
M  V30 10787 C 988.617 -1.93716 -0.600178 0
M  V30 10788 C 988.95 -0.950329 -1.69359 0
M  V30 10789 O 988.225 0.0207123 -1.94489 0
M  V30 10790 C 988.508 -3.40266 -1.17861 0
M  V30 10791 C 988.361 -4.49706 -0.0919575 0
M  V30 10792 C 989.68 -3.87599 -2.08459 0
M  V30 10793 H 986.799 -0.704421 -0.216704 0
M  V30 10794 H 989.441 -1.89514 0.135838 0
M  V30 10795 H 987.591 -3.43977 -1.80587 0
M  V30 10796 H 989.263 -4.58116 0.541031 0
M  V30 10797 H 987.506 -4.29937 0.577639 0
M  V30 10798 H 988.177 -5.49381 -0.537048 0
M  V30 10799 H 990.653 -3.85883 -1.5567 0
M  V30 10800 H 989.529 -4.90755 -2.45867 0
M  V30 10801 H 989.79 -3.25448 -2.99226 0
M  V30 10802 N 988.849 0.203349 -1.56283 0
M  V30 10803 C 989.759 1.27266 -1.9708 0
M  V30 10804 C 990.775 1.50268 -0.877236 0
M  V30 10805 O 991.951 1.63044 -1.18231 0
M  V30 10806 C 989.016 2.59871 -2.29495 0
M  V30 10807 C 988.077 2.45012 -3.52516 0
M  V30 10808 C 987.31 3.71293 -3.83376 0
M  V30 10809 O 987.533 4.75106 -3.15643 0
M  V30 10810 O 986.467 3.67316 -4.76826 0
M  V30 10811 H 990.293 0.956461 -2.88246 0
M  V30 10812 H 987.878 0.407688 -1.4373 0
M  V30 10813 H 989.76 3.38152 -2.51458 0
M  V30 10814 H 988.435 2.91135 -1.415 0
M  V30 10815 H 987.342 1.6487 -3.35811 0
M  V30 10816 H 988.675 2.18683 -4.40952 0
M  V30 10817 N 990.327 1.50405 0.470755 0
M  V30 10818 C 991.552 1.65442 1.25075 0
M  V30 10819 C 991.977 0.337612 1.85045 0
M  V30 10820 O 991.335 -0.698555 1.67302 0
M  V30 10821 C 991.383 2.74793 2.33498 0
M  V30 10822 O 990.487 2.36069 3.3815 0
M  V30 10823 H 989.828 0.552728 0.367951 0
M  V30 10824 H 992.358 1.96782 0.560177 0
M  V30 10825 H 992.368 2.97879 2.78804 0
M  V30 10826 H 991.043 3.70363 1.8922 0
M  V30 10827 H 989.62 2.2343 2.98552 0
M  V30 10828 N 991.805 -0.723954 1.39988 0
M  V30 10829 C 993.216 -1.30273 1.33738 0
M  V30 10830 C 993.567 -1.96199 0.00690581 0
M  V30 10831 O 992.692 -1.97016 -0.895179 0
M  V30 10832 C 993.287 -2.36889 2.42217 0
M  V30 10833 C 991.846 -2.90412 2.39453 0
M  V30 10834 C 990.993 -1.64103 2.2353 0
M  V30 10835 H 993.944 -0.520672 1.49916 0
M  V30 10836 H 993.965 -3.17538 2.09642 0
M  V30 10837 H 993.477 -1.88878 3.39038 0
M  V30 10838 H 991.578 -3.42674 1.46304 0
M  V30 10839 H 991.691 -3.42775 3.34727 0
M  V30 10840 H 990.055 -1.88855 1.70897 0
M  V30 10841 H 990.838 -1.18128 3.22336 0
M  V30 10842 N 993.283 -1.25346 -0.955304 0
M  V30 10843 C 994.53 -1.10055 -1.69983 0
M  V30 10844 C 994.858 0.358586 -1.91166 0
M  V30 10845 O 994.113 1.28071 -1.47974 0
M  V30 10846 C 994.412 -1.7993 -3.08804 0
M  V30 10847 C 994.078 -3.29851 -3.07424 0
M  V30 10848 C 992.74 -3.7075 -3.06754 0
M  V30 10849 C 995.092 -4.25636 -3.00805 0
M  V30 10850 C 992.42 -5.05847 -2.97214 0
M  V30 10851 C 994.772 -5.60756 -2.92806 0
M  V30 10852 C 993.436 -6.00984 -2.90472 0
M  V30 10853 H 992.706 -0.402718 -0.622012 0
M  V30 10854 H 995.353 -1.5561 -1.11614 0
M  V30 10855 H 993.658 -1.26803 -3.70713 0
M  V30 10856 H 995.355 -1.65551 -3.65231 0
M  V30 10857 H 991.945 -2.97308 -3.08716 0
M  V30 10858 H 996.129 -3.9503 -3.00441 0
M  V30 10859 H 991.385 -5.36196 -2.93775 0
M  V30 10860 H 995.559 -6.34671 -2.86645 0
M  V30 10861 H 993.186 -7.05626 -2.82835 0
M  V30 10862 N 994.761 1.15782 -1.06922 0
M  V30 10863 C 995.691 2.22538 -0.707045 0
M  V30 10864 C 996.672 1.67371 0.303471 0
M  V30 10865 O 997.857 1.9339 0.177189 0
M  V30 10866 C 994.987 3.47158 -0.0994269 0
M  V30 10867 C 993.941 4.15257 -1.03661 0
M  V30 10868 C 993.267 5.33902 -0.291974 0
M  V30 10869 C 994.567 4.65516 -2.36837 0
M  V30 10870 H 996.261 2.53089 -1.59958 0
M  V30 10871 H 993.807 1.21649 -0.770552 0
M  V30 10872 H 995.76 4.21073 0.165852 0
M  V30 10873 H 994.484 3.15926 0.828155 0
M  V30 10874 H 993.143 3.43276 -1.28674 0
M  V30 10875 H 992.791 4.98926 0.638928 0
M  V30 10876 H 992.491 5.80407 -0.916613 0
M  V30 10877 H 994.015 6.1059 -0.0343915 0
M  V30 10878 H 995.429 5.30981 -2.16175 0
M  V30 10879 H 993.826 5.22666 -2.94856 0
M  V30 10880 H 994.896 3.81387 -2.99453 0
M  V30 10881 N 996.239 0.8527 1.3254 0
M  V30 10882 C 997.186 0.293905 2.28921 0
M  V30 10883 C 998.156 -0.598027 1.54961 0
M  V30 10884 O 999.341 -0.533355 1.83194 0
M  V30 10885 C 996.481 -0.513361 3.4126 0
M  V30 10886 C 995.594 0.404144 4.30105 0
M  V30 10887 C 994.729 -0.415564 5.29572 0
M  V30 10888 C 993.768 0.499461 6.10059 0
M  V30 10889 N 992.905 -0.282949 7.0153 0
M  V30 10890 H 997.745 1.12107 2.76109 0
M  V30 10891 H 995.282 0.564272 1.35847 0
M  V30 10892 H 997.24 -0.997008 4.05112 0
M  V30 10893 H 995.87 -1.30537 2.95229 0
M  V30 10894 H 994.922 1.00617 3.66852 0
M  V30 10895 H 996.234 1.10648 4.86373 0
M  V30 10896 H 995.388 -0.962458 5.99017 0
M  V30 10897 H 994.127 -1.15127 4.73917 0
M  V30 10898 H 993.132 1.05825 5.39519 0
M  V30 10899 H 994.357 1.23375 6.67799 0
M  V30 10900 H 992.303 -1.00179 6.48306 0
M  V30 10901 H 992.22 0.36039 7.55141 0
M  V30 10902 H 993.488 -0.811632 7.75263 0
M  V30 10903 N 997.718 -1.45297 0.610449 0
M  V30 10904 C 998.628 -2.34349 -0.108475 0
M  V30 10905 C 999.644 -1.51409 -0.857397 0
M  V30 10906 O 1000.82 -1.84202 -0.814337 0
M  V30 10907 C 997.885 -3.29072 -1.09144 0
M  V30 10908 C 996.946 -4.27918 -0.344165 0
M  V30 10909 C 996.179 -5.18116 -1.28031 0
M  V30 10910 O 996.402 -5.11802 -2.51824 0
M  V30 10911 O 995.336 -5.96879 -0.775821 0
M  V30 10912 H 999.162 -2.97232 0.623421 0
M  V30 10913 H 996.747 -1.44728 0.3707 0
M  V30 10914 H 998.629 -3.87433 -1.65751 0
M  V30 10915 H 997.304 -2.68749 -1.80431 0
M  V30 10916 H 996.211 -3.73164 0.264437 0
M  V30 10917 H 997.544 -4.91104 0.328275 0
M  V30 10918 N 999.196 -0.349774 -1.5367 0
M  V30 10919 C 1000.44 0.245189 -2.01312 0
M  V30 10920 C 1000.77 1.49702 -1.23705 0
M  V30 10921 O 1000.05 1.91742 -0.326371 0
M  V30 10922 C 1000.33 0.553071 -3.55827 0
M  V30 10923 C 1000.19 -0.71129 -4.4414 0
M  V30 10924 C 1001.5 1.36015 -4.18555 0
M  V30 10925 H 998.624 0.0876415 -0.73177 0
M  V30 10926 H 1001.27 -0.471543 -1.84056 0
M  V30 10927 H 999.416 1.16367 -3.70663 0
M  V30 10928 H 1001.09 -1.34913 -4.41131 0
M  V30 10929 H 999.331 -1.33491 -4.1275 0
M  V30 10930 H 1000 -0.45104 -5.50154 0
M  V30 10931 H 1002.48 0.843778 -4.07455 0
M  V30 10932 H 1001.35 1.54432 -5.26728 0
M  V30 10933 H 1001.61 2.36408 -3.73582 0
M  V30 10934 N 1000.67 1.57404 -0.0785433 0
M  V30 10935 C 1001.6 2.16131 0.883726 0
M  V30 10936 C 1002.58 1.09015 1.30575 0
M  V30 10937 O 1003.77 1.3708 1.37559 0
M  V30 10938 C 1000.9 2.72836 2.1489 0
M  V30 10939 C 999.854 3.85178 1.86605 0
M  V30 10940 C 999.18 4.28516 3.1981 0
M  V30 10941 C 1000.48 5.09118 1.16601 0
M  V30 10942 H 1002.17 2.9679 0.394484 0
M  V30 10943 H 999.72 1.42763 0.188304 0
M  V30 10944 H 1001.67 3.12567 2.8263 0
M  V30 10945 H 1000.4 1.89408 2.66068 0
M  V30 10946 H 999.056 3.45962 1.21268 0
M  V30 10947 H 998.704 3.42 3.68843 0
M  V30 10948 H 998.404 5.04249 3.01674 0
M  V30 10949 H 999.928 4.70868 3.88737 0
M  V30 10950 H 1001.34 5.46123 1.74422 0
M  V30 10951 H 999.739 5.90173 1.087 0
M  V30 10952 H 1000.81 4.8468 0.146138 0
M  V30 10953 N 1002.15 -0.195058 1.56388 0
M  V30 10954 C 1003.38 -0.935745 1.85091 0
M  V30 10955 C 1003.8 -1.76061 0.662118 0
M  V30 10956 O 1003.16 -1.77076 -0.389083 0
M  V30 10957 C 1003.21 -1.80764 3.1202 0
M  V30 10958 O 1002.31 -2.90643 2.92575 0
M  V30 10959 H 1001.65 -0.26351 0.609474 0
M  V30 10960 H 1004.18 -0.200362 2.03617 0
M  V30 10961 H 1004.19 -2.21229 3.42815 0
M  V30 10962 H 1002.87 -1.20157 3.98165 0
M  V30 10963 H 1001.44 -2.53934 2.73079 0
M  V30 10964 N 1003.63 -1.50653 -0.462772 0
M  V30 10965 C 1004.54 -1.72923 -1.58539 0
M  V30 10966 C 1005.56 -0.612577 -1.6286 0
M  V30 10967 O 1006.73 -0.891885 -1.80575 0
M  V30 10968 C 1003.8 -1.82623 -2.94703 0
M  V30 10969 C 1002.86 -3.06392 -3.00704 0
M  V30 10970 C 1002.09 -3.15618 -4.30373 0
M  V30 10971 O 1002.31 -2.31423 -5.21344 0
M  V30 10972 O 1001.25 -4.0841 -4.42136 0
M  V30 10973 H 1005.07 -2.68103 -1.42669 0
M  V30 10974 H 1002.66 -1.34848 -0.643144 0
M  V30 10975 H 1004.54 -1.91134 -3.7556 0
M  V30 10976 H 1003.22 -0.906275 -3.10754 0
M  V30 10977 H 1002.12 -3.03375 -2.18894 0
M  V30 10978 H 1003.46 -3.97992 -2.89591 0
M  V30 10979 N 1005.11 0.71652 -1.4037 0
M  V30 10980 C 1006.52 1.29562 -1.34427 0
M  V30 10981 C 1006.87 1.96192 -0.0173106 0
M  V30 10982 O 1006 1.97488 0.884719 0
M  V30 10983 C 1006.59 2.35601 -2.4347 0
M  V30 10984 C 1005.15 2.89138 -2.4099 0
M  V30 10985 C 1004.3 1.62915 -2.24397 0
M  V30 10986 H 1007.25 0.512715 -1.5019 0
M  V30 10987 H 1007.27 3.16422 -2.11323 0
M  V30 10988 H 1006.78 1.87077 -3.40035 0
M  V30 10989 H 1004.88 3.41894 -1.4812 0
M  V30 10990 H 1004.99 3.40995 -3.3654 0
M  V30 10991 H 1003.36 1.87947 -1.71896 0
M  V30 10992 H 1004.14 1.16417 -3.22958 0
M  V30 10993 N 1006.59 1.25851 0.948643 0
M  V30 10994 C 1007.83 1.12127 1.69703 0
M  V30 10995 C 1008.19 -0.333318 1.89491 0
M  V30 10996 O 1007.48 -1.24181 1.4591 0
M  V30 10997 C 1007.67 1.81565 3.07846 0
M  V30 10998 C 1007.5 3.33626 3.01535 0
M  V30 10999 C 1006.27 4.02897 3.04962 0
M  V30 11000 C 1008.47 4.29934 2.82243 0
M  V30 11001 N 1006.45 5.41688 2.88872 0
M  V30 11002 C 1007.82 5.5585 2.74646 0
M  V30 11003 C 1009.88 4.20276 2.66969 0
M  V30 11004 C 1008.58 6.73212 2.53335 0
M  V30 11005 C 1010.61 5.37336 2.4703 0
M  V30 11006 C 1009.97 6.62196 2.40158 0
M  V30 11007 H 1006.07 0.465047 0.628693 0
M  V30 11008 H 1008.65 1.59035 1.12321 0
M  V30 11009 H 1006.82 1.37143 3.63382 0
M  V30 11010 H 1008.56 1.6053 3.715 0
M  V30 11011 H 1005.31 3.54201 3.14386 0
M  V30 11012 H 1005.74 6.14544 2.84015 0
M  V30 11013 H 1010.38 3.24485 2.71053 0
M  V30 11014 H 1008.1 7.69107 2.47993 0
M  V30 11015 H 1011.68 5.31728 2.36128 0
M  V30 11016 H 1010.56 7.51249 2.24933 0
M  V30 11017 N 1008.06 -1.15214 1.07534 0
M  V30 11018 C 1009.48 -1.38031 0.801228 0
M  V30 11019 C 1009.68 -1.92556 -0.593672 0
M  V30 11020 O 1008.74 -2.1325 -1.35206 0
M  V30 11021 C 1010.05 -2.34958 1.87657 0
M  V30 11022 C 1011.6 -2.48617 1.90154 0
M  V30 11023 C 1012.07 -3.48837 2.96777 0
M  V30 11024 N 1013.56 -3.56374 2.95892 0
M  V30 11025 C 1014.3 -4.33746 3.75036 0
M  V30 11026 N 1013.79 -5.14435 4.64036 0
M  V30 11027 N 1015.59 -4.28853 3.63375 0
M  V30 11028 H 1007.74 -0.781639 1.97495 0
M  V30 11029 H 1010 -0.406243 0.856546 0
M  V30 11030 H 1009.71 -2.02013 2.87895 0
M  V30 11031 H 1009.58 -3.3476 1.73827 0
M  V30 11032 H 1011.97 -2.80859 0.905666 0
M  V30 11033 H 1012.05 -1.48808 2.08062 0
M  V30 11034 H 1011.69 -3.1733 3.96565 0
M  V30 11035 H 1011.62 -4.48406 2.76116 0
M  V30 11036 H 1014.11 -2.98784 2.31379 0
M  V30 11037 H 1014.43 -5.70722 5.21053 0
M  V30 11038 H 1012.77 -5.13734 4.68084 0
M  V30 11039 H 1015.96 -3.64882 2.93221 0
M  V30 11040 H 1016.14 -4.88903 4.25298 0
M  V30 11041 N 1009.54 -0.859717 -1.32086 0
M  V30 11042 C 1010.47 -0.323502 -2.31248 0
M  V30 11043 C 1011.45 0.580085 -1.59903 0
M  V30 11044 O 1012.64 0.499265 -1.87673 0
M  V30 11045 C 1009.77 0.484661 -3.43902 0
M  V30 11046 C 1008.72 -0.324933 -4.26765 0
M  V30 11047 C 1008.05 0.608281 -5.31229 0
M  V30 11048 C 1009.35 -1.55344 -4.98664 0
M  V30 11049 H 1011.04 -1.15209 -2.76346 0
M  V30 11050 H 1008.59 -0.555442 -1.32856 0
M  V30 11051 H 1010.54 0.870238 -4.12316 0
M  V30 11052 H 1009.27 1.34666 -2.97544 0
M  V30 11053 H 1007.92 -0.692328 -3.60003 0
M  V30 11054 H 1007.57 1.46727 -4.81124 0
M  V30 11055 H 1007.27 0.0705571 -5.87558 0
M  V30 11056 H 1008.8 0.990925 -6.02506 0
M  V30 11057 H 1010.21 -1.23987 -5.59732 0
M  V30 11058 H 1008.61 -2.02947 -5.64741 0
M  V30 11059 H 1009.68 -2.31192 -4.26237 0
M  V30 11060 N 1011.02 1.44971 -0.618145 0
M  V30 11061 C 1012.25 2.07039 -0.122395 0
M  V30 11062 C 1012.67 1.45793 1.18853 0
M  V30 11063 O 1012.03 0.55453 1.72611 0
M  V30 11064 C 1012.08 3.60599 -0.0073864 0
M  V30 11065 O 1011.18 3.99069 1.04007 0
M  V30 11066 H 1010.52 0.6593 -0.0788615 0
M  V30 11067 H 1013.05 1.86055 -0.851147 0
M  V30 11068 H 1013.06 4.07569 0.187417 0
M  V30 11069 H 1011.74 4.04561 -0.964544 0
M  V30 11070 H 1010.31 3.63753 0.820879 0
M  V30 11071 N 1012.5 0.357919 1.53482 0
M  V30 11072 C 1013.73 -0.23514 2.05559 0
M  V30 11073 C 1014.14 -1.43068 1.23195 0
M  V30 11074 O 1013.5 -1.80481 0.270741 0
M  V30 11075 C 1013.55 -0.636147 3.55859 0
M  V30 11076 O 1013.27 0.511864 4.35099 0
M  V30 11077 C 1014.77 -1.28841 4.24164 0
M  V30 11078 H 1011.99 -0.0428446 0.669631 0
M  V30 11079 H 1014.54 0.51407 1.97933 0
M  V30 11080 H 1012.69 -1.33528 3.63661 0
M  V30 11081 H 1013.1 0.189328 5.24158 0
M  V30 11082 H 1014.58 -1.51962 5.30671 0
M  V30 11083 H 1015.06 -2.24638 3.77405 0
M  V30 11084 H 1015.66 -0.630914 4.20594 0
M  V30 11085 N 1013.98 -1.5736 0.0868897 0
M  V30 11086 C 1015.2 -1.98809 -0.590757 0
M  V30 11087 C 1015.63 -0.965407 -1.61436 0
M  V30 11088 O 1014.98 0.067143 -1.81176 0
M  V30 11089 C 1015.03 -3.39249 -1.22238 0
M  V30 11090 O 1014.14 -3.39706 -2.33824 0
M  V30 11091 H 1013.48 -0.64669 -0.150626 0
M  V30 11092 H 1016.01 -2.03927 0.165873 0
M  V30 11093 H 1016.02 -3.76765 -1.56564 0
M  V30 11094 H 1014.69 -4.13208 -0.472434 0
M  V30 11095 H 1013.27 -3.13977 -2.01178 0
M  V30 11096 N 1015.45 0.186762 -1.56489 0
M  V30 11097 C 1016.39 1.25565 -1.91745 0
M  V30 11098 C 1017.4 1.4128 -0.80894 0
M  V30 11099 O 1018.59 1.41558 -1.08737 0
M  V30 11100 C 1015.69 2.62662 -2.14154 0
M  V30 11101 C 1014.86 2.68448 -3.45333 0
M  V30 11102 C 1013.92 3.86798 -3.56754 0
M  V30 11103 O 1012.95 3.73514 -4.29507 0
M  V30 11104 N 1014.15 5.02607 -2.90459 0
M  V30 11105 H 1016.91 0.956351 -2.84032 0
M  V30 11106 H 1014.47 0.376631 -1.57458 0
M  V30 11107 H 1016.47 3.40277 -2.19075 0
M  V30 11108 H 1015.04 2.85046 -1.28326 0
M  V30 11109 H 1014.26 1.77044 -3.52206 0
M  V30 11110 H 1015.54 2.69311 -4.31682 0
M  V30 11111 H 1014.94 5.163 -2.31194 0
M  V30 11112 H 1013.5 5.78139 -3.00996 0
M  V30 11113 N 1016.93 1.50896 0.454776 0
M  V30 11114 C 1018.16 1.6648 1.22849 0
M  V30 11115 C 1018.58 0.354841 1.85435 0
M  V30 11116 O 1017.93 -0.664931 1.69956 0
M  V30 11117 C 1017.98 2.76787 2.32532 0
M  V30 11118 O 1017.7 4.02706 1.72509 0
M  V30 11119 C 1019.21 3.03488 3.23125 0
M  V30 11120 H 1016.43 0.559152 0.370932 0
M  V30 11121 H 1018.97 1.97215 0.540983 0
M  V30 11122 H 1017.12 2.48701 2.9703 0
M  V30 11123 H 1017.54 4.63834 2.44863 0
M  V30 11124 H 1019.01 3.84294 3.9626 0
M  V30 11125 H 1019.49 2.152 3.82865 0
M  V30 11126 H 1020.1 3.33167 2.64347 0
M  V30 11127 N 1018.41 -0.709066 1.40748 0
M  V30 11128 C 1019.82 -1.28847 1.35112 0
M  V30 11129 C 1020.17 -1.9618 0.0277149 0
M  V30 11130 O 1019.3 -1.97955 -0.874233 0
M  V30 11131 C 1019.89 -2.34306 2.44716 0
M  V30 11132 C 1018.45 -2.87856 2.4252 0
M  V30 11133 C 1017.6 -1.61723 2.25257 0
M  V30 11134 H 1020.55 -0.504742 1.50459 0
M  V30 11135 H 1020.57 -3.15297 2.12998 0
M  V30 11136 H 1020.08 -1.85271 3.41022 0
M  V30 11137 H 1018.18 -3.41103 1.49931 0
M  V30 11138 H 1018.3 -3.39205 3.38344 0
M  V30 11139 H 1016.66 -1.87032 1.7289 0
M  V30 11140 H 1017.44 -1.14703 3.23571 0
M  V30 11141 N 1019.89 -1.26353 -0.941956 0
M  V30 11142 C 1020.82 -1.03634 -2.04432 0
M  V30 11143 C 1021.83 0.00295864 -1.628 0
M  V30 11144 O 1023.02 -0.237029 -1.76919 0
M  V30 11145 C 1020.12 -0.547231 -3.34453 0
M  V30 11146 C 1019.3 -1.65559 -4.04857 0
M  V30 11147 C 1018.36 -1.16466 -5.13149 0
M  V30 11148 O 1017.38 -1.86158 -5.37898 0
M  V30 11149 N 1018.58 -0.0126703 -5.80499 0
M  V30 11150 H 1021.35 -1.98558 -2.24488 0
M  V30 11151 H 1018.91 -1.17728 -1.11138 0
M  V30 11152 H 1020.9 -0.203004 -4.04191 0
M  V30 11153 H 1019.47 0.308401 -3.11075 0
M  V30 11154 H 1018.69 -2.17079 -3.29044 0
M  V30 11155 H 1019.98 -2.39985 -4.48647 0
M  V30 11156 H 1019.38 0.569358 -5.62828 0
M  V30 11157 H 1017.93 0.272486 -6.5123 0
M  V30 11158 N 1021.37 1.14642 -1.08144 0
M  V30 11159 C 1022.3 2.19283 -0.6669 0
M  V30 11160 C 1023.31 1.60292 0.284668 0
M  V30 11161 O 1024.5 1.78352 0.0727383 0
M  V30 11162 C 1021.6 3.38877 0.0398572 0
M  V30 11163 C 1020.77 4.274 -0.929929 0
M  V30 11164 C 1019.83 5.25562 -0.258991 0
M  V30 11165 O 1018.86 5.61999 -0.902563 0
M  V30 11166 N 1020.06 5.71958 0.992177 0
M  V30 11167 H 1022.83 2.55464 -1.5671 0
M  V30 11168 H 1020.39 1.29836 -0.96717 0
M  V30 11169 H 1022.38 4.01605 0.499583 0
M  V30 11170 H 1020.95 3.01043 0.842118 0
M  V30 11171 H 1020.17 3.61649 -1.56857 0
M  V30 11172 H 1021.46 4.83411 -1.58717 0
M  V30 11173 H 1020.86 5.44481 1.53484 0
M  V30 11174 H 1019.41 6.36687 1.39544 0
M  V30 11175 N 1022.85 0.866709 1.31628 0
M  V30 11176 C 1023.78 0.277328 2.27516 0
M  V30 11177 C 1024.79 -0.557786 1.52946 0
M  V30 11178 O 1025.98 -0.38031 1.74402 0
M  V30 11179 C 1023.08 -0.625742 3.33073 0
M  V30 11180 C 1022.25 0.176204 4.37045 0
M  V30 11181 C 1021.31 -0.654497 5.22114 0
M  V30 11182 O 1020.34 -0.0836961 5.69138 0
M  V30 11183 N 1021.54 -1.96708 5.46156 0
M  V30 11184 H 1024.3 1.10133 2.78731 0
M  V30 11185 H 1021.87 0.72787 1.44616 0
M  V30 11186 H 1023.86 -1.18709 3.86898 0
M  V30 11187 H 1022.43 -1.35042 2.81926 0
M  V30 11188 H 1021.65 0.918999 3.83338 0
M  V30 11189 H 1022.94 0.726594 5.03585 0
M  V30 11190 H 1022.33 -2.454 5.09701 0
M  V30 11191 H 1020.89 -2.47629 6.02929 0
M  V30 11192 N 1024.32 -1.44642 0.625825 0
M  V30 11193 C 1025.57 -2.02393 0.128391 0
M  V30 11194 C 1025.9 -1.49075 -1.2446 0
M  V30 11195 O 1025.18 -0.672684 -1.82497 0
M  V30 11196 C 1025.46 -3.59934 0.109279 0
M  V30 11197 C 1025.31 -4.23546 1.51423 0
M  V30 11198 C 1026.63 -4.36406 -0.568985 0
M  V30 11199 H 1023.75 -0.735427 0.0481299 0
M  V30 11200 H 1026.39 -1.72277 0.801286 0
M  V30 11201 H 1024.54 -3.85722 -0.463726 0
M  V30 11202 H 1026.22 -4.08882 2.13572 0
M  V30 11203 H 1024.46 -3.81245 2.06966 0
M  V30 11204 H 1025.13 -5.32535 1.45294 0
M  V30 11205 H 1027.61 -4.1602 -0.0817516 0
M  V30 11206 H 1026.48 -5.46122 -0.551527 0
M  V30 11207 H 1026.74 -4.1062 -1.6384 0
M  V30 11208 N 1025.8 -0.366053 -1.5329 0
M  V30 11209 C 1026.71 0.488111 -2.29466 0
M  V30 11210 C 1027.73 1.09219 -1.35452 0
M  V30 11211 O 1028.9 1.10303 -1.68509 0
M  V30 11212 C 1025.97 1.61202 -3.06944 0
M  V30 11213 C 1025.03 1.03543 -4.16626 0
M  V30 11214 C 1024.26 2.10578 -4.904 0
M  V30 11215 O 1024.49 3.31697 -4.6404 0
M  V30 11216 O 1023.42 1.73609 -5.76319 0
M  V30 11217 H 1027.25 -0.131789 -3.03414 0
M  V30 11218 H 1024.83 -0.130421 -1.4883 0
M  V30 11219 H 1026.71 2.26546 -3.55324 0
M  V30 11220 H 1025.39 2.21732 -2.35832 0
M  V30 11221 H 1024.29 0.345892 -3.72498 0
M  V30 11222 H 1025.63 0.474687 -4.89906 0
M  V30 11223 N 1027.28 1.57312 -0.0952337 0
M  V30 11224 C 1028.21 2.17056 0.860753 0
M  V30 11225 C 1029.19 1.10394 1.29411 0
M  V30 11226 O 1030.38 1.38532 1.36098 0
M  V30 11227 C 1027.51 2.751 2.11984 0
M  V30 11228 C 1026.46 3.87136 1.8251 0
M  V30 11229 C 1025.79 4.31883 3.15247 0
M  V30 11230 C 1027.09 5.10326 1.11194 0
M  V30 11231 H 1028.78 2.97192 0.362983 0
M  V30 11232 H 1026.33 1.42955 0.173151 0
M  V30 11233 H 1028.28 3.15547 2.79299 0
M  V30 11234 H 1027 1.92219 2.64044 0
M  V30 11235 H 1025.66 3.47229 1.17592 0
M  V30 11236 H 1025.31 3.45893 3.65195 0
M  V30 11237 H 1025.01 5.0742 2.96309 0
M  V30 11238 H 1026.53 4.74964 3.83721 0
M  V30 11239 H 1027.95 5.47942 1.6862 0
M  V30 11240 H 1026.34 5.91293 1.02435 0
M  V30 11241 H 1027.41 4.84807 0.0947227 0
M  V30 11242 N 1028.76 -0.17846 1.56586 0
M  V30 11243 C 1030 -0.896235 1.81587 0
M  V30 11244 C 1030.33 -1.82553 0.671168 0
M  V30 11245 O 1029.59 -1.92688 -0.342046 0
M  V30 11246 C 1029.89 -1.73063 3.12704 0
M  V30 11247 C 1029.55 -0.950877 4.4076 0
M  V30 11248 C 1028.21 -0.735647 4.75544 0
M  V30 11249 C 1030.57 -0.403419 5.19636 0
M  V30 11250 C 1027.89 0.0382562 5.86688 0
M  V30 11251 C 1030.25 0.357359 6.3159 0
M  V30 11252 C 1028.91 0.583455 6.64945 0
M  V30 11253 H 1028.18 -0.327956 0.664474 0
M  V30 11254 H 1030.83 -0.161586 1.90817 0
M  V30 11255 H 1029.13 -2.53446 2.98785 0
M  V30 11256 H 1030.83 -2.28891 3.29257 0
M  V30 11257 H 1027.42 -1.12866 4.13472 0
M  V30 11258 H 1031.6 -0.557059 4.93164 0
M  V30 11259 H 1026.86 0.223237 6.10992 0
M  V30 11260 H 1031.03 0.788861 6.91918 0
M  V30 11261 H 1028.66 1.18502 7.50907 0
M  V30 11262 N 1030.24 -1.51135 -0.446768 0
M  V30 11263 C 1031.51 -1.5387 -1.20762 0
M  V30 11264 C 1031.89 -0.297446 -2.08994 0
M  V30 11265 O 1031.24 0.717975 -2.16927 0
M  V30 11266 C 1031.45 -2.84767 -2.01764 0
M  V30 11267 C 1032.8 -3.3636 -2.59128 0
M  V30 11268 O 1033.82 -2.86254 -2.11984 0
M  V30 11269 O 1032.68 -4.23765 -3.45088 0
M  V30 11270 H 1029.78 -0.618228 -0.549293 0
M  V30 11271 H 1032.32 -1.63442 -0.456605 0
M  V30 11272 H 1031.09 -3.6657 -1.36901 0
M  V30 11273 H 1030.72 -2.78313 -2.8395 0
M  V30 11274 N 1031.71 0.701592 -1.41122 0
M  V30 11275 C 1032.64 1.82815 -1.45262 0
M  V30 11276 C 1033.62 1.67215 -0.311939 0
M  V30 11277 O 1034.81 1.87038 -0.522538 0
M  V30 11278 C 1031.94 3.20899 -1.32819 0
M  V30 11279 C 1030.89 3.51194 -2.44636 0
M  V30 11280 C 1030.22 4.8857 -2.17263 0
M  V30 11281 C 1031.52 3.50777 -3.86979 0
M  V30 11282 H 1033.21 1.79608 -2.39544 0
M  V30 11283 H 1030.76 0.862693 -1.15298 0
M  V30 11284 H 1032.71 3.99417 -1.34329 0
M  V30 11285 H 1031.44 3.24717 -0.350191 0
M  V30 11286 H 1030.1 2.75024 -2.42399 0
M  V30 11287 H 1029.74 4.89007 -1.17819 0
M  V30 11288 H 1029.44 5.09805 -2.92186 0
M  V30 11289 H 1030.97 5.69405 -2.20478 0
M  V30 11290 H 1032.38 4.19309 -3.90964 0
M  V30 11291 H 1030.78 3.83542 -4.61536 0
M  V30 11292 H 1031.85 2.49873 -4.15562 0
M  V30 11293 N 1033.19 1.2685 0.935242 0
M  V30 11294 C 1034.1 1.10716 2.06831 0
M  V30 11295 C 1035.12 0.0391222 1.73956 0
M  V30 11296 O 1036.29 0.244071 1.99916 0
M  V30 11297 C 1033.36 0.748093 3.38533 0
M  V30 11298 C 1032.42 1.89619 3.85153 0
M  V30 11299 C 1031.65 1.55416 5.1057 0
M  V30 11300 O 1031.88 0.458596 5.68553 0
M  V30 11301 O 1030.81 2.39087 5.52378 0
M  V30 11302 H 1034.64 2.05785 2.23352 0
M  V30 11303 H 1032.22 1.05967 1.05315 0
M  V30 11304 H 1034.1 0.560841 4.17651 0
M  V30 11305 H 1032.78 -0.173142 3.23237 0
M  V30 11306 H 1031.68 2.13845 3.06954 0
M  V30 11307 H 1033.02 2.79737 4.04979 0
M  V30 11308 N 1034.67 -1.14067 1.0875 0
M  V30 11309 C 1035.62 -2.21332 0.715195 0
M  V30 11310 C 1036.61 -1.67059 -0.280679 0
M  V30 11311 O 1037.82 -1.79432 -0.142874 0
M  V30 11312 H 1034.19 -0.721126 0.213264 0
M  V30 11313 H 1036.16 -2.50002 1.62916 0
M  V30 11314 C 1034.91 -3.474 0.144401 0
M  V30 11315 H 1034.24 -3.89495 0.901884 0
M  V30 11316 H 1035.68 -4.23928 -0.0782564 0
M  V30 11317 C 1034.14 -3.17787 -1.11862 0
M  V30 11318 O 1034.67 -3.35906 -2.20295 0
M  V30 11319 N 1032.87 -2.71719 -1.03039 0
M  V30 11320 H 1032.42 -2.57175 -0.14793 0
M  V30 11321 H 1032.38 -2.52281 -1.87621 0
M  V30 11322 N 1036.15 -0.873678 -1.31166 0
M  V30 11323 C 1037.1 -0.321349 -2.3037 0
M  V30 11324 C 1038.09 0.565568 -1.5968 0
M  V30 11325 O 1039.3 0.451257 -1.74252 0
M  V30 11326 H 1035.67 -0.0852425 -0.747153 0
M  V30 11327 H 1037.64 -1.17191 -2.74425 0
M  V30 11328 C 1036.39 0.459016 -3.44657 0
M  V30 11329 H 1035.71 -0.214185 -3.99226 0
M  V30 11330 H 1037.15 0.810758 -4.16176 0
M  V30 11331 C 1035.61 1.65173 -2.93632 0
M  V30 11332 O 1036.14 2.75105 -2.92711 0
M  V30 11333 N 1034.35 1.4851 -2.49786 0
M  V30 11334 H 1033.9 0.590785 -2.50734 0
M  V30 11335 H 1033.85 2.28452 -2.16002 0
M  V30 11336 N 1037.63 1.44308 -0.633487 0
M  V30 11337 C 1039.04 1.85387 -0.221009 0
M  V30 11338 C 1039.39 1.5301 1.22811 0
M  V30 11339 O 1038.51 0.969325 1.93476 0
M  V30 11340 C 1039.11 3.36497 -0.394331 0
M  V30 11341 C 1037.67 3.76382 -0.0363405 0
M  V30 11342 C 1036.81 2.68146 -0.706598 0
M  V30 11343 H 1039.77 1.34741 -0.83849 0
M  V30 11344 H 1039.79 3.78735 0.366026 0
M  V30 11345 H 1039.3 3.60031 -1.44911 0
M  V30 11346 H 1037.4 3.58463 1.01661 0
M  V30 11347 H 1037.51 4.77 -0.448045 0
M  V30 11348 H 1035.88 2.54306 -0.14168 0
M  V30 11349 H 1036.66 2.94512 -1.76401 0
M  V30 11350 N 1039.1 0.374177 1.53094 0
M  V30 11351 C 1040.01 -0.475935 2.29722 0
M  V30 11352 C 1041.03 -1.085 1.36029 0
M  V30 11353 O 1042.21 -1.09408 1.69091 0
M  V30 11354 C 1039.27 -1.59572 3.07795 0
M  V30 11355 C 1038.33 -1.01332 4.17169 0
M  V30 11356 C 1037.57 -2.07975 4.9151 0
M  V30 11357 O 1037.79 -3.29232 4.65793 0
M  V30 11358 O 1036.72 -1.7055 5.77232 0
M  V30 11359 H 1040.55 0.147877 3.0334 0
M  V30 11360 H 1038.13 0.138312 1.48758 0
M  V30 11361 H 1040.02 -2.24658 3.5652 0
M  V30 11362 H 1038.69 -2.20478 2.37005 0
M  V30 11363 H 1037.6 -0.326133 3.72676 0
M  V30 11364 H 1038.93 -0.4487 4.90151 0
M  V30 11365 N 1040.58 -1.57259 0.103575 0
M  V30 11366 C 1041.81 -1.98711 -0.565454 0
M  V30 11367 C 1042.22 -0.981759 -1.61735 0
M  V30 11368 O 1041.56 0.0357019 -1.83665 0
M  V30 11369 C 1041.63 -3.36552 -1.26384 0
M  V30 11370 C 1041.29 -4.55566 -0.361714 0
M  V30 11371 C 1042.29 -5.18408 0.393539 0
M  V30 11372 C 1039.97 -5.01534 -0.277292 0
M  V30 11373 C 1041.97 -6.25594 1.2211 0
M  V30 11374 C 1039.65 -6.08584 0.553919 0
M  V30 11375 C 1040.65 -6.7048 1.30176 0
M  V30 11376 O 1040.34 -7.75464 2.1192 0
M  V30 11377 H 1040.07 -0.657853 -0.155582 0
M  V30 11378 H 1042.62 -2.04591 0.182089 0
M  V30 11379 H 1040.85 -3.2738 -2.05813 0
M  V30 11380 H 1042.54 -3.62395 -1.82824 0
M  V30 11381 H 1043.31 -4.8382 0.338098 0
M  V30 11382 H 1039.19 -4.53114 -0.849047 0
M  V30 11383 H 1042.73 -6.73836 1.80531 0
M  V30 11384 H 1038.63 -6.42604 0.610809 0
M  V30 11385 H 1039.4 -7.92491 2.04694 0
M  V30 11386 N 1042.06 0.170153 -1.56679 0
M  V30 11387 C 1043.31 0.887906 -1.8233 0
M  V30 11388 C 1043.64 1.81845 -0.681608 0
M  V30 11389 O 1042.91 1.9191 0.316362 0
M  V30 11390 C 1043.2 1.68256 -3.18374 0
M  V30 11391 C 1043.05 0.775059 -4.43072 0
M  V30 11392 C 1044.37 2.65001 -3.51372 0
M  V30 11393 H 1041.49 0.32135 -0.663252 0
M  V30 11394 H 1044.13 0.154065 -1.89374 0
M  V30 11395 H 1042.28 2.30817 -3.12499 0
M  V30 11396 H 1043.95 0.162234 -4.61015 0
M  V30 11397 H 1042.2 0.0831809 -4.3372 0
M  V30 11398 H 1042.87 1.36661 -5.34816 0
M  V30 11399 H 1045.34 2.12566 -3.57708 0
M  V30 11400 H 1044.22 3.17667 -4.47637 0
M  V30 11401 H 1044.48 3.45255 -2.76136 0
M  V30 11402 N 1043.54 1.5137 0.438746 0
M  V30 11403 C 1044.76 1.68058 1.21537 0
M  V30 11404 C 1045.19 0.376787 1.84288 0
M  V30 11405 O 1044.55 -0.662911 1.68746 0
M  V30 11406 C 1044.59 2.79684 2.27616 0
M  V30 11407 O 1043.7 2.43189 3.33066 0
M  V30 11408 H 1043.04 0.560408 0.356144 0
M  V30 11409 H 1045.57 1.97926 0.518311 0
M  V30 11410 H 1045.58 3.03726 2.72423 0
M  V30 11411 H 1044.25 3.74293 1.81321 0
M  V30 11412 H 1042.83 2.29713 2.93746 0
M  V30 11413 N 1045.02 -0.694098 1.41492 0
M  V30 11414 C 1046.24 -1.48789 1.44488 0
M  V30 11415 C 1046.67 -1.88028 0.0521588 0
M  V30 11416 O 1046.02 -1.54727 -0.944952 0
M  V30 11417 C 1046.07 -2.72586 2.3607 0
M  V30 11418 O 1045.18 -3.70128 1.81876 0
M  V30 11419 H 1044.52 -0.447758 0.490315 0
M  V30 11420 H 1047.05 -0.853036 1.85969 0
M  V30 11421 H 1047.06 -3.20877 2.51995 0
M  V30 11422 H 1045.73 -2.43363 3.37264 0
M  V30 11423 H 1044.31 -3.29069 1.75408 0
M  V30 11424 N 1046.49 -1.27344 -0.928501 0
M  V30 11425 C 1047.74 -1.13411 -1.67279 0
M  V30 11426 C 1048.06 0.320698 -1.92345 0
M  V30 11427 O 1047.33 1.2245 -1.52915 0
M  V30 11428 H 1045.91 -0.416712 -0.619968 0
M  V30 11429 H 1048.58 -1.5986 -1.11493 0
M  V30 11430 H 1047.67 -1.66256 -2.64131 0
M  V30 11431 N 1047.97 1.13488 -1.09353 0
M  V30 11432 C 1049.22 1.84383 -0.827488 0
M  V30 11433 C 1049.54 1.83892 0.648745 0
M  V30 11434 O 1048.81 1.29415 1.47066 0
M  V30 11435 H 1047.39 0.682732 -0.303127 0
M  V30 11436 H 1050.05 1.37477 -1.38152 0
M  V30 11437 H 1049.15 2.88919 -1.18035 0
M  V30 11438 N 1049.45 0.880621 1.30701 0
M  V30 11439 C 1050.7 0.495894 1.95922 0
M  V30 11440 C 1051.02 -0.957214 1.69889 0
M  V30 11441 O 1050.29 -1.67245 1.0201 0
M  V30 11442 H 1048.87 0.180394 0.724891 0
M  V30 11443 H 1051.53 1.12274 1.59313 0
M  V30 11444 H 1050.63 0.662508 3.04987 0
M  V30 11445 N 1050.93 -1.4397 0.641131 0
M  V30 11446 C 1052.18 -2.01946 0.149629 0
M  V30 11447 C 1052.5 -1.50496 -1.23212 0
M  V30 11448 O 1051.76 -0.683453 -1.83378 0
M  V30 11449 C 1052.06 -3.5727 0.0963368 0
M  V30 11450 C 1051.72 -4.28016 1.4182 0
M  V30 11451 C 1050.39 -4.47059 1.78021 0
M  V30 11452 C 1052.74 -4.68183 2.29028 0
M  V30 11453 C 1050.07 -5.03532 3.01119 0
M  V30 11454 C 1052.42 -5.26019 3.51406 0
M  V30 11455 C 1051.08 -5.4328 3.87818 0
M  V30 11456 H 1050.35 -0.738974 0.0547531 0
M  V30 11457 H 1053 -1.72605 0.829436 0
M  V30 11458 H 1051.3 -3.86083 -0.666879 0
M  V30 11459 H 1053 -3.99871 -0.300635 0
M  V30 11460 H 1049.59 -4.13531 1.12651 0
M  V30 11461 H 1053.78 -4.53175 2.02353 0
M  V30 11462 H 1049.03 -5.15082 3.29395 0
M  V30 11463 H 1053.21 -5.56092 4.19208 0
M  V30 11464 H 1050.83 -5.86805 4.83284 0
M  V30 11465 N 1052.41 -0.382291 -1.52893 0
M  V30 11466 C 1053.66 0.201734 -2.01091 0
M  V30 11467 C 1053.98 1.47905 -1.2708 0
M  V30 11468 O 1053.25 1.92002 -0.38883 0
M  V30 11469 H 1051.83 0.0775373 -0.742965 0
M  V30 11470 H 1054.49 -0.512369 -1.88045 0
M  V30 11471 H 1053.58 0.416919 -3.09303 0
M  V30 11472 N 1053.89 1.57202 -0.111913 0
M  V30 11473 C 1055.3 1.82039 0.414591 0
M  V30 11474 C 1055.65 1.02863 1.67074 0
M  V30 11475 O 1054.77 0.263068 2.14795 0
M  V30 11476 C 1055.37 3.3019 0.758953 0
M  V30 11477 C 1053.93 3.55732 1.23012 0
M  V30 11478 C 1053.07 2.76301 0.235226 0
M  V30 11479 H 1056.02 1.55078 -0.337142 0
M  V30 11480 H 1056.05 3.44431 1.61701 0
M  V30 11481 H 1055.56 3.87788 -0.155473 0
M  V30 11482 H 1053.66 3.03483 2.16169 0
M  V30 11483 H 1053.77 4.64333 1.18034 0
M  V30 11484 H 1052.14 2.44287 0.720822 0
M  V30 11485 H 1052.92 3.36655 -0.672173 0
M  V30 11486 N 1055.36 -0.161842 1.56767 0
M  V30 11487 C 1056.61 -0.878224 1.82798 0
M  V30 11488 C 1056.94 -1.81481 0.691242 0
M  V30 11489 O 1056.22 -1.92075 -0.30618 0
M  V30 11490 C 1056.5 -1.66565 3.19262 0
M  V30 11491 C 1056.35 -0.751551 4.43477 0
M  V30 11492 C 1057.67 -2.63134 3.52773 0
M  V30 11493 H 1054.79 -0.317828 0.664947 0
M  V30 11494 H 1057.43 -0.14402 1.89453 0
M  V30 11495 H 1055.58 -2.29157 3.13719 0
M  V30 11496 H 1057.26 -0.137783 4.61094 0
M  V30 11497 H 1055.5 -0.0601785 4.33758 0
M  V30 11498 H 1056.17 -1.33823 5.35533 0
M  V30 11499 H 1058.65 -2.10666 3.5883 0
M  V30 11500 H 1057.52 -3.15289 4.49315 0
M  V30 11501 H 1057.78 -3.43786 2.77963 0
M  V30 11502 N 1056.84 -1.516 -0.430713 0
M  V30 11503 C 1057.8 -1.72794 -1.50582 0
M  V30 11504 C 1058.8 -0.597903 -1.49271 0
M  V30 11505 O 1059.99 -0.865535 -1.51176 0
M  V30 11506 C 1057.13 -1.79049 -2.90093 0
M  V30 11507 H 1058.32 -2.68751 -1.33091 0
M  V30 11508 H 1055.87 -1.4169 -0.659822 0
M  V30 11509 H 1056.61 -0.849309 -3.12981 0
M  V30 11510 H 1056.39 -2.61181 -2.92449 0
M  V30 11511 H 1057.88 -1.97262 -3.68072 0
M  V30 11512 N 1058.32 0.686584 -1.41858 0
M  V30 11513 C 1059.6 1.44176 -1.32185 0
M  V30 11514 C 1059.98 2.11049 0.046362 0
M  V30 11515 O 1059.32 2.02365 1.06117 0
M  V30 11516 C 1059.53 2.45385 -2.48168 0
M  V30 11517 C 1060.88 3.10375 -2.89746 0
M  V30 11518 O 1061.91 2.55711 -2.47973 0
M  V30 11519 O 1060.77 4.09404 -3.62009 0
M  V30 11520 H 1057.86 0.642513 -0.520678 0
M  V30 11521 H 1060.41 0.716303 -1.53841 0
M  V30 11522 H 1059.18 1.94687 -3.3943 0
M  V30 11523 H 1058.8 3.25428 -2.28435 0
M  V30 11524 N 1059.8 1.27835 0.921735 0
M  V30 11525 C 1061.07 1.05238 1.64877 0
M  V30 11526 C 1061.45 -0.410921 2.07062 0
M  V30 11527 O 1060.8 -1.39538 1.80946 0
M  V30 11528 C 1061.01 2.01955 2.84632 0
M  V30 11529 C 1062.36 2.31657 3.55837 0
M  V30 11530 O 1063.38 1.99975 2.94768 0
M  V30 11531 O 1062.24 2.85692 4.65878 0
M  V30 11532 H 1059.34 0.401622 0.72293 0
M  V30 11533 H 1061.88 1.39123 0.971744 0
M  V30 11534 H 1060.66 3.00614 2.50494 0
M  V30 11535 H 1060.28 1.68667 3.60052 0
M  V30 11536 N 1061.28 -1.12907 1.09954 0
M  V30 11537 C 1062.52 -1.83941 0.837255 0
M  V30 11538 C 1062.84 -1.84234 -0.638984 0
M  V30 11539 O 1062.11 -1.30193 -1.46378 0
M  V30 11540 H 1060.69 -0.681115 0.306743 0
M  V30 11541 H 1063.36 -1.36743 1.38879 0
M  V30 11542 H 1062.45 -2.88289 1.19565 0
M  V30 11543 N 1062.75 -0.88754 -1.30232 0
M  V30 11544 C 1063.98 -0.521549 -1.99909 0
M  V30 11545 C 1064.39 0.895086 -1.66688 0
M  V30 11546 O 1063.73 1.60053 -0.90159 0
M  V30 11547 C 1063.8 -0.619564 -3.54121 0
M  V30 11548 C 1063.46 -2.00097 -4.10865 0
M  V30 11549 C 1064.46 -2.97068 -4.26669 0
M  V30 11550 C 1062.14 -2.30706 -4.46184 0
M  V30 11551 C 1064.14 -4.2278 -4.77007 0
M  V30 11552 C 1061.82 -3.56663 -4.96221 0
M  V30 11553 C 1062.82 -4.52515 -5.11585 0
M  V30 11554 O 1062.51 -5.76237 -5.60541 0
M  V30 11555 H 1062.24 -0.199904 -0.645766 0
M  V30 11556 H 1064.8 -1.19546 -1.67027 0
M  V30 11557 H 1063.03 0.111334 -3.8654 0
M  V30 11558 H 1064.71 -0.26448 -4.05037 0
M  V30 11559 H 1065.48 -2.74734 -3.99683 0
M  V30 11560 H 1061.36 -1.56865 -4.33491 0
M  V30 11561 H 1064.9 -4.97603 -4.88914 0
M  V30 11562 H 1060.8 -3.78834 -5.22643 0
M  V30 11563 H 1061.57 -5.78655 -5.78879 0
M  V30 11564 N 1064.23 1.43628 -0.648757 0
M  V30 11565 C 1065.48 2.01465 -0.16002 0
M  V30 11566 C 1065.8 1.51413 1.22878 0
M  V30 11567 O 1065.07 0.724919 1.81994 0
M  V30 11568 H 1063.65 0.744885 -0.0561672 0
M  V30 11569 H 1066.31 1.75897 -0.839422 0
M  V30 11570 H 1065.41 3.1178 -0.141213 0
M  V30 11571 N 1065.71 0.390394 1.52688 0
M  V30 11572 C 1066.96 -0.191729 2.01892 0
M  V30 11573 C 1067.29 -1.4637 1.27631 0
M  V30 11574 O 1066.56 -1.90809 0.377094 0
M  V30 11575 C 1066.85 -0.458535 3.57169 0
M  V30 11576 C 1066.7 0.828796 4.42098 0
M  V30 11577 C 1068.02 -1.2487 4.22014 0
M  V30 11578 H 1065.14 -0.0682091 0.733837 0
M  V30 11579 H 1067.78 0.520176 1.82741 0
M  V30 11580 H 1065.93 -1.06498 3.73618 0
M  V30 11581 H 1067.6 1.46562 4.37398 0
M  V30 11582 H 1065.85 1.44388 4.09066 0
M  V30 11583 H 1066.52 0.596746 5.48765 0
M  V30 11584 H 1068.99 -0.735452 4.09549 0
M  V30 11585 H 1067.87 -1.40412 5.30637 0
M  V30 11586 H 1068.13 -2.2642 3.79719 0
M  V30 11587 N 1067.19 -1.57141 0.120249 0
M  V30 11588 C 1068.41 -2.00017 -0.548454 0
M  V30 11589 C 1068.84 -0.999433 -1.59352 0
M  V30 11590 O 1068.2 0.0286978 -1.81277 0
M  V30 11591 C 1068.24 -3.41766 -1.15015 0
M  V30 11592 O 1067.35 -3.44589 -2.26566 0
M  V30 11593 H 1066.69 -0.649739 -0.136875 0
M  V30 11594 H 1069.22 -2.03529 0.209092 0
M  V30 11595 H 1069.23 -3.80001 -1.48537 0
M  V30 11596 H 1067.9 -4.14117 -0.384681 0
M  V30 11597 H 1066.48 -3.18174 -1.94473 0
M  V30 11598 N 1068.67 0.153526 -1.5685 0
M  V30 11599 C 1069.9 0.881055 -1.86872 0
M  V30 11600 C 1070.3 1.75547 -0.705692 0
M  V30 11601 O 1069.65 1.8064 0.333888 0
M  V30 11602 C 1069.71 1.79429 -3.11521 0
M  V30 11603 C 1069.37 1.0977 -4.43621 0
M  V30 11604 C 1070.37 0.454693 -5.17908 0
M  V30 11605 C 1068.06 1.08915 -4.9035 0
M  V30 11606 C 1070.05 -0.187562 -6.37124 0
M  V30 11607 C 1067.74 0.443084 -6.09492 0
M  V30 11608 C 1068.73 -0.194154 -6.82724 0
M  V30 11609 O 1068.42 -0.829995 -7.99604 0
M  V30 11610 H 1068.15 0.260486 -0.623797 0
M  V30 11611 H 1070.71 0.153024 -2.04829 0
M  V30 11612 H 1068.94 2.5631 -2.89555 0
M  V30 11613 H 1070.63 2.39321 -3.27842 0
M  V30 11614 H 1071.39 0.453151 -4.82878 0
M  V30 11615 H 1067.27 1.57456 -4.33276 0
M  V30 11616 H 1070.82 -0.685542 -6.94223 0
M  V30 11617 H 1066.71 0.44227 -6.43983 0
M  V30 11618 H 1067.48 -0.731013 -8.15229 0
M  V30 11619 N 1070.14 1.51827 0.422667 0
M  V30 11620 C 1071.39 1.6445 1.16786 0
M  V30 11621 C 1071.71 0.373792 1.91995 0
M  V30 11622 O 1072.91 0.379621 2.68833 0
M  V30 11623 C 1071.37 2.90488 2.12473 0
M  V30 11624 C 1070.98 4.24617 1.42844 0
M  V30 11625 C 1072.72 3.12472 2.87335 0
M  V30 11626 C 1070.63 5.41791 2.371 0
M  V30 11627 H 1069.56 0.612561 0.439641 0
M  V30 11628 H 1072.21 1.78305 0.433534 0
M  V30 11629 H 1070.59 2.703 2.89402 0
M  V30 11630 H 1071.76 4.55239 0.71372 0
M  V30 11631 H 1070.08 4.08628 0.800769 0
M  V30 11632 H 1072.68 3.9719 3.57973 0
M  V30 11633 H 1073.02 2.26148 3.49518 0
M  V30 11634 H 1073.55 3.33069 2.17509 0
M  V30 11635 H 1070.29 6.3042 1.79584 0
M  V30 11636 H 1069.81 5.15526 3.06583 0
M  V30 11637 H 1071.49 5.74329 2.97918 0
M  V30 11638 N 1071.62 -0.679052 1.4222 0
M  V30 11639 C 1072.55 -1.80481 1.48152 0
M  V30 11640 C 1073.53 -1.66698 0.338502 0
M  V30 11641 O 1074.72 -1.86183 0.552228 0
M  V30 11642 C 1071.85 -3.18746 1.37908 0
M  V30 11643 C 1070.8 -3.47258 2.50192 0
M  V30 11644 C 1070.13 -4.85052 2.25008 0
M  V30 11645 C 1071.43 -3.44576 3.92511 0
M  V30 11646 H 1073.12 -1.75774 2.42371 0
M  V30 11647 H 1070.67 -0.844241 1.16656 0
M  V30 11648 H 1072.62 -3.97229 1.40666 0
M  V30 11649 H 1071.35 -3.24119 0.401806 0
M  V30 11650 H 1070 -2.71133 2.46744 0
M  V30 11651 H 1069.65 -4.8707 1.25584 0
M  V30 11652 H 1069.35 -5.05092 3.00259 0
M  V30 11653 H 1070.88 -5.65825 2.29508 0
M  V30 11654 H 1072.29 -4.13036 3.97585 0
M  V30 11655 H 1070.69 -3.76151 4.67579 0
M  V30 11656 H 1071.76 -2.4323 4.19484 0
M  V30 11657 N 1073.1 -1.28322 -0.914942 0
M  V30 11658 C 1074.35 -1.15578 -1.66642 0
M  V30 11659 C 1074.68 0.295209 -1.91943 0
M  V30 11660 O 1073.95 1.21482 -1.51896 0
M  V30 11661 C 1074.24 -1.9535 -3.02507 0
M  V30 11662 C 1074.09 -3.48504 -2.84367 0
M  V30 11663 C 1075.41 -1.76798 -4.03027 0
M  V30 11664 H 1072.53 -0.421234 -0.604757 0
M  V30 11665 H 1075.17 -1.57625 -1.06087 0
M  V30 11666 H 1073.32 -1.59619 -3.54195 0
M  V30 11667 H 1074.99 -3.94135 -2.39699 0
M  V30 11668 H 1073.24 -3.74198 -2.1945 0
M  V30 11669 H 1073.91 -3.99576 -3.80845 0
M  V30 11670 H 1076.38 -2.07977 -3.60395 0
M  V30 11671 H 1075.26 -2.34987 -4.96057 0
M  V30 11672 H 1075.52 -0.719162 -4.36211 0
M  V30 11673 N 1074.58 1.12322 -1.10551 0
M  V30 11674 C 1075.83 1.83495 -0.846998 0
M  V30 11675 C 1076.15 1.8457 0.629205 0
M  V30 11676 O 1075.42 1.30968 1.45686 0
M  V30 11677 H 1074 0.679479 -0.310351 0
M  V30 11678 H 1076.66 1.36004 -1.39602 0
M  V30 11679 H 1075.76 2.87651 -1.21092 0
M  V30 11680 N 1076.06 0.894434 1.2976 0
M  V30 11681 C 1076.97 0.372622 2.31622 0
M  V30 11682 C 1077.98 -0.52996 1.65733 0
M  V30 11683 O 1079.16 -0.420807 1.96955 0
M  V30 11684 C 1076.22 -0.396076 3.4443 0
M  V30 11685 C 1075.28 0.537394 4.25923 0
M  V30 11686 C 1074.52 -0.194713 5.33345 0
M  V30 11687 O 1074.74 -1.41943 5.52457 0
M  V30 11688 O 1073.67 0.460055 6.00139 0
M  V30 11689 H 1077.5 1.21756 2.78225 0
M  V30 11690 H 1075.09 0.65858 1.34101 0
M  V30 11691 H 1076.97 -0.830962 4.13126 0
M  V30 11692 H 1075.64 -1.21716 2.99945 0
M  V30 11693 H 1074.55 1.02129 3.5989 0
M  V30 11694 H 1075.88 1.32475 4.74037 0
M  V30 11695 N 1077.53 -1.43282 0.656365 0
M  V30 11696 C 1078.48 -2.32556 -0.0452037 0
M  V30 11697 C 1079.48 -1.48789 -0.80982 0
M  V30 11698 O 1080.68 -1.64979 -0.719865 0
M  V30 11699 H 1077.06 -0.751258 -0.0334043 0
M  V30 11700 H 1079.03 -2.89448 0.725423 0
M  V30 11701 C 1077.78 -3.33138 -0.995706 0
M  V30 11702 H 1077.1 -3.97622 -0.416774 0
M  V30 11703 H 1078.54 -3.98231 -1.45562 0
M  V30 11704 C 1077 -2.63978 -2.09325 0
M  V30 11705 O 1077.53 -2.45769 -3.17743 0
M  V30 11706 N 1075.74 -2.23301 -1.8597 0
M  V30 11707 H 1075.28 -2.38312 -0.97802 0
M  V30 11708 H 1075.24 -1.77358 -2.59599 0
M  V30 11709 N 1079.01 -0.398486 -1.52479 0
M  V30 11710 C 1079.94 0.423498 -2.29627 0
M  V30 11711 C 1080.92 1.05547 -1.33394 0
M  V30 11712 O 1082.11 1.0665 -1.62294 0
M  V30 11713 C 1079.24 1.54612 -3.10986 0
M  V30 11714 C 1078.19 1.03971 -4.15179 0
M  V30 11715 C 1077.52 2.25512 -4.84818 0
M  V30 11716 C 1078.82 0.10121 -5.22202 0
M  V30 11717 H 1080.51 -0.220222 -2.98589 0
M  V30 11718 H 1078.06 -0.107355 -1.43599 0
M  V30 11719 H 1080.01 2.12806 -3.63719 0
M  V30 11720 H 1078.74 2.21756 -2.39774 0
M  V30 11721 H 1077.4 0.480251 -3.63441 0
M  V30 11722 H 1077.04 2.91187 -4.10145 0
M  V30 11723 H 1076.74 1.92285 -5.55248 0
M  V30 11724 H 1078.27 2.84331 -5.40359 0
M  V30 11725 H 1079.68 0.591617 -5.70239 0
M  V30 11726 H 1078.08 -0.141737 -5.99933 0
M  V30 11727 H 1079.15 -0.847216 -4.77441 0
M  V30 11728 N 1080.49 1.57075 -0.12858 0
M  V30 11729 C 1081.74 1.94695 0.526952 0
M  V30 11730 C 1082.05 1.01482 1.67215 0
M  V30 11731 O 1083.26 1.28606 2.39108 0
M  V30 11732 C 1081.72 3.4605 0.988801 0
M  V30 11733 C 1081.32 4.47816 -0.128457 0
M  V30 11734 C 1083.07 3.92572 1.61517 0
M  V30 11735 C 1080.97 5.9036 0.350628 0
M  V30 11736 H 1079.9 0.726819 0.200623 0
M  V30 11737 H 1082.56 1.82295 -0.209972 0
M  V30 11738 H 1080.94 3.53718 1.78043 0
M  V30 11739 H 1082.11 4.51826 -0.904976 0
M  V30 11740 H 1080.43 4.11103 -0.662075 0
M  V30 11741 H 1083.02 4.96493 1.98491 0
M  V30 11742 H 1083.37 3.33085 2.49721 0
M  V30 11743 H 1083.9 3.87744 0.888768 0
M  V30 11744 H 1080.64 6.53624 -0.495592 0
M  V30 11745 H 1080.16 5.89749 1.09342 0
M  V30 11746 H 1081.84 6.41926 0.808717 0
M  V30 11747 N 1081.97 -0.145205 1.5693 0
M  V30 11748 C 1082.92 -1.19841 1.99351 0
M  V30 11749 C 1083.91 -1.44371 0.886197 0
M  V30 11750 O 1085.12 -1.44642 1.07138 0
M  V30 11751 H 1081.49 -0.403437 0.63462 0
M  V30 11752 H 1083.46 -0.813932 2.87085 0
M  V30 11753 C 1082.21 -2.52377 2.39167 0
M  V30 11754 H 1081.54 -2.34332 3.23927 0
M  V30 11755 H 1082.98 -3.24694 2.72671 0
M  V30 11756 C 1081.43 -3.1305 1.24503 0
M  V30 11757 O 1081.96 -3.97962 0.546739 0
M  V30 11758 N 1080.17 -2.72528 1.00882 0
M  V30 11759 H 1079.72 -2.03576 1.57843 0
M  V30 11760 H 1079.68 -3.13456 0.24351 0
M  V30 11761 N 1083.45 -1.52049 -0.414609 0
M  V30 11762 C 1084.69 -1.65838 -1.16206 0
M  V30 11763 C 1085.02 -0.385623 -1.90639 0
M  V30 11764 O 1084.28 0.631214 -1.85241 0
M  V30 11765 C 1084.58 -2.82735 -2.18622 0
M  V30 11766 C 1084.24 -4.21163 -1.61037 0
M  V30 11767 C 1082.9 -4.58816 -1.45056 0
M  V30 11768 C 1085.26 -5.0745 -1.18928 0
M  V30 11769 C 1082.58 -5.8044 -0.854761 0
M  V30 11770 C 1084.94 -6.29674 -0.607686 0
M  V30 11771 C 1083.6 -6.66081 -0.434968 0
M  V30 11772 H 1082.87 -0.606845 -0.425229 0
M  V30 11773 H 1085.52 -1.86137 -0.450009 0
M  V30 11774 H 1083.82 -2.56749 -2.95952 0
M  V30 11775 H 1085.52 -2.90601 -2.76319 0
M  V30 11776 H 1082.11 -3.91488 -1.74457 0
M  V30 11777 H 1086.29 -4.78948 -1.30086 0
M  V30 11778 H 1081.55 -6.07276 -0.70891 0
M  V30 11779 H 1085.72 -6.95865 -0.272988 0
M  V30 11780 H 1083.35 -7.60195 0.0288116 0
M  V30 11781 N 1084.93 0.6715 -1.42579 0
M  V30 11782 C 1085.88 1.77767 -1.42769 0
M  V30 11783 C 1086.86 1.58106 -0.298568 0
M  V30 11784 O 1088.05 1.68528 -0.541037 0
M  V30 11785 C 1085.18 3.16248 -1.33574 0
M  V30 11786 C 1084.27 3.41521 -2.51445 0
M  V30 11787 N 1084.66 3.37361 -3.76857 0
M  V30 11788 C 1082.96 3.7217 -2.45776 0
M  V30 11789 C 1083.66 3.62209 -4.5517 0
M  V30 11790 N 1082.63 3.83134 -3.85628 0
M  V30 11791 H 1086.43 1.72949 -2.37626 0
M  V30 11792 H 1083.95 0.872467 -1.36974 0
M  V30 11793 H 1085.95 3.9552 -1.31793 0
M  V30 11794 H 1084.61 3.22261 -0.397223 0
M  V30 11795 H 1085.62 3.17187 -4.09406 0
M  V30 11796 H 1082.29 3.85408 -1.6052 0
M  V30 11797 H 1083.68 3.64925 -5.64162 0
M  V30 11798 N 1086.4 1.28806 0.908124 0
M  V30 11799 C 1087.65 1.15663 1.65242 0
M  V30 11800 C 1087.97 -0.292883 1.93395 0
M  V30 11801 O 1089.17 -0.545509 2.65963 0
M  V30 11802 C 1087.63 2.02233 2.97707 0
M  V30 11803 C 1087.24 3.51958 2.77181 0
M  V30 11804 C 1088.98 1.97792 3.75604 0
M  V30 11805 C 1086.89 4.3066 4.05322 0
M  V30 11806 H 1085.82 0.42928 0.619867 0
M  V30 11807 H 1088.47 1.5338 1.00731 0
M  V30 11808 H 1086.85 1.57377 3.63385 0
M  V30 11809 H 1088.02 4.0481 2.20149 0
M  V30 11810 H 1086.34 3.57983 2.12691 0
M  V30 11811 H 1088.94 2.53858 4.70596 0
M  V30 11812 H 1089.28 0.955956 4.05175 0
M  V30 11813 H 1089.81 2.40648 3.16755 0
M  V30 11814 H 1086.55 5.3346 3.8092 0
M  V30 11815 H 1086.07 3.8258 4.61944 0
M  V30 11816 H 1087.75 4.40878 4.73535 0
M  V30 11817 N 1087.88 -1.11734 1.11145 0
M  V30 11818 C 1089.11 -1.87755 0.881062 0
M  V30 11819 C 1089.53 -1.79461 -0.563496 0
M  V30 11820 O 1088.89 -1.15481 -1.39763 0
M  V30 11821 C 1088.94 -3.34641 1.34342 0
M  V30 11822 O 1088.04 -4.09195 0.513157 0
M  V30 11823 H 1087.38 -0.583111 0.317613 0
M  V30 11824 H 1089.91 -1.41256 1.48013 0
M  V30 11825 H 1089.92 -3.85486 1.33658 0
M  V30 11826 H 1088.6 -3.39994 2.39534 0
M  V30 11827 H 1087.17 -3.68269 0.585833 0
M  V30 11828 N 1089.36 -0.901303 -1.29284 0
M  V30 11829 C 1090.58 -0.542823 -2.0017 0
M  V30 11830 C 1091.01 0.865583 -1.67001 0
M  V30 11831 O 1090.37 1.5764 -0.895502 0
M  V30 11832 C 1090.42 -0.743987 -3.52842 0
M  V30 11833 O 1089.52 0.202771 -4.11901 0
M  V30 11834 H 1088.86 -0.211903 -0.62928 0
M  V30 11835 H 1091.39 -1.21333 -1.64741 0
M  V30 11836 H 1091.4 -0.64926 -4.02801 0
M  V30 11837 H 1090.08 -1.77077 -3.7632 0
M  V30 11838 H 1088.65 0.0603637 -3.72851 0
M  V30 11839 N 1090.84 1.42931 -0.663954 0
M  V30 11840 C 1091.78 2.3079 0.0210764 0
M  V30 11841 C 1092.75 1.45356 0.803796 0
M  V30 11842 O 1093.94 1.74207 0.778237 0
M  V30 11843 C 1091.08 3.31069 0.974023 0
M  V30 11844 C 1090.19 4.31598 0.186273 0
M  V30 11845 C 1089.33 5.18955 1.13399 0
M  V30 11846 C 1088.37 6.1117 0.337292 0
M  V30 11847 N 1087.5 6.91114 1.23715 0
M  V30 11848 H 1092.34 2.88819 -0.733995 0
M  V30 11849 H 1089.88 1.42274 -0.373711 0
M  V30 11850 H 1091.84 3.87727 1.54024 0
M  V30 11851 H 1090.47 2.74665 1.69585 0
M  V30 11852 H 1089.52 3.77147 -0.496402 0
M  V30 11853 H 1090.83 4.96919 -0.432753 0
M  V30 11854 H 1089.99 5.80292 1.77049 0
M  V30 11855 H 1088.73 4.53785 1.78691 0
M  V30 11856 H 1087.73 5.48911 -0.312492 0
M  V30 11857 H 1088.96 6.78386 -0.31138 0
M  V30 11858 H 1086.9 6.28583 1.87668 0
M  V30 11859 H 1086.82 7.52999 0.672946 0
M  V30 11860 H 1088.09 7.56948 1.86146 0
M  V30 11861 N 1092.32 0.406567 1.52266 0
M  V30 11862 C 1093.56 -0.170053 2.01785 0
M  V30 11863 C 1093.89 -1.45361 1.2923 0
M  V30 11864 O 1093.15 -1.91849 0.386342 0
M  V30 11865 C 1093.44 -0.467124 3.54334 0
M  V30 11866 C 1093.11 0.72693 4.45002 0
M  V30 11867 C 1091.77 1.05446 4.69505 0
M  V30 11868 C 1094.12 1.52493 4.98393 0
M  V30 11869 C 1091.45 2.18123 5.44646 0
M  V30 11870 C 1093.8 2.64244 5.74768 0
M  V30 11871 C 1092.47 2.97486 5.97544 0
M  V30 11872 H 1091.74 -0.0622267 0.738383 0
M  V30 11873 H 1094.39 0.54746 1.83508 0
M  V30 11874 H 1092.69 -1.26617 3.70777 0
M  V30 11875 H 1094.39 -0.926194 3.90157 0
M  V30 11876 H 1090.98 0.461666 4.26106 0
M  V30 11877 H 1095.16 1.28512 4.79373 0
M  V30 11878 H 1090.42 2.44228 5.60502 0
M  V30 11879 H 1094.59 3.26468 6.15136 0
M  V30 11880 H 1092.22 3.84913 6.5555 0
M  V30 11881 N 1093.79 -1.57004 0.136909 0
M  V30 11882 C 1095.02 -2.00587 -0.527209 0
M  V30 11883 C 1095.44 -1.01628 -1.58283 0
M  V30 11884 O 1094.8 0.00946934 -1.81298 0
M  V30 11885 C 1094.85 -3.42967 -1.11384 0
M  V30 11886 O 1093.95 -3.46973 -2.22898 0
M  V30 11887 H 1093.3 -0.651155 -0.129976 0
M  V30 11888 H 1095.83 -2.03296 0.230667 0
M  V30 11889 H 1095.84 -3.81555 -1.44499 0
M  V30 11890 H 1094.51 -4.14502 -0.340736 0
M  V30 11891 H 1093.09 -3.20219 -1.91087 0
M  V30 11892 N 1095.27 0.136881 -1.57004 0
M  V30 11893 C 1096.51 0.853873 -1.8571 0
M  V30 11894 C 1096.88 1.77885 -0.722556 0
M  V30 11895 O 1098.08 2.53606 -0.89092 0
M  V30 11896 C 1096.35 1.59935 -3.19618 0
M  V30 11897 S 1097.91 2.36038 -3.69908 0
M  V30 11898 H 1094.73 0.285342 -0.65123 0
M  V30 11899 H 1097.33 0.113254 -1.95172 0
M  V30 11900 H 1096.03 0.91148 -4.0015 0
M  V30 11901 H 1095.56 2.38069 -3.13188 0
M  V30 11902 H 1097.58 3.61425 -3.3998 0
M  V30 11903 N 1096.75 1.52266 0.40654 0
M  V30 11904 C 1098.16 1.58587 0.985241 0
M  V30 11905 C 1098.51 0.427955 1.91476 0
M  V30 11906 O 1097.64 -0.451341 2.11641 0
M  V30 11907 C 1098.23 2.87426 1.79365 0
M  V30 11908 C 1096.79 2.96217 2.32233 0
M  V30 11909 C 1095.94 2.53548 1.12288 0
M  V30 11910 H 1098.89 1.57598 0.186685 0
M  V30 11911 H 1098.91 2.72925 2.65127 0
M  V30 11912 H 1098.42 3.71682 1.11687 0
M  V30 11913 H 1096.52 2.1646 3.03275 0
M  V30 11914 H 1096.64 4.00511 2.62922 0
M  V30 11915 H 1095 2.07457 1.47763 0
M  V30 11916 H 1095.78 3.40181 0.461731 0
M  V30 11917 N 1098.23 -0.663929 1.42933 0
M  V30 11918 C 1099.14 -1.80643 1.49683 0
M  V30 11919 C 1100.15 -1.69694 0.38472 0
M  V30 11920 O 1101.33 -1.91052 0.637256 0
M  V30 11921 C 1098.4 -3.16858 1.4072 0
M  V30 11922 C 1097.46 -3.39684 2.62514 0
M  V30 11923 C 1096.69 -4.69399 2.53969 0
M  V30 11924 O 1096.91 -5.48037 1.58152 0
M  V30 11925 O 1095.85 -4.93709 3.44289 0
M  V30 11926 H 1099.67 -1.77903 2.46138 0
M  V30 11927 H 1097.26 -0.821059 1.24816 0
M  V30 11928 H 1099.14 -3.9812 1.38124 0
M  V30 11929 H 1097.81 -3.20211 0.473954 0
M  V30 11930 H 1096.72 -2.58227 2.70684 0
M  V30 11931 H 1098.05 -3.41169 3.54774 0
M  V30 11932 N 1099.71 -1.29285 -0.901281 0
M  V30 11933 C 1100.93 -1.20048 -1.68511 0
M  V30 11934 C 1101.35 0.239128 -1.8728 0
M  V30 11935 O 1100.71 1.16027 -1.40869 0
M  V30 11936 C 1100.76 -1.90798 -3.07048 0
M  V30 11937 O 1100.48 -3.29137 -2.89138 0
M  V30 11938 C 1101.98 -1.88017 -4.01453 0
M  V30 11939 H 1099.2 -0.416157 -0.52636 0
M  V30 11940 H 1101.74 -1.7063 -1.12719 0
M  V30 11941 H 1099.9 -1.44055 -3.5962 0
M  V30 11942 H 1100.31 -3.64747 -3.76908 0
M  V30 11943 H 1101.79 -2.42088 -4.96082 0
M  V30 11944 H 1102.26 -0.855341 -4.30791 0
M  V30 11945 H 1102.87 -2.34497 -3.54812 0
M  V30 11946 N 1101.18 1.11143 -1.11736 0
M  V30 11947 C 1102.46 1.79384 -0.779785 0
M  V30 11948 C 1102.84 1.98015 0.731668 0
M  V30 11949 O 1102.19 1.56731 1.66276 0
M  V30 11950 C 1102.4 3.12868 -1.54643 0
M  V30 11951 C 1103.75 3.8786 -1.7277 0
M  V30 11952 O 1104.77 3.22566 -1.51094 0
M  V30 11953 O 1103.63 5.05034 -2.08813 0
M  V30 11954 H 1100.72 0.777128 -0.282845 0
M  V30 11955 H 1103.27 1.17858 -1.22096 0
M  V30 11956 H 1102.04 2.94682 -2.57446 0
M  V30 11957 H 1101.67 3.82109 -1.09901 0
M  V30 11958 N 1102.66 0.908147 1.28804 0
M  V30 11959 C 1103.89 0.553431 1.9988 0
M  V30 11960 C 1104.31 -0.856714 1.67458 0
M  V30 11961 O 1103.67 -1.57163 0.903849 0
M  V30 11962 C 1103.72 0.762688 3.52442 0
M  V30 11963 O 1102.82 -0.180924 4.12003 0
M  V30 11964 H 1102.16 0.215237 0.628147 0
M  V30 11965 H 1104.69 1.22205 1.64095 0
M  V30 11966 H 1104.7 0.670612 4.02451 0
M  V30 11967 H 1103.38 1.79071 3.75375 0
M  V30 11968 H 1101.96 -0.0405897 3.72878 0
M  V30 11969 N 1104.14 -1.42577 0.671525 0
M  V30 11970 C 1105.09 -2.27978 -0.0315286 0
M  V30 11971 C 1106.07 -1.40907 -0.776796 0
M  V30 11972 O 1107.27 -1.64385 -0.656248 0
M  V30 11973 C 1104.4 -3.28884 -0.9844 0
M  V30 11974 C 1103.48 -4.23439 -0.236647 0
M  V30 11975 N 1103.87 -5.00107 0.756714 0
M  V30 11976 C 1102.17 -4.43457 -0.475551 0
M  V30 11977 C 1102.87 -5.69141 1.20221 0
M  V30 11978 N 1101.85 -5.40983 0.532802 0
M  V30 11979 H 1105.65 -2.84678 0.730455 0
M  V30 11980 H 1103.16 -1.54501 0.500317 0
M  V30 11981 H 1105.16 -3.88864 -1.50302 0
M  V30 11982 H 1103.82 -2.73745 -1.74625 0
M  V30 11983 H 1104.83 -5.05285 1.13613 0
M  V30 11984 H 1101.51 -3.99364 -1.21715 0
M  V30 11985 H 1102.9 -6.40653 2.02517 0
M  V30 11986 N 1105.62 -0.414636 -1.52048 0
M  V30 11987 C 1107.03 -0.0657806 -1.59464 0
M  V30 11988 C 1107.23 1.4225 -1.42713 0
M  V30 11989 O 1106.29 2.18996 -1.25687 0
M  V30 11990 C 1107.6 -0.565618 -2.95332 0
M  V30 11991 C 1109.15 -0.524072 -3.08581 0
M  V30 11992 C 1109.63 -1.00051 -4.46938 0
M  V30 11993 N 1111.12 -0.957555 -4.53194 0
M  V30 11994 C 1111.85 -1.29733 -5.58531 0
M  V30 11995 N 1111.35 -1.70883 -6.71395 0
M  V30 11996 N 1113.14 -1.21694 -5.48769 0
M  V30 11997 H 1105.29 -1.38325 -1.61183 0
M  V30 11998 H 1107.56 -0.568593 -0.758556 0
M  V30 11999 H 1107.26 -1.60604 -3.12888 0
M  V30 12000 H 1107.14 0.0217735 -3.77194 0
M  V30 12001 H 1109.52 0.507319 -2.90707 0
M  V30 12002 H 1109.6 -1.14759 -2.28613 0
M  V30 12003 H 1109.25 -2.03025 -4.65557 0
M  V30 12004 H 1109.18 -0.353754 -5.2541 0
M  V30 12005 H 1111.67 -0.65508 -3.72179 0
M  V30 12006 H 1111.98 -1.95105 -7.47766 0
M  V30 12007 H 1110.33 -1.74791 -6.72661 0
M  V30 12008 H 1113.52 -0.894286 -4.59478 0
M  V30 12009 H 1113.69 -1.48504 -6.30754 0
M  V30 12010 N 1107.1 1.56929 -0.145233 0
M  V30 12011 C 1108.34 1.96068 0.50632 0
M  V30 12012 C 1108.67 1.02999 1.64989 0
M  V30 12013 O 1107.93 0.0588581 1.95611 0
M  V30 12014 C 1108.23 3.41467 1.05522 0
M  V30 12015 C 1107.89 4.5089 0.0302827 0
M  V30 12016 C 1106.55 4.80542 -0.251475 0
M  V30 12017 C 1108.91 5.16917 -0.666783 0
M  V30 12018 C 1106.23 5.7353 -1.23614 0
M  V30 12019 C 1108.59 6.10965 -1.64025 0
M  V30 12020 C 1107.25 6.38998 -1.92973 0
M  V30 12021 H 1106.52 0.717464 0.185276 0
M  V30 12022 H 1109.17 1.90093 -0.23169 0
M  V30 12023 H 1107.47 3.44265 1.87053 0
M  V30 12024 H 1109.17 3.69077 1.5679 0
M  V30 12025 H 1105.76 4.2781 0.260069 0
M  V30 12026 H 1109.94 4.94142 -0.462297 0
M  V30 12027 H 1105.2 5.93543 -1.46687 0
M  V30 12028 H 1109.37 6.61204 -2.18591 0
M  V30 12029 H 1107 7.10855 -2.69423 0
M  V30 12030 N 1108.58 -0.128553 1.57075 0
M  V30 12031 C 1109.82 -0.836355 1.83982 0
M  V30 12032 C 1110.14 -1.80862 0.728971 0
M  V30 12033 O 1109.41 -1.94326 -0.247859 0
M  V30 12034 H 1107.99 -0.31185 0.678792 0
M  V30 12035 H 1110.66 -0.118153 1.94542 0
M  V30 12036 H 1109.75 -1.38741 2.79567 0
M  V30 12037 N 1110.05 -1.5248 -0.398459 0
M  V30 12038 C 1111.47 -1.4152 -0.737854 0
M  V30 12039 C 1111.67 -0.528122 -1.94456 0
M  V30 12040 O 1110.73 0.00203799 -2.525 0
M  V30 12041 C 1112.04 -2.8422 -0.9818 0
M  V30 12042 C 1113.59 -2.93635 -1.08386 0
M  V30 12043 C 1114.06 -4.37327 -1.3605 0
M  V30 12044 N 1115.55 -4.40609 -1.42892 0
M  V30 12045 C 1116.29 -5.48863 -1.65944 0
M  V30 12046 N 1115.78 -6.67217 -1.86529 0
M  V30 12047 N 1117.58 -5.36393 -1.68046 0
M  V30 12048 H 1109.73 -2.08681 0.395705 0
M  V30 12049 H 1111.99 -0.941023 0.114801 0
M  V30 12050 H 1111.7 -3.51302 -0.167358 0
M  V30 12051 H 1111.57 -3.25907 -1.89907 0
M  V30 12052 H 1113.96 -2.26728 -1.88888 0
M  V30 12053 H 1114.04 -2.5539 -0.144714 0
M  V30 12054 H 1113.68 -5.04797 -0.56061 0
M  V30 12055 H 1113.61 -4.73116 -2.31233 0
M  V30 12056 H 1116.1 -3.55298 -1.2873 0
M  V30 12057 H 1116.42 -7.45498 -2.03599 0
M  V30 12058 H 1114.76 -6.70263 -1.83773 0
M  V30 12059 H 1117.95 -4.42903 -1.51509 0
M  V30 12060 H 1118.13 -6.2083 -1.85672 0
M  V30 12061 N 1111.53 0.65634 -1.43283 0
M  V30 12062 C 1112.48 1.76243 -1.44646 0
M  V30 12063 C 1113.47 1.5778 -0.31532 0
M  V30 12064 O 1114.66 1.67945 -0.558881 0
M  V30 12065 C 1111.79 3.14813 -1.36921 0
M  V30 12066 C 1110.87 3.38835 -2.55053 0
M  V30 12067 N 1111.26 3.33345 -3.80414 0
M  V30 12068 C 1109.56 3.69542 -2.4971 0
M  V30 12069 C 1110.26 3.57361 -4.58986 0
M  V30 12070 N 1109.24 3.79022 -3.8967 0
M  V30 12071 H 1113.04 1.70419 -2.39447 0
M  V30 12072 H 1110.55 0.85789 -1.37891 0
M  V30 12073 H 1112.55 3.941 -1.3598 0
M  V30 12074 H 1111.21 3.21822 -0.431381 0
M  V30 12075 H 1112.22 3.12827 -4.12747 0
M  V30 12076 H 1108.9 3.83684 -1.64598 0
M  V30 12077 H 1110.29 3.58921 -5.68001 0
M  V30 12078 N 1113.01 1.29761 0.894412 0
M  V30 12079 C 1113.94 1.17902 2.01547 0
M  V30 12080 C 1114.92 0.0719402 1.69948 0
M  V30 12081 O 1116.11 0.252338 1.92554 0
M  V30 12082 C 1113.24 0.860262 3.36477 0
M  V30 12083 C 1112.19 1.92424 3.82305 0
M  V30 12084 C 1111.52 1.45868 5.14419 0
M  V30 12085 C 1112.82 3.33391 4.02054 0
M  V30 12086 H 1114.51 2.11688 2.11727 0
M  V30 12087 H 1112.06 1.01916 1.01731 0
M  V30 12088 H 1114.01 0.763987 4.14417 0
M  V30 12089 H 1112.73 -0.113289 3.26403 0
M  V30 12090 H 1111.39 2.00999 3.06586 0
M  V30 12091 H 1111.04 0.473654 5.00765 0
M  V30 12092 H 1110.74 2.17028 5.46052 0
M  V30 12093 H 1112.26 1.37601 5.94894 0
M  V30 12094 H 1113.68 3.27628 4.7046 0
M  V30 12095 H 1112.07 4.02555 4.4505 0
M  V30 12096 H 1113.14 3.75978 3.06216 0
M  V30 12097 N 1114.49 -1.10549 1.12324 0
M  V30 12098 C 1115.43 -2.16858 0.790024 0
M  V30 12099 C 1116.4 -1.64317 -0.242694 0
M  V30 12100 O 1117.59 -1.90438 -0.117531 0
M  V30 12101 C 1114.73 -3.44197 0.249503 0
M  V30 12102 C 1113.84 -4.10696 1.33989 0
M  V30 12103 C 1112.98 -5.25751 0.758932 0
M  V30 12104 C 1112.02 -5.8415 1.82853 0
M  V30 12105 N 1111.15 -6.90585 1.26637 0
M  V30 12106 H 1115.99 -2.44705 1.7007 0
M  V30 12107 H 1113.53 -1.20117 0.849141 0
M  V30 12108 H 1115.49 -4.1712 -0.0819251 0
M  V30 12109 H 1114.12 -3.16705 -0.624332 0
M  V30 12110 H 1113.17 -3.35754 1.78812 0
M  V30 12111 H 1114.48 -4.50144 2.14875 0
M  V30 12112 H 1113.64 -6.05521 0.378104 0
M  V30 12113 H 1112.38 -4.87632 -0.0811405 0
M  V30 12114 H 1111.38 -5.03051 2.21856 0
M  V30 12115 H 1112.61 -6.24333 2.6718 0
M  V30 12116 H 1110.55 -6.54468 0.448105 0
M  V30 12117 H 1110.47 -7.28739 2.01184 0
M  V30 12118 H 1111.74 -7.74138 0.912737 0
M  V30 12119 N 1115.97 -0.914965 -1.28321 0
M  V30 12120 C 1116.88 -0.409424 -2.31 0
M  V30 12121 C 1117.89 0.503526 -1.66555 0
M  V30 12122 O 1119.07 0.38942 -1.97599 0
M  V30 12123 C 1116.13 0.34123 -3.45017 0
M  V30 12124 C 1115.19 -0.605087 -4.25014 0
M  V30 12125 C 1114.43 0.109837 -5.33587 0
M  V30 12126 O 1114.65 1.33136 -5.54645 0
M  V30 12127 O 1113.58 -0.555474 -5.99331 0
M  V30 12128 H 1117.41 -1.26167 -2.76253 0
M  V30 12129 H 1114.99 -0.679831 -1.33036 0
M  V30 12130 H 1116.88 0.765132 -4.14396 0
M  V30 12131 H 1115.55 1.16929 -3.01843 0
M  V30 12132 H 1114.46 -1.07841 -3.58219 0
M  V30 12133 H 1115.79 -1.39999 -4.7187 0
M  V30 12134 N 1117.44 1.42219 -0.679077 0
M  V30 12135 C 1118.41 2.29197 -0.0125475 0
M  V30 12136 C 1119.41 1.43544 0.724691 0
M  V30 12137 O 1120.6 1.64884 0.562052 0
M  V30 12138 C 1117.73 3.26122 0.992846 0
M  V30 12139 H 1118.92 2.89629 -0.778154 0
M  V30 12140 H 1116.47 1.4993 -0.44166 0
M  V30 12141 H 1117.21 2.70637 1.78679 0
M  V30 12142 H 1116.99 3.89302 0.467544 0
M  V30 12143 H 1118.48 3.91339 1.45751 0
M  V30 12144 N 1118.92 0.422693 1.51826 0
M  V30 12145 C 1119.85 -0.440987 2.23899 0
M  V30 12146 C 1120.83 -1.03685 1.25252 0
M  V30 12147 O 1122.02 -1.08212 1.54345 0
M  V30 12148 C 1119.14 -1.61331 2.97809 0
M  V30 12149 C 1118.19 -1.13954 4.10995 0
M  V30 12150 S 1119.02 -0.0935426 5.35418 0
M  V30 12151 C 1120.18 -1.27087 6.12862 0
M  V30 12152 H 1120.41 0.170945 2.96808 0
M  V30 12153 H 1117.94 0.20709 1.53005 0
M  V30 12154 H 1119.9 -2.28546 3.40994 0
M  V30 12155 H 1118.56 -2.19662 2.24516 0
M  V30 12156 H 1117.76 -2.01578 4.61933 0
M  V30 12157 H 1117.36 -0.545838 3.69995 0
M  V30 12158 H 1119.65 -2.19199 6.4106 0
M  V30 12159 H 1120.59 -0.801752 7.03546 0
M  V30 12160 H 1121 -1.50281 5.44129 0
M  V30 12161 N 1120.4 -1.5685 0.153553 0
M  V30 12162 C 1121.63 -2.00701 -0.502678 0
M  V30 12163 C 1122.04 -1.0337 -1.57988 0
M  V30 12164 O 1121.4 -0.0317233 -1.82472 0
M  V30 12165 C 1121.45 -3.44443 -1.09732 0
M  V30 12166 O 1121.17 -4.38054 -0.0631405 0
M  V30 12167 C 1122.67 -4.03605 -1.83352 0
M  V30 12168 H 1119.89 -0.658229 -0.130289 0
M  V30 12169 H 1122.44 -2.02965 0.250063 0
M  V30 12170 H 1120.59 -3.43009 -1.80065 0
M  V30 12171 H 1121.01 -5.22114 -0.499681 0
M  V30 12172 H 1122.48 -5.0616 -2.20241 0
M  V30 12173 H 1122.96 -3.44687 -2.7219 0
M  V30 12174 H 1123.56 -4.08688 -1.17703 0
M  V30 12175 N 1121.88 0.120221 -1.57141 0
M  V30 12176 C 1123.15 0.858458 -1.75755 0
M  V30 12177 C 1123.53 1.98124 -0.728693 0
M  V30 12178 O 1122.88 2.27155 0.247573 0
M  V30 12179 C 1123.09 1.37627 -3.20718 0
M  V30 12180 C 1124.44 1.82909 -3.83183 0
M  V30 12181 O 1125.46 1.47309 -3.24312 0
M  V30 12182 O 1124.32 2.4865 -4.86657 0
M  V30 12183 H 1121.42 0.407583 -0.719587 0
M  V30 12184 H 1123.96 0.104057 -1.69381 0
M  V30 12185 H 1122.74 0.570651 -3.87117 0
M  V30 12186 H 1122.36 2.19341 -3.31625 0
M  V30 12187 N 1123.36 1.52689 0.390367 0
M  V30 12188 C 1124.61 1.6689 1.13272 0
M  V30 12189 C 1124.92 0.414433 1.91159 0
M  V30 12190 O 1126.12 0.436559 2.67967 0
M  V30 12191 C 1124.58 2.94929 2.06264 0
M  V30 12192 C 1124.19 4.27551 1.33805 0
M  V30 12193 C 1125.93 3.18497 2.80642 0
M  V30 12194 C 1123.84 5.46698 2.25554 0
M  V30 12195 H 1122.77 0.621749 0.426549 0
M  V30 12196 H 1125.42 1.79185 0.395615 0
M  V30 12197 H 1123.8 2.76378 2.83604 0
M  V30 12198 H 1124.98 4.56651 0.616997 0
M  V30 12199 H 1123.29 4.10234 0.713913 0
M  V30 12200 H 1125.89 4.04693 3.49467 0
M  V30 12201 H 1126.23 2.33511 3.44642 0
M  V30 12202 H 1126.76 3.37607 2.10395 0
M  V30 12203 H 1123.5 6.34088 1.66171 0
M  V30 12204 H 1123.02 5.21913 2.95579 0
M  V30 12205 H 1124.7 5.80519 2.85668 0
M  V30 12206 N 1124.83 -0.648732 1.43629 0
M  V30 12207 C 1126.08 -1.40446 1.44768 0
M  V30 12208 C 1126.4 -1.95447 0.0773445 0
M  V30 12209 O 1127.6 -2.71479 -0.0337942 0
M  V30 12210 C 1126.06 -2.54194 2.54781 0
M  V30 12211 C 1125.67 -2.05781 3.97942 0
M  V30 12212 C 1127.41 -3.31529 2.65121 0
M  V30 12213 C 1125.32 -3.16767 4.99412 0
M  V30 12214 H 1124.25 -0.527717 0.538545 0
M  V30 12215 H 1126.9 -0.699756 1.69634 0
M  V30 12216 H 1125.28 -3.27156 2.23125 0
M  V30 12217 H 1126.45 -1.398 4.39081 0
M  V30 12218 H 1124.77 -1.41312 3.91688 0
M  V30 12219 H 1127.37 -4.14233 3.38105 0
M  V30 12220 H 1127.71 -3.79855 1.70341 0
M  V30 12221 H 1128.24 -2.65649 2.961 0
M  V30 12222 H 1124.98 -2.73404 5.9576 0
M  V30 12223 H 1124.5 -3.81445 4.62882 0
M  V30 12224 H 1126.18 -3.81827 5.22319 0
M  V30 12225 N 1126.31 -1.30234 -0.887518 0
M  V30 12226 C 1127.54 -1.21829 -1.67229 0
M  V30 12227 C 1127.96 0.219251 -1.87523 0
M  V30 12228 O 1127.31 1.14526 -1.42091 0
M  V30 12229 C 1127.36 -1.94044 -3.05007 0
M  V30 12230 O 1127.08 -3.32185 -2.85631 0
M  V30 12231 C 1128.59 -1.92265 -3.99436 0
M  V30 12232 H 1125.81 -0.421716 -0.521916 0
M  V30 12233 H 1128.35 -1.71816 -1.10903 0
M  V30 12234 H 1126.5 -1.47861 -3.58072 0
M  V30 12235 H 1126.92 -3.68724 -3.73018 0
M  V30 12236 H 1128.39 -2.47336 -4.93486 0
M  V30 12237 H 1128.87 -0.900984 -4.29859 0
M  V30 12238 H 1129.48 -2.38247 -3.52305 0
M  V30 12239 N 1127.79 1.09952 -1.12909 0
M  V30 12240 C 1128.72 2.18477 -0.824014 0
M  V30 12241 C 1129.7 1.68744 0.214324 0
M  V30 12242 O 1130.89 1.94057 0.0744281 0
M  V30 12243 C 1128.02 3.46143 -0.283308 0
M  V30 12244 C 1126.97 4.09178 -1.25528 0
M  V30 12245 C 1126.3 5.31604 -0.574574 0
M  V30 12246 C 1127.6 4.52308 -2.6118 0
M  V30 12247 H 1129.29 2.44254 -1.73148 0
M  V30 12248 H 1126.84 1.17394 -0.833952 0
M  V30 12249 H 1128.79 4.21361 -0.057583 0
M  V30 12250 H 1127.51 3.19872 0.659525 0
M  V30 12251 H 1126.17 3.35973 -1.4669 0
M  V30 12252 H 1125.82 5.01611 0.37356 0
M  V30 12253 H 1125.52 5.74732 -1.22299 0
M  V30 12254 H 1127.04 6.0955 -0.358004 0
M  V30 12255 H 1128.46 5.18776 -2.44017 0
M  V30 12256 H 1126.86 5.06302 -3.22147 0
M  V30 12257 H 1127.93 3.64977 -3.19249 0
M  V30 12258 N 1129.27 0.921757 1.27833 0
M  V30 12259 C 1130.52 0.559078 1.94629 0
M  V30 12260 C 1130.84 -0.898641 1.72495 0
M  V30 12261 O 1130.1 -1.65546 1.0437 0
M  V30 12262 C 1130.4 0.824259 3.47765 0
M  V30 12263 C 1130.06 2.26278 3.90011 0
M  V30 12264 C 1128.73 2.65607 4.01256 0
M  V30 12265 C 1131.08 3.19853 4.11513 0
M  V30 12266 C 1128.41 3.97646 4.31387 0
M  V30 12267 C 1130.76 4.51467 4.43126 0
M  V30 12268 C 1129.42 4.90637 4.52583 0
M  V30 12269 H 1128.69 0.204581 0.712199 0
M  V30 12270 H 1131.34 1.1646 1.52018 0
M  V30 12271 H 1129.64 0.136011 3.91564 0
M  V30 12272 H 1131.34 0.522701 3.97579 0
M  V30 12273 H 1127.93 1.94765 3.81791 0
M  V30 12274 H 1132.11 2.90674 4.02271 0
M  V30 12275 H 1127.37 4.27685 4.36916 0
M  V30 12276 H 1131.54 5.23982 4.58711 0
M  V30 12277 H 1129.17 5.92982 4.75685 0
M  V30 12278 N 1130.75 -1.41857 0.686609 0
M  V30 12279 C 1131.99 -2.0097 0.213378 0
M  V30 12280 C 1132.32 -1.54618 -1.1882 0
M  V30 12281 O 1131.59 -0.772916 -1.80008 0
M  V30 12282 H 1130.17 -0.743134 0.0758968 0
M  V30 12283 H 1132.83 -1.73609 0.885763 0
M  V30 12284 H 1131.92 -3.11296 0.223826 0
M  V30 12285 N 1132.22 -0.430739 -1.51599 0
M  V30 12286 C 1133.15 0.374695 -2.30474 0
M  V30 12287 C 1134.14 1.02694 -1.35602 0
M  V30 12288 O 1135.32 1.03184 -1.6452 0
M  V30 12289 C 1132.45 1.47981 -3.14196 0
M  V30 12290 C 1131.4 0.951415 -4.17291 0
M  V30 12291 C 1130.73 2.15177 -4.89492 0
M  V30 12292 C 1132.03 -0.00957951 -5.22299 0
M  V30 12293 H 1133.72 -0.283508 -2.98055 0
M  V30 12294 H 1131.27 -0.13779 -1.43339 0
M  V30 12295 H 1133.22 2.05043 -3.68151 0
M  V30 12296 H 1131.95 2.16621 -2.44424 0
M  V30 12297 H 1130.61 0.403052 -3.64378 0
M  V30 12298 H 1130.25 2.82421 -4.1623 0
M  V30 12299 H 1129.95 1.80464 -5.59202 0
M  V30 12300 H 1131.48 2.72806 -5.46269 0
M  V30 12301 H 1132.89 0.470527 -5.71366 0
M  V30 12302 H 1131.29 -0.268959 -5.99497 0
M  V30 12303 H 1132.36 -0.948297 -4.75537 0
M  V30 12304 N 1133.7 1.56767 -0.161869 0
M  V30 12305 C 1134.93 2.01401 0.49523 0
M  V30 12306 C 1135.35 1.04133 1.56646 0
M  V30 12307 O 1134.71 0.0193747 1.8129 0
M  V30 12308 C 1134.76 3.44695 1.05913 0
M  V30 12309 O 1133.86 3.50475 2.1735 0
M  V30 12310 H 1133.2 0.65314 0.1196 0
M  V30 12311 H 1135.73 2.02903 -0.26298 0
M  V30 12312 H 1135.74 3.83805 1.3841 0
M  V30 12313 H 1134.42 4.14991 0.274749 0
M  V30 12314 H 1133 3.23218 1.85969 0
M  V30 12315 N 1135.18 -0.111886 1.57202 0
M  V30 12316 C 1136.41 -0.836317 1.89791 0
M  V30 12317 C 1136.83 -1.72304 0.754513 0
M  V30 12318 O 1136.19 -1.78889 -0.294672 0
M  V30 12319 C 1136.24 -1.63971 3.21164 0
M  V30 12320 O 1135.34 -2.74726 3.0757 0
M  V30 12321 H 1134.68 -0.230833 0.622585 0
M  V30 12322 H 1137.21 -0.0921478 2.04392 0
M  V30 12323 H 1137.22 -2.02746 3.54059 0
M  V30 12324 H 1135.9 -0.98882 4.03974 0
M  V30 12325 H 1134.47 -2.39101 2.86156 0
M  V30 12326 N 1136.66 -1.52894 -0.382264 0
M  V30 12327 C 1137.61 -1.78799 -1.48774 0
M  V30 12328 C 1138.6 -0.65624 -1.56173 0
M  V30 12329 O 1139.81 -0.838856 -1.59258 0
M  V30 12330 H 1136.18 -0.565855 -0.49529 0
M  V30 12331 H 1138.15 -2.7136 -1.24122 0
M  V30 12332 C 1136.9 -1.97987 -2.85826 0
M  V30 12333 H 1136.22 -2.84505 -2.80886 0
M  V30 12334 H 1137.66 -2.20099 -3.62398 0
M  V30 12335 C 1136.12 -0.75427 -3.28348 0
M  V30 12336 O 1136.65 0.0650749 -4.01647 0
M  V30 12337 N 1134.86 -0.582457 -2.84703 0
M  V30 12338 H 1134.41 -1.25034 -2.2522 0
M  V30 12339 H 1134.36 0.236208 -3.13511 0
M  V30 12340 N 1138.14 0.641106 -1.43971 0
M  V30 12341 C 1139.36 1.43324 -1.4991 0
M  V30 12342 C 1139.79 1.87705 -0.121908 0
M  V30 12343 O 1139.15 1.58127 0.886875 0
M  V30 12344 C 1139.19 2.63637 -2.46025 0
M  V30 12345 O 1138.3 3.63123 -1.95488 0
M  V30 12346 H 1137.64 0.429252 -0.506595 0
M  V30 12347 H 1140.17 0.783427 -1.89007 0
M  V30 12348 H 1140.18 3.11304 -2.63731 0
M  V30 12349 H 1138.85 2.30678 -3.46064 0
M  V30 12350 H 1137.43 3.22332 -1.87501 0
M  V30 12351 N 1139.62 1.30703 0.880598 0
M  V30 12352 C 1140.56 1.17455 1.98678 0
M  V30 12353 C 1141.53 0.0629569 1.65981 0
M  V30 12354 O 1142.72 0.233926 1.89361 0
M  V30 12355 C 1139.86 0.876882 3.33774 0
M  V30 12356 C 1138.97 2.07078 3.79134 0
M  V30 12357 C 1138.11 1.71082 5.02896 0
M  V30 12358 C 1137.14 2.86942 5.40676 0
M  V30 12359 N 1136.28 2.51212 6.55619 0
M  V30 12360 H 1141.12 2.12086 2.09341 0
M  V30 12361 H 1138.66 1.05514 1.02495 0
M  V30 12362 H 1140.62 0.684899 4.1154 0
M  V30 12363 H 1139.25 -0.0325633 3.22784 0
M  V30 12364 H 1138.3 2.37388 2.97239 0
M  V30 12365 H 1139.61 2.9383 4.0307 0
M  V30 12366 H 1138.76 1.48284 5.883 0
M  V30 12367 H 1137.5 0.815064 4.80841 0
M  V30 12368 H 1136.51 3.10401 4.53797 0
M  V30 12369 H 1137.73 3.77211 5.64703 0
M  V30 12370 H 1135.68 1.64147 6.35131 0
M  V30 12371 H 1135.6 3.31495 6.79446 0
M  V30 12372 H 1136.86 2.31781 7.44243 0
M  V30 12373 N 1141.09 -1.09351 1.1349 0
M  V30 12374 C 1142.04 -2.16008 0.812981 0
M  V30 12375 C 1143.01 -1.64566 -0.225252 0
M  V30 12376 O 1144.2 -1.90552 -0.0973261 0
M  V30 12377 C 1141.34 -3.43913 0.285996 0
M  V30 12378 C 1140.45 -4.09251 1.38338 0
M  V30 12379 C 1139.58 -5.24916 0.814652 0
M  V30 12380 C 1138.62 -5.82178 1.89038 0
M  V30 12381 N 1137.76 -6.89203 1.33955 0
M  V30 12382 H 1142.6 -2.42887 1.72655 0
M  V30 12383 H 1140.14 -1.19209 0.861833 0
M  V30 12384 H 1142.09 -4.17183 -0.0376794 0
M  V30 12385 H 1140.72 -3.17349 -0.590707 0
M  V30 12386 H 1139.78 -3.33838 1.82363 0
M  V30 12387 H 1141.09 -4.4784 2.19638 0
M  V30 12388 H 1140.24 -6.05086 0.442306 0
M  V30 12389 H 1138.98 -4.87691 -0.029416 0
M  V30 12390 H 1137.99 -5.00669 2.27179 0
M  V30 12391 H 1139.21 -6.21464 2.73787 0
M  V30 12392 H 1137.16 -6.53956 0.517494 0
M  V30 12393 H 1137.07 -7.26565 2.08902 0
M  V30 12394 H 1138.34 -7.73126 0.994793 0
M  V30 12395 O 1142.61 -1.05975 -1.21867 0
M  V30 12396 H 1143.3 -0.739585 -1.79025 0
M  V30 END ATOM
M  V30 BEGIN BOND
M  V30 END BOND
M  V30 END CTAB
M  END
$$$$
