drugbank_target|Q9KU37 Beta-hexosaminidase (DB07432; DB08704)
 OpenBabel12092120423D

  0  0  0     0  0            999 V3000
M  V30 BEGIN CTAB
M  V30 COUNTS 5087 5140 0 0 0
M  V30 BEGIN ATOM
M  V30 1 H -0.908 1.98254 -0.117106 0
M  V30 2 N 0 1.576 0 0
M  V30 3 C 0.933 2.03868 1.02534 0
M  V30 4 C 1.911 0.928543 1.3348 0
M  V30 5 O 3.095 1.19667 1.45644 0
M  V30 6 C 0.222 2.43627 2.35294 0
M  V30 7 C -0.732 3.65373 2.2001 0
M  V30 8 S 0.101 5.13292 1.52614 0
M  V30 9 C 1.257 5.56322 2.86805 0
M  V30 10 H 1.49 2.90518 0.631377 0
M  V30 11 H -0.977 1.52953 0.210867 0
M  V30 12 H 0.981 2.67203 3.11629 0
M  V30 13 H -0.358 1.57376 2.7183 0
M  V30 14 H -1.165 3.90944 3.18086 0
M  V30 15 H -1.563 3.418 1.51819 0
M  V30 16 H 0.729 5.58782 3.83104 0
M  V30 17 H 1.672 6.56266 2.65933 0
M  V30 18 H 2.08 4.83886 2.90714 0
M  V30 19 N 1.4781 -0.272755 1.55222 0
M  V30 20 C 2.7261 -1.00234 1.75492 0
M  V30 21 C 3.0471 -1.8681 0.5592 0
M  V30 22 O 2.3171 -1.91215 -0.425882 0
M  V30 23 H 0.8971 -0.373076 0.647166 0
M  V30 24 H 3.5591 -0.296926 1.92625 0
M  V30 25 H 2.6551 -1.63913 2.65592 0
M  V30 26 N 2.9562 -1.48159 -0.537278 0
M  V30 27 C 4.3672 -1.49429 -1.11928 0
M  V30 28 C 4.7182 -0.26 -1.9447 0
M  V30 29 O 3.8432 0.633489 -2.0692 0
M  V30 30 C 4.4382 -2.70758 -2.03656 0
M  V30 31 C 2.9972 -2.74923 -2.57088 0
M  V30 32 C 2.1442 -2.42835 -1.3389 0
M  V30 33 H 5.0952 -1.55381 -0.322886 0
M  V30 34 H 5.1162 -2.48861 -2.87834 0
M  V30 35 H 4.6282 -3.60575 -1.43553 0
M  V30 36 H 2.7292 -1.89296 -3.20933 0
M  V30 37 H 2.8422 -3.76157 -2.9672 0
M  V30 38 H 1.2062 -1.93836 -1.65226 0
M  V30 39 H 1.9892 -3.34884 -0.755504 0
M  V30 40 N 4.4343 0.785586 -1.36625 0
M  V30 41 C 5.3643 1.91259 -1.33949 0
M  V30 42 C 6.3453 1.68795 -0.210325 0
M  V30 43 O 7.5303 1.89854 -0.408561 0
M  V30 44 C 4.6603 3.28339 -1.13186 0
M  V30 45 C 3.6143 3.65335 -2.22967 0
M  V30 46 C 2.9403 5.00806 -1.87342 0
M  V30 47 C 4.2403 3.7352 -3.65075 0
M  V30 48 H 5.9343 1.93755 -2.28253 0
M  V30 49 H 3.4803 0.930788 -1.09874 0
M  V30 50 H 5.4333 4.06804 -1.09948 0
M  V30 51 H 4.1573 3.2624 -0.153332 0
M  V30 52 H 2.8163 2.89169 -2.25337 0
M  V30 53 H 2.4643 4.95233 -0.880545 0
M  V30 54 H 2.1643 5.26529 -2.60846 0
M  V30 55 H 3.6883 5.81687 -1.85667 0
M  V30 56 H 5.1023 4.42168 -3.64911 0
M  V30 57 H 3.4993 4.10731 -4.37516 0
M  V30 58 H 4.5693 2.74527 -3.99703 0
M  V30 59 N 5.9124 1.20967 1.01018 0
M  V30 60 C 7.1584 1.0353 1.7508 0
M  V30 61 C 7.5134 -0.42734 1.87594 0
M  V30 62 O 6.8064 -1.31298 1.3954 0
M  V30 63 C 7.0004 1.65997 3.16512 0
M  V30 64 C 6.8294 3.18184 3.17788 0
M  V30 65 C 5.5994 3.87198 3.24662 0
M  V30 66 C 7.7974 4.15334 3.03319 0
M  V30 67 N 5.7794 5.26618 3.15509 0
M  V30 68 C 7.1504 5.41472 3.02007 0
M  V30 69 C 9.2054 4.06449 2.87583 0
M  V30 70 C 7.9084 6.5975 2.86571 0
M  V30 71 C 9.9344 5.24357 2.73503 0
M  V30 72 C 9.2964 6.49404 2.72862 0
M  V30 73 H 5.3954 0.433137 0.651089 0
M  V30 74 H 7.9794 1.5324 1.20107 0
M  V30 75 H 6.1504 1.18863 3.69765 0
M  V30 76 H 7.8824 1.41816 3.79039 0
M  V30 77 H 4.6374 3.38093 3.31648 0
M  V30 78 H 5.0614 5.99626 3.14289 0
M  V30 79 H 9.7034 3.10573 2.86887 0
M  V30 80 H 7.4214 7.55792 2.86015 0
M  V30 81 H 11.0074 5.19299 2.62334 0
M  V30 82 H 9.8874 7.39105 2.62093 0
M  V30 83 N 7.3905 -1.2043 1.01659 0
M  V30 84 C 8.3205 -2.25466 0.607226 0
M  V30 85 C 9.3015 -1.65853 -0.377716 0
M  V30 86 O 10.4865 -1.92409 -0.263149 0
M  V30 87 C 7.6165 -3.47256 -0.0552949 0
M  V30 88 C 6.5705 -4.19462 0.850632 0
M  V30 89 C 5.8965 -5.34673 0.0538859 0
M  V30 90 C 7.1965 -4.75603 2.15868 0
M  V30 91 H 8.8905 -2.59962 1.48526 0
M  V30 92 H 6.4365 -1.2496 0.715605 0
M  V30 93 H 8.3895 -4.19917 -0.353233 0
M  V30 94 H 7.1135 -3.11924 -0.968045 0
M  V30 95 H 5.7725 -3.48667 1.13257 0
M  V30 96 H 5.4205 -4.95585 -0.860514 0
M  V30 97 H 5.1205 -5.83913 0.657192 0
M  V30 98 H 6.6445 -6.10138 -0.237598 0
M  V30 99 H 8.0585 -5.40083 1.92311 0
M  V30 100 H 6.4555 -5.3528 2.71284 0
M  V30 101 H 7.5255 -3.94346 2.82169 0
M  V30 102 N 8.8686 -0.792821 -1.36206 0
M  V30 103 C 10.1456 -0.290627 -1.93429 0
M  V30 104 C 10.5256 1.21773 -1.72437 0
M  V30 105 O 9.8736 2.0108 -1.08531 0
M  V30 106 C 10.0836 -0.686973 -3.42172 0
M  V30 107 C 11.4316 -0.668643 -4.19302 0
M  V30 108 O 12.4556 -0.627658 -3.50626 0
M  V30 109 O 11.3146 -0.714597 -5.41808 0
M  V30 110 H 8.4086 -0.0727927 -0.82379 0
M  V30 111 H 10.9546 -0.875593 -1.45367 0
M  V30 112 H 9.7266 -1.72711 -3.51122 0
M  V30 113 H 9.3496 -0.0760733 -3.97527 0
M  V30 114 N 10.3467 1.47872 -0.545128 0
M  V30 115 C 11.5927 2.02793 -0.0166104 0
M  V30 116 C 11.9257 1.41987 1.32489 0
M  V30 117 O 11.2007 0.571045 1.85928 0
M  V30 118 C 11.4837 3.59989 0.0893294 0
M  V30 119 C 11.3367 4.3125 -1.27841 0
M  V30 120 C 12.6557 4.32606 0.808724 0
M  V30 121 H 9.7747 0.736962 -0.00751035 0
M  V30 122 H 12.4167 1.76433 -0.705085 0
M  V30 123 H 10.5667 3.82579 0.675681 0
M  V30 124 H 12.2387 4.20035 -1.90704 0
M  V30 125 H 10.4817 3.92076 -1.85632 0
M  V30 126 H 11.1527 5.39736 -1.15713 0
M  V30 127 H 13.6287 4.14936 0.310992 0
M  V30 128 H 12.5047 5.42251 0.851782 0
M  V30 129 H 12.7657 4.00963 1.86229 0
M  V30 130 N 11.8248 0.280983 1.55075 0
M  V30 131 C 12.7878 -0.590896 2.21452 0
M  V30 132 C 13.7878 -1.07682 1.19421 0
M  V30 133 O 14.9778 -0.97605 1.44288 0
M  V30 134 C 12.1098 -1.81587 2.88511 0
M  V30 135 H 13.3028 -0.0112554 2.99898 0
M  V30 136 H 10.8558 0.0316438 1.56268 0
M  V30 137 H 11.5908 -2.43587 2.14093 0
M  V30 138 H 11.3758 -1.4753 3.63287 0
M  V30 139 H 12.8658 -2.43575 3.39206 0
M  V30 140 N 13.3029 -1.57598 0.00835791 0
M  V30 141 C 14.5509 -1.90551 -0.6734 0
M  V30 142 C 14.8719 -0.883301 -1.73847 0
M  V30 143 O 14.1419 0.0781442 -1.95744 0
M  V30 144 H 12.7219 -0.703312 -0.251717 0
M  V30 145 H 15.3839 -1.94833 0.0512592 0
M  V30 146 H 14.4799 -2.9056 -1.13935 0
M  V30 147 N 14.781 0.264519 -1.55364 0
M  V30 148 C 16.011 1.01153 -1.80143 0
M  V30 149 C 16.419 1.80115 -0.579253 0
M  V30 150 O 15.762 1.77813 0.46132 0
M  V30 151 C 15.824 2.01098 -2.97993 0
M  V30 152 C 15.488 1.40995 -4.34706 0
M  V30 153 C 16.485 0.821316 -5.13372 0
M  V30 154 C 14.17 1.43461 -4.81378 0
M  V30 155 C 16.164 0.265339 -6.36847 0
M  V30 156 C 13.851 0.874771 -6.04807 0
M  V30 157 C 14.849 0.291146 -6.82379 0
M  V30 158 O 14.537 -0.260093 -8.03479 0
M  V30 159 H 14.269 0.304125 -0.603725 0
M  V30 160 H 16.823 0.298089 -2.03225 0
M  V30 161 H 15.053 2.76224 -2.70623 0
M  V30 162 H 16.742 2.61997 -3.1002 0
M  V30 163 H 17.508 0.794903 -4.78442 0
M  V30 164 H 13.387 1.87826 -4.21002 0
M  V30 165 H 16.931 -0.190837 -6.97339 0
M  V30 166 H 12.828 0.898452 -6.39217 0
M  V30 167 H 13.596 -0.150265 -8.18362 0
M  V30 168 N 16.2591 1.48442 0.529413 0
M  V30 169 C 17.1691 1.6569 1.66084 0
M  V30 170 C 18.1851 0.539432 1.65427 0
M  V30 171 O 19.3611 0.810572 1.84368 0
M  V30 172 C 16.4261 1.69315 3.02545 0
M  V30 173 C 15.4871 2.92694 3.14052 0
M  V30 174 C 14.7201 2.96137 4.44003 0
M  V30 175 O 14.9431 2.07973 5.31134 0
M  V30 176 O 13.8771 3.88312 4.59888 0
M  V30 177 H 17.7031 2.61483 1.54469 0
M  V30 178 H 15.2881 1.3185 0.702567 0
M  V30 179 H 17.1701 1.74217 3.83701 0
M  V30 180 H 15.8451 0.766966 3.14483 0
M  V30 181 H 14.7521 2.93324 2.32189 0
M  V30 182 H 16.0851 3.84699 3.0703 0
M  V30 183 N 17.7372 -0.778329 1.37039 0
M  V30 184 C 18.6672 -1.90546 1.34962 0
M  V30 185 C 19.6482 -1.68681 0.219274 0
M  V30 186 O 20.8332 -1.89634 0.418624 0
M  V30 187 C 17.9632 -3.27734 1.14925 0
M  V30 188 C 16.9172 -3.64147 2.24902 0
M  V30 189 C 16.2432 -4.99806 1.89996 0
M  V30 190 C 17.5432 -3.71579 3.67051 0
M  V30 191 H 19.2372 -1.92541 2.29277 0
M  V30 192 H 16.7832 -0.924948 1.10366 0
M  V30 193 H 18.7362 -4.06215 1.12104 0
M  V30 194 H 17.4602 -3.26154 0.170631 0
M  V30 195 H 16.1192 -2.8797 2.26868 0
M  V30 196 H 15.7672 -4.94759 0.906796 0
M  V30 197 H 15.4672 -5.25139 2.63634 0
M  V30 198 H 16.9912 -5.80694 1.88749 0
M  V30 199 H 18.4052 -4.40227 3.67251 0
M  V30 200 H 16.8022 -4.08405 4.39688 0
M  V30 201 H 17.8722 -2.72404 4.01154 0
M  V30 202 N 19.2153 -1.21501 -1.00376 0
M  V30 203 C 20.4403 -1.05977 -1.78279 0
M  V30 204 C 20.8653 0.385994 -1.84097 0
M  V30 205 O 20.2233 1.27849 -1.28547 0
M  V30 206 C 20.2713 -1.66302 -3.19963 0
M  V30 207 O 19.3753 -0.909333 -4.0225 0
M  V30 208 H 18.7163 -0.372906 -0.549397 0
M  V30 209 H 21.2463 -1.6107 -1.26165 0
M  V30 210 H 21.2563 -1.70574 -3.70632 0
M  V30 211 H 19.9313 -2.71515 -3.15043 0
M  V30 212 H 18.5083 -0.941795 -3.60811 0
M  V30 213 N 20.6934 1.19889 -1.02296 0
M  V30 214 C 21.6564 2.21116 -0.603351 0
M  V30 215 C 22.6564 1.5738 0.329884 0
M  V30 216 O 23.8464 1.73802 0.117702 0
M  V30 217 C 20.9784 3.40696 0.117992 0
M  V30 218 H 22.1714 2.59754 -1.49893 0
M  V30 219 H 19.7244 1.33463 -0.813468 0
M  V30 220 H 20.4594 3.07569 1.0282 0
M  V30 221 H 20.2444 3.88188 -0.552511 0
M  V30 222 H 21.7344 4.15692 0.398696 0
M  V30 223 N 22.1715 0.800033 1.35784 0
M  V30 224 C 23.0815 0.207204 2.33683 0
M  V30 225 C 24.0975 -0.64631 1.61551 0
M  V30 226 O 25.2735 -0.559604 1.93469 0
M  V30 227 C 22.3385 -0.639659 3.40748 0
M  V30 228 C 21.3995 0.233585 4.28664 0
M  V30 229 C 20.6325 -0.572954 5.30616 0
M  V30 230 O 20.8555 -1.80816 5.40982 0
M  V30 231 O 19.7895 0.0327285 6.01891 0
M  V30 232 H 23.6155 1.01692 2.86169 0
M  V30 233 H 21.2005 0.561691 1.38439 0
M  V30 234 H 23.0825 -1.12223 4.06182 0
M  V30 235 H 21.7575 -1.42708 2.90544 0
M  V30 236 H 20.6645 0.763147 3.66233 0
M  V30 237 H 21.9975 0.984784 4.82248 0
M  V30 238 N 23.6496 -1.47581 0.552962 0
M  V30 239 C 24.9266 -1.95563 -0.0381515 0
M  V30 240 C 25.3066 -1.49552 -1.48988 0
M  V30 241 O 24.6546 -0.732414 -2.16444 0
M  V30 242 C 24.8646 -3.48848 0.102919 0
M  V30 243 C 26.2126 -4.24577 -0.0446082 0
M  V30 244 O 27.2366 -3.56187 0.0302548 0
M  V30 245 O 26.0956 -5.46116 -0.204923 0
M  V30 246 H 23.1896 -0.824321 -0.0665067 0
M  V30 247 H 25.7356 -1.58001 0.619186 0
M  V30 248 H 24.5076 -3.75129 1.11328 0
M  V30 249 H 24.1306 -3.93165 -0.592224 0
M  V30 250 N 25.1277 -0.289203 -1.54924 0
M  V30 251 C 26.5437 0.0645403 -1.59469 0
M  V30 252 C 26.7437 1.53419 -1.30632 0
M  V30 253 O 25.7997 2.2852 -1.074 0
M  V30 254 C 27.1127 -0.32278 -2.98963 0
M  V30 255 C 28.6607 -0.270564 -3.11828 0
M  V30 256 C 29.1357 -0.632532 -4.53611 0
M  V30 257 N 30.6267 -0.584617 -4.59496 0
M  V30 258 C 31.3617 -0.837314 -5.67254 0
M  V30 259 N 30.8577 -1.15536 -6.83098 0
M  V30 260 N 32.6507 -0.765166 -5.56868 0
M  V30 261 H 24.8017 -1.24714 -1.71931 0
M  V30 262 H 27.0647 -0.504809 -0.802416 0
M  V30 263 H 26.7707 -1.34541 -3.24948 0
M  V30 264 H 26.6447 0.32944 -3.75759 0
M  V30 265 H 29.0317 0.742805 -2.85598 0
M  V30 266 H 29.1127 -0.957242 -2.37214 0
M  V30 267 H 28.7567 -1.64365 -4.80569 0
M  V30 268 H 28.6867 0.07609 -5.26545 0
M  V30 269 H 31.1777 -0.349248 -3.76283 0
M  V30 270 H 31.4907 -1.33447 -7.61191 0
M  V30 271 H 29.8357 -1.19328 -6.84679 0
M  V30 272 H 33.0267 -0.516432 -4.65243 0
M  V30 273 H 33.1997 -0.965477 -6.40767 0
M  V30 274 N 26.6058 1.57591 -0.0167156 0
M  V30 275 C 27.5158 2.1291 0.98521 0
M  V30 276 C 28.5318 1.07834 1.36557 0
M  V30 277 O 29.7078 1.39826 1.44951 0
M  V30 278 C 26.7728 2.63512 2.25305 0
M  V30 279 C 25.8338 3.83256 1.93426 0
M  V30 280 C 25.0668 4.31435 3.14165 0
M  V30 281 O 25.2898 3.78851 4.26413 0
M  V30 282 O 24.2238 5.23416 2.97186 0
M  V30 283 H 28.0498 2.98772 0.544888 0
M  V30 284 H 25.6348 1.48012 0.203141 0
M  V30 285 H 27.5168 2.96183 2.99756 0
M  V30 286 H 26.1918 1.8074 2.68542 0
M  V30 287 H 25.0988 3.55531 1.16398 0
M  V30 288 H 26.4318 4.67153 1.55013 0
M  V30 289 N 28.0839 -0.256276 1.55502 0
M  V30 290 C 29.3329 -0.983486 1.76098 0
M  V30 291 C 29.6459 -1.86837 0.578896 0
M  V30 292 O 30.8519 -2.63163 0.667648 0
M  V30 293 C 29.3079 -1.79868 3.1173 0
M  V30 294 C 28.9159 -0.961648 4.37557 0
M  V30 295 C 30.6599 -2.51919 3.41668 0
M  V30 296 C 28.5669 -1.77219 5.64223 0
M  V30 297 H 27.4969 -0.370936 0.656447 0
M  V30 298 H 30.1479 -0.238492 1.81944 0
M  V30 299 H 28.5299 -2.58527 2.99966 0
M  V30 300 H 29.7039 -0.218048 4.60284 0
M  V30 301 H 28.0189 -0.354913 4.14885 0
M  V30 302 H 30.6159 -3.12998 4.33516 0
M  V30 303 H 30.9589 -3.23059 2.62562 0
M  V30 304 H 31.4919 -1.80278 3.54605 0
M  V30 305 H 28.2309 -1.10471 6.46124 0
M  V30 306 H 27.7509 -2.49132 5.45613 0
M  V30 307 H 29.4299 -2.34169 6.03137 0
M  V30 308 N 29.562 -1.4872 -0.521534 0
M  V30 309 C 30.492 -1.66771 -1.63431 0
M  V30 310 C 31.473 -0.516499 -1.62069 0
M  V30 311 O 32.658 -0.750013 -1.79132 0
M  V30 312 C 29.788 -1.71515 -3.01993 0
M  V30 313 C 28.742 -2.86222 -3.18216 0
M  V30 314 C 28.068 -2.76061 -4.57924 0
M  V30 315 C 29.368 -4.27419 -3.00184 0
M  V30 316 H 31.062 -2.59932 -1.48579 0
M  V30 317 H 28.608 -1.25089 -0.713358 0
M  V30 318 H 30.561 -1.82731 -3.7972 0
M  V30 319 H 29.285 -0.749393 -3.17886 0
M  V30 320 H 27.944 -2.74575 -2.42908 0
M  V30 321 H 27.592 -1.77437 -4.70665 0
M  V30 322 H 27.292 -3.53037 -4.69722 0
M  V30 323 H 28.816 -2.89256 -5.37739 0
M  V30 324 H 30.23 -4.39855 -3.67697 0
M  V30 325 H 28.627 -5.05458 -3.2347 0
M  V30 326 H 29.697 -4.43293 -1.96518 0
M  V30 327 N 31.0401 0.771051 -1.3745 0
M  V30 328 C 31.9721 1.89352 -1.29146 0
M  V30 329 C 32.9851 1.61477 -0.207124 0
M  V30 330 O 34.1741 1.72382 -0.463324 0
M  V30 331 C 31.2741 3.24596 -0.974195 0
M  V30 332 C 30.4471 3.80111 -2.16413 0
M  V30 333 C 29.5061 4.93832 -1.81703 0
M  V30 334 O 28.5321 5.09382 -2.54006 0
M  V30 335 N 29.7341 5.75483 -0.761573 0
M  V30 336 H 32.4991 1.96991 -2.25864 0
M  V30 337 H 30.0601 0.950191 -1.31084 0
M  V30 338 H 32.0521 3.98193 -0.722828 0
M  V30 339 H 30.6221 3.12454 -0.0955527 0
M  V30 340 H 29.8421 2.98284 -2.57721 0
M  V30 341 H 31.1301 4.13932 -2.95867 0
M  V30 342 H 30.5281 5.65469 -0.161609 0
M  V30 343 H 29.0851 6.49302 -0.570064 0
M  V30 344 N 32.5182 1.22032 0.997298 0
M  V30 345 C 33.4682 0.953838 2.07089 0
M  V30 346 C 34.4522 -0.0938669 1.60626 0
M  V30 347 O 35.6442 0.116078 1.76619 0
M  V30 348 C 32.7732 0.528726 3.39204 0
M  V30 349 C 31.8592 1.61092 3.92314 0
M  V30 350 N 32.2502 2.83768 4.18699 0
M  V30 351 C 30.5482 1.48158 4.20672 0
M  V30 352 C 31.2492 3.53715 4.61802 0
M  V30 353 N 30.2252 2.81174 4.65233 0
M  V30 354 H 34.0272 1.88577 2.25424 0
M  V30 355 H 31.5412 1.11719 1.17867 0
M  V30 356 H 33.5382 0.31915 4.15677 0
M  V30 357 H 32.1982 -0.39635 3.22272 0
M  V30 358 H 33.2092 3.20238 4.07023 0
M  V30 359 H 29.8862 0.622369 4.12835 0
M  V30 360 H 31.2762 4.58793 4.90875 0
M  V30 361 N 33.9963 -1.19345 1.0293 0
M  V30 362 C 35.4073 -1.70725 0.755633 0
M  V30 363 C 35.7583 -1.82326 -0.724676 0
M  V30 364 O 34.8833 -1.49471 -1.56484 0
M  V30 365 C 35.4783 -3.10084 1.36503 0
M  V30 366 C 34.0373 -3.58723 1.13994 0
M  V30 367 C 33.1843 -2.35577 1.46283 0
M  V30 368 H 36.1353 -1.0418 1.19718 0
M  V30 369 H 36.1563 -3.72787 0.762217 0
M  V30 370 H 35.6683 -3.01609 2.44241 0
M  V30 371 H 33.7693 -3.72512 0.0807901 0
M  V30 372 H 33.8823 -4.42816 1.82894 0
M  V30 373 H 32.2463 -2.38935 0.88217 0
M  V30 374 H 33.0293 -2.29731 2.55105 0
M  V30 375 N 35.4744 -0.807222 -1.35358 0
M  V30 376 C 36.7024 -0.400377 -2.02989 0
M  V30 377 C 37.1174 0.988859 -1.60832 0
M  V30 378 O 36.4744 1.63729 -0.806175 0
M  V30 379 C 36.5254 -0.474867 -3.58368 0
M  V30 380 O 36.2464 -1.80933 -3.98992 0
M  V30 381 C 37.7474 -0.0609112 -4.43258 0
M  V30 382 H 34.9674 -0.162587 -0.651004 0
M  V30 383 H 37.5114 -1.09102 -1.72965 0
M  V30 384 H 35.6664 0.167534 -3.87038 0
M  V30 385 H 36.0804 -1.77256 -4.9364 0
M  V30 386 H 37.5544 -0.164145 -5.51756 0
M  V30 387 H 38.0314 0.993831 -4.27808 0
M  V30 388 H 38.6374 -0.676492 -4.19885 0
M  V30 389 N 36.9525 1.47285 -0.560781 0
M  V30 390 C 38.1985 2.02764 -0.0381184 0
M  V30 391 C 38.5315 1.43384 1.30976 0
M  V30 392 O 37.8065 0.590733 1.85312 0
M  V30 393 C 38.0895 3.60064 0.0511427 0
M  V30 394 C 37.9425 4.2987 -1.32408 0
M  V30 395 C 39.2615 4.33439 0.762795 0
M  V30 396 H 36.3805 0.736841 -0.0153264 0
M  V30 397 H 39.0225 1.75675 -0.723759 0
M  V30 398 H 37.1725 3.83274 0.635065 0
M  V30 399 H 38.8445 4.17989 -1.95148 0
M  V30 400 H 37.0875 3.90085 -1.8978 0
M  V30 401 H 37.7585 5.38478 -1.21431 0
M  V30 402 H 40.2345 4.15243 0.266965 0
M  V30 403 H 39.1105 5.43124 0.794221 0
M  V30 404 H 39.3715 4.02915 1.81966 0
M  V30 405 N 38.4306 0.297415 1.54768 0
M  V30 406 C 39.6786 -0.312295 1.99673 0
M  V30 407 C 39.9996 -1.54686 1.18732 0
M  V30 408 O 39.2696 -1.93854 0.282382 0
M  V30 409 H 37.8496 -0.118381 0.73756 0
M  V30 410 H 40.5116 0.407915 1.90583 0
M  V30 411 H 39.6076 -0.586813 3.06534 0
M  V30 412 N 39.9087 -1.5758 0.0250728 0
M  V30 413 C 41.1567 -1.91255 -0.653151 0
M  V30 414 C 41.4777 -0.901691 -1.729 0
M  V30 415 O 40.7477 0.0573785 -1.95816 0
M  V30 416 H 39.3277 -0.705942 -0.244243 0
M  V30 417 H 41.9897 -1.94767 0.0719209 0
M  V30 418 H 41.0857 -2.91752 -1.10847 0
M  V30 419 N 41.3868 0.248026 -1.55636 0
M  V30 420 C 42.6328 0.97767 -1.77678 0
M  V30 421 C 42.9658 1.85016 -0.590135 0
M  V30 422 O 42.2408 1.90095 0.411611 0
M  V30 423 C 42.5238 1.83914 -3.09593 0
M  V30 424 C 42.3768 0.99491 -4.38659 0
M  V30 425 C 43.6958 2.82183 -3.37729 0
M  V30 426 H 40.8148 0.354005 -0.646413 0
M  V30 427 H 43.4568 0.248253 -1.88371 0
M  V30 428 H 41.6068 2.46104 -3.00608 0
M  V30 429 H 43.2788 0.391789 -4.59633 0
M  V30 430 H 41.5218 0.299231 -4.32767 0
M  V30 431 H 42.1928 1.63145 -5.2734 0
M  V30 432 H 44.6688 2.30129 -3.4667 0
M  V30 433 H 43.5448 3.39582 -4.31249 0
M  V30 434 H 43.8058 3.58588 -2.58586 0
M  V30 435 N 42.8649 1.48995 0.513639 0
M  V30 436 C 44.1139 1.57093 1.2651 0
M  V30 437 C 44.4269 0.257091 1.93903 0
M  V30 438 O 45.6329 0.216478 2.70636 0
M  V30 439 C 44.0889 2.77118 2.29638 0
M  V30 440 C 43.6969 4.15209 1.68241 0
M  V30 441 C 45.4409 2.94538 3.05692 0
M  V30 442 C 43.3479 5.26474 2.69406 0
M  V30 443 H 42.2779 0.584876 0.475854 0
M  V30 444 H 44.9289 1.7536 0.540487 0
M  V30 445 H 43.3109 2.52319 3.05207 0
M  V30 446 H 44.4849 4.50094 0.987505 0
M  V30 447 H 42.7999 4.03042 1.04623 0
M  V30 448 H 45.3969 3.74832 3.8132 0
M  V30 449 H 45.7399 2.04614 3.62545 0
M  V30 450 H 46.2729 3.19316 2.37238 0
M  V30 451 H 43.0119 6.18417 2.17351 0
M  V30 452 H 42.5319 4.96058 3.37175 0
M  V30 453 H 44.2109 5.55277 3.32078 0
M  V30 454 N 44.343 -0.763751 1.37857 0
M  V30 455 C 45.273 -1.89103 1.36975 0
M  V30 456 C 46.254 -1.68439 0.237152 0
M  V30 457 O 47.439 -1.8918 0.438713 0
M  V30 458 C 44.569 -3.26496 1.18395 0
M  V30 459 C 43.523 -3.61741 2.28751 0
M  V30 460 C 42.849 -4.97762 1.95286 0
M  V30 461 C 44.149 -3.67665 3.70972 0
M  V30 462 H 45.843 -1.90099 2.31307 0
M  V30 463 H 43.389 -0.91319 1.11341 0
M  V30 464 H 45.342 -4.05003 1.16406 0
M  V30 465 H 44.066 -3.25955 0.205215 0
M  V30 466 H 42.725 -2.85547 2.29909 0
M  V30 467 H 42.373 -4.93769 0.959221 0
M  V30 468 H 42.073 -5.22313 2.69189 0
M  V30 469 H 43.597 -5.7866 1.94898 0
M  V30 470 H 45.011 -4.36307 3.719 0
M  V30 471 H 43.408 -4.03718 4.43995 0
M  V30 472 H 44.478 -2.68134 4.0402 0
M  V30 473 N 45.8211 -1.22559 -0.990812 0
M  V30 474 C 47.0681 -1.05141 -1.73065 0
M  V30 475 C 47.3961 0.413191 -1.9006 0
M  V30 476 O 46.6511 1.32257 -1.44245 0
M  V30 477 C 46.9501 -1.71011 -3.13831 0
M  V30 478 C 46.6161 -3.20911 -3.16745 0
M  V30 479 C 45.2781 -3.61812 -3.17247 0
M  V30 480 C 47.6301 -4.16846 -3.12872 0
M  V30 481 C 44.9581 -4.97127 -3.1158 0
M  V30 482 C 47.3101 -5.5214 -3.08746 0
M  V30 483 C 45.9741 -5.92419 -3.07565 0
M  V30 484 H 45.2441 -0.384738 -0.633291 0
M  V30 485 H 47.8911 -1.5235 -1.16025 0
M  V30 486 H 46.1961 -1.16133 -3.74193 0
M  V30 487 H 47.8931 -1.55023 -3.69823 0
M  V30 488 H 44.4831 -2.88344 -3.17105 0
M  V30 489 H 48.6671 -3.86263 -3.11632 0
M  V30 490 H 43.9231 -5.27562 -3.09012 0
M  V30 491 H 48.0971 -6.26201 -3.04705 0
M  V30 492 H 45.7241 -6.97236 -3.02929 0
M  V30 493 N 47.2992 1.18797 -1.03562 0
M  V30 494 C 48.5472 1.88278 -0.734569 0
M  V30 495 C 48.8682 1.8043 0.739586 0
M  V30 496 O 48.1382 1.21925 1.53333 0
M  V30 497 H 46.7182 0.696991 -0.268725 0
M  V30 498 H 49.3802 1.44192 -1.31129 0
M  V30 499 H 48.4762 2.94443 -1.03489 0
M  V30 500 N 48.7773 0.814389 1.34928 0
M  V30 501 C 50.1933 0.499084 1.51596 0
M  V30 502 C 50.3933 -0.978319 1.76157 0
M  V30 503 O 49.4493 -1.76309 1.80752 0
M  V30 504 C 50.7623 1.35121 2.68631 0
M  V30 505 C 52.3103 1.34746 2.82511 0
M  V30 506 C 52.7853 2.18388 4.0258 0
M  V30 507 N 54.2763 2.15966 4.09772 0
M  V30 508 C 55.0113 2.77437 5.01813 0
M  V30 509 N 54.5073 3.47866 5.99134 0
M  V30 510 N 56.3003 2.67037 4.94619 0
M  V30 511 H 48.4513 1.7711 1.17243 0
M  V30 512 H 50.7143 0.754256 0.574284 0
M  V30 513 H 50.4203 2.40001 2.57085 0
M  V30 514 H 50.2943 1.00991 3.63429 0
M  V30 515 H 52.6813 0.30648 2.93504 0
M  V30 516 H 52.7623 1.72869 1.88547 0
M  V30 517 H 52.4063 3.2253 3.92347 0
M  V30 518 H 52.3363 1.77621 4.9574 0
M  V30 519 H 54.8273 1.64729 3.40107 0
M  V30 520 H 55.1403 3.92038 6.65977 0
M  V30 521 H 53.4853 3.51972 5.99284 0
M  V30 522 H 56.6763 2.11597 4.17546 0
M  V30 523 H 56.8493 3.15232 5.66156 0
M  V30 524 N 50.2554 -1.46986 0.568584 0
M  V30 525 C 51.2034 -2.31858 -0.185649 0
M  V30 526 C 52.1974 -1.43624 -0.898249 0
M  V30 527 O 53.4034 -1.60327 -0.818242 0
M  V30 528 H 49.7784 -0.747866 -0.0787399 0
M  V30 529 H 51.7494 -2.93303 0.549191 0
M  V30 530 C 50.4984 -3.26513 -1.19519 0
M  V30 531 H 49.8214 -3.94377 -0.656285 0
M  V30 532 H 51.2614 -3.88707 -1.6936 0
M  V30 533 C 49.7204 -2.50847 -2.24894 0
M  V30 534 O 50.2504 -2.26119 -3.32014 0
M  V30 535 N 48.4564 -2.11656 -1.99124 0
M  V30 536 H 48.0034 -2.31966 -1.12024 0
M  V30 537 H 47.9614 -1.61347 -2.69842 0
M  V30 538 N 51.7335 -0.305618 -1.54608 0
M  V30 539 C 52.9635 0.304333 -2.04346 0
M  V30 540 C 53.3715 1.47715 -1.18224 0
M  V30 541 O 52.7145 1.82591 -0.201577 0
M  V30 542 C 52.7765 0.819031 -3.50046 0
M  V30 543 C 52.4405 -0.22912 -4.56425 0
M  V30 544 C 53.4375 -1.05914 -5.08997 0
M  V30 545 C 51.1225 -0.372148 -5.0092 0
M  V30 546 C 53.1165 -2.01809 -6.04609 0
M  V30 547 C 50.8035 -1.33454 -5.9635 0
M  V30 548 C 51.8015 -2.15599 -6.48079 0
M  V30 549 O 51.4895 -3.10205 -7.41639 0
M  V30 550 H 51.2215 0.0693996 -0.672428 0
M  V30 551 H 53.7755 -0.444548 -2.00532 0
M  V30 552 H 52.0055 1.61852 -3.51199 0
M  V30 553 H 53.6945 1.34537 -3.82955 0
M  V30 554 H 54.4605 -0.959538 -4.75413 0
M  V30 555 H 50.3395 0.257304 -4.60281 0
M  V30 556 H 53.8835 -2.65966 -6.44909 0
M  V30 557 H 49.7805 -1.43485 -6.29351 0
M  V30 558 H 50.5485 -3.05237 -7.59455 0
M  V30 559 N 53.2116 1.57565 -0.0334293 0
M  V30 560 C 54.1616 2.06978 0.956237 0
M  V30 561 C 55.1456 0.971193 1.28283 0
M  V30 562 O 56.3376 1.23471 1.26822 0
M  V30 563 C 53.4666 2.60393 2.23719 0
M  V30 564 C 52.5526 3.7719 1.93877 0
M  V30 565 N 52.9436 4.87639 1.34321 0
M  V30 566 C 51.2416 3.85758 2.23845 0
M  V30 567 C 51.9426 5.68825 1.21709 0
M  V30 568 N 50.9186 5.1587 1.71404 0
M  V30 569 H 54.7206 2.89773 0.490815 0
M  V30 570 H 52.2346 1.61492 0.171478 0
M  V30 571 H 54.2316 2.94088 2.95496 0
M  V30 572 H 52.8916 1.79031 2.70884 0
M  V30 573 H 53.9026 5.07803 1.01767 0
M  V30 574 H 50.5796 3.1531 2.73653 0
M  V30 575 H 51.9696 6.67631 0.75621 0
M  V30 576 N 54.6897 -0.239769 1.55765 0
M  V30 577 C 55.9667 -0.990056 1.68693 0
M  V30 578 C 56.3467 -2.03107 0.5754 0
M  V30 579 O 55.6947 -2.24604 -0.42017 0
M  V30 580 C 55.9047 -1.61696 3.09282 0
M  V30 581 C 57.2527 -2.11613 3.6811 0
M  V30 582 O 58.2767 -1.71624 3.12127 0
M  V30 583 O 57.1357 -2.85057 4.66267 0
M  V30 584 H 54.2297 -0.461299 0.686391 0
M  V30 585 H 56.7757 -0.232991 1.68093 0
M  V30 586 H 55.5477 -0.864357 3.81634 0
M  V30 587 H 55.1707 -2.44005 3.13923 0
M  V30 588 N 56.1678 -1.49265 -0.50573 0
M  V30 589 C 57.1158 -1.66065 -1.62866 0
M  V30 590 C 58.1098 -0.526636 -1.61006 0
M  V30 591 O 59.3158 -0.706126 -1.65571 0
M  V30 592 H 55.6908 -0.52356 -0.539805 0
M  V30 593 H 57.6618 -2.60329 -1.45848 0
M  V30 594 C 56.4108 -1.74008 -3.01026 0
M  V30 595 H 55.7338 -2.6064 -3.03161 0
M  V30 596 H 57.1738 -1.89798 -3.79147 0
M  V30 597 C 55.6328 -0.483868 -3.33407 0
M  V30 598 O 56.1628 0.392548 -3.99777 0
M  V30 599 N 54.3688 -0.348236 -2.88506 0
M  V30 600 H 53.9158 -1.06242 -2.34671 0
M  V30 601 H 53.8738 0.491204 -3.10539 0
M  V30 602 N 57.6459 0.756429 -1.3826 0
M  V30 603 C 58.5779 1.87971 -1.31147 0
M  V30 604 C 59.5909 1.61248 -0.224239 0
M  V30 605 O 60.7799 1.71881 -0.481581 0
M  V30 606 C 57.8799 3.23545 -1.00857 0
M  V30 607 C 57.0529 3.77794 -2.20432 0
M  V30 608 C 56.1119 4.91877 -1.86931 0
M  V30 609 O 55.1379 5.06659 -2.59395 0
M  V30 610 N 56.3399 5.74643 -0.822568 0
M  V30 611 H 59.1049 1.94585 -2.2794 0
M  V30 612 H 56.6659 0.936234 -1.32084 0
M  V30 613 H 58.6579 3.97403 -0.765021 0
M  V30 614 H 57.2279 3.12335 -0.128687 0
M  V30 615 H 56.4479 2.95534 -2.6087 0
M  V30 616 H 57.7359 4.10771 -3.00241 0
M  V30 617 H 57.1339 5.65266 -0.221575 0
M  V30 618 H 55.6909 6.48661 -0.638899 0
M  V30 619 N 59.124 1.23083 0.984299 0
M  V30 620 C 60.056 0.96636 2.07832 0
M  V30 621 C 61.069 -0.0582135 1.62696 0
M  V30 622 O 62.258 0.176843 1.77622 0
M  V30 623 C 59.358 0.433397 3.36117 0
M  V30 624 C 58.531 1.51722 4.10243 0
M  V30 625 C 57.59 0.989821 5.16807 0
M  V30 626 O 56.616 1.67794 5.43906 0
M  V30 627 N 57.818 -0.184367 5.80207 0
M  V30 628 H 60.583 1.90824 2.31098 0
M  V30 629 H 58.144 1.13888 1.1507 0
M  V30 630 H 60.136 0.065699 4.04647 0
M  V30 631 H 58.706 -0.413806 3.09849 0
M  V30 632 H 57.926 2.05786 3.36223 0
M  V30 633 H 59.214 2.24619 4.56534 0
M  V30 634 H 58.612 -0.760062 5.60571 0
M  V30 635 H 57.169 -0.493366 6.4993 0
M  V30 636 N 60.6021 -1.18246 1.0419 0
M  V30 637 C 61.5321 -2.24127 0.654914 0
M  V30 638 C 62.5131 -1.66617 -0.342451 0
M  V30 639 O 63.6981 -1.92924 -0.222277 0
M  V30 640 C 60.8281 -3.47295 0.0183757 0
M  V30 641 C 59.7821 -4.17563 0.939414 0
M  V30 642 C 59.1081 -5.34438 0.167286 0
M  V30 643 C 60.4081 -4.70917 2.25908 0
M  V30 644 H 62.1021 -2.56753 1.54007 0
M  V30 645 H 59.6481 -1.23414 0.74195 0
M  V30 646 H 61.6011 -4.20572 -0.264082 0
M  V30 647 H 60.3251 -3.13907 -0.901664 0
M  V30 648 H 58.9841 -3.46186 1.20628 0
M  V30 649 H 58.6321 -4.97298 -0.7552 0
M  V30 650 H 58.3321 -5.82388 0.780901 0
M  V30 651 H 59.8561 -6.10504 -0.108125 0
M  V30 652 H 61.2701 -5.35882 2.03724 0
M  V30 653 H 59.6671 -5.29406 2.82577 0
M  V30 654 H 60.7371 -3.88272 2.9047 0
M  V30 655 N 62.0802 -0.821533 -1.34494 0
M  V30 656 C 63.0102 -0.257138 -2.3208 0
M  V30 657 C 63.9912 0.625645 -1.58176 0
M  V30 658 O 65.1762 0.552811 -1.86166 0
M  V30 659 C 62.3062 0.582958 -3.42372 0
M  V30 660 C 61.2602 -0.202571 -4.2752 0
M  V30 661 C 60.5862 0.760179 -5.29269 0
M  V30 662 C 61.8862 -1.40998 -5.02908 0
M  V30 663 H 63.5802 -1.07247 -2.79532 0
M  V30 664 H 61.1262 -0.517163 -1.34393 0
M  V30 665 H 63.0792 0.987972 -4.09655 0
M  V30 666 H 61.8032 1.43133 -2.93565 0
M  V30 667 H 60.4622 -0.588936 -3.61838 0
M  V30 668 H 60.1102 1.60447 -4.76724 0
M  V30 669 H 59.8102 0.238809 -5.87115 0
M  V30 670 H 61.3342 1.16308 -5.9942 0
M  V30 671 H 62.7482 -1.07905 -5.63054 0
M  V30 672 H 61.1452 -1.86689 -5.70322 0
M  V30 673 H 62.2152 -2.1889 -4.32684 0
M  V30 674 N 63.5583 1.46682 -0.576371 0
M  V30 675 C 64.5213 2.28707 0.150239 0
M  V30 676 C 65.5213 1.38035 0.824794 0
M  V30 677 O 66.7113 1.60476 0.677719 0
M  V30 678 C 63.8433 3.18248 1.22192 0
M  V30 679 H 65.0363 2.94423 -0.570521 0
M  V30 680 H 62.5893 1.52688 -0.334078 0
M  V30 681 H 63.3243 2.57265 1.97447 0
M  V30 682 H 63.1093 3.85 0.742812 0
M  V30 683 H 64.5993 3.80001 1.73172 0
M  V30 684 N 65.0364 0.313813 1.54444 0
M  V30 685 C 65.9664 -0.549454 2.26943 0
M  V30 686 C 66.9474 -1.12741 1.27372 0
M  V30 687 O 68.1324 -1.15436 1.56167 0
M  V30 688 C 65.2624 -1.71523 3.01989 0
M  V30 689 C 64.2164 -1.26703 4.08816 0
M  V30 690 C 63.5424 -2.51898 4.71647 0
M  V30 691 C 64.8424 -0.388962 5.2085 0
M  V30 692 H 66.5364 0.0552661 2.99349 0
M  V30 693 H 64.0824 0.0280207 1.43973 0
M  V30 694 H 66.0354 -2.32535 3.51433 0
M  V30 695 H 64.7594 -2.34639 2.27183 0
M  V30 696 H 63.4184 -0.679896 3.6024 0
M  V30 697 H 63.0664 -3.13356 3.93468 0
M  V30 698 H 62.7664 -2.22605 5.43802 0
M  V30 699 H 64.2904 -3.1369 5.23861 0
M  V30 700 H 65.7044 -0.905107 5.6611 0
M  V30 701 H 64.1014 -0.18924 5.99802 0
M  V30 702 H 65.1714 0.582699 4.81386 0
M  V30 703 N 66.5145 -1.57545 0.0417849 0
M  V30 704 C 67.4625 -2.12148 -0.953723 0
M  V30 705 C 68.4565 -1.05104 -1.32852 0
M  V30 706 O 69.6625 -1.23524 -1.30927 0
M  V30 707 H 66.0375 -0.677957 -0.325389 0
M  V30 708 H 68.0085 -2.94707 -0.467991 0
M  V30 709 C 66.7575 -2.6739 -2.22257 0
M  V30 710 H 66.0805 -3.49413 -1.94295 0
M  V30 711 H 67.5205 -3.09227 -2.90094 0
M  V30 712 C 65.9795 -1.60723 -2.96091 0
M  V30 713 O 66.5095 -1.01449 -3.88679 0
M  V30 714 N 64.7155 -1.32466 -2.58652 0
M  V30 715 H 64.2625 -1.80856 -1.83437 0
M  V30 716 H 64.2205 -0.61325 -3.08361 0
M  V30 717 N 67.9926 0.231505 -1.5589 0
M  V30 718 C 68.9396 1.28682 -1.91598 0
M  V30 719 C 69.9096 1.47071 -0.771974 0
M  V30 720 O 71.0946 1.60802 -1.027 0
M  V30 721 C 68.2346 2.6342 -2.22944 0
M  V30 722 C 67.3476 2.52912 -3.50228 0
M  V30 723 C 66.4826 3.80106 -3.7107 0
M  V30 724 C 65.5216 3.64279 -4.91902 0
M  V30 725 N 64.6586 4.834 -5.09184 0
M  V30 726 H 69.4986 0.975305 -2.81588 0
M  V30 727 H 67.0356 0.470299 -1.39379 0
M  V30 728 H 68.9936 3.41869 -2.39126 0
M  V30 729 H 67.6236 2.92687 -1.36139 0
M  V30 730 H 66.6756 1.6595 -3.42294 0
M  V30 731 H 67.9876 2.37133 -4.38827 0
M  V30 732 H 67.1416 4.66999 -3.87295 0
M  V30 733 H 65.8806 3.98799 -2.80733 0
M  V30 734 H 64.8856 2.7577 -4.75637 0
M  V30 735 H 66.1106 3.47067 -5.83714 0
M  V30 736 H 64.0566 5.02425 -4.21788 0
M  V30 737 H 63.9736 4.70311 -5.91898 0
M  V30 738 H 65.2416 5.71747 -5.29835 0
M  V30 739 N 69.4707 1.49531 0.497807 0
M  V30 740 C 70.4337 1.65916 1.58128 0
M  V30 741 C 71.4337 0.530825 1.51786 0
M  V30 742 O 72.6237 0.797342 1.54881 0
M  V30 743 C 69.7557 1.65951 2.9778 0
M  V30 744 H 70.9487 2.62556 1.44929 0
M  V30 745 H 68.5017 1.38611 0.722275 0
M  V30 746 H 69.2367 0.709065 3.16453 0
M  V30 747 H 69.0217 2.47897 3.03792 0
M  V30 748 H 70.5117 1.80673 3.76493 0
M  V30 749 N 70.9488 -0.749086 1.3866 0
M  V30 750 C 72.1978 -1.50371 1.3443 0
M  V30 751 C 72.5108 -1.95503 -0.0616397 0
M  V30 752 O 73.7168 -2.70554 -0.226489 0
M  V30 753 C 72.1728 -2.71644 2.36088 0
M  V30 754 C 71.7808 -2.3352 3.82325 0
M  V30 755 C 73.5248 -3.49518 2.40909 0
M  V30 756 C 71.4318 -3.51431 4.75658 0
M  V30 757 H 70.3618 -0.564628 0.499712 0
M  V30 758 H 73.0128 -0.818449 1.64237 0
M  V30 759 H 71.3948 -3.42175 1.9933 0
M  V30 760 H 72.5688 -1.70627 4.28046 0
M  V30 761 H 70.8838 -1.6877 3.80665 0
M  V30 762 H 73.4808 -4.37197 3.07836 0
M  V30 763 H 73.8238 -3.90992 1.42937 0
M  V30 764 H 74.3568 -2.86005 2.76489 0
M  V30 765 H 71.0958 -3.15019 5.74842 0
M  V30 766 H 70.6158 -4.13352 4.34627 0
M  V30 767 H 72.2948 -4.17953 4.93887 0
M  V30 768 N 72.4269 -1.23603 -0.977757 0
M  V30 769 C 73.8429 -0.999251 -1.24447 0
M  V30 770 C 74.0429 0.298053 -1.99283 0
M  V30 771 O 73.0989 1.01681 -2.31122 0
M  V30 772 C 74.4119 -2.20784 -2.04144 0
M  V30 773 C 75.9599 -2.25303 -2.17273 0
M  V30 774 C 76.4349 -3.45755 -3.00362 0
M  V30 775 N 77.9259 -3.4601 -3.07947 0
M  V30 776 C 78.6609 -4.35868 -3.72568 0
M  V30 777 N 78.1569 -5.35966 -4.38991 0
M  V30 778 N 79.9499 -4.23605 -3.6948 0
M  V30 779 H 72.1009 -2.06986 -0.476483 0
M  V30 780 H 74.3639 -0.907801 -0.273134 0
M  V30 781 H 74.0699 -3.14945 -1.56533 0
M  V30 782 H 73.9439 -2.22085 -3.04891 0
M  V30 783 H 76.3309 -1.3168 -2.64092 0
M  V30 784 H 76.4119 -2.28033 -1.15907 0
M  V30 785 H 76.0559 -4.39687 -2.5424 0
M  V30 786 H 75.9859 -3.40266 -4.01904 0
M  V30 787 H 78.4769 -2.73588 -2.60688 0
M  V30 788 H 78.7899 -6.00783 -4.86086 0
M  V30 789 H 77.1349 -5.39863 -4.37691 0
M  V30 790 H 80.3259 -3.44647 -3.16759 0
M  V30 791 H 80.4989 -4.93836 -4.1956 0
M  V30 792 N 73.905 1.17692 -1.04816 0
M  V30 793 C 74.837 2.21103 -0.603822 0
M  V30 794 C 75.85 1.59411 0.33046 0
M  V30 795 O 77.039 1.7807 0.12379 0
M  V30 796 C 74.139 3.38623 0.136898 0
M  V30 797 C 73.312 4.29888 -0.807137 0
M  V30 798 C 72.371 5.26088 -0.10836 0
M  V30 799 O 71.397 5.64353 -0.741232 0
M  V30 800 N 72.599 5.68882 1.15558 0
M  V30 801 H 75.364 2.59848 -1.49329 0
M  V30 802 H 72.925 1.32553 -0.929587 0
M  V30 803 H 74.917 4.00009 0.614401 0
M  V30 804 H 73.487 2.98508 0.927993 0
M  V30 805 H 72.707 3.65993 -1.46434 0
M  V30 806 H 73.995 4.87759 -1.44807 0
M  V30 807 H 73.393 5.39861 1.69015 0
M  V30 808 H 71.95 6.32429 1.57722 0
M  V30 809 N 75.3831 0.828654 1.34056 0
M  V30 810 C 76.3461 0.259927 2.27721 0
M  V30 811 C 77.3461 -0.565478 1.50529 0
M  V30 812 O 78.5361 -0.38075 1.69988 0
M  V30 813 C 75.6681 -0.634944 3.34935 0
M  V30 814 H 76.8611 1.0863 2.79534 0
M  V30 815 H 74.4141 0.600951 1.44285 0
M  V30 816 H 75.1491 -1.48416 2.88346 0
M  V30 817 H 74.9341 -0.0444999 3.92075 0
M  V30 818 H 76.4241 -1.02648 4.04788 0
M  V30 819 N 76.8612 -1.46375 0.584142 0
M  V30 820 C 77.8242 -2.28784 -0.138108 0
M  V30 821 C 78.8242 -1.38471 -0.817462 0
M  V30 822 O 80.0142 -1.60833 -0.669199 0
M  V30 823 C 77.1462 -3.18892 -1.20503 0
M  V30 824 H 78.3392 -2.94117 0.586127 0
M  V30 825 H 75.8922 -1.52509 0.342171 0
M  V30 826 H 76.6272 -2.58309 -1.96079 0
M  V30 827 H 76.4122 -3.85388 -0.722384 0
M  V30 828 H 77.9022 -3.80914 -1.71155 0
M  V30 829 N 78.3393 -0.321999 -1.54275 0
M  V30 830 C 79.2863 0.544664 -2.24281 0
M  V30 831 C 80.2563 1.1129 -1.23303 0
M  V30 832 O 81.4413 1.15354 -1.51981 0
M  V30 833 C 78.5813 1.70045 -3.00298 0
M  V30 834 C 77.6943 1.16159 -4.1609 0
M  V30 835 C 76.8293 2.28293 -4.79641 0
M  V30 836 C 75.8683 1.71648 -5.8754 0
M  V30 837 N 75.0053 2.77438 -6.44959 0
M  V30 838 H 79.8453 -0.0588907 -2.97942 0
M  V30 839 H 77.3823 -0.0408345 -1.47043 0
M  V30 840 H 79.3403 2.38054 -3.42616 0
M  V30 841 H 77.9703 2.27531 -2.28975 0
M  V30 842 H 77.0223 0.373092 -3.78566 0
M  V30 843 H 78.3343 0.707087 -4.93763 0
M  V30 844 H 77.4883 3.0421 -5.2492 0
M  V30 845 H 76.2273 2.77079 -4.01346 0
M  V30 846 H 75.2323 0.942282 -5.41665 0
M  V30 847 H 76.4573 1.23741 -6.67731 0
M  V30 848 H 74.4033 3.25519 -5.69538 0
M  V30 849 H 74.3203 2.36547 -7.1804 0
M  V30 850 H 75.5883 3.53189 -6.94894 0
M  V30 851 N 79.8174 1.5752 -0.0501392 0
M  V30 852 C 81.2334 1.56631 0.306402 0
M  V30 853 C 81.4334 1.0577 1.71508 0
M  V30 854 O 80.4894 0.713837 2.422 0
M  V30 855 C 81.8024 3.00393 0.135811 0
M  V30 856 C 83.3504 3.12315 0.206993 0
M  V30 857 C 83.8254 4.57954 0.064944 0
M  V30 858 N 85.3164 4.63041 0.121254 0
M  V30 859 C 86.0514 5.73389 0.0354381 0
M  V30 860 N 85.5474 6.92724 -0.102666 0
M  V30 861 N 87.3404 5.62026 0.090946 0
M  V30 862 H 79.4914 1.88903 -0.971046 0
M  V30 863 H 81.7544 0.869876 -0.376855 0
M  V30 864 H 81.4604 3.41635 -0.835384 0
M  V30 865 H 81.3344 3.66373 0.897275 0
M  V30 866 H 83.7214 2.70973 1.16866 0
M  V30 867 H 83.8024 2.49016 -0.585208 0
M  V30 868 H 83.4464 4.99981 -0.893394 0
M  V30 869 H 83.3764 5.19258 0.876277 0
M  V30 870 H 85.8674 3.77216 0.227284 0
M  V30 871 H 86.1804 7.72633 -0.160882 0
M  V30 872 H 84.5254 6.94864 -0.137737 0
M  V30 873 H 87.7164 4.67684 0.197388 0
M  V30 874 H 87.8894 6.47997 0.0206089 0
M  V30 875 N 81.2955 -0.223234 1.56011 0
M  V30 876 C 82.7065 -0.790368 1.69145 0
M  V30 877 C 83.0575 -1.85055 0.651845 0
M  V30 878 O 82.1825 -2.15498 -0.197359 0
M  V30 879 C 82.7775 -1.4404 3.06656 0
M  V30 880 C 81.3365 -1.95494 3.2165 0
M  V30 881 C 80.4835 -0.814506 2.65068 0
M  V30 882 H 83.4345 0.00139011 1.587 0
M  V30 883 H 83.4555 -2.30916 3.0242 0
M  V30 884 H 82.9675 -0.668543 3.82298 0
M  V30 885 H 81.0685 -2.75487 2.50874 0
M  V30 886 H 81.1815 -2.13607 4.28846 0
M  V30 887 H 79.5455 -1.22137 2.23505 0
M  V30 888 H 80.3285 -0.0553515 3.43255 0
M  V30 889 N 82.7736 -1.49793 -0.48987 0
M  V30 890 C 84.0226 -1.59085 -1.23995 0
M  V30 891 C 84.3356 -0.287907 -1.9347 0
M  V30 892 O 85.5416 -0.259506 -2.70257 0
M  V30 893 C 83.9976 -2.80736 -2.252 0
M  V30 894 C 83.6056 -4.17833 -1.61614 0
M  V30 895 C 85.3496 -2.99364 -3.00967 0
M  V30 896 C 83.2566 -5.30693 -2.60996 0
M  V30 897 H 82.1866 -0.592372 -0.466488 0
M  V30 898 H 84.8376 -1.76197 -0.51252 0
M  V30 899 H 83.2196 -2.57142 -3.01154 0
M  V30 900 H 84.3936 -4.51608 -0.915774 0
M  V30 901 H 82.7086 -4.04656 -0.981977 0
M  V30 902 H 85.3056 -3.80851 -3.75308 0
M  V30 903 H 85.6486 -2.10356 -3.59244 0
M  V30 904 H 86.1816 -3.2305 -2.32128 0
M  V30 905 H 82.9206 -6.21796 -2.07485 0
M  V30 906 H 82.4406 -5.01359 -3.2924 0
M  V30 907 H 84.1196 -5.6049 -3.23202 0
M  V30 908 N 84.2517 0.741722 -1.39055 0
M  V30 909 C 85.1817 1.869 -1.39966 0
M  V30 910 C 86.1627 1.6804 -0.26392 0
M  V30 911 O 87.3477 1.88458 -0.468755 0
M  V30 912 C 84.4777 3.24572 -1.23574 0
M  V30 913 C 83.4317 3.58056 -2.34477 0
M  V30 914 C 82.7577 4.94593 -2.0318 0
M  V30 915 C 84.0577 3.61716 -3.76774 0
M  V30 916 H 85.7517 1.86395 -2.34302 0
M  V30 917 H 83.2977 0.895361 -1.1278 0
M  V30 918 H 85.2507 4.031 -1.22834 0
M  V30 919 H 83.9747 3.25587 -0.257045 0
M  V30 920 H 82.6337 2.81854 -2.34423 0
M  V30 921 H 82.2817 4.92181 -1.03765 0
M  V30 922 H 81.9817 5.17964 -2.77465 0
M  V30 923 H 83.5057 5.75486 -2.04079 0
M  V30 924 H 84.9197 4.30335 -3.78794 0
M  V30 925 H 83.3167 3.96603 -4.50362 0
M  V30 926 H 84.3867 2.61672 -4.08235 0
M  V30 927 N 85.7298 1.2412 0.971189 0
M  V30 928 C 86.9788 1.07284 1.70801 0
M  V30 929 C 87.2918 -0.388902 1.91695 0
M  V30 930 O 88.4978 -0.677379 2.62914 0
M  V30 931 C 86.9538 1.87145 3.07416 0
M  V30 932 C 86.5618 3.37707 2.94377 0
M  V30 933 C 88.3058 1.78828 3.84995 0
M  V30 934 C 86.2128 4.09925 4.26281 0
M  V30 935 H 85.1428 0.397854 0.64049 0
M  V30 936 H 87.7938 1.4817 1.0825 0
M  V30 937 H 86.1758 1.39071 3.70777 0
M  V30 938 H 87.3498 3.93335 2.4005 0
M  V30 939 H 85.6648 3.46938 2.30267 0
M  V30 940 H 88.2618 2.30089 4.82662 0
M  V30 941 H 88.6048 0.75284 4.09436 0
M  V30 942 H 89.1378 2.24563 3.28354 0
M  V30 943 H 85.8768 5.13813 4.07033 0
M  V30 944 H 85.3968 3.59083 4.80437 0
M  V30 945 H 87.0758 4.1673 4.94919 0
M  V30 946 N 87.2079 -1.17134 1.05439 0
M  V30 947 C 88.4559 -1.87085 0.764429 0
M  V30 948 C 88.7769 -1.81584 -0.710787 0
M  V30 949 O 88.0469 -1.24349 -1.51374 0
M  V30 950 H 86.6269 -0.692627 0.279779 0
M  V30 951 H 89.2889 -1.42087 1.33406 0
M  V30 952 H 88.3849 -2.92759 1.0816 0
M  V30 953 N 88.686 -0.835752 -1.33615 0
M  V30 954 C 89.932 -0.430596 -1.98176 0
M  V30 955 C 90.265 1.00684 -1.66061 0
M  V30 956 O 89.54 1.70339 -0.938877 0
M  V30 957 C 89.823 -0.648065 -3.5422 0
M  V30 958 C 89.676 -2.13255 -3.96033 0
M  V30 959 C 90.995 -0.0922113 -4.40003 0
M  V30 960 H 88.114 -0.157924 -0.719881 0
M  V30 961 H 90.756 -1.05069 -1.58305 0
M  V30 962 H 88.906 -0.120237 -3.88314 0
M  V30 963 H 90.578 -2.725 -3.72211 0
M  V30 964 H 88.821 -2.61823 -3.45878 0
M  V30 965 H 89.492 -2.23547 -5.04708 0
M  V30 966 H 91.968 -0.543343 -4.12537 0
M  V30 967 H 90.844 -0.274083 -5.48215 0
M  V30 968 H 91.105 1.00378 -4.30554 0
M  V30 969 N 90.1641 1.46063 -0.591896 0
M  V30 970 C 91.4411 1.95595 -0.0137119 0
M  V30 971 C 91.8211 1.5345 1.4497 0
M  V30 972 O 91.1691 0.789543 2.14426 0
M  V30 973 C 91.3791 3.48453 -0.195373 0
M  V30 974 C 92.7271 4.24546 -0.0679765 0
M  V30 975 O 93.7511 3.55982 -0.124681 0
M  V30 976 O 92.6101 5.46467 0.0600579 0
M  V30 977 H 89.7041 0.825795 0.0446279 0
M  V30 978 H 92.2501 1.56303 -0.660859 0
M  V30 979 H 91.0221 3.72045 -1.21235 0
M  V30 980 H 90.6451 3.94597 0.487775 0
M  V30 981 N 91.6422 0.330177 1.54103 0
M  V30 982 C 92.5742 -0.566902 2.22079 0
M  V30 983 C 93.5872 -1.07462 1.22294 0
M  V30 984 O 94.7762 -0.987065 1.48726 0
M  V30 985 C 91.8762 -1.79138 2.87685 0
M  V30 986 C 91.0492 -1.42123 4.13666 0
M  V30 987 C 90.1082 -2.50394 4.62806 0
M  V30 988 O 89.1342 -2.14261 5.27334 0
M  V30 989 N 90.3362 -3.81433 4.37595 0
M  V30 990 H 93.1012 0.0151844 2.99696 0
M  V30 991 H 90.6622 0.153681 1.61169 0
M  V30 992 H 92.6542 -2.50975 3.1748 0
M  V30 993 H 91.2242 -2.28115 2.13734 0
M  V30 994 H 90.4442 -0.534201 3.90564 0
M  V30 995 H 91.7322 -1.14971 4.9564 0
M  V30 996 H 91.1302 -4.13584 3.8596 0
M  V30 997 H 89.6872 -4.4948 4.72029 0
M  V30 998 N 93.1203 -1.57491 0.0584922 0
M  V30 999 C 94.0303 -2.15448 -0.928414 0
M  V30 1000 C 95.0463 -1.11416 -1.3365 0
M  V30 1001 O 96.2223 -1.4362 -1.41193 0
M  V30 1002 C 93.2873 -2.69393 -2.18239 0
M  V30 1003 C 92.3483 -3.88249 -1.83196 0
M  V30 1004 C 91.5813 -4.39613 -3.02616 0
M  V30 1005 O 91.8043 -3.90023 -4.16219 0
M  V30 1006 O 90.7383 -5.31111 -2.83204 0
M  V30 1007 H 94.5643 -3.00112 -0.465483 0
M  V30 1008 H 92.1493 -1.48499 -0.163826 0
M  V30 1009 H 94.0313 -3.04026 -2.91798 0
M  V30 1010 H 92.7063 -1.87796 -2.63656 0
M  V30 1011 H 91.6133 -3.58492 -1.06931 0
M  V30 1012 H 92.9463 -4.71098 -1.42573 0
M  V30 1013 N 94.5984 0.214957 -1.56127 0
M  V30 1014 C 95.8464 0.936518 -1.79091 0
M  V30 1015 C 96.1674 1.84606 -0.628148 0
M  V30 1016 O 95.4374 1.92664 0.35462 0
M  V30 1017 H 94.0174 0.3488 -0.660566 0
M  V30 1018 H 96.6794 0.22523 -1.93594 0
M  V30 1019 H 95.7754 1.53943 -2.71492 0
M  V30 1020 N 96.0765 1.50051 0.48192 0
M  V30 1021 C 97.3245 1.60181 1.23234 0
M  V30 1022 C 97.6455 0.299176 1.92691 0
M  V30 1023 O 96.9155 -0.682708 1.83619 0
M  V30 1024 H 95.4955 0.590232 0.457859 0
M  V30 1025 H 98.1575 1.86775 0.556881 0
M  V30 1026 H 97.2535 2.40753 1.98607 0
M  V30 1027 N 97.5546 -0.734337 1.39446 0
M  V30 1028 C 98.9706 -1.03997 1.21065 0
M  V30 1029 C 99.1706 -2.01369 0.0727019 0
M  V30 1030 O 98.2266 -2.45856 -0.575426 0
M  V30 1031 C 99.5396 -1.60163 2.54496 0
M  V30 1032 C 101.088 -1.7224 2.61347 0
M  V30 1033 C 101.563 -2.31814 3.95002 0
M  V30 1034 N 103.054 -2.39223 3.96644 0
M  V30 1035 C 103.789 -2.86258 4.96834 0
M  V30 1036 N 103.285 -3.33184 6.07421 0
M  V30 1037 N 105.078 -2.85473 4.84213 0
M  V30 1038 H 97.2286 -0.0885624 2.12215 0
M  V30 1039 H 99.4916 -0.10191 0.942506 0
M  V30 1040 H 99.1976 -0.960811 3.38321 0
M  V30 1041 H 99.0716 -2.5896 2.74262 0
M  V30 1042 H 101.459 -2.35443 1.77906 0
M  V30 1043 H 101.54 -0.720939 2.4543 0
M  V30 1044 H 101.184 -1.69238 4.78875 0
M  V30 1045 H 101.114 -3.32638 4.08239 0
M  V30 1046 H 103.605 -2.06057 3.16779 0
M  V30 1047 H 103.918 -3.67586 6.7978 0
M  V30 1048 H 102.263 -3.31191 6.11013 0
M  V30 1049 H 105.454 -2.48136 3.96921 0
M  V30 1050 H 105.627 -3.21814 5.62441 0
M  V30 1051 N 99.0327 -1.24633 -0.964593 0
M  V30 1052 C 100.279 -1.08949 -1.71049 0
M  V30 1053 C 100.612 0.370302 -1.90637 0
M  V30 1054 O 99.8867 1.27349 -1.47011 0
M  V30 1055 C 100.17 -1.83329 -3.0994 0
M  V30 1056 C 100.023 -3.37077 -2.97824 0
M  V30 1057 C 101.342 -1.60846 -4.09654 0
M  V30 1058 H 98.4607 -0.397178 -0.620821 0
M  V30 1059 H 101.103 -1.5334 -1.12191 0
M  V30 1060 H 99.2527 -1.45597 -3.60186 0
M  V30 1061 H 100.925 -3.84425 -2.5498 0
M  V30 1062 H 99.1677 -3.65298 -2.33965 0
M  V30 1063 H 99.8387 -3.84324 -3.96231 0
M  V30 1064 H 102.315 -1.93674 -3.68279 0
M  V30 1065 H 101.191 -2.1534 -5.04896 0
M  V30 1066 H 101.452 -0.547434 -4.38698 0
M  V30 1067 N 100.511 1.16574 -1.06058 0
M  V30 1068 C 101.443 2.2045 -0.627239 0
M  V30 1069 C 102.456 1.59752 0.313534 0
M  V30 1070 O 103.645 1.78192 0.104896 0
M  V30 1071 C 100.745 3.3875 0.100974 0
M  V30 1072 C 99.9178 4.29008 -0.852687 0
M  V30 1073 C 98.9768 5.25944 -0.164152 0
M  V30 1074 O 98.0028 5.63535 -0.801047 0
M  V30 1075 N 99.2048 5.70075 1.09518 0
M  V30 1076 H 101.97 2.58249 -1.52077 0
M  V30 1077 H 99.5308 1.3156 -0.943594 0
M  V30 1078 H 101.523 4.00638 0.57194 0
M  V30 1079 H 100.093 2.99476 0.89628 0
M  V30 1080 H 99.3128 3.64419 -1.50308 0
M  V30 1081 H 100.601 4.86195 -1.49972 0
M  V30 1082 H 99.9988 5.41624 1.6328 0
M  V30 1083 H 98.5558 6.34067 1.51006 0
M  V30 1084 N 101.989 0.842826 1.3317 0
M  V30 1085 C 103.405 0.531128 1.50503 0
M  V30 1086 C 103.605 -0.940734 1.78192 0
M  V30 1087 O 102.661 -1.72436 1.84451 0
M  V30 1088 C 103.974 1.40789 2.65705 0
M  V30 1089 C 105.522 1.40708 2.79589 0
M  V30 1090 C 105.997 2.26878 3.97857 0
M  V30 1091 N 107.488 2.24609 4.05099 0
M  V30 1092 C 108.223 2.88019 4.95815 0
M  V30 1093 N 107.719 3.60496 5.9162 0
M  V30 1094 N 109.512 2.77469 4.88843 0
M  V30 1095 H 101.663 1.79557 1.1346 0
M  V30 1096 H 103.926 0.766267 0.558156 0
M  V30 1097 H 103.632 2.454 2.51936 0
M  V30 1098 H 103.506 1.08677 3.61205 0
M  V30 1099 H 105.893 0.368668 2.92788 0
M  V30 1100 H 105.974 1.76829 1.84838 0
M  V30 1101 H 105.618 3.3078 3.85418 0
M  V30 1102 H 105.548 1.88096 4.91861 0
M  V30 1103 H 108.039 1.71906 3.36536 0
M  V30 1104 H 108.352 4.06076 6.57512 0
M  V30 1105 H 106.697 3.64604 5.91683 0
M  V30 1106 H 109.888 2.20406 4.12963 0
M  V30 1107 H 110.061 3.2717 5.59342 0
M  V30 1108 N 103.467 -1.45747 0.599634 0
M  V30 1109 C 104.714 -2.02292 0.0917284 0
M  V30 1110 C 105.042 -1.46906 -1.27472 0
M  V30 1111 O 104.297 -0.630652 -1.8526 0
M  V30 1112 C 104.596 -3.57399 -0.00602758 0
M  V30 1113 C 104.262 -4.31902 1.29503 0
M  V30 1114 C 102.924 -4.51974 1.65144 0
M  V30 1115 C 105.276 -4.74551 2.15525 0
M  V30 1116 C 102.604 -5.11949 2.86574 0
M  V30 1117 C 104.956 -5.35868 3.36196 0
M  V30 1118 C 103.62 -5.54165 3.72099 0
M  V30 1119 H 102.89 -0.740239 0.0335658 0
M  V30 1120 H 105.537 -1.7491 0.779661 0
M  V30 1121 H 103.842 -3.84014 -0.777183 0
M  V30 1122 H 105.539 -3.98846 -0.415038 0
M  V30 1123 H 102.129 -4.16588 1.00761 0
M  V30 1124 H 106.313 -4.58784 1.8929 0
M  V30 1125 H 101.569 -5.24305 3.14507 0
M  V30 1126 H 105.743 -5.6787 4.03109 0
M  V30 1127 H 103.37 -6.00406 4.6628 0
M  V30 1128 N 104.945 -0.338344 -1.53925 0
M  V30 1129 C 106.361 0.0137736 -1.59594 0
M  V30 1130 C 106.561 1.49186 -1.35447 0
M  V30 1131 O 105.617 2.24987 -1.14616 0
M  V30 1132 C 106.93 -0.41773 -2.97784 0
M  V30 1133 C 108.478 -0.369633 -3.1081 0
M  V30 1134 C 108.953 -0.776524 -4.51369 0
M  V30 1135 N 110.444 -0.730506 -4.57403 0
M  V30 1136 C 111.179 -1.01736 -5.64303 0
M  V30 1137 N 110.675 -1.3721 -6.79077 0
M  V30 1138 N 112.468 -0.941942 -5.54151 0
M  V30 1139 H 104.619 -1.3012 -1.67876 0
M  V30 1140 H 106.882 -0.530082 -0.78595 0
M  V30 1141 H 106.588 -1.44811 -3.20504 0
M  V30 1142 H 106.462 0.209729 -3.76616 0
M  V30 1143 H 108.849 0.651568 -2.87817 0
M  V30 1144 H 108.93 -1.03223 -2.34049 0
M  V30 1145 H 108.574 -1.79571 -4.75096 0
M  V30 1146 H 108.504 -0.0914649 -5.26521 0
M  V30 1147 H 110.995 -0.468783 -3.74981 0
M  V30 1148 H 111.308 -1.57597 -7.5656 0
M  V30 1149 H 109.653 -1.4105 -6.80536 0
M  V30 1150 H 112.844 -0.664184 -4.63364 0
M  V30 1151 H 113.017 -1.16884 -6.37371 0
M  V30 1152 N 106.423 1.57458 -0.0668435 0
M  V30 1153 C 107.333 2.15937 0.916975 0
M  V30 1154 C 108.349 1.12123 1.33058 0
M  V30 1155 O 109.525 1.44366 1.40429 0
M  V30 1156 C 106.59 2.70547 2.16807 0
M  V30 1157 C 105.651 3.89215 1.81135 0
M  V30 1158 C 104.884 4.41211 3.0028 0
M  V30 1159 O 105.107 3.92225 4.14144 0
M  V30 1160 O 104.041 5.32605 2.80384 0
M  V30 1161 H 107.867 3.00354 0.449561 0
M  V30 1162 H 105.452 1.48584 0.155949 0
M  V30 1163 H 107.334 3.0557 2.90181 0
M  V30 1164 H 106.009 1.89192 2.62656 0
M  V30 1165 H 104.916 3.59054 1.05028 0
M  V30 1166 H 106.249 4.71848 1.40073 0
M  V30 1167 N 107.901 -0.206675 1.56239 0
M  V30 1168 C 109.149 -0.927007 1.79586 0
M  V30 1169 C 109.47 -1.8427 0.637929 0
M  V30 1170 O 108.74 -1.92849 -0.344398 0
M  V30 1171 H 107.32 -0.345292 0.662407 0
M  V30 1172 H 109.982 -0.21496 1.93711 0
M  V30 1173 H 109.078 -1.52501 2.72305 0
M  V30 1174 N 109.379 -1.50304 -0.473955 0
M  V30 1175 C 110.626 -1.6115 -1.22625 0
M  V30 1176 C 110.954 -0.310517 -1.92005 0
M  V30 1177 O 110.209 0.703419 -1.82621 0
M  V30 1178 C 110.508 -2.73938 -2.29549 0
M  V30 1179 C 110.174 -4.14519 -1.7744 0
M  V30 1180 C 108.836 -4.5277 -1.62949 0
M  V30 1181 C 111.188 -5.02392 -1.3875 0
M  V30 1182 C 108.516 -5.76639 -1.08187 0
M  V30 1183 C 110.868 -6.26805 -0.854309 0
M  V30 1184 C 109.532 -6.63861 -0.696011 0
M  V30 1185 H 108.802 -0.589691 -0.448715 0
M  V30 1186 H 111.449 -1.84228 -0.522705 0
M  V30 1187 H 109.754 -2.44937 -3.05799 0
M  V30 1188 H 111.451 -2.79534 -2.87509 0
M  V30 1189 H 108.041 -3.8434 -1.89685 0
M  V30 1190 H 112.225 -4.73474 -1.4878 0
M  V30 1191 H 107.481 -6.04027 -0.946666 0
M  V30 1192 H 111.655 -6.94258 -0.545843 0
M  V30 1193 H 109.282 -7.59722 -0.26952 0
M  V30 1194 N 110.857 0.726932 -1.39834 0
M  V30 1195 C 112.082 1.52121 -1.40976 0
M  V30 1196 C 112.507 1.88098 -0.00826029 0
M  V30 1197 O 111.865 1.52479 0.980807 0
M  V30 1198 C 111.913 2.78021 -2.29644 0
M  V30 1199 O 111.017 3.74272 -1.73188 0
M  V30 1200 H 110.358 0.45908 -0.479731 0
M  V30 1201 H 112.888 0.896207 -1.83927 0
M  V30 1202 H 112.898 3.26671 -2.44438 0
M  V30 1203 H 111.573 2.51169 -3.31492 0
M  V30 1204 H 110.15 3.33073 -1.6768 0
M  V30 1205 N 112.336 1.25143 0.95797 0
M  V30 1206 C 113.752 1.01892 1.22842 0
M  V30 1207 C 113.952 -0.266311 1.99732 0
M  V30 1208 O 113.008 -0.979913 2.3271 0
M  V30 1209 C 114.321 2.24004 2.00606 0
M  V30 1210 C 115.869 2.28731 2.13662 0
M  V30 1211 C 116.344 3.5049 2.94823 0
M  V30 1212 N 117.835 3.50866 3.02403 0
M  V30 1213 C 118.57 4.4174 3.65586 0
M  V30 1214 N 118.066 5.42882 4.30408 0
M  V30 1215 N 119.859 4.29429 3.62694 0
M  V30 1216 H 112.01 2.07718 0.443493 0
M  V30 1217 H 114.273 0.912031 0.258657 0
M  V30 1218 H 113.979 3.17395 1.51503 0
M  V30 1219 H 113.853 2.26907 3.01319 0
M  V30 1220 H 116.24 1.35865 2.61963 0
M  V30 1221 H 116.321 2.29848 1.12265 0
M  V30 1222 H 115.965 4.43676 2.47213 0
M  V30 1223 H 115.895 3.46617 3.96439 0
M  V30 1224 H 118.386 2.777 2.56302 0
M  V30 1225 H 118.699 6.0844 4.76467 0
M  V30 1226 H 117.044 5.46758 4.29047 0
M  V30 1227 H 120.235 3.49643 3.11236 0
M  V30 1228 H 120.408 5.00448 4.1165 0
M  V30 1229 N 113.814 -1.1601 1.06675 0
M  V30 1230 C 115.063 -1.85973 0.780818 0
M  V30 1231 C 115.376 -1.82819 -0.695444 0
M  V30 1232 O 116.582 -2.484 -1.09589 0
M  V30 1233 C 115.038 -3.33757 1.34665 0
M  V30 1234 C 114.646 -3.45374 2.85343 0
M  V30 1235 C 116.39 -4.0895 1.13843 0
M  V30 1236 C 114.297 -4.87266 3.35151 0
M  V30 1237 H 113.227 -0.696661 0.288407 0
M  V30 1238 H 115.878 -1.30903 1.28595 0
M  V30 1239 H 114.26 -3.88456 0.769274 0
M  V30 1240 H 115.434 -3.00816 3.49065 0
M  V30 1241 H 113.749 -2.83619 3.04876 0
M  V30 1242 H 116.346 -5.13654 1.4854 0
M  V30 1243 H 116.689 -4.16229 0.0770282 0
M  V30 1244 H 117.222 -3.605 1.68179 0
M  V30 1245 H 113.961 -4.85168 4.40786 0
M  V30 1246 H 113.481 -5.32433 2.76179 0
M  V30 1247 H 115.16 -5.56097 3.30704 0
M  V30 1248 N 115.292 -0.849877 -1.32721 0
M  V30 1249 C 116.703 -0.506188 -1.79707 0
M  V30 1250 C 117.054 0.975627 -1.70223 0
M  V30 1251 O 116.179 1.76078 -1.25799 0
M  V30 1252 C 116.774 -0.912044 -3.26293 0
M  V30 1253 C 115.333 -0.620326 -3.71253 0
M  V30 1254 C 114.48 -1.11439 -2.53922 0
M  V30 1255 H 117.431 -1.03754 -1.20087 0
M  V30 1256 H 117.452 -0.226493 -3.79825 0
M  V30 1257 H 116.964 -1.99057 -3.33164 0
M  V30 1258 H 115.065 0.447674 -3.69901 0
M  V30 1259 H 115.178 -1.18327 -4.64258 0
M  V30 1260 H 113.542 -0.534834 -2.49021 0
M  V30 1261 H 114.325 -2.19992 -2.6355 0
M  V30 1262 N 116.77 1.45427 -0.607355 0
M  V30 1263 C 118.181 1.85756 -0.187535 0
M  V30 1264 C 118.532 1.5077 1.25551 0
M  V30 1265 O 117.657 0.93427 1.95193 0
M  V30 1266 C 118.252 3.37154 -0.333572 0
M  V30 1267 C 116.811 3.76387 0.0315542 0
M  V30 1268 C 115.958 2.69377 -0.658117 0
M  V30 1269 H 118.909 1.36231 -0.81405 0
M  V30 1270 H 118.93 3.78014 0.43428 0
M  V30 1271 H 118.442 3.62586 -1.38393 0
M  V30 1272 H 116.543 3.56571 1.0811 0
M  V30 1273 H 116.656 4.77731 -0.361935 0
M  V30 1274 H 115.02 2.5452 -0.0957873 0
M  V30 1275 H 115.803 2.97646 -1.7106 0
M  V30 1276 N 118.248 0.346503 1.53744 0
M  V30 1277 C 119.211 -0.496439 2.23759 0
M  V30 1278 C 120.211 -1.0252 1.2388 0
M  V30 1279 O 121.401 -0.913974 1.48297 0
M  V30 1280 C 118.533 -1.69187 2.95954 0
M  V30 1281 H 119.726 0.115952 2.99676 0
M  V30 1282 H 117.279 0.0978939 1.55993 0
M  V30 1283 H 118.014 -2.34288 2.24231 0
M  V30 1284 H 117.799 -1.31989 3.69217 0
M  V30 1285 H 119.289 -2.28969 3.49232 0
M  V30 1286 N 119.726 -1.57421 0.075193 0
M  V30 1287 C 120.658 -2.09904 -0.920483 0
M  V30 1288 C 121.671 -1.03191 -1.25918 0
M  V30 1289 O 122.86 -1.30695 -1.21577 0
M  V30 1290 C 119.96 -2.54726 -2.23534 0
M  V30 1291 C 119.133 -3.8505 -2.07498 0
M  V30 1292 C 118.192 -4.15929 -3.22319 0
M  V30 1293 O 117.218 -4.85474 -2.9716 0
M  V30 1294 N 118.42 -3.69745 -4.47514 0
M  V30 1295 H 121.185 -2.95954 -0.472359 0
M  V30 1296 H 118.746 -1.61523 -0.110444 0
M  V30 1297 H 120.738 -2.72443 -2.9926 0
M  V30 1298 H 119.308 -1.73795 -2.59835 0
M  V30 1299 H 118.528 -3.76679 -1.16219 0
M  V30 1300 H 119.816 -4.70348 -1.94038 0
M  V30 1301 H 119.214 -3.13569 -4.7084 0
M  V30 1302 H 117.771 -3.92655 -5.20255 0
M  V30 1303 N 121.204 0.198386 -1.56346 0
M  V30 1304 C 122.434 0.934215 -1.84271 0
M  V30 1305 C 122.842 1.77496 -0.655125 0
M  V30 1306 O 122.185 1.7961 0.385488 0
M  V30 1307 C 122.247 1.88278 -3.06254 0
M  V30 1308 C 121.911 1.22431 -4.40295 0
M  V30 1309 C 122.908 0.602839 -5.16393 0
M  V30 1310 C 120.593 1.22915 -4.87029 0
M  V30 1311 C 122.587 -0.0050083 -6.374 0
M  V30 1312 C 120.274 0.617465 -6.07973 0
M  V30 1313 C 121.272 0.00146341 -6.83 0
M  V30 1314 O 120.96 -0.600642 -8.01653 0
M  V30 1315 H 120.692 0.278245 -0.616081 0
M  V30 1316 H 123.246 0.211626 -2.04307 0
M  V30 1317 H 121.476 2.64498 -2.82095 0
M  V30 1318 H 123.165 2.48612 -3.20853 0
M  V30 1319 H 123.931 0.591265 -4.81382 0
M  V30 1320 H 119.81 1.69801 -4.28589 0
M  V30 1321 H 123.354 -0.48643 -6.95902 0
M  V30 1322 H 119.251 0.62653 -6.42452 0
M  V30 1323 H 120.019 -0.497225 -8.16988 0
M  V30 1324 N 122.682 1.50554 0.465978 0
M  V30 1325 C 123.912 1.65323 1.23903 0
M  V30 1326 C 124.32 0.338051 1.86155 0
M  V30 1327 O 123.663 -0.690518 1.70228 0
M  V30 1328 C 123.725 2.69048 2.3844 0
M  V30 1329 C 123.389 4.12462 1.96784 0
M  V30 1330 C 124.386 4.98168 1.48745 0
M  V30 1331 C 122.071 4.58407 2.05349 0
M  V30 1332 C 124.065 6.27868 1.0982 0
M  V30 1333 C 121.752 5.88112 1.66035 0
M  V30 1334 C 122.75 6.72668 1.18349 0
M  V30 1335 O 122.438 7.99951 0.795825 0
M  V30 1336 H 122.17 0.558629 0.38067 0
M  V30 1337 H 124.724 1.97561 0.562022 0
M  V30 1338 H 122.954 2.32062 3.09328 0
M  V30 1339 H 124.643 2.72985 3.0039 0
M  V30 1340 H 125.409 4.63885 1.41546 0
M  V30 1341 H 121.288 3.92735 2.41414 0
M  V30 1342 H 124.832 6.93819 0.725293 0
M  V30 1343 H 120.729 6.21914 1.72895 0
M  V30 1344 H 121.497 8.13265 0.924222 0
M  V30 1345 N 124.16 -0.719506 1.40217 0
M  V30 1346 C 125.123 -1.8153 1.39927 0
M  V30 1347 C 126.123 -1.58095 0.293723 0
M  V30 1348 O 127.313 -1.65209 0.552429 0
M  V30 1349 C 124.445 -3.19561 1.18716 0
M  V30 1350 H 125.638 -1.83186 2.37451 0
M  V30 1351 H 123.191 -0.924746 1.26008 0
M  V30 1352 H 123.926 -3.23557 0.219366 0
M  V30 1353 H 123.711 -3.3797 1.98793 0
M  V30 1354 H 125.201 -3.99598 1.21291 0
M  V30 1355 N 125.638 -1.25649 -0.95132 0
M  V30 1356 C 127.054 -1.02542 -1.223 0
M  V30 1357 C 127.254 0.255715 -1.99871 0
M  V30 1358 O 126.31 0.967558 -2.33226 0
M  V30 1359 C 127.623 -2.25065 -1.99415 0
M  V30 1360 C 129.171 -2.29861 -2.12446 0
M  V30 1361 C 129.646 -3.52048 -2.92961 0
M  V30 1362 N 131.137 -3.52465 -3.00538 0
M  V30 1363 C 131.872 -4.43672 -3.63239 0
M  V30 1364 N 131.368 -5.45157 -4.27523 0
M  V30 1365 N 133.161 -4.31346 -3.60412 0
M  V30 1366 H 125.312 -2.07951 -0.432471 0
M  V30 1367 H 127.575 -0.91339 -0.253816 0
M  V30 1368 H 127.281 -3.18194 -1.49817 0
M  V30 1369 H 127.155 -2.28502 -3.00111 0
M  V30 1370 H 129.542 -1.37252 -2.61239 0
M  V30 1371 H 129.623 -2.3044 -1.11044 0
M  V30 1372 H 129.267 -4.44981 -2.44856 0
M  V30 1373 H 129.197 -3.48715 -3.94596 0
M  V30 1374 H 131.688 -2.79056 -2.54826 0
M  V30 1375 H 132.001 -6.10958 -4.73234 0
M  V30 1376 H 130.346 -5.49025 -4.26141 0
M  V30 1377 H 133.537 -3.51288 -3.09377 0
M  V30 1378 H 133.71 -5.02624 -4.0899 0
M  V30 1379 N 127.117 1.15442 -1.07289 0
M  V30 1380 C 128.08 2.18358 -0.696591 0
M  V30 1381 C 129.08 1.58637 0.262837 0
M  V30 1382 O 130.27 1.74145 0.0438809 0
M  V30 1383 C 127.402 3.4089 -0.0266151 0
M  V30 1384 H 128.595 2.53162 -1.60776 0
M  V30 1385 H 126.148 1.29893 -0.869342 0
M  V30 1386 H 126.883 3.11653 0.896822 0
M  V30 1387 H 126.668 3.85495 -0.716657 0
M  V30 1388 H 128.158 4.17009 0.222028 0
M  V30 1389 N 128.595 0.856903 1.32268 0
M  V30 1390 C 129.505 0.306131 2.32594 0
M  V30 1391 C 130.521 -0.577209 1.64147 0
M  V30 1392 O 131.697 -0.477043 1.95669 0
M  V30 1393 C 128.762 -0.494561 3.43154 0
M  V30 1394 C 127.823 0.415186 4.27288 0
M  V30 1395 C 127.056 -0.347387 5.32568 0
M  V30 1396 O 127.279 -1.57708 5.48165 0
M  V30 1397 O 126.213 0.287982 6.01211 0
M  V30 1398 H 130.039 1.13737 2.81598 0
M  V30 1399 H 127.624 0.619902 1.35932 0
M  V30 1400 H 129.506 -0.948944 4.10576 0
M  V30 1401 H 128.181 -1.30257 2.96336 0
M  V30 1402 H 127.088 0.917793 3.62667 0
M  V30 1403 H 128.421 1.18844 4.77637 0
M  V30 1404 N 130.073 -1.45103 0.615059 0
M  V30 1405 C 131.021 -2.32331 -0.111791 0
M  V30 1406 C 132.015 -1.46409 -0.852102 0
M  V30 1407 O 133.221 -1.62849 -0.766821 0
M  V30 1408 H 129.596 -0.749993 -0.0549072 0
M  V30 1409 H 131.567 -2.91407 0.642225 0
M  V30 1410 C 130.316 -3.3015 -1.09071 0
M  V30 1411 H 129.639 -3.96265 -0.530485 0
M  V30 1412 H 131.079 -3.93898 -1.56908 0
M  V30 1413 C 129.538 -2.57875 -2.168 0
M  V30 1414 O 130.068 -2.36567 -3.24652 0
M  V30 1415 N 128.274 -2.17884 -1.92289 0
M  V30 1416 H 127.821 -2.35413 -1.04587 0
M  V30 1417 H 127.779 -1.6985 -2.64572 0
M  V30 1418 N 131.551 -0.354651 -1.53558 0
M  V30 1419 C 132.799 0.237972 -2.00694 0
M  V30 1420 C 133.12 1.50173 -1.24391 0
M  V30 1421 O 132.39 1.92673 -0.354135 0
M  V30 1422 H 130.97 0.0909256 -0.741446 0
M  V30 1423 H 133.632 -0.478368 -1.88938 0
M  V30 1424 H 132.728 0.47264 -3.085 0
M  V30 1425 N 133.029 1.57378 -0.0835403 0
M  V30 1426 C 134.275 1.94217 0.583733 0
M  V30 1427 C 134.608 0.964653 1.68547 0
M  V30 1428 O 133.883 -0.00422258 1.945 0
M  V30 1429 C 134.166 3.41253 1.14972 0
M  V30 1430 C 134.019 4.49768 0.0538277 0
M  V30 1431 C 135.338 3.89352 2.05166 0
M  V30 1432 H 132.457 0.706233 0.210724 0
M  V30 1433 H 135.099 1.89392 -0.1519 0
M  V30 1434 H 133.249 3.45496 1.77665 0
M  V30 1435 H 134.921 4.57641 -0.579851 0
M  V30 1436 H 133.164 4.29432 -0.614068 0
M  V30 1437 H 133.835 5.49817 0.490452 0
M  V30 1438 H 136.311 3.87189 1.52393 0
M  V30 1439 H 135.187 4.92822 2.41698 0
M  V30 1440 H 135.448 3.27973 2.96456 0
M  V30 1441 N 134.507 -0.190092 1.56449 0
M  V30 1442 C 135.417 -1.25591 1.98152 0
M  V30 1443 C 136.433 -1.49519 0.889944 0
M  V30 1444 O 137.609 -1.62036 1.19609 0
M  V30 1445 C 134.674 -2.57916 2.3169 0
M  V30 1446 C 133.735 -2.42015 3.5458 0
M  V30 1447 C 132.968 -3.6803 3.8651 0
M  V30 1448 O 133.191 -4.72413 3.1966 0
M  V30 1449 O 132.125 -3.6326 4.79923 0
M  V30 1450 H 135.951 -0.931988 2.89046 0
M  V30 1451 H 133.536 -0.395488 1.4407 0
M  V30 1452 H 135.418 -3.36008 2.54316 0
M  V30 1453 H 134.093 -2.89925 1.43963 0
M  V30 1454 H 133 -1.62017 3.37196 0
M  V30 1455 H 134.333 -2.14937 4.4279 0
M  V30 1456 N 135.985 -1.50799 -0.457987 0
M  V30 1457 C 136.915 -1.73553 -1.5621 0
M  V30 1458 C 137.896 -0.584774 -1.59732 0
M  V30 1459 O 139.081 -0.825314 -1.7579 0
M  V30 1460 C 136.211 -1.84169 -2.94447 0
M  V30 1461 C 135.165 -2.99461 -3.0579 0
M  V30 1462 C 134.491 -2.95235 -4.45803 0
M  V30 1463 C 135.791 -4.39766 -2.81786 0
M  V30 1464 H 137.485 -2.66 -1.37421 0
M  V30 1465 H 135.031 -1.28002 -0.659662 0
M  V30 1466 H 136.984 -1.98672 -3.71628 0
M  V30 1467 H 135.708 -0.883545 -3.14422 0
M  V30 1468 H 134.367 -2.8463 -2.31044 0
M  V30 1469 H 134.015 -1.97239 -4.62715 0
M  V30 1470 H 133.715 -3.72642 -4.54326 0
M  V30 1471 H 135.239 -3.11803 -5.24987 0
M  V30 1472 H 136.653 -4.55054 -3.4871 0
M  V30 1473 H 135.05 -5.18722 -3.0174 0
M  V30 1474 H 136.12 -4.51229 -1.7754 0
M  V30 1475 N 137.463 0.71206 -1.40597 0
M  V30 1476 C 138.426 1.80785 -1.40888 0
M  V30 1477 C 139.426 1.57937 -0.302103 0
M  V30 1478 O 140.616 1.64913 -0.561182 0
M  V30 1479 C 137.748 3.18927 -1.20409 0
M  V30 1480 H 138.941 1.81924 -2.38419 0
M  V30 1481 H 136.494 0.91805 -1.26497 0
M  V30 1482 H 137.229 3.23436 -0.236522 0
M  V30 1483 H 137.014 3.36911 -2.00582 0
M  V30 1484 H 138.504 3.98949 -1.23408 0
M  V30 1485 N 138.941 1.26152 0.944643 0
M  V30 1486 C 139.851 1.09176 2.07648 0
M  V30 1487 C 140.867 0.0261935 1.7398 0
M  V30 1488 O 142.043 0.229208 2.00091 0
M  V30 1489 C 139.108 0.722915 3.39079 0
M  V30 1490 C 138.169 1.86752 3.86552 0
M  V30 1491 C 137.402 1.51617 5.11711 0
M  V30 1492 O 137.625 0.416331 5.68879 0
M  V30 1493 O 136.559 2.34975 5.54139 0
M  V30 1494 H 140.385 2.0412 2.24875 0
M  V30 1495 H 137.97 1.05182 1.061 0
M  V30 1496 H 139.852 0.529787 4.18056 0
M  V30 1497 H 138.527 -0.197159 3.23099 0
M  V30 1498 H 137.434 2.11558 3.08535 0
M  V30 1499 H 138.767 2.76719 4.07047 0
M  V30 1500 N 140.419 -1.14872 1.07899 0
M  V30 1501 C 141.351 -2.19425 0.662231 0
M  V30 1502 C 142.364 -1.60231 -0.288079 0
M  V30 1503 O 143.553 -1.78336 -0.076534 0
M  V30 1504 C 140.653 -3.38867 -0.0470695 0
M  V30 1505 C 139.826 -4.27597 0.920831 0
M  V30 1506 C 138.885 -5.25616 0.247805 0
M  V30 1507 O 137.911 -5.62189 0.890599 0
M  V30 1508 N 139.113 -5.71746 -1.00435 0
M  V30 1509 H 141.878 -2.55797 1.56166 0
M  V30 1510 H 139.439 -1.30042 0.964404 0
M  V30 1511 H 141.431 -4.01497 -0.50813 0
M  V30 1512 H 140.001 -3.00864 -0.848523 0
M  V30 1513 H 139.221 -3.61982 1.56087 0
M  V30 1514 H 140.509 -4.83748 1.57688 0
M  V30 1515 H 139.907 -5.44153 -1.54642 0
M  V30 1516 H 138.464 -6.36389 -1.40899 0
M  V30 1517 N 141.898 -0.863906 -1.31812 0
M  V30 1518 C 143.146 -0.470904 -1.96537 0
M  V30 1519 C 143.467 0.978771 -1.68657 0
M  V30 1520 O 142.737 1.6853 -0.998717 0
M  V30 1521 H 141.317 -0.171148 -0.72713 0
M  V30 1522 H 143.979 -1.10236 -1.60729 0
M  V30 1523 H 143.075 -0.623616 -3.05806 0
M  V30 1524 N 143.376 1.44774 -0.622745 0
M  V30 1525 C 144.624 2.01721 -0.123655 0
M  V30 1526 C 144.945 1.49172 1.25589 0
M  V30 1527 O 144.215 0.691974 1.83272 0
M  V30 1528 H 142.795 0.745777 -0.0427225 0
M  V30 1529 H 145.457 1.77382 -0.807559 0
M  V30 1530 H 144.553 3.11984 -0.0849534 0
M  V30 1531 N 144.854 0.36279 1.53368 0
M  V30 1532 C 146.1 -0.220702 2.02199 0
M  V30 1533 C 146.455 -1.46649 1.24546 0
M  V30 1534 O 145.748 -1.88737 0.32996 0
M  V30 1535 C 145.942 -0.568417 3.52851 0
M  V30 1536 C 145.771 0.642126 4.45092 0
M  V30 1537 C 144.541 1.15335 4.91961 0
M  V30 1538 C 146.739 1.50649 4.91741 0
M  V30 1539 N 144.721 2.3242 5.68202 0
M  V30 1540 C 146.092 2.52404 5.66297 0
M  V30 1541 C 148.147 1.52969 4.73819 0
M  V30 1542 C 146.85 3.56331 6.24836 0
M  V30 1543 C 148.876 2.55789 5.33222 0
M  V30 1544 C 148.238 3.56268 6.07662 0
M  V30 1545 H 144.337 -0.0435508 0.780786 0
M  V30 1546 H 146.921 0.506704 1.87991 0
M  V30 1547 H 145.092 -1.2649 3.67226 0
M  V30 1548 H 146.824 -1.13676 3.88407 0
M  V30 1549 H 143.579 0.718412 4.68119 0
M  V30 1550 H 144.003 2.91591 6.10986 0
M  V30 1551 H 148.645 0.766418 4.15795 0
M  V30 1552 H 146.363 4.33543 6.81958 0
M  V30 1553 H 149.949 2.58435 5.21251 0
M  V30 1554 H 148.829 4.34524 6.52808 0
M  V30 1555 N 146.332 -1.57332 0.0918853 0
M  V30 1556 C 147.262 -2.16872 -0.865371 0
M  V30 1557 C 148.243 -1.10118 -1.29646 0
M  V30 1558 O 149.428 -1.38242 -1.36392 0
M  V30 1559 C 146.558 -2.74649 -2.12569 0
M  V30 1560 C 145.512 -3.86747 -1.83333 0
M  V30 1561 C 144.838 -4.31212 -3.16166 0
M  V30 1562 C 146.138 -5.10089 -1.1228 0
M  V30 1563 H 147.832 -2.97114 -0.369307 0
M  V30 1564 H 145.378 -1.42918 -0.176194 0
M  V30 1565 H 147.331 -3.14952 -2.7997 0
M  V30 1566 H 146.055 -1.91657 -2.64452 0
M  V30 1567 H 144.714 -3.46978 -1.18331 0
M  V30 1568 H 144.362 -3.45115 -3.6593 0
M  V30 1569 H 144.062 -5.06788 -2.97388 0
M  V30 1570 H 145.586 -4.74146 -3.84731 0
M  V30 1571 H 147 -5.47582 -1.69785 0
M  V30 1572 H 145.397 -5.91073 -1.03693 0
M  V30 1573 H 146.467 -4.84786 -0.105041 0
M  V30 1574 N 147.81 0.181792 -1.56548 0
M  V30 1575 C 148.743 1.25366 -1.90679 0
M  V30 1576 C 149.721 1.43299 -0.768376 0
M  V30 1577 O 150.905 1.58475 -1.02068 0
M  V30 1578 C 148.032 2.61826 -2.1486 0
M  V30 1579 C 147.078 2.60688 -3.37556 0
M  V30 1580 S 147.911 2.10804 -4.92262 0
M  V30 1581 C 149.067 3.49062 -5.19525 0
M  V30 1582 H 149.3 0.962277 -2.81296 0
M  V30 1583 H 146.833 0.385892 -1.495 0
M  V30 1584 H 148.791 3.40371 -2.29473 0
M  V30 1585 H 147.452 2.88169 -1.24969 0
M  V30 1586 H 146.645 3.61058 -3.51643 0
M  V30 1587 H 146.247 1.90232 -3.22006 0
M  V30 1588 H 148.539 4.45003 -5.10861 0
M  V30 1589 H 149.482 3.39859 -6.2121 0
M  V30 1590 H 149.89 3.4459 -4.47122 0
M  V30 1591 N 149.288 1.51039 0.449983 0
M  V30 1592 C 150.251 1.70863 1.5277 0
M  V30 1593 C 151.251 0.578846 1.5002 0
M  V30 1594 O 152.441 0.846213 1.52266 0
M  V30 1595 C 149.573 1.75341 2.9235 0
M  V30 1596 H 150.766 2.67034 1.36502 0
M  V30 1597 H 148.319 1.40838 0.677812 0
M  V30 1598 H 149.054 0.809383 3.14037 0
M  V30 1599 H 148.839 2.57436 2.95752 0
M  V30 1600 H 150.329 1.92559 3.70555 0
M  V30 1601 N 150.766 -0.704594 1.40972 0
M  V30 1602 C 151.729 -1.80035 1.41845 0
M  V30 1603 C 152.729 -1.57774 0.310474 0
M  V30 1604 O 153.919 -1.64613 0.56992 0
M  V30 1605 C 151.051 -3.18284 1.22098 0
M  V30 1606 H 152.244 -1.80658 2.3938 0
M  V30 1607 H 149.797 -0.911329 1.26982 0
M  V30 1608 H 150.532 -3.23306 0.253672 0
M  V30 1609 H 150.317 -3.35843 2.02366 0
M  V30 1610 H 151.807 -3.98289 1.25522 0
M  V30 1611 N 152.244 -1.26651 -0.937939 0
M  V30 1612 C 153.154 -1.10276 -2.07066 0
M  V30 1613 C 154.17 -0.0354197 -1.73964 0
M  V30 1614 O 155.346 -0.239816 -1.99967 0
M  V30 1615 C 152.411 -0.740887 -3.38691 0
M  V30 1616 C 151.472 -1.88799 -3.85556 0
M  V30 1617 C 150.705 -1.54329 -5.10899 0
M  V30 1618 O 150.928 -0.446494 -5.6865 0
M  V30 1619 O 149.862 -2.37911 -5.52885 0
M  V30 1620 H 153.688 -2.05309 -2.23789 0
M  V30 1621 H 151.273 -1.05743 -1.0554 0
M  V30 1622 H 153.155 -0.55195 -4.1777 0
M  V30 1623 H 151.83 0.180022 -3.23199 0
M  V30 1624 H 150.737 -2.13191 -3.07409 0
M  V30 1625 H 152.07 -2.78874 -4.05574 0
M  V30 1626 N 153.722 1.14298 -1.08507 0
M  V30 1627 C 154.652 2.21542 -0.737646 0
M  V30 1628 C 155.633 1.67773 0.280377 0
M  V30 1629 O 156.818 1.93616 0.150521 0
M  V30 1630 C 153.948 3.46988 -0.147259 0
M  V30 1631 C 152.902 4.13789 -1.09374 0
M  V30 1632 C 152.228 5.33449 -0.365524 0
M  V30 1633 C 153.528 4.62208 -2.4323 0
M  V30 1634 H 155.222 2.5086 -1.6343 0
M  V30 1635 H 152.768 1.20576 -0.787243 0
M  V30 1636 H 154.721 4.21262 0.107808 0
M  V30 1637 H 153.445 3.17037 0.784538 0
M  V30 1638 H 152.104 3.4147 -1.33393 0
M  V30 1639 H 151.752 4.99759 0.57011 0
M  V30 1640 H 151.452 5.79088 -0.996512 0
M  V30 1641 H 152.976 6.10485 -0.118534 0
M  V30 1642 H 154.39 5.27952 -2.23472 0
M  V30 1643 H 152.787 5.18553 -3.02031 0
M  V30 1644 H 153.857 3.77224 -3.04681 0
M  V30 1645 N 155.201 0.870884 1.31352 0
M  V30 1646 C 156.45 0.478408 1.95944 0
M  V30 1647 C 156.763 -0.974493 1.69597 0
M  V30 1648 O 157.969 -1.47316 2.28058 0
M  V30 1649 C 156.425 0.804609 3.50791 0
M  V30 1650 C 156.033 2.27433 3.85977 0
M  V30 1651 C 157.777 0.480648 4.2177 0
M  V30 1652 C 155.684 2.5429 5.33939 0
M  V30 1653 H 154.614 0.175175 0.733369 0
M  V30 1654 H 157.265 1.06391 1.4951 0
M  V30 1655 H 155.647 0.148347 3.95722 0
M  V30 1656 H 156.821 2.97373 3.52002 0
M  V30 1657 H 155.136 2.56442 3.28065 0
M  V30 1658 H 157.733 0.658519 5.30629 0
M  V30 1659 H 158.076 -0.578979 4.12254 0
M  V30 1660 H 158.609 1.09349 3.82476 0
M  V30 1661 H 155.348 3.58939 5.48491 0
M  V30 1662 H 154.868 1.88945 5.69263 0
M  V30 1663 H 156.547 2.39066 6.01212 0
M  V30 1664 N 156.679 -1.44442 0.630414 0
M  V30 1665 C 157.642 -2.29107 -0.0652523 0
M  V30 1666 C 158.642 -1.41002 -0.772995 0
M  V30 1667 O 159.832 -1.62881 -0.617692 0
M  V30 1668 C 156.964 -3.22564 -1.10296 0
M  V30 1669 H 158.157 -2.92103 0.679401 0
M  V30 1670 H 155.71 -1.51343 0.390517 0
M  V30 1671 H 156.445 -2.64416 -1.87762 0
M  V30 1672 H 156.23 -3.87491 -0.59941 0
M  V30 1673 H 157.72 -3.86167 -1.5895 0
M  V30 1674 N 158.157 -0.370918 -1.53173 0
M  V30 1675 C 159.107 0.489588 -2.22681 0
M  V30 1676 C 160.091 1.04442 -1.22395 0
M  V30 1677 O 161.283 0.973578 -1.47819 0
M  V30 1678 C 158.412 1.626 -3.02351 0
M  V30 1679 C 157.498 1.08379 -4.10018 0
M  V30 1680 N 157.889 0.265004 -5.05105 0
M  V30 1681 C 156.187 1.35809 -4.2482 0
M  V30 1682 C 156.888 -0.0324755 -5.81691 0
M  V30 1683 N 155.864 0.566581 -5.40639 0
M  V30 1684 H 159.666 -0.142729 -2.93553 0
M  V30 1685 H 157.18 -0.179221 -1.61408 0
M  V30 1686 H 159.177 2.2547 -3.50669 0
M  V30 1687 H 157.837 2.26132 -2.33011 0
M  V30 1688 H 158.848 -0.0962352 -5.17811 0
M  V30 1689 H 155.525 1.9958 -3.66707 0
M  V30 1690 H 156.915 -0.69473 -6.68299 0
M  V30 1691 N 159.635 1.57281 -0.100228 0
M  V30 1692 C 160.912 1.86014 0.604812 0
M  V30 1693 C 161.292 0.998025 1.86018 0
M  V30 1694 O 160.64 0.0718184 2.28387 0
M  V30 1695 C 160.85 3.36784 0.915278 0
M  V30 1696 C 162.198 4.04957 1.27651 0
M  V30 1697 O 163.222 3.41695 1.00613 0
M  V30 1698 O 162.081 5.16593 1.7831 0
M  V30 1699 H 159.175 0.76942 0.303185 0
M  V30 1700 H 161.721 1.69176 -0.133313 0
M  V30 1701 H 160.493 3.91292 0.0248896 0
M  V30 1702 H 160.116 3.58987 1.70921 0
M  V30 1703 N 161.113 -0.173488 1.56642 0
M  V30 1704 C 162.359 -0.891784 1.8214 0
M  V30 1705 C 162.692 -1.8199 0.677736 0
M  V30 1706 O 161.967 -1.91842 -0.320446 0
M  V30 1707 C 162.25 -1.68933 3.18015 0
M  V30 1708 C 162.103 -0.784487 4.42906 0
M  V30 1709 C 163.422 -2.65748 3.50808 0
M  V30 1710 H 160.541 -0.322761 0.662567 0
M  V30 1711 H 163.183 -0.158095 1.89341 0
M  V30 1712 H 161.333 -2.31482 3.12007 0
M  V30 1713 H 163.005 -0.172046 4.60979 0
M  V30 1714 H 161.248 -0.0924117 4.33702 0
M  V30 1715 H 161.919 -1.37799 5.34524 0
M  V30 1716 H 164.395 -2.13327 3.57255 0
M  V30 1717 H 163.271 -3.18619 4.4696 0
M  V30 1718 H 163.532 -3.45842 2.75401 0
M  V30 1719 N 162.591 -1.51276 -0.441967 0
M  V30 1720 C 163.868 -1.54252 -1.20273 0
M  V30 1721 C 164.248 -0.30408 -2.08898 0
M  V30 1722 O 163.596 0.711084 -2.17154 0
M  V30 1723 C 163.806 -2.85406 -2.00859 0
M  V30 1724 C 165.154 -3.37181 -2.58059 0
M  V30 1725 O 166.178 -2.86925 -2.11074 0
M  V30 1726 O 165.037 -4.24858 -3.43741 0
M  V30 1727 H 162.131 -0.619969 -0.547328 0
M  V30 1728 H 164.677 -1.63586 -0.451413 0
M  V30 1729 H 163.449 -3.67003 -1.35736 0
M  V30 1730 H 163.072 -2.79213 -2.83065 0
M  V30 1731 N 164.069 0.697108 -1.41344 0
M  V30 1732 C 164.999 1.82353 -1.45841 0
M  V30 1733 C 165.98 1.67115 -0.317247 0
M  V30 1734 O 167.165 1.86871 -0.528474 0
M  V30 1735 C 164.295 3.20476 -1.33838 0
M  V30 1736 C 163.249 3.50415 -2.4575 0
M  V30 1737 C 162.575 4.87878 -2.18813 0
M  V30 1738 C 163.875 3.49546 -3.88091 0
M  V30 1739 H 165.569 1.78846 -2.40113 0
M  V30 1740 H 163.115 0.859028 -1.15571 0
M  V30 1741 H 165.068 3.98988 -1.35596 0
M  V30 1742 H 163.792 3.24604 -0.360498 0
M  V30 1743 H 162.451 2.74253 -2.43271 0
M  V30 1744 H 162.099 4.8863 -1.19371 0
M  V30 1745 H 161.799 5.08875 -2.93803 0
M  V30 1746 H 163.323 5.68702 -2.22284 0
M  V30 1747 H 164.737 4.18066 -3.92293 0
M  V30 1748 H 163.134 3.82075 -4.62751 0
M  V30 1749 H 164.204 2.48552 -4.16353 0
M  V30 1750 N 165.547 1.27147 0.931209 0
M  V30 1751 C 166.772 1.16191 1.71797 0
M  V30 1752 C 167.197 -0.278004 1.86034 0
M  V30 1753 O 166.555 -1.20137 1.35782 0
M  V30 1754 C 166.603 1.84673 3.09723 0
M  V30 1755 O 165.707 1.14231 3.96264 0
M  V30 1756 H 165.048 0.404303 0.526721 0
M  V30 1757 H 167.578 1.68152 1.1656 0
M  V30 1758 H 167.588 1.91893 3.60057 0
M  V30 1759 H 166.263 2.89421 2.98677 0
M  V30 1760 H 164.84 1.15056 3.54706 0
M  V30 1761 N 167.025 -1.13721 1.09112 0
M  V30 1762 C 168.272 -1.84924 0.825192 0
M  V30 1763 C 168.6 -1.83347 -0.649151 0
M  V30 1764 O 167.855 -1.26449 -1.49362 0
M  V30 1765 C 168.154 -3.32861 1.30146 0
M  V30 1766 C 167.82 -3.54621 2.78486 0
M  V30 1767 C 166.482 -3.60268 3.18999 0
M  V30 1768 C 168.834 -3.62855 3.74146 0
M  V30 1769 C 166.162 -3.71679 4.53951 0
M  V30 1770 C 168.514 -3.75793 5.08883 0
M  V30 1771 C 167.178 -3.79692 5.4899 0
M  V30 1772 H 166.448 -0.676684 0.301959 0
M  V30 1773 H 169.095 -1.3428 1.36533 0
M  V30 1774 H 167.4 -3.85835 0.681064 0
M  V30 1775 H 169.097 -3.86395 1.07236 0
M  V30 1776 H 165.687 -3.50879 2.46134 0
M  V30 1777 H 169.871 -3.57775 3.43963 0
M  V30 1778 H 165.127 -3.72963 4.84467 0
M  V30 1779 H 169.301 -3.81107 5.82864 0
M  V30 1780 H 166.928 -3.88287 6.53558 0
M  V30 1781 N 168.503 -0.877838 -1.30888 0
M  V30 1782 C 169.466 -0.344265 -2.266 0
M  V30 1783 C 170.466 0.50922 -1.52524 0
M  V30 1784 O 171.656 0.317398 -1.71284 0
M  V30 1785 C 168.788 0.510198 -3.37061 0
M  V30 1786 H 169.981 -1.1893 -2.7531 0
M  V30 1787 H 167.534 -0.654088 -1.41956 0
M  V30 1788 H 168.269 1.37612 -2.93655 0
M  V30 1789 H 168.054 -0.101047 -3.9197 0
M  V30 1790 H 169.544 0.875537 -4.08319 0
M  V30 1791 N 169.982 1.44106 -0.638065 0
M  V30 1792 C 171.393 1.85316 -0.226894 0
M  V30 1793 C 171.744 1.53399 1.22324 0
M  V30 1794 O 170.869 0.975463 1.93167 0
M  V30 1795 C 171.464 3.3637 -0.405013 0
M  V30 1796 C 170.023 3.76369 -0.0482902 0
M  V30 1797 C 169.17 2.67921 -0.715108 0
M  V30 1798 H 172.121 1.34474 -0.842764 0
M  V30 1799 H 172.142 3.7885 0.354 0
M  V30 1800 H 171.654 3.59569 -1.46053 0
M  V30 1801 H 169.755 3.58784 1.00522 0
M  V30 1802 H 169.868 4.76856 -0.463187 0
M  V30 1803 H 168.232 2.54259 -0.149753 0
M  V30 1804 H 169.015 2.93951 -1.77335 0
M  V30 1805 N 171.46 0.379036 1.52974 0
M  V30 1806 C 172.706 -0.206727 2.01744 0
M  V30 1807 C 173.039 -1.47314 1.26539 0
M  V30 1808 O 172.314 -1.91084 0.362903 0
M  V30 1809 C 172.597 -0.485066 3.56818 0
M  V30 1810 C 172.45 0.795919 4.42702 0
M  V30 1811 C 173.769 -1.28003 4.21074 0
M  V30 1812 H 170.888 -0.0736607 0.73331 0
M  V30 1813 H 173.53 0.506581 1.83122 0
M  V30 1814 H 171.68 -1.09272 3.72816 0
M  V30 1815 H 173.352 1.43307 4.38476 0
M  V30 1816 H 171.595 1.41344 4.10127 0
M  V30 1817 H 172.266 0.555947 5.49193 0
M  V30 1818 H 174.742 -0.765867 4.08991 0
M  V30 1819 H 173.618 -1.44352 5.29579 0
M  V30 1820 H 173.879 -2.29236 3.78026 0
M  V30 1821 N 172.938 -1.57226 0.108567 0
M  V30 1822 C 173.868 -2.17778 -0.84232 0
M  V30 1823 C 174.849 -1.11487 -1.2847 0
M  V30 1824 O 176.034 -1.39681 -1.34918 0
M  V30 1825 C 173.164 -2.76888 -2.09644 0
M  V30 1826 C 172.118 -3.88669 -1.79221 0
M  V30 1827 C 171.444 -4.34541 -3.11574 0
M  V30 1828 C 172.744 -5.11251 -1.06864 0
M  V30 1829 H 174.438 -2.97489 -0.337774 0
M  V30 1830 H 171.984 -1.43097 -0.161025 0
M  V30 1831 H 173.937 -3.17904 -2.76614 0
M  V30 1832 H 172.661 -1.94451 -2.62405 0
M  V30 1833 H 171.32 -3.48213 -1.14644 0
M  V30 1834 H 170.968 -3.48977 -3.62249 0
M  V30 1835 H 170.668 -5.09914 -2.91996 0
M  V30 1836 H 172.192 -4.782 -3.7968 0
M  V30 1837 H 173.606 -5.49352 -1.63968 0
M  V30 1838 H 172.003 -5.9214 -0.974178 0
M  V30 1839 H 173.073 -4.8487 -0.0536168 0
M  V30 1840 N 174.416 0.165178 -1.56732 0
M  V30 1841 C 175.693 0.908443 -1.73224 0
M  V30 1842 C 176.073 2.0013 -0.67165 0
M  V30 1843 O 175.421 2.26353 0.31253 0
M  V30 1844 C 175.631 1.46756 -3.16644 0
M  V30 1845 C 176.979 1.93809 -3.77787 0
M  V30 1846 O 178.003 1.56537 -3.1996 0
M  V30 1847 O 176.862 2.62486 -4.79336 0
M  V30 1848 H 173.956 0.428025 -0.707618 0
M  V30 1849 H 176.502 0.152526 -1.69013 0
M  V30 1850 H 175.274 0.68129 -3.85323 0
M  V30 1851 H 174.897 2.28749 -3.25207 0
M  V30 1852 N 175.894 1.51508 0.433938 0
M  V30 1853 C 176.827 1.67756 1.54704 0
M  V30 1854 C 177.805 0.525127 1.53887 0
M  V30 1855 O 178.989 0.749393 1.72963 0
M  V30 1856 C 176.116 1.69424 2.9328 0
M  V30 1857 C 175.162 2.90673 3.12108 0
M  V30 1858 S 175.995 4.51431 2.88046 0
M  V30 1859 C 177.151 4.55849 4.28897 0
M  V30 1860 H 177.384 2.61904 1.40689 0
M  V30 1861 H 174.917 1.41235 0.62386 0
M  V30 1862 H 176.875 1.7107 3.73156 0
M  V30 1863 H 175.536 0.764464 3.04655 0
M  V30 1864 H 174.729 2.88251 4.13434 0
M  V30 1865 H 174.331 2.86786 2.40062 0
M  V30 1866 H 176.623 4.31699 5.22152 0
M  V30 1867 H 177.566 5.57676 4.36351 0
M  V30 1868 H 177.974 3.85137 4.12711 0
M  V30 1869 N 177.372 -0.689602 1.41712 0
M  V30 1870 C 178.62 -1.4468 1.4111 0
M  V30 1871 C 178.941 -1.94986 0.0232196 0
M  V30 1872 O 178.211 -1.72097 -0.935913 0
M  V30 1873 H 176.791 -0.536847 0.519427 0
M  V30 1874 H 179.453 -0.815825 1.77004 0
M  V30 1875 H 178.549 -2.30706 2.10193 0
M  V30 1876 N 178.85 -1.27639 -0.924453 0
M  V30 1877 C 180.097 -1.14167 -1.67249 0
M  V30 1878 C 180.425 0.311863 -1.91984 0
M  V30 1879 O 179.68 1.24425 -1.51053 0
M  V30 1880 C 179.979 -1.87407 -3.04325 0
M  V30 1881 C 179.645 -3.37249 -2.99289 0
M  V30 1882 C 178.307 -3.7812 -2.97622 0
M  V30 1883 C 180.659 -4.32845 -2.90336 0
M  V30 1884 C 177.987 -5.12944 -2.8479 0
M  V30 1885 C 180.339 -5.6773 -2.79045 0
M  V30 1886 C 179.003 -6.07889 -2.7573 0
M  V30 1887 H 178.273 -0.417766 -0.612007 0
M  V30 1888 H 180.92 -1.58286 -1.07786 0
M  V30 1889 H 179.225 -1.35805 -3.67511 0
M  V30 1890 H 180.922 -1.74408 -3.61086 0
M  V30 1891 H 177.512 -3.04748 -3.01374 0
M  V30 1892 H 181.696 -4.02239 -2.90719 0
M  V30 1893 H 176.952 -5.432 -2.80612 0
M  V30 1894 H 181.126 -6.41472 -2.71083 0
M  V30 1895 H 178.753 -7.12314 -2.65544 0
M  V30 1896 N 180.328 1.1314 -1.09713 0
M  V30 1897 C 181.291 2.16831 -0.742751 0
M  V30 1898 C 182.291 1.59159 0.229129 0
M  V30 1899 O 183.481 1.74199 0.00693237 0
M  V30 1900 C 180.613 3.40756 -0.0989168 0
M  V30 1901 H 181.806 2.49695 -1.66109 0
M  V30 1902 H 179.359 1.2802 -0.896699 0
M  V30 1903 H 180.094 3.13485 0.830514 0
M  V30 1904 H 179.879 3.83888 -0.798265 0
M  V30 1905 H 181.369 4.17386 0.133524 0
M  V30 1906 N 181.806 0.884767 1.30421 0
M  V30 1907 C 183.046 0.509806 1.9794 0
M  V30 1908 C 183.41 -0.923736 1.68319 0
M  V30 1909 O 184.611 -1.40481 2.29169 0
M  V30 1910 C 182.882 0.776732 3.48858 0
M  V30 1911 S 184.441 0.503843 4.35898 0
M  V30 1912 H 181.259 0.189699 0.685227 0
M  V30 1913 H 183.861 1.14399 1.58535 0
M  V30 1914 H 182.565 1.81857 3.67908 0
M  V30 1915 H 182.096 0.1301 3.93185 0
M  V30 1916 H 184.111 -0.657625 4.91823 0
M  V30 1917 N 183.284 -1.43765 0.645699 0
M  V30 1918 C 184.231 -2.30745 -0.0504648 0
M  V30 1919 C 185.201 -1.4432 -0.822241 0
M  V30 1920 O 186.386 -1.73202 -0.800358 0
M  V30 1921 C 183.526 -3.29802 -1.0161 0
M  V30 1922 C 182.639 -4.31326 -0.241219 0
M  V30 1923 C 181.774 -5.17469 -1.19998 0
M  V30 1924 C 180.813 -6.10691 -0.415094 0
M  V30 1925 N 179.95 -6.89483 -1.32506 0
M  V30 1926 H 184.79 -2.8973 0.697155 0
M  V30 1927 H 182.327 -1.42738 0.355563 0
M  V30 1928 H 184.285 -3.85734 -1.58949 0
M  V30 1929 H 182.915 -2.72483 -1.73069 0
M  V30 1930 H 181.967 -3.77749 0.448334 0
M  V30 1931 H 183.279 -4.9743 0.369437 0
M  V30 1932 H 182.433 -5.7799 -1.84424 0
M  V30 1933 H 181.172 -4.51473 -1.84455 0
M  V30 1934 H 180.177 -5.49265 0.242565 0
M  V30 1935 H 181.402 -6.78727 0.224966 0
M  V30 1936 H 179.348 -6.26142 -1.95657 0
M  V30 1937 H 179.265 -7.52081 -0.768783 0
M  V30 1938 H 180.533 -7.54516 -1.9577 0
M  V30 1939 N 184.763 -0.387143 -1.52771 0
M  V30 1940 C 185.726 0.436939 -2.24997 0
M  V30 1941 C 186.726 0.991991 -1.26555 0
M  V30 1942 O 187.916 0.874335 -1.50669 0
M  V30 1943 C 185.048 1.61281 -3.00335 0
M  V30 1944 H 186.241 -0.195365 -2.99263 0
M  V30 1945 H 183.794 -0.139218 -1.55679 0
M  V30 1946 H 184.529 2.2826 -2.30364 0
M  V30 1947 H 184.314 1.22154 -3.72587 0
M  V30 1948 H 185.804 2.19629 -3.5518 0
M  V30 1949 N 186.241 1.57166 -0.116904 0
M  V30 1950 C 187.49 1.94298 0.541407 0
M  V30 1951 C 187.803 1.00236 1.67964 0
M  V30 1952 O 189.009 1.26826 2.40057 0
M  V30 1953 C 187.465 3.45306 1.01449 0
M  V30 1954 C 187.073 4.47899 -0.0951738 0
M  V30 1955 C 188.817 3.91361 1.6443 0
M  V30 1956 C 186.724 5.90083 0.394491 0
M  V30 1957 H 185.654 0.725308 0.206019 0
M  V30 1958 H 188.305 1.82446 -0.196419 0
M  V30 1959 H 186.687 3.52385 1.80667 0
M  V30 1960 H 187.861 4.52486 -0.871374 0
M  V30 1961 H 186.176 4.11583 -0.631505 0
M  V30 1962 H 188.773 4.95004 2.02176 0
M  V30 1963 H 189.116 3.3122 2.52189 0
M  V30 1964 H 189.649 3.87073 0.917559 0
M  V30 1965 H 186.388 6.53974 -0.447004 0
M  V30 1966 H 185.908 5.88921 1.13722 0
M  V30 1967 H 187.587 6.41307 0.856399 0
M  V30 1968 N 187.719 -0.156864 1.56817 0
M  V30 1969 C 188.967 -0.869404 1.82444 0
M  V30 1970 C 189.288 -1.82147 0.69623 0
M  V30 1971 O 188.558 -1.93847 -0.28287 0
M  V30 1972 H 187.138 -0.324043 0.673056 0
M  V30 1973 H 189.8 -0.153224 1.94297 0
M  V30 1974 H 188.896 -1.43761 2.77019 0
M  V30 1975 N 189.197 -1.51736 -0.425897 0
M  V30 1976 C 190.145 -1.74464 -1.53834 0
M  V30 1977 C 191.139 -0.611241 -1.57988 0
M  V30 1978 O 192.345 -0.792899 -1.61596 0
M  V30 1979 H 188.72 -0.551437 -0.511293 0
M  V30 1980 H 190.691 -2.67694 -1.31843 0
M  V30 1981 C 189.44 -1.8972 -2.91379 0
M  V30 1982 H 188.763 -2.76344 -2.88919 0
M  V30 1983 H 190.203 -2.09629 -3.68553 0
M  V30 1984 C 188.662 -0.65992 -3.30374 0
M  V30 1985 O 189.192 0.180083 -4.01296 0
M  V30 1986 N 187.398 -0.500677 -2.86254 0
M  V30 1987 H 186.945 -1.18532 -2.28709 0
M  V30 1988 H 186.903 0.325903 -3.12706 0
M  V30 1989 N 190.675 0.682077 -1.42076 0
M  V30 1990 C 192.091 0.994324 -1.24841 0
M  V30 1991 C 192.291 2.0096 -0.147389 0
M  V30 1992 O 191.347 2.47822 0.483782 0
M  V30 1993 C 192.66 1.50607 -2.60265 0
M  V30 1994 C 194.208 1.62421 -2.6756 0
M  V30 1995 C 194.683 2.16994 -4.03333 0
M  V30 1996 N 196.174 2.24337 -4.0525 0
M  V30 1997 C 196.909 2.67621 -5.07116 0
M  V30 1998 N 196.405 3.1041 -6.19368 0
M  V30 1999 N 198.198 2.67305 -4.94474 0
M  V30 2000 H 190.349 0.00973908 -2.12398 0
M  V30 2001 H 192.612 0.0668593 -0.945639 0
M  V30 2002 H 192.318 0.834583 -3.41654 0
M  V30 2003 H 192.192 2.48602 -2.83684 0
M  V30 2004 H 194.579 2.28678 -1.86521 0
M  V30 2005 H 194.66 0.629352 -2.47937 0
M  V30 2006 H 194.304 1.51349 -4.84826 0
M  V30 2007 H 194.234 3.17258 -4.20304 0
M  V30 2008 H 196.725 1.94158 -3.24209 0
M  V30 2009 H 197.038 3.42103 -6.92954 0
M  V30 2010 H 195.383 3.08286 -6.22884 0
M  V30 2011 H 198.574 2.33233 -4.05857 0
M  V30 2012 H 198.747 3.00718 -5.73997 0
M  V30 2013 N 192.153 1.28127 0.917671 0
M  V30 2014 C 193.116 1.11744 2.00115 0
M  V30 2015 C 194.116 0.0583052 1.60694 0
M  V30 2016 O 195.306 0.303755 1.71531 0
M  V30 2017 C 192.438 0.704862 3.33533 0
M  V30 2018 H 193.631 2.07966 2.16079 0
M  V30 2019 H 191.184 1.11058 1.09981 0
M  V30 2020 H 191.919 -0.258299 3.2327 0
M  V30 2021 H 191.704 1.4699 3.63505 0
M  V30 2022 H 193.194 0.612768 4.1308 0
M  V30 2023 N 193.631 -1.12557 1.10312 0
M  V30 2024 C 194.878 -1.84038 0.844759 0
M  V30 2025 C 195.206 -1.84026 -0.629668 0
M  V30 2026 O 194.461 -1.28026 -1.48013 0
M  V30 2027 C 194.76 -3.31462 1.33669 0
M  V30 2028 C 194.426 -3.51647 2.82232 0
M  V30 2029 C 193.088 -3.56864 3.22802 0
M  V30 2030 C 195.44 -3.58867 3.77974 0
M  V30 2031 C 192.768 -3.66844 4.57867 0
M  V30 2032 C 195.12 -3.70375 5.1284 0
M  V30 2033 C 193.784 -3.73848 5.52986 0
M  V30 2034 H 193.054 -0.673444 0.309119 0
M  V30 2035 H 195.701 -1.32824 1.37949 0
M  V30 2036 H 194.006 -3.85091 0.721949 0
M  V30 2037 H 195.703 -3.85236 1.11329 0
M  V30 2038 H 192.293 -3.48249 2.49842 0
M  V30 2039 H 196.477 -3.54107 3.47738 0
M  V30 2040 H 191.733 -3.67804 4.88396 0
M  V30 2041 H 195.907 -3.74904 5.86873 0
M  V30 2042 H 193.534 -3.81333 6.57639 0
M  V30 2043 N 195.109 -0.891671 -1.2995 0
M  V30 2044 C 196.357 -0.512486 -1.95494 0
M  V30 2045 C 196.678 0.942776 -1.70695 0
M  V30 2046 O 195.948 1.66374 -1.03424 0
M  V30 2047 H 194.528 -0.186533 -0.723336 0
M  V30 2048 H 197.19 -1.13621 -1.58355 0
M  V30 2049 H 196.286 -0.688342 -3.04415 0
M  V30 2050 N 196.587 1.43421 -0.653314 0
M  V30 2051 C 197.497 2.34568 0.0388565 0
M  V30 2052 C 198.513 1.53888 0.81207 0
M  V30 2053 O 199.689 1.86539 0.759294 0
M  V30 2054 C 196.754 3.32167 0.993269 0
M  V30 2055 C 195.815 4.28751 0.216977 0
M  V30 2056 C 195.048 5.21688 1.12593 0
M  V30 2057 O 195.271 5.19052 2.36519 0
M  V30 2058 O 194.205 5.98919 0.598284 0
M  V30 2059 H 198.031 2.95251 -0.711386 0
M  V30 2060 H 195.616 1.43564 -0.413502 0
M  V30 2061 H 197.498 3.92183 1.54176 0
M  V30 2062 H 196.173 2.73987 1.72374 0
M  V30 2063 H 195.08 3.72215 -0.375101 0
M  V30 2064 H 196.413 4.89913 -0.473924 0
M  V30 2065 N 198.065 0.39524 1.52563 0
M  V30 2066 C 199.342 -0.242908 1.94086 0
M  V30 2067 C 199.722 -1.63841 1.33114 0
M  V30 2068 O 199.07 -2.22928 0.501529 0
M  V30 2069 C 199.28 -0.26327 3.48006 0
M  V30 2070 C 200.628 -0.489354 4.21771 0
M  V30 2071 O 201.652 -0.343226 3.54543 0
M  V30 2072 O 200.511 -0.776169 5.4096 0
M  V30 2073 H 197.605 -0.152536 0.812811 0
M  V30 2074 H 200.151 0.450178 1.6362 0
M  V30 2075 H 198.923 0.713985 3.84731 0
M  V30 2076 H 198.546 -1.00103 3.84792 0
M  V30 2077 N 199.544 -1.57102 0.125237 0
M  V30 2078 C 200.79 -1.95697 -0.532035 0
M  V30 2079 C 201.123 -1.009 -1.6593 0
M  V30 2080 O 200.398 -0.047347 -1.94442 0
M  V30 2081 C 200.681 -3.44181 -1.05884 0
M  V30 2082 C 200.534 -4.49752 0.0654392 0
M  V30 2083 C 201.853 -3.94655 -1.9477 0
M  V30 2084 H 198.972 -0.711571 -0.191925 0
M  V30 2085 H 201.614 -1.88923 0.20206 0
M  V30 2086 H 199.764 -3.50085 -1.68442 0
M  V30 2087 H 201.436 -4.55943 0.700982 0
M  V30 2088 H 199.679 -4.27653 0.727709 0
M  V30 2089 H 200.35 -5.50924 -0.344505 0
M  V30 2090 H 202.826 -3.91094 -1.42074 0
M  V30 2091 H 201.702 -4.99057 -2.28546 0
M  V30 2092 H 201.963 -3.35718 -2.87656 0
M  V30 2093 N 201.022 0.148545 -1.56898 0
M  V30 2094 C 201.954 1.20852 -1.9475 0
M  V30 2095 C 202.967 1.39265 -0.843152 0
M  V30 2096 O 204.156 1.38864 -1.12156 0
M  V30 2097 C 201.256 2.57362 -2.20495 0
M  V30 2098 C 200.429 2.59947 -3.51776 0
M  V30 2099 C 199.488 3.77984 -3.6608 0
M  V30 2100 O 198.514 3.62929 -4.38487 0
M  V30 2101 N 199.716 4.95375 -3.02629 0
M  V30 2102 H 202.481 0.886804 -2.86279 0
M  V30 2103 H 200.042 0.338121 -1.5833 0
M  V30 2104 H 202.034 3.34833 -2.27307 0
M  V30 2105 H 200.604 2.81832 -1.35238 0
M  V30 2106 H 199.824 1.68403 -3.56419 0
M  V30 2107 H 201.112 2.58704 -4.38121 0
M  V30 2108 H 200.51 5.10509 -2.43715 0
M  V30 2109 H 199.067 5.70627 -3.15004 0
M  V30 2110 N 202.5 1.5196 0.417844 0
M  V30 2111 C 203.728 1.69426 1.18753 0
M  V30 2112 C 204.143 0.399955 1.84515 0
M  V30 2113 O 203.5 -0.623288 1.71527 0
M  V30 2114 C 203.551 2.82375 2.25714 0
M  V30 2115 O 203.272 4.06793 1.62638 0
M  V30 2116 C 204.773 3.11277 3.15628 0
M  V30 2117 H 201.993 0.568031 0.357186 0
M  V30 2118 H 204.537 1.98475 0.49273 0
M  V30 2119 H 202.692 2.5587 2.90877 0
M  V30 2120 H 203.106 4.69667 2.3348 0
M  V30 2121 H 204.58 3.93843 3.86771 0
M  V30 2122 H 205.057 2.24473 3.77503 0
M  V30 2123 H 205.663 3.39515 2.56144 0
M  V30 2124 N 203.978 -0.674533 1.42435 0
M  V30 2125 C 205.224 -1.43671 1.43131 0
M  V30 2126 C 205.557 -1.94142 0.0476021 0
M  V30 2127 O 204.832 -1.70924 -0.928188 0
M  V30 2128 C 205.115 -2.63355 2.45594 0
M  V30 2129 C 204.968 -2.18514 3.93156 0
M  V30 2130 C 206.287 -3.65571 2.45043 0
M  V30 2131 H 203.406 -0.521077 0.521198 0
M  V30 2132 H 206.048 -0.766551 1.7385 0
M  V30 2133 H 204.198 -3.2053 2.19528 0
M  V30 2134 H 205.87 -1.66504 4.30202 0
M  V30 2135 H 204.113 -1.50086 4.07009 0
M  V30 2136 H 204.784 -3.04484 4.60428 0
M  V30 2137 H 207.26 -3.18113 2.68223 0
M  V30 2138 H 206.136 -4.46893 3.18713 0
M  V30 2139 H 206.397 -4.16716 1.47649 0
M  V30 2140 N 205.456 -1.28612 -0.910864 0
M  V30 2141 C 206.386 -1.15326 -2.03032 0
M  V30 2142 C 207.367 -0.0502924 -1.70026 0
M  V30 2143 O 208.552 -0.227797 -1.92859 0
M  V30 2144 C 205.682 -0.817343 -3.37545 0
M  V30 2145 C 204.636 -1.8754 -3.84724 0
M  V30 2146 C 203.962 -1.39305 -5.16235 0
M  V30 2147 C 205.262 -3.28244 -4.06267 0
M  V30 2148 H 206.956 -2.08975 -2.14406 0
M  V30 2149 H 204.502 -1.00612 -1.03021 0
M  V30 2150 H 206.455 -0.711151 -4.15356 0
M  V30 2151 H 205.179 0.154846 -3.26233 0
M  V30 2152 H 203.838 -1.97079 -3.09121 0
M  V30 2153 H 203.486 -0.409846 -5.01328 0
M  V30 2154 H 203.186 -2.10057 -5.48771 0
M  V30 2155 H 204.71 -1.30014 -5.96598 0
M  V30 2156 H 206.124 -3.21611 -4.74594 0
M  V30 2157 H 204.521 -3.96855 -4.5014 0
M  V30 2158 H 205.591 -3.72048 -3.10979 0
M  V30 2159 N 206.934 1.1197 -1.10907 0
M  V30 2160 C 207.881 2.17846 -0.762345 0
M  V30 2161 C 208.851 1.63995 0.263599 0
M  V30 2162 O 210.036 1.90273 0.141773 0
M  V30 2163 C 207.176 3.44487 -0.205651 0
M  V30 2164 C 206.289 4.12369 -1.28748 0
M  V30 2165 C 205.424 5.26674 -0.691919 0
M  V30 2166 C 204.463 5.86431 -1.75399 0
M  V30 2167 N 203.6 6.92142 -1.17833 0
M  V30 2168 H 208.44 2.46851 -1.6694 0
M  V30 2169 H 205.977 1.21188 -0.833776 0
M  V30 2170 H 207.935 4.16981 0.135037 0
M  V30 2171 H 206.565 3.15884 0.664613 0
M  V30 2172 H 205.617 3.38003 -1.74522 0
M  V30 2173 H 206.929 4.52844 -2.09125 0
M  V30 2174 H 206.083 6.05953 -0.300963 0
M  V30 2175 H 204.822 4.8749 0.143232 0
M  V30 2176 H 203.827 5.05835 -2.15432 0
M  V30 2177 H 205.052 6.27685 -2.59208 0
M  V30 2178 H 202.998 6.54985 -0.364725 0
M  V30 2179 H 202.915 7.31242 -1.91887 0
M  V30 2180 H 204.183 7.75237 -0.81408 0
M  V30 2181 N 208.412 0.89855 1.29475 0
M  V30 2182 C 209.362 0.346767 2.25348 0
M  V30 2183 C 210.346 -0.532509 1.51833 0
M  V30 2184 O 211.538 -0.374714 1.72988 0
M  V30 2185 C 208.667 -0.425681 3.40651 0
M  V30 2186 C 207.753 0.46845 4.21505 0
M  V30 2187 N 208.144 1.57514 4.80648 0
M  V30 2188 C 206.442 0.26603 4.45206 0
M  V30 2189 C 207.143 2.12889 5.41344 0
M  V30 2190 N 206.119 1.42208 5.24669 0
M  V30 2191 H 209.921 1.19219 2.68634 0
M  V30 2192 H 207.435 0.749473 1.44072 0
M  V30 2193 H 209.432 -0.837716 4.08397 0
M  V30 2194 H 208.092 -1.26838 2.98902 0
M  V30 2195 H 209.103 1.95789 4.79465 0
M  V30 2196 H 205.78 -0.538394 4.14014 0
M  V30 2197 H 207.17 3.05901 5.98226 0
M  V30 2198 N 209.89 -1.43072 0.660911 0
M  V30 2199 C 211.115 -2.06584 0.183805 0
M  V30 2200 C 211.54 -1.49257 -1.14472 0
M  V30 2201 O 210.898 -0.605528 -1.70889 0
M  V30 2202 C 210.946 -3.60418 0.114434 0
M  V30 2203 O 210.05 -4.01981 -0.921137 0
M  V30 2204 H 209.391 -0.656669 0.0983994 0
M  V30 2205 H 211.921 -1.83447 0.906006 0
M  V30 2206 H 211.931 -4.07946 -0.0663394 0
M  V30 2207 H 210.606 -4.01519 1.08422 0
M  V30 2208 H 209.183 -3.66029 -0.71253 0
M  V30 2209 N 211.368 -0.403325 -1.52352 0
M  V30 2210 C 212.593 0.176499 -2.06648 0
M  V30 2211 C 213.018 1.38577 -1.27193 0
M  V30 2212 O 212.376 1.7879 -0.300637 0
M  V30 2213 C 212.424 0.511061 -3.5696 0
M  V30 2214 O 211.528 1.60294 -3.79973 0
M  V30 2215 H 210.869 0.0167337 -0.663789 0
M  V30 2216 H 213.399 -0.574848 -1.96359 0
M  V30 2217 H 213.409 0.771362 -4.00642 0
M  V30 2218 H 212.084 -0.37296 -4.14224 0
M  V30 2219 H 210.661 1.33526 -3.48174 0
M  V30 2220 N 212.846 1.57033 -0.133567 0
M  V30 2221 C 213.809 2.14897 0.796995 0
M  V30 2222 C 214.809 1.0874 1.18458 0
M  V30 2223 O 215.999 1.34446 1.1077 0
M  V30 2224 C 213.131 2.70112 2.07973 0
M  V30 2225 H 214.324 2.98457 0.293873 0
M  V30 2226 H 211.877 1.55871 0.115787 0
M  V30 2227 H 212.612 1.9018 2.62682 0
M  V30 2228 H 212.397 3.47764 1.81115 0
M  V30 2229 H 213.887 3.14738 2.74462 0
M  V30 2230 N 214.325 -0.140222 1.56975 0
M  V30 2231 C 215.572 -0.851687 1.83719 0
M  V30 2232 C 215.9 -1.80862 0.715485 0
M  V30 2233 O 215.155 -1.93464 -0.294956 0
M  V30 2234 C 215.454 -1.65386 3.16832 0
M  V30 2235 C 215.12 -0.843112 4.42947 0
M  V30 2236 C 213.782 -0.619464 4.77196 0
M  V30 2237 C 216.134 -0.276582 5.20466 0
M  V30 2238 C 213.462 0.181312 5.8642 0
M  V30 2239 C 215.814 0.51127 6.30531 0
M  V30 2240 C 214.478 0.745432 6.63325 0
M  V30 2241 H 213.748 -0.311654 0.672274 0
M  V30 2242 H 216.395 -0.115006 1.91154 0
M  V30 2243 H 214.7 -2.46084 3.04877 0
M  V30 2244 H 216.397 -2.20793 3.34741 0
M  V30 2245 H 212.987 -1.0275 4.16101 0
M  V30 2246 H 217.171 -0.436632 4.94376 0
M  V30 2247 H 212.427 0.372165 6.10266 0
M  V30 2248 H 216.601 0.957354 6.89788 0
M  V30 2249 H 214.228 1.36778 7.47794 0
M  V30 2250 N 215.803 -1.52179 -0.40978 0
M  V30 2251 C 216.733 -1.78435 -1.5061 0
M  V30 2252 C 217.714 -0.635295 -1.57791 0
M  V30 2253 O 218.899 -0.880823 -1.73076 0
M  V30 2254 C 216.029 -1.93444 -2.88439 0
M  V30 2255 C 214.983 -3.09038 -2.96108 0
M  V30 2256 C 214.309 -3.09268 -4.36185 0
M  V30 2257 C 215.609 -4.48508 -2.67652 0
M  V30 2258 H 217.303 -2.70237 -1.28889 0
M  V30 2259 H 214.849 -1.30036 -0.618605 0
M  V30 2260 H 216.802 -2.10394 -3.65119 0
M  V30 2261 H 215.526 -0.983129 -3.11452 0
M  V30 2262 H 214.185 -2.91837 -2.21872 0
M  V30 2263 H 213.833 -2.11861 -4.56206 0
M  V30 2264 H 213.533 -3.86907 -4.42241 0
M  V30 2265 H 215.057 -3.28348 -5.14801 0
M  V30 2266 H 216.471 -4.65918 -3.34056 0
M  V30 2267 H 214.868 -5.28059 -2.85085 0
M  V30 2268 H 215.938 -4.56649 -1.63095 0
M  V30 2269 N 217.281 0.66697 -1.42791 0
M  V30 2270 C 218.697 0.981027 -1.25889 0
M  V30 2271 C 218.897 2.00793 -0.168695 0
M  V30 2272 O 217.953 2.48321 0.45747 0
M  V30 2273 C 219.266 1.47838 -2.61848 0
M  V30 2274 C 220.814 1.59575 -2.69267 0
M  V30 2275 C 221.289 2.12704 -4.05612 0
M  V30 2276 N 222.78 2.20026 -4.07606 0
M  V30 2277 C 223.515 2.62227 -5.09926 0
M  V30 2278 N 223.011 3.03824 -6.22626 0
M  V30 2279 N 224.804 2.62045 -4.97281 0
M  V30 2280 H 216.955 -0.0127891 -2.12396 0
M  V30 2281 H 219.218 0.0568258 -0.946295 0
M  V30 2282 H 218.924 0.798299 -3.4252 0
M  V30 2283 H 218.798 2.45579 -2.86305 0
M  V30 2284 H 221.185 2.26687 -1.88936 0
M  V30 2285 H 221.266 0.60302 -2.48591 0
M  V30 2286 H 220.91 1.46198 -4.86404 0
M  V30 2287 H 220.84 3.12782 -4.23645 0
M  V30 2288 H 223.331 1.90708 -3.2625 0
M  V30 2289 H 223.644 3.34734 -6.96544 0
M  V30 2290 H 221.989 3.01662 -6.26119 0
M  V30 2291 H 225.18 2.28916 -4.08308 0
M  V30 2292 H 225.353 2.94613 -5.77154 0
M  V30 2293 N 218.759 1.29093 0.90403 0
M  V30 2294 C 220.007 1.16583 1.65085 0
M  V30 2295 C 220.328 -0.283933 1.92922 0
M  V30 2296 O 219.598 -1.19509 1.55224 0
M  V30 2297 H 218.178 0.428467 0.611903 0
M  V30 2298 H 220.84 1.61959 1.08422 0
M  V30 2299 H 219.936 1.71266 2.6091 0
M  V30 2300 N 220.237 -1.11381 1.11499 0
M  V30 2301 C 221.17 -2.16621 0.71769 0
M  V30 2302 C 222.148 -1.60058 -0.286413 0
M  V30 2303 O 223.332 -1.87613 -0.182689 0
M  V30 2304 C 220.459 -3.38646 0.0607265 0
M  V30 2305 C 219.505 -4.13874 1.03008 0
M  V30 2306 S 220.338 -4.70731 2.55289 0
M  V30 2307 C 221.494 -5.96079 1.90895 0
M  V30 2308 H 221.727 -2.49987 1.60915 0
M  V30 2309 H 219.26 -1.23015 0.933092 0
M  V30 2310 H 221.218 -4.09313 -0.311965 0
M  V30 2311 H 219.879 -3.03537 -0.807702 0
M  V30 2312 H 219.072 -5.01333 0.517853 0
M  V30 2313 H 218.674 -3.4897 1.34522 0
M  V30 2314 H 220.966 -6.65948 1.24577 0
M  V30 2315 H 221.909 -6.51946 2.76354 0
M  V30 2316 H 222.317 -5.47652 1.36885 0
M  V30 2317 N 221.715 -0.905404 -1.28997 0
M  V30 2318 C 222.662 -0.385892 -2.27551 0
M  V30 2319 C 223.632 0.535113 -1.57244 0
M  V30 2320 O 224.817 0.459119 -1.85194 0
M  V30 2321 C 221.957 0.375461 -3.43051 0
M  V30 2322 C 221.07 -0.577092 -4.28128 0
M  V30 2323 C 220.205 0.201879 -5.30816 0
M  V30 2324 C 219.244 -0.744829 -6.07551 0
M  V30 2325 N 218.381 9.42587e-05 -7.021 0
M  V30 2326 H 223.221 -1.23139 -2.71368 0
M  V30 2327 H 220.758 -0.618542 -1.33463 0
M  V30 2328 H 222.716 0.832992 -4.088 0
M  V30 2329 H 221.346 1.18537 -3.00248 0
M  V30 2330 H 220.398 -1.15315 -3.62501 0
M  V30 2331 H 221.71 -1.30152 -4.8152 0
M  V30 2332 H 220.864 0.720351 -6.02408 0
M  V30 2333 H 219.603 0.959413 -4.7817 0
M  V30 2334 H 218.608 -1.27475 -5.34818 0
M  V30 2335 H 219.833 -1.50178 -6.62286 0
M  V30 2336 H 217.779 0.739791 -6.51815 0
M  V30 2337 H 217.696 -0.664321 -7.53076 0
M  V30 2338 H 218.964 0.498644 -7.77903 0
M  V30 2339 N 223.193 1.4272 -0.668489 0
M  V30 2340 C 224.156 2.292 0.00448567 0
M  V30 2341 C 225.156 1.43001 0.735339 0
M  V30 2342 O 226.346 1.64461 0.57429 0
M  V30 2343 C 223.478 3.25375 1.01705 0
M  V30 2344 H 224.671 2.90199 -0.756608 0
M  V30 2345 H 222.224 1.50254 -0.430506 0
M  V30 2346 H 222.959 2.69301 1.80686 0
M  V30 2347 H 222.744 3.88944 0.496463 0
M  V30 2348 H 224.234 3.90245 1.48655 0
M  V30 2349 N 224.671 0.411399 1.52136 0
M  V30 2350 C 225.917 -0.163888 2.02137 0
M  V30 2351 C 226.25 -1.44597 1.29636 0
M  V30 2352 O 225.525 -1.90272 0.403353 0
M  V30 2353 C 225.808 -0.40927 3.57767 0
M  V30 2354 C 225.661 0.889643 4.40914 0
M  V30 2355 C 226.98 -1.19042 4.23694 0
M  V30 2356 H 224.099 -0.0580896 0.734707 0
M  V30 2357 H 226.741 0.54531 1.82007 0
M  V30 2358 H 224.891 -1.0134 3.7505 0
M  V30 2359 H 226.563 1.52575 4.35337 0
M  V30 2360 H 224.806 1.50011 4.07037 0
M  V30 2361 H 225.477 0.672314 5.4789 0
M  V30 2362 H 227.953 -0.678942 4.10524 0
M  V30 2363 H 226.829 -1.33086 5.32522 0
M  V30 2364 H 227.09 -2.21166 3.82803 0
M  V30 2365 N 226.149 -1.5696 0.141893 0
M  V30 2366 C 227.397 -1.95573 -0.509484 0
M  V30 2367 C 227.718 -1.02746 -1.65736 0
M  V30 2368 O 226.988 -0.0880311 -1.95702 0
M  V30 2369 H 225.568 -0.722115 -0.191205 0
M  V30 2370 H 228.23 -1.93697 0.216196 0
M  V30 2371 H 227.326 -2.99171 -0.889 0
M  V30 2372 N 227.627 0.131896 -1.57047 0
M  V30 2373 C 228.56 1.19236 -1.94571 0
M  V30 2374 C 229.538 1.40782 -0.813576 0
M  V30 2375 O 230.722 1.55148 -1.07058 0
M  V30 2376 C 227.849 2.54858 -2.23081 0
M  V30 2377 C 226.895 2.49817 -3.45679 0
M  V30 2378 S 227.728 1.95036 -4.98719 0
M  V30 2379 C 228.884 3.32357 -5.30367 0
M  V30 2380 H 229.117 0.872297 -2.84215 0
M  V30 2381 H 226.65 0.338134 -1.50652 0
M  V30 2382 H 228.608 3.32898 -2.40185 0
M  V30 2383 H 227.269 2.84047 -1.34074 0
M  V30 2384 H 226.462 3.49688 -3.62952 0
M  V30 2385 H 226.064 1.79892 -3.27895 0
M  V30 2386 H 228.356 4.28525 -5.2476 0
M  V30 2387 H 229.299 3.19923 -6.31708 0
M  V30 2388 H 229.707 3.3019 -4.57859 0
M  V30 2389 N 229.106 1.52395 0.401703 0
M  V30 2390 C 230.069 1.75636 1.47257 0
M  V30 2391 C 231.069 0.62628 1.48103 0
M  V30 2392 O 232.259 0.894227 1.49497 0
M  V30 2393 C 229.391 1.84553 2.86624 0
M  V30 2394 H 230.584 2.71241 1.27938 0
M  V30 2395 H 228.137 1.42923 0.632662 0
M  V30 2396 H 228.872 0.908882 3.11303 0
M  V30 2397 H 228.657 2.66715 2.87412 0
M  V30 2398 H 230.147 2.04251 3.64241 0
M  V30 2399 N 230.584 -0.659388 1.43143 0
M  V30 2400 C 231.812 -1.44723 1.47861 0
M  V30 2401 C 232.227 -1.88563 0.0945886 0
M  V30 2402 O 231.584 -1.59108 -0.893915 0
M  V30 2403 C 231.635 -2.68627 2.41913 0
M  V30 2404 O 231.356 -2.26623 3.74932 0
M  V30 2405 C 232.857 -3.62045 2.55809 0
M  V30 2406 H 230.077 -0.444801 0.502387 0
M  V30 2407 H 232.621 -0.808916 1.87821 0
M  V30 2408 H 230.776 -3.28613 2.05164 0
M  V30 2409 H 231.19 -3.06745 4.2545 0
M  V30 2410 H 232.664 -4.45666 3.25708 0
M  V30 2411 H 233.141 -4.08981 1.60099 0
M  V30 2412 H 233.747 -3.07944 2.93344 0
M  V30 2413 N 232.062 -1.29571 -0.897171 0
M  V30 2414 C 233.29 -1.20583 -1.68129 0
M  V30 2415 C 233.705 0.233181 -1.87354 0
M  V30 2416 O 233.062 1.15579 -1.41236 0
M  V30 2417 C 233.113 -1.91772 -3.06441 0
M  V30 2418 O 232.834 -3.30053 -2.88091 0
M  V30 2419 C 234.335 -1.89291 -4.00854 0
M  V30 2420 H 231.555 -0.417826 -0.525036 0
M  V30 2421 H 234.099 -1.70987 -1.12177 0
M  V30 2422 H 232.254 -1.45196 -3.59161 0
M  V30 2423 H 232.668 -3.65942 -3.75748 0
M  V30 2424 H 234.142 -2.43662 -4.95311 0
M  V30 2425 H 234.619 -0.869014 -4.30517 0
M  V30 2426 H 235.225 -2.35622 -3.54066 0
M  V30 2427 N 233.54 1.10788 -1.12088 0
M  V30 2428 C 234.788 1.8231 -0.872205 0
M  V30 2429 C 235.109 1.85419 0.603709 0
M  V30 2430 O 234.379 1.32963 1.43867 0
M  V30 2431 H 232.959 0.675137 -0.319686 0
M  V30 2432 H 235.621 1.34068 -1.41463 0
M  V30 2433 H 234.717 2.85955 -1.25045 0
M  V30 2434 N 235.018 0.912232 1.28515 0
M  V30 2435 C 235.965 0.397954 2.27343 0
M  V30 2436 C 236.935 -0.526766 1.57526 0
M  V30 2437 O 238.12 -0.449292 1.85435 0
M  V30 2438 C 235.26 -0.357263 3.43246 0
M  V30 2439 C 234.373 0.599788 4.27816 0
M  V30 2440 C 233.508 -0.173725 5.30916 0
M  V30 2441 C 232.547 0.777039 6.07148 0
M  V30 2442 N 231.684 0.0371398 7.0209 0
M  V30 2443 H 236.524 1.24577 2.70711 0
M  V30 2444 H 234.061 0.625612 1.33133 0
M  V30 2445 H 236.019 -0.8113 4.09236 0
M  V30 2446 H 234.649 -1.16943 3.00872 0
M  V30 2447 H 233.701 1.17235 3.61884 0
M  V30 2448 H 235.013 1.32704 4.80823 0
M  V30 2449 H 234.167 -0.688394 6.02782 0
M  V30 2450 H 232.906 -0.934041 4.78672 0
M  V30 2451 H 231.911 1.3031 5.34134 0
M  V30 2452 H 233.136 1.53689 6.61481 0
M  V30 2453 H 231.082 -0.705213 6.52198 0
M  V30 2454 H 230.999 0.704249 7.52713 0
M  V30 2455 H 232.267 -0.457383 7.78157 0
M  V30 2456 N 236.496 -1.42363 0.676048 0
M  V30 2457 C 237.446 -2.27987 -0.0242903 0
M  V30 2458 C 238.43 -1.41153 -0.772319 0
M  V30 2459 O 239.622 -1.64592 -0.651025 0
M  V30 2460 C 236.751 -3.29195 -0.973953 0
M  V30 2461 C 235.837 -4.23512 -0.223202 0
M  V30 2462 N 236.228 -4.99865 0.772589 0
M  V30 2463 C 234.526 -4.43606 -0.461469 0
M  V30 2464 C 235.227 -5.68757 1.22027 0
M  V30 2465 N 234.203 -5.40811 0.549975 0
M  V30 2466 H 238.005 -2.84445 0.73949 0
M  V30 2467 H 235.519 -1.54341 0.50522 0
M  V30 2468 H 237.516 -3.89339 -1.49067 0
M  V30 2469 H 236.176 -2.74298 -1.73755 0
M  V30 2470 H 237.187 -5.04921 1.15217 0
M  V30 2471 H 233.864 -3.99749 -1.20446 0
M  V30 2472 H 235.254 -6.40007 2.0455 0
M  V30 2473 N 237.974 -0.419461 -1.51915 0
M  V30 2474 C 239.221 0.152939 -2.01922 0
M  V30 2475 C 239.549 1.4426 -1.30458 0
M  V30 2476 O 238.804 1.91514 -0.402593 0
M  V30 2477 C 239.103 0.437067 -3.54717 0
M  V30 2478 C 238.769 -0.764632 -4.44369 0
M  V30 2479 C 237.431 -1.09423 -4.68594 0
M  V30 2480 C 239.783 -1.56713 -4.97082 0
M  V30 2481 C 237.111 -2.22732 -5.42777 0
M  V30 2482 C 239.463 -2.69107 -5.72507 0
M  V30 2483 C 238.127 -3.02541 -5.95 0
M  V30 2484 H 237.397 0.0559644 -0.738884 0
M  V30 2485 H 240.044 -0.562998 -1.83037 0
M  V30 2486 H 238.349 1.23469 -3.71837 0
M  V30 2487 H 240.046 0.893083 -3.90928 0
M  V30 2488 H 236.636 -0.497775 -4.257 0
M  V30 2489 H 240.82 -1.32571 -4.78266 0
M  V30 2490 H 236.076 -2.48971 -5.58411 0
M  V30 2491 H 240.25 -3.31671 -6.12346 0
M  V30 2492 H 237.877 -3.90457 -6.52264 0
M  V30 2493 N 239.452 1.56882 -0.150215 0
M  V30 2494 C 240.863 1.82995 0.370076 0
M  V30 2495 C 241.214 1.06907 1.64515 0
M  V30 2496 O 240.339 0.315369 2.1409 0
M  V30 2497 C 240.934 3.31942 0.678208 0
M  V30 2498 C 239.493 3.58625 1.14301 0
M  V30 2499 C 238.64 2.76792 0.167778 0
M  V30 2500 H 241.591 1.54209 -0.374858 0
M  V30 2501 H 241.612 3.48272 1.53254 0
M  V30 2502 H 241.124 3.87294 -0.249991 0
M  V30 2503 H 239.225 3.08664 2.08704 0
M  V30 2504 H 239.338 4.67073 1.06676 0
M  V30 2505 H 237.702 2.45972 0.661037 0
M  V30 2506 H 238.485 3.34916 -0.754069 0
M  V30 2507 N 240.93 -0.123565 1.57115 0
M  V30 2508 C 242.178 -0.83051 1.84247 0
M  V30 2509 C 242.499 -1.80629 0.73471 0
M  V30 2510 O 241.769 -1.94403 -0.241688 0
M  V30 2511 H 240.349 -0.309694 0.679778 0
M  V30 2512 H 243.011 -0.111976 1.94578 0
M  V30 2513 H 242.107 -1.37852 2.80006 0
M  V30 2514 N 242.408 -1.52605 -0.393616 0
M  V30 2515 C 243.358 -1.73436 -1.48 0
M  V30 2516 C 244.342 -0.588386 -1.49756 0
M  V30 2517 O 245.534 -0.846047 -1.5547 0
M  V30 2518 C 242.663 -1.90247 -2.85764 0
M  V30 2519 C 241.749 -3.10763 -2.88595 0
M  V30 2520 N 242.14 -4.33196 -2.61103 0
M  V30 2521 C 240.438 -3.10914 -3.19763 0
M  V30 2522 C 241.139 -5.1477 -2.70899 0
M  V30 2523 N 240.115 -4.50356 -3.04435 0
M  V30 2524 H 243.917 -2.65727 -1.25563 0
M  V30 2525 H 241.431 -1.5085 -0.601513 0
M  V30 2526 H 243.428 -2.03291 -3.63976 0
M  V30 2527 H 242.088 -0.991663 -3.09186 0
M  V30 2528 H 243.099 -4.61408 -2.35209 0
M  V30 2529 H 239.776 -2.29626 -3.4868 0
M  V30 2530 H 241.166 -6.22355 -2.53227 0
M  V30 2531 N 243.887 0.651787 -1.4349 0
M  V30 2532 C 245.135 1.40888 -1.44897 0
M  V30 2533 C 245.456 1.94856 -0.0749086 0
M  V30 2534 O 244.726 1.74518 0.889956 0
M  V30 2535 H 243.306 0.522887 -0.533478 0
M  V30 2536 H 245.968 0.768609 -1.79104 0
M  V30 2537 H 245.064 2.25052 -2.16236 0
M  V30 2538 N 245.365 1.30045 0.890287 0
M  V30 2539 C 246.328 1.15963 1.977 0
M  V30 2540 C 247.328 0.0923777 1.60534 0
M  V30 2541 O 248.518 0.340071 1.70848 0
M  V30 2542 C 245.65 0.775451 3.31963 0
M  V30 2543 H 246.843 2.12502 2.11619 0
M  V30 2544 H 244.396 1.13366 1.07601 0
M  V30 2545 H 245.131 -0.189671 3.23745 0
M  V30 2546 H 244.916 1.54668 3.60306 0
M  V30 2547 H 246.406 0.700251 4.11687 0
M  V30 2548 N 246.843 -1.10192 1.12674 0
M  V30 2549 C 248.089 -1.82475 0.884915 0
M  V30 2550 C 248.422 -1.85093 -0.58773 0
M  V30 2551 O 247.697 -1.3134 -1.43457 0
M  V30 2552 C 247.98 -3.29018 1.46353 0
M  V30 2553 C 247.833 -3.34718 3.00473 0
M  V30 2554 C 249.152 -4.25473 1.12519 0
M  V30 2555 H 246.271 -0.662492 0.322915 0
M  V30 2556 H 248.913 -1.2913 1.39375 0
M  V30 2557 H 247.063 -3.74576 1.03077 0
M  V30 2558 H 248.735 -2.97622 3.52447 0
M  V30 2559 H 246.978 -2.74541 3.35872 0
M  V30 2560 H 247.649 -4.37918 3.36053 0
M  V30 2561 H 250.125 -3.88161 1.499 0
M  V30 2562 H 249.001 -5.26365 1.55663 0
M  V30 2563 H 249.262 -4.42084 0.0377407 0
M  V30 2564 N 248.321 -0.919034 -1.28029 0
M  V30 2565 C 249.57 -0.550802 -1.94034 0
M  V30 2566 C 249.883 0.910877 -1.73096 0
M  V30 2567 O 251.089 1.3875 -2.33368 0
M  V30 2568 C 249.545 -0.934249 -3.47563 0
M  V30 2569 C 249.153 -2.41602 -3.7727 0
M  V30 2570 C 250.897 -0.636854 -4.19696 0
M  V30 2571 C 248.804 -2.73932 -5.24133 0
M  V30 2572 H 247.734 -0.202273 -0.726362 0
M  V30 2573 H 250.385 -1.11867 -1.45458 0
M  V30 2574 H 248.767 -0.295115 -3.94899 0
M  V30 2575 H 249.941 -3.10233 -3.40723 0
M  V30 2576 H 248.256 -2.68441 -3.18321 0
M  V30 2577 H 250.853 -0.855005 -5.2782 0
M  V30 2578 H 251.196 0.425575 -4.14119 0
M  V30 2579 H 251.729 -1.23469 -3.78154 0
M  V30 2580 H 248.468 -3.79049 -5.34792 0
M  V30 2581 H 247.988 -2.09942 -5.61858 0
M  V30 2582 H 249.667 -2.61215 -5.91925 0
M  V30 2583 N 249.799 1.42003 -0.683588 0
M  V30 2584 C 250.762 2.29191 -0.0198243 0
M  V30 2585 C 251.762 1.43773 0.72013 0
M  V30 2586 O 252.952 1.65061 0.556815 0
M  V30 2587 C 250.084 3.26435 0.982487 0
M  V30 2588 H 251.277 2.8938 -0.787345 0
M  V30 2589 H 248.83 1.49789 -0.446418 0
M  V30 2590 H 249.565 2.71203 1.77819 0
M  V30 2591 H 249.35 3.89449 0.455182 0
M  V30 2592 H 250.84 3.918 1.44508 0
M  V30 2593 N 251.277 0.427512 1.51691 0
M  V30 2594 C 252.554 -0.201684 1.94557 0
M  V30 2595 C 252.934 -1.60981 1.36559 0
M  V30 2596 O 252.282 -2.21814 0.548702 0
M  V30 2597 C 252.492 -0.189394 3.48486 0
M  V30 2598 C 253.84 -0.39978 4.22714 0
M  V30 2599 O 254.864 -0.267945 3.55191 0
M  V30 2600 O 253.723 -0.661249 5.42485 0
M  V30 2601 H 250.817 -0.135261 0.815864 0
M  V30 2602 H 253.363 0.484782 1.62628 0
M  V30 2603 H 252.135 0.795431 3.8313 0
M  V30 2604 H 251.758 -0.919187 3.86829 0
M  V30 2605 N 252.755 -1.56801 0.158532 0
M  V30 2606 C 253.98 -2.01295 -0.499516 0
M  V30 2607 C 254.405 -1.03799 -1.56867 0
M  V30 2608 O 253.763 -0.0155162 -1.81293 0
M  V30 2609 C 253.811 -3.44469 -1.06647 0
M  V30 2610 O 252.915 -3.50012 -2.18095 0
M  V30 2611 H 252.256 -0.652884 -0.12099 0
M  V30 2612 H 254.786 -2.02958 0.258661 0
M  V30 2613 H 254.796 -3.8351 -1.39227 0
M  V30 2614 H 253.471 -4.14932 -0.283581 0
M  V30 2615 H 252.048 -3.22822 -1.86656 0
M  V30 2616 N 254.233 0.115231 -1.57178 0
M  V30 2617 C 255.183 1.14707 -1.97044 0
M  V30 2618 C 256.167 1.36866 -0.845957 0
M  V30 2619 O 257.359 1.37895 -1.10968 0
M  V30 2620 C 254.488 2.47266 -2.38148 0
M  V30 2621 C 253.574 2.28566 -3.57237 0
M  V30 2622 N 253.965 1.79685 -4.72807 0
M  V30 2623 C 252.263 2.59208 -3.62943 0
M  V30 2624 C 252.964 1.74781 -5.54821 0
M  V30 2625 N 251.94 2.19264 -4.97417 0
M  V30 2626 H 255.742 0.761754 -2.83857 0
M  V30 2627 H 253.256 0.322928 -1.59157 0
M  V30 2628 H 255.253 3.219 -2.64927 0
M  V30 2629 H 253.913 2.86552 -1.52702 0
M  V30 2630 H 254.924 1.49177 -4.9595 0
M  V30 2631 H 251.601 3.02154 -2.88113 0
M  V30 2632 H 252.991 1.38212 -6.57531 0
M  V30 2633 N 255.711 1.52812 0.385517 0
M  V30 2634 C 256.641 1.80808 1.47752 0
M  V30 2635 C 257.622 0.660318 1.5676 0
M  V30 2636 O 258.807 0.908246 1.71652 0
M  V30 2637 C 255.937 1.98008 2.85324 0
M  V30 2638 C 254.891 3.13709 2.91154 0
M  V30 2639 C 254.217 3.16169 4.31209 0
M  V30 2640 C 255.517 4.52709 2.60483 0
M  V30 2641 H 257.211 2.72253 1.24573 0
M  V30 2642 H 254.757 1.31003 0.597839 0
M  V30 2643 H 256.71 2.16176 3.61726 0
M  V30 2644 H 255.434 1.03255 3.09848 0
M  V30 2645 H 254.093 2.95329 2.17201 0
M  V30 2646 H 253.741 2.19092 4.52778 0
M  V30 2647 H 253.441 3.93894 4.36029 0
M  V30 2648 H 254.965 3.36496 5.09512 0
M  V30 2649 H 256.379 4.71173 3.26602 0
M  V30 2650 H 254.776 5.32528 2.76648 0
M  V30 2651 H 255.846 4.59186 1.55809 0
M  V30 2652 N 257.189 -0.644168 1.43834 0
M  V30 2653 C 258.099 -1.78563 1.52159 0
M  V30 2654 C 259.115 -1.69147 0.408069 0
M  V30 2655 O 260.291 -1.90156 0.663524 0
M  V30 2656 C 257.356 -3.14888 1.45073 0
M  V30 2657 C 256.417 -3.36034 2.6717 0
M  V30 2658 C 255.65 -4.65855 2.60413 0
M  V30 2659 O 255.873 -5.45805 1.65689 0
M  V30 2660 O 254.807 -4.88918 3.5106 0
M  V30 2661 H 258.633 -1.74494 2.48567 0
M  V30 2662 H 256.218 -0.80378 1.25935 0
M  V30 2663 H 258.1 -3.96179 1.43597 0
M  V30 2664 H 256.775 -3.19528 0.518037 0
M  V30 2665 H 255.682 -2.54472 2.74217 0
M  V30 2666 H 257.015 -3.36247 3.59442 0
M  V30 2667 N 258.668 -1.30515 -0.883378 0
M  V30 2668 C 259.896 -1.22359 -1.66841 0
M  V30 2669 C 260.311 0.213296 -1.87591 0
M  V30 2670 O 259.668 1.14075 -1.42454 0
M  V30 2671 C 259.719 -1.95011 -3.04389 0
M  V30 2672 O 259.44 -3.3309 -2.84575 0
M  V30 2673 C 260.941 -1.93532 -3.98824 0
M  V30 2674 H 258.161 -0.423371 -0.520575 0
M  V30 2675 H 260.705 -1.72167 -1.10357 0
M  V30 2676 H 258.86 -1.48997 -3.57601 0
M  V30 2677 H 259.274 -3.69907 -3.71846 0
M  V30 2678 H 260.748 -2.48902 -4.92699 0
M  V30 2679 H 261.225 -0.914627 -4.29571 0
M  V30 2680 H 261.831 -2.39364 -3.51547 0
M  V30 2681 N 260.146 1.09593 -1.13257 0
M  V30 2682 C 261.557 1.63229 -0.906274 0
M  V30 2683 C 261.908 1.8811 0.557578 0
M  V30 2684 O 261.033 1.62953 1.42391 0
M  V30 2685 C 261.628 2.96535 -1.63867 0
M  V30 2686 C 260.187 3.47003 -1.45828 0
M  V30 2687 C 259.334 2.2145 -1.66898 0
M  V30 2688 H 262.285 0.92978 -1.28611 0
M  V30 2689 H 262.306 3.64411 -1.09476 0
M  V30 2690 H 261.818 2.78394 -2.70404 0
M  V30 2691 H 259.919 3.70272 -0.415848 0
M  V30 2692 H 260.032 4.24551 -2.2202 0
M  V30 2693 H 258.396 2.30022 -1.09371 0
M  V30 2694 H 259.179 2.0583 -2.74752 0
M  V30 2695 N 261.624 0.925811 1.2754 0
M  V30 2696 C 262.854 0.580666 1.98272 0
M  V30 2697 C 263.262 -0.845207 1.69272 0
M  V30 2698 O 262.605 -1.57306 0.948707 0
M  V30 2699 C 262.667 0.724418 3.52126 0
M  V30 2700 C 262.331 2.12206 4.04744 0
M  V30 2701 C 263.328 3.09604 4.17662 0
M  V30 2702 C 261.013 2.4385 4.39138 0
M  V30 2703 C 263.007 4.36755 4.64246 0
M  V30 2704 C 260.694 3.71237 4.85414 0
M  V30 2705 C 261.692 4.67503 4.97926 0
M  V30 2706 O 261.38 5.92624 5.43187 0
M  V30 2707 H 261.112 0.218987 0.639547 0
M  V30 2708 H 263.666 1.24452 1.63404 0
M  V30 2709 H 261.896 0.0034663 3.867 0
M  V30 2710 H 263.585 0.384607 4.04074 0
M  V30 2711 H 264.351 2.86478 3.91351 0
M  V30 2712 H 260.23 1.69665 4.28643 0
M  V30 2713 H 263.774 5.11898 4.73927 0
M  V30 2714 H 259.671 3.94182 5.11166 0
M  V30 2715 H 260.439 5.95585 5.61445 0
M  V30 2716 N 263.102 -1.41638 0.69111 0
M  V30 2717 C 264.379 -1.95036 0.148421 0
M  V30 2718 C 264.759 -1.63072 -1.34055 0
M  V30 2719 O 264.107 -0.93538 -2.08478 0
M  V30 2720 C 264.317 -3.46279 0.434951 0
M  V30 2721 C 265.665 -4.23069 0.360275 0
M  V30 2722 O 266.689 -3.54277 0.369613 0
M  V30 2723 O 265.548 -5.45583 0.316534 0
M  V30 2724 H 262.642 -0.826908 0.0123654 0
M  V30 2725 H 265.188 -1.5138 0.766963 0
M  V30 2726 H 263.96 -3.6281 1.46576 0
M  V30 2727 H 263.583 -3.97019 -0.214787 0
M  V30 2728 N 264.58 -0.43555 -1.51462 0
M  V30 2729 C 265.49 0.383001 -2.31453 0
M  V30 2730 C 266.506 1.02931 -1.4029 0
M  V30 2731 O 267.682 1.02507 -1.73362 0
M  V30 2732 C 264.747 1.47043 -3.13973 0
M  V30 2733 C 263.808 0.844433 -4.20913 0
M  V30 2734 C 263.041 1.88004 -4.9949 0
M  V30 2735 O 263.264 3.10199 -4.78678 0
M  V30 2736 O 262.198 1.47157 -5.83634 0
M  V30 2737 H 266.024 -0.269964 -3.02498 0
M  V30 2738 H 263.609 -0.19813 -1.4808 0
M  V30 2739 H 265.491 2.10113 -3.65281 0
M  V30 2740 H 264.166 2.10751 -2.45695 0
M  V30 2741 H 263.073 0.175729 -3.73687 0
M  V30 2742 H 264.406 0.250869 -4.9156 0
M  V30 2743 N 266.058 1.56714 -0.166846 0
M  V30 2744 C 267.474 1.58473 0.189372 0
M  V30 2745 C 267.674 1.18201 1.63189 0
M  V30 2746 O 266.73 0.891528 2.36237 0
M  V30 2747 C 268.043 3.00573 -0.0873872 0
M  V30 2748 C 269.591 3.1299 -0.0252443 0
M  V30 2749 C 270.066 4.57174 -0.274934 0
M  V30 2750 N 271.557 4.62665 -0.222553 0
M  V30 2751 C 272.292 5.72072 -0.389985 0
M  V30 2752 N 271.788 6.90054 -0.616229 0
M  V30 2753 N 273.581 5.61153 -0.326202 0
M  V30 2754 H 265.732 1.8118 -1.10849 0
M  V30 2755 H 267.995 0.839525 -0.440342 0
M  V30 2756 H 267.701 3.34497 -1.0865 0
M  V30 2757 H 267.575 3.72019 0.623037 0
M  V30 2758 H 269.962 2.78895 0.96444 0
M  V30 2759 H 270.043 2.43989 -0.768309 0
M  V30 2760 H 269.687 4.91976 -1.26181 0
M  V30 2761 H 269.617 5.24328 0.48869 0
M  V30 2762 H 272.108 3.77863 -0.0531512 0
M  V30 2763 H 272.421 7.69311 -0.733559 0
M  V30 2764 H 270.766 6.91927 -0.652791 0
M  V30 2765 H 273.957 4.67859 -0.150072 0
M  V30 2766 H 274.13 6.46364 -0.460116 0
M  V30 2767 N 267.536 -0.106894 1.57237 0
M  V30 2768 C 268.446 -1.14911 2.0453 0
M  V30 2769 C 269.462 -1.44592 0.96795 0
M  V30 2770 O 270.638 -1.55468 1.2803 0
M  V30 2771 C 267.703 -2.45272 2.45036 0
M  V30 2772 C 266.764 -2.22879 3.66911 0
M  V30 2773 C 265.997 -3.47024 4.05475 0
M  V30 2774 O 266.22 -4.54804 3.44252 0
M  V30 2775 O 265.154 -3.3731 4.98504 0
M  V30 2776 H 268.98 -0.777461 2.9358 0
M  V30 2777 H 266.565 -0.318563 1.45964 0
M  V30 2778 H 268.447 -3.22055 2.71769 0
M  V30 2779 H 267.122 -2.81886 1.59129 0
M  V30 2780 H 266.029 -1.43915 3.45311 0
M  V30 2781 H 267.362 -1.91163 4.53561 0
M  V30 2782 N 269.014 -1.53014 -0.377408 0
M  V30 2783 C 270.242 -1.72515 -1.14219 0
M  V30 2784 C 270.657 -0.448735 -1.8339 0
M  V30 2785 O 270.014 0.577592 -1.73119 0
M  V30 2786 C 270.065 -2.8826 -2.18148 0
M  V30 2787 O 269.786 -4.10962 -1.51795 0
M  V30 2788 C 271.287 -3.19536 -3.07264 0
M  V30 2789 H 268.507 -0.577301 -0.342001 0
M  V30 2790 H 271.051 -1.99712 -0.439935 0
M  V30 2791 H 269.206 -2.63492 -2.83991 0
M  V30 2792 H 269.62 -4.75693 -2.20945 0
M  V30 2793 H 271.094 -4.03959 -3.76193 0
M  V30 2794 H 271.571 -2.34403 -3.71419 0
M  V30 2795 H 272.177 -3.46186 -2.47053 0
M  V30 2796 N 270.492 0.636531 -1.44174 0
M  V30 2797 C 271.741 1.39213 -1.45954 0
M  V30 2798 C 272.054 1.95374 -0.0939119 0
M  V30 2799 O 273.26 2.71498 0.0107767 0
M  V30 2800 C 271.716 2.52025 -2.56927 0
M  V30 2801 C 271.324 2.024 -3.99673 0
M  V30 2802 C 273.068 3.29269 -2.67922 0
M  V30 2803 C 270.975 3.12521 -5.0208 0
M  V30 2804 H 269.905 0.523132 -0.542999 0
M  V30 2805 H 272.556 0.685349 -1.70221 0
M  V30 2806 H 270.938 3.25253 -2.25891 0
M  V30 2807 H 272.112 1.36073 -4.40251 0
M  V30 2808 H 270.427 1.37987 -3.92872 0
M  V30 2809 H 273.024 4.11352 -3.41605 0
M  V30 2810 H 273.367 3.78397 -1.73555 0
M  V30 2811 H 273.9 2.63129 -2.98342 0
M  V30 2812 H 270.639 2.68343 -5.98057 0
M  V30 2813 H 270.159 3.77507 -4.66099 0
M  V30 2814 H 271.838 3.77385 -5.25538 0
M  V30 2815 N 271.97 1.30982 0.876444 0
M  V30 2816 C 272.933 1.18054 1.96459 0
M  V30 2817 C 273.933 0.109399 1.60427 0
M  V30 2818 O 275.123 0.358173 1.70478 0
M  V30 2819 C 272.255 0.810616 3.31122 0
M  V30 2820 H 273.448 2.14735 2.09354 0
M  V30 2821 H 271.001 1.145 1.06392 0
M  V30 2822 H 271.736 -0.155322 3.23928 0
M  V30 2823 H 271.521 1.58481 3.58645 0
M  V30 2824 H 273.011 0.743876 4.10921 0
M  V30 2825 N 273.449 -1.08991 1.13837 0
M  V30 2826 C 274.381 -2.15606 0.777612 0
M  V30 2827 C 275.394 -1.61533 -0.202739 0
M  V30 2828 O 276.583 -1.78491 0.0181055 0
M  V30 2829 C 273.683 -3.3864 0.132623 0
M  V30 2830 C 272.856 -4.22115 1.1462 0
M  V30 2831 C 271.915 -5.23564 0.526074 0
M  V30 2832 O 270.941 -5.56678 1.18735 0
M  V30 2833 N 272.143 -5.76266 -0.699866 0
M  V30 2834 H 274.908 -2.47159 1.69506 0
M  V30 2835 H 272.469 -1.24747 1.03198 0
M  V30 2836 H 274.461 -4.03626 -0.29459 0
M  V30 2837 H 273.031 -3.04938 -0.687849 0
M  V30 2838 H 272.251 -3.53199 1.75055 0
M  V30 2839 H 273.539 -4.74709 1.83109 0
M  V30 2840 H 272.937 -5.51585 -1.25581 0
M  V30 2841 H 271.494 -6.42963 -1.06968 0
M  V30 2842 N 274.927 -0.932562 -1.27047 0
M  V30 2843 C 276.204 -0.49377 -1.89265 0
M  V30 2844 C 276.584 1.02833 -1.8436 0
M  V30 2845 O 275.932 1.88461 -1.29209 0
M  V30 2846 C 276.142 -1.04536 -3.32976 0
M  V30 2847 C 277.49 -1.10879 -4.09867 0
M  V30 2848 O 278.514 -0.995327 -3.42011 0
M  V30 2849 O 277.373 -1.28417 -5.31198 0
M  V30 2850 H 274.467 -0.159596 -0.811454 0
M  V30 2851 H 277.013 -1.02457 -1.3528 0
M  V30 2852 H 275.785 -2.08913 -3.30864 0
M  V30 2853 H 275.408 -0.496494 -3.94488 0
M  V30 2854 N 276.405 1.4127 -0.698611 0
M  V30 2855 C 277.338 2.28195 0.0153898 0
M  V30 2856 C 278.316 1.42402 0.784883 0
M  V30 2857 O 279.5 1.71828 0.775067 0
M  V30 2858 C 276.627 3.22685 1.02918 0
M  V30 2859 C 275.673 4.25041 0.352501 0
M  V30 2860 S 276.506 5.27757 -0.907322 0
M  V30 2861 C 277.662 6.25812 0.104796 0
M  V30 2862 H 277.895 2.88403 -0.721858 0
M  V30 2863 H 275.428 1.46452 -0.488996 0
M  V30 2864 H 277.386 3.77655 1.60893 0
M  V30 2865 H 276.047 2.61566 1.73902 0
M  V30 2866 H 275.24 4.91437 1.11828 0
M  V30 2867 H 274.842 3.73682 -0.154254 0
M  V30 2868 H 277.134 6.70705 0.957103 0
M  V30 2869 H 278.077 7.06149 -0.525323 0
M  V30 2870 H 278.485 5.62615 0.460931 0
M  V30 2871 N 277.883 0.443576 1.51229 0
M  V30 2872 C 278.846 -0.353132 2.26463 0
M  V30 2873 C 279.846 -0.944338 1.3015 0
M  V30 2874 O 281.036 -0.817813 1.5381 0
M  V30 2875 C 278.168 -1.50023 3.06114 0
M  V30 2876 H 279.361 0.3063 2.98332 0
M  V30 2877 H 276.914 0.196902 1.55055 0
M  V30 2878 H 277.649 -2.19553 2.38677 0
M  V30 2879 H 277.434 -1.08241 3.76864 0
M  V30 2880 H 278.924 -2.06296 3.63087 0
M  V30 2881 N 279.361 -1.56624 0.175154 0
M  V30 2882 C 280.61 -1.96173 -0.468921 0
M  V30 2883 C 280.923 -1.06401 -1.64128 0
M  V30 2884 O 282.129 -1.35648 -2.35185 0
M  V30 2885 C 280.585 -3.48833 -0.885633 0
M  V30 2886 C 280.193 -4.47237 0.261343 0
M  V30 2887 C 281.937 -3.97194 -1.49791 0
M  V30 2888 C 279.844 -5.9114 -0.175214 0
M  V30 2889 H 278.774 -0.732455 -0.178958 0
M  V30 2890 H 281.425 -1.81591 0.263997 0
M  V30 2891 H 279.807 -3.58848 -1.67464 0
M  V30 2892 H 280.981 -4.4894 1.03871 0
M  V30 2893 H 279.296 -4.08956 0.783827 0
M  V30 2894 H 281.893 -5.02167 -1.83665 0
M  V30 2895 H 282.236 -3.40351 -2.39722 0
M  V30 2896 H 282.769 -3.90212 -0.773267 0
M  V30 2897 H 279.508 -6.51865 0.689414 0
M  V30 2898 H 279.028 -5.92735 -0.91786 0
M  V30 2899 H 280.707 -6.44044 -0.617792 0
M  V30 2900 N 280.839 0.0985539 -1.57292 0
M  V30 2901 C 282.086 0.802678 -1.85912 0
M  V30 2902 C 282.414 1.78901 -0.763186 0
M  V30 2903 O 281.669 1.94178 0.243559 0
M  V30 2904 C 281.968 1.56927 -3.21105 0
M  V30 2905 C 281.634 0.725376 -4.45027 0
M  V30 2906 C 280.296 0.492726 -4.78671 0
M  V30 2907 C 282.648 0.138493 -5.21016 0
M  V30 2908 C 279.976 -0.336727 -5.85733 0
M  V30 2909 C 282.328 -0.678264 -6.28953 0
M  V30 2910 C 280.992 -0.921039 -6.61115 0
M  V30 2911 H 280.262 0.293721 -0.680301 0
M  V30 2912 H 282.909 0.0642841 -1.91392 0
M  V30 2913 H 281.214 2.37914 -3.11294 0
M  V30 2914 H 282.911 2.11841 -3.40477 0
M  V30 2915 H 279.501 0.916815 -4.18679 0
M  V30 2916 H 283.685 0.305404 -4.95359 0
M  V30 2917 H 278.941 -0.533836 -6.09065 0
M  V30 2918 H 283.115 -1.1399 -6.87007 0
M  V30 2919 H 280.742 -1.56556 -7.43905 0
M  V30 2920 N 282.317 1.53212 0.369288 0
M  V30 2921 C 283.733 1.42902 0.710712 0
M  V30 2922 C 283.933 0.565135 1.93413 0
M  V30 2923 O 282.989 0.0461484 2.52458 0
M  V30 2924 C 284.302 2.86042 0.927382 0
M  V30 2925 C 285.85 2.9565 1.02762 0
M  V30 2926 C 286.325 4.39843 1.27679 0
M  V30 2927 N 287.816 4.43256 1.34457 0
M  V30 2928 C 288.551 5.51929 1.55439 0
M  V30 2929 N 288.047 6.70655 1.73762 0
M  V30 2930 N 289.84 5.39502 1.57779 0
M  V30 2931 H 281.991 2.07888 -0.435457 0
M  V30 2932 H 284.254 0.938661 -0.132739 0
M  V30 2933 H 283.96 3.51557 0.100287 0
M  V30 2934 H 283.834 3.29472 1.83653 0
M  V30 2935 H 286.221 2.30291 1.84527 0
M  V30 2936 H 286.302 2.5562 0.0959504 0
M  V30 2937 H 285.946 5.05774 0.464175 0
M  V30 2938 H 285.876 4.77443 2.22162 0
M  V30 2939 H 288.367 3.5769 1.21926 0
M  V30 2940 H 288.68 7.49248 1.89335 0
M  V30 2941 H 287.025 6.73648 1.70948 0
M  V30 2942 H 290.216 4.45713 1.43029 0
M  V30 2943 H 290.389 6.2426 1.7379 0
M  V30 2944 N 283.795 -0.628877 1.44509 0
M  V30 2945 C 284.758 -1.72263 1.51188 0
M  V30 2946 C 285.758 -1.55907 0.39367 0
M  V30 2947 O 286.948 -1.61361 0.656377 0
M  V30 2948 C 284.08 -3.11365 1.38798 0
M  V30 2949 H 285.273 -1.67714 2.4862 0
M  V30 2950 H 282.826 -0.842737 1.31634 0
M  V30 2951 H 283.561 -3.21507 0.424693 0
M  V30 2952 H 283.346 -3.24644 2.19884 0
M  V30 2953 H 284.836 -3.91075 1.46458 0
M  V30 2954 N 285.273 -1.31445 -0.869486 0
M  V30 2955 C 286.205 -1.14955 -1.98287 0
M  V30 2956 C 287.218 -0.0885037 -1.62559 0
M  V30 2957 O 288.407 -0.336044 -1.75308 0
M  V30 2958 C 285.507 -0.734255 -3.3085 0
M  V30 2959 C 284.68 -1.88042 -3.94917 0
M  V30 2960 C 283.739 -1.4511 -5.05796 0
M  V30 2961 O 282.765 -2.16082 -5.2659 0
M  V30 2962 N 283.967 -0.338763 -5.79511 0
M  V30 2963 H 286.732 -2.10856 -2.12979 0
M  V30 2964 H 284.293 -1.23786 -1.04349 0
M  V30 2965 H 286.285 -0.42975 -4.02412 0
M  V30 2966 H 284.855 0.133158 -3.12316 0
M  V30 2967 H 284.075 -2.35222 -3.1633 0
M  V30 2968 H 285.363 -2.6481 -4.34457 0
M  V30 2969 H 284.761 0.252274 -5.65137 0
M  V30 2970 H 283.318 -0.0937925 -6.51733 0
M  V30 2971 N 286.751 1.08385 -1.14413 0
M  V30 2972 C 288 1.80153 -0.907076 0
M  V30 2973 C 288.313 1.87176 0.567851 0
M  V30 2974 O 289.519 2.55359 0.922172 0
M  V30 2975 C 287.975 3.23687 -1.57336 0
M  V30 2976 C 287.583 3.24897 -3.08457 0
M  V30 2977 C 289.327 4.00136 -1.41744 0
M  V30 2978 C 287.234 4.6302 -3.67921 0
M  V30 2979 H 286.164 0.675139 -0.335714 0
M  V30 2980 H 288.815 1.21733 -1.37307 0
M  V30 2981 H 287.197 3.82234 -1.03505 0
M  V30 2982 H 288.371 2.76055 -3.68958 0
M  V30 2983 H 286.686 2.61943 -3.2369 0
M  V30 2984 H 289.283 5.02201 -1.83572 0
M  V30 2985 H 289.626 4.14709 -0.363576 0
M  V30 2986 H 290.159 3.48058 -1.92614 0
M  V30 2987 H 286.898 4.5365 -4.73161 0
M  V30 2988 H 286.418 5.12143 -3.12201 0
M  V30 2989 H 288.097 5.31994 -3.68227 0
M  V30 2990 N 288.23 0.939286 1.26551 0
M  V30 2991 C 289.14 0.453432 2.30176 0
M  V30 2992 C 290.156 -0.471649 1.67486 0
M  V30 2993 O 291.332 -0.35164 1.98306 0
M  V30 2994 C 288.397 -0.275326 3.45605 0
M  V30 2995 C 287.458 0.686084 4.23782 0
M  V30 2996 C 286.691 -0.00798994 5.33699 0
M  V30 2997 O 286.914 -1.22528 5.57085 0
M  V30 2998 O 285.848 0.669746 5.98162 0
M  V30 2999 H 289.674 1.31416 2.73795 0
M  V30 3000 H 287.259 0.705095 1.31715 0
M  V30 3001 H 289.141 -0.685911 4.1578 0
M  V30 3002 H 287.816 -1.11147 3.0402 0
M  V30 3003 H 286.723 1.14658 3.56096 0
M  V30 3004 H 288.056 1.48979 4.69112 0
M  V30 3005 N 289.708 -1.40897 0.706093 0
M  V30 3006 C 290.671 -2.29131 0.0562841 0
M  V30 3007 C 291.671 -1.44901 -0.697166 0
M  V30 3008 O 292.861 -1.65926 -0.530484 0
M  V30 3009 C 289.993 -3.27957 -0.93043 0
M  V30 3010 H 291.186 -2.88091 0.833284 0
M  V30 3011 H 288.739 -1.4906 0.470192 0
M  V30 3012 H 289.474 -2.73997 -1.73482 0
M  V30 3013 H 289.259 -3.90124 -0.393166 0
M  V30 3014 H 290.749 -3.94049 -1.38256 0
M  V30 3015 N 291.186 -0.45159 -1.50991 0
M  V30 3016 C 292.434 0.109857 -2.01801 0
M  V30 3017 C 292.755 1.41958 -1.3369 0
M  V30 3018 O 292.025 1.9003 -0.475951 0
M  V30 3019 H 290.605 0.0435884 -0.745727 0
M  V30 3020 H 293.267 -0.597557 -1.85514 0
M  V30 3021 H 292.363 0.275489 -3.10882 0
M  V30 3022 N 292.664 1.56529 -0.183458 0
M  V30 3023 C 293.91 1.97537 0.459036 0
M  V30 3024 C 294.243 1.06989 1.62071 0
M  V30 3025 O 293.518 0.11948 1.94133 0
M  V30 3026 C 293.801 3.47874 0.930368 0
M  V30 3027 C 293.654 4.492 -0.232317 0
M  V30 3028 C 294.973 4.01612 1.79989 0
M  V30 3029 H 292.092 0.718204 0.165383 0
M  V30 3030 H 294.734 1.88042 -0.272038 0
M  V30 3031 H 292.884 3.56095 1.55333 0
M  V30 3032 H 294.556 4.53027 -0.86972 0
M  V30 3033 H 292.799 4.24657 -0.885928 0
M  V30 3034 H 293.47 5.51823 0.139796 0
M  V30 3035 H 295.946 3.96097 1.27461 0
M  V30 3036 H 294.822 5.07195 2.09867 0
M  V30 3037 H 295.083 3.46163 2.74998 0
M  V30 3038 N 294.142 -0.090211 1.57342 0
M  V30 3039 C 295.072 -1.10976 2.05443 0
M  V30 3040 C 296.053 -1.41482 0.944284 0
M  V30 3041 O 297.238 -1.51428 1.21586 0
M  V30 3042 C 294.368 -2.42831 2.48295 0
M  V30 3043 C 293.322 -2.26721 3.63018 0
M  V30 3044 C 292.648 -3.63796 3.91863 0
M  V30 3045 C 293.948 -1.7037 4.93732 0
M  V30 3046 H 295.642 -0.709564 2.9087 0
M  V30 3047 H 293.188 -0.339874 1.39932 0
M  V30 3048 H 295.141 -3.14431 2.80555 0
M  V30 3049 H 293.865 -2.84795 1.59873 0
M  V30 3050 H 292.524 -1.57565 3.31012 0
M  V30 3051 H 292.172 -4.03297 3.00601 0
M  V30 3052 H 291.872 -3.53861 4.69101 0
M  V30 3053 H 293.396 -4.36855 4.26603 0
M  V30 3054 H 294.81 -2.31816 5.24342 0
M  V30 3055 H 293.207 -1.71181 5.75167 0
M  V30 3056 H 294.277 -0.663542 4.80339 0
M  V30 3057 N 295.62 -1.53406 -0.361157 0
M  V30 3058 C 296.897 -1.60411 -1.11927 0
M  V30 3059 C 297.277 -0.414385 -2.06993 0
M  V30 3060 O 296.625 0.594976 -2.20618 0
M  V30 3061 C 296.835 -2.95652 -1.85448 0
M  V30 3062 C 298.183 -3.50386 -2.39823 0
M  V30 3063 O 299.207 -2.97711 -1.95568 0
M  V30 3064 O 298.066 -4.42482 -3.20737 0
M  V30 3065 H 295.16 -0.64811 -0.513695 0
M  V30 3066 H 297.706 -1.65749 -0.364065 0
M  V30 3067 H 296.478 -3.73682 -1.16091 0
M  V30 3068 H 296.101 -2.93825 -2.67866 0
M  V30 3069 N 297.098 0.621204 -1.44841 0
M  V30 3070 C 298.061 1.71459 -1.521 0
M  V30 3071 C 299.061 1.55696 -0.401933 0
M  V30 3072 O 300.251 1.61011 -0.664925 0
M  V30 3073 C 297.383 3.10624 -1.40447 0
M  V30 3074 H 298.576 1.66394 -2.49506 0
M  V30 3075 H 296.129 0.835745 -1.3208 0
M  V30 3076 H 296.864 3.21277 -0.441737 0
M  V30 3077 H 296.649 3.23473 -2.21602 0
M  V30 3078 H 298.139 3.90293 -1.4853 0
M  V30 3079 N 298.576 1.31904 0.862503 0
M  V30 3080 C 299.509 1.14514 1.97388 0
M  V30 3081 C 300.487 0.0466493 1.62533 0
M  V30 3082 O 301.671 0.204484 1.87388 0
M  V30 3083 C 298.798 0.751347 3.30261 0
M  V30 3084 C 297.844 1.85395 3.84098 0
M  V30 3085 S 298.677 3.46081 4.08642 0
M  V30 3086 C 299.833 3.08655 5.44502 0
M  V30 3087 H 300.066 2.08597 2.11836 0
M  V30 3088 H 297.599 1.16475 1.01356 0
M  V30 3089 H 299.557 0.530901 4.07052 0
M  V30 3090 H 298.218 -0.170493 3.13637 0
M  V30 3091 H 297.411 1.53122 4.80177 0
M  V30 3092 H 297.013 2.02984 3.14123 0
M  V30 3093 H 299.305 2.58012 6.26447 0
M  V30 3094 H 300.248 4.03726 5.81731 0
M  V30 3095 H 300.656 2.45891 5.08132 0
M  V30 3096 N 300.054 -1.07777 1.14986 0
M  V30 3097 C 300.987 -2.14228 0.786243 0
M  V30 3098 C 301.965 -1.60888 -0.235347 0
M  V30 3099 O 303.149 -1.88099 -0.122909 0
M  V30 3100 C 300.276 -3.38281 0.168433 0
M  V30 3101 C 299.322 -4.10387 1.16123 0
M  V30 3102 S 300.155 -4.62371 2.70135 0
M  V30 3103 C 301.311 -5.89704 2.09762 0
M  V30 3104 H 301.544 -2.44741 1.68787 0
M  V30 3105 H 299.077 -1.19984 0.971756 0
M  V30 3106 H 301.035 -4.10098 -0.181588 0
M  V30 3107 H 299.696 -3.05953 -0.710725 0
M  V30 3108 H 298.889 -4.99431 0.677086 0
M  V30 3109 H 298.491 -3.44513 1.45556 0
M  V30 3110 H 300.783 -6.61648 1.45701 0
M  V30 3111 H 301.726 -6.42824 2.96955 0
M  V30 3112 H 302.134 -5.4302 1.54239 0
M  V30 3113 N 301.532 -0.945985 -1.26051 0
M  V30 3114 C 302.943 -0.638096 -1.75457 0
M  V30 3115 C 303.294 0.846672 -1.76991 0
M  V30 3116 O 302.419 1.66262 -1.38513 0
M  V30 3117 C 303.014 -1.15157 -3.18629 0
M  V30 3118 C 301.573 -0.894004 -3.65629 0
M  V30 3119 C 300.72 -1.29967 -2.44957 0
M  V30 3120 H 303.671 -1.12376 -1.1206 0
M  V30 3121 H 303.692 -0.507615 -3.77099 0
M  V30 3122 H 303.204 -2.23222 -3.1748 0
M  V30 3123 H 301.305 0.172057 -3.72203 0
M  V30 3124 H 301.418 -1.52439 -4.54202 0
M  V30 3125 H 299.782 -0.718078 -2.44368 0
M  V30 3126 H 300.565 -2.38935 -2.46505 0
M  V30 3127 N 303.011 1.40521 -0.713556 0
M  V30 3128 C 303.974 2.29098 -0.0684347 0
M  V30 3129 C 304.974 1.45268 0.689472 0
M  V30 3130 O 306.164 1.66205 0.521677 0
M  V30 3131 C 303.296 3.28446 0.913024 0
M  V30 3132 H 304.489 2.87645 -0.84855 0
M  V30 3133 H 302.042 1.48809 -0.47809 0
M  V30 3134 H 302.777 2.74913 1.72027 0
M  V30 3135 H 302.562 3.90327 0.372472 0
M  V30 3136 H 304.052 3.94777 1.36165 0
M  V30 3137 N 304.489 0.459591 1.5075 0
M  V30 3138 C 305.439 -0.358926 2.25157 0
M  V30 3139 C 306.423 -0.971285 1.28276 0
M  V30 3140 O 307.615 -0.885739 1.53244 0
M  V30 3141 C 304.744 -1.44695 3.11317 0
M  V30 3142 C 303.83 -0.842894 4.15639 0
M  V30 3143 N 304.221 0.0299373 5.05791 0
M  V30 3144 C 302.519 -1.10809 4.32015 0
M  V30 3145 C 303.22 0.371563 5.80512 0
M  V30 3146 N 302.196 -0.250409 5.43023 0
M  V30 3147 H 305.998 0.313636 2.92222 0
M  V30 3148 H 303.512 0.273021 1.60089 0
M  V30 3149 H 305.509 -2.04641 3.63218 0
M  V30 3150 H 304.169 -2.12162 2.45799 0
M  V30 3151 H 305.18 0.39797 5.16369 0
M  V30 3152 H 301.857 -1.7786 3.77719 0
M  V30 3153 H 303.247 1.08319 6.63111 0
M  V30 3154 N 305.967 -1.56429 0.191757 0
M  V30 3155 C 307.213 -1.97777 -0.448554 0
M  V30 3156 C 307.546 -1.07847 -1.61501 0
M  V30 3157 O 306.821 -0.129774 -1.94067 0
M  V30 3158 C 307.104 -3.48362 -0.911906 0
M  V30 3159 C 306.957 -4.4907 0.256136 0
M  V30 3160 C 308.276 -4.02561 -1.77857 0
M  V30 3161 H 305.395 -0.719071 -0.161572 0
M  V30 3162 H 308.037 -1.87896 0.282007 0
M  V30 3163 H 306.187 -3.56914 -1.53442 0
M  V30 3164 H 307.859 -4.5256 0.893733 0
M  V30 3165 H 306.102 -4.24181 0.908436 0
M  V30 3166 H 306.773 -5.51889 -0.11053 0
M  V30 3167 H 309.249 -3.96767 -1.25359 0
M  V30 3168 H 308.125 -5.08301 -2.07174 0
M  V30 3169 H 308.386 -3.47616 -2.73158 0
M  V30 3170 N 307.445 0.0818655 -1.57387 0
M  V30 3171 C 308.691 0.784074 -1.8703 0
M  V30 3172 C 309.024 1.77729 -0.782689 0
M  V30 3173 O 308.299 1.93384 0.208051 0
M  V30 3174 C 308.582 1.50105 -3.27323 0
M  V30 3175 C 308.435 0.524925 -4.46727 0
M  V30 3176 C 309.754 2.44843 -3.65705 0
M  V30 3177 H 306.873 0.283582 -0.680257 0
M  V30 3178 H 309.515 0.0474352 -1.89941 0
M  V30 3179 H 307.665 2.12897 -3.24972 0
M  V30 3180 H 309.337 -0.0970111 -4.61198 0
M  V30 3181 H 307.58 -0.160606 -4.33503 0
M  V30 3182 H 308.251 1.064 -5.41648 0
M  V30 3183 H 310.727 1.92135 -3.69085 0
M  V30 3184 H 309.603 2.92018 -4.64776 0
M  V30 3185 H 309.864 3.29197 -2.95096 0
M  V30 3186 N 308.923 1.53595 0.353017 0
M  V30 3187 C 310.153 1.74058 1.11299 0
M  V30 3188 C 310.561 0.475205 1.83135 0
M  V30 3189 O 309.904 -0.562344 1.74881 0
M  V30 3190 C 309.966 2.85994 2.17825 0
M  V30 3191 C 309.63 4.25923 1.65647 0
M  V30 3192 C 310.627 5.07829 1.11383 0
M  V30 3193 C 308.312 4.72377 1.7078 0
M  V30 3194 C 310.306 6.34285 0.629439 0
M  V30 3195 C 307.993 5.98808 1.21953 0
M  V30 3196 C 308.991 6.79594 0.681265 0
M  V30 3197 O 308.679 8.03651 0.200248 0
M  V30 3198 H 308.411 0.585327 0.338183 0
M  V30 3199 H 310.965 2.01186 0.413927 0
M  V30 3200 H 309.195 2.54368 2.91262 0
M  V30 3201 H 310.884 2.94515 2.79313 0
M  V30 3202 H 311.65 4.73107 1.06746 0
M  V30 3203 H 307.529 4.0956 2.11617 0
M  V30 3204 H 311.073 6.97288 0.208636 0
M  V30 3205 H 306.97 6.33026 1.26287 0
M  V30 3206 H 307.738 8.1788 0.318416 0
M  V30 3207 N 310.401 -0.613514 1.45168 0
M  V30 3208 C 311.812 -1.19539 1.43413 0
M  V30 3209 C 312.163 -1.95558 0.158632 0
M  V30 3210 O 311.288 -2.0335 -0.740119 0
M  V30 3211 C 311.883 -2.17445 2.59813 0
M  V30 3212 C 310.442 -2.71022 2.61197 0
M  V30 3213 C 309.589 -1.46323 2.35552 0
M  V30 3214 H 312.54 -0.403163 1.53494 0
M  V30 3215 H 312.561 -3.00373 2.33574 0
M  V30 3216 H 312.073 -1.62089 3.52631 0
M  V30 3217 H 310.174 -3.30332 1.7237 0
M  V30 3218 H 310.287 -3.15859 3.60236 0
M  V30 3219 H 308.651 -1.75072 1.84992 0
M  V30 3220 H 309.434 -0.92844 3.30507 0
M  V30 3221 N 311.879 -1.3236 -0.855495 0
M  V30 3222 C 312.829 -1.17809 -1.95205 0
M  V30 3223 C 313.813 -0.0852319 -1.60674 0
M  V30 3224 O 315.005 -0.311651 -1.74235 0
M  V30 3225 C 312.134 -0.902437 -3.31226 0
M  V30 3226 C 311.22 -2.03695 -3.7198 0
M  V30 3227 N 311.611 -3.28544 -3.84568 0
M  V30 3228 C 309.909 -1.93993 -4.016 0
M  V30 3229 C 310.61 -4.02847 -4.19629 0
M  V30 3230 N 309.586 -3.31138 -4.31102 0
M  V30 3231 H 313.388 -2.12462 -2.0307 0
M  V30 3232 H 310.902 -1.24127 -1.0472 0
M  V30 3233 H 312.899 -0.77915 -4.09554 0
M  V30 3234 H 311.559 0.0357267 -3.2468 0
M  V30 3235 H 312.57 -3.6349 -3.68911 0
M  V30 3236 H 309.247 -1.07733 -4.03361 0
M  V30 3237 H 310.637 -5.10506 -4.36845 0
M  V30 3238 N 313.357 1.07166 -1.15556 0
M  V30 3239 C 314.587 1.83248 -0.954133 0
M  V30 3240 C 314.995 1.82449 0.500911 0
M  V30 3241 O 314.338 1.23575 1.35923 0
M  V30 3242 C 314.4 3.31393 -1.39351 0
M  V30 3243 C 314.064 3.5591 -2.86666 0
M  V30 3244 C 315.061 3.49695 -3.8472 0
M  V30 3245 C 312.746 3.83515 -3.24379 0
M  V30 3246 C 314.74 3.70737 -5.18491 0
M  V30 3247 C 312.427 4.04209 -4.58321 0
M  V30 3248 C 313.425 3.97815 -5.55186 0
M  V30 3249 O 313.113 4.17954 -6.86709 0
M  V30 3250 H 312.845 0.584941 -0.338851 0
M  V30 3251 H 315.399 1.36169 -1.53777 0
M  V30 3252 H 313.629 3.79292 -0.75329 0
M  V30 3253 H 315.318 3.88945 -1.16089 0
M  V30 3254 H 316.084 3.28368 -3.56931 0
M  V30 3255 H 311.963 3.87605 -2.49567 0
M  V30 3256 H 315.507 3.65663 -5.94085 0
M  V30 3257 H 311.404 4.25023 -4.85825 0
M  V30 3258 H 312.172 4.35291 -6.93155 0
M  V30 3259 N 314.835 0.952656 1.25548 0
M  V30 3260 C 316.112 0.523818 1.88456 0
M  V30 3261 C 316.492 -0.998871 1.85973 0
M  V30 3262 O 315.84 -1.86381 1.3219 0
M  V30 3263 C 316.05 1.0982 3.31271 0
M  V30 3264 C 317.398 1.17385 4.08051 0
M  V30 3265 O 318.422 1.04961 3.40384 0
M  V30 3266 O 317.281 1.36852 5.29088 0
M  V30 3267 H 314.375 0.172485 0.808813 0
M  V30 3268 H 316.921 1.04596 1.33633 0
M  V30 3269 H 315.693 2.1415 3.27499 0
M  V30 3270 H 315.316 0.559191 3.93648 0
M  V30 3271 N 316.313 -1.40141 0.720998 0
M  V30 3272 C 317.276 -2.29058 0.0805834 0
M  V30 3273 C 318.276 -1.45632 -0.681758 0
M  V30 3274 O 319.466 -1.6648 -0.512856 0
M  V30 3275 C 316.598 -3.28925 -0.895593 0
M  V30 3276 H 317.791 -2.87191 0.863793 0
M  V30 3277 H 315.344 -1.48553 0.485975 0
M  V30 3278 H 316.079 -2.75822 -1.70566 0
M  V30 3279 H 315.864 -3.90519 -0.351766 0
M  V30 3280 H 317.354 -3.95494 -1.34069 0
M  V30 3281 N 317.792 -0.46758 -1.50504 0
M  V30 3282 C 318.724 0.364655 -2.26281 0
M  V30 3283 C 319.737 0.960151 -1.31472 0
M  V30 3284 O 320.926 0.849153 -1.57008 0
M  V30 3285 C 318.026 1.52509 -3.02645 0
M  V30 3286 C 317.199 1.04302 -4.24782 0
M  V30 3287 C 316.258 2.07709 -4.8347 0
M  V30 3288 O 315.284 1.65913 -5.44483 0
M  V30 3289 N 316.486 3.40485 -4.70159 0
M  V30 3290 H 319.251 -0.28495 -2.98342 0
M  V30 3291 H 316.812 -0.298163 -1.59131 0
M  V30 3292 H 318.804 2.21371 -3.38787 0
M  V30 3293 H 317.374 2.07945 -2.33404 0
M  V30 3294 H 316.594 0.180393 -3.93787 0
M  V30 3295 H 317.882 0.698798 -5.03978 0
M  V30 3296 H 317.28 3.77155 -4.21629 0
M  V30 3297 H 315.837 4.05156 -5.1058 0
M  V30 3298 N 319.27 1.56325 -0.20005 0
M  V30 3299 C 320.681 1.8408 0.31167 0
M  V30 3300 C 321.032 1.12087 1.61031 0
M  V30 3301 O 320.157 0.38332 2.12978 0
M  V30 3302 C 320.752 3.33932 0.57226 0
M  V30 3303 C 319.311 3.6208 1.02834 0
M  V30 3304 C 318.458 2.77186 0.079634 0
M  V30 3305 H 321.409 1.52939 -0.423729 0
M  V30 3306 H 321.43 3.52971 1.42096 0
M  V30 3307 H 320.942 3.86303 -0.37308 0
M  V30 3308 H 319.043 3.15147 1.98778 0
M  V30 3309 H 319.156 4.7023 0.917624 0
M  V30 3310 H 317.52 2.47951 0.582448 0
M  V30 3311 H 318.303 3.32347 -0.860238 0
M  V30 3312 N 320.748 -0.0735177 1.57428 0
M  V30 3313 C 321.711 -1.07192 2.02589 0
M  V30 3314 C 322.711 -1.31695 0.922661 0
M  V30 3315 O 323.901 -1.27445 1.18758 0
M  V30 3316 C 321.033 -2.41599 2.40506 0
M  V30 3317 H 322.226 -0.682727 2.92025 0
M  V30 3318 H 319.779 -0.319193 1.53006 0
M  V30 3319 H 320.514 -2.85354 1.5409 0
M  V30 3320 H 320.299 -2.25156 3.21009 0
M  V30 3321 H 321.789 -3.13367 2.76027 0
M  V30 3322 N 322.226 -1.5378 -0.344866 0
M  V30 3323 C 323.451 -1.75211 -1.10977 0
M  V30 3324 C 323.876 -0.48936 -1.81623 0
M  V30 3325 O 323.234 0.557925 -1.72502 0
M  V30 3326 C 323.282 -2.93147 -2.09993 0
M  V30 3327 O 322.386 -2.63203 -3.17487 0
M  V30 3328 H 321.727 -0.581241 -0.321021 0
M  V30 3329 H 324.257 -2.00738 -0.395661 0
M  V30 3330 H 324.267 -3.19898 -2.53237 0
M  V30 3331 H 322.942 -3.84731 -1.5797 0
M  V30 3332 H 321.519 -2.47336 -2.79069 0
M  V30 3333 N 323.704 0.605807 -1.45491 0
M  V30 3334 C 324.952 1.36207 -1.49305 0
M  V30 3335 C 325.273 1.94519 -0.136863 0
M  V30 3336 O 324.543 1.77261 0.833983 0
M  V30 3337 H 323.123 0.50565 -0.549843 0
M  V30 3338 H 325.785 0.711239 -1.81459 0
M  V30 3339 H 324.881 2.18058 -2.23287 0
M  V30 3340 N 325.182 1.32811 0.848464 0
M  V30 3341 C 326.407 1.26882 1.6406 0
M  V30 3342 C 326.832 -0.15913 1.87426 0
M  V30 3343 O 326.19 -1.11258 1.43148 0
M  V30 3344 C 326.238 2.03997 2.97351 0
M  V30 3345 O 325.342 1.39201 3.88197 0
M  V30 3346 H 324.683 0.436982 0.499943 0
M  V30 3347 H 327.213 1.75224 1.0563 0
M  V30 3348 H 327.223 2.14403 3.47124 0
M  V30 3349 H 325.898 3.0783 2.79666 0
M  V30 3350 H 324.475 1.37381 3.46671 0
M  V30 3351 N 326.66 -1.06551 1.16123 0
M  V30 3352 C 327.885 -1.83544 0.965735 0
M  V30 3353 C 328.31 -1.81843 -0.481102 0
M  V30 3354 O 327.668 -1.21732 -1.34354 0
M  V30 3355 C 327.716 -3.28169 1.49457 0
M  V30 3356 O 326.82 -4.0643 0.699157 0
M  V30 3357 H 326.161 -0.568026 0.343864 0
M  V30 3358 H 328.691 -1.34362 1.54299 0
M  V30 3359 H 328.701 -3.78992 1.51092 0
M  V30 3360 H 327.376 -3.28722 2.54784 0
M  V30 3361 H 325.953 -3.65216 0.7531 0
M  V30 3362 N 328.138 -0.959301 -1.25041 0
M  V30 3363 C 329.368 -0.63303 -1.96663 0
M  V30 3364 C 329.776 0.800031 -1.71453 0
M  V30 3365 O 329.119 1.54736 -0.99008 0
M  V30 3366 C 329.181 -0.817523 -3.50081 0
M  V30 3367 C 328.845 -2.22863 -3.98975 0
M  V30 3368 C 329.842 -3.20569 -4.09306 0
M  V30 3369 C 327.527 -2.55407 -4.32519 0
M  V30 3370 C 329.521 -4.4891 -4.52503 0
M  V30 3371 C 327.208 -3.83976 -4.754 0
M  V30 3372 C 328.206 -4.8054 -4.85356 0
M  V30 3373 O 327.894 -6.06817 -5.27284 0
M  V30 3374 H 327.626 -0.235866 -0.633516 0
M  V30 3375 H 330.18 -1.2874 -1.60047 0
M  V30 3376 H 328.41 -0.105992 -3.86555 0
M  V30 3377 H 330.099 -0.491604 -4.02912 0
M  V30 3378 H 330.865 -2.96753 -3.83618 0
M  V30 3379 H 326.744 -1.8097 -4.23994 0
M  V30 3380 H 330.288 -5.24283 -4.60188 0
M  V30 3381 H 326.185 -4.07596 -5.00535 0
M  V30 3382 H 326.953 -6.10262 -5.45457 0
M  V30 3383 N 329.616 1.39756 -0.72842 0
M  V30 3384 C 330.862 2.01425 -0.282761 0
M  V30 3385 C 331.217 1.56754 1.11561 0
M  V30 3386 O 330.51 0.783482 1.74849 0
M  V30 3387 C 330.704 3.56002 -0.315776 0
M  V30 3388 C 330.533 4.1568 -1.71582 0
M  V30 3389 C 329.303 4.48555 -2.32651 0
M  V30 3390 C 331.501 4.39667 -2.66829 0
M  V30 3391 N 329.483 4.93698 -3.64877 0
M  V30 3392 C 330.854 4.86942 -3.8378 0
M  V30 3393 C 332.909 4.21724 -2.64675 0
M  V30 3394 C 331.612 5.18158 -4.98904 0
M  V30 3395 C 333.638 4.54049 -3.78937 0
M  V30 3396 C 333 5.01525 -4.94623 0
M  V30 3397 H 329.099 0.76756 -0.149583 0
M  V30 3398 H 331.683 1.69784 -0.952976 0
M  V30 3399 H 329.854 3.87046 0.324057 0
M  V30 3400 H 331.586 4.0443 0.147808 0
M  V30 3401 H 328.341 4.36128 -1.84633 0
M  V30 3402 H 328.765 5.20635 -4.32744 0
M  V30 3403 H 333.407 3.84228 -1.76433 0
M  V30 3404 H 331.125 5.54562 -5.87781 0
M  V30 3405 H 334.711 4.41795 -3.78561 0
M  V30 3406 H 333.591 5.26065 -5.81572 0
M  V30 3407 N 331.094 0.475555 1.50254 0
M  V30 3408 C 332.024 -0.30611 2.31485 0
M  V30 3409 C 333.005 -0.986228 1.38591 0
M  V30 3410 O 334.19 -0.982541 1.67511 0
M  V30 3411 C 331.32 -1.38588 3.1845 0
M  V30 3412 C 330.274 -0.827115 4.19932 0
M  V30 3413 C 329.6 -2.00551 4.95665 0
M  V30 3414 C 330.9 0.16463 5.2204 0
M  V30 3415 H 332.594 0.371866 2.97082 0
M  V30 3416 H 330.14 0.180282 1.42867 0
M  V30 3417 H 332.093 -1.94023 3.74076 0
M  V30 3418 H 330.817 -2.09269 2.50747 0
M  V30 3419 H 329.476 -0.294702 3.65414 0
M  V30 3420 H 329.124 -2.6994 4.2443 0
M  V30 3421 H 328.824 -1.63784 5.64313 0
M  V30 3422 H 330.348 -2.56468 5.54127 0
M  V30 3423 H 331.762 -0.300699 5.72511 0
M  V30 3424 H 330.159 0.446813 5.98434 0
M  V30 3425 H 331.229 1.08905 4.72512 0
M  V30 3426 N 332.573 -1.56217 0.208337 0
M  V30 3427 C 333.52 -2.19699 -0.707192 0
M  V30 3428 C 334.49 -1.14836 -1.20008 0
M  V30 3429 O 335.675 -1.4314 -1.26157 0
M  V30 3430 C 332.815 -2.87061 -1.91546 0
M  V30 3431 C 331.928 -4.06483 -1.46271 0
M  V30 3432 C 331.063 -4.61665 -2.62752 0
M  V30 3433 C 330.102 -5.73417 -2.14147 0
M  V30 3434 N 329.239 -6.22948 -3.23853 0
M  V30 3435 H 334.079 -2.97575 -0.159111 0
M  V30 3436 H 331.616 -1.46948 -0.0667874 0
M  V30 3437 H 333.574 -3.24294 -2.62468 0
M  V30 3438 H 332.204 -2.11725 -2.43664 0
M  V30 3439 H 331.256 -3.74825 -0.648886 0
M  V30 3440 H 332.568 -4.87271 -1.06622 0
M  V30 3441 H 331.722 -5.01272 -3.41776 0
M  V30 3442 H 330.461 -3.80013 -3.05682 0
M  V30 3443 H 329.466 -5.33326 -1.33581 0
M  V30 3444 H 330.691 -6.56897 -1.72232 0
M  V30 3445 H 328.637 -5.44213 -3.6629 0
M  V30 3446 H 328.554 -6.98823 -2.88414 0
M  V30 3447 H 329.822 -6.6721 -4.03052 0
M  V30 3448 N 334.051 0.0651679 -1.57465 0
M  V30 3449 C 334.983 1.10359 -2.00882 0
M  V30 3450 C 335.996 1.346 -0.915788 0
M  V30 3451 O 337.185 1.32723 -1.1936 0
M  V30 3452 C 334.285 2.45312 -2.33828 0
M  V30 3453 C 333.458 2.40934 -3.65061 0
M  V30 3454 C 332.517 3.58047 -3.85602 0
M  V30 3455 O 331.543 3.39175 -4.57109 0
M  V30 3456 N 332.745 4.78637 -3.28462 0
M  V30 3457 H 335.51 0.733807 -2.90578 0
M  V30 3458 H 333.071 0.253719 -1.599 0
M  V30 3459 H 335.063 3.22314 -2.44737 0
M  V30 3460 H 333.633 2.74267 -1.49988 0
M  V30 3461 H 332.853 1.49273 -3.64844 0
M  V30 3462 H 334.141 2.35117 -4.51218 0
M  V30 3463 H 333.539 4.96872 -2.70433 0
M  V30 3464 H 332.096 5.53127 -3.44809 0
M  V30 3465 N 335.529 1.53961 0.336706 0
M  V30 3466 C 336.775 1.7179 1.07777 0
M  V30 3467 C 337.108 0.483263 1.88091 0
M  V30 3468 O 336.383 -0.519747 1.87427 0
M  V30 3469 C 336.666 2.98558 2.01334 0
M  V30 3470 C 336.519 4.32245 1.24437 0
M  V30 3471 C 337.838 3.21023 3.01052 0
M  V30 3472 H 334.957 0.625089 0.390426 0
M  V30 3473 H 337.599 1.86641 0.35567 0
M  V30 3474 H 335.749 2.86028 2.62908 0
M  V30 3475 H 337.421 4.56637 0.654243 0
M  V30 3476 H 335.664 4.30344 0.546458 0
M  V30 3477 H 336.335 5.17137 1.93063 0
M  V30 3478 H 338.811 3.32929 2.49595 0
M  V30 3479 H 337.687 4.11104 3.6371 0
M  V30 3480 H 337.948 2.37637 3.72802 0
M  V30 3481 N 337.007 -0.598083 1.45811 0
M  V30 3482 C 337.937 -1.71873 1.58057 0
M  V30 3483 C 338.918 -1.64533 0.431615 0
M  V30 3484 O 340.103 -1.82787 0.65595 0
M  V30 3485 C 337.233 -3.10495 1.55597 0
M  V30 3486 C 336.187 -3.32654 2.69305 0
M  V30 3487 C 335.513 -4.71646 2.51902 0
M  V30 3488 C 336.813 -3.21981 4.11248 0
M  V30 3489 H 338.507 -1.61881 2.51863 0
M  V30 3490 H 336.053 -0.777372 1.21214 0
M  V30 3491 H 338.006 -3.88699 1.6276 0
M  V30 3492 H 336.73 -3.2135 0.583255 0
M  V30 3493 H 335.389 -2.56843 2.61586 0
M  V30 3494 H 335.037 -4.79246 1.52748 0
M  V30 3495 H 334.737 -4.87426 3.2816 0
M  V30 3496 H 336.261 -5.52038 2.60933 0
M  V30 3497 H 337.675 -3.90049 4.20161 0
M  V30 3498 H 336.072 -3.49289 4.87972 0
M  V30 3499 H 337.142 -2.1928 4.32486 0
M  V30 3500 N 338.485 -1.33259 -0.841409 0
M  V30 3501 C 339.901 -1.12538 -1.13169 0
M  V30 3502 C 340.101 0.0854037 -2.01319 0
M  V30 3503 O 339.157 0.766417 -2.40587 0
M  V30 3504 C 340.47 -2.41156 -1.79623 0
M  V30 3505 C 342.018 -2.47038 -1.922 0
M  V30 3506 C 342.493 -3.7561 -2.6207 0
M  V30 3507 N 343.984 -3.76667 -2.69585 0
M  V30 3508 C 344.719 -4.72861 -3.2433 0
M  V30 3509 N 344.215 -5.79428 -3.79783 0
M  V30 3510 N 346.008 -4.6034 -3.22558 0
M  V30 3511 H 338.159 -2.10868 -0.254676 0
M  V30 3512 H 340.422 -0.931615 -0.175493 0
M  V30 3513 H 340.128 -3.29747 -1.22311 0
M  V30 3514 H 340.002 -2.53114 -2.79666 0
M  V30 3515 H 342.389 -1.58898 -2.48667 0
M  V30 3516 H 342.47 -2.39022 -0.911148 0
M  V30 3517 H 342.114 -4.64131 -2.06263 0
M  V30 3518 H 342.044 -3.80902 -3.63622 0
M  V30 3519 H 344.535 -2.99648 -2.30259 0
M  V30 3520 H 344.848 -6.48867 -4.19752 0
M  V30 3521 H 343.193 -5.83166 -3.78078 0
M  V30 3522 H 346.384 -3.76244 -2.78492 0
M  V30 3523 H 346.557 -5.35478 -3.64921 0
M  V30 3524 N 339.963 1.05934 -1.16686 0
M  V30 3525 C 340.873 2.17014 -0.891183 0
M  V30 3526 C 341.889 1.73453 0.137907 0
M  V30 3527 O 343.065 2.01361 -0.039592 0
M  V30 3528 C 340.13 3.44384 -0.400099 0
M  V30 3529 C 339.191 4.02433 -1.49486 0
M  V30 3530 C 338.424 5.23723 -1.02711 0
M  V30 3531 O 338.647 5.7027 0.121716 0
M  V30 3532 O 337.581 5.7382 -1.81699 0
M  V30 3533 H 341.407 2.43113 -1.82015 0
M  V30 3534 H 338.992 1.15541 -0.947132 0
M  V30 3535 H 340.874 4.21189 -0.133392 0
M  V30 3536 H 339.549 3.19802 0.500817 0
M  V30 3537 H 338.456 3.27102 -1.81535 0
M  V30 3538 H 339.789 4.31317 -2.37121 0
M  V30 3539 N 341.441 0.965919 1.2453 0
M  V30 3540 C 342.351 0.502154 2.29163 0
M  V30 3541 C 343.367 -0.436017 1.68448 0
M  V30 3542 O 344.543 -0.309497 1.99008 0
M  V30 3543 C 341.608 -0.201956 3.46111 0
M  V30 3544 C 340.669 0.775821 4.22232 0
M  V30 3545 C 339.902 0.105217 5.33596 0
M  V30 3546 O 340.125 -1.10683 5.59558 0
M  V30 3547 O 339.059 0.796475 5.96607 0
M  V30 3548 H 342.885 1.37194 2.70946 0
M  V30 3549 H 340.47 0.732875 1.30189 0
M  V30 3550 H 342.352 -0.597564 4.17142 0
M  V30 3551 H 341.027 -1.04673 3.06309 0
M  V30 3552 H 339.934 1.22185 3.53584 0
M  V30 3553 H 341.267 1.58896 4.65846 0
M  V30 3554 N 342.919 -1.39368 0.735821 0
M  V30 3555 C 343.849 -2.33234 0.111506 0
M  V30 3556 C 344.83 -1.53954 -0.723334 0
M  V30 3557 O 346.015 -1.82344 -0.668147 0
M  V30 3558 C 343.145 -3.38057 -0.795917 0
M  V30 3559 C 342.099 -4.2795 -0.065172 0
M  V30 3560 C 341.425 -5.23479 -1.08967 0
M  V30 3561 C 342.725 -5.10741 1.09273 0
M  V30 3562 H 344.419 -2.85692 0.895571 0
M  V30 3563 H 341.965 -1.37364 0.432109 0
M  V30 3564 H 343.918 -4.02675 -1.24221 0
M  V30 3565 H 342.642 -2.8404 -1.61211 0
M  V30 3566 H 341.301 -3.64813 0.361511 0
M  V30 3567 H 340.949 -4.65758 -1.89944 0
M  V30 3568 H 340.649 -5.84472 -0.605489 0
M  V30 3569 H 342.173 -5.90974 -1.53565 0
M  V30 3570 H 343.587 -5.68699 0.724841 0
M  V30 3571 H 341.984 -5.8088 1.50659 0
M  V30 3572 H 343.054 -4.45525 1.91404 0
M  V30 3573 N 344.397 -0.483516 -1.5 0
M  V30 3574 C 345.645 0.067027 -2.01989 0
M  V30 3575 C 345.966 1.3909 -1.36671 0
M  V30 3576 O 345.236 1.88978 -0.516152 0
M  V30 3577 H 343.816 0.0277606 -0.746484 0
M  V30 3578 H 346.478 -0.636773 -1.84204 0
M  V30 3579 H 345.574 0.209484 -3.11396 0
M  V30 3580 N 345.875 1.56104 -0.216619 0
M  V30 3581 C 347.122 1.98172 0.416416 0
M  V30 3582 C 347.45 1.10413 1.60122 0
M  V30 3583 O 346.705 0.147967 1.9514 0
M  V30 3584 C 347.004 3.45923 0.898464 0
M  V30 3585 C 346.67 4.50559 -0.175288 0
M  V30 3586 C 345.332 4.78897 -0.470271 0
M  V30 3587 C 347.684 5.1334 -0.901728 0
M  V30 3588 C 345.012 5.67299 -1.4963 0
M  V30 3589 C 347.364 6.02853 -1.91705 0
M  V30 3590 C 346.028 6.29537 -2.21901 0
M  V30 3591 H 345.298 0.725164 0.152377 0
M  V30 3592 H 347.945 1.88839 -0.318103 0
M  V30 3593 H 346.25 3.52434 1.71165 0
M  V30 3594 H 347.947 3.75841 1.39803 0
M  V30 3595 H 344.537 4.28551 0.0647806 0
M  V30 3596 H 348.721 4.91521 -0.687072 0
M  V30 3597 H 343.977 5.86239 -1.73592 0
M  V30 3598 H 348.151 6.50552 -2.48505 0
M  V30 3599 H 345.778 6.97835 -3.01548 0
M  V30 3600 N 347.353 -0.0568162 1.57498 0
M  V30 3601 C 348.3 -1.06591 2.04712 0
M  V30 3602 C 349.27 -1.3758 0.930644 0
M  V30 3603 O 350.455 -1.48392 1.19935 0
M  V30 3604 C 347.595 -2.3701 2.50839 0
M  V30 3605 C 346.708 -2.12421 3.76167 0
M  V30 3606 C 345.843 -3.36511 4.11015 0
M  V30 3607 C 344.882 -3.07353 5.2934 0
M  V30 3608 N 344.019 -4.23816 5.59754 0
M  V30 3609 H 348.859 -0.65631 2.90683 0
M  V30 3610 H 346.396 -0.312481 1.43743 0
M  V30 3611 H 348.354 -3.13175 2.7564 0
M  V30 3612 H 346.984 -2.75744 1.67825 0
M  V30 3613 H 346.036 -1.2688 3.58616 0
M  V30 3614 H 347.348 -1.86894 4.62463 0
M  V30 3615 H 346.502 -4.21062 4.36797 0
M  V30 3616 H 345.241 -3.65128 3.23315 0
M  V30 3617 H 344.246 -2.212 5.03339 0
M  V30 3618 H 345.471 -2.80043 6.1867 0
M  V30 3619 H 343.417 -4.52436 4.75014 0
M  V30 3620 H 343.334 -4.01614 6.40501 0
M  V30 3621 H 344.602 -5.0932 5.90096 0
M  V30 3622 N 348.832 -1.54138 -0.328536 0
M  V30 3623 C 350.08 -1.71765 -1.06496 0
M  V30 3624 C 350.401 -0.49149 -1.88704 0
M  V30 3625 O 349.671 0.494539 -1.89555 0
M  V30 3626 H 348.251 -0.633295 -0.396164 0
M  V30 3627 H 350.913 -1.91429 -0.366176 0
M  V30 3628 H 350.009 -2.5951 -1.73381 0
M  V30 3629 N 350.31 0.590341 -1.46126 0
M  V30 3630 C 351.559 1.34499 -1.50309 0
M  V30 3631 C 351.872 1.94977 -0.156021 0
M  V30 3632 O 353.078 2.71395 -0.0756037 0
M  V30 3633 C 351.534 2.43723 -2.64815 0
M  V30 3634 C 351.142 1.89582 -4.0591 0
M  V30 3635 C 352.886 3.20579 -2.78262 0
M  V30 3636 C 350.793 2.9639 -5.11769 0
M  V30 3637 H 349.723 0.505593 -0.559368 0
M  V30 3638 H 352.374 0.630848 -1.72315 0
M  V30 3639 H 350.756 3.17902 -2.36124 0
M  V30 3640 H 351.93 1.21997 -4.44357 0
M  V30 3641 H 350.245 1.25418 -3.97063 0
M  V30 3642 H 352.842 4.00276 -3.54519 0
M  V30 3643 H 353.185 3.72684 -1.85505 0
M  V30 3644 H 353.718 2.53505 -3.06562 0
M  V30 3645 H 350.457 2.49181 -6.06291 0
M  V30 3646 H 349.977 3.62487 -4.77873 0
M  V30 3647 H 351.656 3.60474 -5.37278 0
M  V30 3648 N 351.788 1.33704 0.83433 0
M  V30 3649 C 353.034 1.25603 1.59222 0
M  V30 3650 C 353.367 -0.176659 1.93395 0
M  V30 3651 O 352.642 -1.11915 1.59076 0
M  V30 3652 C 352.925 2.13576 2.89926 0
M  V30 3653 C 352.778 3.65326 2.62406 0
M  V30 3654 C 354.097 2.01238 3.91397 0
M  V30 3655 H 351.216 0.457613 0.577719 0
M  V30 3656 H 353.858 1.63848 0.961972 0
M  V30 3657 H 352.008 1.8109 3.43713 0
M  V30 3658 H 353.68 4.08124 2.15017 0
M  V30 3659 H 351.923 3.8698 1.96033 0
M  V30 3660 H 352.594 4.22232 3.55562 0
M  V30 3661 H 355.07 2.29738 3.46929 0
M  V30 3662 H 353.946 2.65036 4.80673 0
M  V30 3663 H 354.207 0.985951 4.30966 0
M  V30 3664 N 353.266 -1.05314 1.17247 0
M  V30 3665 C 354.513 -1.78293 0.960091 0
M  V30 3666 C 354.841 -1.87658 -0.51136 0
M  V30 3667 O 354.096 -1.3718 -1.39571 0
M  V30 3668 C 354.395 -3.2229 1.54479 0
M  V30 3669 C 354.061 -3.32987 3.04024 0
M  V30 3670 C 352.723 -3.35613 3.44844 0
M  V30 3671 C 355.075 -3.34102 4.00031 0
M  V30 3672 C 352.403 -3.36982 4.8027 0
M  V30 3673 C 354.755 -3.3701 5.35357 0
M  V30 3674 C 353.419 -3.37923 5.75642 0
M  V30 3675 H 352.689 -0.652422 0.351322 0
M  V30 3676 H 355.336 -1.23782 1.46117 0
M  V30 3677 H 353.641 -3.7972 0.965391 0
M  V30 3678 H 355.338 -3.77376 1.35603 0
M  V30 3679 H 351.928 -3.31655 2.71483 0
M  V30 3680 H 356.112 -3.31276 3.69554 0
M  V30 3681 H 351.368 -3.35999 5.10798 0
M  V30 3682 H 355.542 -3.36822 6.09528 0
M  V30 3683 H 353.169 -3.38738 6.80559 0
M  V30 3684 N 354.744 -0.972509 -1.24016 0
M  V30 3685 C 355.969 -0.654417 -1.96805 0
M  V30 3686 C 356.394 0.770398 -1.716 0
M  V30 3687 O 355.752 1.52361 -0.982647 0
M  V30 3688 C 355.8 -0.941031 -3.48105 0
M  V30 3689 O 354.904 -0.0289472 -4.1239 0
M  V30 3690 H 354.245 -0.24692 -0.616382 0
M  V30 3691 H 356.775 -1.30396 -1.57664 0
M  V30 3692 H 356.785 -0.87452 -3.98517 0
M  V30 3693 H 355.46 -1.97939 -3.65777 0
M  V30 3694 H 354.037 -0.149192 -3.72601 0
M  V30 3695 N 356.222 1.38976 -0.743202 0
M  V30 3696 C 357.499 1.94351 -0.220705 0
M  V30 3697 C 357.879 1.67935 1.2791 0
M  V30 3698 O 357.227 1.01211 2.04862 0
M  V30 3699 C 357.437 3.44426 -0.563171 0
M  V30 3700 C 358.785 4.2144 -0.517046 0
M  V30 3701 O 359.809 3.52661 -0.500846 0
M  V30 3702 O 358.668 5.44032 -0.518806 0
M  V30 3703 H 355.762 0.825879 -0.043047 0
M  V30 3704 H 358.308 1.48429 -0.822618 0
M  V30 3705 H 357.08 3.5712 -1.59941 0
M  V30 3706 H 356.703 3.97543 0.0672883 0
M  V30 3707 N 357.7 0.491464 1.49741 0
M  V30 3708 C 358.977 -0.118984 1.95238 0
M  V30 3709 C 359.357 -1.55044 1.43264 0
M  V30 3710 O 358.705 -2.19287 0.642287 0
M  V30 3711 C 358.915 -0.0414187 3.48975 0
M  V30 3712 C 360.263 -0.220133 4.24029 0
M  V30 3713 O 361.287 -0.117055 3.56008 0
M  V30 3714 O 360.146 -0.430567 5.44801 0
M  V30 3715 H 357.24 -0.100536 0.820866 0
M  V30 3716 H 359.786 0.553322 1.60426 0
M  V30 3717 H 358.558 0.957214 3.79412 0
M  V30 3718 H 358.181 -0.754292 3.9038 0
M  V30 3719 N 359.178 -1.55987 0.224894 0
M  V30 3720 C 360.108 -2.23426 -0.678457 0
M  V30 3721 C 361.089 -1.20709 -1.19847 0
M  V30 3722 O 362.274 -1.49304 -1.24186 0
M  V30 3723 C 359.404 -2.91676 -1.88527 0
M  V30 3724 C 358.358 -4.00893 -1.49896 0
M  V30 3725 C 357.684 -4.56455 -2.78483 0
M  V30 3726 C 358.984 -5.17769 -0.686461 0
M  V30 3727 H 360.678 -2.99175 -0.116173 0
M  V30 3728 H 358.224 -1.43897 -0.054436 0
M  V30 3729 H 360.177 -3.37547 -2.5227 0
M  V30 3730 H 358.901 -2.1338 -2.47258 0
M  V30 3731 H 357.56 -3.55758 -0.884985 0
M  V30 3732 H 357.208 -3.74886 -3.35365 0
M  V30 3733 H 356.908 -5.30169 -2.53368 0
M  V30 3734 H 358.432 -5.05047 -3.43162 0
M  V30 3735 H 359.846 -5.60001 -1.22767 0
M  V30 3736 H 358.243 -5.97735 -0.532259 0
M  V30 3737 H 359.313 -4.83932 0.306196 0
M  V30 3738 N 360.656 0.0484629 -1.57525 0
M  V30 3739 C 361.881 0.759177 -1.93006 0
M  V30 3740 C 362.306 1.69125 -0.823317 0
M  V30 3741 O 361.664 1.79931 0.222364 0
M  V30 3742 C 361.712 1.50899 -3.27509 0
M  V30 3743 O 360.816 2.62112 -3.18388 0
M  V30 3744 H 360.157 0.205564 -0.631379 0
M  V30 3745 H 362.687 0.00972959 -2.04598 0
M  V30 3746 H 362.697 1.88317 -3.6194 0
M  V30 3747 H 361.372 0.825269 -4.0763 0
M  V30 3748 H 359.949 2.27379 -2.95556 0
M  V30 3749 N 362.134 1.5431 0.320358 0
M  V30 3750 C 363.067 1.78769 1.41834 0
M  V30 3751 C 364.045 0.63783 1.49568 0
M  V30 3752 O 365.229 0.875628 1.66928 0
M  V30 3753 C 362.356 1.90712 2.79905 0
M  V30 3754 C 361.402 3.13023 2.89687 0
M  V30 3755 S 362.235 4.71554 2.53766 0
M  V30 3756 C 363.391 4.86408 3.93902 0
M  V30 3757 H 363.624 2.71619 1.20874 0
M  V30 3758 H 361.157 1.45474 0.517377 0
M  V30 3759 H 363.115 1.98279 3.59438 0
M  V30 3760 H 361.776 0.988343 2.98145 0
M  V30 3761 H 360.969 3.18124 3.90913 0
M  V30 3762 H 360.571 3.03803 2.18128 0
M  V30 3763 H 362.863 4.69241 4.88691 0
M  V30 3764 H 363.806 5.88508 3.93782 0
M  V30 3765 H 364.214 4.14689 3.83005 0
M  V30 3766 N 363.613 -0.582584 1.46437 0
M  V30 3767 C 364.523 -1.71949 1.59595 0
M  V30 3768 C 365.539 -1.67264 0.479443 0
M  V30 3769 O 366.715 -1.87171 0.743579 0
M  V30 3770 C 363.78 -3.08452 1.58298 0
M  V30 3771 C 362.841 -3.244 2.81182 0
M  V30 3772 C 362.074 -4.54391 2.79937 0
M  V30 3773 O 362.297 -5.38287 1.8869 0
M  V30 3774 O 361.231 -4.73588 3.71481 0
M  V30 3775 H 365.057 -1.63795 2.55744 0
M  V30 3776 H 362.642 -0.749643 1.29231 0
M  V30 3777 H 364.524 -3.89732 1.60271 0
M  V30 3778 H 363.199 -3.17043 0.653094 0
M  V30 3779 H 362.106 -2.42613 2.84763 0
M  V30 3780 H 363.439 -3.20699 3.7338 0
M  V30 3781 N 365.091 -1.34144 -0.827227 0
M  V30 3782 C 366.339 -1.26009 -1.58007 0
M  V30 3783 C 366.66 0.170971 -1.94249 0
M  V30 3784 O 365.93 1.10256 -1.61927 0
M  V30 3785 H 364.51 -0.463414 -0.585881 0
M  V30 3786 H 367.172 -1.68005 -0.987951 0
M  V30 3787 H 366.268 -1.86187 -2.50481 0
M  V30 3788 N 366.569 1.04691 -1.17803 0
M  V30 3789 C 367.532 2.10724 -0.901545 0
M  V30 3790 C 368.532 1.6042 0.110437 0
M  V30 3791 O 369.722 1.7377 -0.122303 0
M  V30 3792 C 366.854 3.39084 -0.351409 0
M  V30 3793 H 368.047 2.36686 -1.84174 0
M  V30 3794 H 365.6 1.21015 -0.98919 0
M  V30 3795 H 366.335 3.18782 0.59569 0
M  V30 3796 H 366.12 3.76909 -1.08083 0
M  V30 3797 H 367.61 4.17227 -0.176451 0
M  V30 3798 N 368.047 0.979072 1.23499 0
M  V30 3799 C 369.01 0.523244 2.23147 0
M  V30 3800 C 370.01 -0.386406 1.56088 0
M  V30 3801 O 371.2 -0.180283 1.73265 0
M  V30 3802 C 368.332 -0.240739 3.40049 0
M  V30 3803 H 369.525 1.40432 2.64989 0
M  V30 3804 H 367.078 0.764824 1.36309 0
M  V30 3805 H 367.813 -1.13841 3.03662 0
M  V30 3806 H 367.598 0.412207 3.89927 0
M  V30 3807 H 369.088 -0.548297 4.13985 0
M  V30 3808 N 369.525 -1.3858 0.750561 0
M  V30 3809 C 370.771 -2.00481 0.305825 0
M  V30 3810 C 371.104 -1.5944 -1.10872 0
M  V30 3811 O 370.379 -0.83052 -1.75877 0
M  V30 3812 C 370.662 -3.5758 0.425287 0
M  V30 3813 C 370.515 -4.08594 1.88072 0
M  V30 3814 C 371.834 -4.39719 -0.183122 0
M  V30 3815 H 368.953 -0.728348 0.112598 0
M  V30 3816 H 371.595 -1.64566 0.949638 0
M  V30 3817 H 369.745 -3.88306 -0.122828 0
M  V30 3818 H 371.417 -3.88523 2.48691 0
M  V30 3819 H 369.66 -3.61574 2.39681 0
M  V30 3820 H 370.331 -5.177 1.91548 0
M  V30 3821 H 372.807 -4.15128 0.284303 0
M  V30 3822 H 371.683 -5.48856 -0.0692757 0
M  V30 3823 H 371.944 -4.23434 -1.27106 0
M  V30 3824 N 371.003 -0.499398 -1.49478 0
M  V30 3825 C 371.936 0.326491 -2.25852 0
M  V30 3826 C 372.914 0.971776 -1.30366 0
M  V30 3827 O 374.098 1.00219 -1.59651 0
M  V30 3828 C 371.225 1.45969 -3.05632 0
M  V30 3829 C 370.271 0.928938 -4.16261 0
M  V30 3830 S 371.104 -0.179012 -5.35201 0
M  V30 3831 C 372.26 0.957389 -6.18534 0
M  V30 3832 H 372.493 -0.321746 -2.95554 0
M  V30 3833 H 370.026 -0.284674 -1.51753 0
M  V30 3834 H 371.984 2.109 -3.52181 0
M  V30 3835 H 370.645 2.07953 -2.35402 0
M  V30 3836 H 369.838 1.77813 -4.71592 0
M  V30 3837 H 369.44 0.356869 -3.72293 0
M  V30 3838 H 371.732 1.86296 -6.51383 0
M  V30 3839 H 372.675 0.442733 -7.06715 0
M  V30 3840 H 373.083 1.224 -5.5107 0
M  V30 3841 N 372.481 1.55866 -0.233164 0
M  V30 3842 C 373.729 1.9821 0.394593 0
M  V30 3843 C 374.05 1.12234 1.59463 0
M  V30 3844 O 373.32 0.201981 1.94856 0
M  V30 3845 H 371.9 0.732034 0.148778 0
M  V30 3846 H 374.562 1.92107 -0.32876 0
M  V30 3847 H 373.658 3.03845 0.713063 0
M  V30 3848 N 373.959 -0.0401083 1.57549 0
M  V30 3849 C 375.207 -0.731677 1.8839 0
M  V30 3850 C 375.528 -1.76481 0.829425 0
M  V30 3851 O 374.798 -1.95411 -0.1383 0
M  V30 3852 H 373.378 -0.273225 0.695239 0
M  V30 3853 H 376.04 -0.00867725 1.94898 0
M  V30 3854 H 375.136 -1.22816 2.86919 0
M  V30 3855 N 375.437 -1.54477 -0.31217 0
M  V30 3856 C 376.848 -1.64344 -0.885891 0
M  V30 3857 C 377.199 -0.54485 -1.88483 0
M  V30 3858 O 376.324 0.320387 -2.14015 0
M  V30 3859 C 376.919 -2.97908 -1.61357 0
M  V30 3860 C 375.478 -3.09933 -2.13585 0
M  V30 3861 C 374.625 -2.59971 -0.964897 0
M  V30 3862 H 377.576 -1.58448 -0.0894528 0
M  V30 3863 H 377.597 -2.88706 -2.47848 0
M  V30 3864 H 377.109 -3.77845 -0.886277 0
M  V30 3865 H 375.21 -2.34694 -2.89395 0
M  V30 3866 H 375.323 -4.15916 -2.37804 0
M  V30 3867 H 373.687 -2.16147 -1.34731 0
M  V30 3868 H 374.47 -3.42376 -0.251742 0
M  V30 3869 N 376.915 0.57481 -1.46744 0
M  V30 3870 C 378.161 1.3347 -1.52688 0
M  V30 3871 C 378.494 1.93353 -0.181229 0
M  V30 3872 O 377.769 1.76912 0.808237 0
M  V30 3873 C 378.052 2.45811 -2.63152 0
M  V30 3874 C 377.905 1.90912 -4.07275 0
M  V30 3875 C 379.224 3.47822 -2.69644 0
M  V30 3876 H 376.343 0.483935 -0.555856 0
M  V30 3877 H 378.985 0.644968 -1.78718 0
M  V30 3878 H 377.135 3.04646 -2.41088 0
M  V30 3879 H 378.807 1.36473 -4.4065 0
M  V30 3880 H 377.05 1.21691 -4.16382 0
M  V30 3881 H 377.721 2.72042 -4.80309 0
M  V30 3882 H 380.197 2.9888 -2.895 0
M  V30 3883 H 379.073 4.23876 -3.48742 0
M  V30 3884 H 379.334 4.05555 -1.76005 0
M  V30 3885 N 378.394 1.34581 0.820102 0
M  V30 3886 C 379.304 1.28471 1.96297 0
M  V30 3887 C 380.32 0.191902 1.72939 0
M  V30 3888 O 381.496 0.418879 1.96996 0
M  V30 3889 C 378.561 1.04281 3.30645 0
M  V30 3890 C 377.622 2.22745 3.66992 0
M  V30 3891 C 376.855 1.997 4.9493 0
M  V30 3892 O 377.078 0.956656 5.6232 0
M  V30 3893 O 376.012 2.86723 5.2922 0
M  V30 3894 H 379.838 2.24624 2.04396 0
M  V30 3895 H 377.423 1.14816 0.955913 0
M  V30 3896 H 379.305 0.925841 4.11104 0
M  V30 3897 H 377.98 0.111697 3.23507 0
M  V30 3898 H 376.887 2.40003 2.86966 0
M  V30 3899 H 378.22 3.14257 3.78819 0
M  V30 3900 N 379.872 -1.04064 1.18357 0
M  V30 3901 C 381.288 -1.2947 0.933258 0
M  V30 3902 C 381.488 -1.97466 -0.401169 0
M  V30 3903 O 380.544 -2.25528 -1.13549 0
M  V30 3904 C 381.857 -2.15337 2.09882 0
M  V30 3905 C 383.405 -2.28683 2.13712 0
M  V30 3906 C 383.88 -3.17917 3.29686 0
M  V30 3907 N 385.371 -3.25504 3.29547 0
M  V30 3908 C 386.106 -3.94706 4.15926 0
M  V30 3909 N 385.602 -4.66239 5.12439 0
M  V30 3910 N 387.395 -3.90986 4.0384 0
M  V30 3911 H 379.546 -0.583359 2.04232 0
M  V30 3912 H 381.809 -0.319921 0.892387 0
M  V30 3913 H 381.515 -1.72682 3.06389 0
M  V30 3914 H 381.389 -3.16015 2.05947 0
M  V30 3915 H 383.776 -2.70575 1.17784 0
M  V30 3916 H 383.857 -1.27596 2.21705 0
M  V30 3917 H 383.501 -2.76736 4.25887 0
M  V30 3918 H 383.431 -4.19036 3.1893 0
M  V30 3919 H 385.922 -2.74547 2.59677 0
M  V30 3920 H 386.235 -5.16638 5.74722 0
M  V30 3921 H 384.58 -4.65143 5.16398 0
M  V30 3922 H 387.771 -3.34234 3.27727 0
M  V30 3923 H 387.944 -4.44646 4.71375 0
M  V30 3924 N 381.35 -0.985608 -1.22978 0
M  V30 3925 C 382.575 -0.675254 -1.961 0
M  V30 3926 C 383 0.752154 -1.72407 0
M  V30 3927 O 382.358 1.5131 -0.998751 0
M  V30 3928 C 382.406 -0.977899 -3.47087 0
M  V30 3929 O 381.51 -0.072685 -4.12336 0
M  V30 3930 H 380.851 -0.253443 -0.613728 0
M  V30 3931 H 383.381 -1.32061 -1.56272 0
M  V30 3932 H 383.391 -0.916739 -3.97567 0
M  V30 3933 H 382.066 -2.01807 -3.63657 0
M  V30 3934 H 380.643 -0.188703 -3.72422 0
M  V30 3935 N 382.828 1.3818 -0.7579 0
M  V30 3936 C 383.778 2.27741 -0.108674 0
M  V30 3937 C 384.762 1.45415 0.688709 0
M  V30 3938 O 385.954 1.68108 0.553956 0
M  V30 3939 C 383.083 3.34313 0.780367 0
M  V30 3940 C 382.169 4.24093 -0.0240977 0
M  V30 3941 N 382.56 4.9451 -1.06271 0
M  V30 3942 C 380.858 4.45542 0.202049 0
M  V30 3943 C 381.559 5.60675 -1.54979 0
M  V30 3944 N 380.535 5.36684 -0.864348 0
M  V30 3945 H 384.337 2.79649 -0.904071 0
M  V30 3946 H 381.851 1.51133 -0.594346 0
M  V30 3947 H 383.848 3.97368 1.26114 0
M  V30 3948 H 382.508 2.83962 1.57467 0
M  V30 3949 H 383.519 4.97345 -1.44459 0
M  V30 3950 H 380.196 4.06091 0.96935 0
M  V30 3951 H 381.586 6.26992 -2.41517 0
M  V30 3952 N 384.306 0.507319 1.49211 0
M  V30 3953 C 385.238 -0.304532 2.27168 0
M  V30 3954 C 386.251 -0.924956 1.33972 0
M  V30 3955 O 387.44 -0.807227 1.59205 0
M  V30 3956 C 384.54 -1.44431 3.06583 0
M  V30 3957 C 383.713 -0.930026 4.27398 0
M  V30 3958 C 382.772 -1.94817 4.88807 0
M  V30 3959 O 381.798 -1.51418 5.4869 0
M  V30 3960 N 383 -3.279 4.79022 0
M  V30 3961 H 385.765 0.36395 2.97482 0
M  V30 3962 H 383.326 0.340249 1.58284 0
M  V30 3963 H 385.318 -2.12311 3.44537 0
M  V30 3964 H 383.888 -2.01684 2.38835 0
M  V30 3965 H 383.108 -0.0759244 3.94127 0
M  V30 3966 H 384.396 -0.564932 5.05654 0
M  V30 3967 H 383.794 -3.65843 4.3148 0
M  V30 3968 H 382.351 -3.91476 5.21142 0
M  V30 3969 N 385.784 -1.5574 0.241426 0
M  V30 3970 C 386.747 -2.19877 -0.647063 0
M  V30 3971 C 387.747 -1.16642 -1.10686 0
M  V30 3972 O 388.937 -1.41757 -1.01245 0
M  V30 3973 C 386.069 -2.83797 -1.88871 0
M  V30 3974 H 387.262 -2.99772 -0.087574 0
M  V30 3975 H 384.815 -1.56298 -0.00813574 0
M  V30 3976 H 385.55 -2.07824 -2.48957 0
M  V30 3977 H 385.335 -3.59414 -1.56728 0
M  V30 3978 H 386.825 -3.32898 -2.52129 0
M  V30 3979 N 387.262 0.0317525 -1.57568 0
M  V30 3980 C 388.192 1.03274 -2.0942 0
M  V30 3981 C 389.173 1.3788 -0.996143 0
M  V30 3982 O 390.358 1.46811 -1.27122 0
M  V30 3983 C 387.488 2.33448 -2.57137 0
M  V30 3984 C 386.442 2.13091 -3.71182 0
M  V30 3985 C 385.768 3.49001 -4.05095 0
M  V30 3986 C 387.068 1.51928 -4.99715 0
M  V30 3987 H 388.762 0.60112 -2.93303 0
M  V30 3988 H 386.308 0.287705 -1.41097 0
M  V30 3989 H 388.261 3.03802 -2.92032 0
M  V30 3990 H 386.985 2.78665 -1.70333 0
M  V30 3991 H 385.644 1.45171 -3.36632 0
M  V30 3992 H 385.292 3.91862 -3.15362 0
M  V30 3993 H 384.992 3.36207 -4.81911 0
M  V30 3994 H 386.516 4.20721 -4.42522 0
M  V30 3995 H 387.93 2.12196 -5.32584 0
M  V30 3996 H 386.327 1.49716 -5.81124 0
M  V30 3997 H 387.397 0.484811 -4.8247 0
M  V30 3998 N 388.74 1.54641 0.303973 0
M  V30 3999 C 389.986 1.74038 1.04109 0
M  V30 4000 C 390.319 0.523051 1.87024 0
M  V30 4001 O 389.594 -0.479874 1.88487 0
M  V30 4002 C 389.877 3.02761 1.94955 0
M  V30 4003 C 389.73 4.34787 1.1524 0
M  V30 4004 C 391.049 3.27336 2.94175 0
M  V30 4005 H 388.168 0.63323 0.377079 0
M  V30 4006 H 390.81 1.87354 0.316001 0
M  V30 4007 H 388.96 2.9154 2.56782 0
M  V30 4008 H 390.632 4.57922 0.557236 0
M  V30 4009 H 388.875 4.31407 0.455053 0
M  V30 4010 H 389.546 5.21116 1.8205 0
M  V30 4011 H 392.022 3.38148 2.42477 0
M  V30 4012 H 390.898 4.18726 3.54908 0
M  V30 4013 H 391.159 2.45491 3.67677 0
M  V30 4014 N 390.218 -0.567019 1.47046 0
M  V30 4015 C 391.181 -1.65696 1.58359 0
M  V30 4016 C 392.181 -1.54097 0.459441 0
M  V30 4017 O 393.371 -1.58432 0.724225 0
M  V30 4018 C 390.503 -3.05197 1.51879 0
M  V30 4019 H 391.696 -1.57019 2.5551 0
M  V30 4020 H 389.249 -0.786148 1.3509 0
M  V30 4021 H 389.984 -3.19417 0.560673 0
M  V30 4022 H 389.769 -3.15025 2.33455 0
M  V30 4023 H 391.259 -3.84511 1.62913 0
M  V30 4024 N 391.696 -1.35014 -0.812953 0
M  V30 4025 C 392.944 -1.27678 -1.56661 0
M  V30 4026 C 393.265 0.150359 -1.94419 0
M  V30 4027 O 392.535 1.08532 -1.63088 0
M  V30 4028 H 391.115 -0.469602 -0.580933 0
M  V30 4029 H 393.777 -1.69043 -0.970076 0
M  V30 4030 H 392.873 -1.88833 -2.48492 0
M  V30 4031 N 393.175 1.03435 -1.18907 0
M  V30 4032 C 394.415 1.78302 -0.999391 0
M  V30 4033 C 394.779 1.86353 0.462219 0
M  V30 4034 O 395.98 2.57489 0.771543 0
M  V30 4035 C 394.251 3.17362 -1.64365 0
M  V30 4036 S 395.81 4.08488 -1.6026 0
M  V30 4037 H 392.628 0.613861 -0.358742 0
M  V30 4038 H 395.23 1.23979 -1.51161 0
M  V30 4039 H 393.934 3.09116 -2.69955 0
M  V30 4040 H 393.465 3.76762 -1.13199 0
M  V30 4041 H 395.48 4.92274 -0.622932 0
M  V30 4042 N 394.653 0.992116 1.22453 0
M  V30 4043 C 395.93 0.583508 1.86694 0
M  V30 4044 C 396.31 -0.9392 1.89056 0
M  V30 4045 O 395.658 -1.82081 1.38053 0
M  V30 4046 C 395.868 1.20304 3.2761 0
M  V30 4047 C 397.216 1.30308 4.0411 0
M  V30 4048 O 398.24 1.15737 3.36873 0
M  V30 4049 O 397.099 1.53615 5.24466 0
M  V30 4050 H 394.193 0.198129 0.802916 0
M  V30 4051 H 396.739 1.08794 1.30238 0
M  V30 4052 H 395.511 2.24461 3.2052 0
M  V30 4053 H 395.134 0.684144 3.9167 0
M  V30 4054 N 396.131 -1.37776 0.765217 0
M  V30 4055 C 397.064 -2.28008 0.0935025 0
M  V30 4056 C 398.042 -1.45985 -0.716047 0
M  V30 4057 O 399.226 -1.75331 -0.692203 0
M  V30 4058 C 396.353 -3.27228 -0.874052 0
M  V30 4059 C 395.399 -4.26239 -0.149307 0
M  V30 4060 S 396.232 -5.22827 1.15809 0
M  V30 4061 C 397.388 -6.256 0.193906 0
M  V30 4062 H 397.621 -2.84631 0.858637 0
M  V30 4063 H 395.154 -1.43952 0.558313 0
M  V30 4064 H 397.112 -3.84902 -1.42691 0
M  V30 4065 H 395.773 -2.69565 -1.61225 0
M  V30 4066 H 394.966 -4.96213 -0.88254 0
M  V30 4067 H 394.568 -3.7252 0.332366 0
M  V30 4068 H 396.86 -6.74508 -0.636011 0
M  V30 4069 H 397.803 -7.02838 0.861638 0
M  V30 4070 H 398.211 -5.64173 -0.191975 0
M  V30 4071 N 397.609 -0.515225 -1.4894 0
M  V30 4072 C 398.858 0.0261361 -2.01683 0
M  V30 4073 C 399.171 1.36719 -1.39883 0
M  V30 4074 O 400.377 1.99606 -1.84037 0
M  V30 4075 C 398.833 0.0970111 -3.59769 0
M  V30 4076 C 398.441 -1.23825 -4.30548 0
M  V30 4077 C 400.185 0.587981 -4.20408 0
M  V30 4078 C 398.092 -1.12877 -5.80528 0
M  V30 4079 H 397.022 0.0135398 -0.753878 0
M  V30 4080 H 399.673 -0.656787 -1.71343 0
M  V30 4081 H 398.055 0.844694 -3.86886 0
M  V30 4082 H 399.229 -2.00034 -4.15118 0
M  V30 4083 H 397.544 -1.66379 -3.81716 0
M  V30 4084 H 400.141 0.68763 -5.3026 0
M  V30 4085 H 400.484 1.59026 -3.84729 0
M  V30 4086 H 401.017 -0.103582 -3.97665 0
M  V30 4087 H 397.756 -2.10575 -6.20756 0
M  V30 4088 H 397.276 -0.407799 -5.98412 0
M  V30 4089 H 398.955 -0.813332 -6.41868 0
M  V30 4090 N 399.087 1.5561 -0.249682 0
M  V30 4091 C 400.017 2.24477 0.642826 0
M  V30 4092 C 400.998 1.22601 1.17911 0
M  V30 4093 O 402.183 1.5126 1.21795 0
M  V30 4094 C 399.313 2.94638 1.83863 0
M  V30 4095 C 398.267 4.03227 1.435 0
M  V30 4096 C 397.593 4.60828 2.71186 0
M  V30 4097 C 398.893 5.18796 0.604002 0
M  V30 4098 H 400.587 2.99321 0.0685625 0
M  V30 4099 H 398.133 1.43965 0.0315363 0
M  V30 4100 H 400.086 3.41517 2.46868 0
M  V30 4101 H 398.81 2.17287 2.43832 0
M  V30 4102 H 397.469 3.57121 0.828275 0
M  V30 4103 H 397.117 3.80174 3.29358 0
M  V30 4104 H 396.817 5.34132 2.44901 0
M  V30 4105 H 398.341 5.10442 3.35084 0
M  V30 4106 H 399.755 5.61883 1.13842 0
M  V30 4107 H 398.152 5.98506 0.437097 0
M  V30 4108 H 399.222 4.83384 -0.383147 0
M  V30 4109 N 400.565 -0.0233959 1.57583 0
M  V30 4110 C 401.814 -0.712133 1.8871 0
M  V30 4111 C 402.127 -1.76217 0.848944 0
M  V30 4112 O 403.333 -2.50389 1.04964 0
M  V30 4113 C 401.789 -1.3177 3.3491 0
M  V30 4114 C 401.397 -0.303715 4.46969 0
M  V30 4115 C 403.141 -1.98598 3.75179 0
M  V30 4116 C 401.048 -0.917945 5.84233 0
M  V30 4117 H 399.978 -0.269735 0.704101 0
M  V30 4118 H 402.629 0.0333114 1.8347 0
M  V30 4119 H 401.011 -2.11304 3.34913 0
M  V30 4120 H 402.185 0.465325 4.58445 0
M  V30 4121 H 400.5 0.2628 4.1557 0
M  V30 4122 H 403.097 -2.45416 4.75053 0
M  V30 4123 H 403.44 -2.80659 3.07468 0
M  V30 4124 H 403.973 -1.25831 3.77374 0
M  V30 4125 H 400.712 -0.136633 6.55358 0
M  V30 4126 H 400.232 -1.65669 5.76467 0
M  V30 4127 H 401.911 -1.4236 6.31144 0
M  V30 4128 N 402.043 -1.548 -0.295768 0
M  V30 4129 C 403.283 -1.76069 -1.03823 0
M  V30 4130 C 403.647 -0.537992 -1.84309 0
M  V30 4131 O 404.848 -0.628514 -2.61349 0
M  V30 4132 C 403.119 -3.01705 -1.91596 0
M  V30 4133 S 404.678 -3.43998 -2.72416 0
M  V30 4134 H 401.496 -0.618852 -0.350062 0
M  V30 4135 H 404.098 -1.93009 -0.31106 0
M  V30 4136 H 402.802 -3.88812 -1.31351 0
M  V30 4137 H 402.333 -2.87366 -2.68671 0
M  V30 4138 H 404.348 -3.0148 -3.94112 0
M  V30 4139 N 403.521 0.559213 -1.47345 0
M  V30 4140 C 404.469 1.68747 -1.60085 0
M  V30 4141 C 405.463 1.628 -0.46825 0
M  V30 4142 O 406.669 1.68009 -0.645977 0
M  V30 4143 H 403.044 0.558329 -0.503759 0
M  V30 4144 H 405.015 1.55138 -2.54902 0
M  V30 4145 C 403.764 3.07103 -1.63042 0
M  V30 4146 H 403.087 3.12361 -2.49541 0
M  V30 4147 H 404.527 3.85743 -1.76006 0
M  V30 4148 C 402.986 3.34935 -0.363357 0
M  V30 4149 O 403.516 3.98102 0.536416 0
M  V30 4150 N 401.722 2.89574 -0.244 0
M  V30 4151 H 401.269 2.38348 -0.977133 0
M  V30 4152 H 401.227 3.08566 0.602836 0
M  V30 4153 N 404.999 1.35443 0.805782 0
M  V30 4154 C 405.946 1.28431 1.91766 0
M  V30 4155 C 406.916 0.156102 1.65365 0
M  V30 4156 O 408.101 0.339936 1.87747 0
M  V30 4157 C 405.241 1.06301 3.2832 0
M  V30 4158 C 404.354 2.2805 3.66902 0
M  V30 4159 C 403.489 1.99064 4.92491 0
M  V30 4160 C 402.528 3.16863 5.23703 0
M  V30 4161 N 401.665 2.87647 6.40471 0
M  V30 4162 H 406.505 2.23511 1.97096 0
M  V30 4163 H 404.042 1.11105 0.964054 0
M  V30 4164 H 406 0.915012 4.07042 0
M  V30 4165 H 404.63 0.148822 3.22457 0
M  V30 4166 H 403.682 2.53711 2.83434 0
M  V30 4167 H 404.994 3.1601 3.85927 0
M  V30 4168 H 404.148 1.81099 5.7904 0
M  V30 4169 H 402.887 1.0839 4.75503 0
M  V30 4170 H 401.892 3.35404 4.35642 0
M  V30 4171 H 403.117 4.08339 5.4262 0
M  V30 4172 H 401.063 1.99568 6.24907 0
M  V30 4173 H 400.98 3.69141 6.59751 0
M  V30 4174 H 402.248 2.73226 7.30047 0
M  V30 4175 N 406.477 -1.02803 1.19454 0
M  V30 4176 C 407.893 -1.28473 0.946937 0
M  V30 4177 C 408.093 -1.97881 -0.380202 0
M  V30 4178 O 407.149 -2.26719 -1.11151 0
M  V30 4179 C 408.462 -2.13099 2.12154 0
M  V30 4180 C 410.01 -2.26404 2.16126 0
M  V30 4181 C 410.485 -3.14402 3.33039 0
M  V30 4182 N 411.976 -3.21991 3.32981 0
M  V30 4183 C 412.711 -3.90272 4.20089 0
M  V30 4184 N 412.207 -4.60777 5.17355 0
M  V30 4185 N 414 -3.8668 4.07964 0
M  V30 4186 H 406.151 -0.561665 2.04839 0
M  V30 4187 H 408.414 -0.310438 0.89573 0
M  V30 4188 H 408.12 -1.69422 3.08203 0
M  V30 4189 H 407.994 -3.13813 2.09287 0
M  V30 4190 H 410.381 -2.69311 1.20647 0
M  V30 4191 H 410.462 -1.25237 2.23045 0
M  V30 4192 H 410.106 -2.72204 4.28798 0
M  V30 4193 H 410.036 -4.1563 3.23356 0
M  V30 4194 H 412.527 -2.71778 2.62574 0
M  V30 4195 H 412.84 -5.10513 5.80169 0
M  V30 4196 H 411.185 -4.5964 5.21302 0
M  V30 4197 H 414.376 -3.30739 3.31254 0
M  V30 4198 H 414.549 -4.39621 4.76064 0
M  V30 4199 N 407.956 -0.998596 -1.21925 0
M  V30 4200 C 408.866 -0.562736 -2.27751 0
M  V30 4201 C 409.882 0.391203 -1.69545 0
M  V30 4202 O 411.058 0.256625 -1.99758 0
M  V30 4203 C 408.123 0.11012 -3.46525 0
M  V30 4204 C 407.184 -0.887495 -4.20026 0
M  V30 4205 C 406.417 -0.246654 -5.3313 0
M  V30 4206 O 406.64 0.958088 -5.62296 0
M  V30 4207 O 405.574 -0.954374 -5.94286 0
M  V30 4208 H 409.4 -1.44329 -2.67213 0
M  V30 4209 H 406.985 -0.767135 -1.28201 0
M  V30 4210 H 408.867 0.486756 -4.18579 0
M  V30 4211 H 407.542 0.965154 -3.08976 0
M  V30 4212 H 406.449 -1.31517 -3.5022 0
M  V30 4213 H 407.782 -1.71191 -4.6147 0
M  V30 4214 N 409.434 1.37368 -0.772513 0
M  V30 4215 C 410.397 2.28601 -0.165541 0
M  V30 4216 C 411.397 1.48062 0.627238 0
M  V30 4217 O 412.587 1.68268 0.450715 0
M  V30 4218 C 409.719 3.32023 0.772897 0
M  V30 4219 H 410.912 2.83787 -0.969787 0
M  V30 4220 H 408.465 1.46647 -0.540775 0
M  V30 4221 H 409.2 2.81962 1.60212 0
M  V30 4222 H 408.985 3.91555 0.206585 0
M  V30 4223 H 410.475 4.00197 1.19298 0
M  V30 4224 N 410.912 0.523116 1.48665 0
M  V30 4225 C 411.875 -0.232592 2.28017 0
M  V30 4226 C 412.875 -0.874021 1.34972 0
M  V30 4227 O 414.065 -0.735132 1.57929 0
M  V30 4228 C 411.197 -1.33586 3.13636 0
M  V30 4229 H 412.39 0.464008 2.96289 0
M  V30 4230 H 409.943 0.278816 1.53793 0
M  V30 4231 H 410.678 -2.06593 2.4998 0
M  V30 4232 H 410.463 -0.881125 3.82071 0
M  V30 4233 H 411.953 -1.86759 3.73511 0
M  V30 4234 N 412.39 -1.55475 0.257931 0
M  V30 4235 C 413.636 -1.99502 -0.364266 0
M  V30 4236 C 413.969 -1.146 -1.56782 0
M  V30 4237 O 413.244 -0.211968 -1.93342 0
M  V30 4238 C 413.527 -3.51917 -0.763333 0
M  V30 4239 C 413.38 -4.4758 0.446371 0
M  V30 4240 C 414.699 -4.09742 -1.60623 0
M  V30 4241 H 411.818 -0.725277 -0.130929 0
M  V30 4242 H 414.46 -1.8653 0.361446 0
M  V30 4243 H 412.61 -3.63101 -1.38166 0
M  V30 4244 H 414.282 -4.48362 1.08487 0
M  V30 4245 H 412.525 -4.19947 1.08753 0
M  V30 4246 H 413.196 -5.51862 0.123645 0
M  V30 4247 H 415.672 -4.01727 -1.08418 0
M  V30 4248 H 414.548 -5.16631 -1.85429 0
M  V30 4249 H 414.809 -3.58889 -2.58169 0
M  V30 4250 N 413.868 0.0150385 -1.57593 0
M  V30 4251 C 414.778 1.02791 -2.10882 0
M  V30 4252 C 415.794 1.38702 -1.0506 0
M  V30 4253 O 416.97 1.47739 -1.36877 0
M  V30 4254 C 414.035 2.30568 -2.58919 0
M  V30 4255 C 413.096 2.01108 -3.79281 0
M  V30 4256 C 412.329 3.22794 -4.25018 0
M  V30 4257 O 412.552 4.33959 -3.70183 0
M  V30 4258 O 411.486 3.07672 -5.17322 0
M  V30 4259 H 415.312 0.604973 -2.97613 0
M  V30 4260 H 412.897 0.23292 -1.47573 0
M  V30 4261 H 414.779 3.05662 -2.90084 0
M  V30 4262 H 413.454 2.72129 -1.75293 0
M  V30 4263 H 412.361 1.23537 -3.53114 0
M  V30 4264 H 413.694 1.64394 -4.63935 0
M  V30 4265 N 415.346 1.54954 0.287554 0
M  V30 4266 C 416.592 1.75132 1.02257 0
M  V30 4267 C 416.925 0.542858 1.86458 0
M  V30 4268 O 416.2 -0.459856 1.88986 0
M  V30 4269 C 416.483 3.04812 1.91733 0
M  V30 4270 C 416.336 4.35985 1.10622 0
M  V30 4271 C 417.655 3.30438 2.90687 0
M  V30 4272 H 414.774 0.637194 0.370341 0
M  V30 4273 H 417.416 1.87678 0.296111 0
M  V30 4274 H 415.566 2.94247 2.53675 0
M  V30 4275 H 417.238 4.58487 0.508636 0
M  V30 4276 H 415.481 4.31865 0.409271 0
M  V30 4277 H 416.152 5.23017 1.76513 0
M  V30 4278 H 418.628 3.40701 2.38877 0
M  V30 4279 H 417.504 4.22467 3.50447 0
M  V30 4280 H 417.765 2.49377 3.65053 0
M  V30 4281 N 416.824 -0.551391 1.4764 0
M  V30 4282 C 417.754 -1.66757 1.63445 0
M  V30 4283 C 418.735 -1.63077 0.483742 0
M  V30 4284 O 419.92 -1.80607 0.71377 0
M  V30 4285 C 417.05 -3.05387 1.65396 0
M  V30 4286 C 416.004 -3.23918 2.79752 0
M  V30 4287 C 415.33 -4.63393 2.66779 0
M  V30 4288 C 416.63 -3.08735 4.21284 0
M  V30 4289 H 418.324 -1.53786 2.56886 0
M  V30 4290 H 415.87 -0.738415 1.23626 0
M  V30 4291 H 417.823 -3.83325 1.75043 0
M  V30 4292 H 416.547 -3.19332 0.685195 0
M  V30 4293 H 415.206 -2.48391 2.69625 0
M  V30 4294 H 414.854 -4.74144 1.67918 0
M  V30 4295 H 414.554 -4.7674 3.43501 0
M  V30 4296 H 416.078 -5.43458 2.78364 0
M  V30 4297 H 417.492 -3.76484 4.32357 0
M  V30 4298 H 415.889 -3.33588 4.98838 0
M  V30 4299 H 416.959 -2.0541 4.39243 0
M  V30 4300 N 418.302 -1.35869 -0.798587 0
M  V30 4301 C 419.579 -1.20145 -1.54352 0
M  V30 4302 C 419.959 0.216161 -2.0999 0
M  V30 4303 O 419.307 1.22068 -1.93162 0
M  V30 4304 C 419.517 -2.27602 -2.64572 0
M  V30 4305 C 420.865 -2.63811 -3.32699 0
M  V30 4306 O 421.889 -2.26576 -2.74849 0
M  V30 4307 O 420.748 -3.27866 -4.37226 0
M  V30 4308 H 417.842 -0.467248 -0.682355 0
M  V30 4309 H 420.388 -1.47574 -0.837859 0
M  V30 4310 H 419.16 -3.2265 -2.21388 0
M  V30 4311 H 418.783 -2.01488 -3.42766 0
M  V30 4312 N 419.78 1.02168 -1.19998 0
M  V30 4313 C 420.728 2.12717 -0.940967 0
M  V30 4314 C 421.722 1.69069 0.105841 0
M  V30 4315 O 422.928 1.79946 -0.0440583 0
M  V30 4316 H 419.303 0.695108 -0.28693 0
M  V30 4317 H 421.274 2.3175 -1.87975 0
M  V30 4318 C 420.023 3.44027 -0.504049 0
M  V30 4319 H 419.346 3.78036 -1.30112 0
M  V30 4320 H 420.786 4.22452 -0.361991 0
M  V30 4321 C 419.245 3.27678 0.782878 0
M  V30 4322 O 419.775 3.56949 1.84256 0
M  V30 4323 N 417.981 2.80943 0.742921 0
M  V30 4324 H 417.528 2.57322 -0.119687 0
M  V30 4325 H 417.486 2.70385 1.60435 0
M  V30 4326 N 421.258 1.00505 1.21394 0
M  V30 4327 C 422.188 0.585684 2.26035 0
M  V30 4328 C 423.169 -0.393525 1.65485 0
M  V30 4329 O 424.354 -0.281497 1.92149 0
M  V30 4330 C 421.484 -0.0884283 3.47187 0
M  V30 4331 C 420.438 0.810567 4.20254 0
M  V30 4332 C 419.764 0.00286382 5.347 0
M  V30 4333 C 421.064 2.1132 4.77641 0
M  V30 4334 H 422.758 1.46039 2.61368 0
M  V30 4335 H 420.304 0.703648 1.25638 0
M  V30 4336 H 422.257 -0.393286 4.19561 0
M  V30 4337 H 420.981 -0.997766 3.10986 0
M  V30 4338 H 419.64 1.09925 3.49731 0
M  V30 4339 H 419.288 -0.907765 4.94741 0
M  V30 4340 H 418.988 0.601444 5.84514 0
M  V30 4341 H 420.512 -0.295808 6.09883 0
M  V30 4342 H 421.926 1.87148 5.41893 0
M  V30 4343 H 420.323 2.66164 5.37845 0
M  V30 4344 H 421.393 2.78393 3.9702 0
M  V30 4345 N 422.737 -1.36956 0.779787 0
M  V30 4346 C 424.148 -1.82094 0.412156 0
M  V30 4347 C 424.499 -1.64926 -1.06273 0
M  V30 4348 O 423.624 -1.16483 -1.82375 0
M  V30 4349 C 424.219 -3.3059 0.741319 0
M  V30 4350 C 422.778 -3.73974 0.426641 0
M  V30 4351 C 421.925 -2.59368 0.980987 0
M  V30 4352 H 424.876 -1.25314 0.973758 0
M  V30 4353 H 424.897 -3.80489 0.028887 0
M  V30 4354 H 424.409 -3.43054 1.81482 0
M  V30 4355 H 422.51 -3.67076 -0.639215 0
M  V30 4356 H 422.623 -4.69778 0.940515 0
M  V30 4357 H 420.987 -2.51463 0.404757 0
M  V30 4358 H 421.77 -2.74621 2.06005 0
M  V30 4359 N 424.215 -0.530993 -1.48385 0
M  V30 4360 C 425.464 0.00474348 -2.01699 0
M  V30 4361 C 425.777 1.35227 -1.41325 0
M  V30 4362 O 426.983 1.97643 -1.86144 0
M  V30 4363 C 425.439 0.0588473 -3.59852 0
M  V30 4364 C 425.047 -1.28385 -4.2921 0
M  V30 4365 C 426.791 0.543358 -4.21008 0
M  V30 4366 C 424.698 -1.19028 -5.79298 0
M  V30 4367 H 423.628 0.00554317 -0.75398 0
M  V30 4368 H 426.279 -0.674924 -1.70637 0
M  V30 4369 H 424.661 0.803612 -3.8776 0
M  V30 4370 H 425.835 -2.04426 -4.12973 0
M  V30 4371 H 424.15 -1.70418 -3.7993 0
M  V30 4372 H 426.747 0.631351 -5.3096 0
M  V30 4373 H 427.09 1.54937 -3.86394 0
M  V30 4374 H 427.623 -0.145754 -3.97533 0
M  V30 4375 H 424.362 -2.17147 -6.18488 0
M  V30 4376 H 423.882 -0.471246 -5.97946 0
M  V30 4377 H 425.561 -0.881365 -6.40969 0
M  V30 4378 N 425.693 1.55336 -0.266172 0
M  V30 4379 C 426.626 2.18256 0.666296 0
M  V30 4380 C 427.604 1.14064 1.1588 0
M  V30 4381 O 428.788 1.42546 1.23341 0
M  V30 4382 C 425.915 2.79867 1.90768 0
M  V30 4383 C 424.961 3.97283 1.55141 0
M  V30 4384 S 425.794 5.31694 0.637313 0
M  V30 4385 C 426.95 5.96769 1.88727 0
M  V30 4386 H 427.183 2.97008 0.131647 0
M  V30 4387 H 424.716 1.54317 -0.0504869 0
M  V30 4388 H 426.674 3.15996 2.62025 0
M  V30 4389 H 425.335 2.01025 2.41346 0
M  V30 4390 H 424.528 4.3905 2.4749 0
M  V30 4391 H 424.13 3.6253 0.919113 0
M  V30 4392 H 426.422 6.15458 2.83227 0
M  V30 4393 H 427.365 6.91752 1.51276 0
M  V30 4394 H 427.773 5.26034 2.04814 0
M  V30 4395 N 427.171 -0.0066808 1.57599 0
M  V30 4396 C 428.081 -1.01671 2.11424 0
M  V30 4397 C 429.097 -1.38143 1.05795 0
M  V30 4398 O 430.273 -1.47011 1.37658 0
M  V30 4399 C 427.338 -2.29192 2.60139 0
M  V30 4400 C 426.399 -1.99094 3.80342 0
M  V30 4401 C 425.632 -3.20535 4.26724 0
M  V30 4402 O 425.855 -4.3199 3.72479 0
M  V30 4403 O 424.789 -3.04924 5.18946 0
M  V30 4404 H 428.615 -0.589181 2.9793 0
M  V30 4405 H 426.2 -0.225091 1.47695 0
M  V30 4406 H 428.082 -3.0412 2.917 0
M  V30 4407 H 426.757 -2.71195 1.76733 0
M  V30 4408 H 425.664 -1.21663 3.53764 0
M  V30 4409 H 426.997 -1.61931 4.648 0
M  V30 4410 N 428.649 -1.55105 -0.279332 0
M  V30 4411 C 429.895 -1.75672 -1.01327 0
M  V30 4412 C 430.228 -0.552739 -1.86168 0
M  V30 4413 O 429.503 0.449827 -1.89227 0
M  V30 4414 C 429.786 -3.05825 -1.90114 0
M  V30 4415 C 429.639 -4.36565 -1.08309 0
M  V30 4416 C 430.958 -3.31975 -2.8893 0
M  V30 4417 H 428.077 -0.639149 -0.366957 0
M  V30 4418 H 430.719 -1.87833 -0.286154 0
M  V30 4419 H 428.869 -2.95588 -2.52111 0
M  V30 4420 H 430.541 -4.58751 -0.484314 0
M  V30 4421 H 428.784 -4.32076 -0.386362 0
M  V30 4422 H 429.455 -5.23946 -1.73737 0
M  V30 4423 H 431.931 -3.41963 -2.37067 0
M  V30 4424 H 430.807 -4.2432 -3.48201 0
M  V30 4425 H 431.068 -2.51309 -3.63725 0
M  V30 4426 N 430.127 0.543554 -1.4793 0
M  V30 4427 C 431.538 1.12561 -1.48953 0
M  V30 4428 C 431.889 1.94578 -0.251754 0
M  V30 4429 O 431.014 2.0665 0.642255 0
M  V30 4430 C 431.609 2.04801 -2.69892 0
M  V30 4431 C 430.168 2.58251 -2.73831 0
M  V30 4432 C 429.315 1.34918 -2.42265 0
M  V30 4433 H 432.266 0.32947 -1.55242 0
M  V30 4434 H 432.287 2.88886 -2.47639 0
M  V30 4435 H 431.799 1.4508 -3.59963 0
M  V30 4436 H 429.9 3.21732 -1.87934 0
M  V30 4437 H 430.013 2.98312 -3.74895 0
M  V30 4438 H 428.377 1.66046 -1.93134 0
M  V30 4439 H 429.16 0.769693 -3.3456 0
M  V30 4440 N 431.605 1.3629 0.791371 0
M  V30 4441 C 432.537 1.26321 1.91248 0
M  V30 4442 C 433.55 0.18313 1.61767 0
M  V30 4443 O 434.739 0.437682 1.73051 0
M  V30 4444 C 431.839 0.925901 3.26007 0
M  V30 4445 C 431.012 2.10746 3.83281 0
M  V30 4446 C 430.071 1.74352 4.96475 0
M  V30 4447 O 429.097 2.46416 5.13096 0
M  V30 4448 N 430.299 0.676058 5.7655 0
M  V30 4449 H 433.064 2.22915 2.00323 0
M  V30 4450 H 430.625 1.29659 0.969546 0
M  V30 4451 H 432.617 0.663636 3.99222 0
M  V30 4452 H 431.187 0.0491581 3.12561 0
M  V30 4453 H 430.407 2.53264 3.02077 0
M  V30 4454 H 431.695 2.8969 4.18279 0
M  V30 4455 H 431.093 0.0776467 5.65647 0
M  V30 4456 H 429.65 0.473612 6.50077 0
M  V30 4457 N 433.083 -1.0153 1.20538 0
M  V30 4458 C 434.046 -2.0826 0.957098 0
M  V30 4459 C 435.046 -1.60657 -0.0678655 0
M  V30 4460 O 436.236 -1.73385 0.168332 0
M  V30 4461 C 433.368 -3.38033 0.441188 0
M  V30 4462 H 434.561 -2.31719 1.90384 0
M  V30 4463 H 432.114 -1.1835 1.02093 0
M  V30 4464 H 432.849 -3.20249 -0.510961 0
M  V30 4465 H 432.634 -3.73911 1.18038 0
M  V30 4466 H 434.124 -4.16613 0.287009 0
M  V30 4467 N 434.561 -1.01147 -1.20859 0
M  V30 4468 C 435.471 -0.58686 -2.27141 0
M  V30 4469 C 436.487 0.373198 -1.69951 0
M  V30 4470 O 437.663 0.235423 -2.00019 0
M  V30 4471 C 434.728 0.0733602 -3.46622 0
M  V30 4472 C 433.789 -0.931995 -4.19061 0
M  V30 4473 C 433.022 -0.303186 -5.32838 0
M  V30 4474 O 433.245 0.898395 -5.63281 0
M  V30 4475 O 432.179 -1.01735 -5.9324 0
M  V30 4476 H 436.005 -1.47155 -2.65667 0
M  V30 4477 H 433.59 -0.780689 -1.2738 0
M  V30 4478 H 435.472 0.442333 -4.19072 0
M  V30 4479 H 434.147 0.932329 -3.09983 0
M  V30 4480 H 433.054 -1.35224 -3.48805 0
M  V30 4481 H 434.387 -1.76076 -4.59628 0
M  V30 4482 N 436.039 1.36541 -0.78704 0
M  V30 4483 C 437.002 2.28413 -0.189778 0
M  V30 4484 C 438.002 1.48719 0.611499 0
M  V30 4485 O 439.192 1.68737 0.432842 0
M  V30 4486 C 436.324 3.32824 0.737638 0
M  V30 4487 H 437.517 2.82743 -0.999831 0
M  V30 4488 H 435.07 1.46065 -0.556298 0
M  V30 4489 H 435.805 2.83646 1.57212 0
M  V30 4490 H 435.59 3.91752 0.165044 0
M  V30 4491 H 437.08 4.0144 1.15047 0
M  V30 4492 N 437.518 0.538854 1.48102 0
M  V30 4493 C 438.448 -0.207654 2.32575 0
M  V30 4494 C 439.429 -0.926559 1.4265 0
M  V30 4495 O 440.614 -0.91061 1.71527 0
M  V30 4496 C 437.744 -1.24957 3.24042 0
M  V30 4497 C 436.698 -0.648263 4.23062 0
M  V30 4498 C 436.024 -1.79348 5.03725 0
M  V30 4499 C 437.324 0.385897 5.20872 0
M  V30 4500 H 439.018 0.497534 2.95237 0
M  V30 4501 H 436.564 0.240715 1.41974 0
M  V30 4502 H 438.517 -1.77983 3.81969 0
M  V30 4503 H 437.241 -1.98446 2.59397 0
M  V30 4504 H 435.9 -0.139452 3.66335 0
M  V30 4505 H 435.548 -2.51696 4.35498 0
M  V30 4506 H 435.248 -1.39702 5.70751 0
M  V30 4507 H 436.772 -2.32735 5.64506 0
M  V30 4508 H 438.186 -0.057607 5.73271 0
M  V30 4509 H 436.583 0.700227 5.96001 0
M  V30 4510 H 437.653 1.28848 4.67468 0
M  V30 4511 N 438.996 -1.55193 0.274407 0
M  V30 4512 C 439.926 -2.25471 -0.607032 0
M  V30 4513 C 440.907 -1.24461 -1.15946 0
M  V30 4514 O 442.092 -1.53179 -1.19373 0
M  V30 4515 C 439.222 -2.97526 -1.79153 0
M  V30 4516 C 438.176 -4.05459 -1.37067 0
M  V30 4517 C 437.502 -4.65084 -2.6382 0
M  V30 4518 C 438.802 -5.19691 -0.521389 0
M  V30 4519 H 440.496 -2.99393 -0.0209343 0
M  V30 4520 H 438.042 -1.43997 -0.00862866 0
M  V30 4521 H 439.995 -3.45402 -2.41404 0
M  V30 4522 H 438.719 -2.21138 -2.40344 0
M  V30 4523 H 437.378 -3.58393 -0.771355 0
M  V30 4524 H 437.026 -3.85365 -3.23268 0
M  V30 4525 H 436.726 -5.37961 -2.36372 0
M  V30 4526 H 438.25 -5.15708 -3.26921 0
M  V30 4527 H 439.664 -5.63623 -1.04889 0
M  V30 4528 H 438.061 -5.99126 -0.341825 0
M  V30 4529 H 439.131 -4.82713 0.46 0
M  V30 4530 N 440.474 -0.00167713 -1.576 0
M  V30 4531 C 441.421 0.989195 -2.08527 0
M  V30 4532 C 442.391 1.34031 -0.981065 0
M  V30 4533 O 443.576 1.43839 -1.2536 0
M  V30 4534 C 440.716 2.27537 -2.59463 0
M  V30 4535 C 439.829 1.98314 -3.83791 0
M  V30 4536 C 438.964 3.21025 -4.23222 0
M  V30 4537 C 438.003 2.87495 -5.40382 0
M  V30 4538 N 437.14 4.02749 -5.75098 0
M  V30 4539 H 441.98 0.547973 -2.92919 0
M  V30 4540 H 439.517 0.258917 -1.44803 0
M  V30 4541 H 441.475 3.02729 -2.87073 0
M  V30 4542 H 440.105 2.69325 -1.77943 0
M  V30 4543 H 439.157 1.13482 -3.63078 0
M  V30 4544 H 440.469 1.69601 -4.69081 0
M  V30 4545 H 439.623 4.04561 -4.52123 0
M  V30 4546 H 438.362 3.52877 -3.36644 0
M  V30 4547 H 437.367 2.02367 -5.11202 0
M  V30 4548 H 438.592 2.56889 -6.28637 0
M  V30 4549 H 436.538 4.34494 -4.91478 0
M  V30 4550 H 436.455 3.77566 -6.54966 0
M  V30 4551 H 437.723 4.87068 -6.08592 0
M  V30 4552 N 441.952 1.55251 0.271103 0
M  V30 4553 C 442.899 1.88261 1.33516 0
M  V30 4554 C 443.869 0.734296 1.48988 0
M  V30 4555 O 445.054 0.985741 1.63364 0
M  V30 4556 C 442.194 2.16168 2.69008 0
M  V30 4557 C 441.307 3.43678 2.61743 0
M  V30 4558 C 440.442 3.61276 3.89427 0
M  V30 4559 C 439.481 4.82472 3.7668 0
M  V30 4560 N 438.618 4.96717 4.96202 0
M  V30 4561 H 443.458 2.79015 1.04665 0
M  V30 4562 H 440.995 1.38137 0.505618 0
M  V30 4563 H 442.953 2.30349 3.47844 0
M  V30 4564 H 441.583 1.28646 2.96057 0
M  V30 4565 H 440.635 3.37959 1.74607 0
M  V30 4566 H 441.947 4.3265 2.48224 0
M  V30 4567 H 441.101 3.75284 4.76704 0
M  V30 4568 H 439.84 2.70492 4.05814 0
M  V30 4569 H 438.845 4.68465 2.87786 0
M  V30 4570 H 440.07 5.74692 3.61809 0
M  V30 4571 H 438.016 4.08865 5.12997 0
M  V30 4572 H 437.933 5.79738 4.85222 0
M  V30 4573 H 439.201 5.15113 5.85046 0
M  V30 4574 N 443.43 -0.535701 1.48216 0
M  V30 4575 C 444.362 -1.65662 1.58394 0
M  V30 4576 C 445.375 -1.5591 0.468607 0
M  V30 4577 O 446.564 -1.62475 0.7392 0
M  V30 4578 C 443.664 -3.04276 1.4923 0
M  V30 4579 C 442.837 -3.39567 2.75705 0
M  V30 4580 C 441.896 -4.57436 2.60075 0
M  V30 4581 O 440.922 -4.60942 3.33948 0
M  V30 4582 N 442.124 -5.55259 1.69315 0
M  V30 4583 H 444.889 -1.5737 2.55058 0
M  V30 4584 H 442.45 -0.722845 1.44867 0
M  V30 4585 H 444.442 -3.80994 1.36477 0
M  V30 4586 H 443.012 -3.06677 0.605632 0
M  V30 4587 H 442.232 -2.52083 3.03064 0
M  V30 4588 H 443.52 -3.59929 3.59623 0
M  V30 4589 H 442.918 -5.552 1.08489 0
M  V30 4590 H 441.475 -6.31218 1.62504 0
M  V30 4591 N 444.908 -1.36708 -0.784132 0
M  V30 4592 C 445.84 -1.27333 -1.90575 0
M  V30 4593 C 446.853 -0.191706 -1.61667 0
M  V30 4594 O 448.042 -0.446854 -1.72816 0
M  V30 4595 C 445.142 -0.943177 -3.25511 0
M  V30 4596 C 444.315 -2.12776 -3.82158 0
M  V30 4597 C 443.374 -1.76983 -4.95544 0
M  V30 4598 O 442.4 -2.49134 -5.11782 0
M  V30 4599 N 443.602 -0.706624 -5.76183 0
M  V30 4600 H 446.367 -2.23974 -1.99138 0
M  V30 4601 H 443.928 -1.30171 -0.962656 0
M  V30 4602 H 445.92 -0.684799 -3.98864 0
M  V30 4603 H 444.49 -0.0657333 -3.12531 0
M  V30 4604 H 443.71 -2.54863 -3.0073 0
M  V30 4605 H 444.998 -2.91904 -4.16737 0
M  V30 4606 H 444.396 -0.107643 -5.65598 0
M  V30 4607 H 442.953 -0.50808 -6.49817 0
M  V30 4608 N 446.386 1.0089 -1.21074 0
M  V30 4609 C 447.633 1.74607 -1.0256 0
M  V30 4610 C 447.961 1.89426 0.44136 0
M  V30 4611 O 447.216 1.42266 1.34384 0
M  V30 4612 C 447.515 3.16335 -1.66334 0
M  V30 4613 C 447.181 3.21474 -3.16173 0
M  V30 4614 C 445.843 3.22583 -3.57062 0
M  V30 4615 C 448.195 3.19025 -4.12156 0
M  V30 4616 C 445.523 3.18925 -4.92446 0
M  V30 4617 C 447.875 3.16909 -5.47496 0
M  V30 4618 C 446.539 3.16326 -5.87787 0
M  V30 4619 H 445.809 0.638933 -0.375294 0
M  V30 4620 H 448.456 1.18274 -1.50611 0
M  V30 4621 H 446.761 3.75876 -1.10566 0
M  V30 4622 H 448.458 3.72083 -1.49516 0
M  V30 4623 H 445.048 3.2135 -2.83605 0
M  V30 4624 H 449.232 3.17332 -3.81595 0
M  V30 4625 H 444.488 3.16809 -5.22917 0
M  V30 4626 H 448.662 3.13968 -6.21609 0
M  V30 4627 H 446.289 3.13246 -6.92662 0
M  V30 4628 N 447.864 1.01787 1.20321 0
M  V30 4629 C 449.089 0.727009 1.9424 0
M  V30 4630 C 449.514 -0.706179 1.74341 0
M  V30 4631 O 448.872 -1.48609 1.03852 0
M  V30 4632 C 448.92 1.06958 3.44372 0
M  V30 4633 O 448.024 0.181983 4.11998 0
M  V30 4634 H 447.365 0.269626 0.606793 0
M  V30 4635 H 449.895 1.36158 1.52716 0
M  V30 4636 H 449.905 1.02182 3.94997 0
M  V30 4637 H 448.58 2.11378 3.58179 0
M  V30 4638 H 447.157 0.287378 3.71791 0
M  V30 4639 N 449.342 -1.36122 0.79427 0
M  V30 4640 C 450.572 -2.03067 0.380437 0
M  V30 4641 C 450.98 -1.60018 -1.00949 0
M  V30 4642 O 450.323 -0.787425 -1.65968 0
M  V30 4643 C 450.385 -3.57587 0.37034 0
M  V30 4644 C 450.049 -4.23855 1.70867 0
M  V30 4645 C 451.046 -4.46404 2.66496 0
M  V30 4646 C 448.731 -4.61229 1.9893 0
M  V30 4647 C 450.725 -5.05412 3.88378 0
M  V30 4648 C 448.412 -5.19953 3.21079 0
M  V30 4649 C 449.41 -5.41985 4.15621 0
M  V30 4650 O 449.098 -5.99475 5.35616 0
M  V30 4651 H 448.83 -0.658168 0.154243 0
M  V30 4652 H 451.384 -1.7498 1.0757 0
M  V30 4653 H 449.614 -3.84814 -0.381444 0
M  V30 4654 H 451.303 -4.05895 -0.0194894 0
M  V30 4655 H 452.069 -4.17921 2.46103 0
M  V30 4656 H 447.948 -4.43402 1.26158 0
M  V30 4657 H 451.492 -5.22524 4.62185 0
M  V30 4658 H 447.389 -5.47862 3.41347 0
M  V30 4659 H 448.157 -6.17937 5.36745 0
M  V30 4660 N 450.82 -0.546701 -1.47814 0
M  V30 4661 C 452.045 -0.021268 -2.07389 0
M  V30 4662 C 452.47 1.25822 -1.39822 0
M  V30 4663 O 451.828 1.75111 -0.46968 0
M  V30 4664 C 451.876 0.168502 -3.60206 0
M  V30 4665 O 450.98 1.23347 -3.93522 0
M  V30 4666 H 450.321 -0.0466108 -0.662362 0
M  V30 4667 H 452.851 -0.759387 -1.89985 0
M  V30 4668 H 452.861 0.385982 -4.0617 0
M  V30 4669 H 451.536 -0.766075 -4.08784 0
M  V30 4670 H 450.113 0.997319 -3.59316 0
M  V30 4671 N 452.299 1.55045 -0.282633 0
M  V30 4672 C 453.209 2.26491 0.61147 0
M  V30 4673 C 454.225 1.29348 1.16384 0
M  V30 4674 O 455.401 1.62298 1.19253 0
M  V30 4675 C 452.466 2.97779 1.77563 0
M  V30 4676 C 451.527 4.10418 1.25919 0
M  V30 4677 C 450.76 4.78297 2.36786 0
M  V30 4678 O 450.983 4.45426 3.56303 0
M  V30 4679 O 449.917 5.66089 2.04517 0
M  V30 4680 H 453.743 3.03683 0.0324615 0
M  V30 4681 H 451.328 1.49317 -0.0497576 0
M  V30 4682 H 453.21 3.42554 2.45427 0
M  V30 4683 H 451.885 2.23498 2.34159 0
M  V30 4684 H 450.792 3.70082 0.546797 0
M  V30 4685 H 452.125 4.86622 0.738887 0
M  V30 4686 N 453.777 0.010035 1.57597 0
M  V30 4687 C 454.707 -0.976857 2.12084 0
M  V30 4688 C 455.688 -1.35191 1.03235 0
M  V30 4689 O 456.873 -1.43389 1.3097 0
M  V30 4690 C 454.003 -2.26548 2.63236 0
M  V30 4691 C 452.957 -2.03175 3.76701 0
M  V30 4692 C 452.283 -3.38138 4.14206 0
M  V30 4693 C 453.583 -1.38625 5.03568 0
M  V30 4694 H 455.277 -0.523145 2.94794 0
M  V30 4695 H 452.823 -0.250195 1.4181 0
M  V30 4696 H 454.776 -2.95952 2.99984 0
M  V30 4697 H 453.5 -2.74051 1.77661 0
M  V30 4698 H 452.159 -1.36195 3.40362 0
M  V30 4699 H 451.807 -3.83363 3.25641 0
M  V30 4700 H 451.507 -3.23312 4.90656 0
M  V30 4701 H 453.031 -4.08841 4.53521 0
M  V30 4702 H 454.445 -1.98 5.38023 0
M  V30 4703 H 452.842 -1.34256 5.84889 0
M  V30 4704 H 453.912 -0.356722 4.83586 0
M  V30 4705 N 455.255 -1.55392 -0.262866 0
M  V30 4706 C 456.202 -1.88966 -1.32516 0
M  V30 4707 C 457.172 -0.742187 -1.48596 0
M  V30 4708 O 458.357 -0.99439 -1.62839 0
M  V30 4709 C 455.497 -2.17592 -2.67858 0
M  V30 4710 C 454.61 -3.45061 -2.59917 0
M  V30 4711 C 453.745 -3.63336 -3.87505 0
M  V30 4712 C 452.784 -4.84462 -3.74116 0
M  V30 4713 N 451.921 -4.99342 -4.93561 0
M  V30 4714 H 456.761 -2.79566 -1.03184 0
M  V30 4715 H 454.298 -1.38404 -0.498285 0
M  V30 4716 H 456.256 -2.3219 -3.46617 0
M  V30 4717 H 454.886 -1.30215 -2.95371 0
M  V30 4718 H 453.938 -3.38881 -1.72812 0
M  V30 4719 H 455.25 -4.3396 -2.45926 0
M  V30 4720 H 454.404 -3.77807 -4.74707 0
M  V30 4721 H 453.143 -2.72641 -4.04374 0
M  V30 4722 H 452.148 -4.69985 -2.85297 0
M  V30 4723 H 453.373 -5.76603 -3.58757 0
M  V30 4724 H 451.319 -4.1158 -5.10821 0
M  V30 4725 H 451.236 -5.82303 -4.82141 0
M  V30 4726 H 452.504 -5.18208 -5.82306 0
M  V30 4727 N 456.733 0.527833 -1.48498 0
M  V30 4728 C 458.149 0.856571 -1.34666 0
M  V30 4729 C 458.349 1.98271 -0.35931 0
M  V30 4730 O 457.405 2.51551 0.218703 0
M  V30 4731 C 458.718 1.22207 -2.74747 0
M  V30 4732 C 460.266 1.33183 -2.83251 0
M  V30 4733 C 460.741 1.73075 -4.24039 0
M  V30 4734 N 462.232 1.80174 -4.26722 0
M  V30 4735 C 462.967 2.1243 -5.32598 0
M  V30 4736 N 462.463 2.43096 -6.4875 0
M  V30 4737 N 464.256 2.13454 -5.19994 0
M  V30 4738 H 456.407 -0.215174 -2.11307 0
M  V30 4739 H 458.67 -0.0336281 -0.947403 0
M  V30 4740 H 458.376 0.468195 -3.4857 0
M  V30 4741 H 458.25 2.17173 -3.08409 0
M  V30 4742 H 460.637 2.07647 -2.09683 0
M  V30 4743 H 460.718 0.363333 -2.53206 0
M  V30 4744 H 460.362 0.991712 -4.98124 0
M  V30 4745 H 460.292 2.70979 -4.51529 0
M  V30 4746 H 462.783 1.58744 -3.42942 0
M  V30 4747 H 463.096 2.6682 -7.25277 0
M  V30 4748 H 461.441 2.40611 -6.52021 0
M  V30 4749 H 464.632 1.88956 -4.28268 0
M  V30 4750 H 464.805 2.38261 -6.02608 0
M  V30 4751 N 458.211 1.37122 0.776871 0
M  V30 4752 C 459.141 1.35164 1.90402 0
M  V30 4753 C 460.122 0.221069 1.68657 0
M  V30 4754 O 461.307 0.420642 1.8959 0
M  V30 4755 C 458.437 1.15274 3.27611 0
M  V30 4756 C 457.391 2.25289 3.63908 0
M  V30 4757 C 456.717 1.90527 4.99603 0
M  V30 4758 C 458.017 3.67446 3.71188 0
M  V30 4759 H 459.711 2.29482 1.92297 0
M  V30 4760 H 457.257 1.10465 0.923773 0
M  V30 4761 H 459.21 1.12536 4.06096 0
M  V30 4762 H 457.934 0.174102 3.26136 0
M  V30 4763 H 456.593 2.27174 2.87728 0
M  V30 4764 H 456.241 0.91206 4.94662 0
M  V30 4765 H 455.941 2.64193 5.24858 0
M  V30 4766 H 457.465 1.89367 5.80493 0
M  V30 4767 H 458.879 3.67719 4.39836 0
M  V30 4768 H 457.276 4.40123 4.07936 0
M  V30 4769 H 458.346 4.01443 2.71977 0
M  V30 4770 N 459.689 -1.00246 1.21608 0
M  V30 4771 C 460.599 -2.12515 0.993709 0
M  V30 4772 C 461.615 -1.73913 -0.0549939 0
M  V30 4773 O 462.791 -2.00943 0.135619 0
M  V30 4774 C 459.856 -3.42083 0.563953 0
M  V30 4775 C 458.917 -3.94843 1.68516 0
M  V30 4776 C 458.15 -5.18226 1.27582 0
M  V30 4777 O 458.373 -5.70201 0.150506 0
M  V30 4778 O 457.307 -5.64497 2.0887 0
M  V30 4779 H 461.133 -2.34152 1.93407 0
M  V30 4780 H 458.718 -1.10891 1.00118 0
M  V30 4781 H 460.6 -4.20073 0.334194 0
M  V30 4782 H 459.275 -3.21828 -0.347665 0
M  V30 4783 H 458.182 -3.18068 1.96935 0
M  V30 4784 H 459.515 -4.19512 2.5743 0
M  V30 4785 N 461.167 -1.02423 -1.1978 0
M  V30 4786 C 462.583 -0.740459 -1.41384 0
M  V30 4787 C 462.783 0.676827 -1.89793 0
M  V30 4788 O 461.839 1.4435 -2.0717 0
M  V30 4789 C 463.152 -1.77264 -2.42895 0
M  V30 4790 C 464.7 -1.79165 -2.56649 0
M  V30 4791 C 465.175 -2.8133 -3.6141 0
M  V30 4792 N 466.666 -2.80118 -3.68901 0
M  V30 4793 C 467.401 -3.55824 -4.49641 0
M  V30 4794 N 466.897 -4.41231 -5.34123 0
M  V30 4795 N 468.69 -3.44387 -4.44246 0
M  V30 4796 H 460.841 -1.9391 -0.866764 0
M  V30 4797 H 463.104 -0.838074 -0.443098 0
M  V30 4798 H 462.81 -2.7884 -2.14339 0
M  V30 4799 H 462.684 -1.59108 -3.42001 0
M  V30 4800 H 465.071 -0.782702 -2.84531 0
M  V30 4801 H 465.152 -2.01396 -1.57713 0
M  V30 4802 H 464.796 -3.82394 -3.34271 0
M  V30 4803 H 464.726 -2.56359 -4.59986 0
M  V30 4804 H 467.217 -2.1817 -3.08562 0
M  V30 4805 H 467.53 -4.95747 -5.92836 0
M  V30 4806 H 465.875 -4.45306 -5.33599 0
M  V30 4807 H 469.066 -2.7708 -3.77285 0
M  V30 4808 H 469.239 -4.0364 -5.06931 0
M  V30 4809 N 462.645 1.35699 -0.801477 0
M  V30 4810 C 463.891 1.99643 -0.389135 0
M  V30 4811 C 464.246 1.62447 1.03095 0
M  V30 4812 O 463.539 0.875064 1.7045 0
M  V30 4813 C 463.733 3.53828 -0.504041 0
M  V30 4814 C 463.562 4.06 -1.93375 0
M  V30 4815 C 462.332 4.35592 -2.561 0
M  V30 4816 C 464.53 4.24905 -2.89759 0
M  V30 4817 N 462.512 4.73663 -3.90534 0
M  V30 4818 C 463.883 4.65914 -4.09052 0
M  V30 4819 C 465.938 4.07101 -2.86658 0
M  V30 4820 C 464.641 4.90984 -5.25669 0
M  V30 4821 C 466.667 4.33324 -4.02472 0
M  V30 4822 C 466.029 4.74601 -5.20512 0
M  V30 4823 H 462.128 0.758552 -0.19006 0
M  V30 4824 H 464.712 1.64493 -1.04164 0
M  V30 4825 H 462.883 3.88219 0.118437 0
M  V30 4826 H 464.615 4.04645 -0.0667794 0
M  V30 4827 H 461.37 4.25728 -2.07492 0
M  V30 4828 H 461.794 4.96965 -4.59734 0
M  V30 4829 H 466.436 3.74335 -1.96552 0
M  V30 4830 H 464.154 5.22626 -6.1635 0
M  V30 4831 H 467.74 4.21107 -4.01447 0
M  V30 4832 H 466.62 4.94497 -6.08639 0
M  V30 4833 N 464.123 0.554532 1.47522 0
M  V30 4834 C 465.055 -0.232106 2.28022 0
M  V30 4835 C 466.068 -0.881865 1.36847 0
M  V30 4836 O 467.257 -0.756168 1.61692 0
M  V30 4837 C 464.357 -1.34604 3.11022 0
M  V30 4838 C 463.53 -0.793582 4.30141 0
M  V30 4839 C 462.589 -1.79168 4.94758 0
M  V30 4840 O 461.615 -1.33886 5.5323 0
M  V30 4841 N 462.817 -3.12495 4.89211 0
M  V30 4842 H 465.582 0.458407 2.96173 0
M  V30 4843 H 463.143 0.390433 1.57122 0
M  V30 4844 H 465.135 -2.01243 3.51118 0
M  V30 4845 H 463.705 -1.93983 2.45131 0
M  V30 4846 H 462.925 0.0495025 3.94169 0
M  V30 4847 H 464.213 -0.403776 5.07195 0
M  V30 4848 H 463.611 -3.51931 4.42901 0
M  V30 4849 H 462.168 -3.74698 5.33333 0
M  V30 4850 N 465.601 -1.54893 0.290851 0
M  V30 4851 C 466.533 -2.20564 -0.623236 0
M  V30 4852 C 467.546 -1.19519 -1.1054 0
M  V30 4853 O 468.735 -1.46165 -1.02459 0
M  V30 4854 C 465.835 -2.83033 -1.86401 0
M  V30 4855 C 465.008 -4.09916 -1.52604 0
M  V30 4856 C 464.067 -4.56284 -2.62091 0
M  V30 4857 O 463.093 -5.2171 -2.27612 0
M  V30 4858 N 464.295 -4.27746 -3.92446 0
M  V30 4859 H 467.06 -2.99638 -0.0610915 0
M  V30 4860 H 464.621 -1.61508 0.112615 0
M  V30 4861 H 466.613 -3.1099 -2.58973 0
M  V30 4862 H 465.183 -2.0786 -2.33481 0
M  V30 4863 H 464.403 -3.89078 -0.633424 0
M  V30 4864 H 465.691 -4.92554 -1.27547 0
M  V30 4865 H 465.089 -3.7531 -4.23272 0
M  V30 4866 H 463.646 -4.60437 -4.61347 0
M  V30 4867 N 467.08 -0.0183926 -1.57589 0
M  V30 4868 C 468.043 0.951986 -2.08494 0
M  V30 4869 C 469.043 1.26092 -0.997874 0
M  V30 4870 O 470.233 1.20304 -1.25987 0
M  V30 4871 C 467.365 2.27165 -2.54182 0
M  V30 4872 H 468.558 0.511307 -2.95509 0
M  V30 4873 H 466.111 0.229444 -1.54607 0
M  V30 4874 H 466.846 2.75884 -1.70465 0
M  V30 4875 H 466.631 2.06057 -3.33591 0
M  V30 4876 H 468.121 2.9674 -2.93828 0
M  V30 4877 N 468.558 1.5553 0.254621 0
M  V30 4878 C 469.783 1.81383 1.00573 0
M  V30 4879 C 470.208 0.594419 1.78461 0
M  V30 4880 O 469.566 -0.456403 1.75461 0
M  V30 4881 C 469.614 3.04892 1.92545 0
M  V30 4882 O 468.718 2.81266 3.01601 0
M  V30 4883 H 468.059 0.598969 0.286587 0
M  V30 4884 H 470.589 2.02703 0.277952 0
M  V30 4885 H 470.599 3.34119 2.34155 0
M  V30 4886 H 469.274 3.93287 1.3527 0
M  V30 4887 H 467.851 2.63185 2.64174 0
M  V30 4888 N 470.036 -0.519951 1.48776 0
M  V30 4889 C 470.999 -1.60574 1.6355 0
M  V30 4890 C 471.999 -1.52557 0.508234 0
M  V30 4891 O 473.189 -1.56047 0.774262 0
M  V30 4892 C 470.321 -3.00211 1.61512 0
M  V30 4893 H 471.514 -1.4881 2.60376 0
M  V30 4894 H 469.067 -0.742772 1.37523 0
M  V30 4895 H 469.802 -3.17471 0.662009 0
M  V30 4896 H 469.587 -3.07439 2.43359 0
M  V30 4897 H 471.077 -3.79134 1.75064 0
M  V30 4898 N 471.514 -1.37532 -0.769588 0
M  V30 4899 C 472.462 -1.33561 -1.90432 0
M  V30 4900 C 473.456 -0.224027 -1.67912 0
M  V30 4901 O 474.662 -0.392174 -1.75676 0
M  V30 4902 H 471.037 -0.416279 -0.626271 0
M  V30 4903 H 473.008 -2.29348 -1.90899 0
M  V30 4904 C 471.757 -1.16162 -3.27722 0
M  V30 4905 H 471.08 -2.00951 -3.45628 0
M  V30 4906 H 472.52 -1.17434 -4.07413 0
M  V30 4907 C 470.979 0.132583 -3.36639 0
M  V30 4908 O 471.509 1.11539 -3.85904 0
M  V30 4909 N 469.715 0.184013 -2.90017 0
M  V30 4910 H 469.262 -0.616415 -2.50116 0
M  V30 4911 H 469.22 1.04956 -2.96364 0
M  V30 4912 N 472.992 0.995999 -1.22138 0
M  V30 4913 C 473.925 2.08302 -0.931952 0
M  V30 4914 C 474.903 1.62127 0.123956 0
M  V30 4915 O 476.087 1.88499 -0.00696004 0
M  V30 4916 C 473.214 3.36317 -0.401068 0
M  V30 4917 C 472.26 4.01413 -1.44117 0
M  V30 4918 S 473.093 4.42664 -3.01345 0
M  V30 4919 C 474.249 5.73853 -2.49887 0
M  V30 4920 H 474.482 2.32532 -1.85246 0
M  V30 4921 H 472.015 1.13005 -1.0521 0
M  V30 4922 H 473.973 4.10375 -0.101352 0
M  V30 4923 H 472.634 3.10123 0.498272 0
M  V30 4924 H 471.827 4.9358 -1.01952 0
M  V30 4925 H 471.429 3.33668 -1.68943 0
M  V30 4926 H 473.721 6.50039 -1.90934 0
M  V30 4927 H 474.664 6.20841 -3.40532 0
M  V30 4928 H 475.072 5.31105 -1.9128 0
M  V30 4929 N 474.47 1.03057 1.19235 0
M  V30 4930 C 475.402 0.570932 2.21975 0
M  V30 4931 C 476.415 -0.354088 1.58903 0
M  V30 4932 O 477.604 -0.150211 1.77867 0
M  V30 4933 C 474.704 -0.187152 3.38383 0
M  V30 4934 C 473.877 0.743231 4.31039 0
M  V30 4935 C 472.936 0.0302493 5.26191 0
M  V30 4936 O 471.962 0.657371 5.65391 0
M  V30 4937 N 473.164 -1.23991 5.67104 0
M  V30 4938 H 475.929 1.45456 2.62036 0
M  V30 4939 H 473.49 0.909807 1.33918 0
M  V30 4940 H 475.482 -0.673715 3.99053 0
M  V30 4941 H 474.052 -0.972205 2.97098 0
M  V30 4942 H 473.272 1.40985 3.68126 0
M  V30 4943 H 474.56 1.3755 4.89854 0
M  V30 4944 H 473.958 -1.77011 5.37293 0
M  V30 4945 H 472.515 -1.67093 6.30018 0
M  V30 4946 N 475.948 -1.35272 0.808662 0
M  V30 4947 C 477.364 -1.51806 0.492653 0
M  V30 4948 C 477.564 -1.7574 -0.985778 0
M  V30 4949 O 476.62 -1.80003 -1.77074 0
M  V30 4950 C 477.933 -2.69202 1.33981 0
M  V30 4951 C 479.481 -2.8308 1.33547 0
M  V30 4952 C 479.956 -4.03502 2.16679 0
M  V30 4953 N 481.447 -4.10684 2.14227 0
M  V30 4954 C 482.182 -5.02984 2.75308 0
M  V30 4955 N 481.678 -6.00603 3.45323 0
M  V30 4956 N 483.471 -4.95746 2.64938 0
M  V30 4957 H 475.622 -1.17993 1.76611 0
M  V30 4958 H 477.885 -0.577476 0.751814 0
M  V30 4959 H 477.591 -2.581 2.38909 0
M  V30 4960 H 477.465 -3.63854 0.994491 0
M  V30 4961 H 479.852 -2.93631 0.294036 0
M  V30 4962 H 479.933 -1.89278 1.72068 0
M  V30 4963 H 479.577 -3.93711 3.20864 0
M  V30 4964 H 479.507 -4.96489 1.75517 0
M  V30 4965 H 481.998 -3.40802 1.63285 0
M  V30 4966 H 482.311 -6.67633 3.89212 0
M  V30 4967 H 480.656 -6.0077 3.49428 0
M  V30 4968 H 483.847 -4.18439 2.09825 0
M  V30 4969 H 484.02 -5.67487 3.12829 0
M  V30 4970 N 477.426 -0.562348 -1.47226 0
M  V30 4971 C 478.356 0.170627 -2.32876 0
M  V30 4972 C 479.337 0.903748 -1.44106 0
M  V30 4973 O 480.522 0.883206 -1.72954 0
M  V30 4974 C 477.652 1.19786 -3.25989 0
M  V30 4975 C 476.606 0.580875 -4.2404 0
M  V30 4976 C 475.932 1.71311 -5.06514 0
M  V30 4977 C 477.232 -0.468714 -5.20193 0
M  V30 4978 H 478.926 -0.544441 -2.94408 0
M  V30 4979 H 476.472 -0.263271 -1.41573 0
M  V30 4980 H 478.425 1.71884 -3.84752 0
M  V30 4981 H 477.149 1.94294 -2.62521 0
M  V30 4982 H 475.808 0.0811538 -3.6651 0
M  V30 4983 H 475.456 2.44736 -4.39447 0
M  V30 4984 H 475.156 1.30604 -5.72902 0
M  V30 4985 H 476.68 2.23725 -5.68137 0
M  V30 4986 H 478.094 -0.0336028 -5.7329 0
M  V30 4987 H 476.491 -0.794957 -5.94811 0
M  V30 4988 H 477.561 -1.36269 -4.65359 0
M  V30 4989 N 478.904 1.54736 -0.299062 0
M  V30 4990 C 480.153 1.99279 0.311549 0
M  V30 4991 C 480.466 1.19107 1.55154 0
M  V30 4992 O 481.672 1.53908 2.23662 0
M  V30 4993 C 480.128 3.54768 0.605632 0
M  V30 4994 C 479.736 4.43746 -0.615914 0
M  V30 4995 C 481.48 4.07841 1.17754 0
M  V30 4996 C 479.387 5.90663 -0.29509 0
M  V30 4997 H 478.317 0.744359 0.120187 0
M  V30 4998 H 480.968 1.78919 -0.407464 0
M  V30 4999 H 479.35 3.71021 1.38419 0
M  V30 5000 H 480.524 4.39267 -1.39218 0
M  V30 5001 H 478.839 4.01434 -1.10633 0
M  V30 5002 H 481.436 5.15174 1.43179 0
M  V30 5003 H 481.779 3.58324 2.11918 0
M  V30 5004 H 482.312 3.95123 0.460739 0
M  V30 5005 H 479.051 6.44325 -1.20524 0
M  V30 5006 H 478.571 5.98155 0.44394 0
M  V30 5007 H 480.25 6.46916 0.104048 0
M  V30 5008 N 480.382 0.0267497 1.57577 0
M  V30 5009 C 481.292 -0.971633 2.13533 0
M  V30 5010 C 482.308 -1.35868 1.08701 0
M  V30 5011 O 483.484 -1.44058 1.40746 0
M  V30 5012 C 480.549 -2.23622 2.64941 0
M  V30 5013 C 479.61 -1.90982 3.8448 0
M  V30 5014 C 478.843 -3.11411 4.33427 0
M  V30 5015 O 479.066 -4.23992 3.81558 0
M  V30 5016 O 478 -2.93848 5.25297 0
M  V30 5017 H 481.826 -0.525853 2.99113 0
M  V30 5018 H 479.411 -0.193712 1.48139 0
M  V30 5019 H 481.293 -2.97864 2.98086 0
M  V30 5020 H 479.968 -2.67386 1.82446 0
M  V30 5021 H 478.875 -1.14132 3.56265 0
M  V30 5022 H 480.208 -1.52036 4.6813 0
M  V30 5023 N 481.861 -1.55662 -0.24637 0
M  V30 5024 C 482.793 -1.86811 -1.32794 0
M  V30 5025 C 483.806 -0.754413 -1.44265 0
M  V30 5026 O 484.995 -1.03253 -1.45606 0
M  V30 5027 C 482.095 -2.0397 -2.70646 0
M  V30 5028 C 481.268 -3.34832 -2.81436 0
M  V30 5029 C 480.327 -3.41727 -4.00136 0
M  V30 5030 O 479.353 -4.14934 -3.89639 0
M  V30 5031 N 480.555 -2.71058 -5.1333 0
M  V30 5032 H 483.32 -2.80174 -1.06409 0
M  V30 5033 H 480.881 -1.55906 -0.43647 0
M  V30 5034 H 482.873 -2.05924 -3.48393 0
M  V30 5035 H 481.443 -1.1735 -2.89738 0
M  V30 5036 H 480.663 -3.4519 -1.90361 0
M  V30 5037 H 481.951 -4.21085 -2.85595 0
M  V30 5038 H 481.349 -2.11314 -5.2475 0
M  V30 5039 H 479.906 -2.78704 -5.89209 0
M  V30 5040 N 483.339 0.512053 -1.4905 0
M  V30 5041 C 484.586 1.26686 -1.57978 0
M  V30 5042 C 484.914 1.92733 -0.261553 0
M  V30 5043 O 484.169 1.80772 0.749667 0
M  V30 5044 C 484.468 2.36446 -2.68008 0
M  V30 5045 C 484.134 1.87932 -4.09869 0
M  V30 5046 C 482.796 1.74419 -4.48477 0
M  V30 5047 C 485.148 1.5149 -4.98698 0
M  V30 5048 C 482.476 1.22827 -5.73699 0
M  V30 5049 C 484.828 1.01355 -6.24428 0
M  V30 5050 C 483.492 0.864735 -6.61875 0
M  V30 5051 H 482.762 0.463577 -0.578081 0
M  V30 5052 H 485.409 0.569421 -1.82838 0
M  V30 5053 H 483.714 3.11933 -2.37076 0
M  V30 5054 H 485.411 2.9453 -2.72127 0
M  V30 5055 H 482.001 1.99405 -3.79389 0
M  V30 5056 H 486.185 1.60782 -4.69535 0
M  V30 5057 H 481.441 1.10008 -6.01422 0
M  V30 5058 H 485.615 0.722351 -6.92644 0
M  V30 5059 H 483.242 0.462777 -7.5879 0
M  V30 5060 N 484.817 1.37938 0.762283 0
M  V30 5061 C 486.042 1.37059 1.55659 0
M  V30 5062 C 486.467 -0.0396123 1.88058 0
M  V30 5063 O 485.825 -1.01929 1.49934 0
M  V30 5064 C 485.873 2.22494 2.83776 0
M  V30 5065 O 484.977 1.63607 3.78559 0
M  V30 5066 H 484.318 0.467892 0.47114 0
M  V30 5067 H 486.848 1.81587 0.942725 0
M  V30 5068 H 486.858 2.36045 3.32786 0
M  V30 5069 H 485.533 3.24993 2.59524 0
M  V30 5070 H 484.11 1.5915 3.37233 0
M  V30 5071 N 486.295 -0.989507 1.22664 0
M  V30 5072 C 487.205 -2.11449 1.01619 0
M  V30 5073 C 488.221 -1.73962 -0.036545 0
M  V30 5074 O 489.397 -2.00788 0.156924 0
M  V30 5075 C 486.462 -3.41465 0.600204 0
M  V30 5076 C 485.523 -3.93033 1.72695 0
M  V30 5077 C 484.756 -5.16844 1.33071 0
M  V30 5078 O 484.979 -5.7001 0.210975 0
M  V30 5079 O 483.913 -5.6225 2.14845 0
M  V30 5080 H 487.739 -2.32088 1.9588 0
M  V30 5081 H 485.324 -1.09823 1.01289 0
M  V30 5082 H 487.206 -4.19695 0.37873 0
M  V30 5083 H 485.881 -3.22178 -0.313511 0
M  V30 5084 H 484.788 -3.15961 2.00298 0
M  V30 5085 H 486.121 -4.16758 2.61865 0
M  V30 5086 O 487.812 -1.16279 -1.12078 0
M  V30 5087 H 488.503 -0.894109 -1.7183 0
M  V30 END ATOM
M  V30 BEGIN BOND
M  V30 END BOND
M  V30 END CTAB
M  END
$$$$
