drugbank_drug|DB00075 Muromonab-CD3 heavy chain
 OpenBabel12092119113D

  0  0  0     0  0            999 V3000
M  V30 BEGIN CTAB
M  V30 COUNTS 6928 7026 0 0 0
M  V30 BEGIN ATOM
M  V30 1 H -0.908 1.98254 -0.117106 0
M  V30 2 N 0 1.576 0 0
M  V30 3 C 0.932 2.05273 1.01958 0
M  V30 4 C 1.945 0.970662 1.30698 0
M  V30 5 O 3.134 1.24746 1.27674 0
M  V30 6 C 0.234 2.43771 2.35433 0
M  V30 7 C -0.593 3.74711 2.25633 0
M  V30 8 C -1.534 4.00077 3.41796 0
M  V30 9 O -2.508 4.70743 3.19984 0
M  V30 10 N -1.306 3.47973 4.64645 0
M  V30 11 H 1.459 2.93363 0.613025 0
M  V30 12 H -0.98 1.60812 0.187383 0
M  V30 13 H 1.012 2.57855 3.11918 0
M  V30 14 H -0.418 1.612 2.67831 0
M  V30 15 H -1.198 3.70705 1.34059 0
M  V30 16 H 0.09 4.60554 2.16258 0
M  V30 17 H -0.512 2.90748 4.85265 0
M  V30 18 H -1.955 3.67386 5.38396 0
M  V30 19 N 1.4781 -0.272755 1.55222 0
M  V30 20 C 2.7241 -1.00581 1.761 0
M  V30 21 C 3.0571 -1.85932 0.560625 0
M  V30 22 O 2.3321 -1.89416 -0.441801 0
M  V30 23 C 2.6151 -1.88816 3.06628 0
M  V30 24 C 2.4681 -1.06457 4.37021 0
M  V30 25 C 3.7871 -2.8752 3.33197 0
M  V30 26 H 0.9061 -0.364244 0.640699 0
M  V30 27 H 3.5481 -0.278189 1.87952 0
M  V30 28 H 1.6981 -2.50856 2.96654 0
M  V30 29 H 3.3701 -0.464863 4.58952 0
M  V30 30 H 1.6131 -0.368043 4.32236 0
M  V30 31 H 2.2841 -1.71514 5.24678 0
M  V30 32 H 4.7601 -2.35615 3.42965 0
M  V30 33 H 3.6361 -3.46399 4.25792 0
M  V30 34 H 3.8971 -3.62657 2.52849 0
M  V30 35 N 2.9562 -1.48159 -0.537278 0
M  V30 36 C 3.8882 -1.58218 -1.65831 0
M  V30 37 C 4.9012 -0.466948 -1.5596 0
M  V30 38 O 6.0902 -0.73747 -1.62553 0
M  V30 39 C 3.1902 -1.48906 -3.04434 0
M  V30 40 C 2.3632 -2.75343 -3.3986 0
M  V30 41 C 1.4222 -2.59588 -4.57712 0
M  V30 42 O 0.4482 -3.33457 -4.61297 0
M  V30 43 N 1.6502 -1.68724 -5.55439 0
M  V30 44 H 4.4152 -2.54891 -1.57641 0
M  V30 45 H 1.9762 -1.4479 -0.724386 0
M  V30 46 H 3.9682 -1.36072 -3.81139 0
M  V30 47 H 2.5382 -0.602368 -3.06741 0
M  V30 48 H 1.7582 -3.02795 -2.52406 0
M  V30 49 H 3.0462 -3.5924 -3.60311 0
M  V30 50 H 2.4442 -1.07898 -5.55315 0
M  V30 51 H 1.0012 -1.61832 -6.3139 0
M  V30 52 N 4.4343 0.785586 -1.36625 0
M  V30 53 C 5.3643 1.91259 -1.33949 0
M  V30 54 C 6.3453 1.68795 -0.210325 0
M  V30 55 O 7.5303 1.89854 -0.408561 0
M  V30 56 C 4.6603 3.28339 -1.13186 0
M  V30 57 C 3.6143 3.65335 -2.22967 0
M  V30 58 C 2.9403 5.00806 -1.87342 0
M  V30 59 C 4.2403 3.7352 -3.65075 0
M  V30 60 H 5.9343 1.93755 -2.28253 0
M  V30 61 H 3.4803 0.930788 -1.09874 0
M  V30 62 H 5.4333 4.06804 -1.09948 0
M  V30 63 H 4.1573 3.2624 -0.153332 0
M  V30 64 H 2.8163 2.89169 -2.25337 0
M  V30 65 H 2.4643 4.95233 -0.880545 0
M  V30 66 H 2.1643 5.26529 -2.60846 0
M  V30 67 H 3.6883 5.81687 -1.85667 0
M  V30 68 H 5.1023 4.42168 -3.64911 0
M  V30 69 H 3.4993 4.10731 -4.37516 0
M  V30 70 H 4.5693 2.74527 -3.99703 0
M  V30 71 N 5.9124 1.20967 1.01018 0
M  V30 72 C 6.8444 0.922059 2.09835 0
M  V30 73 C 7.8574 -0.0927106 1.62536 0
M  V30 74 O 9.0464 0.139127 1.77957 0
M  V30 75 C 6.1464 0.362004 3.36961 0
M  V30 76 C 5.3194 1.42986 4.13369 0
M  V30 77 C 4.3784 0.879976 5.1879 0
M  V30 78 O 3.4044 1.56219 5.47343 0
M  V30 79 N 4.6064 -0.307396 5.79686 0
M  V30 80 H 7.3714 1.8588 2.35093 0
M  V30 81 H 4.9324 1.11422 1.1746 0
M  V30 82 H 6.9244 -0.0201474 4.04695 0
M  V30 83 H 5.4944 -0.479437 3.08902 0
M  V30 84 H 4.7144 1.98608 3.40512 0
M  V30 85 H 6.0024 2.14885 4.61196 0
M  V30 86 H 5.4004 -0.878796 5.58832 0
M  V30 87 H 3.9574 -0.631115 6.48737 0
M  V30 88 N 7.3905 -1.2043 1.01659 0
M  V30 89 C 8.3225 -2.22626 0.544988 0
M  V30 90 C 9.3355 -1.58479 -0.372609 0
M  V30 91 O 10.5245 -1.77679 -0.170958 0
M  V30 92 C 7.6245 -3.38141 -0.22663 0
M  V30 93 C 6.7975 -4.31877 0.692876 0
M  V30 94 C 5.8565 -5.26191 -0.0311616 0
M  V30 95 O 4.8825 -5.6612 0.591343 0
M  V30 96 N 6.0845 -5.65618 -1.30601 0
M  V30 97 H 8.8495 -2.63716 1.42388 0
M  V30 98 H 6.4105 -1.34971 0.894116 0
M  V30 99 H 8.4025 -3.98239 -0.72024 0
M  V30 100 H 6.9725 -2.95943 -1.00681 0
M  V30 101 H 6.1925 -3.69746 1.36679 0
M  V30 102 H 7.4805 -4.91426 1.31824 0
M  V30 103 H 6.8785 -5.3519 -1.83269 0
M  V30 104 H 5.4355 -6.28025 -1.74435 0
M  V30 105 N 8.8686 -0.792821 -1.36206 0
M  V30 106 C 10.0936 -0.377701 -2.03932 0
M  V30 107 C 10.5186 0.998947 -1.59382 0
M  V30 108 O 9.8766 1.64421 -0.763903 0
M  V30 109 C 9.9246 -0.453635 -3.57735 0
M  V30 110 O 9.0286 0.538151 -4.08874 0
M  V30 111 H 8.3696 -0.159855 -0.644471 0
M  V30 112 H 10.8996 -1.07488 -1.7409 0
M  V30 113 H 10.9096 -0.318464 -4.06755 0
M  V30 114 H 9.5846 -1.45784 -3.89512 0
M  V30 115 H 8.1616 0.364359 -3.71116 0
M  V30 116 N 10.3467 1.47872 -0.545128 0
M  V30 117 C 11.5947 2.02093 -0.016553 0
M  V30 118 C 11.9157 1.42305 1.3332 0
M  V30 119 O 11.1857 0.593853 1.86682 0
M  V30 120 H 9.7657 0.746993 -0.00313038 0
M  V30 121 H 12.4277 1.81414 -0.712397 0
M  V30 122 H 11.5237 3.11996 0.0805422 0
M  V30 123 N 11.8248 0.280983 1.55075 0
M  V30 124 C 12.7878 -0.590896 2.21452 0
M  V30 125 C 13.7878 -1.07682 1.19421 0
M  V30 126 O 14.9778 -0.97605 1.44288 0
M  V30 127 C 12.1098 -1.81587 2.88511 0
M  V30 128 H 13.3028 -0.0112554 2.99898 0
M  V30 129 H 10.8558 0.0316438 1.56268 0
M  V30 130 H 11.5908 -2.43587 2.14093 0
M  V30 131 H 11.3758 -1.4753 3.63287 0
M  V30 132 H 12.8658 -2.43575 3.39206 0
M  V30 133 N 13.3029 -1.57598 0.00835791 0
M  V30 134 C 14.2129 -2.12385 -0.996487 0
M  V30 135 C 15.2289 -1.07108 -1.37127 0
M  V30 136 O 16.4049 -1.39055 -1.4569 0
M  V30 137 C 13.4699 -2.62314 -2.26699 0
M  V30 138 C 12.5309 -3.82225 -1.95456 0
M  V30 139 C 11.7639 -4.29763 -3.16449 0
M  V30 140 O 11.9869 -3.76584 -4.28416 0
M  V30 141 O 10.9209 -5.21832 -2.99958 0
M  V30 142 H 14.7469 -2.98479 -0.560725 0
M  V30 143 H 12.3319 -1.47903 -0.210987 0
M  V30 144 H 14.2139 -2.94589 -3.01322 0
M  V30 145 H 12.8889 -1.79313 -2.69497 0
M  V30 146 H 11.7959 -3.54909 -1.18282 0
M  V30 147 H 13.1289 -4.66324 -1.57489 0
M  V30 148 N 14.781 0.264519 -1.55364 0
M  V30 149 C 15.711 1.33121 -1.91836 0
M  V30 150 C 16.692 1.51101 -0.781192 0
M  V30 151 O 17.877 1.64003 -1.04003 0
M  V30 152 C 15.007 2.68921 -2.19769 0
M  V30 153 C 13.961 2.65661 -3.35571 0
M  V30 154 C 13.287 4.05093 -3.49004 0
M  V30 155 C 14.587 2.24187 -4.71739 0
M  V30 156 H 16.281 1.02844 -2.81182 0
M  V30 157 H 13.827 0.493286 -1.35287 0
M  V30 158 H 15.78 3.43663 -2.43872 0
M  V30 159 H 14.504 3.00799 -1.27231 0
M  V30 160 H 13.163 1.93377 -3.1145 0
M  V30 161 H 12.811 4.34206 -2.53917 0
M  V30 162 H 12.511 4.03804 -4.26868 0
M  V30 163 H 14.035 4.81561 -3.75408 0
M  V30 164 H 15.449 2.88654 -4.9533 0
M  V30 165 H 13.846 2.34044 -5.52579 0
M  V30 166 H 14.916 1.19327 -4.69988 0
M  V30 167 N 16.2591 1.48442 0.529413 0
M  V30 168 C 17.2221 1.62524 1.61612 0
M  V30 169 C 18.2221 0.498509 1.52877 0
M  V30 170 O 19.4121 0.76431 1.56537 0
M  V30 171 C 16.5441 1.59597 3.01233 0
M  V30 172 H 17.7371 2.59423 1.50465 0
M  V30 173 H 15.2901 1.37047 0.751514 0
M  V30 174 H 16.0251 0.641781 3.17886 0
M  V30 175 H 15.8101 2.41397 3.08982 0
M  V30 176 H 17.3001 1.72646 3.80241 0
M  V30 177 N 17.7372 -0.778329 1.37039 0
M  V30 178 C 19.1532 -1.07796 1.17695 0
M  V30 179 C 19.3532 -2.01498 0.00860115 0
M  V30 180 O 18.4092 -2.43901 -0.653352 0
M  V30 181 C 19.7222 -1.68178 2.49272 0
M  V30 182 C 21.2702 -1.80467 2.55735 0
M  V30 183 C 21.7452 -2.44263 3.87427 0
M  V30 184 N 23.2362 -2.51721 3.88833 0
M  V30 185 C 23.9712 -3.01919 4.87476 0
M  V30 186 N 23.4672 -3.5234 5.96513 0
M  V30 187 N 25.2602 -3.00733 4.74885 0
M  V30 188 H 17.4112 -0.156032 2.11826 0
M  V30 189 H 19.6742 -0.131844 0.938787 0
M  V30 190 H 19.3802 -1.06796 3.35093 0
M  V30 191 H 19.2542 -2.67554 2.65885 0
M  V30 192 H 21.6412 -2.40984 1.70325 0
M  V30 193 H 21.7222 -0.798656 2.43013 0
M  V30 194 H 21.3662 -1.84388 4.73248 0
M  V30 195 H 21.2962 -3.45458 3.9745 0
M  V30 196 H 23.7872 -2.1603 3.10063 0
M  V30 197 H 24.1002 -3.89027 6.67741 0
M  V30 198 H 22.4452 -3.50462 6.00168 0
M  V30 199 H 25.6362 -2.60638 3.88826 0
M  V30 200 H 25.8092 -3.39545 5.51918 0
M  V30 201 N 19.2153 -1.21501 -1.00376 0
M  V30 202 C 20.6263 -1.03146 -1.55621 0
M  V30 203 C 20.9773 0.408375 -1.91903 0
M  V30 204 O 20.1023 1.29177 -1.73616 0
M  V30 205 C 20.6973 -1.86612 -2.82775 0
M  V30 206 C 19.2563 -1.72586 -3.34501 0
M  V30 207 C 18.4033 -1.83747 -2.07683 0
M  V30 208 H 21.3543 -1.35505 -0.826081 0
M  V30 209 H 21.3753 -1.3771 -3.54706 0
M  V30 210 H 20.8873 -2.91399 -2.56336 0
M  V30 211 H 18.9883 -0.704877 -3.65872 0
M  V30 212 H 19.1013 -2.54623 -4.05837 0
M  V30 213 H 17.4653 -1.27069 -2.20739 0
M  V30 214 H 18.2483 -2.90044 -1.83655 0
M  V30 215 N 20.6934 1.19889 -1.02296 0
M  V30 216 C 21.9414 1.89046 -0.714558 0
M  V30 217 C 22.2624 1.79636 0.758681 0
M  V30 218 O 21.5324 1.20292 1.54618 0
M  V30 219 H 20.1124 0.699802 -0.261317 0
M  V30 220 H 22.7744 1.45574 -1.29592 0
M  V30 221 H 21.8704 2.95524 -1.0036 0
M  V30 222 N 22.1715 0.800033 1.35784 0
M  V30 223 C 23.1345 0.211565 2.28221 0
M  V30 224 C 24.1345 -0.59728 1.49296 0
M  V30 225 O 25.3245 -0.416721 1.69142 0
M  V30 226 C 22.4565 -0.705846 3.33513 0
M  V30 227 H 23.6495 1.02677 2.81776 0
M  V30 228 H 21.2025 0.570211 1.45528 0
M  V30 229 H 21.9375 -1.54498 2.85133 0
M  V30 230 H 21.7225 -0.127655 3.91892 0
M  V30 231 H 23.2125 -1.11211 4.02519 0
M  V30 232 N 23.6496 -1.47581 0.552962 0
M  V30 233 C 24.8746 -2.07378 0.0300593 0
M  V30 234 C 25.2996 -1.40355 -1.25229 0
M  V30 235 O 24.6576 -0.477099 -1.7491 0
M  V30 236 C 24.7056 -3.60274 -0.153231 0
M  V30 237 O 23.8096 -3.94041 -1.21678 0
M  V30 238 H 23.1506 -0.662158 0.0494182 0
M  V30 239 H 25.6806 -1.89662 0.767434 0
M  V30 240 H 25.6906 -4.0633 -0.368761 0
M  V30 241 H 24.3656 -4.08455 0.783397 0
M  V30 242 H 22.9426 -3.59735 -0.982079 0
M  V30 243 N 25.1277 -0.289203 -1.54924 0
M  V30 244 C 26.3737 0.323998 -2.00195 0
M  V30 245 C 26.7067 1.54441 -1.17735 0
M  V30 246 O 25.9817 1.92875 -0.250878 0
M  V30 247 C 26.2647 0.692276 -3.53383 0
M  V30 248 C 26.1177 -0.536457 -4.46589 0
M  V30 249 C 27.4367 1.52335 -4.12895 0
M  V30 250 H 24.5557 0.116289 -0.727768 0
M  V30 251 H 27.1977 -0.398954 -1.85764 0
M  V30 252 H 25.3477 1.30822 -3.65811 0
M  V30 253 H 27.0197 -1.17499 -4.46085 0
M  V30 254 H 25.2627 -1.17192 -4.1767 0
M  V30 255 H 25.9337 -0.234806 -5.515 0
M  V30 256 H 28.4097 1.00302 -4.0383 0
M  V30 257 H 27.2857 1.74982 -5.20262 0
M  V30 258 H 27.5467 2.50886 -3.64018 0
M  V30 259 N 26.6058 1.57591 -0.0167156 0
M  V30 260 C 27.5528 2.09462 0.969251 0
M  V30 261 C 28.5228 0.99381 1.33089 0
M  V30 262 O 29.7078 1.26726 1.42636 0
M  V30 263 C 26.8478 2.61622 2.25051 0
M  V30 264 C 25.9608 3.85666 1.94642 0
M  V30 265 C 25.0958 4.26266 3.16972 0
M  V30 266 C 24.1348 5.43101 2.82326 0
M  V30 267 N 23.2718 5.78915 3.97243 0
M  V30 268 H 28.1118 2.93428 0.519997 0
M  V30 269 H 25.6488 1.45044 0.245087 0
M  V30 270 H 27.6068 2.89949 2.99976 0
M  V30 271 H 26.2368 1.80505 2.67615 0
M  V30 272 H 25.2888 3.64145 1.10013 0
M  V30 273 H 26.6008 4.70678 1.65117 0
M  V30 274 H 25.7548 4.55963 4.00228 0
M  V30 275 H 24.4938 3.39996 3.49648 0
M  V30 276 H 23.4988 5.1311 1.97479 0
M  V30 277 H 24.7238 6.3106 2.50879 0
M  V30 278 H 22.6698 4.95602 4.29785 0
M  V30 279 H 22.5868 6.58539 3.71299 0
M  V30 280 H 23.8548 6.13212 4.81239 0
M  V30 281 N 28.0839 -0.256276 1.55502 0
M  V30 282 C 29.0169 -1.34321 1.84481 0
M  V30 283 C 29.9949 -1.46802 0.699131 0
M  V30 284 O 31.1789 -1.63165 0.943904 0
M  V30 285 C 28.3059 -2.71779 2.02123 0
M  V30 286 C 27.3519 -2.76496 3.24734 0
M  V30 287 S 28.1849 -2.3405 4.81644 0
M  V30 288 C 29.3409 -3.73452 5.02279 0
M  V30 289 H 29.5739 -1.09539 2.76385 0
M  V30 290 H 27.1069 -0.45678 1.47489 0
M  V30 291 H 29.0649 -3.50932 2.12972 0
M  V30 292 H 27.7259 -2.93803 1.11078 0
M  V30 293 H 26.9189 -3.77424 3.34016 0
M  V30 294 H 26.5209 -2.05379 3.12563 0
M  V30 295 H 28.8129 -4.6887 4.89047 0
M  V30 296 H 29.7559 -3.6911 6.04287 0
M  V30 297 H 30.1639 -3.6553 4.30172 0
M  V30 298 N 29.562 -1.4872 -0.521534 0
M  V30 299 C 30.787 -1.61101 -1.30618 0
M  V30 300 C 31.212 -0.274611 -1.86085 0
M  V30 301 O 30.57 0.754937 -1.64834 0
M  V30 302 C 30.618 -2.66709 -2.4269 0
M  V30 303 O 29.722 -2.24456 -3.45967 0
M  V30 304 H 29.063 -0.539921 -0.386499 0
M  V30 305 H 31.593 -1.94767 -0.626645 0
M  V30 306 H 31.603 -2.88245 -2.88754 0
M  V30 307 H 30.278 -3.63727 -2.01682 0
M  V30 308 H 28.855 -2.13168 -3.05964 0
M  V30 309 N 31.0401 0.771051 -1.3745 0
M  V30 310 C 32.2801 1.54264 -1.34096 0
M  V30 311 C 32.6441 1.91858 0.0737639 0
M  V30 312 O 33.8451 2.67797 0.23203 0
M  V30 313 C 32.1161 2.77326 -2.25445 0
M  V30 314 S 33.6751 3.67383 -2.39948 0
M  V30 315 H 30.4931 0.528122 -0.476034 0
M  V30 316 H 33.0951 0.906633 -1.73206 0
M  V30 317 H 31.7991 2.47788 -3.27153 0
M  V30 318 H 31.3301 3.45886 -1.87421 0
M  V30 319 H 33.3451 4.69334 -1.61059 0
M  V30 320 N 32.5182 1.22032 0.997298 0
M  V30 321 C 33.4652 0.986467 2.08656 0
M  V30 322 C 34.4352 -0.0902671 1.65855 0
M  V30 323 O 35.6202 0.0584294 1.90711 0
M  V30 324 C 32.7602 0.565569 3.40434 0
M  V30 325 C 31.8732 1.71259 3.96604 0
M  V30 326 C 31.0082 1.24011 5.16522 0
M  V30 327 C 30.0472 2.35896 5.64818 0
M  V30 328 N 29.1842 1.89726 6.7598 0
M  V30 329 H 34.0242 1.91892 2.27994 0
M  V30 330 H 31.5612 0.956199 1.11782 0
M  V30 331 H 33.5192 0.302738 4.161 0
M  V30 332 H 32.1492 -0.329879 3.2111 0
M  V30 333 H 31.2012 2.08986 3.17851 0
M  V30 334 H 32.5132 2.55436 4.28432 0
M  V30 335 H 31.6672 0.934395 5.99461 0
M  V30 336 H 30.4062 0.368487 4.86306 0
M  V30 337 H 29.4112 2.67261 4.8047 0
M  V30 338 H 30.6362 3.23567 5.97061 0
M  V30 339 H 28.5822 1.0492 6.47555 0
M  V30 340 H 28.4992 2.67471 7.07103 0
M  V30 341 H 29.7672 1.62211 7.62435 0
M  V30 342 N 33.9963 -1.19345 1.0293 0
M  V30 343 C 34.9593 -2.20793 0.615069 0
M  V30 344 C 35.9593 -1.57553 -0.321533 0
M  V30 345 O 37.1493 -1.73862 -0.108483 0
M  V30 346 C 34.2813 -3.40754 -0.0999222 0
M  V30 347 H 35.4743 -2.58955 1.51269 0
M  V30 348 H 33.0273 -1.3303 0.820534 0
M  V30 349 H 33.7623 -3.0811 -1.01187 0
M  V30 350 H 33.5473 -3.87889 0.57309 0
M  V30 351 H 35.0373 -4.15898 -0.376645 0
M  V30 352 N 35.4744 -0.807222 -1.35358 0
M  V30 353 C 36.6994 -0.399309 -2.0352 0
M  V30 354 C 37.1244 0.981986 -1.60433 0
M  V30 355 O 36.4824 1.63601 -0.781299 0
M  V30 356 C 36.5304 -0.491552 -3.57234 0
M  V30 357 O 35.6344 0.494754 -4.09421 0
M  V30 358 H 34.9754 -0.166682 -0.642739 0
M  V30 359 H 37.5054 -1.09328 -1.72941 0
M  V30 360 H 37.5154 -0.361588 -4.06395 0
M  V30 361 H 36.1904 -1.49907 -3.87944 0
M  V30 362 H 34.7674 0.324977 -3.71481 0
M  V30 363 N 36.9525 1.47285 -0.560781 0
M  V30 364 C 38.2005 2.02064 -0.0379868 0
M  V30 365 C 38.5215 1.43711 1.31803 0
M  V30 366 O 37.7915 0.61362 1.86042 0
M  V30 367 H 36.3715 0.746918 -0.0110531 0
M  V30 368 H 39.0335 1.80648 -0.731598 0
M  V30 369 H 38.1295 3.12064 0.0474463 0
M  V30 370 N 38.4306 0.297415 1.54768 0
M  V30 371 C 39.6606 -0.315165 2.04182 0
M  V30 372 C 40.0686 -1.4834 1.17439 0
M  V30 373 O 39.4116 -1.82695 0.191891 0
M  V30 374 C 39.4736 -0.837583 3.49607 0
M  V30 375 C 39.1376 0.204912 4.5654 0
M  V30 376 C 40.1346 1.03214 5.09552 0
M  V30 377 C 37.8196 0.345578 5.0111 0
M  V30 378 C 39.8136 1.986 6.05671 0
M  V30 379 C 37.5006 1.30289 5.97049 0
M  V30 380 C 38.4986 2.12159 6.49213 0
M  V30 381 O 38.1866 3.06268 7.43273 0
M  V30 382 H 37.9186 -0.0729646 0.672051 0
M  V30 383 H 40.4726 0.433907 2.00765 0
M  V30 384 H 38.7026 -1.63712 3.50336 0
M  V30 385 H 40.3916 -1.36566 3.82236 0
M  V30 386 H 41.1576 0.934312 4.75916 0
M  V30 387 H 37.0366 -0.28171 4.60138 0
M  V30 388 H 40.5806 2.62542 6.46311 0
M  V30 389 H 36.4776 1.40145 6.30103 0
M  V30 390 H 37.2456 3.01205 7.61064 0
M  V30 391 N 39.9087 -1.5758 0.0250728 0
M  V30 392 C 41.1367 -1.9593 -0.664747 0
M  V30 393 C 41.5517 -0.901352 -1.65895 0
M  V30 394 O 40.9087 0.117255 -1.82123 0
M  V30 395 C 40.9597 -3.34342 -1.37468 0
M  V30 396 O 40.6807 -4.36079 -0.420324 0
M  V30 397 C 42.1817 -3.873 -2.1567 0
M  V30 398 H 39.4017 -0.645405 -0.183557 0
M  V30 399 H 41.9457 -2.04329 0.0836372 0
M  V30 400 H 40.1007 -3.27175 -2.0745 0
M  V30 401 H 40.5147 -5.16297 -0.923991 0
M  V30 402 H 41.9887 -4.86504 -2.60803 0
M  V30 403 H 42.4657 -3.21331 -2.99405 0
M  V30 404 H 43.0717 -3.97723 -1.50654 0
M  V30 405 N 41.3868 0.248026 -1.55636 0
M  V30 406 C 42.6338 0.976224 -1.77415 0
M  V30 407 C 42.9618 1.85361 -0.589193 0
M  V30 408 O 42.2168 1.90973 0.427529 0
M  V30 409 C 42.5158 1.86819 -3.04686 0
M  V30 410 C 42.1818 1.14625 -4.36087 0
M  V30 411 C 40.8438 0.946723 -4.71795 0
M  V30 412 C 43.1958 0.634463 -5.17324 0
M  V30 413 C 40.5238 0.223091 -5.86276 0
M  V30 414 C 42.8758 -0.0756959 -6.32555 0
M  V30 415 C 41.5398 -0.286711 -6.66884 0
M  V30 416 H 40.8098 0.357226 -0.649208 0
M  V30 417 H 43.4568 0.246415 -1.89908 0
M  V30 418 H 41.7618 2.66502 -2.872 0
M  V30 419 H 43.4588 2.43329 -3.18735 0
M  V30 420 H 40.0488 1.3117 -4.08035 0
M  V30 421 H 44.2328 0.77616 -4.90193 0
M  V30 422 H 39.4888 0.0491185 -6.1138 0
M  V30 423 H 43.6628 -0.479899 -6.94745 0
M  V30 424 H 41.2898 -0.849389 -7.5544 0
M  V30 425 N 42.8649 1.48995 0.513639 0
M  V30 426 C 44.0929 1.61531 1.29288 0
M  V30 427 C 44.5079 0.281801 1.86685 0
M  V30 428 O 43.8649 -0.731111 1.67215 0
M  V30 429 C 43.9159 2.67449 2.43215 0
M  V30 430 O 43.6369 3.95626 1.88179 0
M  V30 431 C 45.1379 2.90575 3.34785 0
M  V30 432 H 42.3579 0.544165 0.392588 0
M  V30 433 H 44.9019 1.9494 0.617956 0
M  V30 434 H 43.0569 2.36853 3.0656 0
M  V30 435 H 43.4709 4.53868 2.62876 0
M  V30 436 H 44.9449 3.68449 4.11035 0
M  V30 437 H 45.4219 2.00011 3.91015 0
M  V30 438 H 46.0279 3.22538 2.77218 0
M  V30 439 N 44.343 -0.763751 1.37857 0
M  V30 440 C 45.759 -1.06542 1.18832 0
M  V30 441 C 45.959 -2.01478 0.0299722 0
M  V30 442 O 45.015 -2.4458 -0.627447 0
M  V30 443 C 46.328 -1.65525 2.51042 0
M  V30 444 C 47.876 -1.77745 2.57635 0
M  V30 445 C 48.351 -2.4014 3.89996 0
M  V30 446 N 49.842 -2.47582 3.91481 0
M  V30 447 C 50.577 -2.96732 4.9065 0
M  V30 448 N 50.073 -3.45993 6.00217 0
M  V30 449 N 51.866 -2.95679 4.78048 0
M  V30 450 H 44.017 -0.133556 2.1198 0
M  V30 451 H 46.28 -0.121879 0.940133 0
M  V30 452 H 45.986 -1.03236 3.36207 0
M  V30 453 H 45.86 -2.64719 2.68707 0
M  V30 454 H 48.247 -2.39164 1.72872 0
M  V30 455 H 48.328 -0.772836 2.43846 0
M  V30 456 H 47.972 -1.79358 4.75177 0
M  V30 457 H 47.902 -3.41223 4.01092 0
M  V30 458 H 50.393 -2.1273 3.12337 0
M  V30 459 H 50.706 -3.81922 6.7183 0
M  V30 460 H 49.051 -3.44077 6.03851 0
M  V30 461 H 52.242 -2.56499 3.91568 0
M  V30 462 H 52.415 -3.33672 5.55488 0
M  V30 463 N 45.8211 -1.22559 -0.990812 0
M  V30 464 C 47.0511 -1.07623 -1.76355 0
M  V30 465 C 47.4591 0.37601 -1.85426 0
M  V30 466 O 46.8021 1.27228 -1.32509 0
M  V30 467 C 46.8641 -1.61507 -3.21179 0
M  V30 468 C 46.5281 -3.10146 -3.35646 0
M  V30 469 C 47.5251 -4.07553 -3.22796 0
M  V30 470 C 45.2101 -3.49644 -3.60631 0
M  V30 471 C 47.2041 -5.42442 -3.34716 0
M  V30 472 C 44.8911 -4.84682 -3.72192 0
M  V30 473 C 45.8891 -5.8089 -3.59243 0
M  V30 474 O 45.5771 -7.13476 -3.70415 0
M  V30 475 H 45.3091 -0.377745 -0.560611 0
M  V30 476 H 47.8631 -1.62658 -1.25425 0
M  V30 477 H 46.0931 -1.00881 -3.73309 0
M  V30 478 H 47.7821 -1.42202 -3.80175 0
M  V30 479 H 48.5481 -3.78381 -3.03403 0
M  V30 480 H 44.4271 -2.75282 -3.69785 0
M  V30 481 H 47.9711 -6.17518 -3.24526 0
M  V30 482 H 43.8681 -5.13534 -3.91092 0
M  V30 483 H 44.6361 -7.21083 -3.87275 0
M  V30 484 N 47.2992 1.18797 -1.03562 0
M  V30 485 C 48.5272 1.92599 -0.755869 0
M  V30 486 C 48.9422 1.75886 0.686271 0
M  V30 487 O 48.2992 1.08517 1.46732 0
M  V30 488 C 48.3502 3.44159 -1.10619 0
M  V30 489 O 48.0712 3.60341 -2.4917 0
M  V30 490 C 49.5722 4.3507 -0.850214 0
M  V30 491 H 46.7922 0.611587 -0.276048 0
M  V30 492 H 49.3362 1.50742 -1.38192 0
M  V30 493 H 47.4912 3.83823 -0.525194 0
M  V30 494 H 47.9052 4.54128 -2.62427 0
M  V30 495 H 49.3792 5.39989 -1.14523 0
M  V30 496 H 49.8562 4.38673 0.215176 0
M  V30 497 H 50.4622 4.01097 -1.41426 0
M  V30 498 N 48.7773 0.814389 1.34928 0
M  V30 499 C 49.7103 0.175641 2.27523 0
M  V30 500 C 50.6883 -0.662953 1.48471 0
M  V30 501 O 51.8723 -0.628545 1.77712 0
M  V30 502 C 48.9993 -0.755516 3.30166 0
M  V30 503 C 48.0453 0.00445305 4.265 0
M  V30 504 S 48.8783 1.34582 5.18313 0
M  V30 505 C 50.0343 0.419315 6.24494 0
M  V30 506 H 50.2673 0.960691 2.8135 0
M  V30 507 H 47.8003 0.609846 1.41846 0
M  V30 508 H 49.7583 -1.28723 3.89796 0
M  V30 509 H 48.4193 -1.51402 2.75202 0
M  V30 510 H 47.6123 -0.703077 4.99072 0
M  V30 511 H 47.2143 0.466447 3.7108 0
M  V30 512 H 49.5063 -0.392432 6.76362 0
M  V30 513 H 50.4493 1.11446 6.99275 0
M  V30 514 H 50.8573 0.0115389 5.64499 0
M  V30 515 N 50.2554 -1.46986 0.568584 0
M  V30 516 C 51.2054 -2.27179 -0.193339 0
M  V30 517 C 52.1894 -1.35035 -0.874895 0
M  V30 518 O 53.3814 -1.5931 -0.771322 0
M  V30 519 C 50.5104 -3.21063 -1.21546 0
M  V30 520 C 49.5964 -4.2069 -0.536738 0
M  V30 521 N 49.9874 -5.04218 0.399673 0
M  V30 522 C 48.2854 -4.38961 -0.789254 0
M  V30 523 C 48.9864 -5.76242 0.795017 0
M  V30 524 N 47.9624 -5.434 0.1473 0
M  V30 525 H 51.7644 -2.89146 0.526458 0
M  V30 526 H 49.2784 -1.57664 0.389342 0
M  V30 527 H 51.2754 -3.77209 -1.77536 0
M  V30 528 H 49.9354 -2.60654 -1.93623 0
M  V30 529 H 50.9464 -5.12077 0.774454 0
M  V30 530 H 47.6234 -3.89713 -1.49767 0
M  V30 531 H 49.0134 -6.53417 1.56513 0
M  V30 532 N 51.7335 -0.305618 -1.54608 0
M  V30 533 C 52.9795 0.295595 -2.01241 0
M  V30 534 C 53.3345 1.51171 -1.19018 0
M  V30 535 O 52.6275 1.89832 -0.259684 0
M  V30 536 C 52.8215 0.698983 -3.50498 0
M  V30 537 C 52.6505 -0.476491 -4.47168 0
M  V30 538 C 51.4205 -0.969963 -4.95903 0
M  V30 539 C 53.6185 -1.32294 -4.96994 0
M  V30 540 N 51.6005 -2.11172 -5.76437 0
M  V30 541 C 52.9715 -2.31212 -5.75275 0
M  V30 542 C 55.0265 -1.35278 -4.7917 0
M  V30 543 C 53.7295 -3.32896 -6.37631 0
M  V30 544 C 55.7555 -2.35823 -5.42348 0
M  V30 545 C 55.1175 -3.33469 -6.20466 0
M  V30 546 H 51.2165 0.0724992 -0.778632 0
M  V30 547 H 53.8005 -0.436583 -1.89742 0
M  V30 548 H 51.9715 1.40032 -3.62278 0
M  V30 549 H 53.7035 1.28013 -3.8392 0
M  V30 550 H 50.4585 -0.544178 -4.70463 0
M  V30 551 H 50.8825 -2.68714 -6.21387 0
M  V30 552 H 55.5245 -0.61157 -4.18354 0
M  V30 553 H 53.2425 -4.07933 -6.97579 0
M  V30 554 H 56.8285 -2.38911 -5.30484 0
M  V30 555 H 55.7085 -4.09996 -6.68485 0
M  V30 556 N 53.2116 1.57565 -0.0334293 0
M  V30 557 C 54.4576 1.92262 0.645226 0
M  V30 558 C 54.7906 0.910543 1.71531 0
M  V30 559 O 54.0656 -0.066099 1.94388 0
M  V30 560 C 54.3486 3.37422 1.2577 0
M  V30 561 C 54.2016 4.49369 0.196891 0
M  V30 562 C 55.5206 3.82628 2.17449 0
M  V30 563 H 52.6396 0.699171 0.233085 0
M  V30 564 H 55.2816 1.89779 -0.0915694 0
M  V30 565 H 53.4316 3.39669 1.88566 0
M  V30 566 H 55.1036 4.59254 -0.433962 0
M  V30 567 H 53.3466 4.31168 -0.477137 0
M  V30 568 H 54.0176 5.47978 0.665124 0
M  V30 569 H 56.4936 3.82145 1.64634 0
M  V30 570 H 55.3696 4.84883 2.57254 0
M  V30 571 H 55.6306 3.18376 3.0674 0
M  V30 572 N 54.6897 -0.239769 1.55765 0
M  V30 573 C 55.6367 -1.29696 1.90913 0
M  V30 574 C 56.6067 -1.47478 0.764164 0
M  V30 575 O 57.7917 -1.61345 1.01845 0
M  V30 576 C 54.9317 -2.64598 2.21544 0
M  V30 577 C 54.0447 -2.54765 3.48882 0
M  V30 578 C 53.1797 -3.82069 3.69049 0
M  V30 579 C 52.2187 -3.66883 4.89963 0
M  V30 580 N 51.3557 -4.86094 5.06614 0
M  V30 581 H 56.1957 -0.990224 2.81067 0
M  V30 582 H 53.7327 -0.477684 1.39128 0
M  V30 583 H 55.6907 -3.43132 2.3731 0
M  V30 584 H 54.3207 -2.93405 1.34585 0
M  V30 585 H 53.3727 -1.67763 3.41409 0
M  V30 586 H 54.6847 -2.39457 4.37563 0
M  V30 587 H 53.8387 -4.69046 3.84812 0
M  V30 588 H 52.5777 -4.00282 2.78614 0
M  V30 589 H 51.5827 -2.78289 4.74168 0
M  V30 590 H 52.8077 -3.50157 5.81865 0
M  V30 591 H 50.7537 -5.04655 4.19117 0
M  V30 592 H 50.6707 -4.73443 5.89396 0
M  V30 593 H 51.9387 -5.74549 5.26795 0
M  V30 594 N 56.1678 -1.49265 -0.50573 0
M  V30 595 C 57.0998 -1.617 -1.62437 0
M  V30 596 C 58.1128 -0.499924 -1.54934 0
M  V30 597 O 59.3018 -0.771785 -1.60953 0
M  V30 598 C 56.4018 -1.5533 -3.01207 0
M  V30 599 C 55.5748 -2.8249 -3.33943 0
M  V30 600 C 54.6338 -2.69238 -4.52103 0
M  V30 601 O 53.6598 -3.43167 -4.5412 0
M  V30 602 N 54.8618 -1.80468 -5.51735 0
M  V30 603 H 57.6268 -2.58177 -1.52199 0
M  V30 604 H 55.1878 -1.46294 -0.693511 0
M  V30 605 H 57.1798 -1.44125 -3.78167 0
M  V30 606 H 55.7498 -0.667297 -3.05395 0
M  V30 607 H 54.9698 -3.08081 -2.45926 0
M  V30 608 H 56.2578 -3.66802 -3.5261 0
M  V30 609 H 55.6558 -1.19653 -5.52901 0
M  V30 610 H 54.2128 -1.75188 -6.27816 0
M  V30 611 N 57.6459 0.756429 -1.3826 0
M  V30 612 C 59.0619 1.0591 -1.19395 0
M  V30 613 C 59.2619 2.01459 -0.0406567 0
M  V30 614 O 58.3179 2.44909 0.614467 0
M  V30 615 C 59.6309 1.64191 -2.51916 0
M  V30 616 C 61.1789 1.76376 -2.58574 0
M  V30 617 C 61.6539 2.38069 -3.91264 0
M  V30 618 N 63.1449 2.45503 -3.92788 0
M  V30 619 C 63.8799 2.94126 -4.92217 0
M  V30 620 N 63.3759 3.42805 -6.02043 0
M  V30 621 N 65.1689 2.9314 -4.7961 0
M  V30 622 H 57.3199 0.122313 -2.12048 0
M  V30 623 H 59.5829 0.116892 -0.940766 0
M  V30 624 H 59.2889 1.01451 -3.3675 0
M  V30 625 H 59.1629 2.6329 -2.70108 0
M  V30 626 H 61.5499 2.38244 -1.74137 0
M  V30 627 H 61.6309 0.759894 -2.44252 0
M  V30 628 H 61.2749 1.76835 -4.76121 0
M  V30 629 H 61.2049 3.39091 -4.02895 0
M  V30 630 H 63.6959 2.1107 -3.13461 0
M  V30 631 H 64.0089 3.78354 -6.73846 0
M  V30 632 H 62.3539 3.4087 -6.05667 0
M  V30 633 H 65.5449 2.54419 -3.92923 0
M  V30 634 H 65.7179 3.30721 -5.5725 0
M  V30 635 N 59.124 1.23083 0.984299 0
M  V30 636 C 60.535 1.05609 1.5396 0
M  V30 637 C 60.886 -0.377793 1.92528 0
M  V30 638 O 60.011 -1.26398 1.75649 0
M  V30 639 C 60.606 1.91087 2.7977 0
M  V30 640 C 59.165 1.77885 3.31713 0
M  V30 641 C 58.312 1.87028 2.04733 0
M  V30 642 H 61.263 1.36802 0.804419 0
M  V30 643 H 61.284 1.43336 3.5247 0
M  V30 644 H 60.796 2.9544 2.51668 0
M  V30 645 H 58.897 0.762995 3.64704 0
M  V30 646 H 59.01 2.61047 4.01735 0
M  V30 647 H 57.374 1.30565 2.18689 0
M  V30 648 H 58.157 2.92929 1.79017 0
M  V30 649 N 60.6021 -1.18246 1.0419 0
M  V30 650 C 61.8501 -1.87886 0.744543 0
M  V30 651 C 62.1711 -1.8082 -0.730006 0
M  V30 652 O 61.4411 -1.22736 -1.52685 0
M  V30 653 H 60.0211 -0.695556 0.272417 0
M  V30 654 H 62.6831 -1.43494 1.31892 0
M  V30 655 H 61.7791 -2.9389 1.05049 0
M  V30 656 N 62.0802 -0.821533 -1.34494 0
M  V30 657 C 63.0122 -0.199946 -2.28326 0
M  V30 658 C 64.0252 0.609377 -1.50965 0
M  V30 659 O 65.2142 0.439285 -1.7301 0
M  V30 660 C 62.3142 0.738431 -3.30757 0
M  V30 661 C 61.4872 -0.0277632 -4.37391 0
M  V30 662 C 60.5462 0.831332 -5.19591 0
M  V30 663 O 59.5722 0.276822 -5.68526 0
M  V30 664 N 60.7742 2.15132 -5.39165 0
M  V30 665 H 63.5392 -1.00609 -2.82308 0
M  V30 666 H 61.1002 -0.678366 -1.47003 0
M  V30 667 H 63.0922 1.31773 -3.82646 0
M  V30 668 H 61.6622 1.44533 -2.7718 0
M  V30 669 H 60.8822 -0.788359 -3.86236 0
M  V30 670 H 62.1702 -0.555251 -5.05761 0
M  V30 671 H 61.5682 2.62559 -5.01078 0
M  V30 672 H 60.1252 2.6795 -5.94177 0
M  V30 673 N 63.5583 1.46682 -0.576371 0
M  V30 674 C 64.8063 2.02013 -0.0594163 0
M  V30 675 C 65.1273 1.45101 1.30271 0
M  V30 676 O 64.3973 0.633317 1.8538 0
M  V30 677 H 62.9773 0.746759 -0.0189745 0
M  V30 678 H 65.6393 1.79862 -0.750717 0
M  V30 679 H 64.7353 3.12097 0.014345 0
M  V30 680 N 65.0364 0.313813 1.54444 0
M  V30 681 C 65.9664 -0.549454 2.26943 0
M  V30 682 C 66.9474 -1.12741 1.27372 0
M  V30 683 O 68.1324 -1.15436 1.56167 0
M  V30 684 C 65.2624 -1.71523 3.01989 0
M  V30 685 C 64.2164 -1.26703 4.08816 0
M  V30 686 C 63.5424 -2.51898 4.71647 0
M  V30 687 C 64.8424 -0.388962 5.2085 0
M  V30 688 H 66.5364 0.0552661 2.99349 0
M  V30 689 H 64.0824 0.0280207 1.43973 0
M  V30 690 H 66.0354 -2.32535 3.51433 0
M  V30 691 H 64.7594 -2.34639 2.27183 0
M  V30 692 H 63.4184 -0.679896 3.6024 0
M  V30 693 H 63.0664 -3.13356 3.93468 0
M  V30 694 H 62.7664 -2.22605 5.43802 0
M  V30 695 H 64.2904 -3.1369 5.23861 0
M  V30 696 H 65.7044 -0.905107 5.6611 0
M  V30 697 H 64.1014 -0.18924 5.99802 0
M  V30 698 H 65.1714 0.582699 4.81386 0
M  V30 699 N 66.5145 -1.57545 0.0417849 0
M  V30 700 C 67.4245 -2.14451 -0.951213 0
M  V30 701 C 68.4405 -1.09992 -1.34825 0
M  V30 702 O 69.6165 -1.42114 -1.42708 0
M  V30 703 C 66.6815 -2.67063 -2.21084 0
M  V30 704 C 65.7425 -3.86284 -1.87304 0
M  V30 705 C 64.9755 -4.36378 -3.07261 0
M  V30 706 O 65.1985 -3.85587 -4.20332 0
M  V30 707 O 64.1325 -5.28077 -2.88822 0
M  V30 708 H 67.9585 -2.99601 -0.497287 0
M  V30 709 H 65.5435 -1.48317 -0.179567 0
M  V30 710 H 67.4255 -3.00914 -2.95006 0
M  V30 711 H 66.1005 -1.84989 -2.65633 0
M  V30 712 H 65.0075 -3.57338 -1.10727 0
M  V30 713 H 66.3405 -4.6956 -1.47562 0
M  V30 714 N 67.9926 0.231505 -1.5589 0
M  V30 715 C 69.2386 0.954429 -1.79617 0
M  V30 716 C 69.5936 1.82367 -0.613199 0
M  V30 717 O 68.8866 1.87524 0.393094 0
M  V30 718 C 69.0806 1.83577 -3.0665 0
M  V30 719 C 68.9096 1.05334 -4.3719 0
M  V30 720 C 67.6796 0.75225 -4.99669 0
M  V30 721 C 69.8776 0.423444 -5.12554 0
M  V30 722 N 67.8596 -0.052627 -6.13877 0
M  V30 723 C 69.2306 -0.245287 -6.19515 0
M  V30 724 C 71.2856 0.335466 -4.96769 0
M  V30 725 C 69.9886 -0.993566 -7.12405 0
M  V30 726 C 72.0146 -0.399321 -5.9005 0
M  V30 727 C 71.3766 -1.05663 -6.9643 0
M  V30 728 H 67.4756 0.329846 -0.709031 0
M  V30 729 H 70.0596 0.226172 -1.93382 0
M  V30 730 H 68.2306 2.53592 -2.94186 0
M  V30 731 H 69.9626 2.49541 -3.18608 0
M  V30 732 H 66.7176 1.06783 -4.61405 0
M  V30 733 H 67.1416 -0.443609 -6.75545 0
M  V30 734 H 71.7836 0.829311 -4.14587 0
M  V30 735 H 69.5016 -1.49896 -7.94076 0
M  V30 736 H 73.0876 -0.468265 -5.79913 0
M  V30 737 H 71.9676 -1.61612 -7.67366 0
M  V30 738 N 69.4707 1.49531 0.497807 0
M  V30 739 C 70.7197 1.58426 1.24837 0
M  V30 740 C 71.0327 0.277643 1.93619 0
M  V30 741 O 72.2387 0.24517 2.70391 0
M  V30 742 C 70.6947 2.79538 2.26686 0
M  V30 743 C 70.3027 4.16971 1.63828 0
M  V30 744 C 72.0467 2.97764 3.0255 0
M  V30 745 C 69.9537 5.29301 2.63807 0
M  V30 746 H 68.8837 0.58989 0.469623 0
M  V30 747 H 71.5347 1.75923 0.521857 0
M  V30 748 H 69.9167 2.55542 3.02514 0
M  V30 749 H 71.0907 4.51116 0.939711 0
M  V30 750 H 69.4057 4.04129 1.00342 0
M  V30 751 H 72.0027 3.78856 3.77323 0
M  V30 752 H 72.3457 2.08448 3.60354 0
M  V30 753 H 72.8787 3.21815 2.33838 0
M  V30 754 H 69.6177 6.20687 2.10779 0
M  V30 755 H 69.1377 4.99606 3.31894 0
M  V30 756 H 70.8167 5.58768 3.2617 0
M  V30 757 N 70.9488 -0.749086 1.3866 0
M  V30 758 C 72.1968 -1.50535 1.34847 0
M  V30 759 C 72.5178 -1.94909 -0.0595016 0
M  V30 760 O 71.7878 -1.67973 -1.00806 0
M  V30 761 H 70.3678 -0.558395 0.49619 0
M  V30 762 H 73.0298 -0.890165 1.73384 0
M  V30 763 H 72.1258 -2.39413 2.00219 0
M  V30 764 N 72.4269 -1.23603 -0.977757 0
M  V30 765 C 73.6569 -1.09487 -1.75203 0
M  V30 766 C 74.0649 0.356321 -1.85814 0
M  V30 767 O 73.4079 1.25816 -1.33851 0
M  V30 768 C 73.4699 -1.64905 -3.19447 0
M  V30 769 C 73.1339 -3.13688 -3.32338 0
M  V30 770 C 74.1309 -4.10953 -3.18455 0
M  V30 771 C 71.8159 -3.53449 -3.56902 0
M  V30 772 C 73.8099 -5.45962 -3.28944 0
M  V30 773 C 71.4969 -4.88602 -3.6703 0
M  V30 774 C 72.4949 -5.84668 -3.53062 0
M  V30 775 O 72.1829 -7.17365 -3.62826 0
M  V30 776 H 71.9149 -0.38367 -0.556573 0
M  V30 777 H 74.4689 -1.6398 -1.23693 0
M  V30 778 H 72.6989 -1.04835 -3.72218 0
M  V30 779 H 74.3879 -1.46226 -3.78646 0
M  V30 780 H 75.1539 -3.81577 -2.99372 0
M  V30 781 H 71.0329 -2.79188 -3.66844 0
M  V30 782 H 74.5769 -6.20925 -3.17958 0
M  V30 783 H 70.4739 -5.17653 -3.85623 0
M  V30 784 H 71.2419 -7.2515 -3.79605 0
M  V30 785 N 73.905 1.17692 -1.04816 0
M  V30 786 C 75.154 1.87192 -0.751132 0
M  V30 787 C 75.467 1.8169 0.724441 0
M  V30 788 O 76.673 2.46625 1.13527 0
M  V30 789 C 75.129 3.35857 -1.29338 0
M  V30 790 C 74.737 3.4987 -2.79812 0
M  V30 791 C 76.481 4.10709 -1.07322 0
M  V30 792 C 74.388 4.92536 -3.27356 0
M  V30 793 H 73.318 0.701162 -0.277288 0
M  V30 794 H 75.969 1.32932 -1.26496 0
M  V30 795 H 74.351 3.89631 -0.707376 0
M  V30 796 H 75.525 3.06332 -3.44235 0
M  V30 797 H 73.84 2.88433 -3.00325 0
M  V30 798 H 76.437 5.15952 -1.4035 0
M  V30 799 H 76.78 4.16299 -0.0108001 0
M  V30 800 H 77.313 3.6313 -1.62423 0
M  V30 801 H 74.052 4.92119 -4.33012 0
M  V30 802 H 73.572 5.3676 -2.67673 0
M  V30 803 H 75.251 5.61288 -3.21815 0
M  V30 804 N 75.3831 0.828654 1.34056 0
M  V30 805 C 76.3311 0.242973 2.31327 0
M  V30 806 C 77.3251 -0.61944 1.57668 0
M  V30 807 O 78.5311 -0.51014 1.7262 0
M  V30 808 H 74.9061 0.059834 0.749616 0
M  V30 809 H 76.8771 1.07809 2.78244 0
M  V30 810 C 75.6261 -0.575733 3.429 0
M  V30 811 H 74.9491 0.0785582 3.99723 0
M  V30 812 H 76.3891 -0.951547 4.13185 0
M  V30 813 C 74.8481 -1.75044 2.87856 0
M  V30 814 O 75.3781 -2.84882 2.83205 0
M  V30 815 N 73.5841 -1.56903 2.44602 0
M  V30 816 H 73.1311 -0.675547 2.48584 0
M  V30 817 H 73.0891 -2.35652 2.08124 0
M  V30 818 N 76.8612 -1.46375 0.584142 0
M  V30 819 C 78.2722 -1.86031 0.157959 0
M  V30 820 C 78.6232 -1.48753 -1.27933 0
M  V30 821 O 77.7482 -0.903098 -1.96655 0
M  V30 822 C 78.3432 -3.37642 0.279892 0
M  V30 823 C 76.9022 -3.76289 -0.09143 0
M  V30 824 C 76.0492 -2.7039 0.615178 0
M  V30 825 H 79.0002 -1.37509 0.792274 0
M  V30 826 H 79.0212 -3.77275 -0.494364 0
M  V30 827 H 78.5332 -3.64742 1.32607 0
M  V30 828 H 76.6342 -3.54806 -1.13769 0
M  V30 829 H 76.7472 -4.78246 0.285886 0
M  V30 830 H 75.1112 -2.5464 0.0552833 0
M  V30 831 H 75.8942 -3.0033 1.66303 0
M  V30 832 N 78.3393 -0.321999 -1.54275 0
M  V30 833 C 79.5643 0.285791 -2.05422 0
M  V30 834 C 79.9893 1.45124 -1.19669 0
M  V30 835 O 79.3473 1.80132 -0.205441 0
M  V30 836 C 79.3953 0.69956 -3.53749 0
M  V30 837 O 78.4993 1.8021 -3.70942 0
M  V30 838 H 77.8403 0.0518962 -0.661969 0
M  V30 839 H 80.3703 -0.469954 -1.9913 0
M  V30 840 H 80.3803 0.982649 -3.9599 0
M  V30 841 H 79.0553 -0.152864 -4.15619 0
M  V30 842 H 77.6323 1.51794 -3.40607 0
M  V30 843 N 79.8174 1.5752 -0.0501392 0
M  V30 844 C 81.2334 1.56631 0.306402 0
M  V30 845 C 81.4334 1.0577 1.71508 0
M  V30 846 O 80.4894 0.713837 2.422 0
M  V30 847 C 81.8024 3.00393 0.135811 0
M  V30 848 C 83.3504 3.12315 0.206993 0
M  V30 849 C 83.8254 4.57954 0.064944 0
M  V30 850 N 85.3164 4.63041 0.121254 0
M  V30 851 C 86.0514 5.73389 0.0354381 0
M  V30 852 N 85.5474 6.92724 -0.102666 0
M  V30 853 N 87.3404 5.62026 0.090946 0
M  V30 854 H 79.4914 1.88903 -0.971046 0
M  V30 855 H 81.7544 0.869876 -0.376855 0
M  V30 856 H 81.4604 3.41635 -0.835384 0
M  V30 857 H 81.3344 3.66373 0.897275 0
M  V30 858 H 83.7214 2.70973 1.16866 0
M  V30 859 H 83.8024 2.49016 -0.585208 0
M  V30 860 H 83.4464 4.99981 -0.893394 0
M  V30 861 H 83.3764 5.19258 0.876277 0
M  V30 862 H 85.8674 3.77216 0.227284 0
M  V30 863 H 86.1804 7.72633 -0.160882 0
M  V30 864 H 84.5254 6.94864 -0.137737 0
M  V30 865 H 87.7164 4.67684 0.197388 0
M  V30 866 H 87.8894 6.47997 0.0206089 0
M  V30 867 N 81.2955 -0.223234 1.56011 0
M  V30 868 C 82.5435 -0.946003 1.78592 0
M  V30 869 C 82.8645 -1.84936 0.618349 0
M  V30 870 O 82.1345 -1.92473 -0.364833 0
M  V30 871 H 80.7145 -0.352298 0.658707 0
M  V30 872 H 83.3765 -0.235494 1.93472 0
M  V30 873 H 82.4725 -1.55381 2.70672 0
M  V30 874 N 82.7736 -1.49793 -0.48987 0
M  V30 875 C 84.0036 -1.6333 -1.26518 0
M  V30 876 C 84.4116 -0.308392 -1.8667 0
M  V30 877 O 83.7546 0.717512 -1.69108 0
M  V30 878 C 83.8166 -2.6522 -2.4269 0
M  V30 879 C 83.4806 -4.09279 -2.03321 0
M  V30 880 C 84.4776 -4.95738 -1.56652 0
M  V30 881 C 82.1626 -4.55082 -2.12616 0
M  V30 882 C 84.1566 -6.26041 -1.19795 0
M  V30 883 C 81.8436 -5.85396 -1.75371 0
M  V30 884 C 82.8416 -6.707 -1.29036 0
M  V30 885 O 82.5296 -7.98584 -0.92299 0
M  V30 886 H 82.2616 -0.552502 -0.389509 0
M  V30 887 H 84.8156 -1.96642 -0.593381 0
M  V30 888 H 83.0456 -2.27112 -3.12981 0
M  V30 889 H 84.7346 -2.68171 -3.04695 0
M  V30 890 H 85.5006 -4.61575 -1.48908 0
M  V30 891 H 81.3796 -3.88844 -2.47631 0
M  V30 892 H 84.9236 -6.92578 -0.835582 0
M  V30 893 H 80.8206 -6.19085 -1.82768 0
M  V30 894 H 81.5886 -8.11692 -1.05349 0
M  V30 895 N 84.2517 0.741722 -1.39055 0
M  V30 896 C 85.4797 1.53098 -1.39171 0
M  V30 897 C 85.8947 1.88794 0.0155099 0
M  V30 898 O 85.2517 1.53626 0.985159 0
M  V30 899 C 85.3027 2.82274 -2.2584 0
M  V30 900 O 85.0237 2.48097 -3.61081 0
M  V30 901 C 86.5247 3.76343 -2.34266 0
M  V30 902 H 83.7447 0.473335 -0.4756 0
M  V30 903 H 86.2887 0.917045 -1.82785 0
M  V30 904 H 84.4437 3.40015 -1.85656 0
M  V30 905 H 84.8577 3.31029 -4.06842 0
M  V30 906 H 86.3317 4.63898 -2.9917 0
M  V30 907 H 86.8087 4.17619 -1.35982 0
M  V30 908 H 87.4147 3.24523 -2.74891 0
M  V30 909 N 85.7298 1.2412 0.971189 0
M  V30 910 C 86.6778 1.02812 2.08644 0
M  V30 911 C 87.6718 -0.0358403 1.69362 0
M  V30 912 O 88.8778 0.118429 1.7961 0
M  V30 913 H 85.2528 0.315428 0.682649 0
M  V30 914 H 87.2238 1.97397 2.23779 0
M  V30 915 C 85.9728 0.645874 3.41649 0
M  V30 916 H 85.2958 1.45632 3.72332 0
M  V30 917 H 86.7358 0.536366 4.20594 0
M  V30 918 C 85.1948 -0.646713 3.30635 0
M  V30 919 O 85.7248 -1.69338 3.64263 0
M  V30 920 N 83.9308 -0.626115 2.83775 0
M  V30 921 H 83.4778 0.225988 2.56607 0
M  V30 922 H 83.4358 -1.49117 2.76788 0
M  V30 923 N 87.2079 -1.17134 1.05439 0
M  V30 924 C 88.4379 -1.91094 0.785274 0
M  V30 925 C 88.8459 -1.77198 -0.663142 0
M  V30 926 O 88.1889 -1.10835 -1.46497 0
M  V30 927 C 88.2509 -3.42594 1.08949 0
M  V30 928 C 87.9149 -3.80274 2.53458 0
M  V30 929 C 88.9119 -3.82912 3.51673 0
M  V30 930 C 86.5969 -4.11162 2.88532 0
M  V30 931 C 88.5909 -4.15913 4.83006 0
M  V30 932 C 86.2779 -4.43831 4.20068 0
M  V30 933 C 87.2759 -4.46185 5.17115 0
M  V30 934 O 86.9639 -4.78083 6.46291 0
M  V30 935 H 86.6959 -0.613073 0.284811 0
M  V30 936 H 89.2499 -1.49461 1.40893 0
M  V30 937 H 87.4799 -3.84534 0.408741 0
M  V30 938 H 89.1689 -3.97817 0.805991 0
M  V30 939 H 89.9349 -3.5917 3.25917 0
M  V30 940 H 85.8139 -4.085 2.13656 0
M  V30 941 H 89.3579 -4.17665 5.5875 0
M  V30 942 H 85.2549 -4.67037 4.45586 0
M  V30 943 H 86.0229 -4.9593 6.51149 0
M  V30 944 N 88.686 -0.835752 -1.33615 0
M  V30 945 C 89.634 -0.255238 -2.31195 0
M  V30 946 C 90.628 0.61107 -1.57995 0
M  V30 947 O 91.834 0.500979 -1.72888 0
M  V30 948 H 88.209 -0.0638085 -0.749288 0
M  V30 949 H 90.18 -1.09283 -2.77669 0
M  V30 950 C 88.929 0.55754 -3.43201 0
M  V30 951 H 88.252 -0.0997553 -3.99676 0
M  V30 952 H 89.692 0.929622 -4.13683 0
M  V30 953 C 88.151 1.73515 -2.88781 0
M  V30 954 O 88.681 2.83376 -2.84712 0
M  V30 955 N 86.887 1.55603 -2.4543 0
M  V30 956 H 86.434 0.662354 -2.48939 0
M  V30 957 H 86.392 2.34545 -2.09371 0
M  V30 958 N 90.1641 1.46063 -0.591896 0
M  V30 959 C 91.0961 2.28539 0.174001 0
M  V30 960 C 92.1091 1.39047 0.846753 0
M  V30 961 O 93.2981 1.63564 0.714774 0
M  V30 962 C 90.3981 3.14347 1.26645 0
M  V30 963 C 89.5711 4.32021 0.683856 0
M  V30 964 C 88.6301 4.99157 1.66518 0
M  V30 965 O 87.6561 5.56458 1.19763 0
M  V30 966 N 88.8581 4.97005 2.99943 0
M  V30 967 H 91.6231 2.94911 -0.533633 0
M  V30 968 H 89.1841 1.56077 -0.430294 0
M  V30 969 H 91.1761 3.56125 1.92242 0
M  V30 970 H 89.7461 2.49988 1.87682 0
M  V30 971 H 88.9661 3.93915 -0.1498 0
M  V30 972 H 90.2541 5.08059 0.274567 0
M  V30 973 H 89.6521 4.51714 3.40545 0
M  V30 974 H 88.2091 5.42696 3.61004 0
M  V30 975 N 91.6422 0.330177 1.54103 0
M  V30 976 C 92.5892 -0.532762 2.24567 0
M  V30 977 C 93.5592 -1.10635 1.23892 0
M  V30 978 O 94.7442 -1.14546 1.5259 0
M  V30 979 C 91.8842 -1.6845 3.01195 0
M  V30 980 C 90.9972 -1.13951 4.167 0
M  V30 981 C 90.1322 -2.25746 4.80845 0
M  V30 982 C 89.1712 -1.6853 5.88442 0
M  V30 983 N 88.3082 -2.74014 6.46421 0
M  V30 984 H 93.1482 0.0746905 2.97906 0
M  V30 985 H 90.6852 0.048632 1.4702 0
M  V30 986 H 92.6432 -2.36234 3.43874 0
M  V30 987 H 91.2732 -2.26314 2.30178 0
M  V30 988 H 90.3252 -0.35301 3.78758 0
M  V30 989 H 91.6372 -0.680892 4.94131 0
M  V30 990 H 90.7912 -3.01422 5.26526 0
M  V30 991 H 89.5302 -2.74947 4.0281 0
M  V30 992 H 88.5352 -0.913543 5.42157 0
M  V30 993 H 89.7602 -1.20198 6.68378 0
M  V30 994 H 87.7062 -3.22494 5.71256 0
M  V30 995 H 87.6232 -2.32735 7.19285 0
M  V30 996 H 88.8912 -3.49499 6.96757 0
M  V30 997 N 93.1203 -1.57491 0.0584922 0
M  V30 998 C 94.3673 -1.92978 -0.613648 0
M  V30 999 C 94.6953 -0.937461 -1.70417 0
M  V30 1000 O 93.9503 0.049078 -1.95638 0
M  V30 1001 C 94.2493 -3.3513 -1.24188 0
M  V30 1002 C 93.9153 -4.50037 -0.278826 0
M  V30 1003 C 92.5773 -4.81198 -0.0138447 0
M  V30 1004 C 94.9293 -5.19807 0.380777 0
M  V30 1005 C 92.2573 -5.79473 0.918052 0
M  V30 1006 C 94.6093 -6.19079 1.30091 0
M  V30 1007 C 93.2733 -6.48665 1.57449 0
M  V30 1008 H 92.5433 -0.706157 -0.22455 0
M  V30 1009 H 95.1903 -1.91082 0.126533 0
M  V30 1010 H 93.4953 -3.33429 -2.05749 0
M  V30 1011 H 95.1923 -3.59871 -1.769 0
M  V30 1012 H 91.7823 -4.25726 -0.495539 0
M  V30 1013 H 95.9663 -4.95939 0.189158 0
M  V30 1014 H 91.2223 -6.00727 1.1374 0
M  V30 1015 H 95.3963 -6.7225 1.81804 0
M  V30 1016 H 93.0233 -7.24628 2.29822 0
M  V30 1017 N 94.5984 0.214957 -1.56127 0
M  V30 1018 C 95.5454 1.26642 -1.92952 0
M  V30 1019 C 96.5154 1.46244 -0.78753 0
M  V30 1020 O 97.7004 1.59704 -1.04399 0
M  V30 1021 C 94.8404 2.6104 -2.25726 0
M  V30 1022 C 93.9534 2.49183 -3.52891 0
M  V30 1023 C 93.0884 3.76149 -3.7508 0
M  V30 1024 C 92.1274 3.59041 -4.95738 0
M  V30 1025 N 91.2644 4.77972 -5.14283 0
M  V30 1026 H 96.1044 0.945384 -2.82607 0
M  V30 1027 H 93.6414 0.455489 -1.3987 0
M  V30 1028 H 95.5994 3.39313 -2.42739 0
M  V30 1029 H 94.2294 2.91227 -1.39236 0
M  V30 1030 H 93.2814 1.6231 -3.44034 0
M  V30 1031 H 94.5934 2.32466 -4.41318 0
M  V30 1032 H 93.7474 4.62865 -3.92226 0
M  V30 1033 H 92.4864 3.95799 -2.84947 0
M  V30 1034 H 91.4914 2.7071 -4.78535 0
M  V30 1035 H 92.7164 3.40856 -5.87362 0
M  V30 1036 H 90.6624 4.97923 -4.27093 0
M  V30 1037 H 90.5794 4.64006 -5.96853 0
M  V30 1038 H 91.8474 5.66096 -5.35869 0
M  V30 1039 N 96.0765 1.50051 0.48192 0
M  V30 1040 C 97.3535 1.51009 1.2432 0
M  V30 1041 C 97.7335 0.248587 2.09631 0
M  V30 1042 O 97.0815 -0.768409 2.15192 0
M  V30 1043 C 97.2915 2.79981 2.08355 0
M  V30 1044 C 98.6395 3.3022 2.66908 0
M  V30 1045 O 99.6635 2.81228 2.18607 0
M  V30 1046 O 98.5225 4.15595 3.54884 0
M  V30 1047 H 95.6165 0.605239 0.563573 0
M  V30 1048 H 98.1625 1.62332 0.494627 0
M  V30 1049 H 96.9345 3.63275 1.45419 0
M  V30 1050 H 96.5575 2.7161 2.90368 0
M  V30 1051 N 97.5546 -0.734337 1.39446 0
M  V30 1052 C 98.5016 -1.84835 1.38219 0
M  V30 1053 C 99.4716 -1.64331 0.24179 0
M  V30 1054 O 100.657 -1.85728 0.437002 0
M  V30 1055 C 97.7966 -3.22355 1.23212 0
M  V30 1056 C 96.9096 -3.5456 2.46801 0
M  V30 1057 C 96.0446 -4.81485 2.24377 0
M  V30 1058 C 95.0836 -5.06536 3.43639 0
M  V30 1059 N 94.2206 -6.24665 3.20528 0
M  V30 1060 H 99.0606 -1.85219 2.33448 0
M  V30 1061 H 96.5976 -0.905039 1.15963 0
M  V30 1062 H 98.5556 -4.0174 1.12522 0
M  V30 1063 H 97.1856 -3.21248 0.316121 0
M  V30 1064 H 96.2376 -2.69872 2.68092 0
M  V30 1065 H 97.5496 -3.6899 3.3563 0
M  V30 1066 H 96.7036 -5.68852 2.10933 0
M  V30 1067 H 95.4426 -4.6923 1.32944 0
M  V30 1068 H 94.4476 -4.17632 3.5758 0
M  V30 1069 H 95.6726 -5.20676 4.35974 0
M  V30 1070 H 93.6186 -6.13696 2.3176 0
M  V30 1071 H 93.5356 -6.39685 4.02913 0
M  V30 1072 H 94.8036 -7.14868 3.10779 0
M  V30 1073 N 99.0327 -1.24633 -0.964593 0
M  V30 1074 C 99.9957 -1.0424 -2.04124 0
M  V30 1075 C 100.996 0.00137563 -1.608 0
M  V30 1076 O 102.186 -0.239883 -1.7254 0
M  V30 1077 C 99.3177 -0.580588 -3.3592 0
M  V30 1078 H 100.511 -1.99803 -2.23649 0
M  V30 1079 H 98.0637 -1.06899 -1.14027 0
M  V30 1080 H 98.7987 0.3781 -3.22088 0
M  V30 1081 H 98.5837 -1.33398 -3.6871 0
M  V30 1082 H 100.074 -0.459034 -4.15069 0
M  V30 1083 N 100.511 1.16574 -1.06058 0
M  V30 1084 C 101.739 1.90952 -0.796552 0
M  V30 1085 C 102.154 1.77302 0.648808 0
M  V30 1086 O 101.511 1.11605 1.44397 0
M  V30 1087 C 101.562 3.41736 -1.17894 0
M  V30 1088 O 101.283 3.54975 -2.56758 0
M  V30 1089 C 102.784 4.33169 -0.942308 0
M  V30 1090 H 100.004 0.605594 -0.288959 0
M  V30 1091 H 102.548 1.47777 -1.41358 0
M  V30 1092 H 100.703 3.82623 -0.606491 0
M  V30 1093 H 101.117 4.4846 -2.72 0
M  V30 1094 H 102.591 5.37439 -1.25952 0
M  V30 1095 H 103.068 4.3903 0.122078 0
M  V30 1096 H 103.674 3.98007 -1.49902 0
M  V30 1097 N 101.989 0.842826 1.3317 0
M  V30 1098 C 102.919 0.294028 2.31641 0
M  V30 1099 C 103.9 -0.600401 1.59151 0
M  V30 1100 O 105.085 -0.523124 1.87022 0
M  V30 1101 C 102.215 -0.528416 3.43257 0
M  V30 1102 C 101.169 0.27056 4.27144 0
M  V30 1103 C 100.495 -0.675881 5.30411 0
M  V30 1104 C 101.795 1.48981 5.00602 0
M  V30 1105 H 103.489 1.11681 2.77791 0
M  V30 1106 H 101.035 0.538478 1.33553 0
M  V30 1107 H 102.988 -0.922674 4.11175 0
M  V30 1108 H 101.712 -1.38445 2.95805 0
M  V30 1109 H 100.371 0.646427 3.60856 0
M  V30 1110 H 100.019 -1.52842 4.79216 0
M  V30 1111 H 99.7189 -0.145374 5.8742 0
M  V30 1112 H 101.243 -1.06757 6.01195 0
M  V30 1113 H 102.657 1.16849 5.61266 0
M  V30 1114 H 101.054 1.95739 5.6728 0
M  V30 1115 H 102.124 2.25746 4.29147 0
M  V30 1116 N 103.467 -1.45747 0.599634 0
M  V30 1117 C 104.695 -2.06668 0.0978551 0
M  V30 1118 C 105.11 -1.44562 -1.21439 0
M  V30 1119 O 104.467 -0.556923 -1.73795 0
M  V30 1120 C 104.518 -3.61456 -0.0567044 0
M  V30 1121 O 104.239 -4.21242 1.20361 0
M  V30 1122 C 105.74 -4.39345 -0.590869 0
M  V30 1123 H 102.96 -0.667825 0.0651943 0
M  V30 1124 H 105.504 -1.87115 0.82511 0
M  V30 1125 H 103.659 -3.80378 -0.734251 0
M  V30 1126 H 104.073 -5.14323 1.02821 0
M  V30 1127 H 105.547 -5.48182 -0.648131 0
M  V30 1128 H 106.024 -4.08568 -1.61147 0
M  V30 1129 H 106.63 -4.25268 0.0523679 0
M  V30 1130 N 104.945 -0.338344 -1.53925 0
M  V30 1131 C 106.173 0.261298 -2.05243 0
M  V30 1132 C 106.588 1.44625 -1.21363 0
M  V30 1133 O 105.945 1.80811 -0.247736 0
M  V30 1134 C 105.996 0.681412 -3.5502 0
M  V30 1135 O 105.717 -0.456414 -4.35716 0
M  V30 1136 C 107.218 1.34232 -4.22489 0
M  V30 1137 H 104.438 0.0513685 -0.669031 0
M  V30 1138 H 106.982 -0.488822 -1.98572 0
M  V30 1139 H 105.137 1.38148 -3.61931 0
M  V30 1140 H 105.551 -0.122564 -5.24357 0
M  V30 1141 H 107.025 1.58708 -5.28693 0
M  V30 1142 H 107.502 2.29426 -3.74514 0
M  V30 1143 H 108.108 0.684424 -4.19757 0
M  V30 1144 N 106.423 1.57458 -0.0668435 0
M  V30 1145 C 107.7 1.8469 0.644132 0
M  V30 1146 C 108.08 0.958343 1.88093 0
M  V30 1147 O 107.428 0.0233579 2.28488 0
M  V30 1148 C 107.638 3.34767 0.986509 0
M  V30 1149 C 108.986 4.02159 1.36212 0
M  V30 1150 O 110.01 3.39484 1.07839 0
M  V30 1151 O 108.869 5.12694 1.89227 0
M  V30 1152 H 105.963 0.762816 0.319437 0
M  V30 1153 H 108.509 1.6942 -0.0973986 0
M  V30 1154 H 107.281 3.91151 0.107883 0
M  V30 1155 H 106.904 3.55281 1.78497 0
M  V30 1156 N 107.901 -0.206675 1.56239 0
M  V30 1157 C 108.848 -1.25617 1.93621 0
M  V30 1158 C 109.818 -1.45824 0.795274 0
M  V30 1159 O 111.003 -1.59148 1.05245 0
M  V30 1160 C 108.143 -2.59839 2.27107 0
M  V30 1161 C 107.256 -2.47308 3.54207 0
M  V30 1162 C 106.391 -3.74155 3.7707 0
M  V30 1163 C 105.43 -3.56407 4.97635 0
M  V30 1164 N 104.567 -4.75238 5.1681 0
M  V30 1165 H 109.407 -0.930383 2.83104 0
M  V30 1166 H 106.944 -0.448065 1.4011 0
M  V30 1167 H 108.902 -3.38021 2.44535 0
M  V30 1168 H 107.532 -2.90485 1.40778 0
M  V30 1169 H 106.584 -1.60483 3.4489 0
M  V30 1170 H 107.896 -2.30122 4.42544 0
M  V30 1171 H 107.05 -4.60778 3.94675 0
M  V30 1172 H 105.789 -3.94282 2.87042 0
M  V30 1173 H 104.794 -2.68168 4.79964 0
M  V30 1174 H 106.019 -3.37736 5.89161 0
M  V30 1175 H 103.965 -4.95651 4.29728 0
M  V30 1176 H 103.882 -4.60835 5.99306 0
M  V30 1177 H 105.15 -5.63246 5.38864 0
M  V30 1178 N 109.379 -1.50304 -0.473955 0
M  V30 1179 C 110.604 -1.65175 -1.25427 0
M  V30 1180 C 111.029 -0.333673 -1.85117 0
M  V30 1181 O 110.387 0.702114 -1.67153 0
M  V30 1182 C 110.435 -2.74295 -2.34082 0
M  V30 1183 O 109.539 -2.35349 -3.38651 0
M  V30 1184 H 108.88 -0.551944 -0.369126 0
M  V30 1185 H 111.41 -1.96662 -0.564364 0
M  V30 1186 H 111.42 -2.97285 -2.79438 0
M  V30 1187 H 110.095 -3.69959 -1.90008 0
M  V30 1188 H 108.672 -2.22794 -2.99027 0
M  V30 1189 N 110.857 0.726932 -1.39834 0
M  V30 1190 C 112.082 1.52121 -1.40976 0
M  V30 1191 C 112.507 1.88098 -0.00826029 0
M  V30 1192 O 111.865 1.52479 0.980807 0
M  V30 1193 C 111.913 2.78021 -2.29644 0
M  V30 1194 O 111.017 3.74272 -1.73188 0
M  V30 1195 H 110.358 0.45908 -0.479731 0
M  V30 1196 H 112.888 0.896207 -1.83927 0
M  V30 1197 H 112.898 3.26671 -2.44438 0
M  V30 1198 H 111.573 2.51169 -3.31492 0
M  V30 1199 H 110.15 3.33073 -1.6768 0
M  V30 1200 N 112.336 1.25143 0.95797 0
M  V30 1201 C 113.561 1.12521 1.74223 0
M  V30 1202 C 113.986 -0.317402 1.85403 0
M  V30 1203 O 113.344 -1.2299 1.33204 0
M  V30 1204 C 113.392 1.78062 3.1357 0
M  V30 1205 O 112.496 1.058 3.98598 0
M  V30 1206 H 111.837 0.39304 0.535178 0
M  V30 1207 H 114.367 1.65641 1.201 0
M  V30 1208 H 114.377 1.84213 3.64046 0
M  V30 1209 H 113.052 2.83021 3.04749 0
M  V30 1210 H 111.629 1.07506 3.57067 0
M  V30 1211 N 113.814 -1.1601 1.06675 0
M  V30 1212 C 115.042 -1.90527 0.806667 0
M  V30 1213 C 115.457 -1.77643 -0.639396 0
M  V30 1214 O 114.814 -1.12369 -1.43803 0
M  V30 1215 C 114.865 -3.41106 1.19705 0
M  V30 1216 O 114.586 -3.53608 2.58636 0
M  V30 1217 C 116.087 -4.32663 0.965266 0
M  V30 1218 H 113.307 -0.604053 0.292166 0
M  V30 1219 H 115.851 -1.47026 1.4214 0
M  V30 1220 H 114.006 -3.82296 0.626774 0
M  V30 1221 H 114.42 -4.47011 2.74375 0
M  V30 1222 H 115.894 -5.36763 1.288 0
M  V30 1223 H 116.371 -4.39089 -0.0987936 0
M  V30 1224 H 116.977 -3.97206 1.52011 0
M  V30 1225 N 115.292 -0.849877 -1.32721 0
M  V30 1226 C 116.255 -0.296122 -2.27279 0
M  V30 1227 C 117.255 0.541458 -1.5141 0
M  V30 1228 O 118.445 0.353658 -1.70572 0
M  V30 1229 C 115.577 0.581579 -3.35902 0
M  V30 1230 H 116.77 -1.13064 -2.77771 0
M  V30 1231 H 114.323 -0.62383 -1.43311 0
M  V30 1232 H 115.058 1.43809 -2.9067 0
M  V30 1233 H 114.843 -0.0178814 -3.92096 0
M  V30 1234 H 116.333 0.961951 -4.0637 0
M  V30 1235 N 116.77 1.45427 -0.607355 0
M  V30 1236 C 118 2.06314 -0.108656 0
M  V30 1237 C 118.408 1.45269 1.21217 0
M  V30 1238 O 117.751 0.561115 1.74921 0
M  V30 1239 C 117.813 3.59345 0.105618 0
M  V30 1240 C 117.477 4.42723 -1.13337 0
M  V30 1241 C 118.474 4.77715 -2.05145 0
M  V30 1242 C 116.159 4.83478 -1.36213 0
M  V30 1243 C 118.153 5.52317 -3.18158 0
M  V30 1244 C 115.84 5.57835 -2.49527 0
M  V30 1245 C 116.838 5.92171 -3.40327 0
M  V30 1246 O 116.526 6.65019 -4.51669 0
M  V30 1247 H 116.258 0.672782 -0.0658842 0
M  V30 1248 H 118.812 1.87664 -0.834945 0
M  V30 1249 H 117.042 3.76394 0.886796 0
M  V30 1250 H 118.731 4.02076 0.555886 0
M  V30 1251 H 119.497 4.46787 -1.88697 0
M  V30 1252 H 115.376 4.56188 -0.664362 0
M  V30 1253 H 118.92 5.79036 -3.89054 0
M  V30 1254 H 114.817 5.88177 -2.65928 0
M  V30 1255 H 115.585 6.83469 -4.50348 0
M  V30 1256 N 118.248 0.346503 1.53744 0
M  V30 1257 C 119.181 -0.552023 2.21423 0
M  V30 1258 C 120.159 -1.09798 1.19929 0
M  V30 1259 O 121.343 -1.1577 1.4876 0
M  V30 1260 C 118.47 -1.75972 2.89398 0
M  V30 1261 C 117.516 -1.34295 4.04805 0
M  V30 1262 S 118.349 -0.360263 5.34287 0
M  V30 1263 C 119.505 -1.57473 6.05767 0
M  V30 1264 H 119.738 0.0228119 2.97291 0
M  V30 1265 H 117.271 0.130579 1.53847 0
M  V30 1266 H 119.229 -2.45256 3.2918 0
M  V30 1267 H 117.89 -2.30578 2.1329 0
M  V30 1268 H 117.083 -2.24349 4.51313 0
M  V30 1269 H 116.685 -0.729555 3.66815 0
M  V30 1270 H 118.977 -2.50875 6.29339 0
M  V30 1271 H 119.92 -1.15138 6.98676 0
M  V30 1272 H 120.328 -1.77212 5.35963 0
M  V30 1273 N 119.726 -1.57421 0.075193 0
M  V30 1274 C 120.658 -2.09904 -0.920483 0
M  V30 1275 C 121.671 -1.03191 -1.25918 0
M  V30 1276 O 122.86 -1.30695 -1.21577 0
M  V30 1277 C 119.96 -2.54726 -2.23534 0
M  V30 1278 C 119.133 -3.8505 -2.07498 0
M  V30 1279 C 118.192 -4.15929 -3.22319 0
M  V30 1280 O 117.218 -4.85474 -2.9716 0
M  V30 1281 N 118.42 -3.69745 -4.47514 0
M  V30 1282 H 121.185 -2.95954 -0.472359 0
M  V30 1283 H 118.746 -1.61523 -0.110444 0
M  V30 1284 H 120.738 -2.72443 -2.9926 0
M  V30 1285 H 119.308 -1.73795 -2.59835 0
M  V30 1286 H 118.528 -3.76679 -1.16219 0
M  V30 1287 H 119.816 -4.70348 -1.94038 0
M  V30 1288 H 119.214 -3.13569 -4.7084 0
M  V30 1289 H 117.771 -3.92655 -5.20255 0
M  V30 1290 N 121.204 0.198386 -1.56346 0
M  V30 1291 C 122.134 1.24865 -1.9731 0
M  V30 1292 C 123.115 1.47651 -0.844576 0
M  V30 1293 O 124.3 1.59444 -1.10866 0
M  V30 1294 C 121.43 2.59358 -2.30977 0
M  V30 1295 C 120.384 2.5119 -3.46537 0
M  V30 1296 C 119.71 3.89926 -3.65871 0
M  V30 1297 C 121.01 2.03977 -4.80823 0
M  V30 1298 H 122.704 0.908252 -2.85291 0
M  V30 1299 H 120.25 0.435462 -1.37258 0
M  V30 1300 H 122.203 3.33011 -2.58228 0
M  V30 1301 H 120.927 2.95132 -1.39874 0
M  V30 1302 H 119.586 1.79993 -3.19371 0
M  V30 1303 H 119.234 4.23046 -2.72105 0
M  V30 1304 H 118.934 3.85336 -4.4361 0
M  V30 1305 H 120.458 4.65205 -3.95495 0
M  V30 1306 H 121.872 2.67386 -5.07127 0
M  V30 1307 H 120.269 2.10397 -5.62008 0
M  V30 1308 H 121.339 0.992861 -4.74626 0
M  V30 1309 N 122.682 1.50554 0.465978 0
M  V30 1310 C 123.907 1.65838 1.24549 0
M  V30 1311 C 124.332 0.343486 1.84937 0
M  V30 1312 O 123.69 -0.69324 1.67523 0
M  V30 1313 C 123.738 2.75533 2.32624 0
M  V30 1314 O 122.842 2.37142 3.37398 0
M  V30 1315 H 122.183 0.553893 0.366194 0
M  V30 1316 H 124.713 1.96959 0.553927 0
M  V30 1317 H 124.723 2.98763 2.77857 0
M  V30 1318 H 123.398 3.70962 1.88043 0
M  V30 1319 H 121.975 2.24377 2.97841 0
M  V30 1320 N 124.16 -0.719506 1.40217 0
M  V30 1321 C 125.385 -1.51371 1.4178 0
M  V30 1322 C 125.81 -1.88091 0.0182355 0
M  V30 1323 O 125.168 -1.52997 -0.972707 0
M  V30 1324 C 125.216 -2.768 2.31115 0
M  V30 1325 O 124.32 -3.73349 1.7517 0
M  V30 1326 H 123.661 -0.456529 0.482159 0
M  V30 1327 H 126.191 -0.88644 1.844 0
M  V30 1328 H 126.201 -3.25371 2.46167 0
M  V30 1329 H 124.876 -2.49407 3.3282 0
M  V30 1330 H 123.453 -3.32179 1.69444 0
M  V30 1331 N 125.638 -1.25649 -0.95132 0
M  V30 1332 C 126.568 -1.08808 -2.06599 0
M  V30 1333 C 127.549 0.00382547 -1.701 0
M  V30 1334 O 128.734 -0.166325 -1.93486 0
M  V30 1335 C 125.864 -0.709542 -3.39975 0
M  V30 1336 C 124.818 -1.75206 -3.90496 0
M  V30 1337 C 124.144 -1.22811 -5.20405 0
M  V30 1338 C 125.444 -3.15153 -4.16504 0
M  V30 1339 H 127.138 -2.02048 -2.20946 0
M  V30 1340 H 124.684 -0.972835 -1.06169 0
M  V30 1341 H 126.637 -0.578649 -4.17408 0
M  V30 1342 H 125.361 0.258556 -3.25575 0
M  V30 1343 H 124.02 -1.87145 -3.15234 0
M  V30 1344 H 123.668 -0.250145 -5.02378 0
M  V30 1345 H 123.368 -1.92492 -5.55176 0
M  V30 1346 H 124.892 -1.10968 -6.00432 0
M  V30 1347 H 126.306 -3.06349 -4.84586 0
M  V30 1348 H 124.703 -3.82333 -4.62538 0
M  V30 1349 H 125.773 -3.61966 -3.22658 0
M  V30 1350 N 127.117 1.15442 -1.07289 0
M  V30 1351 C 128.345 1.90096 -0.81676 0
M  V30 1352 C 128.76 1.7798 0.629966 0
M  V30 1353 O 128.117 1.1313 1.43206 0
M  V30 1354 C 128.168 3.40466 -1.21512 0
M  V30 1355 O 127.889 3.52232 -2.60508 0
M  V30 1356 C 129.39 4.32145 -0.988198 0
M  V30 1357 H 126.61 0.602495 -0.295366 0
M  V30 1358 H 129.154 1.4627 -1.42918 0
M  V30 1359 H 127.309 3.81958 -0.647039 0
M  V30 1360 H 127.723 4.45549 -2.76742 0
M  V30 1361 H 129.197 5.36072 -1.31645 0
M  V30 1362 H 129.674 4.39135 0.0755063 0
M  V30 1363 H 130.28 3.96395 -1.54115 0
M  V30 1364 N 128.595 0.856903 1.32268 0
M  V30 1365 C 129.82 0.474569 2.01897 0
M  V30 1366 C 130.245 -0.921766 1.63967 0
M  V30 1367 O 129.603 -1.60589 0.84148 0
M  V30 1368 C 129.651 0.623799 3.55164 0
M  V30 1369 O 128.755 -0.342459 4.10976 0
M  V30 1370 H 128.096 0.190422 0.63611 0
M  V30 1371 H 130.626 1.15672 1.68764 0
M  V30 1372 H 130.636 0.512169 4.04773 0
M  V30 1373 H 129.311 1.64202 3.82113 0
M  V30 1374 H 127.888 -0.18688 3.72431 0
M  V30 1375 N 130.073 -1.45103 0.615059 0
M  V30 1376 C 130.983 -2.34382 -0.101034 0
M  V30 1377 C 131.999 -1.51681 -0.852585 0
M  V30 1378 O 133.175 -1.8446 -0.808484 0
M  V30 1379 C 130.24 -3.29417 -1.08099 0
M  V30 1380 C 129.301 -4.28025 -0.330577 0
M  V30 1381 C 128.534 -5.1852 -1.26385 0
M  V30 1382 O 128.757 -5.12598 -2.50198 0
M  V30 1383 O 127.691 -5.97122 -0.756866 0
M  V30 1384 H 131.517 -2.97033 0.632855 0
M  V30 1385 H 129.102 -1.4461 0.375293 0
M  V30 1386 H 130.984 -3.87958 -1.6452 0
M  V30 1387 H 129.659 -2.69321 -1.79577 0
M  V30 1388 H 128.566 -3.73078 0.276283 0
M  V30 1389 H 129.899 -4.90997 0.343866 0
M  V30 1390 N 131.551 -0.354651 -1.53558 0
M  V30 1391 C 132.828 0.294281 -1.93374 0
M  V30 1392 C 133.208 1.67313 -1.28723 0
M  V30 1393 O 132.556 2.24179 -0.442247 0
M  V30 1394 C 132.766 0.355445 -3.47185 0
M  V30 1395 C 134.114 0.601007 -4.20325 0
M  V30 1396 O 135.138 0.437106 -3.53508 0
M  V30 1397 O 133.997 0.919322 -5.38712 0
M  V30 1398 H 131.091 0.174033 -0.808481 0
M  V30 1399 H 133.637 -0.406638 -1.64756 0
M  V30 1400 H 132.409 -0.611729 -3.86489 0
M  V30 1401 H 132.032 1.1027 -3.82003 0
M  V30 1402 N 133.029 1.57378 -0.0835403 0
M  V30 1403 C 134.254 1.98682 0.594987 0
M  V30 1404 C 134.679 0.961969 1.61641 0
M  V30 1405 O 134.037 -0.0709989 1.81161 0
M  V30 1406 C 134.085 3.38988 1.2296 0
M  V30 1407 O 133.189 3.39208 2.34546 0
M  V30 1408 H 132.53 0.646368 0.152002 0
M  V30 1409 H 135.06 2.03961 -0.161533 0
M  V30 1410 H 135.07 3.76431 1.57366 0
M  V30 1411 H 133.745 4.13107 0.481228 0
M  V30 1412 H 132.322 3.13548 2.01846 0
M  V30 1413 N 134.507 -0.190092 1.56449 0
M  V30 1414 C 135.47 -1.21925 1.9408 0
M  V30 1415 C 136.47 -1.38176 0.822431 0
M  V30 1416 O 137.66 -1.35903 1.08977 0
M  V30 1417 C 134.792 -2.58773 2.21922 0
M  V30 1418 H 135.985 -0.897464 2.86157 0
M  V30 1419 H 133.538 -0.43181 1.50217 0
M  V30 1420 H 134.273 -2.95998 1.32499 0
M  V30 1421 H 134.058 -2.48348 3.03424 0
M  V30 1422 H 135.548 -3.32978 2.52022 0
M  V30 1423 N 135.985 -1.50799 -0.457987 0
M  V30 1424 C 137.231 -1.62683 -1.21088 0
M  V30 1425 C 137.564 -0.332268 -1.91336 0
M  V30 1426 O 136.839 0.667043 -1.82704 0
M  V30 1427 C 137.122 -2.81615 -2.24422 0
M  V30 1428 C 136.975 -4.20989 -1.58392 0
M  V30 1429 C 138.294 -2.96085 -3.2561 0
M  V30 1430 H 135.413 -0.592087 -0.438864 0
M  V30 1431 H 138.055 -1.83225 -0.50286 0
M  V30 1432 H 136.205 -2.64231 -2.84806 0
M  V30 1433 H 137.877 -4.49994 -1.01504 0
M  V30 1434 H 136.12 -4.24641 -0.886704 0
M  V30 1435 H 136.791 -5.0016 -2.33547 0
M  V30 1436 H 139.267 -3.12042 -2.75262 0
M  V30 1437 H 138.143 -3.80902 -3.95228 0
M  V30 1438 H 138.404 -2.0726 -3.90507 0
M  V30 1439 N 137.463 0.71206 -1.40597 0
M  V30 1440 C 138.693 1.49894 -1.42181 0
M  V30 1441 C 139.101 1.89189 -0.0208078 0
M  V30 1442 O 138.444 1.56223 0.966436 0
M  V30 1443 C 138.506 2.80215 -2.25211 0
M  V30 1444 C 138.17 2.63221 -3.73582 0
M  V30 1445 C 139.167 2.30249 -4.66135 0
M  V30 1446 C 136.852 2.79376 -4.17438 0
M  V30 1447 C 138.846 2.13645 -6.00529 0
M  V30 1448 C 136.533 2.6239 -5.51901 0
M  V30 1449 C 137.531 2.29573 -6.43262 0
M  V30 1450 O 137.219 2.12719 -7.75246 0
M  V30 1451 H 136.951 0.469031 -0.486812 0
M  V30 1452 H 139.505 0.88564 -1.85326 0
M  V30 1453 H 137.735 3.4389 -1.76852 0
M  V30 1454 H 139.424 3.41947 -2.18694 0
M  V30 1455 H 140.19 2.17398 -4.33547 0
M  V30 1456 H 136.069 3.03906 -3.46644 0
M  V30 1457 H 139.613 1.87953 -6.71803 0
M  V30 1458 H 135.51 2.74826 -5.84073 0
M  V30 1459 H 136.278 2.27611 -7.86216 0
M  V30 1460 N 138.941 1.26152 0.944643 0
M  V30 1461 C 140.171 1.14094 1.72239 0
M  V30 1462 C 140.579 -0.306931 1.86694 0
M  V30 1463 O 139.922 -1.22222 1.3714 0
M  V30 1464 C 139.984 1.73316 3.14963 0
M  V30 1465 C 139.648 3.2239 3.23904 0
M  V30 1466 C 140.645 4.19252 3.07447 0
M  V30 1467 C 138.33 3.62788 3.47405 0
M  V30 1468 C 140.324 5.54491 3.14353 0
M  V30 1469 C 138.011 4.98162 3.53947 0
M  V30 1470 C 139.009 5.93823 3.37436 0
M  V30 1471 O 138.697 7.26732 3.43679 0
M  V30 1472 H 138.429 0.398292 0.546205 0
M  V30 1473 H 140.983 1.67201 1.19301 0
M  V30 1474 H 139.213 1.14667 3.69308 0
M  V30 1475 H 140.902 1.56214 3.74636 0
M  V30 1476 H 141.668 3.8938 2.8915 0
M  V30 1477 H 137.547 2.88816 3.59313 0
M  V30 1478 H 141.091 6.29137 3.01384 0
M  V30 1479 H 136.988 5.27695 3.71763 0
M  V30 1480 H 137.756 7.3496 3.60245 0
M  V30 1481 N 140.419 -1.14872 1.07899 0
M  V30 1482 C 141.659 -1.8745 0.814965 0
M  V30 1483 C 142.023 -1.80758 -0.64733 0
M  V30 1484 O 143.224 -2.48422 -1.02664 0
M  V30 1485 C 141.495 -3.32286 1.31607 0
M  V30 1486 S 143.054 -4.22537 1.18357 0
M  V30 1487 H 139.872 -0.646833 0.295174 0
M  V30 1488 H 142.474 -1.38555 1.37923 0
M  V30 1489 H 141.178 -3.34703 2.37491 0
M  V30 1490 H 140.709 -3.86238 0.747261 0
M  V30 1491 H 142.724 -4.96044 0.124586 0
M  V30 1492 N 141.898 -0.863906 -1.31812 0
M  V30 1493 C 142.861 -0.320212 -2.26952 0
M  V30 1494 C 143.861 0.525369 -1.51975 0
M  V30 1495 O 145.051 0.335547 -1.70938 0
M  V30 1496 C 142.183 0.545919 -3.365 0
M  V30 1497 H 143.376 -1.16004 -2.76556 0
M  V30 1498 H 140.929 -0.638995 -1.42641 0
M  V30 1499 H 141.664 1.40718 -2.92179 0
M  V30 1500 H 141.449 -0.0594674 -3.92055 0
M  V30 1501 H 142.939 0.918796 -4.07367 0
M  V30 1502 N 143.376 1.44774 -0.622745 0
M  V30 1503 C 144.792 1.56986 -0.287652 0
M  V30 1504 C 144.992 1.61167 1.20944 0
M  V30 1505 O 144.048 1.55015 1.99315 0
M  V30 1506 C 145.361 2.84551 -0.972188 0
M  V30 1507 C 146.909 2.9825 -0.949536 0
M  V30 1508 C 147.384 4.28605 -1.61437 0
M  V30 1509 N 148.875 4.35399 -1.58057 0
M  V30 1510 C 149.61 5.34964 -2.064 0
M  V30 1511 N 149.106 6.40981 -2.62897 0
M  V30 1512 N 150.899 5.26419 -1.97078 0
M  V30 1513 H 143.05 1.40304 -1.59463 0
M  V30 1514 H 145.313 0.671794 -0.668878 0
M  V30 1515 H 145.019 2.87417 -2.02693 0
M  V30 1516 H 144.893 3.73807 -0.504771 0
M  V30 1517 H 147.28 2.94941 0.0967067 0
M  V30 1518 H 147.361 2.10364 -1.45536 0
M  V30 1519 H 147.005 4.32672 -2.66002 0
M  V30 1520 H 146.935 5.15334 -1.08344 0
M  V30 1521 H 149.426 3.59397 -1.16801 0
M  V30 1522 H 149.739 7.13225 -2.97539 0
M  V30 1523 H 148.084 6.4169 -2.66943 0
M  V30 1524 H 151.275 4.42504 -1.52669 0
M  V30 1525 H 151.448 6.03861 -2.35066 0
M  V30 1526 N 144.854 0.36279 1.53368 0
M  V30 1527 C 146.084 -0.228281 2.05335 0
M  V30 1528 C 146.492 -1.43226 1.23625 0
M  V30 1529 O 145.835 -1.81717 0.269206 0
M  V30 1530 C 145.897 -0.688549 3.52845 0
M  V30 1531 C 145.561 0.398362 4.5526 0
M  V30 1532 C 146.558 1.24732 5.04716 0
M  V30 1533 C 144.243 0.557805 4.99193 0
M  V30 1534 C 146.237 2.2411 5.96702 0
M  V30 1535 C 143.924 1.55495 5.90986 0
M  V30 1536 C 144.922 2.39503 6.39631 0
M  V30 1537 O 144.61 3.37517 7.29615 0
M  V30 1538 H 144.342 -0.044395 0.674541 0
M  V30 1539 H 146.896 0.518668 1.98744 0
M  V30 1540 H 145.126 -1.48706 3.56964 0
M  V30 1541 H 146.815 -1.20231 3.87685 0
M  V30 1542 H 147.581 1.13532 4.71525 0
M  V30 1543 H 143.46 -0.0862959 4.60919 0
M  V30 1544 H 147.004 2.89718 6.34594 0
M  V30 1545 H 142.901 1.66744 6.23592 0
M  V30 1546 H 143.669 3.33213 7.47604 0
M  V30 1547 N 146.332 -1.57332 0.0918853 0
M  V30 1548 C 147.562 -1.98286 -0.580205 0
M  V30 1549 C 147.97 -0.969713 -1.6246 0
M  V30 1550 O 147.313 0.0493501 -1.83634 0
M  V30 1551 C 147.375 -3.35603 -1.28882 0
M  V30 1552 C 147.039 -4.55285 -0.395559 0
M  V30 1553 C 148.036 -5.18687 0.355002 0
M  V30 1554 C 145.721 -5.01314 -0.314556 0
M  V30 1555 C 147.715 -6.26484 1.17458 0
M  V30 1556 C 145.402 -6.08979 0.508677 0
M  V30 1557 C 146.4 -6.71429 1.2519 0
M  V30 1558 O 146.088 -7.77018 2.06151 0
M  V30 1559 H 145.82 -0.656678 -0.160466 0
M  V30 1560 H 148.374 -2.04721 0.16688 0
M  V30 1561 H 146.604 -3.25842 -2.08241 0
M  V30 1562 H 148.293 -3.61026 -1.85512 0
M  V30 1563 H 149.059 -4.84058 0.302134 0
M  V30 1564 H 144.938 -4.5247 -0.882697 0
M  V30 1565 H 148.482 -6.75159 1.75518 0
M  V30 1566 H 144.379 -6.4304 0.563037 0
M  V30 1567 H 145.147 -7.93991 1.98799 0
M  V30 1568 N 147.81 0.181792 -1.56548 0
M  V30 1569 C 149.087 0.926765 -1.72251 0
M  V30 1570 C 149.467 2.00831 -0.650386 0
M  V30 1571 O 148.815 2.26008 0.336521 0
M  V30 1572 C 149.025 1.50106 -3.1507 0
M  V30 1573 C 150.373 1.97805 -3.75711 0
M  V30 1574 O 151.397 1.59922 -3.18282 0
M  V30 1575 O 150.256 2.67555 -4.76525 0
M  V30 1576 H 147.35 0.435506 -0.703039 0
M  V30 1577 H 149.896 0.170443 -1.68842 0
M  V30 1578 H 148.668 0.72212 -3.84579 0
M  V30 1579 H 148.291 2.32186 -3.22763 0
M  V30 1580 N 149.288 1.51039 0.449983 0
M  V30 1581 C 150.565 1.53612 1.21089 0
M  V30 1582 C 150.945 0.292997 2.09057 0
M  V30 1583 O 150.293 -0.72259 2.16774 0
M  V30 1584 C 150.503 2.84337 2.0237 0
M  V30 1585 C 151.851 3.35807 2.59843 0
M  V30 1586 O 152.875 2.85802 2.12593 0
M  V30 1587 O 151.734 4.23029 3.45989 0
M  V30 1588 H 148.828 0.617057 0.550608 0
M  V30 1589 H 151.374 1.63344 0.460082 0
M  V30 1590 H 150.146 3.66278 1.37681 0
M  V30 1591 H 149.769 2.77708 2.84542 0
M  V30 1592 N 150.766 -0.704594 1.40972 0
M  V30 1593 C 151.716 -1.81051 1.38581 0
M  V30 1594 C 152.7 -1.58759 0.261585 0
M  V30 1595 O 153.892 -1.69745 0.501556 0
M  V30 1596 C 151.021 -3.19279 1.26157 0
M  V30 1597 C 150.107 -3.47296 2.43405 0
M  V30 1598 N 150.498 -3.46064 3.68881 0
M  V30 1599 C 148.796 -3.77804 2.37023 0
M  V30 1600 C 149.497 -3.72733 4.46592 0
M  V30 1601 N 148.473 -3.9203 3.76581 0
M  V30 1602 H 152.275 -1.78448 2.33525 0
M  V30 1603 H 149.789 -0.904198 1.349 0
M  V30 1604 H 151.786 -3.98488 1.22526 0
M  V30 1605 H 150.446 -3.231 0.321902 0
M  V30 1606 H 151.457 -3.26656 4.01891 0
M  V30 1607 H 148.134 -3.8905 1.51481 0
M  V30 1608 H 149.524 -3.77993 5.55492 0
M  V30 1609 N 152.244 -1.26651 -0.937939 0
M  V30 1610 C 153.474 -1.15006 -1.71631 0
M  V30 1611 C 153.882 0.297026 -1.86854 0
M  V30 1612 O 153.225 1.21493 -1.37786 0
M  V30 1613 C 153.287 -1.74984 -3.14039 0
M  V30 1614 C 152.951 -3.24103 -3.2219 0
M  V30 1615 C 153.948 -4.20877 -3.05219 0
M  V30 1616 C 151.633 -3.64625 -3.45476 0
M  V30 1617 C 153.627 -5.56151 -3.11408 0
M  V30 1618 C 151.314 -5.00032 -3.513 0
M  V30 1619 C 152.312 -5.95604 -3.34282 0
M  V30 1620 O 152 -7.28545 -3.3982 0
M  V30 1621 H 151.732 -0.401183 -0.544085 0
M  V30 1622 H 154.286 -1.67832 -1.18413 0
M  V30 1623 H 152.516 -1.16624 -3.68695 0
M  V30 1624 H 154.205 -1.58199 -3.73802 0
M  V30 1625 H 154.971 -3.90908 -2.87081 0
M  V30 1626 H 150.85 -2.90718 -3.57777 0
M  V30 1627 H 154.394 -6.30727 -2.98043 0
M  V30 1628 H 150.291 -5.29659 -3.68959 0
M  V30 1629 H 151.059 -7.3686 -3.56343 0
M  V30 1630 N 153.722 1.14298 -1.08507 0
M  V30 1631 C 154.962 1.87016 -0.824894 0
M  V30 1632 C 155.326 1.81099 0.637735 0
M  V30 1633 O 156.527 2.48963 1.01345 0
M  V30 1634 C 154.798 3.31584 -1.33368 0
M  V30 1635 S 156.357 4.21903 -1.20596 0
M  V30 1636 H 153.175 0.645259 -0.2986 0
M  V30 1637 H 155.777 1.37822 -1.38656 0
M  V30 1638 H 154.481 3.33439 -2.39262 0
M  V30 1639 H 154.012 3.85836 -0.767734 0
M  V30 1640 H 156.027 4.95971 -0.150891 0
M  V30 1641 N 155.201 0.870884 1.31352 0
M  V30 1642 C 156.131 0.343096 2.30966 0
M  V30 1643 C 157.112 -0.566507 1.60389 0
M  V30 1644 O 158.297 -0.483336 1.88089 0
M  V30 1645 C 155.427 -0.455487 3.443 0
M  V30 1646 C 154.381 0.361103 4.26474 0
M  V30 1647 C 153.707 -0.563221 5.31725 0
M  V30 1648 C 155.007 1.59566 4.97329 0
M  V30 1649 H 156.701 1.17548 2.75359 0
M  V30 1650 H 154.247 0.566686 1.32381 0
M  V30 1651 H 156.2 -0.83525 4.13039 0
M  V30 1652 H 154.924 -1.32139 2.98675 0
M  V30 1653 H 153.583 0.722825 3.59403 0
M  V30 1654 H 153.231 -1.42643 4.82351 0
M  V30 1655 H 152.931 -0.0207409 5.87596 0
M  V30 1656 H 154.455 -0.939808 6.03324 0
M  V30 1657 H 155.869 1.28728 5.58661 0
M  V30 1658 H 154.266 2.07728 5.63 0
M  V30 1659 H 155.336 2.34798 4.24262 0
M  V30 1660 N 156.679 -1.44442 0.630414 0
M  V30 1661 C 157.956 -1.9549 0.0655657 0
M  V30 1662 C 158.336 -1.5724 -1.40851 0
M  V30 1663 O 157.684 -0.846116 -2.12257 0
M  V30 1664 C 157.894 -3.47812 0.287691 0
M  V30 1665 C 159.242 -4.24216 0.180513 0
M  V30 1666 O 160.266 -3.55526 0.219019 0
M  V30 1667 O 159.125 -5.46434 0.0848493 0
M  V30 1668 H 156.219 -0.826688 -0.0227177 0
M  V30 1669 H 158.765 -1.54496 0.702068 0
M  V30 1670 H 157.537 -3.687 1.31056 0
M  V30 1671 H 157.16 -3.95751 -0.382984 0
M  V30 1672 N 158.157 -0.370918 -1.53173 0
M  V30 1673 C 159.387 0.217389 -2.05453 0
M  V30 1674 C 159.795 1.42568 -1.24382 0
M  V30 1675 O 159.138 1.81571 -0.278839 0
M  V30 1676 C 159.2 0.669827 -3.53205 0
M  V30 1677 C 158.864 -0.4225 -4.55043 0
M  V30 1678 C 159.861 -1.27407 -5.04047 0
M  V30 1679 C 157.546 -0.58427 -4.9889 0
M  V30 1680 C 159.54 -2.27271 -5.95505 0
M  V30 1681 C 157.227 -1.58627 -5.90153 0
M  V30 1682 C 158.225 -2.42892 -6.38351 0
M  V30 1683 O 157.913 -3.41382 -7.27814 0
M  V30 1684 H 157.645 0.0408171 -0.674767 0
M  V30 1685 H 160.199 -0.5292 -1.98466 0
M  V30 1686 H 158.429 1.4681 -3.57748 0
M  V30 1687 H 160.118 1.18173 -3.88317 0
M  V30 1688 H 160.884 -1.16031 -4.70916 0
M  V30 1689 H 156.763 0.061851 -4.60959 0
M  V30 1690 H 160.307 -2.93079 -6.33049 0
M  V30 1691 H 156.204 -1.70048 -6.22699 0
M  V30 1692 H 156.972 -3.37173 -7.45826 0
M  V30 1693 N 159.635 1.57281 -0.100228 0
M  V30 1694 C 160.881 1.95626 0.556946 0
M  V30 1695 C 161.236 0.981655 1.65473 0
M  V30 1696 O 160.529 0.00849847 1.91598 0
M  V30 1697 C 160.723 3.38305 1.15259 0
M  V30 1698 C 160.552 4.49555 0.114035 0
M  V30 1699 C 159.322 5.0434 -0.311266 0
M  V30 1700 C 161.52 5.10051 -0.659768 0
M  V30 1701 N 159.502 5.99152 -1.33755 0
M  V30 1702 C 160.873 6.00628 -1.53774 0
M  V30 1703 C 162.928 4.92772 -0.712723 0
M  V30 1704 C 161.631 6.7578 -2.46403 0
M  V30 1705 C 163.657 5.6859 -1.62663 0
M  V30 1706 C 163.019 6.58838 -2.49222 0
M  V30 1707 H 159.118 0.7624 0.173982 0
M  V30 1708 H 161.702 1.93829 -0.183988 0
M  V30 1709 H 159.873 3.40786 1.86332 0
M  V30 1710 H 161.605 3.63817 1.77254 0
M  V30 1711 H 158.36 4.73537 0.0774812 0
M  V30 1712 H 158.784 6.5126 -1.84905 0
M  V30 1713 H 163.426 4.22761 -0.0576648 0
M  V30 1714 H 161.144 7.4505 -3.12931 0
M  V30 1715 H 164.73 5.57233 -1.67281 0
M  V30 1716 H 163.61 7.16479 -3.18791 0
M  V30 1717 N 161.113 -0.173488 1.56642 0
M  V30 1718 C 162.361 -0.888706 1.81512 0
M  V30 1719 C 162.682 -1.82875 0.676872 0
M  V30 1720 O 161.952 -1.93536 -0.303414 0
M  V30 1721 H 160.532 -0.331164 0.669582 0
M  V30 1722 H 163.194 -0.173823 1.94123 0
M  V30 1723 H 162.29 -1.46691 2.75478 0
M  V30 1724 N 162.591 -1.51276 -0.441967 0
M  V30 1725 C 163.523 -1.68444 -1.55433 0
M  V30 1726 C 164.536 -0.565187 -1.52674 0
M  V30 1727 O 165.725 -0.839356 -1.57534 0
M  V30 1728 C 162.825 -1.67966 -2.94348 0
M  V30 1729 C 161.998 -2.964 -3.21661 0
M  V30 1730 C 161.057 -2.88171 -4.40277 0
M  V30 1731 O 160.083 -3.62119 -4.39157 0
M  V30 1732 N 161.285 -2.03706 -5.43584 0
M  V30 1733 H 164.05 -2.644 -1.41112 0
M  V30 1734 H 161.611 -1.49104 -0.630838 0
M  V30 1735 H 163.603 -1.60035 -3.71713 0
M  V30 1736 H 162.173 -0.796225 -3.0229 0
M  V30 1737 H 161.393 -3.18234 -2.32638 0
M  V30 1738 H 162.681 -3.81427 -3.36736 0
M  V30 1739 H 162.079 -1.42995 -5.47329 0
M  V30 1740 H 160.636 -2.01658 -6.1982 0
M  V30 1741 N 164.069 0.697108 -1.41344 0
M  V30 1742 C 165.317 1.45426 -1.40341 0
M  V30 1743 C 165.638 1.94996 -0.0128787 0
M  V30 1744 O 164.908 1.71599 0.945027 0
M  V30 1745 H 163.488 0.539594 -0.516573 0
M  V30 1746 H 166.15 0.825201 -1.76569 0
M  V30 1747 H 165.246 2.31817 -2.08967 0
M  V30 1748 N 165.547 1.27147 0.931209 0
M  V30 1749 C 166.775 1.16082 1.71267 0
M  V30 1750 C 167.19 -0.282772 1.8667 0
M  V30 1751 O 166.547 -1.19283 1.38122 0
M  V30 1752 C 166.598 1.8358 3.11417 0
M  V30 1753 O 166.319 3.22299 2.96741 0
M  V30 1754 C 167.82 1.78597 4.05732 0
M  V30 1755 H 165.04 0.403758 0.535929 0
M  V30 1756 H 167.584 1.67953 1.16671 0
M  V30 1757 H 165.739 1.35623 3.62885 0
M  V30 1758 H 166.153 3.55851 3.85319 0
M  V30 1759 H 167.627 2.30444 5.01597 0
M  V30 1760 H 168.104 0.754564 4.3267 0
M  V30 1761 H 168.71 2.26152 3.60188 0
M  V30 1762 N 167.025 -1.13721 1.09112 0
M  V30 1763 C 168.253 -1.88773 0.846899 0
M  V30 1764 C 168.668 -1.7896 -0.601572 0
M  V30 1765 O 168.025 -1.15394 -1.41388 0
M  V30 1766 C 168.076 -3.3849 1.26913 0
M  V30 1767 O 167.797 -3.48043 2.66079 0
M  V30 1768 C 169.298 -4.30518 1.05682 0
M  V30 1769 H 166.518 -0.59772 0.304914 0
M  V30 1770 H 169.062 -1.43977 1.45227 0
M  V30 1771 H 167.217 -3.80881 0.707723 0
M  V30 1772 H 167.631 -4.4109 2.83795 0
M  V30 1773 H 169.105 -5.3391 1.40156 0
M  V30 1774 H 169.582 -4.392 -0.00563416 0
M  V30 1775 H 170.188 -3.93893 1.60402 0
M  V30 1776 N 168.503 -0.877838 -1.30888 0
M  V30 1777 C 169.433 -0.35534 -2.3078 0
M  V30 1778 C 170.414 0.557994 -1.60687 0
M  V30 1779 O 171.599 0.473355 -1.88343 0
M  V30 1780 C 168.729 0.437221 -3.44537 0
M  V30 1781 C 167.683 -0.383715 -4.26276 0
M  V30 1782 C 167.009 0.535014 -5.32017 0
M  V30 1783 C 168.309 -1.62201 -4.96476 0
M  V30 1784 H 170.003 -1.19007 -2.74732 0
M  V30 1785 H 167.549 -0.573698 -1.32078 0
M  V30 1786 H 169.502 0.813334 -4.13477 0
M  V30 1787 H 168.226 1.30553 -2.99372 0
M  V30 1788 H 166.885 -0.741874 -3.59015 0
M  V30 1789 H 166.533 1.40083 -4.831 0
M  V30 1790 H 166.233 -0.0104211 -5.87599 0
M  V30 1791 H 167.757 0.907799 -6.03814 0
M  V30 1792 H 169.171 -1.31689 -5.5797 0
M  V30 1793 H 167.568 -2.10711 -5.61891 0
M  V30 1794 H 168.638 -2.37044 -4.23011 0
M  V30 1795 N 169.982 1.44106 -0.638065 0
M  V30 1796 C 171.21 2.06336 -0.152615 0
M  V30 1797 C 171.625 1.47731 1.17563 0
M  V30 1798 O 170.982 0.602806 1.72257 0
M  V30 1799 C 171.033 3.61479 -0.0391491 0
M  V30 1800 O 170.754 4.17903 -1.31487 0
M  V30 1801 C 172.255 4.40757 0.474176 0
M  V30 1802 H 169.475 0.665862 -0.0828776 0
M  V30 1803 H 172.019 1.84862 -0.87443 0
M  V30 1804 H 170.174 3.82191 0.633142 0
M  V30 1805 H 170.588 5.11416 -1.16421 0
M  V30 1806 H 172.062 5.49707 0.502562 0
M  V30 1807 H 172.539 4.12697 1.50258 0
M  V30 1808 H 173.145 4.24979 -0.165102 0
M  V30 1809 N 171.46 0.379036 1.52974 0
M  V30 1810 C 172.706 -0.206727 2.01744 0
M  V30 1811 C 173.039 -1.47314 1.26539 0
M  V30 1812 O 172.314 -1.91084 0.362903 0
M  V30 1813 C 172.597 -0.485066 3.56818 0
M  V30 1814 C 172.45 0.795919 4.42702 0
M  V30 1815 C 173.769 -1.28003 4.21074 0
M  V30 1816 H 170.888 -0.0736607 0.73331 0
M  V30 1817 H 173.53 0.506581 1.83122 0
M  V30 1818 H 171.68 -1.09272 3.72816 0
M  V30 1819 H 173.352 1.43307 4.38476 0
M  V30 1820 H 171.595 1.41344 4.10127 0
M  V30 1821 H 172.266 0.555947 5.49193 0
M  V30 1822 H 174.742 -0.765867 4.08991 0
M  V30 1823 H 173.618 -1.44352 5.29579 0
M  V30 1824 H 173.879 -2.29236 3.78026 0
M  V30 1825 N 172.938 -1.57226 0.108567 0
M  V30 1826 C 174.163 -1.99604 -0.563303 0
M  V30 1827 C 174.588 -0.987563 -1.6009 0
M  V30 1828 O 173.946 0.0421687 -1.81251 0
M  V30 1829 C 173.994 -3.40902 -1.17552 0
M  V30 1830 O 173.098 -3.42896 -2.2912 0
M  V30 1831 H 172.439 -0.648704 -0.1417 0
M  V30 1832 H 174.969 -2.03679 0.193961 0
M  V30 1833 H 174.979 -3.78886 -1.51357 0
M  V30 1834 H 173.654 -4.1382 -0.415445 0
M  V30 1835 H 172.231 -3.1672 -1.96832 0
M  V30 1836 N 174.416 0.165178 -1.56732 0
M  V30 1837 C 175.641 0.900253 -1.86843 0
M  V30 1838 C 176.066 1.74766 -0.695596 0
M  V30 1839 O 175.424 1.77786 0.35522 0
M  V30 1840 C 175.472 1.74777 -3.15413 0
M  V30 1841 O 174.576 2.85007 -2.98068 0
M  V30 1842 H 173.917 0.251832 -0.614391 0
M  V30 1843 H 176.447 0.161468 -2.03962 0
M  V30 1844 H 176.457 2.14646 -3.46974 0
M  V30 1845 H 175.132 1.12537 -4.00385 0
M  V30 1846 H 173.709 2.48676 -2.77875 0
M  V30 1847 N 175.894 1.51508 0.433938 0
M  V30 1848 C 176.857 1.72473 1.50949 0
M  V30 1849 C 177.857 0.594725 1.49398 0
M  V30 1850 O 179.047 0.862315 1.5136 0
M  V30 1851 C 176.179 1.78431 2.90474 0
M  V30 1852 H 177.372 2.68467 1.33662 0
M  V30 1853 H 174.925 1.41549 0.662836 0
M  V30 1854 H 175.66 0.842645 3.13161 0
M  V30 1855 H 175.445 2.60558 2.93005 0
M  V30 1856 H 176.935 1.96479 3.68491 0
M  V30 1857 N 177.372 -0.689602 1.41712 0
M  V30 1858 C 178.319 -1.80345 1.44029 0
M  V30 1859 C 179.289 -1.63478 0.293948 0
M  V30 1860 O 180.474 -1.84244 0.495869 0
M  V30 1861 C 177.614 -3.18272 1.33405 0
M  V30 1862 C 176.727 -3.46529 2.57956 0
M  V30 1863 C 175.862 -4.74103 2.39582 0
M  V30 1864 C 174.901 -4.95347 3.5958 0
M  V30 1865 N 174.038 -6.14151 3.40239 0
M  V30 1866 H 178.878 -1.77698 2.39222 0
M  V30 1867 H 176.415 -0.867688 1.18784 0
M  V30 1868 H 178.373 -3.97956 1.25246 0
M  V30 1869 H 177.003 -3.2008 0.418164 0
M  V30 1870 H 176.055 -2.61207 2.76542 0
M  V30 1871 H 177.367 -3.58126 3.47199 0
M  V30 1872 H 176.521 -5.61853 2.28924 0
M  V30 1873 H 175.26 -4.64763 1.47805 0
M  V30 1874 H 174.265 -4.06044 3.70686 0
M  V30 1875 H 175.49 -5.06542 4.52318 0
M  V30 1876 H 173.436 -6.06013 2.51167 0
M  V30 1877 H 173.353 -6.26543 4.23061 0
M  V30 1878 H 174.621 -7.04619 3.33365 0
M  V30 1879 N 178.85 -1.27639 -0.924453 0
M  V30 1880 C 180.078 -1.16989 -1.70649 0
M  V30 1881 C 180.493 0.272869 -1.86818 0
M  V30 1882 O 179.85 1.18549 -1.38753 0
M  V30 1883 C 179.901 -1.85229 -3.10439 0
M  V30 1884 O 179.622 -3.23868 -2.95028 0
M  V30 1885 C 181.123 -1.80746 -4.04779 0
M  V30 1886 H 178.343 -0.406595 -0.53378 0
M  V30 1887 H 180.887 -1.68569 -1.15778 0
M  V30 1888 H 179.042 -1.37545 -3.6216 0
M  V30 1889 H 179.456 -3.57889 -3.83426 0
M  V30 1890 H 180.93 -2.33101 -5.00368 0
M  V30 1891 H 181.407 -0.777499 -4.32263 0
M  V30 1892 H 182.013 -2.28059 -3.58984 0
M  V30 1893 N 180.328 1.1314 -1.09713 0
M  V30 1894 C 181.556 1.88321 -0.856898 0
M  V30 1895 C 181.971 1.79276 0.592073 0
M  V30 1896 O 181.328 1.16142 1.40774 0
M  V30 1897 C 181.379 3.37812 -1.28706 0
M  V30 1898 O 181.1 3.46627 -2.67921 0
M  V30 1899 C 182.601 4.29952 -1.07964 0
M  V30 1900 H 179.821 0.596094 -0.308079 0
M  V30 1901 H 182.365 1.43205 -1.45988 0
M  V30 1902 H 180.52 3.805 -0.727912 0
M  V30 1903 H 180.934 4.39579 -2.8613 0
M  V30 1904 H 182.408 5.33159 -1.42986 0
M  V30 1905 H 182.885 4.39196 -0.0176577 0
M  V30 1906 H 183.491 3.93036 -1.62489 0
M  V30 1907 N 181.806 0.884767 1.30421 0
M  V30 1908 C 182.769 0.356277 2.26414 0
M  V30 1909 C 183.769 -0.501124 1.52792 0
M  V30 1910 O 184.959 -0.30831 1.7145 0
M  V30 1911 C 182.091 -0.492316 3.37326 0
M  V30 1912 H 183.284 1.20389 2.74675 0
M  V30 1913 H 180.837 0.661607 1.41607 0
M  V30 1914 H 181.572 -1.36052 2.94381 0
M  V30 1915 H 181.357 0.121832 3.91911 0
M  V30 1916 H 182.847 -0.853871 4.08777 0
M  V30 1917 N 183.284 -1.43765 0.645699 0
M  V30 1918 C 184.695 -1.85193 0.236719 0
M  V30 1919 C 185.046 -1.54045 -1.21509 0
M  V30 1920 O 184.171 -0.985694 -1.92647 0
M  V30 1921 C 184.766 -3.36151 0.422845 0
M  V30 1922 C 183.325 -3.76338 0.0682492 0
M  V30 1923 C 182.472 -2.67538 0.729306 0
M  V30 1924 H 185.423 -1.34025 0.849883 0
M  V30 1925 H 185.444 -3.79032 -0.333904 0
M  V30 1926 H 184.956 -3.5879 1.47958 0
M  V30 1927 H 183.057 -3.59312 -0.986179 0
M  V30 1928 H 183.17 -4.76603 0.488469 0
M  V30 1929 H 181.534 -2.54176 0.163235 0
M  V30 1930 H 182.317 -2.93006 1.78892 0
M  V30 1931 N 184.763 -0.387143 -1.52771 0
M  V30 1932 C 185.988 0.198407 -2.06449 0
M  V30 1933 C 186.413 1.39918 -1.25716 0
M  V30 1934 O 185.771 1.79099 -0.281657 0
M  V30 1935 C 185.819 0.548893 -3.56398 0
M  V30 1936 O 184.923 1.64315 -3.78252 0
M  V30 1937 H 184.264 0.0237731 -0.663574 0
M  V30 1938 H 186.794 -0.553989 -1.96957 0
M  V30 1939 H 186.804 0.813812 -3.99801 0
M  V30 1940 H 185.479 -0.329005 -4.14597 0
M  V30 1941 H 184.056 1.37211 -3.46738 0
M  V30 1942 N 186.241 1.57166 -0.116904 0
M  V30 1943 C 187.487 1.95412 0.542405 0
M  V30 1944 C 187.82 1.00019 1.66463 0
M  V30 1945 O 187.095 0.0370346 1.94465 0
M  V30 1946 C 187.378 3.43615 1.07708 0
M  V30 1947 C 187.231 4.49781 -0.0415868 0
M  V30 1948 C 188.55 3.93616 1.96861 0
M  V30 1949 H 185.669 0.710543 0.195696 0
M  V30 1950 H 188.311 1.89027 -0.192038 0
M  V30 1951 H 186.461 3.49187 1.70296 0
M  V30 1952 H 188.133 4.56308 -0.676793 0
M  V30 1953 H 186.376 4.28033 -0.705019 0
M  V30 1954 H 187.047 5.50733 0.373717 0
M  V30 1955 H 189.523 3.90335 1.44146 0
M  V30 1956 H 188.399 4.97838 2.3119 0
M  V30 1957 H 188.66 3.34188 2.89432 0
M  V30 1958 N 187.719 -0.156864 1.56817 0
M  V30 1959 C 188.949 -0.885031 1.86684 0
M  V30 1960 C 189.357 -1.75696 0.701954 0
M  V30 1961 O 188.7 -1.80569 -0.337732 0
M  V30 1962 C 188.762 -1.80092 3.11138 0
M  V30 1963 C 188.426 -1.10714 4.43386 0
M  V30 1964 C 189.423 -0.465714 5.1781 0
M  V30 1965 C 187.108 -1.09959 4.90117 0
M  V30 1966 C 189.102 0.174002 6.37162 0
M  V30 1967 C 186.789 -0.456055 6.09396 0
M  V30 1968 C 187.787 0.179622 6.82764 0
M  V30 1969 O 187.475 0.812975 7.99779 0
M  V30 1970 H 187.207 -0.261813 0.623242 0
M  V30 1971 H 189.761 -0.157383 2.04796 0
M  V30 1972 H 187.991 -2.56926 2.89009 0
M  V30 1973 H 189.68 -2.40018 3.27332 0
M  V30 1974 H 190.446 -0.463427 4.82781 0
M  V30 1975 H 186.325 -1.58378 4.3294 0
M  V30 1976 H 189.869 0.670765 6.94368 0
M  V30 1977 H 185.766 -0.455975 6.43888 0
M  V30 1978 H 186.534 0.71366 8.15383 0
M  V30 1979 N 189.197 -1.51736 -0.425897 0
M  V30 1980 C 190.608 -1.5732 -1.00536 0
M  V30 1981 C 190.959 -0.403537 -1.92005 0
M  V30 1982 O 190.084 0.478256 -2.11049 0
M  V30 1983 C 190.679 -2.85119 -1.8301 0
M  V30 1984 C 189.238 -2.93236 -2.35987 0
M  V30 1985 C 188.385 -2.52098 -1.15508 0
M  V30 1986 H 191.336 -1.57348 -0.206739 0
M  V30 1987 H 191.357 -2.69526 -2.68581 0
M  V30 1988 H 190.869 -3.7023 -1.16411 0
M  V30 1989 H 188.97 -2.12581 -3.06007 0
M  V30 1990 H 189.083 -3.9713 -2.68001 0
M  V30 1991 H 187.447 -2.05558 -1.50393 0
M  V30 1992 H 188.23 -3.39565 -0.505014 0
M  V30 1993 N 190.675 0.682077 -1.42076 0
M  V30 1994 C 191.605 1.80796 -1.47767 0
M  V30 1995 C 192.586 1.6677 -0.334954 0
M  V30 1996 O 193.771 1.863 -0.548264 0
M  V30 1997 C 190.901 3.19038 -1.37229 0
M  V30 1998 C 189.855 3.47789 -2.49453 0
M  V30 1999 C 189.181 4.8553 -2.23975 0
M  V30 2000 C 190.481 3.45411 -3.91776 0
M  V30 2001 H 192.175 1.7629 -2.41997 0
M  V30 2002 H 189.721 0.846721 -1.16476 0
M  V30 2003 H 191.674 3.97528 -1.39821 0
M  V30 2004 H 190.398 3.24204 -0.394907 0
M  V30 2005 H 189.057 2.71657 -2.46166 0
M  V30 2006 H 188.705 4.87337 -1.24547 0
M  V30 2007 H 188.405 5.0573 -2.99184 0
M  V30 2008 H 189.929 5.66312 -2.28304 0
M  V30 2009 H 191.343 4.13882 -3.96705 0
M  V30 2010 H 189.74 3.77145 -4.66778 0
M  V30 2011 H 190.81 2.44122 -4.18966 0
M  V30 2012 N 192.153 1.28127 0.917671 0
M  V30 2013 C 193.116 1.11744 2.00115 0
M  V30 2014 C 194.116 0.0583052 1.60694 0
M  V30 2015 O 195.306 0.303755 1.71531 0
M  V30 2016 C 192.438 0.704862 3.33533 0
M  V30 2017 H 193.631 2.07966 2.16079 0
M  V30 2018 H 191.184 1.11058 1.09981 0
M  V30 2019 H 191.919 -0.258299 3.2327 0
M  V30 2020 H 191.704 1.4699 3.63505 0
M  V30 2021 H 193.194 0.612768 4.1308 0
M  V30 2022 N 193.631 -1.12557 1.10312 0
M  V30 2023 C 195.042 -1.65574 0.862678 0
M  V30 2024 C 195.393 -1.86566 -0.607256 0
M  V30 2025 O 194.518 -1.59121 -1.46662 0
M  V30 2026 C 195.113 -3.00776 1.55947 0
M  V30 2027 C 193.672 -3.50748 1.36576 0
M  V30 2028 C 192.819 -2.25797 1.60968 0
M  V30 2029 H 195.77 -0.963552 1.26101 0
M  V30 2030 H 195.791 -3.67185 0.997753 0
M  V30 2031 H 195.303 -2.85465 2.62928 0
M  V30 2032 H 193.404 -3.71245 0.317531 0
M  V30 2033 H 193.517 -4.30289 2.10686 0
M  V30 2034 H 191.881 -2.32841 1.03234 0
M  V30 2035 H 192.664 -2.13043 2.69198 0
M  V30 2036 N 195.109 -0.891671 -1.2995 0
M  V30 2037 C 196.355 -0.514261 -1.96171 0
M  V30 2038 C 196.688 0.935506 -1.70182 0
M  V30 2039 O 195.963 1.66204 -1.01028 0
M  V30 2040 C 196.246 -0.797719 -3.51153 0
M  V30 2041 C 196.099 -2.2986 -3.86632 0
M  V30 2042 C 197.418 -0.278749 -4.39216 0
M  V30 2043 H 194.537 -0.188314 -0.712535 0
M  V30 2044 H 197.179 -1.11689 -1.53706 0
M  V30 2045 H 195.329 -0.284826 -3.87455 0
M  V30 2046 H 197.001 -2.88042 -3.60319 0
M  V30 2047 H 195.244 -2.76257 -3.34462 0
M  V30 2048 H 195.915 -2.44753 -4.94773 0
M  V30 2049 H 198.391 -0.717825 -4.09862 0
M  V30 2050 H 197.267 -0.506353 -5.46559 0
M  V30 2051 H 197.528 0.820266 -4.34424 0
M  V30 2052 N 196.587 1.43421 -0.653314 0
M  V30 2053 C 197.827 2.03689 -0.170346 0
M  V30 2054 C 198.191 1.50427 1.19314 0
M  V30 2055 O 199.392 2.0234 1.76952 0
M  V30 2056 C 197.663 3.56946 -0.180183 0
M  V30 2057 S 199.222 4.38171 0.234925 0
M  V30 2058 H 196.04 0.707345 -0.0719976 0
M  V30 2059 H 198.642 1.75486 -0.86167 0
M  V30 2060 H 197.346 3.93212 -1.17526 0
M  V30 2061 H 196.877 3.89791 0.531675 0
M  V30 2062 H 198.892 4.73808 1.47378 0
M  V30 2063 N 198.065 0.39524 1.52563 0
M  V30 2064 C 199.313 -0.184678 2.01254 0
M  V30 2065 C 199.634 -1.46822 1.28329 0
M  V30 2066 O 198.904 -1.91666 0.405094 0
M  V30 2067 H 197.484 -0.0712355 0.743596 0
M  V30 2068 H 200.146 0.528293 1.87603 0
M  V30 2069 H 199.242 -0.390681 3.09645 0
M  V30 2070 N 199.544 -1.57102 0.125237 0
M  V30 2071 C 200.792 -1.95021 -0.530198 0
M  V30 2072 C 201.113 -1.00982 -1.66816 0
M  V30 2073 O 200.383 -0.0672693 -1.95784 0
M  V30 2074 H 198.963 -0.720046 -0.198853 0
M  V30 2075 H 201.625 -1.93916 0.19564 0
M  V30 2076 H 200.721 -2.98211 -0.920681 0
M  V30 2077 N 201.022 0.148545 -1.56898 0
M  V30 2078 C 202.25 0.876389 -1.87422 0
M  V30 2079 C 202.665 1.74809 -0.713256 0
M  V30 2080 O 202.022 1.79725 0.317025 0
M  V30 2081 C 202.073 1.73438 -3.17178 0
M  V30 2082 O 201.794 0.897809 -4.28802 0
M  V30 2083 C 203.295 2.56993 -3.61205 0
M  V30 2084 H 200.515 0.253489 -0.621277 0
M  V30 2085 H 203.059 0.141798 -2.04008 0
M  V30 2086 H 201.214 2.42205 -3.0235 0
M  V30 2087 H 201.628 1.48672 -5.02988 0
M  V30 2088 H 203.102 3.12773 -4.54838 0
M  V30 2089 H 203.579 3.32958 -2.86419 0
M  V30 2090 H 204.185 1.9352 -3.78722 0
M  V30 2091 N 202.5 1.5196 0.417844 0
M  V30 2092 C 203.728 1.69426 1.18753 0
M  V30 2093 C 204.143 0.399955 1.84515 0
M  V30 2094 O 203.5 -0.623288 1.71527 0
M  V30 2095 C 203.551 2.82375 2.25714 0
M  V30 2096 O 203.272 4.06793 1.62638 0
M  V30 2097 C 204.773 3.11277 3.15628 0
M  V30 2098 H 201.993 0.568031 0.357186 0
M  V30 2099 H 204.537 1.98475 0.49273 0
M  V30 2100 H 202.692 2.5587 2.90877 0
M  V30 2101 H 203.106 4.69667 2.3348 0
M  V30 2102 H 204.58 3.93843 3.86771 0
M  V30 2103 H 205.057 2.24473 3.77503 0
M  V30 2104 H 205.663 3.39515 2.56144 0
M  V30 2105 N 203.978 -0.674533 1.42435 0
M  V30 2106 C 205.226 -1.43175 1.42637 0
M  V30 2107 C 205.547 -1.94951 0.0438992 0
M  V30 2108 O 204.817 -1.7308 -0.917607 0
M  V30 2109 H 203.397 -0.531307 0.525092 0
M  V30 2110 H 206.059 -0.797006 1.77859 0
M  V30 2111 H 205.155 -2.28463 2.12629 0
M  V30 2112 N 205.456 -1.28612 -0.910864 0
M  V30 2113 C 206.681 -1.1891 -1.69927 0
M  V30 2114 C 207.106 0.248372 -1.86453 0
M  V30 2115 O 206.464 1.17961 -1.37676 0
M  V30 2116 C 206.512 -1.89578 -3.06745 0
M  V30 2117 O 205.616 -1.20521 -3.94396 0
M  V30 2118 H 204.957 -0.412632 -0.520222 0
M  V30 2119 H 207.487 -1.69985 -1.1387 0
M  V30 2120 H 207.497 -1.97597 -3.56958 0
M  V30 2121 H 206.172 -2.94136 -2.94035 0
M  V30 2122 H 204.749 -1.20684 -3.52831 0
M  V30 2123 N 206.934 1.1197 -1.10907 0
M  V30 2124 C 208.159 1.87942 -0.877064 0
M  V30 2125 C 208.584 1.79341 0.567314 0
M  V30 2126 O 207.942 1.15184 1.40009 0
M  V30 2127 C 207.99 3.34926 -1.33629 0
M  V30 2128 O 207.094 4.09303 -0.504447 0
M  V30 2129 H 206.435 0.583785 -0.316371 0
M  V30 2130 H 208.965 1.4157 -1.47712 0
M  V30 2131 H 208.975 3.8577 -1.32837 0
M  V30 2132 H 207.65 3.40504 -2.3881 0
M  V30 2133 H 206.227 3.68393 -0.577993 0
M  V30 2134 N 208.412 0.89855 1.29475 0
M  V30 2135 C 209.658 0.524658 1.95896 0
M  V30 2136 C 209.991 -0.926468 1.70676 0
M  V30 2137 O 209.266 -1.65665 1.01908 0
M  V30 2138 C 209.549 0.81633 3.50725 0
M  V30 2139 C 209.402 2.31907 3.85408 0
M  V30 2140 C 210.721 0.302038 4.39062 0
M  V30 2141 H 207.84 0.19209 0.711527 0
M  V30 2142 H 210.482 1.12502 1.53112 0
M  V30 2143 H 208.632 0.305369 3.87298 0
M  V30 2144 H 210.304 2.89949 3.58786 0
M  V30 2145 H 208.547 2.78027 3.32992 0
M  V30 2146 H 209.218 2.47373 4.93468 0
M  V30 2147 H 211.694 0.739551 4.09475 0
M  V30 2148 H 210.57 0.535331 5.46283 0
M  V30 2149 H 210.831 -0.797216 4.34853 0
M  V30 2150 N 209.89 -1.43072 0.660911 0
M  V30 2151 C 211.118 -2.06067 0.185422 0
M  V30 2152 C 211.533 -1.49582 -1.15198 0
M  V30 2153 O 210.89 -0.630134 -1.71276 0
M  V30 2154 C 210.941 -3.61371 0.0966523 0
M  V30 2155 O 210.662 -4.15758 1.38119 0
M  V30 2156 C 212.163 -4.41455 -0.403996 0
M  V30 2157 H 209.383 -0.664459 0.0934604 0
M  V30 2158 H 211.927 -1.83447 0.90373 0
M  V30 2159 H 210.082 -3.8315 -0.572259 0
M  V30 2160 H 210.496 -5.09499 1.24542 0
M  V30 2161 H 211.97 -5.50437 -0.415045 0
M  V30 2162 H 212.447 -4.15036 -1.43674 0
M  V30 2163 H 213.053 -4.24663 0.232691 0
M  V30 2164 N 211.368 -0.403325 -1.52352 0
M  V30 2165 C 212.298 0.416205 -2.29761 0
M  V30 2166 C 213.279 1.05123 -1.33728 0
M  V30 2167 O 214.464 1.06134 -1.62632 0
M  V30 2168 C 211.594 1.53624 -3.11475 0
M  V30 2169 C 210.548 1.02653 -4.15507 0
M  V30 2170 C 209.874 2.23971 -4.85532 0
M  V30 2171 C 211.174 0.08463 -5.22231 0
M  V30 2172 H 212.868 -0.229701 -2.98518 0
M  V30 2173 H 210.414 -0.111913 -1.43564 0
M  V30 2174 H 212.367 2.1165 -3.64393 0
M  V30 2175 H 211.091 2.20994 -2.40477 0
M  V30 2176 H 209.75 0.46871 -3.63591 0
M  V30 2177 H 209.398 2.89883 -4.11068 0
M  V30 2178 H 209.098 1.90521 -5.55856 0
M  V30 2179 H 210.622 2.82614 -5.41259 0
M  V30 2180 H 212.036 0.573509 -5.70424 0
M  V30 2181 H 210.433 -0.160783 -5.99885 0
M  V30 2182 H 211.503 -0.86237 -4.7717 0
M  V30 2183 N 212.846 1.57033 -0.133567 0
M  V30 2184 C 214.094 1.953 0.519848 0
M  V30 2185 C 214.415 1.01866 1.66278 0
M  V30 2186 O 213.685 0.0776513 1.95746 0
M  V30 2187 H 212.265 0.721091 0.195032 0
M  V30 2188 H 214.927 1.93809 -0.205921 0
M  V30 2189 H 214.023 2.98695 0.904854 0
M  V30 2190 N 214.325 -0.140222 1.56975 0
M  V30 2191 C 215.565 -0.857823 1.85528 0
M  V30 2192 C 215.929 -1.78039 0.718768 0
M  V30 2193 O 217.13 -2.53795 0.885521 0
M  V30 2194 C 215.401 -1.60615 3.19277 0
M  V30 2195 S 216.96 -2.36824 3.69405 0
M  V30 2196 H 213.778 -0.286727 0.650622 0
M  V30 2197 H 216.38 -0.117408 1.95147 0
M  V30 2198 H 215.084 -0.919994 3.99955 0
M  V30 2199 H 214.615 -2.38735 3.12681 0
M  V30 2200 H 216.63 -3.62148 3.3921 0
M  V30 2201 N 215.803 -1.52179 -0.40978 0
M  V30 2202 C 216.733 -1.78435 -1.5061 0
M  V30 2203 C 217.714 -0.635295 -1.57791 0
M  V30 2204 O 218.899 -0.880823 -1.73076 0
M  V30 2205 C 216.029 -1.93444 -2.88439 0
M  V30 2206 C 214.983 -3.09038 -2.96108 0
M  V30 2207 C 214.309 -3.09268 -4.36185 0
M  V30 2208 C 215.609 -4.48508 -2.67652 0
M  V30 2209 H 217.303 -2.70237 -1.28889 0
M  V30 2210 H 214.849 -1.30036 -0.618605 0
M  V30 2211 H 216.802 -2.10394 -3.65119 0
M  V30 2212 H 215.526 -0.983129 -3.11452 0
M  V30 2213 H 214.185 -2.91837 -2.21872 0
M  V30 2214 H 213.833 -2.11861 -4.56206 0
M  V30 2215 H 213.533 -3.86907 -4.42241 0
M  V30 2216 H 215.057 -3.28348 -5.14801 0
M  V30 2217 H 216.471 -4.65918 -3.34056 0
M  V30 2218 H 214.868 -5.28059 -2.85085 0
M  V30 2219 H 215.938 -4.56649 -1.63095 0
M  V30 2220 N 217.281 0.66697 -1.42791 0
M  V30 2221 C 218.527 1.4291 -1.43891 0
M  V30 2222 C 218.86 1.94114 -0.0578972 0
M  V30 2223 O 218.135 1.71414 0.91911 0
M  V30 2224 C 218.418 2.62049 -2.46987 0
M  V30 2225 C 218.271 2.16426 -3.94309 0
M  V30 2226 C 219.59 3.64266 -2.46978 0
M  V30 2227 H 216.709 0.518306 -0.523954 0
M  V30 2228 H 219.351 0.757321 -1.74255 0
M  V30 2229 H 217.501 3.19361 -2.21225 0
M  V30 2230 H 219.173 1.64221 -4.31079 0
M  V30 2231 H 217.416 1.47925 -4.078 0
M  V30 2232 H 218.087 3.02038 -4.62036 0
M  V30 2233 H 220.563 3.16686 -2.69906 0
M  V30 2234 H 219.439 4.45196 -3.21079 0
M  V30 2235 H 219.7 4.15927 -1.49857 0
M  V30 2236 N 218.759 1.29093 0.90403 0
M  V30 2237 C 219.706 1.13853 2.00764 0
M  V30 2238 C 220.676 0.0330084 1.66067 0
M  V30 2239 O 221.861 0.199733 1.89752 0
M  V30 2240 C 219.001 0.816537 3.35301 0
M  V30 2241 C 218.114 2.00206 3.82807 0
M  V30 2242 C 217.249 1.61983 5.059 0
M  V30 2243 C 216.288 2.77143 5.45764 0
M  V30 2244 N 215.425 2.39346 6.60044 0
M  V30 2245 H 220.265 2.08276 2.13132 0
M  V30 2246 H 217.802 1.03648 1.04381 0
M  V30 2247 H 219.76 0.610557 4.12708 0
M  V30 2248 H 218.39 -0.090779 3.22672 0
M  V30 2249 H 217.442 2.31988 3.01473 0
M  V30 2250 H 218.754 2.86512 4.08304 0
M  V30 2251 H 217.908 1.37649 5.90879 0
M  V30 2252 H 216.647 0.728202 4.82233 0
M  V30 2253 H 215.652 3.02165 4.59322 0
M  V30 2254 H 216.877 3.66964 5.71414 0
M  V30 2255 H 214.823 1.52665 6.37989 0
M  V30 2256 H 214.74 3.19185 6.85315 0
M  V30 2257 H 216.008 2.1832 7.48303 0
M  V30 2258 N 220.237 -1.11381 1.11499 0
M  V30 2259 C 221.485 -1.8277 0.862524 0
M  V30 2260 C 221.806 -1.85097 -0.613534 0
M  V30 2261 O 221.076 -1.32198 -1.4457 0
M  V30 2262 H 219.656 -0.676823 0.316101 0
M  V30 2263 H 222.318 -1.34816 1.4075 0
M  V30 2264 H 221.414 -2.86614 1.23527 0
M  V30 2265 N 221.715 -0.905404 -1.28997 0
M  V30 2266 C 222.945 -0.549049 -1.99171 0
M  V30 2267 C 223.353 0.87203 -1.67906 0
M  V30 2268 O 222.696 1.58796 -0.923561 0
M  V30 2269 C 222.758 -0.668306 -3.53234 0
M  V30 2270 C 222.422 -2.0574 -4.08069 0
M  V30 2271 C 223.419 -3.0292 -4.22534 0
M  V30 2272 C 221.104 -2.36833 -4.42962 0
M  V30 2273 C 223.098 -4.29314 -4.71135 0
M  V30 2274 C 220.785 -3.63467 -4.91258 0
M  V30 2275 C 221.783 -4.59522 -5.053 0
M  V30 2276 O 221.471 -5.83907 -5.52546 0
M  V30 2277 H 221.203 -0.208784 -0.64295 0
M  V30 2278 H 223.757 -1.21836 -1.65363 0
M  V30 2279 H 221.987 0.0580547 -3.86656 0
M  V30 2280 H 223.676 -0.320273 -4.04634 0
M  V30 2281 H 224.442 -2.80216 -3.95859 0
M  V30 2282 H 220.321 -1.62824 -4.31288 0
M  V30 2283 H 223.865 -5.04293 -4.8201 0
M  V30 2284 H 219.762 -3.86 -5.17372 0
M  V30 2285 H 220.53 -5.86578 -5.70849 0
M  V30 2286 N 223.193 1.4272 -0.668489 0
M  V30 2287 C 224.44 2.01624 -0.18814 0
M  V30 2288 C 224.768 1.5282 1.20317 0
M  V30 2289 O 224.023 0.718323 1.8204 0
M  V30 2290 C 224.322 3.57021 -0.164499 0
M  V30 2291 C 223.988 4.25232 -1.49962 0
M  V30 2292 C 222.65 4.4358 -1.8652 0
M  V30 2293 C 225.002 4.63727 -2.37921 0
M  V30 2294 C 222.33 4.97694 -3.10674 0
M  V30 2295 C 224.682 5.19218 -3.6138 0
M  V30 2296 C 223.346 5.3578 -3.98115 0
M  V30 2297 H 222.616 0.737795 -0.0688454 0
M  V30 2298 H 225.263 1.70991 -0.862225 0
M  V30 2299 H 223.568 3.87285 0.593079 0
M  V30 2300 H 225.265 4.00372 0.224271 0
M  V30 2301 H 221.855 4.11306 -1.20522 0
M  V30 2302 H 226.039 4.4923 -2.10964 0
M  V30 2303 H 221.295 5.08702 -3.39164 0
M  V30 2304 H 225.469 5.4799 -4.29743 0
M  V30 2305 H 223.096 5.77475 -4.94395 0
M  V30 2306 N 224.671 0.411399 1.52136 0
M  V30 2307 C 226.082 -0.0576826 1.86611 0
M  V30 2308 C 226.433 -1.44238 1.33003 0
M  V30 2309 O 225.558 -2.05759 0.670228 0
M  V30 2310 C 226.153 -0.111448 3.38617 0
M  V30 2311 C 224.712 -0.52487 3.72723 0
M  V30 2312 C 223.859 0.299176 2.75681 0
M  V30 2313 H 226.81 0.628368 1.4573 0
M  V30 2314 H 226.831 -0.926252 3.69054 0
M  V30 2315 H 226.343 0.896488 3.77604 0
M  V30 2316 H 224.444 -1.53936 3.39315 0
M  V30 2317 H 224.557 -0.267681 4.78352 0
M  V30 2318 H 222.921 -0.238814 2.53578 0
M  V30 2319 H 223.704 1.3055 3.17508 0
M  V30 2320 N 226.149 -1.5696 0.141893 0
M  V30 2321 C 227.059 -2.20066 -0.812905 0
M  V30 2322 C 228.075 -1.18344 -1.27557 0
M  V30 2323 O 229.251 -1.50902 -1.33381 0
M  V30 2324 C 226.316 -2.80583 -2.03652 0
M  V30 2325 C 225.377 -3.97414 -1.62359 0
M  V30 2326 C 224.61 -4.55036 -2.78887 0
M  V30 2327 O 224.833 -4.11538 -3.94959 0
M  V30 2328 O 223.767 -5.45376 -2.54653 0
M  V30 2329 H 227.593 -3.02157 -0.305746 0
M  V30 2330 H 225.178 -1.49159 -0.0848799 0
M  V30 2331 H 227.06 -3.19067 -2.75272 0
M  V30 2332 H 225.735 -2.01508 -2.5333 0
M  V30 2333 H 224.642 -3.63656 -0.877775 0
M  V30 2334 H 225.975 -4.77994 -1.17401 0
M  V30 2335 N 227.627 0.131896 -1.57047 0
M  V30 2336 C 229.038 0.690407 -1.73465 0
M  V30 2337 C 229.389 1.8094 -0.758629 0
M  V30 2338 O 228.514 2.16282 0.0713813 0
M  V30 2339 C 229.109 1.25916 -3.14532 0
M  V30 2340 C 227.668 1.76409 -3.32501 0
M  V30 2341 C 226.815 0.658579 -2.69366 0
M  V30 2342 H 229.766 -0.0939144 -1.58422 0
M  V30 2343 H 229.787 2.12892 -3.15369 0
M  V30 2344 H 229.299 0.444515 -3.85546 0
M  V30 2345 H 227.4 2.60391 -2.66509 0
M  V30 2346 H 227.513 1.88241 -4.4057 0
M  V30 2347 H 225.877 1.08899 -2.30246 0
M  V30 2348 H 226.66 -0.14487 -3.42994 0
M  V30 2349 N 229.106 1.52395 0.401703 0
M  V30 2350 C 230.352 1.67065 1.14966 0
M  V30 2351 C 230.685 0.403052 1.89971 0
M  V30 2352 O 229.96 -0.598774 1.85054 0
M  V30 2353 C 230.243 2.8975 2.13815 0
M  V30 2354 C 230.096 4.26578 1.42658 0
M  V30 2355 C 231.415 3.07965 3.14397 0
M  V30 2356 H 228.534 0.607968 0.416587 0
M  V30 2357 H 231.176 1.84965 0.434511 0
M  V30 2358 H 229.326 2.74619 2.74803 0
M  V30 2359 H 230.998 4.53451 0.847329 0
M  V30 2360 H 229.241 4.27639 0.72849 0
M  V30 2361 H 229.912 5.08483 2.14823 0
M  V30 2362 H 232.388 3.22043 2.63491 0
M  V30 2363 H 231.264 3.95308 3.80819 0
M  V30 2364 H 231.525 2.21611 3.82545 0
M  V30 2365 N 230.584 -0.659388 1.43143 0
M  V30 2366 C 231.812 -1.44723 1.47861 0
M  V30 2367 C 232.227 -1.88563 0.0945886 0
M  V30 2368 O 231.584 -1.59108 -0.893915 0
M  V30 2369 C 231.635 -2.68627 2.41913 0
M  V30 2370 O 231.356 -2.26623 3.74932 0
M  V30 2371 C 232.857 -3.62045 2.55809 0
M  V30 2372 H 230.077 -0.444801 0.502387 0
M  V30 2373 H 232.621 -0.808916 1.87821 0
M  V30 2374 H 230.776 -3.28613 2.05164 0
M  V30 2375 H 231.19 -3.06745 4.2545 0
M  V30 2376 H 232.664 -4.45666 3.25708 0
M  V30 2377 H 233.141 -4.08981 1.60099 0
M  V30 2378 H 233.747 -3.07944 2.93344 0
M  V30 2379 N 232.062 -1.29571 -0.897171 0
M  V30 2380 C 232.992 -1.17473 -2.01798 0
M  V30 2381 C 233.973 -0.068323 -1.69963 0
M  V30 2382 O 235.158 -0.248239 -1.92607 0
M  V30 2383 C 232.288 -0.853099 -3.36659 0
M  V30 2384 C 231.242 -1.9161 -3.82713 0
M  V30 2385 C 230.568 -1.44773 -5.14728 0
M  V30 2386 C 231.868 -3.32535 -4.02763 0
M  V30 2387 H 233.562 -2.11237 -2.12177 0
M  V30 2388 H 231.108 -1.01699 -1.01948 0
M  V30 2389 H 233.061 -0.755165 -4.14578 0
M  V30 2390 H 231.785 0.120236 -3.26379 0
M  V30 2391 H 230.444 -2.00346 -3.07013 0
M  V30 2392 H 230.092 -0.462995 -5.00865 0
M  V30 2393 H 229.792 -2.15865 -5.46513 0
M  V30 2394 H 231.316 -1.36334 -5.95185 0
M  V30 2395 H 232.73 -3.26626 -4.71156 0
M  V30 2396 H 231.127 -4.01607 -4.45905 0
M  V30 2397 H 232.197 -3.75326 -3.07016 0
M  V30 2398 N 233.54 1.10788 -1.12088 0
M  V30 2399 C 234.768 1.86461 -0.896651 0
M  V30 2400 C 235.183 1.80492 0.553912 0
M  V30 2401 O 234.54 1.19102 1.38278 0
M  V30 2402 C 234.591 3.35006 -1.35843 0
M  V30 2403 O 234.312 3.40866 -2.75213 0
M  V30 2404 C 235.813 4.27565 -1.1706 0
M  V30 2405 H 233.033 0.589425 -0.320654 0
M  V30 2406 H 235.577 1.40076 -1.48993 0
M  V30 2407 H 233.732 3.7887 -0.808458 0
M  V30 2408 H 234.146 4.33411 -2.9539 0
M  V30 2409 H 235.62 5.30007 -1.54263 0
M  V30 2410 H 236.097 4.3906 -0.110814 0
M  V30 2411 H 236.703 3.89501 -1.70789 0
M  V30 2412 N 235.018 0.912232 1.28515 0
M  V30 2413 C 236.264 0.554851 1.95686 0
M  V30 2414 C 236.619 -0.89138 1.70506 0
M  V30 2415 O 235.912 -1.62529 1.01464 0
M  V30 2416 C 236.106 0.798392 3.48368 0
M  V30 2417 C 235.935 2.26674 3.88393 0
M  V30 2418 C 234.705 2.91657 4.12631 0
M  V30 2419 C 236.903 3.24303 3.99164 0
M  V30 2420 N 234.885 4.28805 4.39317 0
M  V30 2421 C 236.256 4.4661 4.30046 0
M  V30 2422 C 238.311 3.19723 3.81683 0
M  V30 2423 C 237.014 5.64915 4.45268 0
M  V30 2424 C 239.04 4.37325 3.98121 0
M  V30 2425 C 238.402 5.58406 4.29375 0
M  V30 2426 H 234.501 0.252876 0.739985 0
M  V30 2427 H 237.085 1.17565 1.55199 0
M  V30 2428 H 235.256 0.20688 3.87849 0
M  V30 2429 H 236.988 0.405193 4.02666 0
M  V30 2430 H 233.743 2.42393 4.06869 0
M  V30 2431 H 234.167 4.99712 4.56746 0
M  V30 2432 H 238.809 2.27191 3.56573 0
M  V30 2433 H 236.527 6.57927 4.6921 0
M  V30 2434 H 240.113 4.35282 3.86033 0
M  V30 2435 H 238.993 6.47889 4.41825 0
M  V30 2436 N 236.496 -1.42363 0.676048 0
M  V30 2437 C 237.444 -2.32596 -0.0131507 0
M  V30 2438 C 238.438 -1.49891 -0.789238 0
M  V30 2439 O 239.644 -1.65955 -0.697061 0
M  V30 2440 H 236.019 -0.751647 -0.0230481 0
M  V30 2441 H 237.99 -2.88421 0.765243 0
M  V30 2442 C 236.739 -3.34479 -0.949702 0
M  V30 2443 H 236.062 -3.98158 -0.361938 0
M  V30 2444 H 237.502 -4.00199 -1.4006 0
M  V30 2445 C 235.961 -2.66838 -2.05667 0
M  V30 2446 O 236.491 -2.50124 -3.14326 0
M  V30 2447 N 234.697 -2.25843 -1.82875 0
M  V30 2448 H 234.244 -2.39637 -0.945085 0
M  V30 2449 H 234.202 -1.80918 -2.5713 0
M  V30 2450 N 237.974 -0.419461 -1.51915 0
M  V30 2451 C 239.199 0.154572 -2.06823 0
M  V30 2452 C 239.624 1.3722 -1.28656 0
M  V30 2453 O 238.982 1.78461 -0.319583 0
M  V30 2454 C 239.03 0.473172 -3.57482 0
M  V30 2455 O 238.134 1.56255 -3.81652 0
M  V30 2456 H 237.475 0.0096924 -0.663929 0
M  V30 2457 H 240.005 -0.595642 -1.95738 0
M  V30 2458 H 240.015 0.728825 -4.01438 0
M  V30 2459 H 238.69 -0.416873 -4.13805 0
M  V30 2460 H 237.267 1.29825 -3.49571 0
M  V30 2461 N 239.452 1.56882 -0.150215 0
M  V30 2462 C 240.7 1.9584 0.499105 0
M  V30 2463 C 241.021 1.03623 1.65188 0
M  V30 2464 O 240.291 0.0984084 1.95653 0
M  V30 2465 H 238.871 0.723119 0.187373 0
M  V30 2466 H 241.533 1.9358 -0.226466 0
M  V30 2467 H 240.629 2.99638 0.873122 0
M  V30 2468 N 240.93 -0.123565 1.57115 0
M  V30 2469 C 242.155 -0.850398 1.89164 0
M  V30 2470 C 242.58 -1.7286 0.741688 0
M  V30 2471 O 241.938 -1.78665 -0.307958 0
M  V30 2472 C 241.986 -1.66353 3.19936 0
M  V30 2473 O 241.09 -2.77004 3.0552 0
M  V30 2474 H 240.431 -0.235454 0.620852 0
M  V30 2475 H 242.961 -0.107335 2.04318 0
M  V30 2476 H 242.971 -2.05372 3.52543 0
M  V30 2477 H 241.646 -1.01881 4.03228 0
M  V30 2478 H 240.223 -2.41221 2.84371 0
M  V30 2479 N 242.408 -1.52605 -0.393616 0
M  V30 2480 C 243.338 -1.80022 -1.48709 0
M  V30 2481 C 244.319 -0.651995 -1.57108 0
M  V30 2482 O 245.504 -0.89913 -1.72132 0
M  V30 2483 C 242.634 -1.96492 -2.86371 0
M  V30 2484 C 241.588 -3.12161 -2.92813 0
M  V30 2485 C 240.914 -3.13877 -4.3288 0
M  V30 2486 C 242.214 -4.51322 -2.6288 0
M  V30 2487 H 243.908 -2.71589 -1.26015 0
M  V30 2488 H 241.454 -1.30684 -0.604778 0
M  V30 2489 H 243.407 -2.14255 -3.62867 0
M  V30 2490 H 242.131 -1.01611 -3.10391 0
M  V30 2491 H 240.79 -2.94173 -2.18764 0
M  V30 2492 H 240.438 -2.16687 -4.53933 0
M  V30 2493 H 240.138 -3.91576 -4.38112 0
M  V30 2494 H 241.662 -3.33789 -5.1129 0
M  V30 2495 H 243.076 -4.69435 -3.29096 0
M  V30 2496 H 241.473 -5.31053 -2.79468 0
M  V30 2497 H 242.543 -4.58353 -1.58242 0
M  V30 2498 N 243.887 0.651787 -1.4349 0
M  V30 2499 C 245.112 1.44434 -1.48841 0
M  V30 2500 C 245.537 1.8779 -0.107955 0
M  V30 2501 O 244.895 1.57464 0.898602 0
M  V30 2502 C 244.943 2.65458 -2.44059 0
M  V30 2503 O 244.047 3.64566 -1.92784 0
M  V30 2504 H 243.388 0.433005 -0.503391 0
M  V30 2505 H 245.918 0.797451 -1.88419 0
M  V30 2506 H 245.928 3.13255 -2.6141 0
M  V30 2507 H 244.603 2.33244 -3.4434 0
M  V30 2508 H 243.18 3.23716 -1.851 0
M  V30 2509 N 245.365 1.30045 0.890287 0
M  V30 2510 C 246.59 1.21598 1.68014 0
M  V30 2511 C 247.015 -0.218678 1.86825 0
M  V30 2512 O 246.373 -1.15756 1.39536 0
M  V30 2513 C 246.421 1.94434 3.03691 0
M  V30 2514 O 245.525 1.2678 3.92429 0
M  V30 2515 H 244.866 0.420856 0.513592 0
M  V30 2516 H 247.396 1.71775 1.11151 0
M  V30 2517 H 247.406 2.03251 3.5377 0
M  V30 2518 H 246.081 2.98777 2.89318 0
M  V30 2519 H 244.658 1.26282 3.50866 0
M  V30 2520 N 246.843 -1.10192 1.12674 0
M  V30 2521 C 248.091 -1.81845 0.881861 0
M  V30 2522 C 248.412 -1.85737 -0.593867 0
M  V30 2523 O 247.682 -1.33724 -1.4316 0
M  V30 2524 H 246.262 -0.673432 0.323261 0
M  V30 2525 H 248.924 -1.33316 1.42172 0
M  V30 2526 H 248.02 -2.85288 1.2656 0
M  V30 2527 N 248.321 -0.919034 -1.28029 0
M  V30 2528 C 249.567 -0.555757 -1.95036 0
M  V30 2529 C 249.9 0.899198 -1.72128 0
M  V30 2530 O 249.175 1.64023 -1.04531 0
M  V30 2531 C 249.458 -0.872024 -3.49382 0
M  V30 2532 C 249.311 -2.3801 -3.81669 0
M  V30 2533 C 250.63 -0.37185 -4.38526 0
M  V30 2534 H 247.749 -0.203386 -0.708381 0
M  V30 2535 H 250.391 -1.14924 -1.51303 0
M  V30 2536 H 248.541 -0.366946 -3.86763 0
M  V30 2537 H 250.213 -2.9562 -3.54128 0
M  V30 2538 H 248.456 -2.83289 -3.28526 0
M  V30 2539 H 249.127 -2.55192 -4.8947 0
M  V30 2540 H 251.603 -0.804602 -4.08247 0
M  V30 2541 H 250.479 -0.622173 -5.45362 0
M  V30 2542 H 250.74 0.727934 -4.36066 0
M  V30 2543 N 249.799 1.42003 -0.683588 0
M  V30 2544 C 250.749 2.27997 0.0121992 0
M  V30 2545 C 251.733 1.4156 0.764822 0
M  V30 2546 O 252.925 1.64935 0.642287 0
M  V30 2547 C 250.054 3.29706 0.956482 0
M  V30 2548 C 249.14 4.23625 0.200739 0
M  V30 2549 N 249.531 4.99448 -0.799087 0
M  V30 2550 C 247.829 4.43845 0.437937 0
M  V30 2551 C 248.53 5.68102 -1.25041 0
M  V30 2552 N 247.506 5.40511 -0.578648 0
M  V30 2553 H 251.308 2.84048 -0.754564 0
M  V30 2554 H 248.822 1.54071 -0.513398 0
M  V30 2555 H 250.819 3.90124 1.47 0
M  V30 2556 H 249.479 2.75216 1.72297 0
M  V30 2557 H 250.49 5.04303 -1.17893 0
M  V30 2558 H 247.167 4.00382 1.18325 0
M  V30 2559 H 248.557 6.38913 -2.07942 0
M  V30 2560 N 251.277 0.427512 1.51691 0
M  V30 2561 C 252.505 -0.141191 2.06418 0
M  V30 2562 C 252.92 -1.37303 1.29589 0
M  V30 2563 O 252.277 -1.79059 0.352732 0
M  V30 2564 C 252.328 -0.473266 3.58389 0
M  V30 2565 O 252.049 0.709673 4.32314 0
M  V30 2566 C 253.55 -1.09371 4.29596 0
M  V30 2567 H 250.77 -0.0122747 0.670888 0
M  V30 2568 H 253.314 0.603764 1.95384 0
M  V30 2569 H 251.469 -1.16812 3.69369 0
M  V30 2570 H 251.883 0.42807 5.2275 0
M  V30 2571 H 253.357 -1.27613 5.37046 0
M  V30 2572 H 253.834 -2.072 3.87253 0
M  V30 2573 H 254.44 -0.43853 4.23033 0
M  V30 2574 N 252.755 -1.56801 0.158532 0
M  V30 2575 C 254.002 -1.9649 -0.489679 0
M  V30 2576 C 254.33 -1.04394 -1.6411 0
M  V30 2577 O 253.585 -0.0754401 -1.95555 0
M  V30 2578 C 253.884 -3.4235 -1.02623 0
M  V30 2579 C 253.55 -4.50899 0.00794526 0
M  V30 2580 C 252.212 -4.80312 0.292207 0
M  V30 2581 C 254.564 -5.16333 0.710584 0
M  V30 2582 C 251.892 -5.72461 1.28472 0
M  V30 2583 C 254.244 -6.09553 1.69199 0
M  V30 2584 C 252.908 -6.37339 1.98383 0
M  V30 2585 H 252.178 -0.719009 -0.179186 0
M  V30 2586 H 254.825 -1.8989 0.247798 0
M  V30 2587 H 253.13 -3.45838 -1.84128 0
M  V30 2588 H 254.827 -3.70393 -1.53656 0
M  V30 2589 H 251.417 -4.28015 -0.22379 0
M  V30 2590 H 255.601 -4.93732 0.504174 0
M  V30 2591 H 250.857 -5.92278 1.51714 0
M  V30 2592 H 255.031 -6.59327 2.24189 0
M  V30 2593 H 252.658 -7.08546 2.7544 0
M  V30 2594 N 254.233 0.115231 -1.57178 0
M  V30 2595 C 255.644 0.67197 -1.74188 0
M  V30 2596 C 255.995 1.80125 -0.777777 0
M  V30 2597 O 255.12 2.16346 0.0484376 0
M  V30 2598 C 255.715 1.22573 -3.1585 0
M  V30 2599 C 254.274 1.72872 -3.34353 0
M  V30 2600 C 253.421 0.629972 -2.70049 0
M  V30 2601 H 256.372 -0.110712 -1.58313 0
M  V30 2602 H 256.393 2.09535 -3.17609 0
M  V30 2603 H 255.905 0.403598 -3.85996 0
M  V30 2604 H 254.006 2.5755 -2.69256 0
M  V30 2605 H 254.119 1.83557 -4.42542 0
M  V30 2606 H 252.483 1.0645 -2.31388 0
M  V30 2607 H 253.266 -0.181241 -3.42821 0
M  V30 2608 N 255.711 1.52812 0.385517 0
M  V30 2609 C 256.674 1.77188 1.45386 0
M  V30 2610 C 257.674 0.641953 1.4743 0
M  V30 2611 O 258.864 0.910033 1.4854 0
M  V30 2612 C 255.996 1.87582 2.8465 0
M  V30 2613 H 257.189 2.72583 1.25054 0
M  V30 2614 H 254.742 1.43586 0.617467 0
M  V30 2615 H 255.477 0.941849 3.10322 0
M  V30 2616 H 255.262 2.69748 2.84567 0
M  V30 2617 H 256.752 2.08102 3.62054 0
M  V30 2618 N 257.189 -0.644168 1.43834 0
M  V30 2619 C 258.435 -1.40603 1.46146 0
M  V30 2620 C 258.768 -1.93997 0.0887717 0
M  V30 2621 O 258.043 -1.72854 -0.891724 0
M  V30 2622 C 258.326 -2.58086 2.51124 0
M  V30 2623 C 258.179 -2.10126 3.97702 0
M  V30 2624 C 259.498 -3.60291 2.52742 0
M  V30 2625 H 256.617 -0.509905 0.532134 0
M  V30 2626 H 259.259 -0.729502 1.75437 0
M  V30 2627 H 257.409 -3.15801 2.26278 0
M  V30 2628 H 259.081 -1.57342 4.33637 0
M  V30 2629 H 257.324 -1.41419 4.10101 0
M  V30 2630 H 257.995 -2.94649 4.66783 0
M  V30 2631 H 260.471 -3.12352 2.7491 0
M  V30 2632 H 259.347 -4.40032 3.28121 0
M  V30 2633 H 259.608 -4.1349 1.56455 0
M  V30 2634 N 258.668 -1.30515 -0.883378 0
M  V30 2635 C 259.598 -1.19607 -2.00541 0
M  V30 2636 C 260.579 -0.086346 -1.69881 0
M  V30 2637 O 261.764 -0.268654 -1.92333 0
M  V30 2638 C 258.894 -0.888758 -3.35736 0
M  V30 2639 C 257.848 -1.95659 -3.8066 0
M  V30 2640 C 257.174 -1.50224 -5.13164 0
M  V30 2641 C 258.474 -3.36788 -3.99213 0
M  V30 2642 H 260.168 -2.13476 -2.09925 0
M  V30 2643 H 257.714 -1.02775 -1.00863 0
M  V30 2644 H 259.667 -0.799094 -4.13754 0
M  V30 2645 H 258.391 0.0856125 -3.26488 0
M  V30 2646 H 257.05 -2.03591 -3.04871 0
M  V30 2647 H 256.698 -0.516092 -5.00345 0
M  V30 2648 H 256.398 -2.2165 -5.44192 0
M  V30 2649 H 257.922 -1.42639 -5.93706 0
M  V30 2650 H 259.336 -3.31605 -4.67665 0
M  V30 2651 H 257.733 -4.06314 -4.41621 0
M  V30 2652 H 258.803 -3.78561 -3.03017 0
M  V30 2653 N 260.146 1.09593 -1.13257 0
M  V30 2654 C 261.078 2.16015 -0.766167 0
M  V30 2655 C 262.091 1.61423 0.211303 0
M  V30 2656 O 263.28 1.78498 -0.00863946 0
M  V30 2657 C 260.38 3.38706 -0.114662 0
M  V30 2658 C 259.553 4.22717 -1.12379 0
M  V30 2659 C 258.612 5.23835 -0.498301 0
M  V30 2660 O 257.638 5.573 -1.15781 0
M  V30 2661 N 258.84 5.75886 0.730417 0
M  V30 2662 H 261.605 2.48055 -1.68193 0
M  V30 2663 H 259.166 1.25292 -1.02535 0
M  V30 2664 H 261.158 4.03464 0.315991 0
M  V30 2665 H 259.728 3.04569 0.704011 0
M  V30 2666 H 258.948 3.54122 -1.73179 0
M  V30 2667 H 260.236 4.75673 -1.80589 0
M  V30 2668 H 259.634 5.50911 1.28504 0
M  V30 2669 H 258.191 6.42387 1.10376 0
M  V30 2670 N 261.624 0.925811 1.2754 0
M  V30 2671 C 262.849 0.580924 1.99098 0
M  V30 2672 C 263.274 -0.833555 1.68622 0
M  V30 2673 O 262.632 -1.55903 0.925422 0
M  V30 2674 C 262.68 0.811186 3.51358 0
M  V30 2675 O 261.784 -0.124129 4.12213 0
M  V30 2676 H 261.125 0.223873 0.625122 0
M  V30 2677 H 263.655 1.24455 1.62395 0
M  V30 2678 H 263.665 0.72601 4.01489 0
M  V30 2679 H 262.34 1.84227 3.72872 0
M  V30 2680 H 260.917 0.0108006 3.72898 0
M  V30 2681 N 263.102 -1.41638 0.69111 0
M  V30 2682 C 264.379 -1.95036 0.148421 0
M  V30 2683 C 264.759 -1.63072 -1.34055 0
M  V30 2684 O 264.107 -0.93538 -2.08478 0
M  V30 2685 C 264.317 -3.46279 0.434951 0
M  V30 2686 C 265.665 -4.23069 0.360275 0
M  V30 2687 O 266.689 -3.54277 0.369613 0
M  V30 2688 O 265.548 -5.45583 0.316534 0
M  V30 2689 H 262.642 -0.826908 0.0123654 0
M  V30 2690 H 265.188 -1.5138 0.766963 0
M  V30 2691 H 263.96 -3.6281 1.46576 0
M  V30 2692 H 263.583 -3.97019 -0.214787 0
M  V30 2693 N 264.58 -0.43555 -1.51462 0
M  V30 2694 C 265.51 0.367376 -2.30592 0
M  V30 2695 C 266.491 1.02263 -1.35928 0
M  V30 2696 O 267.676 1.02661 -1.64847 0
M  V30 2697 C 264.806 1.46983 -3.14664 0
M  V30 2698 C 263.76 0.938161 -4.17591 0
M  V30 2699 C 263.086 2.13622 -4.90173 0
M  V30 2700 C 264.386 -0.0261621 -5.22293 0
M  V30 2701 H 266.08 -0.292969 -2.97963 0
M  V30 2702 H 263.626 -0.14234 -1.43295 0
M  V30 2703 H 265.579 2.03873 -3.688 0
M  V30 2704 H 264.303 2.15843 -2.4511 0
M  V30 2705 H 262.962 0.391481 -3.64504 0
M  V30 2706 H 262.61 2.81098 -4.17124 0
M  V30 2707 H 262.31 1.78688 -5.59772 0
M  V30 2708 H 263.834 2.7107 -5.47132 0
M  V30 2709 H 265.248 0.452384 -5.71512 0
M  V30 2710 H 263.645 -0.287992 -5.99409 0
M  V30 2711 H 264.715 -0.963391 -4.75233 0
M  V30 2712 N 266.058 1.56714 -0.166846 0
M  V30 2713 C 267.288 2.00828 0.48494 0
M  V30 2714 C 267.696 1.04612 1.57648 0
M  V30 2715 O 267.039 0.0383201 1.8366 0
M  V30 2716 C 267.101 3.4137 1.12723 0
M  V30 2717 C 266.765 4.56654 0.177886 0
M  V30 2718 C 267.762 5.16402 -0.60207 0
M  V30 2719 C 265.447 5.02244 0.0750139 0
M  V30 2720 C 267.441 6.20167 -1.47215 0
M  V30 2721 C 265.128 6.05859 -0.798649 0
M  V30 2722 C 266.126 6.64691 -1.57082 0
M  V30 2723 O 265.814 7.66297 -2.42989 0
M  V30 2724 H 265.546 0.663587 0.128953 0
M  V30 2725 H 268.1 2.03692 -0.264365 0
M  V30 2726 H 266.33 3.35406 1.92457 0
M  V30 2727 H 268.019 3.69466 1.68076 0
M  V30 2728 H 268.785 4.82065 -0.53274 0
M  V30 2729 H 264.664 4.56167 0.665812 0
M  V30 2730 H 268.208 6.66016 -2.07531 0
M  V30 2731 H 264.105 6.39621 -0.869199 0
M  V30 2732 H 264.873 7.83601 -2.36455 0
M  V30 2733 N 267.536 -0.106894 1.57237 0
M  V30 2734 C 268.764 -0.826389 1.8968 0
M  V30 2735 C 269.179 -1.72856 0.759353 0
M  V30 2736 O 268.536 -1.80503 -0.269263 0
M  V30 2737 C 268.587 -1.64967 3.21665 0
M  V30 2738 O 268.308 -0.783804 4.31031 0
M  V30 2739 C 269.809 -2.47326 3.67892 0
M  V30 2740 H 267.029 -0.236927 0.627779 0
M  V30 2741 H 269.573 -0.0876593 2.04312 0
M  V30 2742 H 267.728 -2.34103 3.08666 0
M  V30 2743 H 268.142 -1.35284 5.06753 0
M  V30 2744 H 269.616 -3.00604 4.6297 0
M  V30 2745 H 270.093 -3.25247 2.95146 0
M  V30 2746 H 270.699 -1.83411 3.83719 0
M  V30 2747 N 269.014 -1.53014 -0.377408 0
M  V30 2748 C 269.944 -1.81589 -1.46791 0
M  V30 2749 C 270.925 -0.668622 -1.56408 0
M  V30 2750 O 272.11 -0.917337 -1.71168 0
M  V30 2751 C 269.24 -1.99519 -2.8427 0
M  V30 2752 C 268.194 -3.15249 -2.89486 0
M  V30 2753 C 267.52 -3.18451 -4.29527 0
M  V30 2754 C 268.82 -4.54084 -2.58079 0
M  V30 2755 H 270.514 -2.7291 -1.23127 0
M  V30 2756 H 268.06 -1.31319 -0.590883 0
M  V30 2757 H 270.013 -2.18092 -3.60575 0
M  V30 2758 H 268.737 -1.04897 -3.09296 0
M  V30 2759 H 267.396 -2.96477 -2.15631 0
M  V30 2760 H 267.044 -2.2149 -4.5161 0
M  V30 2761 H 266.744 -3.962 -4.33934 0
M  V30 2762 H 268.268 -3.39193 -5.07721 0
M  V30 2763 H 269.682 -4.72899 -3.24098 0
M  V30 2764 H 268.079 -5.33987 -2.7382 0
M  V30 2765 H 269.149 -4.60006 -1.53372 0
M  V30 2766 N 270.492 0.636531 -1.44174 0
M  V30 2767 C 271.717 1.42847 -1.50364 0
M  V30 2768 C 272.142 1.87665 -0.127867 0
M  V30 2769 O 271.5 1.58408 0.88185 0
M  V30 2770 C 271.548 2.62854 -2.4686 0
M  V30 2771 O 270.652 3.62501 -1.9664 0
M  V30 2772 H 269.993 0.427642 -0.507955 0
M  V30 2773 H 272.523 0.777422 -1.89255 0
M  V30 2774 H 272.533 3.10465 -2.64718 0
M  V30 2775 H 271.208 2.29578 -3.46795 0
M  V30 2776 H 269.785 3.21735 -1.88523 0
M  V30 2777 N 271.97 1.30982 0.876444 0
M  V30 2778 C 273.195 1.23373 1.66715 0
M  V30 2779 C 273.62 -0.19885 1.87046 0
M  V30 2780 O 272.978 -1.1427 1.40756 0
M  V30 2781 C 273.026 1.97644 3.01611 0
M  V30 2782 O 272.13 1.30935 3.91062 0
M  V30 2783 H 271.471 0.426279 0.509099 0
M  V30 2784 H 274.001 1.72944 1.09323 0
M  V30 2785 H 274.011 2.06992 3.51594 0
M  V30 2786 H 272.686 3.01829 2.86133 0
M  V30 2787 H 271.263 1.29996 3.49507 0
M  V30 2788 N 273.449 -1.08991 1.13837 0
M  V30 2789 C 274.674 -1.85551 0.926585 0
M  V30 2790 C 275.099 -1.80782 -0.519566 0
M  V30 2791 O 274.457 -1.18855 -1.36906 0
M  V30 2792 C 274.505 -3.31266 1.42462 0
M  V30 2793 O 273.609 -4.07822 0.612789 0
M  V30 2794 H 272.95 -0.575192 0.331738 0
M  V30 2795 H 275.48 -1.37604 1.51414 0
M  V30 2796 H 275.49 -3.82112 1.43019 0
M  V30 2797 H 274.165 -3.34052 2.47754 0
M  V30 2798 H 272.742 -3.66731 0.675463 0
M  V30 2799 N 274.927 -0.932562 -1.27047 0
M  V30 2800 C 276.173 -0.576412 -1.94436 0
M  V30 2801 C 276.506 0.880891 -1.73072 0
M  V30 2802 O 275.781 1.62905 -1.06264 0
M  V30 2803 C 276.064 -0.909031 -3.48437 0
M  V30 2804 C 275.917 -2.42044 -3.79123 0
M  V30 2805 C 277.236 -0.418341 -4.38107 0
M  V30 2806 H 274.355 -0.210888 -0.706184 0
M  V30 2807 H 276.997 -1.16522 -1.50075 0
M  V30 2808 H 275.147 -0.407947 -3.86352 0
M  V30 2809 H 276.819 -2.99359 -3.50973 0
M  V30 2810 H 275.062 -2.86758 -3.25503 0
M  V30 2811 H 275.733 -2.6037 -4.86736 0
M  V30 2812 H 278.209 -0.847856 -4.0737 0
M  V30 2813 H 277.085 -0.679981 -5.44672 0
M  V30 2814 H 277.346 0.681642 -4.36814 0
M  V30 2815 N 276.405 1.4127 -0.698611 0
M  V30 2816 C 277.633 2.05503 -0.239992 0
M  V30 2817 C 278.048 1.52584 1.11191 0
M  V30 2818 O 277.405 0.675323 1.69545 0
M  V30 2819 C 277.456 3.60987 -0.192429 0
M  V30 2820 O 277.177 4.1195 -1.49094 0
M  V30 2821 C 278.678 4.42371 0.28681 0
M  V30 2822 H 275.898 0.661748 -0.111045 0
M  V30 2823 H 278.442 1.80987 -0.95205 0
M  V30 2824 H 276.597 3.84533 0.470472 0
M  V30 2825 H 277.011 5.06018 -1.38007 0
M  V30 2826 H 278.485 5.51344 0.26896 0
M  V30 2827 H 278.962 4.18699 1.32619 0
M  V30 2828 H 279.568 4.23897 -0.345201 0
M  V30 2829 N 277.883 0.443576 1.51229 0
M  V30 2830 C 279.129 -0.120975 2.02439 0
M  V30 2831 C 279.462 -1.41815 1.32674 0
M  V30 2832 O 278.737 -1.89373 0.443622 0
M  V30 2833 C 279.02 -0.333291 3.58554 0
M  V30 2834 C 278.873 0.982968 4.38928 0
M  V30 2835 C 280.192 -1.10028 4.26124 0
M  V30 2836 H 277.311 -0.0424923 0.735774 0
M  V30 2837 H 279.953 0.583794 1.80809 0
M  V30 2838 H 278.103 -0.933614 3.77115 0
M  V30 2839 H 279.775 1.61775 4.32003 0
M  V30 2840 H 278.018 1.58611 4.03763 0
M  V30 2841 H 278.689 0.788379 5.46341 0
M  V30 2842 H 281.165 -0.591711 4.11871 0
M  V30 2843 H 280.041 -1.21761 5.35225 0
M  V30 2844 H 280.302 -2.12996 3.87408 0
M  V30 2845 N 279.361 -1.56624 0.175154 0
M  V30 2846 C 280.589 -2.01374 -0.474971 0
M  V30 2847 C 281.004 -1.05537 -1.56548 0
M  V30 2848 O 280.361 -0.0568668 -1.82411 0
M  V30 2849 C 280.412 -3.45923 -1.04975 0
M  V30 2850 O 280.133 -4.381 -0.00276605 0
M  V30 2851 C 281.634 -4.06093 -1.77773 0
M  V30 2852 H 278.854 -0.659962 -0.121206 0
M  V30 2853 H 281.398 -2.02601 0.27801 0
M  V30 2854 H 279.553 -3.45458 -1.75321 0
M  V30 2855 H 279.967 -5.22753 -0.427681 0
M  V30 2856 H 281.441 -5.09147 -2.13245 0
M  V30 2857 H 281.918 -3.48405 -2.67414 0
M  V30 2858 H 282.524 -4.10272 -1.12059 0
M  V30 2859 N 280.839 0.0985539 -1.57292 0
M  V30 2860 C 282.064 0.820196 -1.90493 0
M  V30 2861 C 282.489 1.71658 -0.769094 0
M  V30 2862 O 281.847 1.79133 0.279495 0
M  V30 2863 C 281.895 1.61242 -3.22542 0
M  V30 2864 O 280.999 2.72108 -3.09888 0
M  V30 2865 H 280.34 0.225547 -0.62452 0
M  V30 2866 H 282.87 0.0748159 -2.04463 0
M  V30 2867 H 282.88 1.99737 -3.55766 0
M  V30 2868 H 281.555 0.954535 -4.04798 0
M  V30 2869 H 280.132 2.36667 -2.88172 0
M  V30 2870 N 282.317 1.53212 0.369288 0
M  V30 2871 C 283.542 1.73423 1.1375 0
M  V30 2872 C 283.967 0.460404 1.82378 0
M  V30 2873 O 283.325 -0.585298 1.71592 0
M  V30 2874 C 283.373 2.89769 2.1463 0
M  V30 2875 O 282.477 2.58119 3.21634 0
M  V30 2876 H 281.818 0.576061 0.330227 0
M  V30 2877 H 284.348 2.00083 0.427547 0
M  V30 2878 H 284.358 3.15829 2.58294 0
M  V30 2879 H 283.033 3.8217 1.64071 0
M  V30 2880 H 281.61 2.42864 2.82969 0
M  V30 2881 N 283.795 -0.628877 1.44509 0
M  V30 2882 C 285.023 -1.41554 1.50897 0
M  V30 2883 C 285.438 -1.8832 0.134564 0
M  V30 2884 O 284.795 -1.60969 -0.859965 0
M  V30 2885 C 284.846 -2.63435 2.47556 0
M  V30 2886 O 284.567 -2.18619 3.79654 0
M  V30 2887 C 286.068 -3.56537 2.63431 0
M  V30 2888 H 283.288 -0.434044 0.511709 0
M  V30 2889 H 285.832 -0.768895 1.89495 0
M  V30 2890 H 283.987 -3.24187 2.12089 0
M  V30 2891 H 284.401 -2.97652 4.31861 0
M  V30 2892 H 285.875 -4.38657 3.35088 0
M  V30 2893 H 286.352 -4.05493 1.68738 0
M  V30 2894 H 286.958 -3.01653 2.9981 0
M  V30 2895 N 285.273 -1.31445 -0.869486 0
M  V30 2896 C 286.519 -1.22347 -1.62489 0
M  V30 2897 C 286.874 0.216204 -1.91181 0
M  V30 2898 O 286.167 1.14977 -1.53268 0
M  V30 2899 C 286.361 -2.00145 -2.96102 0
M  V30 2900 C 286.19 -3.51531 -2.80456 0
M  V30 2901 C 284.96 -4.20882 -2.79618 0
M  V30 2902 C 287.158 -4.46471 -2.5528 0
M  V30 2903 N 285.14 -5.58421 -2.55027 0
M  V30 2904 C 286.511 -5.71682 -2.39957 0
M  V30 2905 C 288.566 -4.35892 -2.40629 0
M  V30 2906 C 287.269 -6.87511 -2.11472 0
M  V30 2907 C 289.295 -5.51505 -2.13532 0
M  V30 2908 C 288.657 -6.75707 -1.98998 0
M  V30 2909 H 284.756 -0.502815 -0.598917 0
M  V30 2910 H 287.34 -1.65639 -1.02332 0
M  V30 2911 H 285.511 -1.59221 -3.54264 0
M  V30 2912 H 287.243 -1.83063 -3.60929 0
M  V30 2913 H 283.998 -3.72857 -2.92018 0
M  V30 2914 H 284.422 -6.30841 -2.45701 0
M  V30 2915 H 289.064 -3.40533 -2.50593 0
M  V30 2916 H 286.782 -7.82897 -2.00245 0
M  V30 2917 H 290.368 -5.45238 -2.02995 0
M  V30 2918 H 289.248 -7.63655 -1.78326 0
M  V30 2919 N 286.751 1.08385 -1.14413 0
M  V30 2920 C 288.162 1.62258 -0.923535 0
M  V30 2921 C 288.513 1.88691 0.537595 0
M  V30 2922 O 287.638 1.64454 1.40655 0
M  V30 2923 C 288.233 2.94781 -1.67002 0
M  V30 2924 C 286.792 3.45437 -1.495 0
M  V30 2925 C 285.939 2.19668 -1.69238 0
M  V30 2926 H 288.89 0.916086 -1.2959 0
M  V30 2927 H 288.911 3.63229 -1.13334 0
M  V30 2928 H 288.423 2.7551 -2.73342 0
M  V30 2929 H 286.524 3.6981 -0.455097 0
M  V30 2930 H 286.637 4.22173 -2.2651 0
M  V30 2931 H 285.001 2.28849 -1.11804 0
M  V30 2932 H 285.784 2.02905 -2.7692 0
M  V30 2933 N 288.23 0.939286 1.26551 0
M  V30 2934 C 289.455 0.602008 1.98471 0
M  V30 2935 C 289.88 -0.815624 1.69497 0
M  V30 2936 O 289.238 -1.54912 0.941905 0
M  V30 2937 C 289.286 0.848407 3.50477 0
M  V30 2938 O 288.39 -0.0804009 4.12322 0
M  V30 2939 H 287.731 0.23049 0.622712 0
M  V30 2940 H 290.261 1.2617 1.61066 0
M  V30 2941 H 290.271 0.768553 4.00696 0
M  V30 2942 H 288.946 1.88171 3.70897 0
M  V30 2943 H 287.523 0.0503508 3.72866 0
M  V30 2944 N 289.708 -1.40897 0.706093 0
M  V30 2945 C 290.64 -2.29199 0.00815776 0
M  V30 2946 C 291.653 -1.45336 -0.733582 0
M  V30 2947 O 292.842 -1.68727 -0.582537 0
M  V30 2948 C 289.942 -3.23417 -1.01265 0
M  V30 2949 C 289.115 -4.36089 -0.338387 0
M  V30 2950 C 288.174 -5.10811 -1.26326 0
M  V30 2951 O 287.2 -5.64215 -0.751651 0
M  V30 2952 N 288.402 -5.19269 -2.595 0
M  V30 2953 H 291.167 -2.89738 0.766297 0
M  V30 2954 H 288.728 -1.52164 0.55296 0
M  V30 2955 H 290.72 -3.70276 -1.63334 0
M  V30 2956 H 289.29 -2.64112 -1.67223 0
M  V30 2957 H 288.51 -3.91479 0.462352 0
M  V30 2958 H 289.798 -5.08634 0.130031 0
M  V30 2959 H 289.196 -4.77347 -3.03573 0
M  V30 2960 H 287.753 -5.69667 -3.16737 0
M  V30 2961 N 291.186 -0.45159 -1.50991 0
M  V30 2962 C 292.411 0.110667 -2.07105 0
M  V30 2963 C 292.836 1.3446 -1.31538 0
M  V30 2964 O 292.194 1.77743 -0.357365 0
M  V30 2965 C 292.242 0.397238 -3.58405 0
M  V30 2966 O 291.346 1.48124 -3.84881 0
M  V30 2967 H 290.687 -0.00439271 -0.663985 0
M  V30 2968 H 293.217 -0.637026 -1.9443 0
M  V30 2969 H 293.227 0.64351 -4.02893 0
M  V30 2970 H 291.902 -0.504553 -4.12828 0
M  V30 2971 H 290.479 1.22381 -3.52246 0
M  V30 2972 N 292.664 1.56529 -0.183458 0
M  V30 2973 C 293.913 1.96419 0.458511 0
M  V30 2974 C 294.226 1.0727 1.63562 0
M  V30 2975 O 295.432 1.36893 2.34462 0
M  V30 2976 C 293.888 3.49298 0.867122 0
M  V30 2977 C 293.496 4.47092 -0.285057 0
M  V30 2978 C 295.24 3.97983 1.47683 0
M  V30 2979 C 293.147 5.91225 0.143862 0
M  V30 2980 H 292.077 0.733394 0.175071 0
M  V30 2981 H 294.728 1.81448 -0.273624 0
M  V30 2982 H 293.11 3.59731 1.65559 0
M  V30 2983 H 294.284 4.48383 -1.0625 0
M  V30 2984 H 292.599 4.08535 -0.805503 0
M  V30 2985 H 295.196 5.03134 1.80999 0
M  V30 2986 H 295.539 3.41618 2.37914 0
M  V30 2987 H 296.072 3.90617 0.752562 0
M  V30 2988 H 292.811 6.5149 -0.723974 0
M  V30 2989 H 292.331 5.93214 0.886413 0
M  V30 2990 H 294.01 6.44362 0.583628 0
M  V30 2991 N 294.142 -0.090211 1.57342 0
M  V30 2992 C 295.37 -0.806224 1.90546 0
M  V30 2993 C 295.785 -1.72041 0.777644 0
M  V30 2994 O 295.142 -1.80778 -0.250103 0
M  V30 2995 C 295.193 -1.61546 3.23396 0
M  V30 2996 O 294.914 -0.738043 4.31839 0
M  V30 2997 C 296.415 -2.4341 3.70495 0
M  V30 2998 H 293.635 -0.230256 0.630257 0
M  V30 2999 H 296.179 -0.0659843 2.04394 0
M  V30 3000 H 294.334 -2.30816 3.11131 0
M  V30 3001 H 294.748 -1.29901 5.08159 0
M  V30 3002 H 296.222 -2.95676 4.66133 0
M  V30 3003 H 296.699 -3.22098 2.98579 0
M  V30 3004 H 297.305 -1.79331 3.85643 0
M  V30 3005 N 295.62 -1.53406 -0.361157 0
M  V30 3006 C 296.86 -1.71507 -1.11197 0
M  V30 3007 C 297.224 -0.459337 -1.86425 0
M  V30 3008 O 298.425 -0.517102 -2.63779 0
M  V30 3009 C 296.696 -2.93307 -2.0422 0
M  V30 3010 S 298.255 -3.32135 -2.86761 0
M  V30 3011 H 295.073 -0.603448 -0.375995 0
M  V30 3012 H 297.675 -1.91516 -0.392642 0
M  V30 3013 H 296.379 -3.82891 -1.47724 0
M  V30 3014 H 295.91 -2.75712 -2.80618 0
M  V30 3015 H 297.925 -2.84493 -4.06544 0
M  V30 3016 N 297.098 0.621204 -1.44841 0
M  V30 3017 C 298.046 1.75385 -1.52784 0
M  V30 3018 C 299.04 1.64639 -0.398779 0
M  V30 3019 O 300.246 1.70598 -0.574137 0
M  V30 3020 H 296.621 0.579193 -0.479625 0
M  V30 3021 H 298.592 1.6581 -2.48092 0
M  V30 3022 C 297.341 3.13742 -1.4987 0
M  V30 3023 H 296.664 3.22663 -2.36069 0
M  V30 3024 H 298.104 3.92861 -1.59487 0
M  V30 3025 C 296.563 3.36175 -0.220973 0
M  V30 3026 O 297.093 3.95469 0.704782 0
M  V30 3027 N 295.299 2.90348 -0.120963 0
M  V30 3028 H 294.846 2.42278 -0.875162 0
M  V30 3029 H 294.804 3.05732 0.733168 0
M  V30 3030 N 298.576 1.31904 0.862503 0
M  V30 3031 C 299.822 1.22197 1.61851 0
M  V30 3032 C 300.155 -0.217641 1.92977 0
M  V30 3033 O 299.43 -1.15264 1.56666 0
M  V30 3034 C 299.713 2.07378 2.94391 0
M  V30 3035 C 299.566 3.59678 2.70096 0
M  V30 3036 C 300.885 1.92891 3.95577 0
M  V30 3037 H 298.004 0.445255 0.587296 0
M  V30 3038 H 300.646 1.6177 0.99651 0
M  V30 3039 H 298.796 1.73758 3.47477 0
M  V30 3040 H 300.468 4.03472 2.23625 0
M  V30 3041 H 298.711 3.82735 2.04197 0
M  V30 3042 H 299.382 4.14595 3.64438 0
M  V30 3043 H 301.858 2.22327 3.51724 0
M  V30 3044 H 300.734 2.54781 4.86187 0
M  V30 3045 H 300.995 0.894315 4.3296 0
M  V30 3046 N 300.054 -1.07777 1.14986 0
M  V30 3047 C 301.017 -2.13041 0.845358 0
M  V30 3048 C 302.017 -1.60071 -0.152931 0
M  V30 3049 O 303.207 -1.74033 0.0761879 0
M  V30 3050 C 300.339 -3.39896 0.261383 0
M  V30 3051 H 301.532 -2.41485 1.77834 0
M  V30 3052 H 299.085 -1.23595 0.956757 0
M  V30 3053 H 299.82 -3.17091 -0.68 0
M  V30 3054 H 299.605 -3.79642 0.980514 0
M  V30 3055 H 301.095 -4.17548 0.0657687 0
M  V30 3056 N 301.532 -0.945985 -1.26051 0
M  V30 3057 C 302.482 -0.430164 -2.23905 0
M  V30 3058 C 303.466 0.47579 -1.53704 0
M  V30 3059 O 304.658 0.310252 -1.7426 0
M  V30 3060 C 301.787 0.298957 -3.41996 0
M  V30 3061 C 300.873 -0.624566 -4.19476 0
M  V30 3062 N 301.264 -1.75245 -4.74471 0
M  V30 3063 C 299.562 -0.431082 -4.43912 0
M  V30 3064 C 300.263 -2.32834 -5.3307 0
M  V30 3065 N 299.239 -1.61583 -5.1903 0
M  V30 3066 H 303.041 -1.29107 -2.64024 0
M  V30 3067 H 300.555 -0.802428 -1.41191 0
M  V30 3068 H 302.552 0.685565 -4.11225 0
M  V30 3069 H 301.212 1.15657 -3.03403 0
M  V30 3070 H 302.223 -2.13449 -4.71868 0
M  V30 3071 H 298.9 0.384364 -4.15727 0
M  V30 3072 H 300.29 -3.27893 -5.86461 0
M  V30 3073 N 303.011 1.40521 -0.713556 0
M  V30 3074 C 304.422 1.83853 -0.324807 0
M  V30 3075 C 304.773 1.59667 1.14021 0
M  V30 3076 O 303.898 1.07649 1.87725 0
M  V30 3077 C 304.493 3.33751 -0.582746 0
M  V30 3078 C 303.052 3.75584 -0.247727 0
M  V30 3079 C 302.199 2.63753 -0.856121 0
M  V30 3080 H 305.15 1.29817 -0.91286 0
M  V30 3081 H 305.171 3.80194 0.152682 0
M  V30 3082 H 304.683 3.51322 -1.64908 0
M  V30 3083 H 302.784 3.63608 0.813624 0
M  V30 3084 H 302.897 4.7373 -0.715307 0
M  V30 3085 H 301.261 2.53108 -0.28432 0
M  V30 3086 H 302.044 2.84137 -1.92668 0
M  V30 3087 N 304.489 0.459591 1.5075 0
M  V30 3088 C 305.452 -0.329093 2.26825 0
M  V30 3089 C 306.452 -0.930481 1.31144 0
M  V30 3090 O 307.642 -0.801453 1.54669 0
M  V30 3091 C 304.774 -1.46768 3.07688 0
M  V30 3092 H 305.967 0.337924 2.9799 0
M  V30 3093 H 303.52 0.213336 1.54837 0
M  V30 3094 H 304.255 -2.17009 2.40993 0
M  V30 3095 H 304.04 -1.04238 3.77991 0
M  V30 3096 H 305.53 -2.02433 3.65254 0
M  V30 3097 N 305.967 -1.56429 0.191757 0
M  V30 3098 C 307.192 -2.02309 -0.456706 0
M  V30 3099 C 307.617 -1.07103 -1.5463 0
M  V30 3100 O 306.975 -0.0539677 -1.8122 0
M  V30 3101 C 307.023 -3.46654 -0.993159 0
M  V30 3102 O 306.127 -3.54559 -2.10622 0
M  V30 3103 H 305.468 -0.655303 -0.107114 0
M  V30 3104 H 307.998 -2.02364 0.301653 0
M  V30 3105 H 308.008 -3.86377 -1.31061 0
M  V30 3106 H 306.683 -4.1544 -0.195504 0
M  V30 3107 H 305.26 -3.26708 -1.79767 0
M  V30 3108 N 307.445 0.0818655 -1.57387 0
M  V30 3109 C 308.67 0.799946 -1.91352 0
M  V30 3110 C 309.095 1.70833 -0.787258 0
M  V30 3111 O 308.453 1.79419 0.26048 0
M  V30 3112 C 308.501 1.57812 -3.24234 0
M  V30 3113 O 307.605 2.68806 -3.12757 0
M  V30 3114 H 306.946 0.21891 -0.626877 0
M  V30 3115 H 309.476 0.0531256 -2.04531 0
M  V30 3116 H 309.486 1.95952 -3.57864 0
M  V30 3117 H 308.161 0.911548 -4.05788 0
M  V30 3118 H 306.738 2.33597 -2.90666 0
M  V30 3119 N 308.923 1.53595 0.353017 0
M  V30 3120 C 310.151 1.74311 1.1146 0
M  V30 3121 C 310.566 0.477854 1.82653 0
M  V30 3122 O 309.923 -0.549977 1.74016 0
M  V30 3123 C 309.974 2.91694 2.13534 0
M  V30 3124 O 309.695 4.13325 1.45238 0
M  V30 3125 C 311.196 3.24384 3.02142 0
M  V30 3126 H 308.416 0.582669 0.332773 0
M  V30 3127 H 310.96 2.00386 0.408107 0
M  V30 3128 H 309.115 2.67977 2.79763 0
M  V30 3129 H 309.529 4.79148 2.13349 0
M  V30 3130 H 311.003 4.09893 3.69718 0
M  V30 3131 H 311.48 2.40282 3.67643 0
M  V30 3132 H 312.086 3.50073 2.41514 0
M  V30 3133 N 310.401 -0.613514 1.45168 0
M  V30 3134 C 311.348 -1.72456 1.53387 0
M  V30 3135 C 312.318 -1.6169 0.380191 0
M  V30 3136 O 313.503 -1.81356 0.592836 0
M  V30 3137 C 310.643 -3.10753 1.50088 0
M  V30 3138 C 309.756 -3.32368 2.75963 0
M  V30 3139 C 308.891 -4.60737 2.64376 0
M  V30 3140 C 307.93 -4.7559 3.85332 0
M  V30 3141 N 307.067 -5.95253 3.72315 0
M  V30 3142 H 311.907 -1.64768 2.48305 0
M  V30 3143 H 309.444 -0.803503 1.23216 0
M  V30 3144 H 311.402 -3.90758 1.46164 0
M  V30 3145 H 310.032 -3.17413 0.587243 0
M  V30 3146 H 309.084 -2.4618 2.89999 0
M  V30 3147 H 310.396 -3.39218 3.65695 0
M  V30 3148 H 309.55 -5.48928 2.58385 0
M  V30 3149 H 308.289 -4.56275 1.72233 0
M  V30 3150 H 307.294 -3.85824 3.91688 0
M  V30 3151 H 308.519 -4.81854 4.78533 0
M  V30 3152 H 306.465 -5.91847 2.82937 0
M  V30 3153 H 306.382 -6.03236 4.55677 0
M  V30 3154 H 307.65 -6.85958 3.70246 0
M  V30 3155 N 311.879 -1.3236 -0.855495 0
M  V30 3156 C 313.125 -1.23054 -1.612 0
M  V30 3157 C 313.458 0.207404 -1.93089 0
M  V30 3158 O 312.733 1.14432 -1.57275 0
M  V30 3159 C 313.016 -2.08937 -2.93287 0
M  V30 3160 C 312.869 -3.61105 -2.68185 0
M  V30 3161 C 314.188 -1.94986 -3.94549 0
M  V30 3162 H 311.307 -0.448364 -0.584926 0
M  V30 3163 H 313.949 -1.62297 -0.987917 0
M  V30 3164 H 312.099 -1.75599 -3.46551 0
M  V30 3165 H 313.771 -4.04652 -2.21483 0
M  V30 3166 H 312.014 -3.83813 -2.02164 0
M  V30 3167 H 312.685 -4.16522 -3.62234 0
M  V30 3168 H 315.161 -2.24189 -3.5054 0
M  V30 3169 H 314.037 -2.57356 -4.84829 0
M  V30 3170 H 314.298 -0.917263 -4.3248 0
M  V30 3171 N 313.357 1.07166 -1.15556 0
M  V30 3172 C 314.634 1.76546 -0.842069 0
M  V30 3173 C 315.014 2.00453 0.661939 0
M  V30 3174 O 314.362 1.62452 1.60691 0
M  V30 3175 C 314.572 3.07266 -1.65495 0
M  V30 3176 C 315.92 3.81578 -1.86234 0
M  V30 3177 O 316.944 3.17083 -1.62287 0
M  V30 3178 O 315.803 4.97419 -2.26355 0
M  V30 3179 H 312.897 0.766756 -0.309862 0
M  V30 3180 H 315.443 1.13514 -1.26145 0
M  V30 3181 H 314.215 2.85494 -2.67598 0
M  V30 3182 H 313.838 3.7803 -1.23203 0
M  V30 3183 N 314.835 0.952656 1.25548 0
M  V30 3184 C 315.782 0.47008 2.25962 0
M  V30 3185 C 316.752 -0.476384 1.59122 0
M  V30 3186 O 317.937 -0.39007 1.8677 0
M  V30 3187 C 315.077 -0.247881 3.44209 0
M  V30 3188 C 314.19 0.735591 4.25691 0
M  V30 3189 C 313.325 -0.0047306 5.312 0
M  V30 3190 C 312.364 0.969805 6.04368 0
M  V30 3191 N 311.501 0.260486 7.01617 0
M  V30 3192 H 316.341 1.33126 2.66611 0
M  V30 3193 H 313.878 0.66765 1.31076 0
M  V30 3194 H 315.836 -0.680695 4.1161 0
M  V30 3195 H 314.466 -1.07312 3.0444 0
M  V30 3196 H 313.518 1.28689 3.57971 0
M  V30 3197 H 314.83 1.47934 4.76358 0
M  V30 3198 H 313.984 -0.496275 6.04667 0
M  V30 3199 H 312.723 -0.781282 4.81401 0
M  V30 3200 H 311.728 1.47237 5.29718 0
M  V30 3201 H 312.953 1.74655 6.56256 0
M  V30 3202 H 310.899 -0.497364 6.54112 0
M  V30 3203 H 310.816 0.943362 7.50091 0
M  V30 3204 H 312.084 -0.209587 7.79218 0
M  V30 3205 N 316.313 -1.40141 0.720998 0
M  V30 3206 C 317.26 -2.30688 0.071919 0
M  V30 3207 C 318.23 -1.48476 -0.744584 0
M  V30 3208 O 319.415 -1.77201 -0.707423 0
M  V30 3209 C 316.555 -3.34724 -0.839855 0
M  V30 3210 C 315.668 -4.31998 -0.0122438 0
M  V30 3211 C 314.803 -5.23102 -0.923995 0
M  V30 3212 C 313.842 -6.12033 -0.0907969 0
M  V30 3213 N 312.979 -6.95537 -0.957718 0
M  V30 3214 H 317.819 -2.85628 0.849755 0
M  V30 3215 H 315.356 -1.40653 0.430726 0
M  V30 3216 H 317.314 -3.93618 -1.38279 0
M  V30 3217 H 315.944 -2.81274 -1.58381 0
M  V30 3218 H 314.996 -3.74841 0.64794 0
M  V30 3219 H 316.308 -4.94772 0.632595 0
M  V30 3220 H 315.462 -5.86953 -1.53527 0
M  V30 3221 H 314.201 -4.60615 -1.60264 0
M  V30 3222 H 313.206 -5.47207 0.533377 0
M  V30 3223 H 314.431 -6.76581 0.584428 0
M  V30 3224 H 312.377 -6.35633 -1.62192 0
M  V30 3225 H 312.294 -7.55099 -0.36904 0
M  V30 3226 H 313.562 -7.63832 -1.555 0
M  V30 3227 N 317.792 -0.46758 -1.50504 0
M  V30 3228 C 319.041 0.0902868 -2.01498 0
M  V30 3229 C 319.354 1.411 -1.35463 0
M  V30 3230 O 320.56 2.0536 -1.77594 0
M  V30 3231 C 319.016 0.21142 -3.59278 0
M  V30 3232 C 318.624 -1.10065 -4.34269 0
M  V30 3233 C 320.368 0.721433 -4.18325 0
M  V30 3234 C 318.275 -0.943505 -5.83825 0
M  V30 3235 H 317.205 0.037517 -0.753066 0
M  V30 3236 H 319.856 -0.601943 -1.73346 0
M  V30 3237 H 318.238 0.967352 -3.84003 0
M  V30 3238 H 319.412 -1.86726 -4.21272 0
M  V30 3239 H 317.727 -1.5415 -3.86816 0
M  V30 3240 H 320.324 0.85598 -5.27804 0
M  V30 3241 H 320.667 1.71186 -3.79475 0
M  V30 3242 H 321.2 0.0229843 -3.97793 0
M  V30 3243 H 317.939 -1.90719 -6.27141 0
M  V30 3244 H 317.459 -0.217213 -5.99407 0
M  V30 3245 H 319.138 -0.608715 -6.4413 0
M  V30 3246 N 319.27 1.56325 -0.20005 0
M  V30 3247 C 320.18 2.22931 0.730668 0
M  V30 3248 C 321.196 1.22997 1.23076 0
M  V30 3249 O 322.372 1.55748 1.27689 0
M  V30 3250 C 319.437 2.87948 1.93098 0
M  V30 3251 C 318.498 4.03166 1.47497 0
M  V30 3252 C 317.731 4.65073 2.61807 0
M  V30 3253 O 317.954 4.25913 3.79413 0
M  V30 3254 O 316.888 5.54452 2.34237 0
M  V30 3255 H 320.714 3.03084 0.193391 0
M  V30 3256 H 318.299 1.49371 0.0294621 0
M  V30 3257 H 320.181 3.29063 2.6324 0
M  V30 3258 H 318.856 2.10771 2.45677 0
M  V30 3259 H 317.763 3.66664 0.742201 0
M  V30 3260 H 319.096 4.82022 0.995796 0
M  V30 3261 N 320.748 -0.0735177 1.57428 0
M  V30 3262 C 322.159 -0.625551 1.75908 0
M  V30 3263 C 322.51 -1.78 0.825261 0
M  V30 3264 O 321.635 -2.16398 0.00893964 0
M  V30 3265 C 322.23 -1.14155 3.18989 0
M  V30 3266 C 320.789 -1.63946 3.38819 0
M  V30 3267 C 319.936 -0.558151 2.71625 0
M  V30 3268 H 322.887 0.152647 1.57964 0
M  V30 3269 H 322.908 -2.0104 3.23053 0
M  V30 3270 H 322.42 -0.301116 3.8693 0
M  V30 3271 H 320.521 -2.50321 2.7599 0
M  V30 3272 H 320.634 -1.71759 4.47253 0
M  V30 3273 H 318.998 -1.00278 2.34129 0
M  V30 3274 H 319.781 0.272071 3.4222 0
M  V30 3275 N 322.226 -1.5378 -0.344866 0
M  V30 3276 C 323.642 -1.44015 -0.687888 0
M  V30 3277 C 323.842 -0.595834 -1.92489 0
M  V30 3278 O 322.898 -0.0863064 -2.52352 0
M  V30 3279 C 324.211 -2.87481 -0.881758 0
M  V30 3280 C 325.759 -2.97247 -0.980459 0
M  V30 3281 C 326.234 -4.41819 -1.20665 0
M  V30 3282 N 327.725 -4.45339 -1.27389 0
M  V30 3283 C 328.46 -5.54333 -1.46639 0
M  V30 3284 N 327.956 -6.73335 -1.63071 0
M  V30 3285 N 329.749 -5.41944 -1.49176 0
M  V30 3286 H 321.9 -2.07169 0.468475 0
M  V30 3287 H 324.163 -0.93643 0.147655 0
M  V30 3288 H 323.869 -3.51672 -0.0443444 0
M  V30 3289 H 323.743 -3.32352 -1.78388 0
M  V30 3290 H 326.13 -2.33197 -1.8084 0
M  V30 3291 H 326.211 -2.5574 -0.0552713 0
M  V30 3292 H 325.855 -5.06449 -0.383652 0
M  V30 3293 H 325.785 -4.80917 -2.14539 0
M  V30 3294 H 328.276 -3.59585 -1.1622 0
M  V30 3295 H 328.589 -7.52165 -1.77391 0
M  V30 3296 H 326.934 -6.76282 -1.60209 0
M  V30 3297 H 330.125 -4.47932 -1.3592 0
M  V30 3298 H 330.298 -6.26946 -1.63837 0
M  V30 3299 N 323.704 0.605807 -1.45491 0
M  V30 3300 C 325.115 1.18777 -1.44045 0
M  V30 3301 C 325.466 1.95471 -0.169001 0
M  V30 3302 O 324.591 2.0374 0.729324 0
M  V30 3303 C 325.186 2.16064 -2.60963 0
M  V30 3304 C 323.745 2.69633 -2.62631 0
M  V30 3305 C 322.892 1.45072 -2.36325 0
M  V30 3306 H 325.843 0.395017 -1.53705 0
M  V30 3307 H 325.864 2.9913 -2.35163 0
M  V30 3308 H 325.376 1.60217 -3.53486 0
M  V30 3309 H 323.477 3.29414 -1.74119 0
M  V30 3310 H 323.59 3.13944 -3.61906 0
M  V30 3311 H 321.954 1.74089 -1.85917 0
M  V30 3312 H 322.737 0.910899 -3.30995 0
M  V30 3313 N 325.182 1.32811 0.848464 0
M  V30 3314 C 326.129 1.22265 1.95755 0
M  V30 3315 C 327.099 0.103413 1.65778 0
M  V30 3316 O 328.284 0.280033 1.88734 0
M  V30 3317 C 325.424 0.958014 3.31536 0
M  V30 3318 C 324.537 2.16262 3.73971 0
M  V30 3319 C 323.672 1.83295 4.98575 0
M  V30 3320 C 322.711 3.00041 5.33518 0
M  V30 3321 N 321.848 2.67125 6.49299 0
M  V30 3322 H 326.688 2.17128 2.04107 0
M  V30 3323 H 324.225 1.07982 0.998913 0
M  V30 3324 H 326.183 0.785052 4.09747 0
M  V30 3325 H 324.813 0.046159 3.22767 0
M  V30 3326 H 323.865 2.44565 2.91362 0
M  V30 3327 H 325.177 3.03572 3.95785 0
M  V30 3328 H 324.331 1.62586 5.84509 0
M  V30 3329 H 323.07 0.932078 4.7871 0
M  V30 3330 H 322.075 3.21374 4.46093 0
M  V30 3331 H 323.3 3.90869 5.55336 0
M  V30 3332 H 321.246 1.79586 6.3094 0
M  V30 3333 H 321.163 3.47965 6.71161 0
M  V30 3334 H 322.431 2.49861 7.3837 0
M  V30 3335 N 326.66 -1.06551 1.16123 0
M  V30 3336 C 327.885 -1.83544 0.965735 0
M  V30 3337 C 328.31 -1.81843 -0.481102 0
M  V30 3338 O 327.668 -1.21732 -1.34354 0
M  V30 3339 C 327.716 -3.28169 1.49457 0
M  V30 3340 O 326.82 -4.0643 0.699157 0
M  V30 3341 H 326.161 -0.568026 0.343864 0
M  V30 3342 H 328.691 -1.34362 1.54299 0
M  V30 3343 H 328.701 -3.78992 1.51092 0
M  V30 3344 H 327.376 -3.28722 2.54784 0
M  V30 3345 H 325.953 -3.65216 0.7531 0
M  V30 3346 N 328.138 -0.959301 -1.25041 0
M  V30 3347 C 329.378 -0.624343 -1.94631 0
M  V30 3348 C 329.742 0.82403 -1.73418 0
M  V30 3349 O 330.943 1.26881 -2.3697 0
M  V30 3350 C 329.214 -0.978805 -3.43736 0
M  V30 3351 S 330.773 -0.757127 -4.32219 0
M  V30 3352 H 327.591 -0.229327 -0.673001 0
M  V30 3353 H 330.193 -1.23447 -1.51595 0
M  V30 3354 H 328.897 -2.02997 -3.56679 0
M  V30 3355 H 328.428 -0.359117 -3.91757 0
M  V30 3356 H 330.443 0.369759 -4.9482 0
M  V30 3357 N 329.616 1.39756 -0.72842 0
M  V30 3358 C 330.893 1.94574 -0.200079 0
M  V30 3359 C 331.273 1.66569 1.29684 0
M  V30 3360 O 330.621 0.990326 2.05924 0
M  V30 3361 C 330.831 3.45004 -0.526608 0
M  V30 3362 C 332.179 4.21965 -0.472318 0
M  V30 3363 O 333.203 3.53173 -0.463413 0
M  V30 3364 O 332.062 5.44552 -0.461075 0
M  V30 3365 H 329.156 0.826289 -0.0342851 0
M  V30 3366 H 331.702 1.49293 -0.806829 0
M  V30 3367 H 330.474 3.58796 -1.56144 0
M  V30 3368 H 330.097 3.97449 0.109449 0
M  V30 3369 N 331.094 0.475555 1.50254 0
M  V30 3370 C 332.041 -0.316293 2.28622 0
M  V30 3371 C 333.011 -0.983227 1.33873 0
M  V30 3372 O 334.196 -0.994805 1.62814 0
M  V30 3373 C 331.336 -1.38975 3.1588 0
M  V30 3374 C 330.449 -0.737146 4.25664 0
M  V30 3375 C 329.584 -1.78887 5.00173 0
M  V30 3376 C 328.623 -1.11676 6.01826 0
M  V30 3377 N 327.76 -2.11154 6.69596 0
M  V30 3378 H 332.6 0.358297 2.95838 0
M  V30 3379 H 330.137 0.188541 1.45887 0
M  V30 3380 H 332.095 -2.02383 3.64825 0
M  V30 3381 H 330.725 -2.03344 2.50701 0
M  V30 3382 H 329.777 0.0096065 3.80399 0
M  V30 3383 H 331.089 -0.206816 4.98371 0
M  V30 3384 H 330.243 -2.49865 5.52859 0
M  V30 3385 H 328.982 -2.35302 4.27182 0
M  V30 3386 H 327.987 -0.392633 5.48396 0
M  V30 3387 H 329.212 -0.55945 6.76792 0
M  V30 3388 H 327.158 -2.66577 5.99394 0
M  V30 3389 H 327.075 -1.63118 7.38193 0
M  V30 3390 H 328.343 -2.81497 7.26897 0
M  V30 3391 N 332.573 -1.56217 0.208337 0
M  V30 3392 C 333.801 -2.02337 -0.43215 0
M  V30 3393 C 334.216 -1.08834 -1.54275 0
M  V30 3394 O 333.573 -0.0955462 -1.8225 0
M  V30 3395 C 333.624 -3.48072 -0.976138 0
M  V30 3396 O 333.345 -4.38007 0.0901621 0
M  V30 3397 C 334.846 -4.09773 -1.69119 0
M  V30 3398 H 332.066 -0.662385 -0.10718 0
M  V30 3399 H 334.61 -2.01966 0.320923 0
M  V30 3400 H 332.765 -3.49099 -1.67954 0
M  V30 3401 H 333.179 -5.23543 -0.316701 0
M  V30 3402 H 334.653 -5.13556 -2.02397 0
M  V30 3403 H 335.13 -3.53999 -2.59964 0
M  V30 3404 H 335.736 -4.12556 -1.03332 0
M  V30 3405 N 334.051 0.0651679 -1.57465 0
M  V30 3406 C 335.001 1.0838 -2.00594 0
M  V30 3407 C 335.985 1.34106 -0.889071 0
M  V30 3408 O 337.177 1.34295 -1.15299 0
M  V30 3409 C 334.306 2.39565 -2.45894 0
M  V30 3410 C 333.392 2.17085 -3.64328 0
M  V30 3411 N 333.783 1.64553 -4.78285 0
M  V30 3412 C 332.081 2.4753 -3.71006 0
M  V30 3413 C 332.782 1.57042 -5.60101 0
M  V30 3414 N 331.758 2.03328 -5.04141 0
M  V30 3415 H 335.56 0.671062 -2.86136 0
M  V30 3416 H 333.074 0.27213 -1.60104 0
M  V30 3417 H 335.071 3.13308 -2.75034 0
M  V30 3418 H 333.731 2.81549 -1.61741 0
M  V30 3419 H 334.742 1.33323 -5.00445 0
M  V30 3420 H 331.419 2.92835 -2.9758 0
M  V30 3421 H 332.809 1.17223 -6.61595 0
M  V30 3422 N 335.529 1.53961 0.336706 0
M  V30 3423 C 336.757 1.75483 1.09605 0
M  V30 3424 C 337.172 0.4972 1.82136 0
M  V30 3425 O 336.529 -0.53149 1.74589 0
M  V30 3426 C 336.58 2.93943 2.10428 0
M  V30 3427 O 336.301 4.14842 1.40846 0
M  V30 3428 C 337.802 3.27571 2.98684 0
M  V30 3429 H 335.022 0.586166 0.326574 0
M  V30 3430 H 337.566 2.00808 0.38683 0
M  V30 3431 H 335.721 2.70929 2.76905 0
M  V30 3432 H 336.135 4.81383 2.08255 0
M  V30 3433 H 337.609 4.13791 3.6535 0
M  V30 3434 H 338.086 2.44168 3.65074 0
M  V30 3435 H 338.692 3.52615 2.37787 0
M  V30 3436 N 337.007 -0.598083 1.45811 0
M  V30 3437 C 338.247 -1.36802 1.5187 0
M  V30 3438 C 338.611 -1.9133 0.160224 0
M  V30 3439 O 339.812 -2.6863 0.0955302 0
M  V30 3440 C 338.083 -2.47835 2.57513 0
M  V30 3441 S 339.642 -3.35458 2.82866 0
M  V30 3442 H 336.46 -0.466278 0.536755 0
M  V30 3443 H 339.062 -0.689152 1.82951 0
M  V30 3444 H 337.766 -2.06141 3.54872 0
M  V30 3445 H 337.297 -3.20512 2.28114 0
M  V30 3446 H 339.312 -4.46251 2.16967 0
M  V30 3447 N 338.485 -1.33259 -0.841409 0
M  V30 3448 C 339.896 -1.22066 -1.41269 0
M  V30 3449 C 340.247 0.161479 -1.95534 0
M  V30 3450 O 339.372 1.06094 -1.88608 0
M  V30 3451 C 339.967 -2.20996 -2.568 0
M  V30 3452 C 338.526 -2.13649 -3.09888 0
M  V30 3453 C 337.673 -2.08623 -1.82679 0
M  V30 3454 H 340.624 -1.44895 -0.647395 0
M  V30 3455 H 340.645 -1.81621 -3.34356 0
M  V30 3456 H 340.157 -3.2158 -2.17274 0
M  V30 3457 H 338.258 -1.16359 -3.53965 0
M  V30 3458 H 338.371 -3.04079 -3.70234 0
M  V30 3459 H 336.735 -1.54061 -2.02824 0
M  V30 3460 H 337.518 -3.1101 -1.45353 0
M  V30 3461 N 339.963 1.05934 -1.16686 0
M  V30 3462 C 341.374 1.60263 -0.957745 0
M  V30 3463 C 341.725 1.89789 0.49745 0
M  V30 3464 O 340.85 1.67401 1.37135 0
M  V30 3465 C 341.445 2.91172 -1.73218 0
M  V30 3466 C 340.004 3.42188 -1.56794 0
M  V30 3467 C 339.151 2.16028 -1.73859 0
M  V30 3468 H 342.102 0.888392 -1.31504 0
M  V30 3469 H 342.123 3.60744 -1.21014 0
M  V30 3470 H 341.635 2.6965 -2.79124 0
M  V30 3471 H 339.736 3.68762 -0.533437 0
M  V30 3472 H 339.849 4.17273 -2.35414 0
M  V30 3473 H 338.213 2.26426 -1.16633 0
M  V30 3474 H 338.996 1.96985 -2.81161 0
M  V30 3475 N 341.441 0.965919 1.2453 0
M  V30 3476 C 342.681 0.634656 1.94297 0
M  V30 3477 C 343.045 -0.814822 1.73852 0
M  V30 3478 O 344.246 -1.25622 2.3764 0
M  V30 3479 C 342.517 0.99702 3.43212 0
M  V30 3480 S 344.076 0.780038 4.31811 0
M  V30 3481 H 340.894 0.232893 0.671775 0
M  V30 3482 H 343.496 1.24249 1.50938 0
M  V30 3483 H 342.2 2.04886 3.55598 0
M  V30 3484 H 341.731 0.379888 3.91562 0
M  V30 3485 H 343.746 -0.343512 4.9501 0
M  V30 3486 N 342.919 -1.39368 0.735821 0
M  V30 3487 C 344.33 -1.83313 0.354015 0
M  V30 3488 C 344.681 -1.61461 -1.11466 0
M  V30 3489 O 343.806 -1.10621 -1.85989 0
M  V30 3490 C 344.401 -3.32781 0.635769 0
M  V30 3491 C 342.96 -3.75142 0.307448 0
M  V30 3492 C 342.107 -2.62358 0.897974 0
M  V30 3493 H 345.058 -1.28349 0.933398 0
M  V30 3494 H 345.079 -3.80388 -0.0921773 0
M  V30 3495 H 344.591 -3.48654 1.70476 0
M  V30 3496 H 342.692 -3.64857 -0.755674 0
M  V30 3497 H 342.805 -4.72532 0.790583 0
M  V30 3498 H 341.169 -2.52624 0.324551 0
M  V30 3499 H 341.952 -2.81036 1.97164 0
M  V30 3500 N 344.397 -0.483516 -1.5 0
M  V30 3501 C 345.36 0.292965 -2.2732 0
M  V30 3502 C 346.36 0.909499 -1.32608 0
M  V30 3503 O 347.55 0.776745 -1.55924 0
M  V30 3504 C 344.682 1.41854 -3.09984 0
M  V30 3505 H 345.875 -0.385289 -2.97415 0
M  V30 3506 H 343.428 -0.237942 -1.54478 0
M  V30 3507 H 344.163 2.13148 -2.44414 0
M  V30 3508 H 343.948 0.982114 -3.79601 0
M  V30 3509 H 345.438 1.96597 -3.68429 0
M  V30 3510 N 345.875 1.56104 -0.216619 0
M  V30 3511 C 347.286 1.844 0.292128 0
M  V30 3512 C 347.637 1.13788 1.59833 0
M  V30 3513 O 346.762 0.405888 2.12559 0
M  V30 3514 C 347.357 3.3452 0.53681 0
M  V30 3515 C 345.916 3.63151 0.989876 0
M  V30 3516 C 345.063 2.77255 0.0502302 0
M  V30 3517 H 348.014 1.52481 -0.439926 0
M  V30 3518 H 348.035 3.54459 1.38345 0
M  V30 3519 H 347.547 3.85885 -0.414031 0
M  V30 3520 H 345.648 3.17238 1.95425 0
M  V30 3521 H 345.761 4.71177 0.867698 0
M  V30 3522 H 344.125 2.48555 0.556117 0
M  V30 3523 H 344.908 3.31416 -0.89544 0
M  V30 3524 N 347.353 -0.0568162 1.57498 0
M  V30 3525 C 348.263 -1.08346 2.08083 0
M  V30 3526 C 349.279 -1.41439 1.01346 0
M  V30 3527 O 350.455 -1.51316 1.32912 0
M  V30 3528 C 347.52 -2.37352 2.52715 0
M  V30 3529 C 346.581 -2.11093 3.73816 0
M  V30 3530 C 345.814 -3.33949 4.1631 0
M  V30 3531 O 346.037 -4.43622 3.58547 0
M  V30 3532 O 344.971 -3.21279 5.08983 0
M  V30 3533 H 348.797 -0.683667 2.95905 0
M  V30 3534 H 346.382 -0.271965 1.46904 0
M  V30 3535 H 348.264 -3.13246 2.81877 0
M  V30 3536 H 346.939 -2.76681 1.68016 0
M  V30 3537 H 345.846 -1.32856 3.49714 0
M  V30 3538 H 347.179 -1.76637 4.59413 0
M  V30 3539 N 348.832 -1.54138 -0.328536 0
M  V30 3540 C 349.762 -1.86167 -1.40939 0
M  V30 3541 C 350.743 -0.718044 -1.54202 0
M  V30 3542 O 351.928 -0.971328 -1.68163 0
M  V30 3543 C 349.058 -2.08461 -2.77779 0
M  V30 3544 C 348.012 -3.24299 -2.7931 0
M  V30 3545 C 347.338 -3.31955 -4.19178 0
M  V30 3546 C 348.638 -4.62065 -2.43502 0
M  V30 3547 H 350.332 -2.76689 -1.14383 0
M  V30 3548 H 347.878 -1.33132 -0.548806 0
M  V30 3549 H 349.831 -2.29453 -3.53454 0
M  V30 3550 H 348.555 -1.14684 -3.05802 0
M  V30 3551 H 347.214 -3.03187 -2.0609 0
M  V30 3552 H 346.862 -2.35745 -4.44335 0
M  V30 3553 H 346.562 -4.09805 -4.2111 0
M  V30 3554 H 348.086 -3.55175 -4.96672 0
M  V30 3555 H 349.5 -4.8297 -3.08889 0
M  V30 3556 H 347.897 -5.42429 -2.56693 0
M  V30 3557 H 348.967 -4.64652 -1.38659 0
M  V30 3558 N 350.31 0.590341 -1.46126 0
M  V30 3559 C 351.24 1.71032 -1.58966 0
M  V30 3560 C 352.221 1.64302 -0.440335 0
M  V30 3561 O 353.406 1.82436 -0.665634 0
M  V30 3562 C 350.536 3.09665 -1.57241 0
M  V30 3563 C 349.49 3.31221 -2.71066 0
M  V30 3564 C 348.816 4.70303 -2.54399 0
M  V30 3565 C 350.116 3.19796 -4.1295 0
M  V30 3566 H 351.81 1.60543 -2.52718 0
M  V30 3567 H 349.356 0.770933 -1.21625 0
M  V30 3568 H 351.309 3.87831 -1.64819 0
M  V30 3569 H 350.033 3.21036 -0.600289 0
M  V30 3570 H 348.692 2.55452 -2.62944 0
M  V30 3571 H 348.34 4.78429 -1.55288 0
M  V30 3572 H 348.04 4.85679 -3.30741 0
M  V30 3573 H 349.564 5.50647 -2.63857 0
M  V30 3574 H 350.978 3.87815 -4.22223 0
M  V30 3575 H 349.375 3.46696 -4.89818 0
M  V30 3576 H 350.445 2.16983 -4.33643 0
M  V30 3577 N 351.788 1.33704 0.83433 0
M  V30 3578 C 353.036 1.25169 1.58673 0
M  V30 3579 C 353.357 -0.18127 1.94156 0
M  V30 3580 O 352.627 -1.11113 1.6134 0
M  V30 3581 H 351.207 0.4603 0.58833 0
M  V30 3582 H 353.869 1.67478 0.996847 0
M  V30 3583 H 352.965 1.84856 2.51465 0
M  V30 3584 N 353.266 -1.05314 1.17247 0
M  V30 3585 C 354.514 -1.77941 0.958194 0
M  V30 3586 C 354.835 -1.88089 -0.514556 0
M  V30 3587 O 354.105 -1.39676 -1.37359 0
M  V30 3588 H 352.685 -0.659116 0.351533 0
M  V30 3589 H 355.347 -1.27166 1.47699 0
M  V30 3590 H 354.443 -2.79663 1.38546 0
M  V30 3591 N 354.744 -0.972509 -1.24016 0
M  V30 3592 C 356.155 -0.67517 -1.74064 0
M  V30 3593 C 356.506 0.808939 -1.78747 0
M  V30 3594 O 355.631 1.63286 -1.42009 0
M  V30 3595 C 356.226 -1.21889 -3.16115 0
M  V30 3596 C 354.785 -0.971358 -3.6365 0
M  V30 3597 C 353.932 -1.35134 -2.42145 0
M  V30 3598 H 356.883 -1.14727 -1.09651 0
M  V30 3599 H 356.904 -0.587489 -3.75937 0
M  V30 3600 H 356.416 -2.29906 -3.12674 0
M  V30 3601 H 354.517 0.0930686 -3.72484 0
M  V30 3602 H 354.63 -1.62039 -4.50866 0
M  V30 3603 H 352.994 -0.769751 -2.4279 0
M  V30 3604 H 353.777 -2.4411 -2.41381 0
M  V30 3605 N 356.222 1.38976 -0.743202 0
M  V30 3606 C 357.447 2.05161 -0.303936 0
M  V30 3607 C 357.872 1.55677 1.05576 0
M  V30 3608 O 357.23 0.704131 1.67068 0
M  V30 3609 C 357.278 3.59138 -0.324373 0
M  V30 3610 O 356.382 4.06668 0.685204 0
M  V30 3611 H 355.723 0.649815 -0.136518 0
M  V30 3612 H 358.253 1.77852 -1.01142 0
M  V30 3613 H 358.263 4.07639 -0.171618 0
M  V30 3614 H 356.938 3.94515 -1.31647 0
M  V30 3615 H 355.515 3.69561 0.497913 0
M  V30 3616 N 357.7 0.491464 1.49741 0
M  V30 3617 C 358.946 -0.0565092 2.02721 0
M  V30 3618 C 359.279 -1.37522 1.37118 0
M  V30 3619 O 358.554 -1.87866 0.503645 0
M  V30 3620 C 358.837 -0.219051 3.59433 0
M  V30 3621 C 358.69 1.12211 4.35579 0
M  V30 3622 C 360.009 -0.964157 4.29409 0
M  V30 3623 H 357.128 -0.0190627 0.736753 0
M  V30 3624 H 359.77 0.641021 1.7886 0
M  V30 3625 H 357.92 -0.813165 3.79895 0
M  V30 3626 H 359.592 1.75437 4.26637 0
M  V30 3627 H 357.835 1.71377 3.98513 0
M  V30 3628 H 358.506 0.961794 5.43556 0
M  V30 3629 H 360.982 -0.460378 4.13545 0
M  V30 3630 H 359.858 -1.04671 5.38828 0
M  V30 3631 H 360.119 -2.00563 3.93988 0
M  V30 3632 N 359.178 -1.55987 0.224894 0
M  V30 3633 C 360.425 -1.9839 -0.4059 0
M  V30 3634 C 360.753 -1.11261 -1.59535 0
M  V30 3635 O 360.008 -0.158314 -1.95059 0
M  V30 3636 C 360.307 -3.46394 -0.880106 0
M  V30 3637 C 359.973 -4.5046 0.19918 0
M  V30 3638 C 358.635 -4.7864 0.495661 0
M  V30 3639 C 360.987 -5.12855 0.928939 0
M  V30 3640 C 358.315 -5.66497 1.52636 0
M  V30 3641 C 360.667 -6.01828 1.949 0
M  V30 3642 C 359.331 -6.28351 2.25236 0
M  V30 3643 H 358.601 -0.725961 -0.148529 0
M  V30 3644 H 361.248 -1.88668 0.328113 0
M  V30 3645 H 359.553 -3.53337 -1.69294 0
M  V30 3646 H 361.25 -3.76577 -1.37808 0
M  V30 3647 H 357.84 -4.28579 -0.0420526 0
M  V30 3648 H 362.024 -4.9115 0.713129 0
M  V30 3649 H 357.28 -5.8531 1.76698 0
M  V30 3650 H 361.454 -6.49225 2.51951 0
M  V30 3651 H 359.081 -6.96226 3.05244 0
M  V30 3652 N 360.656 0.0484629 -1.57525 0
M  V30 3653 C 361.586 1.0549 -2.08313 0
M  V30 3654 C 362.567 1.38929 -0.981463 0
M  V30 3655 O 363.752 1.48151 -1.25558 0
M  V30 3656 C 360.882 2.36162 -2.54646 0
M  V30 3657 C 359.836 2.17016 -3.68901 0
M  V30 3658 C 359.162 3.53278 -4.01371 0
M  V30 3659 C 360.462 1.57219 -4.98076 0
M  V30 3660 H 362.156 0.632195 -2.92649 0
M  V30 3661 H 359.702 0.302654 -1.40784 0
M  V30 3662 H 361.655 3.06882 -2.88793 0
M  V30 3663 H 360.379 2.80456 -1.67368 0
M  V30 3664 H 359.038 1.48733 -3.35073 0
M  V30 3665 H 358.686 3.95185 -3.11188 0
M  V30 3666 H 358.386 3.41299 -4.78318 0
M  V30 3667 H 359.91 4.25391 -4.38035 0
M  V30 3668 H 361.324 2.17832 -5.30304 0
M  V30 3669 H 359.721 1.55871 -5.79503 0
M  V30 3670 H 360.791 0.535956 -4.81929 0
M  V30 3671 N 362.134 1.5431 0.320358 0
M  V30 3672 C 363.381 1.72668 1.05792 0
M  V30 3673 C 363.709 0.502084 1.87908 0
M  V30 3674 O 362.964 -0.516149 1.88771 0
M  V30 3675 C 363.263 2.95639 2.00828 0
M  V30 3676 C 362.929 4.30265 1.34843 0
M  V30 3677 C 361.591 4.66865 1.16578 0
M  V30 3678 C 363.943 5.13801 0.875095 0
M  V30 3679 C 361.271 5.84597 0.496336 0
M  V30 3680 C 363.623 6.32219 0.219463 0
M  V30 3681 C 362.287 6.67495 0.0246915 0
M  V30 3682 H 361.557 0.631837 0.387121 0
M  V30 3683 H 364.204 1.88552 0.334735 0
M  V30 3684 H 362.509 2.74456 2.79609 0
M  V30 3685 H 364.206 3.07038 2.57932 0
M  V30 3686 H 360.796 4.01472 1.50061 0
M  V30 3687 H 364.98 4.86039 1.00398 0
M  V30 3688 H 360.236 6.10486 0.334264 0
M  V30 3689 H 364.41 6.96227 -0.155291 0
M  V30 3690 H 362.037 7.5858 -0.496065 0
M  V30 3691 N 363.613 -0.582584 1.46437 0
M  V30 3692 C 365.024 -1.1647 1.45916 0
M  V30 3693 C 365.375 -1.95177 0.200077 0
M  V30 3694 O 364.5 -2.04874 -0.696819 0
M  V30 3695 C 365.095 -2.11885 2.64367 0
M  V30 3696 C 363.654 -2.65421 2.66887 0
M  V30 3697 C 362.801 -1.41294 2.38603 0
M  V30 3698 H 365.752 -0.370514 1.54314 0
M  V30 3699 H 365.773 -2.9535 2.39892 0
M  V30 3700 H 365.285 -1.54573 3.5599 0
M  V30 3701 H 363.386 -3.26602 1.79338 0
M  V30 3702 H 363.499 -3.08147 3.66854 0
M  V30 3703 H 361.863 -1.71109 1.88663 0
M  V30 3704 H 362.646 -0.858125 3.32402 0
M  V30 3705 N 365.091 -1.34144 -0.827227 0
M  V30 3706 C 366.502 -1.23557 -1.39966 0
M  V30 3707 C 366.853 0.140731 -1.95695 0
M  V30 3708 O 365.978 1.04087 -1.89723 0
M  V30 3709 C 366.573 -2.23708 -2.54441 0
M  V30 3710 C 365.132 -2.16924 -3.07605 0
M  V30 3711 C 364.279 -2.10549 -1.80456 0
M  V30 3712 H 367.23 -1.45573 -0.631991 0
M  V30 3713 H 367.251 -1.85157 -3.32411 0
M  V30 3714 H 366.763 -3.23866 -2.13851 0
M  V30 3715 H 364.864 -1.20107 -3.52711 0
M  V30 3716 H 364.977 -3.07988 -3.66988 0
M  V30 3717 H 363.341 -1.56203 -2.01178 0
M  V30 3718 H 364.124 -3.12535 -1.42046 0
M  V30 3719 N 366.569 1.04691 -1.17803 0
M  V30 3720 C 367.516 2.12557 -0.899343 0
M  V30 3721 C 368.486 1.65339 0.158771 0
M  V30 3722 O 369.671 1.90789 0.0204797 0
M  V30 3723 C 366.811 3.42481 -0.424315 0
M  V30 3724 C 365.924 4.03346 -1.54713 0
M  V30 3725 C 365.059 5.21208 -1.02546 0
M  V30 3726 C 364.098 5.74089 -2.12339 0
M  V30 3727 N 363.235 6.83247 -1.61612 0
M  V30 3728 H 368.075 2.35734 -1.823 0
M  V30 3729 H 365.612 1.1564 -0.909159 0
M  V30 3730 H 367.57 4.16996 -0.130421 0
M  V30 3731 H 366.2 3.19471 0.462377 0
M  V30 3732 H 365.252 3.2622 -1.95664 0
M  V30 3733 H 366.564 4.38628 -2.37501 0
M  V30 3734 H 365.718 6.02812 -0.685718 0
M  V30 3735 H 364.457 4.87414 -0.167084 0
M  V30 3736 H 363.462 4.91111 -2.47165 0
M  V30 3737 H 364.687 6.0993 -2.98601 0
M  V30 3738 H 362.633 6.5134 -0.780533 0
M  V30 3739 H 362.55 7.17559 -2.38003 0
M  V30 3740 H 363.818 7.68491 -1.30545 0
M  V30 3741 N 368.047 0.979072 1.23499 0
M  V30 3742 C 369.458 0.684391 1.73704 0
M  V30 3743 C 369.809 -0.799448 1.79174 0
M  V30 3744 O 368.934 -1.62531 1.42873 0
M  V30 3745 C 369.529 1.23564 3.15464 0
M  V30 3746 C 368.088 0.99063 3.6313 0
M  V30 3747 C 367.235 1.36416 2.41425 0
M  V30 3748 H 370.186 1.15307 1.09041 0
M  V30 3749 H 370.207 0.607417 3.7562 0
M  V30 3750 H 369.719 2.31561 3.1145 0
M  V30 3751 H 367.82 -0.0733136 3.72528 0
M  V30 3752 H 367.933 1.64427 4.5 0
M  V30 3753 H 366.297 0.782616 2.42378 0
M  V30 3754 H 367.08 2.45387 2.40083 0
M  V30 3755 N 369.525 -1.3858 0.750561 0
M  V30 3756 C 370.472 -2.30483 0.120835 0
M  V30 3757 C 371.442 -1.50022 -0.712923 0
M  V30 3758 O 372.627 -1.78662 -0.669676 0
M  V30 3759 C 369.767 -3.36431 -0.768666 0
M  V30 3760 C 368.88 -4.31927 0.0793922 0
M  V30 3761 C 368.015 -5.24944 -0.81283 0
M  V30 3762 C 367.054 -6.12088 0.0390447 0
M  V30 3763 N 366.191 -6.97412 -0.809969 0
M  V30 3764 H 371.031 -2.83761 0.91015 0
M  V30 3765 H 368.568 -1.39707 0.460463 0
M  V30 3766 H 370.526 -3.96462 -1.29898 0
M  V30 3767 H 369.156 -2.8457 -1.5238 0
M  V30 3768 H 368.208 -3.73382 0.727303 0
M  V30 3769 H 369.52 -4.93319 0.737401 0
M  V30 3770 H 368.674 -5.90078 -1.41042 0
M  V30 3771 H 367.413 -4.63911 -1.50458 0
M  V30 3772 H 366.418 -5.45952 0.649328 0
M  V30 3773 H 367.643 -6.75189 0.727809 0
M  V30 3774 H 365.589 -6.38931 -1.48672 0
M  V30 3775 H 365.506 -7.55712 -0.208789 0
M  V30 3776 H 366.774 -7.66959 -1.39263 0
M  V30 3777 N 371.003 -0.499398 -1.49478 0
M  V30 3778 C 372.28 0.108629 -1.95298 0
M  V30 3779 C 372.66 1.54282 -1.44084 0
M  V30 3780 O 372.008 2.18944 -0.653908 0
M  V30 3781 C 372.218 0.0229111 -3.48992 0
M  V30 3782 C 373.566 0.197643 -4.2414 0
M  V30 3783 O 374.59 0.0981735 -3.56065 0
M  V30 3784 O 373.449 0.401669 -5.45022 0
M  V30 3785 H 370.543 0.096181 -0.821388 0
M  V30 3786 H 373.089 -0.561822 -1.6013 0
M  V30 3787 H 371.861 -0.977321 -3.78899 0
M  V30 3788 H 371.484 0.733579 -3.90774 0
M  V30 3789 N 372.481 1.55866 -0.233164 0
M  V30 3790 C 373.709 2.02998 0.399905 0
M  V30 3791 C 374.124 1.11274 1.52524 0
M  V30 3792 O 373.481 0.124528 1.82075 0
M  V30 3793 C 373.532 3.4958 0.920639 0
M  V30 3794 O 373.253 4.37808 -0.159834 0
M  V30 3795 C 374.754 4.12411 1.62578 0
M  V30 3796 H 371.974 0.664006 0.0966281 0
M  V30 3797 H 374.518 2.0143 -0.353013 0
M  V30 3798 H 372.673 3.51727 1.62379 0
M  V30 3799 H 373.087 5.23981 0.23337 0
M  V30 3800 H 374.561 5.16711 1.94201 0
M  V30 3801 H 375.038 3.5809 2.54299 0
M  V30 3802 H 375.644 4.14148 0.967553 0
M  V30 3803 N 373.959 -0.0401083 1.57549 0
M  V30 3804 C 374.889 -1.04384 2.08869 0
M  V30 3805 C 375.87 -1.38407 0.988817 0
M  V30 3806 O 377.055 -1.47483 1.26342 0
M  V30 3807 C 374.185 -2.34808 2.55895 0
M  V30 3808 C 373.139 -2.15057 3.70047 0
M  V30 3809 C 372.465 -3.51145 4.03239 0
M  V30 3810 C 373.765 -1.54576 4.98902 0
M  V30 3811 H 375.459 -0.616666 2.92981 0
M  V30 3812 H 373.005 -0.295184 1.40942 0
M  V30 3813 H 374.958 -3.05346 2.90417 0
M  V30 3814 H 373.682 -2.79565 1.68853 0
M  V30 3815 H 372.341 -1.46954 3.35857 0
M  V30 3816 H 371.989 -3.93529 3.13279 0
M  V30 3817 H 371.689 -3.38758 4.80122 0
M  V30 3818 H 373.213 -4.23062 4.40285 0
M  V30 3819 H 374.627 -2.15017 5.31451 0
M  V30 3820 H 373.024 -1.52796 5.80322 0
M  V30 3821 H 374.094 -0.51039 4.82206 0
M  V30 3822 N 375.437 -1.54477 -0.31217 0
M  V30 3823 C 376.37 -1.79519 -1.40884 0
M  V30 3824 C 377.348 -0.645753 -1.49227 0
M  V30 3825 O 378.532 -0.884468 -1.66461 0
M  V30 3826 C 375.659 -1.92194 -2.78889 0
M  V30 3827 C 374.705 -3.14555 -2.88023 0
M  V30 3828 S 375.538 -4.72893 -2.51262 0
M  V30 3829 C 376.694 -4.8849 -3.91317 0
M  V30 3830 H 376.927 -2.72256 -1.19432 0
M  V30 3831 H 374.46 -1.45746 -0.509654 0
M  V30 3832 H 376.418 -2.00182 -3.58382 0
M  V30 3833 H 375.079 -1.00414 -2.97617 0
M  V30 3834 H 374.272 -3.20193 -3.89221 0
M  V30 3835 H 373.874 -3.04955 -2.16514 0
M  V30 3836 H 376.166 -4.71826 -4.86196 0
M  V30 3837 H 377.109 -5.90588 -3.90656 0
M  V30 3838 H 377.517 -4.16715 -3.80801 0
M  V30 3839 N 376.915 0.57481 -1.46744 0
M  V30 3840 C 378.164 1.32898 -1.51727 0
M  V30 3841 C 378.477 1.948 -0.176692 0
M  V30 3842 O 379.683 2.71299 -0.104385 0
M  V30 3843 C 378.139 2.40901 -2.67385 0
M  V30 3844 C 377.747 1.85266 -4.07898 0
M  V30 3845 C 379.491 3.17609 -2.81646 0
M  V30 3846 C 377.398 2.90945 -5.14883 0
M  V30 3847 H 376.328 0.499631 -0.564699 0
M  V30 3848 H 378.979 0.612536 -1.72975 0
M  V30 3849 H 377.361 3.15379 -2.39483 0
M  V30 3850 H 378.535 1.17278 -4.45626 0
M  V30 3851 H 376.85 1.21199 -3.98371 0
M  V30 3852 H 379.447 3.96493 -3.58744 0
M  V30 3853 H 379.79 3.70696 -1.89448 0
M  V30 3854 H 380.323 2.50239 -3.09233 0
M  V30 3855 H 377.062 2.42736 -6.089 0
M  V30 3856 H 376.582 3.57398 -4.81691 0
M  V30 3857 H 378.261 3.54755 -5.41071 0
M  V30 3858 N 378.394 1.34581 0.820102 0
M  V30 3859 C 379.619 1.30333 1.61332 0
M  V30 3860 C 380.044 -0.119339 1.87721 0
M  V30 3861 O 379.402 -1.08197 1.45475 0
M  V30 3862 C 379.45 2.10258 2.92957 0
M  V30 3863 O 378.554 1.47404 3.85157 0
M  V30 3864 H 377.895 0.447488 0.490561 0
M  V30 3865 H 380.425 1.77425 1.01889 0
M  V30 3866 H 380.435 2.21718 3.42498 0
M  V30 3867 H 379.11 3.13693 2.73074 0
M  V30 3868 H 377.687 1.44703 3.43679 0
M  V30 3869 N 379.872 -1.04064 1.18357 0
M  V30 3870 C 381.288 -1.2947 0.933258 0
M  V30 3871 C 381.488 -1.97466 -0.401169 0
M  V30 3872 O 380.544 -2.25528 -1.13549 0
M  V30 3873 C 381.857 -2.15337 2.09882 0
M  V30 3874 C 383.405 -2.28683 2.13712 0
M  V30 3875 C 383.88 -3.17917 3.29686 0
M  V30 3876 N 385.371 -3.25504 3.29547 0
M  V30 3877 C 386.106 -3.94706 4.15926 0
M  V30 3878 N 385.602 -4.66239 5.12439 0
M  V30 3879 N 387.395 -3.90986 4.0384 0
M  V30 3880 H 379.546 -0.583359 2.04232 0
M  V30 3881 H 381.809 -0.319921 0.892387 0
M  V30 3882 H 381.515 -1.72682 3.06389 0
M  V30 3883 H 381.389 -3.16015 2.05947 0
M  V30 3884 H 383.776 -2.70575 1.17784 0
M  V30 3885 H 383.857 -1.27596 2.21705 0
M  V30 3886 H 383.501 -2.76736 4.25887 0
M  V30 3887 H 383.431 -4.19036 3.1893 0
M  V30 3888 H 385.922 -2.74547 2.59677 0
M  V30 3889 H 386.235 -5.16638 5.74722 0
M  V30 3890 H 384.58 -4.65143 5.16398 0
M  V30 3891 H 387.771 -3.34234 3.27727 0
M  V30 3892 H 387.944 -4.44646 4.71375 0
M  V30 3893 N 381.35 -0.985608 -1.22978 0
M  V30 3894 C 382.578 -0.675582 -1.95559 0
M  V30 3895 C 382.993 0.758413 -1.72897 0
M  V30 3896 O 382.35 1.51094 -1.02357 0
M  V30 3897 C 382.401 -0.96293 -3.48439 0
M  V30 3898 O 382.122 -2.34057 -3.70336 0
M  V30 3899 C 383.623 -0.669585 -4.38214 0
M  V30 3900 H 380.843 -0.250523 -0.622478 0
M  V30 3901 H 383.387 -1.3184 -1.56328 0
M  V30 3902 H 381.542 -0.366033 -3.85667 0
M  V30 3903 H 381.956 -2.43424 -4.64591 0
M  V30 3904 H 383.43 -0.920967 -5.44263 0
M  V30 3905 H 383.907 0.396383 -4.37408 0
M  V30 3906 H 384.513 -1.2472 -4.06602 0
M  V30 3907 N 382.828 1.3818 -0.7579 0
M  V30 3908 C 384.239 1.82726 -0.383134 0
M  V30 3909 C 384.59 1.63214 1.08884 0
M  V30 3910 O 383.715 1.13566 1.84205 0
M  V30 3911 C 384.31 3.31728 -0.688631 0
M  V30 3912 C 382.869 3.74606 -0.367091 0
M  V30 3913 C 382.016 2.60896 -0.939599 0
M  V30 3914 H 384.967 1.26847 -0.953699 0
M  V30 3915 H 384.988 3.80487 0.0316492 0
M  V30 3916 H 384.5 3.45898 -1.76001 0
M  V30 3917 H 382.601 3.66013 0.697532 0
M  V30 3918 H 382.714 4.71215 -0.865658 0
M  V30 3919 H 381.078 2.52075 -0.3647 0
M  V30 3920 H 381.861 2.77864 -2.0161 0
M  V30 3921 N 384.306 0.507319 1.49211 0
M  V30 3922 C 385.216 -0.272136 2.33016 0
M  V30 3923 C 386.232 -0.961206 1.45041 0
M  V30 3924 O 387.408 -0.941191 1.78055 0
M  V30 3925 C 384.473 -1.31895 3.20631 0
M  V30 3926 C 383.534 -0.642648 4.24463 0
M  V30 3927 C 382.767 -1.63959 5.07891 0
M  V30 3928 O 382.99 -2.87007 4.92933 0
M  V30 3929 O 381.924 -1.19143 5.8999 0
M  V30 3930 H 385.75 0.413982 3.00865 0
M  V30 3931 H 383.335 0.268556 1.46966 0
M  V30 3932 H 385.217 -1.92446 3.7489 0
M  V30 3933 H 383.892 -1.98788 2.5547 0
M  V30 3934 H 382.799 0.00276252 3.741 0
M  V30 3935 H 384.132 -0.0160534 4.92197 0
M  V30 3936 N 385.784 -1.5574 0.241426 0
M  V30 3937 C 387.03 -1.99104 -0.385406 0
M  V30 3938 C 387.363 -1.1293 -1.57988 0
M  V30 3939 O 386.638 -0.191449 -1.93555 0
M  V30 3940 C 386.921 -3.51087 -0.800616 0
M  V30 3941 C 386.774 -4.48028 0.398874 0
M  V30 3942 C 388.093 -4.08015 -1.64959 0
M  V30 3943 H 385.212 -0.723848 -0.138614 0
M  V30 3944 H 387.854 -1.86903 0.341642 0
M  V30 3945 H 386.004 -3.61615 -1.4201 0
M  V30 3946 H 387.676 -4.49487 1.03726 0
M  V30 3947 H 385.919 -4.21077 1.04293 0
M  V30 3948 H 386.59 -5.51962 0.0651056 0
M  V30 3949 H 389.066 -4.00555 -1.12672 0
M  V30 3950 H 387.942 -5.14635 -1.90898 0
M  V30 3951 H 388.203 -3.56131 -2.61961 0
M  V30 3952 N 387.262 0.0317525 -1.57568 0
M  V30 3953 C 388.49 0.734949 -1.93407 0
M  V30 3954 C 388.905 1.69036 -0.84096 0
M  V30 3955 O 388.262 1.81582 0.182836 0
M  V30 3956 C 388.313 1.49432 -3.29169 0
M  V30 3957 O 388.034 0.577261 -4.3428 0
M  V30 3958 C 389.535 2.29492 -3.79273 0
M  V30 3959 H 386.755 0.206706 -0.638368 0
M  V30 3960 H 389.299 -0.00992046 -2.04498 0
M  V30 3961 H 387.454 2.1911 -3.19483 0
M  V30 3962 H 387.868 1.10952 -5.1263 0
M  V30 3963 H 389.342 2.78172 -4.76785 0
M  V30 3964 H 389.819 3.10794 -3.10328 0
M  V30 3965 H 390.425 1.64894 -3.92033 0
M  V30 3966 N 388.74 1.54641 0.303973 0
M  V30 3967 C 389.98 1.75516 1.04755 0
M  V30 3968 C 390.344 0.528211 1.84591 0
M  V30 3969 O 391.545 0.614645 2.61678 0
M  V30 3970 C 389.816 3.00685 1.93193 0
M  V30 3971 S 391.375 3.42549 2.74237 0
M  V30 3972 H 388.193 0.616987 0.353339 0
M  V30 3973 H 390.795 1.92842 0.321292 0
M  V30 3974 H 389.499 3.8811 1.33411 0
M  V30 3975 H 389.03 2.85937 2.70191 0
M  V30 3976 H 391.045 2.99386 3.95705 0
M  V30 3977 N 390.218 -0.567019 1.47046 0
M  V30 3978 C 391.464 -1.32658 1.53394 0
M  V30 3979 C 391.797 -1.93254 0.19148 0
M  V30 3980 O 391.072 -1.77338 -0.798844 0
M  V30 3981 C 391.355 -2.44412 2.64452 0
M  V30 3982 C 391.208 -1.88749 4.08282 0
M  V30 3983 C 392.527 -3.46387 2.71485 0
M  V30 3984 H 389.646 -0.48098 0.558415 0
M  V30 3985 H 392.288 -0.635481 1.79058 0
M  V30 3986 H 390.438 -3.03363 2.427 0
M  V30 3987 H 392.11 -1.34134 4.41368 0
M  V30 3988 H 390.353 -1.19481 4.17021 0
M  V30 3989 H 391.024 -2.69491 4.81745 0
M  V30 3990 H 393.5 -2.9734 2.91081 0
M  V30 3991 H 392.376 -4.2202 3.50985 0
M  V30 3992 H 392.637 -4.04616 1.78153 0
M  V30 3993 N 391.696 -1.35014 -0.812953 0
M  V30 3994 C 392.942 -1.2812 -1.57204 0
M  V30 3995 C 393.275 0.145869 -1.93651 0
M  V30 3996 O 392.55 1.0937 -1.60836 0
M  V30 3997 C 392.833 -2.18162 -2.86492 0
M  V30 3998 C 392.686 -3.69454 -2.56561 0
M  V30 3999 C 394.005 -2.07439 -3.88145 0
M  V30 4000 H 391.124 -0.466746 -0.570366 0
M  V30 4001 H 393.766 -1.65357 -0.935783 0
M  V30 4002 H 391.916 -1.86535 -3.40789 0
M  V30 4003 H 393.588 -4.11493 -2.08497 0
M  V30 4004 H 391.831 -3.9005 -1.89851 0
M  V30 4005 H 392.502 -4.27835 -3.48799 0
M  V30 4006 H 394.978 -2.35228 -3.4323 0
M  V30 4007 H 393.854 -2.7265 -4.76396 0
M  V30 4008 H 394.115 -1.05439 -4.29343 0
M  V30 4009 N 393.175 1.03435 -1.18907 0
M  V30 4010 C 394.421 1.77005 -0.989798 0
M  V30 4011 C 394.754 1.88205 0.478816 0
M  V30 4012 O 394.029 1.39481 1.35556 0
M  V30 4013 C 394.312 3.19925 -1.65287 0
M  V30 4014 C 394.165 3.1663 -3.19477 0
M  V30 4015 C 395.484 4.18189 -1.37134 0
M  V30 4016 H 392.603 0.642538 -0.360991 0
M  V30 4017 H 395.245 1.20784 -1.46667 0
M  V30 4018 H 393.395 3.67929 -1.24741 0
M  V30 4019 H 395.067 2.76567 -3.692 0
M  V30 4020 H 393.31 2.54491 -3.51307 0
M  V30 4021 H 393.981 4.1758 -3.61013 0
M  V30 4022 H 396.457 3.78761 -1.72276 0
M  V30 4023 H 395.333 5.16394 -1.86087 0
M  V30 4024 H 395.594 4.41112 -0.295424 0
M  V30 4025 N 394.653 0.992116 1.22453 0
M  V30 4026 C 395.93 0.583508 1.86694 0
M  V30 4027 C 396.31 -0.9392 1.89056 0
M  V30 4028 O 395.658 -1.82081 1.38053 0
M  V30 4029 C 395.868 1.20304 3.2761 0
M  V30 4030 C 397.216 1.30308 4.0411 0
M  V30 4031 O 398.24 1.15737 3.36873 0
M  V30 4032 O 397.099 1.53615 5.24466 0
M  V30 4033 H 394.193 0.198129 0.802916 0
M  V30 4034 H 396.739 1.08794 1.30238 0
M  V30 4035 H 395.511 2.24461 3.2052 0
M  V30 4036 H 395.134 0.684144 3.9167 0
M  V30 4037 N 396.131 -1.37776 0.765217 0
M  V30 4038 C 397.377 -2.00145 0.327072 0
M  V30 4039 C 397.71 -1.60607 -1.09175 0
M  V30 4040 O 396.985 -0.849127 -1.74986 0
M  V30 4041 C 397.268 -3.57109 0.46319 0
M  V30 4042 C 397.121 -4.06576 1.92395 0
M  V30 4043 C 398.44 -4.39888 -0.136473 0
M  V30 4044 H 395.559 -0.727113 0.120316 0
M  V30 4045 H 398.201 -1.63549 0.967039 0
M  V30 4046 H 396.351 -3.88414 -0.0816358 0
M  V30 4047 H 398.023 -3.85864 2.52798 0
M  V30 4048 H 396.266 -3.59011 2.43503 0
M  V30 4049 H 396.937 -5.15639 1.97028 0
M  V30 4050 H 399.413 -4.14803 0.328317 0
M  V30 4051 H 398.289 -5.48899 -0.0110582 0
M  V30 4052 H 398.55 -4.24758 -1.22608 0
M  V30 4053 N 397.609 -0.515225 -1.4894 0
M  V30 4054 C 398.834 0.022727 -2.07388 0
M  V30 4055 C 399.259 1.2876 -1.37122 0
M  V30 4056 O 398.617 1.76067 -0.432431 0
M  V30 4057 C 398.665 0.244869 -3.59768 0
M  V30 4058 O 397.769 1.31667 -3.90817 0
M  V30 4059 H 397.11 -0.0325506 -0.663202 0
M  V30 4060 H 399.64 -0.718918 -1.91553 0
M  V30 4061 H 399.65 0.47205 -4.0526 0
M  V30 4062 H 398.325 -0.679194 -4.10317 0
M  V30 4063 H 396.902 1.07331 -3.5712 0
M  V30 4064 N 399.087 1.5561 -0.249682 0
M  V30 4065 C 400.037 2.18157 0.662673 0
M  V30 4066 C 401.021 1.1383 1.13717 0
M  V30 4067 O 402.213 1.39731 1.08648 0
M  V30 4068 C 399.342 2.88672 1.85805 0
M  V30 4069 C 398.428 4.00258 1.40193 0
M  V30 4070 N 398.819 5.01473 0.660213 0
M  V30 4071 C 397.117 4.12864 1.68698 0
M  V30 4072 C 397.818 5.80155 0.423695 0
M  V30 4073 N 396.794 5.34533 0.988721 0
M  V30 4074 H 400.596 2.93769 0.0878688 0
M  V30 4075 H 398.11 1.62316 -0.0521183 0
M  V30 4076 H 400.107 3.31912 2.5227 0
M  V30 4077 H 398.767 2.14564 2.43705 0
M  V30 4078 H 399.778 5.16971 0.310047 0
M  V30 4079 H 396.455 3.4993 2.27717 0
M  V30 4080 H 397.845 6.71688 -0.168616 0
M  V30 4081 N 400.565 -0.0233959 1.57583 0
M  V30 4082 C 401.475 -1.03907 2.10334 0
M  V30 4083 C 402.491 -1.39257 1.04323 0
M  V30 4084 O 403.667 -1.48462 1.36091 0
M  V30 4085 C 400.732 -2.31938 2.57693 0
M  V30 4086 C 399.793 -2.03117 3.78209 0
M  V30 4087 C 399.026 -3.25043 4.233 0
M  V30 4088 O 399.249 -4.35916 3.67876 0
M  V30 4089 O 398.183 -3.10411 5.15683 0
M  V30 4090 H 402.009 -0.620748 2.97288 0
M  V30 4091 H 399.594 -0.240743 1.47448 0
M  V30 4092 H 401.476 -3.07196 2.88458 0
M  V30 4093 H 400.151 -2.73055 1.73847 0
M  V30 4094 H 399.058 -1.25408 3.52454 0
M  V30 4095 H 400.391 -1.66852 4.63056 0
M  V30 4096 N 402.043 -1.548 -0.295768 0
M  V30 4097 C 403.32 -1.65014 -1.05023 0
M  V30 4098 C 403.7 -0.501805 -2.05049 0
M  V30 4099 O 403.048 0.500869 -2.22943 0
M  V30 4100 C 403.258 -3.03252 -1.72741 0
M  V30 4101 C 404.606 -3.60242 -2.24746 0
M  V30 4102 O 405.63 -3.05737 -1.82765 0
M  V30 4103 O 404.489 -4.55687 -3.01681 0
M  V30 4104 H 401.583 -0.669314 -0.485744 0
M  V30 4105 H 404.129 -1.67144 -0.293438 0
M  V30 4106 H 402.901 -3.7827 -1.00138 0
M  V30 4107 H 402.524 -3.04922 -2.55163 0
M  V30 4108 N 403.521 0.559213 -1.47345 0
M  V30 4109 C 404.932 1.14134 -1.47751 0
M  V30 4110 C 405.283 1.94834 -0.231103 0
M  V30 4111 O 404.408 2.05957 0.664137 0
M  V30 4112 C 405.003 2.07653 -2.67705 0
M  V30 4113 C 403.562 2.61141 -2.71076 0
M  V30 4114 C 402.709 1.3748 -2.40821 0
M  V30 4115 H 405.66 0.345917 -1.54884 0
M  V30 4116 H 405.681 2.91497 -2.44561 0
M  V30 4117 H 405.193 1.4889 -3.58404 0
M  V30 4118 H 403.294 3.23707 -1.84511 0
M  V30 4119 H 403.407 3.02272 -3.7171 0
M  V30 4120 H 401.771 1.68086 -1.91362 0
M  V30 4121 H 402.554 0.805135 -3.33725 0
M  V30 4122 N 404.999 1.35443 0.805782 0
M  V30 4123 C 405.909 1.30546 1.94923 0
M  V30 4124 C 406.925 0.210233 1.72725 0
M  V30 4125 O 408.101 0.43975 1.9654 0
M  V30 4126 C 405.166 1.07782 3.29521 0
M  V30 4127 C 404.227 2.26625 3.64609 0
M  V30 4128 C 403.46 2.04938 4.92784 0
M  V30 4129 O 403.683 1.01624 5.61274 0
M  V30 4130 O 402.617 2.9232 5.26149 0
M  V30 4131 H 406.443 2.26779 2.02002 0
M  V30 4132 H 404.028 1.15823 0.943682 0
M  V30 4133 H 405.91 0.969392 4.10098 0
M  V30 4134 H 404.585 0.146003 3.23371 0
M  V30 4135 H 403.492 2.43033 2.84404 0
M  V30 4136 H 404.825 3.18257 3.75464 0
M  V30 4137 N 406.477 -1.02803 1.19454 0
M  V30 4138 C 407.723 -1.76478 0.999171 0
M  V30 4139 C 408.056 -1.88456 -0.468828 0
M  V30 4140 O 407.331 -1.40198 -1.34814 0
M  V30 4141 C 407.614 -3.19044 1.66981 0
M  V30 4142 C 407.467 -3.14932 3.21151 0
M  V30 4143 C 408.786 -4.17456 1.39349 0
M  V30 4144 H 405.905 -0.640614 0.364393 0
M  V30 4145 H 408.547 -1.20005 1.47305 0
M  V30 4146 H 406.697 -3.67263 1.2669 0
M  V30 4147 H 408.369 -2.74605 3.70661 0
M  V30 4148 H 406.612 -2.52625 3.52652 0
M  V30 4149 H 407.283 -4.1566 3.63223 0
M  V30 4150 H 409.759 -3.77842 1.74283 0
M  V30 4151 H 408.635 -5.154 1.88823 0
M  V30 4152 H 408.896 -4.40949 0.318813 0
M  V30 4153 N 407.956 -0.998596 -1.21925 0
M  V30 4154 C 408.903 -0.553621 -2.24062 0
M  V30 4155 C 409.873 0.416999 -1.6078 0
M  V30 4156 O 411.058 0.320482 -1.88089 0
M  V30 4157 C 408.198 0.119959 -3.44891 0
M  V30 4158 C 407.311 -0.893077 -4.22668 0
M  V30 4159 C 406.446 -0.192424 -5.30851 0
M  V30 4160 C 405.485 -1.19344 -6.00353 0
M  V30 4161 N 404.622 -0.520707 -7.00166 0
M  V30 4162 H 409.462 -1.4293 -2.61486 0
M  V30 4163 H 406.999 -0.715838 -1.28507 0
M  V30 4164 H 408.957 0.527459 -4.13852 0
M  V30 4165 H 407.587 0.959389 -3.08214 0
M  V30 4166 H 406.639 -1.41886 -3.52948 0
M  V30 4167 H 407.951 -1.65512 -4.70539 0
M  V30 4168 H 407.105 0.271515 -6.06092 0
M  V30 4169 H 405.844 0.602075 -4.83969 0
M  V30 4170 H 404.849 -1.66795 -5.23889 0
M  V30 4171 H 406.074 -1.98891 -6.49322 0
M  V30 4172 H 404.02 0.254252 -6.55507 0
M  V30 4173 H 403.937 -1.2211 -7.46073 0
M  V30 4174 H 405.205 -0.0797596 -7.79459 0
M  V30 4175 N 409.434 1.37368 -0.772513 0
M  V30 4176 C 410.681 1.99673 -0.337182 0
M  V30 4177 C 411.009 1.61324 1.0865 0
M  V30 4178 O 410.264 0.851377 1.7621 0
M  V30 4179 C 410.563 3.54817 -0.428876 0
M  V30 4180 C 410.229 4.12936 -1.81092 0
M  V30 4181 C 408.891 4.28523 -2.1891 0
M  V30 4182 C 411.243 4.44801 -2.71664 0
M  V30 4183 C 408.571 4.73277 -3.46735 0
M  V30 4184 C 410.923 4.90981 -3.98899 0
M  V30 4185 C 409.587 5.04773 -4.36761 0
M  V30 4186 H 408.857 0.730656 -0.123384 0
M  V30 4187 H 411.504 1.64124 -0.986686 0
M  V30 4188 H 409.809 3.90618 0.304167 0
M  V30 4189 H 411.506 4.00933 -0.0733334 0
M  V30 4190 H 408.096 4.01233 -1.50699 0
M  V30 4191 H 412.28 4.32344 -2.43706 0
M  V30 4192 H 407.536 4.82142 -3.75964 0
M  V30 4193 H 411.71 5.14603 -4.69208 0
M  V30 4194 H 409.337 5.39211 -5.35868 0
M  V30 4195 N 410.912 0.523116 1.48665 0
M  V30 4196 C 411.86 -0.256859 2.31177 0
M  V30 4197 C 412.854 -0.94199 1.40794 0
M  V30 4198 O 414.06 -0.867157 1.57735 0
M  V30 4199 H 410.435 -0.1017 0.745091 0
M  V30 4200 H 412.406 0.458739 2.94853 0
M  V30 4201 C 411.155 -1.29503 3.22683 0
M  V30 4202 H 410.478 -0.777248 3.92172 0
M  V30 4203 H 411.918 -1.81233 3.83315 0
M  V30 4204 C 410.377 -2.32501 2.43813 0
M  V30 4205 O 410.907 -3.3881 2.15803 0
M  V30 4206 N 409.113 -2.05538 2.05432 0
M  V30 4207 H 408.66 -1.19104 2.28412 0
M  V30 4208 H 408.618 -2.74676 1.52973 0
M  V30 4209 N 412.39 -1.55475 0.257931 0
M  V30 4210 C 413.636 -2.00237 -0.357338 0
M  V30 4211 C 413.991 -1.14313 -1.54759 0
M  V30 4212 O 413.284 -0.201187 -1.90541 0
M  V30 4213 C 413.478 -3.48183 -0.806433 0
M  V30 4214 C 413.307 -4.48422 0.338758 0
M  V30 4215 C 412.077 -4.98651 0.817011 0
M  V30 4216 C 414.275 -5.00827 1.16949 0
M  V30 4217 N 412.257 -5.82658 1.93346 0
M  V30 4218 C 413.628 -5.82113 2.13413 0
M  V30 4219 C 415.683 -4.83104 1.2048 0
M  V30 4220 C 414.386 -6.47566 3.13131 0
M  V30 4221 C 416.412 -5.49343 2.19034 0
M  V30 4222 C 415.774 -6.30427 3.14232 0
M  V30 4223 H 411.873 -0.776034 -0.0964083 0
M  V30 4224 H 414.457 -1.90995 0.37803 0
M  V30 4225 H 412.628 -3.57801 -1.51107 0
M  V30 4226 H 414.36 -3.79802 -1.39758 0
M  V30 4227 H 411.115 -4.71914 0.39925 0
M  V30 4228 H 411.539 -6.29356 2.49478 0
M  V30 4229 H 416.181 -4.20036 0.482634 0
M  V30 4230 H 413.899 -7.09793 3.8629 0
M  V30 4231 H 417.485 -5.37579 2.22485 0
M  V30 4232 H 416.365 -6.80777 3.89246 0
M  V30 4233 N 413.868 0.0150385 -1.57593 0
M  V30 4234 C 415.098 0.713359 -1.93894 0
M  V30 4235 C 415.506 1.68663 -0.857289 0
M  V30 4236 O 414.849 1.82876 0.173788 0
M  V30 4237 C 414.911 1.51348 -3.26089 0
M  V30 4238 C 414.575 0.703451 -4.51554 0
M  V30 4239 C 415.572 -0.00237924 -5.199 0
M  V30 4240 C 413.257 0.653854 -4.98026 0
M  V30 4241 C 415.251 -0.746955 -6.33008 0
M  V30 4242 C 412.938 -0.0944578 -6.11027 0
M  V30 4243 C 413.936 -0.793609 -6.78374 0
M  V30 4244 O 413.624 -1.52974 -7.89211 0
M  V30 4245 H 413.356 0.204637 -0.644282 0
M  V30 4246 H 415.91 -0.0276411 -2.05381 0
M  V30 4247 H 414.14 2.29862 -3.10967 0
M  V30 4248 H 415.829 2.09572 -3.47612 0
M  V30 4249 H 416.595 0.0268803 -4.84993 0
M  V30 4250 H 412.474 1.18756 -4.45441 0
M  V30 4251 H 416.018 -1.2932 -6.85509 0
M  V30 4252 H 411.915 -0.125591 -6.45378 0
M  V30 4253 H 412.683 -1.44488 -8.05646 0
M  V30 4254 N 415.346 1.54954 0.287554 0
M  V30 4255 C 416.592 1.75132 1.02257 0
M  V30 4256 C 416.925 0.542858 1.86458 0
M  V30 4257 O 416.2 -0.459856 1.88986 0
M  V30 4258 C 416.483 3.04812 1.91733 0
M  V30 4259 C 416.336 4.35985 1.10622 0
M  V30 4260 C 417.655 3.30438 2.90687 0
M  V30 4261 H 414.774 0.637194 0.370341 0
M  V30 4262 H 417.416 1.87678 0.296111 0
M  V30 4263 H 415.566 2.94247 2.53675 0
M  V30 4264 H 417.238 4.58487 0.508636 0
M  V30 4265 H 415.481 4.31865 0.409271 0
M  V30 4266 H 416.152 5.23017 1.76513 0
M  V30 4267 H 418.628 3.40701 2.38877 0
M  V30 4268 H 417.504 4.22467 3.50447 0
M  V30 4269 H 417.765 2.49377 3.65053 0
M  V30 4270 N 416.824 -0.551391 1.4764 0
M  V30 4271 C 418.101 -1.31229 1.45046 0
M  V30 4272 C 418.481 -2.10563 0.150527 0
M  V30 4273 O 417.829 -2.11374 -0.867956 0
M  V30 4274 C 418.039 -2.21189 2.69956 0
M  V30 4275 C 419.387 -2.82021 3.1741 0
M  V30 4276 O 420.411 -2.31488 2.70724 0
M  V30 4277 O 419.27 -3.73885 3.98588 0
M  V30 4278 H 416.364 -0.591193 0.578291 0
M  V30 4279 H 418.91 -0.569813 1.59847 0
M  V30 4280 H 417.682 -1.62207 3.56096 0
M  V30 4281 H 417.305 -3.02722 2.57769 0
M  V30 4282 N 418.302 -1.35869 -0.798587 0
M  V30 4283 C 419.55 -1.29332 -1.55298 0
M  V30 4284 C 419.871 0.129729 -1.94568 0
M  V30 4285 O 419.141 1.06796 -1.6423 0
M  V30 4286 H 417.721 -0.475737 -0.57592 0
M  V30 4287 H 420.383 -1.70062 -0.952093 0
M  V30 4288 H 419.479 -1.91458 -2.46476 0
M  V30 4289 N 419.78 1.02168 -1.19998 0
M  V30 4290 C 421.026 1.75945 -1.00852 0
M  V30 4291 C 421.359 1.88702 0.458828 0
M  V30 4292 O 420.634 1.40911 1.34069 0
M  V30 4293 C 420.917 3.18154 -1.68671 0
M  V30 4294 C 420.77 3.13224 -3.22817 0
M  V30 4295 C 422.089 4.16711 -1.41561 0
M  V30 4296 H 419.208 0.638673 -0.367785 0
M  V30 4297 H 421.85 1.19222 -1.4794 0
M  V30 4298 H 420 3.66586 -1.28636 0
M  V30 4299 H 421.672 2.72635 -3.72112 0
M  V30 4300 H 419.915 2.50751 -3.53986 0
M  V30 4301 H 420.586 4.13728 -3.65422 0
M  V30 4302 H 423.062 3.76913 -1.76284 0
M  V30 4303 H 421.938 5.14391 -1.91553 0
M  V30 4304 H 422.199 4.40774 -0.342193 0
M  V30 4305 N 421.258 1.00505 1.21394 0
M  V30 4306 C 422.168 0.574806 2.27449 0
M  V30 4307 C 423.184 -0.382206 1.6975 0
M  V30 4308 O 424.36 -0.246027 1.99892 0
M  V30 4309 C 421.425 -0.0917414 3.46579 0
M  V30 4310 C 420.486 0.909758 4.1955 0
M  V30 4311 C 419.719 0.274924 5.32991 0
M  V30 4312 O 419.942 -0.928254 5.62796 0
M  V30 4313 O 418.876 0.985877 5.93771 0
M  V30 4314 H 422.702 1.45744 2.66444 0
M  V30 4315 H 420.287 0.773923 1.27792 0
M  V30 4316 H 422.169 -0.464551 4.18832 0
M  V30 4317 H 420.844 -0.948755 3.09484 0
M  V30 4318 H 419.751 1.33372 3.49518 0
M  V30 4319 H 421.084 1.73636 4.60555 0
M  V30 4320 N 422.737 -1.36956 0.779787 0
M  V30 4321 C 423.983 -1.99787 0.348281 0
M  V30 4322 C 424.316 -1.61756 -1.07465 0
M  V30 4323 O 423.591 -0.867639 -1.74075 0
M  V30 4324 C 423.874 -3.56597 0.50104 0
M  V30 4325 C 423.727 -4.04513 1.96697 0
M  V30 4326 C 425.046 -4.40008 -0.0898097 0
M  V30 4327 H 422.165 -0.725796 0.128022 0
M  V30 4328 H 424.807 -1.62514 0.984331 0
M  V30 4329 H 422.957 -3.88479 -0.0404347 0
M  V30 4330 H 424.629 -3.83161 2.56876 0
M  V30 4331 H 422.872 -3.56408 2.47297 0
M  V30 4332 H 423.543 -5.1352 2.02486 0
M  V30 4333 H 426.019 -4.14431 0.372293 0
M  V30 4334 H 424.895 -5.4888 0.0471605 0
M  V30 4335 H 425.156 -4.26035 -1.18096 0
M  V30 4336 N 424.215 -0.530993 -1.48385 0
M  V30 4337 C 425.165 0.251092 -2.26613 0
M  V30 4338 C 426.149 0.908977 -1.32765 0
M  V30 4339 O 427.341 0.811616 -1.57295 0
M  V30 4340 C 424.47 1.29677 -3.17866 0
M  V30 4341 C 423.556 0.643627 -4.19188 0
M  V30 4342 N 423.947 -0.271223 -5.05072 0
M  V30 4343 C 422.245 0.900711 -4.3681 0
M  V30 4344 C 422.946 -0.648109 -5.78078 0
M  V30 4345 N 421.922 -0.00895987 -5.43599 0
M  V30 4346 H 425.724 -0.452702 -2.90393 0
M  V30 4347 H 423.238 -0.349091 -1.58604 0
M  V30 4348 H 425.235 1.87079 -3.72568 0
M  V30 4349 H 423.895 2.00193 -2.55642 0
M  V30 4350 H 424.906 -0.643883 -5.13882 0
M  V30 4351 H 421.583 1.59636 -3.85775 0
M  V30 4352 H 422.973 -1.39833 -6.57188 0
M  V30 4353 N 425.693 1.55336 -0.266172 0
M  V30 4354 C 426.641 2.23587 0.641228 0
M  V30 4355 C 427.635 1.22986 1.16494 0
M  V30 4356 O 428.841 1.40943 1.1196 0
M  V30 4357 H 425.216 0.717452 0.225315 0
M  V30 4358 H 427.187 2.9837 0.0426561 0
M  V30 4359 C 425.936 2.96369 1.81826 0
M  V30 4360 H 425.259 3.73563 1.42445 0
M  V30 4361 H 426.699 3.47459 2.42998 0
M  V30 4362 C 425.158 2.0133 2.70125 0
M  V30 4363 O 425.688 1.55875 3.70224 0
M  V30 4364 N 423.894 1.6802 2.37102 0
M  V30 4365 H 423.441 2.05181 1.55751 0
M  V30 4366 H 423.399 1.047 2.96454 0
M  V30 4367 N 427.171 -0.0066808 1.57599 0
M  V30 4368 C 428.134 -0.985035 2.06953 0
M  V30 4369 C 429.134 -1.27663 0.977687 0
M  V30 4370 O 430.324 -1.22293 1.24057 0
M  V30 4371 C 427.456 -2.3118 2.50536 0
M  V30 4372 H 428.649 -0.558255 2.94658 0
M  V30 4373 H 426.202 -0.254011 1.54222 0
M  V30 4374 H 426.937 -2.78561 1.66054 0
M  V30 4375 H 426.722 -2.11338 3.3027 0
M  V30 4376 H 428.212 -3.01377 2.8907 0
M  V30 4377 N 428.649 -1.55105 -0.279332 0
M  V30 4378 C 429.596 -1.8755 -1.34513 0
M  V30 4379 C 430.566 -0.726384 -1.49375 0
M  V30 4380 O 431.751 -0.977063 -1.63884 0
M  V30 4381 C 428.891 -2.14738 -2.70151 0
M  V30 4382 C 428.004 -3.42285 -2.63562 0
M  V30 4383 C 427.139 -3.59206 -3.91337 0
M  V30 4384 C 426.178 -4.80467 -3.79233 0
M  V30 4385 N 425.315 -4.94079 -4.98829 0
M  V30 4386 H 430.155 -2.78456 -1.06143 0
M  V30 4387 H 427.692 -1.37867 -0.512936 0
M  V30 4388 H 429.65 -2.28501 -3.49061 0
M  V30 4389 H 428.28 -1.27075 -2.96735 0
M  V30 4390 H 427.332 -3.37029 -1.76397 0
M  V30 4391 H 428.644 -4.31328 -2.50515 0
M  V30 4392 H 427.798 -3.72751 -4.78687 0
M  V30 4393 H 426.537 -2.68337 -4.07243 0
M  V30 4394 H 425.542 -4.66932 -2.90266 0
M  V30 4395 H 426.767 -5.72765 -3.64852 0
M  V30 4396 H 424.713 -4.06139 -5.15158 0
M  V30 4397 H 424.63 -5.77156 -4.8829 0
M  V30 4398 H 425.898 -5.12003 -5.8777 0
M  V30 4399 N 430.127 0.543554 -1.4793 0
M  V30 4400 C 431.355 1.32516 -1.58894 0
M  V30 4401 C 431.77 1.87215 -0.244131 0
M  V30 4402 O 431.127 1.65709 0.764652 0
M  V30 4403 C 431.178 2.48554 -2.62494 0
M  V30 4404 O 430.899 1.96112 -3.91755 0
M  V30 4405 C 432.4 3.40572 -2.8377 0
M  V30 4406 H 429.62 0.403472 -0.536145 0
M  V30 4407 H 432.164 0.657106 -1.93655 0
M  V30 4408 H 430.319 3.1127 -2.30629 0
M  V30 4409 H 430.733 2.71967 -4.4848 0
M  V30 4410 H 432.207 4.18375 -3.60093 0
M  V30 4411 H 432.684 3.94965 -1.92092 0
M  V30 4412 H 433.29 2.8366 -3.16887 0
M  V30 4413 N 431.605 1.3629 0.791371 0
M  V30 4414 C 432.552 1.30458 1.90393 0
M  V30 4415 C 433.522 0.173632 1.6519 0
M  V30 4416 O 434.707 0.35983 1.87376 0
M  V30 4417 C 431.847 1.09777 3.27174 0
M  V30 4418 C 430.96 2.31929 3.64462 0
M  V30 4419 C 430.095 2.04276 4.90352 0
M  V30 4420 C 429.134 3.224 5.20312 0
M  V30 4421 N 428.271 2.94424 6.37385 0
M  V30 4422 H 433.111 2.25589 1.94714 0
M  V30 4423 H 430.648 1.12122 0.952216 0
M  V30 4424 H 432.606 0.958133 4.06049 0
M  V30 4425 H 431.236 0.183014 3.22281 0
M  V30 4426 H 430.288 2.56703 2.80727 0
M  V30 4427 H 431.6 3.20085 3.82553 0
M  V30 4428 H 430.754 1.87231 5.77087 0
M  V30 4429 H 429.493 1.13428 4.74326 0
M  V30 4430 H 428.498 3.40005 4.32061 0
M  V30 4431 H 429.723 4.14071 5.38258 0
M  V30 4432 H 427.669 2.06185 6.22755 0
M  V30 4433 H 427.586 3.76118 6.55798 0
M  V30 4434 H 428.854 2.80953 7.27108 0
M  V30 4435 N 433.083 -1.0153 1.20538 0
M  V30 4436 C 434.494 -1.56598 1.01657 0
M  V30 4437 C 434.845 -1.91505 -0.426668 0
M  V30 4438 O 433.97 -1.72375 -1.30827 0
M  V30 4439 C 434.565 -2.84542 1.83905 0
M  V30 4440 C 433.124 -3.36133 1.69386 0
M  V30 4441 C 432.271 -2.09427 1.81757 0
M  V30 4442 H 435.222 -0.838974 1.34711 0
M  V30 4443 H 435.243 -3.56004 1.34319 0
M  V30 4444 H 434.755 -2.59105 2.8894 0
M  V30 4445 H 432.856 -3.66528 0.669933 0
M  V30 4446 H 432.969 -4.08248 2.50739 0
M  V30 4447 H 431.333 -2.21941 1.24957 0
M  V30 4448 H 432.116 -1.86414 2.88279 0
M  V30 4449 N 434.561 -1.01147 -1.20859 0
M  V30 4450 C 435.977 -0.725422 -1.42161 0
M  V30 4451 C 436.177 0.696919 -1.89064 0
M  V30 4452 O 435.233 1.46539 -2.05627 0
M  V30 4453 C 436.546 -1.74678 -2.44761 0
M  V30 4454 C 438.094 -1.76433 -2.58535 0
M  V30 4455 C 438.569 -2.77481 -3.64374 0
M  V30 4456 N 440.06 -2.76189 -3.71852 0
M  V30 4457 C 440.795 -3.51035 -4.53389 0
M  V30 4458 N 440.291 -4.35541 -5.38773 0
M  V30 4459 N 442.084 -3.39655 -4.47873 0
M  V30 4460 H 434.235 -1.92979 -0.887282 0
M  V30 4461 H 436.498 -0.833327 -0.451962 0
M  V30 4462 H 436.204 -2.76551 -2.17285 0
M  V30 4463 H 436.078 -1.55472 -3.43669 0
M  V30 4464 H 438.465 -0.75248 -2.85345 0
M  V30 4465 H 438.546 -1.99712 -1.5984 0
M  V30 4466 H 438.19 -3.78827 -3.38308 0
M  V30 4467 H 438.12 -2.51466 -4.6268 0
M  V30 4468 H 440.611 -2.14885 -3.10858 0
M  V30 4469 H 440.924 -4.89432 -5.98061 0
M  V30 4470 H 439.269 -4.39621 -5.38292 0
M  V30 4471 H 442.46 -2.73063 -3.80203 0
M  V30 4472 H 442.633 -3.9824 -5.11184 0
M  V30 4473 N 436.039 1.36541 -0.78704 0
M  V30 4474 C 436.949 2.3387 -0.184896 0
M  V30 4475 C 437.965 1.60927 0.661697 0
M  V30 4476 O 439.141 1.92927 0.57804 0
M  V30 4477 C 436.206 3.40122 0.672145 0
M  V30 4478 C 435.267 4.28867 -0.19267 0
M  V30 4479 C 434.5 5.30045 0.623561 0
M  V30 4480 O 434.723 5.39232 1.8597 0
M  V30 4481 O 433.657 6.01895 0.0247068 0
M  V30 4482 H 437.483 2.87126 -0.989562 0
M  V30 4483 H 435.068 1.38969 -0.548455 0
M  V30 4484 H 436.95 4.05093 1.16094 0
M  V30 4485 H 435.625 2.89169 1.45474 0
M  V30 4486 H 434.532 3.66945 -0.728166 0
M  V30 4487 H 435.865 4.83165 -0.938722 0
M  V30 4488 N 437.518 0.538854 1.48102 0
M  V30 4489 C 438.428 -0.222648 2.33541 0
M  V30 4490 C 439.444 -0.930225 1.47047 0
M  V30 4491 O 440.62 -0.903211 1.80011 0
M  V30 4492 C 437.685 -1.25064 3.23357 0
M  V30 4493 C 436.746 -0.552469 4.2573 0
M  V30 4494 C 435.979 -1.53149 5.11254 0
M  V30 4495 O 436.202 -2.76487 4.9891 0
M  V30 4496 O 435.136 -1.06602 5.92385 0
M  V30 4497 H 438.962 0.477707 2.99919 0
M  V30 4498 H 436.547 0.299669 1.46364 0
M  V30 4499 H 438.429 -1.8445 3.78888 0
M  V30 4500 H 437.104 -1.93325 2.59629 0
M  V30 4501 H 436.011 0.082114 3.7401 0
M  V30 4502 H 437.344 0.0883526 4.92121 0
M  V30 4503 N 438.996 -1.55193 0.274407 0
M  V30 4504 C 439.928 -2.1989 -0.646595 0
M  V30 4505 C 440.941 -1.1834 -1.11801 0
M  V30 4506 O 442.13 -1.4507 -1.04004 0
M  V30 4507 C 439.23 -2.8104 -1.89393 0
M  V30 4508 C 438.403 -4.08274 -1.56943 0
M  V30 4509 C 437.462 -4.53478 -2.66916 0
M  V30 4510 O 436.488 -5.19267 -2.33132 0
M  V30 4511 N 437.69 -4.2356 -3.9696 0
M  V30 4512 H 440.455 -2.99556 -0.0928686 0
M  V30 4513 H 438.016 -1.61618 0.0954783 0
M  V30 4514 H 440.008 -3.08226 -2.62257 0
M  V30 4515 H 438.578 -2.05372 -2.35672 0
M  V30 4516 H 437.798 -3.88384 -0.674655 0
M  V30 4517 H 439.086 -4.91173 -1.32764 0
M  V30 4518 H 438.484 -3.70799 -4.27229 0
M  V30 4519 H 437.041 -4.55518 -4.66205 0
M  V30 4520 N 440.474 -0.00167713 -1.576 0
M  V30 4521 C 441.704 0.692754 -1.94639 0
M  V30 4522 C 442.112 1.67744 -0.87513 0
M  V30 4523 O 441.455 1.8305 0.154382 0
M  V30 4524 C 441.517 1.47881 -3.27676 0
M  V30 4525 C 441.181 0.655518 -4.52274 0
M  V30 4526 C 442.178 -0.0575214 -5.19868 0
M  V30 4527 C 439.863 0.600994 -4.98692 0
M  V30 4528 C 441.857 -0.814052 -6.3218 0
M  V30 4529 C 439.544 -0.15926 -6.10892 0
M  V30 4530 C 440.542 -0.865515 -6.77494 0
M  V30 4531 O 440.23 -1.61336 -7.87544 0
M  V30 4532 H 439.962 0.197792 -0.646417 0
M  V30 4533 H 442.516 -0.049423 -2.05341 0
M  V30 4534 H 440.746 2.2655 -3.13388 0
M  V30 4535 H 442.435 2.05874 -3.49816 0
M  V30 4536 H 443.201 -0.0245611 -4.84994 0
M  V30 4537 H 439.08 1.14025 -4.46676 0
M  V30 4538 H 442.624 -1.36584 -6.84098 0
M  V30 4539 H 438.521 -0.194035 -6.45208 0
M  V30 4540 H 439.289 -1.53025 -8.04068 0
M  V30 4541 N 441.952 1.55251 0.271103 0
M  V30 4542 C 442.9 1.89054 1.35504 0
M  V30 4543 C 443.894 0.767064 1.51038 0
M  V30 4544 O 445.1 0.951429 1.528 0
M  V30 4545 H 441.475 0.600072 0.45323 0
M  V30 4546 H 443.446 2.79598 1.04247 0
M  V30 4547 C 442.195 2.18068 2.70817 0
M  V30 4548 H 441.518 3.04005 2.59656 0
M  V30 4549 H 442.958 2.4564 3.45597 0
M  V30 4550 C 441.417 0.988901 3.2206 0
M  V30 4551 O 441.947 0.224501 4.01072 0
M  V30 4552 N 440.153 0.786085 2.79766 0
M  V30 4553 H 439.7 1.40937 2.15626 0
M  V30 4554 H 439.658 -0.00969349 3.14399 0
M  V30 4555 N 443.43 -0.535701 1.48216 0
M  V30 4556 C 444.655 -1.32149 1.59848 0
M  V30 4557 C 445.08 -1.86338 0.256842 0
M  V30 4558 O 444.438 -1.64107 -0.770632 0
M  V30 4559 C 444.486 -2.45224 2.64381 0
M  V30 4560 O 443.59 -3.48093 2.21144 0
M  V30 4561 H 442.931 -0.391634 0.536208 0
M  V30 4562 H 445.461 -0.645202 1.94161 0
M  V30 4563 H 445.471 -2.91491 2.85476 0
M  V30 4564 H 444.146 -2.05143 3.61786 0
M  V30 4565 H 442.723 -3.07984 2.10239 0
M  V30 4566 N 444.908 -1.36708 -0.784132 0
M  V30 4567 C 446.136 -1.34398 -1.57305 0
M  V30 4568 C 446.551 0.0735577 -1.88657 0
M  V30 4569 O 445.908 1.03193 -1.50524 0
M  V30 4570 C 445.959 -2.17053 -2.89085 0
M  V30 4571 O 445.68 -3.53281 -2.59083 0
M  V30 4572 C 447.181 -2.22583 -3.83369 0
M  V30 4573 H 444.401 -0.460819 -0.487736 0
M  V30 4574 H 446.945 -1.79879 -0.972819 0
M  V30 4575 H 445.1 -1.75113 -3.45564 0
M  V30 4576 H 445.514 -3.9647 -3.43383 0
M  V30 4577 H 446.988 -2.84763 -4.72878 0
M  V30 4578 H 447.465 -1.23075 -4.21603 0
M  V30 4579 H 448.071 -2.64781 -3.32823 0
M  V30 4580 N 446.386 1.0089 -1.21074 0
M  V30 4581 C 447.616 1.77933 -1.04993 0
M  V30 4582 C 448.024 1.84847 0.403495 0
M  V30 4583 O 447.367 1.30606 1.29181 0
M  V30 4584 C 447.429 3.23541 -1.56722 0
M  V30 4585 C 447.093 3.40214 -3.05129 0
M  V30 4586 C 448.09 3.2881 -4.02716 0
M  V30 4587 C 445.775 3.65781 -3.44252 0
M  V30 4588 C 447.769 3.42732 -5.37414 0
M  V30 4589 C 445.456 3.79346 -4.79103 0
M  V30 4590 C 446.454 3.67827 -5.75493 0
M  V30 4591 O 446.142 3.80965 -7.07899 0
M  V30 4592 H 445.874 0.566157 -0.369381 0
M  V30 4593 H 448.428 1.27826 -1.60779 0
M  V30 4594 H 446.658 3.74766 -0.953285 0
M  V30 4595 H 448.347 3.82245 -1.36543 0
M  V30 4596 H 449.113 3.08986 -3.73835 0
M  V30 4597 H 444.992 3.73831 -2.69762 0
M  V30 4598 H 448.536 3.33658 -6.12632 0
M  V30 4599 H 444.433 3.98672 -5.07672 0
M  V30 4600 H 445.201 3.97937 -7.15254 0
M  V30 4601 N 447.864 1.01787 1.20321 0
M  V30 4602 C 449.28 0.732951 1.41774 0
M  V30 4603 C 449.48 -0.686883 1.89431 0
M  V30 4604 O 448.536 -1.45446 2.06402 0
M  V30 4605 C 449.849 1.75973 2.43832 0
M  V30 4606 C 451.397 1.77802 2.57596 0
M  V30 4607 C 451.872 2.7941 3.62897 0
M  V30 4608 N 453.363 2.78157 3.70382 0
M  V30 4609 C 454.098 3.53434 4.51521 0
M  V30 4610 N 453.594 4.38392 5.36455 0
M  V30 4611 N 455.387 3.42026 4.46066 0
M  V30 4612 H 447.538 1.93447 0.877035 0
M  V30 4613 H 449.801 0.835712 0.447536 0
M  V30 4614 H 449.507 2.77699 2.15815 0
M  V30 4615 H 449.381 1.57292 3.4284 0
M  V30 4616 H 451.768 0.767602 2.84942 0
M  V30 4617 H 451.849 2.00557 1.58779 0
M  V30 4618 H 451.493 3.80616 3.36295 0
M  V30 4619 H 451.423 2.53916 4.61339 0
M  V30 4620 H 453.914 2.16531 3.09714 0
M  V30 4621 H 454.227 4.92596 5.95457 0
M  V30 4622 H 452.572 4.4247 5.35953 0
M  V30 4623 H 455.763 2.75075 3.78749 0
M  V30 4624 H 455.936 4.00946 5.09064 0
M  V30 4625 N 449.342 -1.36122 0.79427 0
M  V30 4626 C 450.588 -1.99406 0.369452 0
M  V30 4627 C 450.921 -1.62886 -1.05743 0
M  V30 4628 O 450.196 -0.886053 -1.73145 0
M  V30 4629 C 450.479 -3.56046 0.538833 0
M  V30 4630 C 450.332 -4.02404 2.00976 0
M  V30 4631 C 451.651 -4.40079 -0.0431359 0
M  V30 4632 H 448.77 -0.724397 0.135712 0
M  V30 4633 H 451.412 -1.61461 1.00151 0
M  V30 4634 H 449.562 -3.885 0.000771004 0
M  V30 4635 H 451.234 -3.80415 2.60926 0
M  V30 4636 H 449.477 -3.53765 2.51063 0
M  V30 4637 H 450.148 -5.11344 2.07922 0
M  V30 4638 H 452.624 -4.14013 0.416228 0
M  V30 4639 H 451.5 -5.48799 0.105374 0
M  V30 4640 H 451.761 -4.27264 -1.13571 0
M  V30 4641 N 450.82 -0.546701 -1.47814 0
M  V30 4642 C 452.066 -0.0187684 -2.02791 0
M  V30 4643 C 452.399 1.32338 -1.42128 0
M  V30 4644 O 451.674 1.85867 -0.573023 0
M  V30 4645 C 451.957 0.0854985 -3.59998 0
M  V30 4646 C 451.81 -1.283 -4.31114 0
M  V30 4647 C 453.129 0.80412 -4.32691 0
M  V30 4648 H 450.248 -0.0082946 -0.736953 0
M  V30 4649 H 452.89 -0.706962 -1.76358 0
M  V30 4650 H 451.04 0.671609 -3.82651 0
M  V30 4651 H 452.712 -1.91151 -4.19832 0
M  V30 4652 H 450.955 -1.86049 -3.91878 0
M  V30 4653 H 451.626 -1.16287 -5.39612 0
M  V30 4654 H 454.102 0.306576 -4.14969 0
M  V30 4655 H 452.978 0.846011 -5.42341 0
M  V30 4656 H 453.239 1.85802 -4.01161 0
M  V30 4657 N 452.299 1.55045 -0.282633 0
M  V30 4658 C 453.524 2.04628 0.337977 0
M  V30 4659 C 453.949 1.15937 1.48123 0
M  V30 4660 O 453.307 0.159532 1.80597 0
M  V30 4661 C 453.355 3.51854 0.78936 0
M  V30 4662 O 452.459 3.66236 1.89592 0
M  V30 4663 H 451.8 0.660434 0.0687261 0
M  V30 4664 H 454.33 2.00261 -0.419124 0
M  V30 4665 H 454.34 3.93361 1.08311 0
M  V30 4666 H 453.015 4.15873 -0.0470419 0
M  V30 4667 H 451.592 3.36633 1.60413 0
M  V30 4668 N 453.777 0.010035 1.57597 0
M  V30 4669 C 455.023 -0.673697 1.91283 0
M  V30 4670 C 455.356 -1.72863 0.884979 0
M  V30 4671 O 454.631 -1.94268 -0.0949487 0
M  V30 4672 C 454.914 -1.30766 3.35518 0
M  V30 4673 C 454.767 -0.263578 4.49027 0
M  V30 4674 C 456.086 -2.23105 3.79358 0
M  V30 4675 H 453.205 -0.243439 0.695634 0
M  V30 4676 H 455.847 0.0633864 1.89894 0
M  V30 4677 H 453.997 -1.93588 3.36832 0
M  V30 4678 H 455.669 0.365738 4.59848 0
M  V30 4679 H 453.912 0.413077 4.31829 0
M  V30 4680 H 454.583 -0.746398 5.4693 0
M  V30 4681 H 457.059 -1.70289 3.79659 0
M  V30 4682 H 455.935 -2.64424 4.81011 0
M  V30 4683 H 456.196 -3.11433 3.13787 0
M  V30 4684 N 455.255 -1.55392 -0.262866 0
M  V30 4685 C 456.185 -1.91978 -1.32917 0
M  V30 4686 C 457.166 -0.7828 -1.51017 0
M  V30 4687 O 458.351 -1.04178 -1.63892 0
M  V30 4688 C 455.481 -2.20055 -2.68687 0
M  V30 4689 C 454.435 -3.35854 -2.65304 0
M  V30 4690 C 453.761 -3.49435 -4.04721 0
M  V30 4691 C 455.061 -4.71977 -2.23685 0
M  V30 4692 H 456.755 -2.81292 -1.02544 0
M  V30 4693 H 454.301 -1.3534 -0.491846 0
M  V30 4694 H 456.254 -2.44237 -3.43404 0
M  V30 4695 H 454.978 -1.27551 -3.00663 0
M  V30 4696 H 453.637 -3.11655 -1.93045 0
M  V30 4697 H 453.285 -2.54379 -4.33936 0
M  V30 4698 H 452.985 -4.27297 -4.0335 0
M  V30 4699 H 454.509 -3.7592 -4.81161 0
M  V30 4700 H 455.923 -4.95637 -2.88127 0
M  V30 4701 H 454.32 -5.52828 -2.33456 0
M  V30 4702 H 455.39 -4.70115 -1.18827 0
M  V30 4703 N 456.733 0.527833 -1.48498 0
M  V30 4704 C 457.961 1.30823 -1.6029 0
M  V30 4705 C 458.376 1.86945 -0.263974 0
M  V30 4706 O 457.733 1.6651 0.747034 0
M  V30 4707 C 457.784 2.45756 -2.65116 0
M  V30 4708 O 457.505 1.91946 -3.93813 0
M  V30 4709 C 459.006 3.37543 -2.87367 0
M  V30 4710 H 456.226 0.397763 -0.540394 0
M  V30 4711 H 458.77 0.636529 -1.94341 0
M  V30 4712 H 456.925 3.08806 -2.33917 0
M  V30 4713 H 457.339 2.67195 -4.51339 0
M  V30 4714 H 458.813 4.14532 -3.6451 0
M  V30 4715 H 459.29 3.92905 -1.9627 0
M  V30 4716 H 459.896 2.80283 -3.19878 0
M  V30 4717 N 458.211 1.37122 0.776871 0
M  V30 4718 C 459.457 1.32243 1.53752 0
M  V30 4719 C 459.79 -0.0944745 1.9397 0
M  V30 4720 O 459.065 -1.05068 1.6368 0
M  V30 4721 C 459.348 2.25681 2.80607 0
M  V30 4722 C 459.201 3.76127 2.46676 0
M  V30 4723 C 460.52 2.17657 3.82509 0
M  V30 4724 H 457.639 0.481704 0.557791 0
M  V30 4725 H 460.281 1.6778 0.891612 0
M  V30 4726 H 458.431 1.95505 3.35723 0
M  V30 4727 H 460.103 4.16877 1.97513 0
M  V30 4728 H 458.346 3.94946 1.79443 0
M  V30 4729 H 459.017 4.36933 3.37333 0
M  V30 4730 H 461.493 2.44245 3.36873 0
M  V30 4731 H 460.369 2.85185 4.69 0
M  V30 4732 H 460.63 1.16785 4.26396 0
M  V30 4733 N 459.689 -1.00246 1.21608 0
M  V30 4734 C 460.619 -2.10921 1.00172 0
M  V30 4735 C 461.6 -1.69938 -0.0741587 0
M  V30 4736 O 462.785 -1.94009 0.0861753 0
M  V30 4737 C 459.915 -3.42618 0.568355 0
M  V30 4738 C 458.869 -3.97407 1.58909 0
M  V30 4739 C 458.195 -5.25038 1.01187 0
M  V30 4740 C 459.495 -4.2918 2.97661 0
M  V30 4741 H 461.189 -2.29112 1.92739 0
M  V30 4742 H 458.735 -1.10101 0.928102 0
M  V30 4743 H 460.688 -4.19444 0.405555 0
M  V30 4744 H 459.412 -3.24227 -0.392961 0
M  V30 4745 H 458.071 -3.22703 1.73949 0
M  V30 4746 H 457.719 -5.02982 0.0421965 0
M  V30 4747 H 457.419 -5.62661 1.6937 0
M  V30 4748 H 458.943 -6.04507 0.860448 0
M  V30 4749 H 460.357 -4.96839 2.86049 0
M  V30 4750 H 458.754 -4.77952 3.6288 0
M  V30 4751 H 459.824 -3.3735 3.48315 0
M  V30 4752 N 461.167 -1.02423 -1.1978 0
M  V30 4753 C 462.117 -0.571689 -2.20716 0
M  V30 4754 C 463.101 0.377077 -1.56419 0
M  V30 4755 O 464.293 0.198801 -1.7588 0
M  V30 4756 C 461.422 0.0808555 -3.43205 0
M  V30 4757 C 460.508 -0.890073 -4.14655 0
M  V30 4758 N 460.899 -2.05065 -4.62366 0
M  V30 4759 C 459.197 -0.71252 -4.40272 0
M  V30 4760 C 459.898 -2.66264 -5.17183 0
M  V30 4761 N 458.874 -1.94264 -5.07703 0
M  V30 4762 H 462.676 -1.45636 -2.55279 0
M  V30 4763 H 460.19 -0.890596 -1.35802 0
M  V30 4764 H 462.187 0.422654 -4.14752 0
M  V30 4765 H 460.847 0.961274 -3.10144 0
M  V30 4766 H 461.858 -2.43026 -4.57339 0
M  V30 4767 H 458.535 0.119199 -4.1733 0
M  V30 4768 H 459.925 -3.64526 -5.64421 0
M  V30 4769 N 462.645 1.35699 -0.801477 0
M  V30 4770 C 463.577 2.28598 -0.166028 0
M  V30 4771 C 464.59 1.50044 0.631721 0
M  V30 4772 O 465.779 1.72339 0.464921 0
M  V30 4773 C 462.879 3.29625 0.787451 0
M  V30 4774 C 462.052 4.37384 0.037171 0
M  V30 4775 C 461.111 5.183 0.908375 0
M  V30 4776 O 460.137 5.68053 0.361189 0
M  V30 4777 N 461.339 5.35912 2.23112 0
M  V30 4778 H 464.104 2.83771 -0.964071 0
M  V30 4779 H 461.665 1.47994 -0.656469 0
M  V30 4780 H 463.657 3.80648 1.37439 0
M  V30 4781 H 462.227 2.75004 1.48632 0
M  V30 4782 H 461.447 3.87364 -0.730935 0
M  V30 4783 H 462.735 5.0653 -0.480109 0
M  V30 4784 H 462.133 4.97125 2.69968 0
M  V30 4785 H 460.69 5.90133 2.76741 0
M  V30 4786 N 464.123 0.554532 1.47522 0
M  V30 4787 C 465.4 -0.0360704 1.95567 0
M  V30 4788 C 465.78 -1.48828 1.49711 0
M  V30 4789 O 465.128 -2.16366 0.734717 0
M  V30 4790 C 465.338 0.106631 3.48837 0
M  V30 4791 C 466.686 -0.0400899 4.24581 0
M  V30 4792 O 467.71 0.0340453 3.56184 0
M  V30 4793 O 466.569 -0.199111 5.46137 0
M  V30 4794 H 463.663 -0.0656294 0.824392 0
M  V30 4795 H 466.209 0.620867 1.57935 0
M  V30 4796 H 464.981 1.11727 3.7501 0
M  V30 4797 H 464.604 -0.58804 3.93227 0
M  V30 4798 N 465.601 -1.54893 0.290851 0
M  V30 4799 C 466.847 -2.00949 -0.314784 0
M  V30 4800 C 467.202 -1.1757 -1.52299 0
M  V30 4801 O 466.495 -0.241558 -1.90071 0
M  V30 4802 C 466.689 -3.49815 -0.732397 0
M  V30 4803 C 466.518 -4.47603 0.433799 0
M  V30 4804 C 465.288 -4.96806 0.922599 0
M  V30 4805 C 467.486 -4.98233 1.27546 0
M  V30 4806 N 465.468 -5.78426 2.05662 0
M  V30 4807 C 466.839 -5.77455 2.25712 0
M  V30 4808 C 468.894 -4.80439 1.307 0
M  V30 4809 C 467.597 -6.40778 3.26796 0
M  V30 4810 C 469.623 -5.44574 2.30637 0
M  V30 4811 C 468.985 -6.23619 3.27533 0
M  V30 4812 H 465.084 -0.777905 -0.0799257 0
M  V30 4813 H 467.668 -1.9015 0.418458 0
M  V30 4814 H 465.839 -3.60925 -1.43483 0
M  V30 4815 H 467.571 -3.82681 -1.31671 0
M  V30 4816 H 464.326 -4.70961 0.49926 0
M  V30 4817 H 464.75 -6.23923 2.62772 0
M  V30 4818 H 469.392 -4.18918 0.571622 0
M  V30 4819 H 467.11 -7.01439 4.01258 0
M  V30 4820 H 470.696 -5.32739 2.33838 0
M  V30 4821 H 469.576 -6.72367 4.03599 0
M  V30 4822 N 467.08 -0.0183926 -1.57589 0
M  V30 4823 C 468.01 0.965596 -2.12599 0
M  V30 4824 C 468.991 1.34641 -1.0395 0
M  V30 4825 O 470.176 1.42693 -1.31729 0
M  V30 4826 C 467.306 2.25149 -2.64434 0
M  V30 4827 C 466.26 2.01175 -3.77773 0
M  V30 4828 C 465.586 3.35937 -4.15994 0
M  V30 4829 C 466.886 1.35953 -5.04296 0
M  V30 4830 H 468.58 0.507504 -2.95067 0
M  V30 4831 H 466.126 0.242671 -1.41941 0
M  V30 4832 H 468.079 2.94357 -3.01549 0
M  V30 4833 H 466.803 2.73105 -1.79112 0
M  V30 4834 H 465.462 1.34388 -3.4108 0
M  V30 4835 H 465.11 3.81631 -3.27669 0
M  V30 4836 H 464.81 3.20705 -4.92364 0
M  V30 4837 H 466.334 4.0643 -4.55683 0
M  V30 4838 H 467.748 1.95144 -5.39065 0
M  V30 4839 H 466.145 1.31152 -5.85593 0
M  V30 4840 H 467.215 0.331071 -4.83768 0
M  V30 4841 N 468.558 1.5553 0.254621 0
M  V30 4842 C 469.506 1.9048 1.33492 0
M  V30 4843 C 470.5 0.78304 1.50216 0
M  V30 4844 O 471.706 0.967582 1.51782 0
M  V30 4845 H 468.081 0.604846 0.44684 0
M  V30 4846 H 470.052 2.80688 1.01275 0
M  V30 4847 C 468.801 2.20928 2.68489 0
M  V30 4848 H 468.124 3.06742 2.56417 0
M  V30 4849 H 469.564 2.49291 3.42972 0
M  V30 4850 C 468.023 1.023 3.20993 0
M  V30 4851 O 468.553 0.267027 4.00811 0
M  V30 4852 N 466.759 0.815714 2.78917 0
M  V30 4853 H 466.306 1.43217 2.14119 0
M  V30 4854 H 466.264 0.0236532 3.14391 0
M  V30 4855 N 470.036 -0.519951 1.48776 0
M  V30 4856 C 471.284 -1.2727 1.56993 0
M  V30 4857 C 471.605 -1.9339 0.25004 0
M  V30 4858 O 470.875 -1.81822 -0.729216 0
M  V30 4859 H 469.455 -0.472732 0.578389 0
M  V30 4860 H 472.117 -0.604234 1.85297 0
M  V30 4861 H 471.213 -2.04669 2.3562 0
M  V30 4862 N 471.514 -1.37532 -0.769588 0
M  V30 4863 C 472.461 -1.3347 -1.88293 0
M  V30 4864 C 473.431 -0.199891 -1.64893 0
M  V30 4865 O 474.616 -0.389594 -1.8678 0
M  V30 4866 C 471.756 -1.14968 -3.25387 0
M  V30 4867 C 470.869 -2.37698 -3.60727 0
M  V30 4868 C 470.004 -2.12051 -4.8704 0
M  V30 4869 C 469.043 -3.30636 -5.15117 0
M  V30 4870 N 468.18 -3.04527 -6.3262 0
M  V30 4871 H 473.02 -2.28658 -1.911 0
M  V30 4872 H 470.557 -1.13622 -0.934257 0
M  V30 4873 H 472.515 -1.02261 -4.04473 0
M  V30 4874 H 471.145 -0.234263 -3.21949 0
M  V30 4875 H 470.197 -2.61137 -2.76608 0
M  V30 4876 H 471.509 -3.26131 -3.77413 0
M  V30 4877 H 470.663 -1.96388 -5.74035 0
M  V30 4878 H 469.402 -1.20959 -4.72462 0
M  V30 4879 H 468.407 -3.46836 -4.26597 0
M  V30 4880 H 469.632 -4.22582 -5.31603 0
M  V30 4881 H 467.578 -2.16067 -6.19396 0
M  V30 4882 H 467.495 -3.86503 -6.49732 0
M  V30 4883 H 468.763 -2.92485 -7.22546 0
M  V30 4884 N 472.992 0.995999 -1.22138 0
M  V30 4885 C 473.902 2.11985 -1.00496 0
M  V30 4886 C 474.918 1.7394 0.0457701 0
M  V30 4887 O 476.094 2.00868 -0.146273 0
M  V30 4888 C 473.159 3.41779 -0.582086 0
M  V30 4889 C 472.22 3.93943 -1.70608 0
M  V30 4890 C 471.453 5.17542 -1.30328 0
M  V30 4891 O 471.676 5.70114 -0.180743 0
M  V30 4892 O 470.61 5.63382 -2.11861 0
M  V30 4893 H 474.436 2.33123 -1.94647 0
M  V30 4894 H 472.021 1.10358 -1.00705 0
M  V30 4895 H 473.903 4.1989 -0.356467 0
M  V30 4896 H 472.578 3.22007 0.330592 0
M  V30 4897 H 471.485 3.17019 -1.98619 0
M  V30 4898 H 472.818 4.18141 -2.59651 0
M  V30 4899 N 474.47 1.03057 1.19235 0
M  V30 4900 C 475.7 0.746613 1.92638 0
M  V30 4901 C 476.108 -0.698708 1.75826 0
M  V30 4902 O 475.451 -1.487 1.07861 0
M  V30 4903 C 475.513 1.02024 3.44719 0
M  V30 4904 C 475.177 2.45745 3.85303 0
M  V30 4905 C 476.174 3.43887 3.8992 0
M  V30 4906 C 473.859 2.8019 4.16892 0
M  V30 4907 C 475.853 4.74529 4.2556 0
M  V30 4908 C 473.54 4.1104 4.52205 0
M  V30 4909 C 474.538 5.0802 4.56513 0
M  V30 4910 O 474.226 6.36527 4.91008 0
M  V30 4911 H 473.958 0.272401 0.618687 0
M  V30 4912 H 476.512 1.37853 1.52269 0
M  V30 4913 H 474.742 0.331184 3.85279 0
M  V30 4914 H 476.431 0.725677 3.9936 0
M  V30 4915 H 477.197 3.18614 3.65664 0
M  V30 4916 H 473.076 2.05382 4.12722 0
M  V30 4917 H 476.62 5.50222 4.28838 0
M  V30 4918 H 472.517 4.36086 4.7592 0
M  V30 4919 H 473.285 6.41025 5.08949 0
M  V30 4920 N 475.948 -1.35272 0.808662 0
M  V30 4921 C 476.895 -2.29764 0.218482 0
M  V30 4922 C 477.865 -1.52911 -0.648652 0
M  V30 4923 O 479.05 -1.81341 -0.593297 0
M  V30 4924 C 476.19 -3.39388 -0.625282 0
M  V30 4925 C 475.303 -4.31202 0.262516 0
M  V30 4926 C 474.438 -5.27919 -0.589451 0
M  V30 4927 C 473.477 -6.11371 0.298617 0
M  V30 4928 N 472.614 -7.0022 -0.513443 0
M  V30 4929 H 477.454 -2.79645 1.02968 0
M  V30 4930 H 474.991 -1.37629 0.519303 0
M  V30 4931 H 476.949 -4.01615 -1.12966 0
M  V30 4932 H 475.579 -2.90777 -1.40173 0
M  V30 4933 H 474.631 -3.69962 0.885013 0
M  V30 4934 H 475.943 -4.89748 0.945971 0
M  V30 4935 H 475.097 -5.95529 -1.15888 0
M  V30 4936 H 473.836 -4.69875 -1.30647 0
M  V30 4937 H 472.841 -5.42707 0.880301 0
M  V30 4938 H 474.066 -6.71494 1.01352 0
M  V30 4939 H 472.012 -6.44662 -1.21439 0
M  V30 4940 H 471.929 -7.55917 0.111922 0
M  V30 4941 H 473.197 -7.72175 -1.06608 0
M  V30 4942 N 477.426 -0.562348 -1.47226 0
M  V30 4943 C 478.666 -0.0426374 -2.04356 0
M  V30 4944 C 479.03 1.28487 -1.42671 0
M  V30 4945 O 480.231 1.89259 -1.90878 0
M  V30 4946 C 478.502 0.0433826 -3.57374 0
M  V30 4947 S 480.061 0.508472 -4.35844 0
M  V30 4948 H 476.879 -0.0276234 -0.710463 0
M  V30 4949 H 479.481 -0.750245 -1.80531 0
M  V30 4950 H 478.185 -0.927072 -3.99792 0
M  V30 4951 H 477.716 0.774387 -3.85703 0
M  V30 4952 H 479.731 1.76719 -4.63665 0
M  V30 4953 N 478.904 1.54736 -0.299062 0
M  V30 4954 C 479.851 2.23448 0.577899 0
M  V30 4955 C 480.821 1.21637 1.13109 0
M  V30 4956 O 482.006 1.50252 1.17597 0
M  V30 4957 C 479.146 2.9774 1.74484 0
M  V30 4958 C 478.259 4.1432 1.22323 0
M  V30 4959 C 477.394 4.76199 2.35388 0
M  V30 4960 C 476.433 5.84927 1.80351 0
M  V30 4961 N 475.57 6.4077 2.86982 0
M  V30 4962 H 480.41 2.97996 -0.0146545 0
M  V30 4963 H 477.947 1.47088 -0.0190013 0
M  V30 4964 H 479.905 3.39045 2.43114 0
M  V30 4965 H 478.535 2.25572 2.30905 0
M  V30 4966 H 477.587 3.7797 0.429249 0
M  V30 4967 H 478.899 4.92659 0.780309 0
M  V30 4968 H 478.053 5.20346 3.11969 0
M  V30 4969 H 476.792 3.97188 2.83006 0
M  V30 4970 H 475.797 5.40207 1.02259 0
M  V30 4971 H 477.022 6.65821 1.3364 0
M  V30 4972 H 474.968 5.64643 3.33938 0
M  V30 4973 H 474.885 7.1445 2.4718 0
M  V30 4974 H 476.153 6.89574 3.63466 0
M  V30 4975 N 480.382 0.0267497 1.57577 0
M  V30 4976 C 481.628 -0.653371 1.91987 0
M  V30 4977 C 481.961 -1.71915 0.903263 0
M  V30 4978 O 481.236 -1.94358 -0.0743387 0
M  V30 4979 C 481.519 -1.272 3.36886 0
M  V30 4980 C 481.372 -0.215938 4.49281 0
M  V30 4981 C 482.691 -2.19069 3.81703 0
M  V30 4982 H 479.81 -0.236047 0.698177 0
M  V30 4983 H 482.452 0.0835236 1.89816 0
M  V30 4984 H 480.602 -1.90005 3.38866 0
M  V30 4985 H 482.274 0.41449 4.59434 0
M  V30 4986 H 480.517 0.458855 4.31366 0
M  V30 4987 H 481.188 -0.688347 5.47691 0
M  V30 4988 H 483.664 -1.66253 3.81444 0
M  V30 4989 H 482.54 -2.59307 4.83788 0
M  V30 4990 H 482.801 -3.08087 3.17072 0
M  V30 4991 N 481.861 -1.55662 -0.24637 0
M  V30 4992 C 483.086 -1.81914 -0.996093 0
M  V30 4993 C 483.511 -0.603875 -1.78143 0
M  V30 4994 O 482.869 0.447091 -1.75701 0
M  V30 4995 C 482.917 -3.05908 -1.90925 0
M  V30 4996 O 482.021 -2.82861 -3.00105 0
M  V30 4997 H 481.362 -0.600481 -0.283406 0
M  V30 4998 H 483.892 -2.02848 -0.267199 0
M  V30 4999 H 483.902 -3.35356 -2.3238 0
M  V30 5000 H 482.577 -3.93999 -1.33183 0
M  V30 5001 H 481.154 -2.64583 -2.62775 0
M  V30 5002 N 483.339 0.512053 -1.4905 0
M  V30 5003 C 484.287 1.63568 -1.65373 0
M  V30 5004 C 485.281 1.61228 -0.519806 0
M  V30 5005 O 486.487 1.65869 -0.699101 0
M  V30 5006 H 482.862 0.542019 -0.521267 0
M  V30 5007 H 484.833 1.4695 -2.59708 0
M  V30 5008 C 483.582 3.01761 -1.7273 0
M  V30 5009 H 482.905 3.04263 -2.59353 0
M  V30 5010 H 484.345 3.79948 -1.8819 0
M  V30 5011 C 482.804 3.33609 -0.46973 0
M  V30 5012 O 483.334 3.99607 0.409492 0
M  V30 5013 N 481.54 2.88651 -0.336003 0
M  V30 5014 H 481.087 2.35119 -1.05247 0
M  V30 5015 H 481.045 3.10328 0.504363 0
M  V30 5016 N 484.817 1.37938 0.762283 0
M  V30 5017 C 485.764 1.34467 1.87583 0
M  V30 5018 C 486.734 0.208633 1.64785 0
M  V30 5019 O 487.919 0.399494 1.86571 0
M  V30 5020 C 485.059 1.16692 3.24772 0
M  V30 5021 C 484.172 2.39608 3.59461 0
M  V30 5022 C 483.307 2.14631 4.85908 0
M  V30 5023 C 482.346 3.33364 5.13357 0
M  V30 5024 N 481.483 3.07877 6.30996 0
M  V30 5025 H 486.323 2.29669 1.89885 0
M  V30 5026 H 483.86 1.14116 0.928219 0
M  V30 5027 H 485.818 1.04405 4.03925 0
M  V30 5028 H 484.448 0.251333 3.2182 0
M  V30 5029 H 483.5 2.626 2.75219 0
M  V30 5030 H 484.812 3.28128 3.75678 0
M  V30 5031 H 483.966 1.99429 5.72986 0
M  V30 5032 H 482.705 1.23463 4.71814 0
M  V30 5033 H 481.71 3.49094 4.24751 0
M  V30 5034 H 482.935 4.25395 5.29354 0
M  V30 5035 H 480.881 2.19348 6.18241 0
M  V30 5036 H 480.798 3.89944 6.47673 0
M  V30 5037 H 482.066 2.96313 7.20985 0
M  V30 5038 N 486.295 -0.989507 1.22664 0
M  V30 5039 C 487.258 -2.06183 1.00106 0
M  V30 5040 C 488.258 -1.60765 -0.0337726 0
M  V30 5041 O 489.448 -1.72989 0.205072 0
M  V30 5042 C 486.58 -3.37021 0.51279 0
M  V30 5043 H 487.773 -2.27629 1.95256 0
M  V30 5044 H 485.326 -1.16158 1.0458 0
M  V30 5045 H 486.061 -3.21261 -0.442917 0
M  V30 5046 H 485.846 -3.71323 1.25942 0
M  V30 5047 H 487.336 -4.1591 0.375315 0
M  V30 5048 N 487.773 -1.03688 -1.18687 0
M  V30 5049 C 488.703 -0.645407 -2.24403 0
M  V30 5050 C 489.684 0.349511 -1.66471 0
M  V30 5051 O 490.869 0.230453 -1.92828 0
M  V30 5052 C 487.999 -0.00365337 -3.473 0
M  V30 5053 C 486.953 -0.921705 -4.17958 0
M  V30 5054 C 486.279 -0.144629 -5.34504 0
M  V30 5055 C 487.579 -2.23909 -4.71871 0
M  V30 5056 H 489.273 -1.52917 -2.57404 0
M  V30 5057 H 486.819 -0.736711 -1.23728 0
M  V30 5058 H 488.772 0.281908 -4.20456 0
M  V30 5059 H 487.496 0.914963 -3.13522 0
M  V30 5060 H 486.155 -1.19159 -3.46694 0
M  V30 5061 H 485.803 0.776274 -4.96974 0
M  V30 5062 H 485.503 -0.756206 -5.82714 0
M  V30 5063 H 487.027 0.134004 -6.10453 0
M  V30 5064 H 488.441 -2.0145 -5.36741 0
M  V30 5065 H 486.838 -2.8033 -5.30599 0
M  V30 5066 H 487.908 -2.88822 -3.895 0
M  V30 5067 N 489.251 1.34841 -0.815825 0
M  V30 5068 C 490.662 1.80937 -0.46029 0
M  V30 5069 C 491.013 1.67685 1.01863 0
M  V30 5070 O 490.138 1.21277 1.79223 0
M  V30 5071 C 490.733 3.28509 -0.828708 0
M  V30 5072 C 489.292 3.72712 -0.525644 0
M  V30 5073 C 488.439 2.56676 -1.04941 0
M  V30 5074 H 491.39 1.22688 -1.00664 0
M  V30 5075 H 491.411 3.80279 -0.129757 0
M  V30 5076 H 490.923 3.38122 -1.90513 0
M  V30 5077 H 489.024 3.68642 0.541666 0
M  V30 5078 H 489.137 4.67119 -1.06474 0
M  V30 5079 H 487.501 2.50302 -0.471286 0
M  V30 5080 H 488.284 2.69063 -2.13214 0
M  V30 5081 N 490.729 0.570148 1.46925 0
M  V30 5082 C 491.692 -0.159933 2.28641 0
M  V30 5083 C 492.692 -0.830638 1.37685 0
M  V30 5084 O 493.882 -0.684516 1.60187 0
M  V30 5085 C 491.014 -1.2354 3.17727 0
M  V30 5086 H 492.207 0.558035 2.94662 0
M  V30 5087 H 489.76 0.327603 1.52828 0
M  V30 5088 H 490.495 -1.98535 2.56426 0
M  V30 5089 H 490.28 -0.759125 3.84681 0
M  V30 5090 H 491.77 -1.74782 3.79264 0
M  V30 5091 N 492.207 -1.54576 0.307264 0
M  V30 5092 C 493.618 -1.8579 -0.184121 0
M  V30 5093 C 493.969 -1.22914 -1.52927 0
M  V30 5094 O 493.094 -0.529126 -2.09831 0
M  V30 5095 C 493.689 -3.37081 -0.340862 0
M  V30 5096 C 492.248 -3.68304 -0.776465 0
M  V30 5097 C 491.395 -2.77076 0.111503 0
M  V30 5098 H 494.346 -1.49656 0.528078 0
M  V30 5099 H 494.367 -3.61922 -1.17443 0
M  V30 5100 H 493.879 -3.82815 0.638309 0
M  V30 5101 H 491.98 -3.28092 -1.76596 0
M  V30 5102 H 492.093 -4.75434 -0.591512 0
M  V30 5103 H 490.457 -2.51374 -0.410256 0
M  V30 5104 H 491.24 -3.25632 1.08714 0
M  V30 5105 N 493.685 -0.035106 -1.57561 0
M  V30 5106 C 494.934 0.641604 -1.91223 0
M  V30 5107 C 495.247 1.72944 -0.913761 0
M  V30 5108 O 496.453 2.46321 -1.14185 0
M  V30 5109 C 494.909 1.19249 -3.3957 0
M  V30 5110 C 494.517 0.137616 -4.47789 0
M  V30 5111 C 496.261 1.84537 -3.82291 0
M  V30 5112 C 494.168 0.700478 -5.87237 0
M  V30 5113 H 493.098 0.243417 -0.713627 0
M  V30 5114 H 495.749 -0.101382 -1.8322 0
M  V30 5115 H 494.131 1.98728 -3.42525 0
M  V30 5116 H 495.305 -0.635153 -4.56402 0
M  V30 5117 H 493.62 -0.416855 -4.14308 0
M  V30 5118 H 496.217 2.27616 -4.83834 0
M  V30 5119 H 496.56 2.69054 -3.17672 0
M  V30 5120 H 497.093 1.11739 -3.81784 0
M  V30 5121 H 493.832 -0.106693 -6.55413 0
M  V30 5122 H 493.352 1.4416 -5.82218 0
M  V30 5123 H 495.031 1.18837 -6.35993 0
M  V30 5124 N 495.163 1.55791 0.238111 0
M  V30 5125 C 496.073 1.94196 1.31625 0
M  V30 5126 C 497.089 0.843545 1.52185 0
M  V30 5127 O 498.265 1.1457 1.65637 0
M  V30 5128 C 495.33 2.2365 2.64918 0
M  V30 5129 C 494.391 3.46971 2.52804 0
M  V30 5130 C 493.624 3.7501 3.79741 0
M  V30 5131 O 493.847 3.04982 4.82019 0
M  V30 5132 O 492.781 4.68525 3.77846 0
M  V30 5133 H 496.607 2.86044 1.02043 0
M  V30 5134 H 494.192 1.42786 0.439603 0
M  V30 5135 H 496.074 2.43863 3.4367 0
M  V30 5136 H 494.749 1.34979 2.94215 0
M  V30 5137 H 493.656 3.32055 1.72309 0
M  V30 5138 H 494.989 4.35971 2.28451 0
M  V30 5139 N 496.642 -0.504142 1.49319 0
M  V30 5140 C 497.589 -1.60603 1.65756 0
M  V30 5141 C 498.559 -1.58425 0.499082 0
M  V30 5142 O 499.744 -1.76459 0.725728 0
M  V30 5143 C 496.884 -2.98764 1.72726 0
M  V30 5144 C 495.997 -3.10982 2.99857 0
M  V30 5145 C 495.132 -4.39857 2.97824 0
M  V30 5146 C 494.171 -4.45697 4.19548 0
M  V30 5147 N 493.308 -5.65995 4.15444 0
M  V30 5148 H 498.148 -1.45895 2.59843 0
M  V30 5149 H 495.685 -0.709891 1.28837 0
M  V30 5150 H 497.643 -3.78839 1.74747 0
M  V30 5151 H 496.273 -3.12183 0.821075 0
M  V30 5152 H 495.325 -2.23991 3.07461 0
M  V30 5153 H 496.637 -3.11157 3.89849 0
M  V30 5154 H 495.791 -5.2825 2.98391 0
M  V30 5155 H 494.53 -4.42242 2.05604 0
M  V30 5156 H 493.535 -3.55707 4.19229 0
M  V30 5157 H 494.76 -4.4503 5.12957 0
M  V30 5158 H 492.706 -5.69229 3.26059 0
M  V30 5159 H 492.623 -5.67773 4.99169 0
M  V30 5160 H 493.891 -6.56604 4.20109 0
M  V30 5161 N 498.12 -1.38341 -0.754957 0
M  V30 5162 C 499.348 -1.37704 -1.54419 0
M  V30 5163 C 499.763 0.0335243 -1.8877 0
M  V30 5164 O 499.12 0.999773 -1.52679 0
M  V30 5165 C 499.171 -2.23136 -2.84416 0
M  V30 5166 O 498.892 -3.58697 -2.51531 0
M  V30 5167 C 500.393 -2.30664 -3.78562 0
M  V30 5168 H 497.613 -0.471061 -0.477852 0
M  V30 5169 H 500.157 -1.81902 -0.934446 0
M  V30 5170 H 498.312 -1.82403 -3.41772 0
M  V30 5171 H 498.726 -4.03665 -3.34896 0
M  V30 5172 H 500.2 -2.9473 -4.66732 0
M  V30 5173 H 500.677 -1.3199 -4.18898 0
M  V30 5174 H 501.283 -2.71781 -3.27131 0
M  V30 5175 N 499.598 0.982988 -1.23187 0
M  V30 5176 C 500.847 1.71817 -1.05649 0
M  V30 5177 C 501.16 1.91315 0.407176 0
M  V30 5178 O 502.366 2.62256 0.702436 0
M  V30 5179 C 500.822 3.09188 -1.84203 0
M  V30 5180 C 500.43 2.97586 -3.34882 0
M  V30 5181 C 502.174 3.86684 -1.75146 0
M  V30 5182 C 500.081 4.30173 -4.05839 0
M  V30 5183 H 499.011 0.644258 -0.391724 0
M  V30 5184 H 501.662 1.09659 -1.4713 0
M  V30 5185 H 500.044 3.72087 -1.35527 0
M  V30 5186 H 501.218 2.43793 -3.91026 0
M  V30 5187 H 499.533 2.33567 -3.44725 0
M  V30 5188 H 502.13 4.84836 -2.25473 0
M  V30 5189 H 502.473 4.10136 -0.713737 0
M  V30 5190 H 503.006 3.30482 -2.21419 0
M  V30 5191 H 499.745 4.11918 -5.09906 0
M  V30 5192 H 499.265 4.83841 -3.54482 0
M  V30 5193 H 500.944 4.98873 -4.11989 0
M  V30 5194 N 501.076 1.04316 1.18135 0
M  V30 5195 C 502.301 0.768047 1.92655 0
M  V30 5196 C 502.726 -0.66904 1.758 0
M  V30 5197 O 502.084 -1.46372 1.06981 0
M  V30 5198 C 502.132 1.14239 3.42026 0
M  V30 5199 O 501.236 0.269333 4.1152 0
M  V30 5200 H 500.577 0.282436 0.600937 0
M  V30 5201 H 503.107 1.39367 1.49793 0
M  V30 5202 H 503.117 1.10538 3.92741 0
M  V30 5203 H 501.792 2.18928 3.53615 0
M  V30 5204 H 500.369 0.366175 3.71098 0
M  V30 5205 N 502.554 -1.34406 0.822964 0
M  V30 5206 C 503.501 -2.29519 0.24284 0
M  V30 5207 C 504.471 -1.5359 -0.632397 0
M  V30 5208 O 505.656 -1.8196 -0.57403 0
M  V30 5209 C 502.796 -3.40032 -0.58925 0
M  V30 5210 C 501.909 -4.30899 0.308236 0
M  V30 5211 C 501.044 -5.28515 -0.533425 0
M  V30 5212 C 500.083 -6.1102 0.363444 0
M  V30 5213 N 499.22 -7.00725 -0.439147 0
M  V30 5214 H 504.06 -2.78537 1.05929 0
M  V30 5215 H 501.597 -1.3707 0.533872 0
M  V30 5216 H 503.555 -4.0279 -1.087 0
M  V30 5217 H 502.185 -2.92248 -1.37081 0
M  V30 5218 H 501.237 -3.69002 0.924203 0
M  V30 5219 H 502.549 -4.88717 0.997862 0
M  V30 5220 H 501.703 -5.96725 -1.09565 0
M  V30 5221 H 500.442 -4.71235 -1.25656 0
M  V30 5222 H 499.447 -5.41743 0.937812 0
M  V30 5223 H 500.672 -6.70381 1.08469 0
M  V30 5224 H 498.618 -6.45913 -1.14595 0
M  V30 5225 H 498.535 -7.55756 0.19209 0
M  V30 5226 H 499.803 -7.73263 -0.984124 0
M  V30 5227 N 504.032 -0.577932 -1.46621 0
M  V30 5228 C 504.995 0.147805 -2.28723 0
M  V30 5229 C 505.995 0.823325 -1.38123 0
M  V30 5230 O 507.185 0.676011 -1.60548 0
M  V30 5231 C 504.317 1.21853 -3.18378 0
M  V30 5232 H 505.51 -0.573654 -2.94362 0
M  V30 5233 H 503.063 -0.335703 -1.52652 0
M  V30 5234 H 503.798 1.97173 -2.57475 0
M  V30 5235 H 503.583 0.738714 -3.85078 0
M  V30 5236 H 505.073 1.72768 -3.80186 0
M  V30 5237 N 505.51 1.54411 -0.315457 0
M  V30 5238 C 506.457 2.24048 0.554166 0
M  V30 5239 C 507.427 1.2283 1.11812 0
M  V30 5240 O 508.612 1.51491 1.15997 0
M  V30 5241 C 505.752 2.99574 1.71316 0
M  V30 5242 C 504.865 4.15594 1.17922 0
M  V30 5243 C 504 4.78669 2.30324 0
M  V30 5244 C 503.039 5.86807 1.74137 0
M  V30 5245 N 502.176 6.43777 2.8017 0
M  V30 5246 H 507.016 2.97964 -0.0462602 0
M  V30 5247 H 504.553 1.47059 -0.0346009 0
M  V30 5248 H 506.511 3.41604 2.39505 0
M  V30 5249 H 505.141 2.28008 2.285 0
M  V30 5250 H 504.193 3.78404 0.389136 0
M  V30 5251 H 505.505 4.93459 0.728012 0
M  V30 5252 H 504.659 5.23626 3.06433 0
M  V30 5253 H 503.398 4.00168 2.78778 0
M  V30 5254 H 502.403 5.41261 0.965236 0
M  V30 5255 H 503.628 6.67201 1.2657 0
M  V30 5256 H 501.574 5.68153 3.2793 0
M  V30 5257 H 501.491 7.17031 2.39588 0
M  V30 5258 H 502.759 6.9339 3.56132 0
M  V30 5259 N 506.988 0.0434614 1.5754 0
M  V30 5260 C 508.236 -0.630786 1.92004 0
M  V30 5261 C 508.557 -1.71836 0.921807 0
M  V30 5262 O 507.827 -1.9587 -0.034522 0
M  V30 5263 H 506.407 -0.235988 0.708745 0
M  V30 5264 H 509.069 0.0946462 1.9467 0
M  V30 5265 H 508.165 -1.07434 2.93026 0
M  V30 5266 N 508.466 -1.55915 -0.229846 0
M  V30 5267 C 509.398 -1.88209 -1.30805 0
M  V30 5268 C 510.411 -0.769672 -1.43457 0
M  V30 5269 O 511.6 -1.04792 -1.44502 0
M  V30 5270 C 508.7 -2.06829 -2.68468 0
M  V30 5271 C 507.873 -3.37798 -2.77869 0
M  V30 5272 C 506.932 -3.45952 -3.96489 0
M  V30 5273 O 505.958 -4.19043 -3.85216 0
M  V30 5274 N 507.16 -2.76488 -5.10426 0
M  V30 5275 H 509.925 -2.81286 -1.03431 0
M  V30 5276 H 507.486 -1.5636 -0.41991 0
M  V30 5277 H 509.478 -2.09608 -3.46189 0
M  V30 5278 H 508.048 -1.20416 -2.88477 0
M  V30 5279 H 507.268 -3.4719 -1.86689 0
M  V30 5280 H 508.556 -4.24091 -2.81113 0
M  V30 5281 H 507.954 -2.16868 -5.2248 0
M  V30 5282 H 506.511 -2.84938 -5.8622 0
M  V30 5283 N 509.944 0.496216 -1.49584 0
M  V30 5284 C 511.355 1.07765 -1.52459 0
M  V30 5285 C 511.706 1.93679 -0.31353 0
M  V30 5286 O 510.831 2.08588 0.576186 0
M  V30 5287 C 511.426 1.96111 -2.76271 0
M  V30 5288 C 509.985 2.49409 -2.81908 0
M  V30 5289 C 509.132 1.27142 -2.46435 0
M  V30 5290 H 512.083 0.279914 -1.56212 0
M  V30 5291 H 512.104 2.80862 -2.56704 0
M  V30 5292 H 511.616 1.33555 -3.64396 0
M  V30 5293 H 509.717 3.1559 -1.98074 0
M  V30 5294 H 509.83 2.86234 -3.84196 0
M  V30 5295 H 508.194 1.59818 -1.98319 0
M  V30 5296 H 508.977 0.662866 -3.3684 0
M  V30 5297 N 511.423 1.38739 0.74761 0
M  V30 5298 C 512.839 1.20067 1.05148 0
M  V30 5299 C 513.039 0.0534835 2.01429 0
M  V30 5300 O 512.095 -0.59886 2.45296 0
M  V30 5301 C 513.408 2.52957 1.62584 0
M  V30 5302 C 514.956 2.59692 1.74726 0
M  V30 5303 C 515.431 3.92772 2.35573 0
M  V30 5304 N 516.922 3.94343 2.42997 0
M  V30 5305 C 517.657 4.9408 2.90985 0
M  V30 5306 N 517.153 6.04214 3.38965 0
M  V30 5307 N 518.946 4.81466 2.9008 0
M  V30 5308 H 511.097 2.12121 0.108808 0
M  V30 5309 H 513.36 0.941491 0.110899 0
M  V30 5310 H 513.066 3.37389 0.993051 0
M  V30 5311 H 512.94 2.71779 2.61565 0
M  V30 5312 H 515.327 1.75651 2.3713 0
M  V30 5313 H 515.408 2.44731 0.744326 0
M  V30 5314 H 515.052 4.77238 1.738 0
M  V30 5315 H 514.982 4.05046 3.36519 0
M  V30 5316 H 517.473 3.14799 2.0907 0
M  V30 5317 H 517.786 6.76241 3.74056 0
M  V30 5318 H 516.131 6.07825 3.37007 0
M  V30 5319 H 519.322 3.94535 2.51912 0
M  V30 5320 H 519.495 5.59344 3.27166 0
M  V30 5321 N 512.901 -0.976442 1.23707 0
M  V30 5322 C 513.811 -2.10359 1.03856 0
M  V30 5323 C 514.827 -1.73991 -0.0180919 0
M  V30 5324 O 516.003 -2.0061 0.178211 0
M  V30 5325 C 513.068 -3.40809 0.636387 0
M  V30 5326 C 512.129 -3.91179 1.76854 0
M  V30 5327 C 511.362 -5.15404 1.38546 0
M  V30 5328 O 511.585 -5.69754 0.27142 0
M  V30 5329 O 510.519 -5.5994 2.20797 0
M  V30 5330 H 514.345 -2.29997 1.98331 0
M  V30 5331 H 511.93 -1.08742 1.02448 0
M  V30 5332 H 513.812 -4.19269 0.423223 0
M  V30 5333 H 512.487 -3.22493 -0.279322 0
M  V30 5334 H 511.394 -3.13819 2.03638 0
M  V30 5335 H 512.727 -4.13958 2.6627 0
M  V30 5336 N 514.379 -1.04941 -1.1758 0
M  V30 5337 C 515.79 -0.784501 -1.69418 0
M  V30 5338 C 516.141 0.693625 -1.8353 0
M  V30 5339 O 515.266 1.53925 -1.52106 0
M  V30 5340 C 515.861 -1.41746 -3.07723 0
M  V30 5341 C 514.42 -1.20066 -3.56737 0
M  V30 5342 C 513.567 -1.5026 -2.33061 0
M  V30 5343 H 516.518 -1.21469 -1.02133 0
M  V30 5344 H 516.539 -0.825381 -3.7144 0
M  V30 5345 H 516.051 -2.49325 -2.9742 0
M  V30 5346 H 514.152 -0.144006 -3.72322 0
M  V30 5347 H 514.265 -1.90384 -4.39648 0
M  V30 5348 H 512.629 -0.922598 -2.37403 0
M  V30 5349 H 513.412 -2.58967 -2.25368 0
M  V30 5350 N 515.857 1.33968 -0.830081 0
M  V30 5351 C 516.789 2.28194 -0.21448 0
M  V30 5352 C 517.802 1.5135 0.599752 0
M  V30 5353 O 518.991 1.73286 0.42826 0
M  V30 5354 C 516.091 3.31221 0.717356 0
M  V30 5355 C 515.264 4.37365 -0.055613 0
M  V30 5356 C 514.323 5.2011 0.798231 0
M  V30 5357 O 513.349 5.68691 0.240616 0
M  V30 5358 N 514.551 5.40523 2.11695 0
M  V30 5359 H 517.316 2.81662 -1.02405 0
M  V30 5360 H 514.877 1.46568 -0.687713 0
M  V30 5361 H 516.869 3.83477 1.29334 0
M  V30 5362 H 515.439 2.78095 1.42765 0
M  V30 5363 H 514.659 3.85727 -0.812936 0
M  V30 5364 H 515.947 5.05397 -0.587444 0
M  V30 5365 H 515.345 5.0274 2.59363 0
M  V30 5366 H 513.902 5.95871 2.64162 0
M  V30 5367 N 517.335 0.585699 1.46312 0
M  V30 5368 C 518.581 0.0725284 2.0267 0
M  V30 5369 C 518.914 -1.28523 1.45586 0
M  V30 5370 O 518.189 -1.84283 0.622101 0
M  V30 5371 C 518.472 0.0099788 3.60099 0
M  V30 5372 C 518.325 1.39685 4.27561 0
M  V30 5373 C 519.644 -0.689117 4.34671 0
M  V30 5374 H 516.763 0.0278307 0.736474 0
M  V30 5375 H 519.405 0.753472 1.74421 0
M  V30 5376 H 517.555 -0.56992 3.84297 0
M  V30 5377 H 519.227 2.02215 4.14617 0
M  V30 5378 H 517.47 1.96374 3.86807 0
M  V30 5379 H 518.141 1.30553 5.36339 0
M  V30 5380 H 520.617 -0.196446 4.15636 0
M  V30 5381 H 519.493 -0.701921 5.44393 0
M  V30 5382 H 519.754 -1.75101 4.05946 0
M  V30 5383 N 518.813 -1.54241 0.323641 0
M  V30 5384 C 520.043 -2.04687 -0.280464 0
M  V30 5385 C 520.451 -1.19939 -1.46326 0
M  V30 5386 O 519.794 -0.222872 -1.82343 0
M  V30 5387 C 519.856 -3.50978 -0.778123 0
M  V30 5388 C 519.52 -4.56127 0.282371 0
M  V30 5389 C 520.517 -5.07726 1.11847 0
M  V30 5390 C 518.202 -5.00451 0.430582 0
M  V30 5391 C 520.196 -6.02212 2.08851 0
M  V30 5392 C 517.883 -5.94752 1.40404 0
M  V30 5393 C 518.881 -6.45519 2.23147 0
M  V30 5394 O 518.569 -7.37968 3.1884 0
M  V30 5395 H 518.301 -0.673192 -0.0615473 0
M  V30 5396 H 520.855 -1.99999 0.467921 0
M  V30 5397 H 519.085 -3.53064 -1.57742 0
M  V30 5398 H 520.774 -3.84499 -1.30058 0
M  V30 5399 H 521.54 -4.74261 1.01496 0
M  V30 5400 H 517.419 -4.6055 -0.203569 0
M  V30 5401 H 520.963 -6.41761 2.73474 0
M  V30 5402 H 516.86 -6.27633 1.5082 0
M  V30 5403 H 517.628 -7.55841 3.14079 0
M  V30 5404 N 520.291 -0.0518155 -1.57515 0
M  V30 5405 C 521.519 0.631395 -1.9703 0
M  V30 5406 C 521.934 1.64341 -0.92938 0
M  V30 5407 O 521.291 1.82296 0.0863266 0
M  V30 5408 C 521.342 1.31774 -3.36627 0
M  V30 5409 O 521.063 0.346247 -4.3673 0
M  V30 5410 C 522.564 2.09065 -3.90905 0
M  V30 5411 H 519.784 0.172576 -0.648428 0
M  V30 5412 H 522.328 -0.118306 -2.04158 0
M  V30 5413 H 520.483 2.01867 -3.30649 0
M  V30 5414 H 520.897 0.836226 -5.17791 0
M  V30 5415 H 522.371 2.52508 -4.9086 0
M  V30 5416 H 522.848 2.93908 -3.26366 0
M  V30 5417 H 523.454 1.43882 -4.00223 0
M  V30 5418 N 521.769 1.56035 0.221574 0
M  V30 5419 C 522.699 1.95434 1.2778 0
M  V30 5420 C 523.68 0.822564 1.48889 0
M  V30 5421 O 524.865 1.08486 1.61072 0
M  V30 5422 C 521.995 2.27102 2.62759 0
M  V30 5423 C 520.949 3.4277 2.56306 0
M  V30 5424 C 520.275 3.60043 3.95314 0
M  V30 5425 C 521.575 4.77742 2.11093 0
M  V30 5426 H 523.269 2.83912 0.950504 0
M  V30 5427 H 520.815 1.36596 0.455791 0
M  V30 5428 H 522.768 2.53256 3.36807 0
M  V30 5429 H 521.492 1.35478 2.97176 0
M  V30 5430 H 520.151 3.16664 1.84715 0
M  V30 5431 H 519.799 2.65794 4.27039 0
M  V30 5432 H 519.499 4.37841 3.91879 0
M  V30 5433 H 521.023 3.88545 4.71025 0
M  V30 5434 H 522.437 5.03102 2.74885 0
M  V30 5435 H 520.834 5.58823 2.18716 0
M  V30 5436 H 521.904 4.731 1.06321 0
M  V30 5437 N 523.247 -0.488276 1.49845 0
M  V30 5438 C 524.658 -1.06955 1.53028 0
M  V30 5439 C 525.009 -1.9351 0.323797 0
M  V30 5440 O 524.134 -2.08891 -0.565116 0
M  V30 5441 C 524.729 -1.94643 2.77307 0
M  V30 5442 C 523.288 -2.4791 2.83227 0
M  V30 5443 C 522.435 -1.25833 2.47106 0
M  V30 5444 H 525.386 -0.271626 1.56358 0
M  V30 5445 H 525.407 -2.79496 2.5819 0
M  V30 5446 H 524.919 -1.31621 3.65099 0
M  V30 5447 H 523.02 -3.14535 1.99745 0
M  V30 5448 H 523.133 -2.84193 3.85709 0
M  V30 5449 H 521.497 -1.58764 1.99163 0
M  V30 5450 H 522.28 -0.644993 3.37186 0
M  V30 5451 N 524.725 -1.39134 -0.740242 0
M  V30 5452 C 526.136 -1.32208 -1.31825 0
M  V30 5453 C 526.487 0.0159919 -1.96193 0
M  V30 5454 O 525.612 0.918111 -1.95958 0
M  V30 5455 C 526.207 -2.39436 -2.39699 0
M  V30 5456 C 524.766 -2.36048 -2.93187 0
M  V30 5457 C 523.913 -2.21599 -1.66701 0
M  V30 5458 H 526.864 -1.49298 -0.538133 0
M  V30 5459 H 526.885 -2.05922 -3.19963 0
M  V30 5460 H 526.397 -3.36811 -1.92821 0
M  V30 5461 H 524.498 -1.42295 -3.44359 0
M  V30 5462 H 524.611 -3.30704 -3.46658 0
M  V30 5463 H 522.975 -1.68681 -1.90837 0
M  V30 5464 H 523.758 -3.20936 -1.21882 0
M  V30 5465 N 526.204 0.969867 -1.24223 0
M  V30 5466 C 527.429 1.75289 -1.10853 0
M  V30 5467 C 527.854 1.85091 0.335079 0
M  V30 5468 O 527.212 1.32024 1.24255 0
M  V30 5469 C 527.26 3.15255 -1.75062 0
M  V30 5470 O 526.364 3.99589 -1.01992 0
M  V30 5471 H 525.705 0.538904 -0.387915 0
M  V30 5472 H 528.235 1.21675 -1.64488 0
M  V30 5473 H 528.245 3.65787 -1.80731 0
M  V30 5474 H 526.92 3.07436 -2.801 0
M  V30 5475 H 525.497 3.58077 -1.04094 0
M  V30 5476 N 527.682 1.05563 1.17022 0
M  V30 5477 C 529.098 0.777684 1.39371 0
M  V30 5478 C 529.298 -0.626269 1.91521 0
M  V30 5479 O 528.354 -1.38806 2.10924 0
M  V30 5480 C 529.667 1.83642 2.3811 0
M  V30 5481 C 531.215 1.85907 2.51809 0
M  V30 5482 C 531.69 2.90813 3.53824 0
M  V30 5483 N 533.181 2.898 3.61345 0
M  V30 5484 C 533.916 3.6762 4.40049 0
M  V30 5485 N 533.412 4.55237 5.22237 0
M  V30 5486 N 535.205 3.56044 4.34959 0
M  V30 5487 H 527.356 1.9614 0.815047 0
M  V30 5488 H 529.619 0.849527 0.420722 0
M  V30 5489 H 529.325 2.84425 2.06871 0
M  V30 5490 H 529.199 1.6812 3.37662 0
M  V30 5491 H 531.586 0.857865 2.82356 0
M  V30 5492 H 531.667 2.05506 1.52318 0
M  V30 5493 H 531.311 3.91122 3.24015 0
M  V30 5494 H 531.241 2.68465 4.53028 0
M  V30 5495 H 533.732 2.26274 3.02669 0
M  V30 5496 H 534.045 5.11291 5.79484 0
M  V30 5497 H 532.39 4.59296 5.21605 0
M  V30 5498 H 535.581 2.86986 3.69806 0
M  V30 5499 H 535.754 4.16938 4.96051 0
M  V30 5500 N 529.16 -1.33526 0.837174 0
M  V30 5501 C 530.437 -1.92369 0.354065 0
M  V30 5502 C 530.817 -1.76348 -1.16038 0
M  V30 5503 O 530.165 -1.15083 -1.97403 0
M  V30 5504 C 530.375 -3.39728 0.799101 0
M  V30 5505 C 531.723 -4.16877 0.806139 0
M  V30 5506 O 532.747 -3.48373 0.742597 0
M  V30 5507 O 531.606 -5.39166 0.892345 0
M  V30 5508 H 528.7 -0.820952 0.0998378 0
M  V30 5509 H 531.246 -1.42409 0.922913 0
M  V30 5510 H 530.018 -3.45254 1.84162 0
M  V30 5511 H 529.641 -3.97062 0.206731 0
M  V30 5512 N 530.638 -0.59345 -1.46 0
M  V30 5513 C 531.548 0.135817 -2.34207 0
M  V30 5514 C 532.564 0.875008 -1.50398 0
M  V30 5515 O 533.74 0.835778 -1.83239 0
M  V30 5516 C 530.805 1.12977 -3.27776 0
M  V30 5517 C 529.866 0.394081 -4.27487 0
M  V30 5518 C 529.099 1.34068 -5.16586 0
M  V30 5519 O 529.322 2.5778 -5.08828 0
M  V30 5520 O 528.256 0.845426 -5.95933 0
M  V30 5521 H 532.082 -0.588691 -2.9794 0
M  V30 5522 H 529.667 -0.353784 -1.45151 0
M  V30 5523 H 531.549 1.70261 -3.85473 0
M  V30 5524 H 530.224 1.83556 -2.66625 0
M  V30 5525 H 529.131 -0.220869 -3.73447 0
M  V30 5526 H 530.464 -0.270939 -4.91454 0
M  V30 5527 N 532.116 1.54067 -0.331816 0
M  V30 5528 C 533.046 2.27569 0.522932 0
M  V30 5529 C 534.027 1.28679 1.11247 0
M  V30 5530 O 535.212 1.57504 1.13605 0
M  V30 5531 C 532.342 3.0397 1.67987 0
M  V30 5532 C 531.296 4.10267 1.21924 0
M  V30 5533 C 530.622 4.74555 2.46377 0
M  V30 5534 C 531.922 5.21268 0.32815 0
M  V30 5535 H 533.616 2.99264 -0.0901977 0
M  V30 5536 H 531.162 1.4393 -0.044821 0
M  V30 5537 H 533.115 3.54123 2.28418 0
M  V30 5538 H 531.839 2.29906 2.31971 0
M  V30 5539 H 530.498 3.61009 0.637809 0
M  V30 5540 H 530.146 3.97098 3.08743 0
M  V30 5541 H 529.846 5.46363 2.16243 0
M  V30 5542 H 531.37 5.27487 3.07555 0
M  V30 5543 H 532.784 5.67128 0.838978 0
M  V30 5544 H 531.181 5.99982 0.119228 0
M  V30 5545 H 532.251 4.80673 -0.638839 0
M  V30 5546 N 533.594 0.0601682 1.57485 0
M  V30 5547 C 534.822 -0.620937 1.97363 0
M  V30 5548 C 535.237 -1.63846 0.938082 0
M  V30 5549 O 534.594 -1.82339 -0.0766578 0
M  V30 5550 C 534.645 -1.29987 3.37321 0
M  V30 5551 O 534.366 -0.323081 4.36907 0
M  V30 5552 C 535.867 -2.06989 3.92008 0
M  V30 5553 H 533.087 -0.169135 0.649334 0
M  V30 5554 H 535.631 0.129132 2.04092 0
M  V30 5555 H 533.786 -2.0011 3.31715 0
M  V30 5556 H 534.2 -0.808754 5.18227 0
M  V30 5557 H 535.674 -2.49901 4.92192 0
M  V30 5558 H 536.151 -2.92173 3.2792 0
M  V30 5559 H 536.757 -1.41757 4.0098 0
M  V30 5560 N 535.072 -1.5615 -0.213296 0
M  V30 5561 C 536.019 -1.93086 -1.26437 0
M  V30 5562 C 536.989 -0.789086 -1.4616 0
M  V30 5563 O 538.174 -1.04569 -1.59593 0
M  V30 5564 C 535.314 -2.26003 -2.608 0
M  V30 5565 C 534.427 -3.53156 -2.48807 0
M  V30 5566 C 533.562 -3.7548 -3.7575 0
M  V30 5567 C 532.601 -4.96119 -3.58514 0
M  V30 5568 N 531.738 -5.14791 -4.77425 0
M  V30 5569 H 536.578 -2.82707 -0.942376 0
M  V30 5570 H 534.115 -1.39919 -0.454001 0
M  V30 5571 H 536.073 -2.431 -3.39055 0
M  V30 5572 H 534.703 -1.39546 -2.91079 0
M  V30 5573 H 533.755 -3.44207 -1.61944 0
M  V30 5574 H 535.067 -4.41565 -2.31996 0
M  V30 5575 H 534.221 -3.92718 -4.62447 0
M  V30 5576 H 532.96 -2.85368 -3.95495 0
M  V30 5577 H 531.965 -4.78823 -2.70201 0
M  V30 5578 H 533.19 -5.87724 -3.40231 0
M  V30 5579 H 531.136 -4.27623 -4.97468 0
M  V30 5580 H 531.053 -5.97347 -4.63371 0
M  V30 5581 H 532.321 -5.36471 -5.65525 0
M  V30 5582 N 536.55 0.480323 -1.50102 0
M  V30 5583 C 537.498 1.60024 -1.68805 0
M  V30 5584 C 538.492 1.60089 -0.553888 0
M  V30 5585 O 539.698 1.64349 -0.734127 0
M  V30 5586 H 536.073 0.530841 -0.532646 0
M  V30 5587 H 538.044 1.41408 -2.62767 0
M  V30 5588 C 536.793 2.98029 -1.79092 0
M  V30 5589 H 536.116 2.98694 -2.65748 0
M  V30 5590 H 537.556 3.75871 -1.96206 0
M  V30 5591 C 536.015 3.32538 -0.540388 0
M  V30 5592 O 536.545 4.00386 0.324637 0
M  V30 5593 N 534.751 2.87873 -0.397154 0
M  V30 5594 H 534.298 2.32834 -1.1021 0
M  V30 5595 H 534.256 3.11328 0.438425 0
M  V30 5596 N 538.028 1.39524 0.732853 0
M  V30 5597 C 538.96 1.34318 1.85718 0
M  V30 5598 C 539.973 0.251576 1.60844 0
M  V30 5599 O 541.162 0.510685 1.71039 0
M  V30 5600 C 538.262 1.06334 3.21786 0
M  V30 5601 C 537.435 2.26813 3.73998 0
M  V30 5602 C 536.494 1.95253 4.88634 0
M  V30 5603 O 535.52 2.67957 5.02183 0
M  V30 5604 N 536.722 0.919984 5.73164 0
M  V30 5605 H 539.487 2.3121 1.90688 0
M  V30 5606 H 537.048 1.33654 0.91368 0
M  V30 5607 H 539.04 0.832363 3.96048 0
M  V30 5608 H 537.61 0.181682 3.12072 0
M  V30 5609 H 536.83 2.65849 2.91064 0
M  V30 5610 H 538.118 3.0717 4.05616 0
M  V30 5611 H 537.516 0.317487 5.64808 0
M  V30 5612 H 536.073 0.748905 6.47483 0
M  V30 5613 N 539.506 -0.963266 1.24736 0
M  V30 5614 C 540.752 -1.70933 1.09131 0
M  V30 5615 C 541.085 -1.90676 -0.368273 0
M  V30 5616 O 540.36 -1.47147 -1.27193 0
M  V30 5617 C 540.643 -3.09744 1.83658 0
M  V30 5618 C 540.496 -2.97465 3.37394 0
M  V30 5619 C 541.815 -4.09483 1.61282 0
M  V30 5620 H 538.934 -0.620398 0.397838 0
M  V30 5621 H 541.576 -1.12028 1.53459 0
M  V30 5622 H 539.726 -3.60031 1.4598 0
M  V30 5623 H 541.398 -2.54571 3.84696 0
M  V30 5624 H 539.641 -2.33576 3.65547 0
M  V30 5625 H 540.312 -3.95822 3.84745 0
M  V30 5626 H 542.788 -3.68073 1.94066 0
M  V30 5627 H 541.664 -5.04666 2.15878 0
M  V30 5628 H 541.925 -4.38639 0.552102 0
M  V30 5629 N 540.985 -1.06182 -1.16461 0
M  V30 5630 C 542.21 -0.798599 -1.91408 0
M  V30 5631 C 542.635 0.640987 -1.76842 0
M  V30 5632 O 541.993 1.44652 -1.09296 0
M  V30 5633 C 542.041 -1.19665 -3.40165 0
M  V30 5634 O 541.145 -0.334768 -4.11039 0
M  V30 5635 H 540.486 -0.291961 -0.596368 0
M  V30 5636 H 543.016 -1.41732 -1.47557 0
M  V30 5637 H 543.026 -1.16772 -3.90933 0
M  V30 5638 H 541.701 -2.24526 -3.50087 0
M  V30 5639 H 540.278 -0.425168 -3.70468 0
M  V30 5640 N 542.463 1.3308 -0.844243 0
M  V30 5641 C 543.393 2.3161 -0.296493 0
M  V30 5642 C 544.374 1.59215 0.598707 0
M  V30 5643 O 545.559 1.87077 0.521134 0
M  V30 5644 C 542.689 3.43313 0.524762 0
M  V30 5645 C 541.643 4.27115 -0.275106 0
M  V30 5646 C 540.969 5.30483 0.670236 0
M  V30 5647 C 542.269 5.00443 -1.49514 0
M  V30 5648 H 543.963 2.77672 -1.11976 0
M  V30 5649 H 541.509 1.33496 -0.539899 0
M  V30 5650 H 543.462 4.11273 0.918298 0
M  V30 5651 H 542.186 2.95952 1.3813 0
M  V30 5652 H 540.845 3.60787 -0.650267 0
M  V30 5653 H 540.493 4.79379 1.52332 0
M  V30 5654 H 540.193 5.87435 0.139123 0
M  V30 5655 H 541.717 6.01308 1.06117 0
M  V30 5656 H 543.131 5.61141 -1.17447 0
M  V30 5657 H 541.528 5.67071 -1.96343 0
M  V30 5658 H 542.598 4.28906 -2.26202 0
M  V30 5659 N 543.941 0.601185 1.45683 0
M  V30 5660 C 545.169 0.100054 2.06658 0
M  V30 5661 C 545.584 -1.21285 1.44691 0
M  V30 5662 O 544.941 -1.73735 0.558772 0
M  V30 5663 C 544.992 -0.0528579 3.61461 0
M  V30 5664 O 544.713 1.20809 4.21114 0
M  V30 5665 C 546.214 -0.586193 4.39407 0
M  V30 5666 H 543.434 0.065905 0.667756 0
M  V30 5667 H 545.978 0.827101 1.87028 0
M  V30 5668 H 544.133 -0.730203 3.80456 0
M  V30 5669 H 544.547 1.03368 5.14213 0
M  V30 5670 H 546.021 -0.642297 5.4825 0
M  V30 5671 H 546.498 -1.60713 4.0874 0
M  V30 5672 H 547.104 0.0568935 4.25262 0
M  V30 5673 N 545.419 -1.53889 0.339982 0
M  V30 5674 C 546.659 -2.02765 -0.258011 0
M  V30 5675 C 547.023 -1.22249 -1.48051 0
M  V30 5676 O 548.224 -1.61007 -2.15245 0
M  V30 5677 C 546.495 -3.5286 -0.567872 0
M  V30 5678 S 548.054 -4.23647 -1.14318 0
M  V30 5679 H 544.872 -0.706814 -0.0770389 0
M  V30 5680 H 547.474 -1.89594 0.476917 0
M  V30 5681 H 546.178 -4.09073 0.329745 0
M  V30 5682 H 545.709 -3.70144 -1.33256 0
M  V30 5683 H 547.724 -4.32676 -2.42911 0
M  V30 5684 N 546.897 -0.0685191 -1.57451 0
M  V30 5685 C 547.827 0.89747 -2.15564 0
M  V30 5686 C 548.808 1.31266 -1.08181 0
M  V30 5687 O 549.993 1.38429 -1.36202 0
M  V30 5688 C 547.123 2.16623 -2.71463 0
M  V30 5689 C 546.077 1.89054 -3.83982 0
M  V30 5690 C 545.403 3.22532 -4.26471 0
M  V30 5691 C 546.703 1.1984 -5.08366 0
M  V30 5692 H 548.397 0.413373 -2.96533 0
M  V30 5693 H 545.943 0.197391 -1.42641 0
M  V30 5694 H 547.896 2.84614 -3.10761 0
M  V30 5695 H 546.62 2.67269 -1.8771 0
M  V30 5696 H 545.279 1.23469 -3.45183 0
M  V30 5697 H 544.927 3.71013 -3.39644 0
M  V30 5698 H 544.627 3.04879 -5.02317 0
M  V30 5699 H 546.151 3.91727 -4.68383 0
M  V30 5700 H 547.565 1.77896 -5.45001 0
M  V30 5701 H 545.962 1.12456 -5.89469 0
M  V30 5702 H 547.032 0.176996 -4.84577 0
M  V30 5703 N 548.375 1.56261 0.205012 0
M  V30 5704 C 549.621 1.80306 0.9283 0
M  V30 5705 C 549.954 0.640932 1.83319 0
M  V30 5706 O 549.229 -0.359032 1.91158 0
M  V30 5707 C 549.512 3.14547 1.75306 0
M  V30 5708 C 549.365 4.41236 0.873562 0
M  V30 5709 C 550.684 3.45382 2.72762 0
M  V30 5710 H 547.803 0.655929 0.336044 0
M  V30 5711 H 550.445 1.88984 0.196211 0
M  V30 5712 H 548.595 3.0728 2.37721 0
M  V30 5713 H 550.267 4.60539 0.264887 0
M  V30 5714 H 548.51 4.33427 0.179773 0
M  V30 5715 H 549.181 5.31639 1.48541 0
M  V30 5716 H 551.657 3.52884 2.20481 0
M  V30 5717 H 550.533 4.40449 3.2756 0
M  V30 5718 H 550.794 2.68377 3.51321 0
M  V30 5719 N 549.853 -0.472356 1.50355 0
M  V30 5720 C 550.8 -1.57051 1.69126 0
M  V30 5721 C 551.77 -1.5733 0.532574 0
M  V30 5722 O 552.955 -1.7488 0.762994 0
M  V30 5723 C 550.095 -2.95033 1.79024 0
M  V30 5724 C 549.208 -3.04552 3.06386 0
M  V30 5725 C 548.343 -4.33441 3.07087 0
M  V30 5726 C 547.382 -4.36697 4.28908 0
M  V30 5727 N 546.519 -5.57056 4.27356 0
M  V30 5728 H 551.359 -1.40351 2.62879 0
M  V30 5729 H 548.896 -0.682403 1.30314 0
M  V30 5730 H 550.854 -3.75048 1.82744 0
M  V30 5731 H 549.484 -3.10371 0.887109 0
M  V30 5732 H 548.536 -2.17419 3.12143 0
M  V30 5733 H 549.848 -3.02818 3.96362 0
M  V30 5734 H 549.002 -5.21801 3.09529 0
M  V30 5735 H 547.741 -4.37782 2.14939 0
M  V30 5736 H 546.746 -3.46734 4.2668 0
M  V30 5737 H 547.971 -4.34049 5.22282 0
M  V30 5738 H 545.917 -5.62184 3.3806 0
M  V30 5739 H 545.834 -5.57058 5.111 0
M  V30 5740 H 547.102 -6.47545 4.33942 0
M  V30 5741 N 551.331 -1.39911 -0.725443 0
M  V30 5742 C 552.579 -1.37382 -1.48224 0
M  V30 5743 C 552.9 0.0264107 -1.94982 0
M  V30 5744 O 552.17 0.979408 -1.6966 0
M  V30 5745 H 550.75 -0.505596 -0.549892 0
M  V30 5746 H 553.412 -1.7487 -0.860608 0
M  V30 5747 H 552.508 -2.04254 -2.3598 0
M  V30 5748 N 552.809 0.956637 -1.25245 0
M  V30 5749 C 554.056 1.701 -1.09874 0
M  V30 5750 C 554.384 1.91128 0.36062 0
M  V30 5751 O 553.639 1.47837 1.28229 0
M  V30 5752 C 553.938 3.08996 -1.79601 0
M  V30 5753 C 553.604 3.07774 -3.29523 0
M  V30 5754 C 552.266 3.07149 -3.70423 0
M  V30 5755 C 554.618 3.01257 -4.25316 0
M  V30 5756 C 551.946 2.97752 -5.0553 0
M  V30 5757 C 554.298 2.93403 -5.60444 0
M  V30 5758 C 552.962 2.91111 -6.00675 0
M  V30 5759 H 552.232 0.62244 -0.402056 0
M  V30 5760 H 554.879 1.1178 -1.55491 0
M  V30 5761 H 553.184 3.70848 -1.26408 0
M  V30 5762 H 554.881 3.65407 -1.65162 0
M  V30 5763 H 551.471 3.09032 -2.9698 0
M  V30 5764 H 555.655 3.00861 -3.9471 0
M  V30 5765 H 550.911 2.94346 -5.35883 0
M  V30 5766 H 555.085 2.87321 -6.34366 0
M  V30 5767 H 552.712 2.83586 -7.05325 0
M  V30 5768 N 554.287 1.06798 1.15896 0
M  V30 5769 C 555.517 0.807522 1.90165 0
M  V30 5770 C 555.925 -0.642417 1.7796 0
M  V30 5771 O 555.268 -1.45193 1.12537 0
M  V30 5772 C 555.33 1.12939 3.41299 0
M  V30 5773 C 554.994 2.57879 3.7729 0
M  V30 5774 C 555.991 3.56118 3.78782 0
M  V30 5775 C 553.676 2.93311 4.07767 0
M  V30 5776 C 555.67 4.87827 4.10248 0
M  V30 5777 C 553.357 4.25219 4.38899 0
M  V30 5778 C 554.355 5.22287 4.4012 0
M  V30 5779 O 554.043 6.51826 4.70508 0
M  V30 5780 H 553.775 0.291946 0.609708 0
M  V30 5781 H 556.329 1.42627 1.47806 0
M  V30 5782 H 554.559 0.45359 3.84031 0
M  V30 5783 H 556.248 0.852363 3.9685 0
M  V30 5784 H 557.014 3.30086 3.55342 0
M  V30 5785 H 552.893 2.18409 4.05979 0
M  V30 5786 H 556.437 5.63586 4.11116 0
M  V30 5787 H 552.334 4.51006 4.61805 0
M  V30 5788 H 553.102 6.56893 4.88298 0
M  V30 5789 N 555.766 -1.3263 0.851289 0
M  V30 5790 C 557.177 -1.79653 0.5081 0
M  V30 5791 C 557.528 -1.70327 -0.973815 0
M  V30 5792 O 556.653 -1.25986 -1.75944 0
M  V30 5793 C 557.248 -3.26196 0.915515 0
M  V30 5794 C 555.807 -3.71187 0.624277 0
M  V30 5795 C 554.954 -2.53804 1.11709 0
M  V30 5796 H 557.905 -1.19976 1.03882 0
M  V30 5797 H 557.926 -3.79801 0.230535 0
M  V30 5798 H 557.438 -3.32952 1.99411 0
M  V30 5799 H 555.539 -3.69948 -0.443737 0
M  V30 5800 H 555.652 -4.64132 1.18821 0
M  V30 5801 H 554.016 -2.48964 0.537484 0
M  V30 5802 H 554.799 -2.63315 2.20272 0
M  V30 5803 N 557.244 -0.608902 -1.45362 0
M  V30 5804 C 558.469 -0.10921 -2.07112 0
M  V30 5805 C 558.894 1.19779 -1.45033 0
M  V30 5806 O 558.252 1.72961 -0.543527 0
M  V30 5807 C 558.3 0.0155745 -3.60597 0
M  V30 5808 O 557.404 1.06546 -3.98399 0
M  V30 5809 H 556.745 -0.0746619 -0.659789 0
M  V30 5810 H 559.275 -0.839283 -1.86594 0
M  V30 5811 H 559.285 0.213364 -4.07442 0
M  V30 5812 H 557.96 -0.938765 -4.05167 0
M  V30 5813 H 556.537 0.844024 -3.63223 0
M  V30 5814 N 558.722 1.53707 -0.348139 0
M  V30 5815 C 559.999 1.93247 0.302475 0
M  V30 5816 C 560.379 1.28012 1.67857 0
M  V30 5817 O 559.727 0.43274 2.24365 0
M  V30 5818 C 559.937 3.47031 0.370159 0
M  V30 5819 C 561.285 4.20066 0.61882 0
M  V30 5820 O 562.309 3.53319 0.452087 0
M  V30 5821 O 561.168 5.38318 0.94215 0
M  V30 5822 H 558.262 0.807736 0.177458 0
M  V30 5823 H 560.808 1.64927 -0.399651 0
M  V30 5824 H 559.58 3.86745 -0.59534 0
M  V30 5825 H 559.203 3.81532 1.11888 0
M  V30 5826 N 560.2 0.0768682 1.57412 0
M  V30 5827 C 561.449 -0.590679 1.92857 0
M  V30 5828 C 561.762 -1.70461 0.959293 0
M  V30 5829 O 562.968 -2.43207 1.20675 0
M  V30 5830 C 561.424 -1.10204 3.42612 0
M  V30 5831 C 561.032 -0.0188447 4.47996 0
M  V30 5832 C 562.776 -1.74336 3.87049 0
M  V30 5833 C 560.683 -0.544536 5.88888 0
M  V30 5834 H 559.613 -0.224411 0.71983 0
M  V30 5835 H 562.264 0.149924 1.82887 0
M  V30 5836 H 560.646 -1.89577 3.47673 0
M  V30 5837 H 561.82 0.755936 4.54557 0
M  V30 5838 H 560.135 0.526555 4.13057 0
M  V30 5839 H 562.732 -2.14708 4.89699 0
M  V30 5840 H 563.075 -2.60537 3.24694 0
M  V30 5841 H 563.608 -1.01577 3.84613 0
M  V30 5842 H 560.347 0.280426 6.549 0
M  V30 5843 H 559.867 -1.28673 5.85836 0
M  V30 5844 H 561.546 -1.01933 6.3892 0
M  V30 5845 N 561.678 -1.56367 -0.196722 0
M  V30 5846 C 562.641 -1.93561 -1.22746 0
M  V30 5847 C 563.641 -0.816566 -1.38524 0
M  V30 5848 O 564.831 -1.084 -1.36363 0
M  V30 5849 C 561.963 -2.20823 -2.59712 0
M  V30 5850 H 563.156 -2.85774 -0.909586 0
M  V30 5851 H 560.709 -1.50032 -0.438174 0
M  V30 5852 H 561.444 -1.31243 -2.96557 0
M  V30 5853 H 561.229 -3.02368 -2.49632 0
M  V30 5854 H 562.719 -2.50608 -3.34044 0
M  V30 5855 N 563.156 0.464375 -1.50603 0
M  V30 5856 C 564.402 1.21776 -1.62168 0
M  V30 5857 C 564.735 1.91476 -0.324154 0
M  V30 5858 O 564.01 1.8242 0.674782 0
M  V30 5859 C 564.293 2.25614 -2.80661 0
M  V30 5860 C 564.146 1.60175 -4.20314 0
M  V30 5861 C 565.465 3.26862 -2.94702 0
M  V30 5862 H 562.584 0.44137 -0.590222 0
M  V30 5863 H 565.226 0.510623 -1.8301 0
M  V30 5864 H 563.376 2.85923 -2.63021 0
M  V30 5865 H 565.048 1.03411 -4.4956 0
M  V30 5866 H 563.291 0.904697 -4.24261 0
M  V30 5867 H 563.962 2.35665 -4.99165 0
M  V30 5868 H 566.438 2.76582 -3.10872 0
M  V30 5869 H 565.314 3.96839 -3.79223 0
M  V30 5870 H 565.575 3.91382 -2.05603 0
M  V30 5871 N 564.634 1.40294 0.718013 0
M  V30 5872 C 565.544 1.42678 1.86226 0
M  V30 5873 C 566.56 0.319655 1.71039 0
M  V30 5874 O 567.736 0.563852 1.93346 0
M  V30 5875 C 564.801 1.2852 3.21999 0
M  V30 5876 C 563.862 2.49354 3.49458 0
M  V30 5877 C 563.095 2.35863 4.78753 0
M  V30 5878 O 563.318 1.37114 5.53675 0
M  V30 5879 O 562.252 3.25189 5.06494 0
M  V30 5880 H 566.078 2.39167 1.87171 0
M  V30 5881 H 563.663 1.2159 0.868112 0
M  V30 5882 H 565.545 1.22824 4.03103 0
M  V30 5883 H 564.22 0.351359 3.21787 0
M  V30 5884 H 563.127 2.60628 2.68373 0
M  V30 5885 H 564.46 3.41491 3.54464 0
M  V30 5886 N 566.112 -0.949982 1.2575 0
M  V30 5887 C 567.358 -1.69822 1.11947 0
M  V30 5888 C 567.713 -1.89455 -0.335334 0
M  V30 5889 O 567.006 -1.45778 -1.24336 0
M  V30 5890 C 567.2 -3.08039 1.81237 0
M  V30 5891 C 567.029 -3.0189 3.33305 0
M  V30 5892 C 565.799 -3.05391 4.02573 0
M  V30 5893 C 567.997 -2.827 4.29634 0
M  V30 5894 N 565.979 -2.89449 5.4138 0
M  V30 5895 C 567.35 -2.75237 5.55558 0
M  V30 5896 C 569.405 -2.67416 4.19992 0
M  V30 5897 C 568.108 -2.54051 6.72942 0
M  V30 5898 C 570.134 -2.47602 5.37073 0
M  V30 5899 C 569.496 -2.40863 6.6194 0
M  V30 5900 H 565.595 -0.629188 0.464378 0
M  V30 5901 H 568.179 -1.1249 1.58916 0
M  V30 5902 H 566.35 -3.63528 1.36756 0
M  V30 5903 H 568.082 -3.71671 1.60134 0
M  V30 5904 H 564.837 -3.14763 3.53866 0
M  V30 5905 H 565.261 -2.84669 6.14241 0
M  V30 5906 H 569.903 -2.71398 3.24196 0
M  V30 5907 H 567.621 -2.48811 7.68842 0
M  V30 5908 H 571.207 -2.36694 5.31477 0
M  V30 5909 H 570.087 -2.25732 7.51009 0
M  V30 5910 N 567.59 -1.07411 -1.15328 0
M  V30 5911 C 568.5 -0.706438 -2.23711 0
M  V30 5912 C 569.516 0.282586 -1.7169 0
M  V30 5913 O 570.692 0.129066 -2.00986 0
M  V30 5914 C 567.757 -0.11048 -3.46524 0
M  V30 5915 C 566.818 -1.15282 -4.13532 0
M  V30 5916 C 566.051 -0.585205 -5.30482 0
M  V30 5917 O 566.274 0.598549 -5.67251 0
M  V30 5918 O 565.208 -1.33039 -5.87013 0
M  V30 5919 H 569.034 -1.61031 -2.57493 0
M  V30 5920 H 566.619 -0.847113 -1.23062 0
M  V30 5921 H 568.501 0.21957 -4.20828 0
M  V30 5922 H 567.176 0.766703 -3.14489 0
M  V30 5923 H 566.083 -1.53523 -3.41147 0
M  V30 5924 H 567.416 -2.00192 -4.49649 0
M  V30 5925 N 569.068 1.32177 -0.85831 0
M  V30 5926 C 570.293 2.01847 -0.476718 0
M  V30 5927 C 570.718 1.64065 0.920021 0
M  V30 5928 O 570.076 0.843189 1.60499 0
M  V30 5929 C 570.124 3.55097 -0.627578 0
M  V30 5930 O 569.228 4.11012 0.338086 0
M  V30 5931 H 568.569 0.635907 -0.191099 0
M  V30 5932 H 571.099 1.68641 -1.15851 0
M  V30 5933 H 571.109 4.04718 -0.516476 0
M  V30 5934 H 569.784 3.81938 -1.64609 0
M  V30 5935 H 568.361 3.72451 0.182917 0
M  V30 5936 N 570.547 0.616602 1.45037 0
M  V30 5937 C 571.495 -0.109318 2.32343 0
M  V30 5938 C 572.489 -0.850543 1.465 0
M  V30 5939 O 573.695 -0.765088 1.62931 0
M  V30 5940 H 570.07 -0.0541091 0.750051 0
M  V30 5941 H 572.041 0.645326 2.91338 0
M  V30 5942 C 570.79 -1.0872 3.30266 0
M  V30 5943 H 570.113 -0.526267 3.96321 0
M  V30 5944 H 571.553 -1.56489 3.94065 0
M  V30 5945 C 570.012 -2.16525 2.58105 0
M  V30 5946 O 570.542 -3.244 2.36913 0
M  V30 5947 N 568.748 -1.92057 2.18088 0
M  V30 5948 H 568.295 -1.04337 2.35524 0
M  V30 5949 H 568.253 -2.64391 1.70131 0
M  V30 5950 N 572.025 -1.5352 0.356285 0
M  V30 5951 C 573.273 -2.00719 -0.235837 0
M  V30 5952 C 573.594 -1.24551 -1.5004 0
M  V30 5953 O 572.864 -0.356185 -1.92635 0
M  V30 5954 H 571.444 -0.741542 -0.0901366 0
M  V30 5955 H 574.106 -1.88887 0.480378 0
M  V30 5956 H 573.202 -3.08551 -0.469357 0
M  V30 5957 N 573.503 -0.0852151 -1.57369 0
M  V30 5958 C 574.435 0.907099 -2.10486 0
M  V30 5959 C 575.448 1.25259 -1.03991 0
M  V30 5960 O 576.637 1.20743 -1.31467 0
M  V30 5961 C 573.737 2.21908 -2.56145 0
M  V30 5962 C 572.91 2.05042 -3.86363 0
M  V30 5963 C 571.969 3.19664 -4.17973 0
M  V30 5964 O 570.995 2.94062 -4.87356 0
M  V30 5965 N 572.197 4.45151 -3.72587 0
M  V30 5966 H 574.962 0.453505 -2.96249 0
M  V30 5967 H 572.523 0.100157 -1.6159 0
M  V30 5968 H 574.515 2.97519 -2.74343 0
M  V30 5969 H 573.085 2.58723 -1.75446 0
M  V30 5970 H 572.305 1.13819 -3.77411 0
M  V30 5971 H 573.593 1.91039 -4.71574 0
M  V30 5972 H 572.991 4.68834 -3.16561 0
M  V30 5973 H 571.548 5.17744 -3.9596 0
M  V30 5974 N 574.981 1.5647 0.188427 0
M  V30 5975 C 576.392 1.70864 0.752494 0
M  V30 5976 C 576.743 0.692905 1.83557 0
M  V30 5977 O 575.868 -0.149307 2.15884 0
M  V30 5978 C 576.463 3.09789 1.37173 0
M  V30 5979 C 575.022 3.25925 1.88281 0
M  V30 5980 C 574.169 2.66817 0.755259 0
M  V30 5981 H 577.12 1.58657 -0.0367408 0
M  V30 5982 H 577.141 3.07489 2.24122 0
M  V30 5983 H 576.653 3.83693 0.583219 0
M  V30 5984 H 574.754 2.56948 2.6983 0
M  V30 5985 H 574.867 4.33498 2.04001 0
M  V30 5986 H 573.231 2.2617 1.17128 0
M  V30 5987 H 574.014 3.43294 -0.0211237 0
M  V30 5988 N 576.459 -0.456382 1.50847 0
M  V30 5989 C 577.369 -1.57805 1.73594 0
M  V30 5990 C 578.385 -1.62599 0.619476 0
M  V30 5991 O 579.561 -1.80195 0.899532 0
M  V30 5992 C 576.626 -2.93926 1.8387 0
M  V30 5993 C 575.687 -2.99402 3.07663 0
M  V30 5994 C 574.92 -4.29031 3.1744 0
M  V30 5995 O 575.143 -5.20358 2.33631 0
M  V30 5996 O 574.077 -4.40401 4.10281 0
M  V30 5997 H 577.903 -1.41531 2.68705 0
M  V30 5998 H 575.488 -0.637422 1.3512 0
M  V30 5999 H 577.37 -3.74747 1.92725 0
M  V30 6000 H 576.045 -3.10368 0.91944 0
M  V30 6001 H 574.952 -2.17606 3.043 0
M  V30 6002 H 576.285 -2.87901 3.99216 0
M  V30 6003 N 577.937 -1.40673 -0.710563 0
M  V30 6004 C 578.885 -1.41517 -1.84596 0
M  V30 6005 C 579.879 -0.295043 -1.66811 0
M  V30 6006 O 581.085 -0.466331 -1.73854 0
M  V30 6007 H 577.46 -0.442467 -0.608052 0
M  V30 6008 H 579.431 -2.37238 -1.80999 0
M  V30 6009 C 578.18 -1.29957 -3.225 0
M  V30 6010 H 577.503 -2.15429 -3.36794 0
M  V30 6011 H 578.943 -1.34608 -4.02066 0
M  V30 6012 C 577.402 -0.0103164 -3.36898 0
M  V30 6013 O 577.932 0.950707 -3.90288 0
M  V30 6014 N 576.138 0.0608409 -2.90536 0
M  V30 6015 H 575.685 -0.721943 -2.47277 0
M  V30 6016 H 575.643 0.92292 -3.00549 0
M  V30 6017 N 579.415 0.9433 -1.26252 0
M  V30 6018 C 580.363 2.06302 -1.07434 0
M  V30 6019 C 581.357 1.694 -0.00189471 0
M  V30 6020 O 582.563 1.79302 -0.158408 0
M  V30 6021 H 578.938 0.675453 -0.330556 0
M  V30 6022 H 580.909 2.19326 -2.02333 0
M  V30 6023 C 579.658 3.40125 -0.721817 0
M  V30 6024 H 578.981 3.68996 -1.5389 0
M  V30 6025 H 580.421 4.19295 -0.629922 0
M  V30 6026 C 578.88 3.31993 0.572902 0
M  V30 6027 O 579.41 3.67945 1.61182 0
M  V30 6028 N 577.616 2.85099 0.562748 0
M  V30 6029 H 577.163 2.5604 -0.283092 0
M  V30 6030 H 577.121 2.80041 1.42915 0
M  V30 6031 N 580.893 1.08022 1.14757 0
M  V30 6032 C 582.123 0.827646 1.89298 0
M  V30 6033 C 582.531 -0.623506 1.78631 0
M  V30 6034 O 581.874 -1.43991 1.14071 0
M  V30 6035 C 581.936 1.16553 3.40082 0
M  V30 6036 C 581.6 2.61866 3.74533 0
M  V30 6037 C 582.597 3.60116 3.74984 0
M  V30 6038 C 580.282 2.97619 4.04633 0
M  V30 6039 C 582.276 4.92151 4.05051 0
M  V30 6040 C 579.963 4.2985 4.34364 0
M  V30 6041 C 580.961 5.26926 4.34555 0
M  V30 6042 O 580.649 6.5678 4.63568 0
M  V30 6043 H 580.381 0.298396 0.606577 0
M  V30 6044 H 582.935 1.44187 1.46285 0
M  V30 6045 H 581.165 0.494296 3.83528 0
M  V30 6046 H 582.854 0.894407 3.95923 0
M  V30 6047 H 583.62 3.33837 3.51821 0
M  V30 6048 H 579.499 2.22702 4.03639 0
M  V30 6049 H 583.043 5.67915 4.05115 0
M  V30 6050 H 578.94 4.55879 4.56995 0
M  V30 6051 H 579.708 6.62035 4.81303 0
M  V30 6052 N 582.371 -1.3172 0.865308 0
M  V30 6053 C 583.318 -2.2863 0.315736 0
M  V30 6054 C 584.288 -1.55524 -0.583213 0
M  V30 6055 O 585.473 -1.83694 -0.51585 0
M  V30 6056 C 582.613 -3.41735 -0.480773 0
M  V30 6057 C 581.726 -4.297 0.445167 0
M  V30 6058 C 580.861 -5.29944 -0.365012 0
M  V30 6059 C 579.9 -6.09554 0.557651 0
M  V30 6060 N 579.037 -7.01768 -0.215994 0
M  V30 6061 H 583.877 -2.75026 1.14736 0
M  V30 6062 H 581.414 -1.35302 0.577209 0
M  V30 6063 H 583.372 -4.06045 -0.958306 0
M  V30 6064 H 582.002 -2.96461 -1.27714 0
M  V30 6065 H 581.054 -3.65875 1.04113 0
M  V30 6066 H 582.366 -4.85295 1.15284 0
M  V30 6067 H 581.52 -5.99908 -0.905255 0
M  V30 6068 H 580.259 -4.74994 -1.106 0
M  V30 6069 H 579.264 -5.38485 1.10969 0
M  V30 6070 H 580.489 -6.66591 1.29742 0
M  V30 6071 H 578.435 -6.49232 -0.939878 0
M  V30 6072 H 578.352 -7.54762 0.432431 0
M  V30 6073 H 579.62 -7.76002 -0.737618 0
M  V30 6074 N 583.85 -0.624285 -1.44708 0
M  V30 6075 C 585.077 -0.132919 -2.06473 0
M  V30 6076 C 585.493 1.18967 -1.46602 0
M  V30 6077 O 584.85 1.72824 -0.586341 0
M  V30 6078 C 584.901 -0.00465418 -3.615 0
M  V30 6079 O 584.622 -1.27494 -4.19138 0
M  V30 6080 C 586.123 0.516213 -4.40284 0
M  V30 6081 H 583.343 -0.0765201 -0.666623 0
M  V30 6082 H 585.887 -0.856751 -1.85688 0
M  V30 6083 H 584.042 0.669583 -3.8157 0
M  V30 6084 H 584.456 -1.11536 -5.12504 0
M  V30 6085 H 585.93 0.554994 -5.49203 0
M  V30 6086 H 586.407 1.5419 -4.11245 0
M  V30 6087 H 587.013 -0.124542 -4.25118 0
M  V30 6088 N 585.328 1.53329 -0.364422 0
M  V30 6089 C 586.556 2.05657 0.226424 0
M  V30 6090 C 586.971 1.23801 1.42544 0
M  V30 6091 O 586.328 0.27839 1.80364 0
M  V30 6092 C 586.379 3.56125 0.621056 0
M  V30 6093 O 586.1 4.34879 -0.530304 0
M  V30 6094 C 587.601 4.24706 1.27041 0
M  V30 6095 H 584.821 0.669806 0.0400056 0
M  V30 6096 H 587.365 1.97714 -0.522456 0
M  V30 6097 H 585.52 3.64223 1.31985 0
M  V30 6098 H 585.934 5.24073 -0.211546 0
M  V30 6099 H 587.408 5.3131 1.49711 0
M  V30 6100 H 587.885 3.78354 2.23036 0
M  V30 6101 H 588.491 4.20858 0.613079 0
M  V30 6102 N 586.806 0.0935595 1.57322 0
M  V30 6103 C 588.217 -0.435807 1.81542 0
M  V30 6104 C 588.568 -1.68263 1.00907 0
M  V30 6105 O 587.693 -2.15087 0.237983 0
M  V30 6106 C 588.288 -0.797436 3.29282 0
M  V30 6107 C 586.847 -1.27155 3.54272 0
M  V30 6108 C 585.994 -0.267455 2.76007 0
M  V30 6109 H 588.945 0.31902 1.5546 0
M  V30 6110 H 588.966 -1.6571 3.42521 0
M  V30 6111 H 588.478 0.110206 3.87943 0
M  V30 6112 H 586.579 -2.19696 3.00939 0
M  V30 6113 H 586.692 -1.23445 4.62923 0
M  V30 6114 H 585.056 -0.749282 2.43429 0
M  V30 6115 H 585.839 0.632839 3.37417 0
M  V30 6116 N 588.284 -1.56567 -0.180126 0
M  V30 6117 C 589.695 -1.7126 -0.743422 0
M  V30 6118 C 590.046 -0.70263 -1.83187 0
M  V30 6119 O 589.171 0.137856 -2.1596 0
M  V30 6120 C 589.766 -3.10512 -1.35528 0
M  V30 6121 C 588.325 -3.26919 -1.8655 0
M  V30 6122 C 587.472 -2.67213 -0.741099 0
M  V30 6123 H 590.423 -1.58636 0.0451543 0
M  V30 6124 H 590.444 -3.08673 -2.22489 0
M  V30 6125 H 589.956 -3.83997 -0.562862 0
M  V30 6126 H 588.057 -2.58376 -2.68464 0
M  V30 6127 H 588.17 -4.34574 -2.01699 0
M  V30 6128 H 586.534 -2.26788 -1.15927 0
M  V30 6129 H 587.317 -3.43277 0.0393291 0
M  V30 6130 N 589.762 0.448376 -1.51087 0
M  V30 6131 C 591.008 1.20049 -1.6345 0
M  V30 6132 C 591.341 1.91121 -0.344444 0
M  V30 6133 O 590.616 1.83125 0.655396 0
M  V30 6134 C 590.899 2.22624 -2.83038 0
M  V30 6135 C 590.752 1.55708 -4.21989 0
M  V30 6136 C 592.071 3.23718 -2.98152 0
M  V30 6137 H 589.19 0.435085 -0.59487 0
M  V30 6138 H 591.832 0.491183 -1.83541 0
M  V30 6139 H 589.982 2.83117 -2.66039 0
M  V30 6140 H 591.654 0.986367 -4.50631 0
M  V30 6141 H 589.897 0.859647 -4.25197 0
M  V30 6142 H 590.568 2.30357 -5.01637 0
M  V30 6143 H 593.044 2.73269 -3.13788 0
M  V30 6144 H 591.92 3.92795 -3.83411 0
M  V30 6145 H 592.181 3.89179 -2.09743 0
M  V30 6146 N 591.24 1.41047 0.703093 0
M  V30 6147 C 592.17 1.45067 1.82969 0
M  V30 6148 C 593.151 0.31016 1.67248 0
M  V30 6149 O 594.336 0.520548 1.87093 0
M  V30 6150 C 591.466 1.32478 3.2104 0
M  V30 6151 C 590.42 2.44262 3.51454 0
M  V30 6152 C 589.746 2.16742 4.88801 0
M  V30 6153 C 591.046 3.86606 3.51189 0
M  V30 6154 H 592.74 2.39353 1.79863 0
M  V30 6155 H 590.286 1.15206 0.863919 0
M  V30 6156 H 592.239 1.33904 3.99559 0
M  V30 6157 H 590.963 0.346735 3.24754 0
M  V30 6158 H 589.622 2.42107 2.75282 0
M  V30 6159 H 589.27 1.17299 4.89132 0
M  V30 6160 H 588.97 2.91643 5.10116 0
M  V30 6161 H 590.494 2.19872 5.69639 0
M  V30 6162 H 591.908 3.90517 4.19725 0
M  V30 6163 H 590.305 4.61128 3.84033 0
M  V30 6164 H 591.375 4.15296 2.50315 0
M  V30 6165 N 592.718 -0.936591 1.26751 0
M  V30 6166 C 593.995 -1.66094 1.03306 0
M  V30 6167 C 594.375 -2.06568 -0.435058 0
M  V30 6168 O 593.723 -1.79305 -1.41641 0
M  V30 6169 C 593.933 -2.86969 1.98619 0
M  V30 6170 C 595.281 -3.58516 2.27489 0
M  V30 6171 O 596.305 -2.97082 1.96522 0
M  V30 6172 O 595.164 -4.69181 2.80235 0
M  V30 6173 H 592.258 -0.727568 0.393158 0
M  V30 6174 H 594.804 -0.987914 1.3798 0
M  V30 6175 H 593.576 -2.53985 2.9767 0
M  V30 6176 H 593.199 -3.61996 1.64454 0
M  V30 6177 N 594.196 -1.08629 -1.14182 0
M  V30 6178 C 595.421 -0.83902 -1.89671 0
M  V30 6179 C 595.846 0.603332 -1.78161 0
M  V30 6180 O 595.204 1.42301 -1.12339 0
M  V30 6181 C 595.252 -1.26854 -3.37551 0
M  V30 6182 O 594.356 -0.42188 -4.10236 0
M  V30 6183 H 593.697 -0.304545 -0.590041 0
M  V30 6184 H 596.227 -1.4483 -1.44518 0
M  V30 6185 H 596.237 -1.25038 -3.88368 0
M  V30 6186 H 594.912 -2.31901 -3.45246 0
M  V30 6187 H 593.489 -0.503654 -3.69483 0
M  V30 6188 N 595.674 1.31259 -0.872281 0
M  V30 6189 C 596.951 1.91362 -0.404943 0
M  V30 6190 C 597.331 1.79362 1.11321 0
M  V30 6191 O 596.679 1.20277 1.94283 0
M  V30 6192 C 596.889 3.3749 -0.888893 0
M  V30 6193 C 598.237 4.14593 -0.916384 0
M  V30 6194 O 599.261 3.46282 -0.834701 0
M  V30 6195 O 598.12 5.3661 -1.03498 0
M  V30 6196 H 595.214 0.818016 -0.121569 0
M  V30 6197 H 597.76 1.39912 -0.960346 0
M  V30 6198 H 596.532 3.40249 -1.93251 0
M  V30 6199 H 596.155 3.96375 -0.311932 0
M  V30 6200 N 597.152 0.631951 1.44375 0
M  V30 6201 C 598.4 0.136497 2.01639 0
M  V30 6202 C 598.721 -1.24637 1.49969 0
M  V30 6203 O 597.991 -1.82827 0.70363 0
M  V30 6204 H 596.571 0.0474703 0.74549 0
M  V30 6205 H 599.233 0.818837 1.76865 0
M  V30 6206 H 598.329 0.104817 3.11924 0
M  V30 6207 N 598.631 -1.53133 0.372548 0
M  V30 6208 C 599.856 -2.0625 -0.218098 0
M  V30 6209 C 600.281 -1.24375 -1.41111 0
M  V30 6210 O 599.639 -0.264554 -1.79359 0
M  V30 6211 C 599.687 -3.55858 -0.582876 0
M  V30 6212 O 598.791 -3.76667 -1.67917 0
M  V30 6213 H 598.132 -0.663317 -0.030104 0
M  V30 6214 H 600.662 -1.97477 0.535169 0
M  V30 6215 H 600.672 -3.99007 -0.851925 0
M  V30 6216 H 599.347 -4.14892 0.289428 0
M  V30 6217 H 597.924 -3.45413 -1.40513 0
M  V30 6218 N 600.109 -0.101901 -1.5727 0
M  V30 6219 C 601.356 0.560197 -1.94597 0
M  V30 6220 C 601.684 1.67767 -0.984101 0
M  V30 6221 O 600.939 1.95699 -0.00489193 0
M  V30 6222 C 601.238 1.14898 -3.38427 0
M  V30 6223 C 600.904 0.154613 -4.50635 0
M  V30 6224 C 599.566 -0.118861 -4.81053 0
M  V30 6225 C 601.918 -0.523979 -5.18559 0
M  V30 6226 C 599.246 -1.0775 -5.76721 0
M  V30 6227 C 601.598 -1.47114 -6.15256 0
M  V30 6228 C 600.262 -1.75278 -6.44076 0
M  V30 6229 H 599.532 0.204991 -0.712081 0
M  V30 6230 H 602.179 -0.17918 -1.9066 0
M  V30 6231 H 600.484 1.96476 -3.38976 0
M  V30 6232 H 602.181 1.66909 -3.64613 0
M  V30 6233 H 598.771 0.377948 -4.2693 0
M  V30 6234 H 602.955 -0.325851 -4.95229 0
M  V30 6235 H 598.211 -1.30263 -5.97362 0
M  V30 6236 H 602.385 -2.00274 -6.66981 0
M  V30 6237 H 600.012 -2.49717 -7.18015 0
M  V30 6238 N 601.587 1.56661 0.17182 0
M  V30 6239 C 602.834 1.81965 0.888529 0
M  V30 6240 C 603.162 0.6789 1.82267 0
M  V30 6241 O 602.417 -0.333875 1.92831 0
M  V30 6242 C 602.716 3.13435 1.71736 0
M  V30 6243 C 602.382 4.41159 0.932184 0
M  V30 6244 C 601.044 4.75851 0.715481 0
M  V30 6245 C 603.396 5.19803 0.381387 0
M  V30 6246 C 600.724 5.86666 -0.063126 0
M  V30 6247 C 603.076 6.31433 -0.384129 0
M  V30 6248 C 601.74 6.64692 -0.611637 0
M  V30 6249 H 601.01 0.665859 0.325136 0
M  V30 6250 H 603.657 1.90884 0.153495 0
M  V30 6251 H 601.962 2.99857 2.52177 0
M  V30 6252 H 603.659 3.30224 2.27493 0
M  V30 6253 H 600.249 4.13947 1.11112 0
M  V30 6254 H 604.433 4.93396 0.536148 0
M  V30 6255 H 599.689 6.10892 -0.249136 0
M  V30 6256 H 603.863 6.91577 -0.818185 0
M  V30 6257 H 601.49 7.50398 -1.21684 0
M  V30 6258 N 603.065 -0.440357 1.51323 0
M  V30 6259 C 603.995 -1.54174 1.75364 0
M  V30 6260 C 604.976 -1.59039 0.603375 0
M  V30 6261 O 606.161 -1.74815 0.845774 0
M  V30 6262 C 603.291 -2.92277 1.87593 0
M  V30 6263 C 602.245 -3.02274 3.03009 0
M  V30 6264 C 601.571 -4.42327 3.00418 0
M  V30 6265 C 602.871 -2.76634 4.43024 0
M  V30 6266 H 604.565 -1.34307 2.67585 0
M  V30 6267 H 602.111 -0.644678 1.28763 0
M  V30 6268 H 604.064 -3.69284 2.02995 0
M  V30 6269 H 602.788 -3.13369 0.920179 0
M  V30 6270 H 601.447 -2.27706 2.87307 0
M  V30 6271 H 601.095 -4.60382 2.02626 0
M  V30 6272 H 600.795 -4.49946 3.77918 0
M  V30 6273 H 602.319 -5.21312 3.17909 0
M  V30 6274 H 603.733 -3.43376 4.59093 0
M  V30 6275 H 602.13 -2.95666 5.22208 0
M  V30 6276 H 603.2 -1.72262 4.5327 0
M  V30 6277 N 604.543 -1.41418 -0.695603 0
M  V30 6278 C 605.773 -1.43921 -1.48224 0
M  V30 6279 C 606.181 -0.0428855 -1.89151 0
M  V30 6280 O 605.524 0.948138 -1.5734 0
M  V30 6281 C 605.586 -2.28466 -2.77567 0
M  V30 6282 C 605.25 -3.76629 -2.58844 0
M  V30 6283 C 606.247 -4.6879 -2.24793 0
M  V30 6284 C 603.932 -4.2067 -2.74485 0
M  V30 6285 C 605.926 -6.02981 -2.06622 0
M  V30 6286 C 603.613 -5.54926 -2.55931 0
M  V30 6287 C 604.611 -6.45897 -2.2205 0
M  V30 6288 O 604.299 -7.77675 -2.03657 0
M  V30 6289 H 604.031 -0.492252 -0.463318 0
M  V30 6290 H 606.585 -1.86347 -0.863952 0
M  V30 6291 H 604.815 -1.80853 -3.41802 0
M  V30 6292 H 606.504 -2.2267 -3.39371 0
M  V30 6293 H 607.27 -4.36055 -2.12323 0
M  V30 6294 H 603.149 -3.50167 -2.9984 0
M  V30 6295 H 606.693 -6.73951 -1.80099 0
M  V30 6296 H 602.59 -5.8724 -2.67991 0
M  V30 6297 H 603.358 -7.88819 -2.1842 0
M  V30 6298 N 606.021 0.929856 -1.27246 0
M  V30 6299 C 607.246 1.71674 -1.16374 0
M  V30 6300 C 607.671 1.86064 0.276024 0
M  V30 6301 O 607.029 1.3591 1.19992 0
M  V30 6302 C 607.077 3.09526 -1.85003 0
M  V30 6303 O 606.181 3.96142 -1.14653 0
M  V30 6304 H 605.522 0.52629 -0.404863 0
M  V30 6305 H 608.052 1.16381 -1.68276 0
M  V30 6306 H 608.062 3.59852 -1.92276 0
M  V30 6307 H 606.737 2.98369 -2.89739 0
M  V30 6308 H 605.314 3.54584 -1.15433 0
M  V30 6309 N 607.499 1.09233 1.13605 0
M  V30 6310 C 608.446 0.729921 2.18954 0
M  V30 6311 C 609.416 -0.287916 1.63586 0
M  V30 6312 O 610.601 -0.170003 1.90041 0
M  V30 6313 C 607.741 0.154489 3.44754 0
M  V30 6314 C 606.854 1.22613 4.14234 0
M  V30 6315 C 605.989 0.613657 5.27644 0
M  V30 6316 C 605.028 1.66674 5.8897 0
M  V30 6317 N 604.165 1.07545 6.93814 0
M  V30 6318 H 609.005 1.63257 2.49302 0
M  V30 6319 H 606.542 0.815693 1.22413 0
M  V30 6320 H 608.5 -0.196923 4.16735 0
M  V30 6321 H 607.13 -0.711433 3.14863 0
M  V30 6322 H 606.182 1.69485 3.40557 0
M  V30 6323 H 607.494 2.0238 4.55899 0
M  V30 6324 H 606.648 0.210976 6.06333 0
M  V30 6325 H 605.387 -0.215584 4.87223 0
M  V30 6326 H 604.392 2.07899 5.08978 0
M  V30 6327 H 605.617 2.49861 6.31464 0
M  V30 6328 H 603.563 0.267451 6.55455 0
M  V30 6329 H 603.48 1.81011 7.3401 0
M  V30 6330 H 604.748 0.698906 7.7636 0
M  V30 6331 N 608.977 -1.30795 0.87923 0
M  V30 6332 C 609.907 -2.30742 0.357796 0
M  V30 6333 C 610.888 -1.60747 -0.556283 0
M  V30 6334 O 612.073 -1.88393 -0.47135 0
M  V30 6335 C 609.203 -3.44583 -0.433555 0
M  V30 6336 C 608.157 -4.26235 0.388251 0
M  V30 6337 C 607.483 -5.32073 -0.529352 0
M  V30 6338 C 608.783 -4.96303 1.62729 0
M  V30 6339 H 610.477 -2.74605 1.19299 0
M  V30 6340 H 608.023 -1.32017 0.575104 0
M  V30 6341 H 609.976 -4.13563 -0.808934 0
M  V30 6342 H 608.7 -2.99511 -1.30234 0
M  V30 6343 H 607.359 -3.58936 0.745695 0
M  V30 6344 H 607.007 -4.83249 -1.39569 0
M  V30 6345 H 606.707 -5.87598 0.0166741 0
M  V30 6346 H 608.231 -6.0391 -0.901373 0
M  V30 6347 H 609.645 -5.5783 1.32283 0
M  V30 6348 H 608.042 -5.61666 2.11309 0
M  V30 6349 H 609.112 -4.22758 2.37494 0
M  V30 6350 N 610.455 -0.639598 -1.44038 0
M  V30 6351 C 611.683 -0.154811 -2.0632 0
M  V30 6352 C 612.098 1.17406 -1.47856 0
M  V30 6353 O 611.455 1.72193 -0.604638 0
M  V30 6354 C 611.506 -0.0429958 -3.61474 0
M  V30 6355 O 611.227 -1.31932 -4.17763 0
M  V30 6356 C 612.728 0.469486 -4.40807 0
M  V30 6357 H 609.948 -0.0835862 -0.665773 0
M  V30 6358 H 612.492 -0.876397 -1.84769 0
M  V30 6359 H 610.647 0.629075 -3.82258 0
M  V30 6360 H 611.061 -1.16965 -5.11292 0
M  V30 6361 H 612.535 0.496712 -5.49761 0
M  V30 6362 H 613.012 1.49819 -4.12857 0
M  V30 6363 H 613.618 -0.169624 -4.24962 0
M  V30 6364 N 611.933 1.52934 -0.380664 0
M  V30 6365 C 613.179 2.01765 0.20458 0
M  V30 6366 C 613.512 1.26696 1.47179 0
M  V30 6367 O 612.787 0.364936 1.91046 0
M  V30 6368 C 613.07 3.56869 0.481269 0
M  V30 6369 C 612.923 4.42617 -0.800629 0
M  V30 6370 C 614.242 4.2121 1.27554 0
M  V30 6371 H 611.361 0.733388 0.0728803 0
M  V30 6372 H 614.003 1.83068 -0.50853 0
M  V30 6373 H 612.153 3.72932 1.08875 0
M  V30 6374 H 613.825 4.38323 -1.43773 0
M  V30 6375 H 612.068 4.09977 -1.4178 0
M  V30 6376 H 612.739 5.49134 -0.561791 0
M  V30 6377 H 615.215 4.09072 0.761514 0
M  V30 6378 H 614.091 5.29732 1.43788 0
M  V30 6379 H 614.352 3.78269 2.28833 0
M  V30 6380 N 613.412 0.11024 1.57214 0
M  V30 6381 C 614.689 -0.592956 1.86396 0
M  V30 6382 C 615.069 -1.85379 1.00985 0
M  V30 6383 O 614.417 -2.28337 0.0863592 0
M  V30 6384 C 614.627 -0.893816 3.3736 0
M  V30 6385 C 615.975 -1.25069 4.05762 0
M  V30 6386 O 616.999 -0.984356 3.42329 0
M  V30 6387 O 615.858 -1.75017 5.17718 0
M  V30 6388 H 612.952 -0.29828 0.771335 0
M  V30 6389 H 615.498 0.144083 1.69087 0
M  V30 6390 H 614.27 2.6031e-05 3.913 0
M  V30 6391 H 613.893 -1.68631 3.60068 0
M  V30 6392 N 614.89 -1.56749 -0.16351 0
M  V30 6393 C 615.837 -1.97011 -1.2023 0
M  V30 6394 C 616.807 -0.835186 -1.43575 0
M  V30 6395 O 617.992 -1.09594 -1.56185 0
M  V30 6396 C 615.132 -2.34186 -2.53478 0
M  V30 6397 C 614.245 -3.60893 -2.37446 0
M  V30 6398 C 613.38 -3.87245 -3.63614 0
M  V30 6399 C 612.419 -5.07274 -3.42548 0
M  V30 6400 N 611.556 -5.29719 -4.60806 0
M  V30 6401 H 616.396 -2.85562 -0.851958 0
M  V30 6402 H 613.933 -1.41292 -0.409257 0
M  V30 6403 H 615.891 -2.53764 -3.31149 0
M  V30 6404 H 614.521 -1.48736 -2.86492 0
M  V30 6405 H 613.573 -3.49185 -1.50911 0
M  V30 6406 H 614.885 -4.48722 -2.1783 0
M  V30 6407 H 614.039 -4.07232 -4.49719 0
M  V30 6408 H 612.778 -2.97806 -3.86216 0
M  V30 6409 H 611.783 -4.87177 -2.5483 0
M  V30 6410 H 613.008 -5.98251 -3.2136 0
M  V30 6411 H 610.954 -4.43233 -4.83612 0
M  V30 6412 H 610.871 -6.11786 -4.44132 0
M  V30 6413 H 612.139 -5.54192 -5.48171 0
M  V30 6414 N 616.368 0.432326 -1.51554 0
M  V30 6415 C 617.593 1.20824 -1.68571 0
M  V30 6416 C 618.018 1.84126 -0.384596 0
M  V30 6417 O 617.376 1.69025 0.655751 0
M  V30 6418 C 617.424 2.26429 -2.80646 0
M  V30 6419 O 616.528 3.32032 -2.44598 0
M  V30 6420 H 615.869 0.353765 -0.561913 0
M  V30 6421 H 618.399 0.509916 -1.98144 0
M  V30 6422 H 618.409 2.71133 -3.04878 0
M  V30 6423 H 617.084 1.79733 -3.75058 0
M  V30 6424 H 615.661 2.92769 -2.30956 0
M  V30 6425 N 617.846 1.41785 0.688094 0
M  V30 6426 C 619.262 1.24419 0.999608 0
M  V30 6427 C 619.462 0.138868 2.01021 0
M  V30 6428 O 618.518 -0.494283 2.47615 0
M  V30 6429 C 619.831 2.59625 1.51709 0
M  V30 6430 C 621.379 2.66869 1.63554 0
M  V30 6431 C 621.854 4.0241 2.18702 0
M  V30 6432 N 623.345 4.04295 2.26053 0
M  V30 6433 C 624.08 5.05977 2.69768 0
M  V30 6434 N 623.576 6.18047 3.13033 0
M  V30 6435 N 625.369 4.93336 2.69398 0
M  V30 6436 H 617.52 2.12392 0.0187427 0
M  V30 6437 H 619.783 0.945347 0.0708673 0
M  V30 6438 H 619.489 3.41297 0.849059 0
M  V30 6439 H 619.363 2.82628 2.49803 0
M  V30 6440 H 621.75 1.8555 2.29467 0
M  V30 6441 H 621.831 2.47668 0.639857 0
M  V30 6442 H 621.475 4.8418 1.53402 0
M  V30 6443 H 621.405 4.18955 3.19037 0
M  V30 6444 H 623.896 3.23383 1.9553 0
M  V30 6445 H 624.209 6.91498 3.45038 0
M  V30 6446 H 622.554 6.21572 3.10923 0
M  V30 6447 H 625.745 4.04865 2.34952 0
M  V30 6448 H 625.918 5.72717 3.03148 0
M  V30 6449 N 619.324 -0.923095 1.27737 0
M  V30 6450 C 620.57 -1.67409 1.15524 0
M  V30 6451 C 620.925 -1.90124 -0.295072 0
M  V30 6452 O 620.218 -1.48382 -1.21216 0
M  V30 6453 C 620.412 -3.04125 1.8773 0
M  V30 6454 C 620.241 -2.94752 3.39634 0
M  V30 6455 C 619.011 -2.96783 4.0896 0
M  V30 6456 C 621.209 -2.73524 4.35533 0
M  V30 6457 N 619.191 -2.779 5.47398 0
M  V30 6458 C 620.562 -2.63391 5.61271 0
M  V30 6459 C 622.617 -2.58447 4.2557 0
M  V30 6460 C 621.32 -2.3972 6.78179 0
M  V30 6461 C 623.346 -2.36154 5.42204 0
M  V30 6462 C 622.708 -2.26768 6.669 0
M  V30 6463 H 618.807 -0.619196 0.477619 0
M  V30 6464 H 621.391 -1.09094 1.61266 0
M  V30 6465 H 619.562 -3.60545 1.44436 0
M  V30 6466 H 621.294 -3.6819 1.67982 0
M  V30 6467 H 618.049 -3.07186 3.60463 0
M  V30 6468 H 618.473 -2.71576 6.20141 0
M  V30 6469 H 623.115 -2.6446 3.2988 0
M  V30 6470 H 620.833 -2.32447 7.73947 0
M  V30 6471 H 624.419 -2.25367 5.36378 0
M  V30 6472 H 623.299 -2.09751 7.55628 0
M  V30 6473 N 620.802 -1.09834 -1.13024 0
M  V30 6474 C 621.734 -0.699379 -2.18269 0
M  V30 6475 C 622.747 0.260841 -1.60697 0
M  V30 6476 O 623.936 0.0462538 -1.7844 0
M  V30 6477 C 621.036 -0.0104537 -3.38898 0
M  V30 6478 C 620.209 -0.993275 -4.25973 0
M  V30 6479 C 619.268 -0.336982 -5.2512 0
M  V30 6480 O 618.294 -0.985892 -5.60597 0
M  V30 6481 N 619.496 0.90716 -5.73368 0
M  V30 6482 H 622.261 -1.60486 -2.5311 0
M  V30 6483 H 619.822 -0.986337 -1.28386 0
M  V30 6484 H 621.814 0.43991 -4.02302 0
M  V30 6485 H 620.384 0.797335 -3.0226 0
M  V30 6486 H 619.604 -1.62208 -3.5928 0
M  V30 6487 H 620.892 -1.65876 -4.81002 0
M  V30 6488 H 620.29 1.45384 -5.46699 0
M  V30 6489 H 618.847 1.30077 -6.38689 0
M  V30 6490 N 622.28 1.30327 -0.886154 0
M  V30 6491 C 623.212 2.27079 -0.311072 0
M  V30 6492 C 624.225 1.53758 0.53502 0
M  V30 6493 O 625.414 1.74947 0.354378 0
M  V30 6494 C 622.514 3.33965 0.576228 0
M  V30 6495 C 621.687 4.36735 -0.241064 0
M  V30 6496 C 620.746 5.23028 0.576916 0
M  V30 6497 O 619.772 5.692 -0.000802231 0
M  V30 6498 N 620.974 5.49016 1.88579 0
M  V30 6499 H 623.739 2.77065 -1.14259 0
M  V30 6500 H 621.3 1.43519 -0.749258 0
M  V30 6501 H 623.292 3.88618 1.12953 0
M  V30 6502 H 621.862 2.839 1.30842 0
M  V30 6503 H 621.082 3.81932 -0.975805 0
M  V30 6504 H 622.37 5.02451 -0.801272 0
M  V30 6505 H 621.768 5.13288 2.37806 0
M  V30 6506 H 620.325 6.06539 2.38651 0
M  V30 6507 N 623.758 0.647228 1.43697 0
M  V30 6508 C 625.006 0.157876 2.01482 0
M  V30 6509 C 625.327 -1.23039 1.51282 0
M  V30 6510 O 624.597 -1.82071 0.722982 0
M  V30 6511 H 623.177 0.0553745 0.744945 0
M  V30 6512 H 625.839 0.83755 1.75986 0
M  V30 6513 H 624.935 0.137895 3.11795 0
M  V30 6514 N 625.236 -1.5273 0.388769 0
M  V30 6515 C 626.184 -2.27975 -0.461527 0
M  V30 6516 C 627.178 -1.31854 -1.06352 0
M  V30 6517 O 628.384 -1.49394 -1.00406 0
M  V30 6518 H 624.759 -0.733088 -0.16759 0
M  V30 6519 H 626.73 -2.97765 0.194579 0
M  V30 6520 C 625.479 -3.09881 -1.577 0
M  V30 6521 H 624.802 -3.83701 -1.12309 0
M  V30 6522 H 626.242 -3.6567 -2.14619 0
M  V30 6523 C 624.701 -2.22159 -2.53272 0
M  V30 6524 O 625.231 -1.84802 -3.56667 0
M  V30 6525 N 623.437 -1.8633 -2.23001 0
M  V30 6526 H 622.984 -2.16909 -1.38954 0
M  V30 6527 H 622.942 -1.27927 -2.87197 0
M  V30 6528 N 626.714 -0.118576 -1.57153 0
M  V30 6529 C 627.96 0.540326 -1.95469 0
M  V30 6530 C 628.293 1.66356 -1.00196 0
M  V30 6531 O 627.568 1.94461 -0.039104 0
M  V30 6532 C 627.851 1.07342 -3.43729 0
M  V30 6533 C 627.704 -0.0463732 -4.49776 0
M  V30 6534 C 629.023 1.96442 -3.93826 0
M  V30 6535 H 626.142 0.19494 -0.710751 0
M  V30 6536 H 628.784 -0.19405 -1.89006 0
M  V30 6537 H 626.934 1.69925 -3.49368 0
M  V30 6538 H 628.606 -0.681648 -4.56236 0
M  V30 6539 H 626.849 -0.709574 -4.27957 0
M  V30 6540 H 627.52 0.367856 -5.50773 0
M  V30 6541 H 629.996 1.43731 -3.90488 0
M  V30 6542 H 628.872 2.3066 -4.98084 0
M  V30 6543 H 629.133 2.89077 -3.34495 0
M  V30 6544 N 628.193 1.56834 0.155195 0
M  V30 6545 C 629.44 1.82898 0.869179 0
M  V30 6546 C 629.768 0.698194 1.81537 0
M  V30 6547 O 629.023 -0.313404 1.93174 0
M  V30 6548 C 629.322 3.15239 1.68402 0
M  V30 6549 C 628.988 4.42123 0.885341 0
M  V30 6550 C 627.65 4.76583 0.664971 0
M  V30 6551 C 630.002 5.20178 0.326234 0
M  V30 6552 C 627.33 5.86566 -0.125346 0
M  V30 6553 C 629.682 6.3099 -0.45108 0
M  V30 6554 C 628.346 6.64006 -0.682102 0
M  V30 6555 H 627.616 0.66927 0.318055 0
M  V30 6556 H 630.263 1.91036 0.133241 0
M  V30 6557 H 628.568 3.02515 2.48982 0
M  V30 6558 H 630.265 3.32618 2.23978 0
M  V30 6559 H 626.855 4.15102 1.06716 0
M  V30 6560 H 631.039 4.93936 0.483787 0
M  V30 6561 H 626.295 6.10594 -0.313915 0
M  V30 6562 H 630.469 6.9067 -0.89149 0
M  V30 6563 H 628.096 7.49065 -1.29636 0
M  V30 6564 N 629.671 -0.424282 1.51781 0
M  V30 6565 C 630.896 -1.19928 1.6921 0
M  V30 6566 C 631.321 -1.8392 0.394355 0
M  V30 6567 O 630.679 -1.69371 -0.646778 0
M  V30 6568 C 630.727 -2.24937 2.81843 0
M  V30 6569 O 629.831 -3.3073 2.46356 0
M  V30 6570 H 629.172 -0.35078 0.563781 0
M  V30 6571 H 631.702 -0.499401 1.98412 0
M  V30 6572 H 631.712 -2.69512 3.06312 0
M  V30 6573 H 630.387 -1.77742 3.76006 0
M  V30 6574 H 628.964 -2.9154 2.32505 0
M  V30 6575 N 631.149 -1.42148 -0.680565 0
M  V30 6576 C 632.389 -1.4379 -1.45271 0
M  V30 6577 C 632.753 -0.0504426 -1.91934 0
M  V30 6578 O 633.954 0.0583916 -2.68737 0
M  V30 6579 C 632.225 -2.42904 -2.62168 0
M  V30 6580 S 633.784 -2.63201 -3.51099 0
M  V30 6581 H 630.602 -0.509185 -0.496237 0
M  V30 6582 H 633.204 -1.78706 -0.792744 0
M  V30 6583 H 631.908 -3.4249 -2.26116 0
M  V30 6584 H 631.439 -2.09394 -3.33043 0
M  V30 6585 H 633.454 -1.91068 -4.57938 0
M  V30 6586 N 632.627 0.916307 -1.28225 0
M  V30 6587 C 633.852 1.7043 -1.18188 0
M  V30 6588 C 634.277 1.86346 0.256274 0
M  V30 6589 O 633.635 1.37175 1.18544 0
M  V30 6590 C 633.683 3.07546 -1.88275 0
M  V30 6591 O 632.787 3.94904 -1.18848 0
M  V30 6592 H 632.128 0.521967 -0.410423 0
M  V30 6593 H 634.658 1.14589 -1.69501 0
M  V30 6594 H 634.668 3.57793 -1.96082 0
M  V30 6595 H 633.343 2.95279 -2.92887 0
M  V30 6596 H 631.92 3.53339 -1.19187 0
M  V30 6597 N 634.105 1.10431 1.1244 0
M  V30 6598 C 635.351 0.847972 1.84221 0
M  V30 6599 C 635.684 -0.624903 1.83871 0
M  V30 6600 O 634.959 -1.46074 1.28423 0
M  V30 6601 C 635.242 1.39695 3.319 0
M  V30 6602 C 635.095 2.93668 3.40704 0
M  V30 6603 C 636.414 1.03924 4.27654 0
M  V30 6604 H 633.533 0.309502 0.668863 0
M  V30 6605 H 636.175 1.36745 1.31912 0
M  V30 6606 H 634.325 0.955095 3.76577 0
M  V30 6607 H 635.997 3.46379 3.04662 0
M  V30 6608 H 634.24 3.30272 2.81252 0
M  V30 6609 H 634.911 3.27162 4.446 0
M  V30 6610 H 637.387 1.42049 3.91102 0
M  V30 6611 H 636.263 1.45027 5.29394 0
M  V30 6612 H 636.524 -0.051336 4.4207 0
M  V30 6613 N 635.583 -1.29855 0.893053 0
M  V30 6614 C 636.516 -2.26079 0.3104 0
M  V30 6615 C 637.494 -1.52145 -0.573644 0
M  V30 6616 O 638.678 -1.8113 -0.521937 0
M  V30 6617 C 635.805 -3.34069 -0.558179 0
M  V30 6618 C 634.851 -4.25721 0.257638 0
M  V30 6619 S 635.684 -5.09409 1.65114 0
M  V30 6620 C 636.84 -6.20903 0.789307 0
M  V30 6621 H 637.073 -2.75151 1.12602 0
M  V30 6622 H 634.606 -1.37975 0.692978 0
M  V30 6623 H 636.564 -3.9675 -1.05355 0
M  V30 6624 H 635.225 -2.83705 -1.34797 0
M  V30 6625 H 634.418 -5.02366 -0.405562 0
M  V30 6626 H 634.02 -3.67656 0.685917 0
M  V30 6627 H 636.312 -6.77499 0.00978451 0
M  V30 6628 H 637.255 -6.91426 1.52762 0
M  V30 6629 H 637.663 -5.63435 0.346634 0
M  V30 6630 N 637.061 -0.65484 -1.43351 0
M  V30 6631 C 638.011 0.0581325 -2.27926 0
M  V30 6632 C 638.995 0.793188 -1.3999 0
M  V30 6633 O 640.187 0.675387 -1.63608 0
M  V30 6634 C 637.316 1.02272 -3.27712 0
M  V30 6635 C 636.402 0.286048 -4.23134 0
M  V30 6636 N 636.793 -0.698298 -5.00957 0
M  V30 6637 C 635.091 0.527272 -4.42872 0
M  V30 6638 C 635.792 -1.1357 -5.70506 0
M  V30 6639 N 634.768 -0.469631 -5.41568 0
M  V30 6640 H 638.57 -0.697182 -2.85511 0
M  V30 6641 H 636.084 -0.482252 -1.55074 0
M  V30 6642 H 638.081 1.5483 -3.87083 0
M  V30 6643 H 636.741 1.77807 -2.71688 0
M  V30 6644 H 637.752 -1.07708 -5.06576 0
M  V30 6645 H 634.429 1.26367 -3.97916 0
M  V30 6646 H 635.819 -1.95027 -6.42973 0
M  V30 6647 N 638.539 1.52521 -0.396863 0
M  V30 6648 C 639.449 2.30403 0.44178 0
M  V30 6649 C 640.465 1.37625 1.06468 0
M  V30 6650 O 641.641 1.70697 1.06886 0
M  V30 6651 C 638.706 3.1013 1.54986 0
M  V30 6652 C 637.767 4.18628 0.951279 0
M  V30 6653 C 637 4.94543 2.00655 0
M  V30 6654 O 637.223 4.70629 3.22281 0
M  V30 6655 O 636.157 5.797 1.61962 0
M  V30 6656 H 639.983 3.03087 -0.192892 0
M  V30 6657 H 637.568 1.48537 -0.16038 0
M  V30 6658 H 639.45 3.59816 2.19341 0
M  V30 6659 H 638.125 2.40251 2.16935 0
M  V30 6660 H 637.032 3.73119 0.270773 0
M  V30 6661 H 638.365 4.90763 0.375887 0
M  V30 6662 N 640.017 0.126909 1.57088 0
M  V30 6663 C 640.98 -0.806097 2.14557 0
M  V30 6664 C 641.98 -1.18918 1.08236 0
M  V30 6665 O 643.17 -1.11339 1.33975 0
M  V30 6666 C 640.302 -2.09116 2.69227 0
M  V30 6667 H 641.495 -0.306522 2.98329 0
M  V30 6668 H 639.048 -0.122393 1.5582 0
M  V30 6669 H 639.783 -2.63486 1.89065 0
M  V30 6670 H 639.568 -1.82588 3.46993 0
M  V30 6671 H 641.058 -2.75794 3.13572 0
M  V30 6672 N 641.495 -1.56914 -0.146875 0
M  V30 6673 C 642.425 -2.01308 -1.1831 0
M  V30 6674 C 643.406 -0.892664 -1.44795 0
M  V30 6675 O 644.591 -1.16048 -1.55713 0
M  V30 6676 C 641.721 -2.3938 -2.51624 0
M  V30 6677 C 640.675 -3.54608 -2.3966 0
M  V30 6678 C 640.001 -3.78493 -3.77686 0
M  V30 6679 C 641.301 -4.87269 -1.88058 0
M  V30 6680 H 642.995 -2.88123 -0.813964 0
M  V30 6681 H 640.541 -1.38615 -0.3901 0
M  V30 6682 H 642.494 -2.69037 -3.24341 0
M  V30 6683 H 641.218 -1.49502 -2.90373 0
M  V30 6684 H 639.877 -3.25116 -1.69396 0
M  V30 6685 H 639.525 -2.85866 -4.13871 0
M  V30 6686 H 639.225 -4.56039 -3.70543 0
M  V30 6687 H 640.749 -4.10576 -4.51951 0
M  V30 6688 H 642.163 -5.15644 -2.50568 0
M  V30 6689 H 640.56 -5.68622 -1.91805 0
M  V30 6690 H 641.63 -4.77634 -0.836277 0
M  V30 6691 N 642.974 0.416227 -1.52004 0
M  V30 6692 C 643.924 1.50558 -1.7122 0
M  V30 6693 C 644.908 1.50613 -0.56609 0
M  V30 6694 O 646.1 1.56709 -0.822874 0
M  V30 6695 C 643.229 2.88556 -1.85984 0
M  V30 6696 C 642.315 2.93177 -3.06445 0
M  V30 6697 N 642.706 2.67505 -4.29272 0
M  V30 6698 C 641.004 3.24343 -3.06133 0
M  V30 6699 C 641.705 2.78511 -5.10692 0
M  V30 6700 N 640.681 3.11087 -4.45787 0
M  V30 6701 H 644.483 1.29494 -2.63834 0
M  V30 6702 H 641.997 0.62384 -1.4994 0
M  V30 6703 H 643.994 3.66954 -1.97865 0
M  V30 6704 H 642.654 3.10624 -0.945654 0
M  V30 6705 H 643.665 2.42033 -4.57865 0
M  V30 6706 H 640.342 3.52051 -2.24425 0
M  V30 6707 H 641.732 2.62438 -6.18527 0
M  V30 6708 N 644.452 1.42507 0.673017 0
M  V30 6709 C 645.4 1.46362 1.80779 0
M  V30 6710 C 646.394 0.339166 1.6597 0
M  V30 6711 O 647.6 0.512262 1.72557 0
M  V30 6712 H 643.975 0.458433 0.596107 0
M  V30 6713 H 645.946 2.41953 1.74646 0
M  V30 6714 C 644.695 1.38462 3.18941 0
M  V30 6715 H 644.018 2.24283 3.30964 0
M  V30 6716 H 645.458 1.45221 3.98355 0
M  V30 6717 C 643.917 0.0996354 3.36753 0
M  V30 6718 O 644.447 -0.846894 3.92671 0
M  V30 6719 N 642.653 0.016211 2.90595 0
M  V30 6720 H 642.2 0.78725 2.45276 0
M  V30 6721 H 642.158 -0.84291 3.0289 0
M  V30 6722 N 645.93 -0.909495 1.28709 0
M  V30 6723 C 646.88 -1.9991 1.09636 0
M  V30 6724 C 647.864 -1.60889 0.01872 0
M  V30 6725 O 649.056 -1.75374 0.239338 0
M  V30 6726 C 646.185 -3.34675 0.764702 0
M  V30 6727 C 645.271 -3.80085 1.8814 0
M  V30 6728 N 645.662 -3.97824 3.12361 0
M  V30 6729 C 643.96 -4.09278 1.77221 0
M  V30 6730 C 644.661 -4.35928 3.85151 0
M  V30 6731 N 643.637 -4.44426 3.13028 0
M  V30 6732 H 647.439 -2.11681 2.03883 0
M  V30 6733 H 644.953 -1.09763 1.1969 0
M  V30 6734 H 646.95 -4.12426 0.609132 0
M  V30 6735 H 645.61 -3.24255 -0.169952 0
M  V30 6736 H 646.621 -3.83626 3.47925 0
M  V30 6737 H 643.298 -4.0747 0.909621 0
M  V30 6738 H 644.688 -4.57581 4.92006 0
M  V30 6739 N 647.408 -1.11026 -1.11852 0
M  V30 6740 C 648.638 -0.877544 -1.87037 0
M  V30 6741 C 649.046 0.575925 -1.80221 0
M  V30 6742 O 648.389 1.40916 -1.17849 0
M  V30 6743 C 648.451 -1.25529 -3.36872 0
M  V30 6744 C 648.115 -2.71704 -3.67459 0
M  V30 6745 C 649.112 -3.69931 -3.65304 0
M  V30 6746 C 646.797 -3.08243 -3.966 0
M  V30 6747 C 648.791 -5.02717 -3.9186 0
M  V30 6748 C 646.478 -4.41215 -4.22815 0
M  V30 6749 C 647.476 -5.38262 -4.20432 0
M  V30 6750 O 647.164 -6.68839 -4.45992 0
M  V30 6751 H 646.896 -0.314374 -0.598452 0
M  V30 6752 H 649.45 -1.48015 -1.42411 0
M  V30 6753 H 647.68 -0.595808 -3.82082 0
M  V30 6754 H 649.369 -0.999064 -3.93413 0
M  V30 6755 H 650.135 -3.43047 -3.42846 0
M  V30 6756 H 646.014 -2.33326 -3.97593 0
M  V30 6757 H 649.558 -5.78456 -3.89916 0
M  V30 6758 H 645.455 -4.67835 -4.44748 0
M  V30 6759 H 646.223 -6.74563 -4.63581 0
M  V30 6760 N 648.886 1.2938 -0.899927 0
M  V30 6761 C 650.114 1.99691 -0.541386 0
M  V30 6762 C 650.529 1.67355 0.873936 0
M  V30 6763 O 649.886 0.918728 1.57688 0
M  V30 6764 C 649.937 3.54168 -0.72438 0
M  V30 6765 O 649.658 3.85359 -2.08399 0
M  V30 6766 C 651.159 4.41746 -0.370819 0
M  V30 6767 H 648.379 0.638037 -0.207726 0
M  V30 6768 H 650.923 1.6491 -1.20934 0
M  V30 6769 H 649.078 3.87261 -0.103607 0
M  V30 6770 H 649.492 4.80032 -2.11352 0
M  V30 6771 H 650.966 5.49256 -0.549693 0
M  V30 6772 H 651.443 4.33712 0.692148 0
M  V30 6773 H 652.049 4.14125 -0.968543 0
M  V30 6774 N 650.364 0.662433 1.43002 0
M  V30 6775 C 651.296 -0.062326 2.29115 0
M  V30 6776 C 652.309 -0.777926 1.43011 0
M  V30 6777 O 653.498 -0.634146 1.66856 0
M  V30 6778 C 650.598 -1.11163 3.2015 0
M  V30 6779 C 649.771 -0.472327 4.34842 0
M  V30 6780 C 648.83 -1.41974 5.06685 0
M  V30 6781 O 647.856 -0.924795 5.61637 0
M  V30 6782 N 649.058 -2.75345 5.11043 0
M  V30 6783 H 651.823 0.676838 2.91957 0
M  V30 6784 H 649.384 0.505907 1.53793 0
M  V30 6785 H 651.376 -1.74643 3.65078 0
M  V30 6786 H 649.946 -1.75266 2.58845 0
M  V30 6787 H 649.166 0.341751 3.92716 0
M  V30 6788 H 650.454 -0.0264381 5.08793 0
M  V30 6789 H 649.852 -3.18108 4.67786 0
M  V30 6790 H 648.409 -3.34105 5.59658 0
M  V30 6791 N 651.842 -1.52309 0.404946 0
M  V30 6792 C 652.789 -2.26898 -0.422597 0
M  V30 6793 C 653.759 -1.2914 -1.04461 0
M  V30 6794 O 654.944 -1.57996 -1.06967 0
M  V30 6795 C 652.084 -3.09053 -1.53559 0
M  V30 6796 C 651.197 -4.21762 -0.934908 0
M  V30 6797 C 650.332 -4.91283 -2.02025 0
M  V30 6798 C 649.371 -5.95962 -1.39628 0
M  V30 6799 N 648.508 -6.59017 -2.42159 0
M  V30 6800 H 653.348 -2.97188 0.219903 0
M  V30 6801 H 650.885 -1.46607 0.120282 0
M  V30 6802 H 652.843 -3.54987 -2.19181 0
M  V30 6803 H 651.473 -2.40942 -2.14818 0
M  V30 6804 H 650.525 -3.80029 -0.167854 0
M  V30 6805 H 651.837 -4.96864 -0.439073 0
M  V30 6806 H 650.991 -5.40601 -2.75383 0
M  V30 6807 H 649.73 -4.15741 -2.54973 0
M  V30 6808 H 648.735 -5.45968 -0.648023 0
M  V30 6809 H 649.96 -6.73445 -0.874553 0
M  V30 6810 H 647.906 -5.86306 -2.94247 0
M  V30 6811 H 647.823 -7.2978 -1.97376 0
M  V30 6812 H 649.091 -7.12974 -3.15099 0
M  V30 6813 N 653.32 -0.135238 -1.57019 0
M  V30 6814 C 654.545 0.529343 -2.00531 0
M  V30 6815 C 654.97 1.58391 -1.01459 0
M  V30 6816 O 654.328 1.81296 0.0113986 0
M  V30 6817 C 654.376 1.11748 -3.42848 0
M  V30 6818 O 653.48 2.23267 -3.46736 0
M  V30 6819 H 652.821 0.130669 -0.651016 0
M  V30 6820 H 655.351 -0.228503 -2.0332 0
M  V30 6821 H 655.361 1.44905 -3.81401 0
M  V30 6822 H 654.036 0.345147 -4.14465 0
M  V30 6823 H 652.613 1.91428 -3.20015 0
M  V30 6824 N 654.798 1.5699 0.138552 0
M  V30 6825 C 655.728 2.01933 1.17241 0
M  V30 6826 C 656.709 0.90033 1.44319 0
M  V30 6827 O 657.894 1.16872 1.55095 0
M  V30 6828 C 655.024 2.40711 2.50351 0
M  V30 6829 C 653.978 3.55874 2.37776 0
M  V30 6830 C 653.304 3.80491 3.75674 0
M  V30 6831 C 654.604 4.8826 1.85472 0
M  V30 6832 H 656.298 2.88551 0.798672 0
M  V30 6833 H 653.844 1.3882 0.382743 0
M  V30 6834 H 655.797 2.70754 3.22909 0
M  V30 6835 H 654.521 1.5104 2.89576 0
M  V30 6836 H 653.18 3.2601 1.67669 0
M  V30 6837 H 652.828 2.88057 4.12349 0
M  V30 6838 H 652.528 4.57998 3.68119 0
M  V30 6839 H 654.052 4.12967 4.49767 0
M  V30 6840 H 655.466 5.16965 2.4783 0
M  V30 6841 H 653.863 5.69631 1.88787 0
M  V30 6842 H 654.933 4.78071 0.810935 0
M  V30 6843 N 656.276 -0.40816 1.52223 0
M  V30 6844 C 657.501 -1.18127 1.70472 0
M  V30 6845 C 657.926 -1.83491 0.41384 0
M  V30 6846 O 657.284 -1.70047 -0.628778 0
M  V30 6847 C 657.332 -2.21935 2.84213 0
M  V30 6848 O 656.436 -3.28099 2.4985 0
M  V30 6849 H 655.777 -0.344781 0.56747 0
M  V30 6850 H 658.307 -0.478328 1.9893 0
M  V30 6851 H 658.317 -2.66248 3.09153 0
M  V30 6852 H 656.992 -1.73744 3.7787 0
M  V30 6853 H 655.569 -2.89058 2.35584 0
M  V30 6854 N 657.755 -1.42862 -0.66545 0
M  V30 6855 C 658.685 -1.49867 -1.79059 0
M  V30 6856 C 659.666 -0.354394 -1.66367 0
M  V30 6857 O 660.851 -0.569969 -1.85647 0
M  V30 6858 C 657.981 -1.40943 -3.17415 0
M  V30 6859 C 656.935 -2.53495 -3.44854 0
M  V30 6860 C 656.261 -2.29626 -4.82883 0
M  V30 6861 C 657.561 -3.95781 -3.40815 0
M  V30 6862 H 659.255 -2.44037 -1.73453 0
M  V30 6863 H 656.801 -1.17456 -0.833071 0
M  V30 6864 H 658.754 -1.4445 -3.95869 0
M  V30 6865 H 657.478 -0.432716 -3.23721 0
M  V30 6866 H 656.137 -2.4932 -2.68766 0
M  V30 6867 H 655.785 -1.30226 -4.8585 0
M  V30 6868 H 655.485 -3.05065 -5.02204 0
M  V30 6869 H 657.009 -2.34897 -5.63609 0
M  V30 6870 H 658.423 -4.01508 -4.09224 0
M  V30 6871 H 656.82 -4.71148 -3.71672 0
M  V30 6872 H 657.89 -4.21786 -2.39216 0
M  V30 6873 N 659.233 0.902656 -1.29189 0
M  V30 6874 C 660.458 1.69167 -1.19989 0
M  V30 6875 C 660.883 1.86607 0.236495 0
M  V30 6876 O 660.241 1.38425 1.17082 0
M  V30 6877 C 660.289 3.05532 -1.91527 0
M  V30 6878 O 659.393 3.93621 -1.2303 0
M  V30 6879 H 658.734 0.517584 -0.415936 0
M  V30 6880 H 661.264 1.12785 -1.70706 0
M  V30 6881 H 661.274 3.55693 -1.99866 0
M  V30 6882 H 659.949 2.92156 -2.96003 0
M  V30 6883 H 658.526 3.52055 -1.22928 0
M  V30 6884 N 660.711 1.11618 1.11262 0
M  V30 6885 C 662.122 0.881942 1.64556 0
M  V30 6886 C 662.473 -0.585442 1.87262 0
M  V30 6887 O 661.598 -1.44795 1.60821 0
M  V30 6888 C 662.193 1.59446 2.98935 0
M  V30 6889 C 660.752 1.40661 3.4913 0
M  V30 6890 C 659.899 1.63593 2.23903 0
M  V30 6891 H 662.85 1.27217 0.94877 0
M  V30 6892 H 662.871 1.04054 3.65996 0
M  V30 6893 H 662.383 2.66241 2.82378 0
M  V30 6894 H 660.484 0.360835 3.70849 0
M  V30 6895 H 660.597 2.15693 4.27801 0
M  V30 6896 H 658.961 1.05944 2.3162 0
M  V30 6897 H 659.744 2.71666 2.09886 0
M  V30 6898 N 662.189 -1.289 0.906776 0
M  V30 6899 C 663.437 -1.94883 0.535266 0
M  V30 6900 C 663.758 -1.71784 -0.922791 0
M  V30 6901 O 663.028 -1.05359 -1.65156 0
M  V30 6902 H 661.608 -0.721109 0.194962 0
M  V30 6903 H 664.27 -1.57018 1.15461 0
M  V30 6904 H 663.366 -3.03591 0.723821 0
M  V30 6905 N 663.667 -0.670007 -1.42649 0
M  V30 6906 C 664.614 0.0112928 -2.30797 0
M  V30 6907 C 665.584 0.797627 -1.45695 0
M  V30 6908 O 666.769 0.770845 -1.74535 0
M  V30 6909 C 663.909 0.95998 -3.31479 0
M  V30 6910 C 663.022 0.167975 -4.31673 0
M  V30 6911 C 662.157 1.11198 -5.19431 0
M  V30 6912 C 661.196 0.311381 -6.11307 0
M  V30 6913 N 660.333 1.20784 -6.91633 0
M  V30 6914 H 665.173 -0.746231 -2.88505 0
M  V30 6915 H 662.71 -0.379739 -1.42114 0
M  V30 6916 H 664.668 1.52379 -3.88377 0
M  V30 6917 H 663.298 1.68419 -2.75382 0
M  V30 6918 H 662.35 -0.512385 -3.76933 0
M  V30 6919 H 663.662 -0.453814 -4.96731 0
M  V30 6920 H 662.816 1.74587 -5.81037 0
M  V30 6921 H 661.555 1.76766 -4.54538 0
M  V30 6922 H 660.56 -0.335758 -5.48774 0
M  V30 6923 H 661.785 -0.340135 -6.78248 0
M  V30 6924 H 659.731 1.85001 -6.29373 0
M  V30 6925 H 659.648 0.64102 -7.53277 0
M  V30 6926 H 660.916 1.82936 -7.5773 0
M  V30 6927 O 665.184 1.51659 -0.55515 0
M  V30 6928 H 665.875 1.9363 -0.0521056 0
M  V30 END ATOM
M  V30 BEGIN BOND
M  V30 END BOND
M  V30 END CTAB
M  END
$$$$
