drugbank_target|O60547 GDP-mannose 4,6 dehydratase (DB02547; DB04315)
 OpenBabel12092120293D

  0  0  0     0  0            999 V3000
M  V30 BEGIN CTAB
M  V30 COUNTS 5874 5941 0 0 0
M  V30 BEGIN ATOM
M  V30 1 H -0.908 1.98254 -0.117106 0
M  V30 2 N 0 1.576 0 0
M  V30 3 C 0.933 2.03868 1.02534 0
M  V30 4 C 1.911 0.928543 1.3348 0
M  V30 5 O 3.095 1.19667 1.45644 0
M  V30 6 C 0.222 2.43627 2.35294 0
M  V30 7 C -0.732 3.65373 2.2001 0
M  V30 8 S 0.101 5.13292 1.52614 0
M  V30 9 C 1.257 5.56322 2.86805 0
M  V30 10 H 1.49 2.90518 0.631377 0
M  V30 11 H -0.977 1.52953 0.210867 0
M  V30 12 H 0.981 2.67203 3.11629 0
M  V30 13 H -0.358 1.57376 2.7183 0
M  V30 14 H -1.165 3.90944 3.18086 0
M  V30 15 H -1.563 3.418 1.51819 0
M  V30 16 H 0.729 5.58782 3.83104 0
M  V30 17 H 1.672 6.56266 2.65933 0
M  V30 18 H 2.08 4.83886 2.90714 0
M  V30 19 N 1.4781 -0.272755 1.55222 0
M  V30 20 C 2.4411 -1.32041 1.87344 0
M  V30 21 C 3.4411 -1.42342 0.74803 0
M  V30 22 O 4.6311 -1.41488 1.0162 0
M  V30 23 C 1.7631 -2.70173 2.07893 0
M  V30 24 H 2.9561 -1.04789 2.80997 0
M  V30 25 H 0.5091 -0.51083 1.47717 0
M  V30 26 H 1.2441 -3.02605 1.16622 0
M  V30 27 H 1.0291 -2.64082 2.89833 0
M  V30 28 H 2.5191 -3.45869 2.34017 0
M  V30 29 N 2.9562 -1.48159 -0.537278 0
M  V30 30 C 3.9062 -1.5854 -1.63857 0
M  V30 31 C 4.8902 -0.442969 -1.54682 0
M  V30 32 O 6.0822 -0.69401 -1.62827 0
M  V30 33 C 3.2112 -1.62144 -3.02596 0
M  V30 34 C 2.2972 -2.81841 -3.16901 0
M  V30 35 N 2.6882 -4.06337 -3.01204 0
M  V30 36 C 0.9862 -2.79021 -3.47942 0
M  V30 37 C 1.6872 -4.86606 -3.18731 0
M  V30 38 N 0.6632 -4.19288 -3.45974 0
M  V30 39 H 4.4652 -2.5255 -1.50319 0
M  V30 40 H 1.9792 -1.4443 -0.742555 0
M  V30 41 H 3.9762 -1.67674 -3.81695 0
M  V30 42 H 2.6362 -0.69245 -3.17231 0
M  V30 43 H 3.6472 -4.36888 -2.78117 0
M  V30 44 H 0.3242 -1.95347 -3.6898 0
M  V30 45 H 1.7142 -5.95385 -3.11394 0
M  V30 46 N 4.4343 0.785586 -1.36625 0
M  V30 47 C 5.3973 1.87999 -1.31107 0
M  V30 48 C 6.3973 1.59316 -0.217959 0
M  V30 49 O 7.5873 1.67656 -0.472977 0
M  V30 50 C 4.7193 3.24861 -1.03334 0
M  V30 51 H 5.9123 1.94307 -2.2844 0
M  V30 52 H 3.4653 0.983813 -1.21453 0
M  V30 53 H 4.2003 3.24235 -0.0647432 0
M  V30 54 H 3.9853 3.4707 -1.82441 0
M  V30 55 H 5.4753 4.04929 -1.02088 0
M  V30 56 N 5.9124 1.20967 1.01018 0
M  V30 57 C 7.3234 1.02319 1.56165 0
M  V30 58 C 7.6744 -0.418546 1.91684 0
M  V30 59 O 6.7994 -1.30096 1.72928 0
M  V30 60 C 7.3944 1.85109 2.8376 0
M  V30 61 C 5.9534 1.70809 3.35412 0
M  V30 62 C 5.1004 1.82643 2.08655 0
M  V30 63 H 8.0514 1.35065 0.833255 0
M  V30 64 H 8.0724 1.35827 3.55431 0
M  V30 65 H 7.5844 2.90035 2.57878 0
M  V30 66 H 5.6854 0.685464 3.66241 0
M  V30 67 H 5.7984 2.52467 4.07182 0
M  V30 68 H 4.1624 1.25896 2.21409 0
M  V30 69 H 4.9454 2.89066 1.85191 0
M  V30 70 N 7.3905 -1.2043 1.01659 0
M  V30 71 C 8.3535 -2.21433 0.591616 0
M  V30 72 C 9.3535 -1.57203 -0.338226 0
M  V30 73 O 10.5435 -1.73737 -0.126918 0
M  V30 74 C 7.6755 -3.40628 -0.136058 0
M  V30 75 H 8.8685 -2.60545 1.48514 0
M  V30 76 H 6.4215 -1.33893 0.806379 0
M  V30 77 H 7.1565 -3.07019 -1.04449 0
M  V30 78 H 6.9415 -3.88475 0.531917 0
M  V30 79 H 8.4315 -4.15475 -0.420735 0
M  V30 80 N 8.8686 -0.792821 -1.36206 0
M  V30 81 C 10.2846 -0.474903 -1.52371 0
M  V30 82 C 10.4846 1.00622 -1.74578 0
M  V30 83 O 9.5406 1.79162 -1.77924 0
M  V30 84 C 10.8536 -1.3083 -2.70747 0
M  V30 85 C 12.4016 -1.30234 -2.84619 0
M  V30 86 C 12.8766 -2.11956 -4.06004 0
M  V30 87 N 14.3676 -2.09419 -4.13156 0
M  V30 88 C 15.1026 -2.69419 -5.06163 0
M  V30 89 N 14.5986 -3.3829 -6.04592 0
M  V30 90 N 16.3916 -2.59134 -4.98804 0
M  V30 91 H 8.5426 -1.75222 -1.20046 0
M  V30 92 H 10.8056 -0.745024 -0.586211 0
M  V30 93 H 10.5116 -2.35881 -2.6087 0
M  V30 94 H 10.3856 -0.95196 -3.6499 0
M  V30 95 H 12.7726 -0.259748 -2.93955 0
M  V30 96 H 12.8536 -1.69847 -1.91274 0
M  V30 97 H 12.4976 -3.16248 -3.97429 0
M  V30 98 H 12.4276 -1.69711 -4.98503 0
M  V30 99 H 14.9186 -1.59297 -3.42685 0
M  V30 100 H 15.2316 -3.81394 -6.7213 0
M  V30 101 H 13.5766 -3.42393 -6.04807 0
M  V30 102 H 16.7676 -2.04927 -4.20859 0
M  V30 103 H 16.9406 -3.06185 -5.711 0
M  V30 104 N 10.3467 1.47872 -0.545128 0
M  V30 105 C 11.5867 2.04391 -0.0187854 0
M  V30 106 C 11.9507 1.41162 1.30144 0
M  V30 107 O 13.1517 1.88656 1.91474 0
M  V30 108 C 11.4227 3.57299 0.0850867 0
M  V30 109 S 12.9817 4.35221 0.559302 0
M  V30 110 H 9.7997 0.710737 -0.0193301 0
M  V30 111 H 12.4017 1.81395 -0.729125 0
M  V30 112 H 11.1057 4.00847 -0.880351 0
M  V30 113 H 10.6367 3.84773 0.819348 0
M  V30 114 H 12.6517 4.61571 1.82118 0
M  V30 115 N 11.8248 0.280983 1.55075 0
M  V30 116 C 13.2358 -0.215629 1.85451 0
M  V30 117 C 13.5868 -1.54991 1.203 0
M  V30 118 O 12.7118 -2.10699 0.493435 0
M  V30 119 C 13.3068 -0.398026 3.36454 0
M  V30 120 C 11.8658 -0.838866 3.66933 0
M  V30 121 C 11.0128 0.064458 2.77225 0
M  V30 122 H 13.9638 0.502601 1.50531 0
M  V30 123 H 13.9848 -1.23569 3.59876 0
M  V30 124 H 13.4968 0.573241 3.83843 0
M  V30 125 H 11.5978 -1.8214 3.25048 0
M  V30 126 H 11.7108 -0.672123 4.74362 0
M  V30 127 H 10.0748 -0.452863 2.50642 0
M  V30 128 H 10.8578 1.03172 3.2743 0
M  V30 129 N 13.3029 -1.57598 0.00835791 0
M  V30 130 C 14.5279 -1.95617 -0.689103 0
M  V30 131 C 14.9529 -0.883753 -1.66046 0
M  V30 132 O 14.3109 0.157352 -1.80616 0
M  V30 133 C 14.3589 -3.32736 -1.38994 0
M  V30 134 O 13.4629 -3.27631 -2.50463 0
M  V30 135 H 12.8039 -0.638379 -0.182668 0
M  V30 136 H 15.3339 -2.045 0.064036 0
M  V30 137 H 15.3439 -3.68494 -1.75147 0
M  V30 138 H 14.0189 -4.1034 -0.677778 0
M  V30 139 H 12.5959 -3.03561 -2.16576 0
M  V30 140 N 14.781 0.264519 -1.55364 0
M  V30 141 C 15.744 1.31046 -1.88042 0
M  V30 142 C 16.744 1.41943 -0.755569 0
M  V30 143 O 17.934 1.40947 -1.02369 0
M  V30 144 C 15.066 2.69067 -2.09323 0
M  V30 145 H 16.259 1.03297 -2.81549 0
M  V30 146 H 13.812 0.502989 -1.47986 0
M  V30 147 H 14.547 3.01982 -1.18226 0
M  V30 148 H 14.332 2.62542 -2.91229 0
M  V30 149 H 15.822 3.44623 -2.35848 0
M  V30 150 N 16.2591 1.48442 0.529413 0
M  V30 151 C 17.6751 1.34575 0.858004 0
M  V30 152 C 17.8751 0.3572 1.98309 0
M  V30 153 O 16.9311 -0.221379 2.51528 0
M  V30 154 C 18.2441 2.74617 1.22499 0
M  V30 155 C 19.7921 2.83109 1.33484 0
M  V30 156 C 20.2671 4.23854 1.73526 0
M  V30 157 N 21.7581 4.2653 1.80628 0
M  V30 158 C 22.4931 5.32372 2.12997 0
M  V30 159 N 21.9891 6.48491 2.43786 0
M  V30 160 N 23.7821 5.19766 2.14008 0
M  V30 161 H 15.9331 2.1133 -0.212925 0
M  V30 162 H 18.1961 0.947439 -0.0326199 0
M  V30 163 H 17.9021 3.4852 0.471905 0
M  V30 164 H 17.7761 3.08177 2.17501 0
M  V30 165 H 20.1631 2.09462 2.0787 0
M  V30 166 H 20.2441 2.53168 0.366027 0
M  V30 167 H 19.8881 4.98018 0.997013 0
M  V30 168 H 19.8181 4.5124 2.71459 0
M  V30 169 H 22.3091 3.42772 1.59108 0
M  V30 170 H 22.6221 7.24993 2.67592 0
M  V30 171 H 20.9671 6.51765 2.41304 0
M  V30 172 H 24.1581 4.28066 1.89412 0
M  V30 173 H 24.3311 6.02354 2.38902 0
M  V30 174 N 17.7372 -0.778329 1.37039 0
M  V30 175 C 18.9852 -1.53361 1.31623 0
M  V30 176 C 19.3062 -1.94739 -0.100831 0
M  V30 177 O 18.5762 -1.65797 -1.04347 0
M  V30 178 H 17.1562 -0.568794 0.484234 0
M  V30 179 H 19.8182 -0.926742 1.71457 0
M  V30 180 H 18.9142 -2.43606 1.95096 0
M  V30 181 N 19.2153 -1.21501 -1.00376 0
M  V30 182 C 20.4403 -1.05977 -1.78279 0
M  V30 183 C 20.8653 0.385994 -1.84097 0
M  V30 184 O 20.2233 1.27849 -1.28547 0
M  V30 185 C 20.2713 -1.66302 -3.19963 0
M  V30 186 O 19.3753 -0.909333 -4.0225 0
M  V30 187 H 18.7163 -0.372906 -0.549397 0
M  V30 188 H 21.2463 -1.6107 -1.26165 0
M  V30 189 H 21.2563 -1.70574 -3.70632 0
M  V30 190 H 19.9313 -2.71515 -3.15043 0
M  V30 191 H 18.5083 -0.941795 -3.60811 0
M  V30 192 N 20.6934 1.19889 -1.02296 0
M  V30 193 C 21.9414 1.89046 -0.714558 0
M  V30 194 C 22.2624 1.79636 0.758681 0
M  V30 195 O 21.5324 1.20292 1.54618 0
M  V30 196 H 20.1124 0.699802 -0.261317 0
M  V30 197 H 22.7744 1.45574 -1.29592 0
M  V30 198 H 21.8704 2.95524 -1.0036 0
M  V30 199 N 22.1715 0.800033 1.35784 0
M  V30 200 C 23.4485 0.30088 1.93272 0
M  V30 201 C 23.8285 -1.20857 1.73081 0
M  V30 202 O 23.1765 -2.00502 1.09596 0
M  V30 203 C 23.3865 0.70511 3.41803 0
M  V30 204 C 24.7345 0.690871 4.18942 0
M  V30 205 O 25.7585 0.646244 3.50289 0
M  V30 206 O 24.6175 0.74332 5.41421 0
M  V30 207 H 21.7115 0.0771605 0.823393 0
M  V30 208 H 24.2575 0.88329 1.449 0
M  V30 209 H 23.0295 1.74571 3.50201 0
M  V30 210 H 22.6525 0.0971541 3.97481 0
M  V30 211 N 23.6496 -1.47581 0.552962 0
M  V30 212 C 24.8976 -2.02082 0.0272703 0
M  V30 213 C 25.2186 -1.4301 -1.32563 0
M  V30 214 O 24.4886 -0.603745 -1.86365 0
M  V30 215 H 23.0686 -0.746966 0.00709182 0
M  V30 216 H 25.7306 -1.81033 0.722008 0
M  V30 217 H 24.8266 -3.12034 -0.0639951 0
M  V30 218 N 25.1277 -0.289203 -1.54924 0
M  V30 219 C 26.0377 0.601863 -2.26748 0
M  V30 220 C 27.0537 1.15834 -1.2984 0
M  V30 221 O 28.2297 1.18564 -1.62802 0
M  V30 222 C 25.2947 1.76299 -2.98529 0
M  V30 223 C 24.3557 1.24178 -4.10948 0
M  V30 224 C 23.5887 2.34757 -4.79296 0
M  V30 225 O 23.8117 3.54411 -4.46933 0
M  V30 226 O 22.7457 2.02115 -5.66951 0
M  V30 227 H 26.5717 0.0195879 -3.03694 0
M  V30 228 H 24.1567 -0.0560868 -1.49295 0
M  V30 229 H 26.0387 2.43973 -3.43592 0
M  V30 230 H 24.7137 2.33209 -2.24488 0
M  V30 231 H 23.6207 0.531104 -3.70311 0
M  V30 232 H 24.9537 0.718252 -4.86931 0
M  V30 233 N 26.6058 1.57591 -0.0167156 0
M  V30 234 C 27.5388 2.04944 1.00366 0
M  V30 235 C 28.5168 0.942648 1.32487 0
M  V30 236 O 29.7008 1.21205 1.44367 0
M  V30 237 C 26.8278 2.46109 2.32697 0
M  V30 238 C 25.8738 3.67686 2.16123 0
M  V30 239 S 26.7068 5.14882 1.47161 0
M  V30 240 C 27.8628 5.59332 2.80888 0
M  V30 241 H 28.0958 2.91172 0.600528 0
M  V30 242 H 25.6288 1.53168 0.194632 0
M  V30 243 H 27.5868 2.70493 3.08778 0
M  V30 244 H 26.2478 1.6025 2.70146 0
M  V30 245 H 25.4408 3.94296 3.13922 0
M  V30 246 H 25.0428 3.43391 1.48185 0
M  V30 247 H 27.3348 5.62814 3.77156 0
M  V30 248 H 28.2778 6.5905 2.58958 0
M  V30 249 H 28.6858 4.86942 2.85565 0
M  V30 250 N 28.0839 -0.256276 1.55502 0
M  V30 251 C 29.3319 -0.983672 1.76545 0
M  V30 252 C 29.6529 -1.86206 0.578982 0
M  V30 253 O 28.9229 -1.91656 -0.405577 0
M  V30 254 H 27.5029 -0.366191 0.651086 0
M  V30 255 H 30.1649 -0.276479 1.92929 0
M  V30 256 H 29.2609 -1.61087 2.67315 0
M  V30 257 N 29.562 -1.4872 -0.521534 0
M  V30 258 C 30.509 -1.63871 -1.62527 0
M  V30 259 C 31.479 -0.480559 -1.58996 0
M  V30 260 O 32.664 -0.705085 -1.77294 0
M  V30 261 C 29.804 -1.69227 -3.00759 0
M  V30 262 C 28.917 -2.96207 -3.14461 0
M  V30 263 C 28.052 -2.92671 -4.43303 0
M  V30 264 C 27.091 -4.14318 -4.50563 0
M  V30 265 N 26.228 -4.0881 -5.70805 0
M  V30 266 H 31.068 -2.58123 -1.48918 0
M  V30 267 H 28.605 -1.28 -0.724878 0
M  V30 268 H 30.563 -1.70314 -3.80853 0
M  V30 269 H 29.193 -0.784586 -3.1312 0
M  V30 270 H 28.245 -3.04826 -2.27564 0
M  V30 271 H 29.557 -3.86192 -3.15686 0
M  V30 272 H 28.711 -2.92206 -5.31696 0
M  V30 273 H 27.45 -2.00429 -4.44612 0
M  V30 274 H 26.455 -4.15049 -3.60575 0
M  V30 275 H 27.68 -5.07729 -4.50986 0
M  V30 276 H 25.626 -3.19394 -5.72995 0
M  V30 277 H 25.543 -4.92509 -5.7356 0
M  V30 278 H 26.811 -4.12418 -6.61462 0
M  V30 279 N 31.0401 0.771051 -1.3745 0
M  V30 280 C 32.4511 1.34737 -1.29239 0
M  V30 281 C 32.8021 1.96109 0.0596908 0
M  V30 282 O 31.9271 1.93865 0.961534 0
M  V30 283 C 32.5221 2.44973 -2.34037 0
M  V30 284 C 31.0811 2.98372 -2.29458 0
M  V30 285 C 30.2281 1.71595 -2.17831 0
M  V30 286 H 33.1791 0.571256 -1.48062 0
M  V30 287 H 33.2001 3.24471 -1.98744 0
M  V30 288 H 32.7121 2.00276 -3.32432 0
M  V30 289 H 30.8131 3.47443 -1.34589 0
M  V30 290 H 30.9261 3.53939 -3.229 0
M  V30 291 H 29.2901 1.94547 -1.64388 0
M  V30 292 H 30.0731 1.29001 -3.18141 0
M  V30 293 N 32.5182 1.22032 0.997298 0
M  V30 294 C 33.9342 0.979326 1.26021 0
M  V30 295 C 34.1342 -0.32972 1.98784 0
M  V30 296 O 33.1902 -1.05345 2.29475 0
M  V30 297 C 34.5032 2.17509 2.07631 0
M  V30 298 C 36.0512 2.21817 2.2083 0
M  V30 299 C 36.5262 3.40933 3.05825 0
M  V30 300 N 38.0172 3.41067 3.13412 0
M  V30 301 C 38.7522 4.29885 3.79455 0
M  V30 302 N 38.2482 5.28914 4.47462 0
M  V30 303 N 40.0412 4.17673 3.76173 0
M  V30 304 H 32.1922 2.06202 0.509352 0
M  V30 305 H 34.4552 0.90334 0.287541 0
M  V30 306 H 34.1612 3.12415 1.61524 0
M  V30 307 H 34.0352 2.17206 3.08385 0
M  V30 308 H 36.4222 1.27462 2.66153 0
M  V30 309 H 36.5032 2.2616 1.1952 0
M  V30 310 H 36.1472 4.35586 2.61203 0
M  V30 311 H 36.0772 3.33829 4.07266 0
M  V30 312 H 38.5682 2.69406 2.65007 0
M  V30 313 H 38.8812 5.92973 4.95583 0
M  V30 314 H 37.2262 5.32831 4.46224 0
M  V30 315 H 40.4172 3.39564 3.22202 0
M  V30 316 H 40.5902 4.87098 4.27363 0
M  V30 317 N 33.9963 -1.19345 1.0293 0
M  V30 318 C 34.9443 -2.24621 0.604001 0
M  V30 319 C 35.9383 -1.65452 -0.363587 0
M  V30 320 O 37.1443 -1.78497 -0.23212 0
M  V30 321 H 33.5193 -0.730858 0.177061 0
M  V30 322 H 35.4903 -2.5781 1.50255 0
M  V30 323 C 34.2393 -3.47688 -0.0289127 0
M  V30 324 H 33.5623 -3.93505 0.706651 0
M  V30 325 H 35.0023 -4.23011 -0.289432 0
M  V30 326 C 33.4613 -3.11817 -1.2756 0
M  V30 327 O 33.9913 -3.2451 -2.36762 0
M  V30 328 N 32.1973 -2.66246 -1.16453 0
M  V30 329 H 31.7443 -2.56118 -0.275914 0
M  V30 330 H 31.7023 -2.42617 -1.99961 0
M  V30 331 N 35.4744 -0.807222 -1.35358 0
M  V30 332 C 36.7204 -0.388463 -1.99045 0
M  V30 333 C 37.0534 1.04184 -1.63888 0
M  V30 334 O 36.3284 1.72292 -0.902535 0
M  V30 335 C 36.6114 -0.572783 -3.55515 0
M  V30 336 C 36.4644 -2.04807 -4.00468 0
M  V30 337 C 37.7834 0.00114064 -4.401 0
M  V30 338 H 34.9024 -0.142619 -0.723069 0
M  V30 339 H 37.5444 -1.01687 -1.60498 0
M  V30 340 H 35.6944 -0.0378425 -3.88482 0
M  V30 341 H 37.3664 -2.64544 -3.77908 0
M  V30 342 H 35.6094 -2.54427 -3.51353 0
M  V30 343 H 36.2804 -2.12792 -5.09337 0
M  V30 344 H 38.7564 -0.455716 -4.13597 0
M  V30 345 H 37.6324 -0.157737 -5.48673 0
M  V30 346 H 37.8934 1.09488 -4.28328 0
M  V30 347 N 36.9525 1.47285 -0.560781 0
M  V30 348 C 37.9155 2.28535 0.174488 0
M  V30 349 C 38.9155 1.37153 0.839388 0
M  V30 350 O 40.1055 1.59748 0.694702 0
M  V30 351 C 37.2375 3.16934 1.25561 0
M  V30 352 H 38.4305 2.95012 -0.539262 0
M  V30 353 H 35.9835 1.53034 -0.317865 0
M  V30 354 H 36.7185 2.55157 2.00164 0
M  V30 355 H 36.5035 3.8419 0.783604 0
M  V30 356 H 37.9935 3.78143 1.77193 0
M  V30 357 N 38.4306 0.297415 1.54768 0
M  V30 358 C 39.3606 -0.573494 2.26348 0
M  V30 359 C 40.3416 -1.14085 1.26169 0
M  V30 360 O 41.5266 -1.17086 1.54934 0
M  V30 361 C 38.6566 -1.74716 3.00153 0
M  V30 362 C 37.6106 -1.31032 4.07449 0
M  V30 363 C 36.9366 -2.56887 4.68949 0
M  V30 364 C 38.2366 -0.444183 5.20408 0
M  V30 365 H 39.9306 0.0235131 2.99391 0
M  V30 366 H 37.4766 0.0127488 1.43994 0
M  V30 367 H 39.4296 -2.3625 3.48947 0
M  V30 368 H 38.1536 -2.37035 2.24682 0
M  V30 369 H 36.8126 -0.718066 3.59499 0
M  V30 370 H 36.4606 -3.17512 3.90122 0
M  V30 371 H 36.1606 -2.2836 5.41411 0
M  V30 372 H 37.6846 -3.19229 5.20505 0
M  V30 373 H 39.0986 -0.9651 5.65118 0
M  V30 374 H 37.4956 -0.252846 5.99567 0
M  V30 375 H 38.5656 0.531609 4.81977 0
M  V30 376 N 39.9087 -1.5758 0.0250728 0
M  V30 377 C 41.1577 -1.90811 -0.653767 0
M  V30 378 C 41.4707 -0.90273 -1.73523 0
M  V30 379 O 42.6767 -1.12614 -2.47043 0
M  V30 380 C 41.1327 -3.38804 -1.21409 0
M  V30 381 C 40.7407 -4.47692 -0.166126 0
M  V30 382 C 42.4847 -3.81108 -1.86967 0
M  V30 383 C 40.3917 -5.86779 -0.737856 0
M  V30 384 H 39.3217 -0.712063 -0.247956 0
M  V30 385 H 41.9727 -1.83281 0.0897137 0
M  V30 386 H 40.3547 -3.41252 -2.00905 0
M  V30 387 H 41.5287 -4.56797 0.606079 0
M  V30 388 H 39.8437 -4.14565 0.390466 0
M  V30 389 H 42.4407 -4.82375 -2.30692 0
M  V30 390 H 42.7837 -3.15953 -2.71071 0
M  V30 391 H 43.3167 -3.81065 -1.14167 0
M  V30 392 H 40.0557 -6.55468 0.0649577 0
M  V30 393 H 39.5757 -5.81288 -1.47864 0
M  V30 394 H 41.2547 -6.35223 -1.22884 0
M  V30 395 N 41.3868 0.248026 -1.55636 0
M  V30 396 C 42.6148 0.993808 -1.81469 0
M  V30 397 C 43.0298 1.78991 -0.60064 0
M  V30 398 O 42.3868 1.77345 0.430682 0
M  V30 399 C 42.4378 1.93258 -3.05506 0
M  V30 400 O 42.1588 1.16869 -4.22224 0
M  V30 401 C 43.6598 2.79444 -3.4413 0
M  V30 402 H 40.8798 0.292486 -0.603898 0
M  V30 403 H 43.4238 0.271253 -2.02693 0
M  V30 404 H 41.5788 2.60943 -2.86335 0
M  V30 405 H 41.9928 1.80359 -4.92515 0
M  V30 406 H 43.4668 3.41066 -4.34026 0
M  V30 407 H 43.9438 3.50499 -2.64665 0
M  V30 408 H 44.5498 2.17214 -3.65648 0
M  V30 409 N 42.8649 1.48995 0.513639 0
M  V30 410 C 44.1129 1.57531 1.26604 0
M  V30 411 C 44.4339 0.258236 1.93283 0
M  V30 412 O 43.7039 -0.721502 1.8213 0
M  V30 413 H 42.2839 0.580387 0.470276 0
M  V30 414 H 44.9459 1.85552 0.596373 0
M  V30 415 H 44.0419 2.36486 2.03669 0
M  V30 416 N 44.343 -0.763751 1.37857 0
M  V30 417 C 45.592 -1.51789 1.32827 0
M  V30 418 C 45.905 -1.95426 -0.0823719 0
M  V30 419 O 47.111 -2.70298 -0.255172 0
M  V30 420 C 45.567 -2.74133 2.33193 0
M  V30 421 C 45.175 -2.37562 3.79827 0
M  V30 422 C 46.919 -3.52054 2.37188 0
M  V30 423 C 44.826 -3.56456 4.71904 0
M  V30 424 H 43.756 -0.569896 0.493695 0
M  V30 425 H 46.407 -0.835822 1.63359 0
M  V30 426 H 44.789 -3.4427 1.9569 0
M  V30 427 H 45.963 -1.75157 4.26212 0
M  V30 428 H 44.278 -1.72798 3.78853 0
M  V30 429 H 46.875 -4.40437 3.03182 0
M  V30 430 H 47.218 -3.92486 1.38782 0
M  V30 431 H 47.751 -2.88921 2.7344 0
M  V30 432 H 44.49 -3.21099 5.71468 0
M  V30 433 H 44.01 -4.17938 4.30218 0
M  V30 434 H 45.689 -4.23168 4.89426 0
M  V30 435 N 45.8211 -1.22559 -0.990812 0
M  V30 436 C 47.0491 -1.07779 -1.76611 0
M  V30 437 C 47.4641 0.371513 -1.85109 0
M  V30 438 O 46.8211 1.25737 -1.32274 0
M  V30 439 C 46.8721 -1.68512 -3.19822 0
M  V30 440 O 46.5931 -3.07774 -3.1178 0
M  V30 441 C 48.0941 -1.59035 -4.13791 0
M  V30 442 H 45.3141 -0.377729 -0.554583 0
M  V30 443 H 47.8581 -1.62195 -1.24551 0
M  V30 444 H 46.0131 -1.18154 -3.68942 0
M  V30 445 H 46.4271 -3.37062 -4.01858 0
M  V30 446 H 47.9011 -2.0625 -5.1202 0
M  V30 447 H 48.3781 -0.547273 -4.35777 0
M  V30 448 H 48.9841 -2.08709 -3.70568 0
M  V30 449 N 47.2992 1.18797 -1.03562 0
M  V30 450 C 48.5472 1.88278 -0.734569 0
M  V30 451 C 48.8682 1.8043 0.739586 0
M  V30 452 O 48.1382 1.21925 1.53333 0
M  V30 453 H 46.7182 0.696991 -0.268725 0
M  V30 454 H 49.3802 1.44192 -1.31129 0
M  V30 455 H 48.4762 2.94443 -1.03489 0
M  V30 456 N 48.7773 0.814389 1.34928 0
M  V30 457 C 49.7093 0.187834 2.28429 0
M  V30 458 C 50.7223 -0.617374 1.5064 0
M  V30 459 O 51.9113 -0.448454 1.72775 0
M  V30 460 C 49.0113 -0.755962 3.30361 0
M  V30 461 C 48.1843 0.00456686 4.374 0
M  V30 462 C 47.2433 -0.858876 5.19143 0
M  V30 463 O 46.2693 -0.306968 5.68372 0
M  V30 464 N 47.4713 -2.17988 5.38016 0
M  V30 465 H 50.2363 0.991105 2.82838 0
M  V30 466 H 47.7973 0.670561 1.4736 0
M  V30 467 H 49.7893 -1.338 3.81942 0
M  V30 468 H 48.3593 -1.46001 2.7641 0
M  V30 469 H 47.5793 0.767865 3.86649 0
M  V30 470 H 48.8673 0.528422 5.06049 0
M  V30 471 H 48.2653 -2.65212 4.99679 0
M  V30 472 H 46.8223 -2.71098 5.92747 0
M  V30 473 N 50.2554 -1.46986 0.568584 0
M  V30 474 C 51.5324 -1.95592 -0.0174074 0
M  V30 475 C 51.9124 -1.51124 -1.47393 0
M  V30 476 O 51.2604 -0.755329 -2.15655 0
M  V30 477 C 51.4704 -3.48719 0.139913 0
M  V30 478 C 52.8184 -4.246 0.000426376 0
M  V30 479 O 53.8424 -3.56135 0.0680316 0
M  V30 480 O 52.7014 -5.46302 -0.146988 0
M  V30 481 H 49.7954 -0.82498 -0.0577599 0
M  V30 482 H 52.3414 -1.57335 0.635909 0
M  V30 483 H 51.1134 -3.73927 1.15301 0
M  V30 484 H 50.7364 -3.93771 -0.550491 0
M  V30 485 N 51.7335 -0.305618 -1.54608 0
M  V30 486 C 52.9815 0.301701 -1.99835 0
M  V30 487 C 53.3025 1.54054 -1.19551 0
M  V30 488 O 52.5725 1.93702 -0.292658 0
M  V30 489 H 51.1525 0.114468 -0.738178 0
M  V30 490 H 53.8145 -0.418016 -1.90364 0
M  V30 491 H 52.9105 0.570548 -3.06841 0
M  V30 492 N 53.2116 1.57565 -0.0334293 0
M  V30 493 C 54.4366 1.96689 0.657895 0
M  V30 494 C 54.8616 0.910057 1.64619 0
M  V30 495 O 54.2196 -0.128598 1.80843 0
M  V30 496 C 54.2676 3.34905 1.33683 0
M  V30 497 O 53.3716 3.31574 2.45219 0
M  V30 498 H 52.7126 0.641205 0.172489 0
M  V30 499 H 55.2426 2.04372 -0.0965621 0
M  V30 500 H 55.2526 3.71234 1.69262 0
M  V30 501 H 53.9276 4.11366 0.612411 0
M  V30 502 H 52.5046 3.06968 2.11719 0
M  V30 503 N 54.6897 -0.239769 1.55765 0
M  V30 504 C 55.9197 -0.982743 1.8173 0
M  V30 505 C 56.3277 -1.7917 0.607835 0
M  V30 506 O 55.6707 -1.78525 -0.432973 0
M  V30 507 C 55.7327 -1.96332 3.01155 0
M  V30 508 C 55.3967 -1.34062 4.36894 0
M  V30 509 C 56.3937 -0.739539 5.14613 0
M  V30 510 C 54.0787 -1.35784 4.83599 0
M  V30 511 C 56.0727 -0.163989 6.37189 0
M  V30 512 C 53.7597 -0.778441 6.06122 0
M  V30 513 C 54.7577 -0.182548 6.82756 0
M  V30 514 O 54.4457 0.387887 8.02964 0
M  V30 515 H 54.1777 -0.294481 0.608487 0
M  V30 516 H 56.7317 -0.26572 2.03674 0
M  V30 517 H 54.9617 -2.71884 2.74984 0
M  V30 518 H 56.6507 -2.57032 3.14149 0
M  V30 519 H 57.4167 -0.718687 4.79646 0
M  V30 520 H 53.2957 -1.81105 4.23936 0
M  V30 521 H 56.8397 0.301753 6.96947 0
M  V30 522 H 52.7367 -0.796645 6.40565 0
M  V30 523 H 53.5047 0.28044 8.18019 0
M  V30 524 N 56.1678 -1.49265 -0.50573 0
M  V30 525 C 57.0978 -1.68495 -1.61653 0
M  V30 526 C 58.0788 -0.53366 -1.61512 0
M  V30 527 O 59.2638 -0.76897 -1.78327 0
M  V30 528 C 56.3938 -1.74709 -3.00157 0
M  V30 529 C 55.3478 -2.89581 -3.15162 0
M  V30 530 C 54.6738 -2.80903 -4.5497 0
M  V30 531 C 55.9738 -4.30578 -2.95634 0
M  V30 532 H 57.6678 -2.61493 -1.45814 0
M  V30 533 H 55.2138 -1.25838 -0.70005 0
M  V30 534 H 57.1668 -1.86748 -3.77761 0
M  V30 535 H 55.8908 -0.783067 -3.17074 0
M  V30 536 H 54.5498 -2.77136 -2.39982 0
M  V30 537 H 54.1978 -1.82419 -4.68756 0
M  V30 538 H 53.8978 -3.57999 -4.65951 0
M  V30 539 H 55.4218 -2.94944 -5.34641 0
M  V30 540 H 56.8358 -4.4373 -3.63011 0
M  V30 541 H 55.2328 -5.0886 -3.18091 0
M  V30 542 H 56.3028 -4.45352 -1.91806 0
M  V30 543 N 57.6459 0.756429 -1.3826 0
M  V30 544 C 58.6089 1.85176 -1.35065 0
M  V30 545 C 59.6089 1.58818 -0.251703 0
M  V30 546 O 60.7989 1.66615 -0.508433 0
M  V30 547 C 57.9309 3.22596 -1.10201 0
M  V30 548 H 59.1239 1.89417 -2.3251 0
M  V30 549 H 56.6769 0.95783 -1.23512 0
M  V30 550 H 57.4119 3.24025 -0.133504 0
M  V30 551 H 57.1969 3.43122 -1.89762 0
M  V30 552 H 58.6869 4.02673 -1.10654 0
M  V30 553 N 59.124 1.23083 0.984299 0
M  V30 554 C 60.034 1.02515 2.11016 0
M  V30 555 C 61.05 -0.0291702 1.73976 0
M  V30 556 O 62.226 0.165434 2.00719 0
M  V30 557 C 59.291 0.614673 3.41208 0
M  V30 558 C 58.352 1.74359 3.92297 0
M  V30 559 C 57.585 1.35261 5.16275 0
M  V30 560 O 57.808 0.235136 5.69915 0
M  V30 561 O 56.742 2.17227 5.61334 0
M  V30 562 H 60.568 1.96862 2.31255 0
M  V30 563 H 58.153 1.01753 1.09392 0
M  V30 564 H 60.035 0.396518 4.1953 0
M  V30 565 H 58.71 -0.299851 3.22308 0
M  V30 566 H 57.617 2.01635 3.1511 0
M  V30 567 H 58.95 2.63629 4.15645 0
M  V30 568 N 60.6021 -1.18246 1.0419 0
M  V30 569 C 61.8491 -1.88257 0.746017 0
M  V30 570 C 62.1771 -1.80429 -0.726331 0
M  V30 571 O 61.4321 -1.2 -1.54591 0
M  V30 572 C 61.7311 -3.38082 1.15911 0
M  V30 573 C 61.3971 -3.66114 2.63195 0
M  V30 574 C 60.0591 -3.73474 3.03432 0
M  V30 575 C 62.4111 -3.78398 3.5842 0
M  V30 576 C 59.7391 -3.90599 4.37778 0
M  V30 577 C 62.0911 -3.97039 4.92487 0
M  V30 578 C 60.7551 -4.02635 5.32392 0
M  V30 579 H 60.0251 -0.688883 0.272987 0
M  V30 580 H 62.6721 -1.3995 1.30715 0
M  V30 581 H 60.9771 -3.88377 0.516806 0
M  V30 582 H 62.6741 -3.90596 0.907516 0
M  V30 583 H 59.2641 -3.61003 2.3103 0
M  V30 584 H 63.4481 -3.72042 3.28479 0
M  V30 585 H 58.7041 -3.93175 4.68213 0
M  V30 586 H 62.8781 -4.05486 5.66175 0
M  V30 587 H 60.5051 -4.15657 6.36501 0
M  V30 588 N 62.0802 -0.821533 -1.34494 0
M  V30 589 C 63.0102 -0.257138 -2.3208 0
M  V30 590 C 63.9912 0.625645 -1.58176 0
M  V30 591 O 65.1762 0.552811 -1.86166 0
M  V30 592 C 62.3062 0.582958 -3.42372 0
M  V30 593 C 61.2602 -0.202571 -4.2752 0
M  V30 594 C 60.5862 0.760179 -5.29269 0
M  V30 595 C 61.8862 -1.40998 -5.02908 0
M  V30 596 H 63.5802 -1.07247 -2.79532 0
M  V30 597 H 61.1262 -0.517163 -1.34393 0
M  V30 598 H 63.0792 0.987972 -4.09655 0
M  V30 599 H 61.8032 1.43133 -2.93565 0
M  V30 600 H 60.4622 -0.588936 -3.61838 0
M  V30 601 H 60.1102 1.60447 -4.76724 0
M  V30 602 H 59.8102 0.238809 -5.87115 0
M  V30 603 H 61.3342 1.16308 -5.9942 0
M  V30 604 H 62.7482 -1.07905 -5.63054 0
M  V30 605 H 61.1452 -1.86689 -5.70322 0
M  V30 606 H 62.2152 -2.1889 -4.32684 0
M  V30 607 N 63.5583 1.46682 -0.576371 0
M  V30 608 C 64.4883 2.33028 0.148397 0
M  V30 609 C 65.4693 1.44961 0.889956 0
M  V30 610 O 66.6543 1.73789 0.866662 0
M  V30 611 C 63.7843 3.27117 1.1667 0
M  V30 612 C 62.7383 4.24575 0.540386 0
M  V30 613 C 62.0643 5.08126 1.6647 0
M  V30 614 C 63.3643 5.19722 -0.518331 0
M  V30 615 H 65.0583 2.93875 -0.572509 0
M  V30 616 H 62.6043 1.41315 -0.276768 0
M  V30 617 H 64.5573 3.86374 1.68204 0
M  V30 618 H 63.2813 2.64364 1.9178 0
M  V30 619 H 61.9403 3.66571 0.0461769 0
M  V30 620 H 61.5883 4.41762 2.40531 0
M  V30 621 H 61.2883 5.74122 1.25131 0
M  V30 622 H 62.8123 5.70246 2.18293 0
M  V30 623 H 64.2263 5.73232 -0.0883058 0
M  V30 624 H 62.6233 5.94026 -0.851679 0
M  V30 625 H 63.6933 4.64037 -1.40703 0
M  V30 626 N 65.0364 0.313813 1.54444 0
M  V30 627 C 65.9464 -0.565714 2.27677 0
M  V30 628 C 66.9624 -1.13754 1.31666 0
M  V30 629 O 68.1384 -1.15959 1.64668 0
M  V30 630 C 65.2034 -1.71528 3.01296 0
M  V30 631 C 64.2644 -1.17624 4.12872 0
M  V30 632 C 63.4974 -2.27102 4.8297 0
M  V30 633 O 63.7204 -3.47256 4.52514 0
M  V30 634 O 62.6544 -1.9307 5.70094 0
M  V30 635 H 66.4804 0.0287296 3.03686 0
M  V30 636 H 64.0654 0.0798312 1.49187 0
M  V30 637 H 65.9474 -2.38476 3.4743 0
M  V30 638 H 64.6224 -2.29608 2.2817 0
M  V30 639 H 63.5294 -0.472124 3.71109 0
M  V30 640 H 64.8624 -0.640695 4.88012 0
M  V30 641 N 66.5145 -1.57545 0.0417849 0
M  V30 642 C 67.4615 -2.10977 -0.935805 0
M  V30 643 C 68.4315 -1.01486 -1.31491 0
M  V30 644 O 69.6165 -1.2898 -1.40602 0
M  V30 645 C 66.7565 -2.65169 -2.2086 0
M  V30 646 C 65.8695 -3.88714 -1.88482 0
M  V30 647 C 65.0045 -4.31254 -3.1015 0
M  V30 648 C 64.0435 -5.47524 -2.7365 0
M  V30 649 N 63.1805 -5.85162 -3.87982 0
M  V30 650 H 68.0205 -2.94218 -0.473249 0
M  V30 651 H 65.5575 -1.45415 -0.221981 0
M  V30 652 H 67.5155 -2.94685 -2.95325 0
M  V30 653 H 66.1455 -1.8474 -2.64709 0
M  V30 654 H 65.1975 -3.65849 -1.04205 0
M  V30 655 H 66.5095 -4.73245 -1.57608 0
M  V30 656 H 65.6635 -4.62273 -3.92923 0
M  V30 657 H 64.4025 -3.45516 -3.44195 0
M  V30 658 H 63.4075 -5.16187 -1.89291 0
M  V30 659 H 64.6325 -6.34971 -2.40807 0
M  V30 660 H 62.5785 -5.02377 -4.21846 0
M  V30 661 H 62.4955 -6.64362 -3.60775 0
M  V30 662 H 63.7635 -6.20791 -4.71422 0
M  V30 663 N 67.9926 0.231505 -1.5589 0
M  V30 664 C 69.2406 0.955461 -1.78088 0
M  V30 665 C 69.5616 1.85262 -0.608533 0
M  V30 666 O 68.8316 1.92277 0.375035 0
M  V30 667 H 67.4116 0.355787 -0.656829 0
M  V30 668 H 70.0736 0.245751 -1.93344 0
M  V30 669 H 69.1696 1.56814 -2.69844 0
M  V30 670 N 69.4707 1.49531 0.497807 0
M  V30 671 C 70.7007 1.62657 1.27382 0
M  V30 672 C 71.1087 0.298488 1.86831 0
M  V30 673 O 70.4517 -0.72647 1.68725 0
M  V30 674 C 70.5137 2.6393 2.44093 0
M  V30 675 C 70.1777 4.08195 2.05489 0
M  V30 676 C 71.1747 4.949 1.59279 0
M  V30 677 C 68.8597 4.53948 2.15026 0
M  V30 678 C 70.8537 6.25397 1.23113 0
M  V30 679 C 68.5407 5.84458 1.78473 0
M  V30 680 C 69.5387 6.70006 1.32591 0
M  V30 681 O 69.2267 7.98083 0.965327 0
M  V30 682 H 68.9587 0.550429 0.392434 0
M  V30 683 H 71.5127 1.96325 0.603801 0
M  V30 684 H 69.7427 2.25449 3.14181 0
M  V30 685 H 71.4317 2.66552 3.06113 0
M  V30 686 H 72.1977 4.60779 1.51354 0
M  V30 687 H 68.0767 3.87525 2.4969 0
M  V30 688 H 71.6207 6.92125 0.872299 0
M  V30 689 H 67.5177 6.18107 1.86048 0
M  V30 690 H 68.2857 8.11122 1.09652 0
M  V30 691 N 70.9488 -0.749086 1.3866 0
M  V30 692 C 71.8588 -1.89358 1.38494 0
M  V30 693 C 72.8748 -1.71708 0.281476 0
M  V30 694 O 74.0508 -1.94554 0.520643 0
M  V30 695 C 71.1158 -3.24782 1.21316 0
M  V30 696 C 70.1768 -3.54926 2.41508 0
M  V30 697 C 69.4098 -4.83888 2.2514 0
M  V30 698 O 69.6328 -5.56592 1.24746 0
M  V30 699 O 68.5668 -5.13612 3.13826 0
M  V30 700 H 72.3928 -1.92452 2.34938 0
M  V30 701 H 69.9778 -0.894981 1.19626 0
M  V30 702 H 71.8598 -4.05739 1.13814 0
M  V30 703 H 70.5348 -3.2249 0.279592 0
M  V30 704 H 69.4418 -2.74112 2.54585 0
M  V30 705 H 70.7748 -3.61983 3.3351 0
M  V30 706 N 72.4269 -1.23603 -0.977757 0
M  V30 707 C 73.6729 -1.07129 -1.72195 0
M  V30 708 C 74.0059 0.390501 -1.90233 0
M  V30 709 O 73.2809 1.28902 -1.45653 0
M  V30 710 C 73.5639 -1.80031 -3.11867 0
M  V30 711 C 73.4169 -3.33899 -3.01383 0
M  V30 712 C 74.7359 -1.56492 -4.11337 0
M  V30 713 H 71.8549 -0.390571 -0.624999 0
M  V30 714 H 74.4969 -1.52142 -1.13811 0
M  V30 715 H 72.6469 -1.41768 -3.6171 0
M  V30 716 H 74.3189 -3.81699 -2.59043 0
M  V30 717 H 72.5619 -3.62796 -2.37827 0
M  V30 718 H 73.2329 -3.801 -4.00285 0
M  V30 719 H 75.7089 -1.89757 -3.70313 0
M  V30 720 H 74.5849 -2.09973 -5.07151 0
M  V30 721 H 74.8459 -0.500874 -4.39254 0
M  V30 722 N 73.905 1.17692 -1.04816 0
M  V30 723 C 74.855 2.1952 -0.616042 0
M  V30 724 C 75.839 1.57147 0.345485 0
M  V30 725 O 77.031 1.76245 0.163325 0
M  V30 726 C 74.16 3.43298 0.0116917 0
M  V30 727 C 73.246 4.12777 -0.973435 0
M  V30 728 N 73.637 4.5814 -2.14339 0
M  V30 729 C 71.935 4.38747 -0.80108 0
M  V30 730 C 72.636 5.11713 -2.7663 0
M  V30 731 N 71.612 5.03686 -2.04453 0
M  V30 732 H 75.414 2.52293 -1.5075 0
M  V30 733 H 72.928 1.3398 -0.917776 0
M  V30 734 H 74.925 4.15519 0.339006 0
M  V30 735 H 73.585 3.12018 0.898593 0
M  V30 736 H 74.596 4.52349 -2.52191 0
M  V30 737 H 71.273 4.17485 0.0350934 0
M  V30 738 H 72.663 5.56962 -3.75823 0
M  V30 739 N 75.3831 0.828654 1.34056 0
M  V30 740 C 76.6311 0.41863 1.97717 0
M  V30 741 C 76.9521 -1.02314 1.66002 0
M  V30 742 O 76.2221 -1.71119 0.953683 0
M  V30 743 H 74.8021 0.151809 0.731412 0
M  V30 744 H 77.4641 1.05936 1.63596 0
M  V30 745 H 76.5601 0.542318 3.07352 0
M  V30 746 N 76.8612 -1.46375 0.584142 0
M  V30 747 C 78.1102 -2.01585 0.0679741 0
M  V30 748 C 78.4232 -1.46109 -1.30045 0
M  V30 749 O 79.6292 -1.93148 -1.90804 0
M  V30 750 C 78.0852 -3.5983 0.0709207 0
M  V30 751 C 77.6932 -4.24303 1.43775 0
M  V30 752 C 79.4372 -4.22693 -0.391228 0
M  V30 753 C 77.3442 -5.74631 1.39834 0
M  V30 754 H 76.2742 -0.753689 0.0216421 0
M  V30 755 H 78.9252 -1.68093 0.736001 0
M  V30 756 H 77.3072 -3.90405 -0.663299 0
M  V30 757 H 78.4812 -4.05335 2.19181 0
M  V30 758 H 76.7962 -3.73539 1.84004 0
M  V30 759 H 79.3932 -5.3289 -0.439524 0
M  V30 760 H 79.7362 -3.91728 -1.40906 0
M  V30 761 H 80.2692 -3.96749 0.288974 0
M  V30 762 H 77.0082 -6.10258 2.39303 0
M  V30 763 H 76.5282 -5.95858 0.686505 0
M  V30 764 H 78.2072 -6.37375 1.11187 0
M  V30 765 N 78.3393 -0.321999 -1.54275 0
M  V30 766 C 79.5853 0.281461 -2.00837 0
M  V30 767 C 79.9183 1.51909 -1.20985 0
M  V30 768 O 79.1933 1.923 -0.291733 0
M  V30 769 C 79.4763 0.617162 -3.54772 0
M  V30 770 C 79.3293 -0.631064 -4.45351 0
M  V30 771 C 80.6483 1.43542 -4.16033 0
M  V30 772 H 77.7673 0.100826 -0.730071 0
M  V30 773 H 80.4093 -0.438268 -1.84876 0
M  V30 774 H 78.5593 1.23034 -3.68504 0
M  V30 775 H 80.2313 -1.26934 -4.43492 0
M  V30 776 H 78.4743 -1.26025 -4.15091 0
M  V30 777 H 79.1453 -0.351735 -5.50878 0
M  V30 778 H 81.6213 0.917134 -4.05867 0
M  V30 779 H 80.4973 1.63907 -5.23856 0
M  V30 780 H 80.7583 2.43108 -3.69257 0
M  V30 781 N 79.8174 1.5752 -0.0501392 0
M  V30 782 C 81.2334 1.56631 0.306402 0
M  V30 783 C 81.4334 1.0577 1.71508 0
M  V30 784 O 80.4894 0.713837 2.422 0
M  V30 785 C 81.8024 3.00393 0.135811 0
M  V30 786 C 83.3504 3.12315 0.206993 0
M  V30 787 C 83.8254 4.57954 0.064944 0
M  V30 788 N 85.3164 4.63041 0.121254 0
M  V30 789 C 86.0514 5.73389 0.0354381 0
M  V30 790 N 85.5474 6.92724 -0.102666 0
M  V30 791 N 87.3404 5.62026 0.090946 0
M  V30 792 H 79.4914 1.88903 -0.971046 0
M  V30 793 H 81.7544 0.869876 -0.376855 0
M  V30 794 H 81.4604 3.41635 -0.835384 0
M  V30 795 H 81.3344 3.66373 0.897275 0
M  V30 796 H 83.7214 2.70973 1.16866 0
M  V30 797 H 83.8024 2.49016 -0.585208 0
M  V30 798 H 83.4464 4.99981 -0.893394 0
M  V30 799 H 83.3764 5.19258 0.876277 0
M  V30 800 H 85.8674 3.77216 0.227284 0
M  V30 801 H 86.1804 7.72633 -0.160882 0
M  V30 802 H 84.5254 6.94864 -0.137737 0
M  V30 803 H 87.7164 4.67684 0.197388 0
M  V30 804 H 87.8894 6.47997 0.0206089 0
M  V30 805 N 81.2955 -0.223234 1.56011 0
M  V30 806 C 82.7115 -0.572856 1.48965 0
M  V30 807 C 82.9115 -1.87225 0.74492 0
M  V30 808 O 81.9675 -2.50899 0.283896 0
M  V30 809 C 83.2805 -0.653646 2.9351 0
M  V30 810 C 84.8285 -0.744386 3.0402 0
M  V30 811 C 85.3035 -0.856535 4.49919 0
M  V30 812 N 86.7945 -0.9208 4.53955 0
M  V30 813 C 87.5295 -1.02726 5.64123 0
M  V30 814 N 87.0255 -1.09777 6.84047 0
M  V30 815 N 88.8185 -1.06226 5.51971 0
M  V30 816 H 80.9695 0.629462 2.02858 0
M  V30 817 H 83.2325 0.220621 0.921971 0
M  V30 818 H 82.9385 0.231518 3.50937 0
M  V30 819 H 82.8125 -1.51781 3.45315 0
M  V30 820 H 85.1995 -1.61999 2.46658 0
M  V30 821 H 85.2805 0.14541 2.55386 0
M  V30 822 H 84.9245 0.0146069 5.07898 0
M  V30 823 H 84.8545 -1.76172 4.96257 0
M  V30 824 H 87.3455 -0.876694 3.6759 0
M  V30 825 H 87.6585 -1.17872 7.63758 0
M  V30 826 H 86.0035 -1.06693 6.86762 0
M  V30 827 H 89.1945 -1.00382 4.5721 0
M  V30 828 H 89.3675 -1.14177 6.37862 0
M  V30 829 N 82.7736 -1.49793 -0.48987 0
M  V30 830 C 83.9986 -1.63836 -1.27172 0
M  V30 831 C 84.4236 -0.31402 -1.8546 0
M  V30 832 O 83.7816 0.719803 -1.66399 0
M  V30 833 C 83.8296 -2.71797 -2.36978 0
M  V30 834 O 82.9336 -2.31744 -3.41128 0
M  V30 835 H 82.2746 -0.547997 -0.37496 0
M  V30 836 H 84.8046 -1.96053 -0.585191 0
M  V30 837 H 84.8146 -2.94305 -2.82575 0
M  V30 838 H 83.4896 -3.67923 -1.93921 0
M  V30 839 H 82.0666 -2.1961 -3.01373 0
M  V30 840 N 84.2517 0.741722 -1.39055 0
M  V30 841 C 85.4767 1.53607 -1.39354 0
M  V30 842 C 85.9017 1.88096 0.0116905 0
M  V30 843 O 85.2597 1.5143 0.996924 0
M  V30 844 C 85.3077 2.80441 -2.26682 0
M  V30 845 O 84.4117 3.76088 -1.69208 0
M  V30 846 H 83.7527 0.464142 -0.474835 0
M  V30 847 H 86.2827 0.915665 -1.82967 0
M  V30 848 H 86.2927 3.29246 -2.40959 0
M  V30 849 H 84.9677 2.5467 -3.2881 0
M  V30 850 H 83.5447 3.34833 -1.64138 0
M  V30 851 N 85.7298 1.2412 0.971189 0
M  V30 852 C 86.9548 1.10667 1.75407 0
M  V30 853 C 87.3798 -0.337048 1.85056 0
M  V30 854 O 86.7378 -1.24396 1.31892 0
M  V30 855 C 86.7858 1.74726 3.15441 0
M  V30 856 O 85.8898 1.01566 3.99697 0
M  V30 857 H 85.2308 0.387341 0.539317 0
M  V30 858 H 87.7608 1.64358 1.2185 0
M  V30 859 H 87.7708 1.80341 3.6598 0
M  V30 860 H 86.4458 2.79773 3.07734 0
M  V30 861 H 85.0228 1.03713 3.58187 0
M  V30 862 N 87.2079 -1.17134 1.05439 0
M  V30 863 C 88.4549 -1.87456 0.765942 0
M  V30 864 C 88.7829 -1.81189 -0.707153 0
M  V30 865 O 88.0379 -1.21633 -1.5331 0
M  V30 866 C 88.3369 -3.36833 1.19491 0
M  V30 867 C 88.0029 -3.63301 2.67063 0
M  V30 868 C 86.6649 -3.70234 3.07376 0
M  V30 869 C 89.0169 -3.74575 3.62413 0
M  V30 870 C 86.3449 -3.85933 4.41896 0
M  V30 871 C 88.6969 -3.91793 4.9667 0
M  V30 872 C 87.3609 -3.96966 5.36633 0
M  V30 873 H 86.6309 -0.685948 0.280278 0
M  V30 874 H 89.2779 -1.38556 1.32192 0
M  V30 875 H 87.5829 -3.87807 0.557969 0
M  V30 876 H 89.2799 -3.89611 0.948893 0
M  V30 877 H 85.8699 -3.58532 2.34846 0
M  V30 878 H 90.0539 -3.68537 3.32406 0
M  V30 879 H 85.3099 -3.88187 4.72357 0
M  V30 880 H 89.4839 -3.99458 5.70444 0
M  V30 881 H 87.1109 -4.08883 6.40874 0
M  V30 882 N 88.686 -0.835752 -1.33615 0
M  V30 883 C 89.634 -0.255238 -2.31195 0
M  V30 884 C 90.628 0.61107 -1.57995 0
M  V30 885 O 91.834 0.500979 -1.72888 0
M  V30 886 H 88.209 -0.0638085 -0.749288 0
M  V30 887 H 90.18 -1.09283 -2.77669 0
M  V30 888 C 88.929 0.55754 -3.43201 0
M  V30 889 H 88.252 -0.0997553 -3.99676 0
M  V30 890 H 89.692 0.929622 -4.13683 0
M  V30 891 C 88.151 1.73515 -2.88781 0
M  V30 892 O 88.681 2.83376 -2.84712 0
M  V30 893 N 86.887 1.55603 -2.4543 0
M  V30 894 H 86.434 0.662354 -2.48939 0
M  V30 895 H 86.392 2.34545 -2.09371 0
M  V30 896 N 90.1641 1.46063 -0.591896 0
M  V30 897 C 91.3921 2.06717 -0.0868936 0
M  V30 898 C 91.8071 1.43916 1.22203 0
M  V30 899 O 91.1641 0.547698 1.74088 0
M  V30 900 C 91.2151 3.6142 0.0758725 0
M  V30 901 O 90.9361 4.21874 -1.18126 0
M  V30 902 C 92.4371 4.39025 0.61416 0
M  V30 903 H 89.6571 0.668162 -0.0616518 0
M  V30 904 H 92.2011 1.8755 -0.815175 0
M  V30 905 H 90.3561 3.79983 0.754413 0
M  V30 906 H 90.7701 5.14861 -1.00092 0
M  V30 907 H 92.2441 5.4783 0.677193 0
M  V30 908 H 92.7211 4.07708 1.63312 0
M  V30 909 H 93.3271 4.2529 -0.0298142 0
M  V30 910 N 91.6422 0.330177 1.54103 0
M  V30 911 C 92.8902 -0.269871 2.0029 0
M  V30 912 C 93.2112 -1.52133 1.21986 0
M  V30 913 O 92.4812 -1.93212 0.323438 0
M  V30 914 H 91.0612 -0.10271 0.739905 0
M  V30 915 H 93.7232 0.448249 1.89675 0
M  V30 916 H 92.8192 -0.52166 3.07709 0
M  V30 917 N 93.1203 -1.57491 0.0584922 0
M  V30 918 C 94.5363 -1.56792 -0.298091 0
M  V30 919 C 94.7363 -1.06679 -1.70944 0
M  V30 920 O 93.7923 -0.726672 -2.41818 0
M  V30 921 C 95.1053 -3.00461 -0.119879 0
M  V30 922 C 96.6533 -3.1242 -0.190428 0
M  V30 923 C 97.1283 -4.57982 -0.0406567 0
M  V30 924 N 98.6193 -4.63099 -0.0966958 0
M  V30 925 C 99.3543 -5.734 -0.00502943 0
M  V30 926 N 98.8503 -6.9266 0.139402 0
M  V30 927 N 100.643 -5.62067 -0.0611391 0
M  V30 928 H 92.7943 -1.88386 0.98105 0
M  V30 929 H 95.0573 -0.867865 0.381463 0
M  V30 930 H 94.7633 -3.41187 0.85349 0
M  V30 931 H 94.6373 -3.66843 -0.877833 0
M  V30 932 H 97.0243 -2.71589 -1.15427 0
M  V30 933 H 97.1053 -2.48702 0.598405 0
M  V30 934 H 96.7493 -4.995 0.919897 0
M  V30 935 H 96.6793 -5.19715 -0.848727 0
M  V30 936 H 99.1703 -3.77331 -0.207277 0
M  V30 937 H 99.4833 -7.72536 0.201855 0
M  V30 938 H 97.8283 -6.94781 0.174586 0
M  V30 939 H 101.019 -4.67782 -0.172583 0
M  V30 940 H 101.192 -6.47999 0.0137562 0
M  V30 941 N 94.5984 0.214957 -1.56127 0
M  V30 942 C 95.8474 0.936451 -1.78643 0
M  V30 943 C 96.1604 1.85237 -0.628229 0
M  V30 944 O 97.3664 2.613 -0.737186 0
M  V30 945 C 95.8224 1.7154 -3.16389 0
M  V30 946 C 95.4304 0.845299 -4.39953 0
M  V30 947 C 97.1744 2.42772 -3.48227 0
M  V30 948 C 95.0814 1.62198 -5.68723 0
M  V30 949 H 94.0114 0.353401 -0.666051 0
M  V30 950 H 96.6624 0.190169 -1.82512 0
M  V30 951 H 95.0444 2.50484 -3.06715 0
M  V30 952 H 96.2184 0.0959353 -4.607 0
M  V30 953 H 94.5334 0.244789 -4.1568 0
M  V30 954 H 97.1304 3.01394 -4.41663 0
M  V30 955 H 97.4734 3.15984 -2.71035 0
M  V30 956 H 98.0064 1.70813 -3.5926 0
M  V30 957 H 94.7454 0.933011 -6.48826 0
M  V30 958 H 94.2654 2.34579 -5.52026 0
M  V30 959 H 95.9444 2.18095 -6.09133 0
M  V30 960 N 96.0765 1.50051 0.48192 0
M  V30 961 C 96.9865 1.7089 1.60728 0
M  V30 962 C 98.0025 0.591788 1.63627 0
M  V30 963 O 99.1785 0.868817 1.81696 0
M  V30 964 C 96.2435 1.78855 2.97005 0
M  V30 965 C 95.3045 3.02537 3.04581 0
M  V30 966 C 94.5375 3.10112 4.34357 0
M  V30 967 O 94.7605 2.24765 5.24249 0
M  V30 968 O 93.6945 4.02747 4.47301 0
M  V30 969 H 97.5205 2.66264 1.46072 0
M  V30 970 H 95.1055 1.34018 0.660264 0
M  V30 971 H 96.9875 1.86336 3.77964 0
M  V30 972 H 95.6625 0.866628 3.11883 0
M  V30 973 H 94.5695 3.00563 2.22739 0
M  V30 974 H 95.9025 3.94272 2.94636 0
M  V30 975 N 97.5546 -0.734337 1.39446 0
M  V30 976 C 98.5046 -1.83949 1.34709 0
M  V30 977 C 99.4886 -1.59279 0.227851 0
M  V30 978 O 100.681 -1.70771 0.465438 0
M  V30 979 C 97.8096 -3.21884 1.19356 0
M  V30 980 C 96.8956 -3.52381 2.35984 0
M  V30 981 N 97.2866 -3.53811 3.61457 0
M  V30 982 C 95.5846 -3.82747 2.28956 0
M  V30 983 C 96.2856 -3.82122 4.38586 0
M  V30 984 N 95.2616 -3.9993 3.68181 0
M  V30 985 H 99.0636 -1.83361 2.29687 0
M  V30 986 H 96.5776 -0.932609 1.32952 0
M  V30 987 H 98.5746 -4.00998 1.14046 0
M  V30 988 H 97.2346 -3.23711 0.253295 0
M  V30 989 H 98.2456 -3.35107 3.94872 0
M  V30 990 H 94.9226 -3.92175 1.43194 0
M  V30 991 H 96.3126 -3.89691 5.47349 0
M  V30 992 N 99.0327 -1.24633 -0.964593 0
M  V30 993 C 99.9627 -1.06611 -2.07741 0
M  V30 994 C 100.944 0.0218666 -1.70086 0
M  V30 995 O 102.129 -0.145793 -1.93652 0
M  V30 996 C 99.2587 -0.673444 -3.40708 0
M  V30 997 C 98.2127 -1.71054 -3.92332 0
M  V30 998 C 97.5387 -1.17285 -5.21678 0
M  V30 999 C 98.8387 -3.10718 -4.19824 0
M  V30 1000 H 100.533 -1.99693 -2.23076 0
M  V30 1001 H 98.0787 -0.96152 -1.07195 0
M  V30 1002 H 100.032 -0.534345 -4.17998 0
M  V30 1003 H 98.7557 0.293073 -3.25282 0
M  V30 1004 H 97.4147 -1.83791 -3.17201 0
M  V30 1005 H 97.0627 -0.196847 -5.02615 0
M  V30 1006 H 96.7627 -1.86592 -5.57187 0
M  V30 1007 H 98.2867 -1.04593 -6.01575 0
M  V30 1008 H 99.7007 -3.01192 -4.87808 0
M  V30 1009 H 98.0977 -3.77406 -4.66567 0
M  V30 1010 H 99.1677 -3.58524 -3.26479 0
M  V30 1011 N 100.511 1.16574 -1.06058 0
M  V30 1012 C 101.741 1.90675 -0.795397 0
M  V30 1013 C 102.149 1.77547 0.653735 0
M  V30 1014 O 101.492 1.11611 1.45907 0
M  V30 1015 C 101.554 3.42011 -1.10764 0
M  V30 1016 C 101.218 3.78924 -2.55471 0
M  V30 1017 C 102.215 3.81042 -3.53699 0
M  V30 1018 C 99.8998 4.09626 -2.90708 0
M  V30 1019 C 101.894 4.13346 -4.85205 0
M  V30 1020 C 99.5808 4.41597 -4.22416 0
M  V30 1021 C 100.579 4.43436 -5.19474 0
M  V30 1022 O 100.267 4.74649 -6.48817 0
M  V30 1023 H 99.9988 0.611554 -0.288058 0
M  V30 1024 H 102.553 1.48711 -1.41683 0
M  V30 1025 H 100.783 3.84312 -0.429128 0
M  V30 1026 H 102.472 3.97384 -0.827077 0
M  V30 1027 H 103.238 3.57437 -3.27817 0
M  V30 1028 H 99.1168 4.07361 -2.15819 0
M  V30 1029 H 102.661 4.14696 -5.60957 0
M  V30 1030 H 98.5578 4.64667 -4.48056 0
M  V30 1031 H 99.3258 4.9247 -6.5377 0
M  V30 1032 N 101.989 0.842826 1.3317 0
M  V30 1033 C 102.936 0.276885 2.29133 0
M  V30 1034 C 103.906 -0.609527 1.54512 0
M  V30 1035 O 105.091 -0.546955 1.82792 0
M  V30 1036 C 102.231 -0.538707 3.40869 0
M  V30 1037 C 101.344 0.372169 4.30394 0
M  V30 1038 C 100.479 -0.454908 5.29249 0
M  V30 1039 C 99.5179 0.45411 6.10413 0
M  V30 1040 N 98.6549 -0.335075 7.013 0
M  V30 1041 H 103.495 1.10052 2.76934 0
M  V30 1042 H 101.032 0.554161 1.36262 0
M  V30 1043 H 102.99 -1.02709 4.0436 0
M  V30 1044 H 101.62 -1.32727 2.9425 0
M  V30 1045 H 100.672 0.97888 3.6759 0
M  V30 1046 H 101.984 1.0703 4.87182 0
M  V30 1047 H 101.138 -1.00695 5.98285 0
M  V30 1048 H 99.8769 -1.18646 4.73048 0
M  V30 1049 H 98.8819 1.01813 5.40291 0
M  V30 1050 H 100.107 1.18409 6.68697 0
M  V30 1051 H 98.0529 -1.04994 6.47543 0
M  V30 1052 H 97.9699 0.304262 7.55387 0
M  V30 1053 H 99.2379 -0.869224 7.74638 0
M  V30 1054 N 103.467 -1.45747 0.599634 0
M  V30 1055 C 104.415 -2.322 -0.136426 0
M  V30 1056 C 105.409 -1.45497 -0.867583 0
M  V30 1057 O 106.615 -1.62027 -0.78405 0
M  V30 1058 H 102.99 -0.749368 -0.0628588 0
M  V30 1059 H 104.961 -2.92072 0.611281 0
M  V30 1060 C 103.71 -3.28974 -1.12567 0
M  V30 1061 H 103.033 -3.9568 -0.572484 0
M  V30 1062 H 104.473 -3.92212 -1.61077 0
M  V30 1063 C 102.932 -2.55561 -2.19523 0
M  V30 1064 O 103.462 -2.33111 -3.27143 0
M  V30 1065 N 101.668 -2.15832 -1.94589 0
M  V30 1066 H 101.215 -2.3429 -1.07078 0
M  V30 1067 H 101.173 -1.67034 -2.66359 0
M  V30 1068 N 104.945 -0.338344 -1.53925 0
M  V30 1069 C 106.356 0.146651 -1.86123 0
M  V30 1070 C 106.707 1.5042 -1.2597 0
M  V30 1071 O 105.832 2.08723 -0.571294 0
M  V30 1072 C 106.427 0.272879 -3.37699 0
M  V30 1073 C 104.986 0.702103 -3.69794 0
M  V30 1074 C 104.133 -0.167304 -2.76795 0
M  V30 1075 H 107.084 -0.558123 -1.48562 0
M  V30 1076 H 107.105 1.10128 -3.64214 0
M  V30 1077 H 106.617 -0.715307 -3.81451 0
M  V30 1078 H 104.718 1.6995 -3.31584 0
M  V30 1079 H 104.831 0.495604 -4.7653 0
M  V30 1080 H 103.195 0.359527 -2.5215 0
M  V30 1081 H 103.978 -1.15253 -3.23375 0
M  V30 1082 N 106.423 1.57458 -0.0668435 0
M  V30 1083 C 107.355 2.09413 0.931601 0
M  V30 1084 C 108.368 1.02522 1.26464 0
M  V30 1085 O 109.557 1.30049 1.22269 0
M  V30 1086 C 106.657 2.53537 2.24882 0
M  V30 1087 C 105.83 3.83944 2.09537 0
M  V30 1088 C 104.889 4.14214 3.2452 0
M  V30 1089 O 103.915 4.83891 2.9973 0
M  V30 1090 N 105.117 3.67367 4.49469 0
M  V30 1091 H 107.882 2.95699 0.488048 0
M  V30 1092 H 105.443 1.61462 0.119009 0
M  V30 1093 H 107.435 2.70853 3.00701 0
M  V30 1094 H 106.005 1.72415 2.60753 0
M  V30 1095 H 105.225 3.76057 1.18215 0
M  V30 1096 H 106.513 4.69312 1.96529 0
M  V30 1097 H 105.911 3.11068 4.72497 0
M  V30 1098 H 104.468 3.89891 5.2233 0
M  V30 1099 N 107.901 -0.206675 1.56239 0
M  V30 1100 C 108.864 -1.23976 1.92776 0
M  V30 1101 C 109.864 -1.39041 0.807729 0
M  V30 1102 O 111.054 -1.37051 1.0753 0
M  V30 1103 C 108.186 -2.61112 2.19165 0
M  V30 1104 H 109.379 -0.927764 2.85189 0
M  V30 1105 H 106.932 -0.447718 1.4975 0
M  V30 1106 H 107.667 -2.97386 1.29352 0
M  V30 1107 H 107.452 -2.51552 3.00772 0
M  V30 1108 H 108.942 -3.35633 2.48476 0
M  V30 1109 N 109.379 -1.50304 -0.473955 0
M  V30 1110 C 110.329 -1.65347 -1.56985 0
M  V30 1111 C 111.313 -0.508176 -1.52664 0
M  V30 1112 O 112.505 -0.762446 -1.59737 0
M  V30 1113 C 109.634 -1.74832 -2.95447 0
M  V30 1114 C 108.72 -2.95028 -3.04662 0
M  V30 1115 N 109.111 -4.18747 -2.83698 0
M  V30 1116 C 107.409 -2.93527 -3.35795 0
M  V30 1117 C 108.11 -4.99687 -2.97805 0
M  V30 1118 N 107.086 -4.33585 -3.2788 0
M  V30 1119 H 110.888 -2.58698 -1.39472 0
M  V30 1120 H 108.402 -1.47449 -0.680629 0
M  V30 1121 H 110.399 -1.83712 -3.7424 0
M  V30 1122 H 109.059 -0.826376 -3.14008 0
M  V30 1123 H 110.07 -4.48291 -2.59337 0
M  V30 1124 H 106.747 -2.10821 -3.60362 0
M  V30 1125 H 108.137 -6.08057 -2.85861 0
M  V30 1126 N 110.857 0.726932 -1.39834 0
M  V30 1127 C 112.106 1.48214 -1.36805 0
M  V30 1128 C 112.419 1.95576 0.0305291 0
M  V30 1129 O 113.625 2.7088 0.183417 0
M  V30 1130 C 112.081 2.67854 -2.40379 0
M  V30 1131 C 111.689 2.27408 -3.85992 0
M  V30 1132 C 113.433 3.45641 -2.46439 0
M  V30 1133 C 111.34 3.43819 -4.81189 0
M  V30 1134 H 110.27 0.556606 -0.508631 0
M  V30 1135 H 112.921 0.792216 -1.65518 0
M  V30 1136 H 111.303 3.3896 -2.04749 0
M  V30 1137 H 112.477 1.63795 -4.30706 0
M  V30 1138 H 110.792 1.62692 -3.83302 0
M  V30 1139 H 113.389 4.32244 -3.14753 0
M  V30 1140 H 113.732 3.88669 -1.49139 0
M  V30 1141 H 114.265 2.8157 -2.81004 0
M  V30 1142 H 111.004 3.05834 -5.79781 0
M  V30 1143 H 110.524 4.06385 -4.41148 0
M  V30 1144 H 112.203 4.10043 -5.00474 0
M  V30 1145 N 112.336 1.25143 0.95797 0
M  V30 1146 C 113.246 1.06968 2.08794 0
M  V30 1147 C 114.262 0.00773911 1.73998 0
M  V30 1148 O 115.438 0.207972 2.00323 0
M  V30 1149 C 112.503 0.68691 3.39827 0
M  V30 1150 C 111.564 1.82641 3.88511 0
M  V30 1151 C 110.797 1.46181 5.1329 0
M  V30 1152 O 111.02 0.355971 5.69288 0
M  V30 1153 O 109.954 2.29085 5.566 0
M  V30 1154 H 113.78 2.01723 2.27027 0
M  V30 1155 H 111.365 1.04051 1.07209 0
M  V30 1156 H 113.247 0.485417 4.18595 0
M  V30 1157 H 111.922 -0.231417 3.22872 0
M  V30 1158 H 110.829 2.08274 3.10762 0
M  V30 1159 H 112.162 2.72386 4.09959 0
M  V30 1160 N 113.814 -1.1601 1.06675 0
M  V30 1161 C 115.062 -1.86264 0.784229 0
M  V30 1162 C 115.383 -1.82328 -0.691488 0
M  V30 1163 O 114.653 -1.25947 -1.50047 0
M  V30 1164 H 113.233 -0.689621 0.28711 0
M  V30 1165 H 115.895 -1.40664 1.34906 0
M  V30 1166 H 114.991 -2.91595 1.11259 0
M  V30 1167 N 115.292 -0.849877 -1.32721 0
M  V30 1168 C 116.24 -0.279745 -2.30912 0
M  V30 1169 C 117.234 0.594278 -1.58634 0
M  V30 1170 O 118.44 0.482613 -1.73409 0
M  V30 1171 H 114.815 -0.0717521 -0.748569 0
M  V30 1172 H 116.786 -1.12222 -2.76494 0
M  V30 1173 C 115.535 0.521108 -3.43773 0
M  V30 1174 H 114.858 -0.142141 -3.99547 0
M  V30 1175 H 116.298 0.885693 -4.14646 0
M  V30 1176 C 114.757 1.70442 -2.90605 0
M  V30 1177 O 115.287 2.8034 -2.87702 0
M  V30 1178 N 113.493 1.52991 -2.47067 0
M  V30 1179 H 113.04 0.635914 -2.49628 0
M  V30 1180 H 112.998 2.32311 -2.11847 0
M  V30 1181 N 116.77 1.45427 -0.607355 0
M  V30 1182 C 117.703 2.27635 0.160482 0
M  V30 1183 C 118.681 1.37122 0.873857 0
M  V30 1184 O 119.865 1.66551 0.882775 0
M  V30 1185 C 116.992 3.15486 1.23231 0
M  V30 1186 C 116.038 4.21939 0.622097 0
M  V30 1187 S 116.871 5.32459 -0.569852 0
M  V30 1188 C 118.027 6.23879 0.502577 0
M  V30 1189 H 118.26 2.9241 -0.536983 0
M  V30 1190 H 115.793 1.49265 -0.394868 0
M  V30 1191 H 117.751 3.66659 1.84585 0
M  V30 1192 H 116.412 2.49977 1.90185 0
M  V30 1193 H 115.605 4.8333 1.42856 0
M  V30 1194 H 115.207 3.73906 0.0837063 0
M  V30 1195 H 117.499 6.63261 1.38171 0
M  V30 1196 H 118.442 7.0806 -0.0751759 0
M  V30 1197 H 118.85 5.58545 0.8178 0
M  V30 1198 N 118.248 0.346503 1.53744 0
M  V30 1199 C 119.195 -0.508914 2.25119 0
M  V30 1200 C 120.165 -1.09315 1.25058 0
M  V30 1201 O 121.35 -1.12921 1.53797 0
M  V30 1202 C 118.49 -1.65246 3.02965 0
M  V30 1203 C 117.603 -1.09525 4.17886 0
M  V30 1204 C 116.738 -2.20634 4.83212 0
M  V30 1205 C 115.777 -1.62279 5.90196 0
M  V30 1206 N 114.914 -2.67143 6.49291 0
M  V30 1207 H 119.754 0.106283 2.9781 0
M  V30 1208 H 117.291 0.0642227 1.4696 0
M  V30 1209 H 119.249 -2.32574 3.4636 0
M  V30 1210 H 117.879 -2.2386 2.32565 0
M  V30 1211 H 116.931 -0.312818 3.79112 0
M  V30 1212 H 118.243 -0.628444 4.94825 0
M  V30 1213 H 117.397 -2.95821 5.29693 0
M  V30 1214 H 116.136 -2.70659 4.05703 0
M  V30 1215 H 115.141 -0.855989 5.43096 0
M  V30 1216 H 116.366 -1.13102 6.69615 0
M  V30 1217 H 114.312 -3.16417 5.74645 0
M  V30 1218 H 114.229 -2.25093 7.21713 0
M  V30 1219 H 115.497 -3.4209 7.00425 0
M  V30 1220 N 119.726 -1.57421 0.075193 0
M  V30 1221 C 120.656 -2.15942 -0.888324 0
M  V30 1222 C 121.637 -1.08737 -1.30806 0
M  V30 1223 O 122.822 -1.36787 -1.37851 0
M  V30 1224 C 119.952 -2.72379 -2.1547 0
M  V30 1225 C 118.906 -3.8478 -1.87425 0
M  V30 1226 C 118.232 -4.27834 -3.20721 0
M  V30 1227 C 119.532 -5.08869 -1.17684 0
M  V30 1228 H 121.226 -2.96705 -0.400799 0
M  V30 1229 H 118.772 -1.42723 -0.191342 0
M  V30 1230 H 120.725 -3.11965 -2.83295 0
M  V30 1231 H 119.449 -1.88841 -2.6647 0
M  V30 1232 H 118.108 -3.45703 -1.22004 0
M  V30 1233 H 117.756 -3.41214 -3.6957 0
M  V30 1234 H 117.456 -5.03605 -3.02746 0
M  V30 1235 H 118.98 -4.70039 -3.89738 0
M  V30 1236 H 120.394 -5.4575 -1.75584 0
M  V30 1237 H 118.791 -5.8994 -1.09956 0
M  V30 1238 H 119.861 -4.84648 -0.156453 0
M  V30 1239 N 121.204 0.198386 -1.56346 0
M  V30 1240 C 122.154 1.2499 -1.90687 0
M  V30 1241 C 123.138 1.41158 -0.772217 0
M  V30 1242 O 124.33 1.43584 -1.03502 0
M  V30 1243 C 121.459 2.59542 -2.24706 0
M  V30 1244 C 120.545 2.47181 -3.44619 0
M  V30 1245 N 120.936 2.04495 -4.62618 0
M  V30 1246 C 119.234 2.78082 -3.48692 0
M  V30 1247 C 119.935 2.03945 -5.44776 0
M  V30 1248 N 118.911 2.45323 -4.85095 0
M  V30 1249 H 122.713 0.911149 -2.7942 0
M  V30 1250 H 120.227 0.40684 -1.57221 0
M  V30 1251 H 122.224 3.3549 -2.47491 0
M  V30 1252 H 120.884 2.94244 -1.37298 0
M  V30 1253 H 121.895 1.75256 -4.87345 0
M  V30 1254 H 118.572 3.17002 -2.71691 0
M  V30 1255 H 119.962 1.72872 -6.4928 0
M  V30 1256 N 122.682 1.50554 0.465978 0
M  V30 1257 C 123.912 1.65323 1.23903 0
M  V30 1258 C 124.32 0.338051 1.86155 0
M  V30 1259 O 123.663 -0.690518 1.70228 0
M  V30 1260 C 123.725 2.69048 2.3844 0
M  V30 1261 C 123.389 4.12462 1.96784 0
M  V30 1262 C 124.386 4.98168 1.48745 0
M  V30 1263 C 122.071 4.58407 2.05349 0
M  V30 1264 C 124.065 6.27868 1.0982 0
M  V30 1265 C 121.752 5.88112 1.66035 0
M  V30 1266 C 122.75 6.72668 1.18349 0
M  V30 1267 O 122.438 7.99951 0.795825 0
M  V30 1268 H 122.17 0.558629 0.38067 0
M  V30 1269 H 124.724 1.97561 0.562022 0
M  V30 1270 H 122.954 2.32062 3.09328 0
M  V30 1271 H 124.643 2.72985 3.0039 0
M  V30 1272 H 125.409 4.63885 1.41546 0
M  V30 1273 H 121.288 3.92735 2.41414 0
M  V30 1274 H 124.832 6.93819 0.725293 0
M  V30 1275 H 120.729 6.21914 1.72895 0
M  V30 1276 H 121.497 8.13265 0.924222 0
M  V30 1277 N 124.16 -0.719506 1.40217 0
M  V30 1278 C 125.408 -1.47641 1.3801 0
M  V30 1279 C 125.729 -1.94992 -0.018145 0
M  V30 1280 O 124.999 -1.70073 -0.972207 0
M  V30 1281 H 123.579 -0.547744 0.507923 0
M  V30 1282 H 126.241 -0.853187 1.75233 0
M  V30 1283 H 125.337 -2.35112 2.05253 0
M  V30 1284 N 125.638 -1.25649 -0.95132 0
M  V30 1285 C 126.915 -1.01361 -1.67288 0
M  V30 1286 C 127.295 0.459135 -2.06046 0
M  V30 1287 O 126.643 1.43723 -1.7764 0
M  V30 1288 C 126.853 -1.95256 -2.89268 0
M  V30 1289 C 128.201 -2.23289 -3.61147 0
M  V30 1290 O 129.225 -1.93041 -2.99355 0
M  V30 1291 O 128.084 -2.74741 -4.72419 0
M  V30 1292 H 125.178 -0.38464 -0.732107 0
M  V30 1293 H 127.724 -1.36817 -1.00395 0
M  V30 1294 H 126.496 -2.94685 -2.57442 0
M  V30 1295 H 126.119 -1.60218 -3.6389 0
M  V30 1296 N 127.117 1.15442 -1.07289 0
M  V30 1297 C 128.047 2.22312 -0.714107 0
M  V30 1298 C 129.028 1.67467 0.298155 0
M  V30 1299 O 130.213 1.93445 0.171048 0
M  V30 1300 C 127.343 3.47124 -0.110448 0
M  V30 1301 C 126.297 4.14926 -1.04979 0
M  V30 1302 C 125.623 5.33807 -0.308924 0
M  V30 1303 C 126.923 4.64762 -2.38314 0
M  V30 1304 H 128.617 2.5258 -1.6076 0
M  V30 1305 H 126.163 1.21404 -0.77441 0
M  V30 1306 H 128.116 4.21124 0.152482 0
M  V30 1307 H 126.84 3.16187 0.81812 0
M  V30 1308 H 125.499 3.42866 -1.29764 0
M  V30 1309 H 125.147 4.99126 0.623084 0
M  V30 1310 H 124.847 5.80113 -0.935036 0
M  V30 1311 H 126.371 6.10576 -0.0537771 0
M  V30 1312 H 127.785 5.30292 -2.1786 0
M  V30 1313 H 126.182 5.21728 -2.96514 0
M  V30 1314 H 127.252 3.80434 -3.00663 0
M  V30 1315 N 128.595 0.856903 1.32268 0
M  V30 1316 C 129.823 0.475439 2.01363 0
M  V30 1317 C 130.238 -0.928486 1.64392 0
M  V30 1318 O 129.595 -1.60624 0.866387 0
M  V30 1319 C 129.646 0.607545 3.56358 0
M  V30 1320 O 129.367 1.95617 3.92002 0
M  V30 1321 C 130.868 0.225382 4.42727 0
M  V30 1322 H 128.088 0.186636 0.644521 0
M  V30 1323 H 130.632 1.15446 1.68797 0
M  V30 1324 H 128.787 -0.0237719 3.87393 0
M  V30 1325 H 129.201 1.95455 4.86721 0
M  V30 1326 H 130.675 0.368813 5.50767 0
M  V30 1327 H 131.152 -0.834369 4.31202 0
M  V30 1328 H 131.758 0.831864 4.17085 0
M  V30 1329 N 130.073 -1.45103 0.615059 0
M  V30 1330 C 131.35 -1.95549 0.0448276 0
M  V30 1331 C 131.73 -1.55737 -1.4251 0
M  V30 1332 O 131.078 -0.823556 -2.13143 0
M  V30 1333 C 131.288 -3.48098 0.250785 0
M  V30 1334 C 132.636 -4.24384 0.135509 0
M  V30 1335 O 133.66 -3.55738 0.181299 0
M  V30 1336 O 132.519 -5.46493 0.0268878 0
M  V30 1337 H 129.613 -0.8264 -0.0314845 0
M  V30 1338 H 132.159 -1.55232 0.685642 0
M  V30 1339 H 130.931 -3.7007 1.27139 0
M  V30 1340 H 130.554 -3.95323 -0.424937 0
M  V30 1341 N 131.551 -0.354651 -1.53558 0
M  V30 1342 C 132.776 0.242153 -2.05981 0
M  V30 1343 C 133.201 1.42553 -1.2272 0
M  V30 1344 O 132.559 1.79656 -0.243604 0
M  V30 1345 C 132.607 0.624367 -3.55154 0
M  V30 1346 O 131.711 1.72301 -3.74681 0
M  V30 1347 H 131.052 0.0378432 -0.662921 0
M  V30 1348 H 133.582 -0.512087 -1.98088 0
M  V30 1349 H 133.592 0.898433 -3.97985 0
M  V30 1350 H 132.267 -0.240989 -4.15201 0
M  V30 1351 H 130.844 1.44535 -3.4375 0
M  V30 1352 N 133.029 1.57378 -0.0835403 0
M  V30 1353 C 134.257 1.98263 0.59157 0
M  V30 1354 C 134.672 0.962302 1.62435 0
M  V30 1355 O 134.029 -0.049581 1.82433 0
M  V30 1356 C 134.08 3.39214 1.24965 0
M  V30 1357 O 133.801 4.37339 0.258186 0
M  V30 1358 C 135.302 3.95038 2.01147 0
M  V30 1359 H 132.522 0.651773 0.159477 0
M  V30 1360 H 135.066 2.03878 -0.159415 0
M  V30 1361 H 133.221 3.34649 1.95164 0
M  V30 1362 H 133.635 5.19371 0.731734 0
M  V30 1363 H 135.109 4.95848 2.42567 0
M  V30 1364 H 135.586 3.32222 2.87272 0
M  V30 1365 H 136.192 4.0304 1.35789 0
M  V30 1366 N 134.507 -0.190092 1.56449 0
M  V30 1367 C 135.747 -0.916414 1.82705 0
M  V30 1368 C 136.111 -1.80235 0.661763 0
M  V30 1369 O 137.312 -2.56484 0.80433 0
M  V30 1370 C 135.583 -1.70691 3.14005 0
M  V30 1371 S 137.142 -2.48457 3.61683 0
M  V30 1372 H 133.96 -0.307281 0.64117 0
M  V30 1373 H 136.562 -0.179433 1.94675 0
M  V30 1374 H 135.266 -1.04677 3.96826 0
M  V30 1375 H 134.797 -2.48562 3.04927 0
M  V30 1376 H 136.812 -3.72756 3.27517 0
M  V30 1377 N 135.985 -1.50799 -0.457987 0
M  V30 1378 C 136.915 -1.73553 -1.5621 0
M  V30 1379 C 137.896 -0.584774 -1.59732 0
M  V30 1380 O 139.081 -0.825314 -1.7579 0
M  V30 1381 C 136.211 -1.84169 -2.94447 0
M  V30 1382 C 135.165 -2.99461 -3.0579 0
M  V30 1383 C 134.491 -2.95235 -4.45803 0
M  V30 1384 C 135.791 -4.39766 -2.81786 0
M  V30 1385 H 137.485 -2.66 -1.37421 0
M  V30 1386 H 135.031 -1.28002 -0.659662 0
M  V30 1387 H 136.984 -1.98672 -3.71628 0
M  V30 1388 H 135.708 -0.883545 -3.14422 0
M  V30 1389 H 134.367 -2.8463 -2.31044 0
M  V30 1390 H 134.015 -1.97239 -4.62715 0
M  V30 1391 H 133.715 -3.72642 -4.54326 0
M  V30 1392 H 135.239 -3.11803 -5.24987 0
M  V30 1393 H 136.653 -4.55054 -3.4871 0
M  V30 1394 H 135.05 -5.18722 -3.0174 0
M  V30 1395 H 136.12 -4.51229 -1.7754 0
M  V30 1396 N 137.463 0.71206 -1.40597 0
M  V30 1397 C 138.709 1.47416 -1.39271 0
M  V30 1398 C 139.042 1.942 0.00388791 0
M  V30 1399 O 138.317 1.68403 0.973179 0
M  V30 1400 C 138.6 2.69774 -2.38525 0
M  V30 1401 C 138.453 2.28861 -3.87224 0
M  V30 1402 C 139.772 3.71939 -2.35264 0
M  V30 1403 H 136.891 0.534713 -0.5072 0
M  V30 1404 H 139.533 0.812375 -1.71757 0
M  V30 1405 H 137.683 3.26238 -2.10953 0
M  V30 1406 H 139.355 1.77852 -4.25636 0
M  V30 1407 H 137.598 1.60824 -4.02887 0
M  V30 1408 H 138.269 3.16584 -4.52193 0
M  V30 1409 H 140.745 3.25113 -2.59694 0
M  V30 1410 H 139.621 4.55186 -3.06753 0
M  V30 1411 H 139.882 4.20484 -1.36549 0
M  V30 1412 N 138.941 1.26152 0.944643 0
M  V30 1413 C 139.888 1.07408 2.04285 0
M  V30 1414 C 140.858 -0.0198413 1.66088 0
M  V30 1415 O 142.043 0.139264 1.90291 0
M  V30 1416 C 139.183 0.70945 3.37729 0
M  V30 1417 C 138.296 1.87926 3.88983 0
M  V30 1418 C 137.431 1.45807 5.10797 0
M  V30 1419 C 136.47 2.5964 5.54305 0
M  V30 1420 N 135.607 2.18226 6.67324 0
M  V30 1421 H 140.447 2.01389 2.1965 0
M  V30 1422 H 137.984 1.00275 1.07626 0
M  V30 1423 H 139.942 0.478948 4.14442 0
M  V30 1424 H 138.572 -0.193389 3.2222 0
M  V30 1425 H 137.624 2.22279 3.08701 0
M  V30 1426 H 138.936 2.73377 4.17213 0
M  V30 1427 H 138.09 1.18781 5.94959 0
M  V30 1428 H 136.829 0.574414 4.84305 0
M  V30 1429 H 135.834 2.87399 4.68702 0
M  V30 1430 H 137.059 3.48599 5.828 0
M  V30 1431 H 135.005 1.3229 6.42523 0
M  V30 1432 H 134.922 2.97221 6.95123 0
M  V30 1433 H 136.19 1.94403 7.54869 0
M  V30 1434 N 140.419 -1.14872 1.07899 0
M  V30 1435 C 141.668 -1.85135 0.800499 0
M  V30 1436 C 141.981 -1.83547 -0.676014 0
M  V30 1437 O 143.187 -2.49548 -1.06948 0
M  V30 1438 C 141.643 -3.3231 1.38197 0
M  V30 1439 C 141.251 -3.42329 2.8899 0
M  V30 1440 C 142.995 -4.0772 1.18174 0
M  V30 1441 C 140.902 -4.83684 3.403 0
M  V30 1442 H 139.832 -0.693563 0.29578 0
M  V30 1443 H 142.483 -1.29532 1.29976 0
M  V30 1444 H 140.865 -3.87618 0.810431 0
M  V30 1445 H 142.039 -2.97097 3.52236 0
M  V30 1446 H 140.354 -2.80369 3.07867 0
M  V30 1447 H 142.951 -5.12049 1.5398 0
M  V30 1448 H 143.294 -4.16124 0.12117 0
M  V30 1449 H 143.827 -3.58696 1.71994 0
M  V30 1450 H 140.566 -4.80465 4.45907 0
M  V30 1451 H 140.086 -5.29474 2.81811 0
M  V30 1452 H 141.765 -5.52558 3.36584 0
M  V30 1453 N 141.898 -0.863906 -1.31812 0
M  V30 1454 C 143.147 -0.46801 -1.96195 0
M  V30 1455 C 143.46 0.983474 -1.69077 0
M  V30 1456 O 144.666 1.48523 -2.27273 0
M  V30 1457 C 143.122 -0.785995 -3.51212 0
M  V30 1458 C 142.73 -2.25383 -3.87178 0
M  V30 1459 C 144.474 -0.458274 -4.22019 0
M  V30 1460 C 142.381 -2.51455 -5.3528 0
M  V30 1461 H 141.311 -0.171283 -0.734287 0
M  V30 1462 H 143.962 -1.05597 -1.50072 0
M  V30 1463 H 142.344 -0.127359 -3.95795 0
M  V30 1464 H 143.518 -2.95502 -3.53575 0
M  V30 1465 H 141.833 -2.54698 -3.2942 0
M  V30 1466 H 144.43 -0.630369 -5.30971 0
M  V30 1467 H 144.773 0.600834 -4.11941 0
M  V30 1468 H 145.306 -1.07319 -3.8305 0
M  V30 1469 H 142.045 -3.56025 -5.50387 0
M  V30 1470 H 141.565 -1.85923 -5.70257 0
M  V30 1471 H 143.244 -2.35874 -6.02472 0
M  V30 1472 N 143.376 1.44774 -0.622745 0
M  V30 1473 C 144.324 2.32387 0.0994683 0
M  V30 1474 C 145.318 1.46859 0.844326 0
M  V30 1475 O 146.524 1.63254 0.758174 0
M  V30 1476 H 142.899 0.750273 0.0509291 0
M  V30 1477 H 144.87 2.91062 -0.65767 0
M  V30 1478 C 143.619 3.30723 1.07319 0
M  V30 1479 H 142.942 3.96541 0.509462 0
M  V30 1480 H 144.382 3.94725 1.54817 0
M  V30 1481 C 142.841 2.59021 2.15429 0
M  V30 1482 O 143.371 2.38286 3.23393 0
M  V30 1483 N 141.577 2.189 1.91131 0
M  V30 1484 H 141.124 2.35964 1.03337 0
M  V30 1485 H 141.082 1.71251 2.63668 0
M  V30 1486 N 144.854 0.36279 1.53368 0
M  V30 1487 C 145.764 -0.492994 2.29362 0
M  V30 1488 C 146.78 -1.09507 1.35219 0
M  V30 1489 O 147.956 -1.10662 1.68273 0
M  V30 1490 C 145.021 -1.61855 3.066 0
M  V30 1491 C 144.082 -1.04429 4.16405 0
M  V30 1492 C 143.315 -2.11621 4.89951 0
M  V30 1493 O 143.538 -3.32684 4.63333 0
M  V30 1494 O 142.472 -1.74835 5.75948 0
M  V30 1495 H 146.298 0.125331 3.03441 0
M  V30 1496 H 143.883 0.127253 1.48857 0
M  V30 1497 H 145.765 -2.27302 3.54841 0
M  V30 1498 H 144.44 -2.22233 2.3536 0
M  V30 1499 H 143.347 -0.353819 3.72423 0
M  V30 1500 H 144.68 -0.485113 4.89804 0
M  V30 1501 N 146.332 -1.57332 0.0918853 0
M  V30 1502 C 147.578 -1.94524 -0.573425 0
M  V30 1503 C 147.911 -0.973578 -1.68033 0
M  V30 1504 O 147.186 -0.00609226 -1.94499 0
M  V30 1505 C 147.469 -3.41858 -1.13161 0
M  V30 1506 C 147.322 -4.4979 -0.0299747 0
M  V30 1507 C 148.641 -3.90435 -2.03098 0
M  V30 1508 H 145.76 -0.70734 -0.206975 0
M  V30 1509 H 148.402 -1.89309 0.161942 0
M  V30 1510 H 146.552 -3.46433 -1.7583 0
M  V30 1511 H 148.224 -4.57327 0.604112 0
M  V30 1512 H 146.467 -4.291 0.636833 0
M  V30 1513 H 147.138 -5.50069 -0.461287 0
M  V30 1514 H 149.614 -3.87992 -1.50338 0
M  V30 1515 H 148.49 -4.94097 -2.39081 0
M  V30 1516 H 148.751 -3.29541 -2.94712 0
M  V30 1517 N 147.81 0.181792 -1.56548 0
M  V30 1518 C 148.757 1.22521 -1.95595 0
M  V30 1519 C 149.727 1.4454 -0.818373 0
M  V30 1520 O 150.912 1.57454 -1.07763 0
M  V30 1521 C 148.052 2.56193 -2.31212 0
M  V30 1522 C 147.165 2.41641 -3.58097 0
M  V30 1523 C 146.3 3.68108 -3.82975 0
M  V30 1524 C 145.339 3.48445 -5.03242 0
M  V30 1525 N 144.476 4.66956 -5.24306 0
M  V30 1526 H 149.316 0.885226 -2.84548 0
M  V30 1527 H 146.853 0.425718 -1.40805 0
M  V30 1528 H 148.811 3.34088 -2.49882 0
M  V30 1529 H 147.441 2.88208 -1.45382 0
M  V30 1530 H 146.493 1.54976 -3.474 0
M  V30 1531 H 147.805 2.23052 -4.46149 0
M  V30 1532 H 146.959 4.54441 -4.01956 0
M  V30 1533 H 145.698 3.89666 -2.93278 0
M  V30 1534 H 144.703 2.60499 -4.8417 0
M  V30 1535 H 145.928 3.2832 -5.9446 0
M  V30 1536 H 143.874 4.88752 -4.37559 0
M  V30 1537 H 143.791 4.51242 -6.06561 0
M  V30 1538 H 145.059 5.54602 -5.47756 0
M  V30 1539 N 149.288 1.51039 0.449983 0
M  V30 1540 C 150.699 1.557 1.03026 0
M  V30 1541 C 151.05 0.372939 1.92623 0
M  V30 1542 O 150.175 -0.511771 2.10261 0
M  V30 1543 C 150.77 2.82171 1.87523 0
M  V30 1544 C 149.329 2.89444 2.40622 0
M  V30 1545 C 148.476 2.50228 1.19504 0
M  V30 1546 H 151.427 1.56999 0.231745 0
M  V30 1547 H 151.448 2.65219 2.72835 0
M  V30 1548 H 150.96 3.68331 1.22286 0
M  V30 1549 H 149.061 2.07685 3.0935 0
M  V30 1550 H 149.174 3.92816 2.74285 0
M  V30 1551 H 147.538 2.03139 1.53644 0
M  V30 1552 H 148.321 3.38719 0.558972 0
M  V30 1553 N 150.766 -0.704594 1.40972 0
M  V30 1554 C 151.994 -1.49354 1.43182 0
M  V30 1555 C 152.409 -1.88768 0.0345508 0
M  V30 1556 O 151.766 -1.56184 -0.944081 0
M  V30 1557 C 151.817 -2.76187 2.33244 0
M  V30 1558 O 151.538 -2.38436 3.67532 0
M  V30 1559 C 153.039 -3.7 2.44162 0
M  V30 1560 H 150.259 -0.460559 0.487982 0
M  V30 1561 H 152.803 -0.868261 1.85153 0
M  V30 1562 H 150.958 -3.34974 1.94606 0
M  V30 1563 H 151.372 -3.20126 4.15475 0
M  V30 1564 H 152.846 -4.55803 3.11364 0
M  V30 1565 H 153.323 -4.13867 1.47006 0
M  V30 1566 H 153.929 -3.17121 2.83398 0
M  V30 1567 N 152.244 -1.26651 -0.937939 0
M  V30 1568 C 153.154 -1.10276 -2.07066 0
M  V30 1569 C 154.17 -0.0354197 -1.73964 0
M  V30 1570 O 155.346 -0.239816 -1.99967 0
M  V30 1571 C 152.411 -0.740887 -3.38691 0
M  V30 1572 C 151.472 -1.88799 -3.85556 0
M  V30 1573 C 150.705 -1.54329 -5.10899 0
M  V30 1574 O 150.928 -0.446494 -5.6865 0
M  V30 1575 O 149.862 -2.37911 -5.52885 0
M  V30 1576 H 153.688 -2.05309 -2.23789 0
M  V30 1577 H 151.273 -1.05743 -1.0554 0
M  V30 1578 H 153.155 -0.55195 -4.1777 0
M  V30 1579 H 151.83 0.180022 -3.23199 0
M  V30 1580 H 150.737 -2.13191 -3.07409 0
M  V30 1581 H 152.07 -2.78874 -4.05574 0
M  V30 1582 N 153.722 1.14298 -1.08507 0
M  V30 1583 C 154.971 1.84708 -0.810305 0
M  V30 1584 C 155.284 1.83903 0.666271 0
M  V30 1585 O 156.49 2.50112 1.05624 0
M  V30 1586 C 154.946 3.31572 -1.39957 0
M  V30 1587 C 154.554 3.40791 -2.90801 0
M  V30 1588 C 156.298 4.07087 -1.20334 0
M  V30 1589 C 154.205 4.81872 -3.4286 0
M  V30 1590 H 153.135 0.691985 -0.299454 0
M  V30 1591 H 155.786 1.28841 -1.30661 0
M  V30 1592 H 154.168 3.87183 -0.830976 0
M  V30 1593 H 155.342 2.95225 -3.53806 0
M  V30 1594 H 153.657 2.78732 -3.0935 0
M  V30 1595 H 156.254 5.11225 -1.56693 0
M  V30 1596 H 156.597 4.16054 -0.143237 0
M  V30 1597 H 157.13 3.57779 -1.73893 0
M  V30 1598 H 153.869 4.78094 -4.48449 0
M  V30 1599 H 153.389 5.27972 -2.84615 0
M  V30 1600 H 155.068 5.50765 -3.39509 0
M  V30 1601 N 155.201 0.870884 1.31352 0
M  V30 1602 C 156.431 0.496049 2.00557 0
M  V30 1603 C 156.839 -0.916241 1.65534 0
M  V30 1604 O 156.182 -1.61188 0.881134 0
M  V30 1605 C 156.244 0.574418 3.54881 0
M  V30 1606 C 155.908 1.94849 4.1338 0
M  V30 1607 C 156.905 2.91611 4.30417 0
M  V30 1608 C 154.59 2.25005 4.49086 0
M  V30 1609 C 156.584 4.16672 4.82352 0
M  V30 1610 C 154.271 3.50315 5.00722 0
M  V30 1611 C 155.269 4.45964 5.17306 0
M  V30 1612 O 154.957 5.69052 5.67833 0
M  V30 1613 H 154.689 0.191664 0.64826 0
M  V30 1614 H 157.243 1.17409 1.68536 0
M  V30 1615 H 155.473 -0.160549 3.86367 0
M  V30 1616 H 157.162 0.212879 4.05341 0
M  V30 1617 H 157.928 2.69622 4.03149 0
M  V30 1618 H 153.807 1.51332 4.35453 0
M  V30 1619 H 157.351 4.91336 4.95211 0
M  V30 1620 H 153.248 3.72147 5.27424 0
M  V30 1621 H 154.016 5.71236 5.86201 0
M  V30 1622 N 156.679 -1.44442 0.630414 0
M  V30 1623 C 157.627 -2.32437 -0.0871428 0
M  V30 1624 C 158.621 -1.47304 -0.836525 0
M  V30 1625 O 159.827 -1.63653 -0.749506 0
M  V30 1626 H 156.202 -0.750533 -0.0469495 0
M  V30 1627 H 158.173 -2.90709 0.673096 0
M  V30 1628 C 156.922 -3.31288 -1.05563 0
M  V30 1629 H 156.245 -3.96805 -0.488426 0
M  V30 1630 H 157.685 -3.9554 -1.52721 0
M  V30 1631 C 156.144 -2.6016 -2.14052 0
M  V30 1632 O 156.674 -2.39997 -3.22124 0
M  V30 1633 N 154.88 -2.19911 -1.89967 0
M  V30 1634 H 154.427 -2.36509 -1.02085 0
M  V30 1635 H 154.385 -1.72646 -2.62756 0
M  V30 1636 N 158.157 -0.370918 -1.53173 0
M  V30 1637 C 159.087 0.464847 -2.28826 0
M  V30 1638 C 160.068 1.07936 -1.31468 0
M  V30 1639 O 161.253 1.0956 -1.60344 0
M  V30 1640 C 158.383 1.60196 -3.08147 0
M  V30 1641 C 157.337 1.11443 -4.13237 0
M  V30 1642 C 156.663 2.3422 -4.80672 0
M  V30 1643 C 157.963 0.195384 -5.21934 0
M  V30 1644 H 159.657 -0.166329 -2.98938 0
M  V30 1645 H 157.203 -0.0814359 -1.4377 0
M  V30 1646 H 159.156 2.19332 -3.59822 0
M  V30 1647 H 157.88 2.26045 -2.35735 0
M  V30 1648 H 156.539 0.545727 -3.62515 0
M  V30 1649 H 156.187 2.98537 -4.04827 0
M  V30 1650 H 155.887 2.02269 -5.51689 0
M  V30 1651 H 157.411 2.94032 -5.35143 0
M  V30 1652 H 158.825 0.694375 -5.69079 0
M  V30 1653 H 157.222 -0.0335027 -6.00091 0
M  V30 1654 H 158.292 -0.760961 -4.78892 0
M  V30 1655 N 159.635 1.57281 -0.100228 0
M  V30 1656 C 160.883 1.94153 0.561157 0
M  V30 1657 C 161.204 0.983157 1.68401 0
M  V30 1658 O 160.474 0.0361132 1.95867 0
M  V30 1659 H 159.054 0.716791 0.210283 0
M  V30 1660 H 161.716 1.94202 -0.164765 0
M  V30 1661 H 160.812 2.96709 0.968008 0
M  V30 1662 N 161.113 -0.173488 1.56642 0
M  V30 1663 C 162.076 -1.19859 1.95362 0
M  V30 1664 C 163.076 -1.37296 0.83704 0
M  V30 1665 O 164.266 -1.34739 1.10413 0
M  V30 1666 C 161.398 -2.56405 2.24654 0
M  V30 1667 H 162.591 -0.867062 2.87092 0
M  V30 1668 H 160.144 -0.415853 1.50666 0
M  V30 1669 H 160.879 -2.94576 1.35631 0
M  V30 1670 H 160.664 -2.45115 3.06041 0
M  V30 1671 H 162.154 -3.30287 2.5554 0
M  V30 1672 N 162.591 -1.51276 -0.441967 0
M  V30 1673 C 163.523 -1.68444 -1.55433 0
M  V30 1674 C 164.536 -0.565187 -1.52674 0
M  V30 1675 O 165.725 -0.839356 -1.57534 0
M  V30 1676 C 162.825 -1.67966 -2.94348 0
M  V30 1677 C 161.998 -2.964 -3.21661 0
M  V30 1678 C 161.057 -2.88171 -4.40277 0
M  V30 1679 O 160.083 -3.62119 -4.39157 0
M  V30 1680 N 161.285 -2.03706 -5.43584 0
M  V30 1681 H 164.05 -2.644 -1.41112 0
M  V30 1682 H 161.611 -1.49104 -0.630838 0
M  V30 1683 H 163.603 -1.60035 -3.71713 0
M  V30 1684 H 162.173 -0.796225 -3.0229 0
M  V30 1685 H 161.393 -3.18234 -2.32638 0
M  V30 1686 H 162.681 -3.81427 -3.36736 0
M  V30 1687 H 162.079 -1.42995 -5.47329 0
M  V30 1688 H 160.636 -2.01658 -6.1982 0
M  V30 1689 N 164.069 0.697108 -1.41344 0
M  V30 1690 C 165.294 1.49096 -1.44171 0
M  V30 1691 C 165.719 1.88038 -0.0481568 0
M  V30 1692 O 165.077 1.54525 0.948243 0
M  V30 1693 C 165.125 2.73088 -2.3549 0
M  V30 1694 O 164.229 3.70514 -1.81088 0
M  V30 1695 H 163.57 0.448801 -0.489361 0
M  V30 1696 H 166.1 0.856992 -1.85787 0
M  V30 1697 H 166.11 3.21413 -2.51312 0
M  V30 1698 H 164.785 2.44081 -3.36745 0
M  V30 1699 H 163.362 3.29441 -1.74708 0
M  V30 1700 N 165.547 1.27147 0.931209 0
M  V30 1701 C 166.497 1.06227 2.01742 0
M  V30 1702 C 167.481 -0.00859065 1.60898 0
M  V30 1703 O 168.673 0.209537 1.75755 0
M  V30 1704 C 165.802 0.707787 3.35924 0
M  V30 1705 C 164.888 1.81661 3.83223 0
M  V30 1706 N 165.279 3.05564 4.03069 0
M  V30 1707 C 163.577 1.70249 4.12227 0
M  V30 1708 C 164.278 3.77697 4.42403 0
M  V30 1709 N 163.254 3.0544 4.49675 0
M  V30 1710 H 167.056 2.00261 2.15111 0
M  V30 1711 H 164.57 1.1781 1.11779 0
M  V30 1712 H 166.567 0.539043 4.134 0
M  V30 1713 H 165.227 -0.224964 3.2392 0
M  V30 1714 H 166.238 3.41363 3.89476 0
M  V30 1715 H 162.915 0.840329 4.08956 0
M  V30 1716 H 164.305 4.84168 4.65866 0
M  V30 1717 N 167.025 -1.13721 1.09112 0
M  V30 1718 C 168.271 -1.85198 0.826414 0
M  V30 1719 C 168.604 -1.83129 -0.646319 0
M  V30 1720 O 167.879 -1.2671 -1.47563 0
M  V30 1721 C 168.162 -3.33507 1.35812 0
M  V30 1722 C 168.015 -3.44108 2.89672 0
M  V30 1723 C 169.334 -4.28838 0.989256 0
M  V30 1724 H 166.453 -0.67243 0.301675 0
M  V30 1725 H 169.095 -1.33499 1.35197 0
M  V30 1726 H 167.245 -3.77666 0.911082 0
M  V30 1727 H 168.917 -3.08684 3.428 0
M  V30 1728 H 167.16 -2.85087 3.26967 0
M  V30 1729 H 167.831 -4.48388 3.21951 0
M  V30 1730 H 170.307 -3.92734 1.37475 0
M  V30 1731 H 169.183 -5.31051 1.38838 0
M  V30 1732 H 169.444 -4.4198 -0.102924 0
M  V30 1733 N 168.503 -0.877838 -1.30888 0
M  V30 1734 C 169.45 -0.337538 -2.28318 0
M  V30 1735 C 170.42 0.568346 -1.56074 0
M  V30 1736 O 171.605 0.498298 -1.84178 0
M  V30 1737 C 168.745 0.448142 -3.42178 0
M  V30 1738 C 167.858 -0.48615 -4.29256 0
M  V30 1739 C 166.993 0.314427 -5.30269 0
M  V30 1740 C 166.032 -0.615791 -6.08995 0
M  V30 1741 N 165.169 0.14902 -7.01942 0
M  V30 1742 H 170.009 -1.17356 -2.73919 0
M  V30 1743 H 167.546 -0.590094 -1.34745 0
M  V30 1744 H 169.504 0.919517 -4.06941 0
M  V30 1745 H 168.134 1.24879 -2.97666 0
M  V30 1746 H 167.186 -1.076 -3.64865 0
M  V30 1747 H 168.498 -1.19909 -4.84173 0
M  V30 1748 H 167.652 0.847969 -6.00745 0
M  V30 1749 H 166.391 1.06062 -4.76027 0
M  V30 1750 H 165.396 -1.16102 -5.37401 0
M  V30 1751 H 166.621 -1.36097 -6.65323 0
M  V30 1752 H 164.567 0.877884 -6.50099 0
M  V30 1753 H 164.484 -0.504433 -7.54315 0
M  V30 1754 H 165.752 0.663537 -7.76671 0
M  V30 1755 N 169.982 1.44106 -0.638065 0
M  V30 1756 C 171.231 2.01194 -0.142744 0
M  V30 1757 C 171.544 1.50835 1.24532 0
M  V30 1758 O 172.75 2.00096 1.83504 0
M  V30 1759 C 171.206 3.59319 -0.20442 0
M  V30 1760 C 170.814 4.18674 -1.59423 0
M  V30 1761 C 172.558 4.23854 0.234079 0
M  V30 1762 C 170.465 5.69045 -1.61065 0
M  V30 1763 H 169.395 0.752367 -0.0495998 0
M  V30 1764 H 172.046 1.65246 -0.797881 0
M  V30 1765 H 170.428 3.92598 0.517946 0
M  V30 1766 H 171.602 3.96921 -2.34074 0
M  V30 1767 H 169.917 3.66453 -1.97741 0
M  V30 1768 H 172.514 5.34155 0.241443 0
M  V30 1769 H 172.857 3.96688 1.2627 0
M  V30 1770 H 173.39 3.95403 -0.436025 0
M  V30 1771 H 170.129 6.00956 -2.61787 0
M  V30 1772 H 169.649 5.929 -0.90718 0
M  V30 1773 H 171.328 6.32809 -1.34766 0
M  V30 1774 N 171.46 0.379036 1.52974 0
M  V30 1775 C 172.685 -0.209353 2.06341 0
M  V30 1776 C 173.11 -1.40583 1.24972 0
M  V30 1777 O 172.468 -1.79246 0.272155 0
M  V30 1778 C 172.516 -0.567786 3.56102 0
M  V30 1779 O 171.62 -1.66318 3.77375 0
M  V30 1780 H 170.961 -0.0272919 0.663439 0
M  V30 1781 H 173.491 0.543536 1.97248 0
M  V30 1782 H 173.501 -0.835003 3.99364 0
M  V30 1783 H 172.176 0.307013 4.14765 0
M  V30 1784 H 170.753 -1.39048 3.46006 0
M  V30 1785 N 172.938 -1.57226 0.108567 0
M  V30 1786 C 174.185 -1.94833 -0.551943 0
M  V30 1787 C 174.513 -0.991204 -1.67348 0
M  V30 1788 O 173.768 -0.0131878 -1.95696 0
M  V30 1789 C 174.067 -3.38911 -1.13463 0
M  V30 1790 C 173.733 -4.50696 -0.135509 0
M  V30 1791 C 172.395 -4.80998 0.139252 0
M  V30 1792 C 174.747 -5.18333 0.545957 0
M  V30 1793 C 172.075 -5.76259 1.10194 0
M  V30 1794 C 174.427 -6.14627 1.49721 0
M  V30 1795 C 173.091 -6.43327 1.78006 0
M  V30 1796 H 172.361 -0.712944 -0.20197 0
M  V30 1797 H 175.008 -1.90582 0.18726 0
M  V30 1798 H 173.313 -3.39805 -1.95037 0
M  V30 1799 H 175.01 -3.65317 -1.65362 0
M  V30 1800 H 171.6 -4.27087 -0.359846 0
M  V30 1801 H 175.784 -4.95087 0.346842 0
M  V30 1802 H 171.04 -5.96804 1.32795 0
M  V30 1803 H 175.214 -6.66126 2.03099 0
M  V30 1804 H 172.841 -7.1695 2.52759 0
M  V30 1805 N 174.416 0.165178 -1.56732 0
M  V30 1806 C 175.693 0.908443 -1.73224 0
M  V30 1807 C 176.073 2.0013 -0.67165 0
M  V30 1808 O 175.421 2.26353 0.31253 0
M  V30 1809 C 175.631 1.46756 -3.16644 0
M  V30 1810 C 176.979 1.93809 -3.77787 0
M  V30 1811 O 178.003 1.56537 -3.1996 0
M  V30 1812 O 176.862 2.62486 -4.79336 0
M  V30 1813 H 173.956 0.428025 -0.707618 0
M  V30 1814 H 176.502 0.152526 -1.69013 0
M  V30 1815 H 175.274 0.68129 -3.85323 0
M  V30 1816 H 174.897 2.28749 -3.25207 0
M  V30 1817 N 175.894 1.51508 0.433938 0
M  V30 1818 C 176.824 1.76016 1.53429 0
M  V30 1819 C 177.805 0.610112 1.58782 0
M  V30 1820 O 178.99 0.853177 1.74455 0
M  V30 1821 C 176.12 1.88831 2.9148 0
M  V30 1822 C 175.074 3.04288 3.00987 0
M  V30 1823 C 174.4 3.0229 4.4105 0
M  V30 1824 C 175.7 4.44193 2.74754 0
M  V30 1825 H 177.394 2.68152 1.33171 0
M  V30 1826 H 174.94 1.29035 0.639214 0
M  V30 1827 H 176.893 2.04559 3.6842 0
M  V30 1828 H 175.617 0.933455 3.12976 0
M  V30 1829 H 174.276 2.8827 2.26486 0
M  V30 1830 H 173.924 2.04576 4.59519 0
M  V30 1831 H 173.624 3.79822 4.4834 0
M  V30 1832 H 175.148 3.20116 5.1996 0
M  V30 1833 H 176.562 4.60544 3.41426 0
M  V30 1834 H 174.959 5.23457 2.9345 0
M  V30 1835 H 176.029 4.53996 1.70339 0
M  V30 1836 N 177.372 -0.689602 1.41712 0
M  V30 1837 C 178.335 -1.78521 1.43746 0
M  V30 1838 C 179.335 -1.57436 0.327191 0
M  V30 1839 O 180.525 -1.64 0.587348 0
M  V30 1840 C 177.657 -3.16971 1.25467 0
M  V30 1841 H 178.85 -1.78108 2.41283 0
M  V30 1842 H 176.403 -0.89781 1.27942 0
M  V30 1843 H 177.138 -3.23019 0.287948 0
M  V30 1844 H 176.923 -3.33678 2.05917 0
M  V30 1845 H 178.413 -3.96935 1.2974 0
M  V30 1846 N 178.85 -1.27639 -0.924453 0
M  V30 1847 C 179.76 -1.12466 -2.05885 0
M  V30 1848 C 180.776 -0.053869 -1.73917 0
M  V30 1849 O 181.952 -0.261012 -1.99702 0
M  V30 1850 C 179.017 -0.776768 -3.37886 0
M  V30 1851 C 178.078 -1.92878 -3.83532 0
M  V30 1852 C 177.311 -1.59739 -5.09234 0
M  V30 1853 O 177.534 -0.506782 -5.68144 0
M  V30 1854 O 176.468 -2.43761 -5.50331 0
M  V30 1855 H 180.294 -2.07671 -2.21599 0
M  V30 1856 H 177.879 -1.06857 -1.04413 0
M  V30 1857 H 179.761 -0.596229 -4.17161 0
M  V30 1858 H 178.436 0.145732 -3.23372 0
M  V30 1859 H 177.343 -2.1644 -3.0513 0
M  V30 1860 H 178.676 -2.8316 -4.02593 0
M  V30 1861 N 180.328 1.1314 -1.09713 0
M  V30 1862 C 181.558 1.88048 -0.855656 0
M  V30 1863 C 181.966 1.79537 0.596919 0
M  V30 1864 O 181.309 1.16196 1.42282 0
M  V30 1865 C 181.371 3.38314 -1.21589 0
M  V30 1866 C 181.035 3.70605 -2.67397 0
M  V30 1867 C 182.032 3.69596 -3.65643 0
M  V30 1868 C 179.717 4.0017 -3.03593 0
M  V30 1869 C 181.711 3.977 -4.9811 0
M  V30 1870 C 179.398 4.27935 -4.36251 0
M  V30 1871 C 180.396 4.26685 -5.33318 0
M  V30 1872 O 180.084 4.53767 -6.63589 0
M  V30 1873 H 179.816 0.60208 -0.307368 0
M  V30 1874 H 182.37 1.44128 -1.46343 0
M  V30 1875 H 180.6 3.82752 -0.551177 0
M  V30 1876 H 182.289 3.94552 -0.953083 0
M  V30 1877 H 183.055 3.46826 -3.39023 0
M  V30 1878 H 178.934 4.00289 -2.2867 0
M  V30 1879 H 182.478 3.9664 -5.73866 0
M  V30 1880 H 178.375 4.50178 -4.62613 0
M  V30 1881 H 179.143 4.71422 -6.69107 0
M  V30 1882 N 181.806 0.884767 1.30421 0
M  V30 1883 C 183.034 0.518044 2.0031 0
M  V30 1884 C 183.449 -0.893408 1.66324 0
M  V30 1885 O 182.806 -1.5875 0.900262 0
M  V30 1886 C 182.857 0.682997 3.54989 0
M  V30 1887 O 182.578 2.03888 3.87764 0
M  V30 1888 C 184.079 0.31924 4.42149 0
M  V30 1889 H 181.299 0.200265 0.640418 0
M  V30 1890 H 183.843 1.19001 1.6631 0
M  V30 1891 H 181.998 0.0584052 3.87356 0
M  V30 1892 H 182.412 2.05735 4.82466 0
M  V30 1893 H 183.886 0.485555 5.4986 0
M  V30 1894 H 184.363 -0.742717 4.32875 0
M  V30 1895 H 184.969 0.920147 4.15227 0
M  V30 1896 N 183.284 -1.43765 0.645699 0
M  V30 1897 C 184.247 -2.29163 -0.0409488 0
M  V30 1898 C 185.247 -1.41813 -0.757996 0
M  V30 1899 O 186.437 -1.63527 -0.600382 0
M  V30 1900 C 183.569 -3.23716 -1.06869 0
M  V30 1901 H 184.762 -2.91366 0.710345 0
M  V30 1902 H 182.315 -1.5092 0.406547 0
M  V30 1903 H 183.05 -2.66393 -1.84947 0
M  V30 1904 H 182.835 -3.88105 -0.558277 0
M  V30 1905 H 184.325 -3.87831 -1.54845 0
M  V30 1906 N 184.763 -0.387143 -1.52771 0
M  V30 1907 C 186.04 0.253197 -1.93954 0
M  V30 1908 C 186.42 1.64545 -1.32243 0
M  V30 1909 O 185.768 2.23191 -0.489699 0
M  V30 1910 C 185.978 0.281722 -3.47861 0
M  V30 1911 C 187.326 0.511715 -4.21505 0
M  V30 1912 O 188.35 0.362023 -3.54356 0
M  V30 1913 O 187.209 0.804847 -5.40541 0
M  V30 1914 H 184.303 0.156845 -0.811991 0
M  V30 1915 H 186.849 -0.441494 -1.63856 0
M  V30 1916 H 185.621 -0.693571 -3.85104 0
M  V30 1917 H 185.244 1.02142 -3.84256 0
M  V30 1918 N 186.241 1.57166 -0.116904 0
M  V30 1919 C 187.487 1.95412 0.542405 0
M  V30 1920 C 187.82 1.00019 1.66463 0
M  V30 1921 O 187.095 0.0370346 1.94465 0
M  V30 1922 C 187.378 3.43615 1.07708 0
M  V30 1923 C 187.231 4.49781 -0.0415868 0
M  V30 1924 C 188.55 3.93616 1.96861 0
M  V30 1925 H 185.669 0.710543 0.195696 0
M  V30 1926 H 188.311 1.89027 -0.192038 0
M  V30 1927 H 186.461 3.49187 1.70296 0
M  V30 1928 H 188.133 4.56308 -0.676793 0
M  V30 1929 H 186.376 4.28033 -0.705019 0
M  V30 1930 H 187.047 5.50733 0.373717 0
M  V30 1931 H 189.523 3.90335 1.44146 0
M  V30 1932 H 188.399 4.97838 2.3119 0
M  V30 1933 H 188.66 3.34188 2.89432 0
M  V30 1934 N 187.719 -0.156864 1.56817 0
M  V30 1935 C 188.996 -0.899244 1.73704 0
M  V30 1936 C 189.376 -1.99771 0.682254 0
M  V30 1937 O 188.724 -2.26515 -0.300522 0
M  V30 1938 C 188.934 -1.45075 3.17418 0
M  V30 1939 C 190.282 -1.91802 3.7881 0
M  V30 1940 O 191.306 -1.54838 3.20786 0
M  V30 1941 O 190.165 -2.5994 4.80722 0
M  V30 1942 H 187.259 -0.424267 0.709878 0
M  V30 1943 H 189.805 -0.143561 1.69092 0
M  V30 1944 H 188.577 -0.660846 3.85679 0
M  V30 1945 H 188.2 -2.27021 3.26416 0
M  V30 1946 N 189.197 -1.51736 -0.425897 0
M  V30 1947 C 190.445 -1.64644 -1.17204 0
M  V30 1948 C 190.766 -0.370486 -1.91448 0
M  V30 1949 O 190.036 0.614088 -1.86026 0
M  V30 1950 H 188.616 -0.606819 -0.435638 0
M  V30 1951 H 191.278 -1.88713 -0.487177 0
M  V30 1952 H 190.374 -2.47958 -1.89534 0
M  V30 1953 N 190.675 0.682077 -1.42076 0
M  V30 1954 C 191.921 1.44428 -1.42367 0
M  V30 1955 C 192.254 1.94164 -0.0373056 0
M  V30 1956 O 191.529 1.70429 0.937239 0
M  V30 1957 C 191.812 2.64654 -2.44194 0
M  V30 1958 C 191.665 2.20596 -3.91991 0
M  V30 1959 C 192.984 3.66865 -2.431 0
M  V30 1960 H 190.103 0.523834 -0.518428 0
M  V30 1961 H 192.745 0.77576 -1.73442 0
M  V30 1962 H 190.895 3.2169 -2.17826 0
M  V30 1963 H 192.567 1.68783 -4.29313 0
M  V30 1964 H 190.81 1.52242 -4.06208 0
M  V30 1965 H 191.481 3.06921 -4.58807 0
M  V30 1966 H 193.957 3.19531 -2.66532 0
M  V30 1967 H 192.833 4.48577 -3.16339 0
M  V30 1968 H 193.094 4.17493 -1.45437 0
M  V30 1969 N 192.153 1.28127 0.917671 0
M  V30 1970 C 193.401 1.14825 1.66312 0
M  V30 1971 C 193.722 -0.304379 1.9261 0
M  V30 1972 O 192.992 -1.21149 1.53947 0
M  V30 1973 H 191.572 0.421953 0.616413 0
M  V30 1974 H 194.234 1.608 1.10134 0
M  V30 1975 H 193.33 1.68489 2.62712 0
M  V30 1976 N 193.631 -1.12557 1.10312 0
M  V30 1977 C 194.859 -1.87864 0.866873 0
M  V30 1978 C 195.274 -1.79588 -0.582557 0
M  V30 1979 O 194.631 -1.16887 -1.40156 0
M  V30 1980 C 194.682 -3.37125 1.30496 0
M  V30 1981 O 194.403 -3.45201 2.69755 0
M  V30 1982 C 195.904 -4.29373 1.10243 0
M  V30 1983 H 193.124 -0.594452 0.311236 0
M  V30 1984 H 195.668 -1.42429 1.46745 0
M  V30 1985 H 193.823 -3.80109 0.748081 0
M  V30 1986 H 194.237 -4.38056 2.88457 0
M  V30 1987 H 195.711 -5.32394 1.45811 0
M  V30 1988 H 196.188 -4.39181 0.0409492 0
M  V30 1989 H 196.794 -3.92169 1.64571 0
M  V30 1990 N 195.109 -0.891671 -1.2995 0
M  V30 1991 C 196.039 -0.379797 -2.30391 0
M  V30 1992 C 197.02 0.540919 -1.6127 0
M  V30 1993 O 198.205 0.453352 -1.88834 0
M  V30 1994 C 195.335 0.400654 -3.44981 0
M  V30 1995 C 194.289 -0.428905 -4.25846 0
M  V30 1996 C 193.615 0.478557 -5.32554 0
M  V30 1997 C 194.915 -1.67458 -4.94727 0
M  V30 1998 H 196.609 -1.21914 -2.73454 0
M  V30 1999 H 194.155 -0.587675 -1.31462 0
M  V30 2000 H 196.108 0.769434 -4.14316 0
M  V30 2001 H 194.832 1.27371 -3.0074 0
M  V30 2002 H 193.491 -0.779911 -3.58208 0
M  V30 2003 H 193.139 1.34951 -4.84559 0
M  V30 2004 H 192.839 -0.0727433 -5.87555 0
M  V30 2005 H 194.363 0.843705 -6.04743 0
M  V30 2006 H 195.777 -1.376 -5.56542 0
M  V30 2007 H 194.174 -2.16659 -5.59624 0
M  V30 2008 H 195.244 -2.41518 -4.20473 0
M  V30 2009 N 196.587 1.43421 -0.653314 0
M  V30 2010 C 198.003 1.56341 -0.320886 0
M  V30 2011 C 198.203 1.63696 1.17499 0
M  V30 2012 O 197.259 1.59208 1.95982 0
M  V30 2013 C 198.572 2.82424 -1.03233 0
M  V30 2014 C 200.12 2.96168 -1.01259 0
M  V30 2015 C 200.595 4.25084 -1.70492 0
M  V30 2016 N 202.086 4.31948 -1.67257 0
M  V30 2017 C 202.821 5.30466 -2.17701 0
M  V30 2018 N 202.317 6.35261 -2.76434 0
M  V30 2019 N 204.11 5.2212 -2.082 0
M  V30 2020 H 196.261 1.3689 -1.62403 0
M  V30 2021 H 198.524 0.657455 -0.682977 0
M  V30 2022 H 198.23 2.83053 -2.08744 0
M  V30 2023 H 198.104 3.72653 -0.583948 0
M  V30 2024 H 200.491 2.9508 0.0341235 0
M  V30 2025 H 200.572 2.07229 -1.49966 0
M  V30 2026 H 200.216 4.26932 -2.7512 0
M  V30 2027 H 200.146 5.1292 -1.19251 0
M  V30 2028 H 202.637 3.56838 -1.24398 0
M  V30 2029 H 202.95 7.06754 -3.12601 0
M  V30 2030 H 201.295 6.35884 -2.80495 0
M  V30 2031 H 204.486 4.39166 -1.62021 0
M  V30 2032 H 204.659 5.98739 -2.47822 0
M  V30 2033 N 198.065 0.39524 1.52563 0
M  V30 2034 C 198.995 -0.428384 2.29537 0
M  V30 2035 C 199.976 -1.05831 1.33169 0
M  V30 2036 O 201.161 -1.06995 1.62067 0
M  V30 2037 C 198.291 -1.55274 3.10656 0
M  V30 2038 C 197.245 -1.04855 4.14957 0
M  V30 2039 C 196.571 -2.26543 4.84337 0
M  V30 2040 C 197.871 -0.112324 5.22179 0
M  V30 2041 H 199.565 0.213867 2.98635 0
M  V30 2042 H 197.111 0.104298 1.43622 0
M  V30 2043 H 199.064 -2.1358 3.63265 0
M  V30 2044 H 197.788 -2.22266 2.39302 0
M  V30 2045 H 196.447 -0.487985 3.63338 0
M  V30 2046 H 196.095 -2.92059 4.09525 0
M  V30 2047 H 195.795 -1.93466 5.54837 0
M  V30 2048 H 197.319 -2.85481 5.39753 0
M  V30 2049 H 198.733 -0.603752 5.70112 0
M  V30 2050 H 197.13 0.128968 5.99961 0
M  V30 2051 H 198.2 0.837052 4.77621 0
M  V30 2052 N 199.544 -1.57102 0.125237 0
M  V30 2053 C 200.474 -2.18659 -0.819174 0
M  V30 2054 C 201.455 -1.12843 -1.27281 0
M  V30 2055 O 202.64 -1.41104 -1.33429 0
M  V30 2056 C 199.77 -2.79096 -2.06695 0
M  V30 2057 C 198.724 -3.90548 -1.75088 0
M  V30 2058 C 198.05 -4.37821 -3.06948 0
M  V30 2059 C 199.35 -5.12356 -1.01435 0
M  V30 2060 H 201.044 -2.9783 -0.306202 0
M  V30 2061 H 198.59 -1.4326 -0.145839 0
M  V30 2062 H 200.543 -3.2082 -2.73226 0
M  V30 2063 H 199.267 -1.97223 -2.60328 0
M  V30 2064 H 197.926 -3.49409 -1.10944 0
M  V30 2065 H 197.574 -3.52799 -3.58527 0
M  V30 2066 H 197.274 -5.12982 -2.86571 0
M  V30 2067 H 198.798 -4.822 -3.74587 0
M  V30 2068 H 200.212 -5.5106 -1.58132 0
M  V30 2069 H 198.609 -5.9314 -0.911319 0
M  V30 2070 H 199.679 -4.849 -0.00218681 0
M  V30 2071 N 201.022 0.148545 -1.56898 0
M  V30 2072 C 202.299 0.890019 -1.74178 0
M  V30 2073 C 202.679 1.99407 -0.692839 0
M  V30 2074 O 202.027 2.26671 0.288505 0
M  V30 2075 C 202.237 1.43389 -3.18183 0
M  V30 2076 C 203.585 1.89791 -3.79822 0
M  V30 2077 O 204.609 1.53134 -3.21603 0
M  V30 2078 O 203.468 2.57387 -4.82093 0
M  V30 2079 H 200.562 0.420496 -0.712118 0
M  V30 2080 H 203.108 0.134591 -1.69165 0
M  V30 2081 H 201.88 0.640383 -3.86024 0
M  V30 2082 H 201.503 2.25287 -3.27615 0
M  V30 2083 N 202.5 1.5196 0.417844 0
M  V30 2084 C 203.463 1.74065 1.49111 0
M  V30 2085 C 204.463 0.610537 1.48758 0
M  V30 2086 O 205.653 0.87832 1.50437 0
M  V30 2087 C 202.785 1.81502 2.88565 0
M  V30 2088 H 203.978 2.69869 1.30807 0
M  V30 2089 H 201.531 1.42244 0.647785 0
M  V30 2090 H 202.266 0.875813 3.1225 0
M  V30 2091 H 202.051 2.63651 2.90225 0
M  V30 2092 H 203.541 2.00376 3.66387 0
M  V30 2093 N 203.978 -0.674533 1.42435 0
M  V30 2094 C 205.224 -1.43671 1.43131 0
M  V30 2095 C 205.557 -1.94142 0.0476021 0
M  V30 2096 O 204.832 -1.70924 -0.928188 0
M  V30 2097 C 205.115 -2.63355 2.45594 0
M  V30 2098 C 204.968 -2.18514 3.93156 0
M  V30 2099 C 206.287 -3.65571 2.45043 0
M  V30 2100 H 203.406 -0.521077 0.521198 0
M  V30 2101 H 206.048 -0.766551 1.7385 0
M  V30 2102 H 204.198 -3.2053 2.19528 0
M  V30 2103 H 205.87 -1.66504 4.30202 0
M  V30 2104 H 204.113 -1.50086 4.07009 0
M  V30 2105 H 204.784 -3.04484 4.60428 0
M  V30 2106 H 207.26 -3.18113 2.68223 0
M  V30 2107 H 206.136 -4.46893 3.18713 0
M  V30 2108 H 206.397 -4.16716 1.47649 0
M  V30 2109 N 205.456 -1.28612 -0.910864 0
M  V30 2110 C 206.403 -1.12786 -2.01365 0
M  V30 2111 C 207.373 -0.024201 -1.66082 0
M  V30 2112 O 208.558 -0.189667 -1.89855 0
M  V30 2113 C 205.698 -0.798743 -3.35729 0
M  V30 2114 C 204.811 -1.98173 -3.83864 0
M  V30 2115 C 203.946 -1.59298 -5.06752 0
M  V30 2116 C 202.985 -2.74245 -5.47226 0
M  V30 2117 N 202.122 -2.35842 -6.61304 0
M  V30 2118 H 206.962 -2.07142 -2.14234 0
M  V30 2119 H 204.499 -1.03093 -1.0493 0
M  V30 2120 H 206.457 -0.588662 -4.13026 0
M  V30 2121 H 205.087 0.10789 -3.2262 0
M  V30 2122 H 204.139 -2.30386 -3.02699 0
M  V30 2123 H 205.451 -2.84343 -4.09818 0
M  V30 2124 H 204.605 -1.34513 -5.916 0
M  V30 2125 H 203.344 -0.702618 -4.82612 0
M  V30 2126 H 202.349 -2.99725 -4.60918 0
M  V30 2127 H 203.574 -3.63928 -5.73353 0
M  V30 2128 H 201.52 -1.49279 -6.38789 0
M  V30 2129 H 201.437 -3.15546 -6.86998 0
M  V30 2130 H 202.705 -2.14348 -7.4945 0
M  V30 2131 N 206.934 1.1197 -1.10907 0
M  V30 2132 C 208.162 1.87402 -0.876824 0
M  V30 2133 C 208.577 1.79894 0.573025 0
M  V30 2134 O 207.934 1.17629 1.39534 0
M  V30 2135 C 207.985 3.36428 -1.32282 0
M  V30 2136 O 207.706 3.43765 -2.71582 0
M  V30 2137 C 209.207 4.28783 -1.12518 0
M  V30 2138 H 206.427 0.592793 -0.314384 0
M  V30 2139 H 208.971 1.41649 -1.47499 0
M  V30 2140 H 207.126 3.79706 -0.768229 0
M  V30 2141 H 207.54 4.3652 -2.90776 0
M  V30 2142 H 209.014 5.31613 -1.48633 0
M  V30 2143 H 209.491 4.39153 -0.0642394 0
M  V30 2144 H 210.097 3.91291 -1.66648 0
M  V30 2145 N 208.412 0.89855 1.29475 0
M  V30 2146 C 209.652 0.530771 1.97388 0
M  V30 2147 C 210.016 -0.905832 1.69289 0
M  V30 2148 O 211.217 -1.38042 2.30646 0
M  V30 2149 C 209.488 0.81369 3.48014 0
M  V30 2150 S 211.047 0.550048 4.35339 0
M  V30 2151 H 207.865 0.196956 0.683176 0
M  V30 2152 H 210.467 1.16074 1.57312 0
M  V30 2153 H 209.171 1.85749 3.65958 0
M  V30 2154 H 208.702 0.171795 3.93025 0
M  V30 2155 H 210.717 -0.605423 4.92493 0
M  V30 2156 N 209.89 -1.43072 0.660911 0
M  V30 2157 C 211.138 -2.01323 0.177094 0
M  V30 2158 C 211.459 -1.5245 -1.2159 0
M  V30 2159 O 210.729 -0.740322 -1.81373 0
M  V30 2160 H 209.309 -0.744382 0.0624804 0
M  V30 2161 H 211.971 -1.75179 0.854305 0
M  V30 2162 H 211.067 -3.11649 0.167641 0
M  V30 2163 N 211.368 -0.403325 -1.52352 0
M  V30 2164 C 212.298 0.416205 -2.29761 0
M  V30 2165 C 213.279 1.05123 -1.33728 0
M  V30 2166 O 214.464 1.06134 -1.62632 0
M  V30 2167 C 211.594 1.53624 -3.11475 0
M  V30 2168 C 210.548 1.02653 -4.15507 0
M  V30 2169 C 209.874 2.23971 -4.85532 0
M  V30 2170 C 211.174 0.08463 -5.22231 0
M  V30 2171 H 212.868 -0.229701 -2.98518 0
M  V30 2172 H 210.414 -0.111913 -1.43564 0
M  V30 2173 H 212.367 2.1165 -3.64393 0
M  V30 2174 H 211.091 2.20994 -2.40477 0
M  V30 2175 H 209.75 0.46871 -3.63591 0
M  V30 2176 H 209.398 2.89883 -4.11068 0
M  V30 2177 H 209.098 1.90521 -5.55856 0
M  V30 2178 H 210.622 2.82614 -5.41259 0
M  V30 2179 H 212.036 0.573509 -5.70424 0
M  V30 2180 H 210.433 -0.160783 -5.99885 0
M  V30 2181 H 211.503 -0.86237 -4.7717 0
M  V30 2182 N 212.846 1.57033 -0.133567 0
M  V30 2183 C 214.095 1.94861 0.520768 0
M  V30 2184 C 214.408 1.02012 1.66892 0
M  V30 2185 O 215.614 1.29365 2.38699 0
M  V30 2186 C 214.07 3.46362 0.977809 0
M  V30 2187 C 213.678 4.47773 -0.142674 0
M  V30 2188 C 215.422 3.93083 1.60269 0
M  V30 2189 C 213.329 5.90468 0.331883 0
M  V30 2190 H 212.259 0.727453 0.198315 0
M  V30 2191 H 214.91 1.82227 -0.215759 0
M  V30 2192 H 213.292 3.54282 1.7692 0
M  V30 2193 H 214.466 4.51536 -0.919317 0
M  V30 2194 H 212.781 4.10891 -0.675124 0
M  V30 2195 H 215.378 4.97121 1.96914 0
M  V30 2196 H 215.721 3.33876 2.48662 0
M  V30 2197 H 216.254 3.88025 0.876453 0
M  V30 2198 H 212.993 6.53463 -0.516341 0
M  V30 2199 H 212.513 5.90094 1.07469 0
M  V30 2200 H 214.192 6.42179 0.788332 0
M  V30 2201 N 214.325 -0.140222 1.56975 0
M  V30 2202 C 215.273 -1.19207 1.99731 0
M  V30 2203 C 216.267 -1.44089 0.890777 0
M  V30 2204 O 217.473 -1.44301 1.07597 0
M  V30 2205 H 213.848 -0.40142 0.635898 0
M  V30 2206 H 215.819 -0.804813 2.87342 0
M  V30 2207 C 214.568 -2.51617 2.39967 0
M  V30 2208 H 213.891 -2.33303 3.24669 0
M  V30 2209 H 215.331 -3.23827 2.73701 0
M  V30 2210 C 213.79 -3.12654 1.25496 0
M  V30 2211 O 214.32 -3.97786 0.559371 0
M  V30 2212 N 212.526 -2.72206 1.01746 0
M  V30 2213 H 212.073 -2.03074 1.58489 0
M  V30 2214 H 212.031 -3.13377 0.253461 0
M  V30 2215 N 215.803 -1.52179 -0.40978 0
M  V30 2216 C 217.028 -1.70347 -1.18308 0
M  V30 2217 C 217.453 -0.411887 -1.83535 0
M  V30 2218 O 216.811 0.630587 -1.6998 0
M  V30 2219 C 216.859 -2.83977 -2.22238 0
M  V30 2220 O 215.963 -2.495 -3.28365 0
M  V30 2221 H 215.304 -0.567103 -0.345384 0
M  V30 2222 H 217.834 -1.98879 -0.480445 0
M  V30 2223 H 217.844 -3.0887 -2.66577 0
M  V30 2224 H 216.519 -3.77685 -1.74146 0
M  V30 2225 H 215.096 -2.35277 -2.89308 0
M  V30 2226 N 217.281 0.66697 -1.42791 0
M  V30 2227 C 218.527 1.4291 -1.43891 0
M  V30 2228 C 218.86 1.94114 -0.0578972 0
M  V30 2229 O 218.135 1.71414 0.91911 0
M  V30 2230 C 218.418 2.62049 -2.46987 0
M  V30 2231 C 218.271 2.16426 -3.94309 0
M  V30 2232 C 219.59 3.64266 -2.46978 0
M  V30 2233 H 216.709 0.518306 -0.523954 0
M  V30 2234 H 219.351 0.757321 -1.74255 0
M  V30 2235 H 217.501 3.19361 -2.21225 0
M  V30 2236 H 219.173 1.64221 -4.31079 0
M  V30 2237 H 217.416 1.47925 -4.078 0
M  V30 2238 H 218.087 3.02038 -4.62036 0
M  V30 2239 H 220.563 3.16686 -2.69906 0
M  V30 2240 H 219.439 4.45196 -3.21079 0
M  V30 2241 H 219.7 4.15927 -1.49857 0
M  V30 2242 N 218.759 1.29093 0.90403 0
M  V30 2243 C 219.706 1.13853 2.00764 0
M  V30 2244 C 220.676 0.0330084 1.66067 0
M  V30 2245 O 221.861 0.199733 1.89752 0
M  V30 2246 C 219.001 0.816537 3.35301 0
M  V30 2247 C 218.114 2.00206 3.82807 0
M  V30 2248 C 217.249 1.61983 5.059 0
M  V30 2249 C 216.288 2.77143 5.45764 0
M  V30 2250 N 215.425 2.39346 6.60044 0
M  V30 2251 H 220.265 2.08276 2.13132 0
M  V30 2252 H 217.802 1.03648 1.04381 0
M  V30 2253 H 219.76 0.610557 4.12708 0
M  V30 2254 H 218.39 -0.090779 3.22672 0
M  V30 2255 H 217.442 2.31988 3.01473 0
M  V30 2256 H 218.754 2.86512 4.08304 0
M  V30 2257 H 217.908 1.37649 5.90879 0
M  V30 2258 H 216.647 0.728202 4.82233 0
M  V30 2259 H 215.652 3.02165 4.59322 0
M  V30 2260 H 216.877 3.66964 5.71414 0
M  V30 2261 H 214.823 1.52665 6.37989 0
M  V30 2262 H 214.74 3.19185 6.85315 0
M  V30 2263 H 216.008 2.1832 7.48303 0
M  V30 2264 N 220.237 -1.11381 1.11499 0
M  V30 2265 C 221.484 -1.83132 0.864231 0
M  V30 2266 C 221.812 -1.84683 -0.610114 0
M  V30 2267 O 221.067 -1.29589 -1.46646 0
M  V30 2268 C 221.366 -3.30026 1.37177 0
M  V30 2269 C 221.032 -3.48634 2.85946 0
M  V30 2270 C 219.694 -3.53421 3.26569 0
M  V30 2271 C 222.046 -3.54837 3.81759 0
M  V30 2272 C 219.374 -3.61967 4.61733 0
M  V30 2273 C 221.726 -3.64915 5.1674 0
M  V30 2274 C 220.39 -3.67962 5.5692 0
M  V30 2275 H 219.66 -0.670127 0.316245 0
M  V30 2276 H 222.307 -1.31354 1.3935 0
M  V30 2277 H 220.612 -3.84304 0.762753 0
M  V30 2278 H 222.309 -3.84034 1.15408 0
M  V30 2279 H 218.899 -3.45579 2.53521 0
M  V30 2280 H 223.083 -3.50399 3.51474 0
M  V30 2281 H 218.339 -3.62603 4.92269 0
M  V30 2282 H 222.513 -3.68658 5.90816 0
M  V30 2283 H 220.14 -3.74336 6.61647 0
M  V30 2284 N 221.715 -0.905404 -1.28997 0
M  V30 2285 C 222.945 -0.549049 -1.99171 0
M  V30 2286 C 223.353 0.87203 -1.67906 0
M  V30 2287 O 222.696 1.58796 -0.923561 0
M  V30 2288 C 222.758 -0.668306 -3.53234 0
M  V30 2289 C 222.422 -2.0574 -4.08069 0
M  V30 2290 C 223.419 -3.0292 -4.22534 0
M  V30 2291 C 221.104 -2.36833 -4.42962 0
M  V30 2292 C 223.098 -4.29314 -4.71135 0
M  V30 2293 C 220.785 -3.63467 -4.91258 0
M  V30 2294 C 221.783 -4.59522 -5.053 0
M  V30 2295 O 221.471 -5.83907 -5.52546 0
M  V30 2296 H 221.203 -0.208784 -0.64295 0
M  V30 2297 H 223.757 -1.21836 -1.65363 0
M  V30 2298 H 221.987 0.0580547 -3.86656 0
M  V30 2299 H 223.676 -0.320273 -4.04634 0
M  V30 2300 H 224.442 -2.80216 -3.95859 0
M  V30 2301 H 220.321 -1.62824 -4.31288 0
M  V30 2302 H 223.865 -5.04293 -4.8201 0
M  V30 2303 H 219.762 -3.86 -5.17372 0
M  V30 2304 H 220.53 -5.86578 -5.70849 0
M  V30 2305 N 223.193 1.4272 -0.668489 0
M  V30 2306 C 224.125 2.2914 0.052613 0
M  V30 2307 C 225.138 1.43339 0.771857 0
M  V30 2308 O 226.327 1.67123 0.627067 0
M  V30 2309 C 223.427 3.20618 1.09804 0
M  V30 2310 C 222.6 4.35039 0.45389 0
M  V30 2311 C 221.659 5.07282 1.39825 0
M  V30 2312 O 220.685 5.62024 0.900978 0
M  V30 2313 N 221.887 5.12206 2.73176 0
M  V30 2314 H 224.652 2.91668 -0.689209 0
M  V30 2315 H 222.213 1.53577 -0.512422 0
M  V30 2316 H 224.205 3.65815 1.73094 0
M  V30 2317 H 222.775 2.59585 1.74167 0
M  V30 2318 H 221.995 3.92567 -0.358396 0
M  V30 2319 H 223.283 5.088 0.00486972 0
M  V30 2320 H 222.681 4.6913 3.16122 0
M  V30 2321 H 221.238 5.61069 3.31729 0
M  V30 2322 N 224.671 0.411399 1.52136 0
M  V30 2323 C 225.634 -0.401089 2.25663 0
M  V30 2324 C 226.634 -0.971732 1.28117 0
M  V30 2325 O 227.824 -0.850254 1.52041 0
M  V30 2326 C 224.956 -1.56483 3.02863 0
M  V30 2327 H 226.149 0.24295 2.98914 0
M  V30 2328 H 223.702 0.163968 1.55438 0
M  V30 2329 H 224.437 -2.24567 2.33967 0
M  V30 2330 H 224.222 -1.16211 3.74483 0
M  V30 2331 H 225.712 -2.13951 3.58629 0
M  V30 2332 N 226.149 -1.5696 0.141893 0
M  V30 2333 C 227.374 -2.00754 -0.520838 0
M  V30 2334 C 227.799 -1.0213 -1.57959 0
M  V30 2335 O 227.157 0.00371324 -1.813 0
M  V30 2336 C 227.205 -3.43318 -1.10294 0
M  V30 2337 O 226.309 -3.47679 -2.21795 0
M  V30 2338 H 225.65 -0.651564 -0.127908 0
M  V30 2339 H 228.18 -2.03221 0.23712 0
M  V30 2340 H 228.19 -3.82012 -1.43287 0
M  V30 2341 H 226.865 -4.14608 -0.327574 0
M  V30 2342 H 225.442 -3.20824 -1.9007 0
M  V30 2343 N 227.627 0.131896 -1.57047 0
M  V30 2344 C 228.855 0.856461 -1.88341 0
M  V30 2345 C 229.27 1.74042 -0.731757 0
M  V30 2346 O 228.627 1.80051 0.297945 0
M  V30 2347 C 228.678 1.70064 -3.18999 0
M  V30 2348 O 228.399 0.852278 -4.2973 0
M  V30 2349 C 229.9 2.53148 -3.63911 0
M  V30 2350 H 227.12 0.246885 -0.62393 0
M  V30 2351 H 229.664 0.120152 -2.04147 0
M  V30 2352 H 227.819 2.38984 -3.04902 0
M  V30 2353 H 228.233 1.43329 -5.04537 0
M  V30 2354 H 229.707 3.07931 -4.58129 0
M  V30 2355 H 230.184 3.29901 -2.89935 0
M  V30 2356 H 230.79 1.89492 -3.80753 0
M  V30 2357 N 229.106 1.52395 0.401703 0
M  V30 2358 C 230.331 1.70972 1.17403 0
M  V30 2359 C 230.756 0.421615 1.83314 0
M  V30 2360 O 230.114 -0.621564 1.70312 0
M  V30 2361 C 230.162 2.85151 2.20728 0
M  V30 2362 O 229.266 2.51238 3.27037 0
M  V30 2363 H 228.607 0.568927 0.342372 0
M  V30 2364 H 231.137 1.99131 0.469891 0
M  V30 2365 H 231.147 3.10279 2.64936 0
M  V30 2366 H 229.822 3.78603 1.7214 0
M  V30 2367 H 228.399 2.36808 2.88057 0
M  V30 2368 N 230.584 -0.659388 1.43143 0
M  V30 2369 C 231.494 -1.80167 1.50256 0
M  V30 2370 C 232.51 -1.69571 0.390106 0
M  V30 2371 O 233.686 -1.90849 0.643319 0
M  V30 2372 C 230.751 -3.16409 1.41725 0
M  V30 2373 C 229.812 -3.38848 2.63591 0
M  V30 2374 C 229.045 -4.68591 2.55458 0
M  V30 2375 O 229.268 -5.47532 1.59891 0
M  V30 2376 O 228.202 -4.92614 3.45854 0
M  V30 2377 H 232.028 -1.77121 2.46702 0
M  V30 2378 H 229.613 -0.817092 1.25076 0
M  V30 2379 H 231.495 -3.9768 1.39387 0
M  V30 2380 H 230.17 -3.20059 0.484118 0
M  V30 2381 H 229.077 -2.57366 2.71502 0
M  V30 2382 H 230.41 -3.4004 3.55856 0
M  V30 2383 N 232.062 -1.29571 -0.897171 0
M  V30 2384 C 232.992 -1.17473 -2.01798 0
M  V30 2385 C 233.973 -0.068323 -1.69963 0
M  V30 2386 O 235.158 -0.248239 -1.92607 0
M  V30 2387 C 232.288 -0.853099 -3.36659 0
M  V30 2388 C 231.242 -1.9161 -3.82713 0
M  V30 2389 C 230.568 -1.44773 -5.14728 0
M  V30 2390 C 231.868 -3.32535 -4.02763 0
M  V30 2391 H 233.562 -2.11237 -2.12177 0
M  V30 2392 H 231.108 -1.01699 -1.01948 0
M  V30 2393 H 233.061 -0.755165 -4.14578 0
M  V30 2394 H 231.785 0.120236 -3.26379 0
M  V30 2395 H 230.444 -2.00346 -3.07013 0
M  V30 2396 H 230.092 -0.462995 -5.00865 0
M  V30 2397 H 229.792 -2.15865 -5.46513 0
M  V30 2398 H 231.316 -1.36334 -5.95185 0
M  V30 2399 H 232.73 -3.26626 -4.71156 0
M  V30 2400 H 231.127 -4.01607 -4.45905 0
M  V30 2401 H 232.197 -3.75326 -3.07016 0
M  V30 2402 N 233.54 1.10788 -1.12088 0
M  V30 2403 C 234.77 1.86191 -0.895351 0
M  V30 2404 C 235.178 1.80763 0.558702 0
M  V30 2405 O 234.521 1.19188 1.39785 0
M  V30 2406 C 234.583 3.35659 -1.28737 0
M  V30 2407 C 234.247 3.64849 -2.75198 0
M  V30 2408 C 235.244 3.61757 -3.734 0
M  V30 2409 C 232.929 3.93641 -3.12013 0
M  V30 2410 C 234.923 3.87045 -5.06434 0
M  V30 2411 C 232.61 4.18585 -4.4523 0
M  V30 2412 C 233.608 4.15277 -5.42249 0
M  V30 2413 O 233.296 4.3959 -6.73065 0
M  V30 2414 H 233.028 0.595425 -0.32007 0
M  V30 2415 H 235.582 1.40992 -1.49367 0
M  V30 2416 H 233.812 3.81497 -0.63224 0
M  V30 2417 H 235.501 3.92441 -1.03656 0
M  V30 2418 H 236.267 3.39557 -3.46303 0
M  V30 2419 H 232.146 3.95348 -2.37109 0
M  V30 2420 H 235.69 3.84378 -5.82151 0
M  V30 2421 H 231.587 4.40264 -4.72057 0
M  V30 2422 H 232.355 4.57123 -6.78956 0
M  V30 2423 N 235.018 0.912232 1.28515 0
M  V30 2424 C 236.266 0.543523 1.94654 0
M  V30 2425 C 236.587 -0.9155 1.72173 0
M  V30 2426 O 235.857 -1.64708 1.06058 0
M  V30 2427 H 234.437 0.198017 0.720277 0
M  V30 2428 H 237.099 1.16126 1.56527 0
M  V30 2429 H 236.195 0.736684 3.03281 0
M  V30 2430 N 236.496 -1.42363 0.676048 0
M  V30 2431 C 237.443 -2.308 -0.00150904 0
M  V30 2432 C 238.413 -1.46032 -0.791444 0
M  V30 2433 O 239.598 -1.74861 -0.76344 0
M  V30 2434 C 236.738 -3.31883 -0.945919 0
M  V30 2435 C 235.851 -4.31741 -0.149675 0
M  V30 2436 C 234.986 -5.19898 -1.08995 0
M  V30 2437 C 234.025 -6.11434 -0.285465 0
M  V30 2438 N 233.162 -6.92138 -1.17851 0
M  V30 2439 H 238.002 -2.88187 0.758455 0
M  V30 2440 H 235.539 -1.41952 0.38576 0
M  V30 2441 H 237.497 -3.89019 -1.50731 0
M  V30 2442 H 236.127 -2.76093 -1.6725 0
M  V30 2443 H 235.179 -3.76713 0.528359 0
M  V30 2444 H 236.491 -4.96534 0.474866 0
M  V30 2445 H 235.645 -5.81772 -1.72123 0
M  V30 2446 H 234.384 -4.55284 -1.74837 0
M  V30 2447 H 233.389 -5.48627 0.359018 0
M  V30 2448 H 234.614 -6.78097 0.368883 0
M  V30 2449 H 232.56 -6.30152 -1.82332 0
M  V30 2450 H 232.477 -7.53542 -0.609082 0
M  V30 2451 H 233.745 -7.58499 -1.79722 0
M  V30 2452 N 237.974 -0.419461 -1.51915 0
M  V30 2453 C 239.22 0.153166 -2.02221 0
M  V30 2454 C 239.553 1.43907 -1.30401 0
M  V30 2455 O 238.828 1.90055 -0.413438 0
M  V30 2456 C 239.111 0.390291 -3.57979 0
M  V30 2457 C 238.964 -0.913014 -4.40436 0
M  V30 2458 C 240.283 1.16794 -4.2432 0
M  V30 2459 H 237.402 0.0541924 -0.735005 0
M  V30 2460 H 240.044 -0.554955 -1.81715 0
M  V30 2461 H 238.194 0.993491 -3.75582 0
M  V30 2462 H 239.866 -1.54882 -4.34522 0
M  V30 2463 H 238.109 -1.52168 -4.06236 0
M  V30 2464 H 238.78 -0.701361 -5.47526 0
M  V30 2465 H 241.256 0.657161 -4.10878 0
M  V30 2466 H 240.132 1.3026 -5.3322 0
M  V30 2467 H 240.393 2.19132 -3.83971 0
M  V30 2468 N 239.452 1.56882 -0.150215 0
M  V30 2469 C 240.384 2.14057 0.819286 0
M  V30 2470 C 241.397 1.09082 1.20851 0
M  V30 2471 O 242.586 1.36347 1.15203 0
M  V30 2472 C 239.686 2.65102 2.11127 0
M  V30 2473 C 238.859 3.94511 1.88891 0
M  V30 2474 C 237.918 4.30834 3.02107 0
M  V30 2475 O 236.944 4.99099 2.73659 0
M  V30 2476 N 238.146 3.90676 4.29363 0
M  V30 2477 H 240.911 2.97871 0.330618 0
M  V30 2478 H 238.472 1.61866 0.0332538 0
M  V30 2479 H 240.464 2.86411 2.85921 0
M  V30 2480 H 239.034 1.85994 2.51247 0
M  V30 2481 H 238.254 3.81795 0.981152 0
M  V30 2482 H 239.542 4.7907 1.71376 0
M  V30 2483 H 238.94 3.35677 4.55343 0
M  V30 2484 H 237.497 4.1703 5.00928 0
M  V30 2485 N 240.93 -0.123565 1.57115 0
M  V30 2486 C 241.84 -1.17074 2.033 0
M  V30 2487 C 242.856 -1.4561 0.952559 0
M  V30 2488 O 244.032 -1.56817 1.26374 0
M  V30 2489 C 241.097 -2.47857 2.42421 0
M  V30 2490 C 240.158 -2.26758 3.64526 0
M  V30 2491 C 239.391 -3.51305 4.01771 0
M  V30 2492 O 239.614 -4.5843 3.39409 0
M  V30 2493 O 238.548 -3.42578 4.94898 0
M  V30 2494 H 242.374 -0.808555 2.92739 0
M  V30 2495 H 239.959 -0.334027 1.45618 0
M  V30 2496 H 241.841 -3.2492 2.68338 0
M  V30 2497 H 240.516 -2.83558 1.5613 0
M  V30 2498 H 239.423 -1.47569 3.43765 0
M  V30 2499 H 240.756 -1.95963 4.51508 0
M  V30 2500 N 242.408 -1.52605 -0.393616 0
M  V30 2501 C 243.657 -1.66649 -1.13627 0
M  V30 2502 C 243.97 -0.410364 -1.91247 0
M  V30 2503 O 245.176 -0.430854 -2.68059 0
M  V30 2504 C 243.632 -2.9449 -2.06891 0
M  V30 2505 C 243.24 -4.27266 -1.34714 0
M  V30 2506 C 244.984 -3.17899 -2.81319 0
M  V30 2507 C 242.891 -5.46217 -2.26717 0
M  V30 2508 H 241.821 -0.62084 -0.427871 0
M  V30 2509 H 244.472 -1.791 -0.399428 0
M  V30 2510 H 242.854 -2.75774 -2.84191 0
M  V30 2511 H 244.028 -4.56518 -0.626714 0
M  V30 2512 H 242.343 -4.10081 -0.722643 0
M  V30 2513 H 244.94 -4.03949 -3.50328 0
M  V30 2514 H 245.283 -2.32777 -3.45139 0
M  V30 2515 H 245.816 -3.37159 -2.11113 0
M  V30 2516 H 242.555 -6.33733 -1.67521 0
M  V30 2517 H 242.075 -5.21283 -2.96689 0
M  V30 2518 H 243.754 -5.7991 -2.86903 0
M  V30 2519 N 243.887 0.651787 -1.4349 0
M  V30 2520 C 245.298 1.233 -1.40193 0
M  V30 2521 C 245.649 1.9591 -0.106727 0
M  V30 2522 O 244.774 2.01316 0.793773 0
M  V30 2523 C 245.369 2.24257 -2.53957 0
M  V30 2524 C 243.928 2.77852 -2.5392 0
M  V30 2525 C 243.075 1.52517 -2.3159 0
M  V30 2526 H 246.026 0.443717 -1.52371 0
M  V30 2527 H 246.047 3.0646 -2.25528 0
M  V30 2528 H 245.559 1.71382 -3.4821 0
M  V30 2529 H 243.66 3.34786 -1.63551 0
M  V30 2530 H 243.773 3.25299 -3.51735 0
M  V30 2531 H 242.137 1.79915 -1.80285 0
M  V30 2532 H 242.92 1.01574 -3.27929 0
M  V30 2533 N 245.365 1.30045 0.890287 0
M  V30 2534 C 246.297 1.11786 2.00091 0
M  V30 2535 C 247.31 0.0626307 1.62679 0
M  V30 2536 O 248.499 0.308112 1.75821 0
M  V30 2537 C 245.599 0.681527 3.31977 0
M  V30 2538 C 244.772 1.81735 3.97858 0
M  V30 2539 C 243.831 1.37045 5.08041 0
M  V30 2540 O 242.857 2.07677 5.29961 0
M  V30 2541 N 244.059 0.246525 5.79976 0
M  V30 2542 H 246.824 2.07441 2.16306 0
M  V30 2543 H 244.385 1.2211 1.06305 0
M  V30 2544 H 246.377 0.365675 4.03045 0
M  V30 2545 H 244.947 -0.182828 3.12065 0
M  V30 2546 H 244.167 2.30159 3.20032 0
M  V30 2547 H 245.455 2.57865 4.38615 0
M  V30 2548 H 244.853 -0.34215 5.64664 0
M  V30 2549 H 243.41 -0.00990438 6.51799 0
M  V30 2550 N 246.843 -1.10192 1.12674 0
M  V30 2551 C 247.79 -2.16606 0.796906 0
M  V30 2552 C 248.76 -1.64394 -0.237476 0
M  V30 2553 O 249.945 -1.90474 -0.111484 0
M  V30 2554 C 247.085 -3.44116 0.26043 0
M  V30 2555 C 246.198 -4.10268 1.35293 0
M  V30 2556 C 245.333 -5.25507 0.775621 0
M  V30 2557 C 244.372 -5.83567 1.84706 0
M  V30 2558 N 243.509 -6.90179 1.28829 0
M  V30 2559 H 248.349 -2.44163 1.70846 0
M  V30 2560 H 245.886 -1.19846 0.85295 0
M  V30 2561 H 247.844 -4.17143 -0.0686814 0
M  V30 2562 H 246.474 -3.16901 -0.614274 0
M  V30 2563 H 245.526 -3.35184 1.79877 0
M  V30 2564 H 246.838 -4.4946 2.16303 0
M  V30 2565 H 245.992 -6.05398 0.397327 0
M  V30 2566 H 244.731 -4.87656 -0.0656581 0
M  V30 2567 H 243.736 -5.02344 2.23452 0
M  V30 2568 H 244.961 -6.23482 2.69161 0
M  V30 2569 H 242.907 -6.54322 0.468881 0
M  V30 2570 H 242.824 -7.28097 2.03497 0
M  V30 2571 H 244.092 -7.73844 0.937311 0
M  V30 2572 N 248.321 -0.919034 -1.28029 0
M  V30 2573 C 249.231 -0.416756 -2.30869 0
M  V30 2574 C 250.247 0.498235 -1.66714 0
M  V30 2575 O 251.423 0.383144 -1.97722 0
M  V30 2576 C 248.488 0.330274 -3.45123 0
M  V30 2577 C 247.549 -0.618578 -4.2482 0
M  V30 2578 C 246.782 0.0928959 -5.33619 0
M  V30 2579 O 247.005 1.31375 -5.55065 0
M  V30 2580 O 245.939 -0.574499 -5.99152 0
M  V30 2581 H 249.765 -1.27043 -2.75851 0
M  V30 2582 H 247.35 -0.684052 -1.3282 0
M  V30 2583 H 249.232 0.751972 -4.14636 0
M  V30 2584 H 247.907 1.1597 -3.02213 0
M  V30 2585 H 246.814 -1.08978 -3.57875 0
M  V30 2586 H 248.147 -1.41497 -4.71423 0
M  V30 2587 N 249.799 1.42003 -0.683588 0
M  V30 2588 C 251.027 2.05746 -0.218182 0
M  V30 2589 C 251.442 1.51396 1.12804 0
M  V30 2590 O 250.799 0.657303 1.70252 0
M  V30 2591 C 250.85 3.61171 -0.154131 0
M  V30 2592 O 250.571 4.13508 -1.44716 0
M  V30 2593 C 252.072 4.42042 0.333713 0
M  V30 2594 H 249.292 0.662888 -0.10402 0
M  V30 2595 H 251.836 1.81987 -0.9328 0
M  V30 2596 H 249.991 3.84012 0.511231 0
M  V30 2597 H 250.405 5.07453 -1.32632 0
M  V30 2598 H 251.879 5.51028 0.327423 0
M  V30 2599 H 252.356 4.17269 1.37053 0
M  V30 2600 H 252.962 4.24239 -0.300222 0
M  V30 2601 N 251.277 0.427512 1.51691 0
M  V30 2602 C 252.505 -0.141191 2.06418 0
M  V30 2603 C 252.92 -1.37303 1.29589 0
M  V30 2604 O 252.277 -1.79059 0.352732 0
M  V30 2605 C 252.328 -0.473266 3.58389 0
M  V30 2606 O 252.049 0.709673 4.32314 0
M  V30 2607 C 253.55 -1.09371 4.29596 0
M  V30 2608 H 250.77 -0.0122747 0.670888 0
M  V30 2609 H 253.314 0.603764 1.95384 0
M  V30 2610 H 251.469 -1.16812 3.69369 0
M  V30 2611 H 251.883 0.42807 5.2275 0
M  V30 2612 H 253.357 -1.27613 5.37046 0
M  V30 2613 H 253.834 -2.072 3.87253 0
M  V30 2614 H 254.44 -0.43853 4.23033 0
M  V30 2615 N 252.755 -1.56801 0.158532 0
M  V30 2616 C 254.166 -1.83189 -0.360366 0
M  V30 2617 C 254.517 -1.07778 -1.63946 0
M  V30 2618 O 253.642 -0.326718 -2.13919 0
M  V30 2619 C 254.237 -3.32297 -0.660595 0
M  V30 2620 C 252.796 -3.59227 -1.12398 0
M  V30 2621 C 251.943 -2.76877 -0.153097 0
M  V30 2622 H 254.894 -1.54008 0.383031 0
M  V30 2623 H 254.915 -3.4908 -1.51405 0
M  V30 2624 H 254.427 -3.87156 0.270527 0
M  V30 2625 H 252.528 -3.09766 -2.07064 0
M  V30 2626 H 252.641 -4.67632 -1.04197 0
M  V30 2627 H 251.005 -2.46319 -0.647983 0
M  V30 2628 H 251.788 -3.34511 0.77182 0
M  V30 2629 N 254.233 0.115231 -1.57178 0
M  V30 2630 C 255.48 0.822351 -1.8505 0
M  V30 2631 C 255.808 1.79701 -0.744168 0
M  V30 2632 O 255.063 1.93909 0.26414 0
M  V30 2633 C 255.362 1.60324 -3.19423 0
M  V30 2634 C 255.028 0.772536 -4.44233 0
M  V30 2635 C 253.69 0.543468 -4.78121 0
M  V30 2636 C 256.042 0.193746 -5.2084 0
M  V30 2637 C 253.37 -0.274583 -5.86057 0
M  V30 2638 C 255.722 -0.611517 -6.29637 0
M  V30 2639 C 254.386 -0.850867 -6.62055 0
M  V30 2640 H 253.656 0.30092 -0.677147 0
M  V30 2641 H 256.303 0.0845802 -1.91313 0
M  V30 2642 H 254.608 2.41203 -3.08753 0
M  V30 2643 H 256.305 2.1544 -3.38211 0
M  V30 2644 H 252.895 0.96117 -4.17683 0
M  V30 2645 H 257.079 0.357926 -4.95008 0
M  V30 2646 H 252.335 -0.469206 -6.09597 0
M  V30 2647 H 256.509 -1.06697 -6.88178 0
M  V30 2648 H 254.136 -1.48657 -7.45523 0
M  V30 2649 N 255.711 1.52812 0.385517 0
M  V30 2650 C 256.941 1.71658 1.14966 0
M  V30 2651 C 257.349 0.436253 1.84102 0
M  V30 2652 O 256.692 -0.599313 1.73649 0
M  V30 2653 C 256.754 2.81309 2.23843 0
M  V30 2654 C 256.418 4.22313 1.74644 0
M  V30 2655 C 257.415 5.05352 1.22129 0
M  V30 2656 C 255.1 4.68648 1.80761 0
M  V30 2657 C 257.094 6.32807 0.763838 0
M  V30 2658 C 254.781 5.96086 1.34627 0
M  V30 2659 C 255.779 6.77996 0.825264 0
M  V30 2660 O 255.467 8.03045 0.370669 0
M  V30 2661 H 255.199 0.578022 0.350523 0
M  V30 2662 H 257.753 2.00263 0.456509 0
M  V30 2663 H 255.983 2.48133 2.96592 0
M  V30 2664 H 257.672 2.88524 2.85497 0
M  V30 2665 H 258.438 4.70736 1.16758 0
M  V30 2666 H 254.317 4.04979 2.20256 0
M  V30 2667 H 257.861 6.96689 0.356494 0
M  V30 2668 H 253.758 6.30205 1.39686 0
M  V30 2669 H 254.526 8.17021 0.491829 0
M  V30 2670 N 257.189 -0.644168 1.43834 0
M  V30 2671 C 258.6 -1.22554 1.40845 0
M  V30 2672 C 258.951 -1.9585 0.117115 0
M  V30 2673 O 258.076 -2.01734 -0.783086 0
M  V30 2674 C 258.671 -2.22907 2.55143 0
M  V30 2675 C 257.23 -2.76501 2.5539 0
M  V30 2676 C 256.377 -1.51287 2.32396 0
M  V30 2677 H 259.328 -0.43563 1.52604 0
M  V30 2678 H 259.349 -3.05259 2.2715 0
M  V30 2679 H 258.861 -1.69533 3.49114 0
M  V30 2680 H 256.962 -3.33914 1.65324 0
M  V30 2681 H 257.075 -3.23429 3.53455 0
M  V30 2682 H 255.439 -1.78957 1.81236 0
M  V30 2683 H 256.222 -0.998336 3.28463 0
M  V30 2684 N 258.668 -1.30515 -0.883378 0
M  V30 2685 C 260.084 -1.08881 -1.16692 0
M  V30 2686 C 260.284 0.149409 -2.00945 0
M  V30 2687 O 259.34 0.84257 -2.38027 0
M  V30 2688 C 260.653 -2.35319 -1.87204 0
M  V30 2689 C 262.201 -2.40799 -1.99962 0
M  V30 2690 C 262.676 -3.67083 -2.73887 0
M  V30 2691 N 264.167 -3.679 -2.81432 0
M  V30 2692 C 264.902 -4.62303 -3.3921 0
M  V30 2693 N 264.398 -5.67052 -3.98025 0
M  V30 2694 N 266.191 -4.49845 -3.3704 0
M  V30 2695 H 258.342 -2.09951 -0.321633 0
M  V30 2696 H 260.605 -0.92556 -0.205043 0
M  V30 2697 H 260.311 -3.25689 -1.3274 0
M  V30 2698 H 260.185 -2.44089 -2.87577 0
M  V30 2699 H 262.572 -1.50907 -2.53597 0
M  V30 2700 H 262.653 -2.36003 -0.98673 0
M  V30 2701 H 262.297 -4.57334 -2.20925 0
M  V30 2702 H 262.227 -3.69141 -3.75556 0
M  V30 2703 H 264.718 -2.92171 -2.39676 0
M  V30 2704 H 265.031 -6.35184 -4.40183 0
M  V30 2705 H 263.376 -5.70842 -3.96439 0
M  V30 2706 H 266.567 -3.67194 -2.90321 0
M  V30 2707 H 266.74 -5.23597 -3.81772 0
M  V30 2708 N 260.146 1.09593 -1.13257 0
M  V30 2709 C 261.371 1.8604 -0.916732 0
M  V30 2710 C 261.796 1.80504 0.529146 0
M  V30 2711 O 261.154 1.18127 1.37534 0
M  V30 2712 C 261.202 3.32017 -1.40703 0
M  V30 2713 O 260.306 4.08141 -0.591153 0
M  V30 2714 H 259.647 0.576943 -0.328683 0
M  V30 2715 H 262.177 1.38405 -1.50682 0
M  V30 2716 H 262.187 3.82865 -1.4099 0
M  V30 2717 H 260.862 3.35361 -2.45979 0
M  V30 2718 H 259.439 3.67084 -0.656005 0
M  V30 2719 N 261.624 0.925811 1.2754 0
M  V30 2720 C 263.035 0.610102 1.7645 0
M  V30 2721 C 263.386 -0.874723 1.75622 0
M  V30 2722 O 262.511 -1.68444 1.35851 0
M  V30 2723 C 263.106 1.10073 3.20421 0
M  V30 2724 C 261.665 0.835723 3.67005 0
M  V30 2725 C 260.812 1.26054 2.46993 0
M  V30 2726 H 263.763 1.10579 1.13833 0
M  V30 2727 H 263.784 0.447557 3.77859 0
M  V30 2728 H 263.296 2.18143 3.20991 0
M  V30 2729 H 261.397 -0.231249 3.71882 0
M  V30 2730 H 261.51 1.45193 4.56569 0
M  V30 2731 H 259.874 0.679111 2.45479 0
M  V30 2732 H 260.657 2.34984 2.50275 0
M  V30 2733 N 263.102 -1.41638 0.69111 0
M  V30 2734 C 264.332 -2.0533 0.228758 0
M  V30 2735 C 264.74 -1.52089 -1.12541 0
M  V30 2736 O 264.083 -0.662145 -1.71351 0
M  V30 2737 C 264.145 -3.59349 0.10407 0
M  V30 2738 C 263.809 -4.35362 1.38956 0
M  V30 2739 C 264.806 -4.64942 2.32648 0
M  V30 2740 C 262.491 -4.74714 1.64169 0
M  V30 2741 C 264.485 -5.32828 3.49818 0
M  V30 2742 C 262.172 -5.42338 2.81625 0
M  V30 2743 C 263.17 -5.71322 3.74273 0
M  V30 2744 O 262.858 -6.37554 4.89673 0
M  V30 2745 H 262.59 -0.667796 0.104997 0
M  V30 2746 H 265.144 -1.82477 0.942938 0
M  V30 2747 H 263.374 -3.80924 -0.665839 0
M  V30 2748 H 265.063 -4.04633 -0.320519 0
M  V30 2749 H 265.829 -4.35025 2.14425 0
M  V30 2750 H 261.708 -4.51538 0.929202 0
M  V30 2751 H 265.252 -5.55368 4.22152 0
M  V30 2752 H 261.149 -5.71673 2.99768 0
M  V30 2753 H 261.917 -6.56049 4.8943 0
M  V30 2754 N 264.58 -0.43555 -1.51462 0
M  V30 2755 C 265.828 0.131254 -2.01673 0
M  V30 2756 C 266.149 1.43368 -1.32177 0
M  V30 2757 O 265.419 1.90524 -0.455769 0
M  V30 2758 H 263.999 0.0514954 -0.745223 0
M  V30 2759 H 266.661 -0.577847 -1.86137 0
M  V30 2760 H 265.757 0.308446 -3.10572 0
M  V30 2761 N 266.058 1.56714 -0.166846 0
M  V30 2762 C 267.021 2.16539 0.751232 0
M  V30 2763 C 268.021 1.11228 1.16125 0
M  V30 2764 O 269.211 1.36765 1.07894 0
M  V30 2765 C 266.343 2.74462 2.02196 0
M  V30 2766 H 267.536 2.99013 0.230499 0
M  V30 2767 H 265.089 1.56081 0.0826982 0
M  V30 2768 H 265.824 1.95709 2.58589 0
M  V30 2769 H 265.609 3.51527 1.73698 0
M  V30 2770 H 267.099 3.20489 2.67725 0
M  V30 2771 N 267.536 -0.106894 1.57237 0
M  V30 2772 C 268.499 -1.11466 2.0027 0
M  V30 2773 C 269.499 -1.33623 0.894519 0
M  V30 2774 O 270.689 -1.29935 1.16028 0
M  V30 2775 C 267.821 -2.46646 2.35327 0
M  V30 2776 H 269.014 -0.744516 2.90512 0
M  V30 2777 H 266.567 -0.351576 1.52295 0
M  V30 2778 H 267.302 -2.88558 1.48003 0
M  V30 2779 H 267.087 -2.31915 3.16161 0
M  V30 2780 H 268.577 -3.19151 2.69318 0
M  V30 2781 N 269.014 -1.53014 -0.377408 0
M  V30 2782 C 269.961 -1.78616 -1.46168 0
M  V30 2783 C 270.931 -0.629917 -1.53692 0
M  V30 2784 O 272.116 -0.870861 -1.69766 0
M  V30 2785 C 269.256 -1.97123 -2.8326 0
M  V30 2786 C 268.369 -3.24831 -2.84796 0
M  V30 2787 C 267.504 -3.33591 -4.13389 0
M  V30 2788 C 266.543 -4.55377 -4.09021 0
M  V30 2789 N 265.68 -4.61355 -5.29241 0
M  V30 2790 H 270.52 -2.71142 -1.23637 0
M  V30 2791 H 268.057 -1.34326 -0.599577 0
M  V30 2792 H 270.015 -2.05839 -3.62886 0
M  V30 2793 H 268.645 -1.07946 -3.04216 0
M  V30 2794 H 267.697 -3.25128 -1.97474 0
M  V30 2795 H 269.009 -4.14523 -2.77439 0
M  V30 2796 H 268.163 -3.41554 -5.01424 0
M  V30 2797 H 266.902 -2.41894 -4.23484 0
M  V30 2798 H 265.907 -4.47527 -3.19373 0
M  V30 2799 H 267.132 -5.48402 -4.00539 0
M  V30 2800 H 265.078 -3.72554 -5.39944 0
M  V30 2801 H 264.995 -5.44935 -5.24006 0
M  V30 2802 H 266.263 -4.73586 -6.19141 0
M  V30 2803 N 270.492 0.636531 -1.44174 0
M  V30 2804 C 271.422 1.76003 -1.53444 0
M  V30 2805 C 272.403 1.65619 -0.387841 0
M  V30 2806 O 273.588 1.84461 -0.607257 0
M  V30 2807 C 270.718 3.14511 -1.4731 0
M  V30 2808 C 269.672 3.39677 -2.60391 0
M  V30 2809 C 268.998 4.78159 -2.39308 0
M  V30 2810 C 270.298 3.32772 -4.02567 0
M  V30 2811 H 271.992 1.68501 -2.47483 0
M  V30 2812 H 269.538 0.809237 -1.19111 0
M  V30 2813 H 271.491 3.92878 -1.52397 0
M  V30 2814 H 270.215 3.22783 -0.49785 0
M  V30 2815 H 268.874 2.63688 -2.54684 0
M  V30 2816 H 268.522 4.83128 -1.39988 0
M  V30 2817 H 268.222 4.95956 -3.15122 0
M  V30 2818 H 269.746 5.58762 -2.46205 0
M  V30 2819 H 271.16 4.01051 -4.09672 0
M  V30 2820 H 269.557 3.62104 -4.7854 0
M  V30 2821 H 270.627 2.30669 -4.2652 0
M  V30 2822 N 271.97 1.30982 0.876444 0
M  V30 2823 C 273.2 1.23063 1.65949 0
M  V30 2824 C 273.608 -0.207537 1.88058 0
M  V30 2825 O 272.951 -1.14781 1.43426 0
M  V30 2826 C 273.013 1.89768 3.05333 0
M  V30 2827 C 272.677 3.39106 3.0636 0
M  V30 2828 C 273.674 4.3496 2.84791 0
M  V30 2829 C 271.359 3.80693 3.27686 0
M  V30 2830 C 273.353 5.70375 2.84519 0
M  V30 2831 C 271.04 5.16223 3.27043 0
M  V30 2832 C 272.038 6.10875 3.05485 0
M  V30 2833 O 271.726 7.43928 3.04674 0
M  V30 2834 H 271.458 0.426685 0.524324 0
M  V30 2835 H 274.012 1.7329 1.10271 0
M  V30 2836 H 272.242 1.34082 3.6271 0
M  V30 2837 H 273.931 1.75853 3.65829 0
M  V30 2838 H 274.697 4.0416 2.68103 0
M  V30 2839 H 270.576 3.07457 3.43499 0
M  V30 2840 H 274.12 6.44228 2.67611 0
M  V30 2841 H 270.017 5.4666 3.43269 0
M  V30 2842 H 270.785 7.53022 3.2078 0
M  V30 2843 N 273.449 -1.08991 1.13837 0
M  V30 2844 C 274.412 -2.13925 0.822715 0
M  V30 2845 C 275.412 -1.599 -0.1699 0
M  V30 2846 O 276.602 -1.74104 0.0577251 0
M  V30 2847 C 273.734 -3.40155 0.225318 0
M  V30 2848 H 274.927 -2.43358 1.75262 0
M  V30 2849 H 272.48 -1.24603 0.943594 0
M  V30 2850 H 273.215 -3.16352 -0.713594 0
M  V30 2851 H 273 -3.80661 0.940193 0
M  V30 2852 H 274.49 -4.17594 0.0214784 0
M  V30 2853 N 274.927 -0.932562 -1.27047 0
M  V30 2854 C 276.157 -0.591173 -1.97961 0
M  V30 2855 C 276.565 0.836219 -1.69717 0
M  V30 2856 O 275.908 1.56801 -0.957036 0
M  V30 2857 C 275.97 -0.743082 -3.51736 0
M  V30 2858 C 275.634 -2.1435 -4.03613 0
M  V30 2859 C 276.631 -3.11815 -4.16014 0
M  V30 2860 C 274.316 -2.46175 -4.37839 0
M  V30 2861 C 276.31 -4.39211 -4.61923 0
M  V30 2862 C 273.997 -3.73806 -4.83438 0
M  V30 2863 C 274.995 -4.70137 -4.95439 0
M  V30 2864 O 274.683 -5.95496 -5.40037 0
M  V30 2865 H 274.415 -0.222375 -0.638377 0
M  V30 2866 H 276.969 -1.25317 -1.62742 0
M  V30 2867 H 275.199 -0.0239739 -3.86693 0
M  V30 2868 H 276.888 -0.40603 -4.03864 0
M  V30 2869 H 277.654 -2.88549 -3.89826 0
M  V30 2870 H 273.533 -1.71936 -4.27737 0
M  V30 2871 H 277.077 -5.14404 -4.71205 0
M  V30 2872 H 272.974 -3.96888 -5.09068 0
M  V30 2873 H 273.742 -5.98554 -5.58279 0
M  V30 2874 N 276.405 1.4127 -0.698611 0
M  V30 2875 C 277.651 2.01979 -0.239972 0
M  V30 2876 C 278.006 1.54353 1.14861 0
M  V30 2877 O 277.299 0.746218 1.76471 0
M  V30 2878 C 277.493 3.56592 -0.240192 0
M  V30 2879 C 277.322 4.19226 -1.62726 0
M  V30 2880 C 276.092 4.53389 -2.23084 0
M  V30 2881 C 278.29 4.45228 -2.57443 0
M  V30 2882 N 276.272 5.01327 -3.54323 0
M  V30 2883 C 277.643 4.94973 -3.73365 0
M  V30 2884 C 279.698 4.27243 -2.55671 0
M  V30 2885 C 278.401 5.28624 -4.878 0
M  V30 2886 C 280.427 4.61985 -3.69221 0
M  V30 2887 C 279.789 5.11904 -4.83873 0
M  V30 2888 H 275.888 0.770561 -0.133269 0
M  V30 2889 H 278.472 1.71767 -0.916748 0
M  V30 2890 H 276.643 3.86271 0.406082 0
M  V30 2891 H 278.375 4.04025 0.23356 0
M  V30 2892 H 275.13 4.39946 -1.75341 0
M  V30 2893 H 275.554 5.29697 -4.21604 0
M  V30 2894 H 280.196 3.87884 -1.68243 0
M  V30 2895 H 277.914 5.66905 -5.75885 0
M  V30 2896 H 281.5 4.49725 -3.69105 0
M  V30 2897 H 280.38 5.38282 -5.70282 0
M  V30 2898 N 277.883 0.443576 1.51229 0
M  V30 2899 C 279.132 -0.122332 2.01329 0
M  V30 2900 C 279.445 -1.43237 1.33201 0
M  V30 2901 O 280.651 -2.0816 1.74304 0
M  V30 2902 C 279.107 -0.268551 3.58897 0
M  V30 2903 C 278.715 1.03142 4.35965 0
M  V30 2904 C 280.459 -0.787894 4.17124 0
M  V30 2905 C 278.366 0.850504 5.85252 0
M  V30 2906 H 277.296 -0.0494929 0.752374 0
M  V30 2907 H 279.947 0.574289 1.74282 0
M  V30 2908 H 278.329 -1.02832 3.82415 0
M  V30 2909 H 279.503 1.80001 4.24189 0
M  V30 2910 H 277.818 1.47977 3.89219 0
M  V30 2911 H 280.415 -0.939841 5.26375 0
M  V30 2912 H 280.758 -1.77201 3.76703 0
M  V30 2913 H 281.291 -0.0862669 3.97706 0
M  V30 2914 H 278.03 1.80718 6.30096 0
M  V30 2915 H 277.55 0.121825 5.99676 0
M  V30 2916 H 279.229 0.506163 6.45017 0
M  V30 2917 N 279.361 -1.56624 0.175154 0
M  V30 2918 C 280.607 -1.9729 -0.469506 0
M  V30 2919 C 280.94 -1.06128 -1.62636 0
M  V30 2920 O 280.215 -0.109183 -1.94193 0
M  V30 2921 C 280.498 -3.47375 -0.948804 0
M  V30 2922 C 280.351 -4.49317 0.208491 0
M  V30 2923 C 281.67 -4.00652 -1.82116 0
M  V30 2924 H 278.789 -0.717317 -0.16919 0
M  V30 2925 H 281.431 -1.88184 0.262062 0
M  V30 2926 H 279.581 -3.55267 -1.57219 0
M  V30 2927 H 281.253 -4.53482 0.845682 0
M  V30 2928 H 279.496 -4.25121 0.863395 0
M  V30 2929 H 280.167 -5.51741 -0.169059 0
M  V30 2930 H 282.643 -3.95416 -1.2956 0
M  V30 2931 H 281.519 -5.06075 -2.12554 0
M  V30 2932 H 281.78 -3.44699 -2.7683 0
M  V30 2933 N 280.839 0.0985539 -1.57292 0
M  V30 2934 C 282.085 0.803867 -1.86188 0
M  V30 2935 C 282.418 1.78549 -0.763794 0
M  V30 2936 O 281.693 1.93153 0.22855 0
M  V30 2937 C 281.976 1.53568 -3.25713 0
M  V30 2938 C 281.829 0.572277 -4.46145 0
M  V30 2939 C 283.148 2.48708 -3.63087 0
M  V30 2940 H 280.267 0.290781 -0.677211 0
M  V30 2941 H 282.909 0.0675783 -1.8988 0
M  V30 2942 H 281.059 2.16332 -3.22696 0
M  V30 2943 H 282.731 -0.0480894 -4.61275 0
M  V30 2944 H 280.974 -0.114618 -4.33649 0
M  V30 2945 H 281.645 1.12139 -5.40489 0
M  V30 2946 H 284.121 1.96039 -3.67026 0
M  V30 2947 H 282.997 2.96932 -4.61652 0
M  V30 2948 H 283.258 3.32309 -2.91588 0
M  V30 2949 N 282.317 1.53212 0.369288 0
M  V30 2950 C 283.265 1.80054 1.47253 0
M  V30 2951 C 284.259 0.669456 1.55611 0
M  V30 2952 O 285.465 0.852328 1.58541 0
M  V30 2953 H 281.84 0.570034 0.490475 0
M  V30 2954 H 283.811 2.72403 1.21817 0
M  V30 2955 C 282.56 2.00403 2.84137 0
M  V30 2956 H 281.883 2.86876 2.78464 0
M  V30 2957 H 283.323 2.23164 3.60519 0
M  V30 2958 C 281.782 0.782081 3.27697 0
M  V30 2959 O 282.312 -0.0310205 4.01688 0
M  V30 2960 N 280.518 0.606573 2.84199 0
M  V30 2961 H 280.065 1.26939 2.24152 0
M  V30 2962 H 280.023 -0.20962 3.137 0
M  V30 2963 N 283.795 -0.628877 1.44509 0
M  V30 2964 C 285.042 -1.38839 1.47411 0
M  V30 2965 C 285.37 -1.94202 0.10757 0
M  V30 2966 O 284.625 -1.74243 -0.890947 0
M  V30 2967 C 284.924 -2.56995 2.48371 0
M  V30 2968 C 284.59 -2.19908 3.93639 0
M  V30 2969 C 283.252 -2.09506 4.33198 0
M  V30 2970 C 285.604 -1.9064 4.85083 0
M  V30 2971 C 282.932 -1.68028 5.62124 0
M  V30 2972 C 285.284 -1.50655 6.14399 0
M  V30 2973 C 283.948 -1.38796 6.5291 0
M  V30 2974 H 283.218 -0.508048 0.539414 0
M  V30 2975 H 285.865 -0.712913 1.77735 0
M  V30 2976 H 284.17 -3.29786 2.11538 0
M  V30 2977 H 285.867 -3.15223 2.47861 0
M  V30 2978 H 282.457 -2.28922 3.62343 0
M  V30 2979 H 286.641 -1.97585 4.55273 0
M  V30 2980 H 281.897 -1.57452 5.90778 0
M  V30 2981 H 286.071 -1.27048 6.84713 0
M  V30 2982 H 283.698 -1.06429 7.52713 0
M  V30 2983 N 285.273 -1.31445 -0.869486 0
M  V30 2984 C 286.689 -1.10113 -1.15531 0
M  V30 2985 C 286.889 0.128087 -2.01092 0
M  V30 2986 O 285.945 0.817276 -2.38908 0
M  V30 2987 C 287.258 -2.37291 -1.84698 0
M  V30 2988 C 288.806 -2.42906 -1.97397 0
M  V30 2989 C 289.281 -3.69967 -2.69979 0
M  V30 2990 N 290.772 -3.70864 -2.77514 0
M  V30 2991 C 291.507 -4.65875 -3.34287 0
M  V30 2992 N 291.003 -5.71242 -3.91988 0
M  V30 2993 N 292.796 -4.53394 -3.3225 0
M  V30 2994 H 284.947 -2.1028 -0.299347 0
M  V30 2995 H 287.21 -0.927683 -0.195214 0
M  V30 2996 H 286.916 -3.27078 -1.29278 0
M  V30 2997 H 286.79 -2.47125 -2.84972 0
M  V30 2998 H 289.177 -1.53588 -2.51982 0
M  V30 2999 H 289.258 -2.37036 -0.961643 0
M  V30 3000 H 288.902 -4.59652 -2.16062 0
M  V30 3001 H 288.832 -3.73103 -3.7162 0
M  V30 3002 H 291.323 -2.94697 -2.36563 0
M  V30 3003 H 291.636 -6.39817 -4.33421 0
M  V30 3004 H 289.981 -5.75015 -3.90362 0
M  V30 3005 H 293.172 -3.70252 -2.8641 0
M  V30 3006 H 293.345 -5.27617 -3.76197 0
M  V30 3007 N 286.751 1.08385 -1.14413 0
M  V30 3008 C 287.661 2.18856 -0.844951 0
M  V30 3009 C 288.677 1.73121 0.174668 0
M  V30 3010 O 289.853 2.014 0.00312857 0
M  V30 3011 C 286.918 3.45155 -0.32696 0
M  V30 3012 C 285.979 4.05513 -1.40916 0
M  V30 3013 C 285.212 5.25784 -0.915793 0
M  V30 3014 O 285.435 5.69884 0.242651 0
M  V30 3015 O 284.369 5.77545 -1.69487 0
M  V30 3016 H 288.195 2.46919 -1.76818 0
M  V30 3017 H 285.78 1.17524 -0.922411 0
M  V30 3018 H 287.662 4.21377 -0.0440211 0
M  V30 3019 H 286.337 3.18668 0.568539 0
M  V30 3020 H 285.244 3.30879 -1.74556 0
M  V30 3021 H 286.577 4.3625 -2.27919 0
M  V30 3022 N 288.23 0.939286 1.26551 0
M  V30 3023 C 289.193 0.451987 2.24699 0
M  V30 3024 C 290.193 -0.435869 1.5478 0
M  V30 3025 O 291.383 -0.235314 1.72603 0
M  V30 3026 C 288.515 -0.348801 3.39111 0
M  V30 3027 H 289.708 1.3193 2.69322 0
M  V30 3028 H 287.261 0.721072 1.38673 0
M  V30 3029 H 287.996 -1.23444 2.99887 0
M  V30 3030 H 287.781 0.287945 3.91041 0
M  V30 3031 H 289.271 -0.679726 4.12031 0
M  V30 3032 N 289.708 -1.40897 0.706093 0
M  V30 3033 C 290.938 -2.05075 0.250523 0
M  V30 3034 C 291.346 -1.53275 -1.10921 0
M  V30 3035 O 290.689 -0.680281 -1.7064 0
M  V30 3036 C 290.751 -3.59219 0.142178 0
M  V30 3037 C 290.415 -4.33864 1.43566 0
M  V30 3038 C 291.412 -4.62448 2.37566 0
M  V30 3039 C 289.097 -4.72946 1.69195 0
M  V30 3040 C 291.091 -5.29088 3.5545 0
M  V30 3041 C 288.778 -5.3932 2.87362 0
M  V30 3042 C 289.776 -5.6732 3.80312 0
M  V30 3043 O 289.464 -6.32325 4.96408 0
M  V30 3044 H 289.196 -0.666645 0.112074 0
M  V30 3045 H 291.75 -1.81467 0.962239 0
M  V30 3046 H 289.98 -3.81609 -0.6254 0
M  V30 3047 H 291.669 -4.0495 -0.277584 0
M  V30 3048 H 292.435 -4.32727 2.19027 0
M  V30 3049 H 288.314 -4.50527 0.977042 0
M  V30 3050 H 291.858 -5.50859 4.28018 0
M  V30 3051 H 287.755 -5.68461 3.05814 0
M  V30 3052 H 288.523 -6.50821 4.9636 0
M  V30 3053 N 291.186 -0.45159 -1.50991 0
M  V30 3054 C 292.134 0.366864 -2.29689 0
M  V30 3055 C 293.128 1.00809 -1.36139 0
M  V30 3056 O 294.334 0.941427 -1.53418 0
M  V30 3057 H 290.709 0.137133 -0.739391 0
M  V30 3058 H 292.68 -0.317538 -2.96706 0
M  V30 3059 C 291.429 1.44751 -3.16137 0
M  V30 3060 H 290.752 0.963473 -3.88017 0
M  V30 3061 H 292.192 1.99315 -3.74232 0
M  V30 3062 C 290.651 2.43869 -2.32442 0
M  V30 3063 O 291.181 3.4872 -1.99392 0
M  V30 3064 N 289.387 2.15105 -1.95392 0
M  V30 3065 H 288.934 1.29866 -2.22469 0
M  V30 3066 H 288.892 2.81661 -1.39693 0
M  V30 3067 N 292.664 1.56529 -0.183458 0
M  V30 3068 C 293.594 2.21549 0.737456 0
M  V30 3069 C 294.575 1.17489 1.23005 0
M  V30 3070 O 295.76 1.45959 1.281 0
M  V30 3071 C 292.89 2.86575 1.96194 0
M  V30 3072 C 291.844 3.96778 1.60473 0
M  V30 3073 C 291.17 4.48911 2.90487 0
M  V30 3074 C 292.47 5.15767 0.823497 0
M  V30 3075 H 294.164 2.98761 0.195453 0
M  V30 3076 H 291.71 1.43702 0.0925686 0
M  V30 3077 H 293.663 3.30739 2.61131 0
M  V30 3078 H 292.387 2.06749 2.52828 0
M  V30 3079 H 291.046 3.53286 0.978997 0
M  V30 3080 H 290.694 3.65862 3.45186 0
M  V30 3081 H 290.394 5.23265 2.67335 0
M  V30 3082 H 291.918 4.95771 3.56432 0
M  V30 3083 H 293.332 5.56549 1.37571 0
M  V30 3084 H 291.729 5.96114 0.690551 0
M  V30 3085 H 292.799 4.84574 -0.177782 0
M  V30 3086 N 294.142 -0.090211 1.57342 0
M  V30 3087 C 295.389 -0.792807 1.86335 0
M  V30 3088 C 295.717 -1.78494 0.772662 0
M  V30 3089 O 294.972 -1.94305 -0.233258 0
M  V30 3090 C 295.271 -1.55222 3.21933 0
M  V30 3091 C 294.937 -0.701765 4.45406 0
M  V30 3092 C 293.599 -0.467334 4.78925 0
M  V30 3093 C 295.951 -0.11086 5.21082 0
M  V30 3094 C 293.279 0.367785 5.85546 0
M  V30 3095 C 295.631 0.711609 6.28585 0
M  V30 3096 C 294.295 0.956086 6.60617 0
M  V30 3097 H 293.565 -0.290109 0.681849 0
M  V30 3098 H 296.212 -0.0541332 1.91423 0
M  V30 3099 H 294.517 -2.3626 3.12551 0
M  V30 3100 H 296.214 -2.10032 3.41595 0
M  V30 3101 H 292.804 -0.894598 4.1916 0
M  V30 3102 H 296.988 -0.279129 4.95514 0
M  V30 3103 H 292.244 0.566128 6.08773 0
M  V30 3104 H 296.418 1.17632 6.86393 0
M  V30 3105 H 294.045 1.60499 7.43064 0
M  V30 3106 N 295.62 -1.53406 -0.361157 0
M  V30 3107 C 296.583 -1.79479 -1.42548 0
M  V30 3108 C 297.583 -0.665327 -1.4639 0
M  V30 3109 O 298.773 -0.933549 -1.47073 0
M  V30 3110 C 295.905 -1.92087 -2.8163 0
M  V30 3111 H 297.098 -2.74538 -1.20701 0
M  V30 3112 H 294.651 -1.4455 -0.594546 0
M  V30 3113 H 295.386 -0.991099 -3.08784 0
M  V30 3114 H 295.171 -2.74241 -2.80239 0
M  V30 3115 H 296.661 -2.13836 -3.58697 0
M  V30 3116 N 297.098 0.621204 -1.44841 0
M  V30 3117 C 298.344 1.3826 -1.48365 0
M  V30 3118 C 298.677 1.93831 -0.119624 0
M  V30 3119 O 297.952 1.74251 0.864111 0
M  V30 3120 C 298.235 2.54058 -2.55199 0
M  V30 3121 C 298.088 2.03772 -4.00995 0
M  V30 3122 C 299.407 3.56225 -2.58442 0
M  V30 3123 H 296.526 0.501374 -0.540179 0
M  V30 3124 H 299.168 0.7015 -1.76576 0
M  V30 3125 H 297.318 3.12162 -2.31274 0
M  V30 3126 H 298.99 1.50423 -4.36086 0
M  V30 3127 H 297.233 1.34876 -4.12299 0
M  V30 3128 H 297.904 2.87185 -4.71411 0
M  V30 3129 H 300.38 3.07939 -2.79844 0
M  V30 3130 H 299.256 4.34756 -3.3508 0
M  V30 3131 H 299.517 4.10949 -1.63013 0
M  V30 3132 N 298.576 1.31904 0.862503 0
M  V30 3133 C 299.524 1.20125 1.9918 0
M  V30 3134 C 300.518 0.107824 1.69056 0
M  V30 3135 O 301.724 0.270223 1.7796 0
M  V30 3136 H 298.099 0.372148 0.65346 0
M  V30 3137 H 300.07 2.15652 2.06244 0
M  V30 3138 C 298.819 0.933099 3.34946 0
M  V30 3139 H 298.142 1.76664 3.5865 0
M  V30 3140 H 299.582 0.890892 4.14535 0
M  V30 3141 C 298.041 -0.364172 3.34926 0
M  V30 3142 O 298.571 -1.37858 3.77304 0
M  V30 3143 N 296.777 -0.383362 2.8806 0
M  V30 3144 H 296.324 0.442651 2.53768 0
M  V30 3145 H 296.282 -1.25123 2.8843 0
M  V30 3146 N 300.054 -1.07777 1.14986 0
M  V30 3147 C 301.302 -1.79934 0.920235 0
M  V30 3148 C 301.623 -1.86955 -0.554336 0
M  V30 3149 O 300.893 -1.36731 -1.40291 0
M  V30 3150 H 299.473 -0.666424 0.337473 0
M  V30 3151 H 302.135 -1.3027 1.44968 0
M  V30 3152 H 301.231 -2.82539 1.32583 0
M  V30 3153 N 301.532 -0.945985 -1.26051 0
M  V30 3154 C 302.781 -0.591836 -1.92822 0
M  V30 3155 C 303.094 0.873956 -1.7499 0
M  V30 3156 O 304.3 1.33769 -2.36259 0
M  V30 3157 C 302.756 -1.00776 -3.45503 0
M  V30 3158 C 302.364 -2.4955 -3.7206 0
M  V30 3159 C 304.108 -0.725735 -4.1825 0
M  V30 3160 C 302.015 -2.84988 -5.18205 0
M  V30 3161 H 300.945 -0.217635 -0.721908 0
M  V30 3162 H 303.596 -1.14927 -1.43052 0
M  V30 3163 H 301.978 -0.378812 -3.94184 0
M  V30 3164 H 303.152 -3.1739 -3.34066 0
M  V30 3165 H 301.467 -2.75133 -3.12555 0
M  V30 3166 H 304.064 -0.966771 -5.25887 0
M  V30 3167 H 304.407 0.337639 -4.14929 0
M  V30 3168 H 304.94 -1.31463 -3.7545 0
M  V30 3169 H 301.679 -3.90307 -5.26631 0
M  V30 3170 H 301.199 -2.21813 -5.57278 0
M  V30 3171 H 302.878 -2.73712 -5.86252 0
M  V30 3172 N 303.011 1.40521 -0.713556 0
M  V30 3173 C 303.941 2.33381 -0.0743864 0
M  V30 3174 C 304.922 1.52784 0.747735 0
M  V30 3175 O 306.107 1.81258 0.697071 0
M  V30 3176 C 303.237 3.36748 0.849598 0
M  V30 3177 C 302.191 4.27793 0.133247 0
M  V30 3178 C 301.517 5.21679 1.17281 0
M  V30 3179 C 302.817 5.12415 -1.01134 0
M  V30 3180 H 304.511 2.87081 -0.850007 0
M  V30 3181 H 302.057 1.38034 -0.410201 0
M  V30 3182 H 304.01 4.00648 1.30612 0
M  V30 3183 H 302.734 2.81439 1.65709 0
M  V30 3184 H 301.393 3.65342 -0.303426 0
M  V30 3185 H 301.041 4.62677 1.9733 0
M  V30 3186 H 300.741 5.83435 0.698397 0
M  V30 3187 H 302.265 5.88456 1.62947 0
M  V30 3188 H 303.679 5.69781 -0.634274 0
M  V30 3189 H 302.076 5.83203 -1.41399 0
M  V30 3190 H 303.146 4.48514 -1.84292 0
M  V30 3191 N 304.489 0.459591 1.5075 0
M  V30 3192 C 305.736 -0.0993495 2.02256 0
M  V30 3193 C 306.064 -1.40751 1.34237 0
M  V30 3194 O 305.319 -1.90379 0.453228 0
M  V30 3195 C 305.618 -0.342866 3.55752 0
M  V30 3196 C 305.284 0.88218 4.42186 0
M  V30 3197 C 303.946 1.21808 4.65528 0
M  V30 3198 C 306.298 1.69837 4.92752 0
M  V30 3199 C 303.626 2.37045 5.36681 0
M  V30 3200 C 305.978 2.84192 5.65171 0
M  V30 3201 C 304.642 3.1821 5.8677 0
M  V30 3202 H 303.912 -0.0363545 0.740108 0
M  V30 3203 H 306.559 0.611329 1.8148 0
M  V30 3204 H 304.864 -1.13567 3.7498 0
M  V30 3205 H 306.561 -0.789121 3.93159 0
M  V30 3206 H 303.151 0.610467 4.2423 0
M  V30 3207 H 307.335 1.45205 4.74583 0
M  V30 3208 H 302.591 2.63689 5.51614 0
M  V30 3209 H 306.765 3.4779 6.03337 0
M  V30 3210 H 304.392 4.07613 6.41682 0
M  V30 3211 N 305.967 -1.56429 0.191757 0
M  V30 3212 C 306.915 -2.20273 -0.747174 0
M  V30 3213 C 307.909 -1.17288 -1.22229 0
M  V30 3214 O 309.115 -1.35441 -1.18557 0
M  V30 3215 H 305.49 -0.705885 -0.259289 0
M  V30 3216 H 307.461 -2.97826 -0.184963 0
M  V30 3217 C 306.21 -2.87356 -1.95759 0
M  V30 3218 H 305.533 -3.66341 -1.60106 0
M  V30 3219 H 306.973 -3.3547 -2.59299 0
M  V30 3220 C 305.432 -1.88213 -2.79423 0
M  V30 3221 O 305.962 -1.38033 -3.7724 0
M  V30 3222 N 304.168 -1.56516 -2.44849 0
M  V30 3223 H 303.715 -1.97516 -1.65364 0
M  V30 3224 H 303.673 -0.904369 -3.01112 0
M  V30 3225 N 307.445 0.0818655 -1.57387 0
M  V30 3226 C 308.395 1.10501 -1.99433 0
M  V30 3227 C 309.379 1.35041 -0.874798 0
M  V30 3228 O 310.571 1.35511 -1.13868 0
M  V30 3229 C 307.7 2.42159 -2.43339 0
M  V30 3230 C 306.786 2.20937 -3.62005 0
M  V30 3231 N 307.177 1.69616 -4.76512 0
M  V30 3232 C 305.475 2.51451 -3.68359 0
M  V30 3233 C 306.176 1.62973 -5.58404 0
M  V30 3234 N 305.152 2.08664 -5.01956 0
M  V30 3235 H 308.954 0.701373 -2.85408 0
M  V30 3236 H 306.468 0.289096 -1.59806 0
M  V30 3237 H 308.465 3.16208 -2.71695 0
M  V30 3238 H 307.125 2.83249 -1.58746 0
M  V30 3239 H 308.136 1.38624 -4.99003 0
M  V30 3240 H 304.813 2.95975 -2.94457 0
M  V30 3241 H 306.203 1.24233 -6.60315 0
M  V30 3242 N 308.923 1.53595 0.353017 0
M  V30 3243 C 309.833 1.83897 1.45667 0
M  V30 3244 C 310.849 0.728334 1.58023 0
M  V30 3245 O 312.025 1.01968 1.73679 0
M  V30 3246 C 309.09 2.03383 2.80778 0
M  V30 3247 C 308.151 3.27262 2.77845 0
M  V30 3248 C 307.384 3.45809 4.06512 0
M  V30 3249 O 307.607 2.68387 5.03314 0
M  V30 3250 O 306.541 4.39207 4.11559 0
M  V30 3251 H 310.367 2.77686 1.2298 0
M  V30 3252 H 307.952 1.39132 0.544308 0
M  V30 3253 H 309.834 2.17698 3.60812 0
M  V30 3254 H 308.509 1.12783 3.03417 0
M  V30 3255 H 307.416 3.18359 1.96465 0
M  V30 3256 H 308.749 4.17824 2.60161 0
M  V30 3257 N 310.401 -0.613514 1.45168 0
M  V30 3258 C 311.626 -1.40437 1.52618 0
M  V30 3259 C 312.051 -1.87438 0.157707 0
M  V30 3260 O 311.409 -1.59791 -0.856537 0
M  V30 3261 C 311.457 -2.58894 2.51011 0
M  V30 3262 O 310.561 -3.59326 2.02382 0
M  V30 3263 H 309.902 -0.419506 0.514695 0
M  V30 3264 H 312.432 -0.747215 1.90467 0
M  V30 3265 H 312.442 -3.06214 2.69624 0
M  V30 3266 H 311.117 -2.24032 3.50403 0
M  V30 3267 H 309.694 -3.18695 1.93618 0
M  V30 3268 N 311.879 -1.3236 -0.855495 0
M  V30 3269 C 313.29 -1.2056 -1.42556 0
M  V30 3270 C 313.641 0.182209 -1.95352 0
M  V30 3271 O 312.766 1.08088 -1.87472 0
M  V30 3272 C 313.361 -2.1826 -2.59129 0
M  V30 3273 C 311.92 -2.10351 -3.12137 0
M  V30 3274 C 311.067 -2.06674 -1.84882 0
M  V30 3275 H 314.018 -1.442 -0.662727 0
M  V30 3276 H 314.039 -1.78064 -3.36264 0
M  V30 3277 H 313.551 -3.19257 -2.20673 0
M  V30 3278 H 311.652 -1.12599 -3.55179 0
M  V30 3279 H 311.765 -3.00135 -3.73438 0
M  V30 3280 H 310.129 -1.51901 -2.04446 0
M  V30 3281 H 310.912 -3.09451 -1.48643 0
M  V30 3282 N 313.357 1.07166 -1.15556 0
M  V30 3283 C 314.773 1.31899 -0.898603 0
M  V30 3284 C 314.973 1.96333 0.453383 0
M  V30 3285 O 314.029 2.22438 1.19489 0
M  V30 3286 C 315.342 2.20826 -2.04099 0
M  V30 3287 C 316.89 2.34269 -2.07574 0
M  V30 3288 C 317.365 3.26546 -3.21141 0
M  V30 3289 N 318.856 3.34127 -3.20801 0
M  V30 3290 C 319.591 4.05595 -4.05315 0
M  V30 3291 N 319.087 4.79661 -4.99897 0
M  V30 3292 N 320.88 4.01555 -3.93332 0
M  V30 3293 H 313.031 0.637302 -2.02613 0
M  V30 3294 H 315.294 0.343468 -0.883591 0
M  V30 3295 H 315 1.80744 -3.01703 0
M  V30 3296 H 314.874 3.21364 -1.97496 0
M  V30 3297 H 317.261 2.73603 -1.10568 0
M  V30 3298 H 317.342 1.33429 -2.18244 0
M  V30 3299 H 316.986 2.87931 -4.184 0
M  V30 3300 H 316.916 4.27345 -3.07708 0
M  V30 3301 H 319.407 2.81336 -2.52306 0
M  V30 3302 H 319.72 5.31694 -5.60822 0
M  V30 3303 H 318.065 4.78671 -5.03884 0
M  V30 3304 H 321.256 3.42806 -3.18751 0
M  V30 3305 H 321.429 4.56987 -4.5942 0
M  V30 3306 N 314.835 0.952656 1.25548 0
M  V30 3307 C 316.251 0.656769 1.4546 0
M  V30 3308 C 316.451 -0.78633 1.85524 0
M  V30 3309 O 315.507 -1.56183 1.98402 0
M  V30 3310 C 316.82 1.62801 2.52817 0
M  V30 3311 C 318.368 1.63897 2.66659 0
M  V30 3312 C 318.843 2.5978 3.77198 0
M  V30 3313 N 320.334 2.58133 3.84606 0
M  V30 3314 C 321.069 3.29003 4.69621 0
M  V30 3315 N 320.565 4.09339 5.58939 0
M  V30 3316 N 322.358 3.179 4.63569 0
M  V30 3317 H 314.509 1.88526 0.978344 0
M  V30 3318 H 316.772 0.810815 0.491206 0
M  V30 3319 H 316.478 2.65869 2.30232 0
M  V30 3320 H 316.352 1.38898 3.50695 0
M  V30 3321 H 318.739 0.615481 2.8861 0
M  V30 3322 H 318.82 1.91858 1.69187 0
M  V30 3323 H 318.464 3.62254 3.55997 0
M  V30 3324 H 318.394 2.29105 4.7415 0
M  V30 3325 H 320.885 1.99809 3.20757 0
M  V30 3326 H 321.198 4.6034 6.20731 0
M  V30 3327 H 319.543 4.13438 5.58654 0
M  V30 3328 H 322.734 2.54612 3.92798 0
M  V30 3329 H 322.907 3.73398 5.29602 0
M  V30 3330 N 316.313 -1.40141 0.720998 0
M  V30 3331 C 317.561 -2.0039 0.262323 0
M  V30 3332 C 317.882 -1.57469 -1.15015 0
M  V30 3333 O 317.152 -0.816582 -1.78069 0
M  V30 3334 H 315.732 -0.741063 0.093996 0
M  V30 3335 H 318.394 -1.71398 0.927835 0
M  V30 3336 H 317.49 -3.10658 0.299671 0
M  V30 3337 N 317.792 -0.46758 -1.50504 0
M  V30 3338 C 318.755 0.317059 -2.26996 0
M  V30 3339 C 319.755 0.923513 -1.31635 0
M  V30 3340 O 320.945 0.793239 -1.55091 0
M  V30 3341 C 318.077 1.45134 -3.08462 0
M  V30 3342 H 319.27 -0.353723 -2.97807 0
M  V30 3343 H 316.823 -0.221545 -1.54722 0
M  V30 3344 H 317.558 2.15728 -2.4214 0
M  V30 3345 H 317.343 1.02232 -3.78538 0
M  V30 3346 H 318.833 2.00493 -3.66323 0
M  V30 3347 N 319.27 1.56325 -0.20005 0
M  V30 3348 C 320.218 2.20666 0.735482 0
M  V30 3349 C 321.212 1.17934 1.21605 0
M  V30 3350 O 322.418 1.36068 1.17837 0
M  V30 3351 H 318.793 0.70725 0.255542 0
M  V30 3352 H 320.764 2.9792 0.169166 0
M  V30 3353 C 319.513 2.88391 1.94232 0
M  V30 3354 H 318.836 3.67185 1.58161 0
M  V30 3355 H 320.276 3.3684 2.57517 0
M  V30 3356 C 318.735 1.89692 2.78421 0
M  V30 3357 O 319.265 1.40032 3.76502 0
M  V30 3358 N 317.471 1.57813 2.44015 0
M  V30 3359 H 317.018 1.9839 1.64314 0
M  V30 3360 H 316.976 0.920325 3.00628 0
M  V30 3361 N 320.748 -0.0735177 1.57428 0
M  V30 3362 C 321.995 -0.772999 1.87166 0
M  V30 3363 C 322.323 -1.77665 0.791551 0
M  V30 3364 O 321.578 -1.94541 -0.212636 0
M  V30 3365 C 321.877 -1.51799 3.23561 0
M  V30 3366 C 321.543 -0.654484 4.46125 0
M  V30 3367 C 320.205 -0.416511 4.79394 0
M  V30 3368 C 322.557 -0.0555862 5.2117 0
M  V30 3369 C 319.885 0.429869 5.85123 0
M  V30 3370 C 322.237 0.778239 6.27795 0
M  V30 3371 C 320.901 1.0261 6.59566 0
M  V30 3372 H 320.171 -0.282861 0.684888 0
M  V30 3373 H 322.818 -0.0338272 1.9147 0
M  V30 3374 H 321.123 -2.32932 3.1504 0
M  V30 3375 H 322.82 -2.06397 3.43804 0
M  V30 3376 H 319.41 -0.850091 4.20085 0
M  V30 3377 H 323.594 -0.226558 4.95783 0
M  V30 3378 H 318.85 0.630665 6.08139 0
M  V30 3379 H 323.024 1.24906 6.85107 0
M  V30 3380 H 320.651 1.68371 7.4132 0
M  V30 3381 N 322.226 -1.5378 -0.344866 0
M  V30 3382 C 323.472 -1.71216 -1.08687 0
M  V30 3383 C 323.805 -0.473281 -1.88345 0
M  V30 3384 O 323.08 0.52968 -1.87149 0
M  V30 3385 C 323.363 -2.97486 -2.02914 0
M  V30 3386 C 323.216 -4.31579 -1.26727 0
M  V30 3387 C 324.535 -3.19422 -3.0275 0
M  V30 3388 H 321.654 -0.62301 -0.393735 0
M  V30 3389 H 324.296 -1.8645 -0.365563 0
M  V30 3390 H 322.446 -2.84629 -2.64421 0
M  V30 3391 H 324.118 -4.56284 -0.67845 0
M  V30 3392 H 322.361 -4.30049 -0.569273 0
M  V30 3393 H 323.032 -5.16106 -1.95803 0
M  V30 3394 H 325.508 -3.316 -2.51357 0
M  V30 3395 H 324.384 -4.09169 -3.65885 0
M  V30 3396 H 324.645 -2.35656 -3.74057 0
M  V30 3397 N 323.704 0.605807 -1.45491 0
M  V30 3398 C 324.932 1.39136 -1.5313 0
M  V30 3399 C 325.347 1.88082 -0.164507 0
M  V30 3400 O 324.704 1.62316 0.834247 0
M  V30 3401 C 324.755 2.59463 -2.51716 0
M  V30 3402 O 324.476 2.12551 -3.83084 0
M  V30 3403 C 325.977 3.52301 -2.6907 0
M  V30 3404 H 323.197 0.425849 -0.51855 0
M  V30 3405 H 325.741 0.73865 -1.90694 0
M  V30 3406 H 323.896 3.20772 -2.17219 0
M  V30 3407 H 324.31 2.90744 -4.36541 0
M  V30 3408 H 325.784 4.33271 -3.42024 0
M  V30 3409 H 326.261 4.02757 -1.75167 0
M  V30 3410 H 326.867 2.96845 -3.04571 0
M  V30 3411 N 325.182 1.32811 0.848464 0
M  V30 3412 C 326.598 1.11937 1.13764 0
M  V30 3413 C 326.798 -0.0960789 2.01271 0
M  V30 3414 O 325.854 -0.779165 2.40178 0
M  V30 3415 C 327.167 2.402 1.809 0
M  V30 3416 C 328.715 2.46016 1.93508 0
M  V30 3417 C 329.19 3.74215 2.64059 0
M  V30 3418 N 330.681 3.75232 2.71579 0
M  V30 3419 C 331.416 4.71134 3.26833 0
M  V30 3420 N 330.912 5.77406 3.8285 0
M  V30 3421 N 332.705 4.58623 3.24995 0
M  V30 3422 H 324.856 2.1073 0.265855 0
M  V30 3423 H 327.119 0.930671 0.180431 0
M  V30 3424 H 326.825 3.29093 1.24058 0
M  V30 3425 H 326.699 2.51628 2.81004 0
M  V30 3426 H 329.086 1.57577 2.49506 0
M  V30 3427 H 329.167 2.38536 0.923811 0
M  V30 3428 H 328.811 4.63031 2.08722 0
M  V30 3429 H 328.741 3.78968 3.65637 0
M  V30 3430 H 331.232 2.98423 2.31845 0
M  V30 3431 H 331.545 6.46632 4.23187 0
M  V30 3432 H 329.89 5.81152 3.81165 0
M  V30 3433 H 333.081 3.74762 2.80484 0
M  V30 3434 H 333.254 5.33535 3.67756 0
M  V30 3435 N 326.66 -1.06551 1.16123 0
M  V30 3436 C 327.607 -2.13961 0.865414 0
M  V30 3437 C 328.577 -1.65066 -0.185055 0
M  V30 3438 O 329.762 -1.90732 -0.05083 0
M  V30 3439 C 326.902 -3.43113 0.369776 0
M  V30 3440 C 326.015 -4.05756 1.48276 0
M  V30 3441 C 325.15 -5.22773 0.942414 0
M  V30 3442 C 324.189 -5.77395 2.03179 0
M  V30 3443 N 323.326 -6.85731 1.50721 0
M  V30 3444 H 328.166 -2.38605 1.78527 0
M  V30 3445 H 325.703 -1.17072 0.890646 0
M  V30 3446 H 327.661 -4.17151 0.0640643 0
M  V30 3447 H 326.291 -3.18695 -0.513143 0
M  V30 3448 H 325.343 -3.29292 1.9045 0
M  V30 3449 H 326.655 -4.42351 2.30493 0
M  V30 3450 H 325.809 -6.03827 0.589729 0
M  V30 3451 H 324.548 -4.87618 0.0895191 0
M  V30 3452 H 323.553 -4.94981 2.3932 0
M  V30 3453 H 324.778 -6.14603 2.8886 0
M  V30 3454 H 322.724 -6.52499 0.676811 0
M  V30 3455 H 322.641 -7.21254 2.26557 0
M  V30 3456 H 323.909 -7.7047 1.18303 0
M  V30 3457 N 328.138 -0.959301 -1.25041 0
M  V30 3458 C 329.387 -0.612254 -1.92183 0
M  V30 3459 C 329.7 0.855347 -1.75907 0
M  V30 3460 O 330.906 1.31256 -2.37664 0
M  V30 3461 C 329.362 -1.04435 -3.44414 0
M  V30 3462 C 328.97 -2.53482 -3.69393 0
M  V30 3463 C 330.714 -0.770055 -4.17457 0
M  V30 3464 C 328.621 -2.90468 -5.15153 0
M  V30 3465 H 327.551 -0.225279 -0.719559 0
M  V30 3466 H 330.202 -1.16438 -1.41825 0
M  V30 3467 H 328.584 -0.4206 -3.9376 0
M  V30 3468 H 329.758 -3.20916 -3.30681 0
M  V30 3469 H 328.073 -2.78432 -3.0962 0
M  V30 3470 H 330.67 -1.02249 -5.24832 0
M  V30 3471 H 331.013 0.293611 -4.15263 0
M  V30 3472 H 331.546 -1.35437 -3.74034 0
M  V30 3473 H 328.285 -3.95871 -5.22462 0
M  V30 3474 H 327.805 -2.27711 -5.54894 0
M  V30 3475 H 329.484 -2.79914 -5.83315 0
M  V30 3476 N 329.616 1.39756 -0.72842 0
M  V30 3477 C 330.841 2.05472 -0.282159 0
M  V30 3478 C 331.266 1.54549 1.07221 0
M  V30 3479 O 330.624 0.686372 1.67805 0
M  V30 3480 C 330.672 3.59462 -0.286264 0
M  V30 3481 O 329.776 4.05918 0.728298 0
M  V30 3482 H 329.117 0.651226 -0.129618 0
M  V30 3483 H 331.647 1.78915 -0.992499 0
M  V30 3484 H 331.657 4.07798 -0.128373 0
M  V30 3485 H 330.332 3.95889 -1.27456 0
M  V30 3486 H 328.909 3.69012 0.537081 0
M  V30 3487 N 331.094 0.475555 1.50254 0
M  V30 3488 C 332.51 0.12997 1.5907 0
M  V30 3489 C 332.71 -1.36385 1.48328 0
M  V30 3490 O 331.766 -2.13754 1.34407 0
M  V30 3491 C 333.079 0.684139 2.92814 0
M  V30 3492 C 334.627 0.647965 3.0622 0
M  V30 3493 C 335.102 1.17975 4.42545 0
M  V30 3494 N 336.593 1.13936 4.48969 0
M  V30 3495 C 337.328 1.52129 5.52851 0
M  V30 3496 N 336.824 1.97793 6.63965 0
M  V30 3497 N 338.617 1.43704 5.4342 0
M  V30 3498 H 330.768 1.44706 1.55479 0
M  V30 3499 H 333.031 0.598691 0.735033 0
M  V30 3500 H 332.737 1.73079 3.06164 0
M  V30 3501 H 332.611 0.130204 3.76975 0
M  V30 3502 H 334.998 -0.38979 2.92514 0
M  V30 3503 H 335.079 1.23876 2.23805 0
M  V30 3504 H 334.723 2.21616 4.57 0
M  V30 3505 H 334.653 0.565138 5.23559 0
M  V30 3506 H 337.144 0.804488 3.69238 0
M  V30 3507 H 337.457 2.25072 7.39299 0
M  V30 3508 H 335.802 2.01749 6.65073 0
M  V30 3509 H 338.993 1.07867 4.55502 0
M  V30 3510 H 339.166 1.73794 6.24259 0
M  V30 3511 N 332.573 -1.56217 0.208337 0
M  V30 3512 C 333.798 -2.02782 -0.435222 0
M  V30 3513 C 334.223 -1.08738 -1.53485 0
M  V30 3514 O 333.581 -0.0731855 -1.81152 0
M  V30 3515 C 333.629 -3.47687 -0.956335 0
M  V30 3516 O 332.733 -3.56773 -2.06849 0
M  V30 3517 H 332.074 -0.656403 -0.100158 0
M  V30 3518 H 334.604 -2.02033 0.3231 0
M  V30 3519 H 334.614 -3.87745 -1.26955 0
M  V30 3520 H 333.289 -4.15624 -0.15143 0
M  V30 3521 H 331.866 -3.28597 -1.76292 0
M  V30 3522 N 334.051 0.0651679 -1.57465 0
M  V30 3523 C 335.297 0.764193 -1.87851 0
M  V30 3524 C 335.63 1.76889 -0.801495 0
M  V30 3525 O 334.905 1.93594 0.187528 0
M  V30 3526 C 335.188 1.46625 -3.28897 0
M  V30 3527 C 335.041 0.477515 -4.47258 0
M  V30 3528 C 336.36 2.4095 -3.68281 0
M  V30 3529 H 333.479 0.276351 -0.683227 0
M  V30 3530 H 336.121 0.0272868 -1.8998 0
M  V30 3531 H 334.271 2.09438 -3.27212 0
M  V30 3532 H 335.943 -0.145922 -4.61069 0
M  V30 3533 H 334.186 -0.206576 -4.33308 0
M  V30 3534 H 334.857 1.0065 -5.42746 0
M  V30 3535 H 337.333 1.88209 -3.71102 0
M  V30 3536 H 336.209 2.87072 -4.67847 0
M  V30 3537 H 336.47 3.26049 -2.98571 0
M  V30 3538 N 335.529 1.53961 0.336706 0
M  V30 3539 C 336.492 1.81724 1.39675 0
M  V30 3540 C 337.492 0.688532 1.45313 0
M  V30 3541 O 338.682 0.956829 1.45569 0
M  V30 3542 C 335.814 1.96543 2.78538 0
M  V30 3543 H 337.007 2.76424 1.16318 0
M  V30 3544 H 334.56 1.45478 0.571474 0
M  V30 3545 H 335.295 1.0401 3.07168 0
M  V30 3546 H 335.08 2.78665 2.75841 0
M  V30 3547 H 336.57 2.19516 3.5525 0
M  V30 3548 N 337.007 -0.598083 1.45811 0
M  V30 3549 C 337.954 -1.7082 1.55207 0
M  V30 3550 C 338.924 -1.61278 0.39732 0
M  V30 3551 O 340.109 -1.80717 0.612038 0
M  V30 3552 C 337.249 -3.09144 1.53376 0
M  V30 3553 C 336.362 -3.29423 2.79472 0
M  V30 3554 C 335.497 -4.57907 2.69248 0
M  V30 3555 C 334.536 -4.71476 3.90354 0
M  V30 3556 N 333.673 -5.9127 3.78608 0
M  V30 3557 H 338.513 -1.62125 2.50039 0
M  V30 3558 H 336.05 -0.790389 1.24062 0
M  V30 3559 H 338.008 -3.89186 1.50301 0
M  V30 3560 H 336.638 -3.16773 0.620876 0
M  V30 3561 H 335.69 -2.43091 2.92594 0
M  V30 3562 H 337.002 -3.3532 3.69272 0
M  V30 3563 H 336.156 -5.46157 2.64192 0
M  V30 3564 H 334.895 -4.54423 1.77063 0
M  V30 3565 H 333.9 -3.81648 3.95759 0
M  V30 3566 H 335.125 -4.76751 4.83617 0
M  V30 3567 H 333.071 -5.88813 2.89199 0
M  V30 3568 H 332.988 -5.98369 4.6205 0
M  V30 3569 H 334.256 -6.81992 3.77501 0
M  V30 3570 N 338.485 -1.33259 -0.841409 0
M  V30 3571 C 339.734 -1.23921 -1.59143 0
M  V30 3572 C 340.047 0.1941 -1.94635 0
M  V30 3573 O 341.253 0.409474 -2.68394 0
M  V30 3574 C 339.709 -2.17119 -2.87032 0
M  V30 3575 C 339.317 -3.65606 -2.58914 0
M  V30 3576 C 341.061 -2.16648 -3.65053 0
M  V30 3577 C 338.968 -4.50726 -3.82884 0
M  V30 3578 H 337.898 -0.460264 -0.597221 0
M  V30 3579 H 340.549 -1.58307 -0.927959 0
M  V30 3580 H 338.931 -1.75663 -3.54906 0
M  V30 3581 H 340.105 -4.15487 -1.99267 0
M  V30 3582 H 338.42 -3.68341 -1.942 0
M  V30 3583 H 341.017 -2.77474 -4.57069 0
M  V30 3584 H 341.36 -1.16088 -3.99787 0
M  V30 3585 H 341.893 -2.56453 -3.041 0
M  V30 3586 H 338.632 -5.52151 -3.53283 0
M  V30 3587 H 338.152 -4.0559 -4.41879 0
M  V30 3588 H 339.831 -4.64401 -4.50489 0
M  V30 3589 N 339.963 1.05934 -1.16686 0
M  V30 3590 C 341.193 1.82226 -0.973515 0
M  V30 3591 C 341.601 1.8297 0.481532 0
M  V30 3592 O 340.944 1.25009 1.34604 0
M  V30 3593 C 341.006 3.29897 -1.42858 0
M  V30 3594 C 340.67 3.52849 -2.90425 0
M  V30 3595 C 341.667 3.45595 -3.88407 0
M  V30 3596 C 339.352 3.80053 -3.28428 0
M  V30 3597 C 341.346 3.65217 -5.22394 0
M  V30 3598 C 339.033 3.99325 -4.62583 0
M  V30 3599 C 340.031 3.91905 -5.59374 0
M  V30 3600 O 339.719 4.10647 -6.91104 0
M  V30 3601 H 339.451 0.581314 -0.345036 0
M  V30 3602 H 342.005 1.3453 -1.55212 0
M  V30 3603 H 340.235 3.78472 -0.793477 0
M  V30 3604 H 341.924 3.87692 -1.20207 0
M  V30 3605 H 342.69 3.24564 -3.60393 0
M  V30 3606 H 338.569 3.84936 -2.53664 0
M  V30 3607 H 342.113 3.59341 -5.9793 0
M  V30 3608 H 338.01 4.19846 -4.90306 0
M  V30 3609 H 338.778 4.27915 -6.97733 0
M  V30 3610 N 341.441 0.965919 1.2453 0
M  V30 3611 C 342.371 0.513476 2.27784 0
M  V30 3612 C 343.352 -0.445974 1.6415 0
M  V30 3613 O 344.537 -0.342485 1.91156 0
M  V30 3614 C 341.667 -0.198839 3.4673 0
M  V30 3615 C 340.621 0.676456 4.2262 0
M  V30 3616 C 339.947 -0.167248 5.34438 0
M  V30 3617 C 341.247 1.96017 4.84123 0
M  V30 3618 H 342.941 1.3765 2.65881 0
M  V30 3619 H 340.487 0.663321 1.27813 0
M  V30 3620 H 342.44 -0.526567 4.18097 0
M  V30 3621 H 341.164 -1.0962 3.07654 0
M  V30 3622 H 339.823 0.98743 3.53052 0
M  V30 3623 H 339.471 -1.0647 4.91603 0
M  V30 3624 H 339.171 0.415181 5.86131 0
M  V30 3625 H 340.695 -0.489688 6.08633 0
M  V30 3626 H 342.109 1.69814 5.47573 0
M  V30 3627 H 340.506 2.48918 5.4604 0
M  V30 3628 H 341.576 2.65622 4.05676 0
M  V30 3629 N 342.919 -1.39368 0.735821 0
M  V30 3630 C 344.167 -2.00101 0.283562 0
M  V30 3631 C 344.488 -1.5868 -1.13338 0
M  V30 3632 O 343.758 -0.835423 -1.77193 0
M  V30 3633 H 342.338 -0.740024 0.101851 0
M  V30 3634 H 345 -1.70404 0.945962 0
M  V30 3635 H 344.096 -3.10323 0.332604 0
M  V30 3636 N 344.397 -0.483516 -1.5 0
M  V30 3637 C 345.329 0.340634 -2.26655 0
M  V30 3638 C 346.342 0.946152 -1.32483 0
M  V30 3639 O 347.531 0.832453 -1.579 0
M  V30 3640 C 344.631 1.4929 -3.04246 0
M  V30 3641 C 343.804 0.997903 -4.25865 0
M  V30 3642 C 342.863 2.02569 -4.85646 0
M  V30 3643 O 341.889 1.60128 -5.46212 0
M  V30 3644 N 343.091 3.3548 -4.73744 0
M  V30 3645 H 345.856 -0.316577 -2.98023 0
M  V30 3646 H 343.417 -0.315024 -1.58806 0
M  V30 3647 H 345.409 2.17766 -3.41116 0
M  V30 3648 H 343.979 2.05458 -2.35597 0
M  V30 3649 H 343.199 0.138617 -3.93956 0
M  V30 3650 H 344.487 0.645305 -5.04691 0
M  V30 3651 H 343.885 3.72661 -4.25605 0
M  V30 3652 H 342.442 3.99718 -5.14848 0
M  V30 3653 N 345.875 1.56104 -0.216619 0
M  V30 3654 C 346.805 2.23063 0.690296 0
M  V30 3655 C 347.786 1.20072 1.20485 0
M  V30 3656 O 348.971 1.48643 1.24976 0
M  V30 3657 C 346.101 2.90672 1.90072 0
M  V30 3658 C 345.055 4.00092 1.5202 0
M  V30 3659 C 344.381 4.54972 2.80899 0
M  V30 3660 C 345.681 5.17398 0.71391 0
M  V30 3661 H 347.375 2.99109 0.132038 0
M  V30 3662 H 344.921 1.43866 0.0620664 0
M  V30 3663 H 346.874 3.36204 2.54057 0
M  V30 3664 H 345.598 2.12066 2.48386 0
M  V30 3665 H 344.257 3.55283 0.903839 0
M  V30 3666 H 343.905 3.73102 3.37348 0
M  V30 3667 H 343.605 5.28817 2.56176 0
M  V30 3668 H 345.129 5.0322 3.45836 0
M  V30 3669 H 346.543 5.59342 1.25735 0
M  V30 3670 H 344.94 5.97444 0.563951 0
M  V30 3671 H 346.01 4.84088 -0.280527 0
M  V30 3672 N 347.353 -0.0568162 1.57498 0
M  V30 3673 C 348.263 -1.08346 2.08083 0
M  V30 3674 C 349.279 -1.41439 1.01346 0
M  V30 3675 O 350.455 -1.51316 1.32912 0
M  V30 3676 C 347.52 -2.37352 2.52715 0
M  V30 3677 C 346.581 -2.11093 3.73816 0
M  V30 3678 C 345.814 -3.33949 4.1631 0
M  V30 3679 O 346.037 -4.43622 3.58547 0
M  V30 3680 O 344.971 -3.21279 5.08983 0
M  V30 3681 H 348.797 -0.683667 2.95905 0
M  V30 3682 H 346.382 -0.271965 1.46904 0
M  V30 3683 H 348.264 -3.13246 2.81877 0
M  V30 3684 H 346.939 -2.76681 1.68016 0
M  V30 3685 H 345.846 -1.32856 3.49714 0
M  V30 3686 H 347.179 -1.76637 4.59413 0
M  V30 3687 N 348.832 -1.54138 -0.328536 0
M  V30 3688 C 350.072 -1.73827 -1.07534 0
M  V30 3689 C 350.436 -0.498777 -1.85408 0
M  V30 3690 O 351.637 -0.572937 -2.62623 0
M  V30 3691 C 349.908 -2.97573 -1.97952 0
M  V30 3692 S 351.467 -3.38143 -2.79652 0
M  V30 3693 H 348.285 -0.611287 -0.36311 0
M  V30 3694 H 350.887 -1.92306 -0.351931 0
M  V30 3695 H 349.591 -3.85939 -1.39569 0
M  V30 3696 H 349.122 -2.81603 -2.74706 0
M  V30 3697 H 351.137 -2.93052 -4.00418 0
M  V30 3698 N 350.31 0.590341 -1.46126 0
M  V30 3699 C 351.557 1.34882 -1.5104 0
M  V30 3700 C 351.885 1.93849 -0.159021 0
M  V30 3701 O 351.14 1.76544 0.844436 0
M  V30 3702 C 351.439 2.5032 -2.55097 0
M  V30 3703 C 351.105 2.09394 -3.99331 0
M  V30 3704 C 349.767 1.97947 -4.38601 0
M  V30 3705 C 352.119 1.77712 -4.89967 0
M  V30 3706 C 349.447 1.53065 -5.66381 0
M  V30 3707 C 351.799 1.34312 -6.18177 0
M  V30 3708 C 350.463 1.21436 -6.56361 0
M  V30 3709 H 349.733 0.493568 -0.552695 0
M  V30 3710 H 352.38 0.665539 -1.79563 0
M  V30 3711 H 350.685 3.24062 -2.20207 0
M  V30 3712 H 352.382 3.08541 -2.56132 0
M  V30 3713 H 348.972 2.19235 -3.68285 0
M  V30 3714 H 353.156 1.85445 -4.60352 0
M  V30 3715 H 348.412 1.41733 -5.94745 0
M  V30 3716 H 352.586 1.08849 -6.87841 0
M  V30 3717 H 350.213 0.864345 -7.5527 0
M  V30 3718 N 351.788 1.33704 0.83433 0
M  V30 3719 C 353.013 1.28615 1.62705 0
M  V30 3720 C 353.438 -0.139242 1.87584 0
M  V30 3721 O 352.796 -1.09734 1.4432 0
M  V30 3722 C 352.844 2.07139 2.95171 0
M  V30 3723 O 351.948 1.4331 3.86699 0
M  V30 3724 H 351.289 0.44226 0.49528 0
M  V30 3725 H 353.819 1.76335 1.03766 0
M  V30 3726 H 353.829 2.18073 3.44831 0
M  V30 3727 H 352.504 3.10779 2.76386 0
M  V30 3728 H 351.081 1.4105 3.45195 0
M  V30 3729 N 353.266 -1.05314 1.17247 0
M  V30 3730 C 354.196 -2.1498 0.911362 0
M  V30 3731 C 355.177 -1.69471 -0.146169 0
M  V30 3732 O 356.362 -1.942 0.003812 0
M  V30 3733 C 353.492 -3.4472 0.422528 0
M  V30 3734 C 352.446 -4.03789 1.4191 0
M  V30 3735 C 351.772 -5.28858 0.788274 0
M  V30 3736 C 353.072 -4.41418 2.7919 0
M  V30 3737 H 354.766 -2.3708 1.82848 0
M  V30 3738 H 352.312 -1.13938 0.880569 0
M  V30 3739 H 354.265 -4.20787 0.227289 0
M  V30 3740 H 352.989 -3.22269 -0.530123 0
M  V30 3741 H 351.648 -3.2979 1.60106 0
M  V30 3742 H 351.296 -5.02709 -0.171173 0
M  V30 3743 H 350.996 -5.69338 1.45353 0
M  V30 3744 H 352.52 -6.07612 0.603282 0
M  V30 3745 H 353.934 -5.08524 2.64719 0
M  V30 3746 H 352.331 -4.92913 3.42282 0
M  V30 3747 H 353.401 -3.51819 3.33693 0
M  V30 3748 N 354.744 -0.972509 -1.24016 0
M  V30 3749 C 355.992 -0.635776 -1.91839 0
M  V30 3750 C 356.313 0.832312 -1.76345 0
M  V30 3751 O 355.583 1.5946 -1.13795 0
M  V30 3752 H 354.163 -0.232157 -0.710009 0
M  V30 3753 H 356.825 -1.23462 -1.50809 0
M  V30 3754 H 355.921 -0.880545 -2.99421 0
M  V30 3755 N 356.222 1.38976 -0.743202 0
M  V30 3756 C 357.17 2.32394 -0.0978389 0
M  V30 3757 C 358.164 1.53486 0.716824 0
M  V30 3758 O 359.37 1.69092 0.617088 0
M  V30 3759 H 355.745 0.75189 -0.0128402 0
M  V30 3760 H 357.716 2.84441 -0.901981 0
M  V30 3761 C 356.465 3.38629 0.789036 0
M  V30 3762 H 355.788 3.99432 0.171559 0
M  V30 3763 H 357.228 4.06426 1.20807 0
M  V30 3764 C 355.687 2.76347 1.92702 0
M  V30 3765 O 356.217 2.64836 3.02034 0
M  V30 3766 N 354.423 2.34311 1.71891 0
M  V30 3767 H 353.97 2.43873 0.829675 0
M  V30 3768 H 353.928 1.9298 2.48205 0
M  V30 3769 N 357.7 0.491464 1.49741 0
M  V30 3770 C 358.63 -0.28154 2.31796 0
M  V30 3771 C 359.611 -0.971473 1.3963 0
M  V30 3772 O 360.796 -0.964719 1.68543 0
M  V30 3773 C 357.926 -1.35203 3.19902 0
M  V30 3774 C 356.88 -0.782529 4.20786 0
M  V30 3775 C 356.206 -1.95283 4.97764 0
M  V30 3776 C 357.506 0.21999 5.21837 0
M  V30 3777 H 359.2 0.403355 2.96671 0
M  V30 3778 H 356.746 0.195425 1.42668 0
M  V30 3779 H 358.699 -1.90045 3.76113 0
M  V30 3780 H 357.423 -2.06598 2.52953 0
M  V30 3781 H 356.082 -0.255928 3.65706 0
M  V30 3782 H 355.73 -2.65423 4.2727 0
M  V30 3783 H 355.43 -1.57789 5.66018 0
M  V30 3784 H 356.954 -2.50577 5.56816 0
M  V30 3785 H 358.368 -0.23996 5.72798 0
M  V30 3786 H 356.765 0.51026 5.97927 0
M  V30 3787 H 357.835 1.13911 4.7133 0
M  V30 3788 N 359.178 -1.55987 0.224894 0
M  V30 3789 C 360.455 -1.90232 -0.455083 0
M  V30 3790 C 360.835 -1.14269 -1.77499 0
M  V30 3791 O 360.183 -0.253079 -2.27094 0
M  V30 3792 C 360.393 -3.42993 -0.644758 0
M  V30 3793 C 361.741 -4.13821 -0.950669 0
M  V30 3794 O 362.765 -3.4861 -0.731423 0
M  V30 3795 O 361.624 -5.29128 -1.36695 0
M  V30 3796 H 358.718 -0.79108 -0.241084 0
M  V30 3797 H 361.264 -1.67581 0.267327 0
M  V30 3798 H 360.036 -3.90252 0.28613 0
M  V30 3799 H 359.659 -3.71434 -1.41853 0
M  V30 3800 N 360.656 0.0484629 -1.57525 0
M  V30 3801 C 361.619 1.03956 -2.04269 0
M  V30 3802 C 362.619 1.30211 -0.943496 0
M  V30 3803 O 363.809 1.25539 -1.20771 0
M  V30 3804 C 360.941 2.37742 -2.44319 0
M  V30 3805 H 362.134 0.636182 -2.93075 0
M  V30 3806 H 359.687 0.294811 -1.53494 0
M  V30 3807 H 360.422 2.82866 -1.5861 0
M  V30 3808 H 360.207 2.20021 -3.24551 0
M  V30 3809 H 361.697 3.08936 -2.80978 0
M  V30 3810 N 362.134 1.5431 0.320358 0
M  V30 3811 C 363.081 1.83918 1.39438 0
M  V30 3812 C 364.051 0.686525 1.51248 0
M  V30 3813 O 365.236 0.933269 1.66417 0
M  V30 3814 C 362.376 2.075 2.75749 0
M  V30 3815 C 361.489 3.35177 2.72544 0
M  V30 3816 C 360.624 3.48704 4.00723 0
M  V30 3817 C 359.663 4.70244 3.91838 0
M  V30 3818 N 358.8 4.80679 5.11754 0
M  V30 3819 H 363.64 2.75544 1.13489 0
M  V30 3820 H 361.177 1.36459 0.549309 0
M  V30 3821 H 363.135 2.19166 3.54996 0
M  V30 3822 H 361.765 1.19163 3 0
M  V30 3823 H 360.817 3.32233 1.85271 0
M  V30 3824 H 362.129 4.24534 2.61863 0
M  V30 3825 H 361.283 3.59928 4.88402 0
M  V30 3826 H 360.022 2.57445 4.14214 0
M  V30 3827 H 359.027 4.59072 3.02544 0
M  V30 3828 H 360.252 5.6289 3.7991 0
M  V30 3829 H 358.198 3.92337 5.25745 0
M  V30 3830 H 358.115 5.64007 5.0342 0
M  V30 3831 H 359.383 4.96239 6.01138 0
M  V30 3832 N 363.613 -0.582584 1.46437 0
M  V30 3833 C 365.029 -0.905962 1.31394 0
M  V30 3834 C 365.229 -1.99468 0.285476 0
M  V30 3835 O 364.285 -2.50566 -0.311914 0
M  V30 3836 C 365.598 -1.3232 2.70022 0
M  V30 3837 C 367.146 -1.43604 2.78113 0
M  V30 3838 C 367.621 -1.88694 4.17323 0
M  V30 3839 N 369.112 -1.95887 4.19741 0
M  V30 3840 C 369.847 -2.32051 5.24347 0
M  V30 3841 N 369.343 -2.67006 6.39281 0
M  V30 3842 N 371.136 -2.32606 5.11713 0
M  V30 3843 H 363.287 0.1366 2.1196 0
M  V30 3844 H 365.55 -0.00155736 0.947999 0
M  V30 3845 H 365.256 -0.597242 3.46592 0
M  V30 3846 H 365.13 -2.28469 3.00136 0
M  V30 3847 H 367.517 -2.15286 2.01832 0
M  V30 3848 H 367.598 -0.457059 2.51684 0
M  V30 3849 H 367.242 -1.1759 4.941 0
M  V30 3850 H 367.172 -2.8755 4.4116 0
M  V30 3851 H 369.663 -1.71362 3.36814 0
M  V30 3852 H 369.976 -2.93554 7.14875 0
M  V30 3853 H 368.321 -2.64644 6.42642 0
M  V30 3854 H 371.512 -2.04721 4.2096 0
M  V30 3855 H 371.685 -2.60462 5.93349 0
M  V30 3856 N 365.091 -1.34144 -0.827227 0
M  V30 3857 C 366.368 -1.16844 -1.56865 0
M  V30 3858 C 366.748 0.260654 -2.09485 0
M  V30 3859 O 366.096 1.26138 -1.9053 0
M  V30 3860 C 366.306 -2.21939 -2.6934 0
M  V30 3861 C 367.654 -2.56695 -3.3822 0
M  V30 3862 O 368.678 -2.20695 -2.79593 0
M  V30 3863 O 367.537 -3.18518 -4.44082 0
M  V30 3864 H 364.631 -0.452669 -0.692112 0
M  V30 3865 H 367.177 -1.45763 -0.868973 0
M  V30 3866 H 365.949 -3.17882 -2.28182 0
M  V30 3867 H 365.572 -1.94172 -3.46962 0
M  V30 3868 N 366.569 1.04691 -1.17803 0
M  V30 3869 C 367.815 1.78181 -0.980977 0
M  V30 3870 C 368.17 1.86191 0.484825 0
M  V30 3871 O 367.463 1.35436 1.35527 0
M  V30 3872 C 367.657 3.21467 -1.56186 0
M  V30 3873 C 367.486 3.27422 -3.08261 0
M  V30 3874 C 366.256 3.36415 -3.77032 0
M  V30 3875 C 368.454 3.15947 -4.0581 0
M  V30 3876 N 366.436 3.31554 -5.16667 0
M  V30 3877 C 367.807 3.18514 -5.31929 0
M  V30 3878 C 369.862 2.99945 -3.97413 0
M  V30 3879 C 368.565 3.06723 -6.50625 0
M  V30 3880 C 370.591 2.89497 -5.15699 0
M  V30 3881 C 369.953 2.92702 -6.40706 0
M  V30 3882 H 366.052 0.6641 -0.412911 0
M  V30 3883 H 368.636 1.24762 -1.49474 0
M  V30 3884 H 366.807 3.73245 -1.07436 0
M  V30 3885 H 368.539 3.8322 -1.30093 0
M  V30 3886 H 365.294 3.41887 -3.27735 0
M  V30 3887 H 365.718 3.3258 -5.89678 0
M  V30 3888 H 370.36 2.96302 -3.01604 0
M  V30 3889 H 368.078 3.0912 -7.46639 0
M  V30 3890 H 371.664 2.78179 -5.10987 0
M  V30 3891 H 370.544 2.84697 -7.30696 0
M  V30 3892 N 368.047 0.979072 1.23499 0
M  V30 3893 C 369.295 0.645941 1.91499 0
M  V30 3894 C 369.616 -0.822948 1.76784 0
M  V30 3895 O 368.886 -1.58854 1.14639 0
M  V30 3896 H 367.466 0.235919 0.708767 0
M  V30 3897 H 370.128 1.2426 1.50152 0
M  V30 3898 H 369.224 0.896411 2.9895 0
M  V30 3899 N 369.525 -1.3858 0.750561 0
M  V30 3900 C 370.475 -2.27795 0.0965949 0
M  V30 3901 C 371.459 -1.45048 -0.696411 0
M  V30 3902 O 372.651 -1.67812 -0.562863 0
M  V30 3903 C 369.78 -3.33894 -0.798085 0
M  V30 3904 C 368.866 -4.241 0.0016067 0
M  V30 3905 N 369.257 -4.95067 1.03647 0
M  V30 3906 C 367.555 -4.45429 -0.225674 0
M  V30 3907 C 368.256 -5.61489 1.52004 0
M  V30 3908 N 367.232 -5.37135 0.835874 0
M  V30 3909 H 371.034 -2.80125 0.889228 0
M  V30 3910 H 368.548 -1.51446 0.586323 0
M  V30 3911 H 370.545 -3.96693 -1.28219 0
M  V30 3912 H 369.205 -2.83123 -1.5897 0
M  V30 3913 H 370.216 -4.98104 1.41819 0
M  V30 3914 H 366.893 -4.05571 -0.990872 0
M  V30 3915 H 368.283 -6.28264 2.38188 0
M  V30 3916 N 371.003 -0.499398 -1.49478 0
M  V30 3917 C 371.966 0.268838 -2.27618 0
M  V30 3918 C 372.966 0.895383 -1.33565 0
M  V30 3919 O 374.156 0.760164 -1.56739 0
M  V30 3920 C 371.288 1.38559 -3.11471 0
M  V30 3921 H 372.481 -0.416812 -2.96989 0
M  V30 3922 H 370.034 -0.254313 -1.54217 0
M  V30 3923 H 370.769 2.10544 -2.46661 0
M  V30 3924 H 370.554 0.941797 -3.80621 0
M  V30 3925 H 372.044 1.92678 -3.70493 0
M  V30 3926 N 372.481 1.55866 -0.233164 0
M  V30 3927 C 373.428 2.20796 0.67215 0
M  V30 3928 C 374.398 1.16731 1.18166 0
M  V30 3929 O 375.583 1.45129 1.23864 0
M  V30 3930 C 372.723 2.90072 1.86955 0
M  V30 3931 C 371.836 4.08759 1.39786 0
M  V30 3932 C 370.971 4.65787 2.55374 0
M  V30 3933 C 370.01 5.76752 2.04998 0
M  V30 3934 N 369.147 6.28021 3.13901 0
M  V30 3935 H 373.987 2.9779 0.111749 0
M  V30 3936 H 371.524 1.47036 0.0434007 0
M  V30 3937 H 373.482 3.28428 2.57276 0
M  V30 3938 H 372.112 2.15575 2.40265 0
M  V30 3939 H 371.164 3.7581 0.589173 0
M  V30 3940 H 372.476 4.88906 0.98856 0
M  V30 3941 H 371.63 5.06646 3.33758 0
M  V30 3942 H 370.369 3.84828 2.99598 0
M  V30 3943 H 369.374 5.35383 1.25079 0
M  V30 3944 H 370.599 6.59553 1.61759 0
M  V30 3945 H 368.545 5.49971 3.57586 0
M  V30 3946 H 368.462 7.03323 2.7726 0
M  V30 3947 H 369.73 6.73538 3.92386 0
M  V30 3948 N 373.959 -0.0401083 1.57549 0
M  V30 3949 C 375.236 -0.767917 1.79896 0
M  V30 3950 C 375.616 -1.9416 0.82856 0
M  V30 3951 O 374.964 -2.2812 -0.131671 0
M  V30 3952 C 375.174 -1.2113 3.27305 0
M  V30 3953 C 376.522 -1.63175 3.91994 0
M  V30 3954 O 377.546 -1.30616 3.31388 0
M  V30 3955 O 376.405 -2.23565 4.98679 0
M  V30 3956 H 373.499 -0.370441 0.739393 0
M  V30 3957 H 376.045 -0.017737 1.69691 0
M  V30 3958 H 374.817 -0.372937 3.89519 0
M  V30 3959 H 374.44 -2.02183 3.42356 0
M  V30 3960 N 375.437 -1.54477 -0.31217 0
M  V30 3961 C 376.667 -1.76948 -1.06645 0
M  V30 3962 C 377.075 -0.523593 -1.81811 0
M  V30 3963 O 376.418 0.51578 -1.76311 0
M  V30 3964 C 376.48 -2.91668 -2.10166 0
M  V30 3965 C 376.144 -4.30165 -1.54296 0
M  V30 3966 C 377.141 -5.10603 -0.978793 0
M  V30 3967 C 374.826 -4.76738 -1.58196 0
M  V30 3968 C 376.82 -6.3573 -0.461048 0
M  V30 3969 C 374.507 -6.01831 -1.06034 0
M  V30 3970 C 375.505 -6.81161 -0.500844 0
M  V30 3971 O 375.193 -8.03899 0.0128958 0
M  V30 3972 H 374.925 -0.594088 -0.322546 0
M  V30 3973 H 377.479 -2.02213 -0.360441 0
M  V30 3974 H 375.709 -2.62001 -2.84416 0
M  V30 3975 H 377.398 -3.01817 -2.71406 0
M  V30 3976 H 378.164 -4.75771 -0.941651 0
M  V30 3977 H 374.043 -4.15027 -2.00683 0
M  V30 3978 H 377.587 -6.97596 -0.0236894 0
M  V30 3979 H 373.484 -6.36152 -1.09459 0
M  V30 3980 H 374.252 -8.18437 -0.101457 0
M  V30 3981 N 376.915 0.57481 -1.46744 0
M  V30 3982 C 378.161 1.3347 -1.52688 0
M  V30 3983 C 378.494 1.93353 -0.181229 0
M  V30 3984 O 377.769 1.76912 0.808237 0
M  V30 3985 C 378.052 2.45811 -2.63152 0
M  V30 3986 C 377.905 1.90912 -4.07275 0
M  V30 3987 C 379.224 3.47822 -2.69644 0
M  V30 3988 H 376.343 0.483935 -0.555856 0
M  V30 3989 H 378.985 0.644968 -1.78718 0
M  V30 3990 H 377.135 3.04646 -2.41088 0
M  V30 3991 H 378.807 1.36473 -4.4065 0
M  V30 3992 H 377.05 1.21691 -4.16382 0
M  V30 3993 H 377.721 2.72042 -4.80309 0
M  V30 3994 H 380.197 2.9888 -2.895 0
M  V30 3995 H 379.073 4.23876 -3.48742 0
M  V30 3996 H 379.334 4.05555 -1.76005 0
M  V30 3997 N 378.394 1.34581 0.820102 0
M  V30 3998 C 379.304 1.28471 1.96297 0
M  V30 3999 C 380.32 0.191902 1.72939 0
M  V30 4000 O 381.496 0.418879 1.96996 0
M  V30 4001 C 378.561 1.04281 3.30645 0
M  V30 4002 C 377.622 2.22745 3.66992 0
M  V30 4003 C 376.855 1.997 4.9493 0
M  V30 4004 O 377.078 0.956656 5.6232 0
M  V30 4005 O 376.012 2.86723 5.2922 0
M  V30 4006 H 379.838 2.24624 2.04396 0
M  V30 4007 H 377.423 1.14816 0.955913 0
M  V30 4008 H 379.305 0.925841 4.11104 0
M  V30 4009 H 377.98 0.111697 3.23507 0
M  V30 4010 H 376.887 2.40003 2.86966 0
M  V30 4011 H 378.22 3.14257 3.78819 0
M  V30 4012 N 379.872 -1.04064 1.18357 0
M  V30 4013 C 380.835 -2.10243 0.912707 0
M  V30 4014 C 381.835 -1.60477 -0.101928 0
M  V30 4015 O 383.025 -1.73703 0.131517 0
M  V30 4016 C 380.157 -3.38893 0.369387 0
M  V30 4017 H 381.35 -2.35706 1.85426 0
M  V30 4018 H 378.903 -1.20489 0.995594 0
M  V30 4019 H 379.638 -3.19094 -0.578776 0
M  V30 4020 H 379.423 -3.76331 1.1008 0
M  V30 4021 H 380.913 -4.17128 0.198575 0
M  V30 4022 N 381.35 -0.985608 -1.22978 0
M  V30 4023 C 382.283 -0.47487 -2.23204 0
M  V30 4024 C 383.261 0.460865 -1.55932 0
M  V30 4025 O 384.445 0.388105 -1.84461 0
M  V30 4026 C 381.572 0.312427 -3.37256 0
M  V30 4027 C 380.618 -0.568219 -4.22698 0
M  V30 4028 S 381.451 -2.01919 -4.95973 0
M  V30 4029 C 382.607 -1.24118 -6.1347 0
M  V30 4030 H 382.84 -1.32419 -2.66181 0
M  V30 4031 H 380.373 -0.792005 -1.32539 0
M  V30 4032 H 382.331 0.760645 -4.03391 0
M  V30 4033 H 380.992 1.13693 -2.92801 0
M  V30 4034 H 380.185 0.0371657 -5.03986 0
M  V30 4035 H 379.787 -0.952897 -3.61657 0
M  V30 4036 H 382.079 -0.505121 -6.75614 0
M  V30 4037 H 383.022 -2.02907 -6.78406 0
M  V30 4038 H 383.43 -0.757669 -5.59392 0
M  V30 4039 N 382.828 1.3818 -0.7579 0
M  V30 4040 C 384.074 2.0078 -0.325423 0
M  V30 4041 C 384.429 1.59085 1.08211 0
M  V30 4042 O 383.722 0.820394 1.73148 0
M  V30 4043 C 383.916 3.55252 -0.391218 0
M  V30 4044 C 383.745 4.11947 -1.8036 0
M  V30 4045 C 382.515 4.43519 -2.42113 0
M  V30 4046 C 384.713 4.33908 -2.76095 0
M  V30 4047 N 382.695 4.85847 -3.75267 0
M  V30 4048 C 384.066 4.78692 -3.94023 0
M  V30 4049 C 386.121 4.16015 -2.73561 0
M  V30 4050 C 384.824 5.07459 -5.09782 0
M  V30 4051 C 386.85 4.45909 -3.88483 0
M  V30 4052 C 386.212 4.90921 -5.0515 0
M  V30 4053 H 382.311 0.764215 -0.165831 0
M  V30 4054 H 384.895 1.67724 -0.988776 0
M  V30 4055 H 383.066 3.87646 0.241886 0
M  V30 4056 H 384.798 4.04653 0.061989 0
M  V30 4057 H 381.553 4.32113 -1.93842 0
M  V30 4058 H 381.977 5.11339 -4.4369 0
M  V30 4059 H 386.619 3.80399 -1.84544 0
M  V30 4060 H 384.337 5.4197 -5.99412 0
M  V30 4061 H 387.923 4.33666 -3.87847 0
M  V30 4062 H 386.803 5.1361 -5.92599 0
M  V30 4063 N 384.306 0.507319 1.49211 0
M  V30 4064 C 385.236 -0.256939 2.32082 0
M  V30 4065 C 386.217 -0.956609 1.40652 0
M  V30 4066 O 387.402 -0.946788 1.69557 0
M  V30 4067 C 384.532 -1.31802 3.21318 0
M  V30 4068 C 383.486 -0.737855 4.21592 0
M  V30 4069 C 382.812 -1.89992 4.99807 0
M  V30 4070 C 384.112 0.275325 5.21574 0
M  V30 4071 H 385.806 0.434798 2.96226 0
M  V30 4072 H 383.352 0.210546 1.42452 0
M  V30 4073 H 385.305 -1.86045 3.78107 0
M  V30 4074 H 384.029 -2.03903 2.5513 0
M  V30 4075 H 382.688 -0.217126 3.65956 0
M  V30 4076 H 382.336 -2.60877 4.30061 0
M  V30 4077 H 382.036 -1.51777 5.6766 0
M  V30 4078 H 383.56 -2.44657 5.59442 0
M  V30 4079 H 384.974 -0.179193 5.7302 0
M  V30 4080 H 383.371 0.573649 5.97352 0
M  V30 4081 H 384.441 1.18903 4.70096 0
M  V30 4082 N 385.784 -1.5574 0.241426 0
M  V30 4083 C 386.717 -2.17168 -0.700935 0
M  V30 4084 C 387.695 -1.12206 -1.1768 0
M  V30 4085 O 388.879 -1.40565 -1.25593 0
M  V30 4086 C 386.006 -2.76796 -1.95196 0
M  V30 4087 C 385.052 -3.94764 -1.61442 0
M  V30 4088 S 385.885 -5.30613 -0.72182 0
M  V30 4089 C 387.041 -5.93691 -1.98197 0
M  V30 4090 H 387.274 -2.96761 -0.178882 0
M  V30 4091 H 384.807 -1.54378 0.0259299 0
M  V30 4092 H 386.765 -3.11787 -2.67019 0
M  V30 4093 H 385.426 -1.9716 -2.44514 0
M  V30 4094 H 384.619 -4.35057 -2.54443 0
M  V30 4095 H 384.221 -3.61022 -0.976672 0
M  V30 4096 H 386.513 -6.10874 -2.92983 0
M  V30 4097 H 387.456 -6.89258 -1.62262 0
M  V30 4098 H 387.864 -5.22709 -2.13156 0
M  V30 4099 N 387.262 0.0317525 -1.57568 0
M  V30 4100 C 388.192 1.03274 -2.0942 0
M  V30 4101 C 389.173 1.3788 -0.996143 0
M  V30 4102 O 390.358 1.46811 -1.27122 0
M  V30 4103 C 387.488 2.33448 -2.57137 0
M  V30 4104 C 386.442 2.13091 -3.71182 0
M  V30 4105 C 385.768 3.49001 -4.05095 0
M  V30 4106 C 387.068 1.51928 -4.99715 0
M  V30 4107 H 388.762 0.60112 -2.93303 0
M  V30 4108 H 386.308 0.287705 -1.41097 0
M  V30 4109 H 388.261 3.03802 -2.92032 0
M  V30 4110 H 386.985 2.78665 -1.70333 0
M  V30 4111 H 385.644 1.45171 -3.36632 0
M  V30 4112 H 385.292 3.91862 -3.15362 0
M  V30 4113 H 384.992 3.36207 -4.81911 0
M  V30 4114 H 386.516 4.20721 -4.42522 0
M  V30 4115 H 387.93 2.12196 -5.32584 0
M  V30 4116 H 386.327 1.49716 -5.81124 0
M  V30 4117 H 387.397 0.484811 -4.8247 0
M  V30 4118 N 388.74 1.54641 0.303973 0
M  V30 4119 C 389.672 1.81754 1.39636 0
M  V30 4120 C 390.685 0.70035 1.46966 0
M  V30 4121 O 391.874 0.97778 1.49338 0
M  V30 4122 C 388.974 1.93785 2.7803 0
M  V30 4123 C 388.147 3.24156 2.93669 0
M  V30 4124 C 387.206 3.26641 4.12544 0
M  V30 4125 O 386.232 4.00187 4.04771 0
M  V30 4126 N 387.434 2.5182 5.23036 0
M  V30 4127 H 390.199 2.76031 1.16734 0
M  V30 4128 H 387.76 1.54178 0.494033 0
M  V30 4129 H 389.752 1.92852 3.55795 0
M  V30 4130 H 388.322 1.06515 2.93893 0
M  V30 4131 H 387.542 3.37887 2.03042 0
M  V30 4132 H 388.83 4.10195 3.01027 0
M  V30 4133 H 388.228 1.91692 5.32232 0
M  V30 4134 H 386.785 2.56644 5.99147 0
M  V30 4135 N 390.218 -0.567019 1.47046 0
M  V30 4136 C 391.166 -1.69593 1.59188 0
M  V30 4137 C 392.16 -1.63046 0.459609 0
M  V30 4138 O 393.366 -1.6835 0.637058 0
M  V30 4139 H 389.741 -0.560993 0.500791 0
M  V30 4140 H 391.712 -1.56488 2.54075 0
M  V30 4141 C 390.461 -3.07964 1.61411 0
M  V30 4142 H 389.784 -3.13679 2.47881 0
M  V30 4143 H 391.224 -3.86671 1.73958 0
M  V30 4144 C 389.683 -3.35123 0.34559 0
M  V30 4145 O 390.213 -3.97812 -0.557521 0
M  V30 4146 N 388.419 -2.89699 0.22864 0
M  V30 4147 H 387.966 -2.38863 0.964479 0
M  V30 4148 H 387.924 -3.08242 -0.619192 0
M  V30 4149 N 391.696 -1.35014 -0.812953 0
M  V30 4150 C 392.973 -1.18502 -1.55617 0
M  V30 4151 C 393.353 0.238421 -2.09749 0
M  V30 4152 O 392.701 1.2411 -1.91857 0
M  V30 4153 C 392.911 -2.24783 -2.66971 0
M  V30 4154 C 394.259 -2.60268 -3.35478 0
M  V30 4155 O 395.283 -2.23648 -2.77236 0
M  V30 4156 O 394.142 -3.2321 -4.40678 0
M  V30 4157 H 391.236 -0.459984 -0.687272 0
M  V30 4158 H 393.782 -1.46677 -0.853464 0
M  V30 4159 H 392.554 -3.20284 -2.24798 0
M  V30 4160 H 392.177 -1.97841 -3.44884 0
M  V30 4161 N 393.175 1.03435 -1.18907 0
M  V30 4162 C 394.085 2.15075 -0.937015 0
M  V30 4163 C 395.101 1.73706 0.101085 0
M  V30 4164 O 396.277 2.01232 -0.0822948 0
M  V30 4165 C 393.342 3.43458 -0.473057 0
M  V30 4166 C 392.403 3.99172 -1.57989 0
M  V30 4167 C 391.636 5.21427 -1.13797 0
M  V30 4168 O 391.859 5.704 0.000725941 0
M  V30 4169 O 390.793 5.69837 -1.9383 0
M  V30 4170 H 394.619 2.39198 -1.87131 0
M  V30 4171 H 392.204 1.13506 -0.971427 0
M  V30 4172 H 394.086 4.20811 -0.222702 0
M  V30 4173 H 392.761 3.20793 0.432869 0
M  V30 4174 H 391.668 3.23178 -1.88433 0
M  V30 4175 H 393.001 4.2619 -2.46217 0
M  V30 4176 N 394.653 0.992116 1.22453 0
M  V30 4177 C 396.064 0.702776 1.72968 0
M  V30 4178 C 396.415 -0.780399 1.80012 0
M  V30 4179 O 395.54 -1.61007 1.44589 0
M  V30 4180 C 396.135 1.26903 3.14135 0
M  V30 4181 C 394.694 1.02909 3.62059 0
M  V30 4182 C 393.841 1.38969 2.39964 0
M  V30 4183 H 396.792 1.16457 1.07812 0
M  V30 4184 H 396.813 0.647223 3.74955 0
M  V30 4185 H 396.325 2.34851 3.08977 0
M  V30 4186 H 394.426 -0.0337979 3.72585 0
M  V30 4187 H 394.539 1.69191 4.48231 0
M  V30 4188 H 392.903 0.808279 2.41535 0
M  V30 4189 H 393.686 2.4792 2.37467 0
M  V30 4190 N 396.131 -1.37776 0.765217 0
M  V30 4191 C 397.041 -2.34135 0.147666 0
M  V30 4192 C 398.057 -1.59854 -0.687215 0
M  V30 4193 O 399.233 -1.91983 -0.608659 0
M  V30 4194 C 396.298 -3.3901 -0.72617 0
M  V30 4195 C 395.359 -4.2912 0.124417 0
M  V30 4196 C 394.592 -5.28986 -0.707807 0
M  V30 4197 O 394.815 -5.36205 -1.94525 0
M  V30 4198 O 393.749 -6.01779 -0.12046 0
M  V30 4199 H 397.575 -2.88664 0.943758 0
M  V30 4200 H 395.16 -1.39824 0.526277 0
M  V30 4201 H 397.042 -4.03195 -1.22524 0
M  V30 4202 H 395.717 -2.86819 -1.50056 0
M  V30 4203 H 394.624 -3.68057 0.669696 0
M  V30 4204 H 395.957 -4.84598 0.861736 0
M  V30 4205 N 397.609 -0.515225 -1.4894 0
M  V30 4206 C 398.886 0.0879088 -1.95402 0
M  V30 4207 C 399.266 1.52745 -1.45712 0
M  V30 4208 O 398.614 2.18238 -0.677093 0
M  V30 4209 C 398.824 -0.0141055 -3.48997 0
M  V30 4210 C 400.172 0.152646 -4.24326 0
M  V30 4211 O 401.196 0.0604025 -3.56149 0
M  V30 4212 O 400.055 0.34384 -5.45417 0
M  V30 4213 H 397.149 0.0874636 -0.822362 0
M  V30 4214 H 399.695 -0.578775 -1.59525 0
M  V30 4215 H 398.467 -1.01745 -3.77841 0
M  V30 4216 H 398.09 0.692091 -3.9153 0
M  V30 4217 N 399.087 1.5561 -0.249682 0
M  V30 4218 C 400.334 1.99011 0.374287 0
M  V30 4219 C 400.662 1.13785 1.57744 0
M  V30 4220 O 399.917 0.189326 1.94782 0
M  V30 4221 C 400.216 3.4775 0.824887 0
M  V30 4222 C 399.882 4.50086 -0.270819 0
M  V30 4223 C 398.544 4.77791 -0.571746 0
M  V30 4224 C 400.896 5.11312 -1.01041 0
M  V30 4225 C 398.224 5.63997 -1.61629 0
M  V30 4226 C 400.576 5.98651 -2.0445 0
M  V30 4227 C 399.24 6.24688 -2.35204 0
M  V30 4228 H 398.51 0.728233 0.136961 0
M  V30 4229 H 401.157 1.88122 -0.358087 0
M  V30 4230 H 399.462 3.55985 1.63651 0
M  V30 4231 H 401.159 3.78721 1.31799 0
M  V30 4232 H 397.749 4.28592 -0.026136 0
M  V30 4233 H 401.933 4.89953 -0.791177 0
M  V30 4234 H 397.189 5.82425 -1.85988 0
M  V30 4235 H 401.363 6.45135 -2.62248 0
M  V30 4236 H 398.99 6.91281 -3.16282 0
M  V30 4237 N 400.565 -0.0233959 1.57583 0
M  V30 4238 C 401.811 -0.714119 1.89811 0
M  V30 4239 C 402.144 -1.74702 0.848113 0
M  V30 4240 O 401.419 -1.94023 -0.136135 0
M  V30 4241 C 401.702 -1.37853 3.32669 0
M  V30 4242 C 401.555 -0.358764 4.48367 0
M  V30 4243 C 402.874 -2.31101 3.7454 0
M  V30 4244 H 399.993 -0.25814 0.690314 0
M  V30 4245 H 402.635 0.0230927 1.89986 0
M  V30 4246 H 400.785 -2.00689 3.3265 0
M  V30 4247 H 402.457 0.268115 4.6052 0
M  V30 4248 H 400.7 0.321387 4.32608 0
M  V30 4249 H 401.371 -0.862242 5.45224 0
M  V30 4250 H 403.847 -1.78304 3.75961 0
M  V30 4251 H 402.723 -2.74567 4.75294 0
M  V30 4252 H 402.984 -3.18018 3.0711 0
M  V30 4253 N 402.043 -1.548 -0.295768 0
M  V30 4254 C 403.292 -1.73538 -1.02798 0
M  V30 4255 C 403.605 -0.531159 -1.8825 0
M  V30 4256 O 404.811 -0.600458 -2.64777 0
M  V30 4257 C 403.267 -3.07051 -1.87744 0
M  V30 4258 C 402.875 -4.34968 -1.07269 0
M  V30 4259 C 404.619 -3.35146 -2.60533 0
M  V30 4260 C 402.526 -5.5953 -1.91521 0
M  V30 4261 H 401.456 -0.646794 -0.387522 0
M  V30 4262 H 404.107 -1.81278 -0.284718 0
M  V30 4263 H 402.489 -2.93289 -2.66078 0
M  V30 4264 H 403.663 -4.5958 -0.335117 0
M  V30 4265 H 401.978 -4.13847 -0.460384 0
M  V30 4266 H 404.575 -4.2541 -3.23929 0
M  V30 4267 H 404.918 -2.54255 -3.29636 0
M  V30 4268 H 405.451 -3.49902 -1.89244 0
M  V30 4269 H 402.19 -6.43103 -1.26878 0
M  V30 4270 H 401.71 -5.39096 -2.62937 0
M  V30 4271 H 403.389 -5.96982 -2.49442 0
M  V30 4272 N 403.521 0.559213 -1.47345 0
M  V30 4273 C 404.484 1.64854 -1.59235 0
M  V30 4274 C 405.484 1.53851 -0.467607 0
M  V30 4275 O 406.674 1.58045 -0.732617 0
M  V30 4276 C 403.806 3.04388 -1.53496 0
M  V30 4277 H 404.999 1.55662 -2.56339 0
M  V30 4278 H 402.552 0.778973 -1.35505 0
M  V30 4279 H 403.287 3.19115 -0.577604 0
M  V30 4280 H 403.072 3.13783 -2.35123 0
M  V30 4281 H 404.562 3.83642 -1.6495 0
M  V30 4282 N 404.999 1.35443 0.805782 0
M  V30 4283 C 406.227 1.31878 1.59423 0
M  V30 4284 C 406.642 -0.103562 1.88516 0
M  V30 4285 O 405.999 -1.05575 1.48863 0
M  V30 4286 C 406.05 2.12426 2.92502 0
M  V30 4287 O 405.771 3.49115 2.6467 0
M  V30 4288 C 407.272 2.16455 3.86862 0
M  V30 4289 H 404.492 0.453002 0.495005 0
M  V30 4290 H 407.036 1.78309 1.00131 0
M  V30 4291 H 405.191 1.69593 3.48306 0
M  V30 4292 H 405.605 3.90957 3.49647 0
M  V30 4293 H 407.079 2.77204 4.77349 0
M  V30 4294 H 407.556 1.16352 4.23508 0
M  V30 4295 H 408.162 2.59453 3.36993 0
M  V30 4296 N 406.477 -1.02803 1.19454 0
M  V30 4297 C 407.725 -1.75869 0.995722 0
M  V30 4298 C 408.046 -1.89138 -0.474543 0
M  V30 4299 O 407.316 -1.42558 -1.34366 0
M  V30 4300 H 405.896 -0.651511 0.365435 0
M  V30 4301 H 408.558 -1.24004 1.50363 0
M  V30 4302 H 407.654 -2.76661 1.44447 0
M  V30 4303 N 407.956 -0.998596 -1.21925 0
M  V30 4304 C 408.866 -0.562736 -2.27751 0
M  V30 4305 C 409.882 0.391203 -1.69545 0
M  V30 4306 O 411.058 0.256625 -1.99758 0
M  V30 4307 C 408.123 0.11012 -3.46525 0
M  V30 4308 C 407.184 -0.887495 -4.20026 0
M  V30 4309 C 406.417 -0.246654 -5.3313 0
M  V30 4310 O 406.64 0.958088 -5.62296 0
M  V30 4311 O 405.574 -0.954374 -5.94286 0
M  V30 4312 H 409.4 -1.44329 -2.67213 0
M  V30 4313 H 406.985 -0.767135 -1.28201 0
M  V30 4314 H 408.867 0.486756 -4.18579 0
M  V30 4315 H 407.542 0.965154 -3.08976 0
M  V30 4316 H 406.449 -1.31517 -3.5022 0
M  V30 4317 H 407.782 -1.71191 -4.6147 0
M  V30 4318 N 409.434 1.37368 -0.772513 0
M  V30 4319 C 410.68 1.99969 -0.337681 0
M  V30 4320 C 411.013 1.61184 1.08321 0
M  V30 4321 O 410.288 0.858395 1.74533 0
M  V30 4322 C 410.571 3.56858 -0.482121 0
M  V30 4323 C 410.424 4.0555 -1.94549 0
M  V30 4324 C 411.743 4.39955 0.113143 0
M  V30 4325 H 408.862 0.726464 -0.124171 0
M  V30 4326 H 411.504 1.63034 -0.975699 0
M  V30 4327 H 409.654 3.88452 0.0610361 0
M  V30 4328 H 411.326 3.84518 -2.54841 0
M  V30 4329 H 409.569 3.57715 -2.45403 0
M  V30 4330 H 410.24 5.14587 -1.9976 0
M  V30 4331 H 412.716 4.14623 -0.35031 0
M  V30 4332 H 411.592 5.48897 -0.0180514 0
M  V30 4333 H 411.853 4.25403 1.20354 0
M  V30 4334 N 410.912 0.523116 1.48665 0
M  V30 4335 C 411.862 -0.263106 2.26477 0
M  V30 4336 C 412.846 -0.916005 1.32281 0
M  V30 4337 O 414.038 -0.819946 1.56863 0
M  V30 4338 C 411.167 -1.31361 3.17174 0
M  V30 4339 C 410.253 -0.665849 4.1884 0
M  V30 4340 N 410.644 0.244434 5.05209 0
M  V30 4341 C 408.942 -0.923863 4.36326 0
M  V30 4342 C 409.643 0.617443 5.78414 0
M  V30 4343 N 408.619 -0.0198686 5.43596 0
M  V30 4344 H 412.421 0.437295 2.90629 0
M  V30 4345 H 409.935 0.340675 1.58787 0
M  V30 4346 H 411.932 -1.89052 3.71571 0
M  V30 4347 H 410.592 -2.01546 2.54576 0
M  V30 4348 H 411.603 0.616621 5.14216 0
M  V30 4349 H 408.28 -1.6168 3.84923 0
M  V30 4350 H 409.67 1.36346 6.57921 0
M  V30 4351 N 412.39 -1.55475 0.257931 0
M  V30 4352 C 413.615 -2.04064 -0.370488 0
M  V30 4353 C 414.04 -1.13565 -1.49948 0
M  V30 4354 O 413.398 -0.130781 -1.80828 0
M  V30 4355 C 413.446 -3.50554 -0.845237 0
M  V30 4356 O 412.55 -3.63173 -1.95394 0
M  V30 4357 H 411.891 -0.659257 -0.0792243 0
M  V30 4358 H 414.421 -2.00903 0.387212 0
M  V30 4359 H 414.431 -3.91588 -1.14555 0
M  V30 4360 H 413.106 -4.15896 -0.0191259 0
M  V30 4361 H 411.683 -3.34039 -1.65748 0
M  V30 4362 N 413.868 0.0150385 -1.57593 0
M  V30 4363 C 415.114 0.704043 -1.90187 0
M  V30 4364 C 415.447 1.74249 -0.857366 0
M  V30 4365 O 414.722 1.94092 0.125843 0
M  V30 4366 C 415.005 1.36087 -3.33395 0
M  V30 4367 C 414.858 0.334981 -4.48551 0
M  V30 4368 C 416.177 2.29112 -3.7576 0
M  V30 4369 H 413.296 0.254475 -0.691673 0
M  V30 4370 H 415.938 -0.0331678 -1.89971 0
M  V30 4371 H 414.088 1.98922 -3.3371 0
M  V30 4372 H 415.76 -0.292534 -4.60372 0
M  V30 4373 H 414.003 -0.344325 -4.32431 0
M  V30 4374 H 414.674 0.833316 -5.45674 0
M  V30 4375 H 417.15 1.76308 -3.76902 0
M  V30 4376 H 416.026 2.72043 -4.76743 0
M  V30 4377 H 416.287 3.16385 -3.08793 0
M  V30 4378 N 415.346 1.54954 0.287554 0
M  V30 4379 C 416.762 1.46469 0.633964 0
M  V30 4380 C 416.962 0.666865 1.90145 0
M  V30 4381 O 416.018 0.179906 2.51858 0
M  V30 4382 C 417.331 2.90556 0.774454 0
M  V30 4383 C 418.879 3.00681 0.869462 0
M  V30 4384 C 419.354 4.45993 1.04184 0
M  V30 4385 N 420.845 4.4976 1.10772 0
M  V30 4386 C 421.58 5.59393 1.25964 0
M  V30 4387 N 421.076 6.78923 1.37968 0
M  V30 4388 N 422.869 5.47107 1.28959 0
M  V30 4389 H 415.02 2.05288 -0.545041 0
M  V30 4390 H 417.283 0.930305 -0.182308 0
M  V30 4391 H 416.989 3.51594 -0.086207 0
M  V30 4392 H 416.863 3.38743 1.6593 0
M  V30 4393 H 419.25 2.39749 1.7206 0
M  V30 4394 H 419.331 2.55769 -0.0396831 0
M  V30 4395 H 418.975 5.07524 0.195422 0
M  V30 4396 H 418.905 4.88548 1.96542 0
M  V30 4397 H 421.396 3.63651 1.02794 0
M  V30 4398 H 421.709 7.58231 1.49353 0
M  V30 4399 H 420.054 6.81763 1.34999 0
M  V30 4400 H 423.245 4.52668 1.19202 0
M  V30 4401 H 423.418 6.32595 1.40455 0
M  V30 4402 N 416.824 -0.551391 1.4764 0
M  V30 4403 C 417.734 -1.68525 1.63207 0
M  V30 4404 C 418.75 -1.6621 0.514815 0
M  V30 4405 O 419.926 -1.85551 0.783113 0
M  V30 4406 C 416.991 -3.05025 1.64805 0
M  V30 4407 C 416.052 -3.18362 2.88 0
M  V30 4408 C 415.285 -4.4835 2.89513 0
M  V30 4409 O 415.508 -5.34163 2.00065 0
M  V30 4410 O 414.442 -4.65602 3.81443 0
M  V30 4411 H 418.268 -1.58333 2.59161 0
M  V30 4412 H 415.853 -0.722063 1.30792 0
M  V30 4413 H 417.735 -3.86245 1.68502 0
M  V30 4414 H 416.41 -3.15587 0.720197 0
M  V30 4415 H 415.317 -2.36518 2.89845 0
M  V30 4416 H 416.65 -3.12707 3.80099 0
M  V30 4417 N 418.302 -1.35869 -0.798587 0
M  V30 4418 C 419.549 -1.29588 -1.55606 0
M  V30 4419 C 419.877 0.127456 -1.94082 0
M  V30 4420 O 419.132 1.09461 -1.62225 0
M  V30 4421 C 419.431 -2.1556 -2.85077 0
M  V30 4422 C 419.097 -3.6424 -2.65781 0
M  V30 4423 C 417.759 -4.04766 -2.60227 0
M  V30 4424 C 420.111 -4.58547 -2.47758 0
M  V30 4425 C 417.439 -5.37753 -2.34603 0
M  V30 4426 C 419.791 -5.91742 -2.23662 0
M  V30 4427 C 418.455 -6.31402 -2.16534 0
M  V30 4428 H 417.725 -0.474197 -0.569402 0
M  V30 4429 H 420.372 -1.67839 -0.922086 0
M  V30 4430 H 418.677 -1.70216 -3.52893 0
M  V30 4431 H 420.374 -2.08031 -3.42818 0
M  V30 4432 H 416.964 -3.32086 -2.70956 0
M  V30 4433 H 421.148 -4.28117 -2.51056 0
M  V30 4434 H 416.404 -5.67474 -2.2756 0
M  V30 4435 H 420.578 -6.6439 -2.08708 0
M  V30 4436 H 418.205 -7.34381 -1.96441 0
M  V30 4437 N 419.78 1.02168 -1.19998 0
M  V30 4438 C 421.026 1.75945 -1.00852 0
M  V30 4439 C 421.359 1.88702 0.458828 0
M  V30 4440 O 420.634 1.40911 1.34069 0
M  V30 4441 C 420.917 3.18154 -1.68671 0
M  V30 4442 C 420.77 3.13224 -3.22817 0
M  V30 4443 C 422.089 4.16711 -1.41561 0
M  V30 4444 H 419.208 0.638673 -0.367785 0
M  V30 4445 H 421.85 1.19222 -1.4794 0
M  V30 4446 H 420 3.66586 -1.28636 0
M  V30 4447 H 421.672 2.72635 -3.72112 0
M  V30 4448 H 419.915 2.50751 -3.53986 0
M  V30 4449 H 420.586 4.13728 -3.65422 0
M  V30 4450 H 423.062 3.76913 -1.76284 0
M  V30 4451 H 421.938 5.14391 -1.91553 0
M  V30 4452 H 422.199 4.40774 -0.342193 0
M  V30 4453 N 421.258 1.00505 1.21394 0
M  V30 4454 C 422.168 0.574806 2.27449 0
M  V30 4455 C 423.184 -0.382206 1.6975 0
M  V30 4456 O 424.36 -0.246027 1.99892 0
M  V30 4457 C 421.425 -0.0917414 3.46579 0
M  V30 4458 C 420.486 0.909758 4.1955 0
M  V30 4459 C 419.719 0.274924 5.32991 0
M  V30 4460 O 419.942 -0.928254 5.62796 0
M  V30 4461 O 418.876 0.985877 5.93771 0
M  V30 4462 H 422.702 1.45744 2.66444 0
M  V30 4463 H 420.287 0.773923 1.27792 0
M  V30 4464 H 422.169 -0.464551 4.18832 0
M  V30 4465 H 420.844 -0.948755 3.09484 0
M  V30 4466 H 419.751 1.33372 3.49518 0
M  V30 4467 H 421.084 1.73636 4.60555 0
M  V30 4468 N 422.737 -1.36956 0.779787 0
M  V30 4469 C 423.684 -2.30175 0.169697 0
M  V30 4470 C 424.654 -1.51501 -0.68094 0
M  V30 4471 O 425.839 -1.80042 -0.631629 0
M  V30 4472 C 422.979 -3.37985 -0.697131 0
M  V30 4473 C 422.092 -4.31661 0.170992 0
M  V30 4474 C 421.227 -5.2655 -0.701298 0
M  V30 4475 C 420.266 -6.11867 0.168869 0
M  V30 4476 N 419.403 -6.98973 -0.661855 0
M  V30 4477 H 424.243 -2.81767 0.970135 0
M  V30 4478 H 421.78 -1.38699 0.489994 0
M  V30 4479 H 423.738 -3.99128 -1.2146 0
M  V30 4480 H 422.368 -2.87739 -1.46309 0
M  V30 4481 H 421.42 -3.71756 0.80634 0
M  V30 4482 H 422.732 -4.91644 0.841875 0
M  V30 4483 H 421.886 -5.92937 -1.28494 0
M  V30 4484 H 420.625 -4.66998 -1.40584 0
M  V30 4485 H 419.63 -5.44452 0.764986 0
M  V30 4486 H 420.855 -6.73493 0.870863 0
M  V30 4487 H 418.801 -6.41941 -1.35086 0
M  V30 4488 H 418.718 -7.55984 -0.0484447 0
M  V30 4489 H 419.986 -7.6974 -1.22963 0
M  V30 4490 N 424.215 -0.530993 -1.48385 0
M  V30 4491 C 425.44 0.000729535 -2.074 0
M  V30 4492 C 425.865 1.27298 -1.3848 0
M  V30 4493 O 425.223 1.75599 -0.451081 0
M  V30 4494 C 425.271 0.206697 -3.60007 0
M  V30 4495 O 424.375 1.27514 -3.92191 0
M  V30 4496 H 423.716 -0.039583 -0.662819 0
M  V30 4497 H 426.246 -0.739194 -1.9078 0
M  V30 4498 H 426.256 0.42904 -4.05738 0
M  V30 4499 H 424.931 -0.722675 -4.09573 0
M  V30 4500 H 423.508 1.03537 -3.58238 0
M  V30 4501 N 425.693 1.55336 -0.266172 0
M  V30 4502 C 426.94 1.99397 0.353158 0
M  V30 4503 C 427.268 1.15451 1.56529 0
M  V30 4504 O 426.523 0.209974 1.9457 0
M  V30 4505 C 426.822 3.48606 0.787957 0
M  V30 4506 C 426.488 4.49773 -0.318541 0
M  V30 4507 C 425.15 4.77158 -0.62239 0
M  V30 4508 C 427.502 5.10212 -1.06459 0
M  V30 4509 C 424.83 5.62251 -1.67602 0
M  V30 4510 C 427.182 5.96449 -2.10788 0
M  V30 4511 C 425.846 6.22158 -2.41817 0
M  V30 4512 H 425.116 0.729644 0.12923 0
M  V30 4513 H 427.763 1.87732 -0.37802 0
M  V30 4514 H 426.068 3.57701 1.59866 0
M  V30 4515 H 427.765 3.80098 1.27775 0
M  V30 4516 H 424.355 4.2854 -0.0715925 0
M  V30 4517 H 428.539 4.89086 -0.843098 0
M  V30 4518 H 423.795 5.80419 -1.92155 0
M  V30 4519 H 427.969 6.42317 -2.69076 0
M  V30 4520 H 425.596 6.87888 -3.23596 0
M  V30 4521 N 427.171 -0.0066808 1.57599 0
M  V30 4522 C 428.101 -0.999296 2.11036 0
M  V30 4523 C 429.082 -1.36278 1.01795 0
M  V30 4524 O 430.267 -1.4477 1.29442 0
M  V30 4525 C 427.397 -2.29328 2.60818 0
M  V30 4526 C 426.351 -2.07159 3.74525 0
M  V30 4527 C 425.677 -3.42512 4.10596 0
M  V30 4528 C 426.977 -1.43959 5.02069 0
M  V30 4529 H 428.671 -0.554382 2.94223 0
M  V30 4530 H 426.217 -0.265221 1.41536 0
M  V30 4531 H 428.17 -2.99117 2.96828 0
M  V30 4532 H 426.894 -2.7592 1.74745 0
M  V30 4533 H 425.553 -1.39797 3.38899 0
M  V30 4534 H 425.201 -3.86795 3.21556 0
M  V30 4535 H 424.901 -3.28498 4.87199 0
M  V30 4536 H 426.425 -4.13628 4.4916 0
M  V30 4537 H 427.839 -2.03696 5.35893 0
M  V30 4538 H 426.236 -1.40452 5.83432 0
M  V30 4539 H 427.306 -0.407992 4.83181 0
M  V30 4540 N 428.649 -1.55105 -0.279332 0
M  V30 4541 C 429.599 -1.83937 -1.34727 0
M  V30 4542 C 430.583 -0.69785 -1.44979 0
M  V30 4543 O 431.775 -0.95904 -1.48766 0
M  V30 4544 C 428.904 -2.1092 -2.70864 0
M  V30 4545 C 427.99 -3.31314 -2.64748 0
M  V30 4546 N 428.381 -4.51371 -2.2825 0
M  V30 4547 C 426.679 -3.33777 -2.95819 0
M  V30 4548 C 427.38 -5.33447 -2.31969 0
M  V30 4549 N 426.356 -4.71697 -2.7019 0
M  V30 4550 H 430.158 -2.74309 -1.05506 0
M  V30 4551 H 427.672 -1.54896 -0.487959 0
M  V30 4552 H 429.669 -2.2973 -3.47893 0
M  V30 4553 H 428.329 -1.21828 -3.00979 0
M  V30 4554 H 429.34 -4.77584 -2.00335 0
M  V30 4555 H 426.017 -2.54858 -3.30687 0
M  V30 4556 H 427.407 -6.39424 -2.06365 0
M  V30 4557 N 430.127 0.543554 -1.4793 0
M  V30 4558 C 431.376 1.29649 -1.54512 0
M  V30 4559 C 431.689 1.94382 -0.217973 0
M  V30 4560 O 432.895 2.71017 -0.161908 0
M  V30 4561 C 431.351 2.35175 -2.72435 0
M  V30 4562 C 430.959 1.76572 -4.11736 0
M  V30 4563 C 432.703 3.11564 -2.8832 0
M  V30 4564 C 430.61 2.79958 -5.20939 0
M  V30 4565 H 429.54 0.487541 -0.57517 0
M  V30 4566 H 432.191 0.575708 -1.74235 0
M  V30 4567 H 430.573 3.10229 -2.46118 0
M  V30 4568 H 431.747 1.07799 -4.48013 0
M  V30 4569 H 430.062 1.12722 -4.00852 0
M  V30 4570 H 432.659 3.88794 -3.67074 0
M  V30 4571 H 433.002 3.66594 -1.97268 0
M  V30 4572 H 433.535 2.43623 -3.14472 0
M  V30 4573 H 430.274 2.29766 -6.13912 0
M  V30 4574 H 429.794 3.47101 -4.89164 0
M  V30 4575 H 431.473 3.43198 -5.48474 0
M  V30 4576 N 431.605 1.3629 0.791371 0
M  V30 4577 C 432.853 1.30154 1.5461 0
M  V30 4578 C 433.174 -0.119409 1.94634 0
M  V30 4579 O 432.444 -1.05924 1.64794 0
M  V30 4580 H 431.024 0.478784 0.573389 0
M  V30 4581 H 433.686 1.70565 0.94306 0
M  V30 4582 H 432.782 1.92762 2.45457 0
M  V30 4583 N 433.083 -1.0153 1.20538 0
M  V30 4584 C 434.03 -2.10098 0.955383 0
M  V30 4585 C 435 -1.65702 -0.114878 0
M  V30 4586 O 436.185 -1.90776 0.0301118 0
M  V30 4587 C 433.325 -3.41236 0.514969 0
M  V30 4588 C 432.438 -3.99102 1.65353 0
M  V30 4589 C 431.573 -5.18306 1.16329 0
M  V30 4590 C 430.612 -5.68258 2.27485 0
M  V30 4591 N 429.749 -6.78722 1.7967 0
M  V30 4592 H 434.589 -2.30818 1.88486 0
M  V30 4593 H 432.126 -1.13189 0.939499 0
M  V30 4594 H 434.084 -4.16504 0.240935 0
M  V30 4595 H 432.714 -3.20585 -0.377512 0
M  V30 4596 H 431.766 -3.20918 2.04245 0
M  V30 4597 H 433.078 -4.32177 2.49047 0
M  V30 4598 H 432.232 -6.00782 0.845302 0
M  V30 4599 H 430.971 -4.86799 0.296254 0
M  V30 4600 H 429.976 -4.84385 2.60099 0
M  V30 4601 H 431.201 -6.01798 3.14667 0
M  V30 4602 H 429.147 -6.49042 0.95295 0
M  V30 4603 H 429.064 -7.10996 2.56944 0
M  V30 4604 H 430.332 -7.64759 1.50875 0
M  V30 4605 N 434.561 -1.01147 -1.20859 0
M  V30 4606 C 435.789 -0.716911 -1.94082 0
M  V30 4607 C 436.204 0.721568 -1.74467 0
M  V30 4608 O 435.561 1.48889 -1.05539 0
M  V30 4609 C 435.612 -1.03662 -3.46318 0
M  V30 4610 O 435.333 -2.4186 -3.65288 0
M  V30 4611 C 436.834 -0.762386 -4.36695 0
M  V30 4612 H 434.054 -0.26367 -0.617024 0
M  V30 4613 H 436.598 -1.35127 -1.53496 0
M  V30 4614 H 434.753 -0.447757 -3.84804 0
M  V30 4615 H 435.167 -2.53224 -4.59323 0
M  V30 4616 H 436.641 -1.03621 -5.42187 0
M  V30 4617 H 437.118 0.303514 -4.3815 0
M  V30 4618 H 437.724 -1.33316 -4.03865 0
M  V30 4619 N 436.039 1.36541 -0.78704 0
M  V30 4620 C 437.288 1.98552 -0.35494 0
M  V30 4621 C 437.601 1.63171 1.07864 0
M  V30 4622 O 438.807 2.18399 1.61289 0
M  V30 4623 C 437.263 3.55136 -0.583671 0
M  V30 4624 C 436.871 3.99444 -2.02851 0
M  V30 4625 C 438.615 4.2395 -0.215957 0
M  V30 4626 C 436.522 5.48796 -2.20403 0
M  V30 4627 H 435.452 0.742888 -0.128972 0
M  V30 4628 H 438.103 1.5587 -0.968337 0
M  V30 4629 H 436.485 3.95875 0.0994046 0
M  V30 4630 H 437.659 3.6991 -2.74779 0
M  V30 4631 H 435.974 3.43459 -2.35425 0
M  V30 4632 H 438.571 5.33709 -0.325405 0
M  V30 4633 H 438.914 4.07827 0.835646 0
M  V30 4634 H 439.447 3.88565 -0.852175 0
M  V30 4635 H 436.186 5.69864 -3.23937 0
M  V30 4636 H 435.706 5.79964 -1.52977 0
M  V30 4637 H 437.385 6.14986 -2.01002 0
M  V30 4638 N 437.518 0.538854 1.48102 0
M  V30 4639 C 438.764 0.00801365 2.02798 0
M  V30 4640 C 439.097 -1.3309 1.41424 0
M  V30 4641 O 438.372 -1.86169 0.563158 0
M  V30 4642 C 438.655 -0.104589 3.59948 0
M  V30 4643 C 438.508 1.26012 4.31788 0
M  V30 4644 C 439.827 -0.827055 4.32259 0
M  V30 4645 H 436.946 0.00438624 0.736987 0
M  V30 4646 H 439.588 0.6976 1.7673 0
M  V30 4647 H 437.738 -0.691893 3.82289 0
M  V30 4648 H 439.41 1.88922 4.2084 0
M  V30 4649 H 437.653 1.83968 3.92859 0
M  V30 4650 H 438.324 1.13424 5.40221 0
M  V30 4651 H 440.8 -0.328578 4.14801 0
M  V30 4652 H 439.676 -0.87476 5.41885 0
M  V30 4653 H 439.937 -1.87927 4.0017 0
M  V30 4654 N 438.996 -1.55193 0.274407 0
M  V30 4655 C 440.242 -2.00604 -0.33608 0
M  V30 4656 C 440.597 -1.15948 -1.53538 0
M  V30 4657 O 439.89 -0.221385 -1.90317 0
M  V30 4658 C 440.084 -3.49019 -0.769458 0
M  V30 4659 C 439.913 -4.48038 0.386301 0
M  V30 4660 C 438.683 -4.97757 0.869854 0
M  V30 4661 C 440.881 -4.99558 1.22254 0
M  V30 4662 N 438.863 -5.80575 1.99515 0
M  V30 4663 C 440.234 -5.79816 2.19575 0
M  V30 4664 C 442.289 -4.81799 1.25597 0
M  V30 4665 C 440.992 -6.44208 3.19981 0
M  V30 4666 C 443.018 -5.46989 2.24848 0
M  V30 4667 C 442.38 -6.27058 3.20901 0
M  V30 4668 H 438.479 -0.777013 -0.088172 0
M  V30 4669 H 441.063 -1.90583 0.398266 0
M  V30 4670 H 439.234 -3.59383 -1.47303 0
M  V30 4671 H 440.966 -3.81263 -1.35722 0
M  V30 4672 H 437.721 -4.71464 0.449281 0
M  V30 4673 H 438.145 -6.26675 2.5614 0
M  V30 4674 H 442.787 -4.19501 0.527158 0
M  V30 4675 H 440.505 -7.05656 3.93796 0
M  V30 4676 H 444.091 -5.35189 2.28174 0
M  V30 4677 H 442.971 -6.7661 3.96445 0
M  V30 4678 N 440.474 -0.00167713 -1.576 0
M  V30 4679 C 441.384 1.00548 -2.1196 0
M  V30 4680 C 442.4 1.3758 -1.06526 0
M  V30 4681 O 443.576 1.46278 -1.38436 0
M  V30 4682 C 440.641 2.27809 -2.6135 0
M  V30 4683 C 439.702 1.97074 -3.81393 0
M  V30 4684 C 438.935 3.18267 -4.28417 0
M  V30 4685 O 439.158 4.30009 -3.74765 0
M  V30 4686 O 438.092 3.02167 -5.20556 0
M  V30 4687 H 441.918 0.573373 -2.98238 0
M  V30 4688 H 439.503 0.217255 -1.47812 0
M  V30 4689 H 441.385 3.02568 -2.93309 0
M  V30 4690 H 440.06 2.70254 -1.78169 0
M  V30 4691 H 438.967 1.19785 -3.54404 0
M  V30 4692 H 440.3 1.59464 -4.65652 0
M  V30 4693 N 441.952 1.55251 0.271103 0
M  V30 4694 C 443.2 1.75599 1.00047 0
M  V30 4695 C 443.521 0.561188 1.8675 0
M  V30 4696 O 442.791 -0.423846 1.9126 0
M  V30 4697 H 441.371 0.647562 0.372387 0
M  V30 4698 H 444.033 1.92656 0.294876 0
M  V30 4699 H 443.129 2.65766 1.6363 0
M  V30 4700 N 443.43 -0.535701 1.48216 0
M  V30 4701 C 444.377 -1.64083 1.62312 0
M  V30 4702 C 445.347 -1.59448 0.465365 0
M  V30 4703 O 446.532 -1.77959 0.688135 0
M  V30 4704 C 443.672 -3.0236 1.66349 0
M  V30 4705 C 442.785 -3.17273 2.93193 0
M  V30 4706 C 441.92 -4.46075 2.88427 0
M  V30 4707 C 440.959 -4.54496 4.1 0
M  V30 4708 N 440.096 -5.7468 4.03345 0
M  V30 4709 H 444.936 -1.51374 2.5669 0
M  V30 4710 H 442.473 -0.737059 1.27302 0
M  V30 4711 H 444.431 -3.82461 1.66672 0
M  V30 4712 H 443.061 -3.13854 0.754672 0
M  V30 4713 H 442.113 -2.30462 3.02641 0
M  V30 4714 H 443.425 -3.19357 3.83162 0
M  V30 4715 H 442.579 -5.3446 2.87119 0
M  V30 4716 H 441.318 -4.46504 1.96177 0
M  V30 4717 H 440.323 -3.64519 4.11589 0
M  V30 4718 H 441.548 -4.5581 5.03402 0
M  V30 4719 H 439.494 -5.76017 3.13912 0
M  V30 4720 H 439.411 -5.78234 4.87013 0
M  V30 4721 H 440.679 -6.65367 4.06087 0
M  V30 4722 N 444.908 -1.36708 -0.784132 0
M  V30 4723 C 445.856 -1.31533 -1.91838 0
M  V30 4724 C 446.85 -0.206205 -1.6814 0
M  V30 4725 O 448.056 -0.373519 -1.76082 0
M  V30 4726 H 444.431 -0.409613 -0.630651 0
M  V30 4727 H 446.402 -2.2731 -1.9332 0
M  V30 4728 C 445.151 -1.12679 -3.28936 0
M  V30 4729 H 444.474 -1.97274 -3.4774 0
M  V30 4730 H 445.914 -1.13106 -4.08636 0
M  V30 4731 C 444.373 0.168281 -3.36479 0
M  V30 4732 O 444.903 1.15625 -3.84699 0
M  V30 4733 N 443.109 0.214762 -2.89805 0
M  V30 4734 H 442.656 -0.589852 -2.50756 0
M  V30 4735 H 442.614 1.08094 -2.95234 0
M  V30 4736 N 446.386 1.0089 -1.21074 0
M  V30 4737 C 447.296 2.13039 -0.982425 0
M  V30 4738 C 448.312 1.73881 0.0642161 0
M  V30 4739 O 449.488 2.01012 -0.12496 0
M  V30 4740 C 446.553 3.42377 -0.545803 0
M  V30 4741 C 445.614 3.95731 -1.6642 0
M  V30 4742 C 444.847 5.18896 -1.24832 0
M  V30 4743 O 445.07 5.70273 -0.120265 0
M  V30 4744 O 444.004 5.65597 -2.05873 0
M  V30 4745 H 447.83 2.35175 -1.92163 0
M  V30 4746 H 445.415 1.1142 -0.995285 0
M  V30 4747 H 447.297 4.20244 -0.311912 0
M  V30 4748 H 445.972 3.21639 0.364727 0
M  V30 4749 H 444.879 3.19108 -1.95246 0
M  V30 4750 H 446.212 4.20872 -2.55201 0
M  V30 4751 N 447.864 1.01787 1.20321 0
M  V30 4752 C 448.812 0.58254 2.25187 0
M  V30 4753 C 449.806 -0.379359 1.65098 0
M  V30 4754 O 451.012 -0.249142 1.78267 0
M  V30 4755 H 447.387 0.170078 0.732514 0
M  V30 4756 H 449.358 1.47788 2.59232 0
M  V30 4757 C 448.107 -0.0620885 3.47645 0
M  V30 4758 H 447.43 0.669069 3.94162 0
M  V30 4759 H 448.87 -0.329784 4.22716 0
M  V30 4760 C 447.329 -1.3053 3.10586 0
M  V30 4761 O 447.859 -2.39848 3.22236 0
M  V30 4762 N 446.065 -1.18988 2.65123 0
M  V30 4763 H 445.612 -0.300341 2.55843 0
M  V30 4764 H 445.57 -2.02267 2.40698 0
M  V30 4765 N 449.342 -1.36122 0.79427 0
M  V30 4766 C 450.252 -2.33769 0.197296 0
M  V30 4767 C 451.268 -1.61276 -0.653153 0
M  V30 4768 O 452.444 -1.9323 -0.5678 0
M  V30 4769 C 449.509 -3.40474 -0.654098 0
M  V30 4770 C 448.57 -4.28759 0.215411 0
M  V30 4771 C 447.803 -5.30368 -0.595443 0
M  V30 4772 O 448.026 -5.40211 -1.83107 0
M  V30 4773 O 446.96 -6.019 0.00721351 0
M  V30 4774 H 450.786 -2.86597 1.00478 0
M  V30 4775 H 448.371 -1.38676 0.555818 0
M  V30 4776 H 450.253 -4.05703 -1.13944 0
M  V30 4777 H 448.928 -2.89937 -1.43938 0
M  V30 4778 H 447.835 -3.66554 0.747615 0
M  V30 4779 H 449.168 -4.82661 0.964332 0
M  V30 4780 N 450.82 -0.546701 -1.47814 0
M  V30 4781 C 452.066 -0.0187684 -2.02791 0
M  V30 4782 C 452.399 1.32338 -1.42128 0
M  V30 4783 O 451.674 1.85867 -0.573023 0
M  V30 4784 C 451.957 0.0854985 -3.59998 0
M  V30 4785 C 451.81 -1.283 -4.31114 0
M  V30 4786 C 453.129 0.80412 -4.32691 0
M  V30 4787 H 450.248 -0.0082946 -0.736953 0
M  V30 4788 H 452.89 -0.706962 -1.76358 0
M  V30 4789 H 451.04 0.671609 -3.82651 0
M  V30 4790 H 452.712 -1.91151 -4.19832 0
M  V30 4791 H 450.955 -1.86049 -3.91878 0
M  V30 4792 H 451.626 -1.16287 -5.39612 0
M  V30 4793 H 454.102 0.306576 -4.14969 0
M  V30 4794 H 452.978 0.846011 -5.42341 0
M  V30 4795 H 453.239 1.85802 -4.01161 0
M  V30 4796 N 452.299 1.55045 -0.282633 0
M  V30 4797 C 453.547 1.99365 0.331334 0
M  V30 4798 C 453.868 1.1725 1.55812 0
M  V30 4799 O 453.138 0.263871 1.94115 0
M  V30 4800 H 451.718 0.736397 0.125414 0
M  V30 4801 H 454.38 1.90964 -0.389711 0
M  V30 4802 H 453.476 3.0596 0.616036 0
M  V30 4803 N 453.777 0.010035 1.57597 0
M  V30 4804 C 455.193 -0.346164 1.55801 0
M  V30 4805 C 455.393 -1.74144 1.01371 0
M  V30 4806 O 454.449 -2.43938 0.651968 0
M  V30 4807 C 455.762 -0.212216 2.9995 0
M  V30 4808 C 457.31 -0.286409 3.11687 0
M  V30 4809 C 457.785 -0.18147 4.5764 0
M  V30 4810 N 459.276 -0.239056 4.62583 0
M  V30 4811 C 460.011 -0.181351 5.73113 0
M  V30 4812 N 459.507 -0.073661 6.92761 0
M  V30 4813 N 461.3 -0.233949 5.61613 0
M  V30 4814 H 453.451 0.922657 1.91313 0
M  V30 4815 H 455.714 0.354595 0.879185 0
M  V30 4816 H 455.42 0.748169 3.4365 0
M  V30 4817 H 455.294 -0.990224 3.6397 0
M  V30 4818 H 457.681 -1.23724 2.67911 0
M  V30 4819 H 457.762 0.521645 2.50425 0
M  V30 4820 H 457.406 0.765863 5.02093 0
M  V30 4821 H 457.336 -1.00814 5.1686 0
M  V30 4822 H 459.827 -0.32321 3.76515 0
M  V30 4823 H 460.14 -0.0358003 7.72792 0
M  V30 4824 H 458.485 -0.0391461 6.94989 0
M  V30 4825 H 461.676 -0.316347 4.6703 0
M  V30 4826 H 461.849 -0.185514 6.47734 0
M  V30 4827 N 455.255 -1.55392 -0.262866 0
M  V30 4828 C 456.495 -1.78231 -1.00064 0
M  V30 4829 C 456.859 -0.576966 -1.83126 0
M  V30 4830 O 458.06 -0.683809 -2.59957 0
M  V30 4831 C 456.331 -3.05701 -1.85153 0
M  V30 4832 S 457.89 -3.49699 -2.65058 0
M  V30 4833 H 454.708 -0.626138 -0.336856 0
M  V30 4834 H 457.31 -1.93626 -0.27005 0
M  V30 4835 H 456.014 -3.91511 -1.23074 0
M  V30 4836 H 455.545 -2.93 -2.62515 0
M  V30 4837 H 457.56 -3.09772 -3.87629 0
M  V30 4838 N 456.733 0.527833 -1.48498 0
M  V30 4839 C 457.68 1.6322 -1.6318 0
M  V30 4840 C 458.65 1.59199 -0.473815 0
M  V30 4841 O 459.835 1.77591 -0.697563 0
M  V30 4842 C 456.975 3.01474 -1.67951 0
M  V30 4843 C 456.088 3.15713 -2.94871 0
M  V30 4844 C 455.223 4.44539 -2.90789 0
M  V30 4845 C 454.262 4.52315 -4.12404 0
M  V30 4846 N 453.399 5.72533 -4.06387 0
M  V30 4847 H 458.239 1.50011 -2.57489 0
M  V30 4848 H 455.776 0.730298 -1.27691 0
M  V30 4849 H 457.734 3.81572 -1.68698 0
M  V30 4850 H 456.364 3.1345 -0.771306 0
M  V30 4851 H 455.416 2.28854 -3.03859 0
M  V30 4852 H 456.728 3.1732 -3.8485 0
M  V30 4853 H 455.882 5.3293 -2.89949 0
M  V30 4854 H 454.621 4.45457 -1.98542 0
M  V30 4855 H 453.626 3.62331 -4.13517 0
M  V30 4856 H 454.851 4.53134 -5.05812 0
M  V30 4857 H 452.797 5.74344 -3.16962 0
M  V30 4858 H 452.714 5.75643 -4.90073 0
M  V30 4859 H 453.982 6.63204 -4.0961 0
M  V30 4860 N 458.211 1.37122 0.776871 0
M  V30 4861 C 459.121 1.34651 1.9211 0
M  V30 4862 C 460.137 0.246824 1.7224 0
M  V30 4863 O 461.313 0.48134 1.95563 0
M  V30 4864 C 458.378 1.14748 3.2716 0
M  V30 4865 C 457.439 2.34308 3.5972 0
M  V30 4866 C 456.672 2.15345 4.88326 0
M  V30 4867 O 456.895 1.13507 5.58992 0
M  V30 4868 O 455.829 3.03414 5.1983 0
M  V30 4869 H 459.655 2.31013 1.97146 0
M  V30 4870 H 457.24 1.17799 0.918901 0
M  V30 4871 H 459.122 1.05616 4.0795 0
M  V30 4872 H 457.797 0.214562 3.22988 0
M  V30 4873 H 456.704 2.49011 2.79185 0
M  V30 4874 H 458.037 3.26149 3.68629 0
M  V30 4875 N 459.689 -1.00246 1.21608 0
M  V30 4876 C 460.917 -1.77631 1.06089 0
M  V30 4877 C 461.332 -1.84746 -0.38916 0
M  V30 4878 O 460.689 -1.31068 -1.26994 0
M  V30 4879 C 460.74 -3.21415 1.65453 0
M  V30 4880 O 460.461 -3.14703 3.04785 0
M  V30 4881 C 461.962 -4.15289 1.55079 0
M  V30 4882 H 459.182 -0.558162 0.37242 0
M  V30 4883 H 461.726 -1.26093 1.60999 0
M  V30 4884 H 459.881 -3.70053 1.14629 0
M  V30 4885 H 460.295 -4.05056 3.33212 0
M  V30 4886 H 461.769 -5.13965 2.01355 0
M  V30 4887 H 462.246 -4.36279 0.505665 0
M  V30 4888 H 462.852 -3.72543 2.05163 0
M  V30 4889 N 461.167 -1.02423 -1.1978 0
M  V30 4890 C 462.415 -0.716569 -1.8897 0
M  V30 4891 C 462.736 0.756769 -1.79716 0
M  V30 4892 O 462.006 1.5449 -1.20456 0
M  V30 4893 H 460.586 -0.262062 -0.699523 0
M  V30 4894 H 463.248 -1.29747 -1.45436 0
M  V30 4895 H 462.344 -1.00675 -2.95417 0
M  V30 4896 N 462.645 1.35699 -0.801477 0
M  V30 4897 C 463.592 2.29876 -0.206294 0
M  V30 4898 C 464.562 1.52565 0.656752 0
M  V30 4899 O 465.747 1.81024 0.602906 0
M  V30 4900 C 462.887 3.39052 0.643272 0
M  V30 4901 C 462 4.31335 -0.239644 0
M  V30 4902 C 461.135 5.27599 0.61744 0
M  V30 4903 C 460.174 6.11521 -0.26619 0
M  V30 4904 N 459.311 6.99938 0.550571 0
M  V30 4905 H 464.151 2.80187 -1.01484 0
M  V30 4906 H 461.688 1.37902 -0.511997 0
M  V30 4907 H 463.646 4.0101 1.15094 0
M  V30 4908 H 462.276 2.9003 1.41713 0
M  V30 4909 H 461.328 3.70426 -0.865381 0
M  V30 4910 H 462.64 4.90243 -0.919985 0
M  V30 4911 H 461.794 5.94906 1.19045 0
M  V30 4912 H 460.533 4.69176 1.33137 0
M  V30 4913 H 459.538 5.43166 -0.851507 0
M  V30 4914 H 460.763 6.72022 -0.9779 0
M  V30 4915 H 458.709 6.44008 1.24856 0
M  V30 4916 H 458.626 7.55966 -0.071832 0
M  V30 4917 H 459.894 7.71599 1.10702 0
M  V30 4918 N 464.123 0.554532 1.47522 0
M  V30 4919 C 465.369 0.0295227 2.02779 0
M  V30 4920 C 465.702 -1.31582 1.42828 0
M  V30 4921 O 464.977 -1.85561 0.582872 0
M  V30 4922 C 465.26 -0.0664057 3.60039 0
M  V30 4923 C 465.113 1.30585 4.30427 0
M  V30 4924 C 466.432 -0.781162 4.33112 0
M  V30 4925 H 463.551 0.0122027 0.736899 0
M  V30 4926 H 466.193 0.716305 1.7598 0
M  V30 4927 H 464.343 -0.651307 3.83002 0
M  V30 4928 H 466.015 1.93374 4.18813 0
M  V30 4929 H 464.258 1.88125 3.90886 0
M  V30 4930 H 464.929 1.19147 5.38988 0
M  V30 4931 H 467.405 -0.284565 4.15126 0
M  V30 4932 H 466.281 -0.817237 5.42782 0
M  V30 4933 H 466.542 -1.83672 4.0214 0
M  V30 4934 N 465.601 -1.54893 0.290851 0
M  V30 4935 C 466.551 -2.19838 -0.604599 0
M  V30 4936 C 467.535 -1.16805 -1.10659 0
M  V30 4937 O 468.727 -1.42562 -1.04905 0
M  V30 4938 C 465.856 -2.93497 -1.78086 0
M  V30 4939 C 464.942 -4.03835 -1.29531 0
M  V30 4940 N 465.333 -5.03047 -0.527024 0
M  V30 4941 C 463.631 -4.17192 -1.57693 0
M  V30 4942 C 464.332 -5.81074 -0.269728 0
M  V30 4943 N 463.308 -5.36966 -0.846651 0
M  V30 4944 H 467.11 -2.93898 -0.00995032 0
M  V30 4945 H 464.624 -1.62121 0.0951353 0
M  V30 4946 H 466.621 -3.38484 -2.43381 0
M  V30 4947 H 465.281 -2.2095 -2.37931 0
M  V30 4948 H 466.292 -5.17611 -0.172872 0
M  V30 4949 H 462.969 -3.55845 -2.18359 0
M  V30 4950 H 464.359 -6.71005 0.346643 0
M  V30 4951 N 467.08 -0.0183926 -1.57589 0
M  V30 4952 C 468.326 0.663543 -1.91638 0
M  V30 4953 C 468.659 1.72392 -0.894134 0
M  V30 4954 O 467.934 1.94316 0.0846449 0
M  V30 4955 C 468.217 1.28984 -3.36207 0
M  V30 4956 C 468.07 0.239761 -4.49161 0
M  V30 4957 C 469.389 2.2109 -3.80536 0
M  V30 4958 H 466.508 0.239746 -0.696915 0
M  V30 4959 H 469.15 -0.073456 -1.89858 0
M  V30 4960 H 467.3 1.91799 -3.37854 0
M  V30 4961 H 468.972 -0.390119 -4.59647 0
M  V30 4962 H 467.215 -0.435972 -4.31604 0
M  V30 4963 H 467.886 0.717383 -5.47319 0
M  V30 4964 H 470.362 1.68273 -3.80557 0
M  V30 4965 H 469.238 2.61869 -4.82406 0
M  V30 4966 H 469.499 3.09764 -3.15434 0
M  V30 4967 N 468.558 1.5553 0.254621 0
M  V30 4968 C 469.786 1.81046 1.00149 0
M  V30 4969 C 470.201 0.593047 1.79244 0
M  V30 4970 O 469.558 -0.438196 1.77161 0
M  V30 4971 C 469.609 3.04684 1.94551 0
M  V30 4972 O 469.33 4.21725 1.18658 0
M  V30 4973 C 470.831 3.42943 2.80901 0
M  V30 4974 H 468.051 0.602653 0.295044 0
M  V30 4975 H 470.595 2.02576 0.279842 0
M  V30 4976 H 468.75 2.85226 2.62154 0
M  V30 4977 H 469.164 4.91746 1.82445 0
M  V30 4978 H 470.638 4.32576 3.42902 0
M  V30 4979 H 471.115 2.63176 3.51617 0
M  V30 4980 H 471.721 3.64724 2.18762 0
M  V30 4981 N 470.036 -0.519951 1.48776 0
M  V30 4982 C 471.282 -1.27711 1.57536 0
M  V30 4983 C 471.615 -1.92547 0.252866 0
M  V30 4984 O 470.89 -1.7979 -0.742021 0
M  V30 4985 C 471.173 -2.35875 2.72094 0
M  V30 4986 C 471.026 -1.75664 4.1408 0
M  V30 4987 C 472.345 -3.37575 2.82367 0
M  V30 4988 H 469.464 -0.462971 0.573434 0
M  V30 4989 H 472.106 -0.578194 1.80989 0
M  V30 4990 H 470.256 -2.95488 2.52228 0
M  V30 4991 H 471.928 -1.20025 4.45412 0
M  V30 4992 H 470.171 -1.06154 4.20611 0
M  V30 4993 H 470.842 -2.54029 4.90075 0
M  V30 4994 H 473.318 -2.87929 3.00393 0
M  V30 4995 H 472.194 -4.1064 3.64233 0
M  V30 4996 H 472.455 -3.98743 1.90936 0
M  V30 4997 N 471.514 -1.37532 -0.769588 0
M  V30 4998 C 472.791 -1.23392 -1.51768 0
M  V30 4999 C 473.171 0.17157 -2.10402 0
M  V30 5000 O 472.519 1.17943 -1.95708 0
M  V30 5001 C 472.729 -2.33163 -2.59685 0
M  V30 5002 C 474.077 -2.70809 -3.27028 0
M  V30 5003 O 475.101 -2.32355 -2.69981 0
M  V30 5004 O 473.96 -3.37066 -4.30173 0
M  V30 5005 H 471.054 -0.481617 -0.67229 0
M  V30 5006 H 473.6 -1.49318 -0.806368 0
M  V30 5007 H 472.372 -3.27273 -2.14494 0
M  V30 5008 H 471.995 -2.08713 -3.38415 0
M  V30 5009 N 472.992 0.995999 -1.22138 0
M  V30 5010 C 473.922 2.10387 -1.01289 0
M  V30 5011 C 474.903 1.69975 0.0651454 0
M  V30 5012 O 476.088 1.9396 -0.0964628 0
M  V30 5013 C 473.218 3.42312 -0.586517 0
M  V30 5014 C 472.172 3.96558 -1.61014 0
M  V30 5015 C 471.498 5.24494 -1.0397 0
M  V30 5016 C 472.798 4.27595 -2.99933 0
M  V30 5017 H 474.492 2.28086 -1.93951 0
M  V30 5018 H 472.038 1.09607 -0.933928 0
M  V30 5019 H 473.991 4.19223 -0.427793 0
M  V30 5020 H 472.715 3.24431 0.375761 0
M  V30 5021 H 471.374 3.21776 -1.75658 0
M  V30 5022 H 471.022 5.02953 -0.0688703 0
M  V30 5023 H 470.722 5.61755 -1.72352 0
M  V30 5024 H 472.246 6.04042 -0.892494 0
M  V30 5025 H 473.66 4.95315 -2.8868 0
M  V30 5026 H 472.057 4.76021 -3.6541 0
M  V30 5027 H 473.127 3.35498 -3.50099 0
M  V30 5028 N 474.47 1.03057 1.19235 0
M  V30 5029 C 475.417 0.612832 2.22515 0
M  V30 5030 C 476.387 -0.374224 1.61829 0
M  V30 5031 O 477.572 -0.270501 1.88873 0
M  V30 5032 C 474.712 -0.028475 3.45088 0
M  V30 5033 C 473.825 1.00483 4.20151 0
M  V30 5034 C 472.96 0.333102 5.30155 0
M  V30 5035 C 471.999 1.3522 5.96977 0
M  V30 5036 N 471.136 0.70616 6.9854 0
M  V30 5037 H 475.976 1.49812 2.57605 0
M  V30 5038 H 473.513 0.749658 1.26564 0
M  V30 5039 H 475.471 -0.417548 4.15105 0
M  V30 5040 H 474.101 -0.877334 3.10649 0
M  V30 5041 H 473.153 1.51194 3.49062 0
M  V30 5042 H 474.465 1.77929 4.65986 0
M  V30 5043 H 473.619 -0.110725 6.06599 0
M  V30 5044 H 472.358 -0.473547 4.85396 0
M  V30 5045 H 471.363 1.80627 5.19282 0
M  V30 5046 H 472.588 2.16037 6.4382 0
M  V30 5047 H 470.534 -0.0803667 6.55951 0
M  V30 5048 H 470.451 1.41848 7.42573 0
M  V30 5049 H 471.719 0.286391 7.78974 0
M  V30 5050 N 475.948 -1.35272 0.808662 0
M  V30 5051 C 477.178 -2.02652 0.401953 0
M  V30 5052 C 477.586 -1.6108 -0.992462 0
M  V30 5053 O 476.929 -0.804984 -1.65123 0
M  V30 5054 C 476.991 -3.57174 0.408246 0
M  V30 5055 C 476.655 -4.22019 1.75353 0
M  V30 5056 C 477.652 -4.43552 2.71215 0
M  V30 5057 C 475.337 -4.59093 2.03811 0
M  V30 5058 C 477.331 -5.01264 3.93717 0
M  V30 5059 C 475.018 -5.16519 3.26576 0
M  V30 5060 C 476.016 -5.37546 4.21347 0
M  V30 5061 O 475.704 -5.93761 5.41944 0
M  V30 5062 H 475.436 -0.656495 0.161216 0
M  V30 5063 H 477.99 -1.73829 1.0942 0
M  V30 5064 H 476.22 -3.85197 -0.340608 0
M  V30 5065 H 477.909 -4.05893 0.0235623 0
M  V30 5066 H 478.675 -4.15288 2.50522 0
M  V30 5067 H 474.554 -4.42039 1.30854 0
M  V30 5068 H 478.098 -5.17592 4.67701 0
M  V30 5069 H 473.995 -5.4421 3.47139 0
M  V30 5070 H 474.763 -6.1221 5.43269 0
M  V30 5071 N 477.426 -0.562348 -1.47226 0
M  V30 5072 C 478.656 -0.0451619 -2.06551 0
M  V30 5073 C 479.064 1.25626 -1.41473 0
M  V30 5074 O 478.407 1.76563 -0.507061 0
M  V30 5075 C 478.469 0.216068 -3.5885 0
M  V30 5076 C 478.133 -0.996691 -4.45999 0
M  V30 5077 C 479.13 -1.90358 -4.83797 0
M  V30 5078 C 476.815 -1.21281 -4.87438 0
M  V30 5079 C 478.809 -3.01023 -5.6184 0
M  V30 5080 C 476.496 -2.32255 -5.65244 0
M  V30 5081 C 477.494 -3.21956 -6.02356 0
M  V30 5082 O 477.182 -4.31005 -6.78594 0
M  V30 5083 H 476.914 -0.0451646 -0.67449 0
M  V30 5084 H 479.468 -0.776842 -1.90143 0
M  V30 5085 H 477.698 1.00212 -3.7349 0
M  V30 5086 H 479.387 0.679264 -4.00176 0
M  V30 5087 H 480.153 -1.74868 -4.52378 0
M  V30 5088 H 476.032 -0.523767 -4.58015 0
M  V30 5089 H 479.576 -3.71064 -5.90726 0
M  V30 5090 H 475.473 -2.47715 -5.96077 0
M  V30 5091 H 476.241 -4.29118 -6.96994 0
M  V30 5092 N 478.904 1.54736 -0.299062 0
M  V30 5093 C 480.32 1.59507 0.0543849 0
M  V30 5094 C 480.52 1.31606 1.52585 0
M  V30 5095 O 479.576 1.08853 2.27832 0
M  V30 5096 C 480.889 2.98751 -0.34181 0
M  V30 5097 C 482.437 3.1165 -0.290414 0
M  V30 5098 C 482.912 4.53199 -0.661402 0
M  V30 5099 N 484.403 4.59114 -0.613863 0
M  V30 5100 C 485.138 5.66709 -0.873417 0
M  V30 5101 N 484.634 6.82349 -1.19884 0
M  V30 5102 N 486.427 5.56369 -0.800608 0
M  V30 5103 H 478.578 1.71133 -1.25806 0
M  V30 5104 H 480.841 0.799186 -0.509908 0
M  V30 5105 H 480.547 3.24085 -1.36608 0
M  V30 5106 H 480.421 3.75961 0.305508 0
M  V30 5107 H 482.808 2.86066 0.724605 0
M  V30 5108 H 482.889 2.366 -0.972327 0
M  V30 5109 H 482.533 4.79513 -1.67422 0
M  V30 5110 H 482.463 5.26583 0.0425612 0
M  V30 5111 H 484.954 3.76053 -0.3732 0
M  V30 5112 H 485.267 7.60326 -1.38291 0
M  V30 5113 H 483.612 6.83906 -1.23685 0
M  V30 5114 H 486.803 4.64904 -0.546045 0
M  V30 5115 H 486.976 6.40139 -1.00626 0
M  V30 5116 N 480.382 0.0267497 1.57577 0
M  V30 5117 C 481.793 -0.512413 1.79531 0
M  V30 5118 C 482.144 -1.72391 0.936791 0
M  V30 5119 O 481.269 -2.15903 0.146543 0
M  V30 5120 C 481.864 -0.936378 3.25603 0
M  V30 5121 C 480.423 -1.42067 3.4856 0
M  V30 5122 C 479.57 -0.384278 2.74624 0
M  V30 5123 H 482.521 0.252797 1.56674 0
M  V30 5124 H 482.542 -1.80088 3.35184 0
M  V30 5125 H 482.054 -0.0544332 3.88062 0
M  V30 5126 H 480.155 -2.32262 2.9135 0
M  V30 5127 H 480.268 -1.42968 4.57271 0
M  V30 5128 H 478.632 -0.851855 2.40032 0
M  V30 5129 H 479.415 0.489159 3.39797 0
M  V30 5130 N 481.861 -1.55662 -0.24637 0
M  V30 5131 C 483.089 -1.81575 -0.991876 0
M  V30 5132 C 483.504 -0.602545 -1.78927 0
M  V30 5133 O 482.861 0.428795 -1.77391 0
M  V30 5134 C 482.912 -3.05711 -1.92933 0
M  V30 5135 O 482.633 -4.22348 -1.1642 0
M  V30 5136 C 484.134 -3.44428 -2.79078 0
M  V30 5137 H 481.354 -0.604209 -0.291844 0
M  V30 5138 H 483.898 -2.02722 -0.269095 0
M  V30 5139 H 482.053 -2.86612 -2.60638 0
M  V30 5140 H 482.467 -4.92706 -1.79835 0
M  V30 5141 H 483.941 -4.34388 -3.40603 0
M  V30 5142 H 484.418 -2.65037 -3.50217 0
M  V30 5143 H 485.024 -3.65879 -2.16824 0
M  V30 5144 N 483.339 0.512053 -1.4905 0
M  V30 5145 C 484.249 1.64139 -1.67617 0
M  V30 5146 C 485.265 1.64786 -0.558701 0
M  V30 5147 O 486.441 1.8341 -0.832034 0
M  V30 5148 C 483.506 3.00548 -1.72835 0
M  V30 5149 C 482.567 3.10615 -2.96339 0
M  V30 5150 C 481.8 4.40517 -3.01298 0
M  V30 5151 O 482.023 5.28671 -2.14157 0
M  V30 5152 O 480.957 4.55325 -3.93653 0
M  V30 5153 H 484.783 1.51407 -2.63267 0
M  V30 5154 H 482.368 0.687131 -1.32661 0
M  V30 5155 H 484.25 3.81641 -1.78683 0
M  V30 5156 H 482.925 3.13566 -0.803616 0
M  V30 5157 H 481.832 2.2875 -2.96014 0
M  V30 5158 H 483.165 3.0252 -3.88256 0
M  V30 5159 N 484.817 1.37938 0.762283 0
M  V30 5160 C 486.063 1.33866 1.52341 0
M  V30 5161 C 486.396 -0.0738961 1.94059 0
M  V30 5162 O 485.671 -1.03326 1.64785 0
M  V30 5163 C 485.954 2.28644 2.78197 0
M  V30 5164 C 485.807 3.78722 2.42672 0
M  V30 5165 C 487.126 2.21702 3.80179 0
M  V30 5166 H 484.245 0.487593 0.55265 0
M  V30 5167 H 486.887 1.68717 0.873767 0
M  V30 5168 H 485.037 1.99055 3.33631 0
M  V30 5169 H 486.709 4.18948 1.93081 0
M  V30 5170 H 484.952 3.96827 1.75244 0
M  V30 5171 H 485.623 4.40486 3.3268 0
M  V30 5172 H 488.099 2.47805 3.34263 0
M  V30 5173 H 486.975 2.90143 4.65949 0
M  V30 5174 H 487.236 1.21301 4.25133 0
M  V30 5175 N 486.295 -0.989507 1.22664 0
M  V30 5176 C 487.572 -1.70326 0.961688 0
M  V30 5177 C 487.952 -2.04537 -0.522279 0
M  V30 5178 O 487.3 -1.73136 -1.49118 0
M  V30 5179 C 487.51 -2.95135 1.86269 0
M  V30 5180 C 488.858 -3.67842 2.12078 0
M  V30 5181 O 489.882 -3.0515 1.83745 0
M  V30 5182 O 488.741 -4.80644 2.60083 0
M  V30 5183 H 485.835 -0.743589 0.361946 0
M  V30 5184 H 488.381 -1.04555 1.33665 0
M  V30 5185 H 487.153 -2.66382 2.8663 0
M  V30 5186 H 486.776 -3.68645 1.48952 0
M  V30 5187 N 487.773 -1.03688 -1.18687 0
M  V30 5188 C 489.02 -0.73803 -1.88572 0
M  V30 5189 C 489.348 0.733973 -1.8012 0
M  V30 5190 O 488.603 1.55098 -1.19344 0
M  V30 5191 C 488.902 -1.14477 -3.3857 0
M  V30 5192 C 488.568 -2.61641 -3.67226 0
M  V30 5193 C 487.23 -3.01846 -3.74757 0
M  V30 5194 C 489.582 -3.56812 -3.79914 0
M  V30 5195 C 486.91 -4.36118 -3.92451 0
M  V30 5196 C 489.262 -4.90799 -3.99123 0
M  V30 5197 C 487.926 -5.3068 -4.04888 0
M  V30 5198 H 487.196 -0.270064 -0.690034 0
M  V30 5199 H 489.843 -1.3012 -1.40503 0
M  V30 5200 H 488.148 -0.500337 -3.88592 0
M  V30 5201 H 489.845 -0.89095 -3.90977 0
M  V30 5202 H 486.435 -2.29498 -3.61979 0
M  V30 5203 H 490.619 -3.26899 -3.73431 0
M  V30 5204 H 485.875 -4.66542 -3.95157 0
M  V30 5205 H 490.049 -5.64451 -4.07882 0
M  V30 5206 H 487.676 -6.34733 -4.18351 0
M  V30 5207 N 489.251 1.34841 -0.815825 0
M  V30 5208 C 490.181 2.32187 -0.247298 0
M  V30 5209 C 491.162 1.5791 0.632344 0
M  V30 5210 O 492.347 1.8593 0.560698 0
M  V30 5211 C 489.477 3.42122 0.597466 0
M  V30 5212 C 488.431 4.27602 -0.184446 0
M  V30 5213 C 487.757 5.28942 0.782609 0
M  V30 5214 C 489.057 5.03502 -1.38865 0
M  V30 5215 H 490.751 2.79985 -1.06061 0
M  V30 5216 H 488.297 1.34611 -0.511461 0
M  V30 5217 H 490.25 4.09232 1.00533 0
M  V30 5218 H 488.974 2.92956 1.44376 0
M  V30 5219 H 487.633 3.62085 -0.573592 0
M  V30 5220 H 487.281 4.7604 1.62466 0
M  V30 5221 H 486.981 5.87008 0.263695 0
M  V30 5222 H 488.505 5.98922 1.18848 0
M  V30 5223 H 489.919 5.63506 -1.05518 0
M  V30 5224 H 488.316 5.71108 -1.8427 0
M  V30 5225 H 489.386 4.33608 -2.17054 0
M  V30 5226 N 490.729 0.570148 1.46925 0
M  V30 5227 C 491.661 -0.207909 2.28255 0
M  V30 5228 C 492.674 -0.867301 1.37774 0
M  V30 5229 O 493.863 -0.738976 1.62485 0
M  V30 5230 C 490.963 -1.31298 3.12433 0
M  V30 5231 C 490.136 -0.747915 4.30958 0
M  V30 5232 C 489.195 -1.7391 4.9663 0
M  V30 5233 O 488.221 -1.2801 5.54619 0
M  V30 5234 N 489.423 -3.07288 4.92498 0
M  V30 5235 H 492.188 0.489794 2.95671 0
M  V30 5236 H 489.749 0.407076 1.56699 0
M  V30 5237 H 491.741 -1.97507 3.53232 0
M  V30 5238 H 490.311 -1.91373 2.47175 0
M  V30 5239 H 489.531 0.0913066 3.94094 0
M  V30 5240 H 490.819 -0.349958 5.07595 0
M  V30 5241 H 490.217 -3.47213 4.46609 0
M  V30 5242 H 488.774 -3.69021 5.37277 0
M  V30 5243 N 492.207 -1.54576 0.307264 0
M  V30 5244 C 493.455 -1.99867 -0.299574 0
M  V30 5245 C 493.776 -1.19714 -1.53927 0
M  V30 5246 O 493.046 -0.29472 -1.9367 0
M  V30 5247 H 491.626 -0.738299 -0.113683 0
M  V30 5248 H 494.288 -1.9032 0.420042 0
M  V30 5249 H 493.384 -3.06901 -0.567283 0
M  V30 5250 N 493.685 -0.035106 -1.57561 0
M  V30 5251 C 494.962 0.681212 -1.83354 0
M  V30 5252 C 495.342 1.89986 -0.920252 0
M  V30 5253 O 494.69 2.28489 0.0226815 0
M  V30 5254 C 494.9 1.05376 -3.32712 0
M  V30 5255 C 496.248 1.44286 -3.99333 0
M  V30 5256 O 497.272 1.14656 -3.37242 0
M  V30 5257 O 496.131 1.99518 -5.08778 0
M  V30 5258 H 493.225 0.334741 -0.756226 0
M  V30 5259 H 495.771 -0.0632448 -1.69582 0
M  V30 5260 H 494.543 0.186668 -3.90854 0
M  V30 5261 H 494.166 1.85619 -3.51613 0
M  V30 5262 N 495.163 1.55791 0.238111 0
M  V30 5263 C 496.403 1.79801 0.972163 0
M  V30 5264 C 496.767 0.606027 1.82185 0
M  V30 5265 O 497.968 0.725079 2.58836 0
M  V30 5266 C 496.239 3.08608 1.80266 0
M  V30 5267 S 497.798 3.53872 2.59461 0
M  V30 5268 H 494.616 0.631418 0.326852 0
M  V30 5269 H 497.218 1.94031 0.239212 0
M  V30 5270 H 495.922 3.93419 1.1683 0
M  V30 5271 H 495.453 2.9714 2.57821 0
M  V30 5272 H 497.468 3.15899 3.82651 0
M  V30 5273 N 496.642 -0.504142 1.49319 0
M  V30 5274 C 497.87 -1.28256 1.62351 0
M  V30 5275 C 498.285 -1.86502 0.293682 0
M  V30 5276 O 497.642 -1.67678 -0.720449 0
M  V30 5277 C 497.693 -2.41507 2.68992 0
M  V30 5278 O 497.414 -1.85656 3.96817 0
M  V30 5279 C 498.915 -3.32929 2.927 0
M  V30 5280 H 496.135 -0.389115 0.546654 0
M  V30 5281 H 498.679 -0.605531 1.95329 0
M  V30 5282 H 496.834 -3.05046 2.38801 0
M  V30 5283 H 497.248 -2.59981 4.55533 0
M  V30 5284 H 498.722 -4.0868 3.71058 0
M  V30 5285 H 499.199 -3.89733 2.02496 0
M  V30 5286 H 499.805 -2.75158 3.24296 0
M  V30 5287 N 498.12 -1.38341 -0.754957 0
M  V30 5288 C 499.067 -1.3546 -1.86867 0
M  V30 5289 C 500.037 -0.217369 -1.64672 0
M  V30 5290 O 501.222 -0.409383 -1.86356 0
M  V30 5291 C 498.362 -1.18413 -3.24149 0
M  V30 5292 C 497.475 -2.41511 -3.58185 0
M  V30 5293 C 496.61 -2.17205 -4.84763 0
M  V30 5294 C 495.649 -3.36081 -5.11582 0
M  V30 5295 N 494.786 -3.11219 -6.29354 0
M  V30 5296 H 499.626 -2.30672 -1.88664 0
M  V30 5297 H 497.163 -1.14607 -0.922154 0
M  V30 5298 H 499.121 -1.06545 -4.03366 0
M  V30 5299 H 497.751 -0.268397 -3.21682 0
M  V30 5300 H 496.803 -2.64056 -2.73822 0
M  V30 5301 H 498.115 -3.30115 -3.73932 0
M  V30 5302 H 497.269 -2.02465 -5.7192 0
M  V30 5303 H 496.008 -1.25964 -4.71152 0
M  V30 5304 H 495.013 -3.51341 -4.22894 0
M  V30 5305 H 496.238 -4.28196 -5.27091 0
M  V30 5306 H 494.184 -2.22624 -6.17069 0
M  V30 5307 H 494.101 -3.93373 -6.45596 0
M  V30 5308 H 495.369 -3.00132 -7.19403 0
M  V30 5309 N 499.598 0.982988 -1.23187 0
M  V30 5310 C 500.561 2.05649 -1.01198 0
M  V30 5311 C 501.561 1.6078 0.0252464 0
M  V30 5312 O 502.751 1.72878 -0.214243 0
M  V30 5313 C 499.883 3.36744 -0.530656 0
M  V30 5314 H 501.076 2.2659 -1.96461 0
M  V30 5315 H 498.629 1.15602 -1.05195 0
M  V30 5316 H 499.364 3.21492 0.425873 0
M  V30 5317 H 499.149 3.7065 -1.2791 0
M  V30 5318 H 500.639 4.15705 -0.397366 0
M  V30 5319 N 501.076 1.04316 1.18135 0
M  V30 5320 C 502.023 0.636398 2.21853 0
M  V30 5321 C 502.993 -0.357039 1.62217 0
M  V30 5322 O 504.178 -0.250453 1.89149 0
M  V30 5323 C 501.318 0.00812779 3.45099 0
M  V30 5324 C 500.431 1.04933 4.19062 0
M  V30 5325 C 499.566 0.389313 5.29771 0
M  V30 5326 C 498.605 1.41544 5.9551 0
M  V30 5327 N 497.742 0.78021 6.97751 0
M  V30 5328 H 502.582 1.52536 2.56002 0
M  V30 5329 H 500.119 0.76304 1.25762 0
M  V30 5330 H 502.077 -0.373497 4.15525 0
M  V30 5331 H 500.707 -0.844336 3.11562 0
M  V30 5332 H 499.759 1.54888 3.47439 0
M  V30 5333 H 501.071 1.82862 4.64072 0
M  V30 5334 H 500.225 -0.0463805 6.06682 0
M  V30 5335 H 498.964 -0.422038 4.8587 0
M  V30 5336 H 497.969 1.86124 5.17337 0
M  V30 5337 H 499.194 2.22854 6.41493 0
M  V30 5338 H 497.14 -0.0107899 6.55999 0
M  V30 5339 H 497.057 1.49716 7.41027 0
M  V30 5340 H 498.325 0.368996 7.78626 0
M  V30 5341 N 502.554 -1.34406 0.822964 0
M  V30 5342 C 503.486 -2.28305 0.202375 0
M  V30 5343 C 504.499 -1.5103 -0.60777 0
M  V30 5344 O 505.688 -1.73057 -0.437444 0
M  V30 5345 C 502.788 -3.30836 -0.734911 0
M  V30 5346 C 501.961 -4.37388 0.0324177 0
M  V30 5347 C 501.02 -5.1968 -0.825803 0
M  V30 5348 O 500.046 -5.68556 -0.270771 0
M  V30 5349 N 501.248 -5.39393 -2.14558 0
M  V30 5350 H 504.013 -2.82201 1.00909 0
M  V30 5351 H 501.574 -1.4693 0.67993 0
M  V30 5352 H 503.566 -3.82786 -1.31365 0
M  V30 5353 H 502.136 -2.77334 -1.44238 0
M  V30 5354 H 501.356 -3.86152 0.792469 0
M  V30 5355 H 502.644 -5.05702 0.560633 0
M  V30 5356 H 502.042 -5.01357 -2.62025 0
M  V30 5357 H 500.599 -5.94461 -2.67318 0
M  V30 5358 N 504.032 -0.577932 -1.46621 0
M  V30 5359 C 504.979 0.158048 -2.30258 0
M  V30 5360 C 505.949 0.888669 -1.40328 0
M  V30 5361 O 507.134 0.880283 -1.6928 0
M  V30 5362 C 504.274 1.16884 -3.24703 0
M  V30 5363 C 503.387 0.442163 -4.29731 0
M  V30 5364 C 502.522 1.44007 -5.11308 0
M  V30 5365 C 501.561 0.69952 -6.0809 0
M  V30 5366 N 500.698 1.64525 -6.82551 0
M  V30 5367 H 505.538 -0.561242 -2.92667 0
M  V30 5368 H 503.075 -0.288591 -1.44241 0
M  V30 5369 H 505.033 1.7677 -3.779 0
M  V30 5370 H 503.663 1.85591 -2.64113 0
M  V30 5371 H 502.715 -0.271632 -3.79429 0
M  V30 5372 H 504.027 -0.136992 -4.98612 0
M  V30 5373 H 503.181 2.11186 -5.68758 0
M  V30 5374 H 501.92 2.05315 -4.42377 0
M  V30 5375 H 500.925 0.0139217 -5.49798 0
M  V30 5376 H 502.15 0.091894 -6.79038 0
M  V30 5377 H 500.096 2.24653 -6.16334 0
M  V30 5378 H 500.013 1.11878 -7.47676 0
M  V30 5379 H 501.281 2.30754 -7.44562 0
M  V30 5380 N 505.51 1.54411 -0.315457 0
M  V30 5381 C 506.44 2.27002 0.547039 0
M  V30 5382 C 507.421 1.27492 1.12605 0
M  V30 5383 O 508.606 1.5629 1.15269 0
M  V30 5384 C 505.736 3.02171 1.71201 0
M  V30 5385 C 504.69 4.0895 1.26268 0
M  V30 5386 C 504.016 4.71915 2.51396 0
M  V30 5387 C 505.316 5.20891 0.383419 0
M  V30 5388 H 507.01 2.99343 -0.0584517 0
M  V30 5389 H 504.556 1.4397 -0.0295527 0
M  V30 5390 H 506.509 3.51681 2.32161 0
M  V30 5391 H 505.233 2.27433 2.34397 0
M  V30 5392 H 503.892 3.60312 0.676062 0
M  V30 5393 H 503.54 3.93801 3.12937 0
M  V30 5394 H 503.24 5.44039 2.22026 0
M  V30 5395 H 504.764 5.24195 3.13133 0
M  V30 5396 H 506.178 5.66206 0.899082 0
M  V30 5397 H 504.575 5.99821 0.182857 0
M  V30 5398 H 505.645 4.81324 -0.587821 0
M  V30 5399 N 506.988 0.0434614 1.5754 0
M  V30 5400 C 507.936 -0.951465 2.1225 0
M  V30 5401 C 508.93 -1.3274 1.05245 0
M  V30 5402 O 510.136 -1.30795 1.23663 0
M  V30 5403 H 506.511 -0.324667 0.678303 0
M  V30 5404 H 508.482 -0.464855 2.94757 0
M  V30 5405 C 507.231 -2.21972 2.67626 0
M  V30 5406 H 506.554 -1.93923 3.4962 0
M  V30 5407 H 507.994 -2.89765 3.09536 0
M  V30 5408 C 506.453 -2.95919 1.61038 0
M  V30 5409 O 506.983 -3.8857 1.01862 0
M  V30 5410 N 505.189 -2.58511 1.32741 0
M  V30 5411 H 504.736 -1.83244 1.81051 0
M  V30 5412 H 504.694 -3.08296 0.616531 0
M  V30 5413 N 508.466 -1.55915 -0.229846 0
M  V30 5414 C 509.712 -1.79718 -0.952517 0
M  V30 5415 C 510.067 -0.61514 -1.82301 0
M  V30 5416 O 509.36 0.391098 -1.87566 0
M  V30 5417 C 509.554 -3.06845 -1.8325 0
M  V30 5418 C 509.383 -4.37302 -1.04868 0
M  V30 5419 C 508.153 -4.99749 -0.746932 0
M  V30 5420 C 510.351 -5.12599 -0.417989 0
M  V30 5421 N 508.333 -6.13871 0.0591596 0
M  V30 5422 C 509.704 -6.19488 0.251879 0
M  V30 5423 C 511.759 -4.96804 -0.33018 0
M  V30 5424 C 510.462 -7.12299 1.00115 0
M  V30 5425 C 512.488 -5.90007 0.4056 0
M  V30 5426 C 511.85 -6.96317 1.06404 0
M  V30 5427 H 507.949 -0.709382 -0.329091 0
M  V30 5428 H 510.533 -1.93406 -0.224114 0
M  V30 5429 H 508.704 -2.94456 -2.53279 0
M  V30 5430 H 510.436 -3.18874 -2.49202 0
M  V30 5431 H 507.191 -4.61518 -1.06292 0
M  V30 5432 H 507.615 -6.75497 0.450798 0
M  V30 5433 H 512.257 -4.14675 -0.824898 0
M  V30 5434 H 509.975 -7.93916 1.50741 0
M  V30 5435 H 513.561 -5.79862 0.474436 0
M  V30 5436 H 512.441 -7.67194 1.62429 0
M  V30 5437 N 509.944 0.496216 -1.49584 0
M  V30 5438 C 510.891 1.59722 -1.66606 0
M  V30 5439 C 511.861 1.58158 -0.507477 0
M  V30 5440 O 513.046 1.76072 -0.735076 0
M  V30 5441 C 510.186 2.97844 -1.74308 0
M  V30 5442 C 509.299 3.09388 -3.01502 0
M  V30 5443 C 508.434 4.38271 -3.00153 0
M  V30 5444 C 507.473 4.43466 -4.21906 0
M  V30 5445 N 506.61 5.63784 -4.1844 0
M  V30 5446 H 511.45 1.44515 -2.60613 0
M  V30 5447 H 508.987 0.703048 -1.29212 0
M  V30 5448 H 510.945 3.77907 -1.76754 0
M  V30 5449 H 509.575 3.11743 -0.837619 0
M  V30 5450 H 508.627 2.22357 -3.08645 0
M  V30 5451 H 509.939 3.09085 -3.91494 0
M  V30 5452 H 509.093 5.2666 -3.01188 0
M  V30 5453 H 507.832 4.41146 -2.07947 0
M  V30 5454 H 506.837 3.53478 -4.21109 0
M  V30 5455 H 508.062 4.42303 -5.1531 0
M  V30 5456 H 506.008 5.67491 -3.29074 0
M  V30 5457 H 505.925 5.65118 -5.02173 0
M  V30 5458 H 507.193 6.54367 -4.23585 0
M  V30 5459 N 511.423 1.38739 0.74761 0
M  V30 5460 C 512.834 1.31507 1.32524 0
M  V30 5461 C 513.185 -0.0263963 1.96182 0
M  V30 5462 O 512.31 -0.92849 1.95469 0
M  V30 5463 C 512.905 2.38162 2.40966 0
M  V30 5464 C 511.464 2.34489 2.94434 0
M  V30 5465 C 510.611 2.20712 1.67873 0
M  V30 5466 H 513.562 1.4901 0.546043 0
M  V30 5467 H 513.583 2.04222 3.21051 0
M  V30 5468 H 513.095 3.35783 1.94605 0
M  V30 5469 H 511.196 1.40467 3.45108 0
M  V30 5470 H 511.309 3.28861 3.48407 0
M  V30 5471 H 509.673 1.67667 1.91729 0
M  V30 5472 H 510.456 3.20285 1.23582 0
M  V30 5473 N 512.901 -0.976442 1.23707 0
M  V30 5474 C 514.317 -1.24341 1.00058 0
M  V30 5475 C 514.517 -1.99315 -0.295932 0
M  V30 5476 O 513.573 -2.3123 -1.01435 0
M  V30 5477 C 514.886 -2.03909 2.21001 0
M  V30 5478 C 516.434 -2.17034 2.25534 0
M  V30 5479 C 516.909 -2.99994 3.46075 0
M  V30 5480 N 518.4 -3.07578 3.46338 0
M  V30 5481 C 519.135 -3.72104 4.36264 0
M  V30 5482 N 518.631 -4.3842 5.36432 0
M  V30 5483 N 520.424 -3.69029 4.23998 0
M  V30 5484 H 512.575 -0.47428 2.07037 0
M  V30 5485 H 514.838 -0.272167 0.908091 0
M  V30 5486 H 514.544 -1.56198 3.15111 0
M  V30 5487 H 514.418 -3.04654 2.22409 0
M  V30 5488 H 516.805 -2.63951 1.31961 0
M  V30 5489 H 516.886 -1.15664 2.28156 0
M  V30 5490 H 516.53 -2.53772 4.39957 0
M  V30 5491 H 516.46 -4.01541 3.40694 0
M  V30 5492 H 518.951 -2.60397 2.73865 0
M  V30 5493 H 519.264 -4.85447 6.013 0
M  V30 5494 H 517.609 -4.37116 5.40328 0
M  V30 5495 H 520.8 -3.16392 3.44984 0
M  V30 5496 H 520.973 -4.19034 4.94282 0
M  V30 5497 N 514.379 -1.04941 -1.1758 0
M  V30 5498 C 515.625 -0.759112 -1.88057 0
M  V30 5499 C 515.958 0.711918 -1.8068 0
M  V30 5500 O 515.233 1.52035 -1.21308 0
M  V30 5501 C 515.516 -1.237 -3.38187 0
M  V30 5502 C 515.369 -2.77078 -3.54327 0
M  V30 5503 C 516.688 -0.834014 -4.32125 0
M  V30 5504 H 513.807 -0.277237 -0.682868 0
M  V30 5505 H 516.449 -1.30296 -1.38286 0
M  V30 5506 H 514.599 -0.774337 -3.80705 0
M  V30 5507 H 516.271 -3.31449 -3.20842 0
M  V30 5508 H 514.514 -3.16477 -2.96689 0
M  V30 5509 H 515.185 -3.05577 -4.59703 0
M  V30 5510 H 517.661 -1.23228 -3.97434 0
M  V30 5511 H 516.537 -1.19603 -5.35711 0
M  V30 5512 H 516.798 0.262195 -4.41322 0
M  V30 5513 N 515.857 1.33968 -0.830081 0
M  V30 5514 C 516.82 2.27694 -0.26235 0
M  V30 5515 C 517.82 1.50589 0.563876 0
M  V30 5516 O 519.01 1.70028 0.378941 0
M  V30 5517 C 516.142 3.35002 0.63138 0
M  V30 5518 H 517.335 2.79419 -1.08928 0
M  V30 5519 H 514.888 1.44221 -0.602486 0
M  V30 5520 H 515.623 2.88504 1.48109 0
M  V30 5521 H 515.408 3.92079 0.0403276 0
M  V30 5522 H 516.898 4.04897 1.02217 0
M  V30 5523 N 517.335 0.585699 1.46312 0
M  V30 5524 C 518.582 0.0724211 2.0237 0
M  V30 5525 C 518.91 -1.28868 1.45683 0
M  V30 5526 O 518.165 -1.85853 0.612945 0
M  V30 5527 C 518.464 -0.0401312 3.57377 0
M  V30 5528 C 518.13 1.25376 4.33119 0
M  V30 5529 C 516.792 1.60824 4.5353 0
M  V30 5530 C 519.144 2.10987 4.76586 0
M  V30 5531 C 516.472 2.81676 5.14661 0
M  V30 5532 C 518.824 3.31068 5.39052 0
M  V30 5533 C 517.488 3.66794 5.5769 0
M  V30 5534 H 516.758 0.0265007 0.740526 0
M  V30 5535 H 519.405 0.762935 1.75646 0
M  V30 5536 H 517.71 -0.813791 3.83255 0
M  V30 5537 H 519.407 -0.453078 3.98432 0
M  V30 5538 H 515.997 0.967808 4.1753 0
M  V30 5539 H 520.181 1.84904 4.60569 0
M  V30 5540 H 515.437 3.0949 5.27282 0
M  V30 5541 H 519.611 3.97672 5.71691 0
M  V30 5542 H 517.238 4.60529 6.04828 0
M  V30 5543 N 518.813 -1.54241 0.323641 0
M  V30 5544 C 520.09 -1.92741 -0.333181 0
M  V30 5545 C 520.47 -1.25326 -1.69872 0
M  V30 5546 O 519.818 -0.396991 -2.25025 0
M  V30 5547 C 520.028 -3.46399 -0.425322 0
M  V30 5548 C 521.376 -4.19029 -0.68557 0
M  V30 5549 O 522.4 -3.52555 -0.50824 0
M  V30 5550 O 521.259 -5.36751 -1.02767 0
M  V30 5551 H 518.353 -0.804811 -0.190286 0
M  V30 5552 H 520.899 -1.65542 0.373361 0
M  V30 5553 H 519.671 -3.87643 0.533737 0
M  V30 5554 H 519.294 -3.79704 -1.17944 0
M  V30 5555 N 520.291 -0.0518155 -1.57515 0
M  V30 5556 C 521.201 0.937539 -2.15052 0
M  V30 5557 C 522.217 1.34121 -1.10849 0
M  V30 5558 O 523.393 1.418 -1.4302 0
M  V30 5559 C 520.458 2.19379 -2.68466 0
M  V30 5560 C 519.519 1.84841 -3.87469 0
M  V30 5561 C 518.752 3.04477 -4.38326 0
M  V30 5562 O 518.975 4.17868 -3.88256 0
M  V30 5563 O 517.909 2.85453 -5.29906 0
M  V30 5564 H 521.735 0.478201 -2.99912 0
M  V30 5565 H 519.32 0.17012 -1.48428 0
M  V30 5566 H 521.202 2.93084 -3.02787 0
M  V30 5567 H 519.877 2.64449 -1.86677 0
M  V30 5568 H 518.784 1.08449 -3.58036 0
M  V30 5569 H 520.117 1.44569 -4.7049 0
M  V30 5570 N 521.769 1.56035 0.221574 0
M  V30 5571 C 522.699 1.95434 1.2778 0
M  V30 5572 C 523.68 0.822564 1.48889 0
M  V30 5573 O 524.865 1.08486 1.61072 0
M  V30 5574 C 521.995 2.27102 2.62759 0
M  V30 5575 C 520.949 3.4277 2.56306 0
M  V30 5576 C 520.275 3.60043 3.95314 0
M  V30 5577 C 521.575 4.77742 2.11093 0
M  V30 5578 H 523.269 2.83912 0.950504 0
M  V30 5579 H 520.815 1.36596 0.455791 0
M  V30 5580 H 522.768 2.53256 3.36807 0
M  V30 5581 H 521.492 1.35478 2.97176 0
M  V30 5582 H 520.151 3.16664 1.84715 0
M  V30 5583 H 519.799 2.65794 4.27039 0
M  V30 5584 H 519.499 4.37841 3.91879 0
M  V30 5585 H 521.023 3.88545 4.71025 0
M  V30 5586 H 522.437 5.03102 2.74885 0
M  V30 5587 H 520.834 5.58823 2.18716 0
M  V30 5588 H 521.904 4.731 1.06321 0
M  V30 5589 N 523.247 -0.488276 1.49845 0
M  V30 5590 C 524.493 -1.24341 1.6021 0
M  V30 5591 C 524.826 -1.91967 0.293651 0
M  V30 5592 O 524.101 -1.81323 -0.703718 0
M  V30 5593 C 524.384 -2.3005 2.77036 0
M  V30 5594 C 524.237 -1.66842 4.17713 0
M  V30 5595 C 525.556 -3.31509 2.89464 0
M  V30 5596 H 522.675 -0.450704 0.583125 0
M  V30 5597 H 525.317 -0.539673 1.82174 0
M  V30 5598 H 523.467 -2.90071 2.58439 0
M  V30 5599 H 525.139 -1.1055 4.47858 0
M  V30 5600 H 523.382 -0.972079 4.22768 0
M  V30 5601 H 524.053 -2.43576 4.95353 0
M  V30 5602 H 526.529 -2.81493 3.06433 0
M  V30 5603 H 525.405 -4.02822 3.72861 0
M  V30 5604 H 525.666 -3.94603 1.99351 0
M  V30 5605 N 524.725 -1.39134 -0.740242 0
M  V30 5606 C 526.141 -1.20623 -1.0451 0
M  V30 5607 C 526.341 -0.0641651 -2.01398 0
M  V30 5608 O 525.397 0.585843 -2.4561 0
M  V30 5609 C 526.71 -2.53815 -1.6124 0
M  V30 5610 C 528.258 -2.60615 -1.73346 0
M  V30 5611 C 528.733 -3.94015 -2.33486 0
M  V30 5612 N 530.224 -3.95627 -2.40902 0
M  V30 5613 C 530.959 -4.95616 -2.88361 0
M  V30 5614 N 530.455 -6.06003 -3.35756 0
M  V30 5615 N 532.248 -4.82998 -2.87523 0
M  V30 5616 H 524.399 -2.12176 -0.0975576 0
M  V30 5617 H 526.662 -0.942066 -0.105904 0
M  V30 5618 H 526.368 -3.37911 -0.975144 0
M  V30 5619 H 526.242 -2.73162 -2.6012 0
M  V30 5620 H 528.629 -1.76906 -2.36195 0
M  V30 5621 H 528.71 -2.45123 -0.731336 0
M  V30 5622 H 528.354 -4.78153 -1.71267 0
M  V30 5623 H 528.284 -4.06825 -3.34366 0
M  V30 5624 H 530.775 -3.15903 -2.07398 0
M  V30 5625 H 531.088 -6.78215 -3.70464 0
M  V30 5626 H 529.433 -6.09604 -3.33778 0
M  V30 5627 H 532.624 -3.95866 -2.49816 0
M  V30 5628 H 532.797 -5.61072 -3.24196 0
M  V30 5629 N 526.204 0.969867 -1.24223 0
M  V30 5630 C 527.114 2.09806 -1.0497 0
M  V30 5631 C 528.13 1.73998 0.00886455 0
M  V30 5632 O 529.306 2.00513 -0.188848 0
M  V30 5633 C 526.371 3.40467 -0.654452 0
M  V30 5634 C 525.432 3.90236 -1.78926 0
M  V30 5635 C 524.665 5.14662 -1.41277 0
M  V30 5636 O 524.888 5.69602 -0.301632 0
M  V30 5637 O 523.822 5.58761 -2.23763 0
M  V30 5638 H 527.648 2.28942 -1.99548 0
M  V30 5639 H 525.233 1.08197 -1.03023 0
M  V30 5640 H 527.115 4.19039 -0.445452 0
M  V30 5641 H 525.79 3.22636 0.262216 0
M  V30 5642 H 524.697 3.12735 -2.05299 0
M  V30 5643 H 526.03 4.1254 -2.68462 0
M  V30 5644 N 527.682 1.05563 1.17022 0
M  V30 5645 C 528.615 0.604197 2.20056 0
M  V30 5646 C 529.593 -0.369169 1.58354 0
M  V30 5647 O 530.777 -0.279898 1.8641 0
M  V30 5648 C 527.904 -0.115265 3.38504 0
M  V30 5649 C 526.95 0.813698 4.18666 0
M  V30 5650 S 527.783 2.30492 4.83357 0
M  V30 5651 C 528.939 1.59674 6.0519 0
M  V30 5652 H 529.172 1.47713 2.58008 0
M  V30 5653 H 526.705 0.867932 1.27696 0
M  V30 5654 H 528.663 -0.524162 4.0714 0
M  V30 5655 H 527.324 -0.964284 2.98932 0
M  V30 5656 H 526.517 0.256736 5.03346 0
M  V30 5657 H 526.119 1.16213 3.55486 0
M  V30 5658 H 528.411 0.898164 6.7152 0
M  V30 5659 H 529.354 2.42115 6.65422 0
M  V30 5660 H 529.762 1.08252 5.54023 0
M  V30 5661 N 529.16 -1.33526 0.837174 0
M  V30 5662 C 530.406 -1.9813 0.432704 0
M  V30 5663 C 530.739 -1.66168 -1.00508 0
M  V30 5664 O 530.014 -0.94069 -1.70239 0
M  V30 5665 C 530.297 -3.54151 0.651834 0
M  V30 5666 C 530.15 -3.95806 2.13676 0
M  V30 5667 C 531.469 -4.39993 0.0968937 0
M  V30 5668 H 528.588 -0.719713 0.15869 0
M  V30 5669 H 531.23 -1.58193 1.05237 0
M  V30 5670 H 529.38 -3.88301 0.124369 0
M  V30 5671 H 531.052 -3.71921 2.72896 0
M  V30 5672 H 529.295 -3.45599 2.62191 0
M  V30 5673 H 529.966 -5.0447 2.24084 0
M  V30 5674 H 532.442 -4.12479 0.547733 0
M  V30 5675 H 531.318 -5.48186 0.279917 0
M  V30 5676 H 531.579 -4.3066 -0.9992 0
M  V30 5677 N 530.638 -0.59345 -1.46 0
M  V30 5678 C 531.588 0.154751 -2.27474 0
M  V30 5679 C 532.572 0.851849 -1.365 0
M  V30 5680 O 533.764 0.744171 -1.60596 0
M  V30 5681 C 530.893 1.16079 -3.2308 0
M  V30 5682 C 529.979 0.465256 -4.2154 0
M  V30 5683 N 530.37 -0.485197 -5.03467 0
M  V30 5684 C 528.668 0.714634 -4.40237 0
M  V30 5685 C 529.369 -0.892709 -5.74809 0
M  V30 5686 N 528.345 -0.239511 -5.43072 0
M  V30 5687 H 532.147 -0.57546 -2.88211 0
M  V30 5688 H 529.661 -0.416046 -1.5698 0
M  V30 5689 H 531.658 1.71108 -3.80168 0
M  V30 5690 H 530.318 1.89171 -2.63903 0
M  V30 5691 H 531.329 -0.861258 -5.10689 0
M  V30 5692 H 528.006 1.43131 -3.92199 0
M  V30 5693 H 529.396 -1.67581 -6.50666 0
M  V30 5694 N 532.116 1.54067 -0.331816 0
M  V30 5695 C 533.079 2.23275 0.517768 0
M  V30 5696 C 534.079 1.22897 1.03697 0
M  V30 5697 O 535.269 1.47419 0.928084 0
M  V30 5698 C 532.401 2.94326 1.72004 0
M  V30 5699 H 533.594 2.99773 -0.0873507 0
M  V30 5700 H 531.147 1.56079 -0.0830042 0
M  V30 5701 H 531.882 2.21986 2.36417 0
M  V30 5702 H 531.667 3.67941 1.35507 0
M  V30 5703 H 533.157 3.47031 2.32291 0
M  V30 5704 N 533.594 0.0601682 1.57485 0
M  V30 5705 C 534.871 -0.651956 1.84415 0
M  V30 5706 C 535.251 -1.88498 0.950361 0
M  V30 5707 O 534.599 -2.28496 0.0136719 0
M  V30 5708 C 534.809 -1.00069 3.34346 0
M  V30 5709 C 536.157 -1.37915 4.01578 0
M  V30 5710 O 537.181 -1.09277 3.39024 0
M  V30 5711 O 536.04 -1.91399 5.11887 0
M  V30 5712 H 533.134 -0.322668 0.761455 0
M  V30 5713 H 535.68 0.0902159 1.6946 0
M  V30 5714 H 534.452 -0.124463 3.91102 0
M  V30 5715 H 534.075 -1.80001 3.54521 0
M  V30 5716 N 535.072 -1.5615 -0.213296 0
M  V30 5717 C 536.318 -1.79812 -0.937849 0
M  V30 5718 C 536.651 -0.631201 -1.83656 0
M  V30 5719 O 535.926 0.369165 -1.90964 0
M  V30 5720 C 536.209 -3.13613 -1.76972 0
M  V30 5721 C 536.062 -4.40766 -0.89695 0
M  V30 5722 C 537.381 -3.43931 -2.7459 0
M  V30 5723 H 534.5 -0.654138 -0.339518 0
M  V30 5724 H 537.142 -1.88877 -0.20623 0
M  V30 5725 H 535.292 -3.06015 -2.39347 0
M  V30 5726 H 536.964 -4.60392 -0.289306 0
M  V30 5727 H 535.207 -4.33326 -0.202756 0
M  V30 5728 H 535.878 -5.30843 -1.51358 0
M  V30 5729 H 538.354 -3.5171 -2.22349 0
M  V30 5730 H 537.23 -4.38706 -3.29891 0
M  V30 5731 H 537.491 -2.6651 -3.52739 0
M  V30 5732 N 536.55 0.480323 -1.50102 0
M  V30 5733 C 537.46 1.60547 -1.71061 0
M  V30 5734 C 538.476 1.63564 -0.593529 0
M  V30 5735 O 539.652 1.81604 -0.870751 0
M  V30 5736 C 536.717 2.96814 -1.79171 0
M  V30 5737 C 535.778 3.04259 -3.02861 0
M  V30 5738 C 535.011 4.34027 -3.10574 0
M  V30 5739 O 535.234 5.24009 -2.25323 0
M  V30 5740 O 534.168 4.46873 -4.03223 0
M  V30 5741 H 537.994 1.45788 -2.6642 0
M  V30 5742 H 535.579 0.658838 -1.34088 0
M  V30 5743 H 537.461 3.77765 -1.86738 0
M  V30 5744 H 536.136 3.11791 -0.869947 0
M  V30 5745 H 535.043 2.22419 -3.008 0
M  V30 5746 H 536.376 2.94216 -3.94586 0
M  V30 5747 N 538.028 1.39524 0.732853 0
M  V30 5748 C 538.958 1.41153 1.86005 0
M  V30 5749 C 539.939 0.274614 1.67869 0
M  V30 5750 O 541.124 0.480745 1.88155 0
M  V30 5751 C 538.254 1.25638 3.23778 0
M  V30 5752 C 537.208 2.36752 3.56556 0
M  V30 5753 C 536.534 2.06326 4.93289 0
M  V30 5754 C 537.834 3.79069 3.5931 0
M  V30 5755 H 539.528 2.35484 1.84899 0
M  V30 5756 H 537.074 1.13348 0.888162 0
M  V30 5757 H 539.027 1.25398 4.0231 0
M  V30 5758 H 537.751 0.277772 3.25417 0
M  V30 5759 H 536.41 2.36213 2.80355 0
M  V30 5760 H 536.058 1.06897 4.9151 0
M  V30 5761 H 535.758 2.80757 5.16187 0
M  V30 5762 H 537.282 2.07739 5.74175 0
M  V30 5763 H 538.696 3.81526 4.27914 0
M  V30 5764 H 537.093 4.52878 3.93728 0
M  V30 5765 H 538.163 4.09893 2.59068 0
M  V30 5766 N 539.506 -0.963266 1.24736 0
M  V30 5767 C 540.439 -2.05758 0.986852 0
M  V30 5768 C 541.417 -1.62398 -0.0809272 0
M  V30 5769 O 542.601 -1.88414 0.0569347 0
M  V30 5770 C 539.728 -3.35135 0.490095 0
M  V30 5771 C 538.774 -3.97451 1.54709 0
M  V30 5772 S 539.607 -4.34519 3.12976 0
M  V30 5773 C 540.763 -5.67026 2.65014 0
M  V30 5774 H 540.996 -2.27539 1.91346 0
M  V30 5775 H 538.529 -1.10176 1.08169 0
M  V30 5776 H 540.487 -4.09962 0.21012 0
M  V30 5777 H 539.148 -3.11335 -0.415873 0
M  V30 5778 H 538.341 -4.90704 1.15003 0
M  V30 5779 H 537.943 -3.29071 1.77731 0
M  V30 5780 H 540.235 -6.44748 2.08102 0
M  V30 5781 H 541.178 -6.11594 3.56873 0
M  V30 5782 H 541.586 -5.25847 2.05294 0
M  V30 5783 N 540.985 -1.06182 -1.16461 0
M  V30 5784 C 542.401 -0.785065 -1.38956 0
M  V30 5785 C 542.601 0.616103 -1.9185 0
M  V30 5786 O 541.657 1.37686 -2.11657 0
M  V30 5787 C 542.97 -1.84902 -2.37132 0
M  V30 5788 C 544.518 -1.8724 -2.50819 0
M  V30 5789 C 544.993 -2.92686 -3.52277 0
M  V30 5790 N 546.484 -2.91712 -3.59803 0
M  V30 5791 C 547.219 -3.69949 -4.38093 0
M  V30 5792 N 546.715 -4.58 -5.19815 0
M  V30 5793 N 548.508 -3.58346 -4.33064 0
M  V30 5794 H 540.659 -1.96569 -0.804634 0
M  V30 5795 H 542.922 -0.851747 -0.416211 0
M  V30 5796 H 542.628 -2.85518 -2.0536 0
M  V30 5797 H 542.502 -1.69908 -3.36766 0
M  V30 5798 H 544.889 -0.872827 -2.81897 0
M  V30 5799 H 544.97 -2.06311 -1.51226 0
M  V30 5800 H 544.614 -3.92835 -3.21937 0
M  V30 5801 H 544.544 -2.70864 -4.51598 0
M  V30 5802 H 547.035 -2.27876 -3.01464 0
M  V30 5803 H 547.348 -5.14357 -5.76764 0
M  V30 5804 H 545.693 -4.62056 -5.19162 0
M  V30 5805 H 548.884 -2.88943 -3.68279 0
M  V30 5806 H 549.057 -4.19563 -4.93833 0
M  V30 5807 N 542.463 1.3308 -0.844243 0
M  V30 5808 C 543.691 2.01808 -0.456203 0
M  V30 5809 C 544.106 1.63498 0.944131 0
M  V30 5810 O 543.463 0.85102 1.61443 0
M  V30 5811 C 543.514 3.56922 -0.573513 0
M  V30 5812 O 543.235 3.93851 -1.91868 0
M  V30 5813 C 544.736 4.42922 -0.183125 0
M  V30 5814 H 541.956 0.646273 -0.180477 0
M  V30 5815 H 544.5 1.69891 -1.1383 0
M  V30 5816 H 542.655 3.87352 0.0607367 0
M  V30 5817 H 543.069 4.88564 -1.90802 0
M  V30 5818 H 544.543 5.51093 -0.316241 0
M  V30 5819 H 545.02 4.30386 0.875477 0
M  V30 5820 H 545.626 4.1786 -0.792027 0
M  V30 5821 N 543.941 0.601185 1.45683 0
M  V30 5822 C 544.889 -0.133955 2.32214 0
M  V30 5823 C 545.883 -0.866034 1.45589 0
M  V30 5824 O 547.089 -0.782326 1.6211 0
M  V30 5825 H 543.464 -0.0620613 0.749435 0
M  V30 5826 H 545.435 0.614389 2.92007 0
M  V30 5827 C 544.184 -1.12216 3.29094 0
M  V30 5828 H 543.507 -0.568273 3.95741 0
M  V30 5829 H 544.947 -1.60659 3.92383 0
M  V30 5830 C 543.406 -2.19251 2.55794 0
M  V30 5831 O 543.936 -3.26894 2.33459 0
M  V30 5832 N 542.142 -1.9436 2.16039 0
M  V30 5833 H 541.689 -1.06829 2.34404 0
M  V30 5834 H 541.647 -2.66181 1.67318 0
M  V30 5835 N 545.419 -1.53889 0.339982 0
M  V30 5836 C 546.83 -1.86139 -0.144671 0
M  V30 5837 C 547.181 -1.2613 -1.50285 0
M  V30 5838 O 546.306 -0.573515 -2.08662 0
M  V30 5839 C 546.901 -3.37728 -0.269285 0
M  V30 5840 C 545.46 -3.69868 -0.698168 0
M  V30 5841 C 544.607 -2.76777 0.170249 0
M  V30 5842 H 547.558 -1.48503 0.559704 0
M  V30 5843 H 547.579 -3.64331 -1.0974 0
M  V30 5844 H 547.091 -3.81375 0.719366 0
M  V30 5845 H 545.192 -3.31764 -1.69597 0
M  V30 5846 H 545.305 -4.76582 -0.490533 0
M  V30 5847 H 543.669 -2.52188 -0.356844 0
M  V30 5848 H 544.452 -3.23253 1.15597 0
M  V30 5849 N 546.897 -0.0685191 -1.57451 0
M  V30 5850 C 547.845 0.917577 -2.13736 0
M  V30 5851 C 548.839 1.31049 -1.07344 0
M  V30 5852 O 550.045 1.28811 -1.25728 0
M  V30 5853 H 546.42 0.313835 -0.683382 0
M  V30 5854 H 548.391 0.417903 -2.95459 0
M  V30 5855 C 547.14 2.17686 -2.71123 0
M  V30 5856 H 546.463 1.88336 -3.52661 0
M  V30 5857 H 547.903 2.84803 -3.14107 0
M  V30 5858 C 546.362 2.9332 -1.65726 0
M  V30 5859 O 546.892 3.86901 -1.08031 0
M  V30 5860 N 545.098 2.56367 -1.36837 0
M  V30 5861 H 544.645 1.80341 -1.83943 0
M  V30 5862 H 544.603 3.07276 -0.665501 0
M  V30 5863 N 548.375 1.56261 0.205012 0
M  V30 5864 C 549.338 1.92908 1.23771 0
M  V30 5865 C 550.338 0.809208 1.38955 0
M  V30 5866 O 551.528 1.07676 1.36936 0
M  V30 5867 C 548.66 2.19442 2.60879 0
M  V30 5868 H 549.853 2.85287 0.924728 0
M  V30 5869 H 547.406 1.49798 0.446125 0
M  V30 5870 H 548.141 1.29668 2.97248 0
M  V30 5871 H 547.926 3.0104 2.51232 0
M  V30 5872 H 549.416 2.48833 3.35368 0
M  V30 5873 O 549.892 -0.350324 1.57655 0
M  V30 5874 H 550.583 -1.00029 1.65873 0
M  V30 END ATOM
M  V30 BEGIN BOND
M  V30 END BOND
M  V30 END CTAB
M  END
$$$$
