drugbank_target|P51800 Chloride channel protein ClC-Ka (DB04552; DB09295)
 OpenBabel12092120103D

  0  0  0     0  0            999 V3000
M  V30 BEGIN CTAB
M  V30 COUNTS 10679 10823 0 0 0
M  V30 BEGIN ATOM
M  V30 1 H -0.908 1.98254 -0.117106 0
M  V30 2 N 0 1.576 0 0
M  V30 3 C 0.933 2.03868 1.02534 0
M  V30 4 C 1.911 0.928543 1.3348 0
M  V30 5 O 3.095 1.19667 1.45644 0
M  V30 6 C 0.222 2.43627 2.35294 0
M  V30 7 C -0.732 3.65373 2.2001 0
M  V30 8 S 0.101 5.13292 1.52614 0
M  V30 9 C 1.257 5.56322 2.86805 0
M  V30 10 H 1.49 2.90518 0.631377 0
M  V30 11 H -0.977 1.52953 0.210867 0
M  V30 12 H 0.981 2.67203 3.11629 0
M  V30 13 H -0.358 1.57376 2.7183 0
M  V30 14 H -1.165 3.90944 3.18086 0
M  V30 15 H -1.563 3.418 1.51819 0
M  V30 16 H 0.729 5.58782 3.83104 0
M  V30 17 H 1.672 6.56266 2.65933 0
M  V30 18 H 2.08 4.83886 2.90714 0
M  V30 19 N 1.4781 -0.272755 1.55222 0
M  V30 20 C 2.3881 -1.35918 1.91216 0
M  V30 21 C 3.4041 -1.54026 0.809436 0
M  V30 22 O 4.5801 -1.68148 1.10852 0
M  V30 23 C 1.6451 -2.69834 2.17693 0
M  V30 24 C 0.7061 -2.6047 3.41253 0
M  V30 25 C -0.0609 -3.88 3.66458 0
M  V30 26 O 0.1621 -4.88693 2.94169 0
M  V30 27 O -0.9039 -3.88189 4.59992 0
M  V30 28 H 2.9221 -1.0839 2.83699 0
M  V30 29 H 0.5071 -0.471301 1.41771 0
M  V30 30 H 2.3891 -3.49017 2.36147 0
M  V30 31 H 1.0641 -2.97148 1.28392 0
M  V30 32 H -0.0289 -1.79663 3.28134 0
M  V30 33 H 1.3041 -2.38106 4.30774 0
M  V30 34 N 2.9562 -1.48159 -0.537278 0
M  V30 35 C 3.8662 -1.64807 -1.6696 0
M  V30 36 C 4.8822 -0.530651 -1.65711 0
M  V30 37 O 6.0582 -0.800784 -1.84796 0
M  V30 38 C 3.1232 -1.67708 -3.03438 0
M  V30 39 C 2.1842 -2.91025 -3.156 0
M  V30 40 C 1.4172 -2.93778 -4.45567 0
M  V30 41 O 1.6402 -2.05153 -5.3223 0
M  V30 42 O 0.5742 -3.85868 -4.61941 0
M  V30 43 H 4.4002 -2.6066 -1.55853 0
M  V30 44 H 1.9852 -1.31475 -0.709549 0
M  V30 45 H 3.8672 -1.7218 -3.84619 0
M  V30 46 H 2.5422 -0.750278 -3.14885 0
M  V30 47 H 1.4492 -2.92089 -2.33741 0
M  V30 48 H 2.7822 -3.83065 -3.09066 0
M  V30 49 N 4.4343 0.785586 -1.36625 0
M  V30 50 C 5.3643 1.91259 -1.33949 0
M  V30 51 C 6.3453 1.68795 -0.210325 0
M  V30 52 O 7.5303 1.89854 -0.408561 0
M  V30 53 C 4.6603 3.28339 -1.13186 0
M  V30 54 C 3.6143 3.65335 -2.22967 0
M  V30 55 C 2.9403 5.00806 -1.87342 0
M  V30 56 C 4.2403 3.7352 -3.65075 0
M  V30 57 H 5.9343 1.93755 -2.28253 0
M  V30 58 H 3.4803 0.930788 -1.09874 0
M  V30 59 H 5.4333 4.06804 -1.09948 0
M  V30 60 H 4.1573 3.2624 -0.153332 0
M  V30 61 H 2.8163 2.89169 -2.25337 0
M  V30 62 H 2.4643 4.95233 -0.880545 0
M  V30 63 H 2.1643 5.26529 -2.60846 0
M  V30 64 H 3.6883 5.81687 -1.85667 0
M  V30 65 H 5.1023 4.42168 -3.64911 0
M  V30 66 H 3.4993 4.10731 -4.37516 0
M  V30 67 H 4.5693 2.74527 -3.99703 0
M  V30 68 N 5.9124 1.20967 1.01018 0
M  V30 69 C 7.1584 1.02526 1.74975 0
M  V30 70 C 7.4914 -0.4408 1.89131 0
M  V30 71 O 6.7664 -1.32718 1.42184 0
M  V30 72 C 7.0494 1.71699 3.1653 0
M  V30 73 C 6.9024 3.25791 3.10129 0
M  V30 74 C 8.2214 1.45531 4.15342 0
M  V30 75 H 5.3404 0.373863 0.635134 0
M  V30 76 H 7.9824 1.49071 1.17805 0
M  V30 77 H 6.1324 1.32128 3.65341 0
M  V30 78 H 7.8044 3.74697 2.69072 0
M  V30 79 H 6.0474 3.56363 2.47362 0
M  V30 80 H 6.7184 3.69353 4.10222 0
M  V30 81 H 9.1944 1.79872 3.75213 0
M  V30 82 H 8.0704 1.96453 5.1254 0
M  V30 83 H 8.3314 0.384237 4.40427 0
M  V30 84 N 7.3905 -1.2043 1.01659 0
M  V30 85 C 8.6385 -1.89423 0.704522 0
M  V30 86 C 8.9595 -1.79231 -0.768197 0
M  V30 87 O 8.2295 -1.1947 -1.55254 0
M  V30 88 H 6.8095 -0.701178 0.257602 0
M  V30 89 H 9.4715 -1.4626 1.28818 0
M  V30 90 H 8.5675 -2.96052 0.987916 0
M  V30 91 N 8.8686 -0.792821 -1.36206 0
M  V30 92 C 9.7986 -0.207853 -2.32573 0
M  V30 93 C 10.7796 0.659055 -1.56813 0
M  V30 94 O 11.9646 0.592176 -1.84951 0
M  V30 95 C 9.0946 0.655449 -3.41059 0
M  V30 96 C 8.0486 -0.111842 -4.27854 0
M  V30 97 C 7.3746 0.872274 -5.27537 0
M  V30 98 C 8.6746 -1.30299 -5.05786 0
M  V30 99 H 10.3686 -1.01294 -2.81744 0
M  V30 100 H 7.9146 -0.48854 -1.3546 0
M  V30 101 H 9.8676 1.07464 -4.07467 0
M  V30 102 H 8.5916 1.49328 -2.90463 0
M  V30 103 H 7.2506 -0.512053 -3.63006 0
M  V30 104 H 6.8986 1.70523 -4.73214 0
M  V30 105 H 6.5986 0.363291 -5.86476 0
M  V30 106 H 8.1226 1.28996 -5.96818 0
M  V30 107 H 9.5366 -0.959379 -5.65216 0
M  V30 108 H 7.9336 -1.7455 -5.74154 0
M  V30 109 H 9.0036 -2.09663 -4.37229 0
M  V30 110 N 10.3467 1.47872 -0.545128 0
M  V30 111 C 11.7627 1.5829 -0.204032 0
M  V30 112 C 11.9627 1.54529 1.29317 0
M  V30 113 O 11.0187 1.44232 2.07252 0
M  V30 114 C 12.3317 2.89304 -0.819987 0
M  V30 115 C 13.8797 3.02864 -0.790105 0
M  V30 116 C 14.3547 4.3656 -1.38491 0
M  V30 117 N 15.8457 4.43165 -1.34755 0
M  V30 118 C 16.5807 5.45153 -1.77753 0
M  V30 119 N 16.0767 6.54016 -2.2855 0
M  V30 120 N 17.8697 5.36125 -1.68897 0
M  V30 121 H 10.0207 1.4856 -1.51802 0
M  V30 122 H 12.2837 0.706305 -0.632327 0
M  V30 123 H 11.9897 2.97757 -1.87173 0
M  V30 124 H 11.8637 3.75957 -0.305915 0
M  V30 125 H 14.2507 2.94014 0.252913 0
M  V30 126 H 14.3317 2.17782 -1.34181 0
M  V30 127 H 13.9757 4.46164 -2.42693 0
M  V30 128 H 13.9057 5.20353 -0.808754 0
M  V30 129 H 16.3967 3.65083 -0.975855 0
M  V30 130 H 16.7097 7.27994 -2.59314 0
M  V30 131 H 15.0547 6.54938 -2.32553 0
M  V30 132 H 18.2457 4.49975 -1.28998 0
M  V30 133 H 18.4187 6.15472 -2.02726 0
M  V30 134 N 11.8248 0.280983 1.55075 0
M  V30 135 C 12.7348 -0.61388 2.26426 0
M  V30 136 C 13.7508 -1.16521 1.29224 0
M  V30 137 O 14.9268 -1.19426 1.62171 0
M  V30 138 C 11.9918 -1.7788 2.9759 0
M  V30 139 C 11.0528 -1.26355 4.10284 0
M  V30 140 C 10.2858 -2.37295 4.78045 0
M  V30 141 O 10.5088 -3.56777 4.45047 0
M  V30 142 O 9.4428 -2.05119 5.65871 0
M  V30 143 H 13.2688 -0.0356932 3.03679 0
M  V30 144 H 10.8538 0.0481686 1.49322 0
M  V30 145 H 12.7358 -2.45791 3.42293 0
M  V30 146 H 11.4108 -2.34397 2.23249 0
M  V30 147 H 10.3178 -0.550735 3.70024 0
M  V30 148 H 11.6508 -0.744065 4.86543 0
M  V30 149 N 13.3029 -1.57598 0.00835791 0
M  V30 150 C 14.5509 -1.90551 -0.6734 0
M  V30 151 C 14.8719 -0.883301 -1.73847 0
M  V30 152 O 14.1419 0.0781442 -1.95744 0
M  V30 153 H 12.7219 -0.703312 -0.251717 0
M  V30 154 H 15.3839 -1.94833 0.0512592 0
M  V30 155 H 14.4799 -2.9056 -1.13935 0
M  V30 156 N 14.781 0.264519 -1.55364 0
M  V30 157 C 16.028 0.994986 -1.7637 0
M  V30 158 C 16.356 1.85976 -0.5695 0
M  V30 159 O 15.611 1.90509 0.44776 0
M  V30 160 C 15.91 1.9004 -3.02687 0
M  V30 161 C 15.576 1.19243 -4.34847 0
M  V30 162 C 14.238 0.996709 -4.70764 0
M  V30 163 C 16.59 0.689296 -5.16622 0
M  V30 164 C 13.918 0.285261 -5.86006 0
M  V30 165 C 16.27 -0.00860079 -6.32599 0
M  V30 166 C 14.934 -0.215963 -6.67151 0
M  V30 167 H 14.204 0.364091 -0.645383 0
M  V30 168 H 16.851 0.266543 -1.89636 0
M  V30 169 H 15.156 2.69533 -2.84357 0
M  V30 170 H 16.853 2.46695 -3.16137 0
M  V30 171 H 13.443 1.3549 -4.06621 0
M  V30 172 H 17.627 0.828108 -4.89342 0
M  V30 173 H 12.883 0.113961 -6.11294 0
M  V30 174 H 17.057 -0.406186 -6.95214 0
M  V30 175 H 14.684 -0.769217 -7.56298 0
M  V30 176 N 16.2591 1.48442 0.529413 0
M  V30 177 C 17.4841 1.60406 1.31471 0
M  V30 178 C 17.9091 0.264738 1.86228 0
M  V30 179 O 17.2671 -0.763668 1.64432 0
M  V30 180 C 17.3151 2.65419 2.44101 0
M  V30 181 O 16.4191 2.22618 3.47153 0
M  V30 182 H 15.7601 0.537863 0.389357 0
M  V30 183 H 18.2901 1.94432 0.636965 0
M  V30 184 H 18.3001 2.86709 2.90279 0
M  V30 185 H 16.9751 3.62652 2.03608 0
M  V30 186 H 15.5521 2.11543 3.0709 0
M  V30 187 N 17.7372 -0.778329 1.37039 0
M  V30 188 C 18.9852 -1.53361 1.31623 0
M  V30 189 C 19.3062 -1.94739 -0.100831 0
M  V30 190 O 18.5762 -1.65797 -1.04347 0
M  V30 191 H 17.1562 -0.568794 0.484234 0
M  V30 192 H 19.8182 -0.926742 1.71457 0
M  V30 193 H 18.9142 -2.43606 1.95096 0
M  V30 194 N 19.2153 -1.21501 -1.00376 0
M  V30 195 C 20.4923 -0.941745 -1.71437 0
M  V30 196 C 20.8723 0.546114 -2.03914 0
M  V30 197 O 20.2203 1.51128 -1.71384 0
M  V30 198 C 20.4303 -1.82812 -2.97289 0
M  V30 199 C 21.7783 -2.07771 -3.70292 0
M  V30 200 O 22.8023 -1.80171 -3.07273 0
M  V30 201 O 21.6613 -2.54456 -4.83647 0
M  V30 202 H 18.7553 -0.353243 -0.747762 0
M  V30 203 H 21.3013 -1.32436 -1.06108 0
M  V30 204 H 20.0733 -2.83501 -2.69709 0
M  V30 205 H 19.6963 -1.4464 -3.70358 0
M  V30 206 N 20.6934 1.19889 -1.02296 0
M  V30 207 C 22.1044 1.71124 -0.746568 0
M  V30 208 C 22.4554 1.81939 0.734335 0
M  V30 209 O 21.5804 1.48639 1.57275 0
M  V30 210 C 22.1754 3.10804 -1.34857 0
M  V30 211 C 20.7344 3.59323 -1.1209 0
M  V30 212 C 19.8814 2.3635 -1.45031 0
M  V30 213 H 22.8324 1.04813 -1.19163 0
M  V30 214 H 22.8534 3.73186 -0.742437 0
M  V30 215 H 22.3654 3.029 -2.42638 0
M  V30 216 H 20.4664 3.7255 -0.0610337 0
M  V30 217 H 20.5794 4.4378 -1.80544 0
M  V30 218 H 18.9434 2.39399 -0.869487 0
M  V30 219 H 19.7264 2.31081 -2.53883 0
M  V30 220 N 22.1715 0.800033 1.35784 0
M  V30 221 C 23.4175 0.377901 1.99248 0
M  V30 222 C 23.7505 -1.05052 1.63333 0
M  V30 223 O 23.0255 -1.72768 0.893385 0
M  V30 224 C 23.3085 0.553922 3.55814 0
M  V30 225 C 23.1615 2.0268 4.01548 0
M  V30 226 C 24.4805 -0.0244802 4.40093 0
M  V30 227 H 21.5995 0.138782 0.723815 0
M  V30 228 H 24.2415 1.00835 1.61035 0
M  V30 229 H 22.3915 0.0172398 3.88496 0
M  V30 230 H 24.0635 2.62536 3.79305 0
M  V30 231 H 22.3065 2.5256 3.52698 0
M  V30 232 H 22.9775 2.10087 5.10458 0
M  V30 233 H 25.4535 0.433775 4.13833 0
M  V30 234 H 24.3295 0.128637 5.48749 0
M  V30 235 H 24.5905 -1.11758 4.27741 0
M  V30 236 N 23.6496 -1.47581 0.552962 0
M  V30 237 C 24.8776 -2.06875 0.0320556 0
M  V30 238 C 25.2926 -1.40625 -1.25976 0
M  V30 239 O 24.6496 -0.501349 -1.75479 0
M  V30 240 C 24.7006 -3.61092 -0.17167 0
M  V30 241 O 24.4216 -4.24858 1.06899 0
M  V30 242 C 25.9226 -4.37242 -0.730344 0
M  V30 243 H 23.1426 -0.669561 0.043915 0
M  V30 244 H 25.6866 -1.89646 0.765163 0
M  V30 245 H 23.8416 -3.7785 -0.854894 0
M  V30 246 H 24.2556 -5.17334 0.864059 0
M  V30 247 H 25.7296 -5.45842 -0.822203 0
M  V30 248 H 26.2066 -4.03235 -1.74064 0
M  V30 249 H 26.8126 -4.25219 -0.0829543 0
M  V30 250 N 25.1277 -0.289203 -1.54924 0
M  V30 251 C 26.0577 0.58549 -2.2604 0
M  V30 252 C 27.0387 1.14753 -1.25562 0
M  V30 253 O 28.2237 1.17906 -1.54311 0
M  V30 254 C 25.3537 1.76305 -2.99222 0
M  V30 255 C 24.3077 1.33191 -4.06748 0
M  V30 256 C 23.6337 2.5937 -4.6758 0
M  V30 257 C 24.9337 0.471775 -5.20165 0
M  V30 258 H 26.6277 -0.00763532 -2.99399 0
M  V30 259 H 24.1737 -0.00511229 -1.43999 0
M  V30 260 H 26.1267 2.38097 -3.47689 0
M  V30 261 H 24.8507 2.38223 -2.23422 0
M  V30 262 H 23.5097 0.737121 -3.59113 0
M  V30 263 H 23.1577 3.19576 -3.88433 0
M  V30 264 H 22.8577 2.31228 -5.40192 0
M  V30 265 H 24.3817 3.21985 -5.18804 0
M  V30 266 H 25.7957 0.995056 -5.64599 0
M  V30 267 H 24.1927 0.284639 -5.99425 0
M  V30 268 H 25.2627 -0.506041 -4.82252 0
M  V30 269 N 26.6058 1.57591 -0.0167156 0
M  V30 270 C 27.5378 2.06343 0.997753 0
M  V30 271 C 28.5508 0.984469 1.29661 0
M  V30 272 O 29.7398 1.26093 1.26344 0
M  V30 273 C 26.8398 2.46255 2.32834 0
M  V30 274 C 26.0128 3.77083 2.21646 0
M  V30 275 C 25.0718 4.0368 3.37534 0
M  V30 276 O 24.0978 4.7411 3.14973 0
M  V30 277 N 25.2998 3.52881 4.60929 0
M  V30 278 H 28.0648 2.93997 0.581875 0
M  V30 279 H 25.6258 1.61002 0.170316 0
M  V30 280 H 27.6178 2.61149 3.09166 0
M  V30 281 H 26.1878 1.64032 2.66106 0
M  V30 282 H 25.4078 3.72106 1.30119 0
M  V30 283 H 26.6958 4.62822 2.11361 0
M  V30 284 H 26.0938 2.95878 4.82154 0
M  V30 285 H 24.6508 3.73076 5.34469 0
M  V30 286 N 28.0839 -0.256276 1.55502 0
M  V30 287 C 28.9939 -1.33882 1.92647 0
M  V30 288 C 30.0099 -1.53159 0.825727 0
M  V30 289 O 31.1859 -1.66963 1.12629 0
M  V30 290 C 28.2509 -2.6751 2.20543 0
M  V30 291 C 27.3119 -2.56836 3.43997 0
M  V30 292 C 26.5449 -3.84092 3.70553 0
M  V30 293 O 26.7679 -4.85545 2.99336 0
M  V30 294 O 25.7019 -3.83288 4.64084 0
M  V30 295 H 29.5279 -1.05374 2.84833 0
M  V30 296 H 27.1129 -0.456237 1.42263 0
M  V30 297 H 28.9949 -3.46492 2.39835 0
M  V30 298 H 27.6699 -2.9577 1.31536 0
M  V30 299 H 26.5769 -1.76172 3.30021 0
M  V30 300 H 27.9099 -2.33523 4.33275 0
M  V30 301 N 29.562 -1.4872 -0.521534 0
M  V30 302 C 30.492 -1.66771 -1.63431 0
M  V30 303 C 31.473 -0.516499 -1.62069 0
M  V30 304 O 32.658 -0.750013 -1.79132 0
M  V30 305 C 29.788 -1.71515 -3.01993 0
M  V30 306 C 28.742 -2.86222 -3.18216 0
M  V30 307 C 28.068 -2.76061 -4.57924 0
M  V30 308 C 29.368 -4.27419 -3.00184 0
M  V30 309 H 31.062 -2.59932 -1.48579 0
M  V30 310 H 28.608 -1.25089 -0.713358 0
M  V30 311 H 30.561 -1.82731 -3.7972 0
M  V30 312 H 29.285 -0.749393 -3.17886 0
M  V30 313 H 27.944 -2.74575 -2.42908 0
M  V30 314 H 27.592 -1.77437 -4.70665 0
M  V30 315 H 27.292 -3.53037 -4.69722 0
M  V30 316 H 28.816 -2.89256 -5.37739 0
M  V30 317 H 30.23 -4.39855 -3.67697 0
M  V30 318 H 28.627 -5.05458 -3.2347 0
M  V30 319 H 29.697 -4.43293 -1.96518 0
M  V30 320 N 31.0401 0.771051 -1.3745 0
M  V30 321 C 32.2861 1.53109 -1.339 0
M  V30 322 C 32.6411 1.9225 0.0758401 0
M  V30 323 O 31.9341 1.61264 1.03463 0
M  V30 324 C 32.1281 2.80676 -2.2126 0
M  V30 325 C 31.9571 2.54003 -3.71096 0
M  V30 326 C 30.7271 2.48097 -4.402 0
M  V30 327 C 32.9251 2.21953 -4.63941 0
M  V30 328 N 30.9071 2.13515 -5.75573 0
M  V30 329 C 32.2781 1.97516 -5.87697 0
M  V30 330 C 34.3331 2.08114 -4.5232 0
M  V30 331 C 33.0361 1.60638 -7.01133 0
M  V30 332 C 35.0621 1.72636 -5.65642 0
M  V30 333 C 34.4241 1.4906 -6.88448 0
M  V30 334 H 30.5231 0.56055 -0.54526 0
M  V30 335 H 33.1071 0.899472 -1.72678 0
M  V30 336 H 31.2781 3.41674 -1.84698 0
M  V30 337 H 33.0101 3.46578 -2.08963 0
M  V30 338 H 29.7651 2.63974 -3.93211 0
M  V30 339 H 30.1891 1.98919 -6.47117 0
M  V30 340 H 34.8311 2.25024 -3.57944 0
M  V30 341 H 32.5491 1.42467 -7.95443 0
M  V30 342 H 36.1351 1.62586 -5.58621 0
M  V30 343 H 35.0151 1.22014 -7.7465 0
M  V30 344 N 32.5182 1.22032 0.997298 0
M  V30 345 C 33.7662 1.04016 1.73278 0
M  V30 346 C 34.0872 -0.426255 1.90284 0
M  V30 347 O 33.3572 -1.30694 1.45931 0
M  V30 348 H 31.9372 0.381897 0.642 0
M  V30 349 H 34.5992 1.5347 1.20137 0
M  V30 350 H 33.6952 1.51441 2.72896 0
M  V30 351 N 33.9963 -1.19345 1.0293 0
M  V30 352 C 35.4073 -1.70725 0.755633 0
M  V30 353 C 35.7583 -1.82326 -0.724676 0
M  V30 354 O 34.8833 -1.49471 -1.56484 0
M  V30 355 C 35.4783 -3.10084 1.36503 0
M  V30 356 C 34.0373 -3.58723 1.13994 0
M  V30 357 C 33.1843 -2.35577 1.46283 0
M  V30 358 H 36.1353 -1.0418 1.19718 0
M  V30 359 H 36.1563 -3.72787 0.762217 0
M  V30 360 H 35.6683 -3.01609 2.44241 0
M  V30 361 H 33.7693 -3.72512 0.0807901 0
M  V30 362 H 33.8823 -4.42816 1.82894 0
M  V30 363 H 32.2463 -2.38935 0.88217 0
M  V30 364 H 33.0293 -2.29731 2.55105 0
M  V30 365 N 35.4744 -0.807222 -1.35358 0
M  V30 366 C 36.7144 -0.393534 -2.00576 0
M  V30 367 C 37.0784 1.0203 -1.62647 0
M  V30 368 O 38.2794 1.53603 -2.20589 0
M  V30 369 C 36.5504 -0.572017 -3.52793 0
M  V30 370 S 38.1094 -0.248845 -4.38094 0
M  V30 371 H 34.9274 -0.149425 -0.695121 0
M  V30 372 H 37.5294 -1.04961 -1.64935 0
M  V30 373 H 36.2334 -1.60097 -3.77885 0
M  V30 374 H 35.7644 0.099359 -3.93275 0
M  V30 375 H 37.7794 0.943253 -4.87152 0
M  V30 376 N 36.9525 1.47285 -0.560781 0
M  V30 377 C 38.3635 1.86258 -0.128343 0
M  V30 378 C 38.7145 1.46699 1.30284 0
M  V30 379 O 37.8395 0.871698 1.98067 0
M  V30 380 C 38.4345 3.38044 -0.22614 0
M  V30 381 C 36.9935 3.76096 0.151283 0
M  V30 382 C 36.1405 2.71335 -0.572084 0
M  V30 383 H 39.0915 1.38752 -0.770297 0
M  V30 384 H 39.1125 3.76441 0.554322 0
M  V30 385 H 38.6245 3.66806 -1.26788 0
M  V30 386 H 36.7255 3.52951 1.19399 0
M  V30 387 H 36.8385 4.78641 -0.209765 0
M  V30 388 H 35.2025 2.54696 -0.0147653 0
M  V30 389 H 35.9855 3.02938 -1.61504 0
M  V30 390 N 38.4306 0.297415 1.54768 0
M  V30 391 C 39.3806 -0.595275 2.20092 0
M  V30 392 C 40.3646 -1.10163 1.17273 0
M  V30 393 O 41.5566 -1.043 1.43006 0
M  V30 394 C 38.6856 -1.7684 2.94249 0
M  V30 395 C 37.7716 -1.27818 4.0438 0
M  V30 396 N 38.1626 -0.505695 5.03266 0
M  V30 397 C 36.4606 -1.55923 4.17857 0
M  V30 398 C 37.1616 -0.245094 5.81183 0
M  V30 399 N 36.1376 -0.823881 5.3732 0
M  V30 400 H 39.9396 0.00250837 2.939 0
M  V30 401 H 37.4536 0.102007 1.62079 0
M  V30 402 H 39.4506 -2.41944 3.39513 0
M  V30 403 H 38.1106 -2.36992 2.21957 0
M  V30 404 H 39.1216 -0.150928 5.1768 0
M  V30 405 H 35.7986 -2.16849 3.56767 0
M  V30 406 H 37.1886 0.375084 6.70852 0
M  V30 407 N 39.9087 -1.5758 0.0250728 0
M  V30 408 C 41.1577 -1.90811 -0.653767 0
M  V30 409 C 41.4707 -0.90273 -1.73523 0
M  V30 410 O 42.6767 -1.12614 -2.47043 0
M  V30 411 C 41.1327 -3.38804 -1.21409 0
M  V30 412 C 40.7407 -4.47692 -0.166126 0
M  V30 413 C 42.4847 -3.81108 -1.86967 0
M  V30 414 C 40.3917 -5.86779 -0.737856 0
M  V30 415 H 39.3217 -0.712063 -0.247956 0
M  V30 416 H 41.9727 -1.83281 0.0897137 0
M  V30 417 H 40.3547 -3.41252 -2.00905 0
M  V30 418 H 41.5287 -4.56797 0.606079 0
M  V30 419 H 39.8437 -4.14565 0.390466 0
M  V30 420 H 42.4407 -4.82375 -2.30692 0
M  V30 421 H 42.7837 -3.15953 -2.71071 0
M  V30 422 H 43.3167 -3.81065 -1.14167 0
M  V30 423 H 40.0557 -6.55468 0.0649577 0
M  V30 424 H 39.5757 -5.81288 -1.47864 0
M  V30 425 H 41.2547 -6.35223 -1.22884 0
M  V30 426 N 41.3868 0.248026 -1.55636 0
M  V30 427 C 42.8028 0.596483 -1.48035 0
M  V30 428 C 43.0028 1.88386 -0.715039 0
M  V30 429 O 42.0588 2.51319 -0.243944 0
M  V30 430 C 43.3718 0.700258 -2.92433 0
M  V30 431 C 44.9198 0.792659 -3.02797 0
M  V30 432 C 45.3948 0.928005 -4.485 0
M  V30 433 N 46.8858 0.992903 -4.52433 0
M  V30 434 C 47.6208 1.11687 -5.62418 0
M  V30 435 N 47.1168 1.20645 -6.82214 0
M  V30 436 N 48.9098 1.14994 -5.50212 0
M  V30 437 H 41.0608 -0.597109 -2.03834 0
M  V30 438 H 43.3238 -0.205925 -0.925364 0
M  V30 439 H 43.0298 -0.175658 -3.51261 0
M  V30 440 H 42.9038 1.57255 -3.42857 0
M  V30 441 H 45.2908 1.65903 -2.4405 0
M  V30 442 H 45.3718 -0.104762 -2.55585 0
M  V30 443 H 45.0158 0.0661971 -5.07857 0
M  V30 444 H 44.9458 1.84045 -4.93391 0
M  V30 445 H 47.4368 0.935064 -3.66149 0
M  V30 446 H 47.7498 1.30008 -7.61786 0
M  V30 447 H 46.0948 1.17605 -6.84977 0
M  V30 448 H 49.2858 1.07643 -4.55555 0
M  V30 449 H 49.4588 1.24311 -6.35965 0
M  V30 450 N 42.8649 1.48995 0.513639 0
M  V30 451 C 44.2809 1.35478 0.843682 0
M  V30 452 C 44.4809 0.378213 1.97919 0
M  V30 453 O 43.5369 -0.194689 2.51748 0
M  V30 454 C 44.8499 2.75901 1.1958 0
M  V30 455 C 46.3979 2.84509 1.30474 0
M  V30 456 C 46.8729 4.25671 1.69021 0
M  V30 457 N 48.3639 4.28422 1.76094 0
M  V30 458 C 49.0989 5.34601 2.07338 0
M  V30 459 N 48.5949 6.5104 2.36894 0
M  V30 460 N 50.3879 5.22007 2.08483 0
M  V30 461 H 42.5389 2.11092 -0.235328 0
M  V30 462 H 44.8019 0.947039 -0.0426669 0
M  V30 463 H 44.5079 3.49001 0.434913 0
M  V30 464 H 44.3819 3.10467 2.1422 0
M  V30 465 H 46.7689 2.11655 2.05637 0
M  V30 466 H 46.8499 2.53542 0.339155 0
M  V30 467 H 46.4939 4.99048 0.944135 0
M  V30 468 H 46.4239 4.54094 2.66658 0
M  V30 469 H 48.9149 3.44441 1.55464 0
M  V30 470 H 49.2279 7.2779 2.59887 0
M  V30 471 H 47.5729 6.54287 2.34378 0
M  V30 472 H 50.7639 4.30051 1.84861 0
M  V30 473 H 50.9369 6.04854 2.325 0
M  V30 474 N 44.343 -0.763751 1.37857 0
M  V30 475 C 45.306 -1.85889 1.34081 0
M  V30 476 C 46.306 -1.58949 0.243277 0
M  V30 477 O 47.496 -1.66882 0.499589 0
M  V30 478 C 44.628 -3.23176 1.08489 0
M  V30 479 H 45.821 -1.90648 2.31502 0
M  V30 480 H 43.374 -0.964367 1.23003 0
M  V30 481 H 44.109 -3.24091 0.116318 0
M  V30 482 H 43.894 -3.44124 1.8794 0
M  V30 483 H 45.384 -4.03254 1.08517 0
M  V30 484 N 45.8211 -1.22559 -0.990812 0
M  V30 485 C 47.0701 -1.04553 -1.72486 0
M  V30 486 C 47.3831 0.419349 -1.91052 0
M  V30 487 O 48.5891 0.719121 -2.61803 0
M  V30 488 C 47.0451 -1.82231 -3.10355 0
M  V30 489 C 46.6531 -3.32981 -2.99713 0
M  V30 490 C 48.3971 -1.7268 -3.87791 0
M  V30 491 C 46.3041 -4.03091 -4.32748 0
M  V30 492 H 45.2341 -0.387614 -0.646739 0
M  V30 493 H 47.8851 -1.46429 -1.10593 0
M  V30 494 H 46.2671 -1.33155 -3.72942 0
M  V30 495 H 47.4411 -3.89466 -2.46278 0
M  V30 496 H 45.7561 -3.43231 -2.35758 0
M  V30 497 H 48.3531 -2.22381 -4.86262 0
M  V30 498 H 48.6961 -0.687607 -4.10582 0
M  V30 499 H 49.2291 -2.1931 -3.31885 0
M  V30 500 H 45.9681 -5.07273 -4.15156 0
M  V30 501 H 45.4881 -3.51394 -4.86089 0
M  V30 502 H 47.1671 -4.08804 -5.01486 0
M  V30 503 N 47.2992 1.18797 -1.03562 0
M  V30 504 C 48.2312 2.21731 -0.580337 0
M  V30 505 C 49.2442 1.59051 0.347349 0
M  V30 506 O 50.4332 1.77929 0.142669 0
M  V30 507 C 47.5332 3.38459 0.172805 0
M  V30 508 C 46.7062 4.3072 -0.761496 0
M  V30 509 C 45.7652 5.26174 -0.0525547 0
M  V30 510 O 44.7912 5.65108 -0.681333 0
M  V30 511 N 45.9932 5.67624 1.21586 0
M  V30 512 H 48.7582 2.61417 -1.46565 0
M  V30 513 H 46.3192 1.33531 -0.915476 0
M  V30 514 H 48.3112 3.99335 0.656793 0
M  V30 515 H 46.8812 2.97507 0.959602 0
M  V30 516 H 46.1012 3.67525 -1.42544 0
M  V30 517 H 47.3892 4.89267 -1.39626 0
M  V30 518 H 46.7872 5.38038 1.74732 0
M  V30 519 H 45.3442 6.30721 1.64421 0
M  V30 520 N 48.7773 0.814389 1.34928 0
M  V30 521 C 50.0253 0.397636 1.9815 0
M  V30 522 C 50.3463 -1.04069 1.64908 0
M  V30 523 O 49.6163 -1.72121 0.93548 0
M  V30 524 H 48.1963 0.144043 0.732981 0
M  V30 525 H 50.8583 1.04195 1.6471 0
M  V30 526 H 49.9543 0.509688 3.0791 0
M  V30 527 N 50.2554 -1.46986 0.568584 0
M  V30 528 C 51.5034 -2.02041 0.0487022 0
M  V30 529 C 51.8244 -1.44408 -1.31039 0
M  V30 530 O 51.0944 -0.623477 -1.85714 0
M  V30 531 H 49.6744 -0.746849 0.015014 0
M  V30 532 H 52.3364 -1.80257 0.741168 0
M  V30 533 H 51.4324 -3.12085 -0.0308961 0
M  V30 534 N 51.7335 -0.305618 -1.54608 0
M  V30 535 C 52.6635 0.561482 -2.26649 0
M  V30 536 C 53.6445 1.13415 -1.26772 0
M  V30 537 O 54.8295 1.16262 -1.55553 0
M  V30 538 C 51.9595 1.73122 -3.01075 0
M  V30 539 C 50.9135 1.2887 -4.08138 0
M  V30 540 C 50.2395 2.54396 -4.70305 0
M  V30 541 C 51.5395 0.416578 -5.20636 0
M  V30 542 H 53.2335 -0.0393902 -2.99374 0
M  V30 543 H 50.7795 -0.020385 -1.43986 0
M  V30 544 H 52.7325 2.34396 -3.50195 0
M  V30 545 H 51.4565 2.3584 -2.25936 0
M  V30 546 H 50.1155 0.698991 -3.59875 0
M  V30 547 H 49.7635 3.15439 -3.918 0
M  V30 548 H 49.4635 2.25486 -5.42614 0
M  V30 549 H 50.9875 3.16464 -5.2219 0
M  V30 550 H 52.4015 0.935116 -5.65622 0
M  V30 551 H 50.7985 0.221046 -5.99693 0
M  V30 552 H 51.8685 -0.557162 -4.81688 0
M  V30 553 N 53.2116 1.57565 -0.0334293 0
M  V30 554 C 54.1216 2.13943 0.962572 0
M  V30 555 C 55.1376 1.09276 1.35406 0
M  V30 556 O 56.3136 1.41355 1.4346 0
M  V30 557 C 53.3786 2.65887 2.22497 0
M  V30 558 C 52.4396 3.85286 1.8935 0
M  V30 559 C 51.6726 4.34743 3.09571 0
M  V30 560 O 51.8956 3.83352 4.22371 0
M  V30 561 O 50.8296 5.26538 2.91618 0
M  V30 562 H 54.6556 2.99333 0.513169 0
M  V30 563 H 52.2406 1.4822 0.18743 0
M  V30 564 H 54.1226 2.99346 2.96598 0
M  V30 565 H 52.7976 1.83578 2.6661 0
M  V30 566 H 51.7046 3.56746 1.1262 0
M  V30 567 H 53.0376 4.68771 1.5005 0
M  V30 568 N 54.6897 -0.239769 1.55765 0
M  V30 569 C 55.9357 -0.963942 1.79108 0
M  V30 570 C 56.2907 -1.82689 0.60352 0
M  V30 571 O 55.5837 -1.87313 -0.403033 0
M  V30 572 C 55.7777 -1.852 3.05672 0
M  V30 573 C 55.6067 -1.07651 4.36625 0
M  V30 574 C 54.3767 -0.778738 4.99263 0
M  V30 575 C 56.5747 -0.45062 5.12322 0
M  V30 576 N 54.5567 0.0200708 6.13897 0
M  V30 577 C 55.9277 0.212429 6.19636 0
M  V30 578 C 57.9827 -0.361806 4.96584 0
M  V30 579 C 56.6857 0.955772 7.12922 0
M  V30 580 C 58.7117 0.368023 5.90254 0
M  V30 581 C 58.0737 1.01968 6.96981 0
M  V30 582 H 54.1727 -0.333601 0.707272 0
M  V30 583 H 56.7567 -0.236425 1.93259 0
M  V30 584 H 54.9277 -2.55149 2.92837 0
M  V30 585 H 56.6597 -2.51228 3.1728 0
M  V30 586 H 53.4147 -1.09229 4.60832 0
M  V30 587 H 53.8387 0.407777 6.75771 0
M  V30 588 H 58.4807 -0.851286 4.14141 0
M  V30 589 H 56.1987 1.45683 7.9486 0
M  V30 590 H 59.7847 0.437504 5.80153 0
M  V30 591 H 58.6647 1.5754 7.68213 0
M  V30 592 N 56.1678 -1.49265 -0.50573 0
M  V30 593 C 57.0978 -1.68495 -1.61653 0
M  V30 594 C 58.0788 -0.53366 -1.61512 0
M  V30 595 O 59.2638 -0.76897 -1.78327 0
M  V30 596 C 56.3938 -1.74709 -3.00157 0
M  V30 597 C 55.3478 -2.89581 -3.15162 0
M  V30 598 C 54.6738 -2.80903 -4.5497 0
M  V30 599 C 55.9738 -4.30578 -2.95634 0
M  V30 600 H 57.6678 -2.61493 -1.45814 0
M  V30 601 H 55.2138 -1.25838 -0.70005 0
M  V30 602 H 57.1668 -1.86748 -3.77761 0
M  V30 603 H 55.8908 -0.783067 -3.17074 0
M  V30 604 H 54.5498 -2.77136 -2.39982 0
M  V30 605 H 54.1978 -1.82419 -4.68756 0
M  V30 606 H 53.8978 -3.57999 -4.65951 0
M  V30 607 H 55.4218 -2.94944 -5.34641 0
M  V30 608 H 56.8358 -4.4373 -3.63011 0
M  V30 609 H 55.2328 -5.0886 -3.18091 0
M  V30 610 H 56.3028 -4.45352 -1.91806 0
M  V30 611 N 57.6459 0.756429 -1.3826 0
M  V30 612 C 58.5929 1.87011 -1.35261 0
M  V30 613 C 59.5629 1.64695 -0.215616 0
M  V30 614 O 60.7479 1.864 -0.407399 0
M  V30 615 C 57.8879 3.24275 -1.18068 0
M  V30 616 C 57.0009 3.58442 -2.41129 0
M  V30 617 C 56.1359 4.84994 -2.16689 0
M  V30 618 C 55.1749 5.11939 -3.35537 0
M  V30 619 N 54.3119 6.29685 -3.10549 0
M  V30 620 H 59.1519 1.8891 -2.30472 0
M  V30 621 H 56.6889 0.923373 -1.14509 0
M  V30 622 H 58.6469 4.03479 -1.06116 0
M  V30 623 H 57.2769 3.21711 -0.264973 0
M  V30 624 H 56.3289 2.74103 -2.63764 0
M  V30 625 H 57.6409 3.74283 -3.29717 0
M  V30 626 H 56.7949 5.72135 -2.01857 0
M  V30 627 H 55.5339 4.71286 -1.25462 0
M  V30 628 H 54.5389 4.23268 -3.50891 0
M  V30 629 H 55.7639 5.27546 -4.27635 0
M  V30 630 H 53.7099 6.17306 -2.21967 0
M  V30 631 H 53.6269 6.46014 -3.92686 0
M  V30 632 H 54.8949 7.19722 -2.99367 0
M  V30 633 N 59.124 1.23083 0.984299 0
M  V30 634 C 60.056 0.96636 2.07832 0
M  V30 635 C 61.069 -0.0582135 1.62696 0
M  V30 636 O 62.258 0.176843 1.77622 0
M  V30 637 C 59.358 0.433397 3.36117 0
M  V30 638 C 58.531 1.51722 4.10243 0
M  V30 639 C 57.59 0.989821 5.16807 0
M  V30 640 O 56.616 1.67794 5.43906 0
M  V30 641 N 57.818 -0.184367 5.80207 0
M  V30 642 H 60.583 1.90824 2.31098 0
M  V30 643 H 58.144 1.13888 1.1507 0
M  V30 644 H 60.136 0.065699 4.04647 0
M  V30 645 H 58.706 -0.413806 3.09849 0
M  V30 646 H 57.926 2.05786 3.36223 0
M  V30 647 H 59.214 2.24619 4.56534 0
M  V30 648 H 58.612 -0.760062 5.60571 0
M  V30 649 H 57.169 -0.493366 6.4993 0
M  V30 650 N 60.6021 -1.18246 1.0419 0
M  V30 651 C 61.5491 -2.2192 0.634037 0
M  V30 652 C 62.5191 -1.62179 -0.358765 0
M  V30 653 O 63.7041 -1.89122 -0.252466 0
M  V30 654 C 60.8441 -3.451 0.00445535 0
M  V30 655 C 59.9571 -4.19174 1.04487 0
M  V30 656 C 59.0921 -5.29813 0.383676 0
M  V30 657 C 58.1311 -5.9566 1.4091 0
M  V30 658 N 57.2681 -6.97834 0.772784 0
M  V30 659 H 62.1081 -2.56164 1.52263 0
M  V30 660 H 59.6451 -1.25843 0.761701 0
M  V30 661 H 61.6031 -4.15485 -0.377919 0
M  V30 662 H 60.2331 -3.11472 -0.847652 0
M  V30 663 H 59.2851 -3.47604 1.54518 0
M  V30 664 H 60.5971 -4.64267 1.82368 0
M  V30 665 H 59.7511 -6.06677 -0.0528366 0
M  V30 666 H 58.4901 -4.85825 -0.427208 0
M  V30 667 H 57.4951 -5.17535 1.85574 0
M  V30 668 H 58.7201 -6.4173 2.22171 0
M  V30 669 H 56.6661 -6.55998 -0.0177708 0
M  V30 670 H 56.5831 -7.41186 1.48928 0
M  V30 671 H 57.8511 -7.78665 0.36071 0
M  V30 672 N 62.0802 -0.821533 -1.34494 0
M  V30 673 C 63.3262 -0.409552 -1.98622 0
M  V30 674 C 63.6592 1.0244 -1.64984 0
M  V30 675 O 62.9342 1.71325 -0.920758 0
M  V30 676 C 63.2172 -0.610458 -3.54888 0
M  V30 677 C 63.0702 -2.09043 -3.98273 0
M  V30 678 C 64.3892 -0.0455379 -4.40076 0
M  V30 679 H 61.5082 -0.15028 -0.721516 0
M  V30 680 H 64.1502 -1.03384 -1.59411 0
M  V30 681 H 62.3002 -0.079044 -3.8842 0
M  V30 682 H 63.9722 -2.68537 -3.75081 0
M  V30 683 H 62.2152 -2.58139 -3.48635 0
M  V30 684 H 62.8862 -2.18182 -5.07051 0
M  V30 685 H 65.3622 -0.499557 -4.1309 0
M  V30 686 H 64.2382 -0.215922 -5.48475 0
M  V30 687 H 64.4992 1.04939 -4.29465 0
M  V30 688 N 63.5583 1.46682 -0.576371 0
M  V30 689 C 64.8053 2.02412 -0.0595339 0
M  V30 690 C 65.1333 1.44859 1.29793 0
M  V30 691 O 64.3883 0.601099 1.8624 0
M  V30 692 C 64.6873 3.57345 0.062886 0
M  V30 693 C 64.3533 4.33908 -1.22616 0
M  V30 694 C 63.0153 4.54544 -1.57933 0
M  V30 695 C 65.3673 4.77919 -2.07948 0
M  V30 696 C 62.6953 5.16444 -2.78393 0
M  V30 697 C 65.0473 5.41149 -3.27629 0
M  V30 698 C 63.7113 5.60014 -3.63236 0
M  V30 699 H 62.9813 0.74068 -0.021785 0
M  V30 700 H 65.6283 1.76128 -0.751735 0
M  V30 701 H 63.9333 3.82729 0.838178 0
M  V30 702 H 65.6303 3.98136 0.478439 0
M  V30 703 H 62.2203 4.18138 -0.941202 0
M  V30 704 H 66.4043 4.61738 -1.81967 0
M  V30 705 H 61.6603 5.29242 -3.06126 0
M  V30 706 H 65.8343 5.74211 -3.94023 0
M  V30 707 H 63.4613 6.07748 -4.56669 0
M  V30 708 N 65.0364 0.313813 1.54444 0
M  V30 709 C 66.4524 -0.0391619 1.59552 0
M  V30 710 C 66.6524 -1.51322 1.33056 0
M  V30 711 O 65.7084 -2.26782 1.11022 0
M  V30 712 C 67.0214 0.370302 2.98411 0
M  V30 713 C 68.5694 0.320139 3.11358 0
M  V30 714 C 69.0444 0.704617 4.52547 0
M  V30 715 N 70.5354 0.657645 4.58508 0
M  V30 716 C 71.2704 0.927453 5.6585 0
M  V30 717 N 70.7664 1.26389 6.81174 0
M  V30 718 N 72.5594 0.853662 5.5558 0
M  V30 719 H 64.7104 1.27433 1.69925 0
M  V30 720 H 66.9734 0.517511 0.794284 0
M  V30 721 H 66.6794 1.39694 3.22767 0
M  V30 722 H 66.5534 -0.269619 3.76235 0
M  V30 723 H 68.9404 -0.697275 2.86744 0
M  V30 724 H 69.0214 0.99486 2.35661 0
M  V30 725 H 68.6654 1.7199 4.77893 0
M  V30 726 H 68.5954 0.00768843 5.26599 0
M  V30 727 H 71.0864 0.409067 3.75679 0
M  V30 728 H 71.3994 1.4554 7.58972 0
M  V30 729 H 69.7444 1.30206 6.82694 0
M  V30 730 H 72.9354 0.590383 4.64362 0
M  V30 731 H 73.1084 1.0673 6.3915 0
M  V30 732 N 66.5145 -1.57545 0.0417849 0
M  V30 733 C 67.4445 -2.14009 -0.933929 0
M  V30 734 C 68.4255 -1.05938 -1.33083 0
M  V30 735 O 69.6105 -1.33833 -1.40721 0
M  V30 736 C 66.7405 -2.67747 -2.21199 0
M  V30 737 C 65.6945 -3.80718 -1.95544 0
M  V30 738 C 65.0205 -4.20935 -3.29724 0
M  V30 739 C 66.3205 -5.06258 -1.28452 0
M  V30 740 H 68.0145 -2.95788 -0.463645 0
M  V30 741 H 65.5605 -1.42285 -0.221573 0
M  V30 742 H 67.5135 -3.05886 -2.89848 0
M  V30 743 H 66.2375 -1.83147 -2.70416 0
M  V30 744 H 64.8965 -3.43037 -1.2931 0
M  V30 745 H 64.5445 -3.33298 -3.76724 0
M  V30 746 H 64.2445 -4.9707 -3.13361 0
M  V30 747 H 65.7685 -4.61666 -3.9962 0
M  V30 748 H 67.1825 -5.41903 -1.8712 0
M  V30 749 H 65.5795 -5.87475 -1.22445 0
M  V30 750 H 66.6495 -4.84207 -0.259219 0
M  V30 751 N 67.9926 0.231505 -1.5589 0
M  V30 752 C 69.2406 0.955461 -1.78088 0
M  V30 753 C 69.5616 1.85262 -0.608533 0
M  V30 754 O 68.8316 1.92277 0.375035 0
M  V30 755 H 67.4116 0.355787 -0.656829 0
M  V30 756 H 70.0736 0.245751 -1.93344 0
M  V30 757 H 69.1696 1.56814 -2.69844 0
M  V30 758 N 69.4707 1.49531 0.497807 0
M  V30 759 C 70.3807 1.69176 1.62532 0
M  V30 760 C 71.3967 0.5744 1.64246 0
M  V30 761 O 72.5727 0.849497 1.82608 0
M  V30 762 C 69.6377 1.75695 2.98885 0
M  V30 763 C 68.6987 2.9929 3.07773 0
M  V30 764 C 67.9317 3.05488 4.37622 0
M  V30 765 O 68.1547 2.19192 5.26603 0
M  V30 766 O 67.0887 3.9798 4.51548 0
M  V30 767 H 70.9147 2.647 1.48887 0
M  V30 768 H 68.4997 1.3331 0.674441 0
M  V30 769 H 70.3817 1.82317 3.79919 0
M  V30 770 H 69.0567 0.8335 3.12785 0
M  V30 771 H 67.9637 2.98183 2.25915 0
M  V30 772 H 69.2967 3.91125 2.98801 0
M  V30 773 N 70.9488 -0.749086 1.3866 0
M  V30 774 C 72.2258 -1.4992 1.25632 0
M  V30 775 C 72.6058 -2.10633 -0.140317 0
M  V30 776 O 71.9538 -1.97437 -1.15025 0
M  V30 777 C 72.1638 -2.56195 2.36992 0
M  V30 778 C 73.5118 -3.22972 2.75634 0
M  V30 779 O 74.5358 -2.66502 2.36337 0
M  V30 780 O 73.3948 -4.25122 3.43415 0
M  V30 781 H 70.4888 -0.665067 0.491544 0
M  V30 782 H 73.0348 -0.784113 1.50498 0
M  V30 783 H 71.8068 -2.09612 3.30422 0
M  V30 784 H 71.4298 -3.35279 2.13714 0
M  V30 785 N 72.4269 -1.23603 -0.977757 0
M  V30 786 C 73.6729 -1.08136 -1.72274 0
M  V30 787 C 74.0279 0.377453 -1.88661 0
M  V30 788 O 73.3209 1.27552 -1.42972 0
M  V30 789 C 73.5149 -1.7433 -3.11999 0
M  V30 790 C 73.3439 -3.26498 -3.0924 0
M  V30 791 C 72.1139 -3.9567 -3.14282 0
M  V30 792 C 74.3119 -4.2323 -2.92201 0
M  V30 793 N 72.2939 -5.34799 -3.01436 0
M  V30 794 C 73.6649 -5.49289 -2.87544 0
M  V30 795 C 75.7199 -4.13931 -2.76705 0
M  V30 796 C 74.4229 -6.67116 -2.68978 0
M  V30 797 C 76.4489 -5.31424 -2.59504 0
M  V30 798 C 75.8109 -6.5641 -2.55548 0
M  V30 799 H 71.9099 -0.450247 -0.639376 0
M  V30 800 H 74.4939 -1.5637 -1.16002 0
M  V30 801 H 72.6649 -1.28624 -3.66484 0
M  V30 802 H 74.3969 -1.51815 -3.75146 0
M  V30 803 H 71.1519 -3.46767 -3.22567 0
M  V30 804 H 71.5759 -6.07748 -2.98281 0
M  V30 805 H 76.2179 -3.1807 -2.78552 0
M  V30 806 H 73.9359 -7.63109 -2.65876 0
M  V30 807 H 77.5219 -5.26072 -2.48474 0
M  V30 808 H 76.4019 -7.45795 -2.42405 0
M  V30 809 N 73.905 1.17692 -1.04816 0
M  V30 810 C 75.135 1.91508 -0.775128 0
M  V30 811 C 75.543 1.76844 0.67253 0
M  V30 812 O 74.886 1.10057 1.47082 0
M  V30 813 C 74.948 3.43167 -1.0713 0
M  V30 814 C 74.612 3.81612 -2.51438 0
M  V30 815 C 75.609 3.84772 -3.49638 0
M  V30 816 C 73.294 4.12687 -2.86348 0
M  V30 817 C 75.288 4.18469 -4.80794 0
M  V30 818 C 72.975 4.46053 -4.17708 0
M  V30 819 C 73.973 4.48921 -5.14741 0
M  V30 820 O 73.661 4.81504 -6.43746 0
M  V30 821 H 73.393 0.614575 -0.281555 0
M  V30 822 H 75.947 1.50206 -1.40098 0
M  V30 823 H 74.177 3.84745 -0.388342 0
M  V30 824 H 75.866 3.98239 -0.784883 0
M  V30 825 H 76.632 3.60893 -3.24008 0
M  V30 826 H 72.511 4.09627 -2.11486 0
M  V30 827 H 76.055 4.20623 -5.56527 0
M  V30 828 H 71.952 4.69393 -4.43103 0
M  V30 829 H 72.72 4.99377 -6.4851 0
M  V30 830 N 75.3831 0.828654 1.34056 0
M  V30 831 C 76.6301 0.419458 1.98108 0
M  V30 832 C 76.9581 -1.01886 1.65679 0
M  V30 833 O 76.2131 -1.72539 0.923512 0
M  V30 834 C 76.5121 0.575226 3.52741 0
M  V30 835 C 76.1781 1.98012 4.05095 0
M  V30 836 C 74.8401 2.36442 4.19104 0
M  V30 837 C 77.1921 2.89824 4.33188 0
M  V30 838 C 74.5201 3.66009 4.58535 0
M  V30 839 C 76.8721 4.1886 4.74066 0
M  V30 840 C 75.5361 4.5726 4.86281 0
M  V30 841 H 74.8061 0.153491 0.724929 0
M  V30 842 H 77.4531 1.05371 1.59904 0
M  V30 843 H 75.7581 -0.142385 3.91541 0
M  V30 844 H 77.4551 0.239057 4.00287 0
M  V30 845 H 74.0451 1.67162 3.94658 0
M  V30 846 H 78.2291 2.61375 4.21897 0
M  V30 847 H 73.4851 3.95579 4.66184 0
M  V30 848 H 77.6591 4.90086 4.94761 0
M  V30 849 H 75.2861 5.57707 5.16592 0
M  V30 850 N 76.8612 -1.46375 0.584142 0
M  V30 851 C 77.7912 -2.33103 -0.136037 0
M  V30 852 C 78.7722 -1.45431 -0.882255 0
M  V30 853 O 79.9572 -1.74246 -0.857434 0
M  V30 854 C 77.0872 -3.27731 -1.14933 0
M  V30 855 C 76.0412 -4.24855 -0.517862 0
M  V30 856 C 75.3672 -5.09001 -1.63773 0
M  V30 857 C 76.6672 -5.19439 0.545886 0
M  V30 858 H 78.3612 -2.93568 0.588086 0
M  V30 859 H 75.9072 -1.41166 0.284259 0
M  V30 860 H 77.8602 -3.87261 -1.66153 0
M  V30 861 H 76.5842 -2.65377 -1.90375 0
M  V30 862 H 75.2432 -3.6659 -0.0267361 0
M  V30 863 H 74.8912 -4.43031 -2.38185 0
M  V30 864 H 74.5912 -5.74777 -1.22085 0
M  V30 865 H 76.1152 -5.71396 -2.15266 0
M  V30 866 H 77.5292 -5.73177 0.118704 0
M  V30 867 H 75.9262 -5.93566 0.88317 0
M  V30 868 H 76.9962 -4.63285 1.43162 0
M  V30 869 N 78.3393 -0.321999 -1.54275 0
M  V30 870 C 79.2723 0.58718 -2.20516 0
M  V30 871 C 80.2503 1.11693 -1.18167 0
M  V30 872 O 81.4343 1.18122 -1.46899 0
M  V30 873 C 78.5613 1.80554 -2.86562 0
M  V30 874 C 77.6073 1.40718 -4.02617 0
M  V30 875 S 78.4403 0.445218 -5.33646 0
M  V30 876 C 79.5963 1.6709 -6.03185 0
M  V30 877 H 79.8293 0.0244875 -2.9729 0
M  V30 878 H 77.3623 -0.106087 -1.54035 0
M  V30 879 H 79.3203 2.50462 -3.25237 0
M  V30 880 H 77.9813 2.33942 -2.09595 0
M  V30 881 H 77.1743 2.31501 -4.47687 0
M  V30 882 H 76.7763 0.78782 -3.65608 0
M  V30 883 H 79.0683 2.60856 -6.25268 0
M  V30 884 H 80.0113 1.26239 -6.96756 0
M  V30 885 H 80.4193 1.85716 -5.33076 0
M  V30 886 N 79.8174 1.5752 -0.0501392 0
M  V30 887 C 81.0454 1.96963 0.633492 0
M  V30 888 C 81.4604 0.927631 1.6444 0
M  V30 889 O 80.8174 -0.0882665 1.82286 0
M  V30 890 C 80.8684 3.36487 1.32132 0
M  V30 891 O 80.5894 4.36693 0.350894 0
M  V30 892 C 82.0904 3.90682 2.09481 0
M  V30 893 H 79.3104 0.648244 0.173266 0
M  V30 894 H 81.8544 2.0417 -0.116134 0
M  V30 895 H 80.0094 3.30434 2.02218 0
M  V30 896 H 80.4234 5.17702 0.841735 0
M  V30 897 H 81.8974 4.90591 2.5303 0
M  V30 898 H 82.3744 3.26053 2.94255 0
M  V30 899 H 82.9804 4.00069 1.44307 0
M  V30 900 N 81.2955 -0.223234 1.56011 0
M  V30 901 C 82.2255 -1.27988 1.95298 0
M  V30 902 C 83.2065 -1.48976 0.820979 0
M  V30 903 O 84.3915 -1.61188 1.08315 0
M  V30 904 C 81.5215 -2.63 2.26822 0
M  V30 905 C 80.4755 -2.56671 3.42497 0
M  V30 906 C 79.8015 -3.95697 3.59622 0
M  V30 907 C 81.1015 -2.11601 4.77517 0
M  V30 908 H 82.7955 -0.953525 2.8381 0
M  V30 909 H 80.3415 -0.457244 1.36548 0
M  V30 910 H 82.2945 -3.37077 2.52898 0
M  V30 911 H 81.0185 -2.9732 1.35161 0
M  V30 912 H 79.6775 -1.85051 3.16467 0
M  V30 913 H 79.3255 -4.27322 2.6534 0
M  V30 914 H 79.0255 -3.92345 4.37424 0
M  V30 915 H 80.5495 -4.71438 3.88044 0
M  V30 916 H 81.9635 -2.7542 5.02809 0
M  V30 917 H 80.3605 -2.19311 5.5859 0
M  V30 918 H 81.4305 -1.06824 4.72987 0
M  V30 919 N 82.7736 -1.49793 -0.48987 0
M  V30 920 C 84.0216 -1.59525 -1.24081 0
M  V30 921 C 84.3426 -0.288953 -1.92847 0
M  V30 922 O 83.6126 0.692436 -1.83254 0
M  V30 923 H 82.1926 -0.587796 -0.460983 0
M  V30 924 H 84.8546 -1.86477 -0.566778 0
M  V30 925 H 83.9506 -2.39696 -1.99881 0
M  V30 926 N 84.2517 0.741722 -1.39055 0
M  V30 927 C 85.4977 1.50336 -1.36113 0
M  V30 928 C 85.8307 1.94148 0.0450796 0
M  V30 929 O 85.1057 1.66301 1.00868 0
M  V30 930 C 85.3887 2.74773 -2.32749 0
M  V30 931 C 85.2417 2.37023 -3.82283 0
M  V30 932 C 86.5607 3.76846 -2.27322 0
M  V30 933 H 83.6797 0.545351 -0.495743 0
M  V30 934 H 86.3217 0.848624 -1.69995 0
M  V30 935 H 84.4717 3.30639 -2.03986 0
M  V30 936 H 86.1437 1.8684 -4.21768 0
M  V30 937 H 84.3867 1.69334 -3.99385 0
M  V30 938 H 85.0577 3.26104 -4.45376 0
M  V30 939 H 87.5337 3.30548 -2.5274 0
M  V30 940 H 86.4097 4.6159 -2.97028 0
M  V30 941 H 86.6707 4.23286 -1.27599 0
M  V30 942 N 85.7298 1.2412 0.971189 0
M  V30 943 C 86.6598 1.05508 2.08304 0
M  V30 944 C 87.6408 -0.0308864 1.70072 0
M  V30 945 O 88.8258 0.135521 1.93727 0
M  V30 946 C 85.9558 0.655365 3.4106 0
M  V30 947 C 84.9098 1.68971 3.93234 0
M  V30 948 C 84.2358 1.14516 5.22293 0
M  V30 949 C 85.5358 3.08487 4.21465 0
M  V30 950 H 87.2298 1.98507 2.24132 0
M  V30 951 H 84.7758 0.955821 1.07704 0
M  V30 952 H 86.7288 0.51217 4.18276 0
M  V30 953 H 85.4528 -0.31032 3.25122 0
M  V30 954 H 84.1118 1.82106 3.18171 0
M  V30 955 H 83.7598 0.170189 5.02712 0
M  V30 956 H 83.4598 1.83635 5.58168 0
M  V30 957 H 84.9838 1.01401 6.02121 0
M  V30 958 H 86.3978 2.98601 4.89398 0
M  V30 959 H 84.7948 3.74926 4.68562 0
M  V30 960 H 85.8648 3.56787 3.28376 0
M  V30 961 N 87.2079 -1.17134 1.05439 0
M  V30 962 C 88.1409 -2.2012 0.601855 0
M  V30 963 C 89.1189 -1.58314 -0.370854 0
M  V30 964 O 90.3029 -1.8638 -0.281882 0
M  V30 965 C 87.4299 -3.38491 -0.118868 0
M  V30 966 C 86.4759 -4.18752 0.809242 0
M  V30 967 S 87.3089 -4.83602 2.29977 0
M  V30 968 C 88.4649 -6.0536 1.59029 0
M  V30 969 H 88.6979 -2.58165 1.47438 0
M  V30 970 H 86.2309 -1.27788 0.866573 0
M  V30 971 H 88.1889 -4.07084 -0.528495 0
M  V30 972 H 86.8499 -2.98829 -0.967465 0
M  V30 973 H 86.0429 -5.03373 0.251379 0
M  V30 974 H 85.6449 -3.5561 1.15835 0
M  V30 975 H 87.9369 -6.71615 0.891017 0
M  V30 976 H 88.8799 -6.65679 2.41407 0
M  V30 977 H 89.2879 -5.54138 1.07663 0
M  V30 978 N 88.686 -0.835752 -1.33615 0
M  V30 979 C 89.649 -0.272 -2.2758 0
M  V30 980 C 90.649 0.557487 -1.50827 0
M  V30 981 O 91.839 0.37173 -1.70188 0
M  V30 982 C 88.971 0.617173 -3.35267 0
M  V30 983 H 90.164 -1.10111 -2.78954 0
M  V30 984 H 87.717 -0.608594 -1.43965 0
M  V30 985 H 88.452 1.46884 -2.89129 0
M  V30 986 H 88.237 0.0237066 -3.92093 0
M  V30 987 H 89.727 1.005 -4.05326 0
M  V30 988 N 90.1641 1.46063 -0.591896 0
M  V30 989 C 91.0941 2.33172 0.123673 0
M  V30 990 C 92.0751 1.45897 0.87453 0
M  V30 991 O 93.2601 1.74698 0.848181 0
M  V30 992 C 90.3901 3.28336 1.13194 0
M  V30 993 C 89.3441 4.25124 0.495324 0
M  V30 994 C 88.6701 5.09863 1.61071 0
M  V30 995 C 89.9701 5.19143 -0.573425 0
M  V30 996 H 91.6641 2.93252 -0.603646 0
M  V30 997 H 89.2101 1.41014 -0.291741 0
M  V30 998 H 91.1631 3.88137 1.64097 0
M  V30 999 H 89.8871 2.66383 1.88965 0
M  V30 1000 H 88.5461 3.66599 0.00729452 0
M  V30 1001 H 88.1941 4.44288 2.35832 0
M  V30 1002 H 87.8941 5.75417 1.19035 0
M  V30 1003 H 89.4181 5.72529 2.12233 0
M  V30 1004 H 90.8321 5.73106 -0.1491 0
M  V30 1005 H 89.2291 5.93089 -0.914636 0
M  V30 1006 H 90.2991 4.62519 -1.45617 0
M  V30 1007 N 91.6422 0.330177 1.54103 0
M  V30 1008 C 92.8882 -0.270806 2.00984 0
M  V30 1009 C 93.2212 -1.51265 1.21789 0
M  V30 1010 O 92.4962 -1.92142 0.301927 0
M  V30 1011 C 92.7792 -0.598339 3.55094 0
M  V30 1012 C 92.6322 0.654674 4.4501 0
M  V30 1013 C 93.9512 -1.41334 4.16789 0
M  V30 1014 H 91.0702 -0.0969531 0.730595 0
M  V30 1015 H 93.7122 0.448066 1.84641 0
M  V30 1016 H 91.8622 -1.21078 3.69151 0
M  V30 1017 H 93.5342 1.29285 4.42813 0
M  V30 1018 H 91.7772 1.28224 4.14416 0
M  V30 1019 H 92.4482 0.380944 5.50684 0
M  V30 1020 H 94.9242 -0.895597 4.06347 0
M  V30 1021 H 93.8002 -1.61127 5.24718 0
M  V30 1022 H 94.0612 -2.41146 3.70541 0
M  V30 1023 N 93.1203 -1.57491 0.0584922 0
M  V30 1024 C 94.3453 -1.97711 -0.62652 0
M  V30 1025 C 94.7703 -0.936132 -1.63151 0
M  V30 1026 O 94.1283 0.099811 -1.81025 0
M  V30 1027 C 94.1763 -3.36989 -1.28338 0
M  V30 1028 O 93.2803 -3.35433 -2.39913 0
M  V30 1029 H 92.6213 -0.643868 -0.162266 0
M  V30 1030 H 95.1513 -2.04193 0.129064 0
M  V30 1031 H 95.1613 -3.73879 -1.63335 0
M  V30 1032 H 93.8363 -4.12289 -0.546889 0
M  V30 1033 H 92.4133 -3.10298 -2.06809 0
M  V30 1034 N 94.5984 0.214957 -1.56127 0
M  V30 1035 C 95.8284 0.953707 -1.8327 0
M  V30 1036 C 96.2364 1.78181 -0.636262 0
M  V30 1037 O 95.5794 1.79191 0.404516 0
M  V30 1038 C 95.6414 1.91516 -3.0424 0
M  V30 1039 C 95.3054 1.27094 -4.38972 0
M  V30 1040 C 96.3024 0.657575 -5.15725 0
M  V30 1041 C 93.9874 1.28073 -4.85698 0
M  V30 1042 C 95.9814 0.0625968 -6.37369 0
M  V30 1043 C 93.6684 0.681914 -6.07283 0
M  V30 1044 C 94.6664 0.0739046 -6.8296 0
M  V30 1045 O 94.3544 -0.515582 -8.02245 0
M  V30 1046 H 94.0864 0.284764 -0.613095 0
M  V30 1047 H 96.6404 0.233283 -2.04071 0
M  V30 1048 H 94.8704 2.67475 -2.79274 0
M  V30 1049 H 96.5594 2.52001 -3.18198 0
M  V30 1050 H 97.3254 0.642288 -4.80728 0
M  V30 1051 H 93.2044 1.74337 -4.26764 0
M  V30 1052 H 96.7484 -0.412593 -6.96379 0
M  V30 1053 H 92.6454 0.694636 -6.41752 0
M  V30 1054 H 93.4134 -0.410544 -8.1747 0
M  V30 1055 N 96.0765 1.50051 0.48192 0
M  V30 1056 C 97.0395 1.67584 1.5636 0
M  V30 1057 C 98.0395 0.546894 1.51214 0
M  V30 1058 O 99.2295 0.813725 1.54026 0
M  V30 1059 C 96.3615 1.691 2.96003 0
M  V30 1060 H 97.5545 2.64078 1.42136 0
M  V30 1061 H 95.1075 1.39369 0.707533 0
M  V30 1062 H 95.8425 0.742589 3.15684 0
M  V30 1063 H 95.6275 2.51105 3.01146 0
M  V30 1064 H 97.1175 1.84656 3.74556 0
M  V30 1065 N 97.5546 -0.734337 1.39446 0
M  V30 1066 C 98.4876 -1.85715 1.32609 0
M  V30 1067 C 99.4656 -1.6137 0.199636 0
M  V30 1068 O 100.65 -1.84626 0.380195 0
M  V30 1069 C 97.7766 -3.21709 1.05929 0
M  V30 1070 C 96.8226 -3.64913 2.20773 0
M  V30 1071 S 97.6556 -3.74203 3.83056 0
M  V30 1072 C 98.8116 -5.12986 3.58603 0
M  V30 1073 H 99.0446 -1.91232 2.27635 0
M  V30 1074 H 96.5776 -0.899263 1.25509 0
M  V30 1075 H 98.5356 -4.00236 0.912203 0
M  V30 1076 H 97.1966 -3.13848 0.125883 0
M  V30 1077 H 96.3896 -4.63606 1.97699 0
M  V30 1078 H 95.9916 -2.93593 2.31688 0
M  V30 1079 H 98.2836 -5.99339 3.15909 0
M  V30 1080 H 99.2266 -5.41088 4.5676 0
M  V30 1081 H 99.6346 -4.82694 2.9269 0
M  V30 1082 N 99.0327 -1.24633 -0.964593 0
M  V30 1083 C 99.9807 -1.03917 -2.08096 0
M  V30 1084 C 100.975 0.0268581 -1.69379 0
M  V30 1085 O 102.181 -0.127952 -1.79545 0
M  V30 1086 H 98.5557 -0.319044 -0.680966 0
M  V30 1087 H 100.527 -1.98581 -2.22729 0
M  V30 1088 C 99.2757 -0.663983 -3.41301 0
M  V30 1089 H 98.5987 -1.47605 -3.71555 0
M  V30 1090 H 100.039 -0.558663 -4.20303 0
M  V30 1091 C 98.4977 0.629169 -3.30973 0
M  V30 1092 O 99.0277 1.67404 -3.65156 0
M  V30 1093 N 97.2337 0.611057 -2.84103 0
M  V30 1094 H 96.7807 -0.239593 -2.56483 0
M  V30 1095 H 96.7387 1.47647 -2.77575 0
M  V30 1096 N 100.511 1.16574 -1.06058 0
M  V30 1097 C 101.758 1.87047 -0.775873 0
M  V30 1098 C 102.086 1.81562 0.697534 0
M  V30 1099 O 101.341 1.22445 1.52662 0
M  V30 1100 C 101.64 3.36195 -1.21275 0
M  V30 1101 C 101.306 3.6188 -2.68986 0
M  V30 1102 C 99.9678 3.68599 -3.09335 0
M  V30 1103 C 102.32 3.72648 -3.64394 0
M  V30 1104 C 99.6478 3.83584 -4.43937 0
M  V30 1105 C 102 3.89154 -4.98741 0
M  V30 1106 C 100.664 3.94114 -5.3873 0
M  V30 1107 H 99.9338 0.684452 -0.283912 0
M  V30 1108 H 102.581 1.37853 -1.32925 0
M  V30 1109 H 100.886 3.87505 -0.578528 0
M  V30 1110 H 102.583 3.89103 -0.969542 0
M  V30 1111 H 99.1728 3.57281 -2.36744 0
M  V30 1112 H 103.357 3.66769 -3.34356 0
M  V30 1113 H 98.6128 3.85677 -4.74409 0
M  V30 1114 H 102.787 3.96427 -5.72554 0
M  V30 1115 H 100.414 4.05478 -6.43033 0
M  V30 1116 N 101.989 0.842826 1.3317 0
M  V30 1117 C 102.952 0.284065 2.27433 0
M  V30 1118 C 103.952 -0.54948 1.5112 0
M  V30 1119 O 105.142 -0.362699 1.70382 0
M  V30 1120 C 102.274 -0.599384 3.35589 0
M  V30 1121 H 103.467 1.11589 2.78366 0
M  V30 1122 H 101.02 0.616221 1.4364 0
M  V30 1123 H 101.755 -1.45349 2.89904 0
M  V30 1124 H 101.54 -0.00291266 3.921 0
M  V30 1125 H 103.03 -0.983488 4.05854 0
M  V30 1126 N 103.467 -1.45747 0.599634 0
M  V30 1127 C 104.716 -2.01502 0.0893511 0
M  V30 1128 C 105.029 -1.4748 -1.28488 0
M  V30 1129 O 106.235 -1.95161 -1.88745 0
M  V30 1130 C 104.691 -3.59735 0.109082 0
M  V30 1131 C 104.299 -4.22754 1.48267 0
M  V30 1132 C 106.043 -4.23085 -0.346374 0
M  V30 1133 C 103.95 -5.73115 1.45921 0
M  V30 1134 H 102.88 -0.753417 0.0296347 0
M  V30 1135 H 105.531 -1.67303 0.753788 0
M  V30 1136 H 103.913 -3.91087 -0.621854 0
M  V30 1137 H 105.087 -4.02987 2.23468 0
M  V30 1138 H 103.402 -3.71567 1.87955 0
M  V30 1139 H 105.999 -5.33327 -0.38298 0
M  V30 1140 H 106.342 -3.93201 -1.36743 0
M  V30 1141 H 106.875 -3.9642 0.331038 0
M  V30 1142 H 103.614 -6.07685 2.45762 0
M  V30 1143 H 103.134 -5.95097 0.749665 0
M  V30 1144 H 104.813 -6.3616 1.17941 0
M  V30 1145 N 104.945 -0.338344 -1.53925 0
M  V30 1146 C 106.193 0.259245 -2.0043 0
M  V30 1147 C 106.514 1.51484 -1.22791 0
M  V30 1148 O 105.784 1.93037 -0.33368 0
M  V30 1149 H 104.364 0.0987845 -0.740439 0
M  V30 1150 H 107.026 -0.458302 -1.89435 0
M  V30 1151 H 106.122 0.505334 -3.07982 0
M  V30 1152 N 106.423 1.57458 -0.0668435 0
M  V30 1153 C 107.663 1.95175 0.607116 0
M  V30 1154 C 108.027 0.946039 1.67075 0
M  V30 1155 O 109.228 1.2107 2.39991 0
M  V30 1156 C 107.499 3.37582 1.17358 0
M  V30 1157 S 109.058 3.97271 1.86336 0
M  V30 1158 H 105.876 0.682604 0.19893 0
M  V30 1159 H 108.478 1.95002 -0.139519 0
M  V30 1160 H 107.182 4.08566 0.387553 0
M  V30 1161 H 106.713 3.41288 1.95669 0
M  V30 1162 H 108.728 3.83772 3.14537 0
M  V30 1163 N 107.901 -0.206675 1.56239 0
M  V30 1164 C 109.147 -0.930218 1.80208 0
M  V30 1165 C 109.48 -1.83387 0.638981 0
M  V30 1166 O 108.755 -1.91119 -0.361066 0
M  V30 1167 C 109.038 -1.75641 3.1436 0
M  V30 1168 C 108.891 -0.878257 4.41142 0
M  V30 1169 C 110.21 -2.73129 3.45092 0
M  V30 1170 H 107.329 -0.336742 0.655571 0
M  V30 1171 H 109.971 -0.198222 1.88963 0
M  V30 1172 H 108.121 -2.38048 3.07027 0
M  V30 1173 H 109.793 -0.269787 4.6051 0
M  V30 1174 H 108.036 -0.184385 4.33408 0
M  V30 1175 H 108.707 -1.49106 5.3148 0
M  V30 1176 H 111.183 -2.20856 3.52649 0
M  V30 1177 H 110.059 -3.28028 4.40101 0
M  V30 1178 H 110.32 -3.51606 2.68003 0
M  V30 1179 N 109.379 -1.50304 -0.473955 0
M  V30 1180 C 110.625 -1.61389 -1.22806 0
M  V30 1181 C 110.958 -0.311955 -1.91678 0
M  V30 1182 O 110.233 0.686384 -1.81986 0
M  V30 1183 C 110.516 -2.79219 -2.27396 0
M  V30 1184 C 110.369 -4.19286 -1.62848 0
M  V30 1185 C 111.688 -2.92614 -3.28732 0
M  V30 1186 H 108.807 -0.587399 -0.445119 0
M  V30 1187 H 111.449 -1.82681 -0.522265 0
M  V30 1188 H 109.599 -2.61195 -2.87592 0
M  V30 1189 H 111.271 -4.48892 -1.06271 0
M  V30 1190 H 109.514 -4.23677 -0.931693 0
M  V30 1191 H 110.185 -4.97655 -2.38838 0
M  V30 1192 H 112.661 -3.09105 -2.78556 0
M  V30 1193 H 111.537 -3.76688 -3.99246 0
M  V30 1194 H 111.798 -2.03107 -3.92683 0
M  V30 1195 N 110.857 0.726932 -1.39834 0
M  V30 1196 C 112.273 1.03354 -1.21615 0
M  V30 1197 C 112.473 2.01327 -0.08338 0
M  V30 1198 O 111.529 2.46158 0.56238 0
M  V30 1199 C 112.842 1.58811 -2.55342 0
M  V30 1200 C 114.39 1.70851 -2.62257 0
M  V30 1201 C 114.865 2.29716 -3.96225 0
M  V30 1202 N 116.356 2.37116 -3.97907 0
M  V30 1203 C 117.091 2.83619 -4.98345 0
M  V30 1204 N 116.587 3.29958 -6.09179 0
M  V30 1205 N 118.38 2.82901 -4.8572 0
M  V30 1206 H 110.531 0.0773069 -2.12259 0
M  V30 1207 H 112.794 0.0969102 -0.943034 0
M  V30 1208 H 112.5 0.942855 -3.38826 0
M  V30 1209 H 112.374 2.57502 -2.75632 0
M  V30 1210 H 114.761 2.34497 -1.79152 0
M  V30 1211 H 114.842 0.707913 -2.45809 0
M  V30 1212 H 114.486 1.66696 -4.79765 0
M  V30 1213 H 114.416 3.30469 -4.09997 0
M  V30 1214 H 116.907 2.04374 -3.17868 0
M  V30 1215 H 117.22 3.63976 -6.8172 0
M  V30 1216 H 115.565 3.27946 -6.12761 0
M  V30 1217 H 118.756 2.46027 -3.98231 0
M  V30 1218 H 118.929 3.18827 -5.6414 0
M  V30 1219 N 112.336 1.25143 0.95797 0
M  V30 1220 C 113.299 1.05321 2.03569 0
M  V30 1221 C 114.299 0.007152 1.60798 0
M  V30 1222 O 115.489 0.24903 1.72411 0
M  V30 1223 C 112.621 0.598394 3.35607 0
M  V30 1224 H 113.814 2.00986 2.22586 0
M  V30 1225 H 111.367 1.07502 1.13459 0
M  V30 1226 H 112.102 -0.361014 3.22284 0
M  V30 1227 H 111.887 1.35351 3.67998 0
M  V30 1228 H 113.377 0.48104 4.1482 0
M  V30 1229 N 113.814 -1.1601 1.06675 0
M  V30 1230 C 114.764 -2.18512 0.650888 0
M  V30 1231 C 115.748 -1.57677 -0.320441 0
M  V30 1232 O 116.94 -1.76482 -0.135266 0
M  V30 1233 C 114.069 -3.43273 0.0429255 0
M  V30 1234 C 113.155 -4.11176 1.03898 0
M  V30 1235 N 113.546 -4.54672 2.216 0
M  V30 1236 C 111.844 -4.37417 0.870779 0
M  V30 1237 C 112.545 -5.07248 2.84736 0
M  V30 1238 N 111.521 -5.0037 2.12441 0
M  V30 1239 H 115.323 -2.49863 1.54745 0
M  V30 1240 H 112.837 -1.32503 0.938975 0
M  V30 1241 H 114.834 -4.16006 -0.272857 0
M  V30 1242 H 113.494 -3.13408 -0.84884 0
M  V30 1243 H 114.505 -4.4828 2.59356 0
M  V30 1244 H 111.182 -4.17488 0.0313293 0
M  V30 1245 H 112.572 -5.50912 3.84636 0
M  V30 1246 N 115.292 -0.849877 -1.32721 0
M  V30 1247 C 116.224 -0.248332 -2.27851 0
M  V30 1248 C 117.237 0.577218 -1.52224 0
M  V30 1249 O 118.426 0.402489 -1.73903 0
M  V30 1250 C 115.526 0.668107 -3.32249 0
M  V30 1251 C 114.699 -0.120534 -4.37234 0
M  V30 1252 C 113.758 0.720932 -5.21238 0
M  V30 1253 O 112.784 0.156166 -5.68986 0
M  V30 1254 N 113.986 2.03647 -5.43607 0
M  V30 1255 H 116.751 -1.06575 -2.80111 0
M  V30 1256 H 114.312 -0.709395 -1.45531 0
M  V30 1257 H 116.304 1.23627 -3.85355 0
M  V30 1258 H 114.874 1.38621 -2.80184 0
M  V30 1259 H 114.094 -0.870108 -3.84477 0
M  V30 1260 H 115.382 -0.662406 -5.0447 0
M  V30 1261 H 114.78 2.51871 -5.06535 0
M  V30 1262 H 113.337 2.55287 -5.99727 0
M  V30 1263 N 116.77 1.45427 -0.607355 0
M  V30 1264 C 118.016 2.03097 -0.111035 0
M  V30 1265 C 118.371 1.46735 1.24445 0
M  V30 1266 O 117.664 0.632478 1.8086 0
M  V30 1267 C 117.858 3.57398 -0.0129263 0
M  V30 1268 C 117.687 4.28726 -1.35735 0
M  V30 1269 C 116.457 4.66659 -1.93798 0
M  V30 1270 C 118.655 4.60699 -2.28607 0
M  V30 1271 N 116.637 5.22845 -3.21723 0
M  V30 1272 C 118.008 5.17716 -3.41131 0
M  V30 1273 C 120.063 4.42638 -2.27982 0
M  V30 1274 C 118.766 5.58576 -4.53194 0
M  V30 1275 C 120.792 4.84531 -3.39093 0
M  V30 1276 C 120.154 5.4164 -4.50339 0
M  V30 1277 H 116.253 0.777476 -0.083994 0
M  V30 1278 H 118.837 1.77249 -0.805655 0
M  V30 1279 H 117.008 3.82907 0.650914 0
M  V30 1280 H 118.74 4.01722 0.490033 0
M  V30 1281 H 115.495 4.50207 -1.47007 0
M  V30 1282 H 115.919 5.55438 -3.87063 0
M  V30 1283 H 120.561 3.97798 -1.43235 0
M  V30 1284 H 118.279 6.02382 -5.38667 0
M  V30 1285 H 121.865 4.72289 -3.39757 0
M  V30 1286 H 120.745 5.73461 -5.34895 0
M  V30 1287 N 118.248 0.346503 1.53744 0
M  V30 1288 C 119.178 -0.501193 2.28058 0
M  V30 1289 C 120.159 -1.10014 1.29734 0
M  V30 1290 O 121.344 -1.12097 1.58581 0
M  V30 1291 C 118.474 -1.65078 3.05559 0
M  V30 1292 C 117.428 -1.18003 4.11411 0
M  V30 1293 C 116.754 -2.41837 4.76884 0
M  V30 1294 C 118.054 -0.278394 5.21558 0
M  V30 1295 H 119.748 0.11875 2.99164 0
M  V30 1296 H 117.294 0.0585531 1.43881 0
M  V30 1297 H 119.247 -2.25028 3.56287 0
M  V30 1298 H 117.971 -2.29767 2.32109 0
M  V30 1299 H 116.63 -0.603331 3.61601 0
M  V30 1300 H 116.278 -3.0494 4.00026 0
M  V30 1301 H 115.978 -2.1102 5.48402 0
M  V30 1302 H 117.502 -3.02508 5.30397 0
M  V30 1303 H 118.916 -0.784823 5.67903 0
M  V30 1304 H 117.313 -0.0619707 6.00068 0
M  V30 1305 H 118.383 0.684677 4.80042 0
M  V30 1306 N 119.726 -1.57421 0.075193 0
M  V30 1307 C 120.956 -1.97659 -0.601203 0
M  V30 1308 C 121.364 -0.952427 -1.63479 0
M  V30 1309 O 120.707 0.0688241 -1.83571 0
M  V30 1310 C 120.769 -3.34218 -1.32434 0
M  V30 1311 C 120.433 -4.5484 -0.443826 0
M  V30 1312 C 121.43 -5.19034 0.299969 0
M  V30 1313 C 119.115 -5.00952 -0.367709 0
M  V30 1314 C 121.109 -6.27695 1.10807 0
M  V30 1315 C 118.796 -6.09484 0.444058 0
M  V30 1316 C 119.794 -6.72719 1.18061 0
M  V30 1317 O 119.482 -7.79161 1.97898 0
M  V30 1318 H 119.214 -0.65494 -0.167422 0
M  V30 1319 H 121.768 -2.04886 0.145157 0
M  V30 1320 H 119.998 -3.23615 -2.11685 0
M  V30 1321 H 121.687 -3.59038 -1.89331 0
M  V30 1322 H 122.453 -4.84351 0.250776 0
M  V30 1323 H 118.332 -4.51509 -0.930638 0
M  V30 1324 H 121.876 -6.76982 1.68347 0
M  V30 1325 H 117.773 -6.43601 0.494803 0
M  V30 1326 H 118.541 -7.96055 1.90367 0
M  V30 1327 N 121.204 0.198386 -1.56346 0
M  V30 1328 C 122.62 0.549085 -1.49857 0
M  V30 1329 C 122.82 1.86016 -0.774611 0
M  V30 1330 O 121.876 2.50416 -0.323776 0
M  V30 1331 C 123.189 0.606868 -2.94512 0
M  V30 1332 C 124.737 0.695925 -3.05165 0
M  V30 1333 C 125.212 0.784848 -4.51225 0
M  V30 1334 N 126.703 0.848463 -4.55363 0
M  V30 1335 C 127.438 0.937378 -5.65686 0
M  V30 1336 N 126.934 0.9888 -6.85707 0
M  V30 1337 N 128.727 0.974312 -5.53592 0
M  V30 1338 H 120.878 -0.661655 -2.01831 0
M  V30 1339 H 123.141 -0.235261 -0.918344 0
M  V30 1340 H 122.847 -0.28732 -3.50524 0
M  V30 1341 H 122.721 1.46268 -3.47686 0
M  V30 1342 H 125.108 1.58055 -2.49204 0
M  V30 1343 H 125.189 -0.186022 -2.55123 0
M  V30 1344 H 124.833 -0.0954072 -5.0781 0
M  V30 1345 H 124.763 1.68255 -4.98997 0
M  V30 1346 H 127.254 0.818103 -3.68938 0
M  V30 1347 H 127.567 1.05707 -7.65536 0
M  V30 1348 H 125.912 0.957534 -6.88372 0
M  V30 1349 H 129.103 0.930954 -4.58749 0
M  V30 1350 H 129.276 1.04015 -6.39597 0
M  V30 1351 N 122.682 1.50554 0.465978 0
M  V30 1352 C 123.592 1.72585 1.58907 0
M  V30 1353 C 124.608 0.60911 1.6299 0
M  V30 1354 O 125.784 0.88804 1.80765 0
M  V30 1355 C 122.849 1.81995 2.95091 0
M  V30 1356 C 121.91 3.05751 3.01355 0
M  V30 1357 C 121.143 3.14702 4.31043 0
M  V30 1358 O 121.366 2.30313 5.21835 0
M  V30 1359 O 120.3 4.07468 4.43005 0
M  V30 1360 H 124.126 2.67799 1.43239 0
M  V30 1361 H 121.711 1.34711 0.646013 0
M  V30 1362 H 123.593 1.90335 3.75966 0
M  V30 1363 H 122.268 0.899659 3.10947 0
M  V30 1364 H 121.175 3.02908 2.19539 0
M  V30 1365 H 122.508 3.97375 2.90437 0
M  V30 1366 N 124.16 -0.719506 1.40217 0
M  V30 1367 C 125.409 -1.47486 1.37589 0
M  V30 1368 C 125.722 -1.9559 -0.0201568 0
M  V30 1369 O 126.928 -2.70973 -0.169049 0
M  V30 1370 C 125.384 -2.66575 2.41796 0
M  V30 1371 C 124.992 -2.25358 3.87192 0
M  V30 1372 C 126.736 -3.4433 2.48269 0
M  V30 1373 C 124.643 -3.41262 4.83005 0
M  V30 1374 H 123.573 -0.553901 0.511576 0
M  V30 1375 H 126.224 -0.783427 1.65936 0
M  V30 1376 H 124.606 -3.3787 2.06543 0
M  V30 1377 H 125.78 -1.61509 4.31569 0
M  V30 1378 H 124.095 -1.60657 3.84159 0
M  V30 1379 H 126.692 -4.30569 3.17041 0
M  V30 1380 H 127.035 -3.87872 1.51198 0
M  V30 1381 H 127.568 -2.80076 2.82493 0
M  V30 1382 H 124.307 -3.02755 5.81394 0
M  V30 1383 H 123.827 -4.0404 4.43297 0
M  V30 1384 H 125.506 -4.07383 5.02641 0
M  V30 1385 N 125.638 -1.25649 -0.95132 0
M  V30 1386 C 126.886 -1.10375 -1.69298 0
M  V30 1387 C 127.207 0.355339 -1.91735 0
M  V30 1388 O 126.477 1.25188 -1.50681 0
M  V30 1389 H 125.057 -0.405461 -0.627384 0
M  V30 1390 H 127.719 -1.57823 -1.14358 0
M  V30 1391 H 126.815 -1.61465 -2.67087 0
M  V30 1392 N 127.117 1.15442 -1.07289 0
M  V30 1393 C 128.394 1.82306 -0.708792 0
M  V30 1394 C 128.774 1.94991 0.808807 0
M  V30 1395 O 128.122 1.50085 1.72298 0
M  V30 1396 C 128.332 3.18695 -1.42247 0
M  V30 1397 C 129.68 3.94341 -1.57417 0
M  V30 1398 O 130.704 3.28247 -1.38319 0
M  V30 1399 O 129.563 5.12839 -1.88834 0
M  V30 1400 H 126.657 0.787628 -0.252132 0
M  V30 1401 H 129.203 1.22559 -1.17377 0
M  V30 1402 H 127.975 3.04557 -2.45684 0
M  V30 1403 H 127.598 3.86128 -0.948223 0
M  V30 1404 N 128.595 0.856903 1.32268 0
M  V30 1405 C 129.82 0.474569 2.01897 0
M  V30 1406 C 130.245 -0.921766 1.63967 0
M  V30 1407 O 129.603 -1.60589 0.84148 0
M  V30 1408 C 129.651 0.623799 3.55164 0
M  V30 1409 O 128.755 -0.342459 4.10976 0
M  V30 1410 H 128.096 0.190422 0.63611 0
M  V30 1411 H 130.626 1.15672 1.68764 0
M  V30 1412 H 130.636 0.512169 4.04773 0
M  V30 1413 H 129.311 1.64202 3.82113 0
M  V30 1414 H 127.888 -0.18688 3.72431 0
M  V30 1415 N 130.073 -1.45103 0.615059 0
M  V30 1416 C 131.023 -2.27679 -0.120966 0
M  V30 1417 C 132.007 -1.3775 -0.831491 0
M  V30 1418 O 133.199 -1.61683 -0.720249 0
M  V30 1419 C 130.328 -3.24767 -1.1127 0
M  V30 1420 C 129.414 -4.22184 -0.402627 0
M  V30 1421 N 129.805 -5.02692 0.559884 0
M  V30 1422 C 128.103 -4.4125 -0.649202 0
M  V30 1423 C 128.804 -5.73421 0.977942 0
M  V30 1424 N 127.78 -5.42657 0.320104 0
M  V30 1425 H 131.582 -2.87325 0.618181 0
M  V30 1426 H 129.096 -1.56345 0.439304 0
M  V30 1427 H 131.093 -3.82666 -1.65446 0
M  V30 1428 H 129.753 -2.66682 -1.85232 0
M  V30 1429 H 130.764 -5.09354 0.936976 0
M  V30 1430 H 127.441 -3.9428 -1.37293 0
M  V30 1431 H 128.831 -6.48107 1.77222 0
M  V30 1432 N 131.551 -0.354651 -1.53558 0
M  V30 1433 C 132.481 0.489091 -2.2832 0
M  V30 1434 C 133.462 1.09324 -1.30316 0
M  V30 1435 O 134.647 1.11255 -1.59173 0
M  V30 1436 C 131.777 1.63456 -3.0643 0
M  V30 1437 C 130.731 1.1582 -4.12031 0
M  V30 1438 C 130.057 2.39305 -4.7816 0
M  V30 1439 C 131.357 0.250731 -5.21698 0
M  V30 1440 H 133.051 -0.134614 -2.99097 0
M  V30 1441 H 130.597 -0.0661826 -1.43848 0
M  V30 1442 H 132.55 2.23136 -3.57475 0
M  V30 1443 H 131.274 2.28533 -2.33325 0
M  V30 1444 H 129.933 0.584146 -3.61916 0
M  V30 1445 H 129.581 3.02814 -4.01637 0
M  V30 1446 H 129.281 2.08109 -5.49513 0
M  V30 1447 H 130.805 2.99691 -5.31994 0
M  V30 1448 H 132.219 0.754695 -5.68311 0
M  V30 1449 H 130.616 0.0301468 -6.00092 0
M  V30 1450 H 131.686 -0.710125 -4.79672 0
M  V30 1451 N 133.029 1.57378 -0.0835403 0
M  V30 1452 C 133.959 2.1641 0.87686 0
M  V30 1453 C 134.94 1.09429 1.30228 0
M  V30 1454 O 136.125 1.37516 1.37124 0
M  V30 1455 C 133.255 2.73517 2.14022 0
M  V30 1456 C 132.209 3.85769 1.85381 0
M  V30 1457 C 131.535 4.29529 3.18448 0
M  V30 1458 C 132.835 5.09486 1.14984 0
M  V30 1459 H 134.529 2.96914 0.385059 0
M  V30 1460 H 132.075 1.42823 0.18377 0
M  V30 1461 H 134.028 3.13463 2.81636 0
M  V30 1462 H 132.752 1.90252 2.65465 0
M  V30 1463 H 131.411 3.46345 1.20169 0
M  V30 1464 H 131.059 3.43169 3.67755 0
M  V30 1465 H 130.759 5.05204 3.00071 0
M  V30 1466 H 132.283 4.72099 3.8724 0
M  V30 1467 H 133.697 5.46674 1.72687 0
M  V30 1468 H 132.094 5.90515 1.06826 0
M  V30 1469 H 133.164 4.84724 0.130749 0
M  V30 1470 N 134.507 -0.190092 1.56449 0
M  V30 1471 C 135.923 -0.54113 1.50146 0
M  V30 1472 C 136.123 -1.85603 0.784465 0
M  V30 1473 O 135.179 -2.5024 0.337051 0
M  V30 1474 C 136.492 -0.591241 2.9483 0
M  V30 1475 C 138.04 -0.679732 3.0553 0
M  V30 1476 C 138.515 -0.760908 4.51635 0
M  V30 1477 N 140.006 -0.824302 4.55806 0
M  V30 1478 C 140.741 -0.907365 5.66175 0
M  V30 1479 N 140.237 -0.952422 6.86222 0
M  V30 1480 N 142.03 -0.94494 5.541 0
M  V30 1481 H 134.181 0.67235 2.01478 0
M  V30 1482 H 136.444 0.240127 0.917084 0
M  V30 1483 H 136.15 0.305905 3.50367 0
M  V30 1484 H 136.024 -1.44422 3.48457 0
M  V30 1485 H 138.411 -1.56731 2.50039 0
M  V30 1486 H 138.492 0.199549 2.5502 0
M  V30 1487 H 138.136 0.122336 5.07753 0
M  V30 1488 H 138.066 -1.65606 4.99882 0
M  V30 1489 H 140.557 -0.798526 3.69367 0
M  V30 1490 H 140.87 -1.01645 7.66086 0
M  V30 1491 H 139.215 -0.921014 6.8887 0
M  V30 1492 H 142.406 -0.906612 4.59236 0
M  V30 1493 H 142.579 -1.00622 6.4014 0
M  V30 1494 N 135.985 -1.50799 -0.457987 0
M  V30 1495 C 137.215 -1.65977 -1.23025 0
M  V30 1496 C 137.623 -0.347918 -1.85974 0
M  V30 1497 O 136.966 0.68148 -1.70592 0
M  V30 1498 C 137.028 -2.70309 -2.3701 0
M  V30 1499 C 136.692 -4.135 -1.94594 0
M  V30 1500 C 137.689 -4.98949 -1.46101 0
M  V30 1501 C 135.374 -4.5949 -2.02915 0
M  V30 1502 C 137.368 -6.28442 -1.06489 0
M  V30 1503 C 135.055 -5.88984 -1.62914 0
M  V30 1504 C 136.053 -6.73286 -1.1478 0
M  V30 1505 O 135.741 -8.00362 -0.75339 0
M  V30 1506 H 135.473 -0.56064 -0.377702 0
M  V30 1507 H 138.027 -1.97857 -0.551537 0
M  V30 1508 H 136.257 -2.337 -3.08093 0
M  V30 1509 H 137.946 -2.74574 -2.98938 0
M  V30 1510 H 138.712 -4.6463 -1.39084 0
M  V30 1511 H 134.591 -3.94009 -2.39328 0
M  V30 1512 H 138.135 -6.94194 -0.688488 0
M  V30 1513 H 134.032 -6.22822 -1.69595 0
M  V30 1514 H 134.8 -8.13744 -0.88108 0
M  V30 1515 N 137.463 0.71206 -1.40597 0
M  V30 1516 C 138.393 1.83889 -1.43899 0
M  V30 1517 C 139.374 1.67442 -0.299504 0
M  V30 1518 O 140.559 1.87421 -0.508624 0
M  V30 1519 C 137.689 3.21877 -1.30431 0
M  V30 1520 C 136.643 3.53002 -2.42019 0
M  V30 1521 C 135.969 4.90172 -2.13626 0
M  V30 1522 C 137.269 3.53643 -3.84362 0
M  V30 1523 H 138.963 1.81383 -2.38203 0
M  V30 1524 H 136.509 0.871237 -1.14654 0
M  V30 1525 H 138.462 4.00404 -1.31357 0
M  V30 1526 H 137.186 3.24968 -0.326049 0
M  V30 1527 H 135.845 2.76818 -2.40349 0
M  V30 1528 H 135.493 4.89869 -1.14182 0
M  V30 1529 H 135.193 5.11962 -2.88389 0
M  V30 1530 H 136.717 5.71028 -2.1624 0
M  V30 1531 H 138.131 4.22203 -3.87837 0
M  V30 1532 H 136.528 3.86961 -4.58673 0
M  V30 1533 H 137.598 2.52954 -4.13693 0
M  V30 1534 N 138.941 1.26152 0.944643 0
M  V30 1535 C 140.166 1.14363 1.7302 0
M  V30 1536 C 140.591 -0.29772 1.85729 0
M  V30 1537 O 139.949 -1.2157 1.34501 0
M  V30 1538 C 139.997 1.81378 3.11664 0
M  V30 1539 O 139.101 1.10022 3.97453 0
M  V30 1540 H 138.442 0.398694 0.53098 0
M  V30 1541 H 140.972 1.66906 1.18337 0
M  V30 1542 H 140.982 1.88064 3.62072 0
M  V30 1543 H 139.657 2.86237 3.0173 0
M  V30 1544 H 138.234 1.11287 3.55907 0
M  V30 1545 N 140.419 -1.14872 1.07899 0
M  V30 1546 C 141.665 -1.86289 0.81657 0
M  V30 1547 C 142.02 -1.8107 -0.65049 0
M  V30 1548 O 141.313 -1.22684 -1.47171 0
M  V30 1549 C 141.507 -3.34223 1.26609 0
M  V30 1550 C 141.336 -3.53846 2.77531 0
M  V30 1551 C 140.106 -3.68995 3.45212 0
M  V30 1552 C 142.304 -3.51201 3.75716 0
M  V30 1553 N 140.286 -3.76725 4.84718 0
M  V30 1554 C 141.657 -3.65112 5.01092 0
M  V30 1555 C 143.712 -3.34507 3.68794 0
M  V30 1556 C 142.415 -3.64056 6.20368 0
M  V30 1557 C 144.441 -3.34752 4.8754 0
M  V30 1558 C 143.803 -3.49199 6.11751 0
M  V30 1559 H 139.902 -0.698579 0.351443 0
M  V30 1560 H 142.486 -1.37713 1.37634 0
M  V30 1561 H 140.657 -3.81402 0.73395 0
M  V30 1562 H 142.389 -3.93377 0.95062 0
M  V30 1563 H 139.144 -3.70006 2.95622 0
M  V30 1564 H 139.568 -3.8432 5.5734 0
M  V30 1565 H 144.21 -3.22253 2.73702 0
M  V30 1566 H 141.928 -3.75087 7.15776 0
M  V30 1567 H 145.514 -3.23055 4.83866 0
M  V30 1568 H 144.394 -3.49328 7.02097 0
M  V30 1569 N 141.898 -0.863906 -1.31812 0
M  V30 1570 C 143.126 -0.486111 -2.01108 0
M  V30 1571 C 143.541 0.919755 -1.64882 0
M  V30 1572 O 142.898 1.60162 -0.874893 0
M  V30 1573 C 142.949 -0.626435 -3.56031 0
M  V30 1574 O 142.67 -1.97693 -3.90959 0
M  V30 1575 C 144.171 -0.248857 -4.42601 0
M  V30 1576 H 141.391 -0.190052 -0.643523 0
M  V30 1577 H 143.935 -1.1634 -1.68182 0
M  V30 1578 H 142.09 0.00322717 -3.874 0
M  V30 1579 H 142.504 -1.98034 -4.85678 0
M  V30 1580 H 143.978 -0.398016 -5.50563 0
M  V30 1581 H 144.455 0.811489 -4.31638 0
M  V30 1582 H 145.061 -0.853971 -4.16638 0
M  V30 1583 N 143.376 1.44774 -0.622745 0
M  V30 1584 C 144.622 2.0242 -0.124083 0
M  V30 1585 C 144.955 1.4881 1.24777 0
M  V30 1586 O 144.23 0.668799 1.8264 0
M  V30 1587 C 144.513 3.59957 -0.101619 0
M  V30 1588 C 144.366 4.23867 -1.50521 0
M  V30 1589 C 145.685 4.36284 0.578272 0
M  V30 1590 H 142.804 0.735528 -0.0465645 0
M  V30 1591 H 145.446 1.72447 -0.797617 0
M  V30 1592 H 143.596 3.85623 0.471934 0
M  V30 1593 H 145.268 4.09336 -2.12701 0
M  V30 1594 H 143.511 3.81684 -2.06154 0
M  V30 1595 H 144.182 5.32843 -1.4416 0
M  V30 1596 H 146.658 4.16001 0.0906057 0
M  V30 1597 H 145.534 5.46004 0.563149 0
M  V30 1598 H 145.795 4.10271 1.64713 0
M  V30 1599 N 144.854 0.36279 1.53368 0
M  V30 1600 C 146.084 -0.228281 2.05335 0
M  V30 1601 C 146.492 -1.43226 1.23625 0
M  V30 1602 O 145.835 -1.81717 0.269206 0
M  V30 1603 C 145.897 -0.688549 3.52845 0
M  V30 1604 C 145.561 0.398362 4.5526 0
M  V30 1605 C 146.558 1.24732 5.04716 0
M  V30 1606 C 144.243 0.557805 4.99193 0
M  V30 1607 C 146.237 2.2411 5.96702 0
M  V30 1608 C 143.924 1.55495 5.90986 0
M  V30 1609 C 144.922 2.39503 6.39631 0
M  V30 1610 O 144.61 3.37517 7.29615 0
M  V30 1611 H 144.342 -0.044395 0.674541 0
M  V30 1612 H 146.896 0.518668 1.98744 0
M  V30 1613 H 145.126 -1.48706 3.56964 0
M  V30 1614 H 146.815 -1.20231 3.87685 0
M  V30 1615 H 147.581 1.13532 4.71525 0
M  V30 1616 H 143.46 -0.0862959 4.60919 0
M  V30 1617 H 147.004 2.89718 6.34594 0
M  V30 1618 H 142.901 1.66744 6.23592 0
M  V30 1619 H 143.669 3.33213 7.47604 0
M  V30 1620 N 146.332 -1.57332 0.0918853 0
M  V30 1621 C 147.743 -1.81496 -0.437739 0
M  V30 1622 C 148.094 -1.00727 -1.6837 0
M  V30 1623 O 147.219 -0.235694 -2.15113 0
M  V30 1624 C 147.814 -3.29197 -0.800939 0
M  V30 1625 C 146.373 -3.54136 -1.27532 0
M  V30 1626 C 145.52 -2.75979 -0.270392 0
M  V30 1627 H 148.471 -1.55494 0.317366 0
M  V30 1628 H 148.492 -3.42344 -1.66074 0
M  V30 1629 H 148.004 -3.87955 0.106078 0
M  V30 1630 H 146.105 -3.00705 -2.20016 0
M  V30 1631 H 146.218 -4.62792 -1.23938 0
M  V30 1632 H 144.582 -2.43349 -0.751872 0
M  V30 1633 H 145.365 -3.37484 0.629248 0
M  V30 1634 N 147.81 0.181792 -1.56548 0
M  V30 1635 C 149.056 0.901431 -1.81665 0
M  V30 1636 C 149.389 1.82347 -0.668075 0
M  V30 1637 O 148.664 1.91669 0.330615 0
M  V30 1638 C 148.947 1.70618 -3.17115 0
M  V30 1639 C 148.8 0.807964 -4.42484 0
M  V30 1640 C 150.119 2.67605 -3.49393 0
M  V30 1641 H 147.238 0.32627 -0.660846 0
M  V30 1642 H 149.88 0.168134 -1.89255 0
M  V30 1643 H 148.03 2.33133 -3.10775 0
M  V30 1644 H 149.702 0.19649 -4.60881 0
M  V30 1645 H 147.945 0.115411 -4.33646 0
M  V30 1646 H 148.616 1.40632 -5.33785 0
M  V30 1647 H 151.092 2.15218 -3.56118 0
M  V30 1648 H 149.968 3.20985 -4.45264 0
M  V30 1649 H 150.229 3.47298 -2.73563 0
M  V30 1650 N 149.288 1.51039 0.449983 0
M  V30 1651 C 150.251 1.70863 1.5277 0
M  V30 1652 C 151.251 0.578846 1.5002 0
M  V30 1653 O 152.441 0.846213 1.52266 0
M  V30 1654 C 149.573 1.75341 2.9235 0
M  V30 1655 H 150.766 2.67034 1.36502 0
M  V30 1656 H 148.319 1.40838 0.677812 0
M  V30 1657 H 149.054 0.809383 3.14037 0
M  V30 1658 H 148.839 2.57436 2.95752 0
M  V30 1659 H 150.329 1.92559 3.70555 0
M  V30 1660 N 150.766 -0.704594 1.40972 0
M  V30 1661 C 151.696 -1.83124 1.44872 0
M  V30 1662 C 152.677 -1.67281 0.30838 0
M  V30 1663 O 153.862 -1.87149 0.518556 0
M  V30 1664 C 150.992 -3.21181 1.32136 0
M  V30 1665 C 149.946 -3.51714 2.43888 0
M  V30 1666 C 149.272 -4.89032 2.16222 0
M  V30 1667 C 150.572 -3.516 3.86232 0
M  V30 1668 H 152.266 -1.80117 2.39161 0
M  V30 1669 H 149.812 -0.865145 1.15114 0
M  V30 1670 H 151.765 -3.99702 1.33479 0
M  V30 1671 H 150.489 -3.24791 0.343279 0
M  V30 1672 H 149.148 -2.75539 2.41813 0
M  V30 1673 H 148.796 -4.89256 1.16778 0
M  V30 1674 H 148.496 -5.10426 2.911 0
M  V30 1675 H 150.02 -5.69873 2.19265 0
M  V30 1676 H 151.434 -4.2014 3.9007 0
M  V30 1677 H 149.831 -3.84523 4.60719 0
M  V30 1678 H 150.901 -2.50757 4.15029 0
M  V30 1679 N 152.244 -1.26651 -0.937939 0
M  V30 1680 C 153.49 -1.12553 -1.687 0
M  V30 1681 C 153.823 0.329782 -1.91379 0
M  V30 1682 O 153.098 1.24202 -1.4968 0
M  V30 1683 C 153.381 -1.89862 -3.05981 0
M  V30 1684 C 153.234 -3.43318 -2.90607 0
M  V30 1685 C 154.553 -1.69499 -4.0615 0
M  V30 1686 H 151.672 -0.410257 -0.612257 0
M  V30 1687 H 154.314 -1.55685 -1.08913 0
M  V30 1688 H 152.464 -1.53204 -3.57017 0
M  V30 1689 H 154.136 -3.89747 -2.46769 0
M  V30 1690 H 152.379 -3.70179 -2.26164 0
M  V30 1691 H 153.05 -3.92642 -3.8799 0
M  V30 1692 H 155.526 -2.01442 -3.64088 0
M  V30 1693 H 154.402 -2.26002 -5.00214 0
M  V30 1694 H 154.663 -0.640365 -4.37438 0
M  V30 1695 N 153.722 1.14298 -1.08507 0
M  V30 1696 C 154.947 1.8976 -0.837001 0
M  V30 1697 C 155.372 1.78097 0.605228 0
M  V30 1698 O 154.73 1.12188 1.4242 0
M  V30 1699 C 154.778 3.37685 -1.26495 0
M  V30 1700 O 153.882 4.10281 -0.417514 0
M  V30 1701 H 153.223 0.590365 -0.303917 0
M  V30 1702 H 155.753 1.44672 -1.44676 0
M  V30 1703 H 155.763 3.88501 -1.24625 0
M  V30 1704 H 154.438 3.45492 -2.31534 0
M  V30 1705 H 153.015 3.69536 -0.499722 0
M  V30 1706 N 155.201 0.870884 1.31352 0
M  V30 1707 C 156.448 0.482273 1.96673 0
M  V30 1708 C 156.776 -0.965638 1.68836 0
M  V30 1709 O 156.031 -1.69514 0.977937 0
M  V30 1710 C 156.33 0.687157 3.50732 0
M  V30 1711 C 155.996 2.108 3.9859 0
M  V30 1712 C 154.658 2.49656 4.1137 0
M  V30 1713 C 157.01 3.03459 4.23748 0
M  V30 1714 C 154.338 3.80412 4.46659 0
M  V30 1715 C 156.69 4.3373 4.60501 0
M  V30 1716 C 155.354 4.725 4.71487 0
M  V30 1717 H 154.624 0.176476 0.719679 0
M  V30 1718 H 157.271 1.10405 1.56471 0
M  V30 1719 H 155.576 -0.0177476 3.91796 0
M  V30 1720 H 157.273 0.366284 3.99324 0
M  V30 1721 H 153.863 1.79633 3.8914 0
M  V30 1722 H 158.047 2.74665 4.13368 0
M  V30 1723 H 153.303 4.1021 4.53362 0
M  V30 1724 H 157.477 5.05578 4.78919 0
M  V30 1725 H 155.104 5.73859 4.98588 0
M  V30 1726 N 156.679 -1.44442 0.630414 0
M  V30 1727 C 157.904 -2.06927 0.139944 0
M  V30 1728 C 158.329 -1.46795 -1.17613 0
M  V30 1729 O 157.687 -0.569144 -1.72135 0
M  V30 1730 C 157.735 -3.6058 0.0379581 0
M  V30 1731 O 156.839 -3.99937 -1.0062 0
M  V30 1732 H 156.18 -0.658608 0.0844483 0
M  V30 1733 H 158.71 -1.85327 0.866891 0
M  V30 1734 H 158.72 -4.07714 -0.152856 0
M  V30 1735 H 157.395 -4.03728 0.998809 0
M  V30 1736 H 155.972 -3.64436 -0.79001 0
M  V30 1737 N 158.157 -0.370918 -1.53173 0
M  V30 1738 C 159.382 0.220293 -2.06227 0
M  V30 1739 C 159.807 1.41243 -1.24225 0
M  V30 1740 O 159.165 1.79387 -0.262645 0
M  V30 1741 C 159.213 0.586663 -3.55796 0
M  V30 1742 O 158.317 1.68317 -3.76488 0
M  V30 1743 H 157.658 0.0308099 -0.663285 0
M  V30 1744 H 160.188 -0.533068 -1.97534 0
M  V30 1745 H 160.198 0.85617 -3.98916 0
M  V30 1746 H 158.873 -0.285013 -4.14922 0
M  V30 1747 H 157.45 1.40881 -3.45264 0
M  V30 1748 N 159.635 1.57281 -0.100228 0
M  V30 1749 C 160.883 1.94153 0.561157 0
M  V30 1750 C 161.204 0.983157 1.68401 0
M  V30 1751 O 160.474 0.0361132 1.95867 0
M  V30 1752 H 159.054 0.716791 0.210283 0
M  V30 1753 H 161.716 1.94202 -0.164765 0
M  V30 1754 H 160.812 2.96709 0.968008 0
M  V30 1755 N 161.113 -0.173488 1.56642 0
M  V30 1756 C 162.36 -0.890465 1.81871 0
M  V30 1757 C 162.688 -1.82339 0.67696 0
M  V30 1758 O 161.943 -1.92795 -0.335926 0
M  V30 1759 C 162.242 -1.72069 3.13252 0
M  V30 1760 C 161.908 -0.936878 4.41059 0
M  V30 1761 C 160.57 -0.720545 4.75775 0
M  V30 1762 C 162.922 -0.386919 5.19762 0
M  V30 1763 C 160.25 0.0568829 5.86672 0
M  V30 1764 C 162.602 0.37741 6.31473 0
M  V30 1765 C 161.266 0.604563 6.64757 0
M  V30 1766 H 160.536 -0.325844 0.665512 0
M  V30 1767 H 163.183 -0.155527 1.90867 0
M  V30 1768 H 161.488 -2.52496 2.99588 0
M  V30 1769 H 163.185 -2.27844 3.29982 0
M  V30 1770 H 159.775 -1.11553 4.13828 0
M  V30 1771 H 163.959 -0.541398 4.93338 0
M  V30 1772 H 159.215 0.242635 6.10918 0
M  V30 1773 H 163.389 0.810825 6.91664 0
M  V30 1774 H 161.016 1.20885 7.50527 0
M  V30 1775 N 162.591 -1.51276 -0.441967 0
M  V30 1776 C 163.816 -1.67799 -1.21895 0
M  V30 1777 C 164.241 -0.372864 -1.84367 0
M  V30 1778 O 163.599 0.666501 -1.68604 0
M  V30 1779 C 163.647 -2.79199 -2.28211 0
M  V30 1780 O 162.751 -2.42479 -3.33583 0
M  V30 1781 H 162.092 -0.559649 -0.357336 0
M  V30 1782 H 164.622 -1.97815 -0.522522 0
M  V30 1783 H 164.632 -3.03146 -2.73069 0
M  V30 1784 H 163.307 -3.73906 -1.82118 0
M  V30 1785 H 161.884 -2.29087 -2.94234 0
M  V30 1786 N 164.069 0.697108 -1.41344 0
M  V30 1787 C 165.001 1.8224 -1.39001 0
M  V30 1788 C 166.014 1.60152 -0.292428 0
M  V30 1789 O 167.203 1.69684 -0.554048 0
M  V30 1790 C 164.303 3.18976 -1.14489 0
M  V30 1791 C 163.476 3.68105 -2.36258 0
M  V30 1792 C 162.535 4.83506 -2.07625 0
M  V30 1793 O 161.561 4.95201 -2.8065 0
M  V30 1794 N 162.763 5.70637 -1.06555 0
M  V30 1795 H 165.528 1.84742 -2.35988 0
M  V30 1796 H 163.089 0.87937 -1.35936 0
M  V30 1797 H 165.081 3.93801 -0.932885 0
M  V30 1798 H 163.651 3.11508 -0.261043 0
M  V30 1799 H 162.871 2.84204 -2.7317 0
M  V30 1800 H 164.159 3.97667 -3.17393 0
M  V30 1801 H 163.557 5.63817 -0.461125 0
M  V30 1802 H 162.114 6.45368 -0.913444 0
M  V30 1803 N 165.547 1.27147 0.931209 0
M  V30 1804 C 166.772 1.16191 1.71797 0
M  V30 1805 C 167.197 -0.278004 1.86034 0
M  V30 1806 O 166.555 -1.20137 1.35782 0
M  V30 1807 C 166.603 1.84673 3.09723 0
M  V30 1808 O 165.707 1.14231 3.96264 0
M  V30 1809 H 165.048 0.404303 0.526721 0
M  V30 1810 H 167.578 1.68152 1.1656 0
M  V30 1811 H 167.588 1.91893 3.60057 0
M  V30 1812 H 166.263 2.89421 2.98677 0
M  V30 1813 H 164.84 1.15056 3.54706 0
M  V30 1814 N 167.025 -1.13721 1.09112 0
M  V30 1815 C 168.274 -1.84275 0.82009 0
M  V30 1816 C 168.587 -1.84253 -0.656509 0
M  V30 1817 O 169.793 -2.50668 -1.04296 0
M  V30 1818 C 168.249 -3.30825 1.41714 0
M  V30 1819 C 167.857 -3.39244 2.92605 0
M  V30 1820 C 169.601 -4.06443 1.22492 0
M  V30 1821 C 167.508 -4.80047 3.45411 0
M  V30 1822 H 166.438 -0.690387 0.30312 0
M  V30 1823 H 169.089 -1.28146 1.31343 0
M  V30 1824 H 167.471 -3.86737 0.851498 0
M  V30 1825 H 168.645 -2.93344 3.55367 0
M  V30 1826 H 166.96 -2.77088 3.10823 0
M  V30 1827 H 169.557 -5.10387 1.59402 0
M  V30 1828 H 169.9 -4.15972 0.165299 0
M  V30 1829 H 170.433 -3.56852 1.75788 0
M  V30 1830 H 167.172 -4.75709 4.50978 0
M  V30 1831 H 166.692 -5.26455 2.87411 0
M  V30 1832 H 168.371 -5.48957 3.42425 0
M  V30 1833 N 168.503 -0.877838 -1.30888 0
M  V30 1834 C 169.731 -0.507414 -2.00581 0
M  V30 1835 C 170.146 0.902216 -1.65848 0
M  V30 1836 O 169.503 1.59225 -0.891831 0
M  V30 1837 C 169.554 -0.664162 -3.55347 0
M  V30 1838 O 169.275 -2.01829 -3.8884 0
M  V30 1839 C 170.776 -0.295787 -4.42312 0
M  V30 1840 H 167.996 -0.196866 -0.641471 0
M  V30 1841 H 170.54 -1.18117 -1.66939 0
M  V30 1842 H 168.695 -0.0378619 -3.87381 0
M  V30 1843 H 169.109 -2.03174 -4.8355 0
M  V30 1844 H 170.583 -0.456388 -5.5011 0
M  V30 1845 H 171.06 0.765663 -4.32475 0
M  V30 1846 H 171.666 -0.898113 -4.15709 0
M  V30 1847 N 169.982 1.44106 -0.638065 0
M  V30 1848 C 171.393 1.85316 -0.226894 0
M  V30 1849 C 171.744 1.53399 1.22324 0
M  V30 1850 O 170.869 0.975463 1.93167 0
M  V30 1851 C 171.464 3.3637 -0.405013 0
M  V30 1852 C 170.023 3.76369 -0.0482902 0
M  V30 1853 C 169.17 2.67921 -0.715108 0
M  V30 1854 H 172.121 1.34474 -0.842764 0
M  V30 1855 H 172.142 3.7885 0.354 0
M  V30 1856 H 171.654 3.59569 -1.46053 0
M  V30 1857 H 169.755 3.58784 1.00522 0
M  V30 1858 H 169.868 4.76856 -0.463187 0
M  V30 1859 H 168.232 2.54259 -0.149753 0
M  V30 1860 H 169.015 2.93951 -1.77335 0
M  V30 1861 N 171.46 0.379036 1.52974 0
M  V30 1862 C 172.685 -0.209353 2.06341 0
M  V30 1863 C 173.11 -1.40583 1.24972 0
M  V30 1864 O 172.468 -1.79246 0.272155 0
M  V30 1865 C 172.516 -0.567786 3.56102 0
M  V30 1866 O 171.62 -1.66318 3.77375 0
M  V30 1867 H 170.961 -0.0272919 0.663439 0
M  V30 1868 H 173.491 0.543536 1.97248 0
M  V30 1869 H 173.501 -0.835003 3.99364 0
M  V30 1870 H 172.176 0.307013 4.14765 0
M  V30 1871 H 170.753 -1.39048 3.46006 0
M  V30 1872 N 172.938 -1.57226 0.108567 0
M  V30 1873 C 174.163 -1.99604 -0.563303 0
M  V30 1874 C 174.588 -0.987563 -1.6009 0
M  V30 1875 O 173.946 0.0421687 -1.81251 0
M  V30 1876 C 173.994 -3.40902 -1.17552 0
M  V30 1877 O 173.098 -3.42896 -2.2912 0
M  V30 1878 H 172.439 -0.648704 -0.1417 0
M  V30 1879 H 174.969 -2.03679 0.193961 0
M  V30 1880 H 174.979 -3.78886 -1.51357 0
M  V30 1881 H 173.654 -4.1382 -0.415445 0
M  V30 1882 H 172.231 -3.1672 -1.96832 0
M  V30 1883 N 174.416 0.165178 -1.56732 0
M  V30 1884 C 175.664 0.879068 -1.8198 0
M  V30 1885 C 175.985 1.82514 -0.686561 0
M  V30 1886 O 175.255 1.93694 0.293146 0
M  V30 1887 H 173.835 0.327608 -0.671329 0
M  V30 1888 H 176.497 0.163526 -1.94213 0
M  V30 1889 H 175.593 1.45228 -2.76252 0
M  V30 1890 N 175.894 1.51508 0.433938 0
M  V30 1891 C 177.142 1.6402 1.18075 0
M  V30 1892 C 177.463 0.360328 1.91642 0
M  V30 1893 O 176.733 -0.623945 1.85698 0
M  V30 1894 H 175.313 0.6045 0.43885 0
M  V30 1895 H 177.975 1.88452 0.497178 0
M  V30 1896 H 177.071 2.46949 1.90847 0
M  V30 1897 N 177.372 -0.689602 1.41712 0
M  V30 1898 C 178.597 -1.48329 1.44959 0
M  V30 1899 C 179.022 -1.8801 0.0581283 0
M  V30 1900 O 178.38 -1.55026 -0.940035 0
M  V30 1901 C 178.428 -2.71835 2.36935 0
M  V30 1902 O 177.532 -3.69549 1.8305 0
M  V30 1903 H 176.873 -0.446199 0.491734 0
M  V30 1904 H 179.403 -0.847127 1.86239 0
M  V30 1905 H 179.413 -3.20076 2.53013 0
M  V30 1906 H 178.088 -2.42291 3.38035 0
M  V30 1907 H 176.665 -3.2851 1.76452 0
M  V30 1908 N 178.85 -1.27639 -0.924453 0
M  V30 1909 C 180.098 -1.13941 -1.66918 0
M  V30 1910 C 180.419 0.314589 -1.92446 0
M  V30 1911 O 179.689 1.21964 -1.53303 0
M  V30 1912 H 178.269 -0.418678 -0.618642 0
M  V30 1913 H 180.931 -1.60213 -1.10985 0
M  V30 1914 H 180.027 -1.67094 -2.63602 0
M  V30 1915 N 180.328 1.1314 -1.09713 0
M  V30 1916 C 181.577 1.83838 -0.829851 0
M  V30 1917 C 181.89 1.84599 0.646728 0
M  V30 1918 O 183.096 2.51218 1.02965 0
M  V30 1919 C 181.552 3.30069 -1.43466 0
M  V30 1920 C 181.16 3.37688 -2.94399 0
M  V30 1921 C 182.904 4.05788 -1.24645 0
M  V30 1922 C 180.811 4.78209 -3.47952 0
M  V30 1923 H 179.741 0.68877 -0.306777 0
M  V30 1924 H 182.392 1.27448 -1.3202 0
M  V30 1925 H 180.774 3.8628 -0.871996 0
M  V30 1926 H 181.948 2.91456 -3.56918 0
M  V30 1927 H 180.263 2.75436 -3.12289 0
M  V30 1928 H 182.86 5.09535 -1.62107 0
M  V30 1929 H 183.203 4.15878 -0.187357 0
M  V30 1930 H 183.736 3.55915 -1.77678 0
M  V30 1931 H 180.475 4.73311 -4.53495 0
M  V30 1932 H 179.995 5.24924 -2.90198 0
M  V30 1933 H 181.674 5.47133 -3.45332 0
M  V30 1934 N 181.806 0.884767 1.30421 0
M  V30 1935 C 183.217 0.553656 1.78302 0
M  V30 1936 C 183.568 -0.930153 1.7275 0
M  V30 1937 O 182.693 -1.72681 1.30423 0
M  V30 1938 C 183.288 0.998234 3.2376 0
M  V30 1939 C 181.847 0.71854 3.69478 0
M  V30 1940 C 180.994 1.18132 2.50879 0
M  V30 1941 H 183.945 1.06901 1.17294 0
M  V30 1942 H 183.966 0.327118 3.79091 0
M  V30 1943 H 183.478 2.0782 3.27769 0
M  V30 1944 H 181.579 -0.349444 3.70958 0
M  V30 1945 H 181.692 1.30595 4.60958 0
M  V30 1946 H 180.056 0.600669 2.47516 0
M  V30 1947 H 180.839 2.26902 2.57624 0
M  V30 1948 N 183.284 -1.43765 0.645699 0
M  V30 1949 C 184.194 -2.34544 -0.0512957 0
M  V30 1950 C 185.21 -1.53455 -0.82022 0
M  V30 1951 O 186.386 -1.86133 -0.769176 0
M  V30 1952 C 183.451 -3.31636 -1.01087 0
M  V30 1953 C 182.512 -4.2863 -0.239712 0
M  V30 1954 C 181.745 -5.21084 -1.15358 0
M  V30 1955 O 181.968 -5.1779 -2.39269 0
M  V30 1956 O 180.902 -5.98593 -0.630038 0
M  V30 1957 H 184.728 -2.95624 0.695718 0
M  V30 1958 H 182.313 -1.43781 0.405882 0
M  V30 1959 H 184.195 -3.9136 -1.56254 0
M  V30 1960 H 182.87 -2.73069 -1.73824 0
M  V30 1961 H 181.777 -3.72408 0.355356 0
M  V30 1962 H 183.11 -4.90157 0.447936 0
M  V30 1963 N 184.763 -0.387143 -1.52771 0
M  V30 1964 C 185.693 0.440551 -2.29306 0
M  V30 1965 C 186.674 1.06535 -1.32606 0
M  V30 1966 O 187.859 1.07853 -1.61497 0
M  V30 1967 C 184.989 1.56919 -3.09829 0
M  V30 1968 C 183.943 1.07054 -4.14395 0
M  V30 1969 C 183.269 2.29109 -4.83129 0
M  V30 1970 C 184.569 0.140015 -5.22112 0
M  V30 1971 H 186.263 -0.198026 -2.98744 0
M  V30 1972 H 183.809 -0.09668 -1.43675 0
M  V30 1973 H 185.762 2.15503 -3.62128 0
M  V30 1974 H 184.486 2.23532 -2.3812 0
M  V30 1975 H 183.145 0.507247 -3.63074 0
M  V30 1976 H 182.793 2.94227 -4.0797 0
M  V30 1977 H 182.493 1.96406 -5.53804 0
M  V30 1978 H 184.017 2.88339 -5.38231 0
M  V30 1979 H 185.431 0.633978 -5.69784 0
M  V30 1980 H 183.828 -0.0971485 -6.00021 0
M  V30 1981 H 184.898 -0.811711 -4.78058 0
M  V30 1982 N 186.241 1.57166 -0.116904 0
M  V30 1983 C 187.188 2.15202 0.83408 0
M  V30 1984 C 188.158 1.07644 1.26499 0
M  V30 1985 O 189.343 1.35541 1.34288 0
M  V30 1986 C 186.483 2.75405 2.07957 0
M  V30 1987 C 185.596 3.97264 1.69721 0
M  V30 1988 C 184.731 4.45561 2.89221 0
M  V30 1989 C 183.77 5.59956 2.47215 0
M  V30 1990 N 182.907 6.03006 3.59622 0
M  V30 1991 H 187.747 2.96141 0.332335 0
M  V30 1992 H 185.284 1.46309 0.152349 0
M  V30 1993 H 187.242 3.08439 2.80929 0
M  V30 1994 H 185.872 1.97159 2.55594 0
M  V30 1995 H 184.924 3.70404 0.866316 0
M  V30 1996 H 186.236 4.80226 1.34849 0
M  V30 1997 H 185.39 4.80493 3.7042 0
M  V30 1998 H 184.129 3.61544 3.27318 0
M  V30 1999 H 183.134 5.2463 1.64448 0
M  V30 2000 H 184.359 6.45738 2.10238 0
M  V30 2001 H 182.305 5.21931 3.97396 0
M  V30 2002 H 182.222 6.80819 3.28667 0
M  V30 2003 H 183.49 6.42576 4.41267 0
M  V30 2004 N 187.719 -0.156864 1.56817 0
M  V30 2005 C 188.947 -0.886316 1.86955 0
M  V30 2006 C 189.362 -1.75185 0.703975 0
M  V30 2007 O 188.719 -1.79555 -0.326552 0
M  V30 2008 C 188.77 -1.75117 3.16253 0
M  V30 2009 O 188.491 -0.920537 4.2832 0
M  V30 2010 C 189.992 -2.58905 3.59837 0
M  V30 2011 H 187.212 -0.25678 0.619923 0
M  V30 2012 H 189.756 -0.152615 2.0393 0
M  V30 2013 H 187.911 -2.43805 3.01062 0
M  V30 2014 H 188.325 -1.51337 5.02192 0
M  V30 2015 H 189.799 -3.1518 4.53172 0
M  V30 2016 H 190.276 -3.34472 2.84649 0
M  V30 2017 H 190.882 -1.95526 3.7769 0
M  V30 2018 N 189.197 -1.51736 -0.425897 0
M  V30 2019 C 190.13 -1.68574 -1.53812 0
M  V30 2020 C 191.108 -0.53328 -1.53606 0
M  V30 2021 O 192.292 -0.758555 -1.72564 0
M  V30 2022 C 189.419 -1.70977 -2.92377 0
M  V30 2023 C 188.465 -2.92324 -3.10563 0
M  V30 2024 S 189.298 -4.52952 -2.85648 0
M  V30 2025 C 190.454 -4.58117 -4.26474 0
M  V30 2026 H 190.687 -2.62647 -1.39298 0
M  V30 2027 H 188.22 -1.41564 -0.616361 0
M  V30 2028 H 190.178 -1.73047 -3.72243 0
M  V30 2029 H 188.839 -0.78061 -3.04245 0
M  V30 2030 H 188.032 -2.90439 -4.11899 0
M  V30 2031 H 187.634 -2.88055 -2.38538 0
M  V30 2032 H 189.926 -4.34462 -5.19855 0
M  V30 2033 H 190.869 -5.59983 -4.33388 0
M  V30 2034 H 191.277 -3.8732 -4.10662 0
M  V30 2035 N 190.675 0.682077 -1.42076 0
M  V30 2036 C 191.605 1.80796 -1.47767 0
M  V30 2037 C 192.586 1.6677 -0.334954 0
M  V30 2038 O 193.771 1.863 -0.548264 0
M  V30 2039 C 190.901 3.19038 -1.37229 0
M  V30 2040 C 189.855 3.47789 -2.49453 0
M  V30 2041 C 189.181 4.8553 -2.23975 0
M  V30 2042 C 190.481 3.45411 -3.91776 0
M  V30 2043 H 192.175 1.7629 -2.41997 0
M  V30 2044 H 189.721 0.846721 -1.16476 0
M  V30 2045 H 191.674 3.97528 -1.39821 0
M  V30 2046 H 190.398 3.24204 -0.394907 0
M  V30 2047 H 189.057 2.71657 -2.46166 0
M  V30 2048 H 188.705 4.87337 -1.24547 0
M  V30 2049 H 188.405 5.0573 -2.99184 0
M  V30 2050 H 189.929 5.66312 -2.28304 0
M  V30 2051 H 191.343 4.13882 -3.96705 0
M  V30 2052 H 189.74 3.77145 -4.66778 0
M  V30 2053 H 190.81 2.44122 -4.18966 0
M  V30 2054 N 192.153 1.28127 0.917671 0
M  V30 2055 C 193.116 1.11744 2.00115 0
M  V30 2056 C 194.116 0.0583052 1.60694 0
M  V30 2057 O 195.306 0.303755 1.71531 0
M  V30 2058 C 192.438 0.704862 3.33533 0
M  V30 2059 H 193.631 2.07966 2.16079 0
M  V30 2060 H 191.184 1.11058 1.09981 0
M  V30 2061 H 191.919 -0.258299 3.2327 0
M  V30 2062 H 191.704 1.4699 3.63505 0
M  V30 2063 H 193.194 0.612768 4.1308 0
M  V30 2064 N 193.631 -1.12557 1.10312 0
M  V30 2065 C 194.879 -1.83675 0.843091 0
M  V30 2066 C 195.2 -1.84435 -0.633131 0
M  V30 2067 O 194.47 -1.30657 -1.45964 0
M  V30 2068 H 193.05 -0.680138 0.308904 0
M  V30 2069 H 195.712 -1.36301 1.39313 0
M  V30 2070 H 194.808 -2.87908 1.2048 0
M  V30 2071 N 195.109 -0.891671 -1.2995 0
M  V30 2072 C 196.355 -0.514261 -1.96171 0
M  V30 2073 C 196.688 0.935506 -1.70182 0
M  V30 2074 O 195.963 1.66204 -1.01028 0
M  V30 2075 C 196.246 -0.797719 -3.51153 0
M  V30 2076 C 196.099 -2.2986 -3.86632 0
M  V30 2077 C 197.418 -0.278749 -4.39216 0
M  V30 2078 H 194.537 -0.188314 -0.712535 0
M  V30 2079 H 197.179 -1.11689 -1.53706 0
M  V30 2080 H 195.329 -0.284826 -3.87455 0
M  V30 2081 H 197.001 -2.88042 -3.60319 0
M  V30 2082 H 195.244 -2.76257 -3.34462 0
M  V30 2083 H 195.915 -2.44753 -4.94773 0
M  V30 2084 H 198.391 -0.717825 -4.09862 0
M  V30 2085 H 197.267 -0.506353 -5.46559 0
M  V30 2086 H 197.528 0.820266 -4.34424 0
M  V30 2087 N 196.587 1.43421 -0.653314 0
M  V30 2088 C 197.836 2.01032 -0.164076 0
M  V30 2089 C 198.149 1.52147 1.22926 0
M  V30 2090 O 199.355 2.02031 1.81371 0
M  V30 2091 C 197.811 3.59082 -0.24252 0
M  V30 2092 C 197.419 4.1696 -1.63855 0
M  V30 2093 C 199.163 4.24079 0.18911 0
M  V30 2094 C 197.07 5.67304 -1.67092 0
M  V30 2095 H 196 0.751798 -0.0575769 0
M  V30 2096 H 198.651 1.6439 -0.815362 0
M  V30 2097 H 197.033 3.93125 0.476276 0
M  V30 2098 H 198.207 3.94416 -2.38271 0
M  V30 2099 H 196.522 3.64335 -2.01616 0
M  V30 2100 H 199.119 5.34381 0.184775 0
M  V30 2101 H 199.462 3.98005 1.22056 0
M  V30 2102 H 199.995 3.94918 -0.477938 0
M  V30 2103 H 196.734 5.98145 -2.68146 0
M  V30 2104 H 196.254 5.91904 -0.970014 0
M  V30 2105 H 197.933 6.31344 -1.4147 0
M  V30 2106 N 198.065 0.39524 1.52563 0
M  V30 2107 C 198.995 -0.428384 2.29537 0
M  V30 2108 C 199.976 -1.05831 1.33169 0
M  V30 2109 O 201.161 -1.06995 1.62067 0
M  V30 2110 C 198.291 -1.55274 3.10656 0
M  V30 2111 C 197.245 -1.04855 4.14957 0
M  V30 2112 C 196.571 -2.26543 4.84337 0
M  V30 2113 C 197.871 -0.112324 5.22179 0
M  V30 2114 H 199.565 0.213867 2.98635 0
M  V30 2115 H 197.111 0.104298 1.43622 0
M  V30 2116 H 199.064 -2.1358 3.63265 0
M  V30 2117 H 197.788 -2.22266 2.39302 0
M  V30 2118 H 196.447 -0.487985 3.63338 0
M  V30 2119 H 196.095 -2.92059 4.09525 0
M  V30 2120 H 195.795 -1.93466 5.54837 0
M  V30 2121 H 197.319 -2.85481 5.39753 0
M  V30 2122 H 198.733 -0.603752 5.70112 0
M  V30 2123 H 197.13 0.128968 5.99961 0
M  V30 2124 H 198.2 0.837052 4.77621 0
M  V30 2125 N 199.544 -1.57102 0.125237 0
M  V30 2126 C 200.454 -2.19191 -0.8362 0
M  V30 2127 C 201.47 -1.16985 -1.28805 0
M  V30 2128 O 202.646 -1.49479 -1.34974 0
M  V30 2129 C 199.711 -2.78407 -2.06617 0
M  V30 2130 C 198.772 -3.9567 -1.66565 0
M  V30 2131 C 198.005 -4.52052 -2.83698 0
M  V30 2132 O 198.228 -4.07326 -3.99302 0
M  V30 2133 O 197.162 -5.42645 -2.60423 0
M  V30 2134 H 200.988 -3.01816 -0.337776 0
M  V30 2135 H 198.573 -1.4906 -0.100695 0
M  V30 2136 H 200.455 -3.16129 -2.7864 0
M  V30 2137 H 199.13 -1.9881 -2.55453 0
M  V30 2138 H 198.037 -3.62705 -0.916296 0
M  V30 2139 H 199.37 -4.76722 -1.22464 0
M  V30 2140 N 201.022 0.148545 -1.56898 0
M  V30 2141 C 202.299 0.890019 -1.74178 0
M  V30 2142 C 202.679 1.99407 -0.692839 0
M  V30 2143 O 202.027 2.26671 0.288505 0
M  V30 2144 C 202.237 1.43389 -3.18183 0
M  V30 2145 C 203.585 1.89791 -3.79822 0
M  V30 2146 O 204.609 1.53134 -3.21603 0
M  V30 2147 O 203.468 2.57387 -4.82093 0
M  V30 2148 H 200.562 0.420496 -0.712118 0
M  V30 2149 H 203.108 0.134591 -1.69165 0
M  V30 2150 H 201.88 0.640383 -3.86024 0
M  V30 2151 H 201.503 2.25287 -3.27615 0
M  V30 2152 N 202.5 1.5196 0.417844 0
M  V30 2153 C 203.73 1.69181 1.18581 0
M  V30 2154 C 204.138 0.397104 1.84986 0
M  V30 2155 O 203.481 -0.636011 1.72339 0
M  V30 2156 C 203.543 2.76497 2.29759 0
M  V30 2157 C 203.207 4.18514 1.83563 0
M  V30 2158 C 204.204 5.02648 1.32821 0
M  V30 2159 C 201.889 4.64708 1.90661 0
M  V30 2160 C 203.883 6.31044 0.897894 0
M  V30 2161 C 201.57 5.93096 1.47241 0
M  V30 2162 C 202.568 6.76093 0.968891 0
M  V30 2163 O 202.256 8.02078 0.540924 0
M  V30 2164 H 201.988 0.570457 0.362705 0
M  V30 2165 H 204.542 1.99249 0.498885 0
M  V30 2166 H 202.772 2.41786 3.01789 0
M  V30 2167 H 204.461 2.82403 2.91553 0
M  V30 2168 H 205.227 4.68154 1.26716 0
M  V30 2169 H 201.106 4.00216 2.28797 0
M  V30 2170 H 204.65 6.95776 0.504192 0
M  V30 2171 H 200.547 6.271 1.53022 0
M  V30 2172 H 201.315 8.15794 0.66502 0
M  V30 2173 N 203.978 -0.674533 1.42435 0
M  V30 2174 C 204.908 -1.80009 1.48724 0
M  V30 2175 C 205.889 -1.6659 0.343793 0
M  V30 2176 O 207.074 -1.86007 0.558137 0
M  V30 2177 C 204.204 -3.18306 1.38919 0
M  V30 2178 C 203.158 -3.46461 2.51294 0
M  V30 2179 C 202.484 -4.84335 2.26547 0
M  V30 2180 C 203.784 -3.43328 3.93603 0
M  V30 2181 H 205.478 -1.75004 2.42928 0
M  V30 2182 H 203.024 -0.840533 1.16923 0
M  V30 2183 H 204.977 -3.9678 1.41927 0
M  V30 2184 H 203.701 -3.2399 0.412094 0
M  V30 2185 H 202.36 -2.70348 2.47604 0
M  V30 2186 H 202.008 -4.86669 1.2713 0
M  V30 2187 H 201.708 -5.04136 3.01861 0
M  V30 2188 H 203.232 -5.65094 2.31304 0
M  V30 2189 H 204.646 -4.11772 3.98894 0
M  V30 2190 H 203.043 -3.74664 4.68771 0
M  V30 2191 H 204.113 -2.41897 4.20255 0
M  V30 2192 N 205.456 -1.28612 -0.910864 0
M  V30 2193 C 206.733 -1.06632 -1.63979 0
M  V30 2194 C 207.113 0.393351 -2.07403 0
M  V30 2195 O 206.461 1.37999 -1.82122 0
M  V30 2196 C 206.671 -2.0436 -2.8291 0
M  V30 2197 C 208.019 -2.34666 -3.5386 0
M  V30 2198 O 209.043 -2.02467 -2.93062 0
M  V30 2199 O 207.902 -2.89631 -4.63439 0
M  V30 2200 H 204.996 -0.407737 -0.7195 0
M  V30 2201 H 207.542 -1.39942 -0.959914 0
M  V30 2202 H 206.314 -3.02727 -2.47936 0
M  V30 2203 H 205.937 -1.71714 -3.58609 0
M  V30 2204 N 206.934 1.1197 -1.10907 0
M  V30 2205 C 208.183 1.82947 -0.849302 0
M  V30 2206 C 208.496 1.85275 0.627112 0
M  V30 2207 O 209.702 2.52296 1.00295 0
M  V30 2208 C 208.158 3.28529 -1.46959 0
M  V30 2209 C 207.766 3.34546 -2.97965 0
M  V30 2210 C 209.51 4.04443 -1.28942 0
M  V30 2211 C 207.417 4.74491 -3.53004 0
M  V30 2212 H 206.347 0.685477 -0.314065 0
M  V30 2213 H 208.998 1.2604 -1.33365 0
M  V30 2214 H 207.38 3.85333 -0.912917 0
M  V30 2215 H 208.554 2.87654 -3.59989 0
M  V30 2216 H 206.869 2.72108 -3.15192 0
M  V30 2217 H 209.466 5.07787 -1.67502 0
M  V30 2218 H 209.809 4.15656 -0.231456 0
M  V30 2219 H 210.342 3.5401 -1.81443 0
M  V30 2220 H 207.081 4.68474 -4.58489 0
M  V30 2221 H 206.601 5.21816 -2.9575 0
M  V30 2222 H 208.28 5.4344 -3.51115 0
M  V30 2223 N 208.412 0.89855 1.29475 0
M  V30 2224 C 209.359 0.373819 2.27753 0
M  V30 2225 C 210.329 -0.543444 1.56958 0
M  V30 2226 O 211.514 -0.468934 1.84948 0
M  V30 2227 C 208.654 -0.393648 3.42848 0
M  V30 2228 C 207.767 0.554379 4.28428 0
M  V30 2229 C 206.902 -0.230026 5.30702 0
M  V30 2230 C 205.941 0.712599 6.07938 0
M  V30 2231 N 205.078 -0.0373283 7.0209 0
M  V30 2232 H 209.918 1.21699 2.72017 0
M  V30 2233 H 207.455 0.611456 1.33789 0
M  V30 2234 H 209.413 -0.85466 4.08352 0
M  V30 2235 H 208.043 -1.20128 2.99615 0
M  V30 2236 H 207.095 1.13391 3.63107 0
M  V30 2237 H 208.407 1.27597 4.82204 0
M  V30 2238 H 207.561 -0.752288 6.02018 0
M  V30 2239 H 206.3 -0.984758 4.77654 0
M  V30 2240 H 205.305 1.24637 5.35486 0
M  V30 2241 H 206.53 1.46664 6.63074 0
M  V30 2242 H 204.476 -0.774348 6.51414 0
M  V30 2243 H 204.393 0.624374 7.53417 0
M  V30 2244 H 205.661 -0.539891 7.77628 0
M  V30 2245 N 209.89 -1.43072 0.660911 0
M  V30 2246 C 210.838 -2.32569 -0.0378199 0
M  V30 2247 C 211.832 -1.49046 -0.805092 0
M  V30 2248 O 213.038 -1.65206 -0.714624 0
M  V30 2249 H 209.413 -0.75136 -0.031019 0
M  V30 2250 H 211.384 -2.89216 0.734609 0
M  V30 2251 C 210.133 -3.33453 -0.985124 0
M  V30 2252 H 209.456 -3.97752 -0.404147 0
M  V30 2253 H 210.896 -3.98691 -1.44297 0
M  V30 2254 C 209.355 -2.64642 -2.08486 0
M  V30 2255 O 209.885 -2.46776 -3.16961 0
M  V30 2256 N 208.091 -2.23891 -1.8526 0
M  V30 2257 H 207.638 -2.38621 -0.970449 0
M  V30 2258 H 207.596 -1.78181 -2.59034 0
M  V30 2259 N 211.368 -0.403325 -1.52352 0
M  V30 2260 C 212.615 0.174347 -2.01748 0
M  V30 2261 C 212.943 1.45636 -1.2892 0
M  V30 2262 O 212.198 1.9193 -0.382258 0
M  V30 2263 C 212.497 0.474665 -3.54234 0
M  V30 2264 C 212.163 -0.717458 -4.45155 0
M  V30 2265 C 210.825 -1.04447 -4.69728 0
M  V30 2266 C 213.177 -1.51432 -4.98716 0
M  V30 2267 C 210.505 -2.16963 -5.45109 0
M  V30 2268 C 212.857 -2.6302 -5.75329 0
M  V30 2269 C 211.521 -2.96213 -5.98175 0
M  V30 2270 H 210.791 0.0637981 -0.738248 0
M  V30 2271 H 213.438 -0.543553 -1.83624 0
M  V30 2272 H 211.743 1.27406 -3.70506 0
M  V30 2273 H 213.44 0.934496 -3.89959 0
M  V30 2274 H 210.03 -0.452596 -4.26204 0
M  V30 2275 H 214.214 -1.27491 -4.79645 0
M  V30 2276 H 209.47 -2.43034 -5.61021 0
M  V30 2277 H 213.644 -3.25158 -6.15829 0
M  V30 2278 H 211.271 -3.83516 -6.56368 0
M  V30 2279 N 212.846 1.57033 -0.133567 0
M  V30 2280 C 214.094 1.953 0.519848 0
M  V30 2281 C 214.415 1.01866 1.66278 0
M  V30 2282 O 213.685 0.0776513 1.95746 0
M  V30 2283 H 212.265 0.721091 0.195032 0
M  V30 2284 H 214.927 1.93809 -0.205921 0
M  V30 2285 H 214.023 2.98695 0.904854 0
M  V30 2286 N 214.325 -0.140222 1.56975 0
M  V30 2287 C 215.288 -1.15689 1.97861 0
M  V30 2288 C 216.288 -1.3549 0.865974 0
M  V30 2289 O 217.478 -1.32367 1.13246 0
M  V30 2290 C 214.61 -2.51582 2.30042 0
M  V30 2291 H 215.803 -0.805971 2.88867 0
M  V30 2292 H 213.356 -0.383801 1.51515 0
M  V30 2293 H 214.091 -2.91632 1.41849 0
M  V30 2294 H 213.876 -2.38569 3.11171 0
M  V30 2295 H 215.366 -3.24792 2.62488 0
M  V30 2296 N 215.803 -1.52179 -0.40978 0
M  V30 2297 C 216.75 -1.75475 -1.49924 0
M  V30 2298 C 217.72 -0.597175 -1.54994 0
M  V30 2299 O 218.905 -0.834655 -1.71575 0
M  V30 2300 C 216.045 -1.9107 -2.87378 0
M  V30 2301 C 215.158 -3.18717 -2.91622 0
M  V30 2302 C 214.293 -3.24747 -4.20372 0
M  V30 2303 C 213.332 -4.46598 -4.18588 0
M  V30 2304 N 212.469 -4.50025 -5.38908 0
M  V30 2305 H 217.309 -2.68458 -1.29361 0
M  V30 2306 H 214.846 -1.33024 -0.627934 0
M  V30 2307 H 216.804 -1.98096 -3.6717 0
M  V30 2308 H 215.434 -1.01469 -3.06437 0
M  V30 2309 H 214.486 -3.20866 -2.04326 0
M  V30 2310 H 215.798 -4.08544 -2.86169 0
M  V30 2311 H 214.952 -3.30841 -5.08556 0
M  V30 2312 H 213.691 -2.32857 -4.28519 0
M  V30 2313 H 212.696 -4.40652 -3.28794 0
M  V30 2314 H 213.921 -5.39783 -4.12081 0
M  V30 2315 H 211.867 -3.61017 -5.47725 0
M  V30 2316 H 211.784 -5.33697 -5.35447 0
M  V30 2317 H 213.052 -4.60347 -6.29048 0
M  V30 2318 N 217.281 0.66697 -1.42791 0
M  V30 2319 C 218.527 1.4291 -1.43891 0
M  V30 2320 C 218.86 1.94114 -0.0578972 0
M  V30 2321 O 218.135 1.71414 0.91911 0
M  V30 2322 C 218.418 2.62049 -2.46987 0
M  V30 2323 C 218.271 2.16426 -3.94309 0
M  V30 2324 C 219.59 3.64266 -2.46978 0
M  V30 2325 H 216.709 0.518306 -0.523954 0
M  V30 2326 H 219.351 0.757321 -1.74255 0
M  V30 2327 H 217.501 3.19361 -2.21225 0
M  V30 2328 H 219.173 1.64221 -4.31079 0
M  V30 2329 H 217.416 1.47925 -4.078 0
M  V30 2330 H 218.087 3.02038 -4.62036 0
M  V30 2331 H 220.563 3.16686 -2.69906 0
M  V30 2332 H 219.439 4.45196 -3.21079 0
M  V30 2333 H 219.7 4.15927 -1.49857 0
M  V30 2334 N 218.759 1.29093 0.90403 0
M  V30 2335 C 220.005 1.16986 1.65656 0
M  V30 2336 C 220.338 -0.278925 1.92186 0
M  V30 2337 O 219.613 -1.2019 1.5292 0
M  V30 2338 C 219.896 1.97908 3.0084 0
M  V30 2339 C 219.749 3.50903 2.81403 0
M  V30 2340 C 221.068 1.80208 4.01513 0
M  V30 2341 H 218.187 0.426346 0.601164 0
M  V30 2342 H 220.829 1.58518 1.04747 0
M  V30 2343 H 218.979 1.62616 3.52829 0
M  V30 2344 H 220.651 3.96153 2.36348 0
M  V30 2345 H 218.894 3.76045 2.1627 0
M  V30 2346 H 219.565 4.02791 3.77443 0
M  V30 2347 H 222.041 2.11025 3.58619 0
M  V30 2348 H 220.917 2.39184 4.94047 0
M  V30 2349 H 221.178 0.756119 4.35586 0
M  V30 2350 N 220.237 -1.11381 1.11499 0
M  V30 2351 C 221.485 -1.8277 0.862524 0
M  V30 2352 C 221.806 -1.85097 -0.613534 0
M  V30 2353 O 221.076 -1.32198 -1.4457 0
M  V30 2354 H 219.656 -0.676823 0.316101 0
M  V30 2355 H 222.318 -1.34816 1.4075 0
M  V30 2356 H 221.414 -2.86614 1.23527 0
M  V30 2357 N 221.715 -0.905404 -1.28997 0
M  V30 2358 C 222.645 -0.404212 -2.29975 0
M  V30 2359 C 223.626 0.523784 -1.61835 0
M  V30 2360 O 224.811 0.433298 -1.89304 0
M  V30 2361 C 221.941 0.364042 -3.45387 0
M  V30 2362 C 220.895 -0.474048 -4.25367 0
M  V30 2363 C 220.221 0.422045 -5.33032 0
M  V30 2364 C 221.521 -1.72696 -4.92923 0
M  V30 2365 H 223.215 -1.24807 -2.72146 0
M  V30 2366 H 220.761 -0.601585 -1.30832 0
M  V30 2367 H 222.714 0.725447 -4.15109 0
M  V30 2368 H 221.438 1.24174 -3.02074 0
M  V30 2369 H 220.097 -0.81786 -3.57361 0
M  V30 2370 H 219.745 1.29804 -4.85963 0
M  V30 2371 H 219.445 -0.135057 -5.87445 0
M  V30 2372 H 220.969 0.779517 -6.05604 0
M  V30 2373 H 222.383 -1.43495 -5.55051 0
M  V30 2374 H 220.78 -2.22582 -5.57295 0
M  V30 2375 H 221.85 -2.45964 -4.17887 0
M  V30 2376 N 223.193 1.4272 -0.668489 0
M  V30 2377 C 224.418 2.06484 -0.194758 0
M  V30 2378 C 224.843 1.49862 1.13679 0
M  V30 2379 O 224.201 0.614582 1.70565 0
M  V30 2380 C 224.249 3.60353 -0.133546 0
M  V30 2381 O 223.353 4.02464 0.899806 0
M  V30 2382 H 222.694 0.656137 -0.10188 0
M  V30 2383 H 225.224 1.82964 -0.915722 0
M  V30 2384 H 225.234 4.07976 0.0447041 0
M  V30 2385 H 223.909 4.00938 -1.1055 0
M  V30 2386 H 222.486 3.66402 0.693109 0
M  V30 2387 N 224.671 0.411399 1.52136 0
M  V30 2388 C 225.911 -0.163143 2.03748 0
M  V30 2389 C 226.275 -1.42187 1.29022 0
M  V30 2390 O 227.476 -2.075 1.70872 0
M  V30 2391 C 225.747 -0.402651 3.55125 0
M  V30 2392 S 227.306 -0.944315 4.28519 0
M  V30 2393 H 224.124 -0.0439833 0.709638 0
M  V30 2394 H 226.726 0.56484 1.87163 0
M  V30 2395 H 225.43 0.520212 4.0709 0
M  V30 2396 H 224.961 -1.15844 3.75957 0
M  V30 2397 H 226.976 -2.22463 4.43536 0
M  V30 2398 N 226.149 -1.5696 0.141893 0
M  V30 2399 C 227.377 -2.00322 -0.517579 0
M  V30 2400 C 227.792 -1.02193 -1.58752 0
M  V30 2401 O 227.149 -0.0181619 -1.82491 0
M  V30 2402 C 227.2 -3.43618 -1.12289 0
M  V30 2403 O 226.921 -4.37995 -0.0956929 0
M  V30 2404 C 228.422 -4.02231 -1.86347 0
M  V30 2405 H 225.642 -0.657243 -0.135177 0
M  V30 2406 H 228.186 -2.03146 0.234973 0
M  V30 2407 H 226.341 -3.41662 -1.82609 0
M  V30 2408 H 226.755 -5.21729 -0.538469 0
M  V30 2409 H 228.229 -5.04509 -2.23997 0
M  V30 2410 H 228.706 -3.42655 -2.74744 0
M  V30 2411 H 229.312 -4.07802 -1.20737 0
M  V30 2412 N 227.627 0.131896 -1.57047 0
M  V30 2413 C 228.557 1.16384 -2.02428 0
M  V30 2414 C 229.538 1.43936 -0.90644 0
M  V30 2415 O 230.723 1.54599 -1.17528 0
M  V30 2416 C 227.853 2.49328 -2.4177 0
M  V30 2417 C 226.807 2.36266 -3.56879 0
M  V30 2418 C 226.133 3.74057 -3.8208 0
M  V30 2419 C 227.433 1.834 -4.89042 0
M  V30 2420 H 229.127 0.786433 -2.88887 0
M  V30 2421 H 226.673 0.376855 -1.38981 0
M  V30 2422 H 228.626 3.21759 -2.7212 0
M  V30 2423 H 227.35 2.88934 -1.52266 0
M  V30 2424 H 226.009 1.66286 -3.26718 0
M  V30 2425 H 225.657 4.11125 -2.89803 0
M  V30 2426 H 225.357 3.66174 -4.59554 0
M  V30 2427 H 226.881 4.48012 -4.1487 0
M  V30 2428 H 228.295 2.45636 -5.18011 0
M  V30 2429 H 226.692 1.8637 -5.70426 0
M  V30 2430 H 227.762 0.790662 -4.7841 0
M  V30 2431 N 229.106 1.52395 0.401703 0
M  V30 2432 C 230.069 1.75636 1.47257 0
M  V30 2433 C 231.069 0.62628 1.48103 0
M  V30 2434 O 232.259 0.894227 1.49497 0
M  V30 2435 C 229.391 1.84553 2.86624 0
M  V30 2436 H 230.584 2.71241 1.27938 0
M  V30 2437 H 228.137 1.42923 0.632662 0
M  V30 2438 H 228.872 0.908882 3.11303 0
M  V30 2439 H 228.657 2.66715 2.87412 0
M  V30 2440 H 230.147 2.04251 3.64241 0
M  V30 2441 N 230.584 -0.659388 1.43143 0
M  V30 2442 C 231.812 -1.44723 1.47861 0
M  V30 2443 C 232.227 -1.88563 0.0945886 0
M  V30 2444 O 231.584 -1.59108 -0.893915 0
M  V30 2445 C 231.635 -2.68627 2.41913 0
M  V30 2446 O 231.356 -2.26623 3.74932 0
M  V30 2447 C 232.857 -3.62045 2.55809 0
M  V30 2448 H 230.077 -0.444801 0.502387 0
M  V30 2449 H 232.621 -0.808916 1.87821 0
M  V30 2450 H 230.776 -3.28613 2.05164 0
M  V30 2451 H 231.19 -3.06745 4.2545 0
M  V30 2452 H 232.664 -4.45666 3.25708 0
M  V30 2453 H 233.141 -4.08981 1.60099 0
M  V30 2454 H 233.747 -3.07944 2.93344 0
M  V30 2455 N 232.062 -1.29571 -0.897171 0
M  V30 2456 C 233.31 -1.17456 -1.64464 0
M  V30 2457 C 233.631 0.273698 -1.9307 0
M  V30 2458 O 232.901 1.18684 -1.55855 0
M  V30 2459 H 231.481 -0.431706 -0.609622 0
M  V30 2460 H 234.143 -1.62531 -1.07562 0
M  V30 2461 H 233.239 -1.72648 -2.59998 0
M  V30 2462 N 233.54 1.10788 -1.12088 0
M  V30 2463 C 234.765 1.87002 -0.896949 0
M  V30 2464 C 235.19 1.79933 0.548261 0
M  V30 2465 O 234.548 1.16662 1.38779 0
M  V30 2466 C 234.596 3.3349 -1.37174 0
M  V30 2467 O 233.7 4.08745 -0.547831 0
M  V30 2468 H 233.041 0.580397 -0.322545 0
M  V30 2469 H 235.571 1.39996 -1.49206 0
M  V30 2470 H 235.581 3.84339 -1.36922 0
M  V30 2471 H 234.256 3.37951 -2.42408 0
M  V30 2472 H 232.833 3.6776 -0.617034 0
M  V30 2473 N 235.018 0.912232 1.28515 0
M  V30 2474 C 236.246 0.560416 1.99166 0
M  V30 2475 C 236.661 -0.857927 1.68182 0
M  V30 2476 O 236.018 -1.56805 0.933733 0
M  V30 2477 C 236.069 0.758142 3.53461 0
M  V30 2478 O 235.79 2.12067 3.83352 0
M  V30 2479 C 237.291 0.412954 4.41372 0
M  V30 2480 H 234.511 0.213805 0.636026 0
M  V30 2481 H 237.055 1.22502 1.63749 0
M  V30 2482 H 235.21 0.140556 3.87145 0
M  V30 2483 H 235.624 2.15923 4.77993 0
M  V30 2484 H 237.098 0.60208 5.48707 0
M  V30 2485 H 237.575 -0.65073 4.34353 0
M  V30 2486 H 238.181 1.00802 4.13182 0
M  V30 2487 N 236.496 -1.42363 0.676048 0
M  V30 2488 C 237.426 -2.33497 0.0124832 0
M  V30 2489 C 238.407 -1.50748 -0.787981 0
M  V30 2490 O 239.592 -1.79346 -0.744884 0
M  V30 2491 C 236.722 -3.34377 -0.938582 0
M  V30 2492 C 235.676 -4.27289 -0.246622 0
M  V30 2493 C 235.002 -5.18386 -1.31071 0
M  V30 2494 C 236.302 -5.14916 0.875125 0
M  V30 2495 H 237.996 -2.89233 0.773593 0
M  V30 2496 H 235.542 -1.39073 0.37346 0
M  V30 2497 H 237.495 -3.97044 -1.41188 0
M  V30 2498 H 236.219 -2.76947 -1.73113 0
M  V30 2499 H 234.878 -3.66018 0.206456 0
M  V30 2500 H 234.526 -4.57282 -2.09528 0
M  V30 2501 H 234.226 -5.81378 -0.852839 0
M  V30 2502 H 235.75 -5.83929 -1.78492 0
M  V30 2503 H 237.164 -5.71262 0.482983 0
M  V30 2504 H 235.561 -5.86747 1.25887 0
M  V30 2505 H 236.631 -4.53242 1.72335 0
M  V30 2506 N 237.974 -0.419461 -1.51915 0
M  V30 2507 C 239.221 0.152939 -2.01922 0
M  V30 2508 C 239.549 1.4426 -1.30458 0
M  V30 2509 O 238.804 1.91514 -0.402593 0
M  V30 2510 C 239.103 0.437067 -3.54717 0
M  V30 2511 C 238.769 -0.764632 -4.44369 0
M  V30 2512 C 237.431 -1.09423 -4.68594 0
M  V30 2513 C 239.783 -1.56713 -4.97082 0
M  V30 2514 C 237.111 -2.22732 -5.42777 0
M  V30 2515 C 239.463 -2.69107 -5.72507 0
M  V30 2516 C 238.127 -3.02541 -5.95 0
M  V30 2517 H 237.397 0.0559644 -0.738884 0
M  V30 2518 H 240.044 -0.562998 -1.83037 0
M  V30 2519 H 238.349 1.23469 -3.71837 0
M  V30 2520 H 240.046 0.893083 -3.90928 0
M  V30 2521 H 236.636 -0.497775 -4.257 0
M  V30 2522 H 240.82 -1.32571 -4.78266 0
M  V30 2523 H 236.076 -2.48971 -5.58411 0
M  V30 2524 H 240.25 -3.31671 -6.12346 0
M  V30 2525 H 237.877 -3.90457 -6.52264 0
M  V30 2526 N 239.452 1.56882 -0.150215 0
M  V30 2527 C 240.382 2.19935 0.784284 0
M  V30 2528 C 241.363 1.14854 1.25469 0
M  V30 2529 O 242.548 1.43209 1.31168 0
M  V30 2530 C 239.678 2.82349 2.02229 0
M  V30 2531 C 238.632 3.93285 1.68853 0
M  V30 2532 C 237.958 4.42649 2.99944 0
M  V30 2533 C 239.258 5.13904 0.932714 0
M  V30 2534 H 240.952 2.9828 0.258781 0
M  V30 2535 H 238.498 1.43473 0.123029 0
M  V30 2536 H 240.451 3.25126 2.68088 0
M  V30 2537 H 239.175 2.0134 2.57157 0
M  V30 2538 H 237.834 3.5113 1.05371 0
M  V30 2539 H 237.482 3.58458 3.52869 0
M  V30 2540 H 237.182 5.17476 2.78374 0
M  V30 2541 H 238.706 4.88099 3.66868 0
M  V30 2542 H 240.12 5.53506 1.49345 0
M  V30 2543 H 238.517 5.94515 0.81684 0
M  V30 2544 H 239.587 4.84842 -0.0749568 0
M  V30 2545 N 240.93 -0.123565 1.57115 0
M  V30 2546 C 242.178 -0.83051 1.84247 0
M  V30 2547 C 242.499 -1.80629 0.73471 0
M  V30 2548 O 241.769 -1.94403 -0.241688 0
M  V30 2549 H 240.349 -0.309694 0.679778 0
M  V30 2550 H 243.011 -0.111976 1.94578 0
M  V30 2551 H 242.107 -1.37852 2.80006 0
M  V30 2552 N 242.408 -1.52605 -0.393616 0
M  V30 2553 C 243.355 -1.77055 -1.48054 0
M  V30 2554 C 244.325 -0.61358 -1.54352 0
M  V30 2555 O 245.51 -0.852806 -1.70681 0
M  V30 2556 C 242.65 -1.94108 -2.85335 0
M  V30 2557 C 241.763 -3.21792 -2.88226 0
M  V30 2558 C 240.898 -3.29188 -4.16904 0
M  V30 2559 C 239.937 -4.51013 -4.13828 0
M  V30 2560 N 239.074 -4.55716 -5.34105 0
M  V30 2561 H 243.914 -2.69815 -1.26506 0
M  V30 2562 H 241.451 -1.33683 -0.61379 0
M  V30 2563 H 243.409 -2.01979 -3.65049 0
M  V30 2564 H 242.039 -1.04713 -3.05344 0
M  V30 2565 H 241.091 -3.23015 -2.00911 0
M  V30 2566 H 242.403 -4.11557 -2.8182 0
M  V30 2567 H 241.557 -3.36216 -5.05018 0
M  V30 2568 H 240.296 -2.37389 -4.26026 0
M  V30 2569 H 239.301 -4.44115 -3.24102 0
M  V30 2570 H 240.526 -5.44123 -4.06333 0
M  V30 2571 H 238.472 -3.66807 -5.43865 0
M  V30 2572 H 238.389 -5.39346 -5.29756 0
M  V30 2573 H 239.657 -4.66993 -6.2413 0
M  V30 2574 N 243.887 0.651787 -1.4349 0
M  V30 2575 C 245.133 1.41376 -1.45398 0
M  V30 2576 C 245.466 1.94041 -0.0784823 0
M  V30 2577 O 244.741 1.72379 0.900878 0
M  V30 2578 C 245.024 2.59414 -2.49752 0
M  V30 2579 C 244.877 2.12232 -3.96582 0
M  V30 2580 C 246.196 3.61626 -2.50827 0
M  V30 2581 H 243.315 0.512719 -0.529422 0
M  V30 2582 H 245.957 0.738796 -1.75048 0
M  V30 2583 H 244.107 3.16997 -2.246 0
M  V30 2584 H 245.779 1.59639 -4.32797 0
M  V30 2585 H 244.022 1.43592 -4.09346 0
M  V30 2586 H 244.693 2.9712 -4.65214 0
M  V30 2587 H 247.169 3.13805 -2.7325 0
M  V30 2588 H 246.045 4.41766 -3.25783 0
M  V30 2589 H 246.306 4.14314 -1.5426 0
M  V30 2590 N 245.365 1.30045 0.890287 0
M  V30 2591 C 246.613 1.18327 1.63839 0
M  V30 2592 C 246.934 -0.263455 1.93212 0
M  V30 2593 O 246.204 -1.17856 1.56482 0
M  V30 2594 H 244.784 0.434933 0.607324 0
M  V30 2595 H 247.446 1.631 1.06698 0
M  V30 2596 H 246.542 1.74024 2.59079 0
M  V30 2597 N 246.843 -1.10192 1.12674 0
M  V30 2598 C 248.254 -1.63707 0.897604 0
M  V30 2599 C 248.605 -1.87812 -0.567546 0
M  V30 2600 O 247.73 -1.62196 -1.43253 0
M  V30 2601 C 248.325 -2.974 1.62292 0
M  V30 2602 C 246.884 -3.47772 1.43986 0
M  V30 2603 C 246.031 -2.22332 1.65722 0
M  V30 2604 H 248.982 -0.936587 1.28116 0
M  V30 2605 H 249.003 -3.64986 1.07541 0
M  V30 2606 H 248.515 -2.79824 2.68924 0
M  V30 2607 H 246.616 -3.70487 0.396206 0
M  V30 2608 H 246.729 -4.25723 2.19765 0
M  V30 2609 H 245.093 -2.30599 1.08149 0
M  V30 2610 H 245.876 -2.07285 2.73657 0
M  V30 2611 N 248.321 -0.919034 -1.28029 0
M  V30 2612 C 249.568 -0.554934 -1.94748 0
M  V30 2613 C 249.896 0.90231 -1.72304 0
M  V30 2614 O 249.151 1.65767 -1.04018 0
M  V30 2615 C 249.45 -0.816855 -3.4794 0
M  V30 2616 C 249.116 -2.25448 -3.90492 0
M  V30 2617 C 247.778 -2.64752 -4.01821 0
M  V30 2618 C 250.13 -3.18977 -4.12193 0
M  V30 2619 C 247.458 -3.96727 -4.32232 0
M  V30 2620 C 249.81 -4.50523 -4.44086 0
M  V30 2621 C 248.474 -4.89673 -4.53626 0
M  V30 2622 H 247.744 -0.203065 -0.712633 0
M  V30 2623 H 250.391 -1.16136 -1.52265 0
M  V30 2624 H 248.696 -0.127677 -3.91592 0
M  V30 2625 H 250.393 -0.514238 -3.97689 0
M  V30 2626 H 246.983 -1.93952 -3.82205 0
M  V30 2627 H 251.167 -2.89817 -4.02889 0
M  V30 2628 H 246.423 -4.26754 -4.37825 0
M  V30 2629 H 250.597 -5.23005 -4.59825 0
M  V30 2630 H 248.224 -5.91969 -4.76946 0
M  V30 2631 N 249.799 1.42003 -0.683588 0
M  V30 2632 C 251.045 2.01712 -0.209825 0
M  V30 2633 C 251.378 1.53968 1.18353 0
M  V30 2634 O 250.653 0.745661 1.79639 0
M  V30 2635 C 250.936 3.59202 -0.254197 0
M  V30 2636 C 250.789 4.17102 -1.68363 0
M  V30 2637 C 252.108 4.38344 0.392709 0
M  V30 2638 H 249.227 0.732891 -0.0777189 0
M  V30 2639 H 251.869 1.68909 -0.87004 0
M  V30 2640 H 250.019 3.87278 0.307954 0
M  V30 2641 H 251.691 3.99946 -2.29871 0
M  V30 2642 H 249.934 3.72597 -2.22157 0
M  V30 2643 H 250.605 5.26249 -1.6663 0
M  V30 2644 H 253.081 4.16011 -0.0859162 0
M  V30 2645 H 251.957 5.47901 0.331063 0
M  V30 2646 H 252.218 4.16887 1.47164 0
M  V30 2647 N 251.277 0.427512 1.51691 0
M  V30 2648 C 252.227 -0.406604 2.24345 0
M  V30 2649 C 253.211 -0.998276 1.26187 0
M  V30 2650 O 254.403 -0.918045 1.51331 0
M  V30 2651 C 251.532 -1.51266 3.08177 0
M  V30 2652 C 250.618 -0.930868 4.13758 0
M  V30 2653 N 251.009 -0.0773552 5.05741 0
M  V30 2654 C 249.307 -1.19948 4.29568 0
M  V30 2655 C 250.008 0.248344 5.8117 0
M  V30 2656 N 248.984 -0.365535 5.4237 0
M  V30 2657 H 252.786 0.251581 2.92821 0
M  V30 2658 H 250.3 0.239003 1.60632 0
M  V30 2659 H 252.297 -2.123 3.58796 0
M  V30 2660 H 250.957 -2.17328 2.41244 0
M  V30 2661 H 251.968 0.288351 5.17097 0
M  V30 2662 H 248.645 -1.85832 3.73862 0
M  V30 2663 H 250.035 0.942286 6.6526 0
M  V30 2664 N 252.755 -1.56801 0.158532 0
M  V30 2665 C 253.685 -2.20347 -0.772609 0
M  V30 2666 C 254.666 -1.15518 -1.24859 0
M  V30 2667 O 255.851 -1.43902 -1.30406 0
M  V30 2668 C 252.981 -2.83417 -2.00729 0
M  V30 2669 C 251.935 -3.94174 -1.66765 0
M  V30 2670 C 251.261 -4.44233 -2.97592 0
M  V30 2671 C 252.561 -5.14392 -0.905447 0
M  V30 2672 H 254.255 -2.98413 -0.242959 0
M  V30 2673 H 251.801 -1.43537 -0.115419 0
M  V30 2674 H 253.754 -3.26543 -2.6636 0
M  V30 2675 H 252.478 -2.02701 -2.56086 0
M  V30 2676 H 251.137 -3.51684 -1.03508 0
M  V30 2677 H 250.785 -3.60325 -3.50963 0
M  V30 2678 H 250.485 -5.18945 -2.75626 0
M  V30 2679 H 252.009 -4.90037 -3.64274 0
M  V30 2680 H 253.423 -5.5429 -1.46408 0
M  V30 2681 H 251.82 -5.9494 -0.7853 0
M  V30 2682 H 252.89 -4.84795 0.100668 0
M  V30 2683 N 254.233 0.115231 -1.57178 0
M  V30 2684 C 255.458 0.840354 -1.89612 0
M  V30 2685 C 255.883 1.72464 -0.750845 0
M  V30 2686 O 255.241 1.78826 0.298478 0
M  V30 2687 C 255.289 1.64654 -3.20814 0
M  V30 2688 O 254.393 2.7538 -3.06985 0
M  V30 2689 H 253.734 0.232158 -0.622092 0
M  V30 2690 H 256.264 0.0964977 -2.04372 0
M  V30 2691 H 256.274 2.03499 -3.53627 0
M  V30 2692 H 254.949 0.997416 -4.03763 0
M  V30 2693 H 253.526 2.3971 -2.85646 0
M  V30 2694 N 255.711 1.52812 0.385517 0
M  V30 2695 C 256.957 1.68275 1.13188 0
M  V30 2696 C 257.29 0.423179 1.89533 0
M  V30 2697 O 256.565 -0.579113 1.85679 0
M  V30 2698 C 256.848 2.92001 2.1073 0
M  V30 2699 C 256.701 4.28067 1.38125 0
M  V30 2700 C 258.02 3.11283 3.11113 0
M  V30 2701 H 255.139 0.612352 0.410115 0
M  V30 2702 H 257.781 1.85415 0.414869 0
M  V30 2703 H 255.931 2.77519 2.71874 0
M  V30 2704 H 257.603 4.54324 0.799187 0
M  V30 2705 H 255.846 4.28388 0.683092 0
M  V30 2706 H 256.517 5.10733 2.09417 0
M  V30 2707 H 258.993 3.2482 2.6006 0
M  V30 2708 H 257.869 3.99325 3.76605 0
M  V30 2709 H 258.13 2.25656 3.80173 0
M  V30 2710 N 257.189 -0.644168 1.43834 0
M  V30 2711 C 258.122 -1.76906 1.44151 0
M  V30 2712 C 259.1 -1.59774 0.301857 0
M  V30 2713 O 260.284 -1.81834 0.496841 0
M  V30 2714 C 257.411 -3.14321 1.26174 0
M  V30 2715 C 256.457 -3.50134 2.43533 0
M  V30 2716 S 257.29 -3.49085 4.06079 0
M  V30 2717 C 258.446 -4.89142 3.90501 0
M  V30 2718 H 258.679 -1.76368 2.39336 0
M  V30 2719 H 256.212 -0.817624 1.30974 0
M  V30 2720 H 258.17 -3.93625 1.16489 0
M  V30 2721 H 256.831 -3.12412 0.325224 0
M  V30 2722 H 256.024 -4.50095 2.26783 0
M  V30 2723 H 255.626 -2.78264 2.4989 0
M  V30 2724 H 257.918 -5.78036 3.53385 0
M  V30 2725 H 258.861 -5.10945 4.90246 0
M  V30 2726 H 259.269 -4.63102 3.22795 0
M  V30 2727 N 258.668 -1.30515 -0.883378 0
M  V30 2728 C 259.917 -1.18795 -1.63005 0
M  V30 2729 C 260.23 0.255923 -1.93919 0
M  V30 2730 O 261.436 0.494654 -2.66956 0
M  V30 2731 C 259.892 -2.07878 -2.93794 0
M  V30 2732 C 259.5 -3.57184 -2.70414 0
M  V30 2733 C 261.244 -2.04924 -3.71761 0
M  V30 2734 C 259.151 -4.38317 -3.97029 0
M  V30 2735 H 258.081 -0.441031 -0.611562 0
M  V30 2736 H 260.732 -1.55275 -0.977854 0
M  V30 2737 H 259.114 -1.64283 -3.60315 0
M  V30 2738 H 260.288 -4.08937 -2.12384 0
M  V30 2739 H 258.603 -3.61976 -2.0582 0
M  V30 2740 H 261.2 -2.62792 -4.65665 0
M  V30 2741 H 261.543 -1.0331 -4.03277 0
M  V30 2742 H 262.076 -2.46649 -3.12104 0
M  V30 2743 H 258.815 -5.40632 -3.70671 0
M  V30 2744 H 258.335 -3.91326 -4.54559 0
M  V30 2745 H 260.014 -4.49834 -4.65036 0
M  V30 2746 N 260.146 1.09593 -1.13257 0
M  V30 2747 C 261.109 2.14359 -0.811358 0
M  V30 2748 C 262.109 1.59808 0.178377 0
M  V30 2749 O 263.299 1.74132 -0.0484911 0
M  V30 2750 C 260.431 3.40269 -0.207276 0
M  V30 2751 H 261.624 2.44284 -1.73969 0
M  V30 2752 H 259.177 1.25102 -0.936973 0
M  V30 2753 H 259.912 3.15969 0.73036 0
M  V30 2754 H 259.697 3.81154 -0.919992 0
M  V30 2755 H 261.187 4.176 0.000667944 0
M  V30 2756 N 261.624 0.925811 1.2754 0
M  V30 2757 C 262.587 0.428129 2.25166 0
M  V30 2758 C 263.587 -0.452261 1.54309 0
M  V30 2759 O 264.777 -0.253608 1.72344 0
M  V30 2760 C 261.909 -0.384749 3.38722 0
M  V30 2761 H 263.102 1.29066 2.70706 0
M  V30 2762 H 260.655 0.706323 1.3943 0
M  V30 2763 H 261.39 -1.26618 2.98561 0
M  V30 2764 H 261.175 0.246454 3.91325 0
M  V30 2765 H 262.665 -0.723389 4.11287 0
M  V30 2766 N 263.102 -1.41638 0.69111 0
M  V30 2767 C 264.332 -2.0533 0.228758 0
M  V30 2768 C 264.74 -1.52089 -1.12541 0
M  V30 2769 O 264.083 -0.662145 -1.71351 0
M  V30 2770 C 264.145 -3.59349 0.10407 0
M  V30 2771 C 263.809 -4.35362 1.38956 0
M  V30 2772 C 264.806 -4.64942 2.32648 0
M  V30 2773 C 262.491 -4.74714 1.64169 0
M  V30 2774 C 264.485 -5.32828 3.49818 0
M  V30 2775 C 262.172 -5.42338 2.81625 0
M  V30 2776 C 263.17 -5.71322 3.74273 0
M  V30 2777 O 262.858 -6.37554 4.89673 0
M  V30 2778 H 262.59 -0.667796 0.104997 0
M  V30 2779 H 265.144 -1.82477 0.942938 0
M  V30 2780 H 263.374 -3.80924 -0.665839 0
M  V30 2781 H 265.063 -4.04633 -0.320519 0
M  V30 2782 H 265.829 -4.35025 2.14425 0
M  V30 2783 H 261.708 -4.51538 0.929202 0
M  V30 2784 H 265.252 -5.55368 4.22152 0
M  V30 2785 H 261.149 -5.71673 2.99768 0
M  V30 2786 H 261.917 -6.56049 4.8943 0
M  V30 2787 N 264.58 -0.43555 -1.51462 0
M  V30 2788 C 265.51 0.367376 -2.30592 0
M  V30 2789 C 266.491 1.02263 -1.35928 0
M  V30 2790 O 267.676 1.02661 -1.64847 0
M  V30 2791 C 264.806 1.46983 -3.14664 0
M  V30 2792 C 263.76 0.938161 -4.17591 0
M  V30 2793 C 263.086 2.13622 -4.90173 0
M  V30 2794 C 264.386 -0.0261621 -5.22293 0
M  V30 2795 H 266.08 -0.292969 -2.97963 0
M  V30 2796 H 263.626 -0.14234 -1.43295 0
M  V30 2797 H 265.579 2.03873 -3.688 0
M  V30 2798 H 264.303 2.15843 -2.4511 0
M  V30 2799 H 262.962 0.391481 -3.64504 0
M  V30 2800 H 262.61 2.81098 -4.17124 0
M  V30 2801 H 262.31 1.78688 -5.59772 0
M  V30 2802 H 263.834 2.7107 -5.47132 0
M  V30 2803 H 265.248 0.452384 -5.71512 0
M  V30 2804 H 263.645 -0.287992 -5.99409 0
M  V30 2805 H 264.715 -0.963391 -4.75233 0
M  V30 2806 N 266.058 1.56714 -0.166846 0
M  V30 2807 C 267.306 1.96358 0.478305 0
M  V30 2808 C 267.627 1.0537 1.6408 0
M  V30 2809 O 266.897 0.119154 1.95537 0
M  V30 2810 H 265.477 0.725065 0.179692 0
M  V30 2811 H 268.139 1.93329 -0.246985 0
M  V30 2812 H 267.235 3.00547 0.841292 0
M  V30 2813 N 267.536 -0.106894 1.57237 0
M  V30 2814 C 268.952 -0.46078 1.52804 0
M  V30 2815 C 269.152 -1.81184 0.881746 0
M  V30 2816 O 268.208 -2.48102 0.469224 0
M  V30 2817 C 269.521 -0.434127 2.9755 0
M  V30 2818 C 271.069 -0.516821 3.08704 0
M  V30 2819 C 271.544 -0.520436 4.55033 0
M  V30 2820 N 273.035 -0.58153 4.59535 0
M  V30 2821 C 273.77 -0.605973 5.70189 0
M  V30 2822 N 273.266 -0.587331 6.90306 0
M  V30 2823 N 275.059 -0.649895 5.5833 0
M  V30 2824 H 267.21 0.778203 1.9763 0
M  V30 2825 H 269.473 0.288403 0.903066 0
M  V30 2826 H 269.179 0.491197 3.48253 0
M  V30 2827 H 269.053 -1.25748 3.55622 0
M  V30 2828 H 271.44 -1.43256 2.57995 0
M  V30 2829 H 271.521 0.334449 2.53604 0
M  V30 2830 H 271.165 0.391313 5.0639 0
M  V30 2831 H 271.095 -1.38876 5.07958 0
M  V30 2832 H 273.586 -0.60161 3.73081 0
M  V30 2833 H 273.899 -0.60894 7.70397 0
M  V30 2834 H 272.244 -0.554564 6.92784 0
M  V30 2835 H 275.435 -0.661907 4.63397 0
M  V30 2836 H 275.608 -0.665476 6.44574 0
M  V30 2837 N 269.014 -1.53014 -0.377408 0
M  V30 2838 C 270.26 -1.68872 -1.12294 0
M  V30 2839 C 270.593 -0.433224 -1.89306 0
M  V30 2840 O 269.868 0.569258 -1.85983 0
M  V30 2841 C 270.151 -2.93115 -2.09179 0
M  V30 2842 C 270.004 -4.28794 -1.35853 0
M  V30 2843 C 271.323 -3.12928 -3.09458 0
M  V30 2844 H 268.442 -0.614518 -0.406862 0
M  V30 2845 H 271.084 -1.85633 -0.40503 0
M  V30 2846 H 269.234 -2.78956 -2.70399 0
M  V30 2847 H 270.906 -4.54742 -0.775082 0
M  V30 2848 H 269.149 -4.28744 -0.660364 0
M  V30 2849 H 269.82 -5.11837 -2.06706 0
M  V30 2850 H 272.296 -3.26194 -2.58334 0
M  V30 2851 H 271.172 -4.01316 -3.74482 0
M  V30 2852 H 271.433 -2.27669 -3.78971 0
M  V30 2853 N 270.492 0.636531 -1.44174 0
M  V30 2854 C 271.908 0.954104 -1.27941 0
M  V30 2855 C 272.108 2.0039 -0.211248 0
M  V30 2856 O 271.164 2.49236 0.404695 0
M  V30 2857 C 272.477 1.4225 -2.64925 0
M  V30 2858 C 274.025 1.53827 -2.72592 0
M  V30 2859 C 274.5 2.04053 -4.10032 0
M  V30 2860 N 275.991 2.11331 -4.12182 0
M  V30 2861 C 276.726 2.51352 -5.15374 0
M  V30 2862 N 276.222 2.90549 -6.2893 0
M  V30 2863 N 278.015 2.51438 -5.02728 0
M  V30 2864 H 270.166 -0.0578386 -2.12321 0
M  V30 2865 H 272.429 0.0367406 -0.947288 0
M  V30 2866 H 272.135 0.725466 -3.44136 0
M  V30 2867 H 272.009 2.39451 -2.9145 0
M  V30 2868 H 274.396 2.22628 -1.93702 0
M  V30 2869 H 274.477 0.550154 -2.49814 0
M  V30 2870 H 274.121 1.35848 -4.89395 0
M  V30 2871 H 274.051 3.03726 -4.30184 0
M  V30 2872 H 276.542 1.83745 -3.30222 0
M  V30 2873 H 276.855 3.19884 -7.03487 0
M  V30 2874 H 275.2 2.88313 -6.32377 0
M  V30 2875 H 278.391 2.20203 -4.13072 0
M  V30 2876 H 278.564 2.82304 -5.83274 0
M  V30 2877 N 271.97 1.30982 0.876444 0
M  V30 2878 C 273.198 1.23242 1.6619 0
M  V30 2879 C 273.613 -0.203345 1.87702 0
M  V30 2880 O 272.97 -1.13317 1.43057 0
M  V30 2881 C 273.021 1.96623 3.03351 0
M  V30 2882 O 272.742 3.34594 2.82804 0
M  V30 2883 C 274.243 1.95644 3.97792 0
M  V30 2884 H 271.463 0.426126 0.518322 0
M  V30 2885 H 274.007 1.7275 1.09442 0
M  V30 2886 H 272.162 1.50892 3.56806 0
M  V30 2887 H 272.576 3.71873 3.69879 0
M  V30 2888 H 274.05 2.51511 4.91372 0
M  V30 2889 H 274.527 0.937395 4.2908 0
M  V30 2890 H 275.133 2.41225 3.50272 0
M  V30 2891 N 273.449 -1.08991 1.13837 0
M  V30 2892 C 274.677 -1.85011 0.926202 0
M  V30 2893 C 275.092 -1.8135 -0.525127 0
M  V30 2894 O 274.449 -1.21287 -1.36366 0
M  V30 2895 C 274.5 -3.32802 1.41155 0
M  V30 2896 O 274.221 -3.36444 2.80601 0
M  V30 2897 C 275.722 -4.25649 1.23847 0
M  V30 2898 H 272.942 -0.584249 0.32999 0
M  V30 2899 H 275.486 -1.37688 1.51202 0
M  V30 2900 H 273.641 -3.77536 0.868631 0
M  V30 2901 H 274.055 -4.28657 3.02248 0
M  V30 2902 H 275.529 -5.27485 1.62675 0
M  V30 2903 H 276.006 -4.38828 0.18065 0
M  V30 2904 H 276.612 -3.86735 1.76964 0
M  V30 2905 N 274.927 -0.932562 -1.27047 0
M  V30 2906 C 276.155 -0.592031 -1.98249 0
M  V30 2907 C 276.57 0.831062 -1.69525 0
M  V30 2908 O 275.927 1.55299 -0.958561 0
M  V30 2909 C 275.978 -0.814279 -3.5221 0
M  V30 2910 O 275.699 -2.18139 -3.7993 0
M  V30 2911 C 277.2 -0.483121 -4.4066 0
M  V30 2912 H 274.42 -0.223896 -0.632544 0
M  V30 2913 H 276.964 -1.25091 -1.61779 0
M  V30 2914 H 275.119 -0.20213 -3.86872 0
M  V30 2915 H 275.533 -2.235 -4.74498 0
M  V30 2916 H 277.007 -0.689298 -5.47679 0
M  V30 2917 H 277.484 0.581546 -4.35333 0
M  V30 2918 H 278.09 -1.07362 -4.11526 0
M  V30 2919 N 276.405 1.4127 -0.698611 0
M  V30 2920 C 277.654 2.00408 -0.227949 0
M  V30 2921 C 277.967 1.55981 1.18023 0
M  V30 2922 O 279.173 2.07699 1.74852 0
M  V30 2923 C 277.629 3.58129 -0.356636 0
M  V30 2924 C 277.237 4.11536 -1.77037 0
M  V30 2925 C 278.981 4.24466 0.0540969 0
M  V30 2926 C 276.888 5.61701 -1.85055 0
M  V30 2927 H 275.818 0.749586 -0.0814657 0
M  V30 2928 H 278.469 1.61713 -0.867249 0
M  V30 2929 H 276.851 3.94442 0.350965 0
M  V30 2930 H 278.025 3.86636 -2.50698 0
M  V30 2931 H 276.34 3.57736 -2.13105 0
M  V30 2932 H 278.937 5.34698 0.0146723 0
M  V30 2933 H 279.28 4.01687 1.09332 0
M  V30 2934 H 279.813 3.93198 -0.603337 0
M  V30 2935 H 276.552 5.89312 -2.8704 0
M  V30 2936 H 276.072 5.88519 -1.15783 0
M  V30 2937 H 277.751 6.26524 -1.61484 0
M  V30 2938 N 277.883 0.443576 1.51229 0
M  V30 2939 C 279.131 -0.120557 2.0174 0
M  V30 2940 C 279.452 -1.42665 1.32935 0
M  V30 2941 O 278.722 -1.9028 0.465866 0
M  V30 2942 H 277.302 -0.0475426 0.745486 0
M  V30 2943 H 279.964 0.587711 1.85828 0
M  V30 2944 H 279.06 -0.291972 3.10731 0
M  V30 2945 N 279.361 -1.56624 0.175154 0
M  V30 2946 C 280.271 -2.21741 -0.766042 0
M  V30 2947 C 281.287 -1.21023 -1.25018 0
M  V30 2948 O 282.463 -1.53697 -1.3015 0
M  V30 2949 C 279.528 -2.84839 -1.97655 0
M  V30 2950 C 278.589 -4.00769 -1.53892 0
M  V30 2951 C 277.822 -4.60849 -2.69173 0
M  V30 2952 O 278.045 -4.19823 -3.86141 0
M  V30 2953 O 276.979 -5.50655 -2.43028 0
M  V30 2954 H 280.805 -3.02738 -0.241585 0
M  V30 2955 H 278.39 -1.49305 -0.053222 0
M  V30 2956 H 280.272 -3.24834 -2.68442 0
M  V30 2957 H 278.947 -2.06836 -2.48999 0
M  V30 2958 H 277.854 -3.65436 -0.80044 0
M  V30 2959 H 279.187 -4.80376 -1.07236 0
M  V30 2960 N 280.839 0.0985539 -1.57292 0
M  V30 2961 C 282.25 0.653457 -1.74891 0
M  V30 2962 C 282.601 1.7929 -0.796838 0
M  V30 2963 O 281.726 2.16385 0.0254886 0
M  V30 2964 C 282.321 1.19216 -3.17133 0
M  V30 2965 C 280.88 1.69316 -3.36168 0
M  V30 2966 C 280.027 0.601294 -2.70702 0
M  V30 2967 H 282.978 -0.127497 -1.58187 0
M  V30 2968 H 282.999 2.06154 -3.19814 0
M  V30 2969 H 282.511 0.362635 -3.86402 0
M  V30 2970 H 280.612 2.5468 -2.71972 0
M  V30 2971 H 280.725 1.78853 -4.44464 0
M  V30 2972 H 279.089 1.0399 -2.32504 0
M  V30 2973 H 279.872 -0.217592 -3.4261 0
M  V30 2974 N 282.317 1.53212 0.369288 0
M  V30 2975 C 283.227 1.82342 1.47609 0
M  V30 2976 C 284.243 0.711532 1.58787 0
M  V30 2977 O 285.419 1.0012 1.74751 0
M  V30 2978 C 282.484 2.00393 2.8292 0
M  V30 2979 C 281.545 3.24297 2.81301 0
M  V30 2980 C 280.778 3.41478 4.10157 0
M  V30 2981 O 281.001 2.63033 5.06132 0
M  V30 2982 O 279.935 4.34817 4.16194 0
M  V30 2983 H 283.761 2.76366 1.25918 0
M  V30 2984 H 281.346 1.38547 0.559034 0
M  V30 2985 H 283.228 2.13859 3.63101 0
M  V30 2986 H 281.903 1.09559 3.04596 0
M  V30 2987 H 280.81 3.16257 1.99831 0
M  V30 2988 H 282.143 4.15041 2.64578 0
M  V30 2989 N 283.795 -0.628877 1.44509 0
M  V30 2990 C 284.743 -1.76193 1.51852 0
M  V30 2991 C 285.737 -1.64849 0.390042 0
M  V30 2992 O 286.943 -1.709 0.565082 0
M  V30 2993 H 283.318 -0.581728 0.476547 0
M  V30 2994 H 285.289 -1.67123 2.47209 0
M  V30 2995 C 284.038 -3.14533 1.48204 0
M  V30 2996 H 283.361 -3.23911 2.34354 0
M  V30 2997 H 284.801 -3.93701 1.57402 0
M  V30 2998 C 283.26 -3.36287 0.203142 0
M  V30 2999 O 283.79 -3.9509 -0.725745 0
M  V30 3000 N 281.996 -2.90408 0.105563 0
M  V30 3001 H 281.543 -2.42739 0.862301 0
M  V30 3002 H 281.501 -3.05339 -0.749371 0
M  V30 3003 N 285.273 -1.31445 -0.869486 0
M  V30 3004 C 286.22 -1.19135 -1.97675 0
M  V30 3005 C 287.19 -0.0770266 -1.65921 0
M  V30 3006 O 288.375 -0.249972 -1.89155 0
M  V30 3007 C 285.515 -0.905149 -3.33018 0
M  V30 3008 C 284.628 -2.10285 -3.77365 0
M  V30 3009 C 283.763 -1.75339 -5.01427 0
M  V30 3010 C 282.802 -2.91515 -5.38224 0
M  V30 3011 N 281.939 -2.56762 -6.53466 0
M  V30 3012 H 286.779 -2.13853 -2.07535 0
M  V30 3013 H 284.316 -1.06379 -1.01597 0
M  V30 3014 H 286.274 -0.719765 -4.10944 0
M  V30 3015 H 284.904 0.00519624 -3.228 0
M  V30 3016 H 283.956 -2.39899 -2.95216 0
M  V30 3017 H 285.268 -2.97237 -4.00564 0
M  V30 3018 H 284.422 -1.53266 -5.87022 0
M  V30 3019 H 283.161 -0.855801 -4.80133 0
M  V30 3020 H 282.166 -3.14237 -4.51149 0
M  V30 3021 H 283.391 -3.81985 -5.61484 0
M  V30 3022 H 281.337 -1.69526 -6.33717 0
M  V30 3023 H 281.254 -3.37243 -6.76612 0
M  V30 3024 H 282.522 -2.38083 -7.42251 0
M  V30 3025 N 286.751 1.08385 -1.14413 0
M  V30 3026 C 287.976 1.85057 -0.936413 0
M  V30 3027 C 288.401 1.81055 0.509971 0
M  V30 3028 O 287.759 1.1958 1.36273 0
M  V30 3029 C 287.807 3.30505 -1.44217 0
M  V30 3030 O 286.911 4.07491 -0.634409 0
M  V30 3031 H 286.252 0.573425 -0.334784 0
M  V30 3032 H 288.782 1.36799 -1.52142 0
M  V30 3033 H 288.792 3.81348 -1.45043 0
M  V30 3034 H 287.467 3.32734 -2.49522 0
M  V30 3035 H 286.044 3.66368 -0.694902 0
M  V30 3036 N 288.23 0.939286 1.26551 0
M  V30 3037 C 289.177 0.446088 2.26448 0
M  V30 3038 C 290.147 -0.493234 1.58608 0
M  V30 3039 O 291.332 -0.409857 1.86346 0
M  V30 3040 C 288.472 -0.284375 3.43926 0
M  V30 3041 C 287.585 0.690399 4.26448 0
M  V30 3042 C 286.72 -0.0610712 5.31165 0
M  V30 3043 C 285.759 0.905649 6.05363 0
M  V30 3044 N 284.896 0.186055 7.01853 0
M  V30 3045 H 289.736 1.30291 2.68008 0
M  V30 3046 H 287.273 0.65371 1.31776 0
M  V30 3047 H 289.231 -0.724313 4.10864 0
M  V30 3048 H 287.861 -1.10535 3.03285 0
M  V30 3049 H 286.913 1.24885 3.59316 0
M  V30 3050 H 288.225 1.42873 4.779 0
M  V30 3051 H 287.379 -0.56038 6.04106 0
M  V30 3052 H 286.118 -0.832297 4.80546 0
M  V30 3053 H 285.123 1.4161 5.3125 0
M  V30 3054 H 286.348 1.67685 6.58072 0
M  V30 3055 H 284.294 -0.566714 6.53548 0
M  V30 3056 H 284.211 0.863752 7.51049 0
M  V30 3057 H 285.479 -0.292221 7.78952 0
M  V30 3058 N 289.708 -1.40897 0.706093 0
M  V30 3059 C 290.64 -2.29199 0.00815776 0
M  V30 3060 C 291.653 -1.45336 -0.733582 0
M  V30 3061 O 292.842 -1.68727 -0.582537 0
M  V30 3062 C 289.942 -3.23417 -1.01265 0
M  V30 3063 C 289.115 -4.36089 -0.338387 0
M  V30 3064 C 288.174 -5.10811 -1.26326 0
M  V30 3065 O 287.2 -5.64215 -0.751651 0
M  V30 3066 N 288.402 -5.19269 -2.595 0
M  V30 3067 H 291.167 -2.89738 0.766297 0
M  V30 3068 H 288.728 -1.52164 0.55296 0
M  V30 3069 H 290.72 -3.70276 -1.63334 0
M  V30 3070 H 289.29 -2.64112 -1.67223 0
M  V30 3071 H 288.51 -3.91479 0.462352 0
M  V30 3072 H 289.798 -5.08634 0.130031 0
M  V30 3073 H 289.196 -4.77347 -3.03573 0
M  V30 3074 H 287.753 -5.69667 -3.16737 0
M  V30 3075 N 291.186 -0.45159 -1.50991 0
M  V30 3076 C 292.134 0.366864 -2.29689 0
M  V30 3077 C 293.128 1.00809 -1.36139 0
M  V30 3078 O 294.334 0.941427 -1.53418 0
M  V30 3079 H 290.709 0.137133 -0.739391 0
M  V30 3080 H 292.68 -0.317538 -2.96706 0
M  V30 3081 C 291.429 1.44751 -3.16137 0
M  V30 3082 H 290.752 0.963473 -3.88017 0
M  V30 3083 H 292.192 1.99315 -3.74232 0
M  V30 3084 C 290.651 2.43869 -2.32442 0
M  V30 3085 O 291.181 3.4872 -1.99392 0
M  V30 3086 N 289.387 2.15105 -1.95392 0
M  V30 3087 H 288.934 1.29866 -2.22469 0
M  V30 3088 H 288.892 2.81661 -1.39693 0
M  V30 3089 N 292.664 1.56529 -0.183458 0
M  V30 3090 C 293.574 2.22144 0.754272 0
M  V30 3091 C 294.59 1.21684 1.24374 0
M  V30 3092 O 295.766 1.54385 1.29333 0
M  V30 3093 C 292.831 2.85884 1.96141 0
M  V30 3094 C 291.892 4.01579 1.51765 0
M  V30 3095 C 291.125 4.6227 2.66725 0
M  V30 3096 O 291.348 4.21865 3.83909 0
M  V30 3097 O 290.282 5.51936 2.40104 0
M  V30 3098 H 294.108 3.02861 0.225527 0
M  V30 3099 H 291.693 1.49331 0.0453032 0
M  V30 3100 H 293.575 3.26253 2.66715 0
M  V30 3101 H 292.25 2.08154 2.47899 0
M  V30 3102 H 291.157 3.65856 0.781049 0
M  V30 3103 H 292.49 4.80938 1.04686 0
M  V30 3104 N 294.142 -0.090211 1.57342 0
M  V30 3105 C 295.075 -1.14035 1.97664 0
M  V30 3106 C 296.053 -1.38576 0.850616 0
M  V30 3107 O 297.237 -1.52255 1.11134 0
M  V30 3108 C 294.364 -2.48854 2.2976 0
M  V30 3109 C 293.41 -2.40564 3.52181 0
M  V30 3110 S 294.243 -1.81745 5.03715 0
M  V30 3111 C 295.399 -3.18178 5.38993 0
M  V30 3112 H 295.632 -0.796636 2.86428 0
M  V30 3113 H 293.165 -0.298072 1.51496 0
M  V30 3114 H 295.123 -3.26413 2.48927 0
M  V30 3115 H 293.784 -2.80393 1.41558 0
M  V30 3116 H 292.977 -3.39942 3.72096 0
M  V30 3117 H 292.579 -1.71135 3.32549 0
M  V30 3118 H 294.871 -4.14461 5.35937 0
M  V30 3119 H 295.814 -3.03062 6.39968 0
M  V30 3120 H 296.222 -3.17935 4.66452 0
M  V30 3121 N 295.62 -1.53406 -0.361157 0
M  V30 3122 C 296.55 -1.83136 -1.44857 0
M  V30 3123 C 297.531 -0.685174 -1.5569 0
M  V30 3124 O 298.716 -0.93544 -1.70186 0
M  V30 3125 C 295.846 -2.02522 -2.82138 0
M  V30 3126 C 294.8 -3.18302 -2.86126 0
M  V30 3127 C 294.126 -3.22989 -4.26125 0
M  V30 3128 C 295.426 -4.56796 -2.53248 0
M  V30 3129 H 297.12 -2.74201 -1.20226 0
M  V30 3130 H 294.666 -1.31938 -0.576922 0
M  V30 3131 H 296.619 -2.21904 -3.58241 0
M  V30 3132 H 295.343 -1.08172 -3.08166 0
M  V30 3133 H 294.002 -2.98747 -2.12475 0
M  V30 3134 H 293.65 -2.26267 -4.49235 0
M  V30 3135 H 293.35 -4.00781 -4.29708 0
M  V30 3136 H 294.874 -3.44559 -5.04094 0
M  V30 3137 H 296.288 -4.7631 -3.19064 0
M  V30 3138 H 294.685 -5.36862 -2.68141 0
M  V30 3139 H 295.755 -4.61606 -1.48484 0
M  V30 3140 N 297.098 0.621204 -1.44841 0
M  V30 3141 C 298.344 1.3826 -1.48365 0
M  V30 3142 C 298.677 1.93831 -0.119624 0
M  V30 3143 O 297.952 1.74251 0.864111 0
M  V30 3144 C 298.235 2.54058 -2.55199 0
M  V30 3145 C 298.088 2.03772 -4.00995 0
M  V30 3146 C 299.407 3.56225 -2.58442 0
M  V30 3147 H 296.526 0.501374 -0.540179 0
M  V30 3148 H 299.168 0.7015 -1.76576 0
M  V30 3149 H 297.318 3.12162 -2.31274 0
M  V30 3150 H 298.99 1.50423 -4.36086 0
M  V30 3151 H 297.233 1.34876 -4.12299 0
M  V30 3152 H 297.904 2.87185 -4.71411 0
M  V30 3153 H 300.38 3.07939 -2.79844 0
M  V30 3154 H 299.256 4.34756 -3.3508 0
M  V30 3155 H 299.517 4.10949 -1.63013 0
M  V30 3156 N 298.576 1.31904 0.862503 0
M  V30 3157 C 299.539 1.20131 1.95195 0
M  V30 3158 C 300.539 0.126409 1.60302 0
M  V30 3159 O 301.729 0.376234 1.70089 0
M  V30 3160 C 298.861 0.845691 3.30244 0
M  V30 3161 H 300.054 2.16943 2.07064 0
M  V30 3162 H 297.607 1.15622 1.05172 0
M  V30 3163 H 298.342 -0.120957 3.24074 0
M  V30 3164 H 298.127 1.62276 3.56944 0
M  V30 3165 H 299.617 0.787418 4.10109 0
M  V30 3166 N 300.054 -1.07777 1.14986 0
M  V30 3167 C 301.017 -2.13041 0.845358 0
M  V30 3168 C 302.017 -1.60071 -0.152931 0
M  V30 3169 O 303.207 -1.74033 0.0761879 0
M  V30 3170 C 300.339 -3.39896 0.261383 0
M  V30 3171 H 301.532 -2.41485 1.77834 0
M  V30 3172 H 299.085 -1.23595 0.956757 0
M  V30 3173 H 299.82 -3.17091 -0.68 0
M  V30 3174 H 299.605 -3.79642 0.980514 0
M  V30 3175 H 301.095 -4.17548 0.0657687 0
M  V30 3176 N 301.532 -0.945985 -1.26051 0
M  V30 3177 C 302.495 -0.463897 -2.24456 0
M  V30 3178 C 303.495 0.427655 -1.55009 0
M  V30 3179 O 304.685 0.226157 -1.72726 0
M  V30 3180 C 301.817 0.330812 -3.39291 0
M  V30 3181 H 303.01 -1.33357 -2.68619 0
M  V30 3182 H 300.563 -0.728416 -1.38289 0
M  V30 3183 H 301.298 1.21852 -3.00537 0
M  V30 3184 H 301.083 -0.308679 -3.90883 0
M  V30 3185 H 302.573 0.657865 -4.12386 0
M  V30 3186 N 303.011 1.40521 -0.713556 0
M  V30 3187 C 303.974 2.29098 -0.0684347 0
M  V30 3188 C 304.974 1.45268 0.689472 0
M  V30 3189 O 306.164 1.66205 0.521677 0
M  V30 3190 C 303.296 3.28446 0.913024 0
M  V30 3191 H 304.489 2.87645 -0.84855 0
M  V30 3192 H 302.042 1.48809 -0.47809 0
M  V30 3193 H 302.777 2.74913 1.72027 0
M  V30 3194 H 302.562 3.90327 0.372472 0
M  V30 3195 H 304.052 3.94777 1.36165 0
M  V30 3196 N 304.489 0.459591 1.5075 0
M  V30 3197 C 305.735 -0.0994966 2.02556 0
M  V30 3198 C 306.068 -1.40399 1.3417 0
M  V30 3199 O 305.343 -1.88892 0.463683 0
M  V30 3200 C 305.626 -0.295242 3.58888 0
M  V30 3201 C 305.479 1.02947 4.37861 0
M  V30 3202 C 306.798 -1.05502 4.27267 0
M  V30 3203 H 303.917 -0.034686 0.736183 0
M  V30 3204 H 306.559 0.602938 1.8018 0
M  V30 3205 H 304.709 -0.893563 3.78084 0
M  V30 3206 H 306.381 1.66348 4.30263 0
M  V30 3207 H 304.624 1.62885 4.02058 0
M  V30 3208 H 305.295 0.846281 5.45474 0
M  V30 3209 H 307.771 -0.547993 4.12476 0
M  V30 3210 H 306.647 -1.16077 5.36486 0
M  V30 3211 H 306.908 -2.08875 3.89645 0
M  V30 3212 N 305.967 -1.56429 0.191757 0
M  V30 3213 C 307.215 -1.97095 -0.447006 0
M  V30 3214 C 307.536 -1.07967 -1.62383 0
M  V30 3215 O 306.806 -0.150248 -1.95323 0
M  V30 3216 H 305.386 -0.727832 -0.168135 0
M  V30 3217 H 308.048 -1.92911 0.27771 0
M  V30 3218 H 307.144 -3.01848 -0.793371 0
M  V30 3219 N 307.445 0.0818655 -1.57387 0
M  V30 3220 C 308.691 0.784074 -1.8703 0
M  V30 3221 C 309.024 1.77729 -0.782689 0
M  V30 3222 O 308.299 1.93384 0.208051 0
M  V30 3223 C 308.582 1.50105 -3.27323 0
M  V30 3224 C 308.435 0.524925 -4.46727 0
M  V30 3225 C 309.754 2.44843 -3.65705 0
M  V30 3226 H 306.873 0.283582 -0.680257 0
M  V30 3227 H 309.515 0.0474352 -1.89941 0
M  V30 3228 H 307.665 2.12897 -3.24972 0
M  V30 3229 H 309.337 -0.0970111 -4.61198 0
M  V30 3230 H 307.58 -0.160606 -4.33503 0
M  V30 3231 H 308.251 1.064 -5.41648 0
M  V30 3232 H 310.727 1.92135 -3.69085 0
M  V30 3233 H 309.603 2.92018 -4.64776 0
M  V30 3234 H 309.864 3.29197 -2.95096 0
M  V30 3235 N 308.923 1.53595 0.353017 0
M  V30 3236 C 309.886 1.80232 1.41594 0
M  V30 3237 C 310.886 0.673081 1.46035 0
M  V30 3238 O 312.076 0.941335 1.46576 0
M  V30 3239 C 309.208 1.93578 2.80607 0
M  V30 3240 H 310.401 2.75174 1.19244 0
M  V30 3241 H 307.954 1.44864 0.586872 0
M  V30 3242 H 308.689 1.00746 3.08254 0
M  V30 3243 H 308.474 2.75724 2.78781 0
M  V30 3244 H 309.964 2.15735 3.57558 0
M  V30 3245 N 310.401 -0.613514 1.45168 0
M  V30 3246 C 311.629 -1.39946 1.5239 0
M  V30 3247 C 312.044 -1.88167 0.154531 0
M  V30 3248 O 311.401 -1.61872 -0.842843 0
M  V30 3249 C 311.452 -2.60795 2.50337 0
M  V30 3250 O 311.173 -2.1458 3.81952 0
M  V30 3251 C 312.674 -3.53723 2.67198 0
M  V30 3252 H 309.894 -0.428593 0.516284 0
M  V30 3253 H 312.438 -0.748753 1.903 0
M  V30 3254 H 310.593 -3.21919 2.15515 0
M  V30 3255 H 311.007 -2.93055 4.34993 0
M  V30 3256 H 312.481 -4.35079 3.39721 0
M  V30 3257 H 312.958 -4.0368 1.73029 0
M  V30 3258 H 313.564 -2.98456 3.02992 0
M  V30 3259 N 311.879 -1.3236 -0.855495 0
M  V30 3260 C 313.125 -1.23054 -1.612 0
M  V30 3261 C 313.458 0.207404 -1.93089 0
M  V30 3262 O 312.733 1.14432 -1.57275 0
M  V30 3263 C 313.016 -2.08937 -2.93287 0
M  V30 3264 C 312.869 -3.61105 -2.68185 0
M  V30 3265 C 314.188 -1.94986 -3.94549 0
M  V30 3266 H 311.307 -0.448364 -0.584926 0
M  V30 3267 H 313.949 -1.62297 -0.987917 0
M  V30 3268 H 312.099 -1.75599 -3.46551 0
M  V30 3269 H 313.771 -4.04652 -2.21483 0
M  V30 3270 H 312.014 -3.83813 -2.02164 0
M  V30 3271 H 312.685 -4.16522 -3.62234 0
M  V30 3272 H 315.161 -2.24189 -3.5054 0
M  V30 3273 H 314.037 -2.57356 -4.84829 0
M  V30 3274 H 314.298 -0.917263 -4.3248 0
M  V30 3275 N 313.357 1.07166 -1.15556 0
M  V30 3276 C 314.604 1.79798 -0.931604 0
M  V30 3277 C 314.932 1.8682 0.54115 0
M  V30 3278 O 314.187 1.34942 1.41736 0
M  V30 3279 C 314.486 3.24707 -1.49332 0
M  V30 3280 C 314.152 3.37781 -2.98688 0
M  V30 3281 C 312.814 3.41057 -3.39461 0
M  V30 3282 C 315.166 3.40424 -3.94665 0
M  V30 3283 C 312.494 3.4458 -4.74849 0
M  V30 3284 C 314.846 3.45485 -5.29927 0
M  V30 3285 C 313.51 3.47039 -5.70193 0
M  V30 3286 H 312.78 0.657928 -0.340898 0
M  V30 3287 H 315.427 1.26091 -1.44129 0
M  V30 3288 H 313.732 3.81208 -0.904859 0
M  V30 3289 H 315.429 3.79486 -1.29582 0
M  V30 3290 H 312.019 3.35932 -2.66172 0
M  V30 3291 H 316.203 3.37113 -3.64237 0
M  V30 3292 H 311.459 3.44083 -5.05388 0
M  V30 3293 H 315.633 3.46476 -6.04092 0
M  V30 3294 H 313.26 3.49522 -6.75084 0
M  V30 3295 N 314.835 0.952656 1.25548 0
M  V30 3296 C 315.798 0.475794 2.24207 0
M  V30 3297 C 316.798 -0.419428 1.55234 0
M  V30 3298 O 317.988 -0.216994 1.72843 0
M  V30 3299 C 315.12 -0.312814 3.39462 0
M  V30 3300 H 316.313 1.34779 2.67908 0
M  V30 3301 H 313.866 0.735739 1.37901 0
M  V30 3302 H 314.601 -1.20257 3.01179 0
M  V30 3303 H 314.386 0.329404 3.90714 0
M  V30 3304 H 315.876 -0.635986 4.12729 0
M  V30 3305 N 316.313 -1.40141 0.720998 0
M  V30 3306 C 317.276 -2.29058 0.0805834 0
M  V30 3307 C 318.276 -1.45632 -0.681758 0
M  V30 3308 O 319.466 -1.6648 -0.512856 0
M  V30 3309 C 316.598 -3.28925 -0.895593 0
M  V30 3310 H 317.791 -2.87191 0.863793 0
M  V30 3311 H 315.344 -1.48553 0.485975 0
M  V30 3312 H 316.079 -2.75822 -1.70566 0
M  V30 3313 H 315.864 -3.90519 -0.351766 0
M  V30 3314 H 317.354 -3.95494 -1.34069 0
M  V30 3315 N 317.792 -0.46758 -1.50504 0
M  V30 3316 C 319.203 -0.0116166 -1.86696 0
M  V30 3317 C 319.554 1.39202 -1.38265 0
M  V30 3318 O 318.679 2.0313 -0.746132 0
M  V30 3319 C 319.274 -0.0143044 -3.38797 0
M  V30 3320 C 317.833 0.386175 -3.74414 0
M  V30 3321 C 316.98 -0.401287 -2.74381 0
M  V30 3322 H 319.931 -0.682022 -1.43297 0
M  V30 3323 H 319.952 0.788641 -3.72237 0
M  V30 3324 H 319.464 -1.03602 -3.74016 0
M  V30 3325 H 317.565 1.41237 -3.44794 0
M  V30 3326 H 317.678 0.0899596 -4.79016 0
M  V30 3327 H 316.042 0.144536 -2.5429 0
M  V30 3328 H 316.825 -1.42244 -3.12444 0
M  V30 3329 N 319.27 1.56325 -0.20005 0
M  V30 3330 C 320.517 1.97719 0.437411 0
M  V30 3331 C 320.845 1.08709 1.61284 0
M  V30 3332 O 320.1 0.127261 1.95286 0
M  V30 3333 C 320.399 3.4495 0.935103 0
M  V30 3334 C 320.065 4.5072 -0.12749 0
M  V30 3335 C 318.727 4.79368 -0.419451 0
M  V30 3336 C 321.079 5.14268 -0.847231 0
M  V30 3337 C 318.407 5.68854 -1.43604 0
M  V30 3338 C 320.759 6.04852 -1.85301 0
M  V30 3339 C 319.423 6.31855 -2.15211 0
M  V30 3340 H 318.693 0.723507 0.16006 0
M  V30 3341 H 321.34 1.89166 -0.298056 0
M  V30 3342 H 319.645 3.50599 1.74894 0
M  V30 3343 H 321.342 3.74337 1.43781 0
M  V30 3344 H 317.932 4.28458 0.11023 0
M  V30 3345 H 322.116 4.92222 -0.634901 0
M  V30 3346 H 317.372 5.88047 -1.67364 0
M  V30 3347 H 321.546 6.53152 -2.41591 0
M  V30 3348 H 319.173 7.00994 -2.94129 0
M  V30 3349 N 320.748 -0.0735177 1.57428 0
M  V30 3350 C 321.973 -0.789787 1.91774 0
M  V30 3351 C 322.398 -1.70413 0.796306 0
M  V30 3352 O 321.756 -1.79555 -0.250961 0
M  V30 3353 C 321.804 -1.5609 3.25067 0
M  V30 3354 O 320.908 -2.67144 3.14178 0
M  V30 3355 H 320.249 -0.215582 0.628029 0
M  V30 3356 H 322.779 -0.0422781 2.04556 0
M  V30 3357 H 322.789 -1.94052 3.58898 0
M  V30 3358 H 321.464 -0.890015 4.06265 0
M  V30 3359 H 320.041 -2.32052 2.91901 0
M  V30 3360 N 322.226 -1.5378 -0.344866 0
M  V30 3361 C 323.474 -1.70625 -1.08311 0
M  V30 3362 C 323.795 -0.471447 -1.89215 0
M  V30 3363 O 323.065 0.514616 -1.8902 0
M  V30 3364 H 321.645 -0.629058 -0.402859 0
M  V30 3365 H 324.307 -1.9103 -0.386459 0
M  V30 3366 H 323.403 -2.57656 -1.76124 0
M  V30 3367 N 323.704 0.605807 -1.45491 0
M  V30 3368 C 324.95 1.36679 -1.49823 0
M  V30 3369 C 325.283 1.93693 -0.140175 0
M  V30 3370 O 324.558 1.75158 0.845581 0
M  V30 3371 C 324.841 2.51337 -2.57879 0
M  V30 3372 C 324.694 1.99508 -4.03134 0
M  V30 3373 C 326.013 3.53463 -2.62205 0
M  V30 3374 H 323.132 0.495617 -0.545466 0
M  V30 3375 H 325.774 0.682732 -1.7731 0
M  V30 3376 H 323.924 3.09691 -2.34571 0
M  V30 3377 H 325.596 1.45789 -4.37656 0
M  V30 3378 H 323.839 1.30496 -4.13707 0
M  V30 3379 H 324.51 2.82169 -4.74431 0
M  V30 3380 H 326.986 3.04953 -2.83095 0
M  V30 3381 H 325.862 4.31178 -3.39672 0
M  V30 3382 H 326.123 4.09197 -1.67363 0
M  V30 3383 N 325.182 1.32811 0.848464 0
M  V30 3384 C 326.112 1.24882 1.97299 0
M  V30 3385 C 327.093 0.131357 1.69592 0
M  V30 3386 O 328.278 0.319553 1.91553 0
M  V30 3387 C 325.408 0.97746 3.33261 0
M  V30 3388 C 324.362 2.05682 3.75338 0
M  V30 3389 C 323.688 1.63777 5.09 0
M  V30 3390 C 324.988 3.47254 3.90144 0
M  V30 3391 H 326.682 2.18966 2.04191 0
M  V30 3392 H 324.228 1.05413 0.981029 0
M  V30 3393 H 326.181 0.908513 4.1149 0
M  V30 3394 H 324.905 0.000980011 3.266 0
M  V30 3395 H 323.564 2.11603 2.99366 0
M  V30 3396 H 323.212 0.648569 4.98801 0
M  V30 3397 H 322.912 2.36 5.38124 0
M  V30 3398 H 324.436 1.5833 5.89715 0
M  V30 3399 H 325.85 3.43888 4.58709 0
M  V30 3400 H 324.247 4.1788 4.30693 0
M  V30 3401 H 325.317 3.86462 2.92874 0
M  V30 3402 N 326.66 -1.06551 1.16123 0
M  V30 3403 C 327.907 -1.79302 0.941126 0
M  V30 3404 C 328.235 -1.87105 -0.531235 0
M  V30 3405 O 327.49 -1.35692 -1.41018 0
M  V30 3406 C 327.789 -3.23911 1.51052 0
M  V30 3407 C 327.455 -3.36193 3.00475 0
M  V30 3408 C 326.117 -3.39252 3.41265 0
M  V30 3409 C 328.469 -3.38326 3.96465 0
M  V30 3410 C 325.797 -3.42057 4.76669 0
M  V30 3411 C 328.149 -3.4267 5.31752 0
M  V30 3412 C 326.813 -3.4401 5.72026 0
M  V30 3413 H 326.083 -0.656111 0.344382 0
M  V30 3414 H 328.73 -1.25325 1.44796 0
M  V30 3415 H 327.035 -3.80723 0.925063 0
M  V30 3416 H 328.732 -3.78793 1.31593 0
M  V30 3417 H 325.322 -3.34516 2.6795 0
M  V30 3418 H 329.506 -3.35176 3.6602 0
M  V30 3419 H 324.762 -3.41398 5.07206 0
M  V30 3420 H 328.936 -3.43268 6.05921 0
M  V30 3421 H 326.563 -3.45937 6.76928 0
M  V30 3422 N 328.138 -0.959301 -1.25041 0
M  V30 3423 C 329.363 -0.633507 -1.97488 0
M  V30 3424 C 329.788 0.788555 -1.70773 0
M  V30 3425 O 329.146 1.53394 -0.966431 0
M  V30 3426 C 329.194 -0.904057 -3.49083 0
M  V30 3427 O 328.298 0.0147939 -4.12397 0
M  V30 3428 H 327.639 -0.240368 -0.618966 0
M  V30 3429 H 330.169 -1.28717 -1.59038 0
M  V30 3430 H 330.179 -0.832203 -3.99423 0
M  V30 3431 H 328.854 -1.94048 -3.67856 0
M  V30 3432 H 327.431 -0.109664 -3.72739 0
M  V30 3433 N 329.616 1.39756 -0.72842 0
M  V30 3434 C 330.865 1.99879 -0.270407 0
M  V30 3435 C 331.178 1.58449 1.14688 0
M  V30 3436 O 332.384 2.11362 1.70407 0
M  V30 3437 C 330.84 3.57292 -0.43252 0
M  V30 3438 C 330.448 4.07688 -1.85727 0
M  V30 3439 C 332.192 4.24485 -0.0359507 0
M  V30 3440 C 330.099 5.5765 -1.96928 0
M  V30 3441 H 329.029 0.747689 -0.0973472 0
M  V30 3442 H 331.68 1.59837 -0.901355 0
M  V30 3443 H 330.062 3.95097 0.267219 0
M  V30 3444 H 331.236 3.81231 -2.58843 0
M  V30 3445 H 329.551 3.53135 -2.20646 0
M  V30 3446 H 332.148 5.34609 -0.0987484 0
M  V30 3447 H 332.491 4.03915 1.00787 0
M  V30 3448 H 333.024 3.9183 -0.686604 0
M  V30 3449 H 329.763 5.8309 -2.99476 0
M  V30 3450 H 329.283 5.8593 -1.28241 0
M  V30 3451 H 330.962 6.22957 -1.74737 0
M  V30 3452 N 331.094 0.475555 1.50254 0
M  V30 3453 C 332.004 -0.321501 2.32387 0
M  V30 3454 C 333.02 -0.991755 1.42969 0
M  V30 3455 O 334.196 -0.978747 1.76018 0
M  V30 3456 C 331.261 -1.38667 3.17762 0
M  V30 3457 C 330.322 -0.732538 4.23004 0
M  V30 3458 C 329.555 -1.74695 5.04299 0
M  V30 3459 O 329.778 -2.97399 4.86734 0
M  V30 3460 O 328.712 -1.31631 5.8733 0
M  V30 3461 H 332.538 0.350071 3.01676 0
M  V30 3462 H 330.123 0.237321 1.47503 0
M  V30 3463 H 332.005 -2.00354 3.70724 0
M  V30 3464 H 330.68 -2.04163 2.51196 0
M  V30 3465 H 329.587 -0.0765902 3.74022 0
M  V30 3466 H 330.92 -0.120452 4.92053 0
M  V30 3467 N 332.573 -1.56217 0.208337 0
M  V30 3468 C 333.819 -1.98242 -0.427552 0
M  V30 3469 C 334.152 -1.09554 -1.60348 0
M  V30 3470 O 333.427 -0.15035 -1.93918 0
M  V30 3471 C 333.71 -3.4931 -0.874907 0
M  V30 3472 C 333.563 -4.48773 0.303751 0
M  V30 3473 C 334.882 -4.04424 -1.73577 0
M  V30 3474 H 332.001 -0.720744 -0.153936 0
M  V30 3475 H 334.643 -1.87586 0.30192 0
M  V30 3476 H 332.793 -3.58522 -1.49648 0
M  V30 3477 H 334.465 -4.51586 0.941682 0
M  V30 3478 H 332.708 -4.23194 0.953375 0
M  V30 3479 H 333.379 -5.51976 -0.0519883 0
M  V30 3480 H 335.855 -3.98075 -1.21143 0
M  V30 3481 H 334.731 -5.1047 -2.01771 0
M  V30 3482 H 334.992 -3.50494 -2.69456 0
M  V30 3483 N 334.051 0.0651679 -1.57465 0
M  V30 3484 C 334.984 1.10876 -1.99453 0
M  V30 3485 C 335.962 1.37205 -0.872555 0
M  V30 3486 O 337.146 1.50468 -1.13542 0
M  V30 3487 C 334.273 2.45167 -2.3369 0
M  V30 3488 C 333.319 2.3493 -3.55964 0
M  V30 3489 S 334.152 1.73708 -5.06543 0
M  V30 3490 C 335.308 3.09563 -5.43987 0
M  V30 3491 H 335.541 0.750967 -2.87659 0
M  V30 3492 H 333.074 0.273933 -1.51951 0
M  V30 3493 H 335.032 3.22412 -2.54088 0
M  V30 3494 H 333.693 2.78105 -1.46001 0
M  V30 3495 H 332.886 3.3398 -3.77457 0
M  V30 3496 H 332.488 1.65823 -3.3523 0
M  V30 3497 H 334.78 4.05882 -5.42463 0
M  V30 3498 H 335.723 2.92843 -6.44708 0
M  V30 3499 H 336.131 3.10474 -4.71451 0
M  V30 3500 N 335.529 1.53961 0.336706 0
M  V30 3501 C 336.754 1.75797 1.10046 0
M  V30 3502 C 337.179 0.498985 1.81361 0
M  V30 3503 O 336.537 -0.548769 1.72795 0
M  V30 3504 C 336.585 2.94257 2.08436 0
M  V30 3505 O 335.689 2.64883 3.16087 0
M  V30 3506 H 335.03 0.582936 0.317934 0
M  V30 3507 H 337.56 2.00945 0.38501 0
M  V30 3508 H 337.57 3.21237 2.51537 0
M  V30 3509 H 336.245 3.85564 1.55927 0
M  V30 3510 H 334.822 2.48812 2.77753 0
M  V30 3511 N 337.007 -0.598083 1.45811 0
M  V30 3512 C 338.232 -1.3881 1.54099 0
M  V30 3513 C 338.657 -1.8726 0.177578 0
M  V30 3514 O 338.015 -1.6069 -0.839541 0
M  V30 3515 C 338.063 -2.56217 2.53743 0
M  V30 3516 O 337.167 -3.5716 2.06182 0
M  V30 3517 H 336.508 -0.414024 0.519115 0
M  V30 3518 H 339.038 -0.726971 1.91249 0
M  V30 3519 H 339.048 -3.03337 2.72856 0
M  V30 3520 H 337.723 -2.20303 3.5276 0
M  V30 3521 H 336.3 -3.16624 1.96987 0
M  V30 3522 N 338.485 -1.33259 -0.841409 0
M  V30 3523 C 339.435 -1.19872 -1.93945 0
M  V30 3524 C 340.419 -0.102269 -1.60575 0
M  V30 3525 O 341.611 -0.330114 -1.73894 0
M  V30 3526 C 338.74 -0.937517 -3.30251 0
M  V30 3527 C 337.826 -2.07629 -3.69799 0
M  V30 3528 N 338.217 -3.32604 -3.81062 0
M  V30 3529 C 336.515 -1.98242 -3.9952 0
M  V30 3530 C 337.216 -4.07275 -4.15333 0
M  V30 3531 N 336.192 -3.35691 -4.27566 0
M  V30 3532 H 339.994 -2.14604 -2.00805 0
M  V30 3533 H 337.508 -1.2523 -1.03398 0
M  V30 3534 H 339.505 -0.822545 -4.08705 0
M  V30 3535 H 338.165 0.00128798 -3.247 0
M  V30 3536 H 339.176 -3.67382 -3.65035 0
M  V30 3537 H 335.853 -1.12005 -4.02195 0
M  V30 3538 H 337.243 -5.1511 -4.31406 0
M  V30 3539 N 339.963 1.05934 -1.16686 0
M  V30 3540 C 341.21 1.788 -0.950622 0
M  V30 3541 C 341.538 1.87384 0.521305 0
M  V30 3542 O 340.793 1.36438 1.40297 0
M  V30 3543 C 341.092 3.23105 -1.52767 0
M  V30 3544 C 340.758 3.34594 -3.02254 0
M  V30 3545 C 339.42 3.37437 -3.43059 0
M  V30 3546 C 341.772 3.36219 -3.98254 0
M  V30 3547 C 339.1 3.39525 -4.78477 0
M  V30 3548 C 341.452 3.39845 -5.33562 0
M  V30 3549 C 340.116 3.40971 -5.73842 0
M  V30 3550 H 339.386 0.654275 -0.347857 0
M  V30 3551 H 342.033 1.24555 -1.45459 0
M  V30 3552 H 340.338 3.80227 -0.94524 0
M  V30 3553 H 342.035 3.7809 -1.336 0
M  V30 3554 H 338.625 3.3309 -2.6972 0
M  V30 3555 H 342.809 3.33231 -3.67792 0
M  V30 3556 H 338.065 3.38703 -5.09009 0
M  V30 3557 H 342.239 3.4005 -6.07733 0
M  V30 3558 H 339.866 3.42342 -6.78753 0
M  V30 3559 N 341.441 0.965919 1.2453 0
M  V30 3560 C 342.666 0.643971 1.97149 0
M  V30 3561 C 343.091 -0.779487 1.71189 0
M  V30 3562 O 342.449 -1.5288 0.974553 0
M  V30 3563 C 342.497 0.922557 3.48599 0
M  V30 3564 O 341.601 0.00707672 4.12399 0
M  V30 3565 H 340.942 0.243647 0.617683 0
M  V30 3566 H 343.472 1.29558 1.58353 0
M  V30 3567 H 343.482 0.853373 3.98976 0
M  V30 3568 H 342.157 1.95996 3.66822 0
M  V30 3569 H 340.734 0.12943 3.72675 0
M  V30 3570 N 342.919 -1.39368 0.735821 0
M  V30 3571 C 344.165 -2.00794 0.284544 0
M  V30 3572 C 344.498 -1.58255 -1.12557 0
M  V30 3573 O 343.773 -0.811819 -1.76748 0
M  V30 3574 C 344.056 -3.58011 0.387337 0
M  V30 3575 C 343.909 -4.10566 1.83728 0
M  V30 3576 C 345.228 -4.395 -0.22975 0
M  V30 3577 H 342.347 -0.729501 0.104866 0
M  V30 3578 H 344.989 -1.65564 0.93213 0
M  V30 3579 H 343.139 -3.88154 -0.164006 0
M  V30 3580 H 344.811 -3.91139 2.44556 0
M  V30 3581 H 343.054 -3.64095 2.35833 0
M  V30 3582 H 343.725 -5.19702 1.86047 0
M  V30 3583 H 346.201 -4.15406 0.240257 0
M  V30 3584 H 345.077 -5.48752 -0.127485 0
M  V30 3585 H 345.338 -4.22062 -1.3159 0
M  V30 3586 N 344.397 -0.483516 -1.5 0
M  V30 3587 C 345.813 -0.138404 -1.58999 0
M  V30 3588 C 346.013 1.35597 -1.4905 0
M  V30 3589 O 345.069 2.13039 -1.35539 0
M  V30 3590 C 346.382 -0.699658 -2.92447 0
M  V30 3591 C 347.93 -0.664195 -3.05872 0
M  V30 3592 C 348.405 -1.20321 -4.41913 0
M  V30 3593 N 349.896 -1.16315 -4.48358 0
M  V30 3594 C 350.631 -1.55058 -5.52037 0
M  V30 3595 N 350.127 -2.01311 -6.62907 0
M  V30 3596 N 351.92 -1.46584 -5.42651 0
M  V30 3597 H 344.071 -1.45529 -1.5471 0
M  V30 3598 H 346.334 -0.60258 -0.731848 0
M  V30 3599 H 346.04 -1.747 -3.05242 0
M  V30 3600 H 345.914 -0.150194 -3.76901 0
M  V30 3601 H 348.301 0.374272 -2.92717 0
M  V30 3602 H 348.382 -1.25061 -2.23144 0
M  V30 3603 H 348.026 -2.24037 -4.55818 0
M  V30 3604 H 347.956 -0.592896 -5.23252 0
M  V30 3605 H 350.447 -0.824058 -3.68806 0
M  V30 3606 H 350.76 -2.2899 -7.38095 0
M  V30 3607 H 349.105 -2.05273 -6.63994 0
M  V30 3608 H 352.296 -1.10281 -4.54924 0
M  V30 3609 H 352.469 -1.77103 -6.23329 0
M  V30 3610 N 345.875 1.56104 -0.216619 0
M  V30 3611 C 347.152 1.89988 0.465165 0
M  V30 3612 C 347.532 1.13326 1.78102 0
M  V30 3613 O 346.88 0.241033 2.27225 0
M  V30 3614 C 347.09 3.42646 0.662939 0
M  V30 3615 C 348.438 4.13311 0.972602 0
M  V30 3616 O 349.462 3.48217 0.749901 0
M  V30 3617 O 348.321 5.28396 1.39499 0
M  V30 3618 H 345.415 0.78979 0.245276 0
M  V30 3619 H 347.961 1.67721 -0.258436 0
M  V30 3620 H 346.733 3.90399 -0.26543 0
M  V30 3621 H 346.356 3.70677 1.43821 0
M  V30 3622 N 347.353 -0.0568162 1.57498 0
M  V30 3623 C 348.583 -0.764515 1.91934 0
M  V30 3624 C 348.991 -1.70877 0.81227 0
M  V30 3625 O 348.334 -1.82351 -0.222213 0
M  V30 3626 C 348.396 -1.5994 3.21962 0
M  V30 3627 C 348.06 -0.822925 4.4953 0
M  V30 3628 C 349.057 -0.135464 5.19723 0
M  V30 3629 C 346.742 -0.785666 4.96117 0
M  V30 3630 C 348.736 0.578861 6.34766 0
M  V30 3631 C 346.423 -0.0675784 6.11063 0
M  V30 3632 C 347.421 0.613471 6.80239 0
M  V30 3633 O 347.109 1.31996 7.92989 0
M  V30 3634 H 346.841 -0.221647 0.63863 0
M  V30 3635 H 349.395 -0.0268218 2.05382 0
M  V30 3636 H 347.625 -2.38026 3.04763 0
M  V30 3637 H 349.314 -2.18715 3.41934 0
M  V30 3638 H 350.08 -0.155458 4.84751 0
M  V30 3639 H 345.959 -1.30524 4.42136 0
M  V30 3640 H 349.503 1.111 6.88696 0
M  V30 3641 H 345.4 -0.0455636 6.45484 0
M  V30 3642 H 346.168 1.23077 8.09194 0
M  V30 3643 N 348.832 -1.54138 -0.328536 0
M  V30 3644 C 350.078 -1.73297 -1.06488 0
M  V30 3645 C 350.433 -0.497958 -1.85844 0
M  V30 3646 O 349.726 0.509591 -1.84699 0
M  V30 3647 C 349.92 -2.9457 -2.02393 0
M  V30 3648 C 349.749 -4.29747 -1.32467 0
M  V30 3649 C 348.519 -4.93987 -1.06324 0
M  V30 3650 C 350.717 -5.08903 -0.743137 0
M  V30 3651 N 348.699 -6.13005 -0.331359 0
M  V30 3652 C 350.07 -6.19836 -0.142602 0
M  V30 3653 C 352.125 -4.93699 -0.64546 0
M  V30 3654 C 350.828 -7.17224 0.546125 0
M  V30 3655 C 352.854 -5.91393 0.0295558 0
M  V30 3656 C 352.216 -7.01674 0.619056 0
M  V30 3657 H 348.315 -0.687017 -0.373539 0
M  V30 3658 H 350.899 -1.91589 -0.346659 0
M  V30 3659 H 349.07 -2.77752 -2.71493 0
M  V30 3660 H 350.802 -3.0238 -2.68977 0
M  V30 3661 H 347.557 -4.53824 -1.35428 0
M  V30 3662 H 347.981 -6.76997 0.0202939 0
M  V30 3663 H 352.623 -4.08589 -1.08695 0
M  V30 3664 H 350.341 -8.01896 0.999459 0
M  V30 3665 H 353.927 -5.81706 0.104705 0
M  V30 3666 H 352.807 -7.75971 1.13309 0
M  V30 3667 N 350.31 0.590341 -1.46126 0
M  V30 3668 C 351.726 0.912917 -1.30912 0
M  V30 3669 C 351.926 1.99616 -0.274893 0
M  V30 3670 O 350.982 2.50397 0.325197 0
M  V30 3671 C 352.295 1.3375 -2.69317 0
M  V30 3672 C 353.843 1.45077 -2.77348 0
M  V30 3673 C 354.318 1.90904 -4.16317 0
M  V30 3674 N 355.809 1.9811 -4.18696 0
M  V30 3675 C 356.544 2.34828 -5.23109 0
M  V30 3676 N 356.04 2.70393 -6.37856 0
M  V30 3677 N 357.833 2.35317 -5.10473 0
M  V30 3678 H 349.984 -0.125358 -2.1203 0
M  V30 3679 H 352.247 0.00658481 -0.947977 0
M  V30 3680 H 351.953 0.615614 -3.4627 0
M  V30 3681 H 351.827 2.30058 -2.9892 0
M  V30 3682 H 354.214 2.16353 -2.00687 0
M  V30 3683 H 354.295 0.4704 -2.51438 0
M  V30 3684 H 353.939 1.20209 -4.9347 0
M  V30 3685 H 353.869 2.89886 -4.39629 0
M  V30 3686 H 356.36 1.73146 -3.359 0
M  V30 3687 H 356.673 2.97341 -7.13308 0
M  V30 3688 H 355.018 2.68048 -6.41229 0
M  V30 3689 H 358.209 2.0695 -4.19868 0
M  V30 3690 H 358.382 2.63605 -5.9196 0
M  V30 3691 N 351.788 1.33704 0.83433 0
M  V30 3692 C 353.036 1.25169 1.58673 0
M  V30 3693 C 353.357 -0.18127 1.94156 0
M  V30 3694 O 352.627 -1.11113 1.6134 0
M  V30 3695 H 351.207 0.4603 0.58833 0
M  V30 3696 H 353.869 1.67478 0.996847 0
M  V30 3697 H 352.965 1.84856 2.51465 0
M  V30 3698 N 353.266 -1.05314 1.17247 0
M  V30 3699 C 354.513 -1.78293 0.960091 0
M  V30 3700 C 354.841 -1.87658 -0.51136 0
M  V30 3701 O 354.096 -1.3718 -1.39571 0
M  V30 3702 C 354.395 -3.2229 1.54479 0
M  V30 3703 C 354.061 -3.32987 3.04024 0
M  V30 3704 C 352.723 -3.35613 3.44844 0
M  V30 3705 C 355.075 -3.34102 4.00031 0
M  V30 3706 C 352.403 -3.36982 4.8027 0
M  V30 3707 C 354.755 -3.3701 5.35357 0
M  V30 3708 C 353.419 -3.37923 5.75642 0
M  V30 3709 H 352.689 -0.652422 0.351322 0
M  V30 3710 H 355.336 -1.23782 1.46117 0
M  V30 3711 H 353.641 -3.7972 0.965391 0
M  V30 3712 H 355.338 -3.77376 1.35603 0
M  V30 3713 H 351.928 -3.31655 2.71483 0
M  V30 3714 H 356.112 -3.31276 3.69554 0
M  V30 3715 H 351.368 -3.35999 5.10798 0
M  V30 3716 H 355.542 -3.36822 6.09528 0
M  V30 3717 H 353.169 -3.38738 6.80559 0
M  V30 3718 N 354.744 -0.972509 -1.24016 0
M  V30 3719 C 355.991 -0.637034 -1.92219 0
M  V30 3720 C 356.319 0.828418 -1.75976 0
M  V30 3721 O 355.574 1.61206 -1.10955 0
M  V30 3722 C 355.873 -0.963694 -3.44162 0
M  V30 3723 C 355.539 -2.41807 -3.80579 0
M  V30 3724 C 354.201 -2.81556 -3.9023 0
M  V30 3725 C 356.553 -3.36172 -3.98293 0
M  V30 3726 C 353.881 -4.14702 -4.15017 0
M  V30 3727 C 356.233 -4.68952 -4.24578 0
M  V30 3728 C 354.897 -5.08472 -4.32449 0
M  V30 3729 H 354.167 -0.233107 -0.703379 0
M  V30 3730 H 356.814 -1.2249 -1.47202 0
M  V30 3731 H 355.119 -0.29365 -3.90698 0
M  V30 3732 H 356.816 -0.682449 -3.9515 0
M  V30 3733 H 353.406 -2.09988 -3.73635 0
M  V30 3734 H 357.59 -3.06644 -3.90234 0
M  V30 3735 H 352.846 -4.4494 -4.19331 0
M  V30 3736 H 357.02 -5.42037 -4.37229 0
M  V30 3737 H 354.647 -6.11665 -4.51409 0
M  V30 3738 N 356.222 1.38976 -0.743202 0
M  V30 3739 C 357.185 2.28901 -0.117014 0
M  V30 3740 C 358.185 1.46698 0.658503 0
M  V30 3741 O 359.375 1.67274 0.486305 0
M  V30 3742 C 356.507 3.30309 0.84315 0
M  V30 3743 H 357.7 2.8578 -0.909373 0
M  V30 3744 H 355.253 1.47761 -0.509547 0
M  V30 3745 H 355.988 2.785 1.66157 0
M  V30 3746 H 355.773 3.91029 0.289594 0
M  V30 3747 H 357.263 3.97577 1.2776 0
M  V30 3748 N 357.7 0.491464 1.49741 0
M  V30 3749 C 358.663 -0.280906 2.27472 0
M  V30 3750 C 359.663 -0.902454 1.33088 0
M  V30 3751 O 360.853 -0.768465 1.56334 0
M  V30 3752 C 357.985 -1.40209 3.10732 0
M  V30 3753 H 359.178 0.401056 2.97206 0
M  V30 3754 H 356.731 0.246131 1.5435 0
M  V30 3755 H 357.466 -2.11849 2.45541 0
M  V30 3756 H 357.251 -0.961969 3.80117 0
M  V30 3757 H 358.741 -1.9464 3.69466 0
M  V30 3758 N 359.178 -1.55987 0.224894 0
M  V30 3759 C 360.406 -2.02784 -0.410665 0
M  V30 3760 C 360.821 -1.10464 -1.53112 0
M  V30 3761 O 360.178 -0.114871 -1.82138 0
M  V30 3762 C 360.229 -3.49087 -0.939165 0
M  V30 3763 O 359.95 -4.37887 0.136614 0
M  V30 3764 C 361.451 -4.11543 -1.64763 0
M  V30 3765 H 358.671 -0.663484 -0.100148 0
M  V30 3766 H 361.215 -2.01614 0.342326 0
M  V30 3767 H 359.37 -3.50861 -1.64242 0
M  V30 3768 H 359.784 -5.23849 -0.261155 0
M  V30 3769 H 361.258 -5.15673 -1.96939 0
M  V30 3770 H 361.735 -3.56736 -2.56195 0
M  V30 3771 H 362.341 -4.13629 -0.989503 0
M  V30 3772 N 360.656 0.0484629 -1.57525 0
M  V30 3773 C 361.896 0.748196 -1.90214 0
M  V30 3774 C 362.26 1.73545 -0.821347 0
M  V30 3775 O 363.461 2.48201 -1.03198 0
M  V30 3776 C 361.732 1.41727 -3.28098 0
M  V30 3777 S 363.291 2.14884 -3.82584 0
M  V30 3778 H 360.109 0.248307 -0.666232 0
M  V30 3779 H 362.711 0.00343188 -1.955 0
M  V30 3780 H 361.415 0.685244 -4.04639 0
M  V30 3781 H 360.946 2.20099 -3.26068 0
M  V30 3782 H 362.961 3.41755 -3.59747 0
M  V30 3783 N 362.134 1.5431 0.320358 0
M  V30 3784 C 363.382 1.72327 1.05583 0
M  V30 3785 C 363.703 0.50149 1.88441 0
M  V30 3786 O 362.973 -0.48448 1.89815 0
M  V30 3787 H 361.553 0.635387 0.3928 0
M  V30 3788 H 364.215 1.91621 0.356019 0
M  V30 3789 H 363.311 2.60426 1.72003 0
M  V30 3790 N 363.613 -0.582584 1.46437 0
M  V30 3791 C 364.576 -1.67366 1.56592 0
M  V30 3792 C 365.576 -1.54575 0.443072 0
M  V30 3793 O 366.766 -1.59191 0.707381 0
M  V30 3794 C 363.898 -3.06791 1.48634 0
M  V30 3795 H 365.091 -1.5972 2.5383 0
M  V30 3796 H 362.644 -0.800432 1.34249 0
M  V30 3797 H 363.379 -3.19993 0.526763 0
M  V30 3798 H 363.164 -3.17484 2.30101 0
M  V30 3799 H 364.654 -3.86218 1.58826 0
M  V30 3800 N 365.091 -1.34144 -0.827227 0
M  V30 3801 C 366.338 -1.26258 -1.58319 0
M  V30 3802 C 366.666 0.168595 -1.93768 0
M  V30 3803 O 365.921 1.12877 -1.59866 0
M  V30 3804 C 366.22 -2.09464 -2.89585 0
M  V30 3805 C 365.886 -3.58521 -2.73448 0
M  V30 3806 C 364.548 -3.99155 -2.68754 0
M  V30 3807 C 366.9 -4.53189 -2.57428 0
M  V30 3808 C 364.228 -5.32656 -2.45957 0
M  V30 3809 C 366.58 -5.86864 -2.36163 0
M  V30 3810 C 365.244 -6.26667 -2.29879 0
M  V30 3811 H 364.514 -0.462013 -0.579332 0
M  V30 3812 H 367.161 -1.65845 -0.95748 0
M  V30 3813 H 365.466 -1.62692 -3.56425 0
M  V30 3814 H 367.163 -2.00712 -3.47154 0
M  V30 3815 H 363.753 -3.26264 -2.77939 0
M  V30 3816 H 367.937 -4.22696 -2.60081 0
M  V30 3817 H 363.193 -5.62519 -2.39546 0
M  V30 3818 H 367.367 -6.59813 -2.22754 0
M  V30 3819 H 364.994 -7.30049 -2.11975 0
M  V30 3820 N 366.569 1.04691 -1.17803 0
M  V30 3821 C 367.818 1.77176 -0.963931 0
M  V30 3822 C 368.131 1.88888 0.508015 0
M  V30 3823 O 369.337 2.58164 0.840465 0
M  V30 3824 C 367.793 3.18518 -1.67555 0
M  V30 3825 C 367.401 3.14919 -3.18637 0
M  V30 3826 C 369.145 3.95424 -1.54402 0
M  V30 3827 C 367.052 4.51081 -3.82466 0
M  V30 3828 H 365.982 0.664116 -0.357023 0
M  V30 3829 H 368.633 1.17303 -1.4111 0
M  V30 3830 H 367.015 3.78748 -1.15613 0
M  V30 3831 H 368.189 2.64178 -3.77554 0
M  V30 3832 H 366.504 2.51512 -3.31859 0
M  V30 3833 H 369.101 4.96106 -1.99456 0
M  V30 3834 H 369.444 4.13343 -0.495329 0
M  V30 3835 H 369.977 3.41754 -2.0359 0
M  V30 3836 H 366.716 4.38368 -4.87354 0
M  V30 3837 H 366.236 5.01951 -3.28337 0
M  V30 3838 H 367.915 5.2001 -3.84965 0
M  V30 3839 N 368.047 0.979072 1.23499 0
M  V30 3840 C 369.294 0.647219 1.91878 0
M  V30 3841 C 369.622 -0.819074 1.76413 0
M  V30 3842 O 368.877 -1.60616 1.11808 0
M  V30 3843 C 369.176 0.981932 3.43646 0
M  V30 3844 C 368.842 2.43822 3.79291 0
M  V30 3845 C 367.504 2.83622 3.88731 0
M  V30 3846 C 369.856 3.3828 3.96505 0
M  V30 3847 C 367.184 4.16897 4.12812 0
M  V30 3848 C 369.536 4.71197 4.22085 0
M  V30 3849 C 368.2 5.10758 4.29747 0
M  V30 3850 H 367.47 0.236834 0.702133 0
M  V30 3851 H 370.117 1.23268 1.46551 0
M  V30 3852 H 368.422 0.314365 3.90537 0
M  V30 3853 H 370.119 0.703395 3.94783 0
M  V30 3854 H 366.709 2.11966 3.72516 0
M  V30 3855 H 370.893 3.0871 3.88603 0
M  V30 3856 H 366.149 4.47157 4.16966 0
M  V30 3857 H 370.323 5.44348 4.34348 0
M  V30 3858 H 367.95 6.1405 4.48159 0
M  V30 3859 N 369.525 -1.3858 0.750561 0
M  V30 3860 C 370.941 -1.53759 0.427824 0
M  V30 3861 C 371.141 -1.71401 -1.05943 0
M  V30 3862 O 370.197 -1.72331 -1.84549 0
M  V30 3863 C 371.51 -2.74642 1.22443 0
M  V30 3864 C 373.058 -2.88489 1.2142 0
M  V30 3865 C 373.533 -4.12329 1.9937 0
M  V30 3866 N 375.024 -4.194 1.96616 0
M  V30 3867 C 375.759 -5.14209 2.53727 0
M  V30 3868 N 375.255 -6.14709 3.19539 0
M  V30 3869 N 377.048 -5.06537 2.43673 0
M  V30 3870 H 369.199 -1.25377 1.71447 0
M  V30 3871 H 371.462 -0.608844 0.726645 0
M  V30 3872 H 371.168 -2.68 2.27747 0
M  V30 3873 H 371.042 -3.67745 0.839273 0
M  V30 3874 H 373.429 -2.94614 0.169232 0
M  V30 3875 H 373.51 -1.96406 1.63885 0
M  V30 3876 H 373.154 -4.06966 3.03877 0
M  V30 3877 H 373.084 -5.03486 1.54302 0
M  V30 3878 H 375.575 -3.47421 1.48684 0
M  V30 3879 H 375.888 -6.8354 3.60545 0
M  V30 3880 H 374.233 -6.1505 3.23633 0
M  V30 3881 H 377.424 -4.26962 1.91889 0
M  V30 3882 H 377.597 -5.80245 2.88479 0
M  V30 3883 N 371.003 -0.499398 -1.49478 0
M  V30 3884 C 371.933 0.269244 -2.31943 0
M  V30 3885 C 372.914 0.964054 -1.40143 0
M  V30 3886 O 374.099 0.955767 -1.69052 0
M  V30 3887 C 371.229 1.33504 -3.20615 0
M  V30 3888 C 370.183 0.760202 -4.21195 0
M  V30 3889 C 369.509 1.9264 -4.98792 0
M  V30 3890 C 370.809 -0.247661 -5.21712 0
M  V30 3891 H 372.503 -0.419082 -2.96452 0
M  V30 3892 H 370.049 -0.202988 -1.42562 0
M  V30 3893 H 372.002 1.88048 -3.77115 0
M  V30 3894 H 370.726 2.05253 -2.54045 0
M  V30 3895 H 369.385 0.23653 -3.65836 0
M  V30 3896 H 369.033 2.63154 -4.28671 0
M  V30 3897 H 368.733 1.54785 -5.66847 0
M  V30 3898 H 370.257 2.4762 -5.58137 0
M  V30 3899 H 371.671 0.209579 -5.72917 0
M  V30 3900 H 370.068 -0.541962 -5.97648 0
M  V30 3901 H 371.138 -1.16409 -4.7072 0
M  V30 3902 N 372.481 1.55866 -0.233164 0
M  V30 3903 C 373.411 2.23783 0.666599 0
M  V30 3904 C 374.392 1.21343 1.19205 0
M  V30 3905 O 375.577 1.4996 1.23392 0
M  V30 3906 C 372.707 2.92671 1.86978 0
M  V30 3907 C 371.661 4.01682 1.47768 0
M  V30 3908 C 370.987 4.57926 2.76058 0
M  V30 3909 C 372.287 5.18126 0.658993 0
M  V30 3910 H 373.981 2.99232 0.100306 0
M  V30 3911 H 371.527 1.43924 0.046804 0
M  V30 3912 H 373.48 3.3888 2.50476 0
M  V30 3913 H 372.204 2.14688 2.46123 0
M  V30 3914 H 370.863 3.56222 0.866106 0
M  V30 3915 H 370.511 3.76659 3.33372 0
M  V30 3916 H 370.211 5.31505 2.50552 0
M  V30 3917 H 371.735 5.06859 3.40479 0
M  V30 3918 H 373.149 5.60644 1.19795 0
M  V30 3919 H 371.546 5.98009 0.500552 0
M  V30 3920 H 372.616 4.83763 -0.331856 0
M  V30 3921 N 373.959 -0.0401083 1.57549 0
M  V30 3922 C 374.922 -1.02871 2.04817 0
M  V30 3923 C 375.922 -1.29708 0.950388 0
M  V30 3924 O 377.112 -1.24897 1.21435 0
M  V30 3925 C 374.244 -2.36443 2.45576 0
M  V30 3926 H 375.437 -0.620631 2.93408 0
M  V30 3927 H 372.99 -0.286667 1.53649 0
M  V30 3928 H 373.725 -2.82021 1.60108 0
M  V30 3929 H 373.51 -2.18296 3.25713 0
M  V30 3930 H 375 -3.07441 2.82612 0
M  V30 3931 N 375.437 -1.54477 -0.31217 0
M  V30 3932 C 376.683 -1.73483 -1.0503 0
M  V30 3933 C 377.016 -0.513125 -1.87298 0
M  V30 3934 O 376.291 0.489864 -1.8823 0
M  V30 3935 C 376.574 -3.01723 -1.96558 0
M  V30 3936 C 376.427 -4.3417 -1.17545 0
M  V30 3937 C 377.746 -3.25772 -2.95907 0
M  V30 3938 H 374.865 -0.631222 -0.380432 0
M  V30 3939 H 377.507 -1.87184 -0.325932 0
M  V30 3940 H 375.657 -2.90174 -2.58324 0
M  V30 3941 H 377.329 -4.5762 -0.581513 0
M  V30 3942 H 375.572 -4.31159 -0.477925 0
M  V30 3943 H 376.243 -5.20143 -1.84811 0
M  V30 3944 H 378.719 -3.36857 -2.44267 0
M  V30 3945 H 377.595 -4.16838 -3.57123 0
M  V30 3946 H 377.856 -2.43537 -3.68974 0
M  V30 3947 N 376.915 0.57481 -1.46744 0
M  V30 3948 C 378.162 1.33272 -1.52462 0
M  V30 3949 C 378.49 1.93669 -0.179572 0
M  V30 3950 O 377.745 1.7743 0.825664 0
M  V30 3951 C 378.044 2.476 -2.57738 0
M  V30 3952 C 377.71 2.05146 -4.01529 0
M  V30 3953 C 376.372 1.93284 -4.40676 0
M  V30 3954 C 378.724 1.72506 -4.91824 0
M  V30 3955 C 376.052 1.47049 -5.67973 0
M  V30 3956 C 378.404 1.27748 -6.19567 0
M  V30 3957 C 377.068 1.14468 -6.57612 0
M  V30 3958 H 376.338 0.487678 -0.557899 0
M  V30 3959 H 378.985 0.646456 -1.80259 0
M  V30 3960 H 377.29 3.21708 -2.23632 0
M  V30 3961 H 378.987 3.05807 -2.5939 0
M  V30 3962 H 375.577 2.15316 -3.7059 0
M  V30 3963 H 379.761 1.80552 -4.62293 0
M  V30 3964 H 375.017 1.35417 -5.96215 0
M  V30 3965 H 379.191 1.01547 -6.88957 0
M  V30 3966 H 376.818 0.78419 -7.56145 0
M  V30 3967 N 378.394 1.34581 0.820102 0
M  V30 3968 C 379.342 1.26401 1.95258 0
M  V30 3969 C 380.336 0.161553 1.68628 0
M  V30 3970 O 381.542 0.326703 1.7701 0
M  V30 3971 H 377.917 0.392749 0.64129 0
M  V30 3972 H 379.888 2.22105 1.99279 0
M  V30 3973 C 378.637 1.03919 3.31807 0
M  V30 3974 H 377.96 1.87984 3.52848 0
M  V30 3975 H 379.4 1.02232 4.11491 0
M  V30 3976 C 377.859 -0.257433 3.35915 0
M  V30 3977 O 378.389 -1.25784 3.81499 0
M  V30 3978 N 376.595 -0.291524 2.89134 0
M  V30 3979 H 376.142 0.523161 2.52232 0
M  V30 3980 H 376.1 -1.15883 2.92264 0
M  V30 3981 N 379.872 -1.04064 1.18357 0
M  V30 3982 C 381.097 -1.81454 1.00445 0
M  V30 3983 C 381.522 -1.82823 -0.442423 0
M  V30 3984 O 380.88 -1.24555 -1.31741 0
M  V30 3985 C 380.928 -3.24925 1.56384 0
M  V30 3986 O 380.032 -4.04856 0.785209 0
M  V30 3987 H 379.373 -0.560604 0.355835 0
M  V30 3988 H 381.903 -1.31059 1.57114 0
M  V30 3989 H 381.913 -3.75702 1.59097 0
M  V30 3990 H 380.588 -3.23244 2.61699 0
M  V30 3991 H 379.165 -3.63537 0.830399 0
M  V30 3992 N 381.35 -0.985608 -1.22978 0
M  V30 3993 C 382.26 -0.538548 -2.28335 0
M  V30 3994 C 383.276 0.409163 -1.69121 0
M  V30 3995 O 384.452 0.277797 -1.99475 0
M  V30 3996 C 381.517 0.146867 -3.46389 0
M  V30 3997 C 380.578 -0.842896 -4.20944 0
M  V30 3998 C 379.811 -0.190095 -5.33361 0
M  V30 3999 O 380.034 1.01767 -5.61248 0
M  V30 4000 O 378.968 -0.891289 -5.95264 0
M  V30 4001 H 382.794 -1.41487 -2.68729 0
M  V30 4002 H 380.379 -0.753495 -1.29007 0
M  V30 4003 H 382.261 0.531125 -4.1804 0
M  V30 4004 H 380.936 0.997871 -3.07935 0
M  V30 4005 H 379.843 -1.27795 -3.51595 0
M  V30 4006 H 381.176 -1.66287 -4.6326 0
M  V30 4007 N 382.828 1.3818 -0.7579 0
M  V30 4008 C 383.76 2.2901 -0.0932177 0
M  V30 4009 C 384.773 1.47958 0.679136 0
M  V30 4010 O 385.962 1.70773 0.519514 0
M  V30 4011 C 383.062 3.26953 0.89192 0
M  V30 4012 C 382.235 4.37045 0.176303 0
M  V30 4013 C 381.294 5.15148 1.07281 0
M  V30 4014 O 380.32 5.66616 0.541728 0
M  V30 4015 N 381.522 5.28542 2.40049 0
M  V30 4016 H 384.287 2.86694 -0.873303 0
M  V30 4017 H 381.848 1.50007 -0.609054 0
M  V30 4018 H 383.84 3.76083 1.49479 0
M  V30 4019 H 382.41 2.70136 1.57306 0
M  V30 4020 H 381.63 3.89493 -0.607328 0
M  V30 4021 H 382.918 5.07801 -0.318718 0
M  V30 4022 H 382.316 4.88285 2.85647 0
M  V30 4023 H 380.873 5.8103 2.95376 0
M  V30 4024 N 384.306 0.507319 1.49211 0
M  V30 4025 C 385.216 -0.272136 2.33016 0
M  V30 4026 C 386.232 -0.961206 1.45041 0
M  V30 4027 O 387.408 -0.941191 1.78055 0
M  V30 4028 C 384.473 -1.31895 3.20631 0
M  V30 4029 C 383.534 -0.642648 4.24463 0
M  V30 4030 C 382.767 -1.63959 5.07891 0
M  V30 4031 O 382.99 -2.87007 4.92933 0
M  V30 4032 O 381.924 -1.19143 5.8999 0
M  V30 4033 H 385.75 0.413982 3.00865 0
M  V30 4034 H 383.335 0.268556 1.46966 0
M  V30 4035 H 385.217 -1.92446 3.7489 0
M  V30 4036 H 383.892 -1.98788 2.5547 0
M  V30 4037 H 382.799 0.00276252 3.741 0
M  V30 4038 H 384.132 -0.0160534 4.92197 0
M  V30 4039 N 385.784 -1.5574 0.241426 0
M  V30 4040 C 387.012 -2.03208 -0.389134 0
M  V30 4041 C 387.427 -1.12082 -1.51931 0
M  V30 4042 O 386.784 -0.134183 -1.82006 0
M  V30 4043 C 386.835 -3.50064 -0.902087 0
M  V30 4044 O 386.556 -4.37717 0.18305 0
M  V30 4045 C 388.057 -4.13268 -1.60389 0
M  V30 4046 H 385.277 -0.664509 -0.0931053 0
M  V30 4047 H 387.821 -2.0124 0.36369 0
M  V30 4048 H 385.976 -3.52583 -1.60511 0
M  V30 4049 H 386.39 -5.24097 -0.205579 0
M  V30 4050 H 387.864 -5.17733 -1.91458 0
M  V30 4051 H 388.341 -3.59434 -2.52397 0
M  V30 4052 H 388.947 -4.14655 -0.945576 0
M  V30 4053 N 387.262 0.0317525 -1.57568 0
M  V30 4054 C 388.511 0.722131 -1.8833 0
M  V30 4055 C 388.824 1.76664 -0.839587 0
M  V30 4056 O 390.03 2.50942 -1.03635 0
M  V30 4057 C 388.486 1.33544 -3.34207 0
M  V30 4058 C 388.094 0.327415 -4.46802 0
M  V30 4059 C 389.838 2.00585 -3.7412 0
M  V30 4060 C 387.745 0.948915 -5.83738 0
M  V30 4061 H 386.675 0.273466 -0.702661 0
M  V30 4062 H 389.326 -0.0235811 -1.83485 0
M  V30 4063 H 387.708 2.13077 -3.33788 0
M  V30 4064 H 388.882 -0.441006 -4.58685 0
M  V30 4065 H 387.197 -0.240758 -4.15703 0
M  V30 4066 H 389.794 2.47932 -4.73744 0
M  V30 4067 H 390.137 2.82285 -3.05975 0
M  V30 4068 H 390.67 1.27831 -3.76702 0
M  V30 4069 H 387.409 0.171387 -6.55276 0
M  V30 4070 H 386.929 1.68724 -5.7558 0
M  V30 4071 H 388.608 1.45705 -6.3038 0
M  V30 4072 N 388.74 1.54641 0.303973 0
M  V30 4073 C 389.968 1.77768 1.05858 0
M  V30 4074 C 390.383 0.535722 1.8104 0
M  V30 4075 O 389.74 -0.494337 1.75677 0
M  V30 4076 C 389.791 2.9834 2.04146 0
M  V30 4077 O 389.512 4.17736 1.32015 0
M  V30 4078 C 391.013 3.33832 2.91669 0
M  V30 4079 H 388.233 0.592961 0.314067 0
M  V30 4080 H 390.777 2.01583 0.344149 0
M  V30 4081 H 388.932 2.76742 2.71096 0
M  V30 4082 H 389.346 4.85693 1.97998 0
M  V30 4083 H 390.82 4.21448 3.56491 0
M  V30 4084 H 391.297 2.51857 3.59812 0
M  V30 4085 H 391.903 3.57579 2.30254 0
M  V30 4086 N 390.218 -0.567019 1.47046 0
M  V30 4087 C 391.443 -1.3551 1.57009 0
M  V30 4088 C 391.868 -1.86841 0.217259 0
M  V30 4089 O 391.226 -1.62435 -0.805268 0
M  V30 4090 C 391.274 -2.50777 2.5912 0
M  V30 4091 O 390.378 -3.52706 2.13711 0
M  V30 4092 H 389.719 -0.402919 0.52778 0
M  V30 4093 H 392.249 -0.686241 1.92748 0
M  V30 4094 H 392.259 -2.97481 2.79229 0
M  V30 4095 H 390.934 -2.12771 3.57353 0
M  V30 4096 H 389.511 -3.12374 2.03659 0
M  V30 4097 N 391.696 -1.35014 -0.812953 0
M  V30 4098 C 392.626 -1.30069 -1.93919 0
M  V30 4099 C 393.607 -0.176275 -1.69184 0
M  V30 4100 O 394.792 -0.370227 -1.90638 0
M  V30 4101 C 391.922 -1.06547 -3.30552 0
M  V30 4102 C 390.876 -2.15561 -3.69753 0
M  V30 4103 C 390.202 -1.77214 -5.04479 0
M  V30 4104 C 391.502 -3.57476 -3.808 0
M  V30 4105 H 393.196 -2.24303 -1.98314 0
M  V30 4106 H 390.742 -1.07977 -0.952736 0
M  V30 4107 H 392.695 -1.01729 -4.08937 0
M  V30 4108 H 391.419 -0.0875719 -3.26483 0
M  V30 4109 H 390.078 -2.19466 -2.9365 0
M  V30 4110 H 389.726 -0.780589 -4.96906 0
M  V30 4111 H 389.426 -2.50184 -5.31678 0
M  V30 4112 H 390.95 -1.7391 -5.8531 0
M  V30 4113 H 392.364 -3.55929 -4.4943 0
M  V30 4114 H 390.761 -4.29152 -4.19462 0
M  V30 4115 H 391.831 -3.94091 -2.82525 0
M  V30 4116 N 393.175 1.03435 -1.18907 0
M  V30 4117 C 394.405 1.8012 -1.01195 0
M  V30 4118 C 394.813 1.8395 0.442613 0
M  V30 4119 O 394.156 1.27836 1.31923 0
M  V30 4120 C 394.218 3.26792 -1.49823 0
M  V30 4121 C 393.882 3.46609 -2.97844 0
M  V30 4122 C 394.879 3.37278 -3.95651 0
M  V30 4123 C 392.564 3.73001 -3.36416 0
M  V30 4124 C 394.558 3.54054 -5.30023 0
M  V30 4125 C 392.245 3.89423 -4.70949 0
M  V30 4126 C 393.243 3.79951 -5.67562 0
M  V30 4127 O 392.931 3.95895 -6.99659 0
M  V30 4128 H 392.663 0.573865 -0.357289 0
M  V30 4129 H 395.217 1.31207 -1.58031 0
M  V30 4130 H 393.447 3.76703 -0.873578 0
M  V30 4131 H 395.136 3.85055 -1.28404 0
M  V30 4132 H 395.902 3.16846 -3.67197 0
M  V30 4133 H 391.781 3.79469 -2.61772 0
M  V30 4134 H 395.325 3.46577 -6.05417 0
M  V30 4135 H 391.222 4.09351 -4.99101 0
M  V30 4136 H 391.99 4.13019 -7.06653 0
M  V30 4137 N 394.653 0.992116 1.22453 0
M  V30 4138 C 395.6 0.541731 2.24352 0
M  V30 4139 C 396.57 -0.425519 1.60557 0
M  V30 4140 O 397.755 -0.330453 1.87917 0
M  V30 4141 C 394.895 -0.138248 3.44823 0
M  V30 4142 C 394.008 0.870649 4.23136 0
M  V30 4143 C 393.143 0.164269 5.30946 0
M  V30 4144 C 392.182 1.16159 6.00977 0
M  V30 4145 N 391.319 0.483568 7.00433 0
M  V30 4146 H 396.159 1.41541 2.62241 0
M  V30 4147 H 393.696 0.709013 1.28885 0
M  V30 4148 H 395.654 -0.5494 4.13567 0
M  V30 4149 H 394.284 -0.975721 3.077 0
M  V30 4150 H 393.336 1.40013 3.53696 0
M  V30 4151 H 394.648 1.63014 4.7141 0
M  V30 4152 H 393.802 -0.303653 6.0594 0
M  V30 4153 H 392.541 -0.627733 4.83643 0
M  V30 4154 H 391.546 1.64015 5.24766 0
M  V30 4155 H 392.771 1.95445 6.50368 0
M  V30 4156 H 390.717 -0.289012 6.55363 0
M  V30 4157 H 390.634 1.18152 7.4671 0
M  V30 4158 H 391.902 0.0384219 7.79491 0
M  V30 4159 N 396.131 -1.37776 0.765217 0
M  V30 4160 C 397.359 -2.04124 0.337767 0
M  V30 4161 C 397.774 -1.57715 -1.03785 0
M  V30 4162 O 397.131 -0.755447 -1.6613 0
M  V30 4163 C 397.182 -3.59658 0.364442 0
M  V30 4164 O 396.903 -4.04367 1.68579 0
M  V30 4165 C 398.404 -4.43236 -0.0754221 0
M  V30 4166 H 395.624 -0.655696 0.142491 0
M  V30 4167 H 398.168 -1.76238 1.03732 0
M  V30 4168 H 396.323 -3.86339 -0.286471 0
M  V30 4169 H 396.737 -4.98857 1.61993 0
M  V30 4170 H 398.211 -5.52 -0.00560067 0
M  V30 4171 H 398.688 -4.2455 -1.12491 0
M  V30 4172 H 399.294 -4.21767 0.547055 0
M  V30 4173 N 397.609 -0.515225 -1.4894 0
M  V30 4174 C 398.834 0.022727 -2.07388 0
M  V30 4175 C 399.259 1.2876 -1.37122 0
M  V30 4176 O 398.617 1.76067 -0.432431 0
M  V30 4177 C 398.665 0.244869 -3.59768 0
M  V30 4178 O 397.769 1.31667 -3.90817 0
M  V30 4179 H 397.11 -0.0325506 -0.663202 0
M  V30 4180 H 399.64 -0.718918 -1.91553 0
M  V30 4181 H 399.65 0.47205 -4.0526 0
M  V30 4182 H 398.325 -0.679194 -4.10317 0
M  V30 4183 H 396.902 1.07331 -3.5712 0
M  V30 4184 N 399.087 1.5561 -0.249682 0
M  V30 4185 C 400.334 1.99011 0.374287 0
M  V30 4186 C 400.662 1.13785 1.57744 0
M  V30 4187 O 399.917 0.189326 1.94782 0
M  V30 4188 C 400.216 3.4775 0.824887 0
M  V30 4189 C 399.882 4.50086 -0.270819 0
M  V30 4190 C 398.544 4.77791 -0.571746 0
M  V30 4191 C 400.896 5.11312 -1.01041 0
M  V30 4192 C 398.224 5.63997 -1.61629 0
M  V30 4193 C 400.576 5.98651 -2.0445 0
M  V30 4194 C 399.24 6.24688 -2.35204 0
M  V30 4195 H 398.51 0.728233 0.136961 0
M  V30 4196 H 401.157 1.88122 -0.358087 0
M  V30 4197 H 399.462 3.55985 1.63651 0
M  V30 4198 H 401.159 3.78721 1.31799 0
M  V30 4199 H 397.749 4.28592 -0.026136 0
M  V30 4200 H 401.933 4.89953 -0.791177 0
M  V30 4201 H 397.189 5.82425 -1.85988 0
M  V30 4202 H 401.363 6.45135 -2.62248 0
M  V30 4203 H 398.99 6.91281 -3.16282 0
M  V30 4204 N 400.565 -0.0233959 1.57583 0
M  V30 4205 C 401.981 -0.379134 1.55031 0
M  V30 4206 C 402.181 -1.76255 0.976548 0
M  V30 4207 O 401.237 -2.45266 0.600078 0
M  V30 4208 C 402.55 -0.275792 2.99433 0
M  V30 4209 C 404.098 -0.352458 3.11009 0
M  V30 4210 C 404.573 -0.278501 4.57152 0
M  V30 4211 N 406.064 -0.337123 4.61972 0
M  V30 4212 C 406.799 -0.302876 5.726 0
M  V30 4213 N 406.295 -0.220589 6.92449 0
M  V30 4214 N 408.088 -0.353023 5.6099 0
M  V30 4215 H 400.239 0.881869 1.93227 0
M  V30 4216 H 402.502 0.335867 0.886509 0
M  V30 4217 H 402.208 0.675108 3.4516 0
M  V30 4218 H 402.082 -1.06721 3.61788 0
M  V30 4219 H 404.469 -1.29379 2.65226 0
M  V30 4220 H 404.55 0.468409 2.51475 0
M  V30 4221 H 404.194 0.659189 5.03604 0
M  V30 4222 H 404.124 -1.11755 5.14605 0
M  V30 4223 H 406.615 -0.403002 3.75745 0
M  V30 4224 H 406.928 -0.199713 7.72542 0
M  V30 4225 H 405.273 -0.186555 6.9475 0
M  V30 4226 H 408.464 -0.415339 4.66254 0
M  V30 4227 H 408.637 -0.322866 6.47195 0
M  V30 4228 N 402.043 -1.548 -0.295768 0
M  V30 4229 C 403.289 -1.74588 -1.03184 0
M  V30 4230 C 403.622 -0.532962 -1.86744 0
M  V30 4231 O 402.897 0.469872 -1.88739 0
M  V30 4232 C 403.18 -3.03791 -1.93347 0
M  V30 4233 C 403.033 -4.35392 -1.12933 0
M  V30 4234 C 404.352 -3.28892 -2.92435 0
M  V30 4235 H 401.471 -0.635221 -0.373715 0
M  V30 4236 H 404.113 -1.87519 -0.30606 0
M  V30 4237 H 402.263 -2.92898 -2.55232 0
M  V30 4238 H 403.935 -4.58211 -0.532943 0
M  V30 4239 H 402.178 -4.31642 -0.432168 0
M  V30 4240 H 402.849 -5.22074 -1.79284 0
M  V30 4241 H 405.325 -3.39429 -2.4068 0
M  V30 4242 H 404.201 -4.20603 -3.52682 0
M  V30 4243 H 404.462 -2.47437 -3.6637 0
M  V30 4244 N 403.521 0.559213 -1.47345 0
M  V30 4245 C 404.798 1.31997 -1.44348 0
M  V30 4246 C 405.178 2.1064 -0.139358 0
M  V30 4247 O 404.526 2.1091 0.879153 0
M  V30 4248 C 404.736 2.22618 -2.68779 0
M  V30 4249 C 406.084 2.83701 -3.1591 0
M  V30 4250 O 407.108 2.32921 -2.69493 0
M  V30 4251 O 405.967 3.75993 -3.966 0
M  V30 4252 H 403.061 0.594251 -0.575147 0
M  V30 4253 H 405.607 0.578282 -1.59543 0
M  V30 4254 H 404.379 1.64093 -3.55231 0
M  V30 4255 H 404.002 3.04085 -2.5616 0
M  V30 4256 N 404.999 1.35443 0.805782 0
M  V30 4257 C 406.245 1.28952 1.56522 0
M  V30 4258 C 406.578 -0.135597 1.93726 0
M  V30 4259 O 405.853 -1.08516 1.61414 0
M  V30 4260 C 406.136 2.19678 2.85331 0
M  V30 4261 C 405.989 3.7081 2.54598 0
M  V30 4262 C 407.308 2.09495 3.8704 0
M  V30 4263 H 404.427 0.469764 0.567883 0
M  V30 4264 H 407.069 1.65851 0.927001 0
M  V30 4265 H 405.219 1.8834 3.39795 0
M  V30 4266 H 406.891 4.12593 2.06312 0
M  V30 4267 H 405.134 3.91051 1.8778 0
M  V30 4268 H 405.805 4.29679 3.46525 0
M  V30 4269 H 408.281 2.37045 3.41978 0
M  V30 4270 H 407.157 2.75173 4.74943 0
M  V30 4271 H 407.418 1.07714 4.28777 0
M  V30 4272 N 406.477 -1.02803 1.19454 0
M  V30 4273 C 407.888 -1.57667 0.999899 0
M  V30 4274 C 408.239 -1.91041 -0.446956 0
M  V30 4275 O 407.364 -1.70978 -1.32648 0
M  V30 4276 C 407.959 -2.86477 1.80877 0
M  V30 4277 C 406.518 -3.37911 1.65811 0
M  V30 4278 C 405.665 -2.11343 1.79526 0
M  V30 4279 H 408.616 -0.853214 1.33813 0
M  V30 4280 H 408.637 -3.57408 1.30536 0
M  V30 4281 H 408.149 -2.62155 2.86175 0
M  V30 4282 H 406.25 -3.67218 0.63102 0
M  V30 4283 H 406.363 -4.10885 2.46395 0
M  V30 4284 H 404.727 -2.23254 1.22596 0
M  V30 4285 H 405.51 -1.89461 2.86285 0
M  V30 4286 N 407.956 -0.998596 -1.21925 0
M  V30 4287 C 409.203 -0.677663 -1.90824 0
M  V30 4288 C 409.531 0.790905 -1.77693 0
M  V30 4289 O 408.786 1.58817 -1.14349 0
M  V30 4290 C 409.085 -1.03648 -3.42041 0
M  V30 4291 C 408.751 -2.49825 -3.75364 0
M  V30 4292 C 407.413 -2.8977 -3.8417 0
M  V30 4293 C 409.765 -3.44545 -3.91073 0
M  V30 4294 C 407.093 -4.23412 -4.06127 0
M  V30 4295 C 409.445 -4.77853 -4.14535 0
M  V30 4296 C 408.109 -5.17531 -4.21566 0
M  V30 4297 H 407.379 -0.247975 -0.698276 0
M  V30 4298 H 410.026 -1.25584 -1.44571 0
M  V30 4299 H 408.331 -0.376457 -3.89987 0
M  V30 4300 H 410.028 -0.766113 -3.93614 0
M  V30 4301 H 406.618 -2.17866 -3.69097 0
M  V30 4302 H 410.802 -3.14853 -3.83642 0
M  V30 4303 H 406.058 -4.53734 -4.09799 0
M  V30 4304 H 410.232 -5.51189 -4.25633 0
M  V30 4305 H 407.859 -6.21102 -4.38333 0
M  V30 4306 N 409.434 1.37368 -0.772513 0
M  V30 4307 C 410.711 1.93839 -0.26188 0
M  V30 4308 C 411.091 1.7061 1.24319 0
M  V30 4309 O 410.439 1.05534 2.02669 0
M  V30 4310 C 410.649 3.43154 -0.636102 0
M  V30 4311 C 411.997 4.20249 -0.606324 0
M  V30 4312 O 413.021 3.5152 -0.575538 0
M  V30 4313 O 411.88 5.42809 -0.634086 0
M  V30 4314 H 408.974 0.82478 -0.0605555 0
M  V30 4315 H 411.52 1.4665 -0.853917 0
M  V30 4316 H 410.292 3.53647 -1.6748 0
M  V30 4317 H 409.915 3.97596 -0.0170516 0
M  V30 4318 N 410.912 0.523116 1.48665 0
M  V30 4319 C 411.842 -0.23231 2.32342 0
M  V30 4320 C 412.823 -0.941637 1.41659 0
M  V30 4321 O 414.008 -0.928751 1.70552 0
M  V30 4322 C 411.138 -1.28387 3.22698 0
M  V30 4323 C 410.092 -0.693098 4.22351 0
M  V30 4324 C 409.418 -1.8468 5.01794 0
M  V30 4325 C 410.718 0.33063 5.21252 0
M  V30 4326 H 412.412 0.466192 2.95748 0
M  V30 4327 H 409.958 0.225643 1.42221 0
M  V30 4328 H 411.911 -1.82024 3.80059 0
M  V30 4329 H 410.635 -2.01186 2.57278 0
M  V30 4330 H 409.294 -0.178299 3.66166 0
M  V30 4331 H 408.942 -2.56301 4.32804 0
M  V30 4332 H 408.642 -1.45747 5.69238 0
M  V30 4333 H 410.166 -2.38709 5.62006 0
M  V30 4334 H 411.58 -0.118407 5.73178 0
M  V30 4335 H 409.977 0.636974 5.9671 0
M  V30 4336 H 411.047 1.23883 4.68808 0
M  V30 4337 N 412.39 -1.55475 0.257931 0
M  V30 4338 C 413.801 -1.8511 -0.243135 0
M  V30 4339 C 414.152 -1.17986 -1.5676 0
M  V30 4340 O 413.277 -0.462102 -2.11409 0
M  V30 4341 C 413.872 -3.35826 -0.447929 0
M  V30 4342 C 412.431 -3.65647 -0.893245 0
M  V30 4343 C 411.578 -2.7729 0.0232965 0
M  V30 4344 H 414.529 -1.51261 0.480199 0
M  V30 4345 H 414.55 -3.58002 -1.28898 0
M  V30 4346 H 414.062 -3.84652 0.516196 0
M  V30 4347 H 412.163 -3.22308 -1.86945 0
M  V30 4348 H 412.276 -4.73312 -0.742469 0
M  V30 4349 H 410.64 -2.49942 -0.490021 0
M  V30 4350 H 411.423 -3.28926 0.982994 0
M  V30 4351 N 413.868 0.0150385 -1.57593 0
M  V30 4352 C 414.778 1.02791 -2.10882 0
M  V30 4353 C 415.794 1.38702 -1.0506 0
M  V30 4354 O 416.97 1.47739 -1.36877 0
M  V30 4355 C 414.035 2.30568 -2.58919 0
M  V30 4356 C 413.096 2.01108 -3.79281 0
M  V30 4357 C 412.329 3.22794 -4.25018 0
M  V30 4358 O 412.552 4.33959 -3.70183 0
M  V30 4359 O 411.486 3.07672 -5.17322 0
M  V30 4360 H 415.312 0.604973 -2.97613 0
M  V30 4361 H 412.897 0.23292 -1.47573 0
M  V30 4362 H 414.779 3.05662 -2.90084 0
M  V30 4363 H 413.454 2.72129 -1.75293 0
M  V30 4364 H 412.361 1.23537 -3.53114 0
M  V30 4365 H 413.694 1.64394 -4.63935 0
M  V30 4366 N 415.346 1.54954 0.287554 0
M  V30 4367 C 416.595 1.74081 1.01877 0
M  V30 4368 C 416.908 0.541135 1.87966 0
M  V30 4369 O 418.114 0.614491 2.64455 0
M  V30 4370 C 416.57 3.08042 1.86113 0
M  V30 4371 C 416.178 4.35531 1.04961 0
M  V30 4372 C 417.922 3.36523 2.58752 0
M  V30 4373 C 415.829 5.60538 1.88551 0
M  V30 4374 H 414.759 0.64884 0.384087 0
M  V30 4375 H 417.41 1.81426 0.275101 0
M  V30 4376 H 415.792 2.94696 2.64519 0
M  V30 4377 H 416.966 4.59751 0.31074 0
M  V30 4378 H 415.281 4.14085 0.43843 0
M  V30 4379 H 417.878 4.27122 3.21668 0
M  V30 4380 H 418.221 2.56 3.28283 0
M  V30 4381 H 418.754 3.50901 1.87386 0
M  V30 4382 H 415.493 6.43767 1.23466 0
M  V30 4383 H 415.013 5.40483 2.60074 0
M  V30 4384 H 416.692 5.98297 2.46273 0
M  V30 4385 N 416.824 -0.551391 1.4764 0
M  V30 4386 C 418.071 -1.3083 1.54563 0
M  V30 4387 C 418.399 -1.93359 0.210361 0
M  V30 4388 O 417.654 -1.78721 -0.797332 0
M  V30 4389 C 417.953 -2.43469 2.61644 0
M  V30 4390 C 417.619 -1.98732 4.04742 0
M  V30 4391 C 416.281 -1.86248 4.43695 0
M  V30 4392 C 418.633 -1.64659 4.94507 0
M  V30 4393 C 415.961 -1.37995 5.70241 0
M  V30 4394 C 418.313 -1.17875 6.21521 0
M  V30 4395 C 416.977 -1.03992 6.5935 0
M  V30 4396 H 416.247 -0.478741 0.565587 0
M  V30 4397 H 418.894 -0.617697 1.81264 0
M  V30 4398 H 417.199 -3.18109 2.28722 0
M  V30 4399 H 418.896 -3.01642 2.64222 0
M  V30 4400 H 415.486 -2.09393 3.73968 0
M  V30 4401 H 419.67 -1.73174 4.65107 0
M  V30 4402 H 414.926 -1.25915 5.98294 0
M  V30 4403 H 419.1 -0.905739 6.90485 0
M  V30 4404 H 416.727 -0.663794 7.57296 0
M  V30 4405 N 418.302 -1.35869 -0.798587 0
M  V30 4406 C 419.549 -1.29588 -1.55606 0
M  V30 4407 C 419.877 0.127456 -1.94082 0
M  V30 4408 O 419.132 1.09461 -1.62225 0
M  V30 4409 C 419.431 -2.1556 -2.85077 0
M  V30 4410 C 419.097 -3.6424 -2.65781 0
M  V30 4411 C 417.759 -4.04766 -2.60227 0
M  V30 4412 C 420.111 -4.58547 -2.47758 0
M  V30 4413 C 417.439 -5.37753 -2.34603 0
M  V30 4414 C 419.791 -5.91742 -2.23662 0
M  V30 4415 C 418.455 -6.31402 -2.16534 0
M  V30 4416 H 417.725 -0.474197 -0.569402 0
M  V30 4417 H 420.372 -1.67839 -0.922086 0
M  V30 4418 H 418.677 -1.70216 -3.52893 0
M  V30 4419 H 420.374 -2.08031 -3.42818 0
M  V30 4420 H 416.964 -3.32086 -2.70956 0
M  V30 4421 H 421.148 -4.28117 -2.51056 0
M  V30 4422 H 416.404 -5.67474 -2.2756 0
M  V30 4423 H 420.578 -6.6439 -2.08708 0
M  V30 4424 H 418.205 -7.34381 -1.96441 0
M  V30 4425 N 419.78 1.02168 -1.19998 0
M  V30 4426 C 421.027 1.75685 -1.00702 0
M  V30 4427 C 421.355 1.88947 0.461426 0
M  V30 4428 O 420.61 1.40832 1.35885 0
M  V30 4429 C 420.909 3.18081 -1.62969 0
M  V30 4430 C 420.575 3.24809 -3.12746 0
M  V30 4431 C 419.237 3.26352 -3.53621 0
M  V30 4432 C 421.589 3.23379 -4.08749 0
M  V30 4433 C 418.917 3.2413 -4.89036 0
M  V30 4434 C 421.269 3.22698 -5.44104 0
M  V30 4435 C 419.933 3.22542 -5.84399 0
M  V30 4436 H 419.203 0.642877 -0.368496 0
M  V30 4437 H 421.85 1.19865 -1.49348 0
M  V30 4438 H 420.155 3.77027 -1.06573 0
M  V30 4439 H 421.852 3.73648 -1.45561 0
M  V30 4440 H 418.442 3.2434 -2.80181 0
M  V30 4441 H 422.626 3.21361 -3.78207 0
M  V30 4442 H 417.882 3.22338 -5.19527 0
M  V30 4443 H 422.056 3.20543 -6.18244 0
M  V30 4444 H 419.683 3.20575 -6.89301 0
M  V30 4445 N 421.258 1.00505 1.21394 0
M  V30 4446 C 422.504 0.688793 1.90745 0
M  V30 4447 C 422.837 -0.778486 1.77914 0
M  V30 4448 O 422.112 -1.56433 1.15581 0
M  V30 4449 C 422.395 1.11063 3.42545 0
M  V30 4450 C 422.248 2.63737 3.64367 0
M  V30 4451 C 423.567 0.673059 4.34923 0
M  V30 4452 H 420.686 0.251702 0.692687 0
M  V30 4453 H 423.328 1.25074 1.43026 0
M  V30 4454 H 421.478 0.632508 3.83317 0
M  V30 4455 H 423.15 3.19313 3.32922 0
M  V30 4456 H 421.393 3.05248 3.08231 0
M  V30 4457 H 422.064 2.88305 4.70727 0
M  V30 4458 H 424.54 1.08392 4.01734 0
M  V30 4459 H 423.416 0.996383 5.39781 0
M  V30 4460 H 423.677 -0.425808 4.40045 0
M  V30 4461 N 422.737 -1.36956 0.779787 0
M  V30 4462 C 423.7 -2.2851 0.177662 0
M  V30 4463 C 424.7 -1.48393 -0.619377 0
M  V30 4464 O 425.89 -1.68505 -0.441785 0
M  V30 4465 C 423.022 -3.32428 -0.755279 0
M  V30 4466 H 424.215 -2.83269 0.984823 0
M  V30 4467 H 421.768 -1.46358 0.548544 0
M  V30 4468 H 422.503 -2.82808 -1.58714 0
M  V30 4469 H 422.288 -3.91659 -0.185817 0
M  V30 4470 H 423.778 -4.00824 -1.17174 0
M  V30 4471 N 424.215 -0.530993 -1.48385 0
M  V30 4472 C 425.145 0.219985 -2.32461 0
M  V30 4473 C 426.126 0.934111 -1.42156 0
M  V30 4474 O 427.311 0.919694 -1.71042 0
M  V30 4475 C 424.441 1.26674 -3.23375 0
M  V30 4476 C 423.395 0.67069 -4.22712 0
M  V30 4477 C 422.721 1.82017 -5.02766 0
M  V30 4478 C 424.021 -0.358268 -5.2107 0
M  V30 4479 H 425.715 -0.48187 -2.95497 0
M  V30 4480 H 423.261 -0.233182 -1.42099 0
M  V30 4481 H 425.214 1.80006 -3.81019 0
M  V30 4482 H 423.938 1.99818 -2.58341 0
M  V30 4483 H 422.597 0.158878 -3.66256 0
M  V30 4484 H 422.245 2.54002 -4.34157 0
M  V30 4485 H 421.945 1.42727 -5.70003 0
M  V30 4486 H 423.469 2.35725 -5.63264 0
M  V30 4487 H 424.883 0.0880081 -5.73232 0
M  V30 4488 H 423.28 -0.66861 -5.96364 0
M  V30 4489 H 424.35 -1.26367 -4.68145 0
M  V30 4490 N 425.693 1.55336 -0.266172 0
M  V30 4491 C 426.941 1.99003 0.35246 0
M  V30 4492 C 427.262 1.15591 1.57047 0
M  V30 4493 O 426.532 0.243268 1.94384 0
M  V30 4494 H 425.112 0.735025 0.133217 0
M  V30 4495 H 427.774 1.91367 -0.369434 0
M  V30 4496 H 426.87 3.05289 0.648453 0
M  V30 4497 N 427.171 -0.0066808 1.57599 0
M  V30 4498 C 428.419 -0.691552 1.899 0
M  V30 4499 C 428.74 -1.74682 0.866672 0
M  V30 4500 O 428.01 -1.95661 -0.0968189 0
M  V30 4501 H 426.59 -0.258416 0.700878 0
M  V30 4502 H 429.252 0.0326655 1.94873 0
M  V30 4503 H 428.348 -1.16702 2.8946 0
M  V30 4504 N 428.649 -1.55105 -0.279332 0
M  V30 4505 C 429.898 -1.74618 -1.00952 0
M  V30 4506 C 430.211 -0.551096 -1.87676 0
M  V30 4507 O 431.417 -0.628507 -2.64125 0
M  V30 4508 C 429.873 -3.09025 -1.84476 0
M  V30 4509 C 429.481 -4.36081 -1.0265 0
M  V30 4510 C 431.225 -3.37891 -2.56963 0
M  V30 4511 C 429.132 -5.6153 -1.85576 0
M  V30 4512 H 428.062 -0.650868 -0.38064 0
M  V30 4513 H 430.713 -1.81569 -0.265475 0
M  V30 4514 H 429.095 -2.96095 -2.62952 0
M  V30 4515 H 430.269 -4.59909 -0.286354 0
M  V30 4516 H 428.584 -4.14312 -0.416464 0
M  V30 4517 H 431.181 -4.28822 -3.19399 0
M  V30 4518 H 431.524 -2.57737 -3.26921 0
M  V30 4519 H 432.057 -3.5189 -1.85522 0
M  V30 4520 H 428.796 -6.44413 -1.2005 0
M  V30 4521 H 428.316 -5.41854 -2.57204 0
M  V30 4522 H 429.995 -5.99594 -2.43096 0
M  V30 4523 N 430.127 0.543554 -1.4793 0
M  V30 4524 C 431.367 1.31072 -1.56843 0
M  V30 4525 C 431.731 1.90604 -0.231124 0
M  V30 4526 O 432.932 2.68091 -0.195165 0
M  V30 4527 C 431.203 2.38106 -2.66533 0
M  V30 4528 S 432.762 3.24729 -2.95122 0
M  V30 4529 H 429.58 0.446035 -0.553691 0
M  V30 4530 H 432.182 0.620777 -1.85382 0
M  V30 4531 H 430.886 1.92828 -3.62278 0
M  V30 4532 H 430.417 3.11824 -2.39852 0
M  V30 4533 H 432.432 4.37891 -2.3338 0
M  V30 4534 N 431.605 1.3629 0.791371 0
M  V30 4535 C 432.853 1.30154 1.5461 0
M  V30 4536 C 433.174 -0.119409 1.94634 0
M  V30 4537 O 432.444 -1.05924 1.64794 0
M  V30 4538 H 431.024 0.478784 0.573389 0
M  V30 4539 H 433.686 1.70565 0.94306 0
M  V30 4540 H 432.782 1.92762 2.45457 0
M  V30 4541 N 433.083 -1.0153 1.20538 0
M  V30 4542 C 434.329 -1.75408 1.01783 0
M  V30 4543 C 434.662 -1.88943 -0.448814 0
M  V30 4544 O 433.937 -1.4162 -1.33319 0
M  V30 4545 C 434.22 -3.17255 1.70356 0
M  V30 4546 C 434.073 -3.11508 3.24473 0
M  V30 4547 C 435.392 -4.15955 1.43769 0
M  V30 4548 H 432.511 -0.636713 0.371167 0
M  V30 4549 H 435.153 -1.18436 1.4857 0
M  V30 4550 H 433.303 -3.65898 1.30578 0
M  V30 4551 H 434.975 -2.70658 3.73553 0
M  V30 4552 H 433.218 -2.4887 3.55311 0
M  V30 4553 H 433.889 -4.11784 3.67611 0
M  V30 4554 H 436.365 -3.75973 1.7828 0
M  V30 4555 H 435.241 -5.13368 1.94279 0
M  V30 4556 H 435.502 -4.40586 0.365564 0
M  V30 4557 N 434.561 -1.01147 -1.20859 0
M  V30 4558 C 435.491 -0.597663 -2.25722 0
M  V30 4559 C 436.472 0.384744 -1.65692 0
M  V30 4560 O 437.657 0.271303 -1.92296 0
M  V30 4561 C 434.787 0.0700149 -3.47229 0
M  V30 4562 C 433.741 -0.832843 -4.19819 0
M  V30 4563 C 433.067 -0.0312202 -5.34691 0
M  V30 4564 C 434.367 -2.1385 -4.76514 0
M  V30 4565 H 436.061 -1.47423 -2.60589 0
M  V30 4566 H 433.607 -0.710301 -1.25263 0
M  V30 4567 H 435.56 0.37103 -4.19763 0
M  V30 4568 H 434.284 0.981259 -3.11511 0
M  V30 4569 H 432.943 -1.11778 -3.49144 0
M  V30 4570 H 432.591 0.881515 -4.95215 0
M  V30 4571 H 432.291 -0.632434 -5.84187 0
M  V30 4572 H 433.815 0.26346 -6.10031 0
M  V30 4573 H 435.229 -1.9002 -5.40893 0
M  V30 4574 H 433.626 -2.69012 -5.36426 0
M  V30 4575 H 434.696 -2.80495 -3.95538 0
M  V30 4576 N 436.039 1.36541 -0.78704 0
M  V30 4577 C 437.264 2.0409 -0.369053 0
M  V30 4578 C 437.689 1.58957 1.00569 0
M  V30 4579 O 437.047 0.756926 1.64743 0
M  V30 4580 C 437.095 3.57924 -0.438466 0
M  V30 4581 O 436.199 4.08642 0.555479 0
M  V30 4582 H 435.54 0.645142 -0.157122 0
M  V30 4583 H 438.07 1.74545 -1.06749 0
M  V30 4584 H 438.08 4.06887 -0.301218 0
M  V30 4585 H 436.755 3.90127 -1.44132 0
M  V30 4586 H 435.332 3.70958 0.380088 0
M  V30 4587 N 437.518 0.538854 1.48102 0
M  V30 4588 C 438.758 0.0101209 2.04397 0
M  V30 4589 C 439.122 -1.30741 1.40609 0
M  V30 4590 O 440.323 -1.92272 1.87843 0
M  V30 4591 C 438.594 -0.100232 3.57259 0
M  V30 4592 S 440.153 -0.577746 4.3498 0
M  V30 4593 H 436.971 0.0163171 0.710813 0
M  V30 4594 H 439.573 0.721429 1.81702 0
M  V30 4595 H 438.277 0.863351 4.01216 0
M  V30 4596 H 437.808 -0.835651 3.84422 0
M  V30 4597 H 439.823 -1.84073 4.60794 0
M  V30 4598 N 438.996 -1.55193 0.274407 0
M  V30 4599 C 439.959 -2.212 -0.600279 0
M  V30 4600 C 440.959 -1.18963 -1.08187 0
M  V30 4601 O 442.149 -1.43873 -0.982158 0
M  V30 4602 C 439.281 -2.87739 -1.82809 0
M  V30 4603 H 440.474 -2.9989 -0.0239682 0
M  V30 4604 H 438.027 -1.5628 0.0250192 0
M  V30 4605 H 438.762 -2.13058 -2.44493 0
M  V30 4606 H 438.547 -3.62658 -1.49069 0
M  V30 4607 H 440.037 -3.38171 -2.45011 0
M  V30 4608 N 440.474 -0.00167713 -1.576 0
M  V30 4609 C 441.704 0.692754 -1.94639 0
M  V30 4610 C 442.112 1.67744 -0.87513 0
M  V30 4611 O 441.455 1.8305 0.154382 0
M  V30 4612 C 441.517 1.47881 -3.27676 0
M  V30 4613 C 441.181 0.655518 -4.52274 0
M  V30 4614 C 442.178 -0.0575214 -5.19868 0
M  V30 4615 C 439.863 0.600994 -4.98692 0
M  V30 4616 C 441.857 -0.814052 -6.3218 0
M  V30 4617 C 439.544 -0.15926 -6.10892 0
M  V30 4618 C 440.542 -0.865515 -6.77494 0
M  V30 4619 O 440.23 -1.61336 -7.87544 0
M  V30 4620 H 439.962 0.197792 -0.646417 0
M  V30 4621 H 442.516 -0.049423 -2.05341 0
M  V30 4622 H 440.746 2.2655 -3.13388 0
M  V30 4623 H 442.435 2.05874 -3.49816 0
M  V30 4624 H 443.201 -0.0245611 -4.84994 0
M  V30 4625 H 439.08 1.14025 -4.46676 0
M  V30 4626 H 442.624 -1.36584 -6.84098 0
M  V30 4627 H 438.521 -0.194035 -6.45208 0
M  V30 4628 H 439.289 -1.53025 -8.04068 0
M  V30 4629 N 441.952 1.55251 0.271103 0
M  V30 4630 C 442.882 1.9127 1.33933 0
M  V30 4631 C 443.863 0.77478 1.5143 0
M  V30 4632 O 445.048 1.03307 1.64442 0
M  V30 4633 C 442.178 2.18627 2.69851 0
M  V30 4634 C 441.132 3.34442 2.67081 0
M  V30 4635 C 440.458 3.47284 4.06569 0
M  V30 4636 C 441.758 4.70784 2.26185 0
M  V30 4637 H 443.452 2.80744 1.04035 0
M  V30 4638 H 440.998 1.35077 0.499017 0
M  V30 4639 H 442.951 2.42413 3.44694 0
M  V30 4640 H 441.675 1.25955 3.01335 0
M  V30 4641 H 440.334 3.10627 1.94695 0
M  V30 4642 H 439.982 2.52074 4.35279 0
M  V30 4643 H 439.682 4.25152 4.0561 0
M  V30 4644 H 441.206 3.73363 4.83148 0
M  V30 4645 H 442.62 4.94102 2.90751 0
M  V30 4646 H 441.017 5.51582 2.36384 0
M  V30 4647 H 442.087 4.69478 1.21319 0
M  V30 4648 N 443.43 -0.535701 1.48216 0
M  V30 4649 C 444.677 -1.29183 1.55942 0
M  V30 4650 C 445.005 -1.93125 0.230857 0
M  V30 4651 O 444.26 -1.79556 -0.778331 0
M  V30 4652 C 444.559 -2.4068 2.64212 0
M  V30 4653 C 444.225 -1.94428 4.06827 0
M  V30 4654 C 442.887 -1.81532 4.45645 0
M  V30 4655 C 445.239 -1.59405 4.96225 0
M  V30 4656 C 442.567 -1.31939 5.71672 0
M  V30 4657 C 444.919 -1.11276 6.22736 0
M  V30 4658 C 443.583 -0.969924 6.60416 0
M  V30 4659 H 442.853 -0.472715 0.570632 0
M  V30 4660 H 445.5 -0.598437 1.81909 0
M  V30 4661 H 443.805 -3.15666 2.32083 0
M  V30 4662 H 445.502 -2.98822 2.67407 0
M  V30 4663 H 442.092 -2.05415 3.76168 0
M  V30 4664 H 446.276 -1.68231 4.66917 0
M  V30 4665 H 441.532 -1.19562 5.99596 0
M  V30 4666 H 445.706 -0.832453 6.91407 0
M  V30 4667 H 443.333 -0.583436 7.57958 0
M  V30 4668 N 444.908 -1.36708 -0.784132 0
M  V30 4669 C 446.148 -1.32618 -1.55537 0
M  V30 4670 C 446.512 0.0920681 -1.91779 0
M  V30 4671 O 447.713 0.257573 -2.67563 0
M  V30 4672 C 445.984 -2.22788 -2.79464 0
M  V30 4673 S 447.543 -2.36432 -3.69656 0
M  V30 4674 H 444.361 -0.470973 -0.53264 0
M  V30 4675 H 446.963 -1.72333 -0.92312 0
M  V30 4676 H 445.667 -3.24774 -2.50899 0
M  V30 4677 H 445.198 -1.84112 -3.47658 0
M  V30 4678 H 447.213 -1.56573 -4.7085 0
M  V30 4679 N 446.386 1.0089 -1.21074 0
M  V30 4680 C 447.318 2.09737 -0.924291 0
M  V30 4681 C 448.331 1.62546 0.0909809 0
M  V30 4682 O 449.52 1.77942 -0.141021 0
M  V30 4683 C 446.62 3.36922 -0.36559 0
M  V30 4684 C 445.793 4.13216 -1.43426 0
M  V30 4685 C 444.852 5.18696 -0.885496 0
M  V30 4686 O 443.878 5.47176 -1.56801 0
M  V30 4687 N 445.08 5.79718 0.301227 0
M  V30 4688 H 447.845 2.34895 -1.8613 0
M  V30 4689 H 445.406 1.17341 -1.11546 0
M  V30 4690 H 447.398 4.04697 0.0158407 0
M  V30 4691 H 445.968 3.08952 0.476149 0
M  V30 4692 H 445.188 3.40301 -1.9897 0
M  V30 4693 H 446.476 4.60967 -2.15376 0
M  V30 4694 H 445.874 5.58926 0.872849 0
M  V30 4695 H 444.431 6.48804 0.624211 0
M  V30 4696 N 447.864 1.01787 1.20321 0
M  V30 4697 C 449.28 0.732951 1.41774 0
M  V30 4698 C 449.48 -0.686883 1.89431 0
M  V30 4699 O 448.536 -1.45446 2.06402 0
M  V30 4700 C 449.849 1.75973 2.43832 0
M  V30 4701 C 451.397 1.77802 2.57596 0
M  V30 4702 C 451.872 2.7941 3.62897 0
M  V30 4703 N 453.363 2.78157 3.70382 0
M  V30 4704 C 454.098 3.53434 4.51521 0
M  V30 4705 N 453.594 4.38392 5.36455 0
M  V30 4706 N 455.387 3.42026 4.46066 0
M  V30 4707 H 447.538 1.93447 0.877035 0
M  V30 4708 H 449.801 0.835712 0.447536 0
M  V30 4709 H 449.507 2.77699 2.15815 0
M  V30 4710 H 449.381 1.57292 3.4284 0
M  V30 4711 H 451.768 0.767602 2.84942 0
M  V30 4712 H 451.849 2.00557 1.58779 0
M  V30 4713 H 451.493 3.80616 3.36295 0
M  V30 4714 H 451.423 2.53916 4.61339 0
M  V30 4715 H 453.914 2.16531 3.09714 0
M  V30 4716 H 454.227 4.92596 5.95457 0
M  V30 4717 H 452.572 4.4247 5.35953 0
M  V30 4718 H 455.763 2.75075 3.78749 0
M  V30 4719 H 455.936 4.00946 5.09064 0
M  V30 4720 N 449.342 -1.36122 0.79427 0
M  V30 4721 C 450.57 -2.03362 0.380989 0
M  V30 4722 C 450.985 -1.59881 -1.00416 0
M  V30 4723 O 450.342 -0.790515 -1.6449 0
M  V30 4724 C 450.393 -3.58804 0.440649 0
M  V30 4725 O 450.114 -4.007 1.77118 0
M  V30 4726 C 451.615 -4.43296 0.0186117 0
M  V30 4727 H 448.835 -0.652526 0.156367 0
M  V30 4728 H 451.379 -1.73998 1.07447 0
M  V30 4729 H 449.534 -3.8686 -0.204458 0
M  V30 4730 H 449.948 -4.95309 1.72538 0
M  V30 4731 H 451.422 -5.51887 0.111488 0
M  V30 4732 H 451.899 -4.2684 -1.03461 0
M  V30 4733 H 452.505 -4.20512 0.636395 0
M  V30 4734 N 450.82 -0.546701 -1.47814 0
M  V30 4735 C 452.067 -0.0187407 -2.02491 0
M  V30 4736 C 452.395 1.32685 -1.42215 0
M  V30 4737 O 451.65 1.87413 -0.563454 0
M  V30 4738 C 451.949 0.134869 -3.57145 0
M  V30 4739 C 451.615 -1.13849 -4.3629 0
M  V30 4740 C 450.277 -1.48743 -4.57634 0
M  V30 4741 C 452.629 -1.98277 -4.82012 0
M  V30 4742 C 449.957 -2.67932 -5.21948 0
M  V30 4743 C 452.309 -3.16659 -5.4764 0
M  V30 4744 C 450.973 -3.51879 -5.67219 0
M  V30 4745 H 450.243 -0.0068577 -0.740968 0
M  V30 4746 H 452.89 -0.716097 -1.77607 0
M  V30 4747 H 451.195 0.915118 -3.80963 0
M  V30 4748 H 452.892 0.558556 -3.97091 0
M  V30 4749 H 449.482 -0.856767 -4.19949 0
M  V30 4750 H 453.666 -1.72628 -4.6531 0
M  V30 4751 H 448.922 -2.95401 -5.35302 0
M  V30 4752 H 453.096 -3.82374 -5.82033 0
M  V30 4753 H 450.723 -4.44331 -6.16825 0
M  V30 4754 N 452.299 1.55045 -0.282633 0
M  V30 4755 C 453.229 2.2579 0.595066 0
M  V30 4756 C 454.21 1.25074 1.15284 0
M  V30 4757 O 455.395 1.5381 1.18559 0
M  V30 4758 C 452.525 2.98472 1.77572 0
M  V30 4759 C 451.479 4.0618 1.34914 0
M  V30 4760 C 450.805 4.66477 2.6135 0
M  V30 4761 C 452.105 5.1996 0.493821 0
M  V30 4762 H 453.799 2.994 0.00505653 0
M  V30 4763 H 451.345 1.44 0.000992001 0
M  V30 4764 H 453.298 3.46677 2.39568 0
M  V30 4765 H 452.022 2.2241 2.39168 0
M  V30 4766 H 450.681 3.58797 0.752338 0
M  V30 4767 H 450.329 3.87074 3.2122 0
M  V30 4768 H 450.029 5.39207 2.33516 0
M  V30 4769 H 451.553 5.17435 3.24181 0
M  V30 4770 H 452.967 5.64172 1.01898 0
M  V30 4771 H 451.364 5.99299 0.310047 0
M  V30 4772 H 452.434 4.82462 -0.485593 0
M  V30 4773 N 453.777 0.010035 1.57597 0
M  V30 4774 C 455.002 -0.687021 1.95691 0
M  V30 4775 C 455.427 -1.65952 0.885519 0
M  V30 4776 O 454.785 -1.80633 -0.15543 0
M  V30 4777 C 454.833 -1.3864 3.32884 0
M  V30 4778 O 453.937 -2.50115 3.27897 0
M  V30 4779 H 453.278 -0.181989 0.638573 0
M  V30 4780 H 455.808 0.0662122 2.04493 0
M  V30 4781 H 455.818 -1.74754 3.6868 0
M  V30 4782 H 454.493 -0.673411 4.10412 0
M  V30 4783 H 453.07 -2.16253 3.03791 0
M  V30 4784 N 455.255 -1.55392 -0.262866 0
M  V30 4785 C 456.502 -1.76476 -0.993109 0
M  V30 4786 C 456.83 -0.571479 -1.85915 0
M  V30 4787 O 456.085 0.445733 -1.90556 0
M  V30 4788 C 456.384 -3.02889 -1.89718 0
M  V30 4789 C 456.05 -4.34974 -1.18781 0
M  V30 4790 C 454.712 -4.7087 -0.991699 0
M  V30 4791 C 457.064 -5.16695 -0.683798 0
M  V30 4792 C 454.392 -5.86036 -0.279024 0
M  V30 4793 C 456.744 -6.32598 0.0153327 0
M  V30 4794 C 455.408 -6.67127 0.223062 0
M  V30 4795 H 454.678 -0.64577 -0.363404 0
M  V30 4796 H 457.325 -1.89664 -0.264525 0
M  V30 4797 H 455.63 -2.84644 -2.6923 0
M  V30 4798 H 457.327 -3.16399 -2.46359 0
M  V30 4799 H 453.917 -4.06765 -1.35058 0
M  V30 4800 H 458.101 -4.8943 -0.8229 0
M  V30 4801 H 453.357 -6.11306 -0.107456 0
M  V30 4802 H 457.531 -6.95171 0.413584 0
M  V30 4803 H 455.158 -7.56216 0.777265 0
M  V30 4804 N 456.733 0.527833 -1.48498 0
M  V30 4805 C 457.982 1.28003 -1.55878 0
M  V30 4806 C 458.295 1.9414 -0.238577 0
M  V30 4807 O 459.501 2.7083 -0.190643 0
M  V30 4808 C 457.957 2.32272 -2.74914 0
M  V30 4809 C 457.565 1.72196 -4.13585 0
M  V30 4810 C 459.309 3.08488 -2.91608 0
M  V30 4811 C 457.216 2.74417 -5.23879 0
M  V30 4812 H 456.146 0.481413 -0.580308 0
M  V30 4813 H 458.797 0.557195 -1.74836 0
M  V30 4814 H 457.179 3.07601 -2.49395 0
M  V30 4815 H 458.353 1.03041 -4.49132 0
M  V30 4816 H 456.668 1.08464 -4.02025 0
M  V30 4817 H 459.265 3.84879 -3.71177 0
M  V30 4818 H 459.608 3.64481 -2.01145 0
M  V30 4819 H 460.141 2.40274 -3.17038 0
M  V30 4820 H 456.88 2.23242 -6.16314 0
M  V30 4821 H 456.4 3.41893 -4.92818 0
M  V30 4822 H 458.079 3.37362 -5.52083 0
M  V30 4823 N 458.211 1.37122 0.776871 0
M  V30 4824 C 459.158 1.3247 1.88998 0
M  V30 4825 C 460.128 0.191143 1.64997 0
M  V30 4826 O 461.313 0.379683 1.86984 0
M  V30 4827 C 458.453 1.13241 3.25992 0
M  V30 4828 C 457.566 2.35782 3.61982 0
M  V30 4829 C 456.701 2.09465 4.88158 0
M  V30 4830 C 455.74 3.279 5.16864 0
M  V30 4831 N 454.877 3.01167 6.34226 0
M  V30 4832 H 459.717 2.27642 1.9231 0
M  V30 4833 H 457.254 1.13125 0.94027 0
M  V30 4834 H 459.212 1.00115 4.0501 0
M  V30 4835 H 457.842 0.217186 3.22069 0
M  V30 4836 H 456.894 2.59666 2.77989 0
M  V30 4837 H 458.206 3.24125 3.79137 0
M  V30 4838 H 457.36 1.93341 5.75069 0
M  V30 4839 H 456.099 1.18452 4.73097 0
M  V30 4840 H 455.104 3.44569 4.2843 0
M  V30 4841 H 456.329 4.19757 5.33836 0
M  V30 4842 H 454.275 2.12779 6.20533 0
M  V30 4843 H 454.192 3.83052 6.51772 0
M  V30 4844 H 455.46 2.88649 7.24087 0
M  V30 4845 N 459.689 -1.00246 1.21608 0
M  V30 4846 C 460.917 -1.77631 1.06089 0
M  V30 4847 C 461.332 -1.84746 -0.38916 0
M  V30 4848 O 460.689 -1.31068 -1.26994 0
M  V30 4849 C 460.74 -3.21415 1.65453 0
M  V30 4850 O 460.461 -3.14703 3.04785 0
M  V30 4851 C 461.962 -4.15289 1.55079 0
M  V30 4852 H 459.182 -0.558162 0.37242 0
M  V30 4853 H 461.726 -1.26093 1.60999 0
M  V30 4854 H 459.881 -3.70053 1.14629 0
M  V30 4855 H 460.295 -4.05056 3.33212 0
M  V30 4856 H 461.769 -5.13965 2.01355 0
M  V30 4857 H 462.246 -4.36279 0.505665 0
M  V30 4858 H 462.852 -3.72543 2.05163 0
M  V30 4859 N 461.167 -1.02423 -1.1978 0
M  V30 4860 C 462.115 -0.594474 -2.24875 0
M  V30 4861 C 463.109 0.370598 -1.65296 0
M  V30 4862 O 464.315 0.239684 -1.78397 0
M  V30 4863 H 460.69 -0.173961 -0.731602 0
M  V30 4864 H 462.661 -1.4916 -2.58445 0
M  V30 4865 C 461.41 0.0436512 -3.47673 0
M  V30 4866 H 460.733 -0.689963 -3.93801 0
M  V30 4867 H 462.173 0.307362 -4.22884 0
M  V30 4868 C 460.632 1.28881 -3.11274 0
M  V30 4869 O 461.162 2.38135 -3.23503 0
M  V30 4870 N 459.368 1.1758 -2.6575 0
M  V30 4871 H 458.915 0.286769 -2.55999 0
M  V30 4872 H 458.873 2.00988 -2.41767 0
M  V30 4873 N 462.645 1.35699 -0.801477 0
M  V30 4874 C 464.061 1.52065 -0.484596 0
M  V30 4875 C 464.261 1.75215 0.995084 0
M  V30 4876 O 463.317 1.79061 1.78026 0
M  V30 4877 C 464.63 2.69908 -1.32552 0
M  V30 4878 C 466.178 2.83784 -1.32044 0
M  V30 4879 C 466.653 4.04646 -2.14536 0
M  V30 4880 N 468.144 4.11814 -2.12046 0
M  V30 4881 C 468.879 5.04437 -2.72636 0
M  V30 4882 N 468.375 6.02426 -3.42133 0
M  V30 4883 N 470.168 4.97144 -2.62305 0
M  V30 4884 H 462.319 1.18928 -1.75983 0
M  V30 4885 H 464.582 0.581455 -0.748741 0
M  V30 4886 H 464.288 2.59363 -2.37537 0
M  V30 4887 H 464.162 3.64376 -0.975181 0
M  V30 4888 H 466.549 2.93783 -0.27846 0
M  V30 4889 H 466.63 1.90188 -1.71062 0
M  V30 4890 H 466.274 3.95407 -3.18772 0
M  V30 4891 H 466.204 4.97413 -1.72882 0
M  V30 4892 H 468.695 3.41664 -1.61476 0
M  V30 4893 H 469.008 6.69688 -3.85666 0
M  V30 4894 H 467.353 6.02615 -3.46237 0
M  V30 4895 H 470.544 4.19546 -2.07603 0
M  V30 4896 H 470.717 5.69138 -3.09815 0
M  V30 4897 N 464.123 0.554532 1.47522 0
M  V30 4898 C 465.353 0.0342074 2.06572 0
M  V30 4899 C 465.761 -1.26375 1.40805 0
M  V30 4900 O 465.104 -1.7683 0.49769 0
M  V30 4901 C 465.166 -0.235096 3.5873 0
M  V30 4902 C 464.83 0.973024 4.46521 0
M  V30 4903 C 465.827 1.8779 4.848 0
M  V30 4904 C 463.512 1.18694 4.88075 0
M  V30 4905 C 465.506 2.98039 5.63428 0
M  V30 4906 C 463.193 2.29254 5.66468 0
M  V30 4907 C 464.191 3.18757 6.04055 0
M  V30 4908 O 463.879 4.27401 6.8087 0
M  V30 4909 H 463.611 0.041587 0.67472 0
M  V30 4910 H 466.165 0.766748 1.90552 0
M  V30 4911 H 464.395 -1.02191 3.72953 0
M  V30 4912 H 466.084 -0.700477 3.9981 0
M  V30 4913 H 466.85 1.72467 4.53299 0
M  V30 4914 H 462.729 0.49947 4.58286 0
M  V30 4915 H 466.273 3.67926 5.92685 0
M  V30 4916 H 462.17 2.4455 5.97382 0
M  V30 4917 H 462.938 4.25415 6.9926 0
M  V30 4918 N 465.601 -1.54893 0.290851 0
M  V30 4919 C 466.826 -2.04804 -0.32712 0
M  V30 4920 C 467.251 -1.16721 -1.47506 0
M  V30 4921 O 466.609 -0.169107 -1.8051 0
M  V30 4922 C 466.657 -3.52268 -0.770689 0
M  V30 4923 O 465.761 -3.67236 -1.87647 0
M  V30 4924 H 465.102 -0.660789 -0.0652227 0
M  V30 4925 H 467.632 -2.00036 0.429739 0
M  V30 4926 H 467.642 -3.9393 -1.06223 0
M  V30 4927 H 466.317 -4.15843 0.069096 0
M  V30 4928 H 464.894 -3.37479 -1.58626 0
M  V30 4929 N 467.08 -0.0183926 -1.57589 0
M  V30 4930 C 468.305 0.676634 -1.96052 0
M  V30 4931 C 468.73 1.6548 -0.894307 0
M  V30 4932 O 468.088 1.80712 0.145849 0
M  V30 4933 C 468.136 1.36872 -3.33614 0
M  V30 4934 O 467.24 2.48372 -3.29219 0
M  V30 4935 H 466.581 0.1786 -0.63953 0
M  V30 4936 H 469.111 -0.077056 -2.04455 0
M  V30 4937 H 469.121 1.72797 -3.69601 0
M  V30 4938 H 467.796 0.651636 -4.10763 0
M  V30 4939 H 466.373 2.14639 -3.04934 0
M  V30 4940 N 468.558 1.5553 0.254621 0
M  V30 4941 C 469.505 1.89666 1.31512 0
M  V30 4942 C 470.475 0.750057 1.482 0
M  V30 4943 O 471.66 1.00301 1.62309 0
M  V30 4944 C 468.8 2.19009 2.667 0
M  V30 4945 C 467.913 3.46435 2.58083 0
M  V30 4946 C 467.048 3.65386 3.85573 0
M  V30 4947 C 466.087 4.8644 3.71541 0
M  V30 4948 N 465.224 5.01952 4.90906 0
M  V30 4949 H 470.064 2.80109 1.017 0
M  V30 4950 H 467.601 1.38666 0.490938 0
M  V30 4951 H 469.559 2.34025 3.45381 0
M  V30 4952 H 468.189 1.31779 2.94676 0
M  V30 4953 H 467.241 3.39792 1.71013 0
M  V30 4954 H 468.553 4.35258 2.43622 0
M  V30 4955 H 467.707 3.80319 4.72697 0
M  V30 4956 H 466.446 2.74781 4.02922 0
M  V30 4957 H 465.451 4.71491 2.82801 0
M  V30 4958 H 466.676 5.78497 3.55694 0
M  V30 4959 H 464.622 4.14283 5.08631 0
M  V30 4960 H 464.539 5.84851 4.79046 0
M  V30 4961 H 465.807 5.21289 5.7955 0
M  V30 4962 N 470.036 -0.519951 1.48776 0
M  V30 4963 C 470.966 -1.63253 1.66945 0
M  V30 4964 C 471.947 -1.62014 0.518224 0
M  V30 4965 O 473.132 -1.79053 0.751919 0
M  V30 4966 C 470.262 -3.0181 1.71836 0
M  V30 4967 C 469.216 -3.17911 2.8656 0
M  V30 4968 C 468.542 -4.5763 2.76548 0
M  V30 4969 C 469.842 -2.99729 4.27738 0
M  V30 4970 H 471.536 -1.48302 2.6009 0
M  V30 4971 H 469.082 -0.712026 1.25165 0
M  V30 4972 H 471.035 -3.79525 1.83135 0
M  V30 4973 H 469.759 -3.17806 0.752775 0
M  V30 4974 H 468.418 -2.42616 2.74833 0
M  V30 4975 H 468.066 -4.70476 1.77937 0
M  V30 4976 H 467.766 -4.69346 3.53536 0
M  V30 4977 H 469.29 -5.37431 2.89828 0
M  V30 4978 H 470.704 -3.67228 4.40246 0
M  V30 4979 H 469.101 -3.22932 5.05801 0
M  V30 4980 H 470.171 -1.96047 4.43502 0
M  V30 4981 N 471.514 -1.37532 -0.769588 0
M  V30 4982 C 472.444 -1.36172 -1.89682 0
M  V30 4983 C 473.425 -0.23001 -1.68538 0
M  V30 4984 O 474.61 -0.43069 -1.89364 0
M  V30 4985 C 471.74 -1.1701 -3.26995 0
M  V30 4986 C 470.694 -2.27216 -3.62708 0
M  V30 4987 C 470.02 -1.93174 -4.98586 0
M  V30 4988 C 471.32 -3.6941 -3.69234 0
M  V30 4989 H 473.014 -2.30499 -1.91078 0
M  V30 4990 H 470.56 -1.10953 -0.917902 0
M  V30 4991 H 472.513 -1.14688 -4.05493 0
M  V30 4992 H 471.237 -0.191395 -3.26039 0
M  V30 4993 H 469.896 -2.28697 -2.86519 0
M  V30 4994 H 469.544 -0.938281 -4.94171 0
M  V30 4995 H 469.244 -2.66973 -5.23449 0
M  V30 4996 H 470.768 -1.92443 -5.79481 0
M  V30 4997 H 472.182 -3.70047 -4.37879 0
M  V30 4998 H 470.579 -4.4228 -4.05597 0
M  V30 4999 H 471.649 -4.0288 -2.69844 0
M  V30 5000 N 472.992 0.995999 -1.22138 0
M  V30 5001 C 473.955 2.06711 -0.990109 0
M  V30 5002 C 474.955 1.60744 0.0422978 0
M  V30 5003 O 476.145 1.73095 -0.195895 0
M  V30 5004 C 473.277 3.37288 -0.49491 0
M  V30 5005 H 474.47 2.28661 -1.94047 0
M  V30 5006 H 472.023 1.16711 -1.03963 0
M  V30 5007 H 472.758 3.21022 0.459948 0
M  V30 5008 H 472.543 3.71986 -1.23971 0
M  V30 5009 H 474.033 4.16103 -0.353253 0
M  V30 5010 N 474.47 1.03057 1.19235 0
M  V30 5011 C 475.698 0.747697 1.92917 0
M  V30 5012 C 476.113 -0.69372 1.75593 0
M  V30 5013 O 475.47 -1.47191 1.07894 0
M  V30 5014 C 475.521 1.09159 3.44625 0
M  V30 5015 O 475.242 2.47641 3.61394 0
M  V30 5016 C 476.743 0.831763 4.35427 0
M  V30 5017 H 473.963 0.273453 0.612751 0
M  V30 5018 H 476.507 1.37552 1.51327 0
M  V30 5019 H 474.662 0.508919 3.84043 0
M  V30 5020 H 475.076 2.60499 4.55237 0
M  V30 5021 H 476.55 1.12233 5.4047 0
M  V30 5022 H 477.027 -0.233769 4.38577 0
M  V30 5023 H 477.633 1.39725 4.01693 0
M  V30 5024 N 475.948 -1.35272 0.808662 0
M  V30 5025 C 477.173 -2.03477 0.401475 0
M  V30 5026 C 477.598 -1.60537 -0.980279 0
M  V30 5027 O 476.956 -0.78304 -1.63518 0
M  V30 5028 C 477.004 -3.57181 0.495354 0
M  V30 5029 O 476.108 -4.09474 -0.490397 0
M  V30 5030 H 475.449 -0.642561 0.167366 0
M  V30 5031 H 477.979 -1.72824 1.09512 0
M  V30 5032 H 477.989 -4.06356 0.365912 0
M  V30 5033 H 476.664 -3.87784 1.5032 0
M  V30 5034 H 475.241 -3.71516 -0.321023 0
M  V30 5035 N 477.426 -0.562348 -1.47226 0
M  V30 5036 C 478.373 0.182461 -2.30078 0
M  V30 5037 C 479.343 0.903503 -1.39377 0
M  V30 5038 O 480.528 0.898188 -1.68337 0
M  V30 5039 C 477.668 1.20322 -3.23445 0
M  V30 5040 C 476.781 0.487717 -4.29238 0
M  V30 5041 C 475.916 1.49422 -5.09752 0
M  V30 5042 C 474.955 0.763976 -6.07314 0
M  V30 5043 N 474.092 1.71755 -6.80768 0
M  V30 5044 H 478.932 -0.530169 -2.93246 0
M  V30 5045 H 476.469 -0.273276 -1.44539 0
M  V30 5046 H 478.427 1.80768 -3.76004 0
M  V30 5047 H 477.057 1.88382 -2.6213 0
M  V30 5048 H 476.109 -0.231374 -3.79696 0
M  V30 5049 H 477.421 -0.0841003 -4.98729 0
M  V30 5050 H 476.575 2.17206 -5.66486 0
M  V30 5051 H 475.314 2.09995 -4.40174 0
M  V30 5052 H 474.319 0.0722344 -5.49753 0
M  V30 5053 H 475.544 0.16391 -6.78902 0
M  V30 5054 H 473.49 2.31177 -6.13916 0
M  V30 5055 H 473.407 1.19802 -7.46447 0
M  V30 5056 H 474.675 2.38638 -7.42073 0
M  V30 5057 N 478.904 1.54736 -0.299062 0
M  V30 5058 C 480.315 1.8569 0.193971 0
M  V30 5059 C 480.666 1.22101 1.53577 0
M  V30 5060 O 479.791 0.51799 2.10109 0
M  V30 5061 C 480.386 3.36895 0.358733 0
M  V30 5062 C 478.945 3.67887 0.795986 0
M  V30 5063 C 478.092 2.77131 -0.096807 0
M  V30 5064 H 481.043 1.49934 -0.520134 0
M  V30 5065 H 481.064 3.61294 1.19361 0
M  V30 5066 H 480.576 3.83148 -0.617998 0
M  V30 5067 H 478.677 3.27151 1.78334 0
M  V30 5068 H 478.79 4.75114 0.616718 0
M  V30 5069 H 477.154 2.51153 0.423581 0
M  V30 5070 H 477.937 3.26204 -1.06986 0
M  V30 5071 N 480.382 0.0267497 1.57577 0
M  V30 5072 C 481.628 -0.653371 1.91987 0
M  V30 5073 C 481.961 -1.71915 0.903263 0
M  V30 5074 O 481.236 -1.94358 -0.0743387 0
M  V30 5075 C 481.519 -1.272 3.36886 0
M  V30 5076 C 481.372 -0.215938 4.49281 0
M  V30 5077 C 482.691 -2.19069 3.81703 0
M  V30 5078 H 479.81 -0.236047 0.698177 0
M  V30 5079 H 482.452 0.0835236 1.89816 0
M  V30 5080 H 480.602 -1.90005 3.38866 0
M  V30 5081 H 482.274 0.41449 4.59434 0
M  V30 5082 H 480.517 0.458855 4.31366 0
M  V30 5083 H 481.188 -0.688347 5.47691 0
M  V30 5084 H 483.664 -1.66253 3.81444 0
M  V30 5085 H 482.54 -2.59307 4.83788 0
M  V30 5086 H 482.801 -3.08087 3.17072 0
M  V30 5087 N 481.861 -1.55662 -0.24637 0
M  V30 5088 C 483.091 -1.81312 -0.990438 0
M  V30 5089 C 483.499 -0.600234 -1.79426 0
M  V30 5090 O 482.842 0.440537 -1.78339 0
M  V30 5091 C 482.904 -3.0032 -1.97607 0
M  V30 5092 C 482.568 -4.36322 -1.35912 0
M  V30 5093 C 483.565 -5.14295 -0.761348 0
M  V30 5094 C 481.25 -4.83019 -1.37833 0
M  V30 5095 C 483.244 -6.37114 -0.190998 0
M  V30 5096 C 480.931 -6.05786 -0.804128 0
M  V30 5097 C 481.929 -6.82672 -0.211489 0
M  V30 5098 O 481.617 -8.03121 0.353845 0
M  V30 5099 H 481.349 -0.607233 -0.297058 0
M  V30 5100 H 483.903 -2.0356 -0.274351 0
M  V30 5101 H 482.133 -2.73829 -2.73047 0
M  V30 5102 H 483.822 -3.13057 -2.58361 0
M  V30 5103 H 484.588 -4.79337 -0.739013 0
M  V30 5104 H 480.467 -4.23165 -1.829 0
M  V30 5105 H 484.011 -6.97069 0.272206 0
M  V30 5106 H 479.908 -6.40222 -0.823792 0
M  V30 5107 H 480.676 -8.18131 0.245761 0
M  V30 5108 N 483.339 0.512053 -1.4905 0
M  V30 5109 C 484.564 1.2959 -1.6193 0
M  V30 5110 C 484.989 1.85906 -0.286454 0
M  V30 5111 O 484.347 1.65312 0.744426 0
M  V30 5112 C 484.395 2.40987 -2.68249 0
M  V30 5113 O 483.499 3.44531 -2.26654 0
M  V30 5114 H 482.84 0.383053 -0.542371 0
M  V30 5115 H 485.37 0.614231 -1.95162 0
M  V30 5116 H 485.38 2.86913 -2.90078 0
M  V30 5117 H 484.055 1.99361 -3.65004 0
M  V30 5118 H 482.632 3.046 -2.15112 0
M  V30 5119 N 484.817 1.37938 0.762283 0
M  V30 5120 C 485.78 1.34279 1.85747 0
M  V30 5121 C 486.78 0.244969 1.58923 0
M  V30 5122 O 487.97 0.501365 1.66829 0
M  V30 5123 C 485.102 1.08833 3.23061 0
M  V30 5124 H 486.295 2.31705 1.90401 0
M  V30 5125 H 483.848 1.23105 0.963057 0
M  V30 5126 H 484.583 0.119767 3.24079 0
M  V30 5127 H 484.368 1.88306 3.43923 0
M  V30 5128 H 485.858 1.08946 4.03138 0
M  V30 5129 N 486.295 -0.989507 1.22664 0
M  V30 5130 C 487.225 -2.09847 1.02404 0
M  V30 5131 C 488.206 -1.70007 -0.0561303 0
M  V30 5132 O 489.391 -1.93906 0.106748 0
M  V30 5133 C 486.521 -3.41996 0.604663 0
M  V30 5134 C 485.475 -3.95699 1.63115 0
M  V30 5135 C 484.801 -5.23936 1.0675 0
M  V30 5136 C 486.101 -4.25999 3.02196 0
M  V30 5137 H 487.795 -2.27054 1.95158 0
M  V30 5138 H 485.341 -1.09111 0.939727 0
M  V30 5139 H 487.294 -4.1899 0.45002 0
M  V30 5140 H 486.018 -3.24626 -0.35855 0
M  V30 5141 H 484.677 -3.2084 1.77362 0
M  V30 5142 H 484.325 -5.02909 0.0955422 0
M  V30 5143 H 484.025 -5.60833 1.75328 0
M  V30 5144 H 485.549 -6.0356 0.924516 0
M  V30 5145 H 486.963 -4.93777 2.91303 0
M  V30 5146 H 485.36 -4.74076 3.67929 0
M  V30 5147 H 486.43 -3.33636 3.51873 0
M  V30 5148 N 487.773 -1.03688 -1.18687 0
M  V30 5149 C 488.736 -0.629115 -2.20397 0
M  V30 5150 C 489.736 0.311495 -1.57754 0
M  V30 5151 O 490.926 0.0974107 -1.73927 0
M  V30 5152 C 488.058 0.0782231 -3.4081 0
M  V30 5153 H 489.251 -1.52915 -2.57987 0
M  V30 5154 H 486.804 -0.828988 -1.32505 0
M  V30 5155 H 487.539 0.992233 -3.08748 0
M  V30 5156 H 487.324 -0.597776 -3.87517 0
M  V30 5157 H 488.814 0.350156 -4.16129 0
M  V30 5158 N 489.251 1.34841 -0.815825 0
M  V30 5159 C 490.479 2.0273 -0.413294 0
M  V30 5160 C 490.894 1.61459 0.978599 0
M  V30 5161 O 490.251 0.816584 1.63212 0
M  V30 5162 C 490.302 3.58058 -0.497676 0
M  V30 5163 O 490.023 3.97832 -1.8347 0
M  V30 5164 C 491.524 4.4321 -0.0891339 0
M  V30 5165 H 488.744 0.649956 -0.166728 0
M  V30 5166 H 491.288 1.72267 -1.10201 0
M  V30 5167 H 489.443 3.87136 0.142886 0
M  V30 5168 H 489.857 4.92501 -1.80396 0
M  V30 5169 H 491.331 5.5164 -0.199274 0
M  V30 5170 H 491.808 4.28432 0.966571 0
M  V30 5171 H 492.414 4.19446 -0.703214 0
M  V30 5172 N 490.729 0.570148 1.46925 0
M  V30 5173 C 491.659 -0.158274 2.32963 0
M  V30 5174 C 492.64 -0.896093 1.44583 0
M  V30 5175 O 493.825 -0.874022 1.7342 0
M  V30 5176 C 490.955 -1.18055 3.26619 0
M  V30 5177 C 489.909 -0.558379 4.24342 0
M  V30 5178 C 489.235 -1.68623 5.07415 0
M  V30 5179 C 490.535 0.496295 5.19937 0
M  V30 5180 H 492.229 0.560046 2.94115 0
M  V30 5181 H 489.775 0.270775 1.41431 0
M  V30 5182 H 491.728 -1.69841 3.85658 0
M  V30 5183 H 490.452 -1.92899 2.63548 0
M  V30 5184 H 489.111 -0.0617157 3.66548 0
M  V30 5185 H 488.759 -2.42402 4.40738 0
M  V30 5186 H 488.459 -1.27564 5.73586 0
M  V30 5187 H 489.983 -2.20709 5.69315 0
M  V30 5188 H 491.397 0.0640052 5.73264 0
M  V30 5189 H 489.794 0.82649 5.94381 0
M  V30 5190 H 490.864 1.38735 4.6463 0
M  V30 5191 N 492.207 -1.54576 0.307264 0
M  V30 5192 C 493.137 -2.26708 -0.55907 0
M  V30 5193 C 494.118 -1.26893 -1.1328 0
M  V30 5194 O 495.303 -1.55677 -1.16097 0
M  V30 5195 C 492.433 -3.01259 -1.72801 0
M  V30 5196 C 491.387 -4.08275 -1.28435 0
M  V30 5197 C 490.713 -4.70575 -2.53895 0
M  V30 5198 C 492.013 -5.2068 -0.411038 0
M  V30 5199 H 493.707 -2.9937 0.042576 0
M  V30 5200 H 491.253 -1.43983 0.0219173 0
M  V30 5201 H 493.206 -3.50444 -2.34023 0
M  V30 5202 H 491.93 -2.26187 -2.356 0
M  V30 5203 H 490.589 -3.59949 -0.695161 0
M  V30 5204 H 490.237 -3.92136 -3.15021 0
M  V30 5205 H 489.937 -5.42854 -2.24908 0
M  V30 5206 H 491.461 -5.22527 -3.15908 0
M  V30 5207 H 492.875 -5.65721 -0.929097 0
M  V30 5208 H 491.272 -5.99716 -0.214664 0
M  V30 5209 H 492.342 -4.81629 0.562287 0
M  V30 5210 N 493.685 -0.035106 -1.57561 0
M  V30 5211 C 494.615 0.942993 -2.13612 0
M  V30 5212 C 495.596 1.33531 -1.05373 0
M  V30 5213 O 496.781 1.41287 -1.33235 0
M  V30 5214 C 493.911 2.22332 -2.66807 0
M  V30 5215 C 492.865 1.97156 -3.79886 0
M  V30 5216 C 492.191 3.31506 -4.19533 0
M  V30 5217 C 493.491 1.30596 -5.05709 0
M  V30 5218 H 495.185 0.476179 -2.95589 0
M  V30 5219 H 492.731 0.227602 -1.4219 0
M  V30 5220 H 494.684 2.91142 -3.04654 0
M  V30 5221 H 493.408 2.7119 -1.81999 0
M  V30 5222 H 492.067 1.30763 -3.42486 0
M  V30 5223 H 491.715 3.78134 -3.31698 0
M  V30 5224 H 491.415 3.15465 -4.95738 0
M  V30 5225 H 492.939 4.01574 -4.59968 0
M  V30 5226 H 494.353 1.89416 -5.41105 0
M  V30 5227 H 492.75 1.24934 -5.86951 0
M  V30 5228 H 493.82 0.279742 -4.84092 0
M  V30 5229 N 495.163 1.55791 0.238111 0
M  V30 5230 C 496.126 1.90239 1.27835 0
M  V30 5231 C 497.126 0.779552 1.4064 0
M  V30 5232 O 498.316 1.04747 1.3919 0
M  V30 5233 C 495.448 2.13859 2.65475 0
M  V30 5234 H 496.641 2.83262 0.985034 0
M  V30 5235 H 494.194 1.48818 0.477799 0
M  V30 5236 H 494.929 1.23334 2.99932 0
M  V30 5237 H 494.714 2.95643 2.57561 0
M  V30 5238 H 496.204 2.41664 3.40571 0
M  V30 5239 N 496.642 -0.504142 1.49319 0
M  V30 5240 C 497.867 -1.28729 1.62615 0
M  V30 5241 C 498.292 -1.85752 0.296309 0
M  V30 5242 O 497.65 -1.65704 -0.735649 0
M  V30 5243 C 497.698 -2.39561 2.69524 0
M  V30 5244 O 496.802 -3.43324 2.28478 0
M  V30 5245 H 496.143 -0.380172 0.544395 0
M  V30 5246 H 498.673 -0.603872 1.95485 0
M  V30 5247 H 498.683 -2.8537 2.91595 0
M  V30 5248 H 497.358 -1.97423 3.66056 0
M  V30 5249 H 495.935 -3.03455 2.16725 0
M  V30 5250 N 498.12 -1.38341 -0.754957 0
M  V30 5251 C 499.369 -1.33791 -1.5094 0
M  V30 5252 C 499.682 0.0699267 -1.95475 0
M  V30 5253 O 500.888 0.237956 -2.70455 0
M  V30 5254 C 499.344 -2.34934 -2.72643 0
M  V30 5255 C 498.952 -3.81332 -2.35138 0
M  V30 5256 C 500.696 -2.39425 -3.50536 0
M  V30 5257 C 498.603 -4.74164 -3.53444 0
M  V30 5258 H 497.533 -0.497314 -0.566741 0
M  V30 5259 H 500.184 -1.63888 -0.825403 0
M  V30 5260 H 498.566 -1.97878 -3.43017 0
M  V30 5261 H 499.74 -4.27319 -1.7244 0
M  V30 5262 H 498.055 -3.79946 -1.70382 0
M  V30 5263 H 500.652 -3.0598 -4.38498 0
M  V30 5264 H 500.995 -1.41278 -3.91594 0
M  V30 5265 H 501.528 -2.75274 -2.87174 0
M  V30 5266 H 498.267 -5.73501 -3.17453 0
M  V30 5267 H 497.787 -4.3287 -4.15191 0
M  V30 5268 H 499.466 -4.92111 -4.20043 0
M  V30 5269 N 499.598 0.982988 -1.23187 0
M  V30 5270 C 500.826 1.75921 -1.08901 0
M  V30 5271 C 501.241 1.85341 0.359719 0
M  V30 5272 O 500.598 1.33072 1.24892 0
M  V30 5273 C 500.649 3.18742 -1.70545 0
M  V30 5274 O 500.37 3.09814 -3.09753 0
M  V30 5275 C 501.871 4.1277 -1.61667 0
M  V30 5276 H 499.091 0.552166 -0.381252 0
M  V30 5277 H 501.635 1.23516 -1.62985 0
M  V30 5278 H 499.79 3.68182 -1.20501 0
M  V30 5279 H 500.204 3.99703 -3.39614 0
M  V30 5280 H 501.678 5.10697 -2.09506 0
M  V30 5281 H 502.155 4.3542 -0.575009 0
M  V30 5282 H 502.761 3.69232 -2.11064 0
M  V30 5283 N 501.076 1.04316 1.18135 0
M  V30 5284 C 502.306 0.767003 1.91835 0
M  V30 5285 C 502.714 -0.68002 1.76557 0
M  V30 5286 O 502.057 -1.47548 1.09432 0
M  V30 5287 C 502.119 1.05674 3.43618 0
M  V30 5288 C 501.783 2.49818 3.82675 0
M  V30 5289 C 502.78 3.48003 3.86251 0
M  V30 5290 C 500.465 2.84596 4.13897 0
M  V30 5291 C 502.459 4.79016 4.20503 0
M  V30 5292 C 500.146 4.15813 4.4782 0
M  V30 5293 C 501.144 5.12834 4.51099 0
M  V30 5294 O 500.832 6.41699 4.84229 0
M  V30 5295 H 500.564 0.278948 0.615763 0
M  V30 5296 H 503.118 1.3946 1.50798 0
M  V30 5297 H 501.348 0.372029 3.84906 0
M  V30 5298 H 503.037 0.767994 3.98568 0
M  V30 5299 H 503.803 3.22475 3.62264 0
M  V30 5300 H 499.682 2.09748 4.1052 0
M  V30 5301 H 503.226 5.54739 4.22978 0
M  V30 5302 H 499.123 4.41109 4.71268 0
M  V30 5303 H 499.891 6.46387 5.02121 0
M  V30 5304 N 502.554 -1.34406 0.822964 0
M  V30 5305 C 503.965 -1.8069 0.469879 0
M  V30 5306 C 504.316 -1.68223 -1.00972 0
M  V30 5307 O 503.441 -1.22226 -1.78577 0
M  V30 5308 C 504.036 -3.28064 0.846118 0
M  V30 5309 C 502.595 -3.72428 0.545402 0
M  V30 5310 C 501.742 -2.56116 1.06301 0
M  V30 5311 H 504.693 -1.22153 1.01313 0
M  V30 5312 H 504.714 -3.80205 0.149922 0
M  V30 5313 H 504.226 -3.37107 1.92304 0
M  V30 5314 H 502.327 -3.68924 -0.522109 0
M  V30 5315 H 502.44 -4.66548 1.0895 0
M  V30 5316 H 500.804 -2.50048 0.484554 0
M  V30 5317 H 501.587 -2.67928 2.14638 0
M  V30 5318 N 504.032 -0.577932 -1.46621 0
M  V30 5319 C 505.443 -0.150071 -1.86096 0
M  V30 5320 C 505.794 1.28563 -1.48209 0
M  V30 5321 O 504.919 1.97036 -0.894754 0
M  V30 5322 C 505.514 -0.265576 -3.37758 0
M  V30 5323 C 504.073 0.10738 -3.76247 0
M  V30 5324 C 503.22 -0.603711 -2.70649 0
M  V30 5325 H 506.171 -0.786438 -1.37844 0
M  V30 5326 H 506.192 0.510352 -3.77062 0
M  V30 5327 H 505.704 -1.3106 -3.65301 0
M  V30 5328 H 503.805 1.15272 -3.54321 0
M  V30 5329 H 503.918 -0.26561 -4.78363 0
M  V30 5330 H 502.282 -0.0444884 -2.54661 0
M  V30 5331 H 503.065 -1.65029 -3.01032 0
M  V30 5332 N 505.51 1.54411 -0.315457 0
M  V30 5333 C 506.758 2.00023 0.288971 0
M  V30 5334 C 507.079 1.20529 1.5329 0
M  V30 5335 O 506.349 0.304986 1.93511 0
M  V30 5336 H 504.929 0.738891 0.109766 0
M  V30 5337 H 507.591 1.90094 -0.430129 0
M  V30 5338 H 506.687 3.07198 0.550999 0
M  V30 5339 N 506.988 0.0434614 1.5754 0
M  V30 5340 C 508.234 -0.632971 1.92669 0
M  V30 5341 C 508.567 -1.70947 0.921446 0
M  V30 5342 O 507.842 -1.94426 -0.0537202 0
M  V30 5343 C 508.125 -1.23619 3.38216 0
M  V30 5344 C 507.978 -0.168274 4.49485 0
M  V30 5345 C 509.297 -2.15008 3.84005 0
M  V30 5346 H 506.416 -0.228629 0.700641 0
M  V30 5347 H 509.058 0.103651 1.89717 0
M  V30 5348 H 507.208 -1.864 3.40863 0
M  V30 5349 H 508.88 0.463196 4.58969 0
M  V30 5350 H 507.123 0.504581 4.30855 0
M  V30 5351 H 507.794 -0.630218 5.48391 0
M  V30 5352 H 510.27 -1.62198 3.83185 0
M  V30 5353 H 509.146 -2.54161 4.86511 0
M  V30 5354 H 509.407 -3.04707 3.20322 0
M  V30 5355 N 508.466 -1.55915 -0.229846 0
M  V30 5356 C 509.714 -1.7819 -0.953565 0
M  V30 5357 C 510.035 -0.610504 -1.85197 0
M  V30 5358 O 509.305 0.372988 -1.92316 0
M  V30 5359 H 507.885 -0.657208 -0.355087 0
M  V30 5360 H 510.547 -1.9337 -0.243693 0
M  V30 5361 H 509.643 -2.70011 -1.56527 0
M  V30 5362 N 509.944 0.496216 -1.49584 0
M  V30 5363 C 510.894 1.59422 -1.62999 0
M  V30 5364 C 511.878 1.53402 -0.485457 0
M  V30 5365 O 513.07 1.60851 -0.738649 0
M  V30 5366 C 510.199 2.98009 -1.70427 0
M  V30 5367 C 509.285 3.09008 -2.90473 0
M  V30 5368 N 509.676 2.89884 -4.14489 0
M  V30 5369 C 507.974 3.40115 -2.8851 0
M  V30 5370 C 508.675 3.0519 -4.95211 0
M  V30 5371 N 507.651 3.3428 -4.2867 0
M  V30 5372 H 511.453 1.43297 -2.56599 0
M  V30 5373 H 508.967 0.702443 -1.46422 0
M  V30 5374 H 510.964 3.76926 -1.78136 0
M  V30 5375 H 509.624 3.152 -0.77967 0
M  V30 5376 H 510.635 2.65963 -4.44392 0
M  V30 5377 H 507.312 3.63452 -2.05448 0
M  V30 5378 H 508.702 2.94856 -6.03746 0
M  V30 5379 N 511.423 1.38739 0.74761 0
M  V30 5380 C 512.67 1.35274 1.50689 0
M  V30 5381 C 512.998 -0.0553359 1.94421 0
M  V30 5382 O 512.253 -1.03365 1.66175 0
M  V30 5383 C 512.552 2.25992 2.7688 0
M  V30 5384 C 512.218 3.73854 2.5208 0
M  V30 5385 C 510.88 4.14145 2.45025 0
M  V30 5386 C 513.232 4.67427 2.30568 0
M  V30 5387 C 510.56 5.4609 2.14483 0
M  V30 5388 C 512.912 5.99635 2.01545 0
M  V30 5389 C 511.576 6.39004 1.92951 0
M  V30 5390 H 510.846 0.495003 0.55141 0
M  V30 5391 H 513.493 1.71145 0.859158 0
M  V30 5392 H 511.798 1.83196 3.46333 0
M  V30 5393 H 513.495 2.20611 3.34861 0
M  V30 5394 H 510.085 3.41913 2.58444 0
M  V30 5395 H 514.269 4.3714 2.34994 0
M  V30 5396 H 509.525 5.75528 2.06342 0
M  V30 5397 H 513.699 6.71678 1.83906 0
M  V30 5398 H 511.326 7.41165 1.6905 0
M  V30 5399 N 512.901 -0.976442 1.23707 0
M  V30 5400 C 513.831 -2.08749 1.04624 0
M  V30 5401 C 514.812 -1.70057 -0.0380956 0
M  V30 5402 O 515.997 -1.93782 0.127308 0
M  V30 5403 C 513.127 -3.41335 0.640902 0
M  V30 5404 C 512.081 -3.93947 1.67302 0
M  V30 5405 C 511.407 -5.22774 1.12301 0
M  V30 5406 C 512.707 -4.22769 3.06697 0
M  V30 5407 H 514.401 -2.24972 1.97555 0
M  V30 5408 H 511.947 -1.08108 0.951247 0
M  V30 5409 H 513.9 -4.18489 0.494434 0
M  V30 5410 H 512.624 -3.24988 -0.324099 0
M  V30 5411 H 511.283 -3.18941 1.80755 0
M  V30 5412 H 510.931 -5.0278 0.148877 0
M  V30 5413 H 510.631 -5.58942 1.81267 0
M  V30 5414 H 512.155 -6.02546 0.988479 0
M  V30 5415 H 513.569 -4.90659 2.96524 0
M  V30 5416 H 511.966 -4.70147 3.72937 0
M  V30 5417 H 513.036 -3.29885 3.55392 0
M  V30 5418 N 514.379 -1.04941 -1.1758 0
M  V30 5419 C 515.342 -0.652456 -2.19717 0
M  V30 5420 C 516.342 0.294745 -1.58076 0
M  V30 5421 O 517.532 0.0789579 -1.74021 0
M  V30 5422 C 514.664 0.0420712 -3.40874 0
M  V30 5423 H 515.857 -1.55642 -2.5635 0
M  V30 5424 H 513.41 -0.842995 -1.31618 0
M  V30 5425 H 514.145 0.95943 -3.09783 0
M  V30 5426 H 513.93 -0.638844 -3.86861 0
M  V30 5427 H 515.42 0.306 -4.16477 0
M  V30 5428 N 515.857 1.33968 -0.830081 0
M  V30 5429 C 517.082 2.02813 -0.433796 0
M  V30 5430 C 517.507 1.62076 0.954614 0
M  V30 5431 O 516.865 0.808955 1.62252 0
M  V30 5432 C 516.913 3.56348 -0.552115 0
M  V30 5433 O 516.017 4.10202 0.425191 0
M  V30 5434 H 515.358 0.639817 -0.177567 0
M  V30 5435 H 517.888 1.7106 -1.12248 0
M  V30 5436 H 517.898 4.05722 -0.430513 0
M  V30 5437 H 516.573 3.85344 -1.56471 0
M  V30 5438 H 515.15 3.71979 0.261878 0
M  V30 5439 N 517.335 0.585699 1.46312 0
M  V30 5440 C 518.751 0.247607 1.57668 0
M  V30 5441 C 518.951 -1.25007 1.58037 0
M  V30 5442 O 518.007 -2.03196 1.49893 0
M  V30 5443 C 519.32 0.899456 2.86933 0
M  V30 5444 C 520.868 0.873326 3.00569 0
M  V30 5445 C 521.343 1.50477 4.32574 0
M  V30 5446 N 522.834 1.46925 4.3928 0
M  V30 5447 C 523.569 1.92719 5.40044 0
M  V30 5448 N 523.065 2.46499 6.47464 0
M  V30 5449 N 524.858 1.83617 5.31264 0
M  V30 5450 H 517.009 1.55841 1.44317 0
M  V30 5451 H 519.272 0.651564 0.688599 0
M  V30 5452 H 518.978 1.95313 2.92482 0
M  V30 5453 H 518.852 0.409476 3.74971 0
M  V30 5454 H 521.239 -0.171736 2.946 0
M  V30 5455 H 521.32 1.40136 2.13999 0
M  V30 5456 H 520.964 2.54905 4.39302 0
M  V30 5457 H 520.894 0.951944 5.17924 0
M  V30 5458 H 523.385 1.07616 3.62253 0
M  V30 5459 H 523.698 2.79291 7.20567 0
M  V30 5460 H 522.043 2.50526 6.48276 0
M  V30 5461 H 525.234 1.41358 4.46246 0
M  V30 5462 H 525.407 2.19622 6.09648 0
M  V30 5463 N 518.813 -1.54241 0.323641 0
M  V30 5464 C 519.743 -2.27289 -0.534993 0
M  V30 5465 C 520.724 -1.28087 -1.11927 0
M  V30 5466 O 521.909 -1.56899 -1.14439 0
M  V30 5467 C 519.039 -3.03075 -1.69596 0
M  V30 5468 C 517.993 -4.09614 -1.24098 0
M  V30 5469 C 517.319 -4.73242 -2.4889 0
M  V30 5470 C 518.619 -5.21087 -0.355789 0
M  V30 5471 H 520.313 -2.99308 0.0743257 0
M  V30 5472 H 517.859 -1.43952 0.0371874 0
M  V30 5473 H 519.812 -3.52907 -2.30293 0
M  V30 5474 H 518.536 -2.28673 -2.33187 0
M  V30 5475 H 517.195 -3.60666 -0.656945 0
M  V30 5476 H 516.843 -3.95455 -3.10845 0
M  V30 5477 H 516.543 -5.45209 -2.19138 0
M  V30 5478 H 518.067 -5.25848 -3.10348 0
M  V30 5479 H 519.481 -5.66675 -0.869042 0
M  V30 5480 H 517.878 -5.9991 -0.151045 0
M  V30 5481 H 518.948 -4.81005 0.613339 0
M  V30 5482 N 520.291 -0.0518155 -1.57515 0
M  V30 5483 C 521.516 0.634896 -1.97443 0
M  V30 5484 C 521.941 1.63546 -0.929207 0
M  V30 5485 O 521.299 1.80981 0.107484 0
M  V30 5486 C 521.347 1.29765 -3.36442 0
M  V30 5487 O 520.451 2.41333 -3.34413 0
M  V30 5488 H 519.792 0.164994 -0.643174 0
M  V30 5489 H 522.322 -0.120407 -2.04245 0
M  V30 5490 H 522.332 1.64918 -3.73184 0
M  V30 5491 H 521.007 0.564361 -4.12053 0
M  V30 5492 H 519.584 2.08122 -3.09418 0
M  V30 5493 N 521.769 1.56035 0.221574 0
M  V30 5494 C 522.702 1.87427 1.30178 0
M  V30 5495 C 523.68 0.731658 1.45209 0
M  V30 5496 O 524.864 0.980016 1.61022 0
M  V30 5497 C 521.991 2.08127 2.67209 0
M  V30 5498 C 521.037 3.30813 2.69194 0
M  V30 5499 S 521.87 4.86738 2.23263 0
M  V30 5500 C 523.026 5.10474 3.62171 0
M  V30 5501 H 523.259 2.78756 1.03355 0
M  V30 5502 H 520.792 1.48469 0.423813 0
M  V30 5503 H 522.75 2.20736 3.46101 0
M  V30 5504 H 521.411 1.17595 2.91256 0
M  V30 5505 H 520.604 3.42341 3.6989 0
M  V30 5506 H 520.206 3.1706 1.98366 0
M  V30 5507 H 522.498 4.9937 4.5786 0
M  V30 5508 H 523.441 6.12359 3.55558 0
M  V30 5509 H 523.849 4.38208 3.55857 0
M  V30 5510 N 523.247 -0.488276 1.49845 0
M  V30 5511 C 524.194 -1.58836 1.67451 0
M  V30 5512 C 525.164 -1.57886 0.515857 0
M  V30 5513 O 526.349 -1.75679 0.744403 0
M  V30 5514 C 523.489 -2.96915 1.75885 0
M  V30 5515 C 522.602 -3.07784 3.03138 0
M  V30 5516 C 521.737 -4.36673 3.02473 0
M  V30 5517 C 520.776 -4.41222 4.24252 0
M  V30 5518 N 519.913 -5.61557 4.21424 0
M  V30 5519 H 524.753 -1.43131 2.61376 0
M  V30 5520 H 522.29 -0.696186 1.29583 0
M  V30 5521 H 524.248 -3.76965 1.78755 0
M  V30 5522 H 522.878 -3.11295 0.85414 0
M  V30 5523 H 521.93 -2.20717 3.09819 0
M  V30 5524 H 523.242 -3.07005 3.93128 0
M  V30 5525 H 522.396 -5.25055 3.03977 0
M  V30 5526 H 521.135 -4.40037 2.10283 0
M  V30 5527 H 520.14 -3.5124 4.22978 0
M  V30 5528 H 521.365 -4.39564 5.17649 0
M  V30 5529 H 519.311 -5.65738 3.32078 0
M  V30 5530 H 519.228 -5.62447 5.05163 0
M  V30 5531 H 520.496 -6.52111 4.2705 0
M  V30 5532 N 524.725 -1.39134 -0.740242 0
M  V30 5533 C 525.657 -1.33332 -1.86428 0
M  V30 5534 C 526.67 -0.243042 -1.60976 0
M  V30 5535 O 527.859 -0.501608 -1.71307 0
M  V30 5536 C 524.959 -1.04626 -3.22346 0
M  V30 5537 C 524.132 -2.24826 -3.75196 0
M  V30 5538 C 523.191 -1.92659 -4.89662 0
M  V30 5539 O 522.217 -2.6529 -5.03597 0
M  V30 5540 N 523.419 -0.889575 -5.73643 0
M  V30 5541 H 526.184 -2.30196 -1.91911 0
M  V30 5542 H 523.745 -1.33168 -0.920756 0
M  V30 5543 H 525.737 -0.811347 -3.96484 0
M  V30 5544 H 524.307 -0.165129 -3.12164 0
M  V30 5545 H 523.527 -2.64301 -2.9247 0
M  V30 5546 H 524.815 -3.05015 -4.07239 0
M  V30 5547 H 524.213 -0.287529 -5.64969 0
M  V30 5548 H 522.77 -0.714557 -6.47871 0
M  V30 5549 N 526.204 0.969867 -1.24223 0
M  V30 5550 C 527.154 2.04913 -0.999732 0
M  V30 5551 C 528.138 1.60795 0.0580636 0
M  V30 5552 O 529.33 1.76317 -0.155392 0
M  V30 5553 C 526.459 3.37942 -0.604154 0
M  V30 5554 C 525.545 3.88628 -1.69791 0
M  V30 5555 N 525.936 4.12274 -2.93025 0
M  V30 5556 C 524.234 4.17268 -1.57492 0
M  V30 5557 C 524.935 4.53808 -3.63914 0
M  V30 5558 N 523.911 4.58855 -2.91468 0
M  V30 5559 H 527.713 2.21168 -1.93551 0
M  V30 5560 H 525.227 1.15349 -1.14317 0
M  V30 5561 H 527.224 4.14863 -0.411665 0
M  V30 5562 H 525.884 3.23075 0.324465 0
M  V30 5563 H 526.895 3.99789 -3.29225 0
M  V30 5564 H 523.572 4.11346 -0.714175 0
M  V30 5565 H 524.962 4.80534 -4.69614 0
M  V30 5566 N 527.682 1.05563 1.17022 0
M  V30 5567 C 528.612 0.681026 2.23348 0
M  V30 5568 C 529.593 -0.322983 1.67005 0
M  V30 5569 O 530.778 -0.199746 1.9317 0
M  V30 5570 C 527.908 0.0589053 3.4725 0
M  V30 5571 C 526.862 0.988082 4.16438 0
M  V30 5572 C 526.188 0.229646 5.34207 0
M  V30 5573 C 527.488 2.31388 4.68249 0
M  V30 5574 H 529.182 1.56993 2.54938 0
M  V30 5575 H 526.728 0.756302 1.2254 0
M  V30 5576 H 528.681 -0.214982 4.20851 0
M  V30 5577 H 527.405 -0.864968 3.14938 0
M  V30 5578 H 526.064 1.24659 3.44754 0
M  V30 5579 H 525.712 -0.697111 4.98146 0
M  V30 5580 H 525.412 0.848815 5.81437 0
M  V30 5581 H 526.936 -0.0368694 6.10589 0
M  V30 5582 H 528.35 2.09964 5.33468 0
M  V30 5583 H 526.747 2.88736 5.26072 0
M  V30 5584 H 527.817 2.94982 3.84855 0
M  V30 5585 N 529.16 -1.33526 0.837174 0
M  V30 5586 C 530.437 -1.92369 0.354065 0
M  V30 5587 C 530.817 -1.76348 -1.16038 0
M  V30 5588 O 530.165 -1.15083 -1.97403 0
M  V30 5589 C 530.375 -3.39728 0.799101 0
M  V30 5590 C 531.723 -4.16877 0.806139 0
M  V30 5591 O 532.747 -3.48373 0.742597 0
M  V30 5592 O 531.606 -5.39166 0.892345 0
M  V30 5593 H 528.7 -0.820952 0.0998378 0
M  V30 5594 H 531.246 -1.42409 0.922913 0
M  V30 5595 H 530.018 -3.45254 1.84162 0
M  V30 5596 H 529.641 -3.97062 0.206731 0
M  V30 5597 N 530.638 -0.59345 -1.46 0
M  V30 5598 C 531.863 -0.0872365 -2.07216 0
M  V30 5599 C 532.288 1.2131 -1.43755 0
M  V30 5600 O 531.646 1.73528 -0.525152 0
M  V30 5601 C 531.694 0.0538197 -3.6056 0
M  V30 5602 O 530.798 1.10765 -3.97247 0
M  V30 5603 H 530.139 -0.0676598 -0.660544 0
M  V30 5604 H 532.669 -0.819445 -1.87473 0
M  V30 5605 H 532.679 0.256567 -4.07193 0
M  V30 5606 H 531.354 -0.895739 -4.0614 0
M  V30 5607 H 529.931 0.882501 -3.62307 0
M  V30 5608 N 532.116 1.54067 -0.331816 0
M  V30 5609 C 533.046 2.27569 0.522932 0
M  V30 5610 C 534.027 1.28679 1.11247 0
M  V30 5611 O 535.212 1.57504 1.13605 0
M  V30 5612 C 532.342 3.0397 1.67987 0
M  V30 5613 C 531.296 4.10267 1.21924 0
M  V30 5614 C 530.622 4.74555 2.46377 0
M  V30 5615 C 531.922 5.21268 0.32815 0
M  V30 5616 H 533.616 2.99264 -0.0901977 0
M  V30 5617 H 531.162 1.4393 -0.044821 0
M  V30 5618 H 533.115 3.54123 2.28418 0
M  V30 5619 H 531.839 2.29906 2.31971 0
M  V30 5620 H 530.498 3.61009 0.637809 0
M  V30 5621 H 530.146 3.97098 3.08743 0
M  V30 5622 H 529.846 5.46363 2.16243 0
M  V30 5623 H 531.37 5.27487 3.07555 0
M  V30 5624 H 532.784 5.67128 0.838978 0
M  V30 5625 H 531.181 5.99982 0.119228 0
M  V30 5626 H 532.251 4.80673 -0.638839 0
M  V30 5627 N 533.594 0.0601682 1.57485 0
M  V30 5628 C 534.841 -0.611594 1.93043 0
M  V30 5629 C 535.169 -1.70317 0.939274 0
M  V30 5630 O 534.424 -1.95644 -0.046996 0
M  V30 5631 C 534.723 -1.23831 3.35262 0
M  V30 5632 C 534.389 -0.274037 4.50066 0
M  V30 5633 C 533.051 -0.00872394 4.81199 0
M  V30 5634 C 535.403 0.386308 5.19766 0
M  V30 5635 C 532.731 0.924218 5.79375 0
M  V30 5636 C 535.083 1.3075 6.1894 0
M  V30 5637 C 533.747 1.58139 6.48497 0
M  V30 5638 H 533.017 -0.223798 0.706396 0
M  V30 5639 H 535.664 0.128566 1.91068 0
M  V30 5640 H 533.969 -2.05394 3.33647 0
M  V30 5641 H 535.666 -1.76517 3.60059 0
M  V30 5642 H 532.256 -0.491008 4.25778 0
M  V30 5643 H 536.44 0.194436 4.95919 0
M  V30 5644 H 531.696 1.1438 6.00606 0
M  V30 5645 H 535.87 1.82519 6.72056 0
M  V30 5646 H 533.497 2.30593 7.24383 0
M  V30 5647 N 535.072 -1.5615 -0.213296 0
M  V30 5648 C 536.349 -1.70349 -0.961281 0
M  V30 5649 C 536.729 -0.609791 -2.02101 0
M  V30 5650 O 536.077 0.381987 -2.25285 0
M  V30 5651 C 536.287 -3.11982 -1.56424 0
M  V30 5652 C 537.635 -3.71649 -2.05334 0
M  V30 5653 O 538.659 -3.14995 -1.66302 0
M  V30 5654 O 537.518 -4.71038 -2.77102 0
M  V30 5655 H 534.612 -0.694121 -0.449582 0
M  V30 5656 H 537.158 -1.68464 -0.204426 0
M  V30 5657 H 535.93 -3.83046 -0.799457 0
M  V30 5658 H 535.553 -3.18019 -2.38641 0
M  V30 5659 N 536.55 0.480323 -1.50102 0
M  V30 5660 C 537.498 1.60024 -1.68805 0
M  V30 5661 C 538.492 1.60089 -0.553888 0
M  V30 5662 O 539.698 1.64349 -0.734127 0
M  V30 5663 H 536.073 0.530841 -0.532646 0
M  V30 5664 H 538.044 1.41408 -2.62767 0
M  V30 5665 C 536.793 2.98029 -1.79092 0
M  V30 5666 H 536.116 2.98694 -2.65748 0
M  V30 5667 H 537.556 3.75871 -1.96206 0
M  V30 5668 C 536.015 3.32538 -0.540388 0
M  V30 5669 O 536.545 4.00386 0.324637 0
M  V30 5670 N 534.751 2.87873 -0.397154 0
M  V30 5671 H 534.298 2.32834 -1.1021 0
M  V30 5672 H 534.256 3.11328 0.438425 0
M  V30 5673 N 538.028 1.39524 0.732853 0
M  V30 5674 C 538.978 1.34905 1.83806 0
M  V30 5675 C 539.962 0.229546 1.59254 0
M  V30 5676 O 541.154 0.467255 1.70721 0
M  V30 5677 C 538.283 1.19699 3.21756 0
M  V30 5678 C 537.369 2.36359 3.5213 0
M  V30 5679 N 537.76 3.61834 3.53426 0
M  V30 5680 C 536.058 2.29363 3.82503 0
M  V30 5681 C 536.759 4.38992 3.81655 0
M  V30 5682 N 535.735 3.68606 3.99538 0
M  V30 5683 H 539.537 2.29882 1.83116 0
M  V30 5684 H 537.051 1.33051 0.931194 0
M  V30 5685 H 539.048 1.14472 4.00876 0
M  V30 5686 H 537.708 0.256739 3.23683 0
M  V30 5687 H 538.719 3.95228 3.34686 0
M  V30 5688 H 535.396 1.43612 3.92023 0
M  V30 5689 H 536.786 5.47763 3.89108 0
M  V30 5690 N 539.506 -0.963266 1.24736 0
M  V30 5691 C 540.731 -1.74699 1.11781 0
M  V30 5692 C 541.156 -1.85267 -0.325258 0
M  V30 5693 O 540.514 -1.32681 -1.23553 0
M  V30 5694 C 540.562 -3.14322 1.76731 0
M  V30 5695 O 539.666 -3.99043 1.04109 0
M  V30 5696 H 539.007 -0.53684 0.390767 0
M  V30 5697 H 541.537 -1.20801 1.65131 0
M  V30 5698 H 541.547 -3.64824 1.82668 0
M  V30 5699 H 540.222 -3.05946 2.81726 0
M  V30 5700 H 538.799 -3.5752 1.05991 0
M  V30 5701 N 540.985 -1.06182 -1.16461 0
M  V30 5702 C 542.231 -0.788825 -1.87481 0
M  V30 5703 C 542.586 0.677298 -1.80085 0
M  V30 5704 O 541.879 1.48976 -1.20486 0
M  V30 5705 C 542.073 -1.21633 -3.36066 0
M  V30 5706 C 541.902 -2.72247 -3.57927 0
M  V30 5707 C 540.672 -3.39696 -3.74079 0
M  V30 5708 C 542.87 -3.70461 -3.56739 0
M  V30 5709 N 540.852 -4.79072 -3.83879 0
M  V30 5710 C 542.223 -4.95616 -3.72511 0
M  V30 5711 C 544.278 -3.63788 -3.39945 0
M  V30 5712 C 542.981 -6.14895 -3.73225 0
M  V30 5713 C 545.007 -4.82517 -3.41953 0
M  V30 5714 C 544.369 -6.065 -3.58242 0
M  V30 5715 H 540.468 -0.341034 -0.703719 0
M  V30 5716 H 543.052 -1.35575 -1.39741 0
M  V30 5717 H 541.223 -0.67725 -3.8245 0
M  V30 5718 H 542.955 -0.892119 -3.94745 0
M  V30 5719 H 539.71 -2.90097 -3.74354 0
M  V30 5720 H 540.134 -5.51573 -3.92551 0
M  V30 5721 H 544.776 -2.68888 -3.26281 0
M  V30 5722 H 542.494 -7.10129 -3.85672 0
M  V30 5723 H 546.08 -4.79017 -3.30203 0
M  V30 5724 H 544.96 -6.96833 -3.59712 0
M  V30 5725 N 542.463 1.3308 -0.844243 0
M  V30 5726 C 543.426 2.27403 -0.286485 0
M  V30 5727 C 544.426 1.51179 0.547872 0
M  V30 5728 O 545.616 1.70421 0.360886 0
M  V30 5729 C 542.748 3.35653 0.595813 0
M  V30 5730 H 543.941 2.78248 -1.11885 0
M  V30 5731 H 541.494 1.43574 -0.617749 0
M  V30 5732 H 542.229 2.90058 1.4504 0
M  V30 5733 H 542.014 3.921 -0.00125994 0
M  V30 5734 H 543.504 4.05958 0.979168 0
M  V30 5735 N 543.941 0.601185 1.45683 0
M  V30 5736 C 544.871 -0.108824 2.33246 0
M  V30 5737 C 545.852 -0.865223 1.46451 0
M  V30 5738 O 547.037 -0.83704 1.75235 0
M  V30 5739 C 544.167 -1.11101 3.2905 0
M  V30 5740 C 543.121 -0.468244 4.25431 0
M  V30 5741 C 542.447 -1.57822 5.10878 0
M  V30 5742 C 543.747 0.606469 5.18767 0
M  V30 5743 H 545.441 0.622306 2.92861 0
M  V30 5744 H 542.987 0.300714 1.40825 0
M  V30 5745 H 544.94 -1.61622 3.89174 0
M  V30 5746 H 543.664 -1.87265 2.67581 0
M  V30 5747 H 542.323 0.0160484 3.66596 0
M  V30 5748 H 541.971 -2.32998 4.45781 0
M  V30 5749 H 541.671 -1.15369 5.76163 0
M  V30 5750 H 543.195 -2.08583 5.73869 0
M  V30 5751 H 544.609 0.185589 5.73 0
M  V30 5752 H 543.006 0.952381 5.92494 0
M  V30 5753 H 544.076 1.48559 4.61582 0
M  V30 5754 N 545.419 -1.53889 0.339982 0
M  V30 5755 C 546.352 -2.21187 -0.561405 0
M  V30 5756 C 547.33 -1.19463 -1.10306 0
M  V30 5757 O 548.514 -1.48268 -1.164 0
M  V30 5758 C 545.641 -2.8865 -1.77198 0
M  V30 5759 C 544.687 -4.04232 -1.3601 0
M  V30 5760 S 545.52 -5.34129 -0.382909 0
M  V30 5761 C 546.676 -6.05094 -1.60039 0
M  V30 5762 H 546.909 -2.97298 0.0102092 0
M  V30 5763 H 544.442 -1.53901 0.124056 0
M  V30 5764 H 546.4 -3.28138 -2.4665 0
M  V30 5765 H 545.061 -2.12311 -2.3148 0
M  V30 5766 H 544.254 -4.50358 -2.2626 0
M  V30 5767 H 543.856 -3.66503 -0.745098 0
M  V30 5768 H 546.148 -6.2827 -2.53541 0
M  V30 5769 H 547.091 -6.98182 -1.18099 0
M  V30 5770 H 547.499 -5.35207 -1.79483 0
M  V30 5771 N 546.897 -0.0685191 -1.57451 0
M  V30 5772 C 548.125 0.610462 -1.97689 0
M  V30 5773 C 548.54 1.63346 -0.946758 0
M  V30 5774 O 547.897 1.82377 0.0669868 0
M  V30 5775 C 547.948 1.28196 -3.38006 0
M  V30 5776 O 547.669 0.299906 -4.37072 0
M  V30 5777 C 549.17 2.04907 -3.931 0
M  V30 5778 H 546.39 0.165689 -0.650222 0
M  V30 5779 H 548.934 -0.139953 -2.04021 0
M  V30 5780 H 547.089 1.98348 -3.32771 0
M  V30 5781 H 547.503 0.78126 -5.18649 0
M  V30 5782 H 548.977 2.47287 -4.93511 0
M  V30 5783 H 549.454 2.9043 -3.29465 0
M  V30 5784 H 550.06 1.39629 -4.01726 0
M  V30 5785 N 548.375 1.56261 0.205012 0
M  V30 5786 C 549.307 1.90266 1.27795 0
M  V30 5787 C 550.32 0.792397 1.42214 0
M  V30 5788 O 551.509 1.07077 1.42817 0
M  V30 5789 C 548.609 2.11074 2.65143 0
M  V30 5790 C 547.782 3.42176 2.7246 0
M  V30 5791 C 546.841 3.52216 3.90936 0
M  V30 5792 O 545.867 4.25119 3.78501 0
M  V30 5793 N 547.069 2.84573 5.05963 0
M  V30 5794 H 549.834 2.82896 0.989434 0
M  V30 5795 H 547.395 1.57008 0.394981 0
M  V30 5796 H 549.387 2.15089 3.4281 0
M  V30 5797 H 547.957 1.2499 2.86524 0
M  V30 5798 H 547.177 3.50116 1.81142 0
M  V30 5799 H 548.465 4.28509 2.74331 0
M  V30 5800 H 547.863 2.25152 5.18963 0
M  V30 5801 H 546.42 2.94228 5.81613 0
M  V30 5802 N 549.853 -0.472356 1.50355 0
M  V30 5803 C 550.801 -1.59126 1.69651 0
M  V30 5804 C 551.795 -1.59793 0.56237 0
M  V30 5805 O 553.001 -1.63957 0.742832 0
M  V30 5806 H 549.376 -0.528008 0.535454 0
M  V30 5807 H 551.347 -1.40013 2.63513 0
M  V30 5808 C 550.096 -2.97075 1.8067 0
M  V30 5809 H 549.419 -2.9728 2.67329 0
M  V30 5810 H 550.859 -3.74825 1.98197 0
M  V30 5811 C 549.318 -3.32247 0.558016 0
M  V30 5812 O 549.848 -4.00553 -0.303399 0
M  V30 5813 N 548.054 -2.87659 0.412415 0
M  V30 5814 H 547.601 -2.32246 1.11443 0
M  V30 5815 H 547.559 -3.11556 -0.421908 0
M  V30 5816 N 551.331 -1.39911 -0.725443 0
M  V30 5817 C 552.556 -1.41137 -1.5197 0
M  V30 5818 C 552.981 -0.010262 -1.88097 0
M  V30 5819 O 552.339 0.979184 -1.52583 0
M  V30 5820 C 552.387 -2.2994 -2.77777 0
M  V30 5821 O 551.491 -1.73586 -3.74088 0
M  V30 5822 H 550.832 -0.480219 -0.458569 0
M  V30 5823 H 553.362 -1.84023 -0.894249 0
M  V30 5824 H 553.372 -2.44785 -3.26411 0
M  V30 5825 H 552.047 -3.31759 -2.50816 0
M  V30 5826 H 550.624 -1.68035 -3.32894 0
M  V30 5827 N 552.809 0.956637 -1.25245 0
M  V30 5828 C 554.034 1.74104 -1.12706 0
M  V30 5829 C 554.459 1.85436 0.315429 0
M  V30 5830 O 553.817 1.33334 1.22848 0
M  V30 5831 C 553.865 3.1338 -1.78396 0
M  V30 5832 O 552.969 3.98485 -1.06224 0
M  V30 5833 H 552.31 0.53476 -0.393609 0
M  V30 5834 H 554.84 1.19924 -1.65769 0
M  V30 5835 H 554.85 3.6385 -1.846 0
M  V30 5836 H 553.525 3.04448 -2.83345 0
M  V30 5837 H 552.102 3.56952 -1.07886 0
M  V30 5838 N 554.287 1.06798 1.15896 0
M  V30 5839 C 555.698 0.811355 1.68149 0
M  V30 5840 C 556.049 -0.664339 1.8461 0
M  V30 5841 O 555.174 -1.51485 1.54535 0
M  V30 5842 C 555.769 1.46624 3.05429 0
M  V30 5843 C 554.328 1.25726 3.54781 0
M  V30 5844 C 553.475 1.53949 2.3064 0
M  V30 5845 H 556.426 1.23078 1.00187 0
M  V30 5846 H 556.447 0.88437 3.7008 0
M  V30 5847 H 555.959 2.54025 2.93416 0
M  V30 5848 H 554.06 0.20322 3.72045 0
M  V30 5849 H 554.173 1.97354 4.36564 0
M  V30 5850 H 552.537 0.96025 2.35905 0
M  V30 5851 H 553.32 2.6252 2.2122 0
M  V30 5852 N 555.766 -1.3263 0.851289 0
M  V30 5853 C 557.177 -1.79653 0.5081 0
M  V30 5854 C 557.528 -1.70327 -0.973815 0
M  V30 5855 O 556.653 -1.25986 -1.75944 0
M  V30 5856 C 557.248 -3.26196 0.915515 0
M  V30 5857 C 555.807 -3.71187 0.624277 0
M  V30 5858 C 554.954 -2.53804 1.11709 0
M  V30 5859 H 557.905 -1.19976 1.03882 0
M  V30 5860 H 557.926 -3.79801 0.230535 0
M  V30 5861 H 557.438 -3.32952 1.99411 0
M  V30 5862 H 555.539 -3.69948 -0.443737 0
M  V30 5863 H 555.652 -4.64132 1.18821 0
M  V30 5864 H 554.016 -2.48964 0.537484 0
M  V30 5865 H 554.799 -2.63315 2.20272 0
M  V30 5866 N 557.244 -0.608902 -1.45362 0
M  V30 5867 C 558.49 -0.113196 -2.03085 0
M  V30 5868 C 558.845 1.24288 -1.46868 0
M  V30 5869 O 558.138 1.80792 -0.634402 0
M  V30 5870 C 558.332 -0.0167296 -3.57396 0
M  V30 5871 C 558.161 -1.36191 -4.28581 0
M  V30 5872 C 556.931 -1.94295 -4.66452 0
M  V30 5873 C 559.129 -2.29097 -4.60455 0
M  V30 5874 N 557.111 -3.2228 -5.22503 0
M  V30 5875 C 558.482 -3.41681 -5.17353 0
M  V30 5876 C 560.537 -2.28453 -4.42395 0
M  V30 5877 C 559.24 -4.53789 -5.58093 0
M  V30 5878 C 561.266 -3.39608 -4.8417 0
M  V30 5879 C 560.628 -4.50915 -5.41161 0
M  V30 5880 H 556.727 -0.0848213 -0.777386 0
M  V30 5881 H 559.311 -0.807541 -1.77163 0
M  V30 5882 H 557.482 0.646839 -3.82976 0
M  V30 5883 H 559.214 0.485757 -4.01774 0
M  V30 5884 H 555.969 -1.47486 -4.5005 0
M  V30 5885 H 556.393 -3.87654 -5.55025 0
M  V30 5886 H 561.035 -1.43658 -3.97646 0
M  V30 5887 H 558.753 -5.39307 -6.01808 0
M  V30 5888 H 562.339 -3.40259 -4.71927 0
M  V30 5889 H 561.219 -5.35505 -5.72891 0
M  V30 5890 N 558.722 1.53707 -0.348139 0
M  V30 5891 C 560.133 1.86213 0.134797 0
M  V30 5892 C 560.484 1.26925 1.49614 0
M  V30 5893 O 559.609 0.584573 2.08355 0
M  V30 5894 C 560.204 3.37866 0.251371 0
M  V30 5895 C 558.763 3.70233 0.678543 0
M  V30 5896 C 557.91 2.76683 -0.184925 0
M  V30 5897 H 560.861 1.48204 -0.567571 0
M  V30 5898 H 560.882 3.64908 1.07806 0
M  V30 5899 H 560.394 3.80988 -0.739581 0
M  V30 5900 H 558.495 3.32659 1.67835 0
M  V30 5901 H 558.608 4.76836 0.465251 0
M  V30 5902 H 556.972 2.52374 0.343465 0
M  V30 5903 H 557.755 3.22635 -1.1731 0
M  V30 5904 N 560.2 0.0768682 1.57412 0
M  V30 5905 C 561.11 -0.903207 2.16516 0
M  V30 5906 C 562.126 -1.32341 1.12968 0
M  V30 5907 O 563.302 -1.39507 1.45258 0
M  V30 5908 C 560.367 -2.1508 2.71922 0
M  V30 5909 C 559.428 -1.78653 3.90361 0
M  V30 5910 C 558.661 -2.97465 4.43114 0
M  V30 5911 O 558.884 -4.11638 3.94854 0
M  V30 5912 O 557.818 -2.76987 5.3438 0
M  V30 5913 H 561.644 -0.430427 3.00634 0
M  V30 5914 H 559.229 -0.146485 1.4868 0
M  V30 5915 H 561.111 -2.8823 3.07411 0
M  V30 5916 H 559.786 -2.61446 1.9086 0
M  V30 5917 H 558.693 -1.0274 3.59716 0
M  V30 5918 H 560.026 -1.37066 4.7273 0
M  V30 5919 N 561.678 -1.56367 -0.196722 0
M  V30 5920 C 562.588 -1.97617 -1.2643 0
M  V30 5921 C 563.604 -0.883598 -1.49895 0
M  V30 5922 O 564.78 -1.18921 -1.62541 0
M  V30 5923 C 561.845 -2.30595 -2.58895 0
M  V30 5924 C 560.906 -3.53551 -2.43516 0
M  V30 5925 C 560.139 -3.84946 -3.69665 0
M  V30 5926 O 560.362 -3.17655 -4.73763 0
M  V30 5927 O 559.296 -4.78379 -3.65291 0
M  V30 5928 H 563.122 -2.88648 -0.944233 0
M  V30 5929 H 560.707 -1.43901 -0.401592 0
M  V30 5930 H 562.589 -2.52889 -3.37083 0
M  V30 5931 H 561.264 -1.42732 -2.90533 0
M  V30 5932 H 560.171 -3.36507 -1.63445 0
M  V30 5933 H 561.504 -4.41875 -2.16812 0
M  V30 5934 N 563.156 0.464375 -1.50603 0
M  V30 5935 C 564.086 1.56944 -1.72889 0
M  V30 5936 C 565.067 1.59979 -0.577997 0
M  V30 5937 O 566.252 1.76138 -0.817855 0
M  V30 5938 C 563.382 2.95225 -1.8292 0
M  V30 5939 C 562.336 3.07056 -2.98162 0
M  V30 5940 C 561.662 4.47051 -2.93343 0
M  V30 5941 C 562.962 2.83648 -4.38567 0
M  V30 5942 H 564.656 1.38547 -2.65415 0
M  V30 5943 H 562.202 0.665082 -1.27721 0
M  V30 5944 H 564.155 3.72467 -1.97095 0
M  V30 5945 H 562.879 3.14793 -0.870209 0
M  V30 5946 H 561.538 2.32248 -2.83648 0
M  V30 5947 H 561.186 4.63547 -1.95276 0
M  V30 5948 H 560.886 4.55902 -3.70712 0
M  V30 5949 H 562.41 5.26304 -3.09575 0
M  V30 5950 H 563.824 3.50636 -4.53572 0
M  V30 5951 H 562.221 3.03937 -5.17438 0
M  V30 5952 H 563.291 1.79451 -4.50472 0
M  V30 5953 N 564.634 1.40294 0.718013 0
M  V30 5954 C 565.911 1.2894 1.47084 0
M  V30 5955 C 566.291 -0.0933625 2.10893 0
M  V30 5956 O 565.639 -1.10598 1.99951 0
M  V30 5957 C 565.849 2.4264 2.50852 0
M  V30 5958 C 567.197 2.8276 3.16752 0
M  V30 5959 O 568.221 2.42215 2.61171 0
M  V30 5960 O 567.08 3.528 4.17366 0
M  V30 5961 H 564.174 0.506236 0.653952 0
M  V30 5962 H 566.72 1.52208 0.750394 0
M  V30 5963 H 565.492 3.35009 2.022 0
M  V30 5964 H 565.115 2.21129 3.30435 0
M  V30 5965 N 566.112 -0.949982 1.2575 0
M  V30 5966 C 567.523 -1.50989 1.09815 0
M  V30 5967 C 567.874 -1.93497 -0.324556 0
M  V30 5968 O 566.999 -1.79068 -1.21506 0
M  V30 5969 C 567.594 -2.74394 1.98729 0
M  V30 5970 C 566.153 -3.26682 1.86965 0
M  V30 5971 C 565.3 -1.99498 1.92603 0
M  V30 5972 H 568.251 -0.766387 1.38968 0
M  V30 5973 H 568.272 -3.48383 1.53001 0
M  V30 5974 H 567.784 -2.43425 3.02268 0
M  V30 5975 H 565.885 -3.62461 0.863279 0
M  V30 5976 H 565.998 -3.94383 2.72027 0
M  V30 5977 H 564.362 -2.15005 1.36546 0
M  V30 5978 H 565.145 -1.70871 2.97755 0
M  V30 5979 N 567.59 -1.07411 -1.15328 0
M  V30 5980 C 568.522 -0.652924 -2.19703 0
M  V30 5981 C 569.535 0.294869 -1.60107 0
M  V30 5982 O 570.724 0.0840932 -1.78302 0
M  V30 5983 C 567.824 0.061434 -3.38844 0
M  V30 5984 C 566.997 -0.902696 -4.27984 0
M  V30 5985 C 566.056 -0.225521 -5.25717 0
M  V30 5986 O 565.082 -0.86676 -5.62562 0
M  V30 5987 N 566.284 1.02858 -5.71315 0
M  V30 5988 H 569.049 -1.55081 -2.56457 0
M  V30 5989 H 566.61 -0.958883 -1.30449 0
M  V30 5990 H 568.602 0.525145 -4.01278 0
M  V30 5991 H 567.172 0.861269 -3.00501 0
M  V30 5992 H 566.392 -1.54551 -3.6264 0
M  V30 5993 H 567.68 -1.55636 -4.84412 0
M  V30 5994 H 567.078 1.56948 -5.43492 0
M  V30 5995 H 565.635 1.43596 -6.35786 0
M  V30 5996 N 569.068 1.32177 -0.85831 0
M  V30 5997 C 570.018 2.26307 -0.277307 0
M  V30 5998 C 571.002 1.50123 0.578946 0
M  V30 5999 O 572.194 1.71754 0.427731 0
M  V30 6000 C 569.323 3.39181 0.530232 0
M  V30 6001 C 568.409 4.22746 -0.338613 0
M  V30 6002 N 568.8 4.85265 -1.4266 0
M  V30 6003 C 567.098 4.45813 -0.129 0
M  V30 6004 C 567.799 5.47634 -1.96142 0
M  V30 6005 N 566.775 5.28794 -1.26007 0
M  V30 6006 H 570.577 2.72173 -1.10902 0
M  V30 6007 H 568.091 1.46308 -0.704816 0
M  V30 6008 H 570.088 4.05628 0.962904 0
M  V30 6009 H 568.748 2.9486 1.35969 0
M  V30 6010 H 569.759 4.85259 -1.80953 0
M  V30 6011 H 566.436 4.12163 0.665451 0
M  V30 6012 H 567.826 6.0735 -2.8736 0
M  V30 6013 N 570.547 0.616602 1.45037 0
M  V30 6014 C 571.477 -0.0840787 2.33349 0
M  V30 6015 C 572.458 -0.849641 1.4736 0
M  V30 6016 O 573.643 -0.818407 1.76113 0
M  V30 6017 C 570.773 -1.07604 3.3021 0
M  V30 6018 C 569.727 -0.423096 4.25904 0
M  V30 6019 C 569.053 -1.52394 5.12523 0
M  V30 6020 C 570.353 0.661457 5.18095 0
M  V30 6021 H 572.047 0.653333 2.92185 0
M  V30 6022 H 569.593 0.315634 1.40498 0
M  V30 6023 H 571.546 -1.57485 3.90866 0
M  V30 6024 H 570.27 -1.84416 2.69552 0
M  V30 6025 H 568.929 0.05493 3.66559 0
M  V30 6026 H 568.577 -2.28257 4.48227 0
M  V30 6027 H 568.277 -1.09251 5.77354 0
M  V30 6028 H 569.801 -2.02485 5.76049 0
M  V30 6029 H 571.215 0.246353 5.7277 0
M  V30 6030 H 569.612 1.01517 5.91451 0
M  V30 6031 H 570.682 1.53446 4.59981 0
M  V30 6032 N 572.025 -1.5352 0.356285 0
M  V30 6033 C 573.271 -2.02104 -0.229271 0
M  V30 6034 C 573.626 -1.23923 -1.47176 0
M  V30 6035 O 572.919 -0.321957 -1.88876 0
M  V30 6036 C 573.113 -3.52607 -0.583369 0
M  V30 6037 C 572.942 -4.4536 0.623253 0
M  V30 6038 C 571.712 -4.92446 1.13248 0
M  V30 6039 C 573.91 -4.92375 1.48563 0
M  V30 6040 N 571.892 -5.69183 2.3001 0
M  V30 6041 C 573.263 -5.67362 2.50001 0
M  V30 6042 C 575.318 -4.74464 1.50959 0
M  V30 6043 C 574.021 -6.26341 3.5368 0
M  V30 6044 C 576.047 -5.34302 2.53526 0
M  V30 6045 C 575.409 -6.09166 3.53688 0
M  V30 6046 H 571.508 -0.780595 -0.0468602 0
M  V30 6047 H 574.092 -1.88204 0.49873 0
M  V30 6048 H 572.263 -3.66686 -1.28046 0
M  V30 6049 H 573.995 -3.87922 -1.15321 0
M  V30 6050 H 570.75 -4.6842 0.698562 0
M  V30 6051 H 571.174 -6.12216 2.88998 0
M  V30 6052 H 575.816 -4.16117 0.748785 0
M  V30 6053 H 573.534 -6.8379 4.30648 0
M  V30 6054 H 577.12 -5.22342 2.56223 0
M  V30 6055 H 576 -6.54644 4.31753 0
M  V30 6056 N 573.503 -0.0852151 -1.57369 0
M  V30 6057 C 574.749 0.575588 -1.95086 0
M  V30 6058 C 575.104 1.66402 -0.96582 0
M  V30 6059 O 574.397 1.91598 0.00978463 0
M  V30 6060 C 574.591 1.18482 -3.3719 0
M  V30 6061 C 574.42 0.156928 -4.49426 0
M  V30 6062 C 573.19 -0.263126 -5.04614 0
M  V30 6063 C 575.388 -0.611068 -5.10657 0
M  V30 6064 N 573.37 -1.28032 -6.00401 0
M  V30 6065 C 574.741 -1.48036 -6.02068 0
M  V30 6066 C 576.796 -0.665669 -4.9343 0
M  V30 6067 C 575.499 -2.39943 -6.781 0
M  V30 6068 C 577.525 -1.5723 -5.70116 0
M  V30 6069 C 576.887 -2.42924 -6.61186 0
M  V30 6070 H 572.986 0.181249 -0.760705 0
M  V30 6071 H 575.57 -0.165484 -1.93995 0
M  V30 6072 H 573.741 1.89575 -3.38992 0
M  V30 6073 H 575.473 1.80718 -3.62109 0
M  V30 6074 H 572.228 0.122664 -4.73441 0
M  V30 6075 H 572.652 -1.78682 -6.52994 0
M  V30 6076 H 577.294 -0.0173214 -4.22796 0
M  V30 6077 H 575.012 -3.05807 -7.48002 0
M  V30 6078 H 578.598 -1.61956 -5.58804 0
M  V30 6079 H 577.478 -3.1194 -7.19488 0
M  V30 6080 N 574.981 1.5647 0.188427 0
M  V30 6081 C 575.891 1.98285 1.2538 0
M  V30 6082 C 576.907 0.891535 1.49424 0
M  V30 6083 O 578.083 1.19782 1.61908 0
M  V30 6084 C 575.148 2.31965 2.57669 0
M  V30 6085 C 574.209 3.54838 2.41638 0
M  V30 6086 C 573.442 3.86901 3.67618 0
M  V30 6087 O 573.665 3.20163 4.72072 0
M  V30 6088 O 572.599 4.80309 3.62749 0
M  V30 6089 H 576.425 2.89145 0.928912 0
M  V30 6090 H 574.01 1.44112 0.393955 0
M  V30 6091 H 575.892 2.54673 3.35737 0
M  V30 6092 H 574.567 1.44271 2.89771 0
M  V30 6093 H 573.474 3.37369 1.61658 0
M  V30 6094 H 574.807 4.43019 2.14465 0
M  V30 6095 N 576.459 -0.456382 1.50847 0
M  V30 6096 C 577.705 -1.20618 1.63777 0
M  V30 6097 C 578.06 -1.8936 0.340677 0
M  V30 6098 O 577.353 -1.79786 -0.662378 0
M  V30 6099 C 577.547 -2.26336 2.76599 0
M  V30 6100 C 577.376 -1.67968 4.17153 0
M  V30 6101 C 576.146 -1.47293 4.83356 0
M  V30 6102 C 578.344 -1.16643 5.00898 0
M  V30 6103 N 576.326 -0.843222 6.08081 0
M  V30 6104 C 577.697 -0.660843 6.16468 0
M  V30 6105 C 579.752 -1.05637 4.86565 0
M  V30 6106 C 578.455 -0.0560365 7.19278 0
M  V30 6107 C 580.481 -0.465485 5.89565 0
M  V30 6108 C 579.843 0.0296516 7.04394 0
M  V30 6109 H 575.942 -0.429725 0.653345 0
M  V30 6110 H 578.526 -0.505784 1.88016 0
M  V30 6111 H 576.697 -2.93785 2.54056 0
M  V30 6112 H 578.429 -2.9334 2.78808 0
M  V30 6113 H 575.184 -1.72934 4.40898 0
M  V30 6114 H 575.608 -0.546357 6.74792 0
M  V30 6115 H 580.25 -1.42508 3.98059 0
M  V30 6116 H 577.968 0.324845 8.07447 0
M  V30 6117 H 581.554 -0.382493 5.80541 0
M  V30 6118 H 580.434 0.479705 7.82731 0
M  V30 6119 N 577.937 -1.40673 -0.710563 0
M  V30 6120 C 579.167 -1.4234 -1.49742 0
M  V30 6121 C 579.575 -0.022821 -1.89186 0
M  V30 6122 O 578.918 0.964773 -1.56326 0
M  V30 6123 C 578.98 -2.25509 -2.79975 0
M  V30 6124 C 578.644 -3.73862 -2.62824 0
M  V30 6125 C 579.641 -4.66379 -2.29752 0
M  V30 6126 C 577.326 -4.17735 -2.78932 0
M  V30 6127 C 579.32 -6.00756 -2.13006 0
M  V30 6128 C 577.007 -5.5218 -2.61802 0
M  V30 6129 C 578.005 -6.43505 -2.28888 0
M  V30 6130 O 577.693 -7.75472 -2.11894 0
M  V30 6131 H 577.425 -0.487311 -0.468513 0
M  V30 6132 H 579.979 -1.8542 -0.883668 0
M  V30 6133 H 578.209 -1.77218 -3.43701 0
M  V30 6134 H 579.898 -2.19058 -3.41714 0
M  V30 6135 H 580.664 -4.33778 -2.16936 0
M  V30 6136 H 576.543 -3.46967 -3.03537 0
M  V30 6137 H 580.087 -6.72003 -1.87237 0
M  V30 6138 H 575.984 -5.84365 -2.74204 0
M  V30 6139 H 576.752 -7.86458 -2.26775 0
M  V30 6140 N 579.415 0.9433 -1.26252 0
M  V30 6141 C 580.365 2.02746 -1.04297 0
M  V30 6142 C 581.349 1.60882 0.0239435 0
M  V30 6143 O 582.541 1.75947 -0.192757 0
M  V30 6144 C 579.67 3.36585 -0.6757 0
M  V30 6145 C 578.756 3.84939 -1.77996 0
M  V30 6146 N 579.147 4.05966 -3.01704 0
M  V30 6147 C 577.445 4.13833 -1.66308 0
M  V30 6148 C 578.146 4.45987 -3.73458 0
M  V30 6149 N 577.122 4.52569 -3.01135 0
M  V30 6150 H 580.924 2.17012 -1.98199 0
M  V30 6151 H 578.438 1.12898 -1.16738 0
M  V30 6152 H 580.435 4.13896 -0.499571 0
M  V30 6153 H 579.095 3.2369 0.255863 0
M  V30 6154 H 580.106 3.92716 -3.37631 0
M  V30 6155 H 576.783 4.09739 -0.801267 0
M  V30 6156 H 578.173 4.70465 -4.79701 0
M  V30 6157 N 580.893 1.08022 1.14757 0
M  V30 6158 C 582.304 0.829144 1.67279 0
M  V30 6159 C 582.655 -0.644721 1.85305 0
M  V30 6160 O 581.78 -1.49838 1.56133 0
M  V30 6161 C 582.375 1.49855 3.03857 0
M  V30 6162 C 580.934 1.29482 3.53428 0
M  V30 6163 C 580.081 1.56386 2.28995 0
M  V30 6164 H 583.032 1.24134 0.988762 0
M  V30 6165 H 583.053 0.923572 3.69121 0
M  V30 6166 H 582.565 2.57123 2.90705 0
M  V30 6167 H 580.666 0.242669 3.71809 0
M  V30 6168 H 580.779 2.01974 4.34446 0
M  V30 6169 H 579.143 0.985217 2.34874 0
M  V30 6170 H 579.926 2.64851 2.18423 0
M  V30 6171 N 582.371 -1.3172 0.865308 0
M  V30 6172 C 583.787 -1.4958 0.556596 0
M  V30 6173 C 583.987 -1.79763 -0.910353 0
M  V30 6174 O 583.043 -1.87351 -1.6928 0
M  V30 6175 C 584.356 -2.63277 1.45279 0
M  V30 6176 C 585.904 -2.77161 1.45433 0
M  V30 6177 C 586.379 -3.93949 2.33598 0
M  V30 6178 N 587.87 -4.01228 2.31453 0
M  V30 6179 C 588.605 -4.90855 2.96393 0
M  V30 6180 N 588.101 -5.85416 3.70486 0
M  V30 6181 N 589.894 -4.84063 2.85726 0
M  V30 6182 H 582.045 -1.10396 1.81456 0
M  V30 6183 H 584.308 -0.54507 0.775631 0
M  V30 6184 H 584.014 -2.47734 2.49641 0
M  V30 6185 H 583.888 -3.59309 1.14792 0
M  V30 6186 H 586.275 -2.9212 0.41831 0
M  V30 6187 H 586.356 -1.8181 1.79941 0
M  V30 6188 H 586 -3.79748 3.37274 0
M  V30 6189 H 585.93 -4.88598 1.96417 0
M  V30 6190 H 588.421 -3.3357 1.77593 0
M  V30 6191 H 588.734 -6.50525 4.17178 0
M  V30 6192 H 587.079 -5.85409 3.74594 0
M  V30 6193 H 590.27 -4.09163 2.27384 0
M  V30 6194 H 590.443 -5.53708 3.36617 0
M  V30 6195 N 583.85 -0.624285 -1.44708 0
M  V30 6196 C 585.096 -0.126051 -2.02107 0
M  V30 6197 C 585.425 1.2496 -1.49048 0
M  V30 6198 O 584.68 1.84163 -0.662005 0
M  V30 6199 C 584.979 -0.0546353 -3.57358 0
M  V30 6200 C 584.644 -1.36815 -4.29642 0
M  V30 6201 C 583.307 -1.72792 -4.49106 0
M  V30 6202 C 585.659 -2.23549 -4.70824 0
M  V30 6203 C 582.986 -2.95222 -5.07012 0
M  V30 6204 C 585.339 -3.45243 -5.30085 0
M  V30 6205 C 584.003 -3.81452 -5.47769 0
M  V30 6206 H 583.273 -0.0461252 -0.739563 0
M  V30 6207 H 585.92 -0.809236 -1.73562 0
M  V30 6208 H 584.225 0.711891 -3.85278 0
M  V30 6209 H 585.922 0.347282 -3.99493 0
M  V30 6210 H 582.512 -1.07817 -4.14817 0
M  V30 6211 H 586.696 -1.9705 -4.55505 0
M  V30 6212 H 581.952 -3.23361 -5.18891 0
M  V30 6213 H 586.125 -4.12689 -5.60946 0
M  V30 6214 H 583.753 -4.76403 -5.92405 0
M  V30 6215 N 585.328 1.53329 -0.364422 0
M  V30 6216 C 586.556 2.05657 0.226424 0
M  V30 6217 C 586.971 1.23801 1.42544 0
M  V30 6218 O 586.328 0.27839 1.80364 0
M  V30 6219 C 586.379 3.56125 0.621056 0
M  V30 6220 O 586.1 4.34879 -0.530304 0
M  V30 6221 C 587.601 4.24706 1.27041 0
M  V30 6222 H 584.821 0.669806 0.0400056 0
M  V30 6223 H 587.365 1.97714 -0.522456 0
M  V30 6224 H 585.52 3.64223 1.31985 0
M  V30 6225 H 585.934 5.24073 -0.211546 0
M  V30 6226 H 587.408 5.3131 1.49711 0
M  V30 6227 H 587.885 3.78354 2.23036 0
M  V30 6228 H 588.491 4.20858 0.613079 0
M  V30 6229 N 586.806 0.0935595 1.57322 0
M  V30 6230 C 588.055 -0.570191 1.93473 0
M  V30 6231 C 588.368 -1.69434 0.977318 0
M  V30 6232 O 589.574 -2.41914 1.23248 0
M  V30 6233 C 588.03 -1.06564 3.43762 0
M  V30 6234 C 587.638 0.0286723 4.47991 0
M  V30 6235 C 589.382 -1.70221 3.88877 0
M  V30 6236 C 587.289 -0.482046 5.89432 0
M  V30 6237 H 586.219 -0.216764 0.72217 0
M  V30 6238 H 588.87 0.169313 1.82717 0
M  V30 6239 H 587.252 -1.85878 3.49664 0
M  V30 6240 H 588.426 0.804106 4.5373 0
M  V30 6241 H 586.741 0.570336 4.12476 0
M  V30 6242 H 589.338 -2.09502 4.91948 0
M  V30 6243 H 589.681 -2.57078 3.27439 0
M  V30 6244 H 590.214 -0.974919 3.85668 0
M  V30 6245 H 586.953 0.349871 6.54566 0
M  V30 6246 H 586.473 -1.22452 5.87167 0
M  V30 6247 H 588.152 -0.951508 6.39965 0
M  V30 6248 N 588.284 -1.56567 -0.180126 0
M  V30 6249 C 589.531 -1.81492 -0.898167 0
M  V30 6250 C 589.859 -0.669225 -1.82624 0
M  V30 6251 O 589.114 0.344096 -1.92651 0
M  V30 6252 C 589.413 -3.1252 -1.73395 0
M  V30 6253 C 589.079 -4.40658 -0.955567 0
M  V30 6254 C 587.741 -4.75465 -0.740707 0
M  V30 6255 C 590.093 -5.19593 -0.408948 0
M  V30 6256 C 587.421 -5.86691 0.0320128 0
M  V30 6257 C 589.773 -6.31627 0.350638 0
M  V30 6258 C 588.437 -6.65007 0.576378 0
M  V30 6259 H 587.707 -0.664125 -0.328662 0
M  V30 6260 H 590.354 -1.908 -0.163616 0
M  V30 6261 H 588.659 -2.98515 -2.53763 0
M  V30 6262 H 590.356 -3.29013 -2.29241 0
M  V30 6263 H 586.946 -4.13352 -1.13306 0
M  V30 6264 H 591.13 -4.93104 -0.562307 0
M  V30 6265 H 586.386 -6.11016 0.216735 0
M  V30 6266 H 590.56 -6.92001 0.781497 0
M  V30 6267 H 588.187 -7.51033 1.17703 0
M  V30 6268 N 589.762 0.448376 -1.51087 0
M  V30 6269 C 591.01 1.19635 -1.62886 0
M  V30 6270 C 591.331 1.91977 -0.342024 0
M  V30 6271 O 590.601 1.85094 0.641636 0
M  V30 6272 H 589.181 0.444598 -0.600285 0
M  V30 6273 H 591.843 0.515138 -1.87969 0
M  V30 6274 H 590.939 1.93194 -2.45117 0
M  V30 6275 N 591.24 1.41047 0.703093 0
M  V30 6276 C 592.468 1.4334 1.49202 0
M  V30 6277 C 592.883 0.0365596 1.88765 0
M  V30 6278 O 592.24 -0.942419 1.56284 0
M  V30 6279 C 592.291 2.33538 2.75939 0
M  V30 6280 O 592.012 3.67786 2.38045 0
M  V30 6281 C 593.513 2.44555 3.6974 0
M  V30 6282 H 590.733 0.488472 0.460039 0
M  V30 6283 H 593.277 1.85245 0.86629 0
M  V30 6284 H 591.432 1.94962 3.34766 0
M  V30 6285 H 591.846 4.15816 3.19683 0
M  V30 6286 H 593.32 3.11849 4.55471 0
M  V30 6287 H 593.797 1.47447 4.1371 0
M  V30 6288 H 594.403 2.83735 3.16819 0
M  V30 6289 N 592.718 -0.936591 1.26751 0
M  V30 6290 C 593.648 -2.05315 1.11212 0
M  V30 6291 C 594.629 -1.70092 0.0160262 0
M  V30 6292 O 595.814 -1.93279 0.188894 0
M  V30 6293 C 592.944 -3.39123 0.749171 0
M  V30 6294 C 591.898 -3.88425 1.79751 0
M  V30 6295 C 591.224 -5.18936 1.28876 0
M  V30 6296 C 592.524 -4.12798 3.19992 0
M  V30 6297 H 594.218 -2.18573 2.04613 0
M  V30 6298 H 591.764 -1.05027 0.985159 0
M  V30 6299 H 593.717 -4.16704 0.627323 0
M  V30 6300 H 592.441 -3.25855 -0.220543 0
M  V30 6301 H 591.1 -3.13028 1.90811 0
M  V30 6302 H 590.748 -5.02051 0.308757 0
M  V30 6303 H 590.448 -5.52892 1.98958 0
M  V30 6304 H 591.972 -5.99096 1.17967 0
M  V30 6305 H 593.386 -4.80977 3.11983 0
M  V30 6306 H 591.783 -4.58044 3.87705 0
M  V30 6307 H 592.853 -3.18412 3.65707 0
M  V30 6308 N 594.196 -1.08629 -1.14182 0
M  V30 6309 C 595.159 -0.722027 -2.1753 0
M  V30 6310 C 596.159 0.244305 -1.58933 0
M  V30 6311 O 597.349 0.0235545 -1.74184 0
M  V30 6312 C 594.481 -0.0663966 -3.40835 0
M  V30 6313 H 595.674 -1.63719 -2.51269 0
M  V30 6314 H 593.227 -0.884442 -1.28869 0
M  V30 6315 H 593.962 0.860389 -3.12678 0
M  V30 6316 H 593.747 -0.761598 -3.84632 0
M  V30 6317 H 595.237 0.173346 -4.1724 0
M  V30 6318 N 595.674 1.31259 -0.872281 0
M  V30 6319 C 596.921 1.96622 -0.484365 0
M  V30 6320 C 597.249 1.68939 0.963841 0
M  V30 6321 O 596.504 0.97974 1.6941 0
M  V30 6322 C 596.803 3.50659 -0.690889 0
M  V30 6323 C 596.469 3.98366 -2.11224 0
M  V30 6324 C 595.131 4.11104 -2.50094 0
M  V30 6325 C 597.483 4.23425 -3.0391 0
M  V30 6326 C 594.811 4.46254 -3.80887 0
M  V30 6327 C 597.163 4.60039 -4.3422 0
M  V30 6328 C 595.827 4.70984 -4.73001 0
M  V30 6329 H 595.097 0.71949 -0.177242 0
M  V30 6330 H 597.744 1.56353 -1.10571 0
M  V30 6331 H 596.049 3.91798 0.0135782 0
M  V30 6332 H 597.746 3.99284 -0.370534 0
M  V30 6333 H 594.336 3.88949 -1.80047 0
M  V30 6334 H 598.52 4.13075 -2.75104 0
M  V30 6335 H 593.776 4.52926 -4.10692 0
M  V30 6336 H 597.95 4.78381 -5.06088 0
M  V30 6337 H 595.577 4.97977 -5.7439 0
M  V30 6338 N 597.152 0.631951 1.44375 0
M  V30 6339 C 598.399 0.136767 2.02038 0
M  V30 6340 C 598.727 -1.24168 1.49709 0
M  V30 6341 O 597.982 -1.83809 0.671763 0
M  V30 6342 C 598.281 0.0735861 3.57324 0
M  V30 6343 C 597.947 1.39092 4.28911 0
M  V30 6344 C 596.609 1.75171 4.48184 0
M  V30 6345 C 598.961 2.26042 4.69632 0
M  V30 6346 C 596.289 2.97907 5.05439 0
M  V30 6347 C 598.641 3.4805 5.28246 0
M  V30 6348 C 597.305 3.84351 5.45738 0
M  V30 6349 H 596.575 0.0500466 0.739308 0
M  V30 6350 H 599.222 0.818429 1.7313 0
M  V30 6351 H 597.527 -0.691449 3.8565 0
M  V30 6352 H 599.224 -0.326091 3.99672 0
M  V30 6353 H 595.814 1.10015 4.1424 0
M  V30 6354 H 599.998 1.99463 4.54454 0
M  V30 6355 H 595.254 3.26108 5.17169 0
M  V30 6356 H 599.428 4.15658 5.5875 0
M  V30 6357 H 597.055 4.79538 5.8987 0
M  V30 6358 N 598.631 -1.53133 0.372548 0
M  V30 6359 C 599.561 -2.28876 -0.462412 0
M  V30 6360 C 600.542 -1.31583 -1.07796 0
M  V30 6361 O 601.727 -1.60461 -1.09389 0
M  V30 6362 C 598.857 -3.08317 -1.59868 0
M  V30 6363 C 597.811 -4.13355 -1.11003 0
M  V30 6364 C 597.137 -4.8092 -2.33708 0
M  V30 6365 C 598.437 -5.21955 -0.18983 0
M  V30 6366 H 600.131 -2.9892 0.169511 0
M  V30 6367 H 597.677 -1.43761 0.0829658 0
M  V30 6368 H 599.63 -3.60055 -2.18949 0
M  V30 6369 H 598.354 -2.35976 -2.25794 0
M  V30 6370 H 597.013 -3.62573 -0.541869 0
M  V30 6371 H 596.661 -4.05144 -2.98106 0
M  V30 6372 H 596.361 -5.51904 -2.01682 0
M  V30 6373 H 597.885 -5.35455 -2.93462 0
M  V30 6374 H 599.299 -5.69153 -0.688319 0
M  V30 6375 H 597.696 -6.00087 0.0398887 0
M  V30 6376 H 598.766 -4.78811 0.766057 0
M  V30 6377 N 600.109 -0.101901 -1.5727 0
M  V30 6378 C 601.355 0.561027 -1.94885 0
M  V30 6379 C 601.688 1.6741 -0.984258 0
M  V30 6380 O 600.963 1.94491 -0.0184767 0
M  V30 6381 C 601.246 1.10982 -3.42571 0
M  V30 6382 C 601.099 0.00133418 -4.498 0
M  V30 6383 C 602.418 2.00608 -3.9172 0
M  V30 6384 H 599.537 0.202467 -0.708644 0
M  V30 6385 H 602.179 -0.173992 -1.89202 0
M  V30 6386 H 600.329 1.73621 -3.47546 0
M  V30 6387 H 602.001 -0.63322 -4.56933 0
M  V30 6388 H 600.244 -0.664143 -4.28686 0
M  V30 6389 H 600.915 0.426253 -5.50352 0
M  V30 6390 H 603.391 1.47864 -3.88941 0
M  V30 6391 H 602.267 2.3593 -4.95609 0
M  V30 6392 H 602.528 2.92608 -3.3141 0
M  V30 6393 N 601.587 1.56661 0.17182 0
M  V30 6394 C 602.52 1.91474 1.24149 0
M  V30 6395 C 603.498 0.777485 1.42807 0
M  V30 6396 O 604.682 1.03075 1.57822 0
M  V30 6397 C 601.809 2.16523 2.60453 0
M  V30 6398 C 600.855 3.39209 2.58533 0
M  V30 6399 S 601.688 4.93594 2.07665 0
M  V30 6400 C 602.844 5.21737 3.45747 0
M  V30 6401 H 603.077 2.81903 0.944346 0
M  V30 6402 H 600.61 1.49743 0.376364 0
M  V30 6403 H 602.568 2.31635 3.38903 0
M  V30 6404 H 601.229 1.26802 2.87368 0
M  V30 6405 H 600.422 3.53935 3.58812 0
M  V30 6406 H 600.024 3.2321 1.88178 0
M  V30 6407 H 602.316 5.13684 4.41741 0
M  V30 6408 H 603.259 6.23361 3.35896 0
M  V30 6409 H 603.667 4.49307 3.41736 0
M  V30 6410 N 603.065 -0.440357 1.51323 0
M  V30 6411 C 604.012 -1.53429 1.72419 0
M  V30 6412 C 604.982 -1.56165 0.565826 0
M  V30 6413 O 606.167 -1.73222 0.799917 0
M  V30 6414 C 603.307 -2.91169 1.85242 0
M  V30 6415 C 602.42 -2.97985 3.12777 0
M  V30 6416 C 601.555 -4.26829 3.16212 0
M  V30 6417 C 600.594 -4.27501 4.38074 0
M  V30 6418 N 599.731 -5.47866 4.39076 0
M  V30 6419 H 604.571 -1.34743 2.65797 0
M  V30 6420 H 602.108 -0.654608 1.31732 0
M  V30 6421 H 604.066 -3.71087 1.90658 0
M  V30 6422 H 602.696 -3.0842 0.952744 0
M  V30 6423 H 601.748 -2.10749 3.16685 0
M  V30 6424 H 603.06 -2.94342 4.02696 0
M  V30 6425 H 602.214 -5.15118 3.20527 0
M  V30 6426 H 600.953 -4.33124 2.24176 0
M  V30 6427 H 599.958 -3.37606 4.33938 0
M  V30 6428 H 601.183 -4.22873 5.31371 0
M  V30 6429 H 599.129 -5.54887 3.49909 0
M  V30 6430 H 599.046 -5.46091 5.22801 0
M  V30 6431 H 600.314 -6.38195 4.4758 0
M  V30 6432 N 604.543 -1.41418 -0.695603 0
M  V30 6433 C 605.79 -1.40774 -1.45564 0
M  V30 6434 C 606.118 -0.0168604 -1.94493 0
M  V30 6435 O 605.373 0.971259 -1.69897 0
M  V30 6436 C 605.672 -2.36112 -2.68302 0
M  V30 6437 C 605.338 -3.82952 -2.38031 0
M  V30 6438 C 604 -4.22954 -2.29486 0
M  V30 6439 C 606.352 -4.75662 -2.13061 0
M  V30 6440 C 603.68 -5.53674 -1.94067 0
M  V30 6441 C 606.032 -6.06702 -1.79151 0
M  V30 6442 C 604.696 -6.45725 -1.69102 0
M  V30 6443 H 603.966 -0.515128 -0.532658 0
M  V30 6444 H 606.613 -1.74216 -0.795047 0
M  V30 6445 H 604.918 -1.95924 -3.39295 0
M  V30 6446 H 606.615 -2.32887 -3.26442 0
M  V30 6447 H 603.205 -3.5127 -2.45576 0
M  V30 6448 H 607.389 -4.45561 -2.18608 0
M  V30 6449 H 602.645 -5.8279 -1.8484 0
M  V30 6450 H 606.819 -6.78041 -1.5885 0
M  V30 6451 H 604.446 -7.46929 -1.41426 0
M  V30 6452 N 606.021 0.929856 -1.27246 0
M  V30 6453 C 607.267 1.6802 -1.14634 0
M  V30 6454 C 607.622 1.89965 0.305151 0
M  V30 6455 O 606.915 1.47737 1.22001 0
M  V30 6456 C 607.109 3.05116 -1.86115 0
M  V30 6457 C 606.938 2.96549 -3.38066 0
M  V30 6458 C 605.708 2.98947 -4.0738 0
M  V30 6459 C 607.906 2.7583 -4.34077 0
M  V30 6460 N 605.888 2.80799 -5.45917 0
M  V30 6461 C 607.259 2.66364 -5.59866 0
M  V30 6462 C 609.314 2.60701 -4.24193 0
M  V30 6463 C 608.017 2.43313 -6.76898 0
M  V30 6464 C 610.043 2.39026 -5.40944 0
M  V30 6465 C 609.405 2.30302 -6.65688 0
M  V30 6466 H 605.504 0.62172 -0.474329 0
M  V30 6467 H 608.088 1.09947 -1.60685 0
M  V30 6468 H 606.259 3.61306 -1.42522 0
M  V30 6469 H 607.991 3.69076 -1.66027 0
M  V30 6470 H 604.746 3.09093 -3.58829 0
M  V30 6471 H 605.17 2.74861 -6.18692 0
M  V30 6472 H 609.812 2.66206 -3.28473 0
M  V30 6473 H 607.53 2.36548 -7.72704 0
M  V30 6474 H 611.116 2.28208 -5.35175 0
M  V30 6475 H 609.996 2.13756 -7.54505 0
M  V30 6476 N 607.499 1.09233 1.13605 0
M  V30 6477 C 608.432 0.6739 2.18023 0
M  V30 6478 C 609.41 -0.318603 1.59448 0
M  V30 6479 O 610.594 -0.220452 1.87206 0
M  V30 6480 C 607.721 -0.00751458 3.38699 0
M  V30 6481 C 606.767 0.946481 4.15865 0
M  V30 6482 S 607.6 2.45753 4.75779 0
M  V30 6483 C 608.756 1.78846 5.99804 0
M  V30 6484 H 608.989 1.55846 2.53178 0
M  V30 6485 H 606.522 0.908118 1.2487 0
M  V30 6486 H 608.48 -0.394368 4.08601 0
M  V30 6487 H 607.141 -0.868693 3.01849 0
M  V30 6488 H 606.334 0.416742 5.02274 0
M  V30 6489 H 605.936 1.27464 3.51609 0
M  V30 6490 H 608.228 1.11135 6.68323 0
M  V30 6491 H 609.171 2.63163 6.57382 0
M  V30 6492 H 609.579 1.25823 5.50299 0
M  V30 6493 N 608.977 -1.30795 0.87923 0
M  V30 6494 C 609.907 -2.30742 0.357796 0
M  V30 6495 C 610.888 -1.60747 -0.556283 0
M  V30 6496 O 612.073 -1.88393 -0.47135 0
M  V30 6497 C 609.203 -3.44583 -0.433555 0
M  V30 6498 C 608.157 -4.26235 0.388251 0
M  V30 6499 C 607.483 -5.32073 -0.529352 0
M  V30 6500 C 608.783 -4.96303 1.62729 0
M  V30 6501 H 610.477 -2.74605 1.19299 0
M  V30 6502 H 608.023 -1.32017 0.575104 0
M  V30 6503 H 609.976 -4.13563 -0.808934 0
M  V30 6504 H 608.7 -2.99511 -1.30234 0
M  V30 6505 H 607.359 -3.58936 0.745695 0
M  V30 6506 H 607.007 -4.83249 -1.39569 0
M  V30 6507 H 606.707 -5.87598 0.0166741 0
M  V30 6508 H 608.231 -6.0391 -0.901373 0
M  V30 6509 H 609.645 -5.5783 1.32283 0
M  V30 6510 H 608.042 -5.61666 2.11309 0
M  V30 6511 H 609.112 -4.22758 2.37494 0
M  V30 6512 N 610.455 -0.639598 -1.44038 0
M  V30 6513 C 611.704 -0.144885 -2.01179 0
M  V30 6514 C 612.017 1.24372 -1.50967 0
M  V30 6515 O 613.223 1.83291 -2.00292 0
M  V30 6516 C 611.679 -0.208244 -3.59297 0
M  V30 6517 C 611.287 -1.59869 -4.18504 0
M  V30 6518 C 613.031 0.229568 -4.23879 0
M  V30 6519 C 610.938 -1.61671 -5.68873 0
M  V30 6520 H 609.868 -0.0504005 -0.752314 0
M  V30 6521 H 612.519 -0.799639 -1.65161 0
M  V30 6522 H 610.901 0.513767 -3.92653 0
M  V30 6523 H 612.075 -2.34496 -3.96671 0
M  V30 6524 H 610.39 -1.98131 -3.66242 0
M  V30 6525 H 612.987 0.235758 -5.3418 0
M  V30 6526 H 613.33 1.25848 -3.96822 0
M  V30 6527 H 613.863 -0.440233 -3.95357 0
M  V30 6528 H 610.602 -2.62427 -6.00677 0
M  V30 6529 H 610.122 -0.913489 -5.92803 0
M  V30 6530 H 611.801 -1.35439 -6.32665 0
M  V30 6531 N 611.933 1.52934 -0.380664 0
M  V30 6532 C 612.863 2.29118 0.450268 0
M  V30 6533 C 613.844 1.32153 1.07096 0
M  V30 6534 O 615.029 1.61038 1.08537 0
M  V30 6535 C 612.159 3.09161 1.58231 0
M  V30 6536 C 611.113 4.13938 1.0881 0
M  V30 6537 C 610.439 4.82153 2.31155 0
M  V30 6538 C 611.739 5.22048 0.162146 0
M  V30 6539 H 613.433 2.98826 -0.185361 0
M  V30 6540 H 610.979 1.43715 -0.0905886 0
M  V30 6541 H 612.932 3.61211 2.17036 0
M  V30 6542 H 611.656 2.3717 2.2454 0
M  V30 6543 H 610.315 3.62855 0.522633 0
M  V30 6544 H 609.963 4.06719 2.95953 0
M  V30 6545 H 609.663 5.52966 1.98752 0
M  V30 6546 H 611.187 5.37004 2.90618 0
M  V30 6547 H 612.601 5.6951 0.658126 0
M  V30 6548 H 610.998 6.00057 -0.0717122 0
M  V30 6549 H 612.068 4.78398 -0.791438 0
M  V30 6550 N 613.412 0.11024 1.57214 0
M  V30 6551 C 614.375 -0.828808 2.1369 0
M  V30 6552 C 615.375 -1.20059 1.06969 0
M  V30 6553 O 616.565 -1.12754 1.32786 0
M  V30 6554 C 613.697 -2.11959 2.66994 0
M  V30 6555 H 614.89 -0.338146 2.97988 0
M  V30 6556 H 612.443 -0.138913 1.55681 0
M  V30 6557 H 613.178 -2.65476 1.8626 0
M  V30 6558 H 612.963 -1.86258 3.45037 0
M  V30 6559 H 614.453 -2.79105 3.10629 0
M  V30 6560 N 614.89 -1.56749 -0.16351 0
M  V30 6561 C 616.118 -1.86577 -0.894233 0
M  V30 6562 C 616.533 -0.696543 -1.75481 0
M  V30 6563 O 615.89 0.334161 -1.79415 0
M  V30 6564 C 615.941 -3.15508 -1.76456 0
M  V30 6565 O 615.662 -4.27926 -0.938685 0
M  V30 6566 C 617.163 -3.58737 -2.60428 0
M  V30 6567 H 614.383 -0.618829 -0.259405 0
M  V30 6568 H 616.927 -2.03863 -0.161259 0
M  V30 6569 H 615.082 -3.00025 -2.45079 0
M  V30 6570 H 615.496 -5.01546 -1.53465 0
M  V30 6571 H 616.97 -4.51832 -3.17099 0
M  V30 6572 H 617.447 -2.83229 -3.35675 0
M  V30 6573 H 618.053 -3.76858 -1.97125 0
M  V30 6574 N 616.368 0.432326 -1.51554 0
M  V30 6575 C 617.596 1.20364 -1.68286 0
M  V30 6576 C 618.011 1.84888 -0.38233 0
M  V30 6577 O 617.368 1.70924 0.639627 0
M  V30 6578 C 617.419 2.28398 -2.80208 0
M  V30 6579 O 617.14 1.66512 -4.05223 0
M  V30 6580 C 618.641 3.18584 -3.08251 0
M  V30 6581 H 615.861 0.36259 -0.564596 0
M  V30 6582 H 618.405 0.511647 -1.97996 0
M  V30 6583 H 616.56 2.93305 -2.53083 0
M  V30 6584 H 616.974 2.37951 -4.67418 0
M  V30 6585 H 618.448 3.90511 -3.90135 0
M  V30 6586 H 618.925 3.79628 -2.2086 0
M  V30 6587 H 619.531 2.59372 -3.37055 0
M  V30 6588 N 617.846 1.41785 0.688094 0
M  V30 6589 C 619.095 1.4084 1.44385 0
M  V30 6590 C 619.408 0.0234166 1.95586 0
M  V30 6591 O 620.614 -0.108647 2.71283 0
M  V30 6592 C 619.07 2.47675 2.61123 0
M  V30 6593 C 618.678 3.92116 2.16677 0
M  V30 6594 C 620.422 2.55877 3.38714 0
M  V30 6595 C 618.329 4.90487 3.30419 0
M  V30 6596 H 617.259 0.523787 0.542368 0
M  V30 6597 H 619.91 1.6764 0.74627 0
M  V30 6598 H 618.292 2.14018 3.33185 0
M  V30 6599 H 619.466 4.35059 1.51856 0
M  V30 6600 H 617.781 3.87642 1.5206 0
M  V30 6601 H 620.378 3.26553 4.234 0
M  V30 6602 H 620.721 1.59801 3.84408 0
M  V30 6603 H 621.254 2.88662 2.73714 0
M  V30 6604 H 617.993 5.87994 2.89729 0
M  V30 6605 H 617.513 4.52187 3.94065 0
M  V30 6606 H 619.192 5.11591 3.96085 0
M  V30 6607 N 619.324 -0.923095 1.27737 0
M  V30 6608 C 620.735 -1.48626 1.12993 0
M  V30 6609 C 621.086 -1.94142 -0.283439 0
M  V30 6610 O 620.211 -1.81605 -1.17681 0
M  V30 6611 C 620.806 -2.70117 2.04505 0
M  V30 6612 C 619.365 -3.22642 1.93853 0
M  V30 6613 C 618.512 -1.95368 1.96791 0
M  V30 6614 H 621.463 -0.736737 1.40563 0
M  V30 6615 H 621.484 -3.4506 1.60356 0
M  V30 6616 H 620.996 -2.36959 3.07363 0
M  V30 6617 H 619.097 -3.60549 0.939968 0
M  V30 6618 H 619.21 -3.88525 2.80331 0
M  V30 6619 H 617.574 -2.12061 1.41076 0
M  V30 6620 H 618.357 -1.64517 3.01312 0
M  V30 6621 N 620.802 -1.09834 -1.13024 0
M  V30 6622 C 621.735 -0.685453 -2.17662 0
M  V30 6623 C 622.713 0.310142 -1.59615 0
M  V30 6624 O 623.897 0.21052 -1.87321 0
M  V30 6625 C 621.024 -0.0104476 -3.38698 0
M  V30 6626 C 620.07 -0.968522 -4.15358 0
M  V30 6627 S 620.903 -2.48272 -4.74469 0
M  V30 6628 C 622.059 -1.82025 -5.98847 0
M  V30 6629 H 622.292 -1.57187 -2.52348 0
M  V30 6630 H 619.825 -0.914728 -1.24387 0
M  V30 6631 H 621.783 0.372694 -4.08805 0
M  V30 6632 H 620.444 0.852673 -3.02305 0
M  V30 6633 H 619.637 -0.443373 -5.02046 0
M  V30 6634 H 619.239 -1.29327 -3.50928 0
M  V30 6635 H 621.531 -1.14678 -6.67724 0
M  V30 6636 H 622.474 -2.66645 -6.55977 0
M  V30 6637 H 622.882 -1.2874 -5.49624 0
M  V30 6638 N 622.28 1.30327 -0.886154 0
M  V30 6639 C 623.691 1.78243 -0.555554 0
M  V30 6640 C 624.042 1.72849 0.928314 0
M  V30 6641 O 623.167 1.30607 1.72542 0
M  V30 6642 C 623.762 3.23654 -1.00168 0
M  V30 6643 C 622.321 3.69401 -0.722471 0
M  V30 6644 C 621.468 2.50753 -1.18399 0
M  V30 6645 H 624.419 1.1718 -1.07026 0
M  V30 6646 H 624.44 3.79056 -0.331152 0
M  V30 6647 H 623.952 3.27548 -2.08169 0
M  V30 6648 H 622.053 3.70995 0.345496 0
M  V30 6649 H 622.166 4.60818 -1.31085 0
M  V30 6650 H 620.53 2.47452 -0.603303 0
M  V30 6651 H 621.313 2.57383 -2.27176 0
M  V30 6652 N 623.758 0.647228 1.43697 0
M  V30 6653 C 624.721 -0.0385101 2.29168 0
M  V30 6654 C 625.721 -0.756487 1.41894 0
M  V30 6655 O 626.911 -0.598641 1.63591 0
M  V30 6656 C 624.043 -1.06524 3.23829 0
M  V30 6657 H 625.236 0.713445 2.9129 0
M  V30 6658 H 622.789 0.408153 1.50877 0
M  V30 6659 H 623.524 -1.84664 2.66589 0
M  V30 6660 H 623.309 -0.554147 3.88164 0
M  V30 6661 H 624.799 -1.54432 3.87996 0
M  V30 6662 N 625.236 -1.5273 0.388769 0
M  V30 6663 C 626.484 -2.01174 -0.193208 0
M  V30 6664 C 626.805 -1.27705 -1.47365 0
M  V30 6665 O 626.075 -0.396966 -1.91836 0
M  V30 6666 H 624.655 -0.743287 -0.0743871 0
M  V30 6667 H 627.317 -1.87826 0.520336 0
M  V30 6668 H 626.413 -3.09477 -0.403803 0
M  V30 6669 N 626.714 -0.118576 -1.57153 0
M  V30 6670 C 627.944 0.546466 -1.99242 0
M  V30 6671 C 628.352 1.60791 -0.997148 0
M  V30 6672 O 627.695 1.83691 0.0181745 0
M  V30 6673 C 627.757 1.23167 -3.37743 0
M  V30 6674 C 627.421 0.318226 -4.55891 0
M  V30 6675 C 628.418 -0.442988 -5.18009 0
M  V30 6676 C 626.103 0.229421 -5.01776 0
M  V30 6677 C 628.097 -1.28074 -6.244 0
M  V30 6678 C 625.784 -0.611966 -6.08028 0
M  V30 6679 C 626.782 -1.36568 -6.69207 0
M  V30 6680 O 626.47 -2.1931 -7.73407 0
M  V30 6681 H 626.202 0.149297 -0.659307 0
M  V30 6682 H 628.756 -0.201603 -2.04408 0
M  V30 6683 H 626.986 2.0268 -3.29329 0
M  V30 6684 H 628.675 1.79358 -3.64123 0
M  V30 6685 H 629.441 -0.38425 -4.83475 0
M  V30 6686 H 625.32 0.805771 -4.53903 0
M  V30 6687 H 628.864 -1.86952 -6.72082 0
M  V30 6688 H 624.761 -0.6721 -6.41991 0
M  V30 6689 H 625.529 -2.12247 -7.90502 0
M  V30 6690 N 628.193 1.56834 0.155195 0
M  V30 6691 C 629.44 1.82898 0.869179 0
M  V30 6692 C 629.768 0.698194 1.81537 0
M  V30 6693 O 629.023 -0.313404 1.93174 0
M  V30 6694 C 629.322 3.15239 1.68402 0
M  V30 6695 C 628.988 4.42123 0.885341 0
M  V30 6696 C 627.65 4.76583 0.664971 0
M  V30 6697 C 630.002 5.20178 0.326234 0
M  V30 6698 C 627.33 5.86566 -0.125346 0
M  V30 6699 C 629.682 6.3099 -0.45108 0
M  V30 6700 C 628.346 6.64006 -0.682102 0
M  V30 6701 H 627.616 0.66927 0.318055 0
M  V30 6702 H 630.263 1.91036 0.133241 0
M  V30 6703 H 628.568 3.02515 2.48982 0
M  V30 6704 H 630.265 3.32618 2.23978 0
M  V30 6705 H 626.855 4.15102 1.06716 0
M  V30 6706 H 631.039 4.93936 0.483787 0
M  V30 6707 H 626.295 6.10594 -0.313915 0
M  V30 6708 H 630.469 6.9067 -0.89149 0
M  V30 6709 H 628.096 7.49065 -1.29636 0
M  V30 6710 N 629.671 -0.424282 1.51781 0
M  V30 6711 C 630.604 -1.53633 1.68737 0
M  V30 6712 C 631.582 -1.53549 0.534915 0
M  V30 6713 O 632.766 -1.72483 0.760391 0
M  V30 6714 C 629.893 -2.92195 1.71288 0
M  V30 6715 C 628.939 -3.10251 2.92654 0
M  V30 6716 S 629.772 -2.85166 4.53256 0
M  V30 6717 C 630.928 -4.25986 4.58571 0
M  V30 6718 H 631.161 -1.39018 2.62795 0
M  V30 6719 H 628.694 -0.614854 1.41629 0
M  V30 6720 H 630.652 -3.72059 1.73443 0
M  V30 6721 H 629.313 -3.04162 0.783847 0
M  V30 6722 H 628.506 -4.1159 2.90877 0
M  V30 6723 H 628.108 -2.38231 2.88308 0
M  V30 6724 H 630.4 -5.19392 4.35015 0
M  V30 6725 H 631.343 -4.32792 5.60444 0
M  V30 6726 H 631.751 -4.1025 3.87757 0
M  V30 6727 N 631.149 -1.42148 -0.680565 0
M  V30 6728 C 632.56 -1.3768 -1.26099 0
M  V30 6729 C 632.911 -0.0672348 -1.96085 0
M  V30 6730 O 632.036 0.834172 -1.99676 0
M  V30 6731 C 632.631 -2.49387 -2.29328 0
M  V30 6732 C 631.19 -2.4827 -2.82911 0
M  V30 6733 C 630.337 -2.2847 -1.57152 0
M  V30 6734 H 633.288 -1.51446 -0.474326 0
M  V30 6735 H 633.309 -2.19307 -3.10941 0
M  V30 6736 H 632.821 -3.44686 -1.78363 0
M  V30 6737 H 630.922 -1.56773 -3.38013 0
M  V30 6738 H 631.035 -3.45109 -3.3232 0
M  V30 6739 H 629.399 -1.76623 -1.83511 0
M  V30 6740 H 630.182 -3.25816 -1.0816 0
M  V30 6741 N 632.627 0.916307 -1.28225 0
M  V30 6742 C 633.876 1.65975 -1.14608 0
M  V30 6743 C 634.189 1.93204 0.305191 0
M  V30 6744 O 635.395 2.65611 0.562432 0
M  V30 6745 C 633.851 2.98989 -2.00333 0
M  V30 6746 C 633.459 2.79417 -3.50186 0
M  V30 6747 C 635.203 3.76856 -1.95397 0
M  V30 6748 C 633.11 4.08056 -4.28071 0
M  V30 6749 H 632.04 0.622587 -0.425324 0
M  V30 6750 H 634.691 1.01705 -1.52736 0
M  V30 6751 H 633.073 3.6438 -1.5506 0
M  V30 6752 H 634.247 2.22723 -4.034 0
M  V30 6753 H 632.562 2.14966 -3.56621 0
M  V30 6754 H 635.159 4.72203 -2.50856 0
M  V30 6755 H 635.502 4.05776 -0.930137 0
M  V30 6756 H 636.035 3.1828 -2.38626 0
M  V30 6757 H 632.774 3.8431 -5.31024 0
M  V30 6758 H 632.294 4.64371 -3.79631 0
M  V30 6759 H 633.973 4.76333 -4.37854 0
M  V30 6760 N 634.105 1.10431 1.1244 0
M  V30 6761 C 635.352 0.846717 1.83948 0
M  V30 6762 C 635.68 -0.627709 1.84093 0
M  V30 6763 O 634.935 -1.47876 1.28184 0
M  V30 6764 C 635.234 1.34022 3.3132 0
M  V30 6765 C 634.9 2.82606 3.51347 0
M  V30 6766 C 633.562 3.23182 3.56521 0
M  V30 6767 C 635.914 3.78356 3.58464 0
M  V30 6768 C 633.242 4.58258 3.66356 0
M  V30 6769 C 635.594 5.13234 3.69829 0
M  V30 6770 C 634.258 5.53384 3.73259 0
M  V30 6771 H 633.528 0.309836 0.673114 0
M  V30 6772 H 636.175 1.38091 1.32677 0
M  V30 6773 H 634.48 0.726047 3.85014 0
M  V30 6774 H 636.177 1.11739 3.85118 0
M  V30 6775 H 632.767 2.50212 3.47983 0
M  V30 6776 H 636.951 3.48115 3.53737 0
M  V30 6777 H 632.207 4.88787 3.67284 0
M  V30 6778 H 636.381 5.87272 3.74279 0
M  V30 6779 H 634.008 6.58045 3.80633 0
M  V30 6780 N 635.583 -1.29855 0.893053 0
M  V30 6781 C 636.832 -1.95104 0.511597 0
M  V30 6782 C 637.145 -1.71226 -0.945567 0
M  V30 6783 O 638.351 -2.30525 -1.43424 0
M  V30 6784 C 636.807 -3.49374 0.864034 0
M  V30 6785 C 636.415 -3.82061 2.33952 0
M  V30 6786 C 638.159 -4.20894 0.552167 0
M  V30 6787 C 636.066 -5.29546 2.63316 0
M  V30 6788 H 634.996 -0.73029 0.187597 0
M  V30 6789 H 637.647 -1.47682 1.08914 0
M  V30 6790 H 636.029 -3.95413 0.215493 0
M  V30 6791 H 637.203 -3.46904 3.03305 0
M  V30 6792 H 635.518 -3.23665 2.61973 0
M  V30 6793 H 638.115 -5.29435 0.748489 0
M  V30 6794 H 638.458 -4.13178 -0.508924 0
M  V30 6795 H 638.991 -3.80564 1.15825 0
M  V30 6796 H 635.73 -5.4232 3.68197 0
M  V30 6797 H 635.25 -5.65974 1.9858 0
M  V30 6798 H 636.929 -5.97068 2.49236 0
M  V30 6799 N 637.061 -0.65484 -1.43351 0
M  V30 6800 C 637.991 0.0221809 -2.33489 0
M  V30 6801 C 638.972 0.810272 -1.49561 0
M  V30 6802 O 640.157 0.771426 -1.78221 0
M  V30 6803 C 637.287 0.988117 -3.32947 0
M  V30 6804 C 636.241 0.310026 -4.26876 0
M  V30 6805 C 635.567 1.38752 -5.16384 0
M  V30 6806 C 636.867 -0.798589 -5.16159 0
M  V30 6807 H 638.561 -0.730571 -2.9035 0
M  V30 6808 H 636.107 -0.352773 -1.39612 0
M  V30 6809 H 638.06 1.47067 -3.94904 0
M  V30 6810 H 636.784 1.77205 -2.74346 0
M  V30 6811 H 635.443 -0.152097 -3.66284 0
M  V30 6812 H 635.091 2.16293 -4.54121 0
M  V30 6813 H 634.791 0.939051 -5.80048 0
M  V30 6814 H 636.315 1.87141 -5.81215 0
M  V30 6815 H 637.729 -0.398126 -5.71916 0
M  V30 6816 H 636.126 -1.17163 -5.88552 0
M  V30 6817 H 637.196 -1.65588 -4.55751 0
M  V30 6818 N 638.539 1.52521 -0.396863 0
M  V30 6819 C 639.787 2.01274 0.182536 0
M  V30 6820 C 640.108 1.28485 1.46685 0
M  V30 6821 O 639.378 0.407134 1.91623 0
M  V30 6822 H 637.958 0.743671 0.0704442 0
M  V30 6823 H 640.62 1.87547 -0.530289 0
M  V30 6824 H 639.716 3.09687 0.387385 0
M  V30 6825 N 640.017 0.126909 1.57088 0
M  V30 6826 C 640.98 -0.806097 2.14557 0
M  V30 6827 C 641.98 -1.18918 1.08236 0
M  V30 6828 O 643.17 -1.11339 1.33975 0
M  V30 6829 C 640.302 -2.09116 2.69227 0
M  V30 6830 H 641.495 -0.306522 2.98329 0
M  V30 6831 H 639.048 -0.122393 1.5582 0
M  V30 6832 H 639.783 -2.63486 1.89065 0
M  V30 6833 H 639.568 -1.82588 3.46993 0
M  V30 6834 H 641.058 -2.75794 3.13572 0
M  V30 6835 N 641.495 -1.56914 -0.146875 0
M  V30 6836 C 642.458 -1.97368 -1.16526 0
M  V30 6837 C 643.458 -0.860223 -1.35856 0
M  V30 6838 O 644.648 -1.12684 -1.32846 0
M  V30 6839 C 641.78 -2.28974 -2.52555 0
M  V30 6840 H 642.973 -2.88523 -0.818209 0
M  V30 6841 H 640.526 -1.5135 -0.390221 0
M  V30 6842 H 641.261 -1.40611 -2.92231 0
M  V30 6843 H 641.046 -3.10157 -2.39886 0
M  V30 6844 H 642.536 -2.61109 -3.25902 0
M  V30 6845 N 642.974 0.416227 -1.52004 0
M  V30 6846 C 644.223 1.16088 -1.64944 0
M  V30 6847 C 644.536 1.91835 -0.381928 0
M  V30 6848 O 645.742 2.6867 -0.391013 0
M  V30 6849 C 644.198 2.1124 -2.91386 0
M  V30 6850 C 643.806 1.41042 -4.25219 0
M  V30 6851 C 645.55 2.86008 -3.13688 0
M  V30 6852 C 643.457 2.34801 -5.42791 0
M  V30 6853 H 642.387 0.437041 -0.61442 0
M  V30 6854 H 645.038 0.425971 -1.78487 0
M  V30 6855 H 643.42 2.88254 -2.71525 0
M  V30 6856 H 644.594 0.694416 -4.55538 0
M  V30 6857 H 642.909 0.78344 -4.08964 0
M  V30 6858 H 645.506 3.56286 -3.98703 0
M  V30 6859 H 645.849 3.48556 -2.27628 0
M  V30 6860 H 646.382 2.16095 -3.33988 0
M  V30 6861 H 643.121 1.7691 -6.31176 0
M  V30 6862 H 642.641 3.04395 -5.16821 0
M  V30 6863 H 644.32 2.9548 -5.75587 0
M  V30 6864 N 644.452 1.42507 0.673017 0
M  V30 6865 C 645.7 1.42789 1.43023 0
M  V30 6866 C 646.021 0.0459738 1.94946 0
M  V30 6867 O 645.291 -0.915765 1.73178 0
M  V30 6868 H 643.871 0.525657 0.530748 0
M  V30 6869 H 646.533 1.77944 0.795113 0
M  V30 6870 H 645.629 2.12872 2.28237 0
M  V30 6871 N 645.93 -0.909495 1.28709 0
M  V30 6872 C 647.346 -1.18862 1.06508 0
M  V30 6873 C 647.546 -2.00604 -0.189864 0
M  V30 6874 O 646.602 -2.36281 -0.890355 0
M  V30 6875 C 647.915 -1.91908 2.31499 0
M  V30 6876 C 649.463 -2.04773 2.36721 0
M  V30 6877 C 649.938 -2.81228 3.6149 0
M  V30 6878 N 651.429 -2.88787 3.62155 0
M  V30 6879 C 652.164 -3.48455 4.55375 0
M  V30 6880 N 651.66 -4.09369 5.58918 0
M  V30 6881 N 653.453 -3.46035 4.42963 0
M  V30 6882 H 645.604 -0.363867 2.0926 0
M  V30 6883 H 647.867 -0.223649 0.921241 0
M  V30 6884 H 647.573 -1.39275 3.22948 0
M  V30 6885 H 647.447 -2.92436 2.38245 0
M  V30 6886 H 649.834 -2.56585 1.45767 0
M  V30 6887 H 649.915 -1.03408 2.33967 0
M  V30 6888 H 649.559 -2.30094 4.5279 0
M  V30 6889 H 649.489 -3.82917 3.61499 0
M  V30 6890 H 651.98 -2.45514 2.87283 0
M  V30 6891 H 652.293 -4.52891 6.26187 0
M  V30 6892 H 650.638 -4.0786 5.62739 0
M  V30 6893 H 653.829 -2.9766 3.6127 0
M  V30 6894 H 654.002 -3.92244 5.15799 0
M  V30 6895 N 647.408 -1.11026 -1.11852 0
M  V30 6896 C 648.338 -0.786812 -2.19844 0
M  V30 6897 C 649.319 0.242935 -1.68356 0
M  V30 6898 O 650.504 0.107355 -1.93903 0
M  V30 6899 C 647.634 -0.224516 -3.46574 0
M  V30 6900 C 646.588 -1.18564 -4.1125 0
M  V30 6901 C 645.914 -0.484261 -5.32503 0
M  V30 6902 C 647.214 -2.53465 -4.56676 0
M  V30 6903 H 648.908 -1.68978 -2.47158 0
M  V30 6904 H 646.454 -0.813906 -1.18792 0
M  V30 6905 H 648.407 0.0139435 -4.21398 0
M  V30 6906 H 647.131 0.713722 -3.18706 0
M  V30 6907 H 645.79 -1.40966 -3.38414 0
M  V30 6908 H 645.438 0.458646 -5.00905 0
M  V30 6909 H 645.138 -1.12526 -5.76725 0
M  V30 6910 H 646.662 -0.254492 -6.10069 0
M  V30 6911 H 648.076 -2.35177 -5.22843 0
M  V30 6912 H 646.473 -3.13507 -5.11697 0
M  V30 6913 H 647.543 -3.13008 -3.70343 0
M  V30 6914 N 648.886 1.2938 -0.899927 0
M  V30 6915 C 649.816 2.30144 -0.39446 0
M  V30 6916 C 650.797 1.61611 0.530639 0
M  V30 6917 O 651.982 1.89119 0.441319 0
M  V30 6918 C 649.112 3.45229 0.37868 0
M  V30 6919 C 648.066 4.25564 -0.456012 0
M  V30 6920 C 647.392 5.32848 0.444637 0
M  V30 6921 C 648.692 4.93651 -1.70605 0
M  V30 6922 H 650.386 2.72673 -1.23653 0
M  V30 6923 H 647.932 1.31086 -0.596034 0
M  V30 6924 H 649.885 4.14797 0.743037 0
M  V30 6925 H 648.609 3.01545 1.25453 0
M  V30 6926 H 647.268 3.57704 -0.802704 0
M  V30 6927 H 646.916 4.85408 1.31863 0
M  V30 6928 H 646.616 5.87497 -0.110154 0
M  V30 6929 H 648.14 6.05268 0.805182 0
M  V30 6930 H 649.554 5.55655 -1.41141 0
M  V30 6931 H 647.951 5.58233 -2.20217 0
M  V30 6932 H 649.021 4.18926 -2.4419 0
M  V30 6933 N 650.364 0.662433 1.43002 0
M  V30 6934 C 651.612 0.179237 2.01304 0
M  V30 6935 C 651.933 -1.21428 1.52579 0
M  V30 6936 O 651.203 -1.81294 0.742252 0
M  V30 6937 H 649.783 0.0632725 0.744316 0
M  V30 6938 H 652.445 0.856169 1.75088 0
M  V30 6939 H 651.541 0.170957 3.11631 0
M  V30 6940 N 651.842 -1.52309 0.404946 0
M  V30 6941 C 652.752 -2.30634 -0.429555 0
M  V30 6942 C 653.768 -1.38187 -1.05737 0
M  V30 6943 O 654.944 -1.71261 -1.05979 0
M  V30 6944 C 652.009 -3.10947 -1.53339 0
M  V30 6945 C 651.07 -4.19126 -0.929065 0
M  V30 6946 C 650.303 -4.95601 -1.9803 0
M  V30 6947 O 650.526 -4.72331 -3.1978 0
M  V30 6948 O 649.46 -5.80551 -1.58886 0
M  V30 6949 H 653.286 -3.0298 0.208963 0
M  V30 6950 H 650.871 -1.4845 0.168255 0
M  V30 6951 H 652.753 -3.60974 -2.1743 0
M  V30 6952 H 651.428 -2.41399 -2.15658 0
M  V30 6953 H 650.335 -3.73257 -0.250982 0
M  V30 6954 H 651.668 -4.90955 -0.349855 0
M  V30 6955 N 653.32 -0.135238 -1.57019 0
M  V30 6956 C 654.283 0.794707 -2.14981 0
M  V30 6957 C 655.283 1.18342 -1.08866 0
M  V30 6958 O 656.473 1.10627 -1.34563 0
M  V30 6959 C 653.605 2.07685 -2.70333 0
M  V30 6960 H 654.798 0.290696 -2.98488 0
M  V30 6961 H 652.351 0.114128 -1.55883 0
M  V30 6962 H 653.086 2.6248 -1.9046 0
M  V30 6963 H 652.871 1.80745 -3.47957 0
M  V30 6964 H 654.361 2.74127 -3.1503 0
M  V30 6965 N 654.798 1.5699 0.138552 0
M  V30 6966 C 655.728 2.01933 1.17241 0
M  V30 6967 C 656.709 0.90033 1.44319 0
M  V30 6968 O 657.894 1.16872 1.55095 0
M  V30 6969 C 655.024 2.40711 2.50351 0
M  V30 6970 C 653.978 3.55874 2.37776 0
M  V30 6971 C 653.304 3.80491 3.75674 0
M  V30 6972 C 654.604 4.8826 1.85472 0
M  V30 6973 H 656.298 2.88551 0.798672 0
M  V30 6974 H 653.844 1.3882 0.382743 0
M  V30 6975 H 655.797 2.70754 3.22909 0
M  V30 6976 H 654.521 1.5104 2.89576 0
M  V30 6977 H 653.18 3.2601 1.67669 0
M  V30 6978 H 652.828 2.88057 4.12349 0
M  V30 6979 H 652.528 4.57998 3.68119 0
M  V30 6980 H 654.052 4.12967 4.49767 0
M  V30 6981 H 655.466 5.16965 2.4783 0
M  V30 6982 H 653.863 5.69631 1.88787 0
M  V30 6983 H 654.933 4.78071 0.810935 0
M  V30 6984 N 656.276 -0.40816 1.52223 0
M  V30 6985 C 657.239 -1.48 1.7501 0
M  V30 6986 C 658.239 -1.48367 0.619996 0
M  V30 6987 O 659.429 -1.49874 0.887881 0
M  V30 6988 C 656.561 -2.87403 1.83336 0
M  V30 6989 H 657.754 -1.29086 2.70697 0
M  V30 6990 H 655.307 -0.638715 1.42654 0
M  V30 6991 H 656.042 -3.11686 0.895677 0
M  V30 6992 H 655.827 -2.8854 2.65494 0
M  V30 6993 H 657.317 -3.65103 2.02705 0
M  V30 6994 N 657.755 -1.42862 -0.66545 0
M  V30 6995 C 659.001 -1.44043 -1.42757 0
M  V30 6996 C 659.334 -0.0599629 -1.94107 0
M  V30 6997 O 658.609 0.917286 -1.71511 0
M  V30 6998 C 658.892 -2.47266 -2.61786 0
M  V30 6999 C 658.745 -3.94539 -2.16007 0
M  V30 7000 C 660.064 -2.47365 -3.64003 0
M  V30 7001 H 657.183 -0.524506 -0.517748 0
M  V30 7002 H 659.825 -1.74335 -0.755466 0
M  V30 7003 H 657.975 -2.21565 -3.19126 0
M  V30 7004 H 659.647 -4.31254 -1.63762 0
M  V30 7005 H 657.89 -4.07957 -1.47491 0
M  V30 7006 H 658.561 -4.62357 -3.01546 0
M  V30 7007 H 661.037 -2.70243 -3.16399 0
M  V30 7008 H 659.913 -3.21552 -4.44854 0
M  V30 7009 H 660.174 -1.50299 -4.15767 0
M  V30 7010 N 659.233 0.902656 -1.29189 0
M  V30 7011 C 660.196 1.98797 -1.14071 0
M  V30 7012 C 661.196 1.60615 -0.0770549 0
M  V30 7013 O 662.386 1.71165 -0.323753 0
M  V30 7014 C 659.518 3.32688 -0.743739 0
M  V30 7015 H 660.711 2.13637 -2.10473 0
M  V30 7016 H 658.264 1.08678 -1.12334 0
M  V30 7017 H 658.999 3.23549 0.220554 0
M  V30 7018 H 658.784 3.61765 -1.51223 0
M  V30 7019 H 660.274 4.12337 -0.660935 0
M  V30 7020 N 660.711 1.11618 1.11262 0
M  V30 7021 C 661.958 0.86618 1.8304 0
M  V30 7022 C 662.286 -0.608149 1.84748 0
M  V30 7023 O 661.541 -1.46508 1.29745 0
M  V30 7024 C 661.84 1.37529 3.2988 0
M  V30 7025 C 661.506 2.86317 3.4833 0
M  V30 7026 C 660.168 3.26945 3.53073 0
M  V30 7027 C 662.52 3.82136 3.54431 0
M  V30 7028 C 659.848 4.62117 3.61475 0
M  V30 7029 C 662.2 5.17128 3.64365 0
M  V30 7030 C 660.864 5.57312 3.67369 0
M  V30 7031 H 660.134 0.316958 0.66979 0
M  V30 7032 H 662.781 1.3949 1.31205 0
M  V30 7033 H 661.086 0.766842 3.84222 0
M  V30 7034 H 662.783 1.15817 3.83911 0
M  V30 7035 H 659.373 2.53889 3.45309 0
M  V30 7036 H 663.557 3.51847 3.50025 0
M  V30 7037 H 658.813 4.92655 3.62079 0
M  V30 7038 H 662.987 5.91208 3.68029 0
M  V30 7039 H 660.614 6.62045 3.73632 0
M  V30 7040 N 662.189 -1.289 0.906776 0
M  V30 7041 C 663.6 -1.77336 0.58384 0
M  V30 7042 C 663.951 -1.74304 -0.900697 0
M  V30 7043 O 663.076 -1.33335 -1.70443 0
M  V30 7044 C 663.671 -3.22019 1.05304 0
M  V30 7045 C 662.23 -3.68205 0.781148 0
M  V30 7046 C 661.377 -2.48837 1.22373 0
M  V30 7047 H 664.328 -1.15462 1.08877 0
M  V30 7048 H 664.349 -3.78481 0.391414 0
M  V30 7049 H 663.861 -3.24194 2.13353 0
M  V30 7050 H 661.962 -3.71497 -0.28643 0
M  V30 7051 H 662.075 -4.58675 1.384 0
M  V30 7052 H 660.439 -2.46461 0.642594 0
M  V30 7053 H 661.222 -2.53736 2.31242 0
M  V30 7054 N 663.667 -0.670007 -1.42649 0
M  V30 7055 C 664.577 0.0114788 -2.34597 0
M  V30 7056 C 665.593 0.794055 -1.54825 0
M  V30 7057 O 666.769 0.737472 -1.87412 0
M  V30 7058 C 663.834 0.954436 -3.33304 0
M  V30 7059 C 662.895 0.166925 -4.28975 0
M  V30 7060 C 662.128 1.06497 -5.22967 0
M  V30 7061 O 662.351 2.30446 -5.21777 0
M  V30 7062 O 661.285 0.528347 -5.99577 0
M  V30 7063 H 665.111 -0.745794 -2.944 0
M  V30 7064 H 662.696 -0.430228 -1.43071 0
M  V30 7065 H 664.578 1.49589 -3.93956 0
M  V30 7066 H 663.253 1.69164 -2.7598 0
M  V30 7067 H 662.16 -0.418515 -3.71752 0
M  V30 7068 H 663.493 -0.531067 -4.89327 0
M  V30 7069 N 665.145 1.52092 -0.413018 0
M  V30 7070 C 666.393 2.01456 0.161178 0
M  V30 7071 C 666.714 1.30034 1.45314 0
M  V30 7072 O 665.984 0.427435 1.9118 0
M  V30 7073 H 664.564 0.744376 0.0625526 0
M  V30 7074 H 667.226 1.86974 -0.550151 0
M  V30 7075 H 666.322 3.1008 0.354517 0
M  V30 7076 N 666.623 0.143563 1.56945 0
M  V30 7077 C 667.872 -0.50835 1.95189 0
M  V30 7078 C 668.185 -1.66239 1.03073 0
M  V30 7079 O 669.391 -2.3787 1.30882 0
M  V30 7080 C 667.847 -0.955735 3.46978 0
M  V30 7081 C 667.455 0.171183 4.47673 0
M  V30 7082 C 669.199 -1.57763 3.94095 0
M  V30 7083 C 667.106 -0.294279 5.90667 0
M  V30 7084 H 666.036 -0.193679 0.728701 0
M  V30 7085 H 668.687 0.227357 1.82086 0
M  V30 7086 H 667.069 -1.7466 3.55401 0
M  V30 7087 H 668.243 0.948049 4.50942 0
M  V30 7088 H 666.558 0.701273 4.10452 0
M  V30 7089 H 669.155 -1.93745 4.98364 0
M  V30 7090 H 669.498 -2.46531 3.35452 0
M  V30 7091 H 670.031 -0.851728 3.88575 0
M  V30 7092 H 666.77 0.557939 6.53121 0
M  V30 7093 H 666.29 -1.0371 5.90766 0
M  V30 7094 H 667.969 -0.747426 6.42668 0
M  V30 7095 N 668.101 -1.57061 -0.130224 0
M  V30 7096 C 669.347 -1.8453 -0.841216 0
M  V30 7097 C 669.68 -0.727666 -1.80052 0
M  V30 7098 O 668.955 0.267419 -1.92653 0
M  V30 7099 C 669.238 -3.22553 -1.60099 0
M  V30 7100 C 669.091 -4.44901 -0.662048 0
M  V30 7101 C 670.41 -3.58003 -2.55973 0
M  V30 7102 H 667.529 -0.671215 -0.304366 0
M  V30 7103 H 670.171 -1.89705 -0.105821 0
M  V30 7104 H 668.321 -3.18272 -2.22789 0
M  V30 7105 H 669.993 -4.61278 -0.0448559 0
M  V30 7106 H 668.236 -4.33791 0.0272253 0
M  V30 7107 H 668.907 -5.3812 -1.23006 0
M  V30 7108 H 671.383 -3.63002 -2.03393 0
M  V30 7109 H 670.259 -4.55576 -3.06172 0
M  V30 7110 H 670.52 -2.84833 -3.38116 0
M  V30 7111 N 669.579 0.400081 -1.52437 0
M  V30 7112 C 670.807 1.16768 -1.70801 0
M  V30 7113 C 671.222 1.84036 -0.421462 0
M  V30 7114 O 670.579 1.72242 0.603228 0
M  V30 7115 C 670.63 2.22403 -2.8499 0
M  V30 7116 O 670.351 1.57879 -4.08663 0
M  V30 7117 C 671.852 3.11974 -3.1494 0
M  V30 7118 H 669.072 0.350533 -0.57216 0
M  V30 7119 H 671.616 0.469534 -1.99037 0
M  V30 7120 H 669.771 2.87871 -2.59247 0
M  V30 7121 H 670.185 2.27982 -4.7236 0
M  V30 7122 H 671.659 3.82148 -3.9833 0
M  V30 7123 H 672.136 3.74858 -2.28863 0
M  V30 7124 H 672.742 2.52165 -3.42481 0
M  V30 7125 N 671.057 1.43213 0.657864 0
M  V30 7126 C 672.305 1.44298 1.41501 0
M  V30 7127 C 672.626 0.0666478 1.94886 0
M  V30 7128 O 671.896 -0.897345 1.74139 0
M  V30 7129 H 670.476 0.531257 0.525143 0
M  V30 7130 H 673.138 1.78777 0.776195 0
M  V30 7131 H 672.234 2.1528 2.25966 0
M  V30 7132 N 672.536 -0.895792 1.29666 0
M  V30 7133 C 673.784 -1.64339 1.17631 0
M  V30 7134 C 674.105 -1.93099 -0.271643 0
M  V30 7135 O 673.375 -1.55981 -1.18518 0
M  V30 7136 H 671.955 -0.609162 0.432354 0
M  V30 7137 H 674.617 -1.07389 1.62646 0
M  V30 7138 H 673.713 -2.59815 1.72924 0
M  V30 7139 N 674.014 -1.12206 -1.10668 0
M  V30 7140 C 675.26 -0.877172 -1.82848 0
M  V30 7141 C 675.593 0.595571 -1.84842 0
M  V30 7142 O 674.868 1.44013 -1.30731 0
M  V30 7143 C 675.151 -1.44957 -3.29635 0
M  V30 7144 C 675.004 -2.99051 -3.35989 0
M  V30 7145 C 676.323 -1.10714 -4.25946 0
M  V30 7146 H 673.442 -0.320103 -0.663854 0
M  V30 7147 H 676.084 -1.38827 -1.2972 0
M  V30 7148 H 674.234 -1.01488 -3.7501 0
M  V30 7149 H 675.906 -3.51182 -2.99113 0
M  V30 7150 H 674.149 -3.34705 -2.75962 0
M  V30 7151 H 674.82 -3.34194 -4.39339 0
M  V30 7152 H 677.296 -1.48254 -3.88793 0
M  V30 7153 H 676.172 -1.5343 -5.2702 0
M  V30 7154 H 676.433 -0.019 -4.42096 0
M  V30 7155 N 675.492 1.28418 -0.913599 0
M  V30 7156 C 676.72 1.99106 -0.562536 0
M  V30 7157 C 677.135 1.68273 0.856137 0
M  V30 7158 O 676.492 0.935401 1.56705 0
M  V30 7159 C 676.543 3.5338 -0.761903 0
M  V30 7160 O 676.264 3.83127 -2.12475 0
M  V30 7161 C 677.765 4.41328 -0.417651 0
M  V30 7162 H 674.985 0.635798 -0.214481 0
M  V30 7163 H 677.529 1.63618 -1.22676 0
M  V30 7164 H 675.684 3.8713 -0.144676 0
M  V30 7165 H 676.098 4.77763 -2.16431 0
M  V30 7166 H 677.572 5.48642 -0.607919 0
M  V30 7167 H 678.049 4.34422 0.646108 0
M  V30 7168 H 678.655 4.13074 -1.01241 0
M  V30 7169 N 676.97 0.677563 1.42291 0
M  V30 7170 C 677.918 -0.0106755 2.32598 0
M  V30 7171 C 678.912 -0.787643 1.49975 0
M  V30 7172 O 680.118 -0.695295 1.66029 0
M  V30 7173 H 676.493 -0.0222482 0.751671 0
M  V30 7174 H 678.464 0.768312 2.88339 0
M  V30 7175 C 677.213 -0.946142 3.3458 0
M  V30 7176 H 676.536 -0.357701 3.98197 0
M  V30 7177 H 677.976 -1.39634 4.00348 0
M  V30 7178 C 676.435 -2.05383 2.67057 0
M  V30 7179 O 676.965 -3.1406 2.50458 0
M  V30 7180 N 675.171 -1.82635 2.26038 0
M  V30 7181 H 674.718 -0.942534 2.39737 0
M  V30 7182 H 674.676 -2.56937 1.81192 0
M  V30 7183 N 678.448 -1.51871 0.421078 0
M  V30 7184 C 679.859 -1.86644 -0.0457991 0
M  V30 7185 C 680.21 -1.33919 -1.43388 0
M  V30 7186 O 679.335 -0.683316 -2.05328 0
M  V30 7187 C 679.93 -3.38681 -0.0898844 0
M  V30 7188 C 678.489 -3.73049 -0.501127 0
M  V30 7189 C 677.636 -2.75485 0.316723 0
M  V30 7190 H 680.587 -1.45327 0.637635 0
M  V30 7191 H 680.608 -3.69636 -0.902734 0
M  V30 7192 H 680.12 -3.77025 0.920513 0
M  V30 7193 H 678.221 -3.40288 -1.51773 0
M  V30 7194 H 678.334 -4.78512 -0.237217 0
M  V30 7195 H 676.698 -2.53725 -0.222663 0
M  V30 7196 H 677.481 -3.16671 1.32569 0
M  V30 7197 N 679.926 -0.151884 -1.56866 0
M  V30 7198 C 681.175 0.497992 -1.95456 0
M  V30 7199 C 681.488 1.6569 -1.03953 0
M  V30 7200 O 682.694 2.37173 -1.32142 0
M  V30 7201 C 681.15 0.93732 -3.4748 0
M  V30 7202 C 680.758 -0.194921 -4.47576 0
M  V30 7203 C 682.502 1.55671 -3.94926 0
M  V30 7204 C 680.409 0.26295 -5.90815 0
M  V30 7205 H 679.339 0.189811 -0.729717 0
M  V30 7206 H 681.99 -0.237011 -1.81963 0
M  V30 7207 H 680.372 1.72773 -3.56322 0
M  V30 7208 H 681.546 -0.971951 -4.50433 0
M  V30 7209 H 679.861 -0.72303 -4.10075 0
M  V30 7210 H 682.458 1.91099 -4.99385 0
M  V30 7211 H 682.801 2.44748 -3.36755 0
M  V30 7212 H 683.334 0.831109 -3.89021 0
M  V30 7213 H 680.073 -0.592568 -6.52816 0
M  V30 7214 H 679.593 1.00575 -5.91308 0
M  V30 7215 H 681.272 0.713333 -6.43056 0
M  V30 7216 N 681.404 1.57128 0.121893 0
M  V30 7217 C 682.337 1.95327 1.17995 0
M  V30 7218 C 683.315 0.822524 1.40262 0
M  V30 7219 O 684.499 1.08044 1.54463 0
M  V30 7220 C 681.626 2.24699 2.53432 0
M  V30 7221 C 680.672 3.47263 2.4761 0
M  V30 7222 S 681.505 4.99951 1.91857 0
M  V30 7223 C 682.661 5.32473 3.28973 0
M  V30 7224 H 682.894 2.84765 0.854182 0
M  V30 7225 H 680.427 1.50864 0.328534 0
M  V30 7226 H 682.385 2.423 3.31362 0
M  V30 7227 H 681.046 1.3588 2.83188 0
M  V30 7228 H 680.239 3.65171 3.4737 0
M  V30 7229 H 679.841 3.29034 1.778 0
M  V30 7230 H 682.133 5.27478 4.25175 0
M  V30 7231 H 683.076 6.33732 3.15895 0
M  V30 7232 H 683.484 4.59952 3.27268 0
M  V30 7233 N 682.882 -0.391992 1.52647 0
M  V30 7234 C 684.293 -0.970064 1.5952 0
M  V30 7235 C 684.644 -1.91059 0.446207 0
M  V30 7236 O 683.769 -2.12062 -0.431125 0
M  V30 7237 C 684.364 -1.76614 2.89125 0
M  V30 7238 C 682.923 -2.29396 2.9842 0
M  V30 7239 C 682.07 -1.09864 2.54608 0
M  V30 7240 H 685.021 -0.171638 1.57769 0
M  V30 7241 H 685.042 -2.62511 2.75442 0
M  V30 7242 H 684.554 -1.08135 3.72731 0
M  V30 7243 H 682.655 -3.01196 2.19344 0
M  V30 7244 H 682.768 -2.59088 4.03002 0
M  V30 7245 H 681.132 -1.45777 2.08857 0
M  V30 7246 H 681.915 -0.429249 3.40606 0
M  V30 7247 N 684.36 -1.4356 -0.65026 0
M  V30 7248 C 685.608 -1.45046 -1.40734 0
M  V30 7249 C 685.929 -0.0769822 -1.94848 0
M  V30 7250 O 685.199 0.888098 -1.74613 0
M  V30 7251 H 683.779 -0.534034 -0.522318 0
M  V30 7252 H 686.441 -1.79186 -0.766703 0
M  V30 7253 H 685.537 -2.16476 -2.24822 0
M  V30 7254 N 685.838 0.888903 -1.30139 0
M  V30 7255 C 687.086 1.63713 -1.18501 0
M  V30 7256 C 687.407 1.9324 0.261399 0
M  V30 7257 O 686.677 1.56608 1.17689 0
M  V30 7258 H 685.257 0.606861 -0.435579 0
M  V30 7259 H 687.919 1.06525 -1.63213 0
M  V30 7260 H 687.015 2.58894 -1.743 0
M  V30 7261 N 687.317 1.12792 1.10072 0
M  V30 7262 C 688.547 0.907189 1.85617 0
M  V30 7263 C 688.955 -0.547181 1.81115 0
M  V30 7264 O 688.298 -1.39024 1.20075 0
M  V30 7265 C 688.36 1.30872 3.34832 0
M  V30 7266 C 688.024 2.77516 3.6309 0
M  V30 7267 C 689.021 3.75696 3.59373 0
M  V30 7268 C 686.706 3.14513 3.91646 0
M  V30 7269 C 688.7 5.08888 3.83812 0
M  V30 7270 C 686.387 4.47886 4.15742 0
M  V30 7271 C 687.385 5.44882 4.11816 0
M  V30 7272 O 687.073 6.7585 4.35295 0
M  V30 7273 H 686.805 0.323855 0.593375 0
M  V30 7274 H 689.359 1.50262 1.40038 0
M  V30 7275 H 687.589 0.656518 3.81086 0
M  V30 7276 H 689.278 1.06153 3.91773 0
M  V30 7277 H 690.044 3.48458 3.37345 0
M  V30 7278 H 685.923 2.39622 3.93831 0
M  V30 7279 H 689.467 5.84586 3.80663 0
M  V30 7280 H 685.364 4.74851 4.37249 0
M  V30 7281 H 686.132 6.81853 4.52791 0
M  V30 7282 N 688.795 -1.27931 0.920396 0
M  V30 7283 C 689.758 -2.25345 0.41858 0
M  V30 7284 C 690.758 -1.54116 -0.458798 0
M  V30 7285 O 691.948 -1.72235 -0.260912 0
M  V30 7286 C 689.08 -3.38556 -0.399104 0
M  V30 7287 H 690.273 -2.71251 1.27918 0
M  V30 7288 H 687.826 -1.39728 0.700406 0
M  V30 7289 H 688.561 -2.98021 -1.27882 0
M  V30 7290 H 688.346 -3.91426 0.229863 0
M  V30 7291 H 689.836 -4.10976 -0.740817 0
M  V30 7292 N 690.273 -0.685099 -1.4193 0
M  V30 7293 C 691.203 -0.0273506 -2.33484 0
M  V30 7294 C 692.184 0.778366 -1.51246 0
M  V30 7295 O 693.369 0.733449 -1.79817 0
M  V30 7296 C 690.499 0.917272 -3.34968 0
M  V30 7297 C 689.453 0.21941 -4.27437 0
M  V30 7298 C 688.779 1.27768 -5.1921 0
M  V30 7299 C 690.079 -0.907894 -5.14349 0
M  V30 7300 H 691.773 -0.791994 -2.88735 0
M  V30 7301 H 689.319 -0.382308 -1.38832 0
M  V30 7302 H 691.272 1.38657 -3.97935 0
M  V30 7303 H 689.996 1.71346 -2.78043 0
M  V30 7304 H 688.655 -0.229757 -3.65879 0
M  V30 7305 H 688.303 2.06612 -4.58607 0
M  V30 7306 H 688.003 0.815803 -5.81909 0
M  V30 7307 H 689.527 1.7477 -5.85054 0
M  V30 7308 H 690.941 -0.519348 -5.70943 0
M  V30 7309 H 689.338 -1.2962 -5.85934 0
M  V30 7310 H 690.408 -1.75218 -4.52136 0
M  V30 7311 N 691.751 1.51645 -0.429126 0
M  V30 7312 C 692.714 2.26116 0.374726 0
M  V30 7313 C 693.714 1.29242 0.956714 0
M  V30 7314 O 694.904 1.53022 0.832452 0
M  V30 7315 C 692.036 3.04669 1.52937 0
M  V30 7316 H 693.229 2.9861 -0.277818 0
M  V30 7317 H 690.782 1.55236 -0.182097 0
M  V30 7318 H 691.517 2.36571 2.21821 0
M  V30 7319 H 691.302 3.75814 1.11833 0
M  V30 7320 H 692.792 3.61102 2.09751 0
M  V30 7321 N 693.229 0.160201 1.56784 0
M  V30 7322 C 694.477 -0.486625 1.96154 0
M  V30 7323 C 694.798 -1.64525 1.04673 0
M  V30 7324 O 694.068 -1.95586 0.110864 0
M  V30 7325 H 692.648 -0.182764 0.724297 0
M  V30 7326 H 695.31 0.238787 1.93432 0
M  V30 7327 H 694.406 -0.854025 3.00188 0
M  V30 7328 N 694.707 -1.5719 -0.113559 0
M  V30 7329 C 695.67 -1.99796 -1.12314 0
M  V30 7330 C 696.67 -0.888847 -1.34001 0
M  V30 7331 O 697.86 -1.15476 -1.30426 0
M  V30 7332 C 694.992 -2.34279 -2.47641 0
M  V30 7333 H 696.185 -2.90193 -0.756825 0
M  V30 7334 H 693.738 -1.52144 -0.358029 0
M  V30 7335 H 694.473 -1.46778 -2.89183 0
M  V30 7336 H 694.258 -3.15175 -2.33253 0
M  V30 7337 H 695.748 -2.67963 -3.2029 0
M  V30 7338 N 696.185 0.383891 -1.52853 0
M  V30 7339 C 697.148 1.45197 -1.77343 0
M  V30 7340 C 698.148 1.47362 -0.643522 0
M  V30 7341 O 699.338 1.48443 -0.911613 0
M  V30 7342 C 696.47 2.8445 -1.87885 0
M  V30 7343 H 697.663 1.24764 -2.72716 0
M  V30 7344 H 695.216 0.615939 -1.43652 0
M  V30 7345 H 695.951 3.10222 -0.94515 0
M  V30 7346 H 695.736 2.8428 -2.70051 0
M  V30 7347 H 697.226 3.61832 -2.08488 0
M  V30 7348 N 697.663 1.43903 0.642637 0
M  V30 7349 C 698.626 1.49538 1.73698 0
M  V30 7350 C 699.626 0.378776 1.56275 0
M  V30 7351 O 700.816 0.64095 1.6198 0
M  V30 7352 C 697.948 1.35821 3.12675 0
M  V30 7353 H 699.141 2.47008 1.70079 0
M  V30 7354 H 696.694 1.30824 0.85526 0
M  V30 7355 H 697.429 0.393994 3.21898 0
M  V30 7356 H 697.214 2.16776 3.26727 0
M  V30 7357 H 698.704 1.4272 3.92455 0
M  V30 7358 N 699.141 -0.881989 1.30609 0
M  V30 7359 C 700.388 -1.63405 1.19604 0
M  V30 7360 C 700.716 -1.92905 -0.248574 0
M  V30 7361 O 699.971 -1.55062 -1.19391 0
M  V30 7362 C 700.27 -2.97999 1.97311 0
M  V30 7363 C 699.936 -2.88039 3.46907 0
M  V30 7364 C 698.598 -2.85029 3.877 0
M  V30 7365 C 700.95 -2.75948 4.42156 0
M  V30 7366 C 698.278 -2.67772 5.2203 0
M  V30 7367 C 700.63 -2.60228 5.76597 0
M  V30 7368 C 699.294 -2.55595 6.16626 0
M  V30 7369 H 698.564 -0.597941 0.437662 0
M  V30 7370 H 701.211 -1.02524 1.61744 0
M  V30 7371 H 699.516 -3.62847 1.47815 0
M  V30 7372 H 701.213 -3.55156 1.86186 0
M  V30 7373 H 697.803 -2.91192 3.14492 0
M  V30 7374 H 701.987 -2.77337 4.1158 0
M  V30 7375 H 697.243 -2.62601 5.52133 0
M  V30 7376 H 701.417 -2.49847 6.50038 0
M  V30 7377 H 699.044 -2.41981 7.20659 0
M  V30 7378 N 700.619 -1.13374 -1.09472 0
M  V30 7379 C 701.844 -0.918711 -1.85942 0
M  V30 7380 C 702.269 0.527225 -1.8056 0
M  V30 7381 O 701.627 1.37408 -1.18274 0
M  V30 7382 C 701.675 -1.41056 -3.31867 0
M  V30 7383 O 700.779 -0.595496 -4.08078 0
M  V30 7384 H 700.12 -0.329297 -0.576593 0
M  V30 7385 H 702.65 -1.50829 -1.38245 0
M  V30 7386 H 702.66 -1.41398 -3.82715 0
M  V30 7387 H 701.335 -2.46335 -3.35099 0
M  V30 7388 H 699.912 -0.659911 -3.67014 0
M  V30 7389 N 702.098 1.27442 -0.927168 0
M  V30 7390 C 703.346 1.94007 -0.566203 0
M  V30 7391 C 703.667 1.7323 0.895345 0
M  V30 7392 O 702.937 1.07973 1.63459 0
M  V30 7393 H 701.517 0.717917 -0.206409 0
M  V30 7394 H 704.179 1.55161 -1.17945 0
M  V30 7395 H 703.275 3.02401 -0.772028 0
M  V30 7396 N 703.576 0.692616 1.41565 0
M  V30 7397 C 704.539 0.0344174 2.29174 0
M  V30 7398 C 705.539 -0.710961 1.44229 0
M  V30 7399 O 706.729 -0.546293 1.65412 0
M  V30 7400 C 703.861 -0.961682 3.27054 0
M  V30 7401 H 705.054 0.805755 2.88873 0
M  V30 7402 H 702.607 0.455947 1.49502 0
M  V30 7403 H 703.342 -1.76089 2.72329 0
M  V30 7404 H 703.127 -0.430375 3.89731 0
M  V30 7405 H 704.617 -1.4201 3.92712 0
M  V30 7406 N 705.054 -1.51416 0.437162 0
M  V30 7407 C 706.3 -2.02386 -0.129555 0
M  V30 7408 C 706.633 -1.32071 -1.42376 0
M  V30 7409 O 705.908 -0.43559 -1.8956 0
M  V30 7410 C 706.191 -3.5841 -0.348487 0
M  V30 7411 C 706.044 -4.39341 0.964352 0
M  V30 7412 C 707.363 -4.25654 -1.11834 0
M  V30 7413 H 704.482 -0.735587 -0.0456109 0
M  V30 7414 H 707.124 -1.81055 0.576124 0
M  V30 7415 H 705.274 -3.76716 -0.949592 0
M  V30 7416 H 706.946 -4.32685 1.59942 0
M  V30 7417 H 705.189 -4.04432 1.56898 0
M  V30 7418 H 705.86 -5.4667 0.765212 0
M  V30 7419 H 708.336 -4.11617 -0.609165 0
M  V30 7420 H 707.212 -5.34704 -1.24029 0
M  V30 7421 H 707.473 -3.86502 -2.14636 0
M  V30 7422 N 706.532 -0.168513 -1.56696 0
M  V30 7423 C 707.76 0.483503 -2.01171 0
M  V30 7424 C 708.175 1.56994 -1.04872 0
M  V30 7425 O 707.532 1.82434 -0.0491337 0
M  V30 7426 C 707.583 1.0644 -3.45475 0
M  V30 7427 O 707.304 0.0213375 -4.38095 0
M  V30 7428 C 708.805 1.79493 -4.05336 0
M  V30 7429 H 706.025 0.124002 -0.659443 0
M  V30 7430 H 708.569 -0.269419 -2.02717 0
M  V30 7431 H 706.724 1.76784 -3.44712 0
M  V30 7432 H 707.138 0.449837 -5.22567 0
M  V30 7433 H 708.612 2.15401 -5.08238 0
M  V30 7434 H 709.089 2.68889 -3.47269 0
M  V30 7435 H 709.695 1.13798 -4.09793 0
M  V30 7436 N 708.01 1.57248 0.105221 0
M  V30 7437 C 708.96 1.9777 1.1345 0
M  V30 7438 C 709.944 0.854654 1.36325 0
M  V30 7439 O 711.136 1.11844 1.37186 0
M  V30 7440 C 708.265 2.39717 2.45745 0
M  V30 7441 C 707.351 3.58686 2.26286 0
M  V30 7442 N 707.742 4.73942 1.76671 0
M  V30 7443 C 706.04 3.64586 2.56891 0
M  V30 7444 C 706.741 5.55923 1.71245 0
M  V30 7445 N 705.717 4.98803 2.16093 0
M  V30 7446 H 709.519 2.84336 0.743664 0
M  V30 7447 H 707.033 1.59359 0.312787 0
M  V30 7448 H 709.03 2.66971 3.20206 0
M  V30 7449 H 707.69 1.54523 2.85574 0
M  V30 7450 H 708.701 4.9689 1.46016 0
M  V30 7451 H 705.378 2.90031 3.00314 0
M  V30 7452 H 706.768 6.58398 1.34022 0
M  V30 7453 N 709.488 -0.375779 1.53054 0
M  V30 7454 C 710.716 -1.14036 1.72637 0
M  V30 7455 C 711.131 -1.83342 0.450687 0
M  V30 7456 O 710.488 -1.7318 -0.575749 0
M  V30 7457 C 710.539 -2.17841 2.88492 0
M  V30 7458 O 710.26 -1.51358 4.11123 0
M  V30 7459 C 711.761 -3.06924 3.19863 0
M  V30 7460 H 708.981 -0.341386 0.577665 0
M  V30 7461 H 711.525 -0.437809 1.99759 0
M  V30 7462 H 709.68 -2.8371 2.63794 0
M  V30 7463 H 710.094 -2.20439 4.75928 0
M  V30 7464 H 711.568 -3.75763 4.04359 0
M  V30 7465 H 712.045 -3.71169 2.34798 0
M  V30 7466 H 712.651 -2.46684 3.46449 0
M  V30 7467 N 710.966 -1.44241 -0.634997 0
M  V30 7468 C 712.215 -1.46102 -1.39058 0
M  V30 7469 C 712.528 -0.0959909 -1.95364 0
M  V30 7470 O 713.734 0.00788751 -2.71499 0
M  V30 7471 C 712.19 -2.57195 -2.51751 0
M  V30 7472 C 711.798 -3.99888 -2.01974 0
M  V30 7473 C 713.542 -2.68272 -3.28984 0
M  V30 7474 C 711.449 -5.02412 -3.11987 0
M  V30 7475 H 710.379 -0.543556 -0.522554 0
M  V30 7476 H 713.03 -1.70294 -0.683538 0
M  V30 7477 H 711.412 -2.26237 -3.25012 0
M  V30 7478 H 712.586 -4.40396 -1.35604 0
M  V30 7479 H 710.901 -3.93019 -1.37568 0
M  V30 7480 H 713.498 -3.42042 -4.10988 0
M  V30 7481 H 713.841 -1.73957 -3.78212 0
M  V30 7482 H 714.374 -2.98622 -2.62812 0
M  V30 7483 H 711.113 -5.98342 -2.67707 0
M  V30 7484 H 710.633 -4.66501 -3.77011 0
M  V30 7485 H 712.312 -5.25939 -3.76825 0
M  V30 7486 N 712.444 0.87505 -1.31075 0
M  V30 7487 C 713.669 1.66583 -1.23551 0
M  V30 7488 C 714.094 1.87067 0.19686 0
M  V30 7489 O 713.452 1.40877 1.1412 0
M  V30 7490 C 713.5 3.01401 -1.97965 0
M  V30 7491 O 712.604 3.90923 -1.31351 0
M  V30 7492 H 711.945 0.508645 -0.426821 0
M  V30 7493 H 714.475 1.09139 -1.7306 0
M  V30 7494 H 714.485 3.51374 -2.07366 0
M  V30 7495 H 713.16 2.85812 -3.02133 0
M  V30 7496 H 711.737 3.49369 -1.30368 0
M  V30 7497 N 713.922 1.13953 1.08869 0
M  V30 7498 C 715.15 0.92817 1.84912 0
M  V30 7499 C 715.565 -0.523197 1.81406 0
M  V30 7500 O 714.922 -1.36237 1.21432 0
M  V30 7501 C 714.973 1.41509 3.32652 0
M  V30 7502 O 714.694 2.80959 3.36145 0
M  V30 7503 C 716.195 1.243 4.25517 0
M  V30 7504 H 713.415 0.330612 0.583898 0
M  V30 7505 H 715.959 1.51349 1.37527 0
M  V30 7506 H 714.114 0.872648 3.77444 0
M  V30 7507 H 714.528 3.02704 4.28335 0
M  V30 7508 H 716.002 1.63237 5.27312 0
M  V30 7509 H 716.479 0.18532 4.38809 0
M  V30 7510 H 717.085 1.77375 3.86546 0
M  V30 7511 N 715.4 -1.26948 0.933913 0
M  V30 7512 C 716.363 -2.24889 0.442457 0
M  V30 7513 C 717.363 -1.54594 -0.442426 0
M  V30 7514 O 718.553 -1.72502 -0.242629 0
M  V30 7515 C 715.685 -3.3896 -0.363173 0
M  V30 7516 H 716.878 -2.69879 1.30787 0
M  V30 7517 H 714.431 -1.38978 0.715187 0
M  V30 7518 H 715.166 -2.99361 -1.24714 0
M  V30 7519 H 714.951 -3.9116 0.271366 0
M  V30 7520 H 716.441 -4.11739 -0.697186 0
M  V30 7521 N 716.879 -0.700114 -1.41195 0
M  V30 7522 C 717.809 -0.0521132 -2.33442 0
M  V30 7523 C 718.79 0.76228 -1.52063 0
M  V30 7524 O 719.975 0.714336 -1.80585 0
M  V30 7525 C 717.105 0.881693 -3.35922 0
M  V30 7526 C 716.059 0.174062 -4.27646 0
M  V30 7527 C 715.385 1.22254 -5.20536 0
M  V30 7528 C 716.685 -0.962396 -5.13357 0
M  V30 7529 H 718.379 -0.822574 -2.87879 0
M  V30 7530 H 715.925 -0.397011 -1.38419 0
M  V30 7531 H 717.878 1.34429 -3.99383 0
M  V30 7532 H 716.602 1.68387 -2.79845 0
M  V30 7533 H 715.261 -0.268551 -3.65615 0
M  V30 7534 H 714.909 2.01736 -4.60773 0
M  V30 7535 H 714.609 0.754038 -5.82742 0
M  V30 7536 H 716.133 1.68555 -5.86874 0
M  V30 7537 H 717.547 -0.579875 -5.7036 0
M  V30 7538 H 715.944 -1.35828 -5.84526 0
M  V30 7539 H 717.014 -1.80003 -4.50252 0
M  V30 7540 N 718.357 1.51182 -0.445186 0
M  V30 7541 C 719.287 2.30821 0.352686 0
M  V30 7542 C 720.268 1.36576 1.01395 0
M  V30 7543 O 721.453 1.65497 1.01609 0
M  V30 7544 C 718.583 3.15593 1.44976 0
M  V30 7545 C 717.537 4.1818 0.911553 0
M  V30 7546 C 716.863 4.91523 2.10497 0
M  V30 7547 C 718.163 5.22266 -0.059418 0
M  V30 7548 H 719.857 2.97771 -0.311936 0
M  V30 7549 H 717.403 1.43201 -0.151461 0
M  V30 7550 H 719.356 3.70091 2.01521 0
M  V30 7551 H 718.08 2.4648 2.14278 0
M  V30 7552 H 716.739 3.64746 0.368264 0
M  V30 7553 H 716.387 4.18906 2.78437 0
M  V30 7554 H 716.087 5.60898 1.7512 0
M  V30 7555 H 717.611 5.48847 2.6758 0
M  V30 7556 H 719.025 5.71789 0.415985 0
M  V30 7557 H 717.422 5.99213 -0.326152 0
M  V30 7558 H 718.492 4.7461 -0.993631 0
M  V30 7559 N 719.835 0.176821 1.56605 0
M  V30 7560 C 720.798 -0.737429 2.17013 0
M  V30 7561 C 721.798 -1.15414 1.11965 0
M  V30 7562 O 722.988 -1.0702 1.37449 0
M  V30 7563 C 720.12 -2.00445 2.75744 0
M  V30 7564 H 721.313 -0.211455 2.99154 0
M  V30 7565 H 718.866 -0.0727582 1.56131 0
M  V30 7566 H 719.601 -2.57338 1.97352 0
M  V30 7567 H 719.386 -1.71456 3.52626 0
M  V30 7568 H 720.876 -2.65679 3.22187 0
M  V30 7569 N 721.313 -1.57302 -0.09688 0
M  V30 7570 C 722.56 -1.85997 -0.800699 0
M  V30 7571 C 722.888 -0.765089 -1.7882 0
M  V30 7572 O 722.143 0.241492 -1.94204 0
M  V30 7573 C 722.442 -3.21272 -1.56586 0
M  V30 7574 C 722.108 -4.45104 -0.72064 0
M  V30 7575 C 720.77 -4.78723 -0.487632 0
M  V30 7576 C 723.122 -5.2103 -0.132948 0
M  V30 7577 C 720.45 -5.85697 0.34296 0
M  V30 7578 C 722.802 -6.28881 0.684957 0
M  V30 7579 C 721.466 -6.61017 0.928073 0
M  V30 7580 H 720.736 -0.680613 -0.292997 0
M  V30 7581 H 723.383 -1.91399 -0.0622474 0
M  V30 7582 H 721.688 -3.11547 -2.37583 0
M  V30 7583 H 723.385 -3.40702 -2.11478 0
M  V30 7584 H 719.975 -4.18777 -0.912359 0
M  V30 7585 H 724.159 -4.95392 -0.300132 0
M  V30 7586 H 719.415 -6.09008 0.540317 0
M  V30 7587 H 723.589 -6.86886 1.14721 0
M  V30 7588 H 721.216 -7.43738 1.57348 0
M  V30 7589 N 722.791 0.367657 -1.53252 0
M  V30 7590 C 723.701 1.47415 -1.82499 0
M  V30 7591 C 724.717 1.58711 -0.713222 0
M  V30 7592 O 725.893 1.74644 -1.00306 0
M  V30 7593 C 722.958 2.82706 -2.00694 0
M  V30 7594 C 722.019 2.80955 -3.24596 0
M  V30 7595 C 721.252 4.09793 -3.41914 0
M  V30 7596 O 721.475 5.05852 -2.63572 0
M  V30 7597 O 720.409 4.15731 -4.3526 0
M  V30 7598 H 724.235 1.25624 -2.765 0
M  V30 7599 H 721.82 0.557559 -1.38606 0
M  V30 7600 H 723.702 3.62873 -2.14246 0
M  V30 7601 H 722.377 3.04479 -1.09883 0
M  V30 7602 H 721.284 1.99494 -3.16469 0
M  V30 7603 H 722.617 2.64136 -4.15323 0
M  V30 7604 N 724.269 1.44576 0.627338 0
M  V30 7605 C 725.199 1.54562 1.75022 0
M  V30 7606 C 726.18 0.398378 1.65369 0
M  V30 7607 O 727.365 0.61899 1.84071 0
M  V30 7608 C 724.495 1.49309 3.13567 0
M  V30 7609 C 723.449 2.62549 3.38012 0
M  V30 7610 C 722.775 2.42348 4.76625 0
M  V30 7611 C 724.075 4.04678 3.30202 0
M  V30 7612 H 725.769 2.4855 1.66922 0
M  V30 7613 H 723.315 1.19624 0.801636 0
M  V30 7614 H 725.268 1.54895 3.919 0
M  V30 7615 H 723.992 0.518392 3.2246 0
M  V30 7616 H 722.651 2.56358 2.62061 0
M  V30 7617 H 722.299 1.43062 4.82226 0
M  V30 7618 H 721.999 3.18273 4.93939 0
M  V30 7619 H 723.523 2.49758 5.57183 0
M  V30 7620 H 724.937 4.12217 3.98435 0
M  V30 7621 H 723.334 4.80836 3.5905 0
M  V30 7622 H 724.404 4.2798 2.27949 0
M  V30 7623 N 725.747 -0.868086 1.31537 0
M  V30 7624 C 726.975 -1.65402 1.24298 0
M  V30 7625 C 727.39 -1.87827 -0.191389 0
M  V30 7626 O 726.747 -1.43776 -1.12404 0
M  V30 7627 C 726.798 -3.02093 1.9855 0
M  V30 7628 O 726.519 -2.80668 3.36388 0
M  V30 7629 C 728.02 -3.96538 1.98173 0
M  V30 7630 H 725.24 -0.515598 0.429417 0
M  V30 7631 H 727.784 -1.0834 1.73444 0
M  V30 7632 H 725.939 -3.55838 1.53161 0
M  V30 7633 H 726.353 -3.67504 3.74221 0
M  V30 7634 H 727.827 -4.8976 2.54635 0
M  V30 7635 H 728.304 -4.28474 0.964697 0
M  V30 7636 H 728.91 -3.48729 2.4345 0
M  V30 7637 N 727.225 -1.14528 -1.08264 0
M  V30 7638 C 728.473 -0.912599 -1.80322 0
M  V30 7639 C 728.794 0.562256 -1.86718 0
M  V30 7640 O 728.064 1.40869 -1.36135 0
M  V30 7641 H 726.644 -0.334645 -0.667849 0
M  V30 7642 H 729.306 -1.44415 -1.30883 0
M  V30 7643 H 728.402 -1.31384 -2.83098 0
M  V30 7644 N 728.703 1.26451 -0.940633 0
M  V30 7645 C 729.635 2.25556 -0.407104 0
M  V30 7646 C 730.648 1.55888 0.469324 0
M  V30 7647 O 731.837 1.76292 0.279858 0
M  V30 7648 C 728.937 3.36109 0.434064 0
M  V30 7649 C 728.11 4.3532 -0.426082 0
M  V30 7650 C 727.169 5.25004 0.354563 0
M  V30 7651 O 726.195 5.68684 -0.242219 0
M  V30 7652 N 727.397 5.5652 1.65123 0
M  V30 7653 H 730.162 2.7197 -1.25907 0
M  V30 7654 H 727.723 1.40212 -0.809456 0
M  V30 7655 H 729.715 3.93059 0.963684 0
M  V30 7656 H 728.285 2.89194 1.18683 0
M  V30 7657 H 727.505 3.77449 -1.13692 0
M  V30 7658 H 728.793 4.986 -1.01366 0
M  V30 7659 H 728.191 5.22912 2.15822 0
M  V30 7660 H 726.748 6.16115 2.12711 0
M  V30 7661 N 730.181 0.707592 1.40822 0
M  V30 7662 C 731.43 0.240705 2.00259 0
M  V30 7663 C 731.743 -1.17027 1.56729 0
M  V30 7664 O 732.949 -1.73526 2.08809 0
M  V30 7665 C 731.405 0.379432 3.57894 0
M  V30 7666 C 731.013 1.79654 4.104 0
M  V30 7667 C 732.757 -0.0270684 4.24491 0
M  V30 7668 C 730.664 1.88628 5.60512 0
M  V30 7669 H 729.594 0.0862369 0.749052 0
M  V30 7670 H 732.245 0.877528 1.61157 0
M  V30 7671 H 730.627 -0.325842 3.94657 0
M  V30 7672 H 731.801 2.53155 3.85032 0
M  V30 7673 H 730.116 2.15379 3.56372 0
M  V30 7674 H 732.713 0.0193743 5.34696 0
M  V30 7675 H 733.056 -1.06772 4.02375 0
M  V30 7676 H 733.589 0.628361 3.92806 0
M  V30 7677 H 730.328 2.90787 5.87472 0
M  V30 7678 H 729.848 1.19528 5.8777 0
M  V30 7679 H 731.527 1.6547 6.25483 0
M  V30 7680 N 731.66 -1.50943 0.453197 0
M  V30 7681 C 732.906 -2.02512 -0.108082 0
M  V30 7682 C 733.239 -1.33574 -1.40967 0
M  V30 7683 O 732.514 -0.455671 -1.89087 0
M  V30 7684 C 732.797 -3.58759 -0.310453 0
M  V30 7685 C 732.65 -4.38293 1.0109 0
M  V30 7686 C 733.969 -4.26816 -1.07313 0
M  V30 7687 H 731.088 -0.73603 -0.0378064 0
M  V30 7688 H 733.73 -1.80433 0.595295 0
M  V30 7689 H 731.88 -3.77702 -0.909582 0
M  V30 7690 H 733.552 -4.30964 1.64523 0
M  V30 7691 H 731.795 -4.02745 1.61179 0
M  V30 7692 H 732.466 -5.45828 0.82315 0
M  V30 7693 H 734.942 -4.1224 -0.565473 0
M  V30 7694 H 733.818 -5.35989 -1.1835 0
M  V30 7695 H 734.079 -3.88757 -2.10525 0
M  V30 7696 N 733.138 -0.185124 -1.56509 0
M  V30 7697 C 734.088 0.752315 -2.15231 0
M  V30 7698 C 735.072 1.18327 -1.0903 0
M  V30 7699 O 736.264 1.14333 -1.35119 0
M  V30 7700 C 733.393 1.97583 -2.80742 0
M  V30 7701 C 732.479 1.56623 -3.94119 0
M  V30 7702 N 732.87 0.867008 -4.98314 0
M  V30 7703 C 731.168 1.85626 -4.05535 0
M  V30 7704 C 731.869 0.663228 -5.77907 0
M  V30 7705 N 730.845 1.20891 -5.29987 0
M  V30 7706 H 734.647 0.209267 -2.93154 0
M  V30 7707 H 732.161 0.0150444 -1.62393 0
M  V30 7708 H 734.158 2.65779 -3.21197 0
M  V30 7709 H 732.818 2.52369 -2.04303 0
M  V30 7710 H 733.829 0.52355 -5.15247 0
M  V30 7711 H 730.506 2.41992 -3.40215 0
M  V30 7712 H 731.896 0.109273 -6.71811 0
M  V30 7713 N 734.616 1.57351 0.0885366 0
M  V30 7714 C 735.579 2.01557 1.09121 0
M  V30 7715 C 736.579 0.910052 1.3257 0
M  V30 7716 O 737.769 1.17537 1.28572 0
M  V30 7717 C 734.901 2.38189 2.43883 0
M  V30 7718 H 736.094 2.91361 0.710562 0
M  V30 7719 H 733.647 1.52694 0.333779 0
M  V30 7720 H 734.382 1.5136 2.86811 0
M  V30 7721 H 734.167 3.18846 2.28209 0
M  V30 7722 H 735.657 2.73025 3.15986 0
M  V30 7723 N 736.094 -0.359525 1.53444 0
M  V30 7724 C 737.024 -1.44662 1.8329 0
M  V30 7725 C 738.005 -1.55617 0.68683 0
M  V30 7726 O 739.19 -1.70086 0.93725 0
M  V30 7727 C 736.32 -2.81923 2.02822 0
M  V30 7728 C 735.274 -2.85787 3.18606 0
M  V30 7729 C 734.6 -4.25781 3.23442 0
M  V30 7730 C 735.9 -2.52762 4.57065 0
M  V30 7731 H 737.594 -1.19934 2.74329 0
M  V30 7732 H 735.14 -0.575517 1.31999 0
M  V30 7733 H 737.093 -3.58005 2.22285 0
M  V30 7734 H 735.817 -3.08051 1.085 0
M  V30 7735 H 734.476 -2.12157 2.98973 0
M  V30 7736 H 734.124 -4.48994 2.26745 0
M  V30 7737 H 733.824 -4.29281 4.01238 0
M  V30 7738 H 735.348 -5.03727 3.45096 0
M  V30 7739 H 736.762 -3.18557 4.76649 0
M  V30 7740 H 735.159 -2.67569 5.37147 0
M  V30 7741 H 736.229 -1.47993 4.61764 0
M  V30 7742 N 737.572 -1.44907 -0.619662 0
M  V30 7743 C 738.983 -1.42905 -1.20146 0
M  V30 7744 C 739.334 -0.150341 -1.95623 0
M  V30 7745 O 738.459 0.748732 -2.03034 0
M  V30 7746 C 739.054 -2.58889 -2.18545 0
M  V30 7747 C 737.613 -2.60046 -2.72127 0
M  V30 7748 C 736.76 -2.3493 -1.4732 0
M  V30 7749 H 739.711 -1.53321 -0.409666 0
M  V30 7750 H 739.732 -2.32298 -3.0136 0
M  V30 7751 H 739.244 -3.51941 -1.63583 0
M  V30 7752 H 737.345 -1.70968 -3.3106 0
M  V30 7753 H 737.458 -3.58893 -3.17384 0
M  V30 7754 H 735.822 -1.84248 -1.75855 0
M  V30 7755 H 736.605 -3.3011 -0.942442 0
M  V30 7756 N 739.05 0.861098 -1.31996 0
M  V30 7757 C 740.296 1.61721 -1.22369 0
M  V30 7758 C 740.629 1.93 0.215587 0
M  V30 7759 O 739.904 1.56789 1.15098 0
M  V30 7760 C 740.187 2.9417 -2.07691 0
M  V30 7761 C 740.04 2.69714 -3.59965 0
M  V30 7762 C 741.359 3.95372 -1.93312 0
M  V30 7763 H 738.478 0.586822 -0.44588 0
M  V30 7764 H 741.12 0.994788 -1.61876 0
M  V30 7765 H 739.27 3.47292 -1.74128 0
M  V30 7766 H 740.942 2.23196 -4.03709 0
M  V30 7767 H 739.185 2.03789 -3.82952 0
M  V30 7768 H 739.856 3.63996 -4.14983 0
M  V30 7769 H 742.332 3.51487 -2.22701 0
M  V30 7770 H 741.208 4.85916 -2.55298 0
M  V30 7771 H 741.469 4.32865 -0.898922 0
M  V30 7772 N 740.528 1.15101 1.07655 0
M  V30 7773 C 741.458 0.867864 2.16773 0
M  V30 7774 C 742.439 -0.180283 1.69142 0
M  V30 7775 O 743.624 -0.0353152 1.94168 0
M  V30 7776 C 740.754 0.35299 3.45501 0
M  V30 7777 C 739.708 1.33746 4.06566 0
M  V30 7778 C 739.034 0.681562 5.30338 0
M  V30 7779 C 740.334 2.7024 4.46954 0
M  V30 7780 H 742.028 1.78034 2.40716 0
M  V30 7781 H 739.574 0.857435 1.15689 0
M  V30 7782 H 741.527 0.142465 4.21159 0
M  V30 7783 H 740.251 -0.594945 3.21135 0
M  V30 7784 H 738.91 1.53429 3.32949 0
M  V30 7785 H 738.558 -0.272422 5.02262 0
M  V30 7786 H 738.258 1.33853 5.72151 0
M  V30 7787 H 739.782 0.48074 6.08705 0
M  V30 7788 H 741.196 2.5442 5.13754 0
M  V30 7789 H 739.593 3.32282 4.99709 0
M  V30 7790 H 740.663 3.26537 3.58471 0
M  V30 7791 N 742.006 -1.2595 0.947325 0
M  V30 7792 C 742.939 -2.24559 0.406009 0
M  V30 7793 C 743.917 -1.54441 -0.508598 0
M  V30 7794 O 745.101 -1.83181 -0.444644 0
M  V30 7795 C 742.228 -3.36136 -0.415987 0
M  V30 7796 C 741.274 -4.24245 0.437969 0
M  V30 7797 S 742.107 -5.01948 1.86572 0
M  V30 7798 C 743.263 -6.16997 1.05194 0
M  V30 7799 H 743.496 -2.70128 1.24171 0
M  V30 7800 H 741.029 -1.34912 0.750874 0
M  V30 7801 H 742.987 -4.00861 -0.88433 0
M  V30 7802 H 741.648 -2.89167 -1.22643 0
M  V30 7803 H 740.841 -5.03634 -0.192127 0
M  V30 7804 H 740.443 -3.64416 0.841235 0
M  V30 7805 H 742.735 -6.76848 0.297126 0
M  V30 7806 H 743.678 -6.84324 1.8195 0
M  V30 7807 H 744.086 -5.61458 0.585294 0
M  V30 7808 N 743.484 -0.715051 -1.40445 0
M  V30 7809 C 744.447 -0.0708726 -2.2909 0
M  V30 7810 C 745.447 0.687926 -1.45342 0
M  V30 7811 O 746.637 0.519908 -1.66261 0
M  V30 7812 C 743.769 0.909528 -3.28543 0
M  V30 7813 H 744.962 -0.851611 -2.87555 0
M  V30 7814 H 742.515 -0.479674 -1.48758 0
M  V30 7815 H 743.25 1.71734 -2.75096 0
M  V30 7816 H 743.035 0.368318 -3.90366 0
M  V30 7817 H 744.525 1.35744 -3.94922 0
M  V30 7818 N 744.962 1.50701 -0.461195 0
M  V30 7819 C 746.208 2.02566 0.0973411 0
M  V30 7820 C 746.541 1.3432 1.40257 0
M  V30 7821 O 745.816 0.465692 1.88843 0
M  V30 7822 C 746.099 3.58919 0.291423 0
M  V30 7823 C 745.952 4.37751 -1.03413 0
M  V30 7824 C 747.271 4.27379 1.05048 0
M  V30 7825 H 744.39 0.73622 0.0339026 0
M  V30 7826 H 747.032 1.80115 -0.604855 0
M  V30 7827 H 745.182 3.78179 0.889539 0
M  V30 7828 H 746.854 4.30085 -1.66806 0
M  V30 7829 H 745.097 4.01885 -1.63313 0
M  V30 7830 H 745.768 5.45384 -0.852085 0
M  V30 7831 H 748.244 4.12534 0.543603 0
M  V30 7832 H 747.12 5.36609 1.15506 0
M  V30 7833 H 747.381 3.89868 2.0846 0
M  V30 7834 N 746.441 0.193421 1.56409 0
M  V30 7835 C 747.371 -0.723334 2.22014 0
M  V30 7836 C 748.352 -1.22254 1.1827 0
M  V30 7837 O 749.537 -1.27168 1.46771 0
M  V30 7838 C 746.667 -1.94366 2.87818 0
M  V30 7839 C 745.621 -1.57943 3.97791 0
M  V30 7840 C 744.947 -2.87623 4.50752 0
M  V30 7841 C 746.247 -0.790639 5.16281 0
M  V30 7842 H 747.941 -0.176426 2.9888 0
M  V30 7843 H 745.487 -0.0834166 1.43758 0
M  V30 7844 H 747.44 -2.5902 3.32396 0
M  V30 7845 H 746.164 -2.51507 2.08355 0
M  V30 7846 H 744.823 -0.956482 3.53903 0
M  V30 7847 H 744.471 -3.4285 3.68053 0
M  V30 7848 H 744.171 -2.63998 5.24956 0
M  V30 7849 H 745.695 -3.53268 4.9803 0
M  V30 7850 H 747.109 -1.34024 5.57414 0
M  V30 7851 H 745.506 -0.65258 5.96541 0
M  V30 7852 H 746.576 0.208633 4.84451 0
M  V30 7853 N 747.919 -1.57396 -0.0801906 0
M  V30 7854 C 748.882 -2.02133 -1.0805 0
M  V30 7855 C 749.882 -0.91707 -1.32085 0
M  V30 7856 O 751.072 -1.18217 -1.27947 0
M  V30 7857 C 748.204 -2.39479 -2.42616 0
M  V30 7858 H 749.397 -2.91733 -0.6951 0
M  V30 7859 H 746.95 -1.52869 -0.325677 0
M  V30 7860 H 747.685 -1.52879 -2.86004 0
M  V30 7861 H 747.47 -3.20052 -2.26515 0
M  V30 7862 H 748.96 -2.74697 -3.14534 0
M  V30 7863 N 749.397 0.351382 -1.53633 0
M  V30 7864 C 750.36 1.41403 -1.80383 0
M  V30 7865 C 751.36 1.45963 -0.674635 0
M  V30 7866 O 752.55 1.46476 -0.942895 0
M  V30 7867 C 749.682 2.80401 -1.93876 0
M  V30 7868 H 750.875 1.18951 -2.75301 0
M  V30 7869 H 748.428 0.58533 -1.44926 0
M  V30 7870 H 749.163 3.08147 -1.01074 0
M  V30 7871 H 748.948 2.78488 -2.7602 0
M  V30 7872 H 750.438 3.57329 -2.16116 0
M  V30 7873 N 750.875 1.45233 0.611969 0
M  V30 7874 C 751.823 1.53898 1.74408 0
M  V30 7875 C 752.817 0.409254 1.64382 0
M  V30 7876 O 754.023 0.584988 1.70229 0
M  V30 7877 H 750.398 0.483303 0.576127 0
M  V30 7878 H 752.369 2.49143 1.64227 0
M  V30 7879 C 751.118 1.51865 3.12782 0
M  V30 7880 H 750.441 2.38118 3.21154 0
M  V30 7881 H 751.881 1.61986 3.91838 0
M  V30 7882 C 750.34 0.242374 3.36027 0
M  V30 7883 O 750.87 -0.679587 3.9591 0
M  V30 7884 N 749.076 0.139448 2.90265 0
M  V30 7885 H 748.623 0.890571 2.41716 0
M  V30 7886 H 748.581 -0.713686 3.06193 0
M  V30 7887 N 752.353 -0.854086 1.3245 0
M  V30 7888 C 753.316 -1.94427 1.21371 0
M  V30 7889 C 754.316 -1.60219 0.136613 0
M  V30 7890 O 755.506 -1.69846 0.387057 0
M  V30 7891 C 752.638 -3.29698 0.866701 0
M  V30 7892 H 753.831 -2.05679 2.18257 0
M  V30 7893 H 751.384 -1.04434 1.1629 0
M  V30 7894 H 752.119 -3.24145 -0.100319 0
M  V30 7895 H 751.904 -3.55903 1.64545 0
M  V30 7896 H 753.394 -4.09599 0.813515 0
M  V30 7897 N 753.831 -1.1567 -1.07043 0
M  V30 7898 C 755.08 -0.928039 -1.79082 0
M  V30 7899 C 755.393 0.545968 -1.87826 0
M  V30 7900 O 756.599 0.892308 -2.56418 0
M  V30 7901 C 755.055 -1.61103 -3.21829 0
M  V30 7902 C 754.663 -3.12228 -3.21275 0
M  V30 7903 C 756.407 -1.46404 -3.98455 0
M  V30 7904 C 754.314 -3.733 -4.58695 0
M  V30 7905 H 753.244 -0.34357 -0.671175 0
M  V30 7906 H 755.895 -1.38718 -1.20123 0
M  V30 7907 H 754.277 -1.07958 -3.81 0
M  V30 7908 H 755.451 -3.72155 -2.71731 0
M  V30 7909 H 753.766 -3.26725 -2.58147 0
M  V30 7910 H 756.363 -1.8942 -5.00024 0
M  V30 7911 H 756.706 -0.41195 -4.14257 0
M  V30 7912 H 757.239 -1.96663 -3.45787 0
M  V30 7913 H 753.978 -4.78423 -4.48098 0
M  V30 7914 H 753.498 -3.18157 -5.08465 0
M  V30 7915 H 755.177 -3.7441 -5.27661 0
M  V30 7916 N 755.309 1.25446 -0.953992 0
M  V30 7917 C 756.272 2.24156 -0.478179 0
M  V30 7918 C 757.272 1.55278 0.417776 0
M  V30 7919 O 758.462 1.72866 0.215155 0
M  V30 7920 C 755.594 3.39495 0.309202 0
M  V30 7921 H 756.787 2.67764 -1.35064 0
M  V30 7922 H 754.34 1.37822 -0.737206 0
M  V30 7923 H 755.075 3.01307 1.19936 0
M  V30 7924 H 754.86 3.90679 -0.333562 0
M  V30 7925 H 756.35 4.12796 0.631594 0
M  V30 7926 N 756.787 0.722489 1.40064 0
M  V30 7927 C 757.719 0.0349057 2.29173 0
M  V30 7928 C 758.732 -0.716571 1.46182 0
M  V30 7929 O 759.921 -0.562806 1.69395 0
M  V30 7930 C 757.021 -0.974839 3.24577 0
M  V30 7931 C 756.194 -0.287471 4.36454 0
M  V30 7932 C 755.253 -1.20356 5.12251 0
M  V30 7933 O 754.279 -0.685753 5.65054 0
M  V30 7934 N 755.481 -2.53422 5.22262 0
M  V30 7935 H 758.246 0.800058 2.88824 0
M  V30 7936 H 755.807 0.57068 1.51509 0
M  V30 7937 H 757.799 -1.59002 3.72157 0
M  V30 7938 H 756.369 -1.6413 2.66046 0
M  V30 7939 H 755.589 0.508008 3.90913 0
M  V30 7940 H 756.877 0.189382 5.08447 0
M  V30 7941 H 756.275 -2.97981 4.80857 0
M  V30 7942 H 754.832 -3.10067 5.73325 0
M  V30 7943 N 758.265 -1.50454 0.469181 0
M  V30 7944 C 759.49 -2.0722 -0.0864892 0
M  V30 7945 C 759.915 -1.33098 -1.32916 0
M  V30 7946 O 759.273 -0.378084 -1.77314 0
M  V30 7947 C 759.321 -3.58845 -0.355384 0
M  V30 7948 O 758.425 -3.86583 -1.43622 0
M  V30 7949 H 757.766 -0.663889 0.0121414 0
M  V30 7950 H 760.296 -1.93674 0.659674 0
M  V30 7951 H 760.306 -4.03617 -0.596447 0
M  V30 7952 H 758.981 -4.12211 0.552698 0
M  V30 7953 H 757.558 -3.5365 -1.18262 0
M  V30 7954 N 759.743 -0.201713 -1.56304 0
M  V30 7955 C 760.983 0.437395 -1.99665 0
M  V30 7956 C 761.347 1.58341 -1.08592 0
M  V30 7957 O 762.548 2.28716 -1.41217 0
M  V30 7958 C 760.819 0.879572 -3.46408 0
M  V30 7959 S 762.378 1.51558 -4.11795 0
M  V30 7960 H 759.196 0.139621 -0.697156 0
M  V30 7961 H 761.798 -0.306337 -1.93085 0
M  V30 7962 H 760.502 0.0355295 -4.10385 0
M  V30 7963 H 760.033 1.65661 -3.56819 0
M  V30 7964 H 762.048 2.80445 -4.09347 0
M  V30 7965 N 761.222 1.57436 0.0718424 0
M  V30 7966 C 762.154 2.00412 1.1121 0
M  V30 7967 C 763.167 0.910074 1.34987 0
M  V30 7968 O 764.356 1.18796 1.33228 0
M  V30 7969 C 761.456 2.32786 2.46301 0
M  V30 7970 C 760.629 3.64036 2.4248 0
M  V30 7971 C 759.688 3.8408 3.59679 0
M  V30 7972 O 758.714 4.55667 3.4111 0
M  V30 7973 N 759.916 3.2643 4.80025 0
M  V30 7974 H 762.681 2.90264 0.746118 0
M  V30 7975 H 760.242 1.59791 0.260495 0
M  V30 7976 H 762.234 2.43368 3.23348 0
M  V30 7977 H 760.804 1.48824 2.74901 0
M  V30 7978 H 760.024 3.64208 1.50818 0
M  V30 7979 H 761.312 4.50217 2.37027 0
M  V30 7980 H 760.71 2.68325 4.98014 0
M  V30 7981 H 759.267 3.42461 5.54584 0
M  V30 7982 N 762.7 -0.34323 1.53817 0
M  V30 7983 C 764.111 -0.918823 1.62525 0
M  V30 7984 C 764.462 -1.89542 0.506765 0
M  V30 7985 O 763.587 -2.13326 -0.363441 0
M  V30 7986 C 764.182 -1.67326 2.94597 0
M  V30 7987 C 762.741 -2.19786 3.05567 0
M  V30 7988 C 761.888 -1.01708 2.57974 0
M  V30 7989 H 764.839 -0.121358 1.58235 0
M  V30 7990 H 764.86 -2.53615 2.83654 0
M  V30 7991 H 764.372 -0.962223 3.75983 0
M  V30 7992 H 762.473 -2.94065 2.28816 0
M  V30 7993 H 762.586 -2.46135 4.1104 0
M  V30 7994 H 760.95 -1.39058 2.13389 0
M  V30 7995 H 761.733 -0.320671 3.41799 0
M  V30 7996 N 764.178 -1.45556 -0.604258 0
M  V30 7997 C 765.403 -1.53509 -1.39462 0
M  V30 7998 C 765.828 -0.169638 -1.87333 0
M  V30 7999 O 765.186 0.846346 -1.60333 0
M  V30 8000 C 765.234 -2.52654 -2.5729 0
M  V30 8001 O 764.338 -2.04666 -3.5803 0
M  V30 8002 H 763.679 -0.517355 -0.416221 0
M  V30 8003 H 766.209 -1.90939 -0.735072 0
M  V30 8004 H 766.219 -2.71568 -3.04491 0
M  V30 8005 H 764.894 -3.51823 -2.21797 0
M  V30 8006 H 763.471 -1.95643 -3.17456 0
M  V30 8007 N 765.656 0.84705 -1.32902 0
M  V30 8008 C 766.903 1.60176 -1.23894 0
M  V30 8009 C 767.231 1.93496 0.197341 0
M  V30 8010 O 766.486 1.58173 1.15238 0
M  V30 8011 C 766.785 2.92663 -2.05142 0
M  V30 8012 C 766.451 2.7874 -3.54422 0
M  V30 8013 C 765.113 2.7465 -3.95121 0
M  V30 8014 C 767.465 2.64128 -4.49317 0
M  V30 8015 C 764.793 2.53837 -5.28946 0
M  V30 8016 C 767.145 2.44849 -5.83294 0
M  V30 8017 C 765.809 2.39156 -6.23186 0
M  V30 8018 H 765.079 0.586127 -0.453361 0
M  V30 8019 H 767.726 0.981994 -1.64405 0
M  V30 8020 H 766.031 3.588 -1.57383 0
M  V30 8021 H 767.728 3.50095 -1.95537 0
M  V30 8022 H 764.318 2.82751 -3.22102 0
M  V30 8023 H 768.502 2.66327 -4.18788 0
M  V30 8024 H 763.758 2.4787 -5.58901 0
M  V30 8025 H 767.932 2.32524 -6.56434 0
M  V30 8026 H 765.559 2.22789 -7.26821 0
M  V30 8027 N 767.134 1.16236 1.06428 0
M  V30 8028 C 768.364 0.965782 1.82637 0
M  V30 8029 C 768.772 -0.489284 1.82764 0
M  V30 8030 O 768.115 -1.35133 1.24438 0
M  V30 8031 C 768.177 1.41458 3.30499 0
M  V30 8032 C 767.841 2.88926 3.54077 0
M  V30 8033 C 768.838 3.86939 3.47238 0
M  V30 8034 C 766.523 3.26814 3.81442 0
M  V30 8035 C 768.517 5.20841 3.67428 0
M  V30 8036 C 766.204 4.60886 4.01282 0
M  V30 8037 C 767.202 5.57708 3.94272 0
M  V30 8038 O 766.89 6.89357 4.13573 0
M  V30 8039 H 766.622 0.342569 0.582772 0
M  V30 8040 H 769.176 1.54641 1.35187 0
M  V30 8041 H 767.406 0.777426 3.78805 0
M  V30 8042 H 769.095 1.18563 3.88198 0
M  V30 8043 H 769.861 3.59014 3.26089 0
M  V30 8044 H 765.74 2.5203 3.86008 0
M  V30 8045 H 769.284 5.96401 3.61873 0
M  V30 8046 H 765.181 4.88522 4.21921 0
M  V30 8047 H 765.949 6.95913 4.30869 0
M  V30 8048 N 768.612 -1.24939 0.960631 0
M  V30 8049 C 769.889 -1.88118 0.535807 0
M  V30 8050 C 770.269 -1.86605 -0.987009 0
M  V30 8051 O 769.617 -1.33375 -1.85536 0
M  V30 8052 C 769.827 -3.30565 1.11927 0
M  V30 8053 C 771.175 -4.07296 1.19981 0
M  V30 8054 O 772.199 -3.39709 1.07126 0
M  V30 8055 O 771.058 -5.28206 1.40218 0
M  V30 8056 H 768.152 -0.807698 0.177631 0
M  V30 8057 H 770.698 -1.32964 1.05445 0
M  V30 8058 H 769.47 -3.26128 2.16231 0
M  V30 8059 H 769.093 -3.93284 0.584245 0
M  V30 8060 N 770.09 -0.729906 -1.39679 0
M  V30 8061 C 771.338 -0.275077 -2.00219 0
M  V30 8062 C 771.659 1.1401 -1.58199 0
M  V30 8063 O 770.929 1.77546 -0.827904 0
M  V30 8064 H 769.509 -0.0987127 -0.740449 0
M  V30 8065 H 772.171 -0.93873 -1.70804 0
M  V30 8066 H 771.267 -0.319446 -3.10461 0
M  V30 8067 N 771.568 1.50203 -0.477153 0
M  V30 8068 C 772.796 2.0677 0.0732489 0
M  V30 8069 C 773.211 1.34033 1.32968 0
M  V30 8070 O 772.568 0.411412 1.77802 0
M  V30 8071 C 772.619 3.59751 0.35518 0
M  V30 8072 O 772.34 4.29747 -0.851425 0
M  V30 8073 C 773.841 4.3296 0.951877 0
M  V30 8074 H 771.061 0.670929 -0.00978923 0
M  V30 8075 H 773.605 1.93293 -0.667676 0
M  V30 8076 H 771.76 3.7301 1.04605 0
M  V30 8077 H 772.174 5.2106 -0.599708 0
M  V30 8078 H 773.648 5.40952 1.09888 0
M  V30 8079 H 774.125 3.93856 1.94356 0
M  V30 8080 H 774.731 4.24246 0.299208 0
M  V30 8081 N 773.046 0.209999 1.56195 0
M  V30 8082 C 774.295 -0.425106 1.97169 0
M  V30 8083 C 774.608 -1.61718 1.10031 0
M  V30 8084 O 775.814 -2.32105 1.40853 0
M  V30 8085 C 774.27 -0.80771 3.50719 0
M  V30 8086 C 773.878 0.360902 4.46544 0
M  V30 8087 C 775.622 -1.40906 4.00432 0
M  V30 8088 C 773.529 -0.0434919 5.91384 0
M  V30 8089 H 772.459 -0.162598 0.736259 0
M  V30 8090 H 775.11 0.304382 1.80958 0
M  V30 8091 H 773.492 -1.59429 3.62489 0
M  V30 8092 H 774.666 1.13846 4.46515 0
M  V30 8093 H 772.981 0.874729 4.07109 0
M  V30 8094 H 775.578 -1.72433 5.06133 0
M  V30 8095 H 775.921 -2.32081 3.45607 0
M  V30 8096 H 776.454 -0.686154 3.91838 0
M  V30 8097 H 773.193 0.834448 6.50167 0
M  V30 8098 H 772.713 -0.785598 5.94633 0
M  V30 8099 H 774.392 -0.474176 6.4526 0
M  V30 8100 N 774.524 -1.57472 -0.0634922 0
M  V30 8101 C 775.773 -1.86837 -0.759928 0
M  V30 8102 C 776.086 -0.803823 -1.7832 0
M  V30 8103 O 777.292 -0.985578 -2.52979 0
M  V30 8104 C 775.748 -3.31448 -1.4025 0
M  V30 8105 C 775.356 -4.46052 -0.417368 0
M  V30 8106 C 777.1 -3.70003 -2.08082 0
M  V30 8107 C 775.007 -5.81707 -1.06633 0
M  V30 8108 H 773.937 -0.697009 -0.287567 0
M  V30 8109 H 776.588 -1.83495 -0.0133914 0
M  V30 8110 H 774.97 -3.29427 -2.19759 0
M  V30 8111 H 776.144 -4.5948 0.348503 0
M  V30 8112 H 774.459 -4.16104 0.156955 0
M  V30 8113 H 777.056 -4.68653 -2.57426 0
M  V30 8114 H 777.399 -3.00226 -2.88393 0
M  V30 8115 H 777.932 -3.7405 -1.35394 0
M  V30 8116 H 774.671 -6.54798 -0.303374 0
M  V30 8117 H 774.191 -5.72064 -1.80286 0
M  V30 8118 H 775.87 -6.27317 -1.58376 0
M  V30 8119 N 776.003 0.335068 -1.53997 0
M  V30 8120 C 777.249 1.07594 -1.71905 0
M  V30 8121 C 777.582 1.88039 -0.485264 0
M  V30 8122 O 776.857 1.87482 0.517752 0
M  V30 8123 C 777.14 2.01016 -2.98772 0
M  V30 8124 C 776.993 1.23977 -4.32377 0
M  V30 8125 C 778.312 3.0071 -3.21343 0
M  V30 8126 H 775.431 0.38976 -0.625505 0
M  V30 8127 H 778.073 0.353684 -1.86679 0
M  V30 8128 H 776.223 2.62603 -2.86307 0
M  V30 8129 H 777.895 0.649383 -4.56706 0
M  V30 8130 H 776.138 0.541878 -4.30402 0
M  V30 8131 H 776.809 1.92512 -5.17342 0
M  V30 8132 H 779.285 2.4924 -3.33194 0
M  V30 8133 H 778.161 3.63272 -4.11491 0
M  V30 8134 H 778.422 3.72549 -2.38033 0
M  V30 8135 N 777.481 1.45874 0.596531 0
M  V30 8136 C 778.428 1.55389 1.70655 0
M  V30 8137 C 779.398 0.399036 1.61236 0
M  V30 8138 O 780.583 0.61396 1.80652 0
M  V30 8139 C 777.723 1.53705 3.0898 0
M  V30 8140 C 776.836 2.79823 3.29125 0
M  V30 8141 C 775.971 2.69735 4.5762 0
M  V30 8142 C 775.01 3.90856 4.71061 0
M  V30 8143 N 774.147 3.79237 5.90867 0
M  V30 8144 H 778.987 2.50211 1.61859 0
M  V30 8145 H 776.524 1.24146 0.789069 0
M  V30 8146 H 778.482 1.50715 3.89026 0
M  V30 8147 H 777.112 0.624247 3.16706 0
M  V30 8148 H 776.164 2.92852 2.42779 0
M  V30 8149 H 777.476 3.69628 3.34927 0
M  V30 8150 H 776.63 2.64773 5.45875 0
M  V30 8151 H 775.369 1.77547 4.54234 0
M  V30 8152 H 774.374 3.96164 3.81227 0
M  V30 8153 H 775.599 4.84124 4.76236 0
M  V30 8154 H 773.545 2.89825 5.88504 0
M  V30 8155 H 773.462 4.62686 5.97877 0
M  V30 8156 H 774.73 3.78227 6.8159 0
M  V30 8157 N 778.959 -0.83999 1.33349 0
M  V30 8158 C 779.906 -1.94972 1.23509 0
M  V30 8159 C 780.876 -1.65709 0.113967 0
M  V30 8160 O 782.061 -1.88552 0.292045 0
M  V30 8161 C 779.201 -3.30919 0.979105 0
M  V30 8162 C 778.314 -3.72587 2.18639 0
M  V30 8163 C 777.449 -4.97397 1.86465 0
M  V30 8164 C 776.488 -5.31597 3.03432 0
M  V30 8165 N 775.625 -6.47584 2.71254 0
M  V30 8166 H 780.465 -2.0272 2.18423 0
M  V30 8167 H 778.002 -0.992017 1.08616 0
M  V30 8168 H 779.96 -4.09239 0.811126 0
M  V30 8169 H 778.59 -3.22731 0.0667099 0
M  V30 8170 H 777.642 -2.89799 2.46416 0
M  V30 8171 H 778.954 -3.93844 3.06086 0
M  V30 8172 H 778.108 -5.83462 1.66305 0
M  V30 8173 H 776.847 -4.78107 0.96254 0
M  V30 8174 H 775.852 -4.44037 3.24208 0
M  V30 8175 H 777.077 -5.52836 3.94397 0
M  V30 8176 H 775.023 -6.29783 1.836 0
M  V30 8177 H 774.94 -6.68931 3.52231 0
M  V30 8178 H 776.208 -7.36764 2.54558 0
M  V30 8179 N 780.437 -1.16799 -1.0581 0
M  V30 8180 C 781.367 -0.902241 -2.15364 0
M  V30 8181 C 782.348 0.153351 -1.69407 0
M  V30 8182 O 783.533 0.00442032 -1.94199 0
M  V30 8183 C 780.663 -0.407911 -3.44896 0
M  V30 8184 C 779.617 -1.40197 -4.04387 0
M  V30 8185 C 778.943 -0.765848 -5.29187 0
M  V30 8186 C 780.243 -2.77316 -4.42598 0
M  V30 8187 H 781.937 -1.81841 -2.37853 0
M  V30 8188 H 779.483 -0.875731 -1.14311 0
M  V30 8189 H 781.436 -0.20945 -4.20879 0
M  V30 8190 H 780.16 0.54378 -3.22041 0
M  V30 8191 H 778.819 -1.58707 -3.30466 0
M  V30 8192 H 778.467 0.192482 -5.02632 0
M  V30 8193 H 778.167 -1.42939 -5.69949 0
M  V30 8194 H 779.691 -0.577519 -6.07863 0
M  V30 8195 H 781.105 -2.62561 -5.09642 0
M  V30 8196 H 779.502 -3.4019 -4.94359 0
M  V30 8197 H 780.572 -3.32199 -3.53231 0
M  V30 8198 N 781.915 1.24427 -0.967243 0
M  V30 8199 C 783.326 1.74349 -0.667785 0
M  V30 8200 C 783.677 1.78403 0.816509 0
M  V30 8201 O 782.802 1.41315 1.63887 0
M  V30 8202 C 783.397 3.16628 -1.20548 0
M  V30 8203 C 781.956 3.64059 -0.955934 0
M  V30 8204 C 781.103 2.42715 -1.34106 0
M  V30 8205 H 784.054 1.10136 -1.14262 0
M  V30 8206 H 784.075 3.76183 -0.571547 0
M  V30 8207 H 783.587 3.13646 -2.28578 0
M  V30 8208 H 781.688 3.72441 0.108858 0
M  V30 8209 H 781.801 4.51549 -1.60126 0
M  V30 8210 H 780.165 2.43114 -0.759452 0
M  V30 8211 H 780.948 2.42414 -2.43085 0
M  V30 8212 N 783.393 0.737304 1.3929 0
M  V30 8213 C 784.623 0.296143 2.04467 0
M  V30 8214 C 785.031 -1.0748 1.55707 0
M  V30 8215 O 784.374 -1.69082 0.718123 0
M  V30 8216 C 784.436 0.222161 3.58813 0
M  V30 8217 C 784.1 1.53195 4.30558 0
M  V30 8218 C 785.097 2.47809 4.57041 0
M  V30 8219 C 782.782 1.79688 4.6906 0
M  V30 8220 C 784.776 3.67147 5.21039 0
M  V30 8221 C 782.463 2.99304 5.32785 0
M  V30 8222 C 783.461 3.92855 5.58708 0
M  V30 8223 O 783.149 5.1037 6.2111 0
M  V30 8224 H 782.881 0.126896 0.663983 0
M  V30 8225 H 785.435 1.00242 1.79278 0
M  V30 8226 H 783.665 -0.540239 3.82908 0
M  V30 8227 H 785.354 -0.187311 4.05468 0
M  V30 8228 H 786.12 2.28611 4.2774 0
M  V30 8229 H 781.999 1.07716 4.48239 0
M  V30 8230 H 785.543 4.40183 5.41188 0
M  V30 8231 H 781.44 3.18401 5.61508 0
M  V30 8232 H 782.208 5.10735 6.39603 0
M  V30 8233 N 784.871 -1.49948 0.485112 0
M  V30 8234 C 785.801 -2.31675 -0.291364 0
M  V30 8235 C 786.782 -1.39216 -0.977383 0
M  V30 8236 O 787.967 -1.68133 -0.971855 0
M  V30 8237 C 785.097 -3.19326 -1.36558 0
M  V30 8238 C 784.051 -4.2045 -0.800359 0
M  V30 8239 C 783.377 -4.96931 -1.97391 0
M  V30 8240 C 784.677 -5.21925 0.197867 0
M  V30 8241 H 786.371 -2.96839 0.390775 0
M  V30 8242 H 783.917 -1.42749 0.189375 0
M  V30 8243 H 785.87 -3.75304 -1.91638 0
M  V30 8244 H 784.594 -2.52074 -2.07668 0
M  V30 8245 H 783.253 -3.65594 -0.271428 0
M  V30 8246 H 782.901 -4.26141 -2.67232 0
M  V30 8247 H 782.601 -5.65344 -1.60187 0
M  V30 8248 H 784.125 -5.55749 -2.52935 0
M  V30 8249 H 785.539 -5.72691 -0.264239 0
M  V30 8250 H 783.936 -5.98138 0.484908 0
M  V30 8251 H 785.006 -4.71809 1.11912 0
M  V30 8252 N 786.349 -0.21828 -1.56081 0
M  V30 8253 C 787.76 0.290166 -1.84431 0
M  V30 8254 C 788.111 1.59712 -1.13958 0
M  V30 8255 O 787.236 2.12516 -0.40815 0
M  V30 8256 C 787.831 0.53325 -3.34577 0
M  V30 8257 C 786.39 0.986011 -3.63256 0
M  V30 8258 C 785.537 0.0472798 -2.7726 0
M  V30 8259 H 788.488 -0.441548 -1.52434 0
M  V30 8260 H 788.509 1.37967 -3.54606 0
M  V30 8261 H 788.021 -0.418137 -3.85841 0
M  V30 8262 H 786.122 1.95087 -3.17446 0
M  V30 8263 H 786.235 0.862684 -4.71269 0
M  V30 8264 H 784.599 0.553471 -2.48614 0
M  V30 8265 H 785.382 -0.898966 -3.31321 0
M  V30 8266 N 787.827 1.57504 0.0551401 0
M  V30 8267 C 789.243 1.54236 0.410292 0
M  V30 8268 C 789.443 0.940839 1.78187 0
M  V30 8269 O 788.499 0.550541 2.46425 0
M  V30 8270 C 789.812 2.98816 0.336064 0
M  V30 8271 C 791.36 3.10236 0.415047 0
M  V30 8272 C 791.835 4.56499 0.37055 0
M  V30 8273 N 793.326 4.61199 0.43013 0
M  V30 8274 C 794.061 5.71873 0.418179 0
M  V30 8275 N 793.557 6.91864 0.360056 0
M  V30 8276 N 795.35 5.60165 0.465977 0
M  V30 8277 H 787.501 1.94965 -0.842759 0
M  V30 8278 H 789.764 0.893096 -0.317937 0
M  V30 8279 H 789.47 3.4645 -0.605429 0
M  V30 8280 H 789.344 3.59564 1.13988 0
M  V30 8281 H 791.731 2.62566 1.34697 0
M  V30 8282 H 791.812 2.52367 -0.417648 0
M  V30 8283 H 791.456 5.0483 -0.557592 0
M  V30 8284 H 791.386 5.12249 1.221 0
M  V30 8285 H 793.877 3.74857 0.478623 0
M  V30 8286 H 794.19 7.71983 0.35532 0
M  V30 8287 H 792.535 6.94233 0.326492 0
M  V30 8288 H 795.726 4.65322 0.509194 0
M  V30 8289 H 795.899 6.46413 0.453194 0
M  V30 8290 N 789.305 -0.326896 1.54172 0
M  V30 8291 C 790.554 -1.06274 1.71431 0
M  V30 8292 C 790.867 -1.89282 0.493123 0
M  V30 8293 O 792.073 -2.65933 0.54699 0
M  V30 8294 C 790.529 -1.93892 3.03206 0
M  V30 8295 C 790.137 -1.16011 4.32719 0
M  V30 8296 C 791.881 -2.67232 3.29829 0
M  V30 8297 C 789.788 -2.02755 5.55558 0
M  V30 8298 H 788.718 -0.400475 0.638855 0
M  V30 8299 H 791.369 -0.321184 1.80667 0
M  V30 8300 H 789.751 -2.71933 2.87869 0
M  V30 8301 H 790.925 -0.427643 4.58811 0
M  V30 8302 H 789.24 -0.54367 4.12836 0
M  V30 8303 H 791.837 -3.32434 4.18798 0
M  V30 8304 H 792.18 -3.34692 2.47562 0
M  V30 8305 H 792.713 -1.96255 3.46018 0
M  V30 8306 H 789.452 -1.3981 6.40417 0
M  V30 8307 H 788.972 -2.73745 5.33689 0
M  V30 8308 H 790.651 -2.61419 5.91835 0
M  V30 8309 N 790.784 -1.46188 -0.588786 0
M  V30 8310 C 791.714 -1.59148 -1.70863 0
M  V30 8311 C 792.695 -0.442083 -1.64255 0
M  V30 8312 O 793.88 -0.667575 -1.82365 0
M  V30 8313 C 791.01 -1.5757 -3.09498 0
M  V30 8314 C 789.964 -2.71418 -3.30932 0
M  V30 8315 C 789.29 -2.549 -4.70032 0
M  V30 8316 C 790.59 -4.1329 -3.19356 0
M  V30 8317 H 792.284 -2.52889 -1.60274 0
M  V30 8318 H 789.83 -1.21707 -0.769638 0
M  V30 8319 H 791.783 -1.65231 -3.87655 0
M  V30 8320 H 790.507 -0.603705 -3.20972 0
M  V30 8321 H 789.166 -2.63216 -2.55172 0
M  V30 8322 H 788.814 -1.55797 -4.78264 0
M  V30 8323 H 788.514 -3.31257 -4.85327 0
M  V30 8324 H 790.038 -2.64443 -5.50366 0
M  V30 8325 H 791.452 -4.22636 -3.87365 0
M  V30 8326 H 789.849 -4.90187 -3.46175 0
M  V30 8327 H 790.919 -4.33874 -2.16522 0
M  V30 8328 N 792.262 0.832906 -1.33792 0
M  V30 8329 C 793.51 1.58539 -1.25338 0
M  V30 8330 C 793.831 1.94175 0.179204 0
M  V30 8331 O 793.101 1.61458 1.10941 0
M  V30 8332 H 791.681 0.58784 -0.460926 0
M  V30 8333 H 794.343 0.995064 -1.67584 0
M  V30 8334 H 793.439 2.51268 -1.85123 0
M  V30 8335 N 793.74 1.17359 1.05189 0
M  V30 8336 C 795.156 0.920861 1.30355 0
M  V30 8337 C 795.356 -0.419993 1.97074 0
M  V30 8338 O 794.412 -1.15696 2.24434 0
M  V30 8339 C 795.725 2.07818 2.1733 0
M  V30 8340 C 797.273 2.1152 2.30712 0
M  V30 8341 C 797.748 3.26637 3.21048 0
M  V30 8342 N 799.239 3.26426 3.28634 0
M  V30 8343 C 799.974 4.12141 3.98657 0
M  V30 8344 N 799.47 5.07966 4.71107 0
M  V30 8345 N 801.263 4.00091 3.94821 0
M  V30 8346 H 793.414 2.03666 0.602821 0
M  V30 8347 H 795.677 0.889294 0.328421 0
M  V30 8348 H 795.383 3.04727 1.75597 0
M  V30 8349 H 795.257 2.02922 3.17966 0
M  V30 8350 H 797.644 1.15196 2.71687 0
M  V30 8351 H 797.725 2.20477 1.29706 0
M  V30 8352 H 797.369 4.23227 2.80788 0
M  V30 8353 H 797.299 3.14917 4.2206 0
M  V30 8354 H 799.79 2.57045 2.77013 0
M  V30 8355 H 800.103 5.69766 5.22099 0
M  V30 8356 H 798.448 5.11936 4.7005 0
M  V30 8357 H 801.639 3.24523 3.37346 0
M  V30 8358 H 801.812 4.6711 4.49123 0
M  V30 8359 N 795.218 -1.23913 0.973828 0
M  V30 8360 C 796.166 -2.27141 0.50098 0
M  V30 8361 C 797.16 -1.63623 -0.438631 0
M  V30 8362 O 798.366 -1.77253 -0.313247 0
M  V30 8363 H 794.741 -0.73817 0.14356 0
M  V30 8364 H 796.712 -2.64392 1.38346 0
M  V30 8365 C 795.461 -3.47195 -0.187377 0
M  V30 8366 H 794.784 -3.96318 0.526535 0
M  V30 8367 H 796.224 -4.21252 -0.481962 0
M  V30 8368 C 794.683 -3.05678 -1.41642 0
M  V30 8369 O 795.213 -3.1338 -2.51309 0
M  V30 8370 N 793.419 -2.60661 -1.28469 0
M  V30 8371 H 792.966 -2.54594 -0.39238 0
M  V30 8372 H 792.924 -2.33249 -2.10813 0
M  V30 8373 N 796.696 -0.74468 -1.38897 0
M  V30 8374 C 797.945 -0.293716 -1.9955 0
M  V30 8375 C 798.258 1.12831 -1.59777 0
M  V30 8376 O 799.464 1.67929 -2.13336 0
M  V30 8377 C 797.92 -0.474188 -3.56762 0
M  V30 8378 C 797.528 -1.90472 -4.05493 0
M  V30 8379 C 799.272 -0.0854875 -4.24414 0
M  V30 8380 C 797.179 -2.03423 -5.55314 0
M  V30 8381 H 796.109 -0.106066 -0.746502 0
M  V30 8382 H 798.76 -0.919948 -1.58774 0
M  V30 8383 H 797.142 0.221092 -3.95382 0
M  V30 8384 H 798.316 -2.63274 -3.78184 0
M  V30 8385 H 796.631 -2.24752 -3.50536 0
M  V30 8386 H 799.228 -0.161133 -5.34457 0
M  V30 8387 H 799.571 0.96066 -4.05064 0
M  V30 8388 H 800.104 -0.732286 -3.91002 0
M  V30 8389 H 796.843 -3.0626 -5.79556 0
M  V30 8390 H 796.363 -1.3507 -5.84394 0
M  V30 8391 H 798.042 -1.81996 -6.20876 0
M  V30 8392 N 798.174 1.49689 -0.493057 0
M  V30 8393 C 799.422 2.02027 0.0541642 0
M  V30 8394 C 799.743 1.37554 1.38217 0
M  V30 8395 O 799.013 0.528174 1.88646 0
M  V30 8396 H 797.593 0.746646 0.0230069 0
M  V30 8397 H 800.255 1.83795 -0.648489 0
M  V30 8398 H 799.351 3.11523 0.189652 0
M  V30 8399 N 799.652 0.226554 1.55963 0
M  V30 8400 C 800.877 -0.411527 2.03276 0
M  V30 8401 C 801.302 -1.52206 1.10521 0
M  V30 8402 O 800.66 -1.81054 0.0943217 0
M  V30 8403 C 800.708 -0.915694 3.4878 0
M  V30 8404 O 799.812 -2.02672 3.59163 0
M  V30 8405 H 799.153 -0.0924907 0.657527 0
M  V30 8406 H 801.683 0.346656 2.01642 0
M  V30 8407 H 801.693 -1.22421 3.892 0
M  V30 8408 H 800.368 -0.102915 4.15773 0
M  V30 8409 H 798.945 -1.72445 3.30632 0
M  V30 8410 N 801.13 -1.57531 -0.0467866 0
M  V30 8411 C 802.08 -2.01845 -1.06031 0
M  V30 8412 C 803.064 -0.904662 -1.33059 0
M  V30 8413 O 804.256 -1.16858 -1.32941 0
M  V30 8414 C 801.385 -2.48673 -2.36679 0
M  V30 8415 C 800.471 -3.66837 -2.12818 0
M  V30 8416 N 800.862 -4.80172 -1.5896 0
M  V30 8417 C 799.16 -3.73869 -2.43183 0
M  V30 8418 C 799.861 -5.61895 -1.50494 0
M  V30 8419 N 798.837 -5.0648 -1.97431 0
M  V30 8420 H 802.639 -2.869 -0.637623 0
M  V30 8421 H 800.153 -1.6041 -0.253427 0
M  V30 8422 H 802.15 -2.78671 -3.10077 0
M  V30 8423 H 800.81 -1.65016 -2.79642 0
M  V30 8424 H 801.821 -5.01967 -1.27474 0
M  V30 8425 H 798.498 -3.00977 -2.89342 0
M  V30 8426 H 799.888 -6.62918 -1.09494 0
M  V30 8427 N 802.608 0.318715 -1.54344 0
M  V30 8428 C 803.558 1.39364 -1.80448 0
M  V30 8429 C 804.542 1.46708 -0.660728 0
M  V30 8430 O 805.734 1.51159 -0.920869 0
M  V30 8431 C 802.863 2.76144 -2.03959 0
M  V30 8432 C 801.949 2.73094 -3.24469 0
M  V30 8433 N 802.34 2.39663 -4.45416 0
M  V30 8434 C 800.638 3.04218 -3.2614 0
M  V30 8435 C 801.339 2.45469 -5.27371 0
M  V30 8436 N 800.315 2.82107 -4.64668 0
M  V30 8437 H 804.117 1.12453 -2.71535 0
M  V30 8438 H 801.631 0.527221 -1.53604 0
M  V30 8439 H 803.628 3.53627 -2.20802 0
M  V30 8440 H 802.288 3.03982 -1.14129 0
M  V30 8441 H 803.299 2.12424 -4.72331 0
M  V30 8442 H 799.976 3.37066 -2.4636 0
M  V30 8443 H 801.366 2.22571 -6.33965 0
M  V30 8444 N 804.086 1.46499 0.581025 0
M  V30 8445 C 805.332 1.52121 1.34116 0
M  V30 8446 C 805.665 0.173031 1.93428 0
M  V30 8447 O 804.94 -0.815729 1.76568 0
M  V30 8448 C 805.223 2.62108 2.46924 0
M  V30 8449 C 805.076 4.06462 1.92636 0
M  V30 8450 C 806.395 2.68167 3.48962 0
M  V30 8451 H 803.514 0.5538 0.486287 0
M  V30 8452 H 806.156 1.78443 0.652538 0
M  V30 8453 H 804.306 2.39794 3.05665 0
M  V30 8454 H 805.978 4.40068 1.3834 0
M  V30 8455 H 804.221 4.15862 1.23455 0
M  V30 8456 H 804.892 4.79152 2.74076 0
M  V30 8457 H 807.368 2.8823 3.00104 0
M  V30 8458 H 806.244 3.46942 4.2535 0
M  V30 8459 H 806.505 1.74284 4.06297 0
M  V30 8460 N 805.565 -0.825799 1.34232 0
M  V30 8461 C 806.981 -1.11848 1.13851 0
M  V30 8462 C 807.181 -2.01405 -0.0619031 0
M  V30 8463 O 806.237 -2.41465 -0.738287 0
M  V30 8464 C 807.55 -1.76797 2.43235 0
M  V30 8465 C 809.098 -1.89304 2.49265 0
M  V30 8466 C 809.573 -2.57669 3.78643 0
M  V30 8467 N 811.064 -2.65171 3.79788 0
M  V30 8468 C 811.799 -3.1879 4.76614 0
M  V30 8469 N 811.295 -3.72995 5.83821 0
M  V30 8470 N 813.088 -3.17164 4.64073 0
M  V30 8471 H 805.239 -0.230049 2.11151 0
M  V30 8472 H 807.502 -0.164609 0.9336 0
M  V30 8473 H 807.208 -1.18455 3.31152 0
M  V30 8474 H 807.082 -2.76693 2.56361 0
M  V30 8475 H 809.469 -2.46796 1.6179 0
M  V30 8476 H 809.55 -0.883191 2.4007 0
M  V30 8477 H 809.194 -2.00833 4.66507 0
M  V30 8478 H 809.124 -3.59152 3.8512 0
M  V30 8479 H 811.615 -2.26746 3.02315 0
M  V30 8480 H 811.928 -4.12151 6.53721 0
M  V30 8481 H 810.273 -3.71246 5.87538 0
M  V30 8482 H 813.464 -2.74082 3.79469 0
M  V30 8483 H 813.637 -3.58647 5.397 0
M  V30 8484 N 807.043 -1.17915 -1.04565 0
M  V30 8485 C 808.289 -0.972863 -1.77942 0
M  V30 8486 C 808.622 0.496753 -1.87739 0
M  V30 8487 O 807.897 1.3688 -1.38181 0
M  V30 8488 C 808.18 -1.62227 -3.21488 0
M  V30 8489 C 808.033 -3.16441 -3.19664 0
M  V30 8490 C 809.352 -1.33137 -4.19479 0
M  V30 8491 H 806.471 -0.354843 -0.645953 0
M  V30 8492 H 809.113 -1.45508 -1.22178 0
M  V30 8493 H 807.263 -1.21224 -3.69103 0
M  V30 8494 H 808.935 -3.66544 -2.80077 0
M  V30 8495 H 807.178 -3.48863 -2.57832 0
M  V30 8496 H 807.849 -3.57012 -4.21006 0
M  V30 8497 H 810.325 -1.68654 -3.80388 0
M  V30 8498 H 809.201 -1.81151 -5.18146 0
M  V30 8499 H 809.462 -0.253319 -4.41374 0
M  V30 8500 N 808.521 1.23394 -0.980386 0
M  V30 8501 C 809.431 2.28561 -0.528864 0
M  V30 8502 C 810.447 1.68946 0.416329 0
M  V30 8503 O 811.623 1.99355 0.286251 0
M  V30 8504 C 808.688 3.46323 0.16155 0
M  V30 8505 C 807.749 4.21297 -0.825044 0
M  V30 8506 C 806.982 5.33437 -0.167483 0
M  V30 8507 O 807.205 5.60812 1.04146 0
M  V30 8508 O 806.139 5.95637 -0.866047 0
M  V30 8509 H 809.965 2.69326 -1.40346 0
M  V30 8510 H 807.55 1.29325 -0.748019 0
M  V30 8511 H 809.432 4.17811 0.548841 0
M  V30 8512 H 808.107 3.0751 1.01092 0
M  V30 8513 H 807.014 3.52134 -1.26303 0
M  V30 8514 H 808.347 4.6396 -1.64322 0
M  V30 8515 N 809.999 0.752036 1.385 0
M  V30 8516 C 810.949 0.0990189 2.27785 0
M  V30 8517 C 811.933 -0.694867 1.45122 0
M  V30 8518 O 813.125 -0.561077 1.67872 0
M  V30 8519 C 810.254 -0.794531 3.33979 0
M  V30 8520 C 809.34 0.00611984 4.241 0
M  V30 8521 N 809.731 1.04174 4.94956 0
M  V30 8522 C 808.029 -0.220934 4.45452 0
M  V30 8523 C 808.73 1.52601 5.61327 0
M  V30 8524 N 807.706 0.84159 5.37046 0
M  V30 8525 H 811.508 0.892208 2.8003 0
M  V30 8526 H 809.022 0.587934 1.51384 0
M  V30 8527 H 811.019 -1.27797 3.96829 0
M  V30 8528 H 809.679 -1.58669 2.83292 0
M  V30 8529 H 810.69 1.42349 4.97953 0
M  V30 8530 H 807.367 -0.986556 4.05676 0
M  V30 8531 H 808.757 2.38857 6.2801 0
M  V30 8532 N 811.477 -1.49425 0.500989 0
M  V30 8533 C 812.724 -2.02453 -0.0435355 0
M  V30 8534 C 813.052 -1.38067 -1.36995 0
M  V30 8535 O 812.307 -0.505557 -1.89057 0
M  V30 8536 C 812.606 -3.56562 -0.24463 0
M  V30 8537 C 812.272 -4.39585 1.00379 0
M  V30 8538 C 810.934 -4.61992 1.346 0
M  V30 8539 C 813.286 -4.87881 1.83361 0
M  V30 8540 C 810.614 -5.2994 2.51755 0
M  V30 8541 C 812.966 -5.57119 2.99669 0
M  V30 8542 C 811.63 -5.77771 3.3427 0
M  V30 8543 H 810.9 -0.740829 -0.0159308 0
M  V30 8544 H 813.547 -1.79725 0.661143 0
M  V30 8545 H 811.852 -3.77969 -1.03183 0
M  V30 8546 H 813.549 -3.95185 -0.6804 0
M  V30 8547 H 810.139 -4.22385 0.727225 0
M  V30 8548 H 814.323 -4.70398 1.58237 0
M  V30 8549 H 809.579 -5.44133 2.788 0
M  V30 8550 H 813.753 -5.93516 3.64296 0
M  V30 8551 H 811.38 -6.30197 4.25154 0
M  V30 8552 N 812.955 -0.234822 -1.55841 0
M  V30 8553 C 813.888 0.710134 -2.16869 0
M  V30 8554 C 814.866 1.18155 -1.11706 0
M  V30 8555 O 816.05 1.26188 -1.40032 0
M  V30 8556 C 813.177 1.96368 -2.75966 0
M  V30 8557 C 812.223 1.63114 -3.94076 0
M  V30 8558 S 813.056 0.744307 -5.30302 0
M  V30 8559 C 814.212 2.00712 -5.92845 0
M  V30 8560 H 814.445 0.19146 -2.96683 0
M  V30 8561 H 811.978 -0.0193854 -1.54388 0
M  V30 8562 H 813.936 2.68338 -3.10653 0
M  V30 8563 H 812.597 2.45347 -1.96121 0
M  V30 8564 H 811.79 2.56285 -4.33975 0
M  V30 8565 H 811.392 0.991967 -3.60605 0
M  V30 8566 H 813.684 2.9557 -6.09627 0
M  V30 8567 H 814.627 1.65182 -6.88564 0
M  V30 8568 H 815.035 2.1537 -5.21801 0
M  V30 8569 N 814.433 1.57553 0.0384317 0
M  V30 8570 C 815.381 2.07021 1.06043 0
M  V30 8571 C 816.375 0.982078 1.38028 0
M  V30 8572 O 817.581 1.16702 1.37042 0
M  V30 8573 H 813.956 0.660522 0.359464 0
M  V30 8574 H 815.927 2.91944 0.617339 0
M  V30 8575 C 814.676 2.55734 2.35574 0
M  V30 8576 H 813.999 3.39074 2.11822 0
M  V30 8577 H 815.439 2.94066 3.05452 0
M  V30 8578 C 813.898 1.45449 3.03885 0
M  V30 8579 O 814.428 0.815402 3.93337 0
M  V30 8580 N 812.634 1.19134 2.65058 0
M  V30 8581 H 812.181 1.71288 1.92401 0
M  V30 8582 H 812.139 0.455554 3.11082 0
M  V30 8583 N 815.911 -0.310526 1.54511 0
M  V30 8584 C 816.861 -1.38405 1.81185 0
M  V30 8585 C 817.845 -1.46355 0.668499 0
M  V30 8586 O 819.037 -1.50668 0.928873 0
M  V30 8587 C 816.166 -2.75059 2.0542 0
M  V30 8588 C 815.252 -2.7137 3.25913 0
M  V30 8589 N 815.643 -2.37298 4.4668 0
M  V30 8590 C 813.941 -3.02484 3.27749 0
M  V30 8591 C 814.642 -2.42669 5.28665 0
M  V30 8592 N 813.618 -2.79639 4.66158 0
M  V30 8593 H 817.42 -1.11012 2.72128 0
M  V30 8594 H 814.934 -0.519068 1.53881 0
M  V30 8595 H 816.931 -3.52451 2.22674 0
M  V30 8596 H 815.591 -3.03372 1.15739 0
M  V30 8597 H 816.602 -2.09917 4.73451 0
M  V30 8598 H 813.279 -3.35754 2.48144 0
M  V30 8599 H 814.669 -2.19206 6.35136 0
M  V30 8600 N 817.389 -1.46805 -0.573248 0
M  V30 8601 C 818.614 -1.56433 -1.36175 0
M  V30 8602 C 819.039 -0.209336 -1.86932 0
M  V30 8603 O 818.397 0.812146 -1.62092 0
M  V30 8604 C 818.445 -2.58055 -2.51873 0
M  V30 8605 O 817.549 -2.12214 -3.53609 0
M  V30 8606 H 816.89 -0.526068 -0.405153 0
M  V30 8607 H 819.42 -1.92456 -0.694405 0
M  V30 8608 H 819.43 -2.77966 -2.98662 0
M  V30 8609 H 818.105 -3.56448 -2.14284 0
M  V30 8610 H 816.682 -2.02333 -3.13234 0
M  V30 8611 N 818.867 0.818669 -1.34668 0
M  V30 8612 C 820.116 1.57017 -1.26604 0
M  V30 8613 C 820.429 1.94936 0.161036 0
M  V30 8614 O 821.635 2.69051 0.36386 0
M  V30 8615 C 820.091 2.83305 -2.2196 0
M  V30 8616 C 819.699 2.52671 -3.69948 0
M  V30 8617 C 821.443 3.61324 -2.22813 0
M  V30 8618 C 819.35 3.75178 -4.5716 0
M  V30 8619 H 818.28 0.589323 -0.470335 0
M  V30 8620 H 820.931 0.900956 -1.59859 0
M  V30 8621 H 819.313 3.51874 -1.81661 0
M  V30 8622 H 820.487 1.92186 -4.18809 0
M  V30 8623 H 818.802 1.8792 -3.71584 0
M  V30 8624 H 821.399 4.52294 -2.85192 0
M  V30 8625 H 821.742 3.97759 -1.22857 0
M  V30 8626 H 822.275 2.99703 -2.61578 0
M  V30 8627 H 819.014 3.43861 -5.58068 0
M  V30 8628 H 818.534 4.34931 -4.13031 0
M  V30 8629 H 820.213 4.42542 -4.71981 0
M  V30 8630 N 820.346 1.18468 1.03938 0
M  V30 8631 C 821.574 1.00576 1.80809 0
M  V30 8632 C 821.989 -0.445786 1.83462 0
M  V30 8633 O 821.346 -1.30964 1.27101 0
M  V30 8634 C 821.397 1.55491 3.26351 0
M  V30 8635 O 821.118 2.94963 3.23926 0
M  V30 8636 C 822.619 1.42236 4.19862 0
M  V30 8637 H 819.839 0.35508 0.56935 0
M  V30 8638 H 822.383 1.57046 1.30984 0
M  V30 8639 H 820.538 1.03195 3.73403 0
M  V30 8640 H 820.952 3.20598 4.15111 0
M  V30 8641 H 822.426 1.85455 5.19914 0
M  V30 8642 H 822.903 0.371267 4.37628 0
M  V30 8643 H 823.509 1.9361 3.78675 0
M  V30 8644 N 821.824 -1.22873 0.986916 0
M  V30 8645 C 823.052 -1.95487 0.677663 0
M  V30 8646 C 823.467 -1.72978 -0.756572 0
M  V30 8647 O 822.824 -1.02517 -1.50985 0
M  V30 8648 C 822.875 -3.48337 0.966638 0
M  V30 8649 O 822.596 -3.70087 2.34451 0
M  V30 8650 C 824.097 -4.38142 0.674248 0
M  V30 8651 H 821.317 -0.622211 0.251185 0
M  V30 8652 H 823.861 -1.56187 1.32007 0
M  V30 8653 H 822.016 -3.85628 0.370137 0
M  V30 8654 H 822.43 -4.64332 2.43918 0
M  V30 8655 H 823.904 -5.44165 0.926759 0
M  V30 8656 H 824.381 -4.3745 -0.391728 0
M  V30 8657 H 824.987 -4.06469 1.25152 0
M  V30 8658 N 823.302 -0.75937 -1.38099 0
M  V30 8659 C 824.232 -0.151077 -2.33011 0
M  V30 8660 C 825.213 0.697099 -1.5516 0
M  V30 8661 O 826.398 0.637101 -1.83452 0
M  V30 8662 C 823.528 0.738423 -3.39359 0
M  V30 8663 C 822.482 -0.0074741 -4.27999 0
M  V30 8664 C 821.808 1.00066 -5.25253 0
M  V30 8665 C 823.108 -1.17926 -5.08813 0
M  V30 8666 H 824.802 -0.943933 -2.84131 0
M  V30 8667 H 822.348 -0.455362 -1.36611 0
M  V30 8668 H 824.301 1.17369 -4.04725 0
M  V30 8669 H 823.025 1.56366 -2.86735 0
M  V30 8670 H 821.684 -0.423379 -3.64147 0
M  V30 8671 H 821.332 1.82012 -4.68914 0
M  V30 8672 H 821.032 0.506199 -5.85416 0
M  V30 8673 H 822.556 1.43512 -5.93495 0
M  V30 8674 H 823.97 -0.821262 -5.67387 0
M  V30 8675 H 822.367 -1.60497 -5.78239 0
M  V30 8676 H 823.437 -1.98938 -4.42212 0
M  V30 8677 N 824.78 1.49157 -0.508906 0
M  V30 8678 C 825.743 2.27784 0.25434 0
M  V30 8679 C 826.743 1.34132 0.88686 0
M  V30 8680 O 827.933 1.5722 0.750168 0
M  V30 8681 C 825.065 3.12347 1.36573 0
M  V30 8682 H 826.258 2.96718 -0.435714 0
M  V30 8683 H 823.811 1.54052 -0.264128 0
M  V30 8684 H 824.546 2.47997 2.08969 0
M  V30 8685 H 824.331 3.81213 0.917543 0
M  V30 8686 H 825.821 3.71712 1.90315 0
M  V30 8687 N 826.258 0.243083 1.55714 0
M  V30 8688 C 827.205 -0.658078 2.21219 0
M  V30 8689 C 828.175 -1.1742 1.17481 0
M  V30 8690 O 829.36 -1.22937 1.45915 0
M  V30 8691 C 826.5 -1.85104 2.91257 0
M  V30 8692 C 825.613 -1.3718 4.09641 0
M  V30 8693 C 824.748 -2.52403 4.67404 0
M  V30 8694 C 823.787 -2.01321 5.78045 0
M  V30 8695 N 822.924 -3.09896 6.30007 0
M  V30 8696 H 827.764 -0.0927854 2.97856 0
M  V30 8697 H 825.301 -0.0340375 1.47061 0
M  V30 8698 H 827.259 -2.55179 3.3006 0
M  V30 8699 H 825.889 -2.38887 2.17101 0
M  V30 8700 H 824.941 -0.565232 3.76177 0
M  V30 8701 H 826.253 -0.957409 4.89525 0
M  V30 8702 H 825.407 -3.30525 5.08761 0
M  V30 8703 H 824.146 -2.97142 3.86728 0
M  V30 8704 H 823.151 -1.21667 5.36169 0
M  V30 8705 H 824.376 -1.57556 6.6057 0
M  V30 8706 H 822.322 -3.54077 5.52237 0
M  V30 8707 H 822.239 -2.72776 7.05074 0
M  V30 8708 H 823.507 -3.8809 6.76023 0
M  V30 8709 N 827.736 -1.57571 -0.0300757 0
M  V30 8710 C 829.013 -1.80381 -0.756447 0
M  V30 8711 C 829.393 -0.840906 -1.93628 0
M  V30 8712 O 828.741 0.117143 -2.282 0
M  V30 8713 C 828.951 -3.2807 -1.19043 0
M  V30 8714 C 830.299 -3.93025 -1.60676 0
M  V30 8715 O 831.323 -3.32213 -1.28503 0
M  V30 8716 O 830.182 -5.00092 -2.20386 0
M  V30 8717 H 827.276 -0.741737 -0.365725 0
M  V30 8718 H 829.822 -1.69699 -0.00693177 0
M  V30 8719 H 828.594 -3.89748 -0.348128 0
M  V30 8720 H 828.217 -3.43637 -1.99999 0
M  V30 8721 N 829.214 0.302327 -1.54673 0
M  V30 8722 C 830.442 1.05669 -1.77881 0
M  V30 8723 C 830.857 1.80983 -0.537648 0
M  V30 8724 O 830.214 1.7573 0.492467 0
M  V30 8725 C 830.265 2.03828 -2.98557 0
M  V30 8726 O 829.986 1.3157 -4.17877 0
M  V30 8727 C 831.487 2.91314 -3.34143 0
M  V30 8728 H 828.707 0.313436 -0.593295 0
M  V30 8729 H 831.251 0.342003 -2.0162 0
M  V30 8730 H 829.406 2.70801 -2.7703 0
M  V30 8731 H 829.82 1.97481 -4.85903 0
M  V30 8732 H 831.294 3.56042 -4.21827 0
M  V30 8733 H 831.771 3.59544 -2.52239 0
M  V30 8734 H 832.377 2.29874 -3.57824 0
M  V30 8735 N 830.692 1.47107 0.565454 0
M  V30 8736 C 832.103 1.47266 1.1476 0
M  V30 8737 C 832.454 0.222841 1.9493 0
M  V30 8738 O 831.579 -0.672862 2.05673 0
M  V30 8739 C 832.174 2.66822 2.08785 0
M  V30 8740 C 830.733 2.69967 2.62288 0
M  V30 8741 C 829.88 2.40236 1.38499 0
M  V30 8742 H 832.831 1.54736 0.352479 0
M  V30 8743 H 832.852 2.43323 2.92531 0
M  V30 8744 H 832.364 3.5777 1.50408 0
M  V30 8745 H 830.465 1.83137 3.24487 0
M  V30 8746 H 830.578 3.70426 3.03845 0
M  V30 8747 H 828.942 1.90648 1.68895 0
M  V30 8748 H 829.725 3.33381 0.819274 0
M  V30 8749 N 832.17 -0.811516 1.35101 0
M  V30 8750 C 833.1 -1.9378 1.30275 0
M  V30 8751 C 834.081 -1.69165 0.178075 0
M  V30 8752 O 835.266 -1.90599 0.372256 0
M  V30 8753 C 832.396 -3.30439 1.06899 0
M  V30 8754 C 831.35 -3.69523 2.15955 0
M  V30 8755 C 830.676 -5.0429 1.77751 0
M  V30 8756 C 831.976 -3.80419 3.57881 0
M  V30 8757 H 833.67 -1.98075 2.24514 0
M  V30 8758 H 831.216 -0.951586 1.08078 0
M  V30 8759 H 833.169 -4.08828 1.02164 0
M  V30 8760 H 831.893 -3.26473 0.0910462 0
M  V30 8761 H 830.552 -2.93416 2.19778 0
M  V30 8762 H 830.2 -4.96823 0.785876 0
M  V30 8763 H 829.9 -5.31411 2.5075 0
M  V30 8764 H 831.424 -5.85125 1.74533 0
M  V30 8765 H 832.838 -4.49051 3.56407 0
M  V30 8766 H 831.235 -4.19005 4.29598 0
M  V30 8767 H 832.305 -2.82105 3.94391 0
M  V30 8768 N 833.648 -1.19017 -1.03309 0
M  V30 8769 C 834.558 -0.939303 -2.14975 0
M  V30 8770 C 835.574 0.0992359 -1.73717 0
M  V30 8771 O 836.75 -0.0844362 -2.01223 0
M  V30 8772 C 833.815 -0.476712 -3.43407 0
M  V30 8773 C 832.876 -1.58413 -3.99003 0
M  V30 8774 C 832.109 -1.14352 -5.21305 0
M  V30 8775 O 832.332 -0.00534408 -5.704 0
M  V30 8776 O 831.266 -1.94436 -5.6963 0
M  V30 8777 H 835.092 -1.87386 -2.38998 0
M  V30 8778 H 832.677 -0.972635 -1.13403 0
M  V30 8779 H 834.559 -0.22718 -4.20787 0
M  V30 8780 H 833.234 0.429455 -3.20839 0
M  V30 8781 H 832.141 -1.88777 -3.22977 0
M  V30 8782 H 833.474 -2.4667 -4.25928 0
M  V30 8783 N 835.127 1.22348 -0.993418 0
M  V30 8784 C 836.037 2.27987 -0.553076 0
M  V30 8785 C 837.053 1.69378 0.398386 0
M  V30 8786 O 838.229 1.99648 0.26509 0
M  V30 8787 C 835.294 3.46475 0.124809 0
M  V30 8788 C 834.355 4.20399 -0.869682 0
M  V30 8789 C 833.588 5.33229 -0.224052 0
M  V30 8790 O 833.811 5.61885 0.981915 0
M  V30 8791 O 832.745 5.94685 -0.929174 0
M  V30 8792 H 836.571 2.67822 -1.43195 0
M  V30 8793 H 834.156 1.28525 -0.761694 0
M  V30 8794 H 836.038 4.18369 0.504496 0
M  V30 8795 H 834.713 3.08565 0.978243 0
M  V30 8796 H 833.62 3.50774 -1.30031 0
M  V30 8797 H 834.953 4.62191 -1.69233 0
M  V30 8798 N 836.605 0.766683 1.37694 0
M  V30 8799 C 837.851 0.329201 2.0011 0
M  V30 8800 C 838.184 -1.09004 1.60723 0
M  V30 8801 O 837.459 -1.74895 0.850989 0
M  V30 8802 C 837.742 0.466989 3.57059 0
M  V30 8803 C 837.595 1.92828 4.06371 0
M  V30 8804 C 838.914 -0.131792 4.39903 0
M  V30 8805 H 836.033 0.12109 0.726984 0
M  V30 8806 H 838.675 0.968779 1.63446 0
M  V30 8807 H 836.825 -0.0775023 3.88423 0
M  V30 8808 H 838.497 2.53208 3.85595 0
M  V30 8809 H 836.74 2.43884 3.58752 0
M  V30 8810 H 837.411 1.97577 5.15429 0
M  V30 8811 H 839.887 0.332731 4.14768 0
M  V30 8812 H 838.763 -0.005217 5.489 0
M  V30 8813 H 839.024 -1.22156 4.24889 0
M  V30 8814 N 838.083 -1.48885 0.516809 0
M  V30 8815 C 839.329 -2.02788 -0.0220928 0
M  V30 8816 C 839.662 -1.39433 -1.35175 0
M  V30 8817 O 838.937 -0.535459 -1.86984 0
M  V30 8818 C 839.22 -3.59753 -0.158012 0
M  V30 8819 C 839.073 -4.33611 1.19588 0
M  V30 8820 C 840.392 -4.30984 -0.891133 0
M  V30 8821 H 837.511 -0.736971 -0.00655488 0
M  V30 8822 H 840.153 -1.77746 0.671287 0
M  V30 8823 H 838.303 -3.8122 -0.748568 0
M  V30 8824 H 839.975 -4.23598 1.82653 0
M  V30 8825 H 838.218 -3.95547 1.78116 0
M  V30 8826 H 838.889 -5.41846 1.05391 0
M  V30 8827 H 841.365 -4.14267 -0.39012 0
M  V30 8828 H 840.241 -5.40527 -0.955107 0
M  V30 8829 H 840.502 -3.97336 -1.93847 0
M  V30 8830 N 839.561 -0.251338 -1.55583 0
M  V30 8831 C 840.508 0.646337 -2.21565 0
M  V30 8832 C 841.478 1.16796 -1.18102 0
M  V30 8833 O 842.663 1.22162 -1.46564 0
M  V30 8834 C 839.803 1.83557 -2.92234 0
M  V30 8835 C 838.916 1.35006 -4.10363 0
M  V30 8836 C 838.051 2.4992 -4.68736 0
M  V30 8837 C 837.09 1.98253 -5.79105 0
M  V30 8838 N 836.227 3.06551 -6.31642 0
M  V30 8839 H 841.067 0.0769881 -2.97901 0
M  V30 8840 H 838.604 0.026238 -1.47077 0
M  V30 8841 H 840.562 2.53425 -3.31408 0
M  V30 8842 H 839.192 2.37733 -2.18364 0
M  V30 8843 H 838.244 0.545274 -3.76472 0
M  V30 8844 H 839.556 0.931435 -4.90026 0
M  V30 8845 H 838.71 3.27823 -5.10507 0
M  V30 8846 H 837.449 2.95086 -3.88298 0
M  V30 8847 H 836.454 1.18822 -5.36807 0
M  V30 8848 H 837.679 1.54051 -6.61396 0
M  V30 8849 H 835.625 3.51143 -5.54107 0
M  V30 8850 H 835.542 2.69033 -7.06511 0
M  V30 8851 H 836.81 3.84499 -6.78071 0
M  V30 8852 N 841.039 1.57585 0.0217189 0
M  V30 8853 C 842.285 1.89887 0.712099 0
M  V30 8854 C 842.618 0.849971 1.74611 0
M  V30 8855 O 841.893 -0.13407 1.94037 0
M  V30 8856 C 842.176 3.32815 1.37499 0
M  V30 8857 C 842.029 4.48405 0.353993 0
M  V30 8858 C 843.348 3.74786 2.30703 0
M  V30 8859 H 840.467 0.690588 0.257405 0
M  V30 8860 H 843.109 1.89983 -0.0251145 0
M  V30 8861 H 841.259 3.32863 2.00335 0
M  V30 8862 H 842.931 4.60491 -0.273015 0
M  V30 8863 H 841.174 4.32573 -0.32599 0
M  V30 8864 H 841.845 5.45316 0.85644 0
M  V30 8865 H 844.321 3.76151 1.77904 0
M  V30 8866 H 843.197 4.75585 2.74061 0
M  V30 8867 H 843.458 3.07449 3.17691 0
M  V30 8868 N 842.517 -0.29412 1.54831 0
M  V30 8869 C 843.763 -1.02999 1.74697 0
M  V30 8870 C 844.096 -1.86687 0.534949 0
M  V30 8871 O 843.371 -1.88789 -0.467863 0
M  V30 8872 C 843.654 -1.93024 3.03996 0
M  V30 8873 C 843.507 -1.1247 4.35512 0
M  V30 8874 C 844.826 -2.92085 3.29203 0
M  V30 8875 H 841.945 -0.373039 0.635618 0
M  V30 8876 H 844.587 -0.304065 1.87551 0
M  V30 8877 H 842.737 -2.5492 2.93169 0
M  V30 8878 H 844.409 -0.528067 4.58268 0
M  V30 8879 H 842.652 -0.427574 4.31688 0
M  V30 8880 H 843.323 -1.78728 5.22265 0
M  V30 8881 H 845.799 -2.40319 3.39685 0
M  V30 8882 H 844.675 -3.52234 4.20978 0
M  V30 8883 H 844.936 -3.66107 2.47827 0
M  V30 8884 N 843.995 -1.47404 -0.557645 0
M  V30 8885 C 845.223 -1.57622 -1.34026 0
M  V30 8886 C 845.638 -0.226256 -1.87439 0
M  V30 8887 O 844.995 0.78043 -1.64971 0
M  V30 8888 C 845.046 -2.60111 -2.51047 0
M  V30 8889 O 844.767 -3.89866 -1.99841 0
M  V30 8890 C 846.268 -2.80508 -3.43264 0
M  V30 8891 H 843.488 -0.532271 -0.40857 0
M  V30 8892 H 846.032 -1.93019 -0.675555 0
M  V30 8893 H 844.187 -2.27648 -3.13457 0
M  V30 8894 H 844.601 -4.45864 -2.76234 0
M  V30 8895 H 846.075 -3.56084 -4.21792 0
M  V30 8896 H 846.552 -1.88314 -3.9678 0
M  V30 8897 H 847.158 -3.14166 -2.86671 0
M  V30 8898 N 845.473 0.80434 -1.35529 0
M  V30 8899 C 846.698 1.598 -1.32207 0
M  V30 8900 C 847.123 1.87848 0.0974226 0
M  V30 8901 O 846.481 1.46728 1.06492 0
M  V30 8902 C 846.529 2.90483 -2.13663 0
M  V30 8903 O 845.633 3.83411 -1.51888 0
M  V30 8904 H 844.974 0.485305 -0.453183 0
M  V30 8905 H 847.504 0.998119 -1.78602 0
M  V30 8906 H 847.514 3.39888 -2.257 0
M  V30 8907 H 846.189 2.69395 -3.16859 0
M  V30 8908 H 844.766 3.41967 -1.48704 0
M  V30 8909 N 846.951 1.19563 1.02676 0
M  V30 8910 C 848.179 1.02488 1.79732 0
M  V30 8911 C 848.594 -0.426302 1.83924 0
M  V30 8912 O 847.951 -1.29609 1.28483 0
M  V30 8913 C 848.002 1.58944 3.24683 0
M  V30 8914 O 847.723 2.98382 3.2078 0
M  V30 8915 C 849.224 1.46681 4.1833 0
M  V30 8916 H 846.444 0.361098 0.565552 0
M  V30 8917 H 848.988 1.58426 1.29311 0
M  V30 8918 H 847.143 1.0715 3.72287 0
M  V30 8919 H 847.557 3.24983 4.11687 0
M  V30 8920 H 849.031 1.90959 5.17918 0
M  V30 8921 H 849.508 0.417663 4.3721 0
M  V30 8922 H 850.114 1.97616 3.76601 0
M  V30 8923 N 848.429 -1.21819 0.999893 0
M  V30 8924 C 849.706 -1.86318 0.595384 0
M  V30 8925 C 850.086 -1.8965 -0.927143 0
M  V30 8926 O 849.434 -1.3921 -1.81199 0
M  V30 8927 C 849.644 -3.26837 1.22387 0
M  V30 8928 C 850.992 -4.03272 1.32878 0
M  V30 8929 O 852.016 -3.36129 1.1788 0
M  V30 8930 O 850.875 -5.23477 1.56952 0
M  V30 8931 H 847.969 -0.801638 0.203238 0
M  V30 8932 H 850.515 -1.29542 1.09622 0
M  V30 8933 H 849.287 -3.19084 2.26497 0
M  V30 8934 H 848.91 -3.91226 0.709069 0
M  V30 8935 N 849.908 -0.773975 -1.37286 0
M  V30 8936 C 851.154 -0.339809 -1.99933 0
M  V30 8937 C 851.487 1.0815 -1.61299 0
M  V30 8938 O 850.762 1.74442 -0.860252 0
M  V30 8939 C 851.045 -0.485919 -3.56806 0
M  V30 8940 C 850.898 -1.9498 -4.05343 0
M  V30 8941 C 852.217 0.108461 -4.39966 0
M  V30 8942 H 849.336 -0.124944 -0.726332 0
M  V30 8943 H 851.978 -0.977433 -1.6293 0
M  V30 8944 H 850.128 0.0569023 -3.88458 0
M  V30 8945 H 851.8 -2.5525 -3.84246 0
M  V30 8946 H 850.043 -2.45784 -3.57453 0
M  V30 8947 H 850.714 -2.00308 -5.14374 0
M  V30 8948 H 853.19 -0.354722 -4.14585 0
M  V30 8949 H 852.066 -0.0238926 -5.48895 0
M  V30 8950 H 852.327 1.19901 -4.25531 0
M  V30 8951 N 851.386 1.48609 -0.524698 0
M  V30 8952 C 852.614 2.06899 0.00742946 0
M  V30 8953 C 853.029 1.38196 1.28637 0
M  V30 8954 O 852.386 0.467771 1.76403 0
M  V30 8955 C 852.437 3.60699 0.240548 0
M  V30 8956 O 852.158 4.26821 -0.987715 0
M  V30 8957 C 853.659 4.35769 0.813652 0
M  V30 8958 H 850.879 0.670278 -0.0311294 0
M  V30 8959 H 853.423 1.91071 -0.728832 0
M  V30 8960 H 851.578 3.76149 0.926845 0
M  V30 8961 H 851.992 5.18889 -0.765175 0
M  V30 8962 H 853.466 5.44174 0.926219 0
M  V30 8963 H 853.943 3.9984 1.81728 0
M  V30 8964 H 854.549 4.24983 0.164086 0
M  V30 8965 N 852.864 0.259585 1.55447 0
M  V30 8966 C 853.774 -0.645026 2.25558 0
M  V30 8967 C 854.79 -1.18291 1.27606 0
M  V30 8968 O 855.966 -1.21649 1.6051 0
M  V30 8969 C 853.031 -1.81964 2.9511 0
M  V30 8970 C 852.092 -1.31997 4.08504 0
M  V30 8971 C 851.325 -2.43861 4.74729 0
M  V30 8972 O 851.548 -3.62876 4.40088 0
M  V30 8973 O 850.482 -2.12898 5.6299 0
M  V30 8974 H 854.308 -0.0775399 3.03601 0
M  V30 8975 H 851.893 0.0275859 1.49375 0
M  V30 8976 H 853.775 -2.50485 3.38873 0
M  V30 8977 H 852.45 -2.37451 2.19997 0
M  V30 8978 H 851.357 -0.601676 3.6923 0
M  V30 8979 H 852.69 -0.811045 4.85472 0
M  V30 8980 N 854.342 -1.57594 -0.0133615 0
M  V30 8981 C 855.572 -1.93969 -0.711295 0
M  V30 8982 C 855.98 -0.859084 -1.68572 0
M  V30 8983 O 855.323 0.171842 -1.82894 0
M  V30 8984 C 855.385 -3.2625 -1.51001 0
M  V30 8985 C 855.049 -4.51628 -0.698645 0
M  V30 8986 C 856.046 -5.19899 0.00791185 0
M  V30 8987 C 853.731 -4.98095 -0.648553 0
M  V30 8988 C 855.725 -6.32928 0.753691 0
M  V30 8989 C 853.412 -6.11017 0.10096 0
M  V30 8990 C 854.41 -6.78289 0.800828 0
M  V30 8991 O 854.098 -7.89048 1.53814 0
M  V30 8992 H 853.83 -0.6445 -0.203951 0
M  V30 8993 H 856.384 -2.05378 0.0298267 0
M  V30 8994 H 854.614 -3.11211 -2.29531 0
M  V30 8995 H 856.303 -3.47835 -2.09202 0
M  V30 8996 H 857.069 -4.84995 -0.0217192 0
M  V30 8997 H 852.948 -4.45568 -1.18282 0
M  V30 8998 H 856.492 -6.85371 1.3005 0
M  V30 8999 H 852.389 -6.45364 0.132459 0
M  V30 9000 H 853.157 -8.05492 1.45345 0
M  V30 9001 N 855.82 0.285905 -1.54985 0
M  V30 9002 C 857.231 0.857869 -1.65824 0
M  V30 9003 C 857.582 1.87531 -0.576763 0
M  V30 9004 O 856.707 2.14528 0.284016 0
M  V30 9005 C 857.302 1.56277 -3.00604 0
M  V30 9006 C 855.861 2.08294 -3.13513 0
M  V30 9007 C 855.008 0.920633 -2.61571 0
M  V30 9008 H 857.959 0.0625463 -1.58577 0
M  V30 9009 H 857.98 2.42912 -2.92872 0
M  V30 9010 H 857.492 0.822017 -3.79295 0
M  V30 9011 H 855.593 2.8537 -2.39572 0
M  V30 9012 H 855.706 2.3071 -4.19892 0
M  V30 9013 H 854.07 1.31043 -2.18403 0
M  V30 9014 H 854.853 0.193594 -3.42754 0
M  V30 9015 N 857.298 1.47698 0.54982 0
M  V30 9016 C 858.228 1.63622 1.66583 0
M  V30 9017 C 859.209 0.485477 1.63025 0
M  V30 9018 O 860.394 0.715692 1.80531 0
M  V30 9019 C 857.524 1.65721 3.05211 0
M  V30 9020 C 856.478 2.80097 3.2362 0
M  V30 9021 C 855.804 2.67272 4.63109 0
M  V30 9022 C 857.104 4.21612 3.08286 0
M  V30 9023 H 858.798 2.57049 1.53512 0
M  V30 9024 H 856.344 1.23705 0.737099 0
M  V30 9025 H 858.297 1.75451 3.83138 0
M  V30 9026 H 857.021 0.688593 3.19258 0
M  V30 9027 H 855.68 2.69889 2.48104 0
M  V30 9028 H 855.328 1.68422 4.73965 0
M  V30 9029 H 855.028 3.44008 4.76374 0
M  V30 9030 H 856.552 2.78942 5.43161 0
M  V30 9031 H 857.966 4.32758 3.76024 0
M  V30 9032 H 856.363 4.99193 3.33057 0
M  V30 9033 H 857.433 4.39462 2.04942 0
M  V30 9034 N 858.776 -0.797141 1.35954 0
M  V30 9035 C 860.022 -1.55698 1.29946 0
M  V30 9036 C 860.355 -1.93808 -0.123259 0
M  V30 9037 O 859.63 -1.62102 -1.07486 0
M  V30 9038 C 859.913 -2.83926 2.2149 0
M  V30 9039 C 859.766 -2.52232 3.72423 0
M  V30 9040 C 861.085 -3.85698 2.11955 0
M  V30 9041 H 858.204 -0.56488 0.47337 0
M  V30 9042 H 860.846 -0.916421 1.66438 0
M  V30 9043 H 858.996 -3.38588 1.905 0
M  V30 9044 H 860.668 -2.0368 4.13899 0
M  V30 9045 H 858.911 -1.85286 3.92239 0
M  V30 9046 H 859.582 -3.43782 4.31877 0
M  V30 9047 H 862.058 -3.40462 2.39218 0
M  V30 9048 H 860.934 -4.73182 2.78191 0
M  V30 9049 H 861.195 -4.28083 1.10442 0
M  V30 9050 N 860.254 -1.20106 -1.0204 0
M  V30 9051 C 861.164 -0.962051 -2.13967 0
M  V30 9052 C 862.18 0.0808053 -1.73812 0
M  V30 9053 O 863.356 -0.105774 -2.01122 0
M  V30 9054 C 860.421 -0.513108 -3.42882 0
M  V30 9055 C 859.482 -1.62636 -3.97301 0
M  V30 9056 C 858.715 -1.19875 -5.20063 0
M  V30 9057 O 858.938 -0.0658423 -5.70362 0
M  V30 9058 O 857.872 -2.00467 -5.67536 0
M  V30 9059 H 861.698 -1.8991 -2.36998 0
M  V30 9060 H 859.283 -0.984608 -1.12365 0
M  V30 9061 H 861.165 -0.271797 -4.20523 0
M  V30 9062 H 859.84 0.395402 -3.21276 0
M  V30 9063 H 858.747 -1.92192 -3.20957 0
M  V30 9064 H 860.08 -2.51174 -4.23288 0
M  V30 9065 N 861.732 1.21287 -1.00634 0
M  V30 9066 C 862.957 1.94925 -0.708441 0
M  V30 9067 C 863.382 1.73659 0.722783 0
M  V30 9068 O 862.74 1.02429 1.49593 0
M  V30 9069 C 862.788 3.45377 -1.03667 0
M  V30 9070 O 861.892 4.12153 -0.142661 0
M  V30 9071 H 861.233 0.609338 -0.263824 0
M  V30 9072 H 863.763 1.54008 -1.34695 0
M  V30 9073 H 863.773 3.95954 -0.984086 0
M  V30 9074 H 862.448 3.6018 -2.0795 0
M  V30 9075 H 861.025 3.72048 -0.251888 0
M  V30 9076 N 863.21 0.781244 1.36873 0
M  V30 9077 C 864.438 0.361566 2.03716 0
M  V30 9078 C 864.853 -1.01937 1.58916 0
M  V30 9079 O 864.21 -1.65237 0.774783 0
M  V30 9080 C 864.261 0.406391 3.59208 0
M  V30 9081 O 863.982 1.73286 4.02372 0
M  V30 9082 C 865.483 -0.0236894 4.43294 0
M  V30 9083 H 862.703 0.150133 0.653988 0
M  V30 9084 H 865.247 1.05781 1.75016 0
M  V30 9085 H 863.402 -0.241364 3.86647 0
M  V30 9086 H 863.816 1.67804 4.96933 0
M  V30 9087 H 865.29 0.0588205 5.51969 0
M  V30 9088 H 865.767 -1.07529 4.25833 0
M  V30 9089 H 866.373 0.59624 4.211 0
M  V30 9090 N 864.689 -1.48329 0.532571 0
M  V30 9091 C 865.599 -2.33445 -0.232546 0
M  V30 9092 C 866.615 -1.46651 -0.93645 0
M  V30 9093 O 867.791 -1.79627 -0.910834 0
M  V30 9094 C 864.856 -3.22824 -1.26434 0
M  V30 9095 C 863.917 -4.25492 -0.570511 0
M  V30 9096 C 863.15 -5.10601 -1.55315 0
M  V30 9097 O 863.373 -4.97733 -2.78599 0
M  V30 9098 O 862.307 -5.91927 -1.09112 0
M  V30 9099 H 866.133 -3.00119 0.464988 0
M  V30 9100 H 863.718 -1.46489 0.293462 0
M  V30 9101 H 865.6 -3.78103 -1.86055 0
M  V30 9102 H 864.275 -2.58807 -1.94424 0
M  V30 9103 H 863.182 -3.74041 0.0662587 0
M  V30 9104 H 864.515 -4.92154 0.0674904 0
M  V30 9105 N 866.167 -0.267825 -1.55308 0
M  V30 9106 C 867.392 0.357487 -2.04296 0
M  V30 9107 C 867.817 1.49222 -1.14518 0
M  V30 9108 O 867.175 1.80741 -0.142292 0
M  V30 9109 C 867.223 0.822899 -3.51085 0
M  V30 9110 O 866.327 1.93078 -3.6441 0
M  V30 9111 H 865.668 0.075025 -0.659748 0
M  V30 9112 H 868.198 -0.399996 -2.00652 0
M  V30 9113 H 868.208 1.12059 -3.92309 0
M  V30 9114 H 866.883 -0.0073562 -4.15899 0
M  V30 9115 H 865.46 1.63618 -3.35087 0
M  V30 9116 N 867.645 1.57599 0.00500368 0
M  V30 9117 C 868.577 2.04949 1.02609 0
M  V30 9118 C 869.59 0.966507 1.31006 0
M  V30 9119 O 870.779 1.2434 1.2807 0
M  V30 9120 C 867.879 2.43023 2.36206 0
M  V30 9121 C 867.052 3.73993 2.26821 0
M  V30 9122 C 866.111 3.9899 3.43065 0
M  V30 9123 O 865.137 4.69725 3.21477 0
M  V30 9124 N 866.339 3.46496 4.65748 0
M  V30 9125 H 869.104 2.93167 0.622336 0
M  V30 9126 H 866.665 1.60752 0.192488 0
M  V30 9127 H 868.657 2.56863 3.12735 0
M  V30 9128 H 867.227 1.60349 2.68341 0
M  V30 9129 H 866.447 3.70277 1.35235 0
M  V30 9130 H 867.735 4.59865 2.17719 0
M  V30 9131 H 867.133 2.89206 4.86186 0
M  V30 9132 H 865.69 3.65675 5.3956 0
M  V30 9133 N 869.123 -0.277682 1.55134 0
M  V30 9134 C 870.372 -1.00766 1.74726 0
M  V30 9135 C 870.685 -1.87617 0.553092 0
M  V30 9136 O 871.891 -2.64058 0.631318 0
M  V30 9137 C 870.347 -1.84147 3.09221 0
M  V30 9138 C 869.955 -1.02186 4.3619 0
M  V30 9139 C 871.699 -2.56604 3.38164 0
M  V30 9140 C 869.606 -1.84978 5.61727 0
M  V30 9141 H 868.536 -0.379948 0.651273 0
M  V30 9142 H 871.187 -0.263543 1.81598 0
M  V30 9143 H 869.569 -2.62637 2.96375 0
M  V30 9144 H 870.743 -0.281459 4.5994 0
M  V30 9145 H 869.058 -0.412054 4.14356 0
M  V30 9146 H 871.655 -3.18942 4.29162 0
M  V30 9147 H 871.998 -3.26647 2.58085 0
M  V30 9148 H 872.531 -1.85147 3.52087 0
M  V30 9149 H 869.27 -1.19365 6.4454 0
M  V30 9150 H 868.79 -2.56628 5.42128 0
M  V30 9151 H 870.469 -2.42458 5.99853 0
M  V30 9152 N 870.601 -1.47988 -0.541979 0
M  V30 9153 C 871.531 -1.64503 -1.65713 0
M  V30 9154 C 872.512 -0.494116 -1.62765 0
M  V30 9155 O 873.697 -0.725256 -1.80149 0
M  V30 9156 C 870.827 -1.67337 -3.04328 0
M  V30 9157 C 869.781 -2.81809 -3.2213 0
M  V30 9158 C 869.107 -2.69724 -4.61685 0
M  V30 9159 C 870.407 -4.23241 -3.06046 0
M  V30 9160 H 872.101 -2.5786 -1.52147 0
M  V30 9161 H 869.647 -1.24094 -0.730529 0
M  V30 9162 H 871.6 -1.77481 -3.82202 0
M  V30 9163 H 870.324 -0.705514 -3.18889 0
M  V30 9164 H 868.983 -2.71201 -2.46669 0
M  V30 9165 H 868.631 -1.70934 -4.73065 0
M  V30 9166 H 868.331 -3.4653 -4.74543 0
M  V30 9167 H 869.855 -2.81818 -5.41674 0
M  V30 9168 H 871.269 -4.34746 -3.73723 0
M  V30 9169 H 869.666 -5.00952 -3.30405 0
M  V30 9170 H 870.736 -4.40543 -2.02609 0
M  V30 9171 N 872.079 0.78992 -1.36375 0
M  V30 9172 C 873.325 1.55007 -1.3077 0
M  V30 9173 C 873.658 1.93871 0.112979 0
M  V30 9174 O 872.933 1.6267 1.06625 0
M  V30 9175 C 873.216 2.82748 -2.22993 0
M  V30 9176 C 873.069 2.50253 -3.73756 0
M  V30 9177 C 874.388 3.84569 -2.13998 0
M  V30 9178 H 871.507 0.562362 -0.476359 0
M  V30 9179 H 874.149 0.907582 -1.66922 0
M  V30 9180 H 872.299 3.37573 -1.92292 0
M  V30 9181 H 873.971 2.01482 -4.14973 0
M  V30 9182 H 872.214 1.83203 -3.93216 0
M  V30 9183 H 872.885 3.41487 -4.33694 0
M  V30 9184 H 875.361 3.39188 -2.4102 0
M  V30 9185 H 874.237 4.717 -2.80697 0
M  V30 9186 H 874.498 4.27491 -1.12711 0
M  V30 9187 N 873.557 1.20646 1.01402 0
M  V30 9188 C 874.805 1.01618 1.74695 0
M  V30 9189 C 875.126 -0.452438 1.89679 0
M  V30 9190 O 874.396 -1.32693 1.44116 0
M  V30 9191 H 872.976 0.373013 0.647202 0
M  V30 9192 H 875.638 1.518 1.22241 0
M  V30 9193 H 874.734 1.47666 2.74957 0
M  V30 9194 N 875.035 -1.20752 1.01276 0
M  V30 9195 C 876.284 -1.8934 0.695229 0
M  V30 9196 C 876.597 -1.79459 -0.77806 0
M  V30 9197 O 877.803 -2.43146 -1.20799 0
M  V30 9198 C 876.259 -3.39548 1.1931 0
M  V30 9199 C 875.867 -3.58023 2.69302 0
M  V30 9200 C 877.611 -4.13714 0.950823 0
M  V30 9201 C 875.518 -5.02037 3.1259 0
M  V30 9202 H 874.448 -0.709084 0.25635 0
M  V30 9203 H 877.099 -1.36629 1.22494 0
M  V30 9204 H 875.481 -3.91559 0.591395 0
M  V30 9205 H 876.655 -3.16416 3.34989 0
M  V30 9206 H 874.97 -2.97222 2.9163 0
M  V30 9207 H 877.567 -5.19891 1.24971 0
M  V30 9208 H 877.91 -4.16147 -0.112791 0
M  V30 9209 H 878.443 -3.67792 1.51571 0
M  V30 9210 H 875.182 -5.04757 4.18211 0
M  V30 9211 H 874.702 -5.44469 2.51621 0
M  V30 9212 H 876.381 -5.70594 3.0501 0
M  V30 9213 N 876.513 -0.788492 -1.36457 0
M  V30 9214 C 877.759 -0.360995 -1.99561 0
M  V30 9215 C 878.092 1.06433 -1.62437 0
M  V30 9216 O 877.367 1.7352 -0.878705 0
M  V30 9217 C 877.65 -0.523735 -3.56271 0
M  V30 9218 C 877.503 -1.99268 -4.03252 0
M  V30 9219 C 878.822 0.0617908 -4.40057 0
M  V30 9220 H 875.941 -0.13264 -0.724966 0
M  V30 9221 H 878.583 -0.994659 -1.61884 0
M  V30 9222 H 876.733 0.0156979 -3.88497 0
M  V30 9223 H 878.405 -2.59311 -3.81518 0
M  V30 9224 H 876.648 -2.49561 -3.54826 0
M  V30 9225 H 877.319 -2.05752 -5.12221 0
M  V30 9226 H 879.795 -0.398674 -4.14186 0
M  V30 9227 H 878.671 -0.0821089 -5.48839 0
M  V30 9228 H 878.932 1.15381 -4.26778 0
M  V30 9229 N 877.991 1.48044 -0.54043 0
M  V30 9230 C 878.923 2.2779 0.253854 0
M  V30 9231 C 879.936 1.35999 0.894883 0
M  V30 9232 O 881.125 1.60963 0.771563 0
M  V30 9233 C 878.225 3.09724 1.37566 0
M  V30 9234 C 877.398 4.29364 0.83459 0
M  V30 9235 C 876.457 4.93026 1.83881 0
M  V30 9236 O 875.483 5.51927 1.39159 0
M  V30 9237 N 876.685 4.86207 3.17149 0
M  V30 9238 H 879.45 2.96597 -0.430125 0
M  V30 9239 H 877.011 1.57487 -0.375423 0
M  V30 9240 H 879.003 3.49181 2.04584 0
M  V30 9241 H 877.573 2.43269 1.96314 0
M  V30 9242 H 876.793 3.94198 -0.0118878 0
M  V30 9243 H 878.081 5.06787 0.452155 0
M  V30 9244 H 877.479 4.39523 3.56141 0
M  V30 9245 H 876.036 5.29733 3.79771 0
M  V30 9246 N 879.47 0.276058 1.55163 0
M  V30 9247 C 880.886 -0.0780579 1.59409 0
M  V30 9248 C 881.086 -1.54521 1.29327 0
M  V30 9249 O 880.142 -2.29422 1.05459 0
M  V30 9250 C 881.455 0.297422 2.99225 0
M  V30 9251 C 883.003 0.244117 3.12047 0
M  V30 9252 C 883.478 0.594051 4.54131 0
M  V30 9253 N 884.969 0.54564 4.59975 0
M  V30 9254 C 885.704 0.789192 5.67943 0
M  V30 9255 N 885.2 1.09741 6.84053 0
M  V30 9256 N 886.993 0.717926 5.57496 0
M  V30 9257 H 879.144 1.23251 1.72982 0
M  V30 9258 H 881.407 0.497988 0.806667 0
M  V30 9259 H 881.113 1.31782 3.26077 0
M  V30 9260 H 880.987 -0.361286 3.75466 0
M  V30 9261 H 883.374 -0.766992 2.84958 0
M  V30 9262 H 883.455 0.937097 2.38017 0
M  V30 9263 H 883.099 1.60285 4.81945 0
M  V30 9264 H 883.029 -0.120728 5.26462 0
M  V30 9265 H 885.52 0.317334 3.76565 0
M  V30 9266 H 885.833 1.26989 7.62295 0
M  V30 9267 H 884.178 1.13519 6.85666 0
M  V30 9268 H 887.369 0.47697 4.65664 0
M  V30 9269 H 887.542 0.911118 6.41563 0
M  V30 9270 N 880.948 -1.576 0.00335426 0
M  V30 9271 C 881.911 -2.07576 -0.971838 0
M  V30 9272 C 882.911 -0.985796 -1.27038 0
M  V30 9273 O 884.101 -1.24833 -1.21501 0
M  V30 9274 C 881.233 -2.52003 -2.29581 0
M  V30 9275 H 882.426 -2.95008 -0.539481 0
M  V30 9276 H 879.979 -1.54381 -0.244186 0
M  V30 9277 H 880.714 -1.67825 -2.77498 0
M  V30 9278 H 880.499 -3.31609 -2.09231 0
M  V30 9279 H 881.989 -2.90983 -2.99531 0
M  V30 9280 N 882.426 0.269451 -1.5528 0
M  V30 9281 C 883.358 1.35553 -1.84819 0
M  V30 9282 C 884.371 1.45369 -0.732914 0
M  V30 9283 O 885.56 1.47122 -1.0108 0
M  V30 9284 C 882.66 2.73645 -1.9993 0
M  V30 9285 C 881.833 2.86376 -3.30617 0
M  V30 9286 C 880.892 4.05165 -3.35749 0
M  V30 9287 O 879.918 3.95756 -4.09104 0
M  V30 9288 N 881.12 5.17297 -2.63408 0
M  V30 9289 H 883.885 1.10557 -2.78563 0
M  V30 9290 H 881.446 0.459566 -1.5524 0
M  V30 9291 H 883.438 3.51411 -2.00729 0
M  V30 9292 H 882.008 2.91448 -1.13035 0
M  V30 9293 H 881.228 1.95465 -3.42326 0
M  V30 9294 H 882.516 2.91815 -4.16799 0
M  V30 9295 H 881.914 5.2783 -2.03501 0
M  V30 9296 H 880.471 5.93281 -2.69927 0
M  V30 9297 N 883.904 1.48273 0.534124 0
M  V30 9298 C 884.834 1.6538 1.64839 0
M  V30 9299 C 885.815 0.502741 1.62501 0
M  V30 9300 O 887 0.734799 1.79762 0
M  V30 9301 C 884.13 1.68949 3.03436 0
M  V30 9302 C 883.084 2.83513 3.20631 0
M  V30 9303 C 882.41 2.72169 4.60248 0
M  V30 9304 C 883.71 4.24858 3.03797 0
M  V30 9305 H 885.404 2.58663 1.50777 0
M  V30 9306 H 882.95 1.24479 0.723937 0
M  V30 9307 H 884.903 1.79505 3.81256 0
M  V30 9308 H 883.627 0.722415 3.1851 0
M  V30 9309 H 882.286 2.72505 2.45227 0
M  V30 9310 H 881.934 1.7344 4.72152 0
M  V30 9311 H 881.634 3.49042 4.72698 0
M  V30 9312 H 883.158 2.84687 5.40172 0
M  V30 9313 H 884.572 4.36721 3.71413 0
M  V30 9314 H 882.969 5.02697 3.27743 0
M  V30 9315 H 884.039 4.41611 2.0027 0
M  V30 9316 N 885.382 -0.782676 1.36792 0
M  V30 9317 C 886.628 -1.54311 1.3159 0
M  V30 9318 C 886.961 -1.93928 -0.102696 0
M  V30 9319 O 886.236 -1.63233 -1.05761 0
M  V30 9320 C 886.519 -2.81561 2.24489 0
M  V30 9321 C 886.372 -2.48268 3.75078 0
M  V30 9322 C 887.691 -3.83428 2.16034 0
M  V30 9323 H 884.81 -0.559828 0.479335 0
M  V30 9324 H 887.452 -0.898717 1.67401 0
M  V30 9325 H 885.602 -3.36549 1.9408 0
M  V30 9326 H 887.274 -1.99279 4.16036 0
M  V30 9327 H 885.517 -1.81116 3.94182 0
M  V30 9328 H 886.188 -3.39183 4.35499 0
M  V30 9329 H 888.664 -3.37905 2.42815 0
M  V30 9330 H 887.54 -4.70204 2.83194 0
M  V30 9331 H 887.801 -4.26887 1.14976 0
M  V30 9332 N 886.86 -1.21182 -1.00761 0
M  V30 9333 C 887.792 -0.926523 -2.09638 0
M  V30 9334 C 888.805 0.0892511 -1.62555 0
M  V30 9335 O 889.994 -0.142915 -1.77927 0
M  V30 9336 C 887.094 -0.369175 -3.36883 0
M  V30 9337 C 886.267 -1.43866 -4.13063 0
M  V30 9338 C 885.326 -0.891015 -5.18601 0
M  V30 9339 O 884.352 -1.57384 -5.47009 0
M  V30 9340 N 885.554 0.295057 -5.7975 0
M  V30 9341 H 888.319 -1.8638 -2.34697 0
M  V30 9342 H 885.88 -1.11671 -1.17223 0
M  V30 9343 H 887.872 0.011534 -4.04698 0
M  V30 9344 H 886.442 0.472861 -3.09003 0
M  V30 9345 H 885.662 -1.99332 -3.40089 0
M  V30 9346 H 886.95 -2.15866 -4.60738 0
M  V30 9347 H 886.348 0.8669 -5.59018 0
M  V30 9348 H 884.905 0.617306 -6.4887 0
M  V30 9349 N 888.338 1.20213 -1.01915 0
M  V30 9350 C 889.301 2.21307 -0.596327 0
M  V30 9351 C 890.301 1.57274 0.334879 0
M  V30 9352 O 891.491 1.73764 0.12322 0
M  V30 9353 C 888.623 3.40657 0.128808 0
M  V30 9354 H 889.816 2.60228 -1.49068 0
M  V30 9355 H 887.369 1.33721 -0.809226 0
M  V30 9356 H 888.104 3.07241 1.03796 0
M  V30 9357 H 887.889 3.88361 -0.540183 0
M  V30 9358 H 889.379 4.15564 0.411892 0
M  V30 9359 N 889.816 0.795718 1.36037 0
M  V30 9360 C 890.746 0.212803 2.32528 0
M  V30 9361 C 891.727 -0.655716 1.56953 0
M  V30 9362 O 892.912 -0.588238 1.85077 0
M  V30 9363 C 890.042 -0.648189 3.41198 0
M  V30 9364 C 888.996 0.120948 4.27829 0
M  V30 9365 C 888.322 -0.861044 5.27722 0
M  V30 9366 C 889.622 1.31375 5.05508 0
M  V30 9367 H 891.316 1.01893 2.81528 0
M  V30 9368 H 888.862 0.491422 1.35355 0
M  V30 9369 H 890.815 -1.06597 4.07695 0
M  V30 9370 H 889.539 -1.48709 2.9078 0
M  V30 9371 H 888.198 0.519777 3.62897 0
M  V30 9372 H 887.846 -1.69515 4.73575 0
M  V30 9373 H 887.546 -0.350808 5.86552 0
M  V30 9374 H 889.07 -1.27726 5.97092 0
M  V30 9375 H 890.484 0.971406 5.6501 0
M  V30 9376 H 888.881 1.75772 5.73781 0
M  V30 9377 H 889.951 2.10593 4.36782 0
M  V30 9378 N 891.294 -1.47756 0.548274 0
M  V30 9379 C 892.226 -2.27921 -0.24177 0
M  V30 9380 C 893.239 -1.36471 -0.887658 0
M  V30 9381 O 894.428 -1.6137 -0.763016 0
M  V30 9382 C 891.528 -3.10449 -1.35922 0
M  V30 9383 C 890.701 -4.298 -0.811808 0
M  V30 9384 C 889.76 -4.93994 -1.81264 0
M  V30 9385 O 888.786 -5.52657 -1.3623 0
M  V30 9386 N 889.988 -4.87882 -3.14566 0
M  V30 9387 H 892.753 -2.96365 0.445848 0
M  V30 9388 H 890.314 -1.57286 0.383769 0
M  V30 9389 H 892.306 -3.50261 -2.02729 0
M  V30 9390 H 890.876 -2.44306 -1.95021 0
M  V30 9391 H 890.096 -3.94186 0.0327929 0
M  V30 9392 H 891.384 -5.0702 -0.425272 0
M  V30 9393 H 890.782 -4.41405 -3.53805 0
M  V30 9394 H 889.339 -5.3174 -3.76956 0
M  V30 9395 N 892.772 -0.284283 -1.55015 0
M  V30 9396 C 893.735 0.586182 -2.21577 0
M  V30 9397 C 894.735 1.07427 -1.1965 0
M  V30 9398 O 895.925 0.972977 -1.44495 0
M  V30 9399 C 893.057 1.80973 -2.88897 0
M  V30 9400 H 894.25 0.00487253 -2.999 0
M  V30 9401 H 891.803 -0.0349696 -1.56261 0
M  V30 9402 H 892.538 2.43131 -2.14611 0
M  V30 9403 H 892.323 1.46757 -3.636 0
M  V30 9404 H 893.813 2.42853 -3.39724 0
M  V30 9405 N 894.251 1.57596 -0.0117121 0
M  V30 9406 C 895.161 2.12596 0.991964 0
M  V30 9407 C 896.177 1.07399 1.36899 0
M  V30 9408 O 897.353 1.39365 1.45394 0
M  V30 9409 C 894.418 2.62796 2.2614 0
M  V30 9410 C 893.479 3.8264 1.94642 0
M  V30 9411 C 892.712 4.30435 3.15533 0
M  V30 9412 O 892.935 3.77495 4.27614 0
M  V30 9413 O 891.869 5.22469 2.98847 0
M  V30 9414 H 895.695 2.98597 0.554371 0
M  V30 9415 H 893.28 1.47947 0.207839 0
M  V30 9416 H 895.162 2.9523 3.00695 0
M  V30 9417 H 893.837 1.79886 2.69114 0
M  V30 9418 H 892.744 3.5516 1.17526 0
M  V30 9419 H 894.077 4.66658 1.56496 0
M  V30 9420 N 895.729 -0.261212 1.5542 0
M  V30 9421 C 897.14 -0.83138 1.67167 0
M  V30 9422 C 897.491 -1.8659 0.606525 0
M  V30 9423 O 896.616 -2.14953 -0.24985 0
M  V30 9424 C 897.211 -1.51475 3.03052 0
M  V30 9425 C 895.77 -2.0328 3.16787 0
M  V30 9426 C 894.917 -0.878903 2.63003 0
M  V30 9427 H 897.868 -0.0373102 1.58656 0
M  V30 9428 H 897.889 -2.38222 2.96699 0
M  V30 9429 H 897.401 -0.76157 3.80554 0
M  V30 9430 H 895.502 -2.81523 2.44082 0
M  V30 9431 H 895.615 -2.24001 4.2351 0
M  V30 9432 H 893.979 -1.27551 2.2046 0
M  V30 9433 H 894.762 -0.13904 3.43018 0
M  V30 9434 N 897.207 -1.48554 -0.526253 0
M  V30 9435 C 898.618 -1.50256 -1.10815 0
M  V30 9436 C 898.969 -0.274445 -1.94271 0
M  V30 9437 O 898.094 0.618094 -2.07385 0
M  V30 9438 C 898.689 -2.72264 -2.01638 0
M  V30 9439 C 897.248 -2.76826 -2.55038 0
M  V30 9440 C 896.395 -2.43823 -1.32081 0
M  V30 9441 H 899.346 -1.55616 -0.31133 0
M  V30 9442 H 899.367 -2.50993 -2.85977 0
M  V30 9443 H 898.879 -3.61632 -1.4087 0
M  V30 9444 H 896.98 -1.91676 -3.19517 0
M  V30 9445 H 897.093 -3.78351 -2.93917 0
M  V30 9446 H 895.457 -1.95058 -1.63781 0
M  V30 9447 H 896.24 -3.35436 -0.730596 0
M  V30 9448 N 898.685 0.775411 -1.37205 0
M  V30 9449 C 899.91 1.5696 -1.35567 0
M  V30 9450 C 900.335 1.88012 0.0575554 0
M  V30 9451 O 899.693 1.48954 1.03355 0
M  V30 9452 C 899.741 2.85886 -2.19776 0
M  V30 9453 O 898.845 3.80103 -1.59987 0
M  V30 9454 H 898.186 0.475583 -0.463375 0
M  V30 9455 H 900.716 0.96001 -1.80679 0
M  V30 9456 H 900.726 3.35024 -2.32859 0
M  V30 9457 H 899.401 2.62613 -3.22502 0
M  V30 9458 H 897.978 3.38736 -1.55924 0
M  V30 9459 N 900.163 1.21714 1.00117 0
M  V30 9460 C 901.579 0.97532 1.26332 0
M  V30 9461 C 901.779 -0.336029 1.98678 0
M  V30 9462 O 900.835 -1.06073 2.29139 0
M  V30 9463 C 902.148 2.16848 2.0832 0
M  V30 9464 C 903.696 2.21115 2.21533 0
M  V30 9465 C 904.171 3.3996 3.06906 0
M  V30 9466 N 905.662 3.40071 3.14494 0
M  V30 9467 C 906.397 4.28678 3.80818 0
M  V30 9468 N 905.893 5.2749 4.49139 0
M  V30 9469 N 907.686 4.16476 3.77497 0
M  V30 9470 H 899.837 2.06039 0.515897 0
M  V30 9471 H 902.1 0.902423 0.290408 0
M  V30 9472 H 901.806 3.119 1.62515 0
M  V30 9473 H 901.68 2.16226 3.09073 0
M  V30 9474 H 904.067 1.26616 2.66557 0
M  V30 9475 H 904.148 2.2578 1.20238 0
M  V30 9476 H 903.792 4.34755 2.62585 0
M  V30 9477 H 903.722 3.32534 4.08324 0
M  V30 9478 H 906.213 2.68563 2.65861 0
M  V30 9479 H 906.526 5.91397 4.97463 0
M  V30 9480 H 904.871 5.31412 4.47914 0
M  V30 9481 H 908.062 3.38539 3.23278 0
M  V30 9482 H 908.235 4.85739 4.28908 0
M  V30 9483 N 901.641 -1.19671 1.02551 0
M  V30 9484 C 902.604 -2.20987 0.608055 0
M  V30 9485 C 903.604 -1.5745 -0.326534 0
M  V30 9486 O 904.794 -1.73827 -0.114003 0
M  V30 9487 C 901.926 -3.4072 -0.11074 0
M  V30 9488 H 903.119 -2.59434 1.50446 0
M  V30 9489 H 900.672 -1.3329 0.816307 0
M  V30 9490 H 901.407 -3.07787 -1.02165 0
M  V30 9491 H 901.192 -3.88069 0.560772 0
M  V30 9492 H 902.682 -4.15776 -0.389848 0
M  V30 9493 N 903.119 -0.802921 -1.35613 0
M  V30 9494 C 904.53 -0.443004 -1.81368 0
M  V30 9495 C 904.881 1.03459 -1.66706 0
M  V30 9496 O 904.006 1.80372 -1.19561 0
M  V30 9497 C 904.601 -0.797324 -3.29284 0
M  V30 9498 C 903.16 -0.490055 -3.73196 0
M  V30 9499 C 902.307 -1.02487 -2.57666 0
M  V30 9500 H 905.258 -0.994888 -1.23643 0
M  V30 9501 H 905.279 -0.0934638 -3.80385 0
M  V30 9502 H 904.791 -1.87278 -3.39924 0
M  V30 9503 H 902.892 0.576818 -3.68108 0
M  V30 9504 H 903.005 -1.02012 -4.68114 0
M  V30 9505 H 901.369 -0.44738 -2.5074 0
M  V30 9506 H 902.152 -2.10636 -2.71085 0
M  V30 9507 N 904.597 1.47463 -0.556102 0
M  V30 9508 C 905.845 2.02075 -0.0315712 0
M  V30 9509 C 906.166 1.43292 1.32259 0
M  V30 9510 O 905.436 0.60771 1.86236 0
M  V30 9511 H 904.016 0.74695 -0.0086816 0
M  V30 9512 H 906.678 1.80879 -0.725859 0
M  V30 9513 H 905.774 3.12047 0.0573538 0
M  V30 9514 N 906.075 0.2925 1.54862 0
M  V30 9515 C 907.025 -0.60226 2.19902 0
M  V30 9516 C 908.009 -1.10535 1.16923 0
M  V30 9517 O 909.201 -1.04753 1.42674 0
M  V30 9518 C 906.33 -1.77774 2.93686 0
M  V30 9519 C 905.416 -1.29101 4.03972 0
M  V30 9520 N 905.807 -0.521671 5.03103 0
M  V30 9521 C 904.105 -1.57248 4.17359 0
M  V30 9522 C 904.806 -0.263545 5.81103 0
M  V30 9523 N 903.782 -0.840937 5.37056 0
M  V30 9524 H 907.584 -0.00682274 2.93899 0
M  V30 9525 H 905.098 0.0968604 1.62111 0
M  V30 9526 H 907.095 -2.43021 3.38743 0
M  V30 9527 H 905.755 -2.37696 2.21203 0
M  V30 9528 H 906.766 -0.167364 5.1763 0
M  V30 9529 H 903.443 -2.1798 3.56077 0
M  V30 9530 H 904.833 0.353783 6.70968 0
M  V30 9531 N 907.553 -1.57587 0.0200696 0
M  V30 9532 C 908.485 -2.06555 -0.993359 0
M  V30 9533 C 909.498 -0.987227 -1.29451 0
M  V30 9534 O 910.687 -1.26361 -1.26075 0
M  V30 9535 C 907.787 -2.4675 -2.3231 0
M  V30 9536 C 906.96 -3.77554 -2.20843 0
M  V30 9537 C 906.019 -4.04397 -3.36674 0
M  V30 9538 O 905.045 -4.7478 -3.13963 0
M  V30 9539 N 906.247 -3.53861 -4.60176 0
M  V30 9540 H 909.012 -2.9412 -0.575617 0
M  V30 9541 H 906.573 -1.61038 -0.166889 0
M  V30 9542 H 908.565 -2.61806 -3.08609 0
M  V30 9543 H 907.135 -1.64598 -2.65756 0
M  V30 9544 H 906.355 -3.72382 -1.29327 0
M  V30 9545 H 907.643 -4.63271 -2.10375 0
M  V30 9546 H 907.041 -2.96904 -4.81523 0
M  V30 9547 H 905.598 -3.74213 -5.33674 0
M  V30 9548 N 909.032 0.252966 -1.55557 0
M  V30 9549 C 909.964 1.33585 -1.86246 0
M  V30 9550 C 910.977 1.44584 -0.748291 0
M  V30 9551 O 912.166 1.46042 -1.02635 0
M  V30 9552 C 909.266 2.71509 -2.02821 0
M  V30 9553 C 908.439 2.82853 -3.33636 0
M  V30 9554 C 907.498 4.01581 -3.40028 0
M  V30 9555 O 906.524 3.91394 -4.13278 0
M  V30 9556 N 907.726 5.14474 -2.6888 0
M  V30 9557 H 910.491 1.07596 -2.7972 0
M  V30 9558 H 908.052 0.443075 -1.55719 0
M  V30 9559 H 910.044 3.49262 -2.04445 0
M  V30 9560 H 908.614 2.90232 -1.1612 0
M  V30 9561 H 907.834 1.91823 -3.4438 0
M  V30 9562 H 909.122 2.87378 -4.19871 0
M  V30 9563 H 908.52 5.25641 -2.09087 0
M  V30 9564 H 907.077 5.90385 -2.76204 0
M  V30 9565 N 910.51 1.48831 0.518367 0
M  V30 9566 C 911.75 1.59045 1.28391 0
M  V30 9567 C 912.114 0.263443 1.90184 0
M  V30 9568 O 913.315 0.24064 2.67721 0
M  V30 9569 C 911.586 2.70536 2.33548 0
M  V30 9570 S 913.145 3.00591 3.19673 0
M  V30 9571 H 909.963 0.561182 0.436573 0
M  V30 9572 H 912.565 1.86409 0.589222 0
M  V30 9573 H 911.269 3.65499 1.86652 0
M  V30 9574 H 910.8 2.4511 3.07708 0
M  V30 9575 H 912.815 2.40779 4.33866 0
M  V30 9576 N 911.988 -0.768124 1.37614 0
M  V30 9577 C 912.918 -1.89537 1.36374 0
M  V30 9578 C 913.899 -1.68513 0.231803 0
M  V30 9579 O 915.084 -1.89318 0.432705 0
M  V30 9580 C 912.214 -3.26871 1.17358 0
M  V30 9581 C 911.168 -3.62466 2.27602 0
M  V30 9582 C 910.494 -4.9838 1.93705 0
M  V30 9583 C 911.794 -3.68841 3.69802 0
M  V30 9584 H 913.488 -1.90832 2.30702 0
M  V30 9585 H 911.034 -0.91672 1.11051 0
M  V30 9586 H 912.987 -4.05371 1.15119 0
M  V30 9587 H 911.711 -3.26018 0.194865 0
M  V30 9588 H 910.37 -2.86276 2.29002 0
M  V30 9589 H 910.018 -4.94071 0.943539 0
M  V30 9590 H 909.718 -5.23165 2.6753 0
M  V30 9591 H 911.242 -5.79276 1.93059 0
M  V30 9592 H 912.656 -4.37485 3.70513 0
M  V30 9593 H 911.053 -4.05126 4.42711 0
M  V30 9594 H 912.123 -2.69415 4.03167 0
M  V30 9595 N 913.466 -1.22244 -0.994698 0
M  V30 9596 C 914.398 -0.948706 -2.08644 0
M  V30 9597 C 915.411 0.0720049 -1.62641 0
M  V30 9598 O 916.6 -0.161778 -1.77765 0
M  V30 9599 C 913.7 -0.404885 -3.36473 0
M  V30 9600 C 912.873 -1.48239 -4.11514 0
M  V30 9601 C 911.932 -0.94597 -5.17627 0
M  V30 9602 O 910.958 -1.63177 -5.45309 0
M  V30 9603 N 912.16 0.23355 -5.8003 0
M  V30 9604 H 914.925 -1.88858 -2.32707 0
M  V30 9605 H 912.486 -1.12908 -1.16032 0
M  V30 9606 H 914.478 -0.0313903 -4.04688 0
M  V30 9607 H 913.048 0.440061 -3.09487 0
M  V30 9608 H 912.268 -2.02928 -3.37955 0
M  V30 9609 H 913.556 -2.20741 -4.58422 0
M  V30 9610 H 912.954 0.80756 -5.59906 0
M  V30 9611 H 911.511 0.54845 -6.49488 0
M  V30 9612 N 914.944 1.19125 -1.03184 0
M  V30 9613 C 916.221 1.84674 -0.644574 0
M  V30 9614 C 916.601 1.92042 0.876534 0
M  V30 9615 O 915.949 1.43965 1.77444 0
M  V30 9616 C 916.159 3.23477 -1.3101 0
M  V30 9617 C 917.507 3.99608 -1.43524 0
M  V30 9618 O 918.531 3.32886 -1.2675 0
M  V30 9619 O 917.39 5.19132 -1.70776 0
M  V30 9620 H 914.484 0.795968 -0.22442 0
M  V30 9621 H 917.03 1.2659 -1.13018 0
M  V30 9622 H 915.802 3.12967 -2.34878 0
M  V30 9623 H 915.425 3.89209 -0.812547 0
M  V30 9624 N 916.422 0.810101 1.35185 0
M  V30 9625 C 917.671 0.388589 1.97921 0
M  V30 9626 C 917.984 -1.05079 1.64978 0
M  V30 9627 O 919.19 -1.57559 2.21105 0
M  V30 9628 C 917.646 0.643864 3.54094 0
M  V30 9629 C 917.254 2.09602 3.95943 0
M  V30 9630 C 918.998 0.287883 4.23523 0
M  V30 9631 C 916.905 2.29686 5.44976 0
M  V30 9632 H 915.835 0.141562 0.740592 0
M  V30 9633 H 918.486 0.994653 1.54204 0
M  V30 9634 H 916.868 -0.0321978 3.95987 0
M  V30 9635 H 918.042 2.81018 3.65192 0
M  V30 9636 H 916.357 2.4122 3.39414 0
M  V30 9637 H 918.954 0.415946 5.3308 0
M  V30 9638 H 919.297 -0.766305 4.09186 0
M  V30 9639 H 919.83 0.918004 3.87063 0
M  V30 9640 H 916.569 3.33563 5.64284 0
M  V30 9641 H 916.089 1.62798 5.77284 0
M  V30 9642 H 917.768 2.11411 6.11485 0
M  V30 9643 N 917.9 -1.47166 0.563914 0
M  V30 9644 C 918.83 -2.32894 -0.168148 0
M  V30 9645 C 919.811 -1.44202 -0.902214 0
M  V30 9646 O 920.996 -1.73048 -0.881365 0
M  V30 9647 C 918.126 -3.26116 -1.19439 0
M  V30 9648 C 917.08 -4.24101 -0.576363 0
M  V30 9649 C 916.406 -5.06696 -1.70772 0
M  V30 9650 C 917.706 -5.20142 0.47425 0
M  V30 9651 H 919.4 -2.9435 0.547573 0
M  V30 9652 H 916.946 -1.41545 0.264778 0
M  V30 9653 H 918.899 -3.84935 -1.71474 0
M  V30 9654 H 917.623 -2.62728 -1.94014 0
M  V30 9655 H 916.282 -3.66519 -0.0772534 0
M  V30 9656 H 915.93 -4.39707 -2.44268 0
M  V30 9657 H 915.63 -5.7304 -1.29994 0
M  V30 9658 H 917.154 -5.68375 -2.2312 0
M  V30 9659 H 918.568 -5.73286 0.0397035 0
M  V30 9660 H 916.965 -5.94726 0.801287 0
M  V30 9661 H 918.035 -4.65214 1.36764 0
M  V30 9662 N 919.378 -0.300708 -1.54705 0
M  V30 9663 C 920.341 0.562648 -2.22187 0
M  V30 9664 C 921.341 1.06152 -1.20782 0
M  V30 9665 O 922.531 0.957596 -1.45519 0
M  V30 9666 C 919.663 1.77899 -2.908 0
M  V30 9667 H 920.856 -0.0269361 -2.99888 0
M  V30 9668 H 918.409 -0.0515412 -1.56215 0
M  V30 9669 H 919.144 2.40841 -2.17177 0
M  V30 9670 H 918.929 1.42892 -3.65136 0
M  V30 9671 H 920.419 2.39236 -3.42281 0
M  V30 9672 N 920.856 1.57574 -0.0284266 0
M  V30 9673 C 922.272 1.56194 0.327958 0
M  V30 9674 C 922.472 1.03397 1.72949 0
M  V30 9675 O 921.528 0.680392 2.4316 0
M  V30 9676 C 922.841 3.00177 0.177196 0
M  V30 9677 C 924.389 3.12 0.250014 0
M  V30 9678 C 924.864 4.57821 0.128049 0
M  V30 9679 N 926.355 4.6283 0.185054 0
M  V30 9680 C 927.09 5.73286 0.114454 0
M  V30 9681 N 926.586 6.928 -0.00719225 0
M  V30 9682 N 928.379 5.61848 0.16839 0
M  V30 9683 H 920.53 1.90224 -0.944921 0
M  V30 9684 H 922.793 0.874987 -0.364832 0
M  V30 9685 H 922.499 3.42753 -0.788224 0
M  V30 9686 H 922.373 3.65101 0.94768 0
M  V30 9687 H 924.76 2.69337 1.20589 0
M  V30 9688 H 924.841 2.49799 -0.550835 0
M  V30 9689 H 924.485 5.01165 -0.824407 0
M  V30 9690 H 924.415 5.18001 0.947753 0
M  V30 9691 H 926.906 3.76867 0.279247 0
M  V30 9692 H 927.219 7.72781 -0.0543903 0
M  V30 9693 H 925.564 6.94987 -0.0419648 0
M  V30 9694 H 928.755 4.67367 0.261821 0
M  V30 9695 H 928.928 6.47907 0.109908 0
M  V30 9696 N 922.334 -0.244713 1.55689 0
M  V30 9697 C 923.582 -0.970525 1.77272 0
M  V30 9698 C 923.903 -1.85771 0.592804 0
M  V30 9699 O 923.173 -1.91952 -0.391323 0
M  V30 9700 H 921.753 -0.361342 0.653789 0
M  V30 9701 H 924.415 -0.262134 1.93129 0
M  V30 9702 H 923.511 -1.59096 2.68505 0
M  V30 9703 N 923.813 -1.49104 -0.510467 0
M  V30 9704 C 925.053 -1.59723 -1.27545 0
M  V30 9705 C 925.417 -0.273525 -1.90042 0
M  V30 9706 O 926.618 -0.254835 -2.67589 0
M  V30 9707 C 924.889 -2.71771 -2.3211 0
M  V30 9708 S 926.448 -3.02282 -3.18074 0
M  V30 9709 H 923.266 -0.563489 -0.433591 0
M  V30 9710 H 925.868 -1.86719 -0.579328 0
M  V30 9711 H 924.572 -3.66483 -1.84711 0
M  V30 9712 H 924.103 -2.46739 -3.06404 0
M  V30 9713 H 926.118 -2.43076 -4.32583 0
M  V30 9714 N 925.291 0.760815 -1.38019 0
M  V30 9715 C 926.702 1.33773 -1.30237 0
M  V30 9716 C 927.053 1.96148 0.0451153 0
M  V30 9717 O 926.178 1.94574 0.9471 0
M  V30 9718 C 926.773 2.43227 -2.35851 0
M  V30 9719 C 925.332 2.96659 -2.31669 0
M  V30 9720 C 924.479 1.69972 -2.191 0
M  V30 9721 H 927.43 0.560237 -1.48482 0
M  V30 9722 H 927.451 3.22985 -2.01149 0
M  V30 9723 H 926.963 1.978 -3.33911 0
M  V30 9724 H 925.064 3.46433 -1.37167 0
M  V30 9725 H 925.177 3.51529 -3.25521 0
M  V30 9726 H 923.541 1.9332 -1.65829 0
M  V30 9727 H 924.324 1.26633 -3.19091 0
M  V30 9728 N 926.769 1.22769 0.988202 0
M  V30 9729 C 927.997 1.08155 1.76381 0
M  V30 9730 C 928.412 -0.367573 1.85187 0
M  V30 9731 O 927.769 -1.25455 1.32541 0
M  V30 9732 C 927.82 1.69193 3.19462 0
M  V30 9733 O 927.541 3.08437 3.11125 0
M  V30 9734 C 929.042 1.59915 4.13451 0
M  V30 9735 H 926.262 0.378908 0.553778 0
M  V30 9736 H 928.806 1.6246 1.24206 0
M  V30 9737 H 926.961 1.18939 3.6869 0
M  V30 9738 H 927.375 3.37916 4.0114 0
M  V30 9739 H 928.849 2.07339 5.1158 0
M  V30 9740 H 929.326 0.556546 4.3566 0
M  V30 9741 H 929.932 2.09497 3.70123 0
M  V30 9742 N 928.247 -1.18576 1.03814 0
M  V30 9743 C 929.157 -2.25778 0.637311 0
M  V30 9744 C 930.173 -1.7074 -0.335248 0
M  V30 9745 O 931.349 -2.00494 -0.19081 0
M  V30 9746 C 928.414 -3.467 0.00386953 0
M  V30 9747 C 927.475 -4.16881 1.02511 0
M  V30 9748 C 926.708 -5.32031 0.421802 0
M  V30 9749 O 926.931 -5.65142 -0.772699 0
M  V30 9750 O 925.865 -5.90826 1.14925 0
M  V30 9751 H 929.691 -2.62323 1.53037 0
M  V30 9752 H 927.276 -1.25609 0.80887 0
M  V30 9753 H 929.158 -4.19953 -0.348873 0
M  V30 9754 H 927.833 -3.11983 -0.863047 0
M  V30 9755 H 926.74 -3.45707 1.4296 0
M  V30 9756 H 928.073 -4.55592 1.86271 0
M  V30 9757 N 929.725 -0.817259 -1.34754 0
M  V30 9758 C 931.136 -0.462215 -1.80888 0
M  V30 9759 C 931.487 1.01685 -1.67794 0
M  V30 9760 O 930.612 1.79094 -1.21468 0
M  V30 9761 C 931.207 -0.832204 -3.2842 0
M  V30 9762 C 929.766 -0.52961 -3.72655 0
M  V30 9763 C 928.913 -1.05214 -2.56564 0
M  V30 9764 H 931.864 -1.00795 -1.22581 0
M  V30 9765 H 931.885 -0.133804 -3.80265 0
M  V30 9766 H 931.397 -1.90873 -3.37919 0
M  V30 9767 H 929.498 0.537743 -3.68699 0
M  V30 9768 H 929.611 -1.06971 -4.67005 0
M  V30 9769 H 927.975 -0.473949 -2.50251 0
M  V30 9770 H 928.758 -2.135 -2.68836 0
M  V30 9771 N 931.203 1.46865 -0.571711 0
M  V30 9772 C 932.449 2.0273 -0.0531858 0
M  V30 9773 C 932.782 1.44353 1.29907 0
M  V30 9774 O 932.057 0.604488 1.84868 0
M  V30 9775 C 932.34 3.60092 0.0243831 0
M  V30 9776 C 932.193 4.28874 -1.35599 0
M  V30 9777 C 933.512 4.33994 0.730563 0
M  V30 9778 H 930.631 0.736706 -0.0208018 0
M  V30 9779 H 933.273 1.75132 -0.736794 0
M  V30 9780 H 931.423 3.83736 0.606565 0
M  V30 9781 H 933.095 4.16527 -1.98249 0
M  V30 9782 H 931.338 3.88664 -1.92674 0
M  V30 9783 H 932.009 5.37561 -1.25429 0
M  V30 9784 H 934.485 4.1543 0.236098 0
M  V30 9785 H 933.361 5.43699 0.753836 0
M  V30 9786 H 933.622 4.04257 1.78967 0
M  V30 9787 N 932.681 0.308908 1.54543 0
M  V30 9788 C 933.909 -0.300418 2.04707 0
M  V30 9789 C 934.324 -1.46915 1.18581 0
M  V30 9790 O 933.681 -1.81251 0.213186 0
M  V30 9791 C 933.732 -0.749038 3.53655 0
M  V30 9792 O 933.453 0.373181 4.36508 0
M  V30 9793 C 934.954 -1.4227 4.1985 0
M  V30 9794 H 932.174 -0.0641267 0.667929 0
M  V30 9795 H 934.718 0.450839 1.99469 0
M  V30 9796 H 932.873 -1.4503 3.59228 0
M  V30 9797 H 933.287 0.0224752 5.24495 0
M  V30 9798 H 934.761 -1.68768 5.25568 0
M  V30 9799 H 935.238 -2.36531 3.70067 0
M  V30 9800 H 935.844 -0.764404 4.18374 0
M  V30 9801 N 934.159 -1.57557 0.0367827 0
M  V30 9802 C 935.089 -2.13712 -0.940719 0
M  V30 9803 C 936.07 -1.05515 -1.33419 0
M  V30 9804 O 937.255 -1.33385 -1.41146 0
M  V30 9805 C 934.385 -2.67043 -2.22048 0
M  V30 9806 C 933.339 -3.80096 -1.96752 0
M  V30 9807 C 932.665 -4.19886 -3.31059 0
M  V30 9808 C 933.965 -5.05848 -1.30058 0
M  V30 9809 H 935.659 -2.9564 -0.473033 0
M  V30 9810 H 933.205 -1.42214 -0.226089 0
M  V30 9811 H 935.158 -3.04964 -2.90818 0
M  V30 9812 H 933.882 -1.82287 -2.70996 0
M  V30 9813 H 932.541 -3.42625 -1.30398 0
M  V30 9814 H 932.189 -3.32101 -3.77781 0
M  V30 9815 H 931.889 -4.96073 -3.14937 0
M  V30 9816 H 933.413 -4.60395 -4.01084 0
M  V30 9817 H 934.827 -5.41306 -1.8884 0
M  V30 9818 H 933.224 -5.87084 -1.24309 0
M  V30 9819 H 934.294 -4.84122 -0.274591 0
M  V30 9820 N 935.637 0.236453 -1.55816 0
M  V30 9821 C 936.865 0.980295 -1.82203 0
M  V30 9822 C 937.28 1.7854 -0.613926 0
M  V30 9823 O 936.637 1.77661 0.417491 0
M  V30 9824 C 936.688 1.90982 -3.06933 0
M  V30 9825 O 936.409 1.13728 -4.23081 0
M  V30 9826 C 937.91 2.76879 -3.46198 0
M  V30 9827 H 935.13 0.28799 -0.606055 0
M  V30 9828 H 937.674 0.256182 -2.02889 0
M  V30 9829 H 935.829 2.58808 -2.88266 0
M  V30 9830 H 936.243 1.76694 -4.93842 0
M  V30 9831 H 937.717 3.37831 -4.36548 0
M  V30 9832 H 938.194 3.48522 -2.67262 0
M  V30 9833 H 938.8 2.1449 -3.67252 0
M  V30 9834 N 937.115 1.49373 0.502552 0
M  V30 9835 C 938.045 1.68839 1.61294 0
M  V30 9836 C 939.026 0.537096 1.61398 0
M  V30 9837 O 940.211 0.772764 1.78163 0
M  V30 9838 C 937.341 1.75347 2.99784 0
M  V30 9839 C 936.295 2.90251 3.14545 0
M  V30 9840 C 935.621 2.8187 4.54371 0
M  V30 9841 C 936.921 4.31207 2.94717 0
M  V30 9842 H 938.615 2.61803 1.45257 0
M  V30 9843 H 936.161 1.25987 0.697371 0
M  V30 9844 H 938.114 1.87552 3.77362 0
M  V30 9845 H 936.838 0.789814 3.16906 0
M  V30 9846 H 935.497 2.77646 2.39392 0
M  V30 9847 H 935.145 1.83416 4.68367 0
M  V30 9848 H 934.845 3.5899 4.65188 0
M  V30 9849 H 936.369 2.96081 5.34012 0
M  V30 9850 H 937.783 4.44501 3.62065 0
M  V30 9851 H 936.18 5.09536 3.17007 0
M  V30 9852 H 937.25 4.45759 1.90857 0
M  V30 9853 N 938.594 -0.753485 1.38421 0
M  V30 9854 C 939.841 -1.51261 1.34634 0
M  V30 9855 C 940.169 -1.94396 -0.0635771 0
M  V30 9856 O 939.424 -1.65736 -1.04068 0
M  V30 9857 C 939.723 -2.77836 2.24816 0
M  V30 9858 C 939.389 -2.53662 3.72782 0
M  V30 9859 C 938.051 -2.46779 4.13103 0
M  V30 9860 C 940.403 -2.32548 4.66445 0
M  V30 9861 C 937.731 -2.16796 5.45176 0
M  V30 9862 C 940.083 -2.04085 5.98775 0
M  V30 9863 C 938.747 -1.95658 6.3818 0
M  V30 9864 H 938.017 -0.553503 0.492661 0
M  V30 9865 H 940.664 -0.866406 1.7078 0
M  V30 9866 H 938.969 -3.47106 1.81726 0
M  V30 9867 H 940.666 -3.35793 2.19189 0
M  V30 9868 H 937.256 -2.59891 3.40815 0
M  V30 9869 H 941.44 -2.36845 4.3614 0
M  V30 9870 H 936.696 -2.0878 5.74648 0
M  V30 9871 H 940.87 -1.86751 6.70893 0
M  V30 9872 H 938.497 -1.7219 7.40442 0
M  V30 9873 N 940.072 -1.23292 -0.981677 0
M  V30 9874 C 941.297 -1.09176 -1.76339 0
M  V30 9875 C 941.722 0.352726 -1.84763 0
M  V30 9876 O 941.08 1.25509 -1.30832 0
M  V30 9877 C 941.128 -1.72046 -3.16911 0
M  V30 9878 O 940.232 -0.98174 -4.00544 0
M  V30 9879 H 939.573 -0.382755 -0.542581 0
M  V30 9880 H 942.103 -1.63319 -1.23239 0
M  V30 9881 H 942.113 -1.77232 -3.67495 0
M  V30 9882 H 940.788 -2.77154 -3.10095 0
M  V30 9883 H 939.365 -1.00672 -3.59054 0
M  V30 9884 N 941.55 1.18024 -1.04442 0
M  V30 9885 C 942.46 2.25436 -0.649276 0
M  V30 9886 C 943.476 1.70915 0.326189 0
M  V30 9887 O 944.652 2.00592 0.180174 0
M  V30 9888 C 941.717 3.46693 -0.0222558 0
M  V30 9889 C 940.778 4.16332 -1.0472 0
M  V30 9890 C 940.011 5.31799 -0.450011 0
M  V30 9891 O 940.234 5.65544 0.742717 0
M  V30 9892 O 939.168 5.90209 -1.18056 0
M  V30 9893 H 942.994 2.61508 -1.54426 0
M  V30 9894 H 940.579 1.25178 -0.81552 0
M  V30 9895 H 942.461 4.20132 0.326597 0
M  V30 9896 H 941.136 3.12436 0.84649 0
M  V30 9897 H 940.043 3.44944 -1.44792 0
M  V30 9898 H 941.376 4.54598 -1.88684 0
M  V30 9899 N 943.028 0.824394 1.34319 0
M  V30 9900 C 944.256 0.426194 2.02463 0
M  V30 9901 C 944.671 -0.968298 1.62078 0
M  V30 9902 O 944.028 -1.62689 0.82696 0
M  V30 9903 C 944.079 0.520465 3.57734 0
M  V30 9904 O 943.8 1.86 3.96656 0
M  V30 9905 C 945.301 0.117353 4.43145 0
M  V30 9906 H 942.521 0.170864 0.648881 0
M  V30 9907 H 945.065 1.11296 1.71562 0
M  V30 9908 H 943.22 -0.118233 3.8722 0
M  V30 9909 H 943.634 1.83528 4.91343 0
M  V30 9910 H 945.108 0.234395 5.51502 0
M  V30 9911 H 945.585 -0.939271 4.29039 0
M  V30 9912 H 946.191 0.729908 4.1899 0
M  V30 9913 N 944.506 -1.46559 0.579492 0
M  V30 9914 C 945.734 -2.06784 0.0693648 0
M  V30 9915 C 946.149 -1.42875 -1.23419 0
M  V30 9916 O 945.506 -0.532919 -1.74546 0
M  V30 9917 C 945.557 -3.61343 -0.106511 0
M  V30 9918 O 945.278 -4.22861 1.14545 0
M  V30 9919 C 946.779 -4.38489 -0.651359 0
M  V30 9920 H 943.999 -0.66866 0.0559848 0
M  V30 9921 H 946.543 -1.88235 0.799245 0
M  V30 9922 H 944.698 -3.7933 -0.786601 0
M  V30 9923 H 945.112 -5.15691 0.95723 0
M  V30 9924 H 946.586 -5.47237 -0.723615 0
M  V30 9925 H 947.063 -4.06309 -1.66763 0
M  V30 9926 H 947.669 -4.253 -0.0062433 0
M  V30 9927 N 945.984 -0.3171 -1.54377 0
M  V30 9928 C 946.914 0.544623 -2.2706 0
M  V30 9929 C 947.895 1.12469 -1.27611 0
M  V30 9930 O 949.08 1.15103 -1.56413 0
M  V30 9931 C 946.21 1.70879 -3.02353 0
M  V30 9932 C 945.164 1.25833 -4.09084 0
M  V30 9933 C 944.49 2.50894 -4.72182 0
M  V30 9934 C 945.79 0.377876 -5.20931 0
M  V30 9935 H 947.484 -0.0616372 -2.99337 0
M  V30 9936 H 945.03 -0.0310848 -1.43966 0
M  V30 9937 H 946.983 2.31787 -3.51927 0
M  V30 9938 H 945.707 2.34155 -2.27682 0
M  V30 9939 H 944.366 0.672228 -3.60384 0
M  V30 9940 H 944.014 3.12518 -3.94134 0
M  V30 9941 H 943.714 2.21447 -5.44275 0
M  V30 9942 H 945.238 3.12575 -5.24528 0
M  V30 9943 H 946.652 0.893056 -5.66302 0
M  V30 9944 H 945.049 0.176474 -5.9984 0
M  V30 9945 H 946.119 -0.592943 -4.81261 0
M  V30 9946 N 947.462 1.57535 -0.0451378 0
M  V30 9947 C 948.412 2.07683 0.940829 0
M  V30 9948 C 949.396 0.9807 1.27558 0
M  V30 9949 O 950.588 1.2441 1.25901 0
M  V30 9950 C 947.717 2.62049 2.21778 0
M  V30 9951 C 946.803 3.78621 1.91068 0
M  V30 9952 N 947.194 4.88623 1.30694 0
M  V30 9953 C 945.492 3.87411 2.20972 0
M  V30 9954 C 946.193 5.69714 1.17478 0
M  V30 9955 N 945.169 5.17129 1.67566 0
M  V30 9956 H 948.971 2.90129 0.469267 0
M  V30 9957 H 946.485 1.61615 0.159472 0
M  V30 9958 H 948.482 2.96276 2.93302 0
M  V30 9959 H 947.142 1.81039 2.69546 0
M  V30 9960 H 948.153 5.08545 0.979907 0
M  V30 9961 H 944.83 3.17335 2.71302 0
M  V30 9962 H 946.22 6.68174 0.706574 0
M  V30 9963 N 948.94 -0.228186 1.55939 0
M  V30 9964 C 949.872 -1.30605 1.88348 0
M  V30 9965 C 950.885 -1.43375 0.771198 0
M  V30 9966 O 952.074 -1.44391 1.04945 0
M  V30 9967 C 949.174 -2.68248 2.07115 0
M  V30 9968 C 948.347 -2.77509 3.38094 0
M  V30 9969 C 947.406 -3.96121 3.46373 0
M  V30 9970 O 946.432 -3.8477 4.19453 0
M  V30 9971 N 947.634 -5.10132 2.77031 0
M  V30 9972 H 950.399 -1.03132 2.81396 0
M  V30 9973 H 947.96 -0.418245 1.56404 0
M  V30 9974 H 949.952 -3.45966 2.09976 0
M  V30 9975 H 948.522 -2.88348 1.20723 0
M  V30 9976 H 947.742 -1.8632 3.47388 0
M  V30 9977 H 949.03 -2.80662 4.2439 0
M  V30 9978 H 948.428 -5.22249 2.17424 0
M  V30 9979 H 946.985 -5.85916 2.85561 0
M  V30 9980 N 950.418 -1.49637 -0.494624 0
M  V30 9981 C 951.381 -1.66252 -1.57775 0
M  V30 9982 C 952.381 -0.534054 -1.51672 0
M  V30 9983 O 953.571 -0.800637 -1.54711 0
M  V30 9984 C 950.703 -1.66584 -2.97426 0
M  V30 9985 H 951.896 -2.62864 -1.4437 0
M  V30 9986 H 949.449 -1.38764 -0.719323 0
M  V30 9987 H 950.184 -0.715798 -3.16302 0
M  V30 9988 H 949.969 -2.48543 -3.03264 0
M  V30 9989 H 951.459 -1.81474 -3.76108 0
M  V30 9990 N 951.896 0.746133 -1.38819 0
M  V30 9991 C 952.828 1.86991 -1.3254 0
M  V30 9992 C 953.841 1.61077 -0.236216 0
M  V30 9993 O 955.03 1.71518 -0.494341 0
M  V30 9994 C 952.13 3.22786 -1.03258 0
M  V30 9995 C 951.303 3.76145 -2.23234 0
M  V30 9996 C 950.362 4.90474 -1.90581 0
M  V30 9997 O 949.388 5.04717 -2.63153 0
M  V30 9998 N 950.59 5.74015 -0.86525 0
M  V30 9999 H 953.355 1.92885 -2.2938 0
M  V30 10000 H 950.916 0.926392 -1.32776 0
M  V30 10001 H 952.908 3.96824 -0.794533 0
M  V30 10002 H 951.478 3.12231 -0.151895 0
M  V30 10003 H 950.698 2.93587 -2.63059 0
M  V30 10004 H 951.986 4.08528 -3.03285 0
M  V30 10005 H 951.384 5.65086 -0.263577 0
M  V30 10006 H 949.941 6.48168 -0.687087 0
M  V30 10007 N 953.375 1.23811 0.975125 0
M  V30 10008 C 954.323 1.02149 2.0897 0
M  V30 10009 C 955.317 -0.0412172 1.6935 0
M  V30 10010 O 956.523 0.112726 1.79647 0
M  V30 10011 H 952.898 0.313259 0.683647 0
M  V30 10012 H 954.869 1.96686 2.24404 0
M  V30 10013 C 953.618 0.635023 3.41852 0
M  V30 10014 H 952.941 1.44449 3.72793 0
M  V30 10015 H 954.381 0.52301 4.20762 0
M  V30 10016 C 952.84 -0.657207 3.30428 0
M  V30 10017 O 953.37 -1.70494 3.63723 0
M  V30 10018 N 951.576 -0.635122 2.83575 0
M  V30 10019 H 951.123 0.21784 2.56677 0
M  V30 10020 H 951.081 -1.49995 2.76313 0
M  V30 10021 N 954.853 -1.17469 1.05066 0
M  V30 10022 C 955.783 -2.23635 0.671552 0
M  V30 10023 C 956.764 -1.66867 -0.33006 0
M  V30 10024 O 957.949 -1.93084 -0.207933 0
M  V30 10025 C 955.079 -3.47272 0.0441845 0
M  V30 10026 C 954.033 -4.16854 0.97042 0
M  V30 10027 C 953.359 -5.34299 0.206998 0
M  V30 10028 C 954.659 -4.69225 2.29401 0
M  V30 10029 H 956.353 -2.55602 1.55911 0
M  V30 10030 H 953.899 -1.2286 0.751101 0
M  V30 10031 H 955.852 -4.20756 -0.23282 0
M  V30 10032 H 954.576 -3.14568 -0.878311 0
M  V30 10033 H 953.235 -3.4528 1.23197 0
M  V30 10034 H 952.883 -4.97846 -0.718222 0
M  V30 10035 H 952.583 -5.81792 0.82416 0
M  V30 10036 H 954.107 -6.10568 -0.0627525 0
M  V30 10037 H 955.521 -5.34353 2.077 0
M  V30 10038 H 953.918 -5.27291 2.86503 0
M  V30 10039 H 954.988 -3.86102 2.93348 0
M  V30 10040 N 956.331 -0.831506 -1.3388 0
M  V30 10041 C 957.578 -0.423674 -1.98018 0
M  V30 10042 C 957.906 1.01533 -1.65895 0
M  V30 10043 O 957.161 1.72342 -0.927183 0
M  V30 10044 C 957.46 -0.582733 -3.52617 0
M  V30 10045 C 957.126 -1.98874 -4.04673 0
M  V30 10046 C 955.788 -2.37334 -4.186 0
M  V30 10047 C 958.14 -2.90745 -4.3257 0
M  V30 10048 C 955.468 -3.66984 -4.57755 0
M  V30 10049 C 957.82 -4.19868 -4.73174 0
M  V30 10050 C 956.484 -4.58294 -4.85307 0
M  V30 10051 H 955.754 -0.155033 -0.7246 0
M  V30 10052 H 958.401 -1.05711 -1.59679 0
M  V30 10053 H 956.706 0.134052 -3.91571 0
M  V30 10054 H 958.403 -0.247576 -4.00235 0
M  V30 10055 H 954.993 -1.68001 -3.94301 0
M  V30 10056 H 959.177 -2.62272 -4.2134 0
M  V30 10057 H 954.433 -3.9657 -4.65341 0
M  V30 10058 H 958.607 -4.91138 -4.93717 0
M  V30 10059 H 956.234 -5.58805 -5.15404 0
M  V30 10060 N 957.809 1.4625 -0.587256 0
M  V30 10061 C 958.756 2.30354 0.143384 0
M  V30 10062 C 959.726 1.40891 0.879716 0
M  V30 10063 O 960.911 1.69837 0.869486 0
M  V30 10064 C 958.051 3.25441 1.14815 0
M  V30 10065 C 957.164 4.30004 0.414792 0
M  V30 10066 C 956.299 5.12214 1.40748 0
M  V30 10067 C 955.338 6.08523 0.660786 0
M  V30 10068 N 954.475 6.83585 1.60176 0
M  V30 10069 H 959.315 2.92304 -0.579866 0
M  V30 10070 H 956.852 1.44055 -0.29777 0
M  V30 10071 H 958.81 3.79018 1.7436 0
M  V30 10072 H 957.44 2.6529 1.83906 0
M  V30 10073 H 956.492 3.79248 -0.295787 0
M  V30 10074 H 957.804 4.98515 -0.168738 0
M  V30 10075 H 956.958 5.70091 2.0756 0
M  V30 10076 H 955.697 4.43675 2.02494 0
M  V30 10077 H 954.702 5.49796 -0.0210864 0
M  V30 10078 H 955.927 6.79083 0.0486551 0
M  V30 10079 H 953.873 6.17752 2.20724 0
M  V30 10080 H 953.79 7.48373 1.07115 0
M  V30 10081 H 955.058 7.46016 2.26009 0
M  V30 10082 N 959.287 0.325282 1.54207 0
M  V30 10083 C 960.217 -0.532574 2.27345 0
M  V30 10084 C 961.198 -1.11791 1.28206 0
M  V30 10085 O 962.383 -1.14272 1.57021 0
M  V30 10086 C 959.513 -1.69274 3.03255 0
M  V30 10087 C 958.467 -1.23662 4.09746 0
M  V30 10088 C 957.793 -2.48386 4.73506 0
M  V30 10089 C 959.093 -0.350244 5.21124 0
M  V30 10090 H 960.787 0.0775108 2.993 0
M  V30 10091 H 958.333 0.0387193 1.43948 0
M  V30 10092 H 960.286 -2.29917 3.53152 0
M  V30 10093 H 959.01 -2.32944 2.28921 0
M  V30 10094 H 957.669 -0.653106 3.60735 0
M  V30 10095 H 957.317 -3.10424 3.95786 0
M  V30 10096 H 957.017 -2.18558 5.45441 0
M  V30 10097 H 958.541 -3.09789 5.26178 0
M  V30 10098 H 959.955 -0.863011 5.66767 0
M  V30 10099 H 958.352 -0.14466 5.99926 0
M  V30 10100 H 959.422 0.618457 4.8094 0
M  V30 10101 N 960.765 -1.57509 0.0534917 0
M  V30 10102 C 961.695 -2.14698 -0.917999 0
M  V30 10103 C 962.676 -1.06924 -1.32292 0
M  V30 10104 O 963.861 -1.34875 -1.39723 0
M  V30 10105 C 960.991 -2.69383 -2.19203 0
M  V30 10106 C 959.945 -3.82161 -1.9271 0
M  V30 10107 C 959.271 -4.23373 -3.26587 0
M  V30 10108 C 960.571 -5.07199 -1.24686 0
M  V30 10109 H 962.265 -2.96125 -0.44165 0
M  V30 10110 H 959.811 -1.42446 -0.210993 0
M  V30 10111 H 961.764 -3.08031 -2.87567 0
M  V30 10112 H 960.488 -1.85151 -2.69048 0
M  V30 10113 H 959.147 -3.43989 -1.26757 0
M  V30 10114 H 958.795 -3.36089 -3.74237 0
M  V30 10115 H 958.495 -4.99385 -3.09658 0
M  V30 10116 H 960.019 -4.64623 -3.96178 0
M  V30 10117 H 961.433 -5.43279 -1.83088 0
M  V30 10118 H 959.83 -5.88369 -1.18076 0
M  V30 10119 H 960.9 -4.84386 -0.223227 0
M  V30 10120 N 962.243 0.219913 -1.56058 0
M  V30 10121 C 963.191 1.29215 -1.93407 0
M  V30 10122 C 964.185 1.48434 -0.816307 0
M  V30 10123 O 965.391 1.49589 -1.00115 0
M  V30 10124 H 961.766 0.433256 -0.614649 0
M  V30 10125 H 963.737 0.949977 -2.82875 0
M  V30 10126 C 962.486 2.63501 -2.26854 0
M  V30 10127 H 961.809 2.4952 -3.12377 0
M  V30 10128 H 963.249 3.37334 -2.56869 0
M  V30 10129 C 961.708 3.18634 -1.09425 0
M  V30 10130 O 962.238 4.00117 -0.356243 0
M  V30 10131 N 960.444 2.7703 -0.877642 0
M  V30 10132 H 959.991 2.10875 -1.47951 0
M  V30 10133 H 959.949 3.1426 -0.0936792 0
M  V30 10134 N 963.721 1.49897 0.486681 0
M  V30 10135 C 964.651 1.7054 1.59494 0
M  V30 10136 C 965.632 0.554184 1.60819 0
M  V30 10137 O 966.817 0.791617 1.77333 0
M  V30 10138 C 963.947 1.78517 2.97908 0
M  V30 10139 C 962.901 2.93571 3.11449 0
M  V30 10140 C 962.227 2.86674 4.51356 0
M  V30 10141 C 963.527 4.34308 2.90127 0
M  V30 10142 H 965.221 2.63329 1.42472 0
M  V30 10143 H 962.767 1.2672 0.683969 0
M  V30 10144 H 964.72 1.91544 3.75352 0
M  V30 10145 H 963.444 0.823381 3.16051 0
M  V30 10146 H 962.103 2.80169 2.36433 0
M  V30 10147 H 961.751 1.88373 4.66395 0
M  V30 10148 H 961.451 3.63903 4.61355 0
M  V30 10149 H 962.975 3.01728 5.30841 0
M  V30 10150 H 964.389 4.48317 3.57331 0
M  V30 10151 H 962.786 5.12869 3.11585 0
M  V30 10152 H 963.856 4.47759 1.86119 0
M  V30 10153 N 965.199 -0.738761 1.39212 0
M  V30 10154 C 966.131 -1.86286 1.3353 0
M  V30 10155 C 967.144 -1.6095 0.244755 0
M  V30 10156 O 968.333 -1.71254 0.50343 0
M  V30 10157 C 965.433 -3.22234 1.04969 0
M  V30 10158 C 964.606 -3.74956 2.25226 0
M  V30 10159 C 963.665 -4.89457 1.9318 0
M  V30 10160 O 962.691 -5.03314 2.65826 0
M  V30 10161 N 963.893 -5.73548 0.895679 0
M  V30 10162 H 966.658 -1.91666 2.304 0
M  V30 10163 H 964.219 -0.919338 1.33266 0
M  V30 10164 H 966.211 -3.96397 0.815566 0
M  V30 10165 H 964.781 -3.12146 0.168451 0
M  V30 10166 H 964.001 -2.92188 2.64612 0
M  V30 10167 H 965.289 -4.06914 3.05448 0
M  V30 10168 H 964.687 -5.64938 0.293541 0
M  V30 10169 H 963.244 -6.47795 0.721451 0
M  V30 10170 N 966.677 -1.24326 -0.968545 0
M  V30 10171 C 967.902 -1.1104 -1.75171 0
M  V30 10172 C 968.327 0.333109 -1.85127 0
M  V30 10173 O 967.685 1.24115 -1.32156 0
M  V30 10174 C 967.733 -1.75397 -3.15068 0
M  V30 10175 O 966.837 -1.02417 -3.9948 0
M  V30 10176 H 966.178 -0.388488 -0.538491 0
M  V30 10177 H 968.708 -1.64617 -1.215 0
M  V30 10178 H 968.718 -1.8112 -3.65595 0
M  V30 10179 H 967.393 -2.80427 -3.07138 0
M  V30 10180 H 965.97 -1.04475 -3.57966 0
M  V30 10181 N 968.156 1.1691 -1.05688 0
M  V30 10182 C 969.086 2.23275 -0.683402 0
M  V30 10183 C 970.067 1.6704 0.321206 0
M  V30 10184 O 971.252 1.93191 0.197691 0
M  V30 10185 C 968.382 3.47244 -0.0626006 0
M  V30 10186 C 967.336 4.16333 -0.992513 0
M  V30 10187 C 966.662 5.34182 -0.23533 0
M  V30 10188 C 967.962 4.68002 -2.31886 0
M  V30 10189 H 969.656 2.54771 -1.57264 0
M  V30 10190 H 967.202 1.2246 -0.757606 0
M  V30 10191 H 969.155 4.20874 0.210503 0
M  V30 10192 H 967.879 3.1503 0.861616 0
M  V30 10193 H 966.538 3.44622 -1.25026 0
M  V30 10194 H 966.186 4.9822 0.69181 0
M  V30 10195 H 965.886 5.81346 -0.855002 0
M  V30 10196 H 967.41 6.10592 0.0303717 0
M  V30 10197 H 968.824 5.33244 -2.10531 0
M  V30 10198 H 967.221 5.25764 -2.89296 0
M  V30 10199 H 968.291 3.84541 -2.95391 0
M  V30 10200 N 969.634 0.838594 1.33437 0
M  V30 10201 C 970.881 0.434169 1.97791 0
M  V30 10202 C 971.209 -1.00652 1.66431 0
M  V30 10203 O 970.464 -1.71848 0.936309 0
M  V30 10204 C 970.763 0.601425 3.52303 0
M  V30 10205 C 970.429 2.01017 4.03612 0
M  V30 10206 C 969.091 2.39551 4.17336 0
M  V30 10207 C 971.443 2.93035 4.31022 0
M  V30 10208 C 968.771 3.69406 4.55802 0
M  V30 10209 C 971.123 4.22372 4.7094 0
M  V30 10210 C 969.787 4.60862 4.82869 0
M  V30 10211 H 969.057 0.158874 0.723768 0
M  V30 10212 H 971.704 1.06556 1.59116 0
M  V30 10213 H 970.009 -0.113284 3.91636 0
M  V30 10214 H 971.706 0.268798 4.00098 0
M  V30 10215 H 968.296 1.7009 3.93405 0
M  V30 10216 H 972.48 2.64503 4.19943 0
M  V30 10217 H 967.736 3.99033 4.63231 0
M  V30 10218 H 971.91 4.93749 4.91106 0
M  V30 10219 H 969.537 5.6153 5.12433 0
M  V30 10220 N 971.112 -1.45937 0.595003 0
M  V30 10221 C 972.358 -2.0262 0.0854317 0
M  V30 10222 C 972.691 -1.46402 -1.27594 0
M  V30 10223 O 971.966 -0.633823 -1.83883 0
M  V30 10224 C 972.249 -3.60085 0.0329075 0
M  V30 10225 C 972.102 -4.26663 1.42405 0
M  V30 10226 C 973.421 -4.35101 -0.661426 0
M  V30 10227 H 970.54 -0.736282 0.0325196 0
M  V30 10228 H 973.182 -1.73938 0.764563 0
M  V30 10229 H 971.332 -3.84652 -0.545439 0
M  V30 10230 H 973.004 -4.13321 2.04851 0
M  V30 10231 H 971.247 -3.85549 1.98833 0
M  V30 10232 H 971.918 -5.35497 1.33965 0
M  V30 10233 H 974.394 -4.15753 -0.169977 0
M  V30 10234 H 973.27 -5.44829 -0.667243 0
M  V30 10235 H 973.531 -4.07053 -1.72513 0
M  V30 10236 N 972.59 -0.333456 -1.54032 0
M  V30 10237 C 973.818 0.267813 -2.05159 0
M  V30 10238 C 974.233 1.4501 -1.20903 0
M  V30 10239 O 973.59 1.80888 -0.241994 0
M  V30 10240 C 973.641 0.69268 -3.54802 0
M  V30 10241 O 973.362 -0.442579 -4.35859 0
M  V30 10242 C 974.863 1.35572 -4.2206 0
M  V30 10243 H 972.083 0.0534924 -0.668864 0
M  V30 10244 H 974.627 -0.482515 -1.98726 0
M  V30 10245 H 972.782 1.39297 -3.6149 0
M  V30 10246 H 973.196 -0.105915 -5.24393 0
M  V30 10247 H 974.67 1.60385 -5.28186 0
M  V30 10248 H 975.147 2.30614 -3.73783 0
M  V30 10249 H 975.753 0.697748 -4.19537 0
M  V30 10250 N 974.068 1.57479 -0.061844 0
M  V30 10251 C 975.293 1.97843 0.622311 0
M  V30 10252 C 975.718 0.939602 1.62951 0
M  V30 10253 O 975.076 -0.095958 1.81046 0
M  V30 10254 C 975.124 3.37262 1.2762 0
M  V30 10255 O 974.228 3.35943 2.39199 0
M  V30 10256 H 973.569 0.644212 0.160896 0
M  V30 10257 H 976.099 2.04165 -0.133409 0
M  V30 10258 H 976.109 3.74226 1.62539 0
M  V30 10259 H 974.784 4.12404 0.538112 0
M  V30 10260 H 973.361 3.10737 2.06148 0
M  V30 10261 N 975.546 -0.211634 1.56173 0
M  V30 10262 C 976.962 -0.56177 1.49386 0
M  V30 10263 C 977.162 -1.86666 0.758813 0
M  V30 10264 O 976.218 -2.50681 0.302534 0
M  V30 10265 C 977.531 -0.631815 2.93987 0
M  V30 10266 C 979.079 -0.721773 3.04564 0
M  V30 10267 C 979.554 -0.823075 4.50544 0
M  V30 10268 N 981.045 -0.887038 4.54627 0
M  V30 10269 C 981.78 -0.985304 5.64871 0
M  V30 10270 N 981.276 -1.0469 6.84844 0
M  V30 10271 N 983.069 -1.02121 5.52746 0
M  V30 10272 H 975.22 0.64452 2.02385 0
M  V30 10273 H 977.483 0.227466 0.920306 0
M  V30 10274 H 977.189 0.257592 3.50755 0
M  V30 10275 H 977.063 -1.4921 3.46433 0
M  V30 10276 H 979.45 -1.60162 2.47855 0
M  V30 10277 H 979.531 0.164385 2.55271 0
M  V30 10278 H 979.175 0.0523511 5.07873 0
M  V30 10279 H 979.105 -1.72479 4.97552 0
M  V30 10280 H 981.596 -0.849352 3.68231 0
M  V30 10281 H 981.909 -1.12193 7.64613 0
M  V30 10282 H 980.254 -1.01586 6.87536 0
M  V30 10283 H 983.445 -0.969814 4.57943 0
M  V30 10284 H 983.618 -1.09434 6.38693 0
M  V30 10285 N 977.024 -1.50153 -0.478725 0
M  V30 10286 C 978.272 -1.60443 -1.22892 0
M  V30 10287 C 978.593 -0.303276 -1.92627 0
M  V30 10288 O 977.863 0.678798 -1.83764 0
M  V30 10289 H 976.443 -0.591205 -0.456602 0
M  V30 10290 H 979.105 -1.86893 -0.552905 0
M  V30 10291 H 978.201 -2.41175 -1.98094 0
M  V30 10292 N 978.502 0.731368 -1.39602 0
M  V30 10293 C 979.918 1.03739 -1.21286 0
M  V30 10294 C 980.118 2.01353 -0.0769875 0
M  V30 10295 O 979.174 2.45978 0.570193 0
M  V30 10296 C 980.487 1.59621 -2.54837 0
M  V30 10297 C 982.035 1.71683 -2.61713 0
M  V30 10298 C 982.51 2.30973 -3.95494 0
M  V30 10299 N 984.001 2.38378 -3.97153 0
M  V30 10300 C 984.736 2.852 -4.97442 0
M  V30 10301 N 984.232 3.31891 -6.08129 0
M  V30 10302 N 986.025 2.84441 -4.84819 0
M  V30 10303 H 978.176 0.0840456 -2.12234 0
M  V30 10304 H 980.439 0.0999038 -0.942721 0
M  V30 10305 H 980.145 0.953608 -3.38525 0
M  V30 10306 H 980.019 2.58375 -2.74813 0
M  V30 10307 H 982.406 2.35064 -1.78406 0
M  V30 10308 H 982.487 0.715714 -2.45583 0
M  V30 10309 H 982.131 1.68219 -4.79234 0
M  V30 10310 H 982.061 3.31769 -4.08946 0
M  V30 10311 H 984.552 2.05382 -3.17217 0
M  V30 10312 H 984.865 3.66138 -6.8056 0
M  V30 10313 H 983.21 3.2989 -6.11717 0
M  V30 10314 H 986.401 2.4729 -3.97448 0
M  V30 10315 H 986.574 3.20616 -5.63124 0
M  V30 10316 N 979.98 1.24838 0.961938 0
M  V30 10317 C 980.943 1.04674 2.03902 0
M  V30 10318 C 981.943 0.00204674 1.608 0
M  V30 10319 O 983.133 0.243555 1.72489 0
M  V30 10320 C 980.265 0.587736 3.35795 0
M  V30 10321 H 981.458 2.00278 2.23223 0
M  V30 10322 H 979.011 1.07142 1.138 0
M  V30 10323 H 979.746 -0.371244 3.22168 0
M  V30 10324 H 979.531 1.34182 3.68426 0
M  V30 10325 H 981.021 0.467867 4.14971 0
M  V30 10326 N 981.458 -1.16348 1.06306 0
M  V30 10327 C 982.704 -1.87158 0.781007 0
M  V30 10328 C 983.037 -1.81499 -0.690784 0
M  V30 10329 O 982.312 -1.23074 -1.50609 0
M  V30 10330 C 982.595 -3.3672 1.27639 0
M  V30 10331 C 982.448 -3.51069 2.81194 0
M  V30 10332 C 983.767 -4.31122 0.884388 0
M  V30 10333 H 980.886 -0.679586 0.285187 0
M  V30 10334 H 983.528 -1.36756 1.31901 0
M  V30 10335 H 981.678 -3.79775 0.818715 0
M  V30 10336 H 983.35 -3.16952 3.35171 0
M  V30 10337 H 981.593 -2.92976 3.19918 0
M  V30 10338 H 982.264 -4.56105 3.10921 0
M  V30 10339 H 984.74 -3.95969 1.27858 0
M  V30 10340 H 983.616 -5.34279 1.25847 0
M  V30 10341 H 983.877 -4.41598 -0.210673 0
M  V30 10342 N 982.937 -0.845659 -1.3299 0
M  V30 10343 C 984.185 -0.443774 -1.97168 0
M  V30 10344 C 984.506 1.00192 -1.67292 0
M  V30 10345 O 983.776 1.69891 -0.975397 0
M  V30 10346 H 982.356 -0.161111 -0.729419 0
M  V30 10347 H 985.018 -1.08011 -1.62233 0
M  V30 10348 H 984.114 -0.581414 -3.06637 0
M  V30 10349 N 984.415 1.45619 -0.602734 0
M  V30 10350 C 985.655 2.0416 -0.0989764 0
M  V30 10351 C 986.019 1.4616 1.24504 0
M  V30 10352 O 987.22 1.96025 1.83923 0
M  V30 10353 C 985.491 3.57357 -0.0551869 0
M  V30 10354 S 987.05 4.3708 0.388086 0
M  V30 10355 H 983.868 0.709431 -0.0472054 0
M  V30 10356 H 986.47 1.78394 -0.799745 0
M  V30 10357 H 985.174 3.97083 -1.03697 0
M  V30 10358 H 984.705 3.87692 0.667727 0
M  V30 10359 H 986.72 4.68362 1.63865 0
M  V30 10360 N 985.893 0.34162 1.53853 0
M  V30 10361 C 987.139 -0.255862 2.01179 0
M  V30 10362 C 987.472 -1.50356 1.22909 0
M  V30 10363 O 986.747 -1.91913 0.316198 0
M  V30 10364 C 987.03 -0.571934 3.55529 0
M  V30 10365 C 986.883 0.687727 4.44511 0
M  V30 10366 C 988.202 -1.38233 4.17827 0
M  V30 10367 H 985.321 -0.091521 0.731295 0
M  V30 10368 H 987.963 0.461775 1.84303 0
M  V30 10369 H 986.113 -1.18331 3.70041 0
M  V30 10370 H 987.785 1.32572 4.4184 0
M  V30 10371 H 986.028 1.313 4.13452 0
M  V30 10372 H 986.699 0.421858 5.50386 0
M  V30 10373 H 989.175 -0.865374 4.07002 0
M  V30 10374 H 988.051 -1.57223 5.25901 0
M  V30 10375 H 988.312 -2.38386 3.72323 0
M  V30 10376 N 987.371 -1.57444 0.0701946 0
M  V30 10377 C 988.596 -1.98171 -0.61181 0
M  V30 10378 C 989.021 -0.94823 -1.62451 0
M  V30 10379 O 988.379 0.0863553 -1.81094 0
M  V30 10380 C 988.427 -3.37934 -1.2583 0
M  V30 10381 O 987.531 -3.37207 -2.37414 0
M  V30 10382 H 986.872 -0.645056 -0.157477 0
M  V30 10383 H 989.402 -2.04091 0.144235 0
M  V30 10384 H 989.412 -3.75083 -1.60552 0
M  V30 10385 H 988.087 -4.12684 -0.516234 0
M  V30 10386 H 986.664 -3.11826 -2.04497 0
M  V30 10387 N 988.849 0.203349 -1.56283 0
M  V30 10388 C 990.095 0.921876 -1.81309 0
M  V30 10389 C 990.45 1.81231 -0.645994 0
M  V30 10390 O 989.743 1.88203 0.359206 0
M  V30 10391 C 989.937 1.78016 -3.09912 0
M  V30 10392 C 989.766 0.974308 -4.39019 0
M  V30 10393 C 988.536 0.662001 -5.00945 0
M  V30 10394 C 990.734 0.330925 -5.13234 0
M  V30 10395 N 988.716 -0.163344 -6.13683 0
M  V30 10396 C 990.087 -0.356989 -6.18971 0
M  V30 10397 C 992.142 0.245809 -4.97293 0
M  V30 10398 C 990.845 -1.1219 -7.10497 0
M  V30 10399 C 992.871 -0.505684 -5.89234 0
M  V30 10400 C 992.233 -1.18207 -6.94411 0
M  V30 10401 H 988.332 0.317003 -0.714866 0
M  V30 10402 H 990.916 0.191255 -1.93758 0
M  V30 10403 H 989.087 2.48245 -2.98712 0
M  V30 10404 H 990.819 2.43754 -3.23057 0
M  V30 10405 H 987.574 0.984437 -4.63256 0
M  V30 10406 H 987.998 -0.565386 -6.74635 0
M  V30 10407 H 992.64 0.754396 -4.16015 0
M  V30 10408 H 990.358 -1.64195 -7.91243 0
M  V30 10409 H 993.944 -0.572788 -5.78974 0
M  V30 10410 H 992.824 -1.75427 -7.64327 0
M  V30 10411 N 990.327 1.50405 0.470755 0
M  V30 10412 C 991.573 1.6165 1.22462 0
M  V30 10413 C 991.906 0.316034 1.91611 0
M  V30 10414 O 991.181 -0.682509 1.82132 0
M  V30 10415 C 991.464 2.79702 2.26801 0
M  V30 10416 C 991.317 4.19631 1.61955 0
M  V30 10417 C 992.636 2.93313 3.28109 0
M  V30 10418 H 989.755 0.588345 0.443868 0
M  V30 10419 H 992.397 1.82792 0.518376 0
M  V30 10420 H 990.547 2.61807 2.87036 0
M  V30 10421 H 992.219 4.49117 1.05316 0
M  V30 10422 H 990.462 4.23874 0.922674 0
M  V30 10423 H 991.133 4.98162 2.37779 0
M  V30 10424 H 993.609 3.09697 2.77897 0
M  V30 10425 H 992.485 3.77537 3.98443 0
M  V30 10426 H 992.746 2.03942 3.9225 0
M  V30 10427 N 991.805 -0.723954 1.39988 0
M  V30 10428 C 992.715 -1.86829 1.41887 0
M  V30 10429 C 993.731 -1.71173 0.312401 0
M  V30 10430 O 994.907 -1.93583 0.555651 0
M  V30 10431 C 991.972 -3.22541 1.27154 0
M  V30 10432 C 991.033 -3.50512 2.47871 0
M  V30 10433 C 990.266 -4.79749 2.33831 0
M  V30 10434 O 990.489 -5.54251 1.34765 0
M  V30 10435 O 989.423 -5.07868 3.23039 0
M  V30 10436 H 993.249 -1.88183 2.38371 0
M  V30 10437 H 990.834 -0.873259 1.21221 0
M  V30 10438 H 992.716 -4.0362 1.21114 0
M  V30 10439 H 991.391 -3.21933 0.337715 0
M  V30 10440 H 990.298 -2.69475 2.59488 0
M  V30 10441 H 991.631 -3.55909 3.39985 0
M  V30 10442 N 993.283 -1.25346 -0.955304 0
M  V30 10443 C 994.216 -0.999933 -2.05126 0
M  V30 10444 C 995.194 0.070585 -1.62447 0
M  V30 10445 O 996.378 -0.0689306 -1.88374 0
M  V30 10446 C 993.505 -0.511425 -3.34817 0
M  V30 10447 C 992.551 -1.57237 -3.96458 0
M  V30 10448 S 993.384 -3.15736 -4.32517 0
M  V30 10449 C 994.54 -2.68619 -5.65327 0
M  V30 10450 H 994.773 -1.92791 -2.26316 0
M  V30 10451 H 992.306 -1.08869 -1.09485 0
M  V30 10452 H 994.264 -0.236219 -4.0982 0
M  V30 10453 H 992.925 0.39604 -3.11593 0
M  V30 10454 H 992.118 -1.18125 -4.89962 0
M  V30 10455 H 991.72 -1.79822 -3.27933 0
M  V30 10456 H 994.012 -2.12203 -6.4341 0
M  V30 10457 H 994.955 -3.6076 -6.09309 0
M  V30 10458 H 995.363 -2.08638 -5.24529 0
M  V30 10459 N 994.761 1.15782 -1.06922 0
M  V30 10460 C 995.708 2.2038 -0.685659 0
M  V30 10461 C 996.678 1.62972 0.320816 0
M  V30 10462 O 997.863 1.8966 0.208258 0
M  V30 10463 C 995.003 3.44995 -0.084998 0
M  V30 10464 C 994.116 4.16621 -1.14242 0
M  V30 10465 C 993.251 5.28773 -0.507226 0
M  V30 10466 C 992.29 5.92209 -1.54774 0
M  V30 10467 N 991.427 6.9584 -0.935443 0
M  V30 10468 H 996.267 2.5254 -1.58201 0
M  V30 10469 H 993.804 1.24031 -0.790864 0
M  V30 10470 H 995.762 4.16254 0.280845 0
M  V30 10471 H 994.392 3.13365 0.774725 0
M  V30 10472 H 993.444 3.43903 -1.62589 0
M  V30 10473 H 994.756 4.59884 -1.93154 0
M  V30 10474 H 993.91 6.06635 -0.0887719 0
M  V30 10475 H 992.649 4.8669 0.313704 0
M  V30 10476 H 991.654 5.13063 -1.97602 0
M  V30 10477 H 992.879 6.3637 -2.37088 0
M  V30 10478 H 990.825 6.5586 -0.135339 0
M  V30 10479 H 990.742 7.37508 -1.66186 0
M  V30 10480 H 992.01 7.77611 -0.542346 0
M  V30 10481 N 996.239 0.8527 1.3254 0
M  V30 10482 C 997.186 0.293905 2.28921 0
M  V30 10483 C 998.156 -0.598027 1.54961 0
M  V30 10484 O 999.341 -0.533355 1.83194 0
M  V30 10485 C 996.481 -0.513361 3.4126 0
M  V30 10486 C 995.594 0.404144 4.30105 0
M  V30 10487 C 994.729 -0.415564 5.29572 0
M  V30 10488 C 993.768 0.499461 6.10059 0
M  V30 10489 N 992.905 -0.282949 7.0153 0
M  V30 10490 H 997.745 1.12107 2.76109 0
M  V30 10491 H 995.282 0.564272 1.35847 0
M  V30 10492 H 997.24 -0.997008 4.05112 0
M  V30 10493 H 995.87 -1.30537 2.95229 0
M  V30 10494 H 994.922 1.00617 3.66852 0
M  V30 10495 H 996.234 1.10648 4.86373 0
M  V30 10496 H 995.388 -0.962458 5.99017 0
M  V30 10497 H 994.127 -1.15127 4.73917 0
M  V30 10498 H 993.132 1.05825 5.39519 0
M  V30 10499 H 994.357 1.23375 6.67799 0
M  V30 10500 H 992.303 -1.00179 6.48306 0
M  V30 10501 H 992.22 0.36039 7.55141 0
M  V30 10502 H 993.488 -0.811632 7.75263 0
M  V30 10503 N 997.718 -1.45297 0.610449 0
M  V30 10504 C 998.681 -2.28995 -0.0968194 0
M  V30 10505 C 999.681 -1.39923 -0.792353 0
M  V30 10506 O 1000.87 -1.62014 -0.64008 0
M  V30 10507 C 998.003 -3.21013 -1.14731 0
M  V30 10508 H 999.196 -2.93012 0.639082 0
M  V30 10509 H 996.749 -1.51867 0.369624 0
M  V30 10510 H 997.484 -2.61803 -1.91388 0
M  V30 10511 H 997.269 -3.86628 -0.652753 0
M  V30 10512 H 998.759 -3.8394 -1.64256 0
M  V30 10513 N 999.196 -0.349774 -1.5367 0
M  V30 10514 C 1000.44 0.245862 -2.00196 0
M  V30 10515 C 1000.76 1.51154 -1.24144 0
M  V30 10516 O 1001.96 2.18481 -1.61178 0
M  V30 10517 C 1000.42 0.488665 -3.56567 0
M  V30 10518 C 1000.03 -0.761475 -4.41481 0
M  V30 10519 C 1001.77 1.04282 -4.11492 0
M  V30 10520 C 999.679 -0.489128 -5.89374 0
M  V30 10521 H 998.609 0.0956493 -0.747909 0
M  V30 10522 H 1001.26 -0.466068 -1.77483 0
M  V30 10523 H 999.642 1.26145 -3.75371 0
M  V30 10524 H 1000.82 -1.53585 -4.34452 0
M  V30 10525 H 999.131 -1.23771 -3.9758 0
M  V30 10526 H 1001.73 1.26164 -5.19603 0
M  V30 10527 H 1002.07 2.00023 -3.65098 0
M  V30 10528 H 1002.6 0.330582 -3.96424 0
M  V30 10529 H 999.343 -1.41643 -6.40014 0
M  V30 10530 H 998.863 0.247039 -5.99291 0
M  V30 10531 H 1000.54 -0.1087 -6.46909 0
M  V30 10532 N 1000.67 1.57404 -0.0785433 0
M  V30 10533 C 1001.9 1.98492 0.601292 0
M  V30 10534 C 1002.32 0.956832 1.61945 0
M  V30 10535 O 1001.68 -0.0767502 1.81137 0
M  V30 10536 C 1001.73 3.38596 1.24036 0
M  V30 10537 O 1000.83 3.38461 2.35622 0
M  V30 10538 H 1000.17 0.645882 0.154054 0
M  V30 10539 H 1002.7 2.04012 -0.155056 0
M  V30 10540 H 1002.71 3.75929 1.5856 0
M  V30 10541 H 1001.39 4.12952 0.494341 0
M  V30 10542 H 999.967 3.12906 2.02841 0
M  V30 10543 N 1002.15 -0.195058 1.56388 0
M  V30 10544 C 1003.1 -1.26122 1.95438 0
M  V30 10545 C 1004.09 -1.47117 0.839818 0
M  V30 10546 O 1005.3 -1.47978 1.02482 0
M  V30 10547 H 1001.67 -0.423422 0.621464 0
M  V30 10548 H 1003.65 -0.904854 2.8435 0
M  V30 10549 C 1002.39 -2.59858 2.31017 0
M  V30 10550 H 1001.72 -2.44519 3.16308 0
M  V30 10551 H 1003.16 -3.33205 2.62203 0
M  V30 10552 C 1001.62 -3.16853 1.14481 0
M  V30 10553 O 1002.15 -3.995 0.419853 0
M  V30 10554 N 1000.35 -2.75599 0.921604 0
M  V30 10555 H 999.9 -2.08495 1.51287 0
M  V30 10556 H 999.858 -3.14072 0.143663 0
M  V30 10557 N 1003.63 -1.50653 -0.462772 0
M  V30 10558 C 1004.56 -1.73056 -1.5676 0
M  V30 10559 C 1005.54 -0.579699 -1.59917 0
M  V30 10560 O 1006.73 -0.819729 -1.76051 0
M  V30 10561 C 1003.86 -1.83234 -2.9503 0
M  V30 10562 C 1002.81 -2.98488 -3.06739 0
M  V30 10563 C 1002.14 -2.93818 -4.46738 0
M  V30 10564 C 1003.44 -4.38869 -2.83181 0
M  V30 10565 H 1005.13 -2.65562 -1.38265 0
M  V30 10566 H 1002.68 -1.27792 -0.663722 0
M  V30 10567 H 1004.63 -1.97491 -3.72257 0
M  V30 10568 H 1003.35 -0.873558 -3.14701 0
M  V30 10569 H 1002.01 -2.83895 -2.31946 0
M  V30 10570 H 1001.66 -1.95769 -4.63339 0
M  V30 10571 H 1001.36 -3.71197 -4.55507 0
M  V30 10572 H 1002.88 -3.10135 -5.25974 0
M  V30 10573 H 1004.3 -4.53945 -3.50153 0
M  V30 10574 H 1002.69 -5.17762 -3.03386 0
M  V30 10575 H 1003.76 -4.50663 -1.78972 0
M  V30 10576 N 1005.11 0.71652 -1.4037 0
M  V30 10577 C 1006.34 1.50563 -1.4191 0
M  V30 10578 C 1006.75 1.88791 -0.0185456 0
M  V30 10579 O 1006.11 1.55378 0.957289 0
M  V30 10580 C 1006.16 2.78155 -2.30894 0
M  V30 10581 O 1005.88 2.41543 -3.65497 0
M  V30 10582 C 1007.38 3.72057 -2.41016 0
M  V30 10583 H 1004.6 0.464679 -0.48406 0
M  V30 10584 H 1007.15 0.883927 -1.8441 0
M  V30 10585 H 1005.3 3.36611 -1.91759 0
M  V30 10586 H 1005.71 3.23636 -4.12747 0
M  V30 10587 H 1007.19 4.58426 -3.07489 0
M  V30 10588 H 1007.67 4.15098 -1.43492 0
M  V30 10589 H 1008.27 3.19512 -2.80699 0
M  V30 10590 N 1006.59 1.25851 0.948643 0
M  V30 10591 C 1007.53 1.06559 2.06756 0
M  V30 10592 C 1008.53 -0.00528632 1.69399 0
M  V30 10593 O 1009.73 0.150806 1.79367 0
M  V30 10594 H 1006.11 0.327689 0.676848 0
M  V30 10595 H 1008.08 2.01401 2.20182 0
M  V30 10596 C 1006.83 0.707392 3.40428 0
M  V30 10597 H 1006.15 1.52324 3.69645 0
M  V30 10598 H 1007.59 0.612142 4.19558 0
M  V30 10599 C 1006.05 -0.58697 3.31747 0
M  V30 10600 O 1006.58 -1.62741 3.67258 0
M  V30 10601 N 1004.79 -0.574828 2.84858 0
M  V30 10602 H 1004.33 0.272236 2.56157 0
M  V30 10603 H 1004.29 -1.441 2.79432 0
M  V30 10604 N 1008.06 -1.15214 1.07534 0
M  V30 10605 C 1009.48 -1.67628 0.822045 0
M  V30 10606 C 1009.83 -1.8503 -0.652571 0
M  V30 10607 O 1008.95 -1.55497 -1.50498 0
M  V30 10608 C 1009.55 -3.04489 1.48566 0
M  V30 10609 C 1008.11 -3.53974 1.27983 0
M  V30 10610 C 1007.25 -2.29656 1.55414 0
M  V30 10611 H 1010.2 -0.994016 1.23713 0
M  V30 10612 H 1010.22 -3.69509 0.907916 0
M  V30 10613 H 1009.74 -2.91792 2.55888 0
M  V30 10614 H 1007.84 -3.71908 0.226906 0
M  V30 10615 H 1007.95 -4.35298 2.0013 0
M  V30 10616 H 1006.31 -2.35289 0.975251 0
M  V30 10617 H 1007.1 -2.19544 2.63923 0
M  V30 10618 N 1009.54 -0.859717 -1.32086 0
M  V30 10619 C 1010.95 -0.519529 -1.79326 0
M  V30 10620 C 1011.3 0.96295 -1.70944 0
M  V30 10621 O 1010.43 1.75139 -1.27104 0
M  V30 10622 C 1011.02 -0.936267 -3.25606 0
M  V30 10623 C 1009.58 -0.647899 -3.70782 0
M  V30 10624 C 1008.73 -1.13323 -2.53087 0
M  V30 10625 H 1011.68 -1.04643 -1.19312 0
M  V30 10626 H 1011.7 -0.254714 -3.79646 0
M  V30 10627 H 1011.21 -2.01527 -3.31675 0
M  V30 10628 H 1009.32 0.420172 -3.70223 0
M  V30 10629 H 1009.43 -1.21774 -4.63366 0
M  V30 10630 H 1007.79 -0.553325 -2.48617 0
M  V30 10631 H 1008.58 -2.21945 -2.61907 0
M  V30 10632 N 1011.02 1.44971 -0.618145 0
M  V30 10633 C 1011.98 2.29044 0.0846739 0
M  V30 10634 C 1012.98 1.40341 0.784921 0
M  V30 10635 O 1014.17 1.62351 0.631479 0
M  V30 10636 C 1011.31 3.21617 1.13027 0
M  V30 10637 H 1012.5 2.92668 -0.654612 0
M  V30 10638 H 1010.05 1.51668 -0.377672 0
M  V30 10639 H 1010.79 2.62815 1.89997 0
M  V30 10640 H 1010.57 3.86969 0.63224 0
M  V30 10641 H 1012.06 3.84805 1.62218 0
M  V30 10642 N 1012.5 0.357919 1.53482 0
M  V30 10643 C 1013.91 -0.122938 1.86295 0
M  V30 10644 C 1014.26 -1.48803 1.27875 0
M  V30 10645 O 1013.39 -2.07978 0.597828 0
M  V30 10646 C 1013.98 -0.229853 3.38019 0
M  V30 10647 C 1012.54 -0.654955 3.70658 0
M  V30 10648 C 1011.69 0.202539 2.76559 0
M  V30 10649 H 1014.64 0.576997 1.47839 0
M  V30 10650 H 1014.66 -1.05481 3.65587 0
M  V30 10651 H 1014.17 0.763825 3.80509 0
M  V30 10652 H 1012.27 -1.65714 3.33721 0
M  V30 10653 H 1012.38 -0.43488 4.77122 0
M  V30 10654 H 1010.75 -0.327388 2.52587 0
M  V30 10655 H 1011.53 1.19361 3.21882 0
M  V30 10656 N 1013.98 -1.5736 0.0868897 0
M  V30 10657 C 1014.92 -2.13571 -0.874996 0
M  V30 10658 C 1015.89 -1.0521 -1.2853 0
M  V30 10659 O 1017.08 -1.32954 -1.3685 0
M  V30 10660 C 1014.22 -2.71386 -2.13175 0
M  V30 10661 C 1013.33 -3.93953 -1.77272 0
M  V30 10662 C 1012.47 -4.3996 -2.97671 0
M  V30 10663 C 1011.51 -5.55137 -2.57856 0
M  V30 10664 N 1010.64 -5.96034 -3.71064 0
M  V30 10665 H 1015.48 -2.95453 -0.388789 0
M  V30 10666 H 1013.02 -1.45992 -0.180242 0
M  V30 10667 H 1014.98 -3.03022 -2.86764 0
M  V30 10668 H 1013.61 -1.92245 -2.5931 0
M  V30 10669 H 1012.66 -3.68683 -0.936845 0
M  V30 10670 H 1013.97 -4.77565 -1.43989 0
M  V30 10671 H 1013.13 -4.73337 -3.79522 0
M  V30 10672 H 1011.86 -3.55232 -3.34158 0
M  V30 10673 H 1010.87 -5.21397 -1.7443 0
M  V30 10674 H 1012.09 -6.41608 -2.22522 0
M  V30 10675 H 1010.04 -5.14253 -4.07284 0
M  V30 10676 H 1009.96 -6.74423 -3.41599 0
M  V30 10677 H 1011.23 -6.34038 -4.53449 0
M  V30 10678 O 1015.49 0.0533542 -1.61412 0
M  V30 10679 H 1016.18 0.676991 -1.81484 0
M  V30 END ATOM
M  V30 BEGIN BOND
M  V30 END BOND
M  V30 END CTAB
M  END
$$$$
