drugbank_target|P31151 Protein S100-A7 (DB01050; DB01593; DB04474; DB09213; DB14487; DB14533; DB14548)
 OpenBabel12092120383D

  0  0  0     0  0            999 V3000
M  V30 BEGIN CTAB
M  V30 COUNTS 1587 1601 0 0 0
M  V30 BEGIN ATOM
M  V30 1 H -0.908 1.98254 -0.117106 0
M  V30 2 N 0 1.576 0 0
M  V30 3 C 0.933 2.03868 1.02534 0
M  V30 4 C 1.911 0.928543 1.3348 0
M  V30 5 O 3.095 1.19667 1.45644 0
M  V30 6 C 0.222 2.43627 2.35294 0
M  V30 7 C -0.732 3.65373 2.2001 0
M  V30 8 S 0.101 5.13292 1.52614 0
M  V30 9 C 1.257 5.56322 2.86805 0
M  V30 10 H 1.49 2.90518 0.631377 0
M  V30 11 H -0.977 1.52953 0.210867 0
M  V30 12 H 0.981 2.67203 3.11629 0
M  V30 13 H -0.358 1.57376 2.7183 0
M  V30 14 H -1.165 3.90944 3.18086 0
M  V30 15 H -1.563 3.418 1.51819 0
M  V30 16 H 0.729 5.58782 3.83104 0
M  V30 17 H 1.672 6.56266 2.65933 0
M  V30 18 H 2.08 4.83886 2.90714 0
M  V30 19 N 1.4781 -0.272755 1.55222 0
M  V30 20 C 2.7031 -1.02683 1.80197 0
M  V30 21 C 3.1281 -1.79142 0.573551 0
M  V30 22 O 2.4861 -1.74917 -0.476849 0
M  V30 23 C 2.5341 -1.9609 3.02624 0
M  V30 24 O 1.6381 -3.04863 2.77727 0
M  V30 25 H 0.9791 -0.293557 0.595584 0
M  V30 26 H 3.5091 -0.30159 2.02365 0
M  V30 27 H 3.5191 -2.38039 3.31363 0
M  V30 28 H 2.1941 -1.39851 3.91682 0
M  V30 29 H 0.7711 -2.67228 2.60084 0
M  V30 30 N 2.9562 -1.48159 -0.537278 0
M  V30 31 C 3.9042 -1.62573 -1.66352 0
M  V30 32 C 4.8982 -0.492366 -1.62087 0
M  V30 33 O 6.1042 -0.670847 -1.67032 0
M  V30 34 H 2.4792 -0.511992 -0.550789 0
M  V30 35 H 4.4502 -2.57176 -1.51337 0
M  V30 36 C 3.1992 -1.67583 -3.04649 0
M  V30 37 H 2.5222 -2.54151 -3.08622 0
M  V30 38 H 3.9622 -1.81713 -3.83088 0
M  V30 39 C 2.4212 -0.413039 -3.34358 0
M  V30 40 O 2.9512 0.477259 -3.98855 0
M  V30 41 N 1.1572 -0.286961 -2.8918 0
M  V30 42 H 0.7042 -1.01241 -2.36871 0
M  V30 43 H 0.6622 0.556963 -3.09427 0
M  V30 44 N 4.4343 0.785586 -1.36625 0
M  V30 45 C 5.6623 1.57448 -1.3423 0
M  V30 46 C 6.0773 1.88649 0.0755653 0
M  V30 47 O 5.4343 1.50414 1.03354 0
M  V30 48 C 5.4853 2.89316 -2.16745 0
M  V30 49 O 5.2063 2.59459 -3.53005 0
M  V30 50 C 6.7073 3.83606 -2.22174 0
M  V30 51 H 3.9273 0.488226 -0.4603 0
M  V30 52 H 6.4713 0.974733 -1.79775 0
M  V30 53 H 4.6263 3.4575 -1.74745 0
M  V30 54 H 5.0403 3.43804 -3.96105 0
M  V30 55 H 6.5143 4.73181 -2.8426 0
M  V30 56 H 6.9913 4.21734 -1.22627 0
M  V30 57 H 7.5973 3.33104 -2.64427 0
M  V30 58 N 5.9124 1.20967 1.01018 0
M  V30 59 C 6.8444 0.922059 2.09835 0
M  V30 60 C 7.8574 -0.0927106 1.62536 0
M  V30 61 O 9.0464 0.139127 1.77957 0
M  V30 62 C 6.1464 0.362004 3.36961 0
M  V30 63 C 5.3194 1.42986 4.13369 0
M  V30 64 C 4.3784 0.879976 5.1879 0
M  V30 65 O 3.4044 1.56219 5.47343 0
M  V30 66 N 4.6064 -0.307396 5.79686 0
M  V30 67 H 7.3714 1.8588 2.35093 0
M  V30 68 H 4.9324 1.11422 1.1746 0
M  V30 69 H 6.9244 -0.0201474 4.04695 0
M  V30 70 H 5.4944 -0.479437 3.08902 0
M  V30 71 H 4.7144 1.98608 3.40512 0
M  V30 72 H 6.0024 2.14885 4.61196 0
M  V30 73 H 5.4004 -0.878796 5.58832 0
M  V30 74 H 3.9574 -0.631115 6.48737 0
M  V30 75 N 7.3905 -1.2043 1.01659 0
M  V30 76 C 8.3535 -2.21433 0.591616 0
M  V30 77 C 9.3535 -1.57203 -0.338226 0
M  V30 78 O 10.5435 -1.73737 -0.126918 0
M  V30 79 C 7.6755 -3.40628 -0.136058 0
M  V30 80 H 8.8685 -2.60545 1.48514 0
M  V30 81 H 6.4215 -1.33893 0.806379 0
M  V30 82 H 7.1565 -3.07019 -1.04449 0
M  V30 83 H 6.9415 -3.88475 0.531917 0
M  V30 84 H 8.4315 -4.15475 -0.420735 0
M  V30 85 N 8.8686 -0.792821 -1.36206 0
M  V30 86 C 9.7786 -0.194808 -2.3379 0
M  V30 87 C 10.7946 0.654869 -1.61206 0
M  V30 88 O 11.9706 0.569856 -1.9317 0
M  V30 89 C 9.0356 0.657721 -3.40404 0
M  V30 90 C 8.0966 -0.210849 -4.28782 0
M  V30 91 C 7.3296 0.601086 -5.30304 0
M  V30 92 O 7.5526 1.83682 -5.40016 0
M  V30 93 O 6.4866 -0.000808277 -6.019 0
M  V30 94 H 10.3126 -1.00172 -2.86704 0
M  V30 95 H 7.8976 -0.554341 -1.38735 0
M  V30 96 H 9.7796 1.14375 -4.05581 0
M  V30 97 H 8.4546 1.44247 -2.89784 0
M  V30 98 H 7.3616 -0.743714 -3.66633 0
M  V30 99 H 8.6946 -0.959195 -4.82763 0
M  V30 100 N 10.3467 1.47872 -0.545128 0
M  V30 101 C 11.7627 1.5829 -0.204032 0
M  V30 102 C 11.9627 1.54529 1.29317 0
M  V30 103 O 11.0187 1.44232 2.07252 0
M  V30 104 C 12.3317 2.89304 -0.819987 0
M  V30 105 C 13.8797 3.02864 -0.790105 0
M  V30 106 C 14.3547 4.3656 -1.38491 0
M  V30 107 N 15.8457 4.43165 -1.34755 0
M  V30 108 C 16.5807 5.45153 -1.77753 0
M  V30 109 N 16.0767 6.54016 -2.2855 0
M  V30 110 N 17.8697 5.36125 -1.68897 0
M  V30 111 H 10.0207 1.4856 -1.51802 0
M  V30 112 H 12.2837 0.706305 -0.632327 0
M  V30 113 H 11.9897 2.97757 -1.87173 0
M  V30 114 H 11.8637 3.75957 -0.305915 0
M  V30 115 H 14.2507 2.94014 0.252913 0
M  V30 116 H 14.3317 2.17782 -1.34181 0
M  V30 117 H 13.9757 4.46164 -2.42693 0
M  V30 118 H 13.9057 5.20353 -0.808754 0
M  V30 119 H 16.3967 3.65083 -0.975855 0
M  V30 120 H 16.7097 7.27994 -2.59314 0
M  V30 121 H 15.0547 6.54938 -2.32553 0
M  V30 122 H 18.2457 4.49975 -1.28998 0
M  V30 123 H 18.4187 6.15472 -2.02726 0
M  V30 124 N 11.8248 0.280983 1.55075 0
M  V30 125 C 13.0498 -0.340154 2.04592 0
M  V30 126 C 13.4748 -1.48246 1.15779 0
M  V30 127 O 12.8328 -1.80614 0.15761 0
M  V30 128 C 12.8808 -0.793104 3.5177 0
M  V30 129 O 11.9848 -1.89981 3.66034 0
M  V30 130 H 11.3258 -0.0694289 0.66036 0
M  V30 131 H 13.8558 0.416993 2.00306 0
M  V30 132 H 13.8658 -1.08729 3.93245 0
M  V30 133 H 12.5408 0.0426163 4.15878 0
M  V30 134 H 11.1178 -1.60771 3.36463 0
M  V30 135 N 13.3029 -1.57598 0.00835791 0
M  V30 136 C 14.5519 -1.90107 -0.673968 0
M  V30 137 C 14.8649 -0.884275 -1.7447 0
M  V30 138 O 16.0709 -1.09987 -2.48224 0
M  V30 139 C 14.5269 -3.37497 -1.24995 0
M  V30 140 C 14.1349 -4.47491 -0.2136 0
M  V30 141 C 15.8789 -3.79104 -1.90999 0
M  V30 142 C 13.7859 -5.85963 -0.80005 0
M  V30 143 H 12.7159 -0.709393 -0.255495 0
M  V30 144 H 15.3669 -1.83365 0.0702693 0
M  V30 145 H 13.7489 -3.39102 -2.04513 0
M  V30 146 H 14.9229 -4.57414 0.557596 0
M  V30 147 H 13.2379 -4.14956 0.346474 0
M  V30 148 H 15.8349 -4.79901 -2.35795 0
M  V30 149 H 16.1779 -3.1306 -2.74407 0
M  V30 150 H 16.7109 -3.79833 -1.18203 0
M  V30 151 H 13.4499 -6.555 -0.00456708 0
M  V30 152 H 12.9699 -5.79687 -1.54021 0
M  V30 153 H 14.6489 -6.33884 -1.29615 0
M  V30 154 N 14.781 0.264519 -1.55364 0
M  V30 155 C 16.03 0.992812 -1.75574 0
M  V30 156 C 16.343 1.87142 -0.568979 0
M  V30 157 O 17.549 2.63513 -0.653682 0
M  V30 158 C 16.005 1.81519 -3.10771 0
M  V30 159 C 15.613 0.984839 -4.37041 0
M  V30 160 C 17.357 2.53727 -3.40327 0
M  V30 161 C 15.264 1.80209 -5.63275 0
M  V30 162 H 14.194 0.374412 -0.65447 0
M  V30 163 H 16.845 0.248138 -1.81815 0
M  V30 164 H 15.227 2.60115 -2.98591 0
M  V30 165 H 16.401 0.242455 -4.60162 0
M  V30 166 H 14.716 0.37691 -4.14691 0
M  V30 167 H 17.313 3.15292 -4.3185 0
M  V30 168 H 17.656 3.24447 -2.60845 0
M  V30 169 H 18.189 1.82156 -3.53644 0
M  V30 170 H 14.928 1.13896 -6.45529 0
M  V30 171 H 14.448 2.52022 -5.44284 0
M  V30 172 H 16.127 2.37364 -6.01887 0
M  V30 173 N 16.2591 1.48442 0.529413 0
M  V30 174 C 17.5071 1.56179 1.28267 0
M  V30 175 C 17.8281 0.237721 1.93546 0
M  V30 176 O 17.0981 -0.740779 1.81354 0
M  V30 177 H 15.6781 0.575367 0.476405 0
M  V30 178 H 18.3401 1.84909 0.61602 0
M  V30 179 H 17.4361 2.34312 2.06165 0
M  V30 180 N 17.7372 -0.778329 1.37039 0
M  V30 181 C 18.6702 -1.8984 1.26633 0
M  V30 182 C 19.6482 -1.61923 0.148197 0
M  V30 183 O 20.8322 -1.85742 0.321265 0
M  V30 184 C 17.9592 -3.24916 0.956403 0
M  V30 185 C 17.0052 -3.71752 2.09051 0
M  V30 186 S 17.8382 -3.86201 3.70957 0
M  V30 187 C 18.9942 -5.24135 3.42101 0
M  V30 188 H 19.2272 -1.98377 2.21436 0
M  V30 189 H 16.7602 -0.938738 1.22585 0
M  V30 190 H 18.7182 -4.02936 0.784409 0
M  V30 191 H 17.3792 -3.14089 0.0259713 0
M  V30 192 H 16.5722 -4.69661 1.8285 0
M  V30 193 H 16.1742 -3.00815 2.2223 0
M  V30 194 H 18.4662 -6.09086 2.96682 0
M  V30 195 H 19.4092 -5.55346 4.39314 0
M  V30 196 H 19.8172 -4.91761 2.77185 0
M  V30 197 N 19.2153 -1.21501 -1.00376 0
M  V30 198 C 20.4643 -1.02718 -1.73586 0
M  V30 199 C 20.7773 0.439589 -1.90596 0
M  V30 200 O 21.9833 0.746848 -2.61026 0
M  V30 201 C 20.4393 -1.78929 -3.1227 0
M  V30 202 C 20.0473 -3.29783 -3.03228 0
M  V30 203 C 21.7913 -1.68557 -3.89601 0
M  V30 204 C 19.6983 -3.98479 -4.36999 0
M  V30 205 H 18.6283 -0.380733 -0.650814 0
M  V30 206 H 21.2793 -1.45248 -1.1214 0
M  V30 207 H 19.6613 -1.29192 -3.74333 0
M  V30 208 H 20.8353 -3.86832 -2.50395 0
M  V30 209 H 19.1503 -3.40711 -2.39385 0
M  V30 210 H 21.7473 -2.17211 -4.88593 0
M  V30 211 H 22.0903 -0.644021 -4.11288 0
M  V30 212 H 22.6233 -2.15778 -3.34193 0
M  V30 213 H 19.3623 -5.02841 -4.20513 0
M  V30 214 H 18.8823 -3.46219 -4.89788 0
M  V30 215 H 20.5613 -4.03462 -5.05794 0
M  V30 216 N 20.6934 1.19889 -1.02296 0
M  V30 217 C 21.9704 1.85148 -0.630832 0
M  V30 218 C 22.3504 1.91385 0.890782 0
M  V30 219 O 21.6984 1.42642 1.78509 0
M  V30 220 C 21.9084 3.24442 -1.28602 0
M  V30 221 C 23.2564 4.00663 -1.4055 0
M  V30 222 O 24.2804 3.33818 -1.24273 0
M  V30 223 O 23.1394 5.20387 -1.66913 0
M  V30 224 H 20.2334 0.797613 -0.218499 0
M  V30 225 H 22.7794 1.27427 -1.12074 0
M  V30 226 H 21.5514 3.14704 -2.32545 0
M  V30 227 H 21.1744 3.89802 -0.7836 0
M  V30 228 N 22.1715 0.800033 1.35784 0
M  V30 229 C 23.1045 0.151499 2.27697 0
M  V30 230 C 24.0825 -0.678663 1.4776 0
M  V30 231 O 25.2665 -0.647358 1.77035 0
M  V30 232 C 22.3935 -0.790492 3.29346 0
M  V30 233 C 21.4395 -0.0407832 4.26481 0
M  V30 234 S 22.2725 1.29077 5.19711 0
M  V30 235 C 23.4285 0.353055 6.24903 0
M  V30 236 H 23.6615 0.930796 2.82353 0
M  V30 237 H 21.1945 0.594767 1.42485 0
M  V30 238 H 23.1525 -1.3285 3.88409 0
M  V30 239 H 21.8135 -1.54312 2.73581 0
M  V30 240 H 21.0065 -0.755971 4.98298 0
M  V30 241 H 20.6085 0.427063 3.71554 0
M  V30 242 H 22.9005 -0.464147 6.75908 0
M  V30 243 H 23.8435 1.04023 7.00418 0
M  V30 244 H 24.2515 -0.0483344 5.64479 0
M  V30 245 N 23.6496 -1.47581 0.552962 0
M  V30 246 C 24.8966 -2.02482 0.0273243 0
M  V30 247 C 25.2246 -1.42776 -1.32081 0
M  V30 248 O 24.4796 -0.571393 -1.87173 0
M  V30 249 C 24.7786 -3.57199 -0.119728 0
M  V30 250 C 24.4446 -4.35804 1.15697 0
M  V30 251 C 23.1066 -4.57 1.50681 0
M  V30 252 C 25.4586 -4.81167 2.00319 0
M  V30 253 C 22.7866 -5.20807 2.70142 0
M  V30 254 C 25.1386 -5.46293 3.18978 0
M  V30 255 C 23.8026 -5.65722 3.54281 0
M  V30 256 H 23.0726 -0.740933 0.00999866 0
M  V30 257 H 25.7196 -1.77302 0.72362 0
M  V30 258 H 24.0246 -3.81348 -0.89896 0
M  V30 259 H 25.7216 -3.97324 -0.541718 0
M  V30 260 H 22.3116 -4.19582 0.874561 0
M  V30 261 H 26.4956 -4.64574 1.74599 0
M  V30 262 H 21.7516 -5.34045 2.97668 0
M  V30 263 H 25.9256 -5.80407 3.84838 0
M  V30 264 H 23.5526 -6.14936 4.46942 0
M  V30 265 N 25.1277 -0.289203 -1.54924 0
M  V30 266 C 26.0777 0.606939 -2.19773 0
M  V30 267 C 27.0617 1.10783 -1.16687 0
M  V30 268 O 28.2537 1.05057 -1.4245 0
M  V30 269 C 25.3827 1.78398 -2.93307 0
M  V30 270 C 24.4687 1.29961 -4.03697 0
M  V30 271 N 24.8597 0.532377 -5.0299 0
M  V30 272 C 23.1577 1.58136 -4.17024 0
M  V30 273 C 23.8587 0.275912 -5.81045 0
M  V30 274 N 22.8347 0.852365 -5.36876 0
M  V30 275 H 26.6367 0.0130779 -2.93897 0
M  V30 276 H 24.1507 -0.09341 -1.62131 0
M  V30 277 H 26.1477 2.43741 -3.38225 0
M  V30 278 H 24.8077 2.38166 -2.20697 0
M  V30 279 H 25.8187 0.17838 -5.17593 0
M  V30 280 H 22.4957 2.18738 -3.55612 0
M  V30 281 H 23.8857 -0.339502 -6.71042 0
M  V30 282 N 26.6058 1.57591 -0.0167156 0
M  V30 283 C 27.5528 2.09462 0.969251 0
M  V30 284 C 28.5228 0.99381 1.33089 0
M  V30 285 O 29.7078 1.26726 1.42636 0
M  V30 286 C 26.8478 2.61622 2.25051 0
M  V30 287 C 25.9608 3.85666 1.94642 0
M  V30 288 C 25.0958 4.26266 3.16972 0
M  V30 289 C 24.1348 5.43101 2.82326 0
M  V30 290 N 23.2718 5.78915 3.97243 0
M  V30 291 H 28.1118 2.93428 0.519997 0
M  V30 292 H 25.6488 1.45044 0.245087 0
M  V30 293 H 27.6068 2.89949 2.99976 0
M  V30 294 H 26.2368 1.80505 2.67615 0
M  V30 295 H 25.2888 3.64145 1.10013 0
M  V30 296 H 26.6008 4.70678 1.65117 0
M  V30 297 H 25.7548 4.55963 4.00228 0
M  V30 298 H 24.4938 3.39996 3.49648 0
M  V30 299 H 23.4988 5.1311 1.97479 0
M  V30 300 H 24.7238 6.3106 2.50879 0
M  V30 301 H 22.6698 4.95602 4.29785 0
M  V30 302 H 22.5868 6.58539 3.71299 0
M  V30 303 H 23.8548 6.13212 4.81239 0
M  V30 304 N 28.0839 -0.256276 1.55502 0
M  V30 305 C 29.3139 -1.00196 1.80677 0
M  V30 306 C 29.7219 -1.79805 0.588797 0
M  V30 307 O 29.0649 -1.78055 -0.451883 0
M  V30 308 C 29.1269 -1.99515 2.99055 0
M  V30 309 C 28.7909 -1.38688 4.35448 0
M  V30 310 C 29.7879 -0.794079 5.138 0
M  V30 311 C 27.4729 -1.40906 4.82132 0
M  V30 312 C 29.4669 -0.231562 6.36979 0
M  V30 313 C 27.1539 -0.842684 6.05262 0
M  V30 314 C 28.1519 -0.254953 6.82524 0
M  V30 315 O 27.8399 0.3027 8.0333 0
M  V30 316 H 27.5719 -0.300919 0.60533 0
M  V30 317 H 30.1259 -0.287307 2.03381 0
M  V30 318 H 28.3559 -2.74785 2.72084 0
M  V30 319 H 30.0449 -2.60349 3.11405 0
M  V30 320 H 30.8109 -0.769519 4.78856 0
M  V30 321 H 26.6899 -1.85591 4.21992 0
M  V30 322 H 30.2339 0.227816 6.97228 0
M  V30 323 H 26.1309 -0.86454 6.39684 0
M  V30 324 H 26.8989 0.193662 8.18271 0
M  V30 325 N 29.562 -1.4872 -0.521534 0
M  V30 326 C 30.79 -1.60843 -1.30142 0
M  V30 327 C 31.205 -0.271897 -1.86832 0
M  V30 328 O 30.562 0.739969 -1.66825 0
M  V30 329 C 30.613 -2.66155 -2.4463 0
M  V30 330 O 30.334 -3.94623 -1.90275 0
M  V30 331 C 31.835 -2.88795 -3.36322 0
M  V30 332 H 29.055 -0.542075 -0.395468 0
M  V30 333 H 31.599 -1.94609 -0.628285 0
M  V30 334 H 29.754 -2.35224 -3.07812 0
M  V30 335 H 30.168 -4.52468 -2.65279 0
M  V30 336 H 31.642 -3.66264 -4.12983 0
M  V30 337 H 32.119 -1.97934 -3.9207 0
M  V30 338 H 32.725 -3.21063 -2.78924 0
M  V30 339 N 31.0401 0.771051 -1.3745 0
M  V30 340 C 32.4561 1.07171 -1.18265 0
M  V30 341 C 32.6561 2.01491 -0.019287 0
M  V30 342 O 31.7121 2.44244 0.640408 0
M  V30 343 C 33.0251 1.66854 -2.50161 0
M  V30 344 C 34.5731 1.79109 -2.56689 0
M  V30 345 C 35.0481 2.42205 -3.88717 0
M  V30 346 N 36.5391 2.49655 -3.90162 0
M  V30 347 C 37.2741 2.9933 -4.8907 0
M  V30 348 N 36.7701 3.49172 -5.98374 0
M  V30 349 N 38.5631 2.9821 -4.76474 0
M  V30 350 H 30.7141 0.144796 -2.11906 0
M  V30 351 H 32.9771 0.126863 -0.939473 0
M  V30 352 H 32.6831 1.05017 -3.35655 0
M  V30 353 H 32.5571 2.6614 -2.673 0
M  V30 354 H 34.9441 2.40077 -1.71601 0
M  V30 355 H 35.0251 0.785757 -2.43433 0
M  V30 356 H 34.6691 1.81875 -4.74219 0
M  V30 357 H 34.5991 3.43345 -3.99276 0
M  V30 358 H 37.0901 2.14383 -3.11205 0
M  V30 359 H 37.4031 3.8548 -6.69795 0
M  V30 360 H 35.7481 3.47275 -6.02018 0
M  V30 361 H 38.9391 2.58572 -3.90203 0
M  V30 362 H 39.1121 3.36613 -5.53711 0
M  V30 363 N 32.5182 1.22032 0.997298 0
M  V30 364 C 33.9342 0.979326 1.26021 0
M  V30 365 C 34.1342 -0.32972 1.98784 0
M  V30 366 O 33.1902 -1.05345 2.29475 0
M  V30 367 C 34.5032 2.17509 2.07631 0
M  V30 368 C 36.0512 2.21817 2.2083 0
M  V30 369 C 36.5262 3.40933 3.05825 0
M  V30 370 N 38.0172 3.41067 3.13412 0
M  V30 371 C 38.7522 4.29885 3.79455 0
M  V30 372 N 38.2482 5.28914 4.47462 0
M  V30 373 N 40.0412 4.17673 3.76173 0
M  V30 374 H 32.1922 2.06202 0.509352 0
M  V30 375 H 34.4552 0.90334 0.287541 0
M  V30 376 H 34.1612 3.12415 1.61524 0
M  V30 377 H 34.0352 2.17206 3.08385 0
M  V30 378 H 36.4222 1.27462 2.66153 0
M  V30 379 H 36.5032 2.2616 1.1952 0
M  V30 380 H 36.1472 4.35586 2.61203 0
M  V30 381 H 36.0772 3.33829 4.07266 0
M  V30 382 H 38.5682 2.69406 2.65007 0
M  V30 383 H 38.8812 5.92973 4.95583 0
M  V30 384 H 37.2262 5.32831 4.46224 0
M  V30 385 H 40.4172 3.39564 3.22202 0
M  V30 386 H 40.5902 4.87098 4.27363 0
M  V30 387 N 33.9963 -1.19345 1.0293 0
M  V30 388 C 35.2733 -1.84811 0.640642 0
M  V30 389 C 35.6533 -1.91855 -0.88062 0
M  V30 390 O 35.0013 -1.43587 -1.7775 0
M  V30 391 C 35.2113 -3.23755 1.30321 0
M  V30 392 C 36.5593 -3.99912 1.42673 0
M  V30 393 O 37.5833 -3.33155 1.26041 0
M  V30 394 O 36.4423 -5.19494 1.6967 0
M  V30 395 H 33.5363 -0.796443 0.222726 0
M  V30 396 H 36.0823 -1.26831 1.12748 0
M  V30 397 H 34.8543 -3.13466 2.34211 0
M  V30 398 H 34.4773 -3.89381 0.804261 0
M  V30 399 N 35.4744 -0.807222 -1.35358 0
M  V30 400 C 36.7514 -0.311126 -1.9311 0
M  V30 401 C 37.1314 1.19937 -1.73719 0
M  V30 402 O 36.4794 1.99918 -1.10657 0
M  V30 403 C 36.6894 -0.723226 -3.41424 0
M  V30 404 C 38.0374 -0.713078 -4.18569 0
M  V30 405 O 39.0614 -0.664811 -3.49941 0
M  V30 406 O 37.9204 -0.772022 -5.41019 0
M  V30 407 H 35.0144 -0.081526 -0.822972 0
M  V30 408 H 37.5604 -0.890962 -1.4443 0
M  V30 409 H 36.3324 -1.76426 -3.4927 0
M  V30 410 H 35.9554 -0.118232 -3.97424 0
M  V30 411 N 36.9525 1.47285 -0.560781 0
M  V30 412 C 37.8995 2.30058 0.18491 0
M  V30 413 C 38.8695 1.39281 0.904986 0
M  V30 414 O 40.0545 1.68241 0.899979 0
M  V30 415 C 37.1945 3.23317 1.20666 0
M  V30 416 C 36.3075 4.29186 0.492285 0
M  V30 417 C 35.4425 5.09592 1.49964 0
M  V30 418 C 34.4815 6.07232 0.770439 0
M  V30 419 N 33.6185 6.80584 1.72479 0
M  V30 420 H 38.4585 2.93302 -0.527048 0
M  V30 421 H 35.9955 1.44568 -0.271738 0
M  V30 422 H 37.9535 3.75811 1.81168 0
M  V30 423 H 36.5835 2.61929 1.88661 0
M  V30 424 H 35.6355 3.7972 -0.227333 0
M  V30 425 H 36.9475 4.98738 -0.0787929 0
M  V30 426 H 36.1015 5.66254 2.17809 0
M  V30 427 H 34.8405 4.3995 2.10464 0
M  V30 428 H 33.8455 5.49745 0.0780846 0
M  V30 429 H 35.0705 6.78884 0.171134 0
M  V30 430 H 33.0165 6.1367 2.3183 0
M  V30 431 H 32.9335 7.46319 1.20596 0
M  V30 432 H 34.2015 7.41818 2.39428 0
M  V30 433 N 38.4306 0.297415 1.54768 0
M  V30 434 C 39.6796 -0.313669 1.99246 0
M  V30 435 C 39.9926 -1.55281 1.18942 0
M  V30 436 O 41.1986 -2.23825 1.5367 0
M  V30 437 C 39.6546 -0.609407 3.54703 0
M  V30 438 C 39.2626 0.611192 4.43811 0
M  V30 439 C 41.0066 -1.18188 4.07715 0
M  V30 440 C 38.9136 0.288805 5.90694 0
M  V30 441 H 37.8436 -0.120979 0.744231 0
M  V30 442 H 40.4946 0.40556 1.78962 0
M  V30 443 H 38.8766 -1.38813 3.70873 0
M  V30 444 H 40.0506 1.3875 4.39414 0
M  V30 445 H 38.3656 1.10205 4.01552 0
M  V30 446 H 40.9626 -1.43727 5.15021 0
M  V30 447 H 41.3056 -2.12299 3.58099 0
M  V30 448 H 41.8386 -0.464944 3.95074 0
M  V30 449 H 38.5776 1.19838 6.44453 0
M  V30 450 H 38.0976 -0.450305 5.98107 0
M  V30 451 H 39.7766 -0.110933 6.46905 0
M  V30 452 N 39.9087 -1.5758 0.0250728 0
M  V30 453 C 40.8187 -2.1343 -0.973905 0
M  V30 454 C 41.8347 -1.08556 -1.35984 0
M  V30 455 O 43.0107 -1.40592 -1.44207 0
M  V30 456 C 40.0757 -2.64703 -2.23904 0
M  V30 457 C 39.1367 -3.84276 -1.91391 0
M  V30 458 C 38.3697 -4.33095 -3.11873 0
M  V30 459 O 38.5927 -3.81107 -4.24398 0
M  V30 460 O 37.5267 -5.24984 -2.94406 0
M  V30 461 H 41.3527 -2.99057 -0.529036 0
M  V30 462 H 38.9377 -1.48118 -0.195288 0
M  V30 463 H 40.8197 -2.97769 -2.98181 0
M  V30 464 H 39.4947 -1.82161 -2.6758 0
M  V30 465 H 38.4017 -3.56143 -1.14511 0
M  V30 466 H 39.7347 -4.67968 -1.52534 0
M  V30 467 N 41.3868 0.248026 -1.55636 0
M  V30 468 C 42.3338 1.30707 -1.90222 0
M  V30 469 C 43.3038 1.47881 -0.756332 0
M  V30 470 O 44.4888 1.61883 -1.00988 0
M  V30 471 C 41.6288 2.65769 -2.20138 0
M  V30 472 C 40.7418 2.56612 -3.47526 0
M  V30 473 C 39.8768 3.8402 -3.67017 0
M  V30 474 C 38.9158 3.69476 -4.8801 0
M  V30 475 N 38.0528 4.88774 -5.04029 0
M  V30 476 H 42.8928 1.00512 -2.80538 0
M  V30 477 H 40.4298 0.485055 -1.38873 0
M  V30 478 H 42.3878 3.44386 -2.35487 0
M  V30 479 H 41.0178 2.94115 -1.33027 0
M  V30 480 H 40.0698 1.69571 -3.40514 0
M  V30 481 H 41.3818 2.41774 -4.36287 0
M  V30 482 H 40.5358 4.7108 -3.8232 0
M  V30 483 H 39.2748 4.01754 -2.76487 0
M  V30 484 H 38.2798 2.80799 -4.72686 0
M  V30 485 H 39.5048 3.53238 -5.8 0
M  V30 486 H 37.4508 5.0687 -4.16435 0
M  V30 487 H 37.3678 4.76562 -5.86877 0
M  V30 488 H 38.6358 5.77335 -5.23741 0
M  V30 489 N 42.8649 1.48995 0.513639 0
M  V30 490 C 44.2759 1.5119 1.09537 0
M  V30 491 C 44.6269 0.290906 1.94031 0
M  V30 492 O 43.7519 -0.60049 2.07902 0
M  V30 493 C 44.3469 2.73964 1.99322 0
M  V30 494 C 42.9059 2.78978 2.52682 0
M  V30 495 C 42.0529 2.44934 1.30009 0
M  V30 496 H 45.0039 1.55875 0.298125 0
M  V30 497 H 45.0249 2.53409 2.83838 0
M  V30 498 H 44.5369 3.62813 1.37799 0
M  V30 499 H 42.6379 1.94378 3.1788 0
M  V30 500 H 42.7509 3.8083 2.90698 0
M  V30 501 H 41.1149 1.9644 1.62122 0
M  V30 502 H 41.8979 3.36043 0.702131 0
M  V30 503 N 44.343 -0.763751 1.37857 0
M  V30 504 C 45.568 -1.55805 1.36893 0
M  V30 505 C 45.993 -1.88054 -0.0416135 0
M  V30 506 O 45.351 -1.49825 -1.02089 0
M  V30 507 C 45.399 -2.84012 2.22192 0
M  V30 508 O 44.503 -3.78732 1.63204 0
M  V30 509 H 43.844 -0.471638 0.46739 0
M  V30 510 H 46.374 -0.944657 1.81487 0
M  V30 511 H 46.384 -3.33037 2.35691 0
M  V30 512 H 45.059 -2.59869 3.24716 0
M  V30 513 H 43.636 -3.37402 1.58791 0
M  V30 514 N 45.8211 -1.22559 -0.990812 0
M  V30 515 C 46.7511 -1.0218 -2.09956 0
M  V30 516 C 47.7321 0.0579394 -1.70001 0
M  V30 517 O 48.9171 -0.104684 -1.93918 0
M  V30 518 C 46.0471 -0.601023 -3.4206 0
M  V30 519 C 45.0011 -1.62694 -3.95872 0
M  V30 520 C 44.3271 -1.06193 -5.24049 0
M  V30 521 C 45.6271 -3.01743 -4.2632 0
M  V30 522 H 47.3211 -1.94916 -2.27262 0
M  V30 523 H 44.8671 -0.938566 -1.09211 0
M  V30 524 H 46.8201 -0.445561 -4.19038 0
M  V30 525 H 45.5441 0.362005 -3.24588 0
M  V30 526 H 44.2031 -1.77021 -3.21028 0
M  V30 527 H 43.8511 -0.0901903 -5.02919 0
M  V30 528 H 43.5511 -1.74732 -5.61019 0
M  V30 529 H 45.0751 -0.918092 -6.03658 0
M  V30 530 H 46.4891 -2.90777 -4.94087 0
M  V30 531 H 44.8861 -3.67425 -4.74467 0
M  V30 532 H 45.9561 -3.51518 -3.34011 0
M  V30 533 N 47.2992 1.18797 -1.03562 0
M  V30 534 C 48.2292 2.24472 -0.643019 0
M  V30 535 C 49.2102 1.66433 0.351283 0
M  V30 536 O 50.3952 1.92803 0.232505 0
M  V30 537 C 47.5252 3.473 4.24935e-05 0
M  V30 538 C 46.4792 4.18055 -0.917257 0
M  V30 539 C 45.8052 5.34519 -0.138941 0
M  V30 540 C 47.1052 4.72109 -2.23407 0
M  V30 541 H 48.7992 2.57566 -1.52643 0
M  V30 542 H 46.3452 1.23806 -0.735394 0
M  V30 543 H 48.2982 4.20426 0.286383 0
M  V30 544 H 47.0222 3.13424 0.918299 0
M  V30 545 H 45.6812 3.46821 -1.1879 0
M  V30 546 H 45.3292 4.96891 0.781562 0
M  V30 547 H 45.0292 5.82794 -0.750005 0
M  V30 548 H 46.5532 6.10438 0.1405 0
M  V30 549 H 47.9672 5.36955 -2.00879 0
M  V30 550 H 46.3642 5.30897 -2.79765 0
M  V30 551 H 47.4342 3.89807 -2.88407 0
M  V30 552 N 48.7773 0.814389 1.34928 0
M  V30 553 C 50.0053 0.411136 2.02774 0
M  V30 554 C 50.4203 -0.980316 1.61354 0
M  V30 555 O 49.7773 -1.63299 0.814847 0
M  V30 556 C 49.8283 0.493865 3.58111 0
M  V30 557 O 49.5493 1.83047 3.98027 0
M  V30 558 C 51.0503 0.0844174 4.4322 0
M  V30 559 H 48.2703 0.166037 0.650133 0
M  V30 560 H 50.8143 1.10018 1.72384 0
M  V30 561 H 48.9693 -0.147006 3.87121 0
M  V30 562 H 49.3833 1.79872 4.92693 0
M  V30 563 H 50.8573 0.193404 5.51661 0
M  V30 564 H 51.3343 -0.97113 4.28329 0
M  V30 565 H 51.9403 0.69875 4.19521 0
M  V30 566 N 50.2554 -1.46986 0.568584 0
M  V30 567 C 51.1884 -2.27129 -0.220779 0
M  V30 568 C 52.1664 -1.34757 -0.909905 0
M  V30 569 O 53.3504 -1.64152 -0.926622 0
M  V30 570 C 50.4774 -3.12108 -1.31553 0
M  V30 571 C 49.5234 -4.20141 -0.733748 0
M  V30 572 S 50.3564 -5.33783 0.428479 0
M  V30 573 C 51.5124 -6.22327 -0.667811 0
M  V30 574 H 51.7454 -2.93731 0.459267 0
M  V30 575 H 49.2784 -1.5026 0.355154 0
M  V30 576 H 51.2364 -3.61636 -1.94241 0
M  V30 577 H 49.8974 -2.44847 -1.96746 0
M  V30 578 H 49.0904 -4.79373 -1.5562 0
M  V30 579 H 48.6924 -3.73553 -0.182812 0
M  V30 580 H 50.9844 -6.59364 -1.55708 0
M  V30 581 H 51.9274 -7.0801 -0.11258 0
M  V30 582 H 52.3354 -5.5618 -0.965601 0
M  V30 583 N 51.7335 -0.305618 -1.54608 0
M  V30 584 C 52.6665 0.610536 -2.19881 0
M  V30 585 C 53.6445 1.1294 -1.16976 0
M  V30 586 O 54.8285 1.19673 -1.45638 0
M  V30 587 C 51.9555 1.83583 -2.84631 0
M  V30 588 C 51.0015 1.4498 -4.01102 0
M  V30 589 S 51.8345 0.501793 -5.33144 0
M  V30 590 C 52.9905 1.73478 -6.01379 0
M  V30 591 H 53.2235 0.0560177 -2.97247 0
M  V30 592 H 50.7565 -0.0897434 -1.54139 0
M  V30 593 H 52.7145 2.53898 -3.22562 0
M  V30 594 H 51.3755 2.36152 -2.07102 0
M  V30 595 H 50.5685 2.36236 -4.45206 0
M  V30 596 H 50.1705 0.826553 -3.64752 0
M  V30 597 H 52.4625 2.67473 -6.22467 0
M  V30 598 H 53.4055 1.33622 -6.95378 0
M  V30 599 H 53.8135 1.9136 -5.31076 0
M  V30 600 N 53.2116 1.57565 -0.0334293 0
M  V30 601 C 54.1586 2.10478 0.946981 0
M  V30 602 C 55.1286 1.00787 1.32027 0
M  V30 603 O 56.3136 1.28232 1.41284 0
M  V30 604 C 53.4536 2.63994 2.22263 0
M  V30 605 C 52.5666 3.87709 1.90541 0
M  V30 606 C 51.7016 4.29604 3.12433 0
M  V30 607 C 50.7406 5.46065 2.76549 0
M  V30 608 N 49.8776 5.83096 3.9108 0
M  V30 609 H 54.7176 2.93963 0.488846 0
M  V30 610 H 52.2546 1.45296 0.22969 0
M  V30 611 H 54.2126 2.93114 2.96884 0
M  V30 612 H 52.8426 1.83333 2.65685 0
M  V30 613 H 51.8946 3.65291 1.06144 0
M  V30 614 H 53.2066 4.72403 1.60116 0
M  V30 615 H 52.3606 4.60182 3.9537 0
M  V30 616 H 51.0996 3.43685 3.46023 0
M  V30 617 H 50.1046 5.15176 1.92026 0
M  V30 618 H 51.3296 6.33685 2.44171 0
M  V30 619 H 49.2756 5.00132 4.24504 0
M  V30 620 H 49.1926 6.6244 3.64293 0
M  V30 621 H 50.4606 6.18282 4.74708 0
M  V30 622 N 54.6897 -0.239769 1.55765 0
M  V30 623 C 55.5997 -1.31831 1.94056 0
M  V30 624 C 56.6157 -1.52275 0.841925 0
M  V30 625 O 57.7917 -1.65759 1.14394 0
M  V30 626 C 54.8567 -2.65156 2.23368 0
M  V30 627 C 53.9177 -2.53173 3.46701 0
M  V30 628 C 53.1507 -3.8014 3.74606 0
M  V30 629 O 53.3737 -4.82343 3.04469 0
M  V30 630 O 52.3077 -3.78344 4.68123 0
M  V30 631 H 56.1337 -1.02347 2.85935 0
M  V30 632 H 53.7187 -0.441123 1.42739 0
M  V30 633 H 55.6007 -3.43929 2.43497 0
M  V30 634 H 54.2757 -2.94358 1.34666 0
M  V30 635 H 53.1827 -1.72662 3.31871 0
M  V30 636 H 54.5157 -2.28915 4.35728 0
M  V30 637 N 56.1678 -1.49265 -0.50573 0
M  V30 638 C 57.1158 -1.66065 -1.62866 0
M  V30 639 C 58.1098 -0.526636 -1.61006 0
M  V30 640 O 59.3158 -0.706126 -1.65571 0
M  V30 641 H 55.6908 -0.52356 -0.539805 0
M  V30 642 H 57.6618 -2.60329 -1.45848 0
M  V30 643 C 56.4108 -1.74008 -3.01026 0
M  V30 644 H 55.7338 -2.6064 -3.03161 0
M  V30 645 H 57.1738 -1.89798 -3.79147 0
M  V30 646 C 55.6328 -0.483868 -3.33407 0
M  V30 647 O 56.1628 0.392548 -3.99777 0
M  V30 648 N 54.3688 -0.348236 -2.88506 0
M  V30 649 H 53.9158 -1.06242 -2.34671 0
M  V30 650 H 53.8738 0.491204 -3.10539 0
M  V30 651 N 57.6459 0.756429 -1.3826 0
M  V30 652 C 58.8929 1.51547 -1.34312 0
M  V30 653 C 59.2209 1.94382 0.0677144 0
M  V30 654 O 58.4759 1.65514 1.04421 0
M  V30 655 C 58.7749 2.78313 -2.24224 0
M  V30 656 C 58.4409 2.54455 -3.72241 0
M  V30 657 C 57.1029 2.47657 -4.12576 0
M  V30 658 C 59.4549 2.3354 -4.65949 0
M  V30 659 C 56.7829 2.17956 -5.44713 0
M  V30 660 C 59.1349 2.05359 -5.9834 0
M  V30 661 C 57.7989 1.97016 -6.37762 0
M  V30 662 H 57.0689 0.55455 -0.491482 0
M  V30 663 H 59.7159 0.870039 -1.70595 0
M  V30 664 H 58.0209 3.47492 -1.80987 0
M  V30 665 H 59.7179 3.36259 -2.18474 0
M  V30 666 H 56.3079 2.60616 -3.40261 0
M  V30 667 H 60.4919 2.37772 -4.35635 0
M  V30 668 H 55.7479 2.10003 -5.74203 0
M  V30 669 H 59.9219 1.88179 -6.70494 0
M  V30 670 H 57.5489 1.73766 -7.40074 0
M  V30 671 N 59.124 1.23083 0.984299 0
M  V30 672 C 60.535 1.05609 1.5396 0
M  V30 673 C 60.886 -0.377793 1.92528 0
M  V30 674 O 60.011 -1.26398 1.75649 0
M  V30 675 C 60.606 1.91087 2.7977 0
M  V30 676 C 59.165 1.77885 3.31713 0
M  V30 677 C 58.312 1.87028 2.04733 0
M  V30 678 H 61.263 1.36802 0.804419 0
M  V30 679 H 61.284 1.43336 3.5247 0
M  V30 680 H 60.796 2.9544 2.51668 0
M  V30 681 H 58.897 0.762995 3.64704 0
M  V30 682 H 59.01 2.61047 4.01735 0
M  V30 683 H 57.374 1.30565 2.18689 0
M  V30 684 H 58.157 2.92929 1.79017 0
M  V30 685 N 60.6021 -1.18246 1.0419 0
M  V30 686 C 61.5501 -2.23968 0.627792 0
M  V30 687 C 62.5441 -1.65828 -0.346019 0
M  V30 688 O 63.7501 -1.78733 -0.213175 0
M  V30 689 H 60.1251 -0.728939 0.184802 0
M  V30 690 H 62.0961 -2.56202 1.52981 0
M  V30 691 C 60.8451 -3.47699 0.00796591 0
M  V30 692 H 60.1681 -3.92734 0.748347 0
M  V30 693 H 61.6081 -4.23294 -0.24455 0
M  V30 694 C 60.0671 -3.13153 -1.24246 0
M  V30 695 O 60.5971 -3.27003 -2.33307 0
M  V30 696 N 58.8031 -2.67467 -1.13622 0
M  V30 697 H 58.3501 -2.56396 -0.248734 0
M  V30 698 H 58.3081 -2.44724 -1.97377 0
M  V30 699 N 62.0802 -0.821533 -1.34494 0
M  V30 700 C 63.3272 -0.408946 -1.98328 0
M  V30 701 C 63.6552 1.02764 -1.65136 0
M  V30 702 O 62.9102 1.73026 -0.914349 0
M  V30 703 C 63.2092 -0.556512 -3.53041 0
M  V30 704 C 62.8752 -1.95861 -4.0614 0
M  V30 705 C 61.5372 -2.34217 -4.20352 0
M  V30 706 C 63.8892 -2.87523 -4.34718 0
M  V30 707 C 61.2172 -3.63572 -4.6047 0
M  V30 708 C 63.5692 -4.1634 -4.76281 0
M  V30 709 C 62.2332 -4.54675 -4.88699 0
M  V30 710 H 61.5032 -0.149644 -0.725732 0
M  V30 711 H 64.1502 -1.04521 -1.6046 0
M  V30 712 H 62.4552 0.163148 -3.9146 0
M  V30 713 H 64.1522 -0.217826 -4.00408 0
M  V30 714 H 60.7422 -1.65066 -3.95539 0
M  V30 715 H 64.9262 -2.59133 -4.23277 0
M  V30 716 H 60.1822 -3.93101 -4.68275 0
M  V30 717 H 64.3562 -4.87455 -4.97354 0
M  V30 718 H 61.9832 -5.54959 -5.19542 0
M  V30 719 N 63.5583 1.46682 -0.576371 0
M  V30 720 C 64.4883 2.33028 0.148397 0
M  V30 721 C 65.4693 1.44961 0.889956 0
M  V30 722 O 66.6543 1.73789 0.866662 0
M  V30 723 C 63.7843 3.27117 1.1667 0
M  V30 724 C 62.7383 4.24575 0.540386 0
M  V30 725 C 62.0643 5.08126 1.6647 0
M  V30 726 C 63.3643 5.19722 -0.518331 0
M  V30 727 H 65.0583 2.93875 -0.572509 0
M  V30 728 H 62.6043 1.41315 -0.276768 0
M  V30 729 H 64.5573 3.86374 1.68204 0
M  V30 730 H 63.2813 2.64364 1.9178 0
M  V30 731 H 61.9403 3.66571 0.0461769 0
M  V30 732 H 61.5883 4.41762 2.40531 0
M  V30 733 H 61.2883 5.74122 1.25131 0
M  V30 734 H 62.8123 5.70246 2.18293 0
M  V30 735 H 64.2263 5.73232 -0.0883058 0
M  V30 736 H 62.6233 5.94026 -0.851679 0
M  V30 737 H 63.6933 4.64037 -1.40703 0
M  V30 738 N 65.0364 0.313813 1.54444 0
M  V30 739 C 66.2614 -0.296681 2.05267 0
M  V30 740 C 66.6864 -1.45757 1.18897 0
M  V30 741 O 66.0444 -1.80239 0.195886 0
M  V30 742 C 66.0924 -0.71831 3.53373 0
M  V30 743 O 65.1964 -1.82175 3.69981 0
M  V30 744 H 64.5374 -0.0554061 0.661684 0
M  V30 745 H 67.0674 0.459387 1.99376 0
M  V30 746 H 67.0774 -1.00364 3.95463 0
M  V30 747 H 65.7524 0.130821 4.15694 0
M  V30 748 H 64.3294 -1.53598 3.39797 0
M  V30 749 N 66.5145 -1.57545 0.0417849 0
M  V30 750 C 67.4775 -2.09885 -0.92093 0
M  V30 751 C 68.4775 -1.01648 -1.24596 0
M  V30 752 O 69.6675 -1.27759 -1.1842 0
M  V30 753 C 66.7995 -2.57527 -2.23367 0
M  V30 754 H 67.9925 -2.96236 -0.467382 0
M  V30 755 H 65.5455 -1.5493 -0.206467 0
M  V30 756 H 66.2805 -1.74542 -2.73323 0
M  V30 757 H 66.0655 -3.36613 -2.01083 0
M  V30 758 H 67.5555 -2.98201 -2.92346 0
M  V30 759 N 67.9926 0.231505 -1.5589 0
M  V30 760 C 69.2326 0.964533 -1.80211 0
M  V30 761 C 69.5966 1.81926 -0.613744 0
M  V30 762 O 70.7976 2.58526 -0.736045 0
M  V30 763 C 69.0686 1.78956 -3.09369 0
M  V30 764 S 70.6276 2.57959 -3.54969 0
M  V30 765 H 67.4456 0.324173 -0.632798 0
M  V30 766 H 70.0476 0.230985 -1.94131 0
M  V30 767 H 68.7516 1.15161 -3.93911 0
M  V30 768 H 68.2826 2.56559 -2.9823 0
M  V30 769 H 70.2976 3.81309 -3.17519 0
M  V30 770 N 69.4707 1.49531 0.497807 0
M  V30 771 C 70.7477 1.49682 1.25915 0
M  V30 772 C 71.1277 0.226339 2.09883 0
M  V30 773 O 70.4757 -0.791189 2.14365 0
M  V30 774 C 70.6857 2.77755 2.11313 0
M  V30 775 C 72.0337 3.27371 2.70395 0
M  V30 776 O 73.0577 2.78894 2.21578 0
M  V30 777 O 71.9167 4.11808 3.59272 0
M  V30 778 H 69.0107 0.599228 0.56996 0
M  V30 779 H 71.5567 1.61798 0.511816 0
M  V30 780 H 70.3287 3.61713 1.49264 0
M  V30 781 H 69.9517 2.68515 2.93233 0
M  V30 782 N 70.9488 -0.749086 1.3866 0
M  V30 783 C 71.8958 -1.86291 1.36251 0
M  V30 784 C 72.8658 -1.64578 0.224347 0
M  V30 785 O 74.0508 -1.86181 0.417279 0
M  V30 786 C 71.1908 -3.23644 1.19786 0
M  V30 787 C 70.3038 -3.57158 2.43027 0
M  V30 788 C 69.4388 -4.83838 2.19258 0
M  V30 789 C 68.4778 -5.10152 3.38247 0
M  V30 790 N 67.6148 -6.28029 3.13884 0
M  V30 791 H 72.4548 -1.87685 2.3147 0
M  V30 792 H 69.9918 -0.917287 1.14997 0
M  V30 793 H 71.9498 -4.0291 1.08254 0
M  V30 794 H 70.5798 -3.21566 0.282031 0
M  V30 795 H 69.6318 -2.72701 2.65214 0
M  V30 796 H 70.9438 -3.7253 3.31697 0
M  V30 797 H 70.0978 -5.71057 2.04888 0
M  V30 798 H 68.8368 -4.70614 1.2796 0
M  V30 799 H 67.8418 -4.21401 3.53131 0
M  V30 800 H 69.0668 -5.25271 4.30427 0
M  V30 801 H 67.0128 -6.1612 2.25238 0
M  V30 802 H 66.9298 -6.43922 3.96106 0
M  V30 803 H 68.1978 -7.18124 3.03179 0
M  V30 804 N 72.4269 -1.23603 -0.977757 0
M  V30 805 C 73.3739 -1.01954 -2.07061 0
M  V30 806 C 74.3439 0.0638697 -1.65977 0
M  V30 807 O 75.5289 -0.0887624 -1.90593 0
M  V30 808 C 72.6689 -0.619658 -3.39491 0
M  V30 809 C 71.7819 -1.77547 -3.93829 0
M  V30 810 C 70.9169 -1.32212 -5.14484 0
M  V30 811 C 69.9559 -2.44852 -5.60994 0
M  V30 812 N 69.0929 -2.00456 -6.72876 0
M  V30 813 H 73.9329 -1.95495 -2.24913 0
M  V30 814 H 71.4699 -0.973861 -1.10247 0
M  V30 815 H 73.4279 -0.368898 -4.15566 0
M  V30 816 H 72.0579 0.278752 -3.21594 0
M  V30 817 H 71.1099 -2.14016 -3.14486 0
M  V30 818 H 72.4219 -2.62219 -4.24314 0
M  V30 819 H 71.5759 -1.02965 -5.97899 0
M  V30 820 H 70.3149 -0.445808 -4.85658 0
M  V30 821 H 69.3199 -2.74871 -4.76157 0
M  V30 822 H 70.5449 -3.33024 -5.91837 0
M  V30 823 H 68.4909 -1.15208 -6.45804 0
M  V30 824 H 68.4079 -2.78687 -7.02759 0
M  V30 825 H 69.6759 -1.7432 -7.59758 0
M  V30 826 N 73.905 1.17692 -1.04816 0
M  V30 827 C 75.153 1.87488 -0.754497 0
M  V30 828 C 75.474 1.81205 0.720407 0
M  V30 829 O 74.744 1.23544 1.52032 0
M  V30 830 H 73.324 0.694101 -0.276102 0
M  V30 831 H 75.986 1.42793 -1.32651 0
M  V30 832 H 75.082 2.93328 -1.06606 0
M  V30 833 N 75.3831 0.828654 1.34056 0
M  V30 834 C 76.6111 0.43262 2.02326 0
M  V30 835 C 77.0261 -0.963147 1.62385 0
M  V30 836 O 76.3831 -1.62425 0.832121 0
M  V30 837 C 76.4341 0.53182 3.57567 0
M  V30 838 O 76.1551 1.87258 3.96063 0
M  V30 839 C 77.6561 0.131422 4.43105 0
M  V30 840 H 74.8761 0.172923 0.648335 0
M  V30 841 H 77.4201 1.1184 1.71208 0
M  V30 842 H 75.5751 -0.105938 3.87255 0
M  V30 843 H 75.9891 1.85087 4.90758 0
M  V30 844 H 77.4631 0.251904 5.51425 0
M  V30 845 H 77.9401 -0.925645 4.29335 0
M  V30 846 H 78.5461 0.743207 4.18756 0
M  V30 847 N 76.8612 -1.46375 0.584142 0
M  V30 848 C 77.8092 -2.32042 -0.161047 0
M  V30 849 C 78.8032 -1.44569 -0.882966 0
M  V30 850 O 80.0092 -1.61186 -0.801191 0
M  V30 851 H 76.3842 -0.748659 -0.0708033 0
M  V30 852 H 78.3552 -2.92704 0.580269 0
M  V30 853 C 77.1042 -3.27762 -1.1605 0
M  V30 854 H 76.4272 -3.95051 -0.614419 0
M  V30 855 H 77.8672 -3.90481 -1.65228 0
M  V30 856 C 76.3262 -2.53218 -2.22221 0
M  V30 857 O 76.8562 -2.29628 -3.29597 0
M  V30 858 N 75.0622 -2.13756 -1.96868 0
M  V30 859 H 74.6092 -2.33142 -1.09557 0
M  V30 860 H 74.5672 -1.642 -2.68115 0
M  V30 861 N 78.3393 -0.321999 -1.54275 0
M  V30 862 C 79.5693 0.282642 -2.04658 0
M  V30 863 C 79.9773 1.46453 -1.19784 0
M  V30 864 O 79.3203 1.82367 -0.220932 0
M  V30 865 C 79.3823 0.781857 -3.50895 0
M  V30 866 C 79.0463 -0.277517 -4.56157 0
M  V30 867 C 80.0433 -1.11307 -5.07845 0
M  V30 868 C 77.7283 -0.425256 -5.00497 0
M  V30 869 C 79.7223 -2.08211 -6.02434 0
M  V30 870 C 77.4093 -1.39771 -5.94901 0
M  V30 871 C 78.4073 -2.2246 -6.45756 0
M  V30 872 O 78.0953 -3.18054 -7.38307 0
M  V30 873 H 77.8273 0.0622636 -0.673126 0
M  V30 874 H 80.3813 -0.465792 -2.00049 0
M  V30 875 H 78.6113 1.58118 -3.52896 0
M  V30 876 H 80.3003 1.30467 -3.84361 0
M  V30 877 H 81.0663 -1.00991 -4.74369 0
M  V30 878 H 76.9453 0.20847 -4.60528 0
M  V30 879 H 80.4893 -2.72791 -6.42052 0
M  V30 880 H 76.3863 -1.50152 -6.27794 0
M  V30 881 H 77.1543 -3.13275 -7.56175 0
M  V30 882 N 79.8174 1.5752 -0.0501392 0
M  V30 883 C 80.7474 2.14502 0.922566 0
M  V30 884 C 81.7284 1.06642 1.3252 0
M  V30 885 O 82.9134 1.34577 1.4001 0
M  V30 886 C 80.0434 2.68916 2.19776 0
M  V30 887 C 78.9974 3.8175 1.93523 0
M  V30 888 C 78.3234 4.22677 3.27487 0
M  V30 889 C 79.6234 5.06932 1.25765 0
M  V30 890 H 81.3174 2.9603 0.447952 0
M  V30 891 H 78.8634 1.42401 0.214024 0
M  V30 892 H 80.8164 3.07419 2.88222 0
M  V30 893 H 79.5404 1.84578 2.69441 0
M  V30 894 H 78.1994 3.43718 1.27489 0
M  V30 895 H 77.8474 3.35291 3.74952 0
M  V30 896 H 77.5474 4.98725 3.1072 0
M  V30 897 H 79.0714 4.63779 3.97166 0
M  V30 898 H 80.4854 5.42888 1.84244 0
M  V30 899 H 78.8824 5.88116 1.19328 0
M  V30 900 H 79.9524 4.84337 0.233536 0
M  V30 901 N 81.2955 -0.223234 1.56011 0
M  V30 902 C 82.2585 -1.26014 1.9145 0
M  V30 903 C 83.2585 -1.3989 0.792937 0
M  V30 904 O 84.4485 -1.38184 1.0607 0
M  V30 905 C 81.5805 -2.63422 2.16383 0
M  V30 906 H 82.7735 -0.95796 2.84189 0
M  V30 907 H 80.3265 -0.463576 1.49267 0
M  V30 908 H 81.0615 -2.98741 1.2619 0
M  V30 909 H 80.8465 -2.54728 2.98088 0
M  V30 910 H 82.3365 -3.38249 2.44903 0
M  V30 911 N 82.7736 -1.49793 -0.48987 0
M  V30 912 C 84.0506 -1.50348 -1.25119 0
M  V30 913 C 84.4306 -0.237466 -2.0976 0
M  V30 914 O 83.7786 0.77981 -2.14782 0
M  V30 915 C 83.9886 -2.78872 -2.09837 0
M  V30 916 C 85.3366 -3.288 -2.68655 0
M  V30 917 O 86.3606 -2.80065 -2.20096 0
M  V30 918 O 85.2196 -4.13707 -3.57083 0
M  V30 919 H 82.3136 -0.602242 -0.566775 0
M  V30 920 H 84.8596 -1.62067 -0.503229 0
M  V30 921 H 83.6316 -3.62499 -1.47343 0
M  V30 922 H 83.2546 -2.70066 -2.91805 0
M  V30 923 N 84.2517 0.741722 -1.39055 0
M  V30 924 C 85.4977 1.50336 -1.36113 0
M  V30 925 C 85.8307 1.94148 0.0450796 0
M  V30 926 O 85.1057 1.66301 1.00868 0
M  V30 927 C 85.3887 2.74773 -2.32749 0
M  V30 928 C 85.2417 2.37023 -3.82283 0
M  V30 929 C 86.5607 3.76846 -2.27322 0
M  V30 930 H 83.6797 0.545351 -0.495743 0
M  V30 931 H 86.3217 0.848624 -1.69995 0
M  V30 932 H 84.4717 3.30639 -2.03986 0
M  V30 933 H 86.1437 1.8684 -4.21768 0
M  V30 934 H 84.3867 1.69334 -3.99385 0
M  V30 935 H 85.0577 3.26104 -4.45376 0
M  V30 936 H 87.5337 3.30548 -2.5274 0
M  V30 937 H 86.4097 4.6159 -2.97028 0
M  V30 938 H 86.6707 4.23286 -1.27599 0
M  V30 939 N 85.7298 1.2412 0.971189 0
M  V30 940 C 86.9768 1.07881 1.71371 0
M  V30 941 C 87.3048 -0.382901 1.90694 0
M  V30 942 O 86.5598 -1.29945 1.46331 0
M  V30 943 C 86.8588 1.75983 3.11071 0
M  V30 944 C 86.5248 3.25909 3.11599 0
M  V30 945 C 85.1868 3.66813 3.11451 0
M  V30 946 C 87.5388 4.21771 3.062 0
M  V30 947 C 84.8668 5.02021 3.03631 0
M  V30 948 C 87.2188 5.56982 2.99923 0
M  V30 949 C 85.8828 5.97237 2.98102 0
M  V30 950 H 85.1528 0.394764 0.62709 0
M  V30 951 H 87.7998 1.54176 1.13587 0
M  V30 952 H 86.1048 1.22072 3.72298 0
M  V30 953 H 87.8018 1.60887 3.6731 0
M  V30 954 H 84.3918 2.93353 3.12477 0
M  V30 955 H 88.5758 3.91172 3.05447 0
M  V30 956 H 83.8318 5.32411 3.0058 0
M  V30 957 H 88.0058 6.30969 2.94704 0
M  V30 958 H 85.6328 7.01967 2.91798 0
M  V30 959 N 87.2079 -1.17134 1.05439 0
M  V30 960 C 88.1179 -2.24878 0.668365 0
M  V30 961 C 89.1339 -1.71186 -0.311687 0
M  V30 962 O 90.3099 -2.00738 -0.163161 0
M  V30 963 C 87.3749 -3.46662 0.051648 0
M  V30 964 C 86.4359 -4.15429 1.08246 0
M  V30 965 C 85.6689 -5.31399 0.495082 0
M  V30 966 O 85.8919 -5.66153 -0.694743 0
M  V30 967 O 84.8259 -5.89187 1.23056 0
M  V30 968 H 88.6519 -2.60189 1.56637 0
M  V30 969 H 86.2369 -1.24482 0.826104 0
M  V30 970 H 88.1189 -4.20394 -0.290966 0
M  V30 971 H 86.7939 -3.13142 -0.819971 0
M  V30 972 H 85.7009 -3.43704 1.47711 0
M  V30 973 H 87.0339 -4.52982 1.92532 0
M  V30 974 N 88.686 -0.835752 -1.33615 0
M  V30 975 C 89.633 -0.26473 -2.29277 0
M  V30 976 C 90.603 0.617712 -1.54187 0
M  V30 977 O 91.788 0.556641 -1.825 0
M  V30 978 C 88.928 0.556777 -3.40579 0
M  V30 979 C 88.041 -0.349339 -4.30585 0
M  V30 980 C 87.176 0.482969 -5.29 0
M  V30 981 C 86.215 -0.421732 -6.10645 0
M  V30 982 N 85.352 0.372262 -7.01112 0
M  V30 983 H 90.192 -1.08582 -2.77514 0
M  V30 984 H 87.729 -0.546927 -1.36554 0
M  V30 985 H 89.687 1.04852 -4.03809 0
M  V30 986 H 88.317 1.34286 -2.93542 0
M  V30 987 H 87.369 -0.959372 -3.68104 0
M  V30 988 H 88.681 -1.04445 -4.87742 0
M  V30 989 H 87.835 1.03866 -5.97743 0
M  V30 990 H 86.574 1.21153 -4.72412 0
M  V30 991 H 85.579 -0.989464 -5.40823 0
M  V30 992 H 86.804 -1.14861 -6.69316 0
M  V30 993 H 84.75 1.08426 -6.46977 0
M  V30 994 H 84.667 -0.264198 -7.55538 0
M  V30 995 H 85.935 0.910293 -7.74167 0
M  V30 996 N 90.1641 1.46063 -0.591896 0
M  V30 997 C 91.1111 2.30399 0.136069 0
M  V30 998 C 92.0811 1.41169 0.875238 0
M  V30 999 O 93.2661 1.70112 0.86409 0
M  V30 1000 C 90.4061 3.25804 1.13781 0
M  V30 1001 C 89.5191 4.30134 0.401137 0
M  V30 1002 C 88.6541 5.12659 1.39121 0
M  V30 1003 C 87.6931 6.0873 0.641462 0
M  V30 1004 N 86.8301 6.8409 1.58004 0
M  V30 1005 H 91.6701 2.92118 -0.589144 0
M  V30 1006 H 89.2071 1.43959 -0.302342 0
M  V30 1007 H 91.1651 3.79569 1.73156 0
M  V30 1008 H 89.7951 2.65872 1.83062 0
M  V30 1009 H 88.8471 3.79152 -0.307826 0
M  V30 1010 H 90.1591 4.98458 -0.184565 0
M  V30 1011 H 89.3131 5.70747 2.05749 0
M  V30 1012 H 88.0521 4.44316 2.01084 0
M  V30 1013 H 87.0571 5.49786 -0.0385419 0
M  V30 1014 H 88.2821 6.79095 0.0270945 0
M  V30 1015 H 86.2281 6.18449 2.18761 0
M  V30 1016 H 86.1451 7.48709 1.04738 0
M  V30 1017 H 87.4131 7.4673 2.23639 0
M  V30 1018 N 91.6422 0.330177 1.54103 0
M  V30 1019 C 92.9192 -0.325007 1.92881 0
M  V30 1020 C 93.2992 -1.6934 1.26045 0
M  V30 1021 O 92.6472 -2.24855 0.406526 0
M  V30 1022 C 92.8572 -0.410634 3.46576 0
M  V30 1023 C 94.2052 -0.667801 4.19316 0
M  V30 1024 O 95.2292 -0.49329 3.52768 0
M  V30 1025 O 94.0882 -1.00491 5.37181 0
M  V30 1026 H 91.1822 -0.186873 0.80561 0
M  V30 1027 H 93.7282 0.380376 1.65382 0
M  V30 1028 H 92.5002 0.550164 3.87413 0
M  V30 1029 H 92.1232 -1.16333 3.802 0
M  V30 1030 N 93.1203 -1.57491 0.0584922 0
M  V30 1031 C 94.0673 -2.11958 -0.913376 0
M  V30 1032 C 95.0373 -1.02875 -1.30407 0
M  V30 1033 O 96.2223 -1.30464 -1.39226 0
M  V30 1034 C 93.3623 -2.67497 -2.18035 0
M  V30 1035 C 92.4753 -3.90691 -1.84349 0
M  V30 1036 C 91.6103 -4.3452 -3.05559 0
M  V30 1037 C 90.6493 -5.50395 -2.67827 0
M  V30 1038 N 89.7863 -5.89244 -3.81754 0
M  V30 1039 H 94.6263 -2.94704 -0.442017 0
M  V30 1040 H 92.1633 -1.45643 -0.206545 0
M  V30 1041 H 94.1213 -2.978 -2.92183 0
M  V30 1042 H 92.7513 -1.87537 -2.62735 0
M  V30 1043 H 91.8033 -3.66934 -1.00319 0
M  V30 1044 H 93.1153 -4.7489 -1.5258 0
M  V30 1045 H 92.2693 -4.66414 -3.87998 0
M  V30 1046 H 91.0083 -3.49147 -3.40511 0
M  V30 1047 H 90.0133 -5.18165 -1.83806 0
M  V30 1048 H 91.2383 -6.3749 -2.34059 0
M  V30 1049 H 89.1843 -5.06823 -4.16493 0
M  V30 1050 H 89.1013 -6.68151 -3.53708 0
M  V30 1051 H 90.3693 -6.25756 -4.64811 0
M  V30 1052 N 94.5984 0.214957 -1.56127 0
M  V30 1053 C 95.5464 1.28601 -1.93816 0
M  V30 1054 C 96.5404 1.48175 -0.821016 0
M  V30 1055 O 97.7464 1.49271 -1.0059 0
M  V30 1056 H 94.1214 0.431302 -0.616022 0
M  V30 1057 H 96.0924 0.940991 -2.83175 0
M  V30 1058 C 94.8414 2.62779 -2.27689 0
M  V30 1059 H 94.1644 2.48527 -3.13168 0
M  V30 1060 H 95.6044 3.36517 -2.57939 0
M  V30 1061 C 94.0634 3.18285 -1.10436 0
M  V30 1062 O 94.5934 4.00002 -0.368945 0
M  V30 1063 N 92.7994 2.7675 -0.886433 0
M  V30 1064 H 92.3464 2.10404 -1.48619 0
M  V30 1065 H 92.3044 3.14229 -0.103656 0
M  V30 1066 N 96.0765 1.50051 0.48192 0
M  V30 1067 C 96.9865 1.7089 1.60728 0
M  V30 1068 C 98.0025 0.591788 1.63627 0
M  V30 1069 O 99.1785 0.868817 1.81696 0
M  V30 1070 C 96.2435 1.78855 2.97005 0
M  V30 1071 C 95.3045 3.02537 3.04581 0
M  V30 1072 C 94.5375 3.10112 4.34357 0
M  V30 1073 O 94.7605 2.24765 5.24249 0
M  V30 1074 O 93.6945 4.02747 4.47301 0
M  V30 1075 H 97.5205 2.66264 1.46072 0
M  V30 1076 H 95.1055 1.34018 0.660264 0
M  V30 1077 H 96.9875 1.86336 3.77964 0
M  V30 1078 H 95.6625 0.866628 3.11883 0
M  V30 1079 H 94.5695 3.00563 2.22739 0
M  V30 1080 H 95.9025 3.94272 2.94636 0
M  V30 1081 N 97.5546 -0.734337 1.39446 0
M  V30 1082 C 98.8316 -1.48579 1.27215 0
M  V30 1083 C 99.2116 -2.1077 -0.117968 0
M  V30 1084 O 98.5596 -1.98646 -1.12924 0
M  V30 1085 C 98.7696 -2.53667 2.39696 0
M  V30 1086 C 100.118 -3.20031 2.79044 0
M  V30 1087 O 101.142 -2.6398 2.39151 0
M  V30 1088 O 100.001 -4.21455 3.47905 0
M  V30 1089 H 97.0946 -0.659816 0.49857 0
M  V30 1090 H 99.6406 -0.768106 1.51322 0
M  V30 1091 H 98.4126 -2.06096 3.32626 0
M  V30 1092 H 98.0356 -3.32994 2.17258 0
M  V30 1093 N 99.0327 -1.24633 -0.964593 0
M  V30 1094 C 99.9797 -1.04144 -2.05968 0
M  V30 1095 C 100.95 0.046262 -1.66036 0
M  V30 1096 O 102.135 -0.108972 -1.90489 0
M  V30 1097 C 99.2747 -0.65563 -3.38815 0
M  V30 1098 C 98.3877 -1.81714 -3.91923 0
M  V30 1099 C 97.5227 -1.37662 -5.13052 0
M  V30 1100 C 96.5617 -2.50788 -5.58365 0
M  V30 1101 N 95.6987 -2.07582 -6.70712 0
M  V30 1102 H 100.539 -1.9787 -2.22827 0
M  V30 1103 H 98.0757 -0.9855 -1.09208 0
M  V30 1104 H 100.034 -0.412954 -4.15151 0
M  V30 1105 H 98.6637 0.244627 -3.21872 0
M  V30 1106 H 97.7157 -2.1734 -3.12198 0
M  V30 1107 H 99.0277 -2.66705 -4.21509 0
M  V30 1108 H 98.1817 -1.093 -5.96773 0
M  V30 1109 H 96.9207 -0.497293 -4.85158 0
M  V30 1110 H 95.9257 -2.79906 -4.73215 0
M  V30 1111 H 97.1507 -3.39283 -5.88272 0
M  V30 1112 H 95.0967 -1.22051 -6.44546 0
M  V30 1113 H 95.0137 -2.86125 -6.99763 0
M  V30 1114 H 96.2817 -1.82369 -7.57867 0
M  V30 1115 N 100.511 1.16574 -1.06058 0
M  V30 1116 C 101.458 2.20883 -0.669263 0
M  V30 1117 C 102.428 1.62729 0.332918 0
M  V30 1118 O 103.613 1.895 0.222346 0
M  V30 1119 C 100.753 3.45049 -0.0593572 0
M  V30 1120 C 99.8658 4.17458 -1.11143 0
M  V30 1121 C 99.0008 5.29135 -0.467916 0
M  V30 1122 C 98.0398 5.93343 -1.50369 0
M  V30 1123 N 97.1768 6.96516 -0.883706 0
M  V30 1124 H 102.017 2.53709 -1.5632 0
M  V30 1125 H 99.5538 1.24616 -0.781625 0
M  V30 1126 H 101.512 4.16033 0.311771 0
M  V30 1127 H 100.142 3.12781 0.797992 0
M  V30 1128 H 99.1938 3.45101 -1.60029 0
M  V30 1129 H 100.506 4.61307 -1.89731 0
M  V30 1130 H 99.6598 6.06684 -0.0436871 0
M  V30 1131 H 98.3988 4.86443 0.349864 0
M  V30 1132 H 97.4038 5.14517 -1.93784 0
M  V30 1133 H 98.6288 6.38114 -2.32352 0
M  V30 1134 H 96.5748 6.55943 -0.086595 0
M  V30 1135 H 96.4918 7.38723 -1.607 0
M  V30 1136 H 97.7598 7.77993 -0.484543 0
M  V30 1137 N 101.989 0.842826 1.3317 0
M  V30 1138 C 103.238 0.436738 1.96915 0
M  V30 1139 C 103.551 -1.01025 1.67491 0
M  V30 1140 O 104.757 -1.5212 2.24881 0
M  V30 1141 C 103.213 0.730021 3.52418 0
M  V30 1142 C 102.821 2.19195 3.90714 0
M  V30 1143 C 104.565 0.391076 4.22695 0
M  V30 1144 C 102.472 2.42907 5.39212 0
M  V30 1145 H 101.402 0.15958 0.736919 0
M  V30 1146 H 104.053 1.03196 1.51733 0
M  V30 1147 H 102.435 0.0643755 3.95948 0
M  V30 1148 H 103.609 2.8984 3.58231 0
M  V30 1149 H 101.924 2.49425 3.33431 0
M  V30 1150 H 104.521 0.545817 5.31907 0
M  V30 1151 H 104.864 -0.666294 4.10933 0
M  V30 1152 H 105.397 1.01212 3.84709 0
M  V30 1153 H 102.136 3.47224 5.55982 0
M  V30 1154 H 101.656 1.76827 5.73142 0
M  V30 1155 H 103.335 2.2626 6.06148 0
M  V30 1156 N 103.467 -1.45747 0.599634 0
M  V30 1157 C 104.744 -1.95585 0.0240846 0
M  V30 1158 C 105.124 -1.54217 -1.44154 0
M  V30 1159 O 104.472 -0.800903 -2.14004 0
M  V30 1160 C 104.682 -3.48344 0.21385 0
M  V30 1161 C 106.03 -4.24504 0.0904902 0
M  V30 1162 O 107.054 -3.55911 0.143558 0
M  V30 1163 O 105.913 -5.46491 -0.0310766 0
M  V30 1164 H 103.007 -0.82602 -0.0402478 0
M  V30 1165 H 105.553 -1.55951 0.669139 0
M  V30 1166 H 104.325 -3.71397 1.23206 0
M  V30 1167 H 103.948 -3.9485 -0.466842 0
M  V30 1168 N 104.945 -0.338344 -1.53925 0
M  V30 1169 C 106.192 0.259758 -2.00827 0
M  V30 1170 C 106.52 1.50973 -1.22628 0
M  V30 1171 O 105.775 1.93379 -0.300509 0
M  V30 1172 C 106.074 0.62448 -3.51902 0
M  V30 1173 C 105.74 -0.528006 -4.47798 0
M  V30 1174 C 104.402 -0.844298 -4.73735 0
M  V30 1175 C 106.754 -1.30143 -5.0469 0
M  V30 1176 C 104.082 -1.93648 -5.53821 0
M  V30 1177 C 106.434 -2.38382 -5.85967 0
M  V30 1178 C 105.098 -2.70576 -6.10201 0
M  V30 1179 H 104.368 0.0950523 -0.734878 0
M  V30 1180 H 107.015 -0.465182 -1.85764 0
M  V30 1181 H 105.32 1.43006 -3.64769 0
M  V30 1182 H 107.017 1.09905 -3.85645 0
M  V30 1183 H 103.607 -0.271421 -4.2774 0
M  V30 1184 H 107.791 -1.07033 -4.84621 0
M  V30 1185 H 103.047 -2.19021 -5.70824 0
M  V30 1186 H 107.221 -2.98746 -6.29066 0
M  V30 1187 H 104.848 -3.55333 -6.72044 0
M  V30 1188 N 106.423 1.57458 -0.0668435 0
M  V30 1189 C 107.648 1.9804 0.616027 0
M  V30 1190 C 108.073 0.944771 1.62652 0
M  V30 1191 O 107.431 -0.0902094 1.81075 0
M  V30 1192 C 107.479 3.37665 1.26549 0
M  V30 1193 O 106.583 3.36701 2.38131 0
M  V30 1194 H 105.924 0.644719 0.158849 0
M  V30 1195 H 108.454 2.04121 -0.139891 0
M  V30 1196 H 108.464 3.7474 1.6135 0
M  V30 1197 H 107.139 4.12573 0.525016 0
M  V30 1198 H 105.716 3.1139 2.0516 0
M  V30 1199 N 107.901 -0.206675 1.56239 0
M  V30 1200 C 108.811 -1.27686 1.96808 0
M  V30 1201 C 109.827 -1.50455 0.874035 0
M  V30 1202 O 111.003 -1.63295 1.17884 0
M  V30 1203 C 108.068 -2.60358 2.28942 0
M  V30 1204 C 107.129 -2.45762 3.51994 0
M  V30 1205 C 106.362 -3.72108 3.82585 0
M  V30 1206 O 106.585 -4.75776 3.14631 0
M  V30 1207 O 105.519 -3.6833 4.76043 0
M  V30 1208 H 109.345 -0.962593 2.88041 0
M  V30 1209 H 106.93 -0.410746 1.43643 0
M  V30 1210 H 108.812 -3.38687 2.50737 0
M  V30 1211 H 107.487 -2.91435 1.4088 0
M  V30 1212 H 106.394 -1.65584 3.35459 0
M  V30 1213 H 107.727 -2.19621 4.40486 0
M  V30 1214 N 109.379 -1.50304 -0.473955 0
M  V30 1215 C 110.626 -1.6115 -1.22625 0
M  V30 1216 C 110.954 -0.310517 -1.92005 0
M  V30 1217 O 110.209 0.703419 -1.82621 0
M  V30 1218 C 110.508 -2.73938 -2.29549 0
M  V30 1219 C 110.174 -4.14519 -1.7744 0
M  V30 1220 C 108.836 -4.5277 -1.62949 0
M  V30 1221 C 111.188 -5.02392 -1.3875 0
M  V30 1222 C 108.516 -5.76639 -1.08187 0
M  V30 1223 C 110.868 -6.26805 -0.854309 0
M  V30 1224 C 109.532 -6.63861 -0.696011 0
M  V30 1225 H 108.802 -0.589691 -0.448715 0
M  V30 1226 H 111.449 -1.84228 -0.522705 0
M  V30 1227 H 109.754 -2.44937 -3.05799 0
M  V30 1228 H 111.451 -2.79534 -2.87509 0
M  V30 1229 H 108.041 -3.8434 -1.89685 0
M  V30 1230 H 112.225 -4.73474 -1.4878 0
M  V30 1231 H 107.481 -6.04027 -0.946666 0
M  V30 1232 H 111.655 -6.94258 -0.545843 0
M  V30 1233 H 109.282 -7.59722 -0.26952 0
M  V30 1234 N 110.857 0.726932 -1.39834 0
M  V30 1235 C 111.787 1.85405 -1.41941 0
M  V30 1236 C 112.768 1.67751 -0.281728 0
M  V30 1237 O 113.953 1.8795 -0.488717 0
M  V30 1238 C 111.083 3.23243 -1.2701 0
M  V30 1239 C 110.037 3.55549 -2.38262 0
M  V30 1240 C 109.363 4.9241 -2.08415 0
M  V30 1241 C 110.663 3.577 -3.80589 0
M  V30 1242 H 112.357 1.83899 -2.36266 0
M  V30 1243 H 109.903 0.883349 -1.13723 0
M  V30 1244 H 111.856 4.01775 -1.27103 0
M  V30 1245 H 110.58 3.25296 -0.291564 0
M  V30 1246 H 109.239 2.79351 -2.37399 0
M  V30 1247 H 108.887 4.91052 -1.0898 0
M  V30 1248 H 108.587 5.14992 -2.82943 0
M  V30 1249 H 110.111 5.73289 -2.10171 0
M  V30 1250 H 111.525 4.26293 -3.83337 0
M  V30 1251 H 109.922 3.91804 -4.54543 0
M  V30 1252 H 110.992 2.57328 -4.10987 0
M  V30 1253 N 112.336 1.25143 0.95797 0
M  V30 1254 C 113.561 1.12521 1.74223 0
M  V30 1255 C 113.986 -0.317402 1.85403 0
M  V30 1256 O 113.344 -1.2299 1.33204 0
M  V30 1257 C 113.392 1.78062 3.1357 0
M  V30 1258 O 112.496 1.058 3.98598 0
M  V30 1259 H 111.837 0.39304 0.535178 0
M  V30 1260 H 114.367 1.65641 1.201 0
M  V30 1261 H 114.377 1.84213 3.64046 0
M  V30 1262 H 113.052 2.83021 3.04749 0
M  V30 1263 H 111.629 1.07506 3.57067 0
M  V30 1264 N 113.814 -1.1601 1.06675 0
M  V30 1265 C 114.744 -2.22688 0.702307 0
M  V30 1266 C 115.725 -1.67306 -0.307032 0
M  V30 1267 O 116.91 -1.93352 -0.181305 0
M  V30 1268 C 114.04 -3.47178 0.092038 0
M  V30 1269 C 112.994 -4.15477 1.02777 0
M  V30 1270 C 112.32 -5.33963 0.28061 0
M  V30 1271 C 113.62 -4.66019 2.35846 0
M  V30 1272 H 115.314 -2.53429 1.59419 0
M  V30 1273 H 112.86 -1.21813 0.767961 0
M  V30 1274 H 114.813 -4.21037 -0.174814 0
M  V30 1275 H 113.537 -3.15749 -0.834877 0
M  V30 1276 H 112.196 -3.43549 1.27944 0
M  V30 1277 H 111.844 -4.98788 -0.649545 0
M  V30 1278 H 111.544 -5.806 0.904258 0
M  V30 1279 H 113.068 -6.10596 0.021396 0
M  V30 1280 H 114.482 -5.3144 2.15045 0
M  V30 1281 H 112.879 -5.23293 2.93743 0
M  V30 1282 H 113.949 -3.82023 2.98641 0
M  V30 1283 N 115.292 -0.849877 -1.32721 0
M  V30 1284 C 116.222 -0.306308 -2.31482 0
M  V30 1285 C 117.203 0.591952 -1.59468 0
M  V30 1286 O 118.388 0.513199 -1.87296 0
M  V30 1287 C 115.518 0.510204 -3.43532 0
M  V30 1288 C 114.472 -0.293209 -4.26994 0
M  V30 1289 C 113.798 0.647743 -5.30762 0
M  V30 1290 C 115.098 -1.51634 -4.99804 0
M  V30 1291 H 116.792 -1.13153 -2.77195 0
M  V30 1292 H 114.338 -0.545553 -1.33266 0
M  V30 1293 H 116.291 0.900856 -4.11658 0
M  V30 1294 H 115.015 1.36874 -2.96535 0
M  V30 1295 H 113.674 -0.665555 -3.60508 0
M  V30 1296 H 113.322 1.50299 -4.8002 0
M  V30 1297 H 113.022 0.11422 -5.87489 0
M  V30 1298 H 114.546 1.03567 -6.01753 0
M  V30 1299 H 115.96 -1.19824 -5.60638 0
M  V30 1300 H 114.357 -1.98745 -5.66234 0
M  V30 1301 H 115.427 -2.28018 -4.27943 0
M  V30 1302 N 116.77 1.45427 -0.607355 0
M  V30 1303 C 118.018 2.01841 -0.102253 0
M  V30 1304 C 118.339 1.47832 1.27164 0
M  V30 1305 O 117.609 0.672497 1.83995 0
M  V30 1306 H 116.189 0.746188 -0.0348101 0
M  V30 1307 H 118.851 1.78229 -0.7887 0
M  V30 1308 H 117.947 3.12057 -0.0518585 0
M  V30 1309 N 118.248 0.346503 1.53744 0
M  V30 1310 C 119.525 -0.304532 1.93215 0
M  V30 1311 C 119.905 -1.67993 1.27834 0
M  V30 1312 O 119.253 -2.24411 0.430352 0
M  V30 1313 C 119.463 -0.373852 3.46992 0
M  V30 1314 C 120.811 -0.62329 4.2 0
M  V30 1315 O 121.835 -0.455847 3.53271 0
M  V30 1316 O 120.694 -0.947879 5.38217 0
M  V30 1317 H 117.788 -0.178318 0.807547 0
M  V30 1318 H 120.334 0.397895 1.64969 0
M  V30 1319 H 119.106 0.591224 3.86808 0
M  V30 1320 H 118.729 -1.12294 3.81413 0
M  V30 1321 N 119.726 -1.57421 0.075193 0
M  V30 1322 C 120.975 -1.92794 -0.592731 0
M  V30 1323 C 121.288 -0.957478 -1.70563 0
M  V30 1324 O 122.494 -1.20417 -2.43335 0
M  V30 1325 C 120.95 -3.42495 -1.10569 0
M  V30 1326 C 120.558 -4.47994 -0.0236121 0
M  V30 1327 C 122.302 -3.86864 -1.74748 0
M  V30 1328 C 120.209 -5.88829 -0.550803 0
M  V30 1329 H 119.139 -0.719591 -0.225177 0
M  V30 1330 H 121.79 -1.82902 0.147978 0
M  V30 1331 H 120.172 -3.47471 -1.89947 0
M  V30 1332 H 121.346 -4.54637 0.751099 0
M  V30 1333 H 119.661 -4.13113 0.522159 0
M  V30 1334 H 122.258 -4.8947 -2.15229 0
M  V30 1335 H 122.601 -3.24417 -2.60882 0
M  V30 1336 H 123.134 -3.84504 -1.01986 0
M  V30 1337 H 119.873 -6.54929 0.273457 0
M  V30 1338 H 119.393 -5.85698 -1.29296 0
M  V30 1339 H 121.072 -6.38811 -1.02613 0
M  V30 1340 N 121.204 0.198386 -1.56346 0
M  V30 1341 C 122.167 1.22952 -1.93431 0
M  V30 1342 C 123.167 1.38611 -0.815092 0
M  V30 1343 O 124.357 1.36479 -1.08255 0
M  V30 1344 C 121.489 2.59946 -2.20546 0
M  V30 1345 H 122.682 0.912626 -2.85677 0
M  V30 1346 H 120.235 0.43977 -1.49986 0
M  V30 1347 H 120.97 2.96696 -1.30927 0
M  V30 1348 H 120.755 2.49953 -3.02102 0
M  V30 1349 H 122.245 3.3431 -2.50253 0
M  V30 1350 N 122.682 1.50554 0.465978 0
M  V30 1351 C 123.91 1.65563 1.24083 0
M  V30 1352 C 124.325 0.341051 1.85694 0
M  V30 1353 O 123.682 -0.677543 1.69457 0
M  V30 1354 C 123.733 2.75051 2.34583 0
M  V30 1355 O 123.454 4.01413 1.75497 0
M  V30 1356 C 124.955 3.01078 3.25372 0
M  V30 1357 H 122.175 0.55638 0.375077 0
M  V30 1358 H 124.719 1.96807 0.555624 0
M  V30 1359 H 122.874 2.46486 2.9887 0
M  V30 1360 H 123.288 4.62002 2.48303 0
M  V30 1361 H 124.762 3.81339 3.99105 0
M  V30 1362 H 125.239 2.12349 3.84453 0
M  V30 1363 H 125.845 3.31194 2.66816 0
M  V30 1364 N 124.16 -0.719506 1.40217 0
M  V30 1365 C 125.437 -1.47221 1.28784 0
M  V30 1366 C 125.817 -2.10883 -0.0956067 0
M  V30 1367 O 125.165 -1.99833 -1.10811 0
M  V30 1368 C 125.375 -2.5111 2.42373 0
M  V30 1369 C 126.723 -3.17053 2.82423 0
M  V30 1370 O 127.747 -2.61429 2.41937 0
M  V30 1371 O 126.606 -4.17742 3.52355 0
M  V30 1372 H 123.7 -0.654491 0.50554 0
M  V30 1373 H 126.246 -0.752014 1.52128 0
M  V30 1374 H 125.018 -2.02556 3.34793 0
M  V30 1375 H 124.641 -3.3067 2.20778 0
M  V30 1376 N 125.638 -1.25649 -0.95132 0
M  V30 1377 C 126.868 -1.13179 -1.72841 0
M  V30 1378 C 127.276 0.316827 -1.86528 0
M  V30 1379 O 126.619 1.22948 -1.3649 0
M  V30 1380 C 126.681 -1.71644 -3.15878 0
M  V30 1381 C 126.345 -3.20667 -3.25609 0
M  V30 1382 C 127.342 -4.17616 -3.09666 0
M  V30 1383 C 125.027 -3.6094 -3.49324 0
M  V30 1384 C 127.021 -5.52817 -3.17289 0
M  V30 1385 C 124.708 -4.96278 -3.56584 0
M  V30 1386 C 125.706 -5.92025 -3.40581 0
M  V30 1387 O 125.394 -7.24899 -3.47528 0
M  V30 1388 H 125.126 -0.395389 -0.54831 0
M  V30 1389 H 127.68 -1.66566 -1.20187 0
M  V30 1390 H 125.91 -1.12707 -3.69911 0
M  V30 1391 H 127.599 -1.54225 -3.75459 0
M  V30 1392 H 128.365 -3.87842 -2.91211 0
M  V30 1393 H 124.244 -2.86907 -3.6084 0
M  V30 1394 H 127.788 -6.2753 -3.04716 0
M  V30 1395 H 123.685 -5.25716 -3.74556 0
M  V30 1396 H 124.453 -7.33039 -3.64138 0
M  V30 1397 N 127.117 1.15442 -1.07289 0
M  V30 1398 C 128.067 2.18164 -0.662467 0
M  V30 1399 C 129.051 1.57845 0.312074 0
M  V30 1400 O 130.243 1.76552 0.125905 0
M  V30 1401 C 127.372 3.43246 -0.0611295 0
M  V30 1402 C 126.458 4.1062 -1.06077 0
M  V30 1403 N 126.849 4.53491 -2.24008 0
M  V30 1404 C 125.147 4.36949 -0.893964 0
M  V30 1405 C 125.848 5.05731 -2.87422 0
M  V30 1406 N 124.824 4.99236 -2.15091 0
M  V30 1407 H 128.626 2.49038 -1.56068 0
M  V30 1408 H 126.14 1.32003 -0.945988 0
M  V30 1409 H 128.137 4.16145 0.250792 0
M  V30 1410 H 126.797 3.13854 0.832207 0
M  V30 1411 H 127.808 4.46898 -2.6173 0
M  V30 1412 H 124.485 4.17466 -0.0534693 0
M  V30 1413 H 125.875 5.48865 -3.87553 0
M  V30 1414 N 128.595 0.856903 1.32268 0
M  V30 1415 C 129.542 0.301172 2.28827 0
M  V30 1416 C 130.512 -0.593104 1.5515 0
M  V30 1417 O 131.697 -0.527537 1.83362 0
M  V30 1418 C 128.837 -0.502523 3.41422 0
M  V30 1419 C 127.95 0.417797 4.29975 0
M  V30 1420 C 127.085 -0.398749 5.29701 0
M  V30 1421 C 126.124 0.518827 6.09897 0
M  V30 1422 N 125.261 -0.260674 7.01616 0
M  V30 1423 H 130.101 1.12983 2.75751 0
M  V30 1424 H 127.638 0.568582 1.35667 0
M  V30 1425 H 129.596 -0.984141 4.05426 0
M  V30 1426 H 128.226 -1.29599 2.95642 0
M  V30 1427 H 127.278 1.01781 3.66531 0
M  V30 1428 H 128.59 1.12191 4.86019 0
M  V30 1429 H 127.744 -0.943435 5.9932 0
M  V30 1430 H 126.483 -1.13622 4.7428 0
M  V30 1431 H 125.488 1.07538 5.39181 0
M  V30 1432 H 126.713 1.25495 6.67404 0
M  V30 1433 H 124.659 -0.981198 6.4862 0
M  V30 1434 H 124.576 0.384364 7.55022 0
M  V30 1435 H 125.844 -0.787014 7.75517 0
M  V30 1436 N 130.073 -1.45103 0.615059 0
M  V30 1437 C 131.005 -2.28786 -0.13762 0
M  V30 1438 C 132.018 -1.40376 -0.824525 0
M  V30 1439 O 133.207 -1.64681 -0.688662 0
M  V30 1440 C 130.307 -3.16322 -1.21628 0
M  V30 1441 C 129.48 -4.33054 -0.615039 0
M  V30 1442 C 128.539 -5.01743 -1.58556 0
M  V30 1443 O 127.565 -5.58293 -1.10895 0
M  V30 1444 N 128.767 -5.01714 -2.91998 0
M  V30 1445 H 131.532 -2.94025 0.580483 0
M  V30 1446 H 129.093 -1.55373 0.45507 0
M  V30 1447 H 131.085 -3.59139 -1.86552 0
M  V30 1448 H 129.655 -2.52943 -1.83681 0
M  V30 1449 H 128.875 -3.93627 0.21245 0
M  V30 1450 H 130.163 -5.08431 -0.193704 0
M  V30 1451 H 129.561 -4.57075 -3.33316 0
M  V30 1452 H 128.118 -5.48371 -3.52325 0
M  V30 1453 N 131.551 -0.354651 -1.53558 0
M  V30 1454 C 132.776 0.242153 -2.05981 0
M  V30 1455 C 133.201 1.42553 -1.2272 0
M  V30 1456 O 132.559 1.79656 -0.243604 0
M  V30 1457 C 132.607 0.624367 -3.55154 0
M  V30 1458 O 131.711 1.72301 -3.74681 0
M  V30 1459 H 131.052 0.0378432 -0.662921 0
M  V30 1460 H 133.582 -0.512087 -1.98088 0
M  V30 1461 H 133.592 0.898433 -3.97985 0
M  V30 1462 H 132.267 -0.240989 -4.15201 0
M  V30 1463 H 130.844 1.44535 -3.4375 0
M  V30 1464 N 133.029 1.57378 -0.0835403 0
M  V30 1465 C 133.979 2.09916 0.889905 0
M  V30 1466 C 134.963 1.01151 1.25129 0
M  V30 1467 O 136.155 1.27443 1.2283 0
M  V30 1468 C 133.284 2.67379 2.15322 0
M  V30 1469 C 132.37 3.83167 1.81779 0
M  V30 1470 N 132.761 4.91665 1.18739 0
M  V30 1471 C 131.059 3.92685 2.11459 0
M  V30 1472 C 131.76 5.72409 1.0355 0
M  V30 1473 N 130.736 5.21062 1.54906 0
M  V30 1474 H 134.538 2.91188 0.398378 0
M  V30 1475 H 132.052 1.61956 0.120013 0
M  V30 1476 H 134.049 3.0334 2.8599 0
M  V30 1477 H 132.709 1.87558 2.65051 0
M  V30 1478 H 133.72 5.10784 0.855604 0
M  V30 1479 H 130.397 3.23856 2.63483 0
M  V30 1480 H 131.787 6.69699 0.543425 0
M  V30 1481 N 134.507 -0.190092 1.56449 0
M  V30 1482 C 135.755 -0.907908 1.80559 0
M  V30 1483 C 136.076 -1.83583 0.657438 0
M  V30 1484 O 135.346 -1.93203 -0.323924 0
M  V30 1485 H 133.926 -0.338247 0.666032 0
M  V30 1486 H 136.588 -0.194403 1.93928 0
M  V30 1487 H 135.684 -1.49604 2.73907 0
M  V30 1488 N 135.985 -1.50799 -0.457987 0
M  V30 1489 C 136.948 -1.7005 -1.53674 0
M  V30 1490 C 137.948 -0.570881 -1.50325 0
M  V30 1491 O 139.138 -0.838126 -1.52712 0
M  V30 1492 C 136.27 -1.73788 -2.93276 0
M  V30 1493 H 137.463 -2.66306 -1.37917 0
M  V30 1494 H 135.016 -1.40477 -0.685271 0
M  V30 1495 H 135.751 -0.792717 -3.14462 0
M  V30 1496 H 135.536 -2.55864 -2.97113 0
M  V30 1497 H 137.026 -1.90591 -3.71571 0
M  V30 1498 N 137.463 0.71206 -1.40597 0
M  V30 1499 C 138.426 1.80785 -1.40888 0
M  V30 1500 C 139.426 1.57937 -0.302103 0
M  V30 1501 O 140.616 1.64913 -0.561182 0
M  V30 1502 C 137.748 3.18927 -1.20409 0
M  V30 1503 H 138.941 1.81924 -2.38419 0
M  V30 1504 H 136.494 0.91805 -1.26497 0
M  V30 1505 H 137.229 3.23436 -0.236522 0
M  V30 1506 H 137.014 3.36911 -2.00582 0
M  V30 1507 H 138.504 3.98949 -1.23408 0
M  V30 1508 N 138.941 1.26152 0.944643 0
M  V30 1509 C 140.352 1.10454 1.50522 0
M  V30 1510 C 140.703 -0.31635 1.93633 0
M  V30 1511 O 139.828 -1.20746 1.79581 0
M  V30 1512 C 140.423 1.99891 2.73549 0
M  V30 1513 C 138.982 1.88348 3.25886 0
M  V30 1514 C 138.129 1.93447 1.9868 0
M  V30 1515 H 141.08 1.39292 0.760489 0
M  V30 1516 H 141.101 1.54477 3.47732 0
M  V30 1517 H 140.613 3.03297 2.42141 0
M  V30 1518 H 138.714 0.878636 3.62092 0
M  V30 1519 H 138.827 2.73696 3.93227 0
M  V30 1520 H 137.191 1.37456 2.14425 0
M  V30 1521 H 137.974 2.98476 1.69607 0
M  V30 1522 N 140.419 -1.14872 1.07899 0
M  V30 1523 C 141.659 -1.8745 0.814965 0
M  V30 1524 C 142.023 -1.80758 -0.64733 0
M  V30 1525 O 143.224 -2.48422 -1.02664 0
M  V30 1526 C 141.495 -3.32286 1.31607 0
M  V30 1527 S 143.054 -4.22537 1.18357 0
M  V30 1528 H 139.872 -0.646833 0.295174 0
M  V30 1529 H 142.474 -1.38555 1.37923 0
M  V30 1530 H 141.178 -3.34703 2.37491 0
M  V30 1531 H 140.709 -3.86238 0.747261 0
M  V30 1532 H 142.724 -4.96044 0.124586 0
M  V30 1533 N 141.898 -0.863906 -1.31812 0
M  V30 1534 C 143.123 -0.48527 -2.01643 0
M  V30 1535 C 143.548 0.913058 -1.64453 0
M  V30 1536 O 142.906 1.6014 -0.849985 0
M  V30 1537 C 142.954 -0.642625 -3.54828 0
M  V30 1538 O 142.058 0.320659 -4.11151 0
M  V30 1539 H 141.399 -0.193793 -0.635091 0
M  V30 1540 H 143.929 -1.16565 -1.68148 0
M  V30 1541 H 143.939 -0.533628 -4.04495 0
M  V30 1542 H 142.614 -1.66227 -3.81237 0
M  V30 1543 H 141.191 0.167126 -3.72525 0
M  V30 1544 N 143.376 1.44774 -0.622745 0
M  V30 1545 C 144.624 2.01721 -0.123655 0
M  V30 1546 C 144.945 1.49172 1.25589 0
M  V30 1547 O 144.215 0.691974 1.83272 0
M  V30 1548 H 142.795 0.745777 -0.0427225 0
M  V30 1549 H 145.457 1.77382 -0.807559 0
M  V30 1550 H 144.553 3.11984 -0.0849534 0
M  V30 1551 N 144.854 0.36279 1.53368 0
M  V30 1552 C 146.102 -0.227326 2.00817 0
M  V30 1553 C 146.423 -1.49511 1.25186 0
M  V30 1554 O 145.693 -1.92482 0.364348 0
M  V30 1555 H 144.273 -0.0869923 0.741917 0
M  V30 1556 H 146.935 0.488381 1.88682 0
M  V30 1557 H 146.031 -0.456273 3.08747 0
M  V30 1558 N 146.332 -1.57332 0.0918853 0
M  V30 1559 C 147.557 -1.98995 -0.584442 0
M  V30 1560 C 147.982 -0.970528 -1.61128 0
M  V30 1561 O 147.34 0.0613904 -1.81196 0
M  V30 1562 C 147.388 -3.39636 -1.21161 0
M  V30 1563 O 146.492 -3.40447 -2.32744 0
M  V30 1564 H 145.833 -0.647165 -0.148572 0
M  V30 1565 H 148.363 -2.03873 0.172347 0
M  V30 1566 H 148.373 -3.7726 -1.55367 0
M  V30 1567 H 147.048 -4.13356 -0.459313 0
M  V30 1568 H 145.625 -3.14614 -2.0018 0
M  V30 1569 N 147.81 0.181792 -1.56548 0
M  V30 1570 C 148.742 1.24956 -1.92142 0
M  V30 1571 C 149.755 1.41022 -0.813422 0
M  V30 1572 O 150.944 1.41212 -1.09186 0
M  V30 1573 C 148.044 2.61981 -2.14987 0
M  V30 1574 C 147.217 2.6735 -3.46183 0
M  V30 1575 C 146.276 3.85664 -3.5798 0
M  V30 1576 O 145.302 3.72148 -4.30691 0
M  V30 1577 N 146.504 5.01683 -2.92053 0
M  V30 1578 H 149.269 0.947329 -2.84334 0
M  V30 1579 H 146.83 0.371629 -1.57577 0
M  V30 1580 H 148.822 3.3958 -2.20154 0
M  V30 1581 H 147.392 2.84637 -1.2923 0
M  V30 1582 H 146.612 1.75925 -3.52766 0
M  V30 1583 H 147.9 2.67939 -4.32534 0
M  V30 1584 H 147.298 5.15564 -2.32832 0
M  V30 1585 H 145.855 5.77181 -3.0283 0
M  V30 1586 O 149.327 1.58157 0.326881 0
M  V30 1587 H 150.018 1.6734 0.975558 0
M  V30 END ATOM
M  V30 BEGIN BOND
M  V30 END BOND
M  V30 END CTAB
M  END
$$$$
