drugbank_target|P05618 Cyclomaltodextrin glucanotransferase (DB01841; DB02120; DB02379; DB03206)
 OpenBabel12092119533D

  0  0  0     0  0            999 V3000
M  V30 BEGIN CTAB
M  V30 COUNTS 10834 10974 0 0 0
M  V30 BEGIN ATOM
M  V30 1 H -0.908 1.98254 -0.117106 0
M  V30 2 N 0 1.576 0 0
M  V30 3 C 0.933 2.03868 1.02534 0
M  V30 4 C 1.911 0.928543 1.3348 0
M  V30 5 O 3.095 1.19667 1.45644 0
M  V30 6 C 0.222 2.43627 2.35294 0
M  V30 7 C -0.732 3.65373 2.2001 0
M  V30 8 S 0.101 5.13292 1.52614 0
M  V30 9 C 1.257 5.56322 2.86805 0
M  V30 10 H 1.49 2.90518 0.631377 0
M  V30 11 H -0.977 1.52953 0.210867 0
M  V30 12 H 0.981 2.67203 3.11629 0
M  V30 13 H -0.358 1.57376 2.7183 0
M  V30 14 H -1.165 3.90944 3.18086 0
M  V30 15 H -1.563 3.418 1.51819 0
M  V30 16 H 0.729 5.58782 3.83104 0
M  V30 17 H 1.672 6.56266 2.65933 0
M  V30 18 H 2.08 4.83886 2.90714 0
M  V30 19 N 1.4781 -0.272755 1.55222 0
M  V30 20 C 2.4251 -1.33716 1.88119 0
M  V30 21 C 3.3951 -1.49066 0.73271 0
M  V30 22 O 4.5801 -1.63469 0.984002 0
M  V30 23 C 1.7201 -2.69238 2.15882 0
M  V30 24 C 0.8331 -2.62108 3.43399 0
M  V30 25 C -0.0319 -3.89811 3.60861 0
M  V30 26 C -0.9929 -3.77193 4.8207 0
M  V30 27 N -1.8559 -4.9673 4.96189 0
M  V30 28 H 2.9841 -1.04962 2.78903 0
M  V30 29 H 0.5211 -0.507088 1.38083 0
M  V30 30 H 2.4791 -3.48089 2.29978 0
M  V30 31 H 1.1091 -2.96194 1.28331 0
M  V30 32 H 0.1611 -1.74967 3.37773 0
M  V30 33 H 1.4731 -2.48685 4.32386 0
M  V30 34 H 0.6271 -4.77103 3.74777 0
M  V30 35 H -0.6339 -4.06102 2.7006 0
M  V30 36 H -1.6289 -2.88284 4.68159 0
M  V30 37 H -0.4039 -3.62421 5.74307 0
M  V30 38 H -2.4579 -5.13431 4.08319 0
M  V30 39 H -2.5409 -4.85839 5.79221 0
M  V30 40 H -1.2729 -5.85594 5.1449 0
M  V30 41 N 2.9562 -1.48159 -0.537278 0
M  V30 42 C 4.3722 -1.34118 -0.865129 0
M  V30 43 C 4.5722 -0.346678 -1.98495 0
M  V30 44 O 3.6282 0.234715 -2.51407 0
M  V30 45 C 4.9412 -2.73963 -1.23954 0
M  V30 46 C 6.4892 -2.82397 -1.34984 0
M  V30 47 C 6.9642 -4.22928 -1.75772 0
M  V30 48 N 8.4552 -4.25566 -1.82887 0
M  V30 49 C 9.1902 -5.31235 -2.15817 0
M  V30 50 N 8.6862 -6.47189 -2.47222 0
M  V30 51 N 10.4792 -5.18624 -2.16761 0
M  V30 52 H 2.6302 -2.1144 0.201715 0
M  V30 53 H 4.8932 -0.947598 0.0275949 0
M  V30 54 H 4.5992 -3.48264 -0.490381 0
M  V30 55 H 4.4732 -3.0702 -2.19132 0
M  V30 56 H 6.8602 -2.08356 -2.08978 0
M  V30 57 H 6.9412 -2.5297 -0.379448 0
M  V30 58 H 6.5852 -4.97482 -1.02341 0
M  V30 59 H 6.5152 -4.49794 -2.73848 0
M  V30 60 H 9.0062 -3.41924 -1.60924 0
M  V30 61 H 9.3192 -7.23564 -2.71433 0
M  V30 62 H 7.6642 -6.50476 -2.44757 0
M  V30 63 H 10.8552 -4.27056 -1.91679 0
M  V30 64 H 11.0282 -6.01078 -2.42093 0
M  V30 65 N 4.4343 0.785586 -1.36625 0
M  V30 66 C 5.6813 1.54362 -1.31067 0
M  V30 67 C 6.0093 1.94195 0.10893 0
M  V30 68 O 5.2643 1.63262 1.07908 0
M  V30 69 C 5.5633 2.83007 -2.1827 0
M  V30 70 C 5.2293 2.62294 -3.6676 0
M  V30 71 C 3.8913 2.56353 -4.0723 0
M  V30 72 C 6.2433 2.43371 -4.6089 0
M  V30 73 C 3.5713 2.29461 -5.39967 0
M  V30 74 C 5.9233 2.18005 -5.93849 0
M  V30 75 C 4.5873 2.105 -6.3344 0
M  V30 76 H 3.8573 0.564851 -0.479609 0
M  V30 77 H 6.5043 0.906028 -1.68711 0
M  V30 78 H 4.8093 3.51253 -1.73576 0
M  V30 79 H 6.5063 3.40817 -2.11292 0
M  V30 80 H 3.0963 2.67774 -3.34656 0
M  V30 81 H 7.2803 2.46959 -4.30494 0
M  V30 82 H 2.5363 2.22135 -5.69619 0
M  V30 83 H 6.7103 2.02359 -6.66351 0
M  V30 84 H 4.3373 1.89425 -7.36222 0
M  V30 85 N 5.9124 1.20967 1.01018 0
M  V30 86 C 6.8454 0.907578 2.09376 0
M  V30 87 C 7.8234 -0.142868 1.61971 0
M  V30 88 O 9.0074 -0.0150391 1.88494 0
M  V30 89 C 6.1344 0.361791 3.36762 0
M  V30 90 C 5.1804 1.39423 4.03068 0
M  V30 91 S 6.0134 2.96159 4.4615 0
M  V30 92 C 7.1694 2.43173 5.7673 0
M  V30 93 H 7.4024 1.82519 2.34678 0
M  V30 94 H 4.9354 1.03884 1.14225 0
M  V30 95 H 6.8934 0.0534523 4.10465 0
M  V30 96 H 5.5544 -0.53443 3.0952 0
M  V30 97 H 4.7474 0.961853 4.94737 0
M  V30 98 H 4.3494 1.65038 3.35617 0
M  V30 99 H 6.6414 1.83335 6.52223 0
M  V30 100 H 7.5844 3.33264 6.24773 0
M  V30 101 H 7.9924 1.85069 5.33301 0
M  V30 102 N 7.3905 -1.2043 1.01659 0
M  V30 103 C 8.3375 -2.23215 0.586822 0
M  V30 104 C 9.3075 -1.61382 -0.393085 0
M  V30 105 O 10.4925 -1.88544 -0.292525 0
M  V30 106 C 7.6325 -3.45032 -0.0687464 0
M  V30 107 C 6.7455 -4.21296 0.955724 0
M  V30 108 C 5.8805 -5.30507 0.271208 0
M  V30 109 C 4.9195 -5.98515 1.28244 0
M  V30 110 N 4.0565 -6.99316 0.62459 0
M  V30 111 H 8.8965 -2.59336 1.46796 0
M  V30 112 H 6.4335 -1.27431 0.734836 0
M  V30 113 H 8.3915 -4.1459 -0.465965 0
M  V30 114 H 7.0215 -3.09604 -0.913529 0
M  V30 115 H 6.0735 -3.50803 1.4711 0
M  V30 116 H 7.3855 -4.6803 1.72479 0
M  V30 117 H 6.5395 -6.06428 -0.18151 0
M  V30 118 H 5.2785 -4.8481 -0.530163 0
M  V30 119 H 4.2835 -5.21355 1.74554 0
M  V30 120 H 5.5085 -6.46298 2.08509 0
M  V30 121 H 3.4545 -6.55812 -0.156914 0
M  V30 122 H 3.3715 -7.44178 1.33172 0
M  V30 123 H 4.6395 -7.79255 0.195462 0
M  V30 124 N 8.8686 -0.792821 -1.36206 0
M  V30 125 C 9.7986 -0.207853 -2.32573 0
M  V30 126 C 10.7796 0.659055 -1.56813 0
M  V30 127 O 11.9646 0.592176 -1.84951 0
M  V30 128 C 9.0946 0.655449 -3.41059 0
M  V30 129 C 8.0486 -0.111842 -4.27854 0
M  V30 130 C 7.3746 0.872274 -5.27537 0
M  V30 131 C 8.6746 -1.30299 -5.05786 0
M  V30 132 H 10.3686 -1.01294 -2.81744 0
M  V30 133 H 7.9146 -0.48854 -1.3546 0
M  V30 134 H 9.8676 1.07464 -4.07467 0
M  V30 135 H 8.5916 1.49328 -2.90463 0
M  V30 136 H 7.2506 -0.512053 -3.63006 0
M  V30 137 H 6.8986 1.70523 -4.73214 0
M  V30 138 H 6.5986 0.363291 -5.86476 0
M  V30 139 H 8.1226 1.28996 -5.96818 0
M  V30 140 H 9.5366 -0.959379 -5.65216 0
M  V30 141 H 7.9336 -1.7455 -5.74154 0
M  V30 142 H 9.0036 -2.09663 -4.37229 0
M  V30 143 N 10.3467 1.47872 -0.545128 0
M  V30 144 C 11.5747 2.06889 -0.021084 0
M  V30 145 C 11.9897 1.39955 1.2672 0
M  V30 146 O 11.3467 0.492036 1.75742 0
M  V30 147 C 11.3977 3.60996 0.190817 0
M  V30 148 O 11.1187 4.25419 -1.04644 0
M  V30 149 C 12.6197 4.36849 0.753521 0
M  V30 150 H 9.8397 0.669785 -0.0403635 0
M  V30 151 H 12.3837 1.90049 -0.755095 0
M  V30 152 H 10.5387 3.77391 0.87492 0
M  V30 153 H 10.9527 5.17785 -0.836611 0
M  V30 154 H 12.4267 5.45399 0.851139 0
M  V30 155 H 12.9037 4.02306 1.762 0
M  V30 156 H 13.5097 4.25169 0.105503 0
M  V30 157 N 11.8248 0.280983 1.55075 0
M  V30 158 C 12.7878 -0.590896 2.21452 0
M  V30 159 C 13.7878 -1.07682 1.19421 0
M  V30 160 O 14.9778 -0.97605 1.44288 0
M  V30 161 C 12.1098 -1.81587 2.88511 0
M  V30 162 H 13.3028 -0.0112554 2.99898 0
M  V30 163 H 10.8558 0.0316438 1.56268 0
M  V30 164 H 11.5908 -2.43587 2.14093 0
M  V30 165 H 11.3758 -1.4753 3.63287 0
M  V30 166 H 12.8658 -2.43575 3.39206 0
M  V30 167 N 13.3029 -1.57598 0.00835791 0
M  V30 168 C 14.5489 -1.91211 -0.675732 0
M  V30 169 C 14.8819 -0.883139 -1.72958 0
M  V30 170 O 14.1569 0.097016 -1.94258 0
M  V30 171 C 14.4399 -3.35379 -1.31123 0
M  V30 172 C 14.2929 -4.48999 -0.268356 0
M  V30 173 C 15.6119 -3.7912 -2.23508 0
M  V30 174 H 12.7309 -0.695374 -0.244179 0
M  V30 175 H 15.3729 -1.89901 0.0613655 0
M  V30 176 H 13.5229 -3.36626 -1.93946 0
M  V30 177 H 15.1949 -4.59887 0.360844 0
M  V30 178 H 13.4379 -4.31873 0.408482 0
M  V30 179 H 14.1089 -5.46851 -0.752218 0
M  V30 180 H 16.5849 -3.79477 -1.70693 0
M  V30 181 H 15.4609 -4.80729 -2.64936 0
M  V30 182 H 15.7219 -3.13455 -3.11766 0
M  V30 183 N 14.781 0.264519 -1.55364 0
M  V30 184 C 16.027 0.992314 -1.77552 0
M  V30 185 C 16.382 1.83626 -0.574379 0
M  V30 186 O 15.675 1.86648 0.432782 0
M  V30 187 C 15.869 1.9004 -3.02687 0
M  V30 188 C 15.698 1.14583 -4.34857 0
M  V30 189 C 14.468 0.858068 -4.97961 0
M  V30 190 C 16.666 0.532069 -5.1154 0
M  V30 191 N 14.648 0.0775974 -6.13851 0
M  V30 192 C 16.019 -0.113823 -6.19896 0
M  V30 193 C 18.074 0.440763 -4.95945 0
M  V30 194 C 16.777 -0.842231 -7.14352 0
M  V30 195 C 18.803 -0.274072 -5.90765 0
M  V30 196 C 18.165 -0.90867 -6.98515 0
M  V30 197 H 14.264 0.344811 -0.701875 0
M  V30 198 H 16.848 0.267141 -1.92859 0
M  V30 199 H 15.019 2.59775 -2.88741 0
M  V30 200 H 16.751 2.56243 -3.13243 0
M  V30 201 H 13.506 1.16547 -4.59036 0
M  V30 202 H 13.93 -0.300216 -6.76334 0
M  V30 203 H 18.572 0.917064 -4.12735 0
M  V30 204 H 16.29 -1.33019 -7.97077 0
M  V30 205 H 19.876 -0.345151 -5.80775 0
M  V30 206 H 18.756 -1.45299 -7.70622 0
M  V30 207 N 16.2591 1.48442 0.529413 0
M  V30 208 C 17.4871 1.60151 1.30994 0
M  V30 209 C 17.9021 0.261985 1.86973 0
M  V30 210 O 17.2591 -0.748805 1.66431 0
M  V30 211 C 17.3101 2.64854 2.46038 0
M  V30 212 O 17.0311 3.93608 1.92365 0
M  V30 213 C 18.5321 2.87007 3.37849 0
M  V30 214 H 15.7521 0.539971 0.398338 0
M  V30 215 H 18.2961 1.94273 0.638597 0
M  V30 216 H 16.4511 2.33589 3.09055 0
M  V30 217 H 16.8651 4.51055 2.67675 0
M  V30 218 H 18.3391 3.64068 4.14919 0
M  V30 219 H 18.8161 1.95852 3.93114 0
M  V30 220 H 19.4221 3.19579 2.80623 0
M  V30 221 N 17.7372 -0.778329 1.37039 0
M  V30 222 C 18.6672 -1.90546 1.34962 0
M  V30 223 C 19.6482 -1.68681 0.219274 0
M  V30 224 O 20.8332 -1.89634 0.418624 0
M  V30 225 C 17.9632 -3.27734 1.14925 0
M  V30 226 C 16.9172 -3.64147 2.24902 0
M  V30 227 C 16.2432 -4.99806 1.89996 0
M  V30 228 C 17.5432 -3.71579 3.67051 0
M  V30 229 H 19.2372 -1.92541 2.29277 0
M  V30 230 H 16.7832 -0.924948 1.10366 0
M  V30 231 H 18.7362 -4.06215 1.12104 0
M  V30 232 H 17.4602 -3.26154 0.170631 0
M  V30 233 H 16.1192 -2.8797 2.26868 0
M  V30 234 H 15.7672 -4.94759 0.906796 0
M  V30 235 H 15.4672 -5.25139 2.63634 0
M  V30 236 H 16.9912 -5.80694 1.88749 0
M  V30 237 H 18.4052 -4.40227 3.67251 0
M  V30 238 H 16.8022 -4.08405 4.39688 0
M  V30 239 H 17.8722 -2.72404 4.01154 0
M  V30 240 N 19.2153 -1.21501 -1.00376 0
M  V30 241 C 20.4613 -1.04457 -1.74529 0
M  V30 242 C 20.8163 0.417386 -1.87818 0
M  V30 243 O 20.1093 1.30556 -1.40234 0
M  V30 244 C 20.3033 -1.67673 -3.15627 0
M  V30 245 C 20.1323 -3.19865 -3.16096 0
M  V30 246 C 18.9023 -3.88915 -3.22604 0
M  V30 247 C 21.1003 -4.16936 -3.01112 0
M  V30 248 N 19.0823 -5.28284 -3.12712 0
M  V30 249 C 20.4533 -5.43066 -2.99131 0
M  V30 250 C 22.5083 -4.07968 -2.85423 0
M  V30 251 C 21.2113 -6.6126 -2.83068 0
M  V30 252 C 23.2373 -5.258 -2.70718 0
M  V30 253 C 22.5993 -6.50842 -2.69414 0
M  V30 254 H 18.6983 -0.436584 -0.648782 0
M  V30 255 H 21.2823 -1.53875 -1.19293 0
M  V30 256 H 19.4533 -1.20822 -3.6913 0
M  V30 257 H 21.1853 -1.43824 -3.78281 0
M  V30 258 H 17.9403 -3.39847 -3.2985 0
M  V30 259 H 18.3643 -6.01284 -3.11105 0
M  V30 260 H 23.0063 -3.1209 -2.85236 0
M  V30 261 H 20.7243 -7.57298 -2.82002 0
M  V30 262 H 24.3103 -5.20683 -2.59577 0
M  V30 263 H 23.1903 -7.40485 -2.5817 0
M  V30 264 N 20.6934 1.19889 -1.02296 0
M  V30 265 C 21.6234 2.25141 -0.619174 0
M  V30 266 C 22.6044 1.66051 0.368915 0
M  V30 267 O 23.7894 1.92546 0.252941 0
M  V30 268 C 20.9194 3.4728 0.0368783 0
M  V30 269 C 19.8734 4.19005 -0.872865 0
M  V30 270 C 19.1994 5.34637 -0.0822402 0
M  V30 271 C 20.4994 4.74452 -2.18387 0
M  V30 272 H 22.1934 2.59171 -1.49903 0
M  V30 273 H 19.7394 1.24579 -0.722222 0
M  V30 274 H 21.6924 4.20098 0.330958 0
M  V30 275 H 20.4164 3.12433 0.95149 0
M  V30 276 H 19.0754 3.48061 -1.15105 0
M  V30 277 H 18.7234 4.96034 0.83422 0
M  V30 278 H 18.4234 5.83557 -0.688149 0
M  V30 279 H 19.9474 6.10255 0.205238 0
M  V30 280 H 21.3614 5.39055 -1.95172 0
M  V30 281 H 19.7584 5.33834 -2.74119 0
M  V30 282 H 20.8284 3.92844 -2.84257 0
M  V30 283 N 22.1715 0.800033 1.35784 0
M  V30 284 C 23.3965 0.388511 2.03729 0
M  V30 285 C 23.8215 -0.990481 1.5991 0
M  V30 286 O 23.1795 -1.64013 0.772612 0
M  V30 287 C 23.2275 0.4726 3.5749 0
M  V30 288 O 22.3315 -0.51646 4.09153 0
M  V30 289 H 21.6725 0.163271 0.643614 0
M  V30 290 H 24.2025 1.0841 1.73518 0
M  V30 291 H 24.2125 0.34003 4.06581 0
M  V30 292 H 22.8875 1.47848 3.88734 0
M  V30 293 H 21.4645 -0.344673 3.71304 0
M  V30 294 N 23.6496 -1.47581 0.552962 0
M  V30 295 C 24.5796 -2.32762 -0.185451 0
M  V30 296 C 25.5606 -1.43527 -0.912905 0
M  V30 297 O 26.7456 -1.72388 -0.894201 0
M  V30 298 C 23.8756 -3.25219 -1.21859 0
M  V30 299 C 22.8296 -4.23661 -0.607864 0
M  V30 300 C 22.1556 -5.05413 -1.74533 0
M  V30 301 C 23.4556 -5.20481 0.435582 0
M  V30 302 H 25.1496 -2.94749 0.525684 0
M  V30 303 H 22.6956 -1.41738 0.254251 0
M  V30 304 H 24.6486 -3.8365 -1.7433 0
M  V30 305 H 23.3726 -2.61279 -1.95961 0
M  V30 306 H 22.0316 -3.66451 -0.104489 0
M  V30 307 H 21.6796 -4.3788 -2.47529 0
M  V30 308 H 21.3796 -5.72059 -1.34249 0
M  V30 309 H 22.9036 -5.66701 -2.27338 0
M  V30 310 H 24.3176 -5.733 -0.00290157 0
M  V30 311 H 22.7146 -5.95305 0.757067 0
M  V30 312 H 23.7846 -4.66217 1.33303 0
M  V30 313 N 25.1277 -0.289203 -1.54924 0
M  V30 314 C 26.3557 0.326463 -2.04308 0
M  V30 315 C 26.7707 1.48413 -1.16701 0
M  V30 316 O 26.1277 1.81507 -0.190087 0
M  V30 317 C 26.1787 0.794014 -3.52672 0
M  V30 318 O 25.8997 -0.317564 -4.36948 0
M  V30 319 C 27.4007 1.47605 -4.18004 0
M  V30 320 H 24.6207 0.0726272 -0.667058 0
M  V30 321 H 27.1647 -0.425401 -2.00026 0
M  V30 322 H 25.3197 1.49593 -3.57352 0
M  V30 323 H 25.7337 0.0443186 -5.24481 0
M  V30 324 H 27.2077 1.75447 -5.23376 0
M  V30 325 H 27.6847 2.41224 -3.67025 0
M  V30 326 H 28.2907 0.81762 -4.17367 0
M  V30 327 N 26.6058 1.57591 -0.0167156 0
M  V30 328 C 27.5358 2.12496 0.967858 0
M  V30 329 C 28.5168 1.03807 1.34752 0
M  V30 330 O 29.7018 1.31577 1.42833 0
M  V30 331 C 26.8318 2.64194 2.25431 0
M  V30 332 C 25.7858 3.77559 2.01576 0
M  V30 333 C 25.1118 4.15636 3.36379 0
M  V30 334 C 26.4118 5.04151 1.36489 0
M  V30 335 H 28.1058 2.95013 0.510643 0
M  V30 336 H 25.6518 1.41915 0.244181 0
M  V30 337 H 27.6048 3.01236 2.94678 0
M  V30 338 H 26.3288 1.78821 2.73296 0
M  V30 339 H 24.9878 3.40937 1.34751 0
M  V30 340 H 24.6358 3.27263 3.81979 0
M  V30 341 H 24.3358 4.92022 3.21229 0
M  V30 342 H 25.8598 4.5525 4.06915 0
M  V30 343 H 27.2738 5.38857 1.95718 0
M  V30 344 H 25.6708 5.85453 1.31776 0
M  V30 345 H 26.7408 4.83733 0.336219 0
M  V30 346 N 28.0839 -0.256276 1.55502 0
M  V30 347 C 29.3319 -0.983672 1.76545 0
M  V30 348 C 29.6529 -1.86206 0.578982 0
M  V30 349 O 28.9229 -1.91656 -0.405577 0
M  V30 350 H 27.5029 -0.366191 0.651086 0
M  V30 351 H 30.1649 -0.276479 1.92929 0
M  V30 352 H 29.2609 -1.61087 2.67315 0
M  V30 353 N 29.562 -1.4872 -0.521534 0
M  V30 354 C 30.492 -1.66771 -1.63431 0
M  V30 355 C 31.473 -0.516499 -1.62069 0
M  V30 356 O 32.658 -0.750013 -1.79132 0
M  V30 357 C 29.788 -1.71515 -3.01993 0
M  V30 358 C 28.742 -2.86222 -3.18216 0
M  V30 359 C 28.068 -2.76061 -4.57924 0
M  V30 360 C 29.368 -4.27419 -3.00184 0
M  V30 361 H 31.062 -2.59932 -1.48579 0
M  V30 362 H 28.608 -1.25089 -0.713358 0
M  V30 363 H 30.561 -1.82731 -3.7972 0
M  V30 364 H 29.285 -0.749393 -3.17886 0
M  V30 365 H 27.944 -2.74575 -2.42908 0
M  V30 366 H 27.592 -1.77437 -4.70665 0
M  V30 367 H 27.292 -3.53037 -4.69722 0
M  V30 368 H 28.816 -2.89256 -5.37739 0
M  V30 369 H 30.23 -4.39855 -3.67697 0
M  V30 370 H 28.627 -5.05458 -3.2347 0
M  V30 371 H 29.697 -4.43293 -1.96518 0
M  V30 372 N 31.0401 0.771051 -1.3745 0
M  V30 373 C 31.9701 1.89827 -1.3597 0
M  V30 374 C 32.9511 1.68562 -0.228216 0
M  V30 375 O 34.1361 1.8941 -0.428675 0
M  V30 376 C 31.2661 3.2712 -1.16662 0
M  V30 377 C 30.2201 3.6295 -2.2683 0
M  V30 378 C 29.5461 4.98791 -1.92644 0
M  V30 379 C 30.8461 3.69627 -3.69017 0
M  V30 380 H 32.5401 1.91323 -2.30295 0
M  V30 381 H 30.0861 0.919082 -1.10855 0
M  V30 382 H 32.0391 4.05615 -1.14256 0
M  V30 383 H 30.7631 3.26059 -0.187926 0
M  V30 384 H 29.4221 2.86763 -2.28392 0
M  V30 385 H 29.0701 4.94271 -0.933021 0
M  V30 386 H 28.7701 5.23733 -2.66416 0
M  V30 387 H 30.2941 5.79685 -1.91826 0
M  V30 388 H 31.7081 4.38273 -3.69581 0
M  V30 389 H 30.1051 4.06067 -4.41848 0
M  V30 390 H 31.1751 2.70273 -4.02592 0
M  V30 391 N 32.5182 1.22032 0.997298 0
M  V30 392 C 33.7432 1.06921 1.77715 0
M  V30 393 C 34.1682 -0.376226 1.84299 0
M  V30 394 O 33.5262 -1.27165 1.29223 0
M  V30 395 C 33.5742 1.67996 3.19076 0
M  V30 396 O 32.6782 0.930653 4.01762 0
M  V30 397 H 32.0192 0.375814 0.547412 0
M  V30 398 H 34.5492 1.61737 1.25309 0
M  V30 399 H 34.5592 1.72538 3.69723 0
M  V30 400 H 33.2342 2.73182 3.13599 0
M  V30 401 H 31.8112 0.960917 3.60307 0
M  V30 402 N 33.9963 -1.19345 1.0293 0
M  V30 403 C 35.4073 -1.70725 0.755633 0
M  V30 404 C 35.7583 -1.82326 -0.724676 0
M  V30 405 O 34.8833 -1.49471 -1.56484 0
M  V30 406 C 35.4783 -3.10084 1.36503 0
M  V30 407 C 34.0373 -3.58723 1.13994 0
M  V30 408 C 33.1843 -2.35577 1.46283 0
M  V30 409 H 36.1353 -1.0418 1.19718 0
M  V30 410 H 36.1563 -3.72787 0.762217 0
M  V30 411 H 35.6683 -3.01609 2.44241 0
M  V30 412 H 33.7693 -3.72512 0.0807901 0
M  V30 413 H 33.8823 -4.42816 1.82894 0
M  V30 414 H 32.2463 -2.38935 0.88217 0
M  V30 415 H 33.0293 -2.29731 2.55105 0
M  V30 416 N 35.4744 -0.807222 -1.35358 0
M  V30 417 C 36.7204 -0.388463 -1.99045 0
M  V30 418 C 37.0534 1.04184 -1.63888 0
M  V30 419 O 36.3284 1.72292 -0.902535 0
M  V30 420 C 36.6114 -0.572783 -3.55515 0
M  V30 421 C 36.4644 -2.04807 -4.00468 0
M  V30 422 C 37.7834 0.00114064 -4.401 0
M  V30 423 H 34.9024 -0.142619 -0.723069 0
M  V30 424 H 37.5444 -1.01687 -1.60498 0
M  V30 425 H 35.6944 -0.0378425 -3.88482 0
M  V30 426 H 37.3664 -2.64544 -3.77908 0
M  V30 427 H 35.6094 -2.54427 -3.51353 0
M  V30 428 H 36.2804 -2.12792 -5.09337 0
M  V30 429 H 38.7564 -0.455716 -4.13597 0
M  V30 430 H 37.6324 -0.157737 -5.48673 0
M  V30 431 H 37.8934 1.09488 -4.28328 0
M  V30 432 N 36.9525 1.47285 -0.560781 0
M  V30 433 C 37.9025 2.27073 0.205384 0
M  V30 434 C 38.8865 1.34569 0.882044 0
M  V30 435 O 40.0785 1.58899 0.77976 0
M  V30 436 C 37.2075 3.20414 1.23247 0
M  V30 437 C 36.2935 4.20399 0.559041 0
M  V30 438 N 36.6845 5.04423 -0.372927 0
M  V30 439 C 34.9825 4.38536 0.812522 0
M  V30 440 C 35.6835 5.76655 -0.764446 0
M  V30 441 N 34.6595 5.43471 -0.11848 0
M  V30 442 H 38.4615 2.89422 -0.511117 0
M  V30 443 H 35.9755 1.57868 -0.380975 0
M  V30 444 H 37.9725 3.76262 1.79534 0
M  V30 445 H 36.6325 2.59623 1.95002 0
M  V30 446 H 37.6435 5.1248 -0.747287 0
M  V30 447 H 34.3205 3.88913 1.51832 0
M  V30 448 H 35.7105 6.54238 -1.53045 0
M  V30 449 N 38.4306 0.297415 1.54768 0
M  V30 450 C 39.3936 -0.567375 2.22066 0
M  V30 451 C 40.3936 -1.06409 1.20556 0
M  V30 452 O 41.5836 -0.960691 1.45315 0
M  V30 453 C 38.7156 -1.78517 2.90421 0
M  V30 454 H 39.9086 0.0205534 2.99893 0
M  V30 455 H 37.4616 0.0482163 1.56226 0
M  V30 456 H 38.1966 -2.41303 2.16664 0
M  V30 457 H 37.9816 -1.43669 3.64831 0
M  V30 458 H 39.4716 -2.39964 3.41771 0
M  V30 459 N 39.9087 -1.5758 0.0250728 0
M  V30 460 C 40.8717 -2.08896 -0.943139 0
M  V30 461 C 41.8717 -1.00321 -1.25668 0
M  V30 462 O 43.0617 -1.26495 -1.19769 0
M  V30 463 C 40.1937 -2.55143 -2.26086 0
M  V30 464 H 41.3867 -2.95723 -0.498775 0
M  V30 465 H 38.9397 -1.54703 -0.222888 0
M  V30 466 H 39.6747 -1.71633 -2.75159 0
M  V30 467 H 39.4597 -3.34461 -2.04641 0
M  V30 468 H 40.9497 -2.95083 -2.95492 0
M  V30 469 N 41.3868 0.248026 -1.55636 0
M  V30 470 C 42.7978 0.817177 -1.67866 0
M  V30 471 C 43.1488 1.86069 -0.622322 0
M  V30 472 O 42.2738 2.15157 0.231618 0
M  V30 473 C 42.8688 1.489 -3.04326 0
M  V30 474 C 41.4278 2.00587 -3.185 0
M  V30 475 C 40.5748 0.856573 -2.63739 0
M  V30 476 H 43.5258 0.0238579 -1.58682 0
M  V30 477 H 43.5468 2.35698 -2.98708 0
M  V30 478 H 43.0588 0.729279 -3.81186 0
M  V30 479 H 41.1598 2.79443 -2.4646 0
M  V30 480 H 41.2728 2.20402 -4.25393 0
M  V30 481 H 39.6368 1.25678 -2.21534 0
M  V30 482 H 40.4198 0.109953 -3.43124 0
M  V30 483 N 42.8649 1.48995 0.513639 0
M  V30 484 C 44.1419 1.48338 1.27495 0
M  V30 485 C 44.5219 0.204065 2.10111 0
M  V30 486 O 43.8699 -0.813881 2.13514 0
M  V30 487 C 44.0799 2.75498 2.14247 0
M  V30 488 C 45.4279 3.24484 2.73852 0
M  V30 489 O 46.4519 2.76528 2.24523 0
M  V30 490 O 45.3109 4.07974 3.6362 0
M  V30 491 H 42.4049 0.593149 0.576284 0
M  V30 492 H 44.9509 1.61246 0.528948 0
M  V30 493 H 43.7229 3.60109 1.53092 0
M  V30 494 H 43.3459 2.6539 2.96064 0
M  V30 495 N 44.343 -0.763751 1.37857 0
M  V30 496 C 45.571 -1.55293 1.36718 0
M  V30 497 C 45.986 -1.88745 -0.0455434 0
M  V30 498 O 45.343 -1.52039 -1.00947 0
M  V30 499 C 45.394 -2.85831 2.2132 0
M  V30 500 O 45.115 -2.5381 3.57089 0
M  V30 501 C 46.616 -3.80023 2.28249 0
M  V30 502 H 43.836 -0.480841 0.468009 0
M  V30 503 H 46.38 -0.946009 1.81303 0
M  V30 504 H 44.535 -3.42926 1.80223 0
M  V30 505 H 44.949 -3.37459 4.01524 0
M  V30 506 H 46.423 -4.68599 2.91752 0
M  V30 507 H 46.9 -4.1973 1.2932 0
M  V30 508 H 47.506 -3.28855 2.69693 0
M  V30 509 N 45.8211 -1.22559 -0.990812 0
M  V30 510 C 47.0461 -1.07862 -1.77145 0
M  V30 511 C 47.4711 0.366447 -1.84496 0
M  V30 512 O 46.8291 1.26478 -1.29896 0
M  V30 513 C 46.8771 -1.69686 -3.18181 0
M  V30 514 O 45.9811 -0.951946 -4.01263 0
M  V30 515 H 45.3221 -0.378712 -0.545411 0
M  V30 516 H 47.8521 -1.62399 -1.2445 0
M  V30 517 H 47.8621 -1.74496 -3.68802 0
M  V30 518 H 46.5371 -2.74841 -3.12146 0
M  V30 519 H 45.1141 -0.980011 -3.59792 0
M  V30 520 N 47.2992 1.18797 -1.03562 0
M  V30 521 C 48.5452 1.8893 -0.737113 0
M  V30 522 C 48.8782 1.79837 0.732956 0
M  V30 523 O 48.1532 1.19525 1.5344 0
M  V30 524 C 48.4362 3.39607 -1.19745 0
M  V30 525 C 48.2892 3.57537 -2.72924 0
M  V30 526 C 49.6082 4.33069 -0.783526 0
M  V30 527 H 46.7272 0.686057 -0.269249 0
M  V30 528 H 49.3692 1.39797 -1.28673 0
M  V30 529 H 47.5192 3.81583 -0.729855 0
M  V30 530 H 49.1912 3.24688 -3.27682 0
M  V30 531 H 47.4342 3.00363 -3.12993 0
M  V30 532 H 48.1052 4.63238 -3.00191 0
M  V30 533 H 50.5812 3.98846 -1.18581 0
M  V30 534 H 49.4572 5.3707 -1.13343 0
M  V30 535 H 49.7182 4.40986 0.313681 0
M  V30 536 N 48.7773 0.814389 1.34928 0
M  V30 537 C 50.0023 0.410097 2.03305 0
M  V30 538 C 50.4273 -0.973464 1.60951 0
M  V30 539 O 49.7853 -1.63185 0.789964 0
M  V30 540 C 49.8333 0.51049 3.56968 0
M  V30 541 O 48.9373 -0.473035 4.09678 0
M  V30 542 H 48.2783 0.170088 0.641846 0
M  V30 543 H 50.8083 1.10244 1.72358 0
M  V30 544 H 50.8183 0.383135 4.06197 0
M  V30 545 H 49.4933 1.51963 3.87144 0
M  V30 546 H 48.0703 -0.305272 3.71648 0
M  V30 547 N 50.2554 -1.46986 0.568584 0
M  V30 548 C 51.2034 -2.31858 -0.185649 0
M  V30 549 C 52.1974 -1.43624 -0.898249 0
M  V30 550 O 53.4034 -1.60327 -0.818242 0
M  V30 551 H 49.7784 -0.747866 -0.0787399 0
M  V30 552 H 51.7494 -2.93303 0.549191 0
M  V30 553 C 50.4984 -3.26513 -1.19519 0
M  V30 554 H 49.8214 -3.94377 -0.656285 0
M  V30 555 H 51.2614 -3.88707 -1.6936 0
M  V30 556 C 49.7204 -2.50847 -2.24894 0
M  V30 557 O 50.2504 -2.26119 -3.32014 0
M  V30 558 N 48.4564 -2.11656 -1.99124 0
M  V30 559 H 48.0034 -2.31966 -1.12024 0
M  V30 560 H 47.9614 -1.61347 -2.69842 0
M  V30 561 N 51.7335 -0.305618 -1.54608 0
M  V30 562 C 52.6805 0.568421 -2.23691 0
M  V30 563 C 53.6505 1.12592 -1.22116 0
M  V30 564 O 54.8355 1.16959 -1.50749 0
M  V30 565 C 51.9755 1.7322 -2.98477 0
M  V30 566 C 51.0885 1.20566 -4.14835 0
M  V30 567 C 50.2235 2.33368 -4.77193 0
M  V30 568 C 49.2625 1.7787 -5.85686 0
M  V30 569 N 48.3995 2.84263 -6.4198 0
M  V30 570 H 53.2395 -0.0272867 -2.97988 0
M  V30 571 H 50.7765 -0.0252363 -1.47078 0
M  V30 572 H 52.7345 2.41675 -3.40072 0
M  V30 573 H 51.3645 2.29947 -2.26548 0
M  V30 574 H 50.4165 0.413223 -3.78149 0
M  V30 575 H 51.7285 0.759417 -4.92985 0
M  V30 576 H 50.8825 3.09761 -5.21664 0
M  V30 577 H 49.6215 2.8132 -3.98385 0
M  V30 578 H 48.6265 0.99968 -5.40635 0
M  V30 579 H 49.8515 1.30816 -6.66381 0
M  V30 580 H 47.7975 3.31541 -5.66053 0
M  V30 581 H 47.7145 2.44149 -7.15491 0
M  V30 582 H 48.9825 3.6054 -6.91109 0
M  V30 583 N 53.2116 1.57565 -0.0334293 0
M  V30 584 C 54.1436 2.0739 0.975811 0
M  V30 585 C 55.1566 0.998166 1.2861 0
M  V30 586 O 56.3456 1.27426 1.25 0
M  V30 587 C 53.4456 2.4871 2.30209 0
M  V30 588 C 52.6186 3.79413 2.17634 0
M  V30 589 C 51.6776 4.07237 3.33233 0
M  V30 590 O 50.7036 4.77425 3.09927 0
M  V30 591 N 51.9056 3.5775 4.5716 0
M  V30 592 H 54.6706 2.94598 0.55066 0
M  V30 593 H 52.2316 1.61173 0.15323 0
M  V30 594 H 54.2236 2.64413 3.06378 0
M  V30 595 H 52.7936 1.66845 2.64351 0
M  V30 596 H 52.0136 3.73465 1.26165 0
M  V30 597 H 53.3016 4.65038 2.0644 0
M  V30 598 H 52.6996 3.00976 4.78989 0
M  V30 599 H 51.2566 3.78724 5.30482 0
M  V30 600 N 54.6897 -0.239769 1.55765 0
M  V30 601 C 55.6377 -1.31668 1.91745 0
M  V30 602 C 56.6317 -1.49462 0.797338 0
M  V30 603 O 57.8377 -1.50852 0.982021 0
M  V30 604 H 54.2127 -0.441048 0.609082 0
M  V30 605 H 56.1837 -0.985923 2.81642 0
M  V30 606 C 54.9327 -2.66368 2.2348 0
M  V30 607 H 54.2557 -2.53478 3.09175 0
M  V30 608 H 55.6957 -3.40578 2.52553 0
M  V30 609 C 54.1547 -3.20002 1.05359 0
M  V30 610 O 54.6847 -4.00538 0.305261 0
M  V30 611 N 52.8907 -2.78126 0.842292 0
M  V30 612 H 52.4377 -2.12742 1.45253 0
M  V30 613 H 52.3957 -3.14354 0.053652 0
M  V30 614 N 56.1678 -1.49265 -0.50573 0
M  V30 615 C 57.4148 -1.58513 -1.26015 0
M  V30 616 C 57.7428 -0.26972 -1.92621 0
M  V30 617 O 56.9978 0.741997 -1.81088 0
M  V30 618 C 57.2968 -2.69008 -2.35308 0
M  V30 619 C 56.9628 -4.10662 -1.86192 0
M  V30 620 C 55.6248 -4.49212 -1.72516 0
M  V30 621 C 57.9768 -4.99336 -1.49375 0
M  V30 622 C 55.3048 -5.74214 -1.20394 0
M  V30 623 C 57.6568 -6.24852 -0.987072 0
M  V30 624 C 56.3208 -6.62236 -0.836669 0
M  V30 625 H 55.5908 -0.580041 -0.461122 0
M  V30 626 H 58.2378 -1.83078 -0.561665 0
M  V30 627 H 56.5428 -2.38396 -3.10926 0
M  V30 628 H 58.2398 -2.73373 -2.93374 0
M  V30 629 H 54.8298 -3.8023 -1.97795 0
M  V30 630 H 59.0138 -4.70212 -1.5879 0
M  V30 631 H 54.2698 -6.01883 -1.07458 0
M  V30 632 H 58.4438 -6.92944 -0.692983 0
M  V30 633 H 56.0708 -7.58979 -0.430607 0
M  V30 634 N 57.6459 0.756429 -1.3826 0
M  V30 635 C 58.8709 1.55077 -1.37717 0
M  V30 636 C 59.2959 1.88073 0.03164 0
M  V30 637 O 58.6539 1.50364 1.01293 0
M  V30 638 C 58.7019 2.8283 -2.23695 0
M  V30 639 O 57.8059 3.77862 -1.6521 0
M  V30 640 H 57.1469 0.469152 -0.469885 0
M  V30 641 H 59.6769 0.935019 -1.81985 0
M  V30 642 H 59.6869 3.31783 -2.37453 0
M  V30 643 H 58.3619 2.58144 -3.2609 0
M  V30 644 H 56.9389 3.36555 -1.60578 0
M  V30 645 N 59.124 1.23083 0.984299 0
M  V30 646 C 60.352 1.08714 1.76037 0
M  V30 647 C 60.767 -0.361691 1.85303 0
M  V30 648 O 60.124 -1.25034 1.32939 0
M  V30 649 C 60.175 1.70206 3.18923 0
M  V30 650 O 59.896 3.09423 3.10144 0
M  V30 651 C 61.397 1.61227 4.12941 0
M  V30 652 H 58.617 0.380664 0.552572 0
M  V30 653 H 61.161 1.62853 1.23689 0
M  V30 654 H 59.316 1.20109 3.6831 0
M  V30 655 H 59.73 3.39188 4.00065 0
M  V30 656 H 61.204 2.08962 5.10919 0
M  V30 657 H 61.681 0.570375 4.35481 0
M  V30 658 H 62.287 2.10671 3.69456 0
M  V30 659 N 60.6021 -1.18246 1.0419 0
M  V30 660 C 61.8791 -1.84121 0.660208 0
M  V30 661 C 62.2591 -1.92778 -0.860221 0
M  V30 662 O 61.6071 -1.45464 -1.76217 0
M  V30 663 C 61.8171 -3.22355 1.33747 0
M  V30 664 C 63.1651 -3.98376 1.46906 0
M  V30 665 O 64.1891 -3.31799 1.29568 0
M  V30 666 O 63.0481 -5.17665 1.75171 0
M  V30 667 H 60.1421 -0.794036 0.231161 0
M  V30 668 H 62.6881 -1.25628 1.14087 0
M  V30 669 H 61.4601 -3.10964 2.37522 0
M  V30 670 H 61.0831 -3.88506 0.845515 0
M  V30 671 N 62.0802 -0.821533 -1.34494 0
M  V30 672 C 63.3262 -0.409552 -1.98622 0
M  V30 673 C 63.6592 1.0244 -1.64984 0
M  V30 674 O 62.9342 1.71325 -0.920758 0
M  V30 675 C 63.2172 -0.610458 -3.54888 0
M  V30 676 C 63.0702 -2.09043 -3.98273 0
M  V30 677 C 64.3892 -0.0455379 -4.40076 0
M  V30 678 H 61.5082 -0.15028 -0.721516 0
M  V30 679 H 64.1502 -1.03384 -1.59411 0
M  V30 680 H 62.3002 -0.079044 -3.8842 0
M  V30 681 H 63.9722 -2.68537 -3.75081 0
M  V30 682 H 62.2152 -2.58139 -3.48635 0
M  V30 683 H 62.8862 -2.18182 -5.07051 0
M  V30 684 H 65.3622 -0.499557 -4.1309 0
M  V30 685 H 64.2382 -0.215922 -5.48475 0
M  V30 686 H 64.4992 1.04939 -4.29465 0
M  V30 687 N 63.5583 1.46682 -0.576371 0
M  V30 688 C 64.8073 2.01619 -0.0572825 0
M  V30 689 C 65.1203 1.45417 1.30818 0
M  V30 690 O 66.3263 1.92133 1.91825 0
M  V30 691 C 64.7823 3.59863 -0.0518371 0
M  V30 692 C 64.3903 4.25059 -1.41523 0
M  V30 693 C 66.1343 4.2248 0.413639 0
M  V30 694 C 64.0413 5.75364 -1.36785 0
M  V30 695 H 62.9713 0.753794 -0.0176448 0
M  V30 696 H 65.6223 1.68481 -0.727076 0
M  V30 697 H 64.0043 3.90048 0.683994 0
M  V30 698 H 65.1783 4.06491 -2.17029 0
M  V30 699 H 63.4933 3.7451 -1.8202 0
M  V30 700 H 66.0903 5.3265 0.467779 0
M  V30 701 H 66.4333 3.90976 1.42982 0
M  V30 702 H 66.9663 3.96897 -0.267929 0
M  V30 703 H 63.7053 6.11518 -2.36063 0
M  V30 704 H 63.2253 5.96214 -0.654895 0
M  V30 705 H 64.9043 6.37955 -1.07805 0
M  V30 706 N 65.0364 0.313813 1.54444 0
M  V30 707 C 66.2664 -0.293491 2.04505 0
M  V30 708 C 66.6744 -1.47086 1.19005 0
M  V30 709 O 66.0174 -1.82481 0.211257 0
M  V30 710 C 66.0794 -0.800455 3.50475 0
M  V30 711 C 65.7434 0.253322 4.56297 0
M  V30 712 C 66.7404 1.08612 5.08428 0
M  V30 713 C 64.4254 0.398708 5.00715 0
M  V30 714 C 66.4194 2.05013 6.0353 0
M  V30 715 C 64.1064 1.36614 5.95634 0
M  V30 716 C 65.1044 2.19033 6.46926 0
M  V30 717 O 64.7924 3.14134 7.39983 0
M  V30 718 H 64.5244 -0.0658325 0.672787 0
M  V30 719 H 67.0784 0.455177 2.00293 0
M  V30 720 H 65.3084 -1.59987 3.52053 0
M  V30 721 H 66.9974 -1.32504 3.83663 0
M  V30 722 H 67.7634 0.984736 4.74898 0
M  V30 723 H 63.6424 -0.23289 4.60411 0
M  V30 724 H 67.1864 2.69382 6.4349 0
M  V30 725 H 63.0834 1.4682 6.28581 0
M  V30 726 H 63.8514 3.0926 7.57826 0
M  V30 727 N 66.5145 -1.57545 0.0417849 0
M  V30 728 C 67.4465 -2.07904 -0.964799 0
M  V30 729 C 68.4595 -1.00497 -1.28079 0
M  V30 730 O 69.6485 -1.28087 -1.24322 0
M  V30 731 C 66.7485 -2.49928 -2.28887 0
M  V30 732 C 65.9215 -3.80562 -2.15619 0
M  V30 733 C 64.9805 -4.08999 -3.31069 0
M  V30 734 O 64.0065 -4.79061 -3.0739 0
M  V30 735 N 65.2085 -3.6017 -4.55256 0
M  V30 736 H 67.9735 -2.94886 -0.535029 0
M  V30 737 H 65.5345 -1.61252 -0.144681 0
M  V30 738 H 67.5265 -2.66034 -3.04972 0
M  V30 739 H 66.0965 -1.68245 -2.63463 0
M  V30 740 H 65.3165 -3.74129 -1.24183 0
M  V30 741 H 66.6045 -4.66126 -2.03971 0
M  V30 742 H 66.0025 -3.03512 -4.77386 0
M  V30 743 H 64.5595 -3.81532 -5.28466 0
M  V30 744 N 67.9926 0.231505 -1.5589 0
M  V30 745 C 69.2416 0.955346 -1.7764 0
M  V30 746 C 69.5546 1.85893 -0.608546 0
M  V30 747 O 70.7606 2.62067 -0.70943 0
M  V30 748 C 69.2166 1.74886 -3.14552 0
M  V30 749 C 68.8246 0.891915 -4.39032 0
M  V30 750 C 70.5686 2.46452 -3.45633 0
M  V30 751 C 68.4756 1.68221 -5.66971 0
M  V30 752 H 67.4056 0.360446 -0.662265 0
M  V30 753 H 70.0566 0.209516 -1.823 0
M  V30 754 H 68.4386 2.53723 -3.04041 0
M  V30 755 H 69.6126 0.144793 -4.60572 0
M  V30 756 H 67.9276 0.288863 -4.15397 0
M  V30 757 H 70.5246 3.06061 -4.38441 0
M  V30 758 H 70.8676 3.18841 -2.67668 0
M  V30 759 H 71.4006 1.74613 -3.57428 0
M  V30 760 H 68.1396 1.00178 -6.478 0
M  V30 761 H 67.6596 2.4042 -5.49507 0
M  V30 762 H 69.3386 2.24544 -6.06786 0
M  V30 763 N 69.4707 1.49531 0.497807 0
M  V30 764 C 70.7177 1.59179 1.25173 0
M  V30 765 C 71.0457 0.279932 1.92475 0
M  V30 766 O 70.3007 -0.732383 1.81479 0
M  V30 767 C 70.5997 2.70252 2.33878 0
M  V30 768 C 70.2657 4.11644 1.84012 0
M  V30 769 C 68.9277 4.50121 1.70132 0
M  V30 770 C 71.2797 5.00121 1.46725 0
M  V30 771 C 68.6077 5.74845 1.17348 0
M  V30 772 C 70.9597 6.25366 0.95392 0
M  V30 773 C 69.6237 6.6267 0.801538 0
M  V30 774 H 68.8937 0.582478 0.45804 0
M  V30 775 H 71.5407 1.83373 0.551948 0
M  V30 776 H 69.8457 2.40041 3.09657 0
M  V30 777 H 71.5427 2.74925 2.9192 0
M  V30 778 H 68.1327 3.81274 1.95775 0
M  V30 779 H 72.3167 4.71048 1.56294 0
M  V30 780 H 67.5727 6.02444 1.04264 0
M  V30 781 H 71.7467 6.93301 0.656225 0
M  V30 782 H 69.3737 7.59197 0.390351 0
M  V30 783 N 70.9488 -0.749086 1.3866 0
M  V30 784 C 72.1768 -1.53834 1.38358 0
M  V30 785 C 72.5918 -1.88783 -0.0255219 0
M  V30 786 O 71.9488 -1.53101 -0.993292 0
M  V30 787 C 71.9998 -2.83468 2.2434 0
M  V30 788 O 71.7208 -2.50008 3.5976 0
M  V30 789 C 73.2218 -3.7758 2.32267 0
M  V30 790 H 70.4418 -0.47585 0.473083 0
M  V30 791 H 72.9858 -0.926726 1.82297 0
M  V30 792 H 71.1408 -3.40995 1.83851 0
M  V30 793 H 71.5548 -3.33182 4.05081 0
M  V30 794 H 73.0288 -4.65478 2.96706 0
M  V30 795 H 73.5058 -4.18334 1.33765 0
M  V30 796 H 74.1118 -3.25976 2.73166 0
M  V30 797 N 72.4269 -1.23603 -0.977757 0
M  V30 798 C 73.7039 -0.977897 -1.69401 0
M  V30 799 C 74.0839 0.502738 -2.05026 0
M  V30 800 O 73.4319 1.47459 -1.74551 0
M  V30 801 C 73.6419 -1.89077 -2.93345 0
M  V30 802 C 74.9899 -2.15579 -3.65802 0
M  V30 803 O 76.0139 -1.86648 -3.03383 0
M  V30 804 O 74.8729 -2.64658 -4.78141 0
M  V30 805 H 71.9669 -0.369025 -0.740101 0
M  V30 806 H 74.5129 -1.34657 -1.03274 0
M  V30 807 H 73.2849 -2.89158 -2.63634 0
M  V30 808 H 72.9079 -1.52463 -3.67207 0
M  V30 809 N 73.905 1.17692 -1.04816 0
M  V30 810 C 75.321 1.39863 -0.768794 0
M  V30 811 C 75.521 1.91118 0.638451 0
M  V30 812 O 74.577 2.10036 1.40146 0
M  V30 813 C 75.89 2.39274 -1.82122 0
M  V30 814 C 77.438 2.52987 -1.843 0
M  V30 815 C 77.913 3.55669 -2.88555 0
M  V30 816 N 79.404 3.63183 -2.87493 0
M  V30 817 C 80.139 4.42381 -3.64811 0
M  V30 818 N 79.635 5.25125 -4.51903 0
M  V30 819 N 81.428 4.37217 -3.53267 0
M  V30 820 H 73.579 0.82752 -1.95617 0
M  V30 821 H 75.842 0.426123 -0.846831 0
M  V30 822 H 75.548 2.08678 -2.83102 0
M  V30 823 H 75.422 3.38725 -1.65967 0
M  V30 824 H 77.809 2.82896 -0.839869 0
M  V30 825 H 77.89 1.53623 -2.04532 0
M  V30 826 H 77.534 3.26499 -3.89051 0
M  V30 827 H 77.464 4.54728 -2.65575 0
M  V30 828 H 79.955 3.04103 -2.24343 0
M  V30 829 H 80.268 5.82728 -5.07591 0
M  V30 830 H 78.613 5.24519 -4.55966 0
M  V30 831 H 81.804 3.71626 -2.84625 0
M  V30 832 H 81.977 4.98696 -4.13771 0
M  V30 833 N 75.3831 0.828654 1.34056 0
M  V30 834 C 76.6301 0.419458 1.98108 0
M  V30 835 C 76.9581 -1.01886 1.65679 0
M  V30 836 O 76.2131 -1.72539 0.923512 0
M  V30 837 C 76.5121 0.575226 3.52741 0
M  V30 838 C 76.1781 1.98012 4.05095 0
M  V30 839 C 74.8401 2.36442 4.19104 0
M  V30 840 C 77.1921 2.89824 4.33188 0
M  V30 841 C 74.5201 3.66009 4.58535 0
M  V30 842 C 76.8721 4.1886 4.74066 0
M  V30 843 C 75.5361 4.5726 4.86281 0
M  V30 844 H 74.8061 0.153491 0.724929 0
M  V30 845 H 77.4531 1.05371 1.59904 0
M  V30 846 H 75.7581 -0.142385 3.91541 0
M  V30 847 H 77.4551 0.239057 4.00287 0
M  V30 848 H 74.0451 1.67162 3.94658 0
M  V30 849 H 78.2291 2.61375 4.21897 0
M  V30 850 H 73.4851 3.95579 4.66184 0
M  V30 851 H 77.6591 4.90086 4.94761 0
M  V30 852 H 75.2861 5.57707 5.16592 0
M  V30 853 N 76.8612 -1.46375 0.584142 0
M  V30 854 C 78.0862 -2.07268 0.0740405 0
M  V30 855 C 78.5112 -1.42979 -1.22223 0
M  V30 856 O 77.8692 -0.514092 -1.73859 0
M  V30 857 C 77.9172 -3.60518 -0.0767769 0
M  V30 858 O 77.0212 -3.96533 -1.13292 0
M  V30 859 H 76.3622 -0.660961 0.0634524 0
M  V30 860 H 78.8922 -1.87991 0.807492 0
M  V30 861 H 78.9022 -4.07021 -0.282489 0
M  V30 862 H 77.5772 -4.06702 0.86986 0
M  V30 863 H 76.1542 -3.61738 -0.905553 0
M  V30 864 N 78.3393 -0.321999 -1.54275 0
M  V30 865 C 79.6163 0.335232 -1.92706 0
M  V30 866 C 79.9963 1.70006 -1.25145 0
M  V30 867 O 79.3443 2.25067 -0.394596 0
M  V30 868 C 79.5543 0.429008 -3.46353 0
M  V30 869 C 80.9023 0.690029 -4.18956 0
M  V30 870 O 81.9263 0.511992 -3.52501 0
M  V30 871 O 80.7853 1.03338 -5.36641 0
M  V30 872 H 77.8793 0.191143 -0.804608 0
M  V30 873 H 80.4253 -0.3716 -1.65581 0
M  V30 874 H 79.1973 -0.529611 -3.87699 0
M  V30 875 H 78.8203 1.18348 -3.79578 0
M  V30 876 N 79.8174 1.5752 -0.0501392 0
M  V30 877 C 81.0654 1.9227 0.622642 0
M  V30 878 C 81.3864 0.929083 1.71444 0
M  V30 879 O 80.6564 -0.0262186 1.95882 0
M  V30 880 H 79.2364 0.709739 0.232981 0
M  V30 881 H 81.8984 1.94628 -0.102898 0
M  V30 882 H 80.9944 2.93479 1.06191 0
M  V30 883 N 81.2955 -0.223234 1.56011 0
M  V30 884 C 82.2435 -1.29627 1.93131 0
M  V30 885 C 83.2375 -1.48608 0.813146 0
M  V30 886 O 84.4435 -1.49802 0.997966 0
M  V30 887 H 80.8185 -0.434563 0.613726 0
M  V30 888 H 82.7895 -0.955995 2.82672 0
M  V30 889 C 81.5385 -2.63983 2.26292 0
M  V30 890 H 80.8615 -2.50185 3.11846 0
M  V30 891 H 82.3015 -3.3788 2.56151 0
M  V30 892 C 80.7605 -3.18866 1.08747 0
M  V30 893 O 81.2905 -4.00192 0.347727 0
M  V30 894 N 79.4965 -2.77217 0.871743 0
M  V30 895 H 79.0435 -2.1119 1.47501 0
M  V30 896 H 79.0015 -3.1428 0.0869905 0
M  V30 897 N 82.7736 -1.49793 -0.48987 0
M  V30 898 C 84.1846 -1.52914 -1.07118 0
M  V30 899 C 84.5356 -0.321738 -1.93544 0
M  V30 900 O 83.6606 0.567338 -2.08831 0
M  V30 901 C 84.2556 -2.771 -1.94938 0
M  V30 902 C 82.8146 -2.82963 -2.48212 0
M  V30 903 C 81.9616 -2.46972 -1.26096 0
M  V30 904 H 84.9126 -1.56329 -0.273289 0
M  V30 905 H 84.9336 -2.57892 -2.79771 0
M  V30 906 H 84.4456 -3.64959 -1.32009 0
M  V30 907 H 82.5466 -1.99411 -3.14748 0
M  V30 908 H 82.6596 -3.85406 -2.84603 0
M  V30 909 H 81.0236 -1.98994 -1.58976 0
M  V30 910 H 81.8066 -3.37118 -0.648581 0
M  V30 911 N 84.2517 0.741722 -1.39055 0
M  V30 912 C 85.2147 1.83733 -1.37021 0
M  V30 913 C 86.2147 1.58542 -0.268534 0
M  V30 914 O 87.4047 1.66067 -0.526076 0
M  V30 915 C 84.5367 3.2141 -1.13617 0
M  V30 916 H 85.7297 1.86941 -2.34506 0
M  V30 917 H 83.2827 0.944676 -1.24521 0
M  V30 918 H 84.0177 3.23865 -0.167863 0
M  V30 919 H 83.8027 3.4109 -1.93391 0
M  V30 920 H 85.2927 4.01477 -1.14918 0
M  V30 921 N 85.7298 1.2412 0.971189 0
M  V30 922 C 86.6778 1.02812 2.08644 0
M  V30 923 C 87.6718 -0.0358403 1.69362 0
M  V30 924 O 88.8778 0.118429 1.7961 0
M  V30 925 H 85.2528 0.315428 0.682649 0
M  V30 926 H 87.2238 1.97397 2.23779 0
M  V30 927 C 85.9728 0.645874 3.41649 0
M  V30 928 H 85.2958 1.45632 3.72332 0
M  V30 929 H 86.7358 0.536366 4.20594 0
M  V30 930 C 85.1948 -0.646713 3.30635 0
M  V30 931 O 85.7248 -1.69338 3.64263 0
M  V30 932 N 83.9308 -0.626115 2.83775 0
M  V30 933 H 83.4778 0.225988 2.56607 0
M  V30 934 H 83.4358 -1.49117 2.76788 0
M  V30 935 N 87.2079 -1.17134 1.05439 0
M  V30 936 C 88.1559 -2.23289 0.651511 0
M  V30 937 C 89.1499 -1.66186 -0.328411 0
M  V30 938 O 90.3559 -1.78949 -0.194206 0
M  V30 939 H 86.7309 -0.726938 0.192523 0
M  V30 940 H 88.7019 -2.54565 1.55689 0
M  V30 941 C 87.4509 -3.47671 0.0448436 0
M  V30 942 H 86.7739 -3.91918 0.78996 0
M  V30 943 H 88.2139 -4.2353 -0.19964 0
M  V30 944 C 86.6729 -3.14453 -1.20918 0
M  V30 945 O 87.2029 -3.29459 -2.29825 0
M  V30 946 N 85.4089 -2.68657 -1.10779 0
M  V30 947 H 84.9559 -2.56646 -0.221526 0
M  V30 948 H 84.9139 -2.46804 -1.9477 0
M  V30 949 N 88.686 -0.835752 -1.33615 0
M  V30 950 C 90.097 -0.487099 -1.80234 0
M  V30 951 C 90.448 0.993627 -1.69179 0
M  V30 952 O 89.573 1.77403 -1.23924 0
M  V30 953 C 90.168 -0.877385 -3.27242 0
M  V30 954 C 88.727 -0.580915 -3.7189 0
M  V30 955 C 87.874 -1.0874 -2.5509 0
M  V30 956 H 90.825 -1.02474 -1.2118 0
M  V30 957 H 90.846 -0.186195 -3.80044 0
M  V30 958 H 90.358 -1.95512 -3.35256 0
M  V30 959 H 88.459 0.486881 -3.69405 0
M  V30 960 H 88.572 -1.13396 -4.65487 0
M  V30 961 H 86.936 -0.508392 -2.49575 0
M  V30 962 H 87.719 -2.17184 -2.65868 0
M  V30 963 N 90.1641 1.46063 -0.591896 0
M  V30 964 C 91.3921 2.06717 -0.0868936 0
M  V30 965 C 91.8071 1.43916 1.22203 0
M  V30 966 O 91.1641 0.547698 1.74088 0
M  V30 967 C 91.2151 3.6142 0.0758725 0
M  V30 968 O 90.9361 4.21874 -1.18126 0
M  V30 969 C 92.4371 4.39025 0.61416 0
M  V30 970 H 89.6571 0.668162 -0.0616518 0
M  V30 971 H 92.2011 1.8755 -0.815175 0
M  V30 972 H 90.3561 3.79983 0.754413 0
M  V30 973 H 90.7701 5.14861 -1.00092 0
M  V30 974 H 92.2441 5.4783 0.677193 0
M  V30 975 H 92.7211 4.07708 1.63312 0
M  V30 976 H 93.3271 4.2529 -0.0298142 0
M  V30 977 N 91.6422 0.330177 1.54103 0
M  V30 978 C 92.8902 -0.269871 2.0029 0
M  V30 979 C 93.2112 -1.52133 1.21986 0
M  V30 980 O 92.4812 -1.93212 0.323438 0
M  V30 981 H 91.0612 -0.10271 0.739905 0
M  V30 982 H 93.7232 0.448249 1.89675 0
M  V30 983 H 92.8192 -0.52166 3.07709 0
M  V30 984 N 93.1203 -1.57491 0.0584922 0
M  V30 985 C 94.0833 -2.1085 -0.898617 0
M  V30 986 C 95.0833 -1.02964 -1.23511 0
M  V30 987 O 96.2733 -1.29007 -1.17059 0
M  V30 988 C 93.4053 -2.59881 -2.20623 0
M  V30 989 H 94.5983 -2.96715 -0.435936 0
M  V30 990 H 92.1513 -1.55141 -0.190023 0
M  V30 991 H 92.8863 -1.77431 -2.71457 0
M  V30 992 H 92.6713 -3.38727 -1.97501 0
M  V30 993 H 94.1613 -3.01285 -2.89166 0
M  V30 994 N 94.5984 0.214957 -1.56127 0
M  V30 995 C 95.5614 1.24997 -1.92116 0
M  V30 996 C 96.5614 1.39467 -0.800344 0
M  V30 997 O 97.7514 1.37619 -1.06802 0
M  V30 998 C 94.8834 2.62271 -2.17777 0
M  V30 999 H 96.0764 0.942875 -2.84693 0
M  V30 1000 H 93.6294 0.455654 -1.49511 0
M  V30 1001 H 94.3644 2.98068 -1.27773 0
M  V30 1002 H 94.1494 2.53143 -2.99434 0
M  V30 1003 H 95.6394 3.36946 -2.46693 0
M  V30 1004 N 96.0765 1.50051 0.48192 0
M  V30 1005 C 97.3235 1.60498 1.23477 0
M  V30 1006 C 97.6515 0.300331 1.92167 0
M  V30 1007 O 96.9065 -0.713094 1.82246 0
M  V30 1008 C 97.2055 2.72717 2.30998 0
M  V30 1009 C 96.8715 4.13572 1.79636 0
M  V30 1010 C 95.5335 4.519 1.65348 0
M  V30 1011 C 97.8855 5.01649 1.41412 0
M  V30 1012 C 95.2135 5.76057 1.11244 0
M  V30 1013 C 97.5655 6.26343 0.887538 0
M  V30 1014 C 96.2295 6.63483 0.731207 0
M  V30 1015 H 95.4995 0.587303 0.451836 0
M  V30 1016 H 98.1465 1.83948 0.532468 0
M  V30 1017 H 96.4515 2.43312 3.07094 0
M  V30 1018 H 98.1485 2.78006 2.88988 0
M  V30 1019 H 94.7385 3.83329 1.91721 0
M  V30 1020 H 98.9225 4.72679 1.51289 0
M  V30 1021 H 94.1785 6.03516 0.978686 0
M  V30 1022 H 98.3525 6.93958 0.582654 0
M  V30 1023 H 95.9795 7.59568 0.309806 0
M  V30 1024 N 97.5546 -0.734337 1.39446 0
M  V30 1025 C 98.8316 -1.48579 1.27215 0
M  V30 1026 C 99.2116 -2.1077 -0.117968 0
M  V30 1027 O 98.5596 -1.98646 -1.12924 0
M  V30 1028 C 98.7696 -2.53667 2.39696 0
M  V30 1029 C 100.118 -3.20031 2.79044 0
M  V30 1030 O 101.142 -2.6398 2.39151 0
M  V30 1031 O 100.001 -4.21455 3.47905 0
M  V30 1032 H 97.0946 -0.659816 0.49857 0
M  V30 1033 H 99.6406 -0.768106 1.51322 0
M  V30 1034 H 98.4126 -2.06096 3.32626 0
M  V30 1035 H 98.0356 -3.32994 2.17258 0
M  V30 1036 N 99.0327 -1.24633 -0.964593 0
M  V30 1037 C 100.281 -1.08573 -1.70459 0
M  V30 1038 C 100.602 0.375655 -1.91347 0
M  V30 1039 O 99.8717 1.26779 -1.49345 0
M  V30 1040 H 98.4517 -0.398784 -0.631649 0
M  V30 1041 H 101.114 -1.56601 -1.16026 0
M  V30 1042 H 100.21 -1.58623 -2.68785 0
M  V30 1043 N 100.511 1.16574 -1.06058 0
M  V30 1044 C 101.736 1.91493 -0.796562 0
M  V30 1045 C 102.161 1.76773 0.642868 0
M  V30 1046 O 101.519 1.09142 1.44768 0
M  V30 1047 C 101.567 3.40293 -1.19303 0
M  V30 1048 O 100.671 4.11074 -0.330394 0
M  V30 1049 H 100.012 0.596678 -0.291326 0
M  V30 1050 H 102.542 1.47708 -1.41575 0
M  V30 1051 H 102.552 3.91057 -1.16356 0
M  V30 1052 H 101.227 3.50326 -2.24153 0
M  V30 1053 H 99.8038 3.70513 -0.421225 0
M  V30 1054 N 101.989 0.842826 1.3317 0
M  V30 1055 C 103.229 0.446574 1.99462 0
M  V30 1056 C 103.593 -0.976818 1.65295 0
M  V30 1057 O 104.794 -1.477 2.24584 0
M  V30 1058 C 103.065 0.665353 3.51152 0
M  V30 1059 S 104.624 0.364911 4.3728 0
M  V30 1060 H 101.442 0.167803 0.690915 0
M  V30 1061 H 104.044 1.09297 1.62094 0
M  V30 1062 H 102.748 1.7006 3.73507 0
M  V30 1063 H 102.279 0.00494568 3.934 0
M  V30 1064 H 104.294 -0.813761 4.89482 0
M  V30 1065 N 103.467 -1.45747 0.599634 0
M  V30 1066 C 104.695 -2.06668 0.0978551 0
M  V30 1067 C 105.11 -1.44562 -1.21439 0
M  V30 1068 O 104.467 -0.556923 -1.73795 0
M  V30 1069 C 104.518 -3.61456 -0.0567044 0
M  V30 1070 O 104.239 -4.21242 1.20361 0
M  V30 1071 C 105.74 -4.39345 -0.590869 0
M  V30 1072 H 102.96 -0.667825 0.0651943 0
M  V30 1073 H 105.504 -1.87115 0.82511 0
M  V30 1074 H 103.659 -3.80378 -0.734251 0
M  V30 1075 H 104.073 -5.14323 1.02821 0
M  V30 1076 H 105.547 -5.48182 -0.648131 0
M  V30 1077 H 106.024 -4.08568 -1.61147 0
M  V30 1078 H 106.63 -4.25268 0.0523679 0
M  V30 1079 N 104.945 -0.338344 -1.53925 0
M  V30 1080 C 105.893 0.536231 -2.26335 0
M  V30 1081 C 106.887 1.1063 -1.28286 0
M  V30 1082 O 108.093 1.05264 -1.46012 0
M  V30 1083 H 104.468 0.191602 -0.727181 0
M  V30 1084 H 106.439 -0.0965747 -2.98244 0
M  V30 1085 C 105.188 1.67803 -3.04528 0
M  V30 1086 H 104.511 1.24864 -3.79801 0
M  V30 1087 H 105.951 2.26526 -3.58416 0
M  V30 1088 C 104.41 2.60439 -2.13712 0
M  V30 1089 O 104.94 3.6255 -1.72975 0
M  V30 1090 N 103.146 2.29006 -1.78898 0
M  V30 1091 H 102.693 1.46011 -2.12223 0
M  V30 1092 H 102.651 2.91248 -1.18416 0
M  V30 1093 N 106.423 1.57458 -0.0668435 0
M  V30 1094 C 107.353 2.15468 0.899764 0
M  V30 1095 C 108.334 1.08042 1.31381 0
M  V30 1096 O 109.519 1.36054 1.38574 0
M  V30 1097 C 106.649 2.71232 2.16911 0
M  V30 1098 C 105.603 3.83781 1.89463 0
M  V30 1099 C 104.929 4.26127 3.22986 0
M  V30 1100 C 106.229 5.08238 1.20381 0
M  V30 1101 H 107.923 2.96488 0.416529 0
M  V30 1102 H 105.469 1.4262 0.198908 0
M  V30 1103 H 107.422 3.10458 2.84945 0
M  V30 1104 H 106.146 1.87426 2.67468 0
M  V30 1105 H 104.805 3.45051 1.23836 0
M  V30 1106 H 104.453 3.39249 3.71374 0
M  V30 1107 H 104.153 5.01993 3.05413 0
M  V30 1108 H 105.677 4.67966 3.92225 0
M  V30 1109 H 107.091 5.44811 1.78475 0
M  V30 1110 H 105.488 5.89349 1.13083 0
M  V30 1111 H 106.558 4.84558 0.182153 0
M  V30 1112 N 107.901 -0.206675 1.56239 0
M  V30 1113 C 109.317 -0.557025 1.49564 0
M  V30 1114 C 109.517 -1.86424 0.764735 0
M  V30 1115 O 108.573 -2.50584 0.310491 0
M  V30 1116 C 109.886 -0.622478 2.94186 0
M  V30 1117 C 111.434 -0.712099 3.04792 0
M  V30 1118 C 111.909 -0.808767 4.50803 0
M  V30 1119 N 113.4 -0.8726 4.54907 0
M  V30 1120 C 114.135 -0.967365 5.65181 0
M  V30 1121 N 113.631 -1.02515 6.85173 0
M  V30 1122 N 115.424 -1.00366 5.53067 0
M  V30 1123 H 107.575 0.650943 2.02179 0
M  V30 1124 H 109.838 0.230387 0.919579 0
M  V30 1125 H 109.544 0.268727 3.50672 0
M  V30 1126 H 109.418 -1.4811 3.46905 0
M  V30 1127 H 111.805 -1.59374 2.48363 0
M  V30 1128 H 111.886 0.172489 2.55218 0
M  V30 1129 H 111.53 0.0684754 5.07854 0
M  V30 1130 H 111.46 -1.70899 4.98098 0
M  V30 1131 H 113.951 -0.837657 3.68499 0
M  V30 1132 H 114.264 -1.09765 7.64965 0
M  V30 1133 H 112.609 -0.994026 6.87855 0
M  V30 1134 H 115.8 -0.95527 4.58249 0
M  V30 1135 H 115.973 -1.07405 6.39037 0
M  V30 1136 N 109.379 -1.50304 -0.473955 0
M  V30 1137 C 110.309 -1.71886 -1.58042 0
M  V30 1138 C 111.29 -0.567799 -1.60344 0
M  V30 1139 O 112.475 -0.806623 -1.76656 0
M  V30 1140 C 109.605 -1.81036 -2.96384 0
M  V30 1141 C 108.559 -2.962 -3.08949 0
M  V30 1142 C 107.885 -2.9049 -4.48909 0
M  V30 1143 C 109.185 -4.36752 -2.86434 0
M  V30 1144 H 110.879 -2.64527 -1.40234 0
M  V30 1145 H 108.425 -1.27295 -0.673201 0
M  V30 1146 H 110.378 -1.94719 -3.73714 0
M  V30 1147 H 109.102 -0.850147 -3.15341 0
M  V30 1148 H 107.761 -2.82164 -2.3405 0
M  V30 1149 H 107.409 -1.92321 -4.64781 0
M  V30 1150 H 107.109 -3.67802 -4.58253 0
M  V30 1151 H 108.633 -3.06218 -5.28264 0
M  V30 1152 H 110.047 -4.5133 -3.53517 0
M  V30 1153 H 108.444 -5.15493 -3.07225 0
M  V30 1154 H 109.514 -4.49321 -1.82316 0
M  V30 1155 N 110.857 0.726932 -1.39834 0
M  V30 1156 C 112.087 1.51393 -1.40583 0
M  V30 1157 C 112.495 1.892 -0.000740625 0
M  V30 1158 O 111.838 1.55189 0.982951 0
M  V30 1159 C 111.9 2.82588 -2.22226 0
M  V30 1160 C 111.564 2.67169 -3.70769 0
M  V30 1161 C 112.561 2.3518 -4.63666 0
M  V30 1162 C 110.246 2.83788 -4.14451 0
M  V30 1163 C 112.24 2.20002 -5.98229 0
M  V30 1164 C 109.927 2.68229 -5.49087 0
M  V30 1165 C 110.925 2.36382 -6.4079 0
M  V30 1166 O 110.613 2.2093 -7.72946 0
M  V30 1167 H 110.345 0.474168 -0.48181 0
M  V30 1168 H 112.899 0.905247 -1.84376 0
M  V30 1169 H 111.129 3.45746 -1.73195 0
M  V30 1170 H 112.818 3.44247 -2.15055 0
M  V30 1171 H 113.584 2.21984 -4.31217 0
M  V30 1172 H 109.463 3.07566 -3.43401 0
M  V30 1173 H 113.007 1.95067 -6.69772 0
M  V30 1174 H 108.904 2.81006 -5.81125 0
M  V30 1175 H 109.672 2.35937 -7.83757 0
M  V30 1176 N 112.336 1.25143 0.95797 0
M  V30 1177 C 113.576 1.10893 1.71703 0
M  V30 1178 C 113.94 -0.34478 1.88879 0
M  V30 1179 O 115.141 -0.609014 2.6181 0
M  V30 1180 C 113.412 1.83889 3.06463 0
M  V30 1181 S 114.971 1.85491 3.97666 0
M  V30 1182 H 111.789 0.396428 0.590226 0
M  V30 1183 H 114.391 1.58618 1.14283 0
M  V30 1184 H 113.095 2.88756 2.9163 0
M  V30 1185 H 112.626 1.36538 3.68946 0
M  V30 1186 H 114.641 0.929553 4.87415 0
M  V30 1187 N 113.814 -1.1601 1.06675 0
M  V30 1188 C 115.062 -1.86264 0.784229 0
M  V30 1189 C 115.383 -1.82328 -0.691488 0
M  V30 1190 O 114.653 -1.25947 -1.50047 0
M  V30 1191 H 113.233 -0.689621 0.28711 0
M  V30 1192 H 115.895 -1.40664 1.34906 0
M  V30 1193 H 114.991 -2.91595 1.11259 0
M  V30 1194 N 115.292 -0.849877 -1.32721 0
M  V30 1195 C 116.54 -0.450032 -1.97026 0
M  V30 1196 C 116.861 0.996604 -1.67609 0
M  V30 1197 O 116.131 1.6958 -0.980786 0
M  V30 1198 H 114.711 -0.163426 -0.728904 0
M  V30 1199 H 117.373 -1.08526 -1.6189 0
M  V30 1200 H 116.469 -0.591146 -3.0645 0
M  V30 1201 N 116.77 1.45427 -0.607355 0
M  V30 1202 C 118.047 1.9557 -0.0344566 0
M  V30 1203 C 118.427 1.54979 1.43334 0
M  V30 1204 O 117.775 0.812241 2.13576 0
M  V30 1205 C 117.985 3.48226 -0.232321 0
M  V30 1206 C 119.333 4.2445 -0.113001 0
M  V30 1207 O 120.357 3.55829 -0.162431 0
M  V30 1208 O 119.216 5.465 0.00209442 0
M  V30 1209 H 116.31 0.826222 0.0358667 0
M  V30 1210 H 118.856 1.55594 -0.6774 0
M  V30 1211 H 117.628 3.70739 -1.25174 0
M  V30 1212 H 117.251 3.95092 0.445896 0
M  V30 1213 N 118.248 0.346503 1.53744 0
M  V30 1214 C 119.494 -0.242135 2.01954 0
M  V30 1215 C 119.849 -1.47962 1.22984 0
M  V30 1216 O 119.142 -1.89077 0.309924 0
M  V30 1217 C 119.336 -0.605809 3.52228 0
M  V30 1218 C 119.165 0.594882 4.45748 0
M  V30 1219 C 117.935 1.1011 4.93157 0
M  V30 1220 C 120.133 1.45425 4.93311 0
M  V30 1221 N 118.115 2.26381 5.70636 0
M  V30 1222 C 119.486 2.46383 5.68942 0
M  V30 1223 C 121.541 1.47935 4.75415 0
M  V30 1224 C 120.244 3.49684 6.28581 0
M  V30 1225 C 122.27 2.50119 5.35905 0
M  V30 1226 C 121.632 3.49803 6.11406 0
M  V30 1227 H 117.731 -0.0518296 0.780281 0
M  V30 1228 H 120.315 0.486736 1.88518 0
M  V30 1229 H 118.486 -1.30378 3.65864 0
M  V30 1230 H 120.218 -1.17789 3.87179 0
M  V30 1231 H 116.973 0.668721 4.68855 0
M  V30 1232 H 117.397 2.85094 6.14044 0
M  V30 1233 H 122.039 0.722274 4.16585 0
M  V30 1234 H 119.757 4.26285 6.86518 0
M  V30 1235 H 123.343 2.52892 5.23963 0
M  V30 1236 H 122.223 4.27576 6.5738 0
M  V30 1237 N 119.726 -1.57421 0.075193 0
M  V30 1238 C 120.658 -2.09904 -0.920483 0
M  V30 1239 C 121.671 -1.03191 -1.25918 0
M  V30 1240 O 122.86 -1.30695 -1.21577 0
M  V30 1241 C 119.96 -2.54726 -2.23534 0
M  V30 1242 C 119.133 -3.8505 -2.07498 0
M  V30 1243 C 118.192 -4.15929 -3.22319 0
M  V30 1244 O 117.218 -4.85474 -2.9716 0
M  V30 1245 N 118.42 -3.69745 -4.47514 0
M  V30 1246 H 121.185 -2.95954 -0.472359 0
M  V30 1247 H 118.746 -1.61523 -0.110444 0
M  V30 1248 H 120.738 -2.72443 -2.9926 0
M  V30 1249 H 119.308 -1.73795 -2.59835 0
M  V30 1250 H 118.528 -3.76679 -1.16219 0
M  V30 1251 H 119.816 -4.70348 -1.94038 0
M  V30 1252 H 119.214 -3.13569 -4.7084 0
M  V30 1253 H 117.771 -3.92655 -5.20255 0
M  V30 1254 N 121.204 0.198386 -1.56346 0
M  V30 1255 C 122.452 0.91747 -1.80075 0
M  V30 1256 C 122.773 1.83929 -0.647692 0
M  V30 1257 O 122.043 1.93029 0.334166 0
M  V30 1258 H 120.623 0.341774 -0.664228 0
M  V30 1259 H 123.285 0.204684 -1.93822 0
M  V30 1260 H 122.381 1.51055 -2.7311 0
M  V30 1261 N 122.682 1.50554 0.465978 0
M  V30 1262 C 123.931 1.61038 1.21448 0
M  V30 1263 C 124.244 0.31865 1.92987 0
M  V30 1264 O 125.45 0.302469 2.6981 0
M  V30 1265 C 123.906 2.84283 2.20706 0
M  V30 1266 C 123.514 4.20352 1.54946 0
M  V30 1267 C 125.258 3.04115 2.96166 0
M  V30 1268 C 123.165 5.34778 2.5252 0
M  V30 1269 H 122.095 0.599718 0.457005 0
M  V30 1270 H 124.746 1.7699 0.484424 0
M  V30 1271 H 123.128 2.61901 2.97025 0
M  V30 1272 H 124.302 4.53008 0.843811 0
M  V30 1273 H 122.617 4.06167 0.917475 0
M  V30 1274 H 125.214 3.86774 3.69202 0
M  V30 1275 H 125.557 2.16045 3.55852 0
M  V30 1276 H 126.09 3.26702 2.26959 0
M  V30 1277 H 122.829 6.25018 1.97566 0
M  V30 1278 H 122.349 5.06534 3.21222 0
M  V30 1279 H 124.028 5.65561 3.14245 0
M  V30 1280 N 124.16 -0.719506 1.40217 0
M  V30 1281 C 125.409 -1.47486 1.37589 0
M  V30 1282 C 125.722 -1.9559 -0.0201568 0
M  V30 1283 O 126.928 -2.70973 -0.169049 0
M  V30 1284 C 125.384 -2.66575 2.41796 0
M  V30 1285 C 124.992 -2.25358 3.87192 0
M  V30 1286 C 126.736 -3.4433 2.48269 0
M  V30 1287 C 124.643 -3.41262 4.83005 0
M  V30 1288 H 123.573 -0.553901 0.511576 0
M  V30 1289 H 126.224 -0.783427 1.65936 0
M  V30 1290 H 124.606 -3.3787 2.06543 0
M  V30 1291 H 125.78 -1.61509 4.31569 0
M  V30 1292 H 124.095 -1.60657 3.84159 0
M  V30 1293 H 126.692 -4.30569 3.17041 0
M  V30 1294 H 127.035 -3.87872 1.51198 0
M  V30 1295 H 127.568 -2.80076 2.82493 0
M  V30 1296 H 124.307 -3.02755 5.81394 0
M  V30 1297 H 123.827 -4.0404 4.43297 0
M  V30 1298 H 125.506 -4.07383 5.02641 0
M  V30 1299 N 125.638 -1.25649 -0.95132 0
M  V30 1300 C 126.586 -1.06118 -2.06982 0
M  V30 1301 C 127.58 0.00889169 -1.69398 0
M  V30 1302 O 128.786 -0.146988 -1.79399 0
M  V30 1303 H 125.161 -0.326248 -0.677544 0
M  V30 1304 H 127.132 -2.00932 -2.2061 0
M  V30 1305 C 125.881 -0.700145 -3.40578 0
M  V30 1306 H 125.204 -1.51537 -3.69968 0
M  V30 1307 H 126.644 -0.603211 -4.19687 0
M  V30 1308 C 125.103 0.59403 -3.31622 0
M  V30 1309 O 125.633 1.63522 -3.66911 0
M  V30 1310 N 123.839 0.58089 -2.84735 0
M  V30 1311 H 123.386 -0.266783 -2.56215 0
M  V30 1312 H 123.344 1.44695 -2.79125 0
M  V30 1313 N 127.117 1.15442 -1.07289 0
M  V30 1314 C 128.064 2.20161 -0.692653 0
M  V30 1315 C 129.034 1.63073 0.31564 0
M  V30 1316 O 130.219 1.89725 0.202235 0
M  V30 1317 C 127.359 3.44967 -0.0959509 0
M  V30 1318 C 126.472 4.16256 -1.15564 0
M  V30 1319 C 125.607 5.28609 -0.524011 0
M  V30 1320 C 124.646 5.91715 -1.56653 0
M  V30 1321 N 123.783 6.9554 -0.957531 0
M  V30 1322 H 128.623 2.52037 -1.59002 0
M  V30 1323 H 126.16 1.2378 -0.794798 0
M  V30 1324 H 128.118 4.16341 0.267628 0
M  V30 1325 H 126.748 3.1361 0.764772 0
M  V30 1326 H 125.8 3.43385 -1.6368 0
M  V30 1327 H 127.112 4.59268 -1.94613 0
M  V30 1328 H 126.266 6.06604 -0.108032 0
M  V30 1329 H 125.005 4.86787 0.29825 0
M  V30 1330 H 124.01 5.12433 -1.9923 0
M  V30 1331 H 125.235 6.35614 -2.39107 0
M  V30 1332 H 123.181 6.55814 -0.156162 0
M  V30 1333 H 123.098 7.36977 -1.68526 0
M  V30 1334 H 124.366 7.77435 -0.567032 0
M  V30 1335 N 128.595 0.856903 1.32268 0
M  V30 1336 C 129.844 0.457599 1.96441 0
M  V30 1337 C 130.157 -0.992426 1.68553 0
M  V30 1338 O 131.363 -1.49727 2.26482 0
M  V30 1339 C 129.819 0.767358 3.51624 0
M  V30 1340 C 129.427 2.23326 3.88367 0
M  V30 1341 C 131.171 0.435887 4.22256 0
M  V30 1342 C 129.078 2.48613 5.36606 0
M  V30 1343 H 128.008 0.167387 0.735185 0
M  V30 1344 H 130.659 1.048 1.5063 0
M  V30 1345 H 129.041 0.106367 3.95857 0
M  V30 1346 H 130.215 2.93623 3.55137 0
M  V30 1347 H 128.53 2.52948 3.30766 0
M  V30 1348 H 131.127 0.602202 5.31298 0
M  V30 1349 H 131.47 -0.622672 4.11617 0
M  V30 1350 H 132.003 1.05286 3.83614 0
M  V30 1351 H 128.742 3.53101 5.52268 0
M  V30 1352 H 128.262 1.82896 5.71235 0
M  V30 1353 H 129.941 2.32676 6.03714 0
M  V30 1354 N 130.073 -1.45103 0.615059 0
M  V30 1355 C 131.021 -2.32331 -0.111791 0
M  V30 1356 C 132.015 -1.46409 -0.852102 0
M  V30 1357 O 133.221 -1.62849 -0.766821 0
M  V30 1358 H 129.596 -0.749993 -0.0549072 0
M  V30 1359 H 131.567 -2.91407 0.642225 0
M  V30 1360 C 130.316 -3.3015 -1.09071 0
M  V30 1361 H 129.639 -3.96265 -0.530485 0
M  V30 1362 H 131.079 -3.93898 -1.56908 0
M  V30 1363 C 129.538 -2.57875 -2.168 0
M  V30 1364 O 130.068 -2.36567 -3.24652 0
M  V30 1365 N 128.274 -2.17884 -1.92289 0
M  V30 1366 H 127.821 -2.35413 -1.04587 0
M  V30 1367 H 127.779 -1.6985 -2.64572 0
M  V30 1368 N 131.551 -0.354651 -1.53558 0
M  V30 1369 C 132.828 0.294281 -1.93374 0
M  V30 1370 C 133.208 1.67313 -1.28723 0
M  V30 1371 O 132.556 2.24179 -0.442247 0
M  V30 1372 C 132.766 0.355445 -3.47185 0
M  V30 1373 C 134.114 0.601007 -4.20325 0
M  V30 1374 O 135.138 0.437106 -3.53508 0
M  V30 1375 O 133.997 0.919322 -5.38712 0
M  V30 1376 H 131.091 0.174033 -0.808481 0
M  V30 1377 H 133.637 -0.406638 -1.64756 0
M  V30 1378 H 132.409 -0.611729 -3.86489 0
M  V30 1379 H 132.032 1.1027 -3.82003 0
M  V30 1380 N 133.029 1.57378 -0.0835403 0
M  V30 1381 C 134.277 1.93547 0.581718 0
M  V30 1382 C 134.598 0.96524 1.69435 0
M  V30 1383 O 133.868 0.0153369 1.95894 0
M  V30 1384 H 132.448 0.714521 0.217874 0
M  V30 1385 H 135.11 1.94366 -0.144158 0
M  V30 1386 H 134.206 2.95665 0.999423 0
M  V30 1387 N 134.507 -0.190092 1.56449 0
M  V30 1388 C 135.737 -0.92443 1.84764 0
M  V30 1389 C 136.145 -1.77146 0.664529 0
M  V30 1390 O 135.488 -1.79812 -0.375957 0
M  V30 1391 C 135.55 -1.86651 3.07248 0
M  V30 1392 C 135.214 -1.20094 4.40938 0
M  V30 1393 C 136.211 -0.575445 5.16706 0
M  V30 1394 C 133.896 -1.2033 4.87674 0
M  V30 1395 C 135.89 0.0388111 6.37388 0
M  V30 1396 C 133.577 -0.585214 6.08291 0
M  V30 1397 C 134.575 0.0347578 6.82991 0
M  V30 1398 O 134.263 0.643147 8.01323 0
M  V30 1399 H 133.995 -0.274974 0.617548 0
M  V30 1400 H 136.549 -0.200788 2.04416 0
M  V30 1401 H 134.779 -2.62998 2.83494 0
M  V30 1402 H 136.468 -2.46907 3.22167 0
M  V30 1403 H 137.234 -0.565728 4.81689 0
M  V30 1404 H 133.113 -1.67526 4.29484 0
M  V30 1405 H 136.657 0.523329 6.95634 0
M  V30 1406 H 132.554 -0.592451 6.42775 0
M  V30 1407 H 133.322 0.540545 8.16713 0
M  V30 1408 N 135.985 -1.50799 -0.457987 0
M  V30 1409 C 136.915 -1.73553 -1.5621 0
M  V30 1410 C 137.896 -0.584774 -1.59732 0
M  V30 1411 O 139.081 -0.825314 -1.7579 0
M  V30 1412 C 136.211 -1.84169 -2.94447 0
M  V30 1413 C 135.165 -2.99461 -3.0579 0
M  V30 1414 C 134.491 -2.95235 -4.45803 0
M  V30 1415 C 135.791 -4.39766 -2.81786 0
M  V30 1416 H 137.485 -2.66 -1.37421 0
M  V30 1417 H 135.031 -1.28002 -0.659662 0
M  V30 1418 H 136.984 -1.98672 -3.71628 0
M  V30 1419 H 135.708 -0.883545 -3.14422 0
M  V30 1420 H 134.367 -2.8463 -2.31044 0
M  V30 1421 H 134.015 -1.97239 -4.62715 0
M  V30 1422 H 133.715 -3.72642 -4.54326 0
M  V30 1423 H 135.239 -3.11803 -5.24987 0
M  V30 1424 H 136.653 -4.55054 -3.4871 0
M  V30 1425 H 135.05 -5.18722 -3.0174 0
M  V30 1426 H 136.12 -4.51229 -1.7754 0
M  V30 1427 N 137.463 0.71206 -1.40597 0
M  V30 1428 C 138.691 1.50111 -1.42388 0
M  V30 1429 C 139.106 1.88784 -0.0245395 0
M  V30 1430 O 138.463 1.55681 0.952351 0
M  V30 1431 C 138.514 2.7742 -2.31776 0
M  V30 1432 O 138.235 2.40382 -3.66262 0
M  V30 1433 C 139.736 3.7129 -2.42196 0
M  V30 1434 H 136.956 0.46314 -0.485533 0
M  V30 1435 H 139.5 0.878068 -1.8469 0
M  V30 1436 H 137.655 3.36001 -1.92827 0
M  V30 1437 H 138.069 3.22324 -4.13772 0
M  V30 1438 H 139.543 4.57448 -3.08943 0
M  V30 1439 H 140.02 4.14641 -1.44809 0
M  V30 1440 H 140.626 3.18619 -2.81712 0
M  V30 1441 N 138.941 1.26152 0.944643 0
M  V30 1442 C 140.189 1.11271 1.6871 0
M  V30 1443 C 140.51 -0.345166 1.91921 0
M  V30 1444 O 139.78 -1.24387 1.51343 0
M  V30 1445 H 138.36 0.408783 0.625224 0
M  V30 1446 H 141.022 1.58427 1.1352 0
M  V30 1447 H 140.118 1.62879 2.66227 0
M  V30 1448 N 140.419 -1.14872 1.07899 0
M  V30 1449 C 141.352 -2.18794 0.64841 0
M  V30 1450 C 142.33 -1.59065 -0.337189 0
M  V30 1451 O 143.514 -1.86936 -0.242284 0
M  V30 1452 C 140.641 -3.38667 -0.0470417 0
M  V30 1453 C 139.687 -4.16942 0.897884 0
M  V30 1454 S 140.52 -4.78615 2.40183 0
M  V30 1455 C 141.676 -6.0185 1.71834 0
M  V30 1456 H 141.909 -2.5498 1.52881 0
M  V30 1457 H 139.442 -1.25922 0.893484 0
M  V30 1458 H 141.4 -4.08113 -0.442027 0
M  V30 1459 H 140.061 -3.00814 -0.903861 0
M  V30 1460 H 139.254 -5.02726 0.358096 0
M  V30 1461 H 138.856 -3.53073 1.23352 0
M  V30 1462 H 141.148 -6.69574 1.03328 0
M  V30 1463 H 142.091 -6.60408 2.55473 0
M  V30 1464 H 142.499 -5.5173 1.19392 0
M  V30 1465 N 141.898 -0.863906 -1.31812 0
M  V30 1466 C 143.146 -0.470904 -1.96537 0
M  V30 1467 C 143.467 0.978771 -1.68657 0
M  V30 1468 O 142.737 1.6853 -0.998717 0
M  V30 1469 H 141.317 -0.171148 -0.72713 0
M  V30 1470 H 143.979 -1.10236 -1.60729 0
M  V30 1471 H 143.075 -0.623616 -3.05806 0
M  V30 1472 N 143.376 1.44774 -0.622745 0
M  V30 1473 C 144.625 2.01334 -0.121397 0
M  V30 1474 C 144.938 1.49505 1.26125 0
M  V30 1475 O 146.144 1.98139 1.85616 0
M  V30 1476 C 144.6 3.59516 -0.166298 0
M  V30 1477 C 144.208 4.20342 -1.54974 0
M  V30 1478 C 145.952 4.23582 0.279021 0
M  V30 1479 C 143.859 5.70721 -1.55021 0
M  V30 1480 H 142.789 0.752851 -0.0416172 0
M  V30 1481 H 145.44 1.66083 -0.780309 0
M  V30 1482 H 143.822 3.92027 0.559557 0
M  V30 1483 H 144.996 3.99381 -2.29851 0
M  V30 1484 H 143.311 3.68529 -1.93843 0
M  V30 1485 H 145.908 5.33868 0.298083 0
M  V30 1486 H 146.251 3.95327 1.30471 0
M  V30 1487 H 146.784 3.95843 -0.394063 0
M  V30 1488 H 143.523 6.03698 -2.55399 0
M  V30 1489 H 143.043 5.93829 -0.844245 0
M  V30 1490 H 144.722 6.34203 -1.28047 0
M  V30 1491 N 144.854 0.36279 1.53368 0
M  V30 1492 C 146.082 -0.228613 2.05633 0
M  V30 1493 C 146.497 -1.42676 1.23649 0
M  V30 1494 O 145.854 -1.80394 0.27647 0
M  V30 1495 C 145.905 -0.624845 3.56059 0
M  V30 1496 O 145.626 0.525675 4.34935 0
M  V30 1497 C 147.127 -1.27493 4.24571 0
M  V30 1498 H 144.347 -0.0407183 0.669763 0
M  V30 1499 H 146.891 0.520352 1.97769 0
M  V30 1500 H 145.046 -1.32373 3.64083 0
M  V30 1501 H 145.46 0.205969 5.24095 0
M  V30 1502 H 146.934 -1.50277 5.31151 0
M  V30 1503 H 147.411 -2.23439 3.78116 0
M  V30 1504 H 148.017 -0.617558 4.20792 0
M  V30 1505 N 146.332 -1.57332 0.0918853 0
M  V30 1506 C 147.295 -2.12708 -0.85369 0
M  V30 1507 C 148.295 -1.05561 -1.213 0
M  V30 1508 O 149.485 -1.31461 -1.14296 0
M  V30 1509 C 146.617 -2.64503 -2.15061 0
M  V30 1510 H 147.81 -2.97573 -0.3729 0
M  V30 1511 H 145.363 -1.55509 -0.157072 0
M  V30 1512 H 146.098 -1.83149 -2.67632 0
M  V30 1513 H 145.883 -3.4284 -1.90272 0
M  V30 1514 H 147.373 -3.07351 -2.82711 0
M  V30 1515 N 147.81 0.181792 -1.56548 0
M  V30 1516 C 149.059 0.898348 -1.8059 0
M  V30 1517 C 149.372 1.83862 -0.667379 0
M  V30 1518 O 150.578 2.59678 -0.792446 0
M  V30 1519 C 149.034 1.64791 -3.19956 0
M  V30 1520 C 148.642 0.751789 -4.41647 0
M  V30 1521 C 150.386 2.35331 -3.53298 0
M  V30 1522 C 148.293 1.50098 -5.72035 0
M  V30 1523 H 147.223 0.339194 -0.673397 0
M  V30 1524 H 149.874 0.151413 -1.82874 0
M  V30 1525 H 148.256 2.43921 -3.11959 0
M  V30 1526 H 149.43 -0.0018076 -4.608 0
M  V30 1527 H 147.745 0.156562 -4.16106 0
M  V30 1528 H 150.342 2.91958 -4.47956 0
M  V30 1529 H 150.685 3.10164 -2.77676 0
M  V30 1530 H 151.218 1.63154 -3.62803 0
M  V30 1531 H 147.957 0.795175 -6.50659 0
M  V30 1532 H 147.477 2.22817 -5.56878 0
M  V30 1533 H 149.156 2.05125 -6.13622 0
M  V30 1534 N 149.288 1.51039 0.449983 0
M  V30 1535 C 150.534 1.64287 1.19923 0
M  V30 1536 C 150.889 0.348701 1.89214 0
M  V30 1537 O 150.182 -0.654751 1.80065 0
M  V30 1538 C 150.376 2.77556 2.25161 0
M  V30 1539 C 150.205 4.17862 1.66198 0
M  V30 1540 C 148.975 4.83976 1.45243 0
M  V30 1541 C 151.173 5.01388 1.14519 0
M  V30 1542 N 149.155 6.08433 0.817437 0
M  V30 1543 C 150.526 6.16743 0.634705 0
M  V30 1544 C 152.581 4.87008 1.03574 0
M  V30 1545 C 151.284 7.19295 0.0255452 0
M  V30 1546 C 153.31 5.89757 0.440489 0
M  V30 1547 C 152.672 7.04375 -0.0595112 0
M  V30 1548 H 148.771 0.655161 0.426952 0
M  V30 1549 H 151.355 1.88228 0.49781 0
M  V30 1550 H 149.526 2.553 2.92706 0
M  V30 1551 H 151.258 2.80049 2.92155 0
M  V30 1552 H 148.013 4.41627 1.71063 0
M  V30 1553 H 148.437 6.75017 0.517747 0
M  V30 1554 H 153.079 3.9866 1.4082 0
M  V30 1555 H 150.797 8.07302 -0.359071 0
M  V30 1556 H 154.383 5.80698 0.35788 0
M  V30 1557 H 153.263 7.82521 -0.512882 0
M  V30 1558 N 150.766 -0.704594 1.40972 0
M  V30 1559 C 152.015 -1.46018 1.39146 0
M  V30 1560 C 152.328 -1.956 0.000589254 0
M  V30 1561 O 153.534 -2.71137 -0.1403 0
M  V30 1562 C 151.99 -2.63996 2.4461 0
M  V30 1563 C 151.598 -2.21238 3.89561 0
M  V30 1564 C 153.342 -3.41677 2.51907 0
M  V30 1565 C 151.249 -3.3612 4.86598 0
M  V30 1566 H 150.179 -0.548444 0.517422 0
M  V30 1567 H 152.83 -0.765784 1.66757 0
M  V30 1568 H 151.212 -3.3566 2.10115 0
M  V30 1569 H 152.386 -1.56923 4.33257 0
M  V30 1570 H 150.701 -1.56574 3.85841 0
M  V30 1571 H 153.298 -4.27182 3.2159 0
M  V30 1572 H 153.641 -3.86247 1.55303 0
M  V30 1573 H 154.174 -2.77064 2.85448 0
M  V30 1574 H 150.913 -2.96572 5.84573 0
M  V30 1575 H 150.433 -3.99315 4.47557 0
M  V30 1576 H 152.112 -4.02029 5.06934 0
M  V30 1577 N 152.244 -1.26651 -0.937939 0
M  V30 1578 C 153.469 -1.15279 -1.72411 0
M  V30 1579 C 153.894 0.287866 -1.85884 0
M  V30 1580 O 153.252 1.20855 -1.35143 0
M  V30 1581 C 153.3 -1.83028 -3.10698 0
M  V30 1582 O 152.404 -1.12128 -3.96864 0
M  V30 1583 H 151.745 -0.401504 -0.528858 0
M  V30 1584 H 154.275 -1.67531 -1.1745 0
M  V30 1585 H 154.285 -1.89981 -3.6107 0
M  V30 1586 H 152.96 -2.87833 -3.00208 0
M  V30 1587 H 151.537 -1.13173 -3.55312 0
M  V30 1588 N 153.722 1.14298 -1.08507 0
M  V30 1589 C 154.654 2.1907 -0.673859 0
M  V30 1590 C 155.667 1.60381 0.279577 0
M  V30 1591 O 156.856 1.78374 0.0670754 0
M  V30 1592 C 153.956 3.38888 0.0290979 0
M  V30 1593 C 153.129 4.27103 -0.943494 0
M  V30 1594 C 152.188 5.25477 -0.275676 0
M  V30 1595 O 151.214 5.61709 -0.920401 0
M  V30 1596 N 152.416 5.7227 0.974013 0
M  V30 1597 H 155.181 2.54965 -1.57521 0
M  V30 1598 H 152.742 1.29528 -0.971287 0
M  V30 1599 H 154.734 4.01761 0.48683 0
M  V30 1600 H 153.304 3.01309 0.832555 0
M  V30 1601 H 152.524 3.61149 -1.58004 0
M  V30 1602 H 153.812 4.82905 -1.60251 0
M  V30 1603 H 153.21 5.44965 1.51755 0
M  V30 1604 H 151.767 6.37127 1.37522 0
M  V30 1605 N 155.201 0.870884 1.31352 0
M  V30 1606 C 156.612 0.534714 1.78879 0
M  V30 1607 C 156.963 -0.948423 1.71754 0
M  V30 1608 O 156.088 -1.74055 1.28584 0
M  V30 1609 C 156.683 0.963839 3.24801 0
M  V30 1610 C 155.242 0.679311 3.70219 0
M  V30 1611 C 154.389 1.15465 2.52117 0
M  V30 1612 H 157.34 1.05651 1.18421 0
M  V30 1613 H 157.361 0.286892 3.79417 0
M  V30 1614 H 156.873 2.04332 3.29955 0
M  V30 1615 H 154.974 -0.388769 3.70566 0
M  V30 1616 H 155.087 1.25698 4.62317 0
M  V30 1617 H 153.451 0.574383 2.48139 0
M  V30 1618 H 154.234 2.24157 2.60016 0
M  V30 1619 N 156.679 -1.44442 0.630414 0
M  V30 1620 C 157.925 -2.02351 0.134816 0
M  V30 1621 C 158.258 -1.4947 -1.23986 0
M  V30 1622 O 157.533 -0.678475 -1.82283 0
M  V30 1623 C 157.816 -3.59898 0.120707 0
M  V30 1624 C 157.669 -4.23063 1.52767 0
M  V30 1625 C 158.988 -4.36585 -0.555127 0
M  V30 1626 H 156.107 -0.73527 0.0504646 0
M  V30 1627 H 158.749 -1.72022 0.806751 0
M  V30 1628 H 156.899 -3.85868 -0.451477 0
M  V30 1629 H 158.571 -4.08202 2.14869 0
M  V30 1630 H 156.814 -3.80586 2.08175 0
M  V30 1631 H 157.485 -5.32071 1.46984 0
M  V30 1632 H 159.961 -4.16044 -0.0685429 0
M  V30 1633 H 158.837 -5.46294 -0.534185 0
M  V30 1634 H 159.098 -4.11138 -1.62535 0
M  V30 1635 N 158.157 -0.370918 -1.53173 0
M  V30 1636 C 159.067 0.480823 -2.2962 0
M  V30 1637 C 160.083 1.08789 -1.35798 0
M  V30 1638 O 161.259 1.09768 -1.68858 0
M  V30 1639 C 158.324 1.60227 -3.07454 0
M  V30 1640 C 157.385 1.0222 -4.16953 0
M  V30 1641 C 156.618 2.0902 -4.91066 0
M  V30 1642 O 156.841 3.30222 -4.65091 0
M  V30 1643 O 155.775 1.71778 -5.76867 0
M  V30 1644 H 159.601 -0.141421 -3.03371 0
M  V30 1645 H 157.186 -0.135146 -1.48787 0
M  V30 1646 H 159.068 2.25417 -3.56041 0
M  V30 1647 H 157.743 2.20982 -2.36535 0
M  V30 1648 H 156.65 0.334064 -3.72605 0
M  V30 1649 H 157.983 0.459131 -4.90054 0
M  V30 1650 N 159.635 1.57281 -0.100228 0
M  V30 1651 C 160.583 2.15542 0.874328 0
M  V30 1652 C 161.577 1.09962 1.28859 0
M  V30 1653 O 162.783 1.28298 1.26252 0
M  V30 1654 H 159.158 0.689567 0.300003 0
M  V30 1655 H 161.129 2.96241 0.35829 0
M  V30 1656 C 159.878 2.75454 2.1218 0
M  V30 1657 H 159.201 3.56384 1.81193 0
M  V30 1658 H 160.641 3.19781 2.78417 0
M  V30 1659 C 159.1 1.71602 2.89921 0
M  V30 1660 O 159.63 1.15804 3.84646 0
M  V30 1661 N 157.836 1.41975 2.53558 0
M  V30 1662 H 157.383 1.87539 1.76598 0
M  V30 1663 H 157.341 0.727274 3.05873 0
M  V30 1664 N 161.113 -0.173488 1.56642 0
M  V30 1665 C 162.362 -0.888758 1.81063 0
M  V30 1666 C 162.675 -1.83506 0.67712 0
M  V30 1667 O 163.881 -2.59254 0.806206 0
M  V30 1668 C 162.337 -1.63091 3.20826 0
M  V30 1669 C 161.945 -0.728357 4.4204 0
M  V30 1670 C 163.689 -2.33454 3.54541 0
M  V30 1671 C 161.596 -1.47062 5.72823 0
M  V30 1672 H 160.526 -0.335618 0.675186 0
M  V30 1673 H 163.177 -0.141712 1.82952 0
M  V30 1674 H 161.559 -2.42263 3.13248 0
M  V30 1675 H 162.733 0.0262449 4.60793 0
M  V30 1676 H 161.048 -0.134492 4.16183 0
M  V30 1677 H 163.645 -2.89578 4.49498 0
M  V30 1678 H 163.988 -3.08687 2.79317 0
M  V30 1679 H 164.521 -1.61227 3.63663 0
M  V30 1680 H 161.26 -0.760658 6.51072 0
M  V30 1681 H 160.78 -2.1986 5.58052 0
M  V30 1682 H 162.459 -2.01868 6.14702 0
M  V30 1683 N 162.591 -1.51276 -0.441967 0
M  V30 1684 C 163.821 -1.67273 -1.21257 0
M  V30 1685 C 164.229 -0.367624 -1.85594 0
M  V30 1686 O 163.572 0.663349 -1.71305 0
M  V30 1687 C 163.634 -2.72807 -2.34129 0
M  V30 1688 C 163.298 -4.1554 -1.90198 0
M  V30 1689 C 164.295 -5.00471 -1.40801 0
M  V30 1690 C 161.98 -4.61616 -1.9803 0
M  V30 1691 C 163.974 -6.29536 -0.998174 0
M  V30 1692 C 161.661 -5.90679 -1.56658 0
M  V30 1693 C 162.659 -6.74466 -1.07633 0
M  V30 1694 O 162.347 -8.01116 -0.668459 0
M  V30 1695 H 162.079 -0.564614 -0.371734 0
M  V30 1696 H 164.633 -1.9843 -0.530521 0
M  V30 1697 H 162.863 -2.36954 -3.05597 0
M  V30 1698 H 164.552 -2.77729 -2.96009 0
M  V30 1699 H 165.318 -4.66079 -1.34148 0
M  V30 1700 H 161.197 -3.96526 -2.35135 0
M  V30 1701 H 164.741 -6.94885 -0.61482 0
M  V30 1702 H 160.638 -6.24586 -1.62979 0
M  V30 1703 H 161.406 -8.14633 -0.794722 0
M  V30 1704 N 164.069 0.697108 -1.41344 0
M  V30 1705 C 165.294 1.49096 -1.44171 0
M  V30 1706 C 165.719 1.88038 -0.0481568 0
M  V30 1707 O 165.077 1.54525 0.948243 0
M  V30 1708 C 165.125 2.73088 -2.3549 0
M  V30 1709 O 164.229 3.70514 -1.81088 0
M  V30 1710 H 163.57 0.448801 -0.489361 0
M  V30 1711 H 166.1 0.856992 -1.85787 0
M  V30 1712 H 166.11 3.21413 -2.51312 0
M  V30 1713 H 164.785 2.44081 -3.36745 0
M  V30 1714 H 163.362 3.29441 -1.74708 0
M  V30 1715 N 165.547 1.27147 0.931209 0
M  V30 1716 C 166.793 1.13446 1.68101 0
M  V30 1717 C 167.126 -0.319628 1.91552 0
M  V30 1718 O 166.401 -1.23407 1.50336 0
M  V30 1719 C 166.684 1.91482 3.0497 0
M  V30 1720 C 166.537 3.44855 2.88782 0
M  V30 1721 C 167.856 1.71651 4.05246 0
M  V30 1722 H 164.975 0.413498 0.610072 0
M  V30 1723 H 167.617 1.56261 1.08086 0
M  V30 1724 H 165.767 1.55095 3.56199 0
M  V30 1725 H 167.439 3.9105 2.44698 0
M  V30 1726 H 165.682 3.71373 2.24198 0
M  V30 1727 H 166.353 3.94694 3.85902 0
M  V30 1728 H 168.829 2.0337 3.63015 0
M  V30 1729 H 167.705 2.28651 4.99009 0
M  V30 1730 H 167.966 0.663555 4.37092 0
M  V30 1731 N 167.025 -1.13721 1.09112 0
M  V30 1732 C 168.274 -1.84275 0.82009 0
M  V30 1733 C 168.587 -1.84253 -0.656509 0
M  V30 1734 O 169.793 -2.50668 -1.04296 0
M  V30 1735 C 168.249 -3.30825 1.41714 0
M  V30 1736 C 167.857 -3.39244 2.92605 0
M  V30 1737 C 169.601 -4.06443 1.22492 0
M  V30 1738 C 167.508 -4.80047 3.45411 0
M  V30 1739 H 166.438 -0.690387 0.30312 0
M  V30 1740 H 169.089 -1.28146 1.31343 0
M  V30 1741 H 167.471 -3.86737 0.851498 0
M  V30 1742 H 168.645 -2.93344 3.55367 0
M  V30 1743 H 166.96 -2.77088 3.10823 0
M  V30 1744 H 169.557 -5.10387 1.59402 0
M  V30 1745 H 169.9 -4.15972 0.165299 0
M  V30 1746 H 170.433 -3.56852 1.75788 0
M  V30 1747 H 167.172 -4.75709 4.50978 0
M  V30 1748 H 166.692 -5.26455 2.87411 0
M  V30 1749 H 168.371 -5.48957 3.42425 0
M  V30 1750 N 168.503 -0.877838 -1.30888 0
M  V30 1751 C 169.451 -0.328662 -2.30266 0
M  V30 1752 C 170.445 0.560496 -1.59859 0
M  V30 1753 O 171.651 0.445722 -1.74394 0
M  V30 1754 H 168.026 -0.0876142 -0.746879 0
M  V30 1755 H 169.997 -1.18061 -2.74051 0
M  V30 1756 C 168.746 0.448071 -3.44801 0
M  V30 1757 H 168.069 -0.226859 -3.99156 0
M  V30 1758 H 169.509 0.797541 -4.16432 0
M  V30 1759 C 167.968 1.64239 -2.94155 0
M  V30 1760 O 168.498 2.74175 -2.93583 0
M  V30 1761 N 166.704 1.47716 -2.50256 0
M  V30 1762 H 166.251 0.582821 -2.5092 0
M  V30 1763 H 166.209 2.27765 -2.16727 0
M  V30 1764 N 169.982 1.44106 -0.638065 0
M  V30 1765 C 171.212 2.06037 -0.152394 0
M  V30 1766 C 171.62 1.47808 1.18108 0
M  V30 1767 O 170.963 0.598092 1.73691 0
M  V30 1768 C 171.025 3.59488 0.0293714 0
M  V30 1769 C 170.689 4.4022 -1.22702 0
M  V30 1770 C 171.686 4.73256 -2.15232 0
M  V30 1771 C 169.371 4.8048 -1.46437 0
M  V30 1772 C 171.365 5.45444 -3.29802 0
M  V30 1773 C 169.052 5.52417 -2.61303 0
M  V30 1774 C 170.05 5.84819 -3.52811 0
M  V30 1775 O 169.738 6.55289 -4.65673 0
M  V30 1776 H 169.47 0.671233 -0.0801401 0
M  V30 1777 H 172.024 1.85851 -0.874563 0
M  V30 1778 H 170.254 3.78191 0.806758 0
M  V30 1779 H 171.943 4.03164 0.470475 0
M  V30 1780 H 172.709 4.42684 -1.98131 0
M  V30 1781 H 168.588 4.54676 -0.760977 0
M  V30 1782 H 172.132 5.70653 -4.01249 0
M  V30 1783 H 168.029 5.82404 -2.78344 0
M  V30 1784 H 168.797 6.73762 -4.64744 0
M  V30 1785 N 171.46 0.379036 1.52974 0
M  V30 1786 C 172.685 -0.209353 2.06341 0
M  V30 1787 C 173.11 -1.40583 1.24972 0
M  V30 1788 O 172.468 -1.79246 0.272155 0
M  V30 1789 C 172.516 -0.567786 3.56102 0
M  V30 1790 O 171.62 -1.66318 3.77375 0
M  V30 1791 H 170.961 -0.0272919 0.663439 0
M  V30 1792 H 173.491 0.543536 1.97248 0
M  V30 1793 H 173.501 -0.835003 3.99364 0
M  V30 1794 H 172.176 0.307013 4.14765 0
M  V30 1795 H 170.753 -1.39048 3.46006 0
M  V30 1796 N 172.938 -1.57226 0.108567 0
M  V30 1797 C 174.186 -1.94448 -0.550853 0
M  V30 1798 C 174.507 -0.992074 -1.67878 0
M  V30 1799 O 173.777 -0.0465 -1.95845 0
M  V30 1800 H 172.357 -0.717897 -0.206479 0
M  V30 1801 H 175.019 -1.94112 0.175062 0
M  V30 1802 H 174.115 -2.97218 -0.952259 0
M  V30 1803 N 174.416 0.165178 -1.56732 0
M  V30 1804 C 175.662 0.882112 -1.82611 0
M  V30 1805 C 175.995 1.81628 -0.687378 0
M  V30 1806 O 175.27 1.92009 0.310267 0
M  V30 1807 C 175.553 1.67245 -3.18906 0
M  V30 1808 C 175.406 0.760987 -4.43316 0
M  V30 1809 C 176.725 2.63884 -3.52212 0
M  V30 1810 H 173.844 0.319242 -0.664269 0
M  V30 1811 H 176.486 0.148052 -1.89422 0
M  V30 1812 H 174.636 2.29824 -3.1323 0
M  V30 1813 H 176.308 0.147596 -4.61064 0
M  V30 1814 H 174.551 0.0694102 -4.33744 0
M  V30 1815 H 175.222 1.34962 -5.35247 0
M  V30 1816 H 177.698 2.11429 -3.58381 0
M  V30 1817 H 176.574 3.16245 -4.48643 0
M  V30 1818 H 176.835 3.44377 -2.77231 0
M  V30 1819 N 175.894 1.51508 0.433938 0
M  V30 1820 C 176.842 1.73646 1.54757 0
M  V30 1821 C 177.836 0.602854 1.5831 0
M  V30 1822 O 179.042 0.784318 1.62014 0
M  V30 1823 H 175.417 0.548718 0.51421 0
M  V30 1824 H 177.388 2.66991 1.33261 0
M  V30 1825 C 176.137 1.88172 2.92381 0
M  V30 1826 H 175.46 2.74808 2.90381 0
M  V30 1827 H 176.9 2.07672 3.6966 0
M  V30 1828 C 175.359 0.64239 3.30719 0
M  V30 1829 O 175.889 -0.201362 4.01195 0
M  V30 1830 N 174.095 0.485489 2.86516 0
M  V30 1831 H 173.642 1.17318 2.29334 0
M  V30 1832 H 173.6 -0.342482 3.12529 0
M  V30 1833 N 177.372 -0.689602 1.41712 0
M  V30 1834 C 178.32 -1.82475 1.44242 0
M  V30 1835 C 179.314 -1.66354 0.319774 0
M  V30 1836 O 180.52 -1.73143 0.492089 0
M  V30 1837 H 176.895 -0.601416 0.451445 0
M  V30 1838 H 178.866 -1.77458 2.39899 0
M  V30 1839 C 177.615 -3.20535 1.3473 0
M  V30 1840 H 176.938 -3.33559 2.20405 0
M  V30 1841 H 178.378 -4.00023 1.40562 0
M  V30 1842 C 176.837 -3.36846 0.0603281 0
M  V30 1843 O 177.367 -3.91656 -0.892663 0
M  V30 1844 N 175.573 -2.90595 -0.0177039 0
M  V30 1845 H 175.12 -2.46178 0.758572 0
M  V30 1846 H 175.078 -3.01886 -0.878201 0
M  V30 1847 N 178.85 -1.27639 -0.924453 0
M  V30 1848 C 180.078 -1.16989 -1.70649 0
M  V30 1849 C 180.493 0.272869 -1.86818 0
M  V30 1850 O 179.85 1.18549 -1.38753 0
M  V30 1851 C 179.901 -1.85229 -3.10439 0
M  V30 1852 O 179.622 -3.23868 -2.95028 0
M  V30 1853 C 181.123 -1.80746 -4.04779 0
M  V30 1854 H 178.343 -0.406595 -0.53378 0
M  V30 1855 H 180.887 -1.68569 -1.15778 0
M  V30 1856 H 179.042 -1.37545 -3.6216 0
M  V30 1857 H 179.456 -3.57889 -3.83426 0
M  V30 1858 H 180.93 -2.33101 -5.00368 0
M  V30 1859 H 181.407 -0.777499 -4.32263 0
M  V30 1860 H 182.013 -2.28059 -3.58984 0
M  V30 1861 N 180.328 1.1314 -1.09713 0
M  V30 1862 C 181.291 2.16831 -0.742751 0
M  V30 1863 C 182.291 1.59159 0.229129 0
M  V30 1864 O 183.481 1.74199 0.00693237 0
M  V30 1865 C 180.613 3.40756 -0.0989168 0
M  V30 1866 H 181.806 2.49695 -1.66109 0
M  V30 1867 H 179.359 1.2802 -0.896699 0
M  V30 1868 H 180.094 3.13485 0.830514 0
M  V30 1869 H 179.879 3.83888 -0.798265 0
M  V30 1870 H 181.369 4.17386 0.133524 0
M  V30 1871 N 181.806 0.884767 1.30421 0
M  V30 1872 C 183.036 0.517293 2.00019 0
M  V30 1873 C 183.444 -0.898632 1.66497 0
M  V30 1874 O 182.787 -1.60245 0.898181 0
M  V30 1875 C 182.849 0.612025 3.54252 0
M  V30 1876 C 182.513 1.99222 4.1129 0
M  V30 1877 C 183.51 2.9616 4.273 0
M  V30 1878 C 181.195 2.29755 4.46674 0
M  V30 1879 C 183.189 4.21764 4.77906 0
M  V30 1880 C 180.876 3.55606 4.96979 0
M  V30 1881 C 181.874 4.51425 5.12547 0
M  V30 1882 O 181.562 5.75043 5.61766 0
M  V30 1883 H 181.294 0.198529 0.64619 0
M  V30 1884 H 183.848 1.1919 1.67281 0
M  V30 1885 H 182.078 -0.119561 3.86515 0
M  V30 1886 H 183.767 0.255859 4.05093 0
M  V30 1887 H 184.533 2.73882 4.00267 0
M  V30 1888 H 180.412 1.55942 4.33824 0
M  V30 1889 H 183.956 4.96561 4.89972 0
M  V30 1890 H 179.853 3.7772 5.23448 0
M  V30 1891 H 180.621 5.77422 5.80109 0
M  V30 1892 N 183.284 -1.43765 0.645699 0
M  V30 1893 C 184.234 -2.27884 -0.0726442 0
M  V30 1894 C 185.218 -1.39483 -0.802086 0
M  V30 1895 O 186.41 -1.63174 -0.685791 0
M  V30 1896 C 183.539 -3.27055 -1.04356 0
M  V30 1897 C 182.625 -4.22944 -0.312985 0
M  V30 1898 N 183.016 -5.01391 0.666386 0
M  V30 1899 C 181.314 -4.42528 -0.55546 0
M  V30 1900 C 182.015 -5.71217 1.09935 0
M  V30 1901 N 180.991 -5.41856 0.435137 0
M  V30 1902 H 184.793 -2.85949 0.678988 0
M  V30 1903 H 182.307 -1.55378 0.472368 0
M  V30 1904 H 184.304 -3.86089 -1.57292 0
M  V30 1905 H 182.964 -2.70551 -1.79534 0
M  V30 1906 H 183.975 -5.07252 1.04481 0
M  V30 1907 H 180.652 -3.97104 -1.28899 0
M  V30 1908 H 182.042 -6.44202 1.90929 0
M  V30 1909 N 184.763 -0.387143 -1.52771 0
M  V30 1910 C 186.011 0.195349 -2.01154 0
M  V30 1911 C 186.332 1.475 -1.27549 0
M  V30 1912 O 185.602 1.91878 -0.394924 0
M  V30 1913 H 184.182 0.075178 -0.743207 0
M  V30 1914 H 186.844 -0.518337 -1.87881 0
M  V30 1915 H 185.94 0.407096 -3.09434 0
M  V30 1916 N 186.241 1.57166 -0.116904 0
M  V30 1917 C 187.471 1.99184 0.548586 0
M  V30 1918 C 187.879 0.995436 1.60897 0
M  V30 1919 O 187.222 -0.0201293 1.83689 0
M  V30 1920 C 187.284 3.37611 1.23526 0
M  V30 1921 C 186.948 4.55857 0.323077 0
M  V30 1922 C 187.945 5.18056 -0.437476 0
M  V30 1923 C 185.63 5.01751 0.234761 0
M  V30 1924 C 187.624 6.24536 -1.2741 0
M  V30 1925 C 185.311 6.08093 -0.605496 0
M  V30 1926 C 186.309 6.69352 -1.35856 0
M  V30 1927 O 185.997 7.7364 -2.18487 0
M  V30 1928 H 185.729 0.659148 0.149999 0
M  V30 1929 H 188.283 2.0443 -0.199428 0
M  V30 1930 H 186.513 3.29113 2.0303 0
M  V30 1931 H 188.202 3.63932 1.79745 0
M  V30 1932 H 188.968 4.83516 -0.379105 0
M  V30 1933 H 184.847 4.53817 0.810601 0
M  V30 1934 H 188.391 6.72281 -1.86237 0
M  V30 1935 H 184.288 6.42063 -0.665268 0
M  V30 1936 H 185.056 7.90727 -2.11406 0
M  V30 1937 N 187.719 -0.156864 1.56817 0
M  V30 1938 C 188.965 -0.867645 1.83966 0
M  V30 1939 C 189.32 -1.79233 0.699511 0
M  V30 1940 O 188.613 -1.89186 -0.303176 0
M  V30 1941 C 188.807 -1.68737 3.1506 0
M  V30 1942 C 188.636 -0.843548 4.41718 0
M  V30 1943 C 187.406 -0.512994 5.02689 0
M  V30 1944 C 189.604 -0.178416 5.1399 0
M  V30 1945 N 187.586 0.345456 6.12927 0
M  V30 1946 C 188.957 0.540586 6.17639 0
M  V30 1947 C 191.012 -0.0980696 4.97803 0
M  V30 1948 C 189.715 1.33233 7.06853 0
M  V30 1949 C 191.741 0.680387 5.87473 0
M  V30 1950 C 191.103 1.3877 6.90596 0
M  V30 1951 H 187.202 -0.295642 0.723961 0
M  V30 1952 H 189.786 -0.13365 1.94241 0
M  V30 1953 H 187.957 -2.39268 3.0595 0
M  V30 1954 H 189.689 -2.34056 3.30151 0
M  V30 1955 H 186.444 -0.846476 4.65974 0
M  V30 1956 H 186.868 0.765415 6.72659 0
M  V30 1957 H 191.51 -0.630562 4.18071 0
M  V30 1958 H 189.228 1.87612 7.8602 0
M  V30 1959 H 192.814 0.744415 5.77018 0
M  V30 1960 H 191.694 1.9804 7.58782 0
M  V30 1961 N 189.197 -1.51736 -0.425897 0
M  V30 1962 C 190.16 -1.73271 -1.50032 0
M  V30 1963 C 191.16 -0.602639 -1.4908 0
M  V30 1964 O 192.35 -0.87033 -1.509 0
M  V30 1965 C 189.482 -1.79969 -2.89523 0
M  V30 1966 H 190.675 -2.69172 -1.32237 0
M  V30 1967 H 188.228 -1.41899 -0.65532 0
M  V30 1968 H 188.963 -0.859241 -3.1271 0
M  V30 1969 H 188.748 -2.62109 -2.91619 0
M  V30 1970 H 190.238 -1.9843 -3.67444 0
M  V30 1971 N 190.675 0.682077 -1.42076 0
M  V30 1972 C 192.091 0.994324 -1.24841 0
M  V30 1973 C 192.291 2.0096 -0.147389 0
M  V30 1974 O 191.347 2.47822 0.483782 0
M  V30 1975 C 192.66 1.50607 -2.60265 0
M  V30 1976 C 194.208 1.62421 -2.6756 0
M  V30 1977 C 194.683 2.16994 -4.03333 0
M  V30 1978 N 196.174 2.24337 -4.0525 0
M  V30 1979 C 196.909 2.67621 -5.07116 0
M  V30 1980 N 196.405 3.1041 -6.19368 0
M  V30 1981 N 198.198 2.67305 -4.94474 0
M  V30 1982 H 190.349 0.00973908 -2.12398 0
M  V30 1983 H 192.612 0.0668593 -0.945639 0
M  V30 1984 H 192.318 0.834583 -3.41654 0
M  V30 1985 H 192.192 2.48602 -2.83684 0
M  V30 1986 H 194.579 2.28678 -1.86521 0
M  V30 1987 H 194.66 0.629352 -2.47937 0
M  V30 1988 H 194.304 1.51349 -4.84826 0
M  V30 1989 H 194.234 3.17258 -4.20304 0
M  V30 1990 H 196.725 1.94158 -3.24209 0
M  V30 1991 H 197.038 3.42103 -6.92954 0
M  V30 1992 H 195.383 3.08286 -6.22884 0
M  V30 1993 H 198.574 2.33233 -4.05857 0
M  V30 1994 H 198.747 3.00718 -5.73997 0
M  V30 1995 N 192.153 1.28127 0.917671 0
M  V30 1996 C 193.43 1.05761 1.64542 0
M  V30 1997 C 193.81 -0.404344 2.07191 0
M  V30 1998 O 193.158 -1.38963 1.81388 0
M  V30 1999 C 193.368 2.02857 2.83989 0
M  V30 2000 C 194.716 2.32786 3.551 0
M  V30 2001 O 195.74 2.0091 2.94132 0
M  V30 2002 O 194.599 2.87169 4.64969 0
M  V30 2003 H 191.693 0.403916 0.721652 0
M  V30 2004 H 194.239 1.39431 0.967322 0
M  V30 2005 H 193.011 3.01407 2.49538 0
M  V30 2006 H 192.634 1.69809 3.59514 0
M  V30 2007 N 193.631 -1.12557 1.10312 0
M  V30 2008 C 194.878 -1.84038 0.844759 0
M  V30 2009 C 195.206 -1.84026 -0.629668 0
M  V30 2010 O 194.461 -1.28026 -1.48013 0
M  V30 2011 C 194.76 -3.31462 1.33669 0
M  V30 2012 C 194.426 -3.51647 2.82232 0
M  V30 2013 C 193.088 -3.56864 3.22802 0
M  V30 2014 C 195.44 -3.58867 3.77974 0
M  V30 2015 C 192.768 -3.66844 4.57867 0
M  V30 2016 C 195.12 -3.70375 5.1284 0
M  V30 2017 C 193.784 -3.73848 5.52986 0
M  V30 2018 H 193.054 -0.673444 0.309119 0
M  V30 2019 H 195.701 -1.32824 1.37949 0
M  V30 2020 H 194.006 -3.85091 0.721949 0
M  V30 2021 H 195.703 -3.85236 1.11329 0
M  V30 2022 H 192.293 -3.48249 2.49842 0
M  V30 2023 H 196.477 -3.54107 3.47738 0
M  V30 2024 H 191.733 -3.67804 4.88396 0
M  V30 2025 H 195.907 -3.74904 5.86873 0
M  V30 2026 H 193.534 -3.81333 6.57639 0
M  V30 2027 N 195.109 -0.891671 -1.2995 0
M  V30 2028 C 196.056 -0.361736 -2.27948 0
M  V30 2029 C 197.026 0.551761 -1.56668 0
M  V30 2030 O 198.211 0.478736 -1.84696 0
M  V30 2031 C 195.351 0.411825 -3.42634 0
M  V30 2032 C 194.464 -0.531651 -4.28716 0
M  V30 2033 C 193.599 0.258167 -5.30572 0
M  V30 2034 C 192.638 -0.680349 -6.08307 0
M  V30 2035 N 191.775 0.0745613 -7.0206 0
M  V30 2036 H 196.615 -1.20254 -2.72659 0
M  V30 2037 H 194.152 -0.604352 -1.34112 0
M  V30 2038 H 196.11 0.876304 -4.07893 0
M  V30 2039 H 194.74 1.21715 -2.98974 0
M  V30 2040 H 193.792 -1.11463 -3.63703 0
M  V30 2041 H 195.104 -1.25038 -4.82874 0
M  V30 2042 H 194.258 0.784204 -6.0161 0
M  V30 2043 H 192.997 1.01008 -4.77126 0
M  V30 2044 H 192.002 -1.21796 -5.3614 0
M  V30 2045 H 193.227 -1.43145 -6.63842 0
M  V30 2046 H 191.173 0.808883 -6.50994 0
M  V30 2047 H 191.09 -0.584409 -7.53738 0
M  V30 2048 H 192.358 0.581123 -7.77331 0
M  V30 2049 N 196.587 1.43421 -0.653314 0
M  V30 2050 C 197.534 2.30768 0.0382271 0
M  V30 2051 C 198.504 1.44755 0.814576 0
M  V30 2052 O 199.689 1.73624 0.791162 0
M  V30 2053 C 196.829 3.30336 0.998599 0
M  V30 2054 C 195.942 4.31448 0.218342 0
M  V30 2055 C 195.077 5.18098 1.17252 0
M  V30 2056 C 194.116 6.10902 0.382702 0
M  V30 2057 N 193.253 6.90176 1.28848 0
M  V30 2058 H 198.093 2.89357 -0.712511 0
M  V30 2059 H 195.63 1.42548 -0.363128 0
M  V30 2060 H 197.588 3.86572 1.56901 0
M  V30 2061 H 196.218 2.73397 1.71621 0
M  V30 2062 H 195.27 3.77506 -0.46836 0
M  V30 2063 H 196.582 4.97227 -0.395812 0
M  V30 2064 H 195.736 5.7896 1.81356 0
M  V30 2065 H 194.475 4.52444 1.82058 0
M  V30 2066 H 193.48 5.49128 -0.27169 0
M  V30 2067 H 194.705 6.78598 -0.260957 0
M  V30 2068 H 192.651 6.27171 1.92334 0
M  V30 2069 H 192.568 7.52478 0.728887 0
M  V30 2070 H 193.836 7.55543 1.91766 0
M  V30 2071 N 198.065 0.39524 1.52563 0
M  V30 2072 C 199.293 -0.184943 2.06072 0
M  V30 2073 C 199.708 -1.40021 1.26647 0
M  V30 2074 O 199.065 -1.79767 0.314672 0
M  V30 2075 C 199.116 -0.549179 3.57304 0
M  V30 2076 O 198.837 0.617813 4.33722 0
M  V30 2077 C 200.338 -1.18459 4.2718 0
M  V30 2078 H 197.558 -0.0265025 0.670476 0
M  V30 2079 H 200.102 0.562184 1.96621 0
M  V30 2080 H 198.257 -1.2462 3.66809 0
M  V30 2081 H 198.671 0.317091 5.23541 0
M  V30 2082 H 200.145 -1.38976 5.34219 0
M  V30 2083 H 200.622 -2.15368 3.82771 0
M  V30 2084 H 201.228 -0.528163 4.22008 0
M  V30 2085 N 199.544 -1.57102 0.125237 0
M  V30 2086 C 200.492 -2.16905 -0.839927 0
M  V30 2087 C 201.486 -1.11998 -1.27094 0
M  V30 2088 O 202.692 -1.3029 -1.24195 0
M  V30 2089 H 199.067 -0.694252 -0.288995 0
M  V30 2090 H 201.038 -2.96774 -0.311115 0
M  V30 2091 C 199.787 -2.78795 -2.07771 0
M  V30 2092 H 199.11 -3.59221 -1.755 0
M  V30 2093 H 200.55 -3.2417 -2.73295 0
M  V30 2094 C 199.009 -1.76193 -2.87155 0
M  V30 2095 O 199.539 -1.21909 -3.82755 0
M  V30 2096 N 197.745 -1.45991 -2.51267 0
M  V30 2097 H 197.292 -1.90325 -1.73592 0
M  V30 2098 H 197.25 -0.775844 -3.04677 0
M  V30 2099 N 201.022 0.148545 -1.56898 0
M  V30 2100 C 202.433 0.708766 -1.72723 0
M  V30 2101 C 202.784 1.81734 -0.739395 0
M  V30 2102 O 201.909 2.16194 0.0943169 0
M  V30 2103 C 202.504 1.29245 -3.13179 0
M  V30 2104 C 201.063 1.79925 -3.30611 0
M  V30 2105 C 200.21 0.687111 -2.68652 0
M  V30 2106 H 203.161 -0.0771063 -1.58513 0
M  V30 2107 H 203.182 2.16224 -3.13093 0
M  V30 2108 H 202.694 0.485382 -3.85053 0
M  V30 2109 H 200.795 2.63203 -2.63732 0
M  V30 2110 H 200.908 1.92903 -4.38549 0
M  V30 2111 H 199.272 1.11335 -2.29078 0
M  V30 2112 H 200.055 -0.108483 -3.43129 0
M  V30 2113 N 202.5 1.5196 0.417844 0
M  V30 2114 C 203.463 1.74065 1.49111 0
M  V30 2115 C 204.463 0.610537 1.48758 0
M  V30 2116 O 205.653 0.87832 1.50437 0
M  V30 2117 C 202.785 1.81502 2.88565 0
M  V30 2118 H 203.978 2.69869 1.30807 0
M  V30 2119 H 201.531 1.42244 0.647785 0
M  V30 2120 H 202.266 0.875813 3.1225 0
M  V30 2121 H 202.051 2.63651 2.90225 0
M  V30 2122 H 203.541 2.00376 3.66387 0
M  V30 2123 N 203.978 -0.674533 1.42435 0
M  V30 2124 C 205.208 -1.46071 1.46105 0
M  V30 2125 C 205.616 -1.89067 0.0709605 0
M  V30 2126 O 204.959 -1.58731 -0.924677 0
M  V30 2127 C 205.021 -2.74145 2.32561 0
M  V30 2128 C 204.685 -2.53224 3.8043 0
M  V30 2129 C 205.682 -2.17809 4.72075 0
M  V30 2130 C 203.367 -2.6821 4.24698 0
M  V30 2131 C 205.361 -1.97648 6.05982 0
M  V30 2132 C 203.048 -2.47665 5.58664 0
M  V30 2133 C 204.046 -2.12437 6.49122 0
M  V30 2134 O 203.734 -1.9209 7.80613 0
M  V30 2135 H 203.466 -0.455959 0.499076 0
M  V30 2136 H 206.02 -0.836193 1.87609 0
M  V30 2137 H 204.25 -3.3908 1.85908 0
M  V30 2138 H 205.939 -3.36028 2.27683 0
M  V30 2139 H 206.705 -2.05826 4.39159 0
M  V30 2140 H 202.584 -2.94609 3.54579 0
M  V30 2141 H 206.128 -1.70075 6.7655 0
M  V30 2142 H 202.025 -2.59244 5.91154 0
M  V30 2143 H 202.793 -2.06686 7.91974 0
M  V30 2144 N 205.456 -1.28612 -0.910864 0
M  V30 2145 C 206.704 -1.15705 -1.65701 0
M  V30 2146 C 207.025 0.29416 -1.92769 0
M  V30 2147 O 206.295 1.20331 -1.54588 0
M  V30 2148 H 204.875 -0.425216 -0.614167 0
M  V30 2149 H 207.537 -1.61381 -1.0928 0
M  V30 2150 H 206.633 -1.6988 -2.61815 0
M  V30 2151 N 206.934 1.1197 -1.10907 0
M  V30 2152 C 208.162 1.87402 -0.876824 0
M  V30 2153 C 208.577 1.79894 0.573025 0
M  V30 2154 O 207.934 1.17629 1.39534 0
M  V30 2155 C 207.985 3.36428 -1.32282 0
M  V30 2156 O 207.706 3.43765 -2.71582 0
M  V30 2157 C 209.207 4.28783 -1.12518 0
M  V30 2158 H 206.427 0.592793 -0.314384 0
M  V30 2159 H 208.971 1.41649 -1.47499 0
M  V30 2160 H 207.126 3.79706 -0.768229 0
M  V30 2161 H 207.54 4.3652 -2.90776 0
M  V30 2162 H 209.014 5.31613 -1.48633 0
M  V30 2163 H 209.491 4.39153 -0.0642394 0
M  V30 2164 H 210.097 3.91291 -1.66648 0
M  V30 2165 N 208.412 0.89855 1.29475 0
M  V30 2166 C 209.345 0.319981 2.25945 0
M  V30 2167 C 210.323 -0.567189 1.52387 0
M  V30 2168 O 211.507 -0.514254 1.8135 0
M  V30 2169 C 208.634 -0.544013 3.34303 0
M  V30 2170 C 207.68 0.275682 4.25608 0
M  V30 2171 S 208.513 1.67272 5.08704 0
M  V30 2172 C 209.669 0.815621 6.20563 0
M  V30 2173 H 209.902 1.13767 2.74671 0
M  V30 2174 H 207.435 0.69882 1.3768 0
M  V30 2175 H 209.393 -1.03673 3.97193 0
M  V30 2176 H 208.054 -1.33593 2.84274 0
M  V30 2177 H 207.247 -0.384263 5.02533 0
M  V30 2178 H 206.849 0.701496 3.67362 0
M  V30 2179 H 209.141 0.0385042 6.77489 0
M  V30 2180 H 210.084 1.55691 6.90772 0
M  V30 2181 H 210.492 0.370516 5.63283 0
M  V30 2182 N 209.89 -1.43072 0.660911 0
M  V30 2183 C 210.822 -2.29108 -0.0647641 0
M  V30 2184 C 211.835 -1.42928 -0.779448 0
M  V30 2185 O 213.024 -1.66788 -0.635921 0
M  V30 2186 C 210.124 -3.20032 -1.11503 0
M  V30 2187 C 209.297 -4.34792 -0.476955 0
M  V30 2188 C 208.356 -5.06534 -1.42513 0
M  V30 2189 O 207.382 -5.61538 -0.930771 0
M  V30 2190 N 208.584 -5.1075 -2.75889 0
M  V30 2191 H 211.349 -2.92029 0.673731 0
M  V30 2192 H 208.91 -1.53846 0.50427 0
M  V30 2193 H 210.902 -3.64892 -1.75032 0
M  V30 2194 H 209.472 -2.58658 -1.75541 0
M  V30 2195 H 208.692 -3.92752 0.337572 0
M  V30 2196 H 209.98 -5.0879 -0.0318525 0
M  V30 2197 H 209.378 -4.67447 -3.18606 0
M  V30 2198 H 207.935 -5.59302 -3.347 0
M  V30 2199 N 211.368 -0.403325 -1.52352 0
M  V30 2200 C 212.645 0.232611 -1.94212 0
M  V30 2201 C 213.025 1.63133 -1.33981 0
M  V30 2202 O 212.373 2.22659 -0.513344 0
M  V30 2203 C 212.583 0.244811 -3.4814 0
M  V30 2204 C 213.931 0.46698 -4.22024 0
M  V30 2205 O 214.955 0.324419 -3.5472 0
M  V30 2206 O 213.814 0.74747 -5.41364 0
M  V30 2207 H 210.908 0.148223 -0.813609 0
M  V30 2208 H 213.454 -0.458848 -1.63379 0
M  V30 2209 H 212.226 -0.734378 -3.84347 0
M  V30 2210 H 211.849 0.980611 -3.85318 0
M  V30 2211 N 212.846 1.57033 -0.133567 0
M  V30 2212 C 214.093 1.95686 0.520877 0
M  V30 2213 C 214.421 1.0177 1.6575 0
M  V30 2214 O 213.676 0.0443195 1.9565 0
M  V30 2215 C 213.975 3.40674 1.08057 0
M  V30 2216 C 213.641 4.50855 0.0637899 0
M  V30 2217 C 212.303 4.80716 -0.215757 0
M  V30 2218 C 214.655 5.17398 -0.62835 0
M  V30 2219 C 211.983 5.74433 -1.19348 0
M  V30 2220 C 214.335 6.12167 -1.5948 0
M  V30 2221 C 212.999 6.40414 -1.88218 0
M  V30 2222 H 212.269 0.716067 0.190602 0
M  V30 2223 H 214.916 1.9026 -0.217556 0
M  V30 2224 H 213.221 3.42865 1.89606 0
M  V30 2225 H 214.918 3.67902 1.59529 0
M  V30 2226 H 211.508 4.27605 0.291855 0
M  V30 2227 H 215.692 4.94472 -0.425562 0
M  V30 2228 H 210.948 5.94616 -1.42272 0
M  V30 2229 H 215.122 6.6281 -2.13671 0
M  V30 2230 H 212.749 7.12838 -2.64133 0
M  V30 2231 N 214.325 -0.140222 1.56975 0
M  V30 2232 C 215.272 -1.17292 1.98774 0
M  V30 2233 C 216.242 -1.4232 0.856408 0
M  V30 2234 O 217.427 -1.54541 1.119 0
M  V30 2235 C 214.567 -2.49973 2.37923 0
M  V30 2236 C 213.68 -2.32062 3.64378 0
M  V30 2237 C 212.815 -3.57825 3.926 0
M  V30 2238 C 211.854 -3.3498 5.12303 0
M  V30 2239 N 210.991 -4.52891 5.36502 0
M  V30 2240 H 215.831 -0.809472 2.86795 0
M  V30 2241 H 213.368 -0.388237 1.41884 0
M  V30 2242 H 215.326 -3.27346 2.58652 0
M  V30 2243 H 213.956 -2.84252 1.52972 0
M  V30 2244 H 213.008 -1.45711 3.51387 0
M  V30 2245 H 214.32 -2.11145 4.51906 0
M  V30 2246 H 213.474 -4.43624 4.13863 0
M  V30 2247 H 212.213 -3.81753 3.03506 0
M  V30 2248 H 211.218 -2.4757 4.90906 0
M  V30 2249 H 212.443 -3.12444 6.02956 0
M  V30 2250 H 210.389 -4.76979 4.50363 0
M  V30 2251 H 210.306 -4.35001 6.18312 0
M  V30 2252 H 211.574 -5.39884 5.62268 0
M  V30 2253 N 215.803 -1.52179 -0.40978 0
M  V30 2254 C 216.751 -1.76086 -1.51975 0
M  V30 2255 C 217.745 -0.627964 -1.57331 0
M  V30 2256 O 218.951 -0.809993 -1.60745 0
M  V30 2257 H 215.326 -0.556829 -0.505416 0
M  V30 2258 H 217.297 -2.69077 -1.28996 0
M  V30 2259 C 216.046 -1.92799 -2.8935 0
M  V30 2260 H 215.369 -2.79392 -2.85972 0
M  V30 2261 H 216.809 -2.13527 -3.66309 0
M  V30 2262 C 215.268 -0.694923 -3.29655 0
M  V30 2263 O 215.798 0.13751 -4.01465 0
M  V30 2264 N 214.004 -0.53101 -2.85707 0
M  V30 2265 H 213.551 -1.20952 -2.27439 0
M  V30 2266 H 213.509 0.292718 -3.13034 0
M  V30 2267 N 217.281 0.66697 -1.42791 0
M  V30 2268 C 218.211 1.79218 -1.49677 0
M  V30 2269 C 219.192 1.66405 -0.352623 0
M  V30 2270 O 220.377 1.85708 -0.567993 0
M  V30 2271 C 217.507 3.17565 -1.40605 0
M  V30 2272 C 216.461 3.45124 -2.53127 0
M  V30 2273 C 215.787 4.83127 -2.29112 0
M  V30 2274 C 217.087 3.41236 -3.95418 0
M  V30 2275 H 218.781 1.73713 -2.43853 0
M  V30 2276 H 216.327 0.83432 -1.17367 0
M  V30 2277 H 218.28 3.96022 -1.44029 0
M  V30 2278 H 217.004 3.23767 -0.429271 0
M  V30 2279 H 215.663 2.69031 -2.49034 0
M  V30 2280 H 215.311 4.85988 -1.29709 0
M  V30 2281 H 215.011 5.02528 -3.04531 0
M  V30 2282 H 216.535 5.63859 -2.34297 0
M  V30 2283 H 217.949 4.09651 -4.01073 0
M  V30 2284 H 216.346 3.72173 -4.70752 0
M  V30 2285 H 217.416 2.39665 -4.21532 0
M  V30 2286 N 218.759 1.29093 0.90403 0
M  V30 2287 C 220.008 1.16187 1.64874 0
M  V30 2288 C 220.321 -0.286742 1.93487 0
M  V30 2289 O 221.527 -0.537062 2.66135 0
M  V30 2290 C 219.983 2.03177 2.97064 0
M  V30 2291 C 219.591 3.52836 2.76062 0
M  V30 2292 C 221.335 1.98984 3.74974 0
M  V30 2293 C 219.242 4.31945 4.03952 0
M  V30 2294 H 218.172 0.431246 0.618501 0
M  V30 2295 H 220.823 1.53699 1.00243 0
M  V30 2296 H 219.205 1.5853 3.62883 0
M  V30 2297 H 220.379 4.05507 2.18863 0
M  V30 2298 H 218.694 3.58656 2.11553 0
M  V30 2299 H 221.291 2.55351 4.69787 0
M  V30 2300 H 221.634 0.968815 4.0487 0
M  V30 2301 H 222.167 2.41652 3.15989 0
M  V30 2302 H 218.906 5.34667 3.79225 0
M  V30 2303 H 218.426 3.84045 4.60727 0
M  V30 2304 H 220.105 4.42379 4.72133 0
M  V30 2305 N 220.237 -1.11381 1.11499 0
M  V30 2306 C 221.514 -1.7955 0.775965 0
M  V30 2307 C 221.894 -1.97859 -0.73588 0
M  V30 2308 O 221.242 -1.56376 -1.66609 0
M  V30 2309 C 221.452 -3.13196 1.53977 0
M  V30 2310 C 222.8 -3.88227 1.71944 0
M  V30 2311 O 223.824 -3.22887 1.50407 0
M  V30 2312 O 222.683 -5.05477 2.07738 0
M  V30 2313 H 219.777 -0.777728 0.28119 0
M  V30 2314 H 222.323 -1.18118 1.21845 0
M  V30 2315 H 221.095 -2.95229 2.56818 0
M  V30 2316 H 220.718 -3.82342 1.09088 0
M  V30 2317 N 221.715 -0.905404 -1.28997 0
M  V30 2318 C 222.943 -0.549846 -1.9946 0
M  V30 2319 C 223.358 0.866834 -1.67724 0
M  V30 2320 O 222.715 1.57298 -0.925404 0
M  V30 2321 C 222.766 -0.739387 -3.53858 0
M  V30 2322 O 222.487 -2.10031 -3.84472 0
M  V30 2323 C 223.988 -0.389541 -4.41585 0
M  V30 2324 H 221.208 -0.210429 -0.637151 0
M  V30 2325 H 223.752 -1.21632 -1.64396 0
M  V30 2326 H 221.907 -0.120023 -3.87214 0
M  V30 2327 H 222.321 -2.13385 -4.79132 0
M  V30 2328 H 223.795 -0.572972 -5.49018 0
M  V30 2329 H 224.272 0.673756 -4.34001 0
M  V30 2330 H 224.878 -0.986089 -4.1371 0
M  V30 2331 N 223.193 1.4272 -0.668489 0
M  V30 2332 C 224.156 2.292 0.00448567 0
M  V30 2333 C 225.156 1.43001 0.735339 0
M  V30 2334 O 226.346 1.64461 0.57429 0
M  V30 2335 C 223.478 3.25375 1.01705 0
M  V30 2336 H 224.671 2.90199 -0.756608 0
M  V30 2337 H 222.224 1.50254 -0.430506 0
M  V30 2338 H 222.959 2.69301 1.80686 0
M  V30 2339 H 222.744 3.88944 0.496463 0
M  V30 2340 H 224.234 3.90245 1.48655 0
M  V30 2341 N 224.671 0.411399 1.52136 0
M  V30 2342 C 225.621 -0.430376 2.23901 0
M  V30 2343 C 226.605 -1.0116 1.25121 0
M  V30 2344 O 227.797 -0.934044 1.50348 0
M  V30 2345 C 224.926 -1.54527 3.06556 0
M  V30 2346 C 224.012 -0.9747 4.12747 0
M  V30 2347 N 224.403 -0.130991 5.0563 0
M  V30 2348 C 222.701 -1.24497 4.28271 0
M  V30 2349 C 223.402 0.186689 5.814 0
M  V30 2350 N 222.378 -0.42304 5.41951 0
M  V30 2351 H 226.18 0.220509 2.93072 0
M  V30 2352 H 223.694 0.221952 1.60876 0
M  V30 2353 H 225.691 -2.16093 3.56524 0
M  V30 2354 H 224.351 -2.19875 2.38925 0
M  V30 2355 H 225.362 0.23349 5.17373 0
M  V30 2356 H 222.039 -1.89787 3.7187 0
M  V30 2357 H 223.429 0.871673 6.66222 0
M  V30 2358 N 226.149 -1.5696 0.141893 0
M  V30 2359 C 227.112 -2.15316 -0.785587 0
M  V30 2360 C 228.112 -1.09366 -1.1788 0
M  V30 2361 O 229.302 -1.35031 -1.10056 0
M  V30 2362 C 226.434 -2.71211 -2.06537 0
M  V30 2363 H 227.627 -2.98608 -0.278041 0
M  V30 2364 H 225.18 -1.5593 -0.107519 0
M  V30 2365 H 225.915 -1.91571 -2.6167 0
M  V30 2366 H 225.7 -3.4872 -1.79268 0
M  V30 2367 H 227.19 -3.16189 -2.72789 0
M  V30 2368 N 227.627 0.131896 -1.57047 0
M  V30 2369 C 228.577 1.1679 -1.95816 0
M  V30 2370 C 229.561 1.37756 -0.831393 0
M  V30 2371 O 230.753 1.39065 -1.09499 0
M  V30 2372 C 227.882 2.49778 -2.35512 0
M  V30 2373 C 226.968 2.32342 -3.54793 0
M  V30 2374 N 227.359 1.8469 -4.70875 0
M  V30 2375 C 225.657 2.63043 -3.60173 0
M  V30 2376 C 226.358 1.80656 -5.52936 0
M  V30 2377 N 225.334 2.24528 -4.95064 0
M  V30 2378 H 229.136 0.791818 -2.83033 0
M  V30 2379 H 226.65 0.339791 -1.58805 0
M  V30 2380 H 228.647 3.24692 -2.61498 0
M  V30 2381 H 227.307 2.88156 -1.49654 0
M  V30 2382 H 228.318 1.54429 -4.9434 0
M  V30 2383 H 224.995 3.05193 -2.84892 0
M  V30 2384 H 226.385 1.45178 -6.56028 0
M  V30 2385 N 229.106 1.52395 0.401703 0
M  V30 2386 C 230.054 1.7689 1.51039 0
M  V30 2387 C 231.048 0.636298 1.56996 0
M  V30 2388 O 232.254 0.818507 1.60314 0
M  V30 2389 H 228.629 0.559502 0.502456 0
M  V30 2390 H 230.6 2.69757 1.27568 0
M  V30 2391 C 229.349 1.94331 2.88324 0
M  V30 2392 H 228.672 2.80905 2.84486 0
M  V30 2393 H 230.112 2.15466 3.65172 0
M  V30 2394 C 228.571 0.712396 3.29282 0
M  V30 2395 O 229.101 -0.116218 4.01532 0
M  V30 2396 N 227.307 0.546154 2.85422 0
M  V30 2397 H 226.854 1.22156 2.26794 0
M  V30 2398 H 226.812 -0.276113 3.13185 0
M  V30 2399 N 230.584 -0.659388 1.43143 0
M  V30 2400 C 231.833 -1.41518 1.43721 0
M  V30 2401 C 232.146 -1.95499 0.0628176 0
M  V30 2402 O 233.352 -2.71446 -0.0539683 0
M  V30 2403 C 231.808 -2.5608 2.52885 0
M  V30 2404 C 231.416 -2.08733 3.96402 0
M  V30 2405 C 233.16 -3.3349 2.62649 0
M  V30 2406 C 231.067 -3.20469 4.97045 0
M  V30 2407 H 229.997 -0.531705 0.534608 0
M  V30 2408 H 232.648 -0.712343 1.69109 0
M  V30 2409 H 231.03 -3.28805 2.20688 0
M  V30 2410 H 232.204 -1.43059 4.3803 0
M  V30 2411 H 230.519 -1.44219 3.90627 0
M  V30 2412 H 233.116 -4.16734 3.35017 0
M  V30 2413 H 233.459 -3.8111 1.67513 0
M  V30 2414 H 233.992 -2.67842 2.94118 0
M  V30 2415 H 230.731 -2.77824 5.93712 0
M  V30 2416 H 230.251 -3.84874 4.60034 0
M  V30 2417 H 231.93 -3.85698 5.19467 0
M  V30 2418 N 232.062 -1.29571 -0.897171 0
M  V30 2419 C 233.009 -1.14916 -2.00158 0
M  V30 2420 C 233.979 -0.0418149 -1.66047 0
M  V30 2421 O 235.164 -0.209793 -1.89643 0
M  V30 2422 C 232.304 -0.834307 -3.34863 0
M  V30 2423 C 231.417 -2.02234 -3.8174 0
M  V30 2424 C 230.552 -1.64664 -5.05034 0
M  V30 2425 C 229.591 -2.80033 -5.44286 0
M  V30 2426 N 228.728 -2.42843 -6.58765 0
M  V30 2427 H 233.568 -2.09403 -2.12025 0
M  V30 2428 H 231.105 -1.042 -1.0383 0
M  V30 2429 H 233.063 -0.632436 -4.12379 0
M  V30 2430 H 231.693 0.0736656 -3.22716 0
M  V30 2431 H 230.745 -2.33583 -3.00238 0
M  V30 2432 H 232.057 -2.88673 -4.06779 0
M  V30 2433 H 231.211 -1.4078 -5.9014 0
M  V30 2434 H 229.95 -0.753766 -4.8184 0
M  V30 2435 H 228.955 -3.04596 -4.57713 0
M  V30 2436 H 230.18 -3.69989 -5.6946 0
M  V30 2437 H 228.126 -1.56046 -6.3717 0
M  V30 2438 H 228.043 -3.22815 -6.83613 0
M  V30 2439 H 229.311 -2.22285 -7.47134 0
M  V30 2440 N 233.54 1.10788 -1.12088 0
M  V30 2441 C 234.786 1.82942 -0.875226 0
M  V30 2442 C 235.119 1.84779 0.597538 0
M  V30 2443 O 234.394 1.30578 1.44152 0
M  V30 2444 C 234.677 3.29789 -1.44606 0
M  V30 2445 C 234.53 3.36307 -2.98693 0
M  V30 2446 C 235.849 4.26064 -1.10261 0
M  V30 2447 H 232.968 0.664195 -0.319397 0
M  V30 2448 H 235.61 1.29867 -1.38689 0
M  V30 2449 H 233.76 3.75118 -1.01089 0
M  V30 2450 H 235.432 2.99487 -3.50864 0
M  V30 2451 H 233.675 2.76318 -3.34411 0
M  V30 2452 H 234.346 4.39694 -3.33726 0
M  V30 2453 H 236.822 3.88951 -1.4784 0
M  V30 2454 H 235.698 5.27183 -1.52869 0
M  V30 2455 H 235.959 4.42098 -0.0142953 0
M  V30 2456 N 235.018 0.912232 1.28515 0
M  V30 2457 C 236.267 0.540504 1.94323 0
M  V30 2458 C 236.58 -0.920044 1.72611 0
M  V30 2459 O 237.786 -1.39986 2.32629 0
M  V30 2460 C 236.242 0.915803 3.48053 0
M  V30 2461 C 235.85 2.39598 3.78546 0
M  V30 2462 C 237.594 0.614588 4.20027 0
M  V30 2463 C 235.501 2.71148 5.25578 0
M  V30 2464 H 234.431 0.198418 0.727424 0
M  V30 2465 H 237.082 1.11094 1.46049 0
M  V30 2466 H 235.464 0.274168 3.9505 0
M  V30 2467 H 236.638 3.08422 3.42364 0
M  V30 2468 H 234.953 2.66749 3.1974 0
M  V30 2469 H 237.55 0.827002 5.28266 0
M  V30 2470 H 237.893 -0.447531 4.13887 0
M  V30 2471 H 238.426 1.21462 3.78803 0
M  V30 2472 H 235.165 3.76207 5.36794 0
M  V30 2473 H 234.685 2.0696 5.62963 0
M  V30 2474 H 236.364 2.58072 5.93302 0
M  V30 2475 N 236.496 -1.42363 0.676048 0
M  V30 2476 C 237.745 -2.00745 0.196037 0
M  V30 2477 C 238.058 -1.54083 -1.20489 0
M  V30 2478 O 239.264 -2.04891 -1.78134 0
M  V30 2479 C 237.72 -3.58651 0.299616 0
M  V30 2480 C 237.328 -4.143 1.70468 0
M  V30 2481 C 239.072 -4.24326 -0.121619 0
M  V30 2482 C 236.979 -5.64574 1.76096 0
M  V30 2483 H 235.909 -0.750787 0.0695301 0
M  V30 2484 H 238.56 -1.63072 0.841412 0
M  V30 2485 H 236.942 -3.93833 -0.413673 0
M  V30 2486 H 238.116 -3.90575 2.44515 0
M  V30 2487 H 236.431 -3.61081 2.07387 0
M  V30 2488 H 239.028 -5.34607 -0.0997362 0
M  V30 2489 H 239.371 -3.99897 -1.15708 0
M  V30 2490 H 239.904 -3.94108 0.540706 0
M  V30 2491 H 236.643 -5.93804 2.77628 0
M  V30 2492 H 236.163 -5.90286 1.06406 0
M  V30 2493 H 237.842 -6.29013 1.51496 0
M  V30 2494 N 237.974 -0.419461 -1.51915 0
M  V30 2495 C 239.251 0.211999 -1.94448 0
M  V30 2496 C 239.631 1.61703 -1.35703 0
M  V30 2497 O 238.979 2.22102 -0.536931 0
M  V30 2498 C 239.189 0.207872 -3.4838 0
M  V30 2499 C 240.537 0.422192 -4.22496 0
M  V30 2500 O 241.561 0.286778 -3.55044 0
M  V30 2501 O 240.42 0.690009 -5.42126 0
M  V30 2502 H 237.514 0.139586 -0.815135 0
M  V30 2503 H 240.06 -0.476151 -1.62883 0
M  V30 2504 H 238.832 -0.775102 -3.83546 0
M  V30 2505 H 238.455 0.939688 -3.86336 0
M  V30 2506 N 239.452 1.56882 -0.150215 0
M  V30 2507 C 240.699 1.96228 0.500093 0
M  V30 2508 C 241.027 1.03522 1.64661 0
M  V30 2509 O 240.282 0.0650683 1.95592 0
M  V30 2510 C 240.581 3.41801 1.04437 0
M  V30 2511 C 240.247 4.50897 0.0159671 0
M  V30 2512 C 238.909 4.8046 -0.266731 0
M  V30 2513 C 241.261 5.16703 -0.683192 0
M  V30 2514 C 238.589 5.73135 -1.25434 0
M  V30 2515 C 240.941 6.10441 -1.65964 0
M  V30 2516 C 239.605 6.38382 -1.95 0
M  V30 2517 H 238.875 0.718048 0.182997 0
M  V30 2518 H 241.522 1.90019 -0.237724 0
M  V30 2519 H 239.827 3.44857 1.85959 0
M  V30 2520 H 241.524 3.69573 1.55618 0
M  V30 2521 H 238.114 4.27891 0.246485 0
M  V30 2522 H 242.298 4.93993 -0.477983 0
M  V30 2523 H 237.554 5.93074 -1.48571 0
M  V30 2524 H 241.728 6.60507 -2.20689 0
M  V30 2525 H 239.355 7.09996 -2.71679 0
M  V30 2526 N 240.93 -0.123565 1.57115 0
M  V30 2527 C 241.893 -1.13583 1.99076 0
M  V30 2528 C 242.893 -1.34564 0.880296 0
M  V30 2529 O 244.083 -1.31158 1.14644 0
M  V30 2530 C 241.215 -2.49128 2.32698 0
M  V30 2531 H 242.408 -0.775287 2.89706 0
M  V30 2532 H 239.961 -0.36771 1.51913 0
M  V30 2533 H 240.696 -2.90111 1.44934 0
M  V30 2534 H 240.481 -2.35255 3.13684 0
M  V30 2535 H 241.971 -3.2199 2.65918 0
M  V30 2536 N 242.408 -1.52605 -0.393616 0
M  V30 2537 C 243.819 -1.59417 -0.971761 0
M  V30 2538 C 244.17 -0.444173 -1.91106 0
M  V30 2539 O 243.295 0.433382 -2.12016 0
M  V30 2540 C 243.89 -2.88936 -1.76921 0
M  V30 2541 C 242.449 -2.98175 -2.29714 0
M  V30 2542 C 241.596 -2.54491 -1.10135 0
M  V30 2543 H 244.547 -1.57751 -0.173317 0
M  V30 2544 H 244.568 -2.75163 -2.62804 0
M  V30 2545 H 244.08 -3.72616 -1.08532 0
M  V30 2546 H 242.181 -2.19024 -3.01429 0
M  V30 2547 H 242.294 -4.02726 -2.59517 0
M  V30 2548 H 240.658 -2.08702 -1.45999 0
M  V30 2549 H 241.441 -3.4056 -0.432874 0
M  V30 2550 N 243.887 0.651787 -1.4349 0
M  V30 2551 C 244.835 1.78586 -1.49029 0
M  V30 2552 C 245.829 1.65448 -0.363767 0
M  V30 2553 O 247.035 1.71777 -0.537821 0
M  V30 2554 H 243.41 0.589236 -0.467231 0
M  V30 2555 H 245.381 1.71035 -2.44519 0
M  V30 2556 C 244.13 3.16851 -1.43181 0
M  V30 2557 H 243.453 3.27598 -2.29171 0
M  V30 2558 H 244.893 3.96156 -1.51118 0
M  V30 2559 C 243.352 3.36568 -0.149616 0
M  V30 2560 O 243.882 3.93885 0.788509 0
M  V30 2561 N 242.088 2.90539 -0.0593484 0
M  V30 2562 H 241.635 2.4408 -0.823575 0
M  V30 2563 H 241.593 3.04108 0.797853 0
M  V30 2564 N 245.365 1.30045 0.890287 0
M  V30 2565 C 246.315 1.12592 1.9826 0
M  V30 2566 C 247.299 0.0426021 1.60844 0
M  V30 2567 O 248.491 0.265346 1.75 0
M  V30 2568 C 245.62 0.814301 3.33503 0
M  V30 2569 C 244.706 1.93761 3.7725 0
M  V30 2570 N 245.097 3.18232 3.93143 0
M  V30 2571 C 243.395 1.83277 4.06602 0
M  V30 2572 C 244.096 3.9158 4.30163 0
M  V30 2573 N 243.072 3.19591 4.3973 0
M  V30 2574 H 246.874 2.07003 2.08631 0
M  V30 2575 H 244.388 1.21307 1.07974 0
M  V30 2576 H 246.385 0.67029 4.11476 0
M  V30 2577 H 245.045 -0.121797 3.24471 0
M  V30 2578 H 246.056 3.53581 3.78419 0
M  V30 2579 H 242.733 0.97001 4.06075 0
M  V30 2580 H 244.123 4.98744 4.50226 0
M  V30 2581 N 246.843 -1.10192 1.12674 0
M  V30 2582 C 248.071 -1.85983 0.906527 0
M  V30 2583 C 248.486 -1.80783 -0.544333 0
M  V30 2584 O 247.843 -1.19834 -1.37645 0
M  V30 2585 C 247.894 -3.34281 1.37618 0
M  V30 2586 O 247.615 -3.39401 2.77017 0
M  V30 2587 C 249.116 -4.26938 1.19325 0
M  V30 2588 H 246.336 -0.587716 0.323775 0
M  V30 2589 H 248.88 -1.39284 1.49734 0
M  V30 2590 H 247.035 -3.78436 0.828539 0
M  V30 2591 H 247.449 -4.31838 2.97684 0
M  V30 2592 H 248.923 -5.29181 1.57071 0
M  V30 2593 H 249.4 -4.38995 0.134097 0
M  V30 2594 H 250.006 -3.8859 1.72852 0
M  V30 2595 N 248.321 -0.919034 -1.28029 0
M  V30 2596 C 249.546 -0.570357 -1.99403 0
M  V30 2597 C 249.971 0.842486 -1.68178 0
M  V30 2598 O 249.329 1.56391 -0.917141 0
M  V30 2599 C 249.377 -0.792541 -3.51783 0
M  V30 2600 O 248.481 0.145988 -4.12142 0
M  V30 2601 H 247.822 -0.220555 -0.6263 0
M  V30 2602 H 250.352 -1.23592 -1.63053 0
M  V30 2603 H 250.362 -0.704708 -4.01868 0
M  V30 2604 H 249.037 -1.82247 -3.73844 0
M  V30 2605 H 247.614 0.00897528 -3.72899 0
M  V30 2606 N 249.799 1.42003 -0.683588 0
M  V30 2607 C 251.21 1.84501 -0.285736 0
M  V30 2608 C 251.561 1.57213 1.17382 0
M  V30 2609 O 250.686 1.03642 1.89966 0
M  V30 2610 C 251.281 3.34912 -0.511821 0
M  V30 2611 C 249.84 3.76025 -0.168005 0
M  V30 2612 C 248.987 2.6551 -0.799983 0
M  V30 2613 H 251.938 1.31724 -0.885119 0
M  V30 2614 H 251.959 3.79784 0.233292 0
M  V30 2615 H 251.471 3.54741 -1.57418 0
M  V30 2616 H 249.572 3.61801 0.890567 0
M  V30 2617 H 249.685 4.75141 -0.614661 0
M  V30 2618 H 248.049 2.53654 -0.230568 0
M  V30 2619 H 248.832 2.8816 -1.86597 0
M  V30 2620 N 251.277 0.427512 1.51691 0
M  V30 2621 C 252.24 -0.377132 2.26076 0
M  V30 2622 C 253.24 -0.958089 1.29141 0
M  V30 2623 O 254.43 -0.83408 1.52934 0
M  V30 2624 C 251.562 -1.53262 3.04506 0
M  V30 2625 H 252.755 0.27464 2.9864 0
M  V30 2626 H 250.308 0.180445 1.55255 0
M  V30 2627 H 251.043 -2.22072 2.36335 0
M  V30 2628 H 250.828 -1.12232 3.75694 0
M  V30 2629 H 252.318 -2.10135 3.60878 0
M  V30 2630 N 252.755 -1.56801 0.158532 0
M  V30 2631 C 253.98 -2.01295 -0.499516 0
M  V30 2632 C 254.405 -1.03799 -1.56867 0
M  V30 2633 O 253.763 -0.0155162 -1.81293 0
M  V30 2634 C 253.811 -3.44469 -1.06647 0
M  V30 2635 O 252.915 -3.50012 -2.18095 0
M  V30 2636 H 252.256 -0.652884 -0.12099 0
M  V30 2637 H 254.786 -2.02958 0.258661 0
M  V30 2638 H 254.796 -3.8351 -1.39227 0
M  V30 2639 H 253.471 -4.14932 -0.283581 0
M  V30 2640 H 252.048 -3.22822 -1.86656 0
M  V30 2641 N 254.233 0.115231 -1.57178 0
M  V30 2642 C 255.458 0.840354 -1.89612 0
M  V30 2643 C 255.883 1.72464 -0.750845 0
M  V30 2644 O 255.241 1.78826 0.298478 0
M  V30 2645 C 255.289 1.64654 -3.20814 0
M  V30 2646 O 254.393 2.7538 -3.06985 0
M  V30 2647 H 253.734 0.232158 -0.622092 0
M  V30 2648 H 256.264 0.0964977 -2.04372 0
M  V30 2649 H 256.274 2.03499 -3.53627 0
M  V30 2650 H 254.949 0.997416 -4.03763 0
M  V30 2651 H 253.526 2.3971 -2.85646 0
M  V30 2652 N 255.711 1.52812 0.385517 0
M  V30 2653 C 256.988 1.5861 1.14465 0
M  V30 2654 C 257.368 0.381402 2.07626 0
M  V30 2655 O 256.716 -0.629999 2.19643 0
M  V30 2656 C 256.926 2.92664 1.90128 0
M  V30 2657 C 258.274 3.46526 2.45367 0
M  V30 2658 O 259.298 2.94562 2.0028 0
M  V30 2659 O 258.157 4.37323 3.27736 0
M  V30 2660 H 255.251 0.639855 0.523941 0
M  V30 2661 H 257.797 1.65149 0.390389 0
M  V30 2662 H 256.569 3.71788 1.22022 0
M  V30 2663 H 256.192 2.89527 2.72507 0
M  V30 2664 N 257.189 -0.644168 1.43834 0
M  V30 2665 C 258.466 -1.40188 1.36406 0
M  V30 2666 C 258.846 -2.11094 0.0163124 0
M  V30 2667 O 258.194 -2.05426 -1.00062 0
M  V30 2668 C 258.404 -2.3791 2.55343 0
M  V30 2669 C 259.752 -3.01637 2.98832 0
M  V30 2670 O 260.776 -2.48237 2.55455 0
M  V30 2671 O 259.635 -3.98477 3.74003 0
M  V30 2672 H 256.729 -0.626773 0.539523 0
M  V30 2673 H 259.275 -0.670317 1.559 0
M  V30 2674 H 258.047 -1.84525 3.4506 0
M  V30 2675 H 257.67 -3.18503 2.37995 0
M  V30 2676 N 258.668 -1.30515 -0.883378 0
M  V30 2677 C 260.079 -1.17509 -1.45081 0
M  V30 2678 C 260.43 0.223605 -1.94922 0
M  V30 2679 O 259.555 1.12041 -1.85137 0
M  V30 2680 C 260.15 -2.12715 -2.63701 0
M  V30 2681 C 258.709 -2.03682 -3.16529 0
M  V30 2682 C 257.856 -2.02706 -1.89224 0
M  V30 2683 H 260.807 -1.42762 -0.693165 0
M  V30 2684 H 260.828 -1.70891 -3.39965 0
M  V30 2685 H 260.34 -3.14505 -2.27395 0
M  V30 2686 H 258.441 -1.05039 -3.57488 0
M  V30 2687 H 258.554 -2.92146 -3.7972 0
M  V30 2688 H 256.918 -1.4753 -2.07622 0
M  V30 2689 H 257.701 -3.06229 -1.55174 0
M  V30 2690 N 260.146 1.09593 -1.13257 0
M  V30 2691 C 261.371 1.8604 -0.916732 0
M  V30 2692 C 261.796 1.80504 0.529146 0
M  V30 2693 O 261.154 1.18127 1.37534 0
M  V30 2694 C 261.202 3.32017 -1.40703 0
M  V30 2695 O 260.306 4.08141 -0.591153 0
M  V30 2696 H 259.647 0.576943 -0.328683 0
M  V30 2697 H 262.177 1.38405 -1.50682 0
M  V30 2698 H 262.187 3.82865 -1.4099 0
M  V30 2699 H 260.862 3.35361 -2.45979 0
M  V30 2700 H 259.439 3.67084 -0.656005 0
M  V30 2701 N 261.624 0.925811 1.2754 0
M  V30 2702 C 262.871 0.565255 1.94451 0
M  V30 2703 C 263.199 -0.89316 1.7278 0
M  V30 2704 O 262.454 -1.65213 1.04895 0
M  V30 2705 C 262.753 0.835296 3.47502 0
M  V30 2706 C 262.419 2.27515 3.89291 0
M  V30 2707 C 261.081 2.66879 4.00411 0
M  V30 2708 C 263.433 3.21158 4.10496 0
M  V30 2709 C 260.761 3.99014 4.30122 0
M  V30 2710 C 263.113 4.52871 4.4169 0
M  V30 2711 C 261.777 4.92072 4.51023 0
M  V30 2712 H 261.047 0.206841 0.711546 0
M  V30 2713 H 263.694 1.16942 1.51647 0
M  V30 2714 H 261.999 0.148442 3.91519 0
M  V30 2715 H 263.696 0.535322 3.97411 0
M  V30 2716 H 260.286 1.95976 3.81171 0
M  V30 2717 H 264.47 2.9195 4.01346 0
M  V30 2718 H 259.726 4.2907 4.35556 0
M  V30 2719 H 263.9 5.25436 4.57045 0
M  V30 2720 H 261.527 5.9449 4.738 0
M  V30 2721 N 263.102 -1.41638 0.69111 0
M  V30 2722 C 264.065 -2.29178 0.0319786 0
M  V30 2723 C 265.065 -1.44153 -0.712496 0
M  V30 2724 O 266.255 -1.65354 -0.548053 0
M  V30 2725 C 263.387 -3.26952 -0.965161 0
M  V30 2726 H 264.58 -2.88959 0.802681 0
M  V30 2727 H 262.133 -1.4955 0.454356 0
M  V30 2728 H 262.868 -2.72142 -1.76378 0
M  V30 2729 H 262.653 -3.89685 -0.434522 0
M  V30 2730 H 264.143 -3.92561 -1.42428 0
M  V30 2731 N 264.58 -0.43555 -1.51462 0
M  V30 2732 C 265.49 0.383001 -2.31453 0
M  V30 2733 C 266.506 1.02931 -1.4029 0
M  V30 2734 O 267.682 1.02507 -1.73362 0
M  V30 2735 C 264.747 1.47043 -3.13973 0
M  V30 2736 C 263.808 0.844433 -4.20913 0
M  V30 2737 C 263.041 1.88004 -4.9949 0
M  V30 2738 O 263.264 3.10199 -4.78678 0
M  V30 2739 O 262.198 1.47157 -5.83634 0
M  V30 2740 H 266.024 -0.269964 -3.02498 0
M  V30 2741 H 263.609 -0.19813 -1.4808 0
M  V30 2742 H 265.491 2.10113 -3.65281 0
M  V30 2743 H 264.166 2.10751 -2.45695 0
M  V30 2744 H 263.073 0.175729 -3.73687 0
M  V30 2745 H 264.406 0.250869 -4.9156 0
M  V30 2746 N 266.058 1.56714 -0.166846 0
M  V30 2747 C 267.006 2.19056 0.782123 0
M  V30 2748 C 268 1.15328 1.24079 0
M  V30 2749 O 269.206 1.33537 1.20697 0
M  V30 2750 H 265.581 0.70167 0.270486 0
M  V30 2751 H 267.552 2.97494 0.232322 0
M  V30 2752 C 266.301 2.84206 2.00306 0
M  V30 2753 H 265.624 3.63748 1.65914 0
M  V30 2754 H 267.064 3.31302 2.64604 0
M  V30 2755 C 265.523 1.83744 2.82382 0
M  V30 2756 O 266.053 1.32014 3.79388 0
M  V30 2757 N 264.259 1.52601 2.47308 0
M  V30 2758 H 263.806 1.9486 1.68485 0
M  V30 2759 H 263.764 0.856351 3.02513 0
M  V30 2760 N 267.536 -0.106894 1.57237 0
M  V30 2761 C 268.784 -0.810921 1.85117 0
M  V30 2762 C 269.105 -1.7984 0.753827 0
M  V30 2763 O 268.375 -1.94649 -0.221056 0
M  V30 2764 H 266.955 -0.302466 0.683025 0
M  V30 2765 H 269.617 -0.0913324 1.94686 0
M  V30 2766 H 268.713 -1.34875 2.81452 0
M  V30 2767 N 269.014 -1.53014 -0.377408 0
M  V30 2768 C 270.43 -1.42523 -0.718281 0
M  V30 2769 C 270.63 -0.55487 -1.9371 0
M  V30 2770 O 269.686 -0.0327593 -2.52479 0
M  V30 2771 C 270.999 -2.85546 -0.942539 0
M  V30 2772 C 272.547 -2.95101 -1.04329 0
M  V30 2773 C 273.022 -4.3916 -1.3001 0
M  V30 2774 N 274.513 -4.42536 -1.36806 0
M  V30 2775 C 275.248 -5.51097 -1.58364 0
M  V30 2776 N 274.744 -6.69724 -1.77317 0
M  V30 2777 N 276.537 -5.38657 -1.60638 0
M  V30 2778 H 268.688 -2.08116 0.424426 0
M  V30 2779 H 270.951 -0.939352 0.127759 0
M  V30 2780 H 270.657 -3.51499 -0.118929 0
M  V30 2781 H 270.531 -3.28493 -1.85397 0
M  V30 2782 H 272.918 -2.29309 -1.85745 0
M  V30 2783 H 272.999 -2.55566 -0.109505 0
M  V30 2784 H 272.643 -5.05521 -0.490991 0
M  V30 2785 H 272.573 -4.76258 -2.24691 0
M  V30 2786 H 275.064 -3.57039 -1.23821 0
M  V30 2787 H 275.377 -7.48233 -1.93306 0
M  V30 2788 H 273.722 -6.72732 -1.74518 0
M  V30 2789 H 276.913 -4.44948 -1.45391 0
M  V30 2790 H 277.086 -6.2333 -1.77098 0
M  V30 2791 N 270.492 0.636531 -1.44174 0
M  V30 2792 C 271.422 1.76003 -1.53444 0
M  V30 2793 C 272.403 1.65619 -0.387841 0
M  V30 2794 O 273.588 1.84461 -0.607257 0
M  V30 2795 C 270.718 3.14511 -1.4731 0
M  V30 2796 C 269.672 3.39677 -2.60391 0
M  V30 2797 C 268.998 4.78159 -2.39308 0
M  V30 2798 C 270.298 3.32772 -4.02567 0
M  V30 2799 H 271.992 1.68501 -2.47483 0
M  V30 2800 H 269.538 0.809237 -1.19111 0
M  V30 2801 H 271.491 3.92878 -1.52397 0
M  V30 2802 H 270.215 3.22783 -0.49785 0
M  V30 2803 H 268.874 2.63688 -2.54684 0
M  V30 2804 H 268.522 4.83128 -1.39988 0
M  V30 2805 H 268.222 4.95956 -3.15122 0
M  V30 2806 H 269.746 5.58762 -2.46205 0
M  V30 2807 H 271.16 4.01051 -4.09672 0
M  V30 2808 H 269.557 3.62104 -4.7854 0
M  V30 2809 H 270.627 2.30669 -4.2652 0
M  V30 2810 N 271.97 1.30982 0.876444 0
M  V30 2811 C 273.2 1.23063 1.65949 0
M  V30 2812 C 273.608 -0.207537 1.88058 0
M  V30 2813 O 272.951 -1.14781 1.43426 0
M  V30 2814 C 273.013 1.89768 3.05333 0
M  V30 2815 C 272.677 3.39106 3.0636 0
M  V30 2816 C 273.674 4.3496 2.84791 0
M  V30 2817 C 271.359 3.80693 3.27686 0
M  V30 2818 C 273.353 5.70375 2.84519 0
M  V30 2819 C 271.04 5.16223 3.27043 0
M  V30 2820 C 272.038 6.10875 3.05485 0
M  V30 2821 O 271.726 7.43928 3.04674 0
M  V30 2822 H 271.458 0.426685 0.524324 0
M  V30 2823 H 274.012 1.7329 1.10271 0
M  V30 2824 H 272.242 1.34082 3.6271 0
M  V30 2825 H 273.931 1.75853 3.65829 0
M  V30 2826 H 274.697 4.0416 2.68103 0
M  V30 2827 H 270.576 3.07457 3.43499 0
M  V30 2828 H 274.12 6.44228 2.67611 0
M  V30 2829 H 270.017 5.4666 3.43269 0
M  V30 2830 H 270.785 7.53022 3.2078 0
M  V30 2831 N 273.449 -1.08991 1.13837 0
M  V30 2832 C 274.726 -1.77863 0.813876 0
M  V30 2833 C 275.106 -1.99375 -0.693746 0
M  V30 2834 O 274.454 -1.59875 -1.63255 0
M  V30 2835 C 274.664 -3.0986 1.60586 0
M  V30 2836 C 276.012 -3.84493 1.8014 0
M  V30 2837 O 277.036 -3.19624 1.57222 0
M  V30 2838 O 275.895 -5.00957 2.18413 0
M  V30 2839 H 272.989 -0.771589 0.297624 0
M  V30 2840 H 275.535 -1.15507 1.24323 0
M  V30 2841 H 274.307 -2.89715 2.63022 0
M  V30 2842 H 273.93 -3.79942 1.17173 0
M  V30 2843 N 274.927 -0.932562 -1.27047 0
M  V30 2844 C 275.875 -0.42603 -2.28665 0
M  V30 2845 C 276.869 0.49219 -1.62092 0
M  V30 2846 O 278.075 0.371355 -1.76128 0
M  V30 2847 H 274.45 -0.119213 -0.742491 0
M  V30 2848 H 276.421 -1.29579 -2.68797 0
M  V30 2849 C 275.17 0.301426 -3.46391 0
M  V30 2850 H 274.493 -0.39595 -3.97834 0
M  V30 2851 H 275.933 0.6202 -4.1944 0
M  V30 2852 C 274.392 1.51616 -3.00856 0
M  V30 2853 O 274.922 2.61476 -3.04948 0
M  V30 2854 N 273.128 1.36969 -2.56296 0
M  V30 2855 H 272.675 0.475873 -2.53166 0
M  V30 2856 H 272.633 2.18368 -2.26192 0
M  V30 2857 N 276.405 1.4127 -0.698611 0
M  V30 2858 C 277.653 2.00782 -0.230409 0
M  V30 2859 C 277.974 1.5562 1.17505 0
M  V30 2860 O 277.244 0.78815 1.79346 0
M  V30 2861 H 275.824 0.742464 -0.0821944 0
M  V30 2862 H 278.486 1.72852 -0.90045 0
M  V30 2863 H 277.582 3.11095 -0.25021 0
M  V30 2864 N 277.883 0.443576 1.51229 0
M  V30 2865 C 278.831 -0.37904 2.29491 0
M  V30 2866 C 279.825 -1.0153 1.35603 0
M  V30 2867 O 281.031 -0.94955 1.52917 0
M  V30 2868 H 277.406 -0.141053 0.738653 0
M  V30 2869 H 279.377 0.301799 2.9687 0
M  V30 2870 C 278.126 -1.46426 3.15364 0
M  V30 2871 H 277.449 -0.984037 3.87501 0
M  V30 2872 H 278.889 -2.01297 3.7317 0
M  V30 2873 C 277.348 -2.45099 2.31146 0
M  V30 2874 O 277.878 -3.49773 1.9754 0
M  V30 2875 N 276.084 -2.16139 1.94249 0
M  V30 2876 H 275.631 -1.31044 2.21777 0
M  V30 2877 H 275.589 -2.82398 1.38198 0
M  V30 2878 N 279.361 -1.56624 0.175154 0
M  V30 2879 C 280.291 -2.21155 -0.749195 0
M  V30 2880 C 281.272 -1.16836 -1.23626 0
M  V30 2881 O 282.457 -1.45277 -1.28873 0
M  V30 2882 C 279.587 -2.8553 -1.97711 0
M  V30 2883 C 278.541 -3.95921 -1.62575 0
M  V30 2884 C 277.867 -4.47365 -2.92864 0
M  V30 2885 C 279.167 -5.15323 -0.850838 0
M  V30 2886 H 280.861 -2.98653 -0.211295 0
M  V30 2887 H 278.407 -1.43651 -0.100188 0
M  V30 2888 H 280.36 -3.2935 -2.62881 0
M  V30 2889 H 279.084 -2.05406 -2.53921 0
M  V30 2890 H 277.743 -3.52762 -0.997719 0
M  V30 2891 H 277.391 -3.64027 -3.47122 0
M  V30 2892 H 277.091 -5.21839 -2.70106 0
M  V30 2893 H 278.615 -4.93873 -3.59056 0
M  V30 2894 H 280.029 -5.55812 -1.40521 0
M  V30 2895 H 278.426 -5.95739 -0.722154 0
M  V30 2896 H 279.496 -4.84661 0.152082 0
M  V30 2897 N 280.839 0.0985539 -1.57292 0
M  V30 2898 C 281.769 1.12064 -2.04851 0
M  V30 2899 C 282.75 1.41981 -0.936767 0
M  V30 2900 O 283.935 1.52071 -1.20781 0
M  V30 2901 C 281.065 2.44144 -2.47004 0
M  V30 2902 C 280.019 2.28643 -3.6181 0
M  V30 2903 C 279.345 3.65869 -3.89929 0
M  V30 2904 C 280.645 1.72986 -4.92822 0
M  V30 2905 H 282.339 0.724979 -2.9049 0
M  V30 2906 H 279.885 0.34729 -1.39749 0
M  V30 2907 H 281.838 3.15914 -2.78884 0
M  V30 2908 H 280.562 2.85639 -1.5836 0
M  V30 2909 H 279.221 1.59318 -3.30172 0
M  V30 2910 H 278.869 4.04885 -2.98458 0
M  V30 2911 H 278.569 3.56344 -4.67218 0
M  V30 2912 H 280.093 4.39112 -4.2428 0
M  V30 2913 H 281.507 2.34593 -5.23105 0
M  V30 2914 H 279.904 1.74229 -5.74251 0
M  V30 2915 H 280.974 0.689007 -4.7998 0
M  V30 2916 N 282.317 1.53212 0.369288 0
M  V30 2917 C 283.565 1.68881 1.11012 0
M  V30 2918 C 283.886 0.441285 1.89941 0
M  V30 2919 O 283.156 -0.544623 1.88177 0
M  V30 2920 H 281.736 0.622569 0.412816 0
M  V30 2921 H 284.398 1.90391 0.416802 0
M  V30 2922 H 283.494 2.54822 1.80201 0
M  V30 2923 N 283.795 -0.628877 1.44509 0
M  V30 2924 C 285.043 -1.38565 1.4712 0
M  V30 2925 C 285.364 -1.94712 0.105899 0
M  V30 2926 O 284.634 -1.75912 -0.862079 0
M  V30 2927 H 283.214 -0.514333 0.541729 0
M  V30 2928 H 285.876 -0.740018 1.80305 0
M  V30 2929 H 284.972 -2.21583 2.19789 0
M  V30 2930 N 285.273 -1.31445 -0.869486 0
M  V30 2931 C 286.503 -1.23942 -1.65294 0
M  V30 2932 C 286.911 0.197561 -1.88166 0
M  V30 2933 O 286.254 1.14019 -1.44033 0
M  V30 2934 C 286.316 -1.91385 -3.04322 0
M  V30 2935 C 285.98 -3.40726 -3.04557 0
M  V30 2936 C 286.977 -4.36464 -2.82481 0
M  V30 2937 C 284.662 -3.82425 -3.25663 0
M  V30 2938 C 286.656 -5.71876 -2.8149 0
M  V30 2939 C 284.343 -5.1795 -3.243 0
M  V30 2940 C 285.341 -6.12486 -3.02241 0
M  V30 2941 O 285.029 -7.45534 -3.00724 0
M  V30 2942 H 284.761 -0.429459 -0.522054 0
M  V30 2943 H 287.315 -1.73873 -1.0935 0
M  V30 2944 H 285.545 -1.36004 -3.61994 0
M  V30 2945 H 287.234 -1.77791 -3.64891 0
M  V30 2946 H 288 -4.05576 -2.65956 0
M  V30 2947 H 283.879 -3.09274 -3.41863 0
M  V30 2948 H 287.423 -6.45638 -2.64191 0
M  V30 2949 H 283.32 -5.48473 -3.40365 0
M  V30 2950 H 284.088 -7.54713 -3.16782 0
M  V30 2951 N 286.751 1.08385 -1.14413 0
M  V30 2952 C 287.979 1.84517 -0.936001 0
M  V30 2953 C 288.394 1.81626 0.515503 0
M  V30 2954 O 287.751 1.22008 1.35721 0
M  V30 2955 C 287.802 3.32049 -1.42918 0
M  V30 2956 O 287.523 3.34951 -2.82381 0
M  V30 2957 C 289.024 4.24986 -1.26103 0
M  V30 2958 H 286.244 0.582491 -0.333084 0
M  V30 2959 H 288.788 1.36885 -1.5193 0
M  V30 2960 H 286.943 3.7707 -0.888641 0
M  V30 2961 H 287.357 4.27048 -3.04517 0
M  V30 2962 H 288.831 5.26615 -1.6547 0
M  V30 2963 H 289.308 4.38726 -0.20392 0
M  V30 2964 H 289.914 3.85791 -1.79012 0
M  V30 2965 N 288.23 0.939286 1.26551 0
M  V30 2966 C 289.178 0.43815 2.28436 0
M  V30 2967 C 290.172 -0.483587 1.62351 0
M  V30 2968 O 291.378 -0.362009 1.76322 0
M  V30 2969 H 287.753 0.123149 0.741848 0
M  V30 2970 H 289.724 1.31002 2.68106 0
M  V30 2971 C 288.473 -0.283052 3.46546 0
M  V30 2972 H 287.796 0.417043 3.97619 0
M  V30 2973 H 289.236 -0.597948 4.19763 0
M  V30 2974 C 287.695 -1.50018 3.01656 0
M  V30 2975 O 288.225 -2.59855 3.0633 0
M  V30 2976 N 286.431 -1.35608 2.57019 0
M  V30 2977 H 285.978 -0.46244 2.53415 0
M  V30 2978 H 285.936 -2.17165 2.27347 0
M  V30 2979 N 289.708 -1.40897 0.706093 0
M  V30 2980 C 290.985 -1.94868 0.169099 0
M  V30 2981 C 291.365 -1.64485 -1.32318 0
M  V30 2982 O 290.713 -0.95744 -2.07474 0
M  V30 2983 C 290.923 -3.45798 0.471654 0
M  V30 2984 C 292.271 -4.22663 0.405127 0
M  V30 2985 O 293.295 -3.53865 0.407168 0
M  V30 2986 O 292.154 -5.45216 0.374383 0
M  V30 2987 H 289.248 -0.82673 0.0211352 0
M  V30 2988 H 291.794 -1.50558 0.782976 0
M  V30 2989 H 290.566 -3.61235 1.50416 0
M  V30 2990 H 290.189 -3.97225 -0.172666 0
M  V30 2991 N 291.186 -0.45159 -1.50991 0
M  V30 2992 C 292.414 0.108334 -2.06616 0
M  V30 2993 C 292.829 1.35224 -1.31757 0
M  V30 2994 O 292.186 1.78475 -0.381174 0
M  V30 2995 C 292.237 0.41619 -3.59096 0
M  V30 2996 O 291.958 -0.778361 -4.3113 0
M  V30 2997 C 293.459 1.02523 -4.31282 0
M  V30 2998 H 290.679 0.00159995 -0.670998 0
M  V30 2999 H 293.223 -0.634771 -1.94399 0
M  V30 3000 H 291.378 1.10921 -3.71181 0
M  V30 3001 H 291.792 -0.511181 -5.22003 0
M  V30 3002 H 293.266 1.19053 -5.39009 0
M  V30 3003 H 293.743 2.01013 -3.905 0
M  V30 3004 H 294.349 0.371173 -4.23677 0
M  V30 3005 N 292.664 1.56529 -0.183458 0
M  V30 3006 C 293.596 2.15747 0.773697 0
M  V30 3007 C 294.609 1.1162 1.1851 0
M  V30 3008 O 295.798 1.3876 1.12285 0
M  V30 3009 C 292.898 2.6952 2.05456 0
M  V30 3010 C 292.071 3.98429 1.8048 0
M  V30 3011 C 291.13 4.37145 2.92901 0
M  V30 3012 O 290.156 5.04791 2.6301 0
M  V30 3013 N 291.358 3.99695 4.2098 0
M  V30 3014 H 294.123 2.98505 0.26736 0
M  V30 3015 H 291.684 1.619 -0.0010878 0
M  V30 3016 H 293.676 2.92412 2.79781 0
M  V30 3017 H 292.246 1.91282 2.47245 0
M  V30 3018 H 291.466 3.8379 0.899947 0
M  V30 3019 H 292.754 4.82597 1.61175 0
M  V30 3020 H 292.152 3.4526 4.48121 0
M  V30 3021 H 290.709 4.27562 4.9197 0
M  V30 3022 N 294.142 -0.090211 1.57342 0
M  V30 3023 C 295.09 -1.12792 2.03422 0
M  V30 3024 C 296.084 -1.41182 0.936166 0
M  V30 3025 O 297.29 -1.40805 1.12133 0
M  V30 3026 H 293.665 -0.380986 0.648347 0
M  V30 3027 H 295.636 -0.71299 2.89757 0
M  V30 3028 C 294.385 -2.43855 2.47851 0
M  V30 3029 H 293.708 -2.22855 3.31927 0
M  V30 3030 H 295.148 -3.14955 2.83865 0
M  V30 3031 C 293.607 -3.08503 1.3538 0
M  V30 3032 O 294.137 -3.95805 0.685641 0
M  V30 3033 N 292.343 -2.68831 1.10355 0
M  V30 3034 H 291.89 -1.97929 1.64869 0
M  V30 3035 H 291.848 -3.12412 0.353031 0
M  V30 3036 N 295.62 -1.53406 -0.361157 0
M  V30 3037 C 296.55 -1.83136 -1.44857 0
M  V30 3038 C 297.531 -0.685174 -1.5569 0
M  V30 3039 O 298.716 -0.93544 -1.70186 0
M  V30 3040 C 295.846 -2.02522 -2.82138 0
M  V30 3041 C 294.8 -3.18302 -2.86126 0
M  V30 3042 C 294.126 -3.22989 -4.26125 0
M  V30 3043 C 295.426 -4.56796 -2.53248 0
M  V30 3044 H 297.12 -2.74201 -1.20226 0
M  V30 3045 H 294.666 -1.31938 -0.576922 0
M  V30 3046 H 296.619 -2.21904 -3.58241 0
M  V30 3047 H 295.343 -1.08172 -3.08166 0
M  V30 3048 H 294.002 -2.98747 -2.12475 0
M  V30 3049 H 293.65 -2.26267 -4.49235 0
M  V30 3050 H 293.35 -4.00781 -4.29708 0
M  V30 3051 H 294.874 -3.44559 -5.04094 0
M  V30 3052 H 296.288 -4.7631 -3.19064 0
M  V30 3053 H 294.685 -5.36862 -2.68141 0
M  V30 3054 H 295.755 -4.61606 -1.48484 0
M  V30 3055 N 297.098 0.621204 -1.44841 0
M  V30 3056 C 298.345 1.38055 -1.48145 0
M  V30 3057 C 298.673 1.94143 -0.117867 0
M  V30 3058 O 297.928 1.74713 0.881694 0
M  V30 3059 C 298.227 2.55675 -2.4973 0
M  V30 3060 C 297.893 2.17817 -3.94799 0
M  V30 3061 C 296.555 2.07205 -4.34303 0
M  V30 3062 C 298.907 1.88065 -4.86087 0
M  V30 3063 C 296.235 1.65045 -5.63007 0
M  V30 3064 C 298.587 1.47394 -6.15189 0
M  V30 3065 C 297.251 1.35331 -6.53637 0
M  V30 3066 H 296.521 0.505181 -0.542101 0
M  V30 3067 H 299.168 0.703477 -1.78111 0
M  V30 3068 H 297.473 3.2866 -2.13284 0
M  V30 3069 H 299.17 3.13904 -2.4953 0
M  V30 3070 H 295.76 2.26998 -3.63552 0
M  V30 3071 H 299.944 1.95168 -4.56315 0
M  V30 3072 H 295.2 1.54317 -5.91605 0
M  V30 3073 H 299.374 1.23415 -6.85377 0
M  V30 3074 H 297.001 1.02435 -7.53267 0
M  V30 3075 N 298.576 1.31904 0.862503 0
M  V30 3076 C 299.526 1.16772 1.95827 0
M  V30 3077 C 300.51 0.0767098 1.60717 0
M  V30 3078 O 301.702 0.302407 1.74398 0
M  V30 3079 C 298.831 0.884858 3.317 0
M  V30 3080 C 297.917 2.0172 3.73055 0
M  V30 3081 N 298.308 3.265 3.86305 0
M  V30 3082 C 296.606 1.91861 4.02623 0
M  V30 3083 C 297.307 4.00616 4.2176 0
M  V30 3084 N 296.283 3.28847 4.32852 0
M  V30 3085 H 300.085 2.11382 2.04193 0
M  V30 3086 H 297.599 1.2357 1.05377 0
M  V30 3087 H 299.596 0.757419 4.09962 0
M  V30 3088 H 298.256 -0.0529448 3.24657 0
M  V30 3089 H 299.267 3.61529 3.70833 0
M  V30 3090 H 295.944 1.05593 4.03926 0
M  V30 3091 H 297.334 5.08182 4.39546 0
M  V30 3092 N 300.054 -1.07777 1.14986 0
M  V30 3093 C 301.004 -2.13082 0.811181 0
M  V30 3094 C 301.988 -1.59619 -0.202597 0
M  V30 3095 O 303.18 -1.77 -0.00398275 0
M  V30 3096 C 300.309 -3.42009 0.297439 0
M  V30 3097 C 299.395 -4.02337 1.34112 0
M  V30 3098 N 299.786 -4.36982 2.54716 0
M  V30 3099 C 298.084 -4.29752 1.19285 0
M  V30 3100 C 298.785 -4.84729 3.21578 0
M  V30 3101 N 297.761 -4.83233 2.48972 0
M  V30 3102 H 301.563 -2.37696 1.72853 0
M  V30 3103 H 299.077 -1.25173 1.03468 0
M  V30 3104 H 301.074 -4.16884 0.0364777 0
M  V30 3105 H 299.734 -3.18841 -0.614022 0
M  V30 3106 H 300.745 -4.27807 2.91894 0
M  V30 3107 H 297.422 -4.16106 0.340926 0
M  V30 3108 H 298.812 -5.20863 4.24442 0
M  V30 3109 N 301.532 -0.945985 -1.26051 0
M  V30 3110 C 302.762 -0.612136 -1.97323 0
M  V30 3111 C 303.17 0.818171 -1.70595 0
M  V30 3112 O 302.513 1.55777 -0.973613 0
M  V30 3113 C 302.575 -0.780347 -3.50929 0
M  V30 3114 C 302.239 -2.18619 -4.01317 0
M  V30 3115 C 303.236 -3.16209 -4.12683 0
M  V30 3116 C 300.921 -2.50805 -4.35203 0
M  V30 3117 C 302.915 -4.44085 -4.57238 0
M  V30 3118 C 300.602 -3.78912 -4.79446 0
M  V30 3119 C 301.6 -4.75365 -4.90425 0
M  V30 3120 O 301.288 -6.01191 -5.3369 0
M  V30 3121 H 301.02 -0.229134 -0.635982 0
M  V30 3122 H 303.574 -1.27036 -1.61404 0
M  V30 3123 H 301.804 -0.0649864 -3.86645 0
M  V30 3124 H 303.493 -0.448842 -4.03411 0
M  V30 3125 H 304.259 -2.92668 -3.86744 0
M  V30 3126 H 300.138 -1.76463 -4.2589 0
M  V30 3127 H 303.682 -5.19373 -4.65723 0
M  V30 3128 H 299.579 -4.02265 -5.0483 0
M  V30 3129 H 300.347 -6.04442 -5.51899 0
M  V30 3130 N 303.011 1.40521 -0.713556 0
M  V30 3131 C 304.259 2.00527 -0.251692 0
M  V30 3132 C 304.58 1.56857 1.15848 0
M  V30 3133 O 303.85 0.807127 1.785 0
M  V30 3134 H 302.43 0.741551 -0.0900646 0
M  V30 3135 H 305.092 1.71887 -0.918733 0
M  V30 3136 H 304.188 3.10813 -0.283192 0
M  V30 3137 N 304.489 0.459591 1.5075 0
M  V30 3138 C 305.737 -0.0991532 2.01857 0
M  V30 3139 C 306.058 -1.41247 1.34441 0
M  V30 3140 O 305.328 -1.89775 0.486022 0
M  V30 3141 H 303.908 -0.039633 0.745948 0
M  V30 3142 H 306.57 0.607387 1.85194 0
M  V30 3143 H 305.666 -0.258998 3.11023 0
M  V30 3144 N 305.967 -1.56429 0.191757 0
M  V30 3145 C 307.195 -2.01867 -0.453586 0
M  V30 3146 C 307.61 -1.07191 -1.5542 0
M  V30 3147 O 306.967 -0.0762108 -1.82341 0
M  V30 3148 C 307.018 -3.47017 -1.013 0
M  V30 3149 O 306.739 -4.38078 0.0437005 0
M  V30 3150 C 308.24 -4.07956 -1.73456 0
M  V30 3151 H 305.46 -0.661211 -0.114199 0
M  V30 3152 H 308.004 -2.02295 0.299483 0
M  V30 3153 H 306.159 -3.47298 -1.71647 0
M  V30 3154 H 306.573 -5.23178 -0.372212 0
M  V30 3155 H 308.047 -5.1138 -2.07833 0
M  V30 3156 H 308.524 -3.51222 -2.63704 0
M  V30 3157 H 309.13 -4.11437 -1.07702 0
M  V30 3158 N 307.445 0.0818655 -1.57387 0
M  V30 3159 C 308.722 0.815343 -1.77796 0
M  V30 3160 C 309.102 1.96289 -0.77679 0
M  V30 3161 O 308.45 2.27691 0.192106 0
M  V30 3162 C 308.66 1.29765 -3.23978 0
M  V30 3163 C 310.008 1.7351 -3.8753 0
M  V30 3164 O 311.032 1.39356 -3.27808 0
M  V30 3165 O 309.891 2.36708 -4.92576 0
M  V30 3166 H 306.985 0.389914 -0.729312 0
M  V30 3167 H 309.531 0.0627213 -1.69584 0
M  V30 3168 H 308.303 0.47608 -3.88393 0
M  V30 3169 H 307.926 2.11189 -3.36875 0
M  V30 3170 N 308.923 1.53595 0.353017 0
M  V30 3171 C 310.17 1.70385 1.09431 0
M  V30 3172 C 310.498 0.462113 1.88931 0
M  V30 3173 O 309.753 -0.556074 1.87633 0
M  V30 3174 C 310.052 2.91313 2.07054 0
M  V30 3175 C 309.718 4.27308 1.43939 0
M  V30 3176 C 308.38 4.64287 1.26454 0
M  V30 3177 C 310.732 5.11829 0.983883 0
M  V30 3178 C 308.06 5.83412 0.620226 0
M  V30 3179 C 310.412 6.31611 0.353516 0
M  V30 3180 C 309.076 6.67293 0.166272 0
M  V30 3181 H 308.346 0.623484 0.400436 0
M  V30 3182 H 310.993 1.87799 0.374655 0
M  V30 3183 H 309.298 2.68463 2.85368 0
M  V30 3184 H 310.995 3.01497 2.64387 0
M  V30 3185 H 307.585 3.98198 1.58543 0
M  V30 3186 H 311.769 4.838 1.10685 0
M  V30 3187 H 307.025 6.09639 0.463681 0
M  V30 3188 H 311.199 6.964 -0.00757555 0
M  V30 3189 H 308.826 7.59461 -0.335047 0
M  V30 3190 N 310.401 -0.613514 1.45168 0
M  V30 3191 C 311.626 -1.40437 1.52618 0
M  V30 3192 C 312.051 -1.87438 0.157707 0
M  V30 3193 O 311.409 -1.59791 -0.856537 0
M  V30 3194 C 311.457 -2.58894 2.51011 0
M  V30 3195 O 310.561 -3.59326 2.02382 0
M  V30 3196 H 309.902 -0.419506 0.514695 0
M  V30 3197 H 312.432 -0.747215 1.90467 0
M  V30 3198 H 312.442 -3.06214 2.69624 0
M  V30 3199 H 311.117 -2.24032 3.50403 0
M  V30 3200 H 309.694 -3.18695 1.93618 0
M  V30 3201 N 311.879 -1.3236 -0.855495 0
M  V30 3202 C 313.107 -1.2587 -1.64208 0
M  V30 3203 C 313.522 0.173457 -1.88002 0
M  V30 3204 O 312.879 1.11027 -1.44842 0
M  V30 3205 C 312.93 -2.01424 -3.00184 0
M  V30 3206 O 312.651 -3.39051 -2.77445 0
M  V30 3207 C 314.152 -2.01948 -3.94629 0
M  V30 3208 H 311.372 -0.434318 -0.511477 0
M  V30 3209 H 313.916 -1.74469 -1.0668 0
M  V30 3210 H 312.071 -1.56549 -3.5436 0
M  V30 3211 H 312.485 -3.77711 -3.63916 0
M  V30 3212 H 313.959 -2.59297 -4.87308 0
M  V30 3213 H 314.436 -1.00554 -4.27534 0
M  V30 3214 H 315.042 -2.46767 -3.4639 0
M  V30 3215 N 313.357 1.07166 -1.15556 0
M  V30 3216 C 314.606 1.79181 -0.926132 0
M  V30 3217 C 314.919 1.87768 0.547967 0
M  V30 3218 O 316.125 2.56323 0.895036 0
M  V30 3219 C 314.581 3.22 -1.60761 0
M  V30 3220 C 314.189 3.21607 -3.11886 0
M  V30 3221 C 315.933 3.9861 -1.4598 0
M  V30 3222 C 313.84 4.59092 -3.72812 0
M  V30 3223 H 312.77 0.67154 -0.342856 0
M  V30 3224 H 315.421 1.2027 -1.3859 0
M  V30 3225 H 313.803 3.81115 -1.07553 0
M  V30 3226 H 314.977 2.72127 -3.71865 0
M  V30 3227 H 313.292 2.58495 -3.2645 0
M  V30 3228 H 315.889 5.00225 -1.88888 0
M  V30 3229 H 316.232 4.143 -0.407541 0
M  V30 3230 H 316.765 3.45996 -1.96295 0
M  V30 3231 H 313.504 4.48606 -4.77946 0
M  V30 3232 H 313.024 5.08803 -3.17616 0
M  V30 3233 H 314.703 5.28059 -3.73848 0
M  V30 3234 N 314.835 0.952656 1.25548 0
M  V30 3235 C 315.745 0.47782 2.29682 0
M  V30 3236 C 316.761 -0.453859 1.67977 0
M  V30 3237 O 317.937 -0.330587 1.98668 0
M  V30 3238 C 315.002 -0.238655 3.45878 0
M  V30 3239 C 314.063 0.730994 4.23031 0
M  V30 3240 C 313.296 0.0486165 5.33678 0
M  V30 3241 O 313.519 -1.16612 5.58353 0
M  V30 3242 O 312.453 0.733152 5.97418 0
M  V30 3243 H 316.279 1.34312 2.72386 0
M  V30 3244 H 313.864 0.719026 1.30959 0
M  V30 3245 H 315.746 -0.641774 4.16484 0
M  V30 3246 H 314.421 -1.07916 3.05181 0
M  V30 3247 H 313.328 1.18428 3.5486 0
M  V30 3248 H 314.661 1.53946 4.67506 0
M  V30 3249 N 316.313 -1.40141 0.720998 0
M  V30 3250 C 317.261 -2.3252 0.0608547 0
M  V30 3251 C 318.255 -1.52326 -0.741152 0
M  V30 3252 O 319.461 -1.68089 -0.643911 0
M  V30 3253 H 315.836 -0.751999 0.000876664 0
M  V30 3254 H 317.807 -2.8584 0.856614 0
M  V30 3255 C 316.556 -3.37331 -0.842809 0
M  V30 3256 H 315.879 -3.99108 -0.235084 0
M  V30 3257 H 317.319 -4.04452 -1.27257 0
M  V30 3258 C 315.778 -2.73246 -1.97074 0
M  V30 3259 O 316.308 -2.59998 -3.06209 0
M  V30 3260 N 314.514 -2.31547 -1.75597 0
M  V30 3261 H 314.061 -2.42522 -0.868368 0
M  V30 3262 H 314.019 -1.89007 -2.51244 0
M  V30 3263 N 317.792 -0.46758 -1.50504 0
M  V30 3264 C 319.04 0.0884469 -2.01906 0
M  V30 3265 C 319.361 1.40532 -1.35188 0
M  V30 3266 O 318.631 1.89515 -0.496079 0
M  V30 3267 H 317.211 0.0356765 -0.746148 0
M  V30 3268 H 319.873 -0.6172 -1.84869 0
M  V30 3269 H 318.969 0.2425 -3.11156 0
M  V30 3270 N 319.27 1.56325 -0.20005 0
M  V30 3271 C 320.519 1.96895 0.437652 0
M  V30 3272 C 320.832 1.08999 1.62415 0
M  V30 3273 O 322.038 1.39372 2.32997 0
M  V30 3274 C 320.494 3.50198 0.830025 0
M  V30 3275 C 320.102 4.46765 -0.332461 0
M  V30 3276 C 321.846 3.99526 1.43453 0
M  V30 3277 C 319.753 5.91344 0.0811468 0
M  V30 3278 H 318.683 0.735209 0.167282 0
M  V30 3279 H 321.334 1.81148 -0.292853 0
M  V30 3280 H 319.716 3.61467 1.61734 0
M  V30 3281 H 320.89 4.47231 -1.11 0
M  V30 3282 H 319.205 4.07657 -0.848789 0
M  V30 3283 H 321.802 5.05025 1.75652 0
M  V30 3284 H 322.145 3.44122 2.34277 0
M  V30 3285 H 322.678 3.91393 0.71109 0
M  V30 3286 H 319.417 6.50685 -0.793033 0
M  V30 3287 H 318.937 5.94121 0.823445 0
M  V30 3288 H 320.616 6.44945 0.515252 0
M  V30 3289 N 320.748 -0.0735177 1.57428 0
M  V30 3290 C 321.978 -0.78483 1.91112 0
M  V30 3291 C 322.386 -1.71729 0.7941 0
M  V30 3292 O 321.729 -1.82105 -0.241542 0
M  V30 3293 C 321.791 -1.63346 3.20247 0
M  V30 3294 C 321.455 -0.870557 4.48632 0
M  V30 3295 C 322.452 -0.19058 5.19551 0
M  V30 3296 C 320.137 -0.838242 4.95256 0
M  V30 3297 C 322.131 0.511503 6.35344 0
M  V30 3298 C 319.818 -0.132386 6.10957 0
M  V30 3299 C 320.816 0.541288 6.80852 0
M  V30 3300 O 320.504 1.23578 7.94345 0
M  V30 3301 H 320.236 -0.228408 0.636244 0
M  V30 3302 H 322.79 -0.0486039 2.05342 0
M  V30 3303 H 321.02 -2.41245 3.02222 0
M  V30 3304 H 322.709 -2.22329 3.39595 0
M  V30 3305 H 323.475 -0.206864 4.84559 0
M  V30 3306 H 319.354 -1.35206 4.40727 0
M  V30 3307 H 322.898 1.03789 6.89836 0
M  V30 3308 H 318.795 -0.114023 6.45399 0
M  V30 3309 H 319.563 1.14487 8.10454 0
M  V30 3310 N 322.226 -1.5378 -0.344866 0
M  V30 3311 C 323.173 -1.81676 -1.42346 0
M  V30 3312 C 324.143 -0.662376 -1.52321 0
M  V30 3313 O 325.328 -0.906675 -1.67881 0
M  V30 3314 C 322.468 -2.03087 -2.79015 0
M  V30 3315 C 321.581 -3.30799 -2.77842 0
M  V30 3316 C 320.716 -3.42285 -4.0622 0
M  V30 3317 C 319.755 -4.6395 -3.9927 0
M  V30 3318 N 318.892 -4.72477 -5.19336 0
M  V30 3319 H 323.732 -2.73703 -1.17858 0
M  V30 3320 H 321.269 -1.35568 -0.570949 0
M  V30 3321 H 323.227 -2.1349 -3.58438 0
M  V30 3322 H 321.857 -1.14375 -3.01858 0
M  V30 3323 H 320.909 -3.29244 -1.90533 0
M  V30 3324 H 322.221 -4.20314 -2.68584 0
M  V30 3325 H 321.375 -3.52113 -4.94066 0
M  V30 3326 H 320.114 -2.50823 -4.18258 0
M  V30 3327 H 319.119 -4.54201 -3.09809 0
M  V30 3328 H 320.344 -5.56775 -3.88817 0
M  V30 3329 H 318.29 -3.83924 -5.3192 0
M  V30 3330 H 318.207 -5.55927 -5.12329 0
M  V30 3331 H 319.475 -4.86613 -6.08957 0
M  V30 3332 N 323.704 0.605807 -1.45491 0
M  V30 3333 C 324.652 1.73754 -1.54636 0
M  V30 3334 C 325.646 1.64207 -0.416219 0
M  V30 3335 O 326.852 1.69979 -0.592199 0
M  V30 3336 H 323.227 0.574073 -0.485741 0
M  V30 3337 H 325.198 1.63169 -2.49837 0
M  V30 3338 C 323.947 3.12135 -1.53189 0
M  V30 3339 H 323.27 3.20141 -2.39478 0
M  V30 3340 H 324.71 3.91147 -1.63645 0
M  V30 3341 C 323.169 3.35921 -0.256616 0
M  V30 3342 O 323.699 3.96194 0.662798 0
M  V30 3343 N 321.905 2.90204 -0.151751 0
M  V30 3344 H 321.452 2.41336 -0.90081 0
M  V30 3345 H 321.41 3.06492 0.700699 0
M  V30 3346 N 325.182 1.32811 0.848464 0
M  V30 3347 C 326.112 1.24882 1.97299 0
M  V30 3348 C 327.093 0.131357 1.69592 0
M  V30 3349 O 328.278 0.319553 1.91553 0
M  V30 3350 C 325.408 0.97746 3.33261 0
M  V30 3351 C 324.362 2.05682 3.75338 0
M  V30 3352 C 323.688 1.63777 5.09 0
M  V30 3353 C 324.988 3.47254 3.90144 0
M  V30 3354 H 326.682 2.18966 2.04191 0
M  V30 3355 H 324.228 1.05413 0.981029 0
M  V30 3356 H 326.181 0.908513 4.1149 0
M  V30 3357 H 324.905 0.000980011 3.266 0
M  V30 3358 H 323.564 2.11603 2.99366 0
M  V30 3359 H 323.212 0.648569 4.98801 0
M  V30 3360 H 322.912 2.36 5.38124 0
M  V30 3361 H 324.436 1.5833 5.89715 0
M  V30 3362 H 325.85 3.43888 4.58709 0
M  V30 3363 H 324.247 4.1788 4.30693 0
M  V30 3364 H 325.317 3.86462 2.92874 0
M  V30 3365 N 326.66 -1.06551 1.16123 0
M  V30 3366 C 327.89 -1.8274 0.963838 0
M  V30 3367 C 328.298 -1.82712 -0.491228 0
M  V30 3368 O 327.641 -1.24294 -1.35265 0
M  V30 3369 C 327.703 -3.3065 1.41106 0
M  V30 3370 C 327.367 -3.54384 2.88549 0
M  V30 3371 C 328.364 -3.4765 3.86569 0
M  V30 3372 C 326.049 -3.81789 3.26408 0
M  V30 3373 C 328.043 -3.67982 5.2045 0
M  V30 3374 C 325.73 -4.01772 4.60459 0
M  V30 3375 C 326.728 -3.94866 5.57288 0
M  V30 3376 O 326.416 -4.14306 6.88916 0
M  V30 3377 H 326.148 -0.583136 0.341948 0
M  V30 3378 H 328.702 -1.35351 1.54497 0
M  V30 3379 H 326.932 -3.78887 0.773394 0
M  V30 3380 H 328.621 -3.88324 1.1815 0
M  V30 3381 H 329.387 -3.2647 3.58667 0
M  V30 3382 H 325.266 -3.86276 2.51619 0
M  V30 3383 H 328.81 -3.62507 5.96015 0
M  V30 3384 H 324.707 -4.2244 4.88072 0
M  V30 3385 H 325.475 -4.31609 6.95454 0
M  V30 3386 N 328.138 -0.959301 -1.25041 0
M  V30 3387 C 329.415 -0.533805 -1.88175 0
M  V30 3388 C 329.795 0.988994 -1.865 0
M  V30 3389 O 329.143 1.85677 -1.33177 0
M  V30 3390 C 329.353 -1.11575 -3.30684 0
M  V30 3391 C 330.701 -1.19548 -4.07423 0
M  V30 3392 O 331.725 -1.06765 -3.39823 0
M  V30 3393 O 330.584 -1.39656 -5.28354 0
M  V30 3394 H 327.678 -0.176772 -0.807887 0
M  V30 3395 H 330.224 -1.05303 -1.33076 0
M  V30 3396 H 328.996 -2.15884 -3.26358 0
M  V30 3397 H 328.619 -0.580059 -3.93346 0
M  V30 3398 N 329.616 1.39756 -0.72842 0
M  V30 3399 C 330.546 2.33289 -0.0991354 0
M  V30 3400 C 331.527 1.53568 0.731489 0
M  V30 3401 O 332.712 1.81987 0.677807 0
M  V30 3402 C 329.842 3.3763 0.813834 0
M  V30 3403 C 328.796 4.2791 0.0878663 0
M  V30 3404 C 328.122 5.22894 1.11741 0
M  V30 3405 C 329.422 5.11314 -1.06563 0
M  V30 3406 H 331.116 2.86163 -0.880408 0
M  V30 3407 H 328.662 1.37591 -0.424819 0
M  V30 3408 H 330.615 4.0201 1.26355 0
M  V30 3409 H 329.339 2.83181 1.62715 0
M  V30 3410 H 327.998 3.65 -0.342159 0
M  V30 3411 H 327.646 4.64744 1.92412 0
M  V30 3412 H 327.346 5.84143 0.636477 0
M  V30 3413 H 328.87 5.90151 1.56697 0
M  V30 3414 H 330.284 5.69076 -0.694671 0
M  V30 3415 H 328.681 5.81671 -1.47577 0
M  V30 3416 H 329.751 4.46534 -1.89038 0
M  V30 3417 N 331.094 0.475555 1.50254 0
M  V30 3418 C 332.057 -0.305016 2.27161 0
M  V30 3419 C 333.057 -0.916519 1.32123 0
M  V30 3420 O 334.247 -0.785003 1.5551 0
M  V30 3421 C 331.379 -1.43496 3.09227 0
M  V30 3422 H 332.572 0.369511 2.97615 0
M  V30 3423 H 330.125 0.229747 1.54602 0
M  V30 3424 H 330.86 -2.14441 2.43281 0
M  V30 3425 H 330.645 -1.00223 3.79075 0
M  V30 3426 H 332.135 -1.98548 3.67381 0
M  V30 3427 N 332.573 -1.56217 0.208337 0
M  V30 3428 C 333.85 -1.89739 -0.475234 0
M  V30 3429 C 334.23 -1.1238 -1.78701 0
M  V30 3430 O 333.578 -0.228979 -2.2735 0
M  V30 3431 C 333.788 -3.42289 -0.681101 0
M  V30 3432 C 335.136 -4.12789 -0.994507 0
M  V30 3433 O 336.16 -3.47814 -0.768357 0
M  V30 3434 O 335.019 -5.27649 -1.42299 0
M  V30 3435 H 332.113 -0.788478 -0.249461 0
M  V30 3436 H 334.659 -1.67855 0.249538 0
M  V30 3437 H 333.431 -3.90534 0.244722 0
M  V30 3438 H 333.054 -3.69909 -1.45785 0
M  V30 3439 N 334.051 0.0651679 -1.57465 0
M  V30 3440 C 334.981 1.07693 -2.07182 0
M  V30 3441 C 335.962 1.39962 -0.966673 0
M  V30 3442 O 337.147 1.49475 -1.2398 0
M  V30 3443 C 334.277 2.3885 -2.52127 0
M  V30 3444 C 333.231 2.20917 -3.66579 0
M  V30 3445 C 332.557 3.57515 -3.97601 0
M  V30 3446 C 333.857 1.62493 -4.9638 0
M  V30 3447 H 335.551 0.663199 -2.91962 0
M  V30 3448 H 333.097 0.317569 -1.40455 0
M  V30 3449 H 335.05 3.09928 -2.85522 0
M  V30 3450 H 333.774 2.82215 -1.64384 0
M  V30 3451 H 332.433 1.52279 -3.33477 0
M  V30 3452 H 332.081 3.98463 -3.06979 0
M  V30 3453 H 331.781 3.46353 -4.74672 0
M  V30 3454 H 333.305 4.30013 -4.33499 0
M  V30 3455 H 334.719 2.23445 -5.27963 0
M  V30 3456 H 333.116 1.62009 -5.77818 0
M  V30 3457 H 334.186 0.587041 -4.81333 0
M  V30 3458 N 335.529 1.53961 0.336706 0
M  V30 3459 C 336.477 1.83136 1.43401 0
M  V30 3460 C 337.471 0.702313 1.54156 0
M  V30 3461 O 338.677 0.885765 1.56698 0
M  V30 3462 H 335.052 0.580309 0.478273 0
M  V30 3463 H 337.023 2.74925 1.16012 0
M  V30 3464 C 335.772 2.06385 2.79822 0
M  V30 3465 H 335.095 2.92718 2.72316 0
M  V30 3466 H 336.535 2.30761 3.55704 0
M  V30 3467 C 334.994 0.851414 3.25964 0
M  V30 3468 O 335.524 0.0541904 4.01663 0
M  V30 3469 N 333.73 0.66672 2.82848 0
M  V30 3470 H 333.277 1.31665 2.21409 0
M  V30 3471 H 333.235 -0.143032 3.14074 0
M  V30 3472 N 337.007 -0.598083 1.45811 0
M  V30 3473 C 337.957 -1.70272 1.51629 0
M  V30 3474 C 338.941 -1.56382 0.378629 0
M  V30 3475 O 340.133 -1.65557 0.626087 0
M  V30 3476 C 337.262 -3.09042 1.49493 0
M  V30 3477 C 336.348 -3.28284 2.68496 0
M  V30 3478 N 336.739 -3.17748 3.93535 0
M  V30 3479 C 335.037 -3.59182 2.64394 0
M  V30 3480 C 335.738 -3.38579 4.7301 0
M  V30 3481 N 334.714 -3.63016 4.04624 0
M  V30 3482 H 338.516 -1.60634 2.46118 0
M  V30 3483 H 336.03 -0.801642 1.41235 0
M  V30 3484 H 338.027 -3.88302 1.51747 0
M  V30 3485 H 336.687 -3.19823 0.560683 0
M  V30 3486 H 337.698 -2.95944 4.25014 0
M  V30 3487 H 334.375 -3.76742 1.79922 0
M  V30 3488 H 335.765 -3.35747 5.82 0
M  V30 3489 N 338.485 -1.33259 -0.841409 0
M  V30 3490 C 339.433 -1.23279 -1.97244 0
M  V30 3491 C 340.427 -0.134706 -1.68864 0
M  V30 3492 O 341.633 -0.298501 -1.77508 0
M  V30 3493 H 338.008 -0.382497 -0.647457 0
M  V30 3494 H 339.979 -2.18906 -2.02787 0
M  V30 3495 C 338.728 -0.986268 -3.33419 0
M  V30 3496 H 338.051 -1.82347 -3.55794 0
M  V30 3497 H 339.491 -0.956728 -4.13065 0
M  V30 3498 C 337.95 0.310842 -3.35463 0
M  V30 3499 O 338.48 1.31838 -3.79449 0
M  V30 3500 N 336.686 0.337485 -2.88634 0
M  V30 3501 H 336.233 -0.482967 -2.53032 0
M  V30 3502 H 336.191 1.20518 -2.90384 0
M  V30 3503 N 339.963 1.05934 -1.16686 0
M  V30 3504 C 340.911 2.15603 -0.872817 0
M  V30 3505 C 341.905 1.68647 0.159576 0
M  V30 3506 O 343.111 1.79995 0.0132125 0
M  V30 3507 H 339.486 0.703885 -0.264671 0
M  V30 3508 H 341.457 2.37613 -1.80507 0
M  V30 3509 C 340.206 3.45457 -0.394344 0
M  V30 3510 H 339.529 3.81984 -1.18019 0
M  V30 3511 H 340.969 4.2339 -0.227408 0
M  V30 3512 C 339.428 3.25021 0.88673 0
M  V30 3513 O 339.958 3.50906 1.95519 0
M  V30 3514 N 338.164 2.78437 0.831925 0
M  V30 3515 H 337.711 2.57572 -0.0377619 0
M  V30 3516 H 337.669 2.65144 1.68956 0
M  V30 3517 N 341.441 0.965919 1.2453 0
M  V30 3518 C 342.666 0.643971 1.97149 0
M  V30 3519 C 343.091 -0.779487 1.71189 0
M  V30 3520 O 342.449 -1.5288 0.974553 0
M  V30 3521 C 342.497 0.922557 3.48599 0
M  V30 3522 O 341.601 0.00707672 4.12399 0
M  V30 3523 H 340.942 0.243647 0.617683 0
M  V30 3524 H 343.472 1.29558 1.58353 0
M  V30 3525 H 343.482 0.853373 3.98976 0
M  V30 3526 H 342.157 1.95996 3.66822 0
M  V30 3527 H 340.734 0.12943 3.72675 0
M  V30 3528 N 342.919 -1.39368 0.735821 0
M  V30 3529 C 344.144 -2.05319 0.293052 0
M  V30 3530 C 344.569 -1.55115 -1.064 0
M  V30 3531 O 343.927 -0.695261 -1.67439 0
M  V30 3532 C 343.975 -3.59305 0.305323 0
M  V30 3533 O 343.079 -4.06299 -0.706761 0
M  V30 3534 H 342.42 -0.650529 0.13307 0
M  V30 3535 H 344.95 -1.78386 1.00197 0
M  V30 3536 H 344.96 -4.07724 0.149997 0
M  V30 3537 H 343.635 -3.95207 1.29553 0
M  V30 3538 H 342.212 -3.69292 -0.517504 0
M  V30 3539 N 344.397 -0.483516 -1.5 0
M  V30 3540 C 345.643 0.0672592 -2.02688 0
M  V30 3541 C 345.976 1.38247 -1.36387 0
M  V30 3542 O 345.251 1.88131 -0.493675 0
M  V30 3543 C 345.534 0.238109 -3.59312 0
M  V30 3544 C 345.387 -1.099 -4.36168 0
M  V30 3545 C 346.706 0.986916 -4.28892 0
M  V30 3546 H 343.825 0.0229696 -0.736642 0
M  V30 3547 H 346.467 -0.631527 -1.79197 0
M  V30 3548 H 344.617 0.8333 -3.79458 0
M  V30 3549 H 346.289 -1.73172 -4.27562 0
M  V30 3550 H 344.532 -1.69261 -3.99416 0
M  V30 3551 H 345.203 -0.932954 -5.44059 0
M  V30 3552 H 347.679 0.482302 -4.13295 0
M  V30 3553 H 346.555 1.07527 -5.38265 0
M  V30 3554 H 346.816 2.0265 -3.92919 0
M  V30 3555 N 345.875 1.56104 -0.216619 0
M  V30 3556 C 347.152 1.89988 0.465165 0
M  V30 3557 C 347.532 1.13326 1.78102 0
M  V30 3558 O 346.88 0.241033 2.27225 0
M  V30 3559 C 347.09 3.42646 0.662939 0
M  V30 3560 C 348.438 4.13311 0.972602 0
M  V30 3561 O 349.462 3.48217 0.749901 0
M  V30 3562 O 348.321 5.28396 1.39499 0
M  V30 3563 H 345.415 0.78979 0.245276 0
M  V30 3564 H 347.961 1.67721 -0.258436 0
M  V30 3565 H 346.733 3.90399 -0.26543 0
M  V30 3566 H 346.356 3.70677 1.43821 0
M  V30 3567 N 347.353 -0.0568162 1.57498 0
M  V30 3568 C 348.599 -0.75422 1.88253 0
M  V30 3569 C 348.932 -1.76461 0.810865 0
M  V30 3570 O 348.207 -1.93691 -0.177259 0
M  V30 3571 C 348.49 -1.44878 3.2967 0
M  V30 3572 C 348.343 -0.453789 4.47505 0
M  V30 3573 C 349.662 -2.38994 3.69554 0
M  V30 3574 H 346.781 -0.272724 0.684683 0
M  V30 3575 H 349.423 -0.0172113 1.89992 0
M  V30 3576 H 347.573 -2.077 3.28318 0
M  V30 3577 H 349.245 0.170371 4.60985 0
M  V30 3578 H 347.488 0.229552 4.33192 0
M  V30 3579 H 348.159 -0.977699 5.43273 0
M  V30 3580 H 350.635 -1.86239 3.72095 0
M  V30 3581 H 349.511 -2.84587 4.69363 0
M  V30 3582 H 349.772 -3.24461 3.00296 0
M  V30 3583 N 348.832 -1.54138 -0.328536 0
M  V30 3584 C 350.062 -1.75807 -1.08516 0
M  V30 3585 C 350.47 -0.50428 -1.82356 0
M  V30 3586 O 349.813 0.534451 -1.75754 0
M  V30 3587 C 349.875 -2.89423 -2.13248 0
M  V30 3588 C 349.539 -4.28504 -1.5885 0
M  V30 3589 C 350.536 -5.09536 -1.03289 0
M  V30 3590 C 348.221 -4.75034 -1.63243 0
M  V30 3591 C 350.215 -6.35206 -0.52845 0
M  V30 3592 C 347.902 -6.00672 -1.12411 0
M  V30 3593 C 348.9 -6.80592 -0.573062 0
M  V30 3594 O 348.588 -8.03867 -0.0723692 0
M  V30 3595 H 348.32 -0.590633 -0.328829 0
M  V30 3596 H 350.874 -2.01819 -0.381868 0
M  V30 3597 H 349.104 -2.5897 -2.87178 0
M  V30 3598 H 350.793 -2.98921 -2.74592 0
M  V30 3599 H 351.559 -4.74745 -0.99206 0
M  V30 3600 H 347.438 -4.12875 -2.05074 0
M  V30 3601 H 350.982 -6.97532 -0.0976774 0
M  V30 3602 H 346.879 -6.34955 -1.162 0
M  V30 3603 H 347.647 -8.18283 -0.188258 0
M  V30 3604 N 350.31 0.590341 -1.46126 0
M  V30 3605 C 351.24 1.71032 -1.58966 0
M  V30 3606 C 352.221 1.64302 -0.440335 0
M  V30 3607 O 353.406 1.82436 -0.665634 0
M  V30 3608 C 350.536 3.09665 -1.57241 0
M  V30 3609 C 349.49 3.31221 -2.71066 0
M  V30 3610 C 348.816 4.70303 -2.54399 0
M  V30 3611 C 350.116 3.19796 -4.1295 0
M  V30 3612 H 351.81 1.60543 -2.52718 0
M  V30 3613 H 349.356 0.770933 -1.21625 0
M  V30 3614 H 351.309 3.87831 -1.64819 0
M  V30 3615 H 350.033 3.21036 -0.600289 0
M  V30 3616 H 348.692 2.55452 -2.62944 0
M  V30 3617 H 348.34 4.78429 -1.55288 0
M  V30 3618 H 348.04 4.85679 -3.30741 0
M  V30 3619 H 349.564 5.50647 -2.63857 0
M  V30 3620 H 350.978 3.87815 -4.22223 0
M  V30 3621 H 349.375 3.46696 -4.89818 0
M  V30 3622 H 350.445 2.16983 -4.33643 0
M  V30 3623 N 351.788 1.33704 0.83433 0
M  V30 3624 C 352.735 1.24335 1.94447 0
M  V30 3625 C 353.705 0.120991 1.65659 0
M  V30 3626 O 354.89 0.300035 1.88426 0
M  V30 3627 C 352.03 0.993124 3.30501 0
M  V30 3628 C 351.143 2.20217 3.71657 0
M  V30 3629 C 350.278 1.88572 4.96602 0
M  V30 3630 C 349.317 3.05683 5.30306 0
M  V30 3631 N 348.454 2.73997 6.46429 0
M  V30 3632 H 353.294 2.1928 2.01792 0
M  V30 3633 H 350.831 1.09035 0.987404 0
M  V30 3634 H 352.789 0.828467 4.08892 0
M  V30 3635 H 351.419 0.0803902 3.227 0
M  V30 3636 H 350.471 2.47642 2.88752 0
M  V30 3637 H 351.783 3.07752 3.92543 0
M  V30 3638 H 350.937 1.68776 5.82752 0
M  V30 3639 H 349.676 0.982799 4.77695 0
M  V30 3640 H 348.681 3.26088 4.42659 0
M  V30 3641 H 349.906 3.96737 5.51159 0
M  V30 3642 H 347.852 1.86268 6.28999 0
M  V30 3643 H 347.769 3.55064 6.67432 0
M  V30 3644 H 349.037 2.57679 7.35678 0
M  V30 3645 N 353.266 -1.05314 1.17247 0
M  V30 3646 C 354.543 -1.75184 0.87005 0
M  V30 3647 C 354.923 -2.01481 -0.629965 0
M  V30 3648 O 354.271 -1.64988 -1.58086 0
M  V30 3649 C 354.481 -3.04594 1.70363 0
M  V30 3650 C 355.829 -3.78567 1.92281 0
M  V30 3651 O 356.853 -3.14461 1.67311 0
M  V30 3652 O 355.712 -4.93755 2.3424 0
M  V30 3653 H 352.806 -0.761729 0.322021 0
M  V30 3654 H 355.352 -1.11493 1.27935 0
M  V30 3655 H 354.124 -2.81201 2.72106 0
M  V30 3656 H 353.747 -3.76022 1.29202 0
M  V30 3657 N 354.744 -0.972509 -1.24016 0
M  V30 3658 C 355.707 -0.511403 -2.23422 0
M  V30 3659 C 356.707 0.394679 -1.55881 0
M  V30 3660 O 357.897 0.189469 -1.73167 0
M  V30 3661 C 355.029 0.258769 -3.39916 0
M  V30 3662 H 356.222 -1.39024 -2.6573 0
M  V30 3663 H 353.775 -0.757585 -1.36713 0
M  V30 3664 H 354.51 1.1545 -3.03054 0
M  V30 3665 H 354.295 -0.391522 -3.9014 0
M  V30 3666 H 355.785 0.570244 -4.13688 0
M  V30 3667 N 356.222 1.38976 -0.743202 0
M  V30 3668 C 357.471 1.99581 -0.291592 0
M  V30 3669 C 357.784 1.59656 1.13001 0
M  V30 3670 O 358.99 2.13157 1.68156 0
M  V30 3671 C 357.446 3.56813 -0.470391 0
M  V30 3672 C 357.054 4.05695 -1.90041 0
M  V30 3673 C 358.798 4.24423 -0.0809709 0
M  V30 3674 C 356.705 5.5553 -2.02832 0
M  V30 3675 H 355.635 0.746615 -0.105272 0
M  V30 3676 H 358.286 1.58872 -0.918258 0
M  V30 3677 H 356.668 3.95359 0.225299 0
M  V30 3678 H 357.842 3.78464 -2.62872 0
M  V30 3679 H 356.157 3.50775 -2.24379 0
M  V30 3680 H 358.754 5.34474 -0.155445 0
M  V30 3681 H 359.097 4.04962 0.96497 0
M  V30 3682 H 359.63 3.9108 -0.728124 0
M  V30 3683 H 356.369 5.79881 -3.05643 0
M  V30 3684 H 355.889 5.84537 -1.34448 0
M  V30 3685 H 357.568 6.21069 -1.81335 0
M  V30 3686 N 357.7 0.491464 1.49741 0
M  V30 3687 C 358.647 -0.292027 2.28945 0
M  V30 3688 C 359.617 -0.968973 1.34908 0
M  V30 3689 O 360.802 -0.97748 1.6386 0
M  V30 3690 C 357.942 -1.35617 3.17336 0
M  V30 3691 C 357.055 -0.691957 4.26422 0
M  V30 3692 C 356.19 -1.73572 5.02042 0
M  V30 3693 C 355.229 -1.05286 6.02977 0
M  V30 3694 N 354.366 -2.0404 6.71798 0
M  V30 3695 H 359.206 0.389654 2.95442 0
M  V30 3696 H 356.743 0.204003 1.45679 0
M  V30 3697 H 358.701 -1.98502 3.66951 0
M  V30 3698 H 357.331 -2.00674 2.52844 0
M  V30 3699 H 356.383 0.0499523 3.80367 0
M  V30 3700 H 357.695 -0.153946 4.98562 0
M  V30 3701 H 356.849 -2.43987 5.55478 0
M  V30 3702 H 355.588 -2.30757 4.29654 0
M  V30 3703 H 354.593 -0.334446 5.48782 0
M  V30 3704 H 355.818 -0.487636 6.77347 0
M  V30 3705 H 353.764 -2.60205 6.02187 0
M  V30 3706 H 353.681 -1.55279 7.39881 0
M  V30 3707 H 354.949 -2.73772 7.29842 0
M  V30 3708 N 359.178 -1.55987 0.224894 0
M  V30 3709 C 360.111 -2.16413 -0.723929 0
M  V30 3710 C 361.089 -1.10952 -1.18863 0
M  V30 3711 O 362.273 -1.39225 -1.27077 0
M  V30 3712 C 359.4 -2.74711 -1.98121 0
M  V30 3713 C 358.446 -3.9303 -1.6562 0
M  V30 3714 S 359.279 -5.29817 -0.778058 0
M  V30 3715 C 360.435 -5.91555 -2.04483 0
M  V30 3716 H 360.668 -2.96555 -0.210347 0
M  V30 3717 H 358.201 -1.54397 0.00955457 0
M  V30 3718 H 360.159 -3.08938 -2.70311 0
M  V30 3719 H 358.82 -1.94555 -2.46591 0
M  V30 3720 H 358.013 -4.32334 -2.59043 0
M  V30 3721 H 357.615 -3.59966 -1.01491 0
M  V30 3722 H 359.907 -6.07732 -2.99446 0
M  V30 3723 H 360.85 -6.87498 -1.69563 0
M  V30 3724 H 361.258 -5.20419 -2.18688 0
M  V30 3725 N 360.656 0.0484629 -1.57525 0
M  V30 3726 C 361.902 0.738854 -1.89506 0
M  V30 3727 C 362.257 1.73989 -0.821319 0
M  V30 3728 O 361.55 1.90825 0.172129 0
M  V30 3729 C 361.744 1.46632 -3.25935 0
M  V30 3730 C 361.573 0.537254 -4.46479 0
M  V30 3731 C 360.343 0.165484 -5.05029 0
M  V30 3732 C 362.541 -0.176085 -5.13998 0
M  V30 3733 N 360.523 -0.766868 -6.09091 0
M  V30 3734 C 361.894 -0.96478 -6.12448 0
M  V30 3735 C 363.949 -0.24509 -4.97296 0
M  V30 3736 C 362.652 -1.8161 -6.95996 0
M  V30 3737 C 364.678 -1.08347 -5.81391 0
M  V30 3738 C 364.04 -1.86014 -6.79395 0
M  V30 3739 H 360.139 0.245067 -0.742608 0
M  V30 3740 H 362.723 -0.000476161 -1.947 0
M  V30 3741 H 360.894 2.17623 -3.21706 0
M  V30 3742 H 362.626 2.10757 -3.45491 0
M  V30 3743 H 359.381 0.523466 -4.70698 0
M  V30 3744 H 359.805 -1.22698 -6.65788 0
M  V30 3745 H 364.447 0.341063 -4.21422 0
M  V30 3746 H 362.165 -2.41313 -7.71229 0
M  V30 3747 H 365.751 -1.14014 -5.70519 0
M  V30 3748 H 364.631 -2.4984 -7.43337 0
M  V30 3749 N 362.134 1.5431 0.320358 0
M  V30 3750 C 363.064 1.86912 1.3995 0
M  V30 3751 C 364.045 0.726211 1.53819 0
M  V30 3752 O 365.23 0.980233 1.67646 0
M  V30 3753 C 362.36 2.09932 2.7667 0
M  V30 3754 C 361.314 3.25776 2.77586 0
M  V30 3755 C 360.64 3.34173 4.17412 0
M  V30 3756 C 361.94 4.6335 2.41048 0
M  V30 3757 H 363.634 2.77292 1.12914 0
M  V30 3758 H 361.18 1.33421 0.541738 0
M  V30 3759 H 363.133 2.31324 3.52232 0
M  V30 3760 H 361.857 1.16304 3.0519 0
M  V30 3761 H 360.516 3.04276 2.04479 0
M  V30 3762 H 360.164 2.38098 4.43078 0
M  V30 3763 H 359.864 4.12033 4.18931 0
M  V30 3764 H 361.388 3.57803 4.94782 0
M  V30 3765 H 362.802 4.84602 3.06324 0
M  V30 3766 H 361.199 5.43782 2.53813 0
M  V30 3767 H 362.269 4.65381 1.36193 0
M  V30 3768 N 363.613 -0.582584 1.46437 0
M  V30 3769 C 364.89 -1.34276 1.4223 0
M  V30 3770 C 365.27 -2.10835 0.10583 0
M  V30 3771 O 364.618 -2.09485 -0.912596 0
M  V30 3772 C 364.828 -2.26865 2.65204 0
M  V30 3773 C 366.176 -2.88691 3.11356 0
M  V30 3774 O 367.2 -2.37178 2.65753 0
M  V30 3775 O 366.059 -3.82255 3.90568 0
M  V30 3776 H 363.153 -0.603326 0.565621 0
M  V30 3777 H 365.699 -0.603591 1.58603 0
M  V30 3778 H 364.471 -1.69724 3.52576 0
M  V30 3779 H 364.094 -3.08122 2.5129 0
M  V30 3780 N 365.091 -1.34144 -0.827227 0
M  V30 3781 C 366.021 -1.28005 -1.95287 0
M  V30 3782 C 367.002 -0.158321 -1.69362 0
M  V30 3783 O 368.187 -0.349987 -1.9102 0
M  V30 3784 C 365.317 -1.03036 -3.31664 0
M  V30 3785 C 364.271 -2.11628 -3.72019 0
M  V30 3786 C 363.597 -1.71854 -5.0633 0
M  V30 3787 C 364.897 -3.53417 -3.8457 0
M  V30 3788 H 366.591 -2.22187 -2.00682 0
M  V30 3789 H 364.137 -1.0696 -0.964135 0
M  V30 3790 H 366.09 -0.973863 -4.09993 0
M  V30 3791 H 364.814 -0.0529391 -3.26557 0
M  V30 3792 H 363.473 -2.16339 -2.95961 0
M  V30 3793 H 363.121 -0.727841 -4.97706 0
M  V30 3794 H 362.821 -2.44531 -5.34302 0
M  V30 3795 H 364.345 -1.67692 -5.87122 0
M  V30 3796 H 365.759 -3.51142 -4.5318 0
M  V30 3797 H 364.156 -4.24679 -4.2399 0
M  V30 3798 H 365.226 -3.91072 -2.86689 0
M  V30 3799 N 366.569 1.04691 -1.17803 0
M  V30 3800 C 367.817 1.7743 -0.967617 0
M  V30 3801 C 368.138 1.88359 0.504574 0
M  V30 3802 O 367.408 1.40402 1.36617 0
M  V30 3803 H 365.988 0.657242 -0.355024 0
M  V30 3804 H 368.65 1.2638 -1.48371 0
M  V30 3805 H 367.746 2.78924 -1.40027 0
M  V30 3806 N 368.047 0.979072 1.23499 0
M  V30 3807 C 369.293 0.648178 1.92163 0
M  V30 3808 C 369.626 -0.816049 1.76222 0
M  V30 3809 O 368.901 -1.58849 1.12237 0
M  V30 3810 C 369.184 1.03773 3.44824 0
M  V30 3811 C 369.037 2.55948 3.69879 0
M  V30 3812 C 370.356 0.580653 4.36253 0
M  V30 3813 H 367.475 0.236952 0.69787 0
M  V30 3814 H 370.117 1.22012 1.45647 0
M  V30 3815 H 368.267 0.551058 3.84572 0
M  V30 3816 H 369.939 3.12179 3.3962 0
M  V30 3817 H 368.182 2.98641 3.14636 0
M  V30 3818 H 368.853 2.78255 4.76737 0
M  V30 3819 H 371.329 0.998465 4.03943 0
M  V30 3820 H 370.205 0.881663 5.41773 0
M  V30 3821 H 370.466 -0.519052 4.39042 0
M  V30 3822 N 369.525 -1.3858 0.750561 0
M  V30 3823 C 370.802 -1.94231 0.231009 0
M  V30 3824 C 371.182 -1.68611 -1.27018 0
M  V30 3825 O 370.53 -1.02296 -2.04323 0
M  V30 3826 C 370.74 -3.44123 0.581428 0
M  V30 3827 C 372.088 -4.2116 0.539389 0
M  V30 3828 O 373.112 -3.52391 0.519541 0
M  V30 3829 O 371.971 -5.43749 0.54765 0
M  V30 3830 H 369.065 -0.825639 0.0474263 0
M  V30 3831 H 371.611 -1.4799 0.830478 0
M  V30 3832 H 370.383 -3.56267 1.61833 0
M  V30 3833 H 370.006 -3.97573 -0.0462047 0
M  V30 3834 N 371.003 -0.499398 -1.49478 0
M  V30 3835 C 372.251 0.0455996 -2.02049 0
M  V30 3836 C 372.572 1.37633 -1.38138 0
M  V30 3837 O 371.842 1.8842 -0.536166 0
M  V30 3838 H 370.422 0.0198416 -0.746736 0
M  V30 3839 H 373.084 -0.656274 -1.83519 0
M  V30 3840 H 372.18 0.176445 -3.11601 0
M  V30 3841 N 372.481 1.55866 -0.233164 0
M  V30 3842 C 373.73 1.97779 0.39579 0
M  V30 3843 C 374.043 1.12419 1.60066 0
M  V30 3844 O 375.249 1.44283 2.29988 0
M  V30 3845 C 373.705 3.5188 0.755556 0
M  V30 3846 C 373.313 4.45959 -0.427152 0
M  V30 3847 C 375.057 4.02479 1.34946 0
M  V30 3848 C 372.964 5.91383 -0.0443043 0
M  V30 3849 H 371.894 0.738592 0.15165 0
M  V30 3850 H 374.545 1.80486 -0.331212 0
M  V30 3851 H 372.927 3.64816 1.5403 0
M  V30 3852 H 374.101 4.44776 -1.20462 0
M  V30 3853 H 372.416 4.05765 -0.935068 0
M  V30 3854 H 375.013 5.08637 1.649 0
M  V30 3855 H 375.356 3.49014 2.26925 0
M  V30 3856 H 375.889 3.92813 0.62791 0
M  V30 3857 H 372.628 6.48857 -0.930874 0
M  V30 3858 H 372.148 5.95734 0.697238 0
M  V30 3859 H 373.827 6.45893 0.378334 0
M  V30 3860 N 373.959 -0.0401083 1.57549 0
M  V30 3861 C 375.375 -0.395556 1.54621 0
M  V30 3862 C 375.575 -1.77281 0.957799 0
M  V30 3863 O 374.631 -2.45888 0.574031 0
M  V30 3864 C 375.944 -0.307535 2.99123 0
M  V30 3865 C 377.492 -0.385425 3.10618 0
M  V30 3866 C 377.967 -0.326973 4.56831 0
M  V30 3867 N 379.458 -0.386102 4.61588 0
M  V30 3868 C 380.193 -0.363591 5.72246 0
M  V30 3869 N 379.689 -0.29402 6.92176 0
M  V30 3870 N 381.482 -0.412503 5.60584 0
M  V30 3871 H 373.633 0.861325 1.94152 0
M  V30 3872 H 375.896 0.326445 0.890021 0
M  V30 3873 H 375.602 0.638461 3.45856 0
M  V30 3874 H 375.476 -1.10552 3.60636 0
M  V30 3875 H 377.863 -1.32185 2.63839 0
M  V30 3876 H 377.944 0.44171 2.51957 0
M  V30 3877 H 377.588 0.605738 5.04275 0
M  V30 3878 H 377.518 -1.17207 5.13391 0
M  V30 3879 H 380.009 -0.442832 3.75296 0
M  V30 3880 H 380.322 -0.28164 7.72287 0
M  V30 3881 H 378.667 -0.260232 6.94513 0
M  V30 3882 H 381.858 -0.464769 4.65787 0
M  V30 3883 H 382.031 -0.391492 6.46816 0
M  V30 3884 N 375.437 -1.54477 -0.31217 0
M  V30 3885 C 376.683 -1.73483 -1.0503 0
M  V30 3886 C 377.016 -0.513125 -1.87298 0
M  V30 3887 O 376.291 0.489864 -1.8823 0
M  V30 3888 C 376.574 -3.01723 -1.96558 0
M  V30 3889 C 376.427 -4.3417 -1.17545 0
M  V30 3890 C 377.746 -3.25772 -2.95907 0
M  V30 3891 H 374.865 -0.631222 -0.380432 0
M  V30 3892 H 377.507 -1.87184 -0.325932 0
M  V30 3893 H 375.657 -2.90174 -2.58324 0
M  V30 3894 H 377.329 -4.5762 -0.581513 0
M  V30 3895 H 375.572 -4.31159 -0.477925 0
M  V30 3896 H 376.243 -5.20143 -1.84811 0
M  V30 3897 H 378.719 -3.36857 -2.44267 0
M  V30 3898 H 377.595 -4.16838 -3.57123 0
M  V30 3899 H 377.856 -2.43537 -3.68974 0
M  V30 3900 N 376.915 0.57481 -1.46744 0
M  V30 3901 C 378.192 1.3352 -1.4294 0
M  V30 3902 C 378.572 2.10775 -0.117009 0
M  V30 3903 O 377.92 2.09966 0.901474 0
M  V30 3904 C 378.13 2.25456 -2.66403 0
M  V30 3905 C 379.478 2.87035 -3.12883 0
M  V30 3906 O 380.502 2.35766 -2.67007 0
M  V30 3907 O 379.361 3.80179 -3.92589 0
M  V30 3908 H 376.455 0.600318 -0.568812 0
M  V30 3909 H 379.001 0.595171 -1.58921 0
M  V30 3910 H 377.773 1.67851 -3.53471 0
M  V30 3911 H 377.396 3.06785 -2.52921 0
M  V30 3912 N 378.394 1.34581 0.820102 0
M  V30 3913 C 379.357 1.2628 1.91275 0
M  V30 3914 C 380.357 0.177344 1.59819 0
M  V30 3915 O 381.547 0.430156 1.68806 0
M  V30 3916 C 378.679 0.950327 3.27386 0
M  V30 3917 H 379.872 2.23421 2.00057 0
M  V30 3918 H 377.425 1.1891 1.0144 0
M  V30 3919 H 378.16 -0.0177938 3.24295 0
M  V30 3920 H 377.945 1.73549 3.51601 0
M  V30 3921 H 379.435 0.917492 4.07396 0
M  V30 3922 N 379.872 -1.04064 1.18357 0
M  V30 3923 C 381.118 -1.77528 0.980397 0
M  V30 3924 C 381.451 -1.87948 -0.48879 0
M  V30 3925 O 380.726 -1.3876 -1.36293 0
M  V30 3926 C 381.009 -3.20797 1.63588 0
M  V30 3927 C 380.862 -3.1832 3.17793 0
M  V30 3928 C 382.181 -4.18911 1.34914 0
M  V30 3929 H 379.3 -0.644443 0.357578 0
M  V30 3930 H 381.942 -1.2156 1.46024 0
M  V30 3931 H 380.092 -3.68586 1.22788 0
M  V30 3932 H 381.764 -2.78521 3.67728 0
M  V30 3933 H 380.007 -2.56351 3.49952 0
M  V30 3934 H 380.678 -4.19489 3.58794 0
M  V30 3935 H 383.154 -3.7967 1.70265 0
M  V30 3936 H 382.03 -5.17374 1.83346 0
M  V30 3937 H 382.291 -4.41262 0.272027 0
M  V30 3938 N 381.35 -0.985608 -1.22978 0
M  V30 3939 C 382.297 -0.529825 -2.24636 0
M  V30 3940 C 383.267 0.434028 -1.60329 0
M  V30 3941 O 384.452 0.340414 -1.87739 0
M  V30 3942 C 381.592 0.156533 -3.44745 0
M  V30 3943 C 380.705 -0.848197 -4.23591 0
M  V30 3944 C 379.84 -0.136109 -5.31026 0
M  V30 3945 C 378.879 -1.1297 -6.01585 0
M  V30 3946 N 378.016 -0.446415 -7.00679 0
M  V30 3947 H 382.856 -1.40148 -2.62988 0
M  V30 3948 H 380.393 -0.702168 -1.29259 0
M  V30 3949 H 382.351 0.571324 -4.1327 0
M  V30 3950 H 380.981 0.992025 -3.07179 0
M  V30 3951 H 380.033 -1.38135 -3.54433 0
M  V30 3952 H 381.345 -1.60512 -4.72268 0
M  V30 3953 H 380.499 0.335784 -6.0577 0
M  V30 3954 H 379.238 0.653373 -4.83304 0
M  V30 3955 H 378.243 -1.6123 -5.25628 0
M  V30 3956 H 379.468 -1.91993 -6.51395 0
M  V30 3957 H 377.414 0.323763 -6.55201 0
M  V30 3958 H 377.331 -1.1419 -7.47326 0
M  V30 3959 H 378.599 0.00291697 -7.795 0
M  V30 3960 N 382.828 1.3818 -0.7579 0
M  V30 3961 C 383.778 2.27741 -0.108674 0
M  V30 3962 C 384.762 1.45415 0.688709 0
M  V30 3963 O 385.954 1.68108 0.553956 0
M  V30 3964 C 383.083 3.34313 0.780367 0
M  V30 3965 C 382.169 4.24093 -0.0240977 0
M  V30 3966 N 382.56 4.9451 -1.06271 0
M  V30 3967 C 380.858 4.45542 0.202049 0
M  V30 3968 C 381.559 5.60675 -1.54979 0
M  V30 3969 N 380.535 5.36684 -0.864348 0
M  V30 3970 H 384.337 2.79649 -0.904071 0
M  V30 3971 H 381.851 1.51133 -0.594346 0
M  V30 3972 H 383.848 3.97368 1.26114 0
M  V30 3973 H 382.508 2.83962 1.57467 0
M  V30 3974 H 383.519 4.97345 -1.44459 0
M  V30 3975 H 380.196 4.06091 0.96935 0
M  V30 3976 H 381.586 6.26992 -2.41517 0
M  V30 3977 N 384.306 0.507319 1.49211 0
M  V30 3978 C 385.239 -0.314509 2.26022 0
M  V30 3979 C 386.217 -0.964849 1.30879 0
M  V30 3980 O 387.401 -0.993707 1.6018 0
M  V30 3981 C 384.528 -1.44346 3.06402 0
M  V30 3982 C 383.574 -0.90685 4.16748 0
M  V30 3983 S 384.407 0.207392 5.35098 0
M  V30 3984 C 385.563 -0.924573 6.19033 0
M  V30 3985 H 385.796 0.337416 2.95379 0
M  V30 3986 H 383.329 0.292718 1.516 0
M  V30 3987 H 385.287 -2.09029 3.53295 0
M  V30 3988 H 383.948 -2.06702 2.36502 0
M  V30 3989 H 383.141 -1.75309 4.72528 0
M  V30 3990 H 382.743 -0.33712 3.72478 0
M  V30 3991 H 385.035 -1.82839 6.52362 0
M  V30 3992 H 385.978 -0.405248 7.06939 0
M  V30 3993 H 386.386 -1.19476 5.51712 0
M  V30 3994 N 385.784 -1.5574 0.241426 0
M  V30 3995 C 387.195 -1.84842 -0.262755 0
M  V30 3996 C 387.546 -1.16317 -1.58003 0
M  V30 3997 O 386.671 -0.439653 -2.11887 0
M  V30 3998 C 387.266 -3.35332 -0.483523 0
M  V30 3999 C 385.825 -3.6468 -0.931977 0
M  V30 4000 C 384.972 -2.77299 -0.0061151 0
M  V30 4001 H 387.923 -1.51761 0.464129 0
M  V30 4002 H 387.944 -3.56615 -1.32688 0
M  V30 4003 H 387.456 -3.85178 0.47537 0
M  V30 4004 H 385.557 -3.20307 -1.90353 0
M  V30 4005 H 385.67 -4.72498 -0.792628 0
M  V30 4006 H 384.034 -2.49408 -0.516503 0
M  V30 4007 H 384.817 -3.2995 0.948052 0
M  V30 4008 N 387.262 0.0317525 -1.57568 0
M  V30 4009 C 388.509 0.723104 -1.89149 0
M  V30 4010 C 388.837 1.75504 -0.838377 0
M  V30 4011 O 388.092 1.95037 0.160982 0
M  V30 4012 C 388.391 1.43167 -3.27472 0
M  V30 4013 C 388.057 0.535972 -4.47703 0
M  V30 4014 C 386.719 0.289262 -4.8033 0
M  V30 4015 C 389.071 -0.0826125 -5.21135 0
M  V30 4016 C 386.399 -0.584853 -5.83778 0
M  V30 4017 C 388.751 -0.944414 -6.25511 0
M  V30 4018 C 387.415 -1.20061 -6.56614 0
M  V30 4019 H 386.685 0.264602 -0.692146 0
M  V30 4020 H 389.332 -0.0169496 -1.91492 0
M  V30 4021 H 387.637 2.24497 -3.21105 0
M  V30 4022 H 389.334 1.97209 -3.49155 0
M  V30 4023 H 385.924 0.738414 -4.22191 0
M  V30 4024 H 390.108 0.0950302 -4.96209 0
M  V30 4025 H 385.364 -0.79168 -6.06253 0
M  V30 4026 H 389.538 -1.43026 -6.81554 0
M  V30 4027 H 387.165 -1.87967 -7.36595 0
M  V30 4028 N 388.74 1.54641 0.303973 0
M  V30 4029 C 389.988 1.73437 1.0375 0
M  V30 4030 C 390.309 0.521449 1.87899 0
M  V30 4031 O 389.579 -0.46432 1.90318 0
M  V30 4032 H 388.159 0.639518 0.386039 0
M  V30 4033 H 390.821 1.91988 0.335675 0
M  V30 4034 H 389.917 2.62235 1.69231 0
M  V30 4035 N 390.218 -0.567019 1.47046 0
M  V30 4036 C 391.464 -1.32434 1.54379 0
M  V30 4037 C 391.819 -1.91365 0.199276 0
M  V30 4038 O 391.112 -1.74378 -0.793915 0
M  V30 4039 C 391.306 -2.4623 2.59047 0
M  V30 4040 C 391.135 -1.98448 4.03545 0
M  V30 4041 C 389.905 -1.82741 4.71098 0
M  V30 4042 C 392.103 -1.53477 4.90866 0
M  V30 4043 N 390.085 -1.29196 6.00151 0
M  V30 4044 C 391.456 -1.1163 6.09868 0
M  V30 4045 C 393.511 -1.41438 4.77388 0
M  V30 4046 C 392.214 -0.589425 7.16881 0
M  V30 4047 C 394.24 -0.901528 5.84488 0
M  V30 4048 C 393.602 -0.492932 7.02673 0
M  V30 4049 H 389.701 -0.477005 0.61967 0
M  V30 4050 H 392.285 -0.643856 1.83746 0
M  V30 4051 H 390.456 -3.11821 2.31564 0
M  V30 4052 H 392.188 -3.13213 2.56281 0
M  V30 4053 H 388.943 -2.05162 4.26855 0
M  V30 4054 H 389.367 -1.0454 6.6888 0
M  V30 4055 H 394.009 -1.71643 3.86392 0
M  V30 4056 H 391.727 -0.274994 8.07632 0
M  V30 4057 H 395.313 -0.812071 5.76105 0
M  V30 4058 H 394.193 -0.102227 7.84133 0
M  V30 4059 N 391.696 -1.35014 -0.812953 0
M  V30 4060 C 392.628 -1.23262 -1.93233 0
M  V30 4061 C 393.641 -0.157371 -1.62038 0
M  V30 4062 O 394.83 -0.410096 -1.73725 0
M  V30 4063 C 391.93 -0.87392 -3.27438 0
M  V30 4064 C 391.103 -2.04622 -3.86586 0
M  V30 4065 C 390.162 -1.66432 -4.99186 0
M  V30 4066 O 389.188 -2.38222 -5.16951 0
M  V30 4067 N 390.39 -0.584248 -5.77552 0
M  V30 4068 H 393.155 -2.19699 -2.03844 0
M  V30 4069 H 390.716 -1.281 -0.99005 0
M  V30 4070 H 392.708 -0.600039 -4.00227 0
M  V30 4071 H 391.278 0.00057392 -3.126 0
M  V30 4072 H 390.498 -2.48427 -3.06068 0
M  V30 4073 H 391.786 -2.82999 -4.22835 0
M  V30 4074 H 391.184 0.0123526 -5.65699 0
M  V30 4075 H 389.741 -0.37013 -6.50748 0
M  V30 4076 N 393.175 1.03435 -1.18907 0
M  V30 4077 C 394.122 2.11591 -0.921837 0
M  V30 4078 C 395.092 1.65499 0.141226 0
M  V30 4079 O 396.277 1.908 0.000242829 0
M  V30 4080 C 393.417 3.42012 -0.460616 0
M  V30 4081 C 392.53 4.01682 -1.58982 0
M  V30 4082 C 391.665 5.20091 -1.08069 0
M  V30 4083 C 390.704 5.71805 -2.18416 0
M  V30 4084 N 389.841 6.81494 -1.68849 0
M  V30 4085 H 394.681 2.33787 -1.8479 0
M  V30 4086 H 392.218 1.1467 -0.921373 0
M  V30 4087 H 394.176 4.16834 -0.174642 0
M  V30 4088 H 392.806 3.19944 0.428467 0
M  V30 4089 H 391.858 3.24127 -1.99113 0
M  V30 4090 H 393.17 4.36084 -2.4214 0
M  V30 4091 H 392.324 6.02051 -0.749615 0
M  V30 4092 H 391.063 4.87209 -0.218771 0
M  V30 4093 H 390.068 4.88461 -2.5236 0
M  V30 4094 H 391.293 6.06728 -3.05054 0
M  V30 4095 H 389.239 6.50475 -0.849572 0
M  V30 4096 H 389.156 7.14994 -2.45601 0
M  V30 4097 H 390.424 7.67063 -1.38689 0
M  V30 4098 N 394.653 0.992116 1.22453 0
M  V30 4099 C 395.878 0.685644 1.95739 0
M  V30 4100 C 396.303 -0.743 1.72804 0
M  V30 4101 O 395.661 -1.50778 1.00676 0
M  V30 4102 C 395.709 0.996293 3.46564 0
M  V30 4103 O 394.813 0.0945512 4.12292 0
M  V30 4104 H 394.154 0.256694 0.612376 0
M  V30 4105 H 396.684 1.32888 1.5557 0
M  V30 4106 H 396.694 0.93781 3.97076 0
M  V30 4107 H 395.369 2.03733 3.62582 0
M  V30 4108 H 393.946 0.208451 3.72317 0
M  V30 4109 N 396.131 -1.37776 0.765217 0
M  V30 4110 C 397.378 -1.99849 0.326588 0
M  V30 4111 C 397.706 -1.60746 -1.09504 0
M  V30 4112 O 396.961 -0.84202 -1.76659 0
M  V30 4113 C 397.26 -3.5504 0.410053 0
M  V30 4114 C 396.926 -4.13891 1.78899 0
M  V30 4115 C 395.588 -4.29678 2.16635 0
M  V30 4116 C 397.94 -4.46236 2.69301 0
M  V30 4117 C 395.268 -4.7511 3.44221 0
M  V30 4118 C 397.62 -4.93089 3.9629 0
M  V30 4119 C 396.284 -5.07082 4.34078 0
M  V30 4120 H 395.554 -0.7313 0.119507 0
M  V30 4121 H 398.201 -1.64645 0.977968 0
M  V30 4122 H 396.506 -3.90451 -0.324878 0
M  V30 4123 H 398.203 -4.00966 0.0520699 0
M  V30 4124 H 394.793 -4.02026 1.48569 0
M  V30 4125 H 398.977 -4.3363 2.41409 0
M  V30 4126 H 394.233 -4.84129 3.73402 0
M  V30 4127 H 398.407 -5.17084 4.66472 0
M  V30 4128 H 396.034 -5.42046 5.33001 0
M  V30 4129 N 397.609 -0.515225 -1.4894 0
M  V30 4130 C 398.542 0.302518 -2.26186 0
M  V30 4131 C 399.52 0.957895 -1.31389 0
M  V30 4132 O 400.704 0.985198 -1.60705 0
M  V30 4133 C 397.831 1.42719 -3.07163 0
M  V30 4134 C 396.877 0.884736 -4.17223 0
M  V30 4135 S 397.71 -0.235767 -5.34981 0
M  V30 4136 C 398.866 0.891731 -6.19515 0
M  V30 4137 H 399.099 -0.353076 -2.95196 0
M  V30 4138 H 396.632 -0.300753 -1.51443 0
M  V30 4139 H 398.59 2.07152 -3.54398 0
M  V30 4140 H 397.251 2.05445 -2.37595 0
M  V30 4141 H 396.444 1.72801 -4.73451 0
M  V30 4142 H 396.046 0.317362 -3.72651 0
M  V30 4143 H 398.338 1.79377 -6.53322 0
M  V30 4144 H 399.281 0.367751 -7.07144 0
M  V30 4145 H 399.689 1.16548 -5.52338 0
M  V30 4146 N 399.087 1.5561 -0.249682 0
M  V30 4147 C 400.05 2.20217 0.635394 0
M  V30 4148 C 401.05 1.17227 1.10066 0
M  V30 4149 O 402.24 1.42292 1.00492 0
M  V30 4150 C 399.372 2.84794 1.87363 0
M  V30 4151 H 400.565 2.99814 0.0716752 0
M  V30 4152 H 398.118 1.563 -0.000153234 0
M  V30 4153 H 398.853 2.09142 2.47851 0
M  V30 4154 H 398.638 3.60241 1.5482 0
M  V30 4155 H 400.128 3.3423 2.5036 0
M  V30 4156 N 400.565 -0.0233959 1.57583 0
M  V30 4157 C 401.793 -0.724682 1.93794 0
M  V30 4158 C 402.208 -1.68588 0.849912 0
M  V30 4159 O 401.565 -1.81676 -0.173204 0
M  V30 4160 C 401.616 -1.47684 3.29957 0
M  V30 4161 O 401.337 -0.554222 4.3458 0
M  V30 4162 C 402.838 -2.27477 3.80485 0
M  V30 4163 H 400.058 -0.203317 0.639455 0
M  V30 4164 H 402.602 0.0207653 2.04489 0
M  V30 4165 H 400.757 -2.17412 3.20641 0
M  V30 4166 H 401.171 -1.08232 5.13212 0
M  V30 4167 H 402.645 -2.7564 4.78254 0
M  V30 4168 H 403.122 -3.09144 3.11972 0
M  V30 4169 H 403.728 -1.62813 3.92902 0
M  V30 4170 N 402.043 -1.548 -0.295768 0
M  V30 4171 C 403.292 -1.73538 -1.02798 0
M  V30 4172 C 403.605 -0.531159 -1.8825 0
M  V30 4173 O 404.811 -0.600458 -2.64777 0
M  V30 4174 C 403.267 -3.07051 -1.87744 0
M  V30 4175 C 402.875 -4.34968 -1.07269 0
M  V30 4176 C 404.619 -3.35146 -2.60533 0
M  V30 4177 C 402.526 -5.5953 -1.91521 0
M  V30 4178 H 401.456 -0.646794 -0.387522 0
M  V30 4179 H 404.107 -1.81278 -0.284718 0
M  V30 4180 H 402.489 -2.93289 -2.66078 0
M  V30 4181 H 403.663 -4.5958 -0.335117 0
M  V30 4182 H 401.978 -4.13847 -0.460384 0
M  V30 4183 H 404.575 -4.2541 -3.23929 0
M  V30 4184 H 404.918 -2.54255 -3.29636 0
M  V30 4185 H 405.451 -3.49902 -1.89244 0
M  V30 4186 H 402.19 -6.43103 -1.26878 0
M  V30 4187 H 401.71 -5.39096 -2.62937 0
M  V30 4188 H 403.389 -5.96982 -2.49442 0
M  V30 4189 N 403.521 0.559213 -1.47345 0
M  V30 4190 C 404.469 1.68747 -1.60085 0
M  V30 4191 C 405.463 1.628 -0.46825 0
M  V30 4192 O 406.669 1.68009 -0.645977 0
M  V30 4193 H 403.044 0.558329 -0.503759 0
M  V30 4194 H 405.015 1.55138 -2.54902 0
M  V30 4195 C 403.764 3.07103 -1.63042 0
M  V30 4196 H 403.087 3.12361 -2.49541 0
M  V30 4197 H 404.527 3.85743 -1.76006 0
M  V30 4198 C 402.986 3.34935 -0.363357 0
M  V30 4199 O 403.516 3.98102 0.536416 0
M  V30 4200 N 401.722 2.89574 -0.244 0
M  V30 4201 H 401.269 2.38348 -0.977133 0
M  V30 4202 H 401.227 3.08566 0.602836 0
M  V30 4203 N 404.999 1.35443 0.805782 0
M  V30 4204 C 405.947 1.28465 1.93906 0
M  V30 4205 C 406.941 0.17943 1.68447 0
M  V30 4206 O 408.147 0.345459 1.76654 0
M  V30 4207 H 404.522 0.399528 0.637088 0
M  V30 4208 H 406.493 2.24206 1.96912 0
M  V30 4209 C 405.242 1.07432 3.30687 0
M  V30 4210 H 404.565 1.91716 3.50835 0
M  V30 4211 H 406.005 1.06591 4.10383 0
M  V30 4212 C 404.464 -0.22179 3.36169 0
M  V30 4213 O 404.994 -1.21731 3.82811 0
M  V30 4214 N 403.2 -0.260841 2.89427 0
M  V30 4215 H 402.747 0.549884 2.51663 0
M  V30 4216 H 402.705 -1.12777 2.93477 0
M  V30 4217 N 406.477 -1.02803 1.19454 0
M  V30 4218 C 407.707 -1.79581 1.02149 0
M  V30 4219 C 408.115 -1.84182 -0.432851 0
M  V30 4220 O 407.458 -1.28534 -1.31243 0
M  V30 4221 C 407.52 -3.25993 1.51554 0
M  V30 4222 C 407.184 -3.45025 2.99678 0
M  V30 4223 C 408.181 -3.35175 3.97434 0
M  V30 4224 C 405.866 -3.71212 3.38389 0
M  V30 4225 C 407.86 -3.51238 5.31893 0
M  V30 4226 C 405.547 -3.8692 4.73008 0
M  V30 4227 C 406.545 -3.76936 5.69569 0
M  V30 4228 O 406.233 -3.92179 7.01748 0
M  V30 4229 H 405.965 -0.571962 0.360327 0
M  V30 4230 H 408.519 -1.30367 1.58725 0
M  V30 4231 H 406.749 -3.76235 0.893543 0
M  V30 4232 H 408.438 -3.84368 1.30444 0
M  V30 4233 H 409.204 -3.14895 3.68872 0
M  V30 4234 H 405.083 -3.78075 2.6378 0
M  V30 4235 H 408.627 -3.43362 6.07247 0
M  V30 4236 H 404.524 -4.06699 5.01265 0
M  V30 4237 H 405.292 -4.09265 7.08833 0
M  V30 4238 N 407.956 -0.998596 -1.21925 0
M  V30 4239 C 408.903 -0.553621 -2.24062 0
M  V30 4240 C 409.873 0.416999 -1.6078 0
M  V30 4241 O 411.058 0.320482 -1.88089 0
M  V30 4242 C 408.198 0.119959 -3.44891 0
M  V30 4243 C 407.311 -0.893077 -4.22668 0
M  V30 4244 C 406.446 -0.192424 -5.30851 0
M  V30 4245 C 405.485 -1.19344 -6.00353 0
M  V30 4246 N 404.622 -0.520707 -7.00166 0
M  V30 4247 H 409.462 -1.4293 -2.61486 0
M  V30 4248 H 406.999 -0.715838 -1.28507 0
M  V30 4249 H 408.957 0.527459 -4.13852 0
M  V30 4250 H 407.587 0.959389 -3.08214 0
M  V30 4251 H 406.639 -1.41886 -3.52948 0
M  V30 4252 H 407.951 -1.65512 -4.70539 0
M  V30 4253 H 407.105 0.271515 -6.06092 0
M  V30 4254 H 405.844 0.602075 -4.83969 0
M  V30 4255 H 404.849 -1.66795 -5.23889 0
M  V30 4256 H 406.074 -1.98891 -6.49322 0
M  V30 4257 H 404.02 0.254252 -6.55507 0
M  V30 4258 H 403.937 -1.2211 -7.46073 0
M  V30 4259 H 405.205 -0.0797596 -7.79459 0
M  V30 4260 N 409.434 1.37368 -0.772513 0
M  V30 4261 C 410.845 1.8231 -0.402493 0
M  V30 4262 C 411.196 1.6436 1.07146 0
M  V30 4263 O 410.321 1.15514 1.82991 0
M  V30 4264 C 410.916 3.30979 -0.723776 0
M  V30 4265 C 409.475 3.74195 -0.406802 0
M  V30 4266 C 408.622 2.59885 -0.967218 0
M  V30 4267 H 411.573 1.25829 -0.967099 0
M  V30 4268 H 411.594 3.80499 -0.00870832 0
M  V30 4269 H 411.106 3.44011 -1.7966 0
M  V30 4270 H 409.207 3.66732 0.658673 0
M  V30 4271 H 409.32 4.7027 -0.915588 0
M  V30 4272 H 407.684 2.51674 -0.391416 0
M  V30 4273 H 408.467 2.7571 -2.04546 0
M  V30 4274 N 410.912 0.523116 1.48665 0
M  V30 4275 C 412.158 -0.0134963 2.02796 0
M  V30 4276 C 412.491 -1.34582 1.40004 0
M  V30 4277 O 411.766 -1.86756 0.543381 0
M  V30 4278 C 412.049 -0.14276 3.59817 0
M  V30 4279 C 411.902 1.21425 4.331 0
M  V30 4280 C 413.221 -0.872856 4.31357 0
M  V30 4281 H 410.34 -0.00343074 0.736992 0
M  V30 4282 H 412.982 0.678816 1.7746 0
M  V30 4283 H 411.132 -0.732401 3.81534 0
M  V30 4284 H 412.804 1.84447 4.2282 0
M  V30 4285 H 411.047 1.79791 3.94788 0
M  V30 4286 H 411.718 1.07687 5.41394 0
M  V30 4287 H 414.194 -0.372555 4.14429 0
M  V30 4288 H 413.07 -0.932185 5.40927 0
M  V30 4289 H 413.331 -1.92161 3.98154 0
M  V30 4290 N 412.39 -1.55475 0.257931 0
M  V30 4291 C 413.637 -1.99207 -0.363728 0
M  V30 4292 C 413.965 -1.1462 -1.57139 0
M  V30 4293 O 413.22 -0.199653 -1.94679 0
M  V30 4294 C 413.519 -3.48183 -0.806433 0
M  V30 4295 C 413.185 -4.49936 0.294684 0
M  V30 4296 C 411.847 -4.77481 0.597076 0
M  V30 4297 C 414.199 -5.10769 1.03751 0
M  V30 4298 C 411.527 -5.63132 1.64618 0
M  V30 4299 C 413.879 -5.97558 2.07622 0
M  V30 4300 C 412.543 -6.23432 2.38514 0
M  V30 4301 H 411.813 -0.728949 -0.133097 0
M  V30 4302 H 414.46 -1.8793 0.368059 0
M  V30 4303 H 412.765 -3.56848 -1.61761 0
M  V30 4304 H 414.462 -3.79415 -1.29789 0
M  V30 4305 H 411.052 -4.28572 0.0488649 0
M  V30 4306 H 415.236 -4.89527 0.817149 0
M  V30 4307 H 410.492 -5.8143 1.89074 0
M  V30 4308 H 414.666 -6.43735 2.65666 0
M  V30 4309 H 412.293 -6.89594 3.19943 0
M  V30 4310 N 413.868 0.0150385 -1.57593 0
M  V30 4311 C 415.096 0.714395 -1.94175 0
M  V30 4312 C 415.511 1.68135 -0.858841 0
M  V30 4313 O 414.868 1.81766 0.163567 0
M  V30 4314 C 414.919 1.45933 -3.30735 0
M  V30 4315 O 414.64 0.531167 -4.34868 0
M  V30 4316 C 416.141 2.25456 -3.81686 0
M  V30 4317 H 413.361 0.199923 -0.640525 0
M  V30 4318 H 415.905 -0.0316096 -2.04476 0
M  V30 4319 H 414.06 2.15709 -3.21789 0
M  V30 4320 H 414.474 1.05509 -5.13778 0
M  V30 4321 H 415.948 2.731 -4.79709 0
M  V30 4322 H 416.425 3.07485 -3.13607 0
M  V30 4323 H 417.031 1.60727 -3.9376 0
M  V30 4324 N 415.346 1.54954 0.287554 0
M  V30 4325 C 416.593 1.74873 1.02106 0
M  V30 4326 C 416.921 0.541829 1.86801 0
M  V30 4327 O 416.176 -0.475992 1.89823 0
M  V30 4328 C 416.475 2.99833 1.94512 0
M  V30 4329 C 416.141 4.33029 1.25686 0
M  V30 4330 C 414.803 4.69233 1.06649 0
M  V30 4331 C 417.155 5.15542 0.765913 0
M  V30 4332 C 414.483 5.85518 0.372222 0
M  V30 4333 C 416.835 6.32542 0.0853101 0
M  V30 4334 C 415.499 6.67398 -0.1169 0
M  V30 4335 H 414.769 0.639906 0.373632 0
M  V30 4336 H 417.416 1.89219 0.294665 0
M  V30 4337 H 415.721 2.80325 2.73725 0
M  V30 4338 H 417.418 3.1244 2.51361 0
M  V30 4339 H 414.008 4.04564 1.41512 0
M  V30 4340 H 418.192 4.88059 0.90066 0
M  V30 4341 H 413.448 6.11057 0.204695 0
M  V30 4342 H 417.622 6.95741 -0.302936 0
M  V30 4343 H 415.249 7.57357 -0.656859 0
M  V30 4344 N 416.824 -0.551391 1.4764 0
M  V30 4345 C 418.072 -1.30572 1.54258 0
M  V30 4346 C 418.393 -1.93877 0.208963 0
M  V30 4347 O 417.663 -1.80234 -0.767619 0
M  V30 4348 H 416.243 -0.484894 0.568231 0
M  V30 4349 H 418.905 -0.643402 1.83974 0
M  V30 4350 H 418.001 -2.09621 2.31226 0
M  V30 4351 N 418.302 -1.35869 -0.798587 0
M  V30 4352 C 419.212 -1.31578 -1.94228 0
M  V30 4353 C 420.228 -0.21939 -1.72611 0
M  V30 4354 O 421.404 -0.450167 -1.96305 0
M  V30 4355 C 418.469 -1.09528 -3.28944 0
M  V30 4356 C 417.53 -2.28556 -3.63402 0
M  V30 4357 C 416.763 -2.07549 -4.9169 0
M  V30 4358 O 416.986 -1.046 -5.60727 0
M  V30 4359 O 415.92 -2.95106 -5.24591 0
M  V30 4360 H 419.746 -2.27847 -2.00796 0
M  V30 4361 H 417.331 -1.16322 -0.937526 0
M  V30 4362 H 419.213 -0.991127 -4.09579 0
M  V30 4363 H 417.888 -0.16315 -3.23289 0
M  V30 4364 H 416.795 -2.44538 -2.83112 0
M  V30 4365 H 418.128 -3.20244 -3.73771 0
M  V30 4366 N 419.78 1.02168 -1.19998 0
M  V30 4367 C 421.026 1.7606 -1.01855 0
M  V30 4368 C 421.381 1.87178 0.445222 0
M  V30 4369 O 420.674 1.3828 1.32624 0
M  V30 4370 C 420.868 3.18081 -1.62969 0
M  V30 4371 C 420.697 3.20809 -3.15137 0
M  V30 4372 C 419.467 3.28342 -3.84083 0
M  V30 4373 C 421.665 3.07268 -4.1242 0
M  V30 4374 N 419.647 3.2052 -5.23584 0
M  V30 4375 C 421.018 3.0716 -5.38566 0
M  V30 4376 C 423.073 2.91448 -4.03686 0
M  V30 4377 C 421.776 2.92853 -6.56985 0
M  V30 4378 C 423.802 2.78494 -5.21723 0
M  V30 4379 C 423.164 2.79046 -6.46771 0
M  V30 4380 H 419.263 0.655192 -0.426905 0
M  V30 4381 H 421.847 1.21564 -1.52087 0
M  V30 4382 H 420.018 3.70882 -1.15329 0
M  V30 4383 H 421.75 3.80375 -1.38192 0
M  V30 4384 H 418.505 3.34859 -3.34913 0
M  V30 4385 H 418.929 3.19997 -5.96599 0
M  V30 4386 H 423.571 2.89838 -3.07821 0
M  V30 4387 H 421.289 2.93213 -7.53028 0
M  V30 4388 H 424.875 2.67278 -5.16773 0
M  V30 4389 H 423.755 2.69134 -7.36571 0
M  V30 4390 N 421.258 1.00505 1.21394 0
M  V30 4391 C 422.505 0.687774 1.90462 0
M  V30 4392 C 422.833 -0.78147 1.7811 0
M  V30 4393 O 422.088 -1.58208 1.1519 0
M  V30 4394 C 422.387 1.0546 3.41486 0
M  V30 4395 C 422.053 2.51812 3.74034 0
M  V30 4396 C 420.715 2.91804 3.82628 0
M  V30 4397 C 423.067 3.46614 3.8924 0
M  V30 4398 C 420.395 4.2556 4.03876 0
M  V30 4399 C 422.747 4.80044 4.11995 0
M  V30 4400 C 421.411 5.19759 4.18816 0
M  V30 4401 H 420.681 0.251674 0.696951 0
M  V30 4402 H 423.328 1.26349 1.43903 0
M  V30 4403 H 421.633 0.397133 3.89782 0
M  V30 4404 H 423.33 0.786976 3.93202 0
M  V30 4405 H 419.92 2.1982 3.67936 0
M  V30 4406 H 424.104 3.16883 3.81967 0
M  V30 4407 H 419.36 4.55901 4.07387 0
M  V30 4408 H 423.534 5.53439 4.22704 0
M  V30 4409 H 421.161 6.23418 4.35033 0
M  V30 4410 N 422.737 -1.36956 0.779787 0
M  V30 4411 C 423.667 -2.32761 0.185651 0
M  V30 4412 C 424.648 -1.56177 -0.673989 0
M  V30 4413 O 425.833 -1.84378 -0.609797 0
M  V30 4414 C 422.963 -3.40418 -0.687964 0
M  V30 4415 C 421.917 -4.27941 0.0710102 0
M  V30 4416 C 421.243 -5.26681 -0.922573 0
M  V30 4417 C 422.543 -5.07006 1.25467 0
M  V30 4418 H 424.237 -2.82698 0.986008 0
M  V30 4419 H 421.783 -1.3592 0.475592 0
M  V30 4420 H 423.736 -4.06423 -1.11348 0
M  V30 4421 H 422.46 -2.89025 -1.52093 0
M  V30 4422 H 421.119 -3.63478 0.47739 0
M  V30 4423 H 420.767 -4.71565 -1.7503 0
M  V30 4424 H 420.467 -5.86103 -0.419237 0
M  V30 4425 H 421.991 -5.9556 -1.34686 0
M  V30 4426 H 423.405 -5.66105 0.905401 0
M  V30 4427 H 421.802 -5.75793 1.69063 0
M  V30 4428 H 422.872 -4.3921 2.05481 0
M  V30 4429 N 424.215 -0.530993 -1.48385 0
M  V30 4430 C 425.463 0.00273189 -2.021 0
M  V30 4431 C 425.784 1.34672 -1.41027 0
M  V30 4432 O 425.054 1.8724 -0.576012 0
M  V30 4433 H 423.634 0.00399774 -0.746989 0
M  V30 4434 H 426.296 -0.695054 -1.82085 0
M  V30 4435 H 425.392 0.11031 -3.11905 0
M  V30 4436 N 425.693 1.55336 -0.266172 0
M  V30 4437 C 426.939 1.99692 0.353681 0
M  V30 4438 C 427.272 1.1543 1.56172 0
M  V30 4439 O 426.547 0.222218 1.93226 0
M  V30 4440 C 426.83 3.52316 0.74466 0
M  V30 4441 C 426.683 4.47337 -0.470101 0
M  V30 4442 C 428.002 4.10588 1.58447 0
M  V30 4443 H 425.121 0.725961 0.12708 0
M  V30 4444 H 427.763 1.86336 -0.371333 0
M  V30 4445 H 425.913 3.63829 1.36239 0
M  V30 4446 H 427.585 4.4778 -1.10864 0
M  V30 4447 H 425.828 4.19364 -1.10978 0
M  V30 4448 H 426.499 5.51788 -0.15291 0
M  V30 4449 H 428.975 4.02297 1.06286 0
M  V30 4450 H 427.851 5.17607 1.82686 0
M  V30 4451 H 428.112 3.60253 2.56262 0
M  V30 4452 N 427.171 -0.0066808 1.57599 0
M  V30 4453 C 428.119 -1.01851 2.09115 0
M  V30 4454 C 429.113 -1.36021 1.00969 0
M  V30 4455 O 430.319 -1.34663 1.19439 0
M  V30 4456 H 426.694 -0.346083 0.667631 0
M  V30 4457 H 428.665 -0.558394 2.93129 0
M  V30 4458 C 427.414 -2.30374 2.60429 0
M  V30 4459 H 426.737 -2.04947 3.43273 0
M  V30 4460 H 428.177 -2.99466 3.00161 0
M  V30 4461 C 426.636 -3.00893 1.51542 0
M  V30 4462 O 427.166 -3.91614 0.894484 0
M  V30 4463 N 425.372 -2.62603 1.2445 0
M  V30 4464 H 424.919 -1.88911 1.75129 0
M  V30 4465 H 424.877 -3.10101 0.518137 0
M  V30 4466 N 428.649 -1.55105 -0.279332 0
M  V30 4467 C 429.559 -1.90638 -1.36727 0
M  V30 4468 C 430.575 -0.802899 -1.54368 0
M  V30 4469 O 431.751 -1.10138 -1.68616 0
M  V30 4470 C 428.816 -2.16547 -2.70755 0
M  V30 4471 C 427.877 -3.40146 -2.61915 0
M  V30 4472 C 427.11 -3.6481 -3.8955 0
M  V30 4473 O 427.333 -2.92095 -4.89935 0
M  V30 4474 O 426.267 -4.58343 -3.90135 0
M  V30 4475 H 430.093 -2.83237 -1.09591 0
M  V30 4476 H 427.678 -1.4157 -0.477306 0
M  V30 4477 H 429.56 -2.34665 -3.50014 0
M  V30 4478 H 428.235 -1.27131 -2.9769 0
M  V30 4479 H 427.142 -3.2737 -1.81052 0
M  V30 4480 H 428.475 -4.29761 -2.3993 0
M  V30 4481 N 430.127 0.543554 -1.4793 0
M  V30 4482 C 431.376 1.29649 -1.54512 0
M  V30 4483 C 431.689 1.94382 -0.217973 0
M  V30 4484 O 432.895 2.71017 -0.161908 0
M  V30 4485 C 431.351 2.35175 -2.72435 0
M  V30 4486 C 430.959 1.76572 -4.11736 0
M  V30 4487 C 432.703 3.11564 -2.8832 0
M  V30 4488 C 430.61 2.79958 -5.20939 0
M  V30 4489 H 429.54 0.487541 -0.57517 0
M  V30 4490 H 432.191 0.575708 -1.74235 0
M  V30 4491 H 430.573 3.10229 -2.46118 0
M  V30 4492 H 431.747 1.07799 -4.48013 0
M  V30 4493 H 430.062 1.12722 -4.00852 0
M  V30 4494 H 432.659 3.88794 -3.67074 0
M  V30 4495 H 433.002 3.66594 -1.97268 0
M  V30 4496 H 433.535 2.43623 -3.14472 0
M  V30 4497 H 430.274 2.29766 -6.13912 0
M  V30 4498 H 429.794 3.47101 -4.89164 0
M  V30 4499 H 431.473 3.43198 -5.48474 0
M  V30 4500 N 431.605 1.3629 0.791371 0
M  V30 4501 C 432.83 1.33726 1.58531 0
M  V30 4502 C 433.255 -0.0794933 1.87932 0
M  V30 4503 O 432.613 -1.05087 1.47738 0
M  V30 4504 C 432.661 2.16425 2.88431 0
M  V30 4505 O 431.765 1.5554 3.81944 0
M  V30 4506 H 431.106 0.457793 0.480959 0
M  V30 4507 H 433.636 1.79547 0.981031 0
M  V30 4508 H 433.646 2.28933 3.37718 0
M  V30 4509 H 432.321 3.19415 2.66359 0
M  V30 4510 H 430.898 1.51961 3.40532 0
M  V30 4511 N 433.083 -1.0153 1.20538 0
M  V30 4512 C 434.494 -1.56598 1.01657 0
M  V30 4513 C 434.845 -1.91505 -0.426668 0
M  V30 4514 O 433.97 -1.72375 -1.30827 0
M  V30 4515 C 434.565 -2.84542 1.83905 0
M  V30 4516 C 433.124 -3.36133 1.69386 0
M  V30 4517 C 432.271 -2.09427 1.81757 0
M  V30 4518 H 435.222 -0.838974 1.34711 0
M  V30 4519 H 435.243 -3.56004 1.34319 0
M  V30 4520 H 434.755 -2.59105 2.8894 0
M  V30 4521 H 432.856 -3.66528 0.669933 0
M  V30 4522 H 432.969 -4.08248 2.50739 0
M  V30 4523 H 431.333 -2.21941 1.24957 0
M  V30 4524 H 432.116 -1.86414 2.88279 0
M  V30 4525 N 434.561 -1.01147 -1.20859 0
M  V30 4526 C 435.471 -0.58686 -2.27141 0
M  V30 4527 C 436.487 0.373198 -1.69951 0
M  V30 4528 O 437.663 0.235423 -2.00019 0
M  V30 4529 C 434.728 0.0733602 -3.46622 0
M  V30 4530 C 433.789 -0.931995 -4.19061 0
M  V30 4531 C 433.022 -0.303186 -5.32838 0
M  V30 4532 O 433.245 0.898395 -5.63281 0
M  V30 4533 O 432.179 -1.01735 -5.9324 0
M  V30 4534 H 436.005 -1.47155 -2.65667 0
M  V30 4535 H 433.59 -0.780689 -1.2738 0
M  V30 4536 H 435.472 0.442333 -4.19072 0
M  V30 4537 H 434.147 0.932329 -3.09983 0
M  V30 4538 H 433.054 -1.35224 -3.48805 0
M  V30 4539 H 434.387 -1.76076 -4.59628 0
M  V30 4540 N 436.039 1.36541 -0.78704 0
M  V30 4541 C 437.269 2.03266 -0.369662 0
M  V30 4542 C 437.677 1.59481 1.01796 0
M  V30 4543 O 437.02 0.778612 1.66383 0
M  V30 4544 C 437.082 3.57779 -0.351371 0
M  V30 4545 C 436.746 4.24756 -1.68617 0
M  V30 4546 C 437.743 4.47811 -2.64124 0
M  V30 4547 C 435.428 4.62277 -1.96481 0
M  V30 4548 C 437.422 5.07464 -3.85693 0
M  V30 4549 C 435.109 5.21649 -3.18317 0
M  V30 4550 C 436.107 5.44182 -4.12741 0
M  V30 4551 O 435.795 6.02307 -5.32429 0
M  V30 4552 H 435.527 0.658977 -0.150751 0
M  V30 4553 H 438.081 1.75548 -1.0664 0
M  V30 4554 H 436.311 3.84606 0.401847 0
M  V30 4555 H 438 4.05879 0.0410147 0
M  V30 4556 H 438.766 4.19221 -2.43883 0
M  V30 4557 H 434.645 4.44065 -1.23805 0
M  V30 4558 H 438.189 5.24968 -4.59407 0
M  V30 4559 H 434.086 5.49664 -3.38437 0
M  V30 4560 H 434.854 6.20775 -5.33461 0
M  V30 4561 N 437.518 0.538854 1.48102 0
M  V30 4562 C 438.468 -0.23907 2.26743 0
M  V30 4563 C 439.452 -0.901923 1.33245 0
M  V30 4564 O 440.644 -0.803263 1.57723 0
M  V30 4565 C 437.773 -1.2799 3.18549 0
M  V30 4566 C 436.859 -0.621388 4.19523 0
M  V30 4567 N 437.25 0.298004 5.04921 0
M  V30 4568 C 435.548 -0.877533 4.37282 0
M  V30 4569 C 436.249 0.678757 5.77726 0
M  V30 4570 N 435.225 0.0377881 5.43587 0
M  V30 4571 H 439.027 0.468096 2.90148 0
M  V30 4572 H 436.541 0.357497 1.58416 0
M  V30 4573 H 438.538 -1.851 3.73555 0
M  V30 4574 H 437.198 -1.98835 2.567 0
M  V30 4575 H 438.209 0.671126 5.13533 0
M  V30 4576 H 434.886 -1.57588 3.86616 0
M  V30 4577 H 436.276 1.43316 6.56437 0
M  V30 4578 N 438.996 -1.55193 0.274407 0
M  V30 4579 C 439.928 -2.1989 -0.646595 0
M  V30 4580 C 440.941 -1.1834 -1.11801 0
M  V30 4581 O 442.13 -1.4507 -1.04004 0
M  V30 4582 C 439.23 -2.8104 -1.89393 0
M  V30 4583 C 438.403 -4.08274 -1.56943 0
M  V30 4584 C 437.462 -4.53478 -2.66916 0
M  V30 4585 O 436.488 -5.19267 -2.33132 0
M  V30 4586 N 437.69 -4.2356 -3.9696 0
M  V30 4587 H 440.455 -2.99556 -0.0928686 0
M  V30 4588 H 438.016 -1.61618 0.0954783 0
M  V30 4589 H 440.008 -3.08226 -2.62257 0
M  V30 4590 H 438.578 -2.05372 -2.35672 0
M  V30 4591 H 437.798 -3.88384 -0.674655 0
M  V30 4592 H 439.086 -4.91173 -1.32764 0
M  V30 4593 H 438.484 -3.70799 -4.27229 0
M  V30 4594 H 437.041 -4.55518 -4.66205 0
M  V30 4595 N 440.474 -0.00167713 -1.576 0
M  V30 4596 C 441.721 0.68282 -1.90641 0
M  V30 4597 C 442.049 1.73686 -0.875415 0
M  V30 4598 O 441.304 1.95334 0.119575 0
M  V30 4599 C 441.603 1.36189 -3.30435 0
M  V30 4600 C 441.269 0.440887 -4.48739 0
M  V30 4601 C 439.931 0.187312 -4.80835 0
M  V30 4602 C 442.283 -0.193134 -5.20842 0
M  V30 4603 C 439.611 -0.70855 -5.82406 0
M  V30 4604 C 441.963 -1.07688 -6.23367 0
M  V30 4605 C 440.627 -1.33962 -6.53919 0
M  V30 4606 H 439.897 0.249862 -0.697603 0
M  V30 4607 H 442.544 -0.0575642 -1.91413 0
M  V30 4608 H 440.849 2.17636 -3.25794 0
M  V30 4609 H 442.546 1.89759 -3.5326 0
M  V30 4610 H 439.136 0.648694 -4.23663 0
M  V30 4611 H 443.32 -0.0102445 -4.96299 0
M  V30 4612 H 438.576 -0.920097 -6.04437 0
M  V30 4613 H 442.75 -1.57451 -6.78367 0
M  V30 4614 H 440.377 -2.03549 -7.32442 0
M  V30 4615 N 441.952 1.55251 0.271103 0
M  V30 4616 C 442.915 1.87484 1.31842 0
M  V30 4617 C 443.915 0.749545 1.42262 0
M  V30 4618 O 445.105 1.01771 1.4138 0
M  V30 4619 C 442.237 2.0818 2.69951 0
M  V30 4620 H 443.43 2.81108 1.0449 0
M  V30 4621 H 440.983 1.47771 0.509258 0
M  V30 4622 H 441.718 1.16944 3.02481 0
M  V30 4623 H 441.503 2.90114 2.63774 0
M  V30 4624 H 442.993 2.34385 3.4562 0
M  V30 4625 N 443.43 -0.535701 1.48216 0
M  V30 4626 C 444.378 -1.66179 1.62749 0
M  V30 4627 C 445.372 -1.62034 0.49409 0
M  V30 4628 O 446.578 -1.6696 0.672624 0
M  V30 4629 H 442.953 -0.550244 0.512578 0
M  V30 4630 H 444.924 -1.51063 2.57337 0
M  V30 4631 C 443.673 -3.04471 1.67907 0
M  V30 4632 H 442.996 -3.08351 2.54479 0
M  V30 4633 H 444.436 -3.82894 1.82121 0
M  V30 4634 C 442.895 -3.34314 0.416596 0
M  V30 4635 O 443.425 -3.98905 -0.473014 0
M  V30 4636 N 441.631 -2.89149 0.290038 0
M  V30 4637 H 441.178 -2.36764 1.01493 0
M  V30 4638 H 441.136 -3.09486 -0.55367 0
M  V30 4639 N 444.908 -1.36708 -0.784132 0
M  V30 4640 C 445.818 -1.3363 -1.92822 0
M  V30 4641 C 446.834 -0.237686 -1.72369 0
M  V30 4642 O 448.01 -0.470962 -1.95816 0
M  V30 4643 C 445.075 -1.13011 -3.27764 0
M  V30 4644 C 444.136 -2.32397 -3.60957 0
M  V30 4645 C 443.369 -2.12752 -4.89461 0
M  V30 4646 O 443.592 -1.10541 -5.59586 0
M  V30 4647 O 442.526 -3.00653 -5.21432 0
M  V30 4648 H 446.352 -2.29964 -1.98369 0
M  V30 4649 H 443.937 -1.1731 -0.925136 0
M  V30 4650 H 445.819 -1.03451 -4.08504 0
M  V30 4651 H 444.494 -0.19743 -3.23097 0
M  V30 4652 H 443.401 -2.47527 -2.80502 0
M  V30 4653 H 444.734 -3.2419 -3.70354 0
M  V30 4654 N 446.386 1.0089 -1.21074 0
M  V30 4655 C 447.611 1.78727 -1.05221 0
M  V30 4656 C 448.036 1.83932 0.393795 0
M  V30 4657 O 447.394 1.28004 1.28393 0
M  V30 4658 C 447.442 3.20665 -1.64944 0
M  V30 4659 O 446.546 4.02632 -0.892273 0
M  V30 4660 H 445.887 0.550973 -0.370574 0
M  V30 4661 H 448.417 1.26847 -1.60534 0
M  V30 4662 H 448.427 3.71352 -1.69002 0
M  V30 4663 H 447.102 3.16191 -2.70177 0
M  V30 4664 H 445.679 3.61207 -0.926492 0
M  V30 4665 N 447.864 1.01787 1.20321 0
M  V30 4666 C 449.112 0.706538 1.89347 0
M  V30 4667 C 449.433 -0.766289 1.79313 0
M  V30 4668 O 448.703 -1.55126 1.19635 0
M  V30 4669 H 447.283 0.258348 0.700903 0
M  V30 4670 H 449.945 1.28974 1.46122 0
M  V30 4671 H 449.041 0.991066 2.95946 0
M  V30 4672 N 449.342 -1.36122 0.79427 0
M  V30 4673 C 450.275 -2.27759 0.141845 0
M  V30 4674 C 451.253 -1.47471 -0.684921 0
M  V30 4675 O 452.437 -1.76759 -0.654857 0
M  V30 4676 C 449.564 -3.29008 -0.804446 0
M  V30 4677 C 448.61 -4.26459 -0.0588617 0
M  V30 4678 S 449.443 -5.20253 1.26873 0
M  V30 4679 C 450.599 -6.25048 0.326562 0
M  V30 4680 H 450.832 -2.82746 0.918818 0
M  V30 4681 H 448.365 -1.42736 0.588722 0
M  V30 4682 H 450.323 -3.87842 -1.34495 0
M  V30 4683 H 448.984 -2.72924 -1.5547 0
M  V30 4684 H 448.177 -4.97973 -0.777087 0
M  V30 4685 H 447.779 -3.71731 0.411309 0
M  V30 4686 H 450.071 -6.75705 -0.492795 0
M  V30 4687 H 451.014 -7.00852 1.01053 0
M  V30 4688 H 451.422 -5.64454 -0.0722627 0
M  V30 4689 N 450.82 -0.546701 -1.47814 0
M  V30 4690 C 452.045 -0.021268 -2.07389 0
M  V30 4691 C 452.47 1.25822 -1.39822 0
M  V30 4692 O 451.828 1.75111 -0.46968 0
M  V30 4693 C 451.876 0.168502 -3.60206 0
M  V30 4694 O 450.98 1.23347 -3.93522 0
M  V30 4695 H 450.321 -0.0466108 -0.662362 0
M  V30 4696 H 452.851 -0.759387 -1.89985 0
M  V30 4697 H 452.861 0.385982 -4.0617 0
M  V30 4698 H 451.536 -0.766075 -4.08784 0
M  V30 4699 H 450.113 0.997319 -3.59316 0
M  V30 4700 N 452.299 1.55045 -0.282633 0
M  V30 4701 C 453.229 2.2579 0.595066 0
M  V30 4702 C 454.21 1.25074 1.15284 0
M  V30 4703 O 455.395 1.5381 1.18559 0
M  V30 4704 C 452.525 2.98472 1.77572 0
M  V30 4705 C 451.479 4.0618 1.34914 0
M  V30 4706 C 450.805 4.66477 2.6135 0
M  V30 4707 C 452.105 5.1996 0.493821 0
M  V30 4708 H 453.799 2.994 0.00505653 0
M  V30 4709 H 451.345 1.44 0.000992001 0
M  V30 4710 H 453.298 3.46677 2.39568 0
M  V30 4711 H 452.022 2.2241 2.39168 0
M  V30 4712 H 450.681 3.58797 0.752338 0
M  V30 4713 H 450.329 3.87074 3.2122 0
M  V30 4714 H 450.029 5.39207 2.33516 0
M  V30 4715 H 451.553 5.17435 3.24181 0
M  V30 4716 H 452.967 5.64172 1.01898 0
M  V30 4717 H 451.364 5.99299 0.310047 0
M  V30 4718 H 452.434 4.82462 -0.485593 0
M  V30 4719 N 453.777 0.010035 1.57597 0
M  V30 4720 C 454.707 -0.976857 2.12084 0
M  V30 4721 C 455.688 -1.35191 1.03235 0
M  V30 4722 O 456.873 -1.43389 1.3097 0
M  V30 4723 C 454.003 -2.26548 2.63236 0
M  V30 4724 C 452.957 -2.03175 3.76701 0
M  V30 4725 C 452.283 -3.38138 4.14206 0
M  V30 4726 C 453.583 -1.38625 5.03568 0
M  V30 4727 H 455.277 -0.523145 2.94794 0
M  V30 4728 H 452.823 -0.250195 1.4181 0
M  V30 4729 H 454.776 -2.95952 2.99984 0
M  V30 4730 H 453.5 -2.74051 1.77661 0
M  V30 4731 H 452.159 -1.36195 3.40362 0
M  V30 4732 H 451.807 -3.83363 3.25641 0
M  V30 4733 H 451.507 -3.23312 4.90656 0
M  V30 4734 H 453.031 -4.08841 4.53521 0
M  V30 4735 H 454.445 -1.98 5.38023 0
M  V30 4736 H 452.842 -1.34256 5.84889 0
M  V30 4737 H 453.912 -0.356722 4.83586 0
M  V30 4738 N 455.255 -1.55392 -0.262866 0
M  V30 4739 C 456.532 -1.67204 -1.01499 0
M  V30 4740 C 456.912 -0.545186 -2.03939 0
M  V30 4741 O 456.26 0.453467 -2.23955 0
M  V30 4742 C 456.47 -3.06847 -1.6627 0
M  V30 4743 C 457.818 -3.64928 -2.17054 0
M  V30 4744 O 458.842 -3.09545 -1.76239 0
M  V30 4745 O 457.701 -4.61984 -2.91947 0
M  V30 4746 H 454.795 -0.679467 -0.471438 0
M  V30 4747 H 457.341 -1.67729 -0.257918 0
M  V30 4748 H 456.113 -3.80309 -0.920915 0
M  V30 4749 H 455.736 -3.10266 -2.48638 0
M  V30 4750 N 456.733 0.527833 -1.48498 0
M  V30 4751 C 457.98 1.28354 -1.56625 0
M  V30 4752 C 458.308 1.93 -0.241096 0
M  V30 4753 O 457.563 1.79967 0.768798 0
M  V30 4754 C 457.862 2.39275 -2.65485 0
M  V30 4755 C 457.528 1.92268 -4.07853 0
M  V30 4756 C 456.19 1.79166 -4.46602 0
M  V30 4757 C 458.542 1.56771 -4.97064 0
M  V30 4758 C 455.87 1.28905 -5.72364 0
M  V30 4759 C 458.222 1.07972 -6.23318 0
M  V30 4760 C 456.886 0.934887 -6.60921 0
M  V30 4761 H 456.156 0.469682 -0.573131 0
M  V30 4762 H 458.803 0.588781 -1.82224 0
M  V30 4763 H 457.108 3.1443 -2.33754 0
M  V30 4764 H 458.805 2.974 -2.68988 0
M  V30 4765 H 455.395 2.03417 -3.77252 0
M  V30 4766 H 459.579 1.65753 -4.67803 0
M  V30 4767 H 454.835 1.16381 -6.00221 0
M  V30 4768 H 459.009 0.795775 -6.91838 0
M  V30 4769 H 456.636 0.543231 -7.58257 0
M  V30 4770 N 458.211 1.37122 0.776871 0
M  V30 4771 C 459.627 1.1781 1.07671 0
M  V30 4772 C 459.827 0.0107454 2.01497 0
M  V30 4773 O 458.883 -0.650756 2.4397 0
M  V30 4774 C 460.196 2.49451 1.67913 0
M  V30 4775 C 461.744 2.55927 1.80195 0
M  V30 4776 C 462.219 3.87686 2.43851 0
M  V30 4777 N 463.71 3.891 2.51307 0
M  V30 4778 C 464.445 4.87797 3.014 0
M  V30 4779 N 463.941 5.96888 3.51705 0
M  V30 4780 N 465.734 4.75205 3.00227 0
M  V30 4781 H 457.885 2.11843 0.153778 0
M  V30 4782 H 460.148 0.938927 0.130844 0
M  V30 4783 H 459.854 3.35207 1.06439 0
M  V30 4784 H 459.728 2.66169 2.67271 0
M  V30 4785 H 462.115 1.70582 2.40803 0
M  V30 4786 H 462.196 2.43097 0.796069 0
M  V30 4787 H 461.84 4.73444 1.83884 0
M  V30 4788 H 461.77 3.97817 3.45035 0
M  V30 4789 H 464.261 3.10293 2.157 0
M  V30 4790 H 464.574 6.68155 3.88316 0
M  V30 4791 H 462.919 6.0054 3.49824 0
M  V30 4792 H 466.11 3.89103 2.60224 0
M  V30 4793 H 466.283 5.52279 3.38957 0
M  V30 4794 N 459.689 -1.00246 1.21608 0
M  V30 4795 C 460.936 -1.74061 1.03485 0
M  V30 4796 C 461.264 -1.89658 -0.431308 0
M  V30 4797 O 460.519 -1.42976 -1.33627 0
M  V30 4798 C 460.818 -3.15448 1.68009 0
M  V30 4799 C 460.484 -3.19792 3.17874 0
M  V30 4800 C 459.146 -3.20685 3.58768 0
M  V30 4801 C 461.498 -3.16835 4.13842 0
M  V30 4802 C 458.826 -3.16309 4.94131 0
M  V30 4803 C 461.178 -3.14001 5.49169 0
M  V30 4804 C 459.842 -3.13204 5.89457 0
M  V30 4805 H 459.112 -0.636934 0.378677 0
M  V30 4806 H 461.759 -1.17473 1.51236 0
M  V30 4807 H 460.064 -3.75284 1.12557 0
M  V30 4808 H 461.761 -3.71285 1.51487 0
M  V30 4809 H 458.351 -3.19842 2.85305 0
M  V30 4810 H 462.535 -3.15303 3.83272 0
M  V30 4811 H 457.791 -3.14032 5.24589 0
M  V30 4812 H 461.965 -3.10667 6.23265 0
M  V30 4813 H 459.592 -3.09568 6.94314 0
M  V30 4814 N 461.167 -1.02423 -1.1978 0
M  V30 4815 C 462.13 -0.605703 -2.21052 0
M  V30 4816 C 463.13 0.328209 -1.57415 0
M  V30 4817 O 464.32 0.115853 -1.73814 0
M  V30 4818 C 461.452 0.114366 -3.40708 0
M  V30 4819 H 462.645 -1.5017 -2.59594 0
M  V30 4820 H 460.198 -0.814888 -1.33376 0
M  V30 4821 H 460.933 1.02492 -3.07678 0
M  V30 4822 H 460.718 -0.556641 -3.88129 0
M  V30 4823 H 462.208 0.394272 -4.15735 0
M  V30 4824 N 462.645 1.35699 -0.801477 0
M  V30 4825 C 463.577 2.28598 -0.166028 0
M  V30 4826 C 464.59 1.50044 0.631721 0
M  V30 4827 O 465.779 1.72339 0.464921 0
M  V30 4828 C 462.879 3.29625 0.787451 0
M  V30 4829 C 462.052 4.37384 0.037171 0
M  V30 4830 C 461.111 5.183 0.908375 0
M  V30 4831 O 460.137 5.68053 0.361189 0
M  V30 4832 N 461.339 5.35912 2.23112 0
M  V30 4833 H 464.104 2.83771 -0.964071 0
M  V30 4834 H 461.665 1.47994 -0.656469 0
M  V30 4835 H 463.657 3.80648 1.37439 0
M  V30 4836 H 462.227 2.75004 1.48632 0
M  V30 4837 H 461.447 3.87364 -0.730935 0
M  V30 4838 H 462.735 5.0653 -0.480109 0
M  V30 4839 H 462.133 4.97125 2.69968 0
M  V30 4840 H 460.69 5.90133 2.76741 0
M  V30 4841 N 464.123 0.554532 1.47522 0
M  V30 4842 C 465.07 -0.19466 2.29978 0
M  V30 4843 C 466.04 -0.910882 1.38896 0
M  V30 4844 O 467.225 -0.907102 1.67858 0
M  V30 4845 C 464.365 -1.22035 3.22802 0
M  V30 4846 C 463.478 -0.510474 4.28973 0
M  V30 4847 C 462.613 -1.52123 5.08952 0
M  V30 4848 C 461.652 -0.796173 6.069 0
M  V30 4849 N 460.789 -1.75363 6.79847 0
M  V30 4850 H 465.629 0.51461 2.93523 0
M  V30 4851 H 463.166 0.265607 1.44682 0
M  V30 4852 H 465.124 -1.8276 3.7504 0
M  V30 4853 H 463.754 -1.89769 2.61127 0
M  V30 4854 H 462.806 0.211234 3.79813 0
M  V30 4855 H 464.118 0.0576503 4.98767 0
M  V30 4856 H 463.272 -2.20207 5.65326 0
M  V30 4857 H 462.011 -2.12327 4.39054 0
M  V30 4858 H 461.016 -0.101388 5.49707 0
M  V30 4859 H 462.241 -0.199911 6.78806 0
M  V30 4860 H 460.187 -2.3443 6.12682 0
M  V30 4861 H 460.104 -1.23759 7.45801 0
M  V30 4862 H 461.372 -2.4257 7.40797 0
M  V30 4863 N 465.601 -1.54893 0.290851 0
M  V30 4864 C 466.564 -2.21824 -0.576784 0
M  V30 4865 C 467.564 -1.20104 -1.06919 0
M  V30 4866 O 468.754 -1.44906 -0.966843 0
M  V30 4867 C 465.886 -2.89662 -1.79747 0
M  V30 4868 H 467.079 -2.99899 0.00784051 0
M  V30 4869 H 464.632 -1.56245 0.0415934 0
M  V30 4870 H 465.367 -2.15639 -2.42219 0
M  V30 4871 H 465.152 -3.64219 -1.45214 0
M  V30 4872 H 466.642 -3.4075 -2.4141 0
M  V30 4873 N 467.08 -0.0183926 -1.57589 0
M  V30 4874 C 468.496 0.337897 -1.55982 0
M  V30 4875 C 468.696 1.73604 -1.02294 0
M  V30 4876 O 467.752 2.43589 -0.664895 0
M  V30 4877 C 469.065 0.196305 -3.00059 0
M  V30 4878 C 470.613 0.269875 -3.11834 0
M  V30 4879 C 471.088 0.157197 -4.5773 0
M  V30 4880 N 472.579 0.214521 -4.62703 0
M  V30 4881 C 473.314 0.150955 -5.73201 0
M  V30 4882 N 472.81 0.0369212 -6.9279 0
M  V30 4883 N 474.603 0.204162 -5.61729 0
M  V30 4884 H 466.754 -0.93279 -1.90821 0
M  V30 4885 H 469.017 -0.359253 -0.877292 0
M  V30 4886 H 468.723 -0.766383 -3.43248 0
M  V30 4887 H 468.597 0.970908 -3.6449 0
M  V30 4888 H 470.984 1.22302 -2.68563 0
M  V30 4889 H 471.065 -0.534918 -2.50144 0
M  V30 4890 H 470.709 -0.792479 -5.01679 0
M  V30 4891 H 470.639 0.980717 -5.17387 0
M  V30 4892 H 473.13 0.303238 -3.76681 0
M  V30 4893 H 473.443 -0.00518321 -7.728 0
M  V30 4894 H 471.788 0.0022886 -6.95 0
M  V30 4895 H 474.979 0.291575 -4.67191 0
M  V30 4896 H 475.152 0.15116 -6.47824 0
M  V30 4897 N 468.558 1.5553 0.254621 0
M  V30 4898 C 469.49 1.86104 1.33783 0
M  V30 4899 C 470.503 0.746752 1.44663 0
M  V30 4900 O 471.692 1.0248 1.46151 0
M  V30 4901 C 468.792 2.02532 2.71724 0
M  V30 4902 C 467.965 3.33335 2.83208 0
M  V30 4903 C 467.024 3.396 4.01943 0
M  V30 4904 O 466.05 4.12862 3.91834 0
M  V30 4905 N 467.252 2.68332 5.1476 0
M  V30 4906 H 470.017 2.79605 1.07893 0
M  V30 4907 H 467.578 1.55672 0.444732 0
M  V30 4908 H 469.57 2.04074 3.4948 0
M  V30 4909 H 468.14 1.15811 2.90356 0
M  V30 4910 H 467.36 3.44176 1.92189 0
M  V30 4911 H 468.648 4.19565 2.87824 0
M  V30 4912 H 468.046 2.08528 5.25864 0
M  V30 4913 H 466.603 2.75575 5.90679 0
M  V30 4914 N 470.036 -0.519951 1.48776 0
M  V30 4915 C 471.282 -1.27711 1.57536 0
M  V30 4916 C 471.615 -1.92547 0.252866 0
M  V30 4917 O 470.89 -1.7979 -0.742021 0
M  V30 4918 C 471.173 -2.35875 2.72094 0
M  V30 4919 C 471.026 -1.75664 4.1408 0
M  V30 4920 C 472.345 -3.37575 2.82367 0
M  V30 4921 H 469.464 -0.462971 0.573434 0
M  V30 4922 H 472.106 -0.578194 1.80989 0
M  V30 4923 H 470.256 -2.95488 2.52228 0
M  V30 4924 H 471.928 -1.20025 4.45412 0
M  V30 4925 H 470.171 -1.06154 4.20611 0
M  V30 4926 H 470.842 -2.54029 4.90075 0
M  V30 4927 H 473.318 -2.87929 3.00393 0
M  V30 4928 H 472.194 -4.1064 3.64233 0
M  V30 4929 H 472.455 -3.98743 1.90936 0
M  V30 4930 N 471.514 -1.37532 -0.769588 0
M  V30 4931 C 472.761 -1.3286 -1.52822 0
M  V30 4932 C 473.089 0.0862597 -1.94309 0
M  V30 4933 O 472.344 1.05995 -1.6451 0
M  V30 4934 C 472.643 -2.21558 -2.8044 0
M  V30 4935 C 472.309 -3.69796 -2.57996 0
M  V30 4936 C 470.971 -4.10194 -2.51583 0
M  V30 4937 C 473.323 -4.63699 -2.37976 0
M  V30 4938 C 470.651 -5.42608 -2.23144 0
M  V30 4939 C 473.003 -5.96353 -2.1106 0
M  V30 4940 C 471.667 -6.35853 -2.03093 0
M  V30 4941 H 470.937 -0.486168 -0.559215 0
M  V30 4942 H 473.584 -1.69757 -0.886277 0
M  V30 4943 H 471.889 -1.77663 -3.49204 0
M  V30 4944 H 473.586 -2.15256 -3.38328 0
M  V30 4945 H 470.176 -3.37759 -2.63851 0
M  V30 4946 H 474.36 -4.33346 -2.41919 0
M  V30 4947 H 469.616 -5.72173 -2.15472 0
M  V30 4948 H 473.79 -6.68667 -1.94568 0
M  V30 4949 H 471.417 -7.38382 -1.8082 0
M  V30 4950 N 472.992 0.995999 -1.22138 0
M  V30 4951 C 474.408 1.25917 -0.980667 0
M  V30 4952 C 474.608 1.98819 0.327604 0
M  V30 4953 O 473.664 2.29587 1.05101 0
M  V30 4954 C 474.977 2.07399 -2.17729 0
M  V30 4955 C 476.525 2.20594 -2.22052 0
M  V30 4956 C 477 3.05462 -3.41258 0
M  V30 4957 N 478.491 3.13049 -3.41401 0
M  V30 4958 C 479.226 3.78997 -4.30289 0
M  V30 4959 N 478.722 4.46899 -5.2939 0
M  V30 4960 N 480.515 3.75728 -4.18073 0
M  V30 4961 H 472.666 0.507158 -2.06256 0
M  V30 4962 H 474.929 0.28658 -0.903646 0
M  V30 4963 H 474.635 1.61191 -3.12586 0
M  V30 4964 H 474.509 3.08154 -2.17534 0
M  V30 4965 H 476.896 2.66017 -1.27745 0
M  V30 4966 H 476.977 1.1928 -2.26287 0
M  V30 4967 H 476.621 2.60739 -4.35864 0
M  V30 4968 H 476.551 4.06911 -3.34262 0
M  V30 4969 H 479.042 2.64721 -2.69688 0
M  V30 4970 H 479.355 4.94952 -5.935 0
M  V30 4971 H 477.7 4.45657 -5.33306 0
M  V30 4972 H 480.891 3.2184 -3.39907 0
M  V30 4973 H 481.064 4.26845 -4.87553 0
M  V30 4974 N 474.47 1.03057 1.19235 0
M  V30 4975 C 475.747 0.642608 1.84743 0
M  V30 4976 C 476.127 -0.878577 1.91948 0
M  V30 4977 O 475.475 -1.77597 1.43776 0
M  V30 4978 C 475.685 1.30665 3.23616 0
M  V30 4979 C 477.033 1.43098 3.9976 0
M  V30 4980 O 478.057 1.26396 3.3302 0
M  V30 4981 O 476.916 1.70223 5.19313 0
M  V30 4982 H 474.01 0.223573 0.796206 0
M  V30 4983 H 476.556 1.12883 1.26711 0
M  V30 4984 H 475.328 2.34544 3.13217 0
M  V30 4985 H 474.951 0.808405 3.89295 0
M  V30 4986 N 475.948 -1.35272 0.808662 0
M  V30 4987 C 476.896 -2.31663 0.208606 0
M  V30 4988 C 477.89 -1.56731 -0.642778 0
M  V30 4989 O 479.096 -1.71843 -0.53571 0
M  V30 4990 H 475.471 -0.750421 0.0486993 0
M  V30 4991 H 477.442 -2.79814 1.03666 0
M  V30 4992 C 476.191 -3.42008 -0.626573 0
M  V30 4993 H 475.514 -3.99795 0.0192103 0
M  V30 4994 H 476.954 -4.11727 -1.01278 0
M  V30 4995 C 475.413 -2.85226 -1.79298 0
M  V30 4996 O 475.943 -2.78945 -2.89055 0
M  V30 4997 N 474.149 -2.42245 -1.60516 0
M  V30 4998 H 473.696 -2.47554 -0.712375 0
M  V30 4999 H 473.654 -2.04603 -2.38715 0
M  V30 5000 N 477.426 -0.562348 -1.47226 0
M  V30 5001 C 478.654 -0.0452275 -2.06851 0
M  V30 5002 C 479.069 1.25078 -1.41424 0
M  V30 5003 O 478.426 1.75156 -0.512513 0
M  V30 5004 C 478.477 0.148674 -3.61194 0
M  V30 5005 O 478.198 -1.09602 -4.24169 0
M  V30 5006 C 479.699 0.702488 -4.37699 0
M  V30 5007 H 476.919 -0.0481775 -0.669268 0
M  V30 5008 H 479.463 -0.777223 -1.89155 0
M  V30 5009 H 477.618 0.830817 -3.78386 0
M  V30 5010 H 478.032 -0.896982 -5.16773 0
M  V30 5011 H 479.506 0.78743 -5.46355 0
M  V30 5012 H 479.983 1.71493 -4.04335 0
M  V30 5013 H 480.589 0.0558772 -4.25263 0
M  V30 5014 N 478.904 1.54736 -0.299062 0
M  V30 5015 C 480.181 1.92187 0.363802 0
M  V30 5016 C 480.561 1.22607 1.71845 0
M  V30 5017 O 479.909 0.361141 2.25628 0
M  V30 5018 C 480.119 3.45678 0.480377 0
M  V30 5019 C 481.467 4.17885 0.752147 0
M  V30 5020 O 482.491 3.51702 0.564264 0
M  V30 5021 O 481.35 5.35048 1.11294 0
M  V30 5022 H 478.444 0.801681 0.203066 0
M  V30 5023 H 480.99 1.66115 -0.346978 0
M  V30 5024 H 479.762 3.88443 -0.471999 0
M  V30 5025 H 479.385 3.77779 1.2397 0
M  V30 5026 N 480.382 0.0267497 1.57577 0
M  V30 5027 C 481.33 -0.973923 2.11229 0
M  V30 5028 C 482.324 -1.33849 1.03831 0
M  V30 5029 O 483.53 -1.321 1.22269 0
M  V30 5030 H 479.905 -0.331844 0.674821 0
M  V30 5031 H 481.876 -0.496092 2.94247 0
M  V30 5032 C 480.625 -2.24798 2.65257 0
M  V30 5033 H 479.948 -1.9762 3.47543 0
M  V30 5034 H 481.388 -2.93031 3.06445 0
M  V30 5035 C 479.847 -2.97611 1.57891 0
M  V30 5036 O 480.377 -3.89629 0.97735 0
M  V30 5037 N 478.583 -2.59905 1.29992 0
M  V30 5038 H 478.13 -1.85154 1.79097 0
M  V30 5039 H 478.088 -3.08932 0.583798 0
M  V30 5040 N 481.861 -1.55662 -0.24637 0
M  V30 5041 C 482.794 -1.85332 -1.33143 0
M  V30 5042 C 483.772 -0.708464 -1.46354 0
M  V30 5043 O 484.956 -0.954274 -1.6256 0
M  V30 5044 C 482.083 -2.0385 -2.70487 0
M  V30 5045 C 481.129 -3.26488 -2.74423 0
M  V30 5046 S 481.962 -4.83124 -2.30979 0
M  V30 5047 C 483.118 -5.04647 -3.70246 0
M  V30 5048 H 483.351 -2.77077 -1.07777 0
M  V30 5049 H 480.884 -1.47776 -0.44738 0
M  V30 5050 H 482.842 -2.15202 -3.49569 0
M  V30 5051 H 481.503 -1.12947 -2.9309 0
M  V30 5052 H 480.696 -3.36413 -3.7529 0
M  V30 5053 H 480.298 -3.13864 -2.03385 0
M  V30 5054 H 482.59 -4.92023 -4.65746 0
M  V30 5055 H 483.533 -6.06625 -3.65255 0
M  V30 5056 H 483.941 -4.32491 -3.62784 0
M  V30 5057 N 483.339 0.512053 -1.4905 0
M  V30 5058 C 484.569 1.28928 -1.61434 0
M  V30 5059 C 484.977 1.87107 -0.280647 0
M  V30 5060 O 484.32 1.68024 0.742537 0
M  V30 5061 C 484.382 2.466 -2.61588 0
M  V30 5062 C 484.046 2.09375 -4.06216 0
M  V30 5063 C 485.043 1.63994 -4.93358 0
M  V30 5064 C 482.728 2.19348 -4.51876 0
M  V30 5065 C 484.722 1.29076 -6.24194 0
M  V30 5066 C 482.409 1.84041 -5.82728 0
M  V30 5067 C 483.407 1.38978 -6.68711 0
M  V30 5068 O 483.095 1.04144 -7.97126 0
M  V30 5069 H 482.827 0.397668 -0.546659 0
M  V30 5070 H 485.381 0.622507 -1.9574 0
M  V30 5071 H 483.611 3.16318 -2.22441 0
M  V30 5072 H 485.3 3.08642 -2.63619 0
M  V30 5073 H 486.066 1.55744 -4.59313 0
M  V30 5074 H 481.945 2.53376 -3.85125 0
M  V30 5075 H 485.489 0.938303 -6.91261 0
M  V30 5076 H 481.386 1.91938 -6.16304 0
M  V30 5077 H 482.154 1.17387 -8.10039 0
M  V30 5078 N 484.817 1.37938 0.762283 0
M  V30 5079 C 486.065 1.33404 1.51815 0
M  V30 5080 C 486.386 -0.0780975 1.94844 0
M  V30 5081 O 485.656 -1.02405 1.67003 0
M  V30 5082 H 484.236 0.490839 0.563104 0
M  V30 5083 H 486.898 1.72527 0.906669 0
M  V30 5084 H 485.994 1.97926 2.41313 0
M  V30 5085 N 486.295 -0.989507 1.22664 0
M  V30 5086 C 487.225 -2.09847 1.02404 0
M  V30 5087 C 488.206 -1.70007 -0.0561303 0
M  V30 5088 O 489.391 -1.93906 0.106748 0
M  V30 5089 C 486.521 -3.41996 0.604663 0
M  V30 5090 C 485.475 -3.95699 1.63115 0
M  V30 5091 C 484.801 -5.23936 1.0675 0
M  V30 5092 C 486.101 -4.25999 3.02196 0
M  V30 5093 H 487.795 -2.27054 1.95158 0
M  V30 5094 H 485.341 -1.09111 0.939727 0
M  V30 5095 H 487.294 -4.1899 0.45002 0
M  V30 5096 H 486.018 -3.24626 -0.35855 0
M  V30 5097 H 484.677 -3.2084 1.77362 0
M  V30 5098 H 484.325 -5.02909 0.0955422 0
M  V30 5099 H 484.025 -5.60833 1.75328 0
M  V30 5100 H 485.549 -6.0356 0.924516 0
M  V30 5101 H 486.963 -4.93777 2.91303 0
M  V30 5102 H 485.36 -4.74076 3.67929 0
M  V30 5103 H 486.43 -3.33636 3.51873 0
M  V30 5104 N 487.773 -1.03688 -1.18687 0
M  V30 5105 C 488.72 -0.624624 -2.22187 0
M  V30 5106 C 489.69 0.365636 -1.62026 0
M  V30 5107 O 490.875 0.260481 -1.89014 0
M  V30 5108 C 488.015 0.0101738 -3.45099 0
M  V30 5109 C 487.128 -1.02709 -4.19613 0
M  V30 5110 C 486.263 -0.361213 -5.2997 0
M  V30 5111 C 485.302 -1.38384 -5.96252 0
M  V30 5112 N 484.439 -0.743196 -6.98155 0
M  V30 5113 H 489.279 -1.51176 -2.56807 0
M  V30 5114 H 486.816 -0.75636 -1.26165 0
M  V30 5115 H 488.774 0.395528 -4.15321 0
M  V30 5116 H 487.404 0.860848 -3.1111 0
M  V30 5117 H 486.456 -1.53043 -3.48256 0
M  V30 5118 H 487.768 -1.80398 -4.65036 0
M  V30 5119 H 486.922 0.0785537 -6.06649 0
M  V30 5120 H 485.661 0.447799 -4.8564 0
M  V30 5121 H 484.666 -1.83378 -5.18317 0
M  V30 5122 H 485.891 -2.19448 -6.42666 0
M  V30 5123 H 483.837 0.0455789 -6.55984 0
M  V30 5124 H 483.754 -1.45784 -7.41811 0
M  V30 5125 H 485.022 -0.327698 -7.78811 0
M  V30 5126 N 489.251 1.34841 -0.815825 0
M  V30 5127 C 490.214 2.27959 -0.238185 0
M  V30 5128 C 491.214 1.49983 0.579816 0
M  V30 5129 O 492.404 1.69617 0.396953 0
M  V30 5130 C 489.536 3.34314 0.666876 0
M  V30 5131 H 490.729 2.80558 -1.05958 0
M  V30 5132 H 488.282 1.44852 -0.587156 0
M  V30 5133 H 489.017 2.86916 1.5116 0
M  V30 5134 H 488.802 3.92014 0.0819106 0
M  V30 5135 H 490.292 4.0379 1.06506 0
M  V30 5136 N 490.729 0.570148 1.46925 0
M  V30 5137 C 491.662 -0.218362 2.27153 0
M  V30 5138 C 492.64 -0.90847 1.34854 0
M  V30 5139 O 493.824 -0.924875 1.64251 0
M  V30 5140 C 490.951 -1.3122 3.12248 0
M  V30 5141 C 489.997 -0.729277 4.20219 0
M  V30 5142 S 490.83 0.434159 5.33737 0
M  V30 5143 C 491.986 -0.661188 6.22398 0
M  V30 5144 H 492.219 0.462393 2.93682 0
M  V30 5145 H 489.752 0.356753 1.50222 0
M  V30 5146 H 491.71 -1.93856 3.61842 0
M  V30 5147 H 490.371 -1.96485 2.45056 0
M  V30 5148 H 489.564 -1.5511 4.79538 0
M  V30 5149 H 489.166 -0.178836 3.73572 0
M  V30 5150 H 491.458 -1.55006 6.5953 0
M  V30 5151 H 492.401 -0.105046 7.08022 0
M  V30 5152 H 492.809 -0.959682 5.56283 0
M  V30 5153 N 492.207 -1.54576 0.307264 0
M  V30 5154 C 493.137 -2.26708 -0.55907 0
M  V30 5155 C 494.118 -1.26893 -1.1328 0
M  V30 5156 O 495.303 -1.55677 -1.16097 0
M  V30 5157 C 492.433 -3.01259 -1.72801 0
M  V30 5158 C 491.387 -4.08275 -1.28435 0
M  V30 5159 C 490.713 -4.70575 -2.53895 0
M  V30 5160 C 492.013 -5.2068 -0.411038 0
M  V30 5161 H 493.707 -2.9937 0.042576 0
M  V30 5162 H 491.253 -1.43983 0.0219173 0
M  V30 5163 H 493.206 -3.50444 -2.34023 0
M  V30 5164 H 491.93 -2.26187 -2.356 0
M  V30 5165 H 490.589 -3.59949 -0.695161 0
M  V30 5166 H 490.237 -3.92136 -3.15021 0
M  V30 5167 H 489.937 -5.42854 -2.24908 0
M  V30 5168 H 491.461 -5.22527 -3.15908 0
M  V30 5169 H 492.875 -5.65721 -0.929097 0
M  V30 5170 H 491.272 -5.99716 -0.214664 0
M  V30 5171 H 492.342 -4.81629 0.562287 0
M  V30 5172 N 493.685 -0.035106 -1.57561 0
M  V30 5173 C 494.595 0.960295 -2.14046 0
M  V30 5174 C 495.611 1.3529 -1.0942 0
M  V30 5175 O 496.787 1.43309 -1.41508 0
M  V30 5176 C 493.852 2.22214 -2.66124 0
M  V30 5177 C 492.913 1.8894 -3.85487 0
M  V30 5178 C 492.146 3.09109 -4.35072 0
M  V30 5179 O 492.369 4.21963 -3.83802 0
M  V30 5180 O 491.303 2.91058 -5.26848 0
M  V30 5181 H 495.129 0.509983 -2.99387 0
M  V30 5182 H 492.714 0.185853 -1.48239 0
M  V30 5183 H 494.596 2.96279 -2.99661 0
M  V30 5184 H 493.271 2.66414 -1.83862 0
M  V30 5185 H 492.178 1.12241 -3.56865 0
M  V30 5186 H 493.511 1.49551 -4.6893 0
M  V30 5187 N 495.163 1.55791 0.238111 0
M  V30 5188 C 496.411 1.77681 0.963001 0
M  V30 5189 C 496.732 0.600674 1.85518 0
M  V30 5190 O 496.002 -0.383182 1.92116 0
M  V30 5191 H 494.582 0.655315 0.358568 0
M  V30 5192 H 497.244 1.93239 0.253945 0
M  V30 5193 H 496.34 2.69177 1.57956 0
M  V30 5194 N 496.642 -0.504142 1.49319 0
M  V30 5195 C 497.867 -1.28729 1.62615 0
M  V30 5196 C 498.292 -1.85752 0.296309 0
M  V30 5197 O 497.65 -1.65704 -0.735649 0
M  V30 5198 C 497.698 -2.39561 2.69524 0
M  V30 5199 O 496.802 -3.43324 2.28478 0
M  V30 5200 H 496.143 -0.380172 0.544395 0
M  V30 5201 H 498.673 -0.603872 1.95485 0
M  V30 5202 H 498.683 -2.8537 2.91595 0
M  V30 5203 H 497.358 -1.97423 3.66056 0
M  V30 5204 H 495.935 -3.03455 2.16725 0
M  V30 5205 N 498.12 -1.38341 -0.754957 0
M  V30 5206 C 499.03 -1.3769 -1.89944 0
M  V30 5207 C 500.046 -0.274194 -1.71826 0
M  V30 5208 O 501.222 -0.512391 -1.94773 0
M  V30 5209 C 498.287 -1.19938 -3.25293 0
M  V30 5210 C 497.348 -2.40001 -3.55946 0
M  V30 5211 C 496.581 -2.23087 -4.84838 0
M  V30 5212 O 496.804 -1.22386 -5.57116 0
M  V30 5213 O 495.738 -3.11646 -5.14937 0
M  V30 5214 H 499.564 -2.3412 -1.93446 0
M  V30 5215 H 497.149 -1.19246 -0.900044 0
M  V30 5216 H 499.031 -1.12093 -4.06218 0
M  V30 5217 H 497.706 -0.265919 -3.22606 0
M  V30 5218 H 496.613 -2.53421 -2.75188 0
M  V30 5219 H 497.946 -3.31973 -3.63394 0
M  V30 5220 N 499.598 0.982988 -1.23187 0
M  V30 5221 C 500.844 1.72648 -1.06398 0
M  V30 5222 C 501.177 1.90066 0.398561 0
M  V30 5223 O 500.452 1.45105 1.29518 0
M  V30 5224 C 500.735 3.12627 -1.78707 0
M  V30 5225 C 500.588 3.02795 -3.32618 0
M  V30 5226 C 501.907 4.11997 -1.54747 0
M  V30 5227 H 499.026 0.626649 -0.387918 0
M  V30 5228 H 501.668 1.14455 -1.51658 0
M  V30 5229 H 499.818 3.62308 -1.40234 0
M  V30 5230 H 501.49 2.60659 -3.80598 0
M  V30 5231 H 499.733 2.39362 -3.61785 0
M  V30 5232 H 500.404 4.01893 -3.78399 0
M  V30 5233 H 502.88 3.71114 -1.88186 0
M  V30 5234 H 501.756 5.08037 -2.07821 0
M  V30 5235 H 502.017 4.39462 -0.482249 0
M  V30 5236 N 501.076 1.04316 1.18135 0
M  V30 5237 C 502.353 0.662166 1.84051 0
M  V30 5238 C 502.733 -0.858169 1.9287 0
M  V30 5239 O 502.081 -1.76062 1.45652 0
M  V30 5240 C 502.291 1.3409 3.22212 0
M  V30 5241 C 503.639 1.4733 3.9822 0
M  V30 5242 O 504.663 1.29921 3.31661 0
M  V30 5243 O 503.522 1.75722 5.17479 0
M  V30 5244 H 500.616 0.232005 0.79379 0
M  V30 5245 H 503.162 1.1422 1.25506 0
M  V30 5246 H 501.934 2.37853 3.10711 0
M  V30 5247 H 501.557 0.849649 3.88416 0
M  V30 5248 N 502.554 -1.34406 0.822964 0
M  V30 5249 C 503.784 -2.02214 0.423424 0
M  V30 5250 C 504.192 -1.62124 -0.975322 0
M  V30 5251 O 503.535 -0.822452 -1.6426 0
M  V30 5252 C 503.597 -3.56721 0.446107 0
M  V30 5253 C 503.261 -4.20136 1.79819 0
M  V30 5254 C 504.258 -4.4065 2.75904 0
M  V30 5255 C 501.943 -4.56906 2.08669 0
M  V30 5256 C 503.937 -4.9706 3.99012 0
M  V30 5257 C 501.624 -5.13026 3.32036 0
M  V30 5258 C 502.622 -5.33047 4.27024 0
M  V30 5259 O 502.31 -5.87979 5.48211 0
M  V30 5260 H 502.042 -0.654748 0.168169 0
M  V30 5261 H 504.596 -1.72659 1.11257 0
M  V30 5262 H 502.826 -3.85537 -0.299734 0
M  V30 5263 H 504.515 -4.05845 0.0666114 0
M  V30 5264 H 505.281 -4.12607 2.54912 0
M  V30 5265 H 501.16 -4.40626 1.35535 0
M  V30 5266 H 504.704 -5.12603 4.73164 0
M  V30 5267 H 500.601 -5.40498 3.52891 0
M  V30 5268 H 501.369 -6.06413 5.49732 0
M  V30 5269 N 504.032 -0.577932 -1.46621 0
M  V30 5270 C 504.995 0.147805 -2.28723 0
M  V30 5271 C 505.995 0.823325 -1.38123 0
M  V30 5272 O 507.185 0.676011 -1.60548 0
M  V30 5273 C 504.317 1.21853 -3.18378 0
M  V30 5274 H 505.51 -0.573654 -2.94362 0
M  V30 5275 H 503.063 -0.335703 -1.52652 0
M  V30 5276 H 503.798 1.97173 -2.57475 0
M  V30 5277 H 503.583 0.738714 -3.85078 0
M  V30 5278 H 505.073 1.72768 -3.80186 0
M  V30 5279 N 505.51 1.54411 -0.315457 0
M  V30 5280 C 506.442 2.21527 0.588067 0
M  V30 5281 C 507.455 1.21263 1.08624 0
M  V30 5282 O 508.644 1.47777 1.00121 0
M  V30 5283 C 505.744 2.85963 1.81875 0
M  V30 5284 C 504.917 4.12291 1.46063 0
M  V30 5285 C 503.976 4.60396 2.54799 0
M  V30 5286 O 503.002 5.25265 2.19283 0
M  V30 5287 N 504.204 4.33935 3.85591 0
M  V30 5288 H 506.969 2.99697 0.013414 0
M  V30 5289 H 504.53 1.61308 -0.138295 0
M  V30 5290 H 506.522 3.15071 2.53993 0
M  V30 5291 H 505.092 2.11548 2.30144 0
M  V30 5292 H 504.312 3.90036 0.571445 0
M  V30 5293 H 505.6 4.9452 1.19695 0
M  V30 5294 H 504.998 3.81996 4.17248 0
M  V30 5295 H 503.555 4.67718 4.53964 0
M  V30 5296 N 506.988 0.0434614 1.5754 0
M  V30 5297 C 508.234 -0.632971 1.92669 0
M  V30 5298 C 508.567 -1.70947 0.921446 0
M  V30 5299 O 507.842 -1.94426 -0.0537202 0
M  V30 5300 C 508.125 -1.23619 3.38216 0
M  V30 5301 C 507.978 -0.168274 4.49485 0
M  V30 5302 C 509.297 -2.15008 3.84005 0
M  V30 5303 H 506.416 -0.228629 0.700641 0
M  V30 5304 H 509.058 0.103651 1.89717 0
M  V30 5305 H 507.208 -1.864 3.40863 0
M  V30 5306 H 508.88 0.463196 4.58969 0
M  V30 5307 H 507.123 0.504581 4.30855 0
M  V30 5308 H 507.794 -0.630218 5.48391 0
M  V30 5309 H 510.27 -1.62198 3.83185 0
M  V30 5310 H 509.146 -2.54161 4.86511 0
M  V30 5311 H 509.407 -3.04707 3.20322 0
M  V30 5312 N 508.466 -1.55915 -0.229846 0
M  V30 5313 C 509.414 -1.9258 -1.30444 0
M  V30 5314 C 510.408 -0.806839 -1.48951 0
M  V30 5315 O 511.614 -0.991606 -1.50224 0
M  V30 5316 H 507.989 -0.611878 -0.437161 0
M  V30 5317 H 509.96 -2.82264 -0.96797 0
M  V30 5318 C 508.709 -2.25171 -2.6494 0
M  V30 5319 H 508.032 -3.10782 -2.51504 0
M  V30 5320 H 509.472 -2.54716 -3.38963 0
M  V30 5321 C 507.931 -1.07394 -3.19324 0
M  V30 5322 O 508.461 -0.330759 -4.00336 0
M  V30 5323 N 506.667 -0.859984 -2.77584 0
M  V30 5324 H 506.214 -1.46605 -2.11813 0
M  V30 5325 H 506.172 -0.0736671 -3.14314 0
M  V30 5326 N 509.944 0.496216 -1.49584 0
M  V30 5327 C 511.221 1.25755 -1.49816 0
M  V30 5328 C 511.601 2.09859 -0.228572 0
M  V30 5329 O 510.949 2.14449 0.788908 0
M  V30 5330 C 511.159 2.11017 -2.7798 0
M  V30 5331 C 512.507 2.70047 -3.27658 0
M  V30 5332 O 513.531 2.21281 -2.79129 0
M  V30 5333 O 512.39 3.58834 -4.1219 0
M  V30 5334 H 509.484 0.569322 -0.599834 0
M  V30 5335 H 512.03 0.510094 -1.61852 0
M  V30 5336 H 510.802 1.48879 -3.61871 0
M  V30 5337 H 510.425 2.92947 -2.68827 0
M  V30 5338 N 511.423 1.38739 0.74761 0
M  V30 5339 C 512.355 1.32341 1.87132 0
M  V30 5340 C 513.368 0.234502 1.61102 0
M  V30 5341 O 514.557 0.492516 1.71571 0
M  V30 5342 C 511.657 1.02915 3.22896 0
M  V30 5343 C 510.83 2.22834 3.76383 0
M  V30 5344 C 509.889 1.90059 4.90677 0
M  V30 5345 O 508.915 2.62615 5.04997 0
M  V30 5346 N 510.117 0.859141 5.74107 0
M  V30 5347 H 512.882 2.29175 1.93129 0
M  V30 5348 H 510.443 1.32678 0.927805 0
M  V30 5349 H 512.435 0.79031 3.96908 0
M  V30 5350 H 511.005 0.148572 3.12247 0
M  V30 5351 H 510.225 2.62747 2.93867 0
M  V30 5352 H 511.513 3.02851 4.08851 0
M  V30 5353 H 510.911 0.257564 5.65113 0
M  V30 5354 H 509.468 0.680189 6.48241 0
M  V30 5355 N 512.901 -0.976442 1.23707 0
M  V30 5356 C 514.147 -1.72081 1.07312 0
M  V30 5357 C 514.48 -1.90275 -0.388476 0
M  V30 5358 O 513.755 -1.4579 -1.28746 0
M  V30 5359 C 514.038 -3.11675 1.80363 0
M  V30 5360 C 513.891 -3.01027 3.3422 0
M  V30 5361 C 515.21 -4.1117 1.5693 0
M  V30 5362 H 512.329 -0.624583 0.391236 0
M  V30 5363 H 514.971 -1.13649 1.52263 0
M  V30 5364 H 513.121 -3.61559 1.42153 0
M  V30 5365 H 514.793 -2.58637 3.81975 0
M  V30 5366 H 513.036 -2.3744 3.63049 0
M  V30 5367 H 513.707 -3.9988 3.80525 0
M  V30 5368 H 516.183 -3.7011 1.90151 0
M  V30 5369 H 515.059 -5.06928 2.10513 0
M  V30 5370 H 515.32 -4.392 0.505548 0
M  V30 5371 N 514.379 -1.04941 -1.1758 0
M  V30 5372 C 515.607 -0.778294 -1.91703 0
M  V30 5373 C 516.022 0.665697 -1.76675 0
M  V30 5374 O 515.379 1.45456 -1.10222 0
M  V30 5375 C 515.43 -1.14628 -3.42845 0
M  V30 5376 O 515.151 -2.53359 -3.57409 0
M  V30 5377 C 516.652 -0.900931 -4.34049 0
M  V30 5378 H 513.872 -0.283167 -0.608323 0
M  V30 5379 H 516.416 -1.39942 -1.49119 0
M  V30 5380 H 514.571 -0.569953 -3.83184 0
M  V30 5381 H 514.985 -2.67709 -4.51035 0
M  V30 5382 H 516.459 -1.20817 -5.38616 0
M  V30 5383 H 516.936 0.163966 -4.38894 0
M  V30 5384 H 517.542 -1.46097 -3.99419 0
M  V30 5385 N 515.857 1.33968 -0.830081 0
M  V30 5386 C 517.104 1.98063 -0.421566 0
M  V30 5387 C 517.432 1.65787 1.0171 0
M  V30 5388 O 516.687 0.925348 1.72441 0
M  V30 5389 C 516.986 3.52679 -0.57898 0
M  V30 5390 C 516.652 4.04884 -1.98443 0
M  V30 5391 C 515.314 4.18852 -2.36888 0
M  V30 5392 C 517.666 4.32879 -2.90285 0
M  V30 5393 C 514.994 4.58145 -3.66497 0
M  V30 5394 C 517.346 4.7362 -4.19364 0
M  V30 5395 C 516.01 4.85794 -4.57778 0
M  V30 5396 H 515.28 0.724765 -0.154262 0
M  V30 5397 H 517.927 1.59792 -1.05541 0
M  V30 5398 H 516.232 3.91556 0.138219 0
M  V30 5399 H 517.929 4.00261 -0.243317 0
M  V30 5400 H 514.519 3.9448 -1.67581 0
M  V30 5401 H 518.703 4.21619 -2.61823 0
M  V30 5402 H 513.959 4.65762 -3.96075 0
M  V30 5403 H 518.133 4.9424 -4.90612 0
M  V30 5404 H 515.76 5.15998 -5.58256 0
M  V30 5405 N 517.335 0.585699 1.46312 0
M  V30 5406 C 518.584 0.0701192 2.01578 0
M  V30 5407 C 518.897 -1.29889 1.46247 0
M  V30 5408 O 520.103 -1.90598 1.93351 0
M  V30 5409 C 518.559 0.0747499 3.59822 0
M  V30 5410 C 518.167 1.44226 4.24149 0
M  V30 5411 C 519.911 -0.38673 4.22735 0
M  V30 5412 C 517.818 1.40446 5.74481 0
M  V30 5413 H 516.748 0.0224441 0.753666 0
M  V30 5414 H 519.399 0.737789 1.68015 0
M  V30 5415 H 517.781 -0.659144 3.90476 0
M  V30 5416 H 518.955 2.19612 4.05101 0
M  V30 5417 H 517.27 1.84401 3.73343 0
M  V30 5418 H 519.867 -0.433853 5.32937 0
M  V30 5419 H 520.21 -1.40489 3.91878 0
M  V30 5420 H 520.743 0.293195 3.96718 0
M  V30 5421 H 517.482 2.39952 6.10003 0
M  V30 5422 H 517.002 0.692845 5.95785 0
M  V30 5423 H 518.681 1.11865 6.37256 0
M  V30 5424 N 518.813 -1.54241 0.323641 0
M  V30 5425 C 520.09 -1.92741 -0.333181 0
M  V30 5426 C 520.47 -1.25326 -1.69872 0
M  V30 5427 O 519.818 -0.396991 -2.25025 0
M  V30 5428 C 520.028 -3.46399 -0.425322 0
M  V30 5429 C 521.376 -4.19029 -0.68557 0
M  V30 5430 O 522.4 -3.52555 -0.50824 0
M  V30 5431 O 521.259 -5.36751 -1.02767 0
M  V30 5432 H 518.353 -0.804811 -0.190286 0
M  V30 5433 H 520.899 -1.65542 0.373361 0
M  V30 5434 H 519.671 -3.87643 0.533737 0
M  V30 5435 H 519.294 -3.79704 -1.17944 0
M  V30 5436 N 520.291 -0.0518155 -1.57515 0
M  V30 5437 C 521.239 0.940195 -2.12751 0
M  V30 5438 C 522.233 1.3218 -1.05948 0
M  V30 5439 O 523.439 1.30138 -1.24355 0
M  V30 5440 H 519.814 0.321066 -0.680015 0
M  V30 5441 H 521.785 0.449217 -2.94999 0
M  V30 5442 C 520.534 2.2055 -2.68799 0
M  V30 5443 H 519.857 1.92066 -3.50643 0
M  V30 5444 H 521.297 2.88119 -3.11068 0
M  V30 5445 C 519.756 2.95061 -1.62605 0
M  V30 5446 O 520.286 3.88025 -1.03921 0
M  V30 5447 N 518.492 2.57804 -1.34111 0
M  V30 5448 H 518.039 1.82281 -1.8202 0
M  V30 5449 H 517.997 3.07964 -0.632872 0
M  V30 5450 N 521.769 1.56035 0.221574 0
M  V30 5451 C 522.719 1.8881 1.27807 0
M  V30 5452 C 523.703 0.751177 1.42289 0
M  V30 5453 O 524.895 1.01359 1.45104 0
M  V30 5454 C 522.024 2.20828 2.6285 0
M  V30 5455 C 521.11 3.40912 2.52269 0
M  V30 5456 N 521.501 4.59531 2.1134 0
M  V30 5457 C 519.799 3.44526 2.83228 0
M  V30 5458 C 520.5 5.41689 2.1201 0
M  V30 5459 N 519.476 4.814 2.52497 0
M  V30 5460 H 523.278 2.78036 0.952529 0
M  V30 5461 H 520.792 1.566 0.430134 0
M  V30 5462 H 522.789 2.42483 3.39127 0
M  V30 5463 H 521.449 1.32914 2.9625 0
M  V30 5464 H 522.46 4.8469 1.82472 0
M  V30 5465 H 519.137 2.66956 3.21 0
M  V30 5466 H 520.527 6.46643 1.82491 0
M  V30 5467 N 523.247 -0.488276 1.49845 0
M  V30 5468 C 524.524 -1.24959 1.50481 0
M  V30 5469 C 524.904 -2.09735 0.239698 0
M  V30 5470 O 524.252 -2.14865 -0.777524 0
M  V30 5471 C 524.462 -2.0954 2.79095 0
M  V30 5472 C 525.81 -2.68305 3.29086 0
M  V30 5473 O 526.834 -2.19797 2.80299 0
M  V30 5474 O 525.693 -3.56643 4.14087 0
M  V30 5475 H 522.787 -0.566133 0.602845 0
M  V30 5476 H 525.333 -0.501504 1.6212 0
M  V30 5477 H 524.105 -1.46958 3.62656 0
M  V30 5478 H 523.728 -2.91517 2.70377 0
M  V30 5479 N 524.725 -1.39134 -0.740242 0
M  V30 5480 C 525.658 -1.3182 -1.86276 0
M  V30 5481 C 526.636 -0.192794 -1.61453 0
M  V30 5482 O 527.82 -0.372365 -1.84786 0
M  V30 5483 C 524.947 -1.04564 -3.22155 0
M  V30 5484 C 523.993 -2.19224 -3.65846 0
M  V30 5485 S 524.826 -3.81466 -3.75824 0
M  V30 5486 C 525.982 -3.56425 -5.14502 0
M  V30 5487 H 526.215 -2.26822 -1.92195 0
M  V30 5488 H 523.748 -1.25127 -0.904576 0
M  V30 5489 H 525.706 -0.895228 -4.00619 0
M  V30 5490 H 524.367 -0.112578 -3.13898 0
M  V30 5491 H 523.56 -1.95732 -4.6444 0
M  V30 5492 H 523.162 -2.30441 -2.94572 0
M  V30 5493 H 525.454 -3.13366 -6.00673 0
M  V30 5494 H 526.397 -4.54462 -5.43019 0
M  V30 5495 H 526.805 -2.90641 -4.8393 0
M  V30 5496 N 526.204 0.969867 -1.24223 0
M  V30 5497 C 527.114 2.09806 -1.0497 0
M  V30 5498 C 528.13 1.73998 0.00886455 0
M  V30 5499 O 529.306 2.00513 -0.188848 0
M  V30 5500 C 526.371 3.40467 -0.654452 0
M  V30 5501 C 525.432 3.90236 -1.78926 0
M  V30 5502 C 524.665 5.14662 -1.41277 0
M  V30 5503 O 524.888 5.69602 -0.301632 0
M  V30 5504 O 523.822 5.58761 -2.23763 0
M  V30 5505 H 527.648 2.28942 -1.99548 0
M  V30 5506 H 525.233 1.08197 -1.03023 0
M  V30 5507 H 527.115 4.19039 -0.445452 0
M  V30 5508 H 525.79 3.22636 0.262216 0
M  V30 5509 H 524.697 3.12735 -2.05299 0
M  V30 5510 H 526.03 4.1254 -2.68462 0
M  V30 5511 N 527.682 1.05563 1.17022 0
M  V30 5512 C 529.098 0.777684 1.39371 0
M  V30 5513 C 529.298 -0.626269 1.91521 0
M  V30 5514 O 528.354 -1.38806 2.10924 0
M  V30 5515 C 529.667 1.83642 2.3811 0
M  V30 5516 C 531.215 1.85907 2.51809 0
M  V30 5517 C 531.69 2.90813 3.53824 0
M  V30 5518 N 533.181 2.898 3.61345 0
M  V30 5519 C 533.916 3.6762 4.40049 0
M  V30 5520 N 533.412 4.55237 5.22237 0
M  V30 5521 N 535.205 3.56044 4.34959 0
M  V30 5522 H 527.356 1.9614 0.815047 0
M  V30 5523 H 529.619 0.849527 0.420722 0
M  V30 5524 H 529.325 2.84425 2.06871 0
M  V30 5525 H 529.199 1.6812 3.37662 0
M  V30 5526 H 531.586 0.857865 2.82356 0
M  V30 5527 H 531.667 2.05506 1.52318 0
M  V30 5528 H 531.311 3.91122 3.24015 0
M  V30 5529 H 531.241 2.68465 4.53028 0
M  V30 5530 H 533.732 2.26274 3.02669 0
M  V30 5531 H 534.045 5.11291 5.79484 0
M  V30 5532 H 532.39 4.59296 5.21605 0
M  V30 5533 H 535.581 2.86986 3.69806 0
M  V30 5534 H 535.754 4.16938 4.96051 0
M  V30 5535 N 529.16 -1.33526 0.837174 0
M  V30 5536 C 530.407 -1.97837 0.432064 0
M  V30 5537 C 530.735 -1.66324 -1.00829 0
M  V30 5538 O 529.99 -0.93448 -1.71948 0
M  V30 5539 C 530.289 -3.52367 0.597675 0
M  V30 5540 C 529.955 -4.03826 2.00587 0
M  V30 5541 C 528.617 -4.1759 2.39106 0
M  V30 5542 C 530.969 -4.31333 2.92576 0
M  V30 5543 C 528.297 -4.56195 3.68921 0
M  V30 5544 C 530.649 -4.7139 4.2187 0
M  V30 5545 C 529.313 -4.8336 4.60347 0
M  V30 5546 H 528.583 -0.723937 0.158104 0
M  V30 5547 H 531.23 -1.5923 1.06387 0
M  V30 5548 H 529.535 -3.91624 -0.117452 0
M  V30 5549 H 531.232 -4.00126 0.26454 0
M  V30 5550 H 527.822 -3.93586 1.69671 0
M  V30 5551 H 532.006 -4.20224 2.64056 0
M  V30 5552 H 527.262 -4.63655 3.9854 0
M  V30 5553 H 531.436 -4.91631 4.93226 0
M  V30 5554 H 529.063 -5.1303 5.60985 0
M  V30 5555 N 530.638 -0.59345 -1.46 0
M  V30 5556 C 531.588 0.154751 -2.27474 0
M  V30 5557 C 532.572 0.851849 -1.365 0
M  V30 5558 O 533.764 0.744171 -1.60596 0
M  V30 5559 C 530.893 1.16079 -3.2308 0
M  V30 5560 C 529.979 0.465256 -4.2154 0
M  V30 5561 N 530.37 -0.485197 -5.03467 0
M  V30 5562 C 528.668 0.714634 -4.40237 0
M  V30 5563 C 529.369 -0.892709 -5.74809 0
M  V30 5564 N 528.345 -0.239511 -5.43072 0
M  V30 5565 H 532.147 -0.57546 -2.88211 0
M  V30 5566 H 529.661 -0.416046 -1.5698 0
M  V30 5567 H 531.658 1.71108 -3.80168 0
M  V30 5568 H 530.318 1.89171 -2.63903 0
M  V30 5569 H 531.329 -0.861258 -5.10689 0
M  V30 5570 H 528.006 1.43131 -3.92199 0
M  V30 5571 H 529.396 -1.67581 -6.50666 0
M  V30 5572 N 532.116 1.54067 -0.331816 0
M  V30 5573 C 533.344 2.05131 0.269996 0
M  V30 5574 C 533.759 1.20749 1.45138 0
M  V30 5575 O 533.116 0.240069 1.80914 0
M  V30 5576 C 533.167 3.54728 0.696456 0
M  V30 5577 O 532.888 4.35906 -0.43794 0
M  V30 5578 C 534.389 4.21916 1.36021 0
M  V30 5579 H 531.609 0.668807 0.0542042 0
M  V30 5580 H 534.153 1.98777 -0.4804 0
M  V30 5581 H 532.308 3.61342 1.39681 0
M  V30 5582 H 532.722 5.24404 -0.100334 0
M  V30 5583 H 534.196 5.28015 1.60947 0
M  V30 5584 H 534.673 3.73538 2.31011 0
M  V30 5585 H 535.279 4.19463 0.702212 0
M  V30 5586 N 533.594 0.0601682 1.57485 0
M  V30 5587 C 534.819 -0.624416 1.97777 0
M  V30 5588 C 535.244 -1.63051 0.937867 0
M  V30 5589 O 534.602 -1.81036 -0.0978845 0
M  V30 5590 C 534.65 -1.27979 3.37126 0
M  V30 5591 O 533.754 -2.39556 3.35688 0
M  V30 5592 H 533.095 -0.161581 0.64404 0
M  V30 5593 H 535.625 0.131237 2.04179 0
M  V30 5594 H 535.635 -1.62937 3.74053 0
M  V30 5595 H 534.31 -0.542501 4.12347 0
M  V30 5596 H 532.887 -2.06478 3.10517 0
M  V30 5597 N 535.072 -1.5615 -0.213296 0
M  V30 5598 C 536.02 -1.93953 -1.28394 0
M  V30 5599 C 537.014 -0.822592 -1.48087 0
M  V30 5600 O 538.22 -1.00748 -1.49164 0
M  V30 5601 H 534.595 -0.61648 -0.430646 0
M  V30 5602 H 536.566 -2.83275 -0.937977 0
M  V30 5603 C 535.315 -2.27969 -2.62537 0
M  V30 5604 H 534.638 -3.13432 -2.48194 0
M  V30 5605 H 536.078 -2.58297 -3.36242 0
M  V30 5606 C 534.537 -1.10775 -3.18167 0
M  V30 5607 O 535.067 -0.373201 -3.99963 0
M  V30 5608 N 533.273 -0.889377 -2.76656 0
M  V30 5609 H 532.82 -1.48843 -2.10246 0
M  V30 5610 H 532.778 -0.107 -3.14218 0
M  V30 5611 N 536.55 0.480323 -1.50102 0
M  V30 5612 C 537.798 1.23063 -1.60312 0
M  V30 5613 C 538.119 1.92659 -0.301226 0
M  V30 5614 O 537.389 1.83691 0.680753 0
M  V30 5615 H 535.969 0.457231 -0.590719 0
M  V30 5616 H 538.631 0.554893 -1.86834 0
M  V30 5617 H 537.727 1.9835 -2.40964 0
M  V30 5618 N 538.028 1.39524 0.732853 0
M  V30 5619 C 539.305 1.27373 1.48444 0
M  V30 5620 C 539.685 -0.115725 2.10783 0
M  V30 5621 O 539.033 -1.12713 1.98766 0
M  V30 5622 C 539.243 2.39966 2.53412 0
M  V30 5623 C 540.591 2.79384 3.19733 0
M  V30 5624 O 541.615 2.39431 2.63725 0
M  V30 5625 O 540.474 3.48353 4.21085 0
M  V30 5626 H 537.568 0.499272 0.659285 0
M  V30 5627 H 540.114 1.51403 0.766496 0
M  V30 5628 H 538.886 3.32845 2.05742 0
M  V30 5629 H 538.509 2.17612 3.32762 0
M  V30 5630 N 539.506 -0.963266 1.24736 0
M  V30 5631 C 540.922 -1.23273 1.01371 0
M  V30 5632 C 541.122 -1.99618 -0.274776 0
M  V30 5633 O 540.178 -2.32293 -0.989769 0
M  V30 5634 C 541.491 -2.01554 2.23152 0
M  V30 5635 C 543.039 -2.14629 2.27823 0
M  V30 5636 C 543.514 -2.96307 3.49237 0
M  V30 5637 N 545.005 -3.03887 3.49581 0
M  V30 5638 C 545.74 -3.67456 4.40186 0
M  V30 5639 N 545.236 -4.32706 5.41052 0
M  V30 5640 N 547.029 -3.64511 4.27888 0
M  V30 5641 H 539.18 -0.452294 2.07528 0
M  V30 5642 H 541.443 -0.262521 0.910926 0
M  V30 5643 H 541.149 -1.52847 3.1675 0
M  V30 5644 H 541.023 -3.02278 2.25628 0
M  V30 5645 H 543.41 -2.62537 1.34753 0
M  V30 5646 H 543.491 -1.13238 2.2937 0
M  V30 5647 H 543.135 -2.49091 4.42624 0
M  V30 5648 H 543.065 -3.97905 3.44933 0
M  V30 5649 H 545.556 -2.57477 2.76611 0
M  V30 5650 H 545.869 -4.79042 6.06415 0
M  V30 5651 H 544.214 -4.31361 5.44934 0
M  V30 5652 H 547.405 -3.12715 3.4832 0
M  V30 5653 H 547.578 -4.13768 4.98698 0
M  V30 5654 N 540.985 -1.06182 -1.16461 0
M  V30 5655 C 542.401 -0.785065 -1.38956 0
M  V30 5656 C 542.601 0.616103 -1.9185 0
M  V30 5657 O 541.657 1.37686 -2.11657 0
M  V30 5658 C 542.97 -1.84902 -2.37132 0
M  V30 5659 C 544.518 -1.8724 -2.50819 0
M  V30 5660 C 544.993 -2.92686 -3.52277 0
M  V30 5661 N 546.484 -2.91712 -3.59803 0
M  V30 5662 C 547.219 -3.69949 -4.38093 0
M  V30 5663 N 546.715 -4.58 -5.19815 0
M  V30 5664 N 548.508 -3.58346 -4.33064 0
M  V30 5665 H 540.659 -1.96569 -0.804634 0
M  V30 5666 H 542.922 -0.851747 -0.416211 0
M  V30 5667 H 542.628 -2.85518 -2.0536 0
M  V30 5668 H 542.502 -1.69908 -3.36766 0
M  V30 5669 H 544.889 -0.872827 -2.81897 0
M  V30 5670 H 544.97 -2.06311 -1.51226 0
M  V30 5671 H 544.614 -3.92835 -3.21937 0
M  V30 5672 H 544.544 -2.70864 -4.51598 0
M  V30 5673 H 547.035 -2.27876 -3.01464 0
M  V30 5674 H 547.348 -5.14357 -5.76764 0
M  V30 5675 H 545.693 -4.62056 -5.19162 0
M  V30 5676 H 548.884 -2.88943 -3.68279 0
M  V30 5677 H 549.057 -4.19563 -4.93833 0
M  V30 5678 N 542.463 1.3308 -0.844243 0
M  V30 5679 C 543.41 2.29104 -0.279323 0
M  V30 5680 C 544.38 1.54577 0.607882 0
M  V30 5681 O 545.565 1.8285 0.545009 0
M  V30 5682 C 542.705 3.40927 0.53508 0
M  V30 5683 C 541.818 4.30354 -0.376749 0
M  V30 5684 C 540.953 5.29297 0.449276 0
M  V30 5685 C 539.992 6.10365 -0.460606 0
M  V30 5686 N 539.129 7.01335 0.327612 0
M  V30 5687 H 543.969 2.76817 -1.10346 0
M  V30 5688 H 541.506 1.36203 -0.555611 0
M  V30 5689 H 543.464 4.04469 1.02278 0
M  V30 5690 H 542.094 2.94391 1.32414 0
M  V30 5691 H 541.146 3.67485 -0.982791 0
M  V30 5692 H 542.458 4.87067 -1.07549 0
M  V30 5693 H 541.612 5.98392 1.00058 0
M  V30 5694 H 540.351 4.73174 1.18143 0
M  V30 5695 H 539.356 5.40182 -1.02388 0
M  V30 5696 H 540.581 6.68571 -1.1912 0
M  V30 5697 H 538.527 6.47655 1.04305 0
M  V30 5698 H 538.444 7.55355 -0.3123 0
M  V30 5699 H 539.712 7.74731 0.86098 0
M  V30 5700 N 543.941 0.601185 1.45683 0
M  V30 5701 C 544.871 -0.108824 2.33246 0
M  V30 5702 C 545.852 -0.865223 1.46451 0
M  V30 5703 O 547.037 -0.83704 1.75235 0
M  V30 5704 C 544.167 -1.11101 3.2905 0
M  V30 5705 C 543.121 -0.468244 4.25431 0
M  V30 5706 C 542.447 -1.57822 5.10878 0
M  V30 5707 C 543.747 0.606469 5.18767 0
M  V30 5708 H 545.441 0.622306 2.92861 0
M  V30 5709 H 542.987 0.300714 1.40825 0
M  V30 5710 H 544.94 -1.61622 3.89174 0
M  V30 5711 H 543.664 -1.87265 2.67581 0
M  V30 5712 H 542.323 0.0160484 3.66596 0
M  V30 5713 H 541.971 -2.32998 4.45781 0
M  V30 5714 H 541.671 -1.15369 5.76163 0
M  V30 5715 H 543.195 -2.08583 5.73869 0
M  V30 5716 H 544.609 0.185589 5.73 0
M  V30 5717 H 543.006 0.952381 5.92494 0
M  V30 5718 H 544.076 1.48559 4.61582 0
M  V30 5719 N 545.419 -1.53889 0.339982 0
M  V30 5720 C 546.329 -2.28604 -0.526988 0
M  V30 5721 C 547.345 -1.33578 -1.11503 0
M  V30 5722 O 548.521 -1.66612 -1.13148 0
M  V30 5723 C 545.586 -3.04164 -1.66389 0
M  V30 5724 C 544.647 -4.14809 -1.10599 0
M  V30 5725 C 543.88 -4.86756 -2.18871 0
M  V30 5726 O 544.103 -4.58343 -3.39526 0
M  V30 5727 O 543.037 -5.73289 -1.83366 0
M  V30 5728 H 546.863 -3.03594 0.0802707 0
M  V30 5729 H 544.448 -1.4903 0.105141 0
M  V30 5730 H 546.33 -3.51427 -2.32544 0
M  V30 5731 H 545.005 -2.32035 -2.25703 0
M  V30 5732 H 543.912 -3.71857 -0.409067 0
M  V30 5733 H 545.245 -4.89029 -0.557771 0
M  V30 5734 N 546.897 -0.0685191 -1.57451 0
M  V30 5735 C 547.829 0.929372 -2.09512 0
M  V30 5736 C 548.842 1.26354 -1.02657 0
M  V30 5737 O 550.031 1.2213 -1.30179 0
M  V30 5738 C 547.131 2.24612 -2.53777 0
M  V30 5739 C 546.304 2.09128 -3.84167 0
M  V30 5740 C 545.363 3.24079 -4.14559 0
M  V30 5741 O 544.389 2.99215 -4.8421 0
M  V30 5742 N 545.591 4.49077 -3.67845 0
M  V30 5743 H 548.356 0.484901 -2.95751 0
M  V30 5744 H 545.917 0.11729 -1.61475 0
M  V30 5745 H 547.909 3.00412 -2.71172 0
M  V30 5746 H 546.479 2.60569 -1.72692 0
M  V30 5747 H 545.699 1.17815 -3.76182 0
M  V30 5748 H 546.987 1.9603 -4.69521 0
M  V30 5749 H 546.385 4.72165 -3.11571 0
M  V30 5750 H 544.942 5.21915 -3.90446 0
M  V30 5751 N 548.375 1.56261 0.205012 0
M  V30 5752 C 549.338 1.92908 1.23771 0
M  V30 5753 C 550.338 0.809208 1.38955 0
M  V30 5754 O 551.528 1.07676 1.36936 0
M  V30 5755 C 548.66 2.19442 2.60879 0
M  V30 5756 H 549.853 2.85287 0.924728 0
M  V30 5757 H 547.406 1.49798 0.446125 0
M  V30 5758 H 548.141 1.29668 2.97248 0
M  V30 5759 H 547.926 3.0104 2.51232 0
M  V30 5760 H 549.416 2.48833 3.35368 0
M  V30 5761 N 549.853 -0.472356 1.50355 0
M  V30 5762 C 550.783 -1.57859 1.72055 0
M  V30 5763 C 551.764 -1.60283 0.569505 0
M  V30 5764 O 552.949 -1.7657 0.808503 0
M  V30 5765 C 550.079 -2.96191 1.81351 0
M  V30 5766 C 549.033 -3.08633 2.96529 0
M  V30 5767 C 548.359 -4.486 2.90968 0
M  V30 5768 C 549.659 -2.85969 4.37057 0
M  V30 5769 H 551.353 -1.39953 2.64676 0
M  V30 5770 H 548.899 -0.671846 1.27367 0
M  V30 5771 H 550.852 -3.73507 1.95117 0
M  V30 5772 H 549.576 -3.15251 0.853502 0
M  V30 5773 H 548.235 -2.33749 2.82413 0
M  V30 5774 H 547.883 -4.64577 1.92815 0
M  V30 5775 H 547.583 -4.57861 3.68289 0
M  V30 5776 H 549.107 -5.27938 3.0678 0
M  V30 5777 H 550.521 -3.53036 4.51706 0
M  V30 5778 H 548.918 -3.06677 5.15819 0
M  V30 5779 H 549.988 -1.81838 4.49514 0
M  V30 5780 N 551.331 -1.39911 -0.725443 0
M  V30 5781 C 552.294 -1.39156 -1.82121 0
M  V30 5782 C 553.294 -0.287018 -1.58218 0
M  V30 5783 O 554.484 -0.545421 -1.65441 0
M  V30 5784 C 551.616 -1.1736 -3.20062 0
M  V30 5785 H 552.809 -2.36672 -1.84191 0
M  V30 5786 H 550.362 -1.25615 -0.930079 0
M  V30 5787 H 551.097 -0.205648 -3.23647 0
M  V30 5788 H 550.882 -1.97358 -3.3881 0
M  V30 5789 H 552.372 -1.19596 -4.00108 0
M  V30 5790 N 552.809 0.956637 -1.25245 0
M  V30 5791 C 554.056 1.701 -1.09874 0
M  V30 5792 C 554.384 1.91128 0.36062 0
M  V30 5793 O 553.639 1.47837 1.28229 0
M  V30 5794 C 553.938 3.08996 -1.79601 0
M  V30 5795 C 553.604 3.07774 -3.29523 0
M  V30 5796 C 552.266 3.07149 -3.70423 0
M  V30 5797 C 554.618 3.01257 -4.25316 0
M  V30 5798 C 551.946 2.97752 -5.0553 0
M  V30 5799 C 554.298 2.93403 -5.60444 0
M  V30 5800 C 552.962 2.91111 -6.00675 0
M  V30 5801 H 552.232 0.62244 -0.402056 0
M  V30 5802 H 554.879 1.1178 -1.55491 0
M  V30 5803 H 553.184 3.70848 -1.26408 0
M  V30 5804 H 554.881 3.65407 -1.65162 0
M  V30 5805 H 551.471 3.09032 -2.9698 0
M  V30 5806 H 555.655 3.00861 -3.9471 0
M  V30 5807 H 550.911 2.94346 -5.35883 0
M  V30 5808 H 555.085 2.87321 -6.34366 0
M  V30 5809 H 552.712 2.83586 -7.05325 0
M  V30 5810 N 554.287 1.06798 1.15896 0
M  V30 5811 C 555.515 0.808694 1.90441 0
M  V30 5812 C 555.93 -0.637506 1.77711 0
M  V30 5813 O 555.287 -1.43684 1.12522 0
M  V30 5814 C 555.338 1.20068 3.40978 0
M  V30 5815 O 555.059 2.59013 3.53333 0
M  V30 5816 C 556.56 0.96987 4.3256 0
M  V30 5817 H 553.78 0.292809 0.603742 0
M  V30 5818 H 556.324 1.42296 1.46874 0
M  V30 5819 H 554.479 0.630842 3.82229 0
M  V30 5820 H 554.893 2.7485 4.46719 0
M  V30 5821 H 556.367 1.29371 5.36626 0
M  V30 5822 H 556.844 -0.0941209 4.39099 0
M  V30 5823 H 557.45 1.52433 3.97044 0
M  V30 5824 N 555.766 -1.3263 0.851289 0
M  V30 5825 C 556.696 -2.31449 0.308771 0
M  V30 5826 C 557.677 -1.59531 -0.590255 0
M  V30 5827 O 558.862 -1.87351 -0.511205 0
M  V30 5828 C 555.992 -3.43586 -0.506548 0
M  V30 5829 C 554.946 -4.26963 0.297753 0
M  V30 5830 C 554.272 -5.30831 -0.642094 0
M  V30 5831 C 555.572 -4.99643 1.52166 0
M  V30 5832 H 557.266 -2.77074 1.13447 0
M  V30 5833 H 554.812 -1.33207 0.546971 0
M  V30 5834 H 556.765 -4.11754 -0.896474 0
M  V30 5835 H 555.489 -2.96681 -1.36558 0
M  V30 5836 H 554.148 -3.60437 0.669391 0
M  V30 5837 H 553.796 -4.8018 -1.49788 0
M  V30 5838 H 553.496 -5.87501 -0.107968 0
M  V30 5839 H 555.02 -6.01862 -1.02927 0
M  V30 5840 H 556.434 -5.6051 1.20421 0
M  V30 5841 H 554.831 -5.66022 1.99347 0
M  V30 5842 H 555.901 -4.27701 2.28474 0
M  V30 5843 N 557.244 -0.608902 -1.45362 0
M  V30 5844 C 558.472 -0.111013 -2.06602 0
M  V30 5845 C 558.887 1.20516 -1.45332 0
M  V30 5846 O 558.244 1.73437 -0.567978 0
M  V30 5847 C 558.295 0.033688 -3.61484 0
M  V30 5848 O 558.016 -1.23041 -4.20467 0
M  V30 5849 C 559.517 0.562882 -4.39712 0
M  V30 5850 H 556.737 -0.0694453 -0.667397 0
M  V30 5851 H 559.281 -0.837008 -1.86586 0
M  V30 5852 H 557.436 0.710016 -3.80838 0
M  V30 5853 H 557.85 -1.06094 -5.13658 0
M  V30 5854 H 559.324 0.613213 -5.48583 0
M  V30 5855 H 559.801 1.58543 -4.09586 0
M  V30 5856 H 560.407 -0.0794454 -4.25226 0
M  V30 5857 N 558.722 1.53707 -0.348139 0
M  V30 5858 C 559.947 2.05877 0.250883 0
M  V30 5859 C 560.372 1.22115 1.43072 0
M  V30 5860 O 559.73 0.235986 1.79758 0
M  V30 5861 C 559.778 3.54886 0.639416 0
M  V30 5862 O 558.882 3.73948 1.73888 0
M  V30 5863 H 558.223 0.662754 0.040653 0
M  V30 5864 H 560.753 1.98303 -0.503685 0
M  V30 5865 H 560.763 3.97601 0.915295 0
M  V30 5866 H 559.438 4.153 -0.223386 0
M  V30 5867 H 558.015 3.43134 1.45991 0
M  V30 5868 N 560.2 0.0768682 1.57412 0
M  V30 5869 C 561.616 -0.279772 1.57129 0
M  V30 5870 C 561.816 -1.69688 1.08666 0
M  V30 5871 O 560.872 -2.40953 0.754843 0
M  V30 5872 C 562.185 -0.0848055 3.0058 0
M  V30 5873 C 563.733 -0.153954 3.12621 0
M  V30 5874 C 564.208 0.0127946 4.57998 0
M  V30 5875 N 565.699 -0.0426435 4.6318 0
M  V30 5876 C 566.434 0.0618892 5.73367 0
M  V30 5877 N 565.93 0.220229 6.9245 0
M  V30 5878 N 567.723 0.00446072 5.621 0
M  V30 5879 H 559.874 1.00297 1.87228 0
M  V30 5880 H 562.137 0.391565 0.863354 0
M  V30 5881 H 561.843 0.89325 3.40168 0
M  V30 5882 H 561.717 -0.834961 3.67843 0
M  V30 5883 H 564.104 -1.1225 2.72917 0
M  V30 5884 H 564.185 0.627389 2.47987 0
M  V30 5885 H 563.829 0.978128 4.98392 0
M  V30 5886 H 563.759 -0.788016 5.20671 0
M  V30 5887 H 566.25 -0.163226 3.77547 0
M  V30 5888 H 566.563 0.291999 7.72248 0
M  V30 5889 H 564.908 0.255658 6.9453 0
M  V30 5890 H 568.099 -0.117979 4.67951 0
M  V30 5891 H 568.272 0.0893796 6.47938 0
M  V30 5892 N 561.678 -1.56367 -0.196722 0
M  V30 5893 C 562.926 -1.80172 -0.915554 0
M  V30 5894 C 563.247 -0.649649 -1.8386 0
M  V30 5895 O 562.517 0.332111 -1.93064 0
M  V30 5896 H 561.097 -0.664592 -0.341067 0
M  V30 5897 H 563.759 -1.93844 -0.202622 0
M  V30 5898 H 562.855 -2.7327 -1.50764 0
M  V30 5899 N 563.156 0.464375 -1.50603 0
M  V30 5900 C 564.402 1.21776 -1.62168 0
M  V30 5901 C 564.735 1.91476 -0.324154 0
M  V30 5902 O 564.01 1.8242 0.674782 0
M  V30 5903 C 564.293 2.25614 -2.80661 0
M  V30 5904 C 564.146 1.60175 -4.20314 0
M  V30 5905 C 565.465 3.26862 -2.94702 0
M  V30 5906 H 562.584 0.44137 -0.590222 0
M  V30 5907 H 565.226 0.510623 -1.8301 0
M  V30 5908 H 563.376 2.85923 -2.63021 0
M  V30 5909 H 565.048 1.03411 -4.4956 0
M  V30 5910 H 563.291 0.904697 -4.24261 0
M  V30 5911 H 563.962 2.35665 -4.99165 0
M  V30 5912 H 566.438 2.76582 -3.10872 0
M  V30 5913 H 565.314 3.96839 -3.79223 0
M  V30 5914 H 565.575 3.91382 -2.05603 0
M  V30 5915 N 564.634 1.40294 0.718013 0
M  V30 5916 C 566.045 1.34289 1.29705 0
M  V30 5917 C 566.396 0.0152228 1.96194 0
M  V30 5918 O 565.521 -0.88682 1.97394 0
M  V30 5919 C 566.116 2.43219 2.3586 0
M  V30 5920 C 564.675 2.40682 2.89394 0
M  V30 5921 C 563.822 2.24223 1.63154 0
M  V30 5922 H 566.773 1.50135 0.514312 0
M  V30 5923 H 566.794 2.10986 3.16647 0
M  V30 5924 H 566.306 3.39836 1.87439 0
M  V30 5925 H 564.407 1.47756 3.42051 0
M  V30 5926 H 564.52 3.36177 3.41353 0
M  V30 5927 H 562.884 1.71696 1.88129 0
M  V30 5928 H 563.667 3.22834 1.16761 0
M  V30 5929 N 566.112 -0.949982 1.2575 0
M  V30 5930 C 567.075 -2.02894 1.06615 0
M  V30 5931 C 568.075 -1.60791 0.0173905 0
M  V30 5932 O 569.265 -1.72249 0.260003 0
M  V30 5933 C 566.397 -3.35219 0.619751 0
M  V30 5934 H 567.59 -2.21302 2.02399 0
M  V30 5935 H 565.143 -1.12772 1.08223 0
M  V30 5936 H 565.878 -3.22508 -0.340486 0
M  V30 5937 H 565.663 -3.67129 1.37692 0
M  V30 5938 H 567.153 -4.14505 0.507443 0
M  V30 5939 N 567.59 -1.07411 -1.15328 0
M  V30 5940 C 568.839 -0.792643 -1.85473 0
M  V30 5941 C 569.152 0.683789 -1.83259 0
M  V30 5942 O 570.358 1.08005 -2.49093 0
M  V30 5943 C 568.814 -1.36787 -3.32892 0
M  V30 5944 C 568.422 -2.87536 -3.43551 0
M  V30 5945 C 570.166 -1.16444 -4.08217 0
M  V30 5946 C 568.073 -3.38247 -4.85122 0
M  V30 5947 H 567.003 -0.292838 -0.694811 0
M  V30 5948 H 569.654 -1.29426 -1.30082 0
M  V30 5949 H 568.036 -0.793993 -3.87958 0
M  V30 5950 H 569.21 -3.50973 -2.98588 0
M  V30 5951 H 567.525 -3.06676 -2.81672 0
M  V30 5952 H 570.122 -1.51808 -5.12697 0
M  V30 5953 H 570.465 -0.10353 -4.16171 0
M  V30 5954 H 570.998 -1.70472 -3.59422 0
M  V30 5955 H 567.737 -4.43866 -4.82351 0
M  V30 5956 H 567.257 -2.79564 -5.30664 0
M  V30 5957 H 568.936 -3.34238 -5.5398 0
M  V30 5958 N 569.068 1.32177 -0.85831 0
M  V30 5959 C 570.298 2.01021 -0.476889 0
M  V30 5960 C 570.706 1.64653 0.931995 0
M  V30 5961 O 570.049 0.865713 1.62022 0
M  V30 5962 C 570.111 3.55413 -0.540528 0
M  V30 5963 C 569.775 4.1522 -1.90895 0
M  V30 5964 C 570.772 4.3318 -2.87491 0
M  V30 5965 C 568.457 4.51212 -2.20709 0
M  V30 5966 C 570.451 4.86306 -4.1205 0
M  V30 5967 C 568.138 5.04042 -3.45521 0
M  V30 5968 C 569.136 5.21538 -4.41007 0
M  V30 5969 O 568.824 5.73238 -5.63608 0
M  V30 5970 H 568.556 0.650059 -0.18547 0
M  V30 5971 H 571.11 1.69648 -1.15796 0
M  V30 5972 H 569.34 3.86196 0.19741 0
M  V30 5973 H 571.029 4.05526 -0.174191 0
M  V30 5974 H 571.795 4.05704 -2.65762 0
M  V30 5975 H 567.674 4.36878 -1.4717 0
M  V30 5976 H 571.218 4.99877 -4.86589 0
M  V30 5977 H 567.115 5.30952 -3.67098 0
M  V30 5978 H 567.883 5.91625 -5.65617 0
M  V30 5979 N 570.547 0.616602 1.45037 0
M  V30 5980 C 571.777 0.121791 2.06241 0
M  V30 5981 C 572.185 -1.20289 1.46038 0
M  V30 5982 O 571.528 -1.7456 0.572242 0
M  V30 5983 C 571.59 -0.0827345 3.59405 0
M  V30 5984 C 571.254 1.16153 4.41993 0
M  V30 5985 C 572.251 2.08183 4.76399 0
M  V30 5986 C 569.936 1.39288 4.82601 0
M  V30 5987 C 571.93 3.21668 5.5028 0
M  V30 5988 C 569.617 2.53073 5.56235 0
M  V30 5989 C 570.615 3.44091 5.89992 0
M  V30 5990 O 570.303 4.55894 6.6213 0
M  V30 5991 H 570.035 0.0701667 0.672349 0
M  V30 5992 H 572.589 0.846877 1.87129 0
M  V30 5993 H 570.819 -0.862812 3.76952 0
M  V30 5994 H 572.508 -0.530273 4.02421 0
M  V30 5995 H 573.274 1.91538 4.45576 0
M  V30 5996 H 569.153 0.693396 4.55755 0
M  V30 5997 H 572.697 3.92733 5.76547 0
M  V30 5998 H 568.594 2.69667 5.86472 0
M  V30 5999 H 569.362 4.5469 6.80587 0
M  V30 6000 N 572.025 -1.5352 0.356285 0
M  V30 6001 C 573.273 -2.00719 -0.235837 0
M  V30 6002 C 573.594 -1.24551 -1.5004 0
M  V30 6003 O 572.864 -0.356185 -1.92635 0
M  V30 6004 H 571.444 -0.741542 -0.0901366 0
M  V30 6005 H 574.106 -1.88887 0.480378 0
M  V30 6006 H 573.202 -3.08551 -0.469357 0
M  V30 6007 N 573.503 -0.0852151 -1.57369 0
M  V30 6008 C 574.728 0.592872 -1.98746 0
M  V30 6009 C 575.153 1.61538 -0.963689 0
M  V30 6010 O 574.511 1.81168 0.069071 0
M  V30 6011 C 574.559 1.22599 -3.39119 0
M  V30 6012 O 573.663 2.34185 -3.39457 0
M  V30 6013 H 573.004 0.151314 -0.646529 0
M  V30 6014 H 575.534 -0.163703 -2.03944 0
M  V30 6015 H 575.544 1.56965 -3.76598 0
M  V30 6016 H 574.219 0.476831 -4.13158 0
M  V30 6017 H 572.796 2.01512 -3.13763 0
M  V30 6018 N 574.981 1.5647 0.188427 0
M  V30 6019 C 575.891 1.98285 1.2538 0
M  V30 6020 C 576.907 0.891535 1.49424 0
M  V30 6021 O 578.083 1.19782 1.61908 0
M  V30 6022 C 575.148 2.31965 2.57669 0
M  V30 6023 C 574.209 3.54838 2.41638 0
M  V30 6024 C 573.442 3.86901 3.67618 0
M  V30 6025 O 573.665 3.20163 4.72072 0
M  V30 6026 O 572.599 4.80309 3.62749 0
M  V30 6027 H 576.425 2.89145 0.928912 0
M  V30 6028 H 574.01 1.44112 0.393955 0
M  V30 6029 H 575.892 2.54673 3.35737 0
M  V30 6030 H 574.567 1.44271 2.89771 0
M  V30 6031 H 573.474 3.37369 1.61658 0
M  V30 6032 H 574.807 4.43019 2.14465 0
M  V30 6033 N 576.459 -0.456382 1.50847 0
M  V30 6034 C 577.391 -1.57033 1.66953 0
M  V30 6035 C 578.404 -1.53207 0.550593 0
M  V30 6036 O 579.593 -1.58328 0.824285 0
M  V30 6037 C 576.693 -2.95937 1.65149 0
M  V30 6038 C 575.866 -3.24475 2.93317 0
M  V30 6039 C 574.925 -4.43007 2.83957 0
M  V30 6040 O 573.951 -4.42592 3.57912 0
M  V30 6041 N 575.153 -5.45503 1.9851 0
M  V30 6042 H 577.918 -1.43629 2.63042 0
M  V30 6043 H 575.479 -0.645037 1.48495 0
M  V30 6044 H 577.471 -3.73224 1.56481 0
M  V30 6045 H 576.041 -3.03036 0.767343 0
M  V30 6046 H 575.261 -2.35664 3.16 0
M  V30 6047 H 576.549 -3.4036 3.78196 0
M  V30 6048 H 575.947 -5.48668 1.37766 0
M  V30 6049 H 574.504 -6.21716 1.95735 0
M  V30 6050 N 577.937 -1.40673 -0.710563 0
M  V30 6051 C 579.167 -1.4234 -1.49742 0
M  V30 6052 C 579.575 -0.022821 -1.89186 0
M  V30 6053 O 578.918 0.964773 -1.56326 0
M  V30 6054 C 578.98 -2.25509 -2.79975 0
M  V30 6055 C 578.644 -3.73862 -2.62824 0
M  V30 6056 C 579.641 -4.66379 -2.29752 0
M  V30 6057 C 577.326 -4.17735 -2.78932 0
M  V30 6058 C 579.32 -6.00756 -2.13006 0
M  V30 6059 C 577.007 -5.5218 -2.61802 0
M  V30 6060 C 578.005 -6.43505 -2.28888 0
M  V30 6061 O 577.693 -7.75472 -2.11894 0
M  V30 6062 H 577.425 -0.487311 -0.468513 0
M  V30 6063 H 579.979 -1.8542 -0.883668 0
M  V30 6064 H 578.209 -1.77218 -3.43701 0
M  V30 6065 H 579.898 -2.19058 -3.41714 0
M  V30 6066 H 580.664 -4.33778 -2.16936 0
M  V30 6067 H 576.543 -3.46967 -3.03537 0
M  V30 6068 H 580.087 -6.72003 -1.87237 0
M  V30 6069 H 575.984 -5.84365 -2.74204 0
M  V30 6070 H 576.752 -7.86458 -2.26775 0
M  V30 6071 N 579.415 0.9433 -1.26252 0
M  V30 6072 C 580.348 2.04162 -1.01946 0
M  V30 6073 C 581.326 1.62507 0.0550808 0
M  V30 6074 O 582.51 1.883 -0.0869025 0
M  V30 6075 C 579.637 3.34313 -0.54335 0
M  V30 6076 C 578.683 3.94939 -1.61013 0
M  V30 6077 S 579.516 4.29484 -3.19849 0
M  V30 6078 C 580.672 5.62738 -2.74001 0
M  V30 6079 H 580.905 2.24466 -1.94942 0
M  V30 6080 H 578.438 1.08441 -1.09909 0
M  V30 6081 H 580.396 4.09576 -0.275315 0
M  V30 6082 H 579.057 3.11957 0.36629 0
M  V30 6083 H 578.25 4.88812 -1.22795 0
M  V30 6084 H 577.852 3.26202 -1.82943 0
M  V30 6085 H 580.144 6.41356 -2.18333 0
M  V30 6086 H 581.087 6.05839 -3.66558 0
M  V30 6087 H 581.495 5.22514 -2.13634 0
M  V30 6088 N 580.893 1.08022 1.14757 0
M  V30 6089 C 582.118 0.82895 1.90114 0
M  V30 6090 C 582.543 -0.612772 1.77839 0
M  V30 6091 O 581.901 -1.42895 1.11583 0
M  V30 6092 C 581.949 1.25062 3.38219 0
M  V30 6093 O 581.053 0.400119 4.10454 0
M  V30 6094 H 580.394 0.301412 0.591648 0
M  V30 6095 H 582.924 1.44062 1.45284 0
M  V30 6096 H 582.934 1.22977 3.89025 0
M  V30 6097 H 581.609 2.30067 3.46471 0
M  V30 6098 H 580.186 0.484052 3.69745 0
M  V30 6099 N 582.371 -1.3172 0.865308 0
M  V30 6100 C 583.619 -1.96487 0.472995 0
M  V30 6101 C 583.94 -1.68761 -0.976975 0
M  V30 6102 O 583.21 -1.00051 -1.68424 0
M  V30 6103 H 581.79 -0.726947 0.171922 0
M  V30 6104 H 584.452 -1.60612 1.10407 0
M  V30 6105 H 583.548 -3.0574 0.62687 0
M  V30 6106 N 583.85 -0.624285 -1.44708 0
M  V30 6107 C 585.098 -0.125802 -2.01708 0
M  V30 6108 C 585.418 1.2543 -1.49306 0
M  V30 6109 O 584.689 1.83198 -0.693924 0
M  V30 6110 H 583.269 -0.0435161 -0.745731 0
M  V30 6111 H 585.931 -0.809446 -1.77296 0
M  V30 6112 H 585.027 -0.0882734 -3.11975 0
M  V30 6113 N 585.328 1.53329 -0.364422 0
M  V30 6114 C 586.276 2.27212 0.497737 0
M  V30 6115 C 587.27 1.30146 1.08437 0
M  V30 6116 O 588.476 1.47778 1.0277 0
M  V30 6117 H 584.851 0.730329 0.179232 0
M  V30 6118 H 586.822 2.98037 -0.147182 0
M  V30 6119 C 585.571 3.07333 1.6261 0
M  V30 6120 H 584.894 3.81866 1.184 0
M  V30 6121 H 586.334 3.62209 2.20409 0
M  V30 6122 C 584.793 2.18102 2.56775 0
M  V30 6123 O 585.323 1.79104 3.59562 0
M  V30 6124 N 583.529 1.82759 2.25937 0
M  V30 6125 H 583.076 2.14671 1.42387 0
M  V30 6126 H 583.034 1.23342 2.89196 0
M  V30 6127 N 586.806 0.0935595 1.57322 0
M  V30 6128 C 588.083 -0.612692 1.85756 0
M  V30 6129 C 588.463 -1.86439 0.99013 0
M  V30 6130 O 587.811 -2.28416 0.0621362 0
M  V30 6131 C 588.021 -0.929547 3.36393 0
M  V30 6132 C 589.369 -1.29366 4.04413 0
M  V30 6133 O 590.393 -1.02061 3.41265 0
M  V30 6134 O 589.252 -1.80498 5.15832 0
M  V30 6135 H 586.346 -0.306444 0.768128 0
M  V30 6136 H 588.892 0.126141 1.69231 0
M  V30 6137 H 587.664 -0.0414766 3.91278 0
M  V30 6138 H 587.287 -1.72441 3.5826 0
M  V30 6139 N 588.284 -1.56567 -0.180126 0
M  V30 6140 C 589.695 -1.7126 -0.743422 0
M  V30 6141 C 590.046 -0.70263 -1.83187 0
M  V30 6142 O 589.171 0.137856 -2.1596 0
M  V30 6143 C 589.766 -3.10512 -1.35528 0
M  V30 6144 C 588.325 -3.26919 -1.8655 0
M  V30 6145 C 587.472 -2.67213 -0.741099 0
M  V30 6146 H 590.423 -1.58636 0.0451543 0
M  V30 6147 H 590.444 -3.08673 -2.22489 0
M  V30 6148 H 589.956 -3.83997 -0.562862 0
M  V30 6149 H 588.057 -2.58376 -2.68464 0
M  V30 6150 H 588.17 -4.34574 -2.01699 0
M  V30 6151 H 586.534 -2.26788 -1.15927 0
M  V30 6152 H 587.317 -3.43277 0.0393291 0
M  V30 6153 N 589.762 0.448376 -1.51087 0
M  V30 6154 C 591.039 1.20926 -1.53741 0
M  V30 6155 C 591.419 2.09025 -0.295222 0
M  V30 6156 O 590.767 2.16851 0.720283 0
M  V30 6157 C 590.977 2.02067 -2.84552 0
M  V30 6158 C 592.325 2.59486 -3.36084 0
M  V30 6159 O 593.349 2.12289 -2.86028 0
M  V30 6160 O 592.208 3.45539 -4.23397 0
M  V30 6161 H 589.302 0.549951 -0.617643 0
M  V30 6162 H 591.848 0.458344 -1.63393 0
M  V30 6163 H 590.62 1.37291 -3.66425 0
M  V30 6164 H 590.243 2.84246 -2.78011 0
M  V30 6165 N 591.24 1.41047 0.703093 0
M  V30 6166 C 592.188 1.42494 1.83843 0
M  V30 6167 C 593.182 0.303885 1.66652 0
M  V30 6168 O 594.388 0.475544 1.73605 0
M  V30 6169 H 590.763 0.445685 0.605697 0
M  V30 6170 H 592.734 2.38194 1.79739 0
M  V30 6171 C 591.483 1.31666 3.21807 0
M  V30 6172 H 590.806 2.17212 3.35647 0
M  V30 6173 H 592.246 1.36738 4.01346 0
M  V30 6174 C 590.705 0.0281828 3.36888 0
M  V30 6175 O 591.235 -0.929995 3.90786 0
M  V30 6176 N 589.441 -0.0454322 2.90564 0
M  V30 6177 H 588.988 0.735046 2.4689 0
M  V30 6178 H 588.946 -0.906968 3.01034 0
M  V30 6179 N 592.718 -0.936591 1.26751 0
M  V30 6180 C 594.134 -1.21095 1.03963 0
M  V30 6181 C 594.334 -2.00156 -0.232372 0
M  V30 6182 O 593.39 -2.3434 -0.940274 0
M  V30 6183 C 594.703 -1.96775 2.27377 0
M  V30 6184 C 596.251 -2.09749 2.32324 0
M  V30 6185 C 596.726 -2.88832 3.55443 0
M  V30 6186 N 598.217 -2.96404 3.55948 0
M  V30 6187 C 598.952 -3.58036 4.47881 0
M  V30 6188 N 598.448 -4.21132 5.50109 0
M  V30 6189 N 600.241 -3.55353 4.35523 0
M  V30 6190 H 592.392 -0.408173 2.08441 0
M  V30 6191 H 594.655 -0.243139 0.91629 0
M  V30 6192 H 594.361 -1.46094 3.19921 0
M  V30 6193 H 594.235 -2.97424 2.31989 0
M  V30 6194 H 596.622 -2.5962 1.40291 0
M  V30 6195 H 596.703 -1.08347 2.31721 0
M  V30 6196 H 596.347 -2.39647 4.47808 0
M  V30 6197 H 596.277 -3.90499 3.53296 0
M  V30 6198 H 598.768 -2.51552 2.82011 0
M  V30 6199 H 599.081 -4.66071 6.16439 0
M  V30 6200 H 597.426 -4.19705 5.53961 0
M  V30 6201 H 600.617 -3.05256 3.54875 0
M  V30 6202 H 600.79 -4.03097 5.07363 0
M  V30 6203 N 594.196 -1.08629 -1.14182 0
M  V30 6204 C 595.159 -0.722027 -2.1753 0
M  V30 6205 C 596.159 0.244305 -1.58933 0
M  V30 6206 O 597.349 0.0235545 -1.74184 0
M  V30 6207 C 594.481 -0.0663966 -3.40835 0
M  V30 6208 H 595.674 -1.63719 -2.51269 0
M  V30 6209 H 593.227 -0.884442 -1.28869 0
M  V30 6210 H 593.962 0.860389 -3.12678 0
M  V30 6211 H 593.747 -0.761598 -3.84632 0
M  V30 6212 H 595.237 0.173346 -4.1724 0
M  V30 6213 N 595.674 1.31259 -0.872281 0
M  V30 6214 C 597.09 1.49283 -0.564521 0
M  V30 6215 C 597.29 1.80243 0.900807 0
M  V30 6216 O 596.346 1.88246 1.68284 0
M  V30 6217 C 597.659 2.62503 -1.46673 0
M  V30 6218 C 599.207 2.76386 -1.46901 0
M  V30 6219 C 599.682 3.92705 -2.35684 0
M  V30 6220 N 601.173 3.99995 -2.33577 0
M  V30 6221 C 601.908 4.89276 -2.98992 0
M  V30 6222 N 601.404 5.83443 -3.73585 0
M  V30 6223 N 603.197 4.82541 -2.88289 0
M  V30 6224 H 595.348 1.09432 -1.82039 0
M  V30 6225 H 597.611 0.540949 -0.77851 0
M  V30 6226 H 597.317 2.46407 -2.50951 0
M  V30 6227 H 597.191 3.58695 -1.16696 0
M  V30 6228 H 599.578 2.91894 -0.433796 0
M  V30 6229 H 599.659 1.80853 -1.80903 0
M  V30 6230 H 599.303 3.77954 -3.39283 0
M  V30 6231 H 599.233 4.87549 -1.99006 0
M  V30 6232 H 601.724 3.32624 -1.7936 0
M  V30 6233 H 602.037 6.48303 -4.20622 0
M  V30 6234 H 600.382 5.83415 -3.77694 0
M  V30 6235 H 603.573 4.07951 -2.2955 0
M  V30 6236 H 603.746 5.51916 -3.39549 0
M  V30 6237 N 597.152 0.631951 1.44375 0
M  V30 6238 C 598.082 -0.0593243 2.33425 0
M  V30 6239 C 599.063 -0.833964 1.48253 0
M  V30 6240 O 600.248 -0.799682 1.76971 0
M  V30 6241 C 597.378 -1.04096 3.31333 0
M  V30 6242 C 596.332 -0.377899 4.26328 0
M  V30 6243 C 595.658 -1.4695 5.14111 0
M  V30 6244 C 596.958 0.716371 5.17364 0
M  V30 6245 H 598.652 0.684287 2.91475 0
M  V30 6246 H 596.198 0.330518 1.40156 0
M  V30 6247 H 598.151 -1.53331 3.92514 0
M  V30 6248 H 596.875 -1.81547 2.71493 0
M  V30 6249 H 595.534 0.0938054 3.6648 0
M  V30 6250 H 595.182 -2.2349 4.50623 0
M  V30 6251 H 594.882 -1.03121 5.78481 0
M  V30 6252 H 596.406 -1.96363 5.78164 0
M  V30 6253 H 597.82 0.307089 5.72477 0
M  V30 6254 H 596.217 1.07784 5.90341 0
M  V30 6255 H 597.287 1.58316 4.58327 0
M  V30 6256 N 598.631 -1.53133 0.372548 0
M  V30 6257 C 600.042 -1.86404 -0.105155 0
M  V30 6258 C 600.393 -1.29289 -1.47576 0
M  V30 6259 O 599.518 -0.617646 -2.07398 0
M  V30 6260 C 600.113 -3.38223 -0.197588 0
M  V30 6261 C 598.672 -3.71266 -0.619556 0
M  V30 6262 C 597.819 -2.76353 0.228919 0
M  V30 6263 H 600.77 -1.47282 0.591077 0
M  V30 6264 H 600.791 -3.66577 -1.01987 0
M  V30 6265 H 600.303 -3.79763 0.800099 0
M  V30 6266 H 598.404 -3.35287 -1.62522 0
M  V30 6267 H 598.517 -4.77515 -0.389332 0
M  V30 6268 H 596.881 -2.52888 -0.303271 0
M  V30 6269 H 597.664 -3.20728 1.22428 0
M  V30 6270 N 600.109 -0.101901 -1.5727 0
M  V30 6271 C 601.334 0.571759 -1.99363 0
M  V30 6272 C 601.759 1.60507 -0.980768 0
M  V30 6273 O 601.117 1.81231 0.0498517 0
M  V30 6274 C 601.165 1.18996 -3.404 0
M  V30 6275 O 600.269 2.30572 -3.41922 0
M  V30 6276 H 599.61 0.144449 -0.648098 0
M  V30 6277 H 602.14 -0.185325 -2.03759 0
M  V30 6278 H 602.15 1.52962 -3.78241 0
M  V30 6279 H 600.825 0.432984 -4.1364 0
M  V30 6280 H 599.402 1.98173 -3.15883 0
M  V30 6281 N 601.587 1.56661 0.17182 0
M  V30 6282 C 602.834 1.81965 0.888529 0
M  V30 6283 C 603.162 0.6789 1.82267 0
M  V30 6284 O 602.417 -0.333875 1.92831 0
M  V30 6285 C 602.716 3.13435 1.71736 0
M  V30 6286 C 602.382 4.41159 0.932184 0
M  V30 6287 C 601.044 4.75851 0.715481 0
M  V30 6288 C 603.396 5.19803 0.381387 0
M  V30 6289 C 600.724 5.86666 -0.063126 0
M  V30 6290 C 603.076 6.31433 -0.384129 0
M  V30 6291 C 601.74 6.64692 -0.611637 0
M  V30 6292 H 601.01 0.665859 0.325136 0
M  V30 6293 H 603.657 1.90884 0.153495 0
M  V30 6294 H 601.962 2.99857 2.52177 0
M  V30 6295 H 603.659 3.30224 2.27493 0
M  V30 6296 H 600.249 4.13947 1.11112 0
M  V30 6297 H 604.433 4.93396 0.536148 0
M  V30 6298 H 599.689 6.10892 -0.249136 0
M  V30 6299 H 603.863 6.91577 -0.818185 0
M  V30 6300 H 601.49 7.50398 -1.21684 0
M  V30 6301 N 603.065 -0.440357 1.51323 0
M  V30 6302 C 604.29 -1.21716 1.67928 0
M  V30 6303 C 604.715 -1.84328 0.374826 0
M  V30 6304 O 604.073 -1.68675 -0.664706 0
M  V30 6305 C 604.121 -2.27914 2.79442 0
M  V30 6306 O 603.225 -3.33325 2.42834 0
M  V30 6307 H 602.566 -0.35674 0.560029 0
M  V30 6308 H 605.096 -0.520417 1.97871 0
M  V30 6309 H 605.106 -2.72746 3.03436 0
M  V30 6310 H 603.781 -1.8172 3.741 0
M  V30 6311 H 602.358 -2.9399 2.294 0
M  V30 6312 N 604.543 -1.41418 -0.695603 0
M  V30 6313 C 605.771 -1.4413 -1.48439 0
M  V30 6314 C 606.186 -0.0465698 -1.88743 0
M  V30 6315 O 605.543 0.934117 -1.56782 0
M  V30 6316 C 605.594 -2.34998 -2.74696 0
M  V30 6317 O 605.315 -3.69043 -2.36091 0
M  V30 6318 C 606.816 -2.46513 -3.68438 0
M  V30 6319 H 604.036 -0.490905 -0.457442 0
M  V30 6320 H 606.58 -1.85702 -0.856454 0
M  V30 6321 H 604.735 -1.96735 -3.33728 0
M  V30 6322 H 605.149 -4.17505 -3.17474 0
M  V30 6323 H 606.623 -3.1426 -4.53811 0
M  V30 6324 H 607.1 -1.49638 -4.12922 0
M  V30 6325 H 607.706 -2.85412 -3.1531 0
M  V30 6326 N 606.021 0.929856 -1.27246 0
M  V30 6327 C 607.249 1.71144 -1.16265 0
M  V30 6328 C 607.664 1.867 0.280786 0
M  V30 6329 O 607.021 1.38249 1.19136 0
M  V30 6330 C 607.072 3.11222 -1.83911 0
M  V30 6331 O 606.793 2.96398 -3.22614 0
M  V30 6332 C 608.294 4.05541 -1.79028 0
M  V30 6333 H 605.514 0.535499 -0.404328 0
M  V30 6334 H 608.058 1.16492 -1.68077 0
M  V30 6335 H 606.213 3.6274 -1.36009 0
M  V30 6336 H 606.627 3.8494 -3.56261 0
M  V30 6337 H 608.101 5.01351 -2.30978 0
M  V30 6338 H 608.578 4.32589 -0.759168 0
M  V30 6339 H 609.184 3.59947 -2.26535 0
M  V30 6340 N 607.499 1.09233 1.13605 0
M  V30 6341 C 608.727 0.848908 1.88683 0
M  V30 6342 C 609.142 -0.599667 1.79024 0
M  V30 6343 O 608.499 -1.41265 1.15544 0
M  V30 6344 C 608.55 1.27273 3.38355 0
M  V30 6345 O 608.271 2.66449 3.47759 0
M  V30 6346 C 609.772 1.0614 4.30406 0
M  V30 6347 H 606.992 0.305549 0.597395 0
M  V30 6348 H 609.536 1.4538 1.43823 0
M  V30 6349 H 607.691 0.711776 3.80805 0
M  V30 6350 H 608.105 2.84264 4.40788 0
M  V30 6351 H 609.579 1.40725 5.33761 0
M  V30 6352 H 610.056 -0.000960332 4.392 0
M  V30 6353 H 610.662 1.60821 3.93722 0
M  V30 6354 N 608.977 -1.30795 0.87923 0
M  V30 6355 C 610.205 -2.00527 0.509548 0
M  V30 6356 C 610.62 -1.65944 -0.90045 0
M  V30 6357 O 609.977 -0.893525 -1.5913 0
M  V30 6358 C 610.028 -3.55276 0.667943 0
M  V30 6359 O 609.749 -3.88625 2.02242 0
M  V30 6360 C 611.25 -4.4228 0.300494 0
M  V30 6361 H 608.47 -0.641261 0.197549 0
M  V30 6362 H 611.014 -1.66813 1.18295 0
M  V30 6363 H 609.169 -3.87377 0.0419843 0
M  V30 6364 H 609.583 -4.83334 2.03688 0
M  V30 6365 H 611.057 -5.50061 0.462242 0
M  V30 6366 H 611.534 -4.32556 -0.76106 0
M  V30 6367 H 612.14 -4.15613 0.902536 0
M  V30 6368 N 610.455 -0.639598 -1.44038 0
M  V30 6369 C 611.418 0.0506628 -2.29144 0
M  V30 6370 C 612.418 0.764001 -1.41491 0
M  V30 6371 O 613.608 0.607309 -1.63271 0
M  V30 6372 C 610.74 1.0824 -3.2326 0
M  V30 6373 H 611.933 -0.697987 -2.91664 0
M  V30 6374 H 609.486 -0.400146 -1.51091 0
M  V30 6375 H 610.221 1.86075 -2.65606 0
M  V30 6376 H 610.006 0.574725 -3.87865 0
M  V30 6377 H 611.496 1.56487 -3.87171 0
M  V30 6378 N 611.933 1.52934 -0.380664 0
M  V30 6379 C 613.163 2.05587 0.204302 0
M  V30 6380 C 613.571 1.25288 1.41773 0
M  V30 6381 O 612.914 0.290394 1.8139 0
M  V30 6382 C 612.976 3.53624 0.647324 0
M  V30 6383 C 612.64 4.54765 -0.451465 0
M  V30 6384 C 613.637 5.03226 -1.30614 0
M  V30 6385 C 611.322 4.98508 -0.616025 0
M  V30 6386 C 613.316 5.94046 -2.31058 0
M  V30 6387 C 611.003 5.89131 -1.62381 0
M  V30 6388 C 612.001 6.36792 -2.46952 0
M  V30 6389 O 611.689 7.25626 -3.46009 0
M  V30 6390 H 611.421 0.675013 0.0365198 0
M  V30 6391 H 613.975 1.98125 -0.541827 0
M  V30 6392 H 612.205 3.58676 1.44529 0
M  V30 6393 H 613.894 3.89061 1.15698 0
M  V30 6394 H 614.66 4.70167 -1.19027 0
M  V30 6395 H 610.539 4.60989 0.0324987 0
M  V30 6396 H 614.083 6.3117 -2.97104 0
M  V30 6397 H 609.98 6.21603 -1.7401 0
M  V30 6398 H 610.748 7.43664 -3.41916 0
M  V30 6399 N 613.412 0.11024 1.57214 0
M  V30 6400 C 614.344 -0.873497 2.11902 0
M  V30 6401 C 615.357 -1.23588 1.05971 0
M  V30 6402 O 616.546 -1.18636 1.33371 0
M  V30 6403 C 613.646 -2.17805 2.59643 0
M  V30 6404 C 612.819 -1.98869 3.89576 0
M  V30 6405 C 611.878 -3.12974 4.23006 0
M  V30 6406 O 610.904 -2.86272 4.91973 0
M  V30 6407 N 612.106 -4.39167 3.79622 0
M  V30 6408 H 614.871 -0.406317 2.96933 0
M  V30 6409 H 612.432 -0.074437 1.61729 0
M  V30 6410 H 614.424 -2.93117 2.79042 0
M  V30 6411 H 612.994 -2.55899 1.7954 0
M  V30 6412 H 612.214 -1.078 3.79174 0
M  V30 6413 H 613.502 -1.83512 4.74553 0
M  V30 6414 H 612.9 -4.63739 3.2398 0
M  V30 6415 H 611.457 -5.11379 4.04147 0
M  V30 6416 N 614.89 -1.56749 -0.16351 0
M  V30 6417 C 616.136 -1.82704 -0.880168 0
M  V30 6418 C 616.469 -0.689311 -1.81555 0
M  V30 6419 O 615.744 0.308224 -1.92042 0
M  V30 6420 C 616.027 -3.19084 -1.66905 0
M  V30 6421 C 615.88 -4.43397 -0.756269 0
M  V30 6422 C 617.199 -3.52493 -2.63509 0
M  V30 6423 H 614.318 -0.664608 -0.318535 0
M  V30 6424 H 616.96 -1.89438 -0.146036 0
M  V30 6425 H 615.11 -3.13475 -2.2949 0
M  V30 6426 H 616.782 -4.61079 -0.14269 0
M  V30 6427 H 615.025 -4.33752 -0.0647944 0
M  V30 6428 H 615.696 -5.3539 -1.34393 0
M  V30 6429 H 618.172 -3.58606 -2.11047 0
M  V30 6430 H 617.048 -4.48979 -3.15767 0
M  V30 6431 H 617.309 -2.77597 -3.44082 0
M  V30 6432 N 616.368 0.432326 -1.51554 0
M  V30 6433 C 617.617 1.17831 -1.63703 0
M  V30 6434 C 617.93 1.92229 -0.36156 0
M  V30 6435 O 619.136 2.69069 -0.362495 0
M  V30 6436 C 617.592 2.14318 -2.89129 0
M  V30 6437 C 617.2 1.45544 -4.23699 0
M  V30 6438 C 618.944 2.89319 -3.10636 0
M  V30 6439 C 616.851 2.40545 -5.4027 0
M  V30 6440 H 615.781 0.443533 -0.60975 0
M  V30 6441 H 618.432 0.444878 -1.78026 0
M  V30 6442 H 616.814 2.91117 -2.68452 0
M  V30 6443 H 617.988 0.742693 -4.54775 0
M  V30 6444 H 616.303 0.826772 -4.0811 0
M  V30 6445 H 618.9 3.60495 -3.94902 0
M  V30 6446 H 619.243 3.50951 -2.23918 0
M  V30 6447 H 619.776 2.19625 -3.31677 0
M  V30 6448 H 616.515 1.83594 -6.29264 0
M  V30 6449 H 616.035 3.09859 -5.13563 0
M  V30 6450 H 617.714 3.01569 -5.72421 0
M  V30 6451 N 617.846 1.41785 0.688094 0
M  V30 6452 C 618.778 1.40159 1.81351 0
M  V30 6453 C 619.791 0.30262 1.59963 0
M  V30 6454 O 620.98 0.564841 1.69327 0
M  V30 6455 C 618.08 1.16517 3.1824 0
M  V30 6456 C 617.253 2.38597 3.66593 0
M  V30 6457 C 616.312 2.10699 4.82174 0
M  V30 6458 O 615.338 2.83798 4.93404 0
M  V30 6459 N 616.54 1.10187 5.69947 0
M  V30 6460 H 619.305 2.3716 1.83236 0
M  V30 6461 H 616.866 1.36494 0.870697 0
M  V30 6462 H 618.858 0.957941 3.93199 0
M  V30 6463 H 617.428 0.280873 3.11336 0
M  V30 6464 H 616.648 2.74974 2.82459 0
M  V30 6465 H 617.936 3.19919 3.95638 0
M  V30 6466 H 617.334 0.497016 5.63512 0
M  V30 6467 H 615.891 0.954518 6.44773 0
M  V30 6468 N 619.324 -0.923095 1.27737 0
M  V30 6469 C 620.271 -2.02432 1.1086 0
M  V30 6470 C 621.241 -1.66098 0.00835195 0
M  V30 6471 O 622.426 -1.90027 0.171542 0
M  V30 6472 C 619.566 -3.36476 0.766671 0
M  V30 6473 C 618.679 -3.85737 1.94501 0
M  V30 6474 C 617.814 -5.08249 1.54455 0
M  V30 6475 C 616.853 -5.49818 2.6901 0
M  V30 6476 N 615.99 -6.63524 2.29521 0
M  V30 6477 H 620.83 -2.16201 2.05089 0
M  V30 6478 H 618.367 -1.05909 1.02087 0
M  V30 6479 H 620.325 -4.13569 0.549223 0
M  V30 6480 H 618.955 -3.22502 -0.13867 0
M  V30 6481 H 618.007 -3.04883 2.27487 0
M  V30 6482 H 619.319 -4.12513 2.80419 0
M  V30 6483 H 618.473 -5.92857 1.28862 0
M  V30 6484 H 617.212 -4.83261 0.656534 0
M  V30 6485 H 616.217 -4.63757 2.95313 0
M  V30 6486 H 617.442 -5.76799 3.5844 0
M  V30 6487 H 615.388 -6.40185 1.43177 0
M  V30 6488 H 615.305 -6.89978 3.08977 0
M  V30 6489 H 616.573 -7.51461 2.07187 0
M  V30 6490 N 620.802 -1.09834 -1.13024 0
M  V30 6491 C 621.732 -0.763451 -2.20666 0
M  V30 6492 C 622.713 0.260778 -1.68089 0
M  V30 6493 O 623.898 0.127915 -1.93778 0
M  V30 6494 C 621.028 -0.187744 -3.46792 0
M  V30 6495 C 619.982 -1.14196 -4.12484 0
M  V30 6496 C 619.308 -0.427755 -5.32986 0
M  V30 6497 C 620.608 -2.48607 -4.59338 0
M  V30 6498 H 622.302 -1.66347 -2.48936 0
M  V30 6499 H 619.848 -0.801261 -1.19649 0
M  V30 6500 H 621.801 0.0586375 -4.21359 0
M  V30 6501 H 620.525 0.747485 -3.17931 0
M  V30 6502 H 619.184 -1.37369 -3.3989 0
M  V30 6503 H 618.832 0.511747 -5.0039 0
M  V30 6504 H 618.532 -1.06403 -5.77886 0
M  V30 6505 H 620.056 -0.189772 -6.10305 0
M  V30 6506 H 621.47 -2.29618 -5.25308 0
M  V30 6507 H 619.867 -3.08062 -5.14993 0
M  V30 6508 H 620.937 -3.09062 -3.73642 0
M  V30 6509 N 622.28 1.30327 -0.886154 0
M  V30 6510 C 623.243 2.26376 -0.358687 0
M  V30 6511 C 624.243 1.52845 0.499498 0
M  V30 6512 O 625.433 1.71483 0.306485 0
M  V30 6513 C 622.565 3.37379 0.488726 0
M  V30 6514 H 623.758 2.74547 -1.20681 0
M  V30 6515 H 621.311 1.41536 -0.663113 0
M  V30 6516 H 622.046 2.94526 1.35739 0
M  V30 6517 H 621.831 3.91897 -0.126003 0
M  V30 6518 H 623.321 4.08868 0.84952 0
M  V30 6519 N 623.758 0.647228 1.43697 0
M  V30 6520 C 625.169 0.238689 1.85168 0
M  V30 6521 C 625.52 -1.21345 1.54175 0
M  V30 6522 O 624.645 -1.92542 0.987743 0
M  V30 6523 C 625.24 0.426422 3.36106 0
M  V30 6524 C 623.799 0.0722541 3.76331 0
M  V30 6525 C 622.946 0.732153 2.6746 0
M  V30 6526 H 625.897 0.851309 1.33934 0
M  V30 6527 H 625.918 -0.32987 3.79067 0
M  V30 6528 H 625.43 1.48339 3.58632 0
M  V30 6529 H 623.531 -0.982355 3.59417 0
M  V30 6530 H 623.644 0.493541 4.76551 0
M  V30 6531 H 622.008 0.16594 2.54159 0
M  V30 6532 H 622.791 1.79204 2.92816 0
M  V30 6533 N 625.236 -1.5273 0.388769 0
M  V30 6534 C 626.166 -2.29353 -0.438111 0
M  V30 6535 C 627.147 -1.32719 -1.06394 0
M  V30 6536 O 628.332 -1.61612 -1.07681 0
M  V30 6537 C 625.462 -3.09995 -1.56589 0
M  V30 6538 C 624.416 -4.14509 -1.06613 0
M  V30 6539 C 623.742 -4.83372 -2.28594 0
M  V30 6540 C 625.042 -5.22127 -0.134459 0
M  V30 6541 H 626.736 -2.98723 0.201206 0
M  V30 6542 H 624.282 -1.43665 0.0982089 0
M  V30 6543 H 626.235 -3.62357 -2.15118 0
M  V30 6544 H 624.959 -2.38357 -2.23279 0
M  V30 6545 H 623.618 -3.63128 -0.503383 0
M  V30 6546 H 623.266 -4.08283 -2.93792 0
M  V30 6547 H 622.966 -5.54012 -1.95817 0
M  V30 6548 H 624.49 -5.38538 -2.87766 0
M  V30 6549 H 625.904 -5.69851 -0.627914 0
M  V30 6550 H 624.301 -6.00011 0.103534 0
M  V30 6551 H 625.371 -4.77971 0.816798 0
M  V30 6552 N 626.714 -0.118576 -1.57153 0
M  V30 6553 C 628.13 0.238014 -1.57815 0
M  V30 6554 C 628.33 1.66747 -1.13127 0
M  V30 6555 O 627.386 2.38867 -0.818462 0
M  V30 6556 C 628.699 0.00508207 -3.007 0
M  V30 6557 C 630.247 0.0710139 -3.12919 0
M  V30 6558 C 630.722 -0.13422 -4.57803 0
M  V30 6559 N 632.213 -0.0801755 -4.63131 0
M  V30 6560 C 632.948 -0.213885 -5.73001 0
M  V30 6561 N 632.444 -0.403742 -6.91623 0
M  V30 6562 N 634.237 -0.15349 -5.6189 0
M  V30 6563 H 626.388 -1.05226 -1.84503 0
M  V30 6564 H 628.651 -0.414318 -0.852669 0
M  V30 6565 H 628.357 -0.983125 -3.3768 0
M  V30 6566 H 628.231 0.73714 -3.69927 0
M  V30 6567 H 630.618 1.04975 -2.75798 0
M  V30 6568 H 630.699 -0.692918 -2.46236 0
M  V30 6569 H 630.343 -1.10992 -4.95624 0
M  V30 6570 H 630.273 0.649692 -5.22577 0
M  V30 6571 H 632.764 0.0630689 -3.77847 0
M  V30 6572 H 633.077 -0.496645 -7.71202 0
M  V30 6573 H 631.422 -0.43971 -6.93608 0
M  V30 6574 H 634.613 -0.00613174 -4.681 0
M  V30 6575 H 634.786 -0.261138 -6.47474 0
M  V30 6576 N 628.193 1.56834 0.155195 0
M  V30 6577 C 629.14 1.97646 1.19184 0
M  V30 6578 C 630.11 0.842788 1.4313 0
M  V30 6579 O 631.295 1.1042 1.55602 0
M  V30 6580 C 628.435 2.35527 2.52232 0
M  V30 6581 C 627.548 3.62147 2.35529 0
M  V30 6582 C 626.683 3.89167 3.61555 0
M  V30 6583 C 625.722 5.09084 3.39853 0
M  V30 6584 N 624.859 5.32156 4.5799 0
M  V30 6585 H 629.699 2.8601 0.836802 0
M  V30 6586 H 627.236 1.41507 0.401758 0
M  V30 6587 H 629.194 2.55516 3.29799 0
M  V30 6588 H 627.824 1.50253 2.85699 0
M  V30 6589 H 626.876 3.4998 1.49057 0
M  V30 6590 H 628.188 4.49871 2.15448 0
M  V30 6591 H 627.342 4.09611 4.47553 0
M  V30 6592 H 626.081 2.9985 3.84632 0
M  V30 6593 H 625.086 4.88522 2.52243 0
M  V30 6594 H 626.311 5.99947 3.18183 0
M  V30 6595 H 624.257 4.45791 4.81255 0
M  V30 6596 H 624.174 6.14133 4.40882 0
M  V30 6597 H 625.442 5.57091 5.45225 0
M  V30 6598 N 629.671 -0.424282 1.51781 0
M  V30 6599 C 630.896 -1.19928 1.6921 0
M  V30 6600 C 631.321 -1.8392 0.394355 0
M  V30 6601 O 630.679 -1.69371 -0.646778 0
M  V30 6602 C 630.727 -2.24937 2.81843 0
M  V30 6603 O 629.831 -3.3073 2.46356 0
M  V30 6604 H 629.172 -0.35078 0.563781 0
M  V30 6605 H 631.702 -0.499401 1.98412 0
M  V30 6606 H 631.712 -2.69512 3.06312 0
M  V30 6607 H 630.387 -1.77742 3.76006 0
M  V30 6608 H 628.964 -2.9154 2.32505 0
M  V30 6609 N 631.149 -1.42148 -0.680565 0
M  V30 6610 C 632.097 -1.45401 -1.81552 0
M  V30 6611 C 633.091 -0.33036 -1.66147 0
M  V30 6612 O 634.297 -0.503103 -1.72826 0
M  V30 6613 H 630.672 -0.455265 -0.59853 0
M  V30 6614 H 632.643 -2.41024 -1.75926 0
M  V30 6615 C 631.392 -1.36769 -3.19671 0
M  V30 6616 H 630.715 -2.22525 -3.32149 0
M  V30 6617 H 632.155 -1.43106 -3.9912 0
M  V30 6618 C 630.614 -0.0817752 -3.36801 0
M  V30 6619 O 631.144 0.867707 -3.92216 0
M  V30 6620 N 629.35 -0.000799811 -2.906 0
M  V30 6621 H 628.897 -0.774231 -2.4569 0
M  V30 6622 H 628.855 0.858961 -3.02439 0
M  V30 6623 N 632.627 0.916307 -1.28225 0
M  V30 6624 C 634.038 1.48024 -1.13779 0
M  V30 6625 C 634.389 1.94289 0.273139 0
M  V30 6626 O 633.514 1.82226 1.16716 0
M  V30 6627 C 634.109 2.69029 -2.05935 0
M  V30 6628 C 632.668 3.2161 -1.95561 0
M  V30 6629 C 631.815 1.94321 -1.97825 0
M  V30 6630 H 634.766 0.729272 -1.40951 0
M  V30 6631 H 634.787 3.44204 -1.62184 0
M  V30 6632 H 634.299 2.35325 -3.08616 0
M  V30 6633 H 632.4 3.60045 -0.959076 0
M  V30 6634 H 632.513 3.87032 -2.82388 0
M  V30 6635 H 630.877 2.1131 -1.42198 0
M  V30 6636 H 631.66 1.62917 -3.0218 0
M  V30 6637 N 634.105 1.10431 1.1244 0
M  V30 6638 C 635.068 0.756542 2.16354 0
M  V30 6639 C 636.068 -0.21899 1.59302 0
M  V30 6640 O 637.258 0.00415969 1.742 0
M  V30 6641 C 634.39 0.120612 3.40687 0
M  V30 6642 H 635.583 1.67696 2.48632 0
M  V30 6643 H 633.136 0.904832 1.27446 0
M  V30 6644 H 633.871 -0.810536 3.14008 0
M  V30 6645 H 633.656 0.822693 3.83372 0
M  V30 6646 H 635.146 -0.106945 4.17463 0
M  V30 6647 N 635.583 -1.29855 0.893053 0
M  V30 6648 C 636.832 -1.95104 0.511597 0
M  V30 6649 C 637.145 -1.71226 -0.945567 0
M  V30 6650 O 638.351 -2.30525 -1.43424 0
M  V30 6651 C 636.807 -3.49374 0.864034 0
M  V30 6652 C 636.415 -3.82061 2.33952 0
M  V30 6653 C 638.159 -4.20894 0.552167 0
M  V30 6654 C 636.066 -5.29546 2.63316 0
M  V30 6655 H 634.996 -0.73029 0.187597 0
M  V30 6656 H 637.647 -1.47682 1.08914 0
M  V30 6657 H 636.029 -3.95413 0.215493 0
M  V30 6658 H 637.203 -3.46904 3.03305 0
M  V30 6659 H 635.518 -3.23665 2.61973 0
M  V30 6660 H 638.115 -5.29435 0.748489 0
M  V30 6661 H 638.458 -4.13178 -0.508924 0
M  V30 6662 H 638.991 -3.80564 1.15825 0
M  V30 6663 H 635.73 -5.4232 3.68197 0
M  V30 6664 H 635.25 -5.65974 1.9858 0
M  V30 6665 H 636.929 -5.97068 2.49236 0
M  V30 6666 N 637.061 -0.65484 -1.43351 0
M  V30 6667 C 638.024 0.0263562 -2.29185 0
M  V30 6668 C 639.024 0.748951 -1.42293 0
M  V30 6669 O 640.214 0.589957 -1.63906 0
M  V30 6670 C 637.346 1.04806 -3.2439 0
M  V30 6671 H 638.539 -0.728883 -2.90908 0
M  V30 6672 H 636.092 -0.416149 -1.50658 0
M  V30 6673 H 636.827 1.83247 -2.67565 0
M  V30 6674 H 636.612 0.533554 -3.88453 0
M  V30 6675 H 638.102 1.52372 -3.88809 0
M  V30 6676 N 638.539 1.52521 -0.396863 0
M  V30 6677 C 639.769 2.05792 0.182485 0
M  V30 6678 C 640.177 1.26784 1.40436 0
M  V30 6679 O 639.52 0.309617 1.81072 0
M  V30 6680 C 639.582 3.54291 0.609781 0
M  V30 6681 C 639.246 4.5426 -0.499674 0
M  V30 6682 C 640.243 5.01812 -1.35944 0
M  V30 6683 C 637.928 4.97827 -0.668864 0
M  V30 6684 C 639.922 5.91562 -2.37346 0
M  V30 6685 C 637.609 5.87376 -1.68621 0
M  V30 6686 C 638.607 6.34137 -2.53692 0
M  V30 6687 O 638.295 7.21915 -3.53686 0
M  V30 6688 H 638.027 0.675362 0.0293583 0
M  V30 6689 H 640.581 1.97539 -0.56281 0
M  V30 6690 H 638.811 3.60188 1.40717 0
M  V30 6691 H 640.5 3.90267 1.11565 0
M  V30 6692 H 641.266 4.68879 -1.24008 0
M  V30 6693 H 637.145 4.60997 -0.0163971 0
M  V30 6694 H 640.689 6.27983 -3.03782 0
M  V30 6695 H 636.586 6.19723 -1.80593 0
M  V30 6696 H 637.354 7.39996 -3.49784 0
M  V30 6697 N 640.017 0.126909 1.57088 0
M  V30 6698 C 641.265 -0.528123 1.95078 0
M  V30 6699 C 641.586 -1.66708 1.0116 0
M  V30 6700 O 640.856 -1.95777 0.0693527 0
M  V30 6701 H 639.436 -0.198087 0.720257 0
M  V30 6702 H 642.098 0.197703 1.93895 0
M  V30 6703 H 641.194 -0.917507 2.98309 0
M  V30 6704 N 641.495 -1.56914 -0.146875 0
M  V30 6705 C 642.72 -1.87881 -0.878386 0
M  V30 6706 C 643.145 -0.715945 -1.73942 0
M  V30 6707 O 642.503 0.334447 -1.78189 0
M  V30 6708 C 642.551 -3.17431 -1.71084 0
M  V30 6709 O 641.655 -3.01374 -2.81509 0
M  V30 6710 H 640.996 -0.617289 -0.244644 0
M  V30 6711 H 643.526 -2.04136 -0.137654 0
M  V30 6712 H 643.536 -3.49455 -2.10582 0
M  V30 6713 H 642.211 -4.01671 -1.07856 0
M  V30 6714 H 640.788 -2.80758 -2.45416 0
M  V30 6715 N 642.974 0.416227 -1.52004 0
M  V30 6716 C 644.202 1.18573 -1.69553 0
M  V30 6717 C 644.617 1.84472 -0.401919 0
M  V30 6718 O 643.974 1.71593 0.621463 0
M  V30 6719 C 644.025 2.25413 -2.82615 0
M  V30 6720 O 643.746 1.62205 -4.06966 0
M  V30 6721 C 645.247 3.15297 -3.11613 0
M  V30 6722 H 642.467 0.356582 -0.56841 0
M  V30 6723 H 645.011 0.490618 -1.98528 0
M  V30 6724 H 643.166 2.90604 -2.56179 0
M  V30 6725 H 643.58 2.3298 -4.69916 0
M  V30 6726 H 645.054 3.86351 -3.94255 0
M  V30 6727 H 645.531 3.77264 -2.24874 0
M  V30 6728 H 646.137 2.55783 -3.39787 0
M  V30 6729 N 644.452 1.42507 0.673017 0
M  V30 6730 C 645.402 1.4258 1.77919 0
M  V30 6731 C 646.386 0.296885 1.58137 0
M  V30 6732 O 647.578 0.539243 1.68586 0
M  V30 6733 C 644.707 1.33238 3.1639 0
M  V30 6734 C 643.793 2.51081 3.41788 0
M  V30 6735 N 644.184 3.76498 3.37761 0
M  V30 6736 C 642.482 2.4538 3.72431 0
M  V30 6737 C 643.183 4.54784 3.62693 0
M  V30 6738 N 642.159 3.8522 3.83544 0
M  V30 6739 H 645.961 2.37442 1.73201 0
M  V30 6740 H 643.475 1.36881 0.873924 0
M  V30 6741 H 645.472 1.31372 3.9566 0
M  V30 6742 H 644.132 0.393794 3.22303 0
M  V30 6743 H 645.143 4.09068 3.17622 0
M  V30 6744 H 641.82 1.60109 3.85579 0
M  V30 6745 H 643.21 5.63774 3.65525 0
M  V30 6746 N 645.93 -0.909495 1.28709 0
M  V30 6747 C 646.84 -2.04558 1.14861 0
M  V30 6748 C 647.856 -1.73842 0.0741621 0
M  V30 6749 O 649.032 -1.99383 0.2843 0
M  V30 6750 C 646.097 -3.36957 0.816148 0
M  V30 6751 C 645.158 -3.81255 1.97341 0
M  V30 6752 C 644.391 -5.07335 1.65671 0
M  V30 6753 O 644.614 -5.67514 0.573053 0
M  V30 6754 O 643.548 -5.47449 2.50167 0
M  V30 6755 H 647.374 -2.19161 2.10243 0
M  V30 6756 H 644.959 -1.03159 1.08068 0
M  V30 6757 H 646.841 -4.16436 0.644873 0
M  V30 6758 H 645.516 -3.2352 -0.107983 0
M  V30 6759 H 644.423 -3.02584 2.19986 0
M  V30 6760 H 645.756 -3.99261 2.87839 0
M  V30 6761 N 647.408 -1.11026 -1.11852 0
M  V30 6762 C 648.824 -0.843294 -1.35502 0
M  V30 6763 C 649.024 0.534179 -1.9429 0
M  V30 6764 O 648.08 1.28585 -2.17307 0
M  V30 6765 C 649.393 -1.94793 -2.29077 0
M  V30 6766 C 650.941 -1.97709 -2.42652 0
M  V30 6767 C 651.416 -3.07364 -3.39546 0
M  V30 6768 N 652.907 -3.0671 -3.47107 0
M  V30 6769 C 653.642 -3.88197 -4.22008 0
M  V30 6770 N 653.138 -4.79635 -4.99922 0
M  V30 6771 N 654.931 -3.76391 -4.17476 0
M  V30 6772 H 647.082 -1.99805 -0.720538 0
M  V30 6773 H 649.345 -0.868633 -0.379711 0
M  V30 6774 H 649.051 -2.93971 -1.93065 0
M  V30 6775 H 648.925 -1.84039 -3.29256 0
M  V30 6776 H 651.312 -0.991604 -2.77941 0
M  V30 6777 H 651.393 -2.1254 -1.4234 0
M  V30 6778 H 651.037 -4.06136 -3.04985 0
M  V30 6779 H 650.967 -2.89774 -4.39703 0
M  V30 6780 H 653.458 -2.40457 -2.91528 0
M  V30 6781 H 653.771 -5.38357 -5.54429 0
M  V30 6782 H 652.116 -4.8366 -4.99097 0
M  V30 6783 H 655.307 -3.04303 -3.55693 0
M  V30 6784 H 655.48 -4.40131 -4.75593 0
M  V30 6785 N 648.886 1.2938 -0.899927 0
M  V30 6786 C 650.132 1.96206 -0.536153 0
M  V30 6787 C 650.487 1.69647 0.90761 0
M  V30 6788 O 649.78 0.999089 1.63489 0
M  V30 6789 C 649.974 3.49114 -0.765113 0
M  V30 6790 C 649.803 3.90538 -2.22958 0
M  V30 6791 C 648.573 4.15395 -2.87706 0
M  V30 6792 C 650.771 4.0224 -3.20479 0
M  V30 6793 N 648.753 4.43389 -4.24593 0
M  V30 6794 C 650.124 4.34288 -4.42486 0
M  V30 6795 C 652.179 3.84716 -3.16066 0
M  V30 6796 C 650.882 4.50638 -5.6064 0
M  V30 6797 C 652.908 4.02276 -4.33507 0
M  V30 6798 C 652.27 4.34684 -5.54283 0
M  V30 6799 H 648.369 0.742364 -0.245804 0
M  V30 6800 H 650.953 1.56314 -1.16078 0
M  V30 6801 H 649.124 3.88028 -0.169861 0
M  V30 6802 H 650.856 4.03035 -0.366751 0
M  V30 6803 H 647.611 4.09164 -2.385 0
M  V30 6804 H 648.035 4.61494 -4.95331 0
M  V30 6805 H 652.677 3.58724 -2.23778 0
M  V30 6806 H 650.395 4.75467 -6.5342 0
M  V30 6807 H 653.981 3.90169 -4.31578 0
M  V30 6808 H 652.861 4.47988 -6.43643 0
M  V30 6809 N 650.364 0.662433 1.43002 0
M  V30 6810 C 651.613 0.176873 2.00923 0
M  V30 6811 C 651.926 -1.21954 1.52927 0
M  V30 6812 O 653.132 -1.80081 2.03182 0
M  V30 6813 C 651.588 0.265379 3.5892 0
M  V30 6814 C 651.196 1.66507 4.15908 0
M  V30 6815 C 652.94 -0.162103 4.2419 0
M  V30 6816 C 650.847 1.707 5.66229 0
M  V30 6817 H 649.777 0.0623627 0.751417 0
M  V30 6818 H 652.428 0.825813 1.63868 0
M  V30 6819 H 650.81 -0.451235 3.93421 0
M  V30 6820 H 651.984 2.40777 3.92891 0
M  V30 6821 H 650.299 2.03932 3.63044 0
M  V30 6822 H 652.896 -0.150745 5.34487 0
M  V30 6823 H 653.239 -1.19519 3.98774 0
M  V30 6824 H 653.772 0.503075 3.94606 0
M  V30 6825 H 650.511 2.7195 5.96426 0
M  V30 6826 H 650.031 1.00768 5.91275 0
M  V30 6827 H 651.71 1.45487 6.3043 0
M  V30 6828 N 651.842 -1.52309 0.404946 0
M  V30 6829 C 652.79 -2.28452 -0.437321 0
M  V30 6830 C 653.784 -1.32975 -1.04948 0
M  V30 6831 O 654.99 -1.50451 -0.988159 0
M  V30 6832 H 651.365 -0.734824 -0.159805 0
M  V30 6833 H 653.336 -2.97542 0.22615 0
M  V30 6834 C 652.085 -3.11536 -1.54404 0
M  V30 6835 H 651.408 -3.84871 -1.08233 0
M  V30 6836 H 652.848 -3.67926 -2.10729 0
M  V30 6837 C 651.307 -2.24833 -2.50902 0
M  V30 6838 O 651.837 -1.88574 -3.54687 0
M  V30 6839 N 650.043 -1.88685 -2.21012 0
M  V30 6840 H 649.59 -2.18371 -1.36646 0
M  V30 6841 H 649.548 -1.30966 -2.85824 0
M  V30 6842 N 653.32 -0.135238 -1.57019 0
M  V30 6843 C 654.268 0.826099 -2.17436 0
M  V30 6844 C 655.262 1.26378 -1.12805 0
M  V30 6845 O 656.468 1.23363 -1.31079 0
M  V30 6846 H 652.843 0.284568 -0.696078 0
M  V30 6847 H 654.814 0.292212 -2.96966 0
M  V30 6848 C 653.563 2.05991 -2.80112 0
M  V30 6849 H 652.886 1.73209 -3.60331 0
M  V30 6850 H 654.326 2.71225 -3.25903 0
M  V30 6851 C 652.785 2.86027 -1.78017 0
M  V30 6852 O 653.315 3.81971 -1.24344 0
M  V30 6853 N 651.521 2.50332 -1.47588 0
M  V30 6854 H 651.068 1.72377 -1.91426 0
M  V30 6855 H 651.026 3.04177 -0.795228 0
M  V30 6856 N 654.798 1.5699 0.138552 0
M  V30 6857 C 656.075 1.74741 0.87891 0
M  V30 6858 C 656.455 0.705522 1.98961 0
M  V30 6859 O 655.803 -0.274066 2.2685 0
M  V30 6860 C 656.013 3.1909 1.4136 0
M  V30 6861 C 657.361 3.81023 1.87368 0
M  V30 6862 O 658.385 3.22571 1.51084 0
M  V30 6863 O 657.244 4.83722 2.54312 0
M  V30 6864 H 654.338 0.714781 0.415953 0
M  V30 6865 H 656.884 1.69248 0.123817 0
M  V30 6866 H 655.656 3.86424 0.61579 0
M  V30 6867 H 655.279 3.29043 2.23196 0
M  V30 6868 N 656.276 -0.40816 1.52223 0
M  V30 6869 C 657.522 -1.15673 1.66576 0
M  V30 6870 C 657.855 -1.90141 0.394996 0
M  V30 6871 O 657.13 -1.84798 -0.606613 0
M  V30 6872 C 657.413 -2.15042 2.88841 0
M  V30 6873 C 657.266 -1.44465 4.25969 0
M  V30 6874 C 658.585 -3.15699 3.0663 0
M  V30 6875 H 655.704 -0.41916 0.606196 0
M  V30 6876 H 658.346 -0.442348 1.84779 0
M  V30 6877 H 656.496 -2.75964 2.73452 0
M  V30 6878 H 658.168 -0.866544 4.53088 0
M  V30 6879 H 656.411 -0.746612 4.27327 0
M  V30 6880 H 657.082 -2.16976 5.07568 0
M  V30 6881 H 659.558 -2.64854 3.20923 0
M  V30 6882 H 658.434 -3.82491 3.9369 0
M  V30 6883 H 658.695 -3.83481 2.19987 0
M  V30 6884 N 657.755 -1.42862 -0.66545 0
M  V30 6885 C 659.004 -1.43119 -1.42126 0
M  V30 6886 C 659.317 -0.0545297 -1.95524 0
M  V30 6887 O 660.523 0.0654747 -2.71421 0
M  V30 6888 C 658.979 -2.51797 -2.5715 0
M  V30 6889 C 658.587 -3.95514 -2.10411 0
M  V30 6890 C 660.331 -2.61233 -3.346 0
M  V30 6891 C 658.238 -4.95682 -3.22573 0
M  V30 6892 H 657.168 -0.532349 -0.533966 0
M  V30 6893 H 659.819 -1.68806 -0.719506 0
M  V30 6894 H 658.201 -2.19292 -3.29738 0
M  V30 6895 H 659.375 -4.3742 -1.44915 0
M  V30 6896 H 657.69 -3.90012 -1.45874 0
M  V30 6897 H 660.287 -3.33248 -4.18151 0
M  V30 6898 H 660.63 -1.65896 -3.81817 0
M  V30 6899 H 661.163 -2.9298 -2.69087 0
M  V30 6900 H 657.902 -5.92529 -2.80338 0
M  V30 6901 H 657.422 -4.58399 -3.86821 0
M  V30 6902 H 659.101 -5.17828 -3.87896 0
M  V30 6903 N 659.233 0.902656 -1.29189 0
M  V30 6904 C 660.482 1.6475 -1.16362 0
M  V30 6905 C 660.795 1.93517 0.284682 0
M  V30 6906 O 662.001 2.66192 0.534229 0
M  V30 6907 C 660.457 2.96848 -2.03493 0
M  V30 6908 C 660.065 2.75687 -3.5313 0
M  V30 6909 C 661.809 3.74762 -1.99383 0
M  V30 6910 C 659.716 4.03492 -4.32375 0
M  V30 6911 H 658.646 0.618041 -0.431904 0
M  V30 6912 H 661.297 1.0008 -1.53806 0
M  V30 6913 H 659.679 3.62715 -1.58916 0
M  V30 6914 H 660.853 2.18431 -4.05739 0
M  V30 6915 H 659.168 2.11171 -3.58881 0
M  V30 6916 H 661.765 4.69515 -2.5585 0
M  V30 6917 H 662.108 4.04767 -0.973123 0
M  V30 6918 H 662.641 3.15732 -2.41988 0
M  V30 6919 H 659.38 3.78656 -5.3507 0
M  V30 6920 H 658.9 4.60318 -3.84535 0
M  V30 6921 H 660.579 4.71662 -4.42881 0
M  V30 6922 N 660.711 1.11618 1.11262 0
M  V30 6923 C 661.941 0.88745 1.86569 0
M  V30 6924 C 662.349 -0.56636 1.80524 0
M  V30 6925 O 661.692 -1.40289 1.18594 0
M  V30 6926 C 661.754 1.27313 3.36202 0
M  V30 6927 C 661.418 2.73649 3.66013 0
M  V30 6928 C 662.415 3.71863 3.63337 0
M  V30 6929 C 660.1 3.10342 3.9496 0
M  V30 6930 C 662.094 5.04788 3.89188 0
M  V30 6931 C 659.781 4.43451 4.20469 0
M  V30 6932 C 660.779 5.40484 4.17572 0
M  V30 6933 O 660.467 6.71195 4.42439 0
M  V30 6934 H 660.199 0.317543 0.596777 0
M  V30 6935 H 662.753 1.48768 1.41624 0
M  V30 6936 H 660.983 0.616062 3.81761 0
M  V30 6937 H 662.672 1.01991 3.92877 0
M  V30 6938 H 663.438 3.44861 3.41022 0
M  V30 6939 H 659.317 2.35431 3.9635 0
M  V30 6940 H 662.861 5.80516 3.86842 0
M  V30 6941 H 658.758 4.70187 4.42261 0
M  V30 6942 H 659.526 6.77012 4.59997 0
M  V30 6943 N 662.189 -1.289 0.906776 0
M  V30 6944 C 663.099 -2.31256 0.394707 0
M  V30 6945 C 664.115 -1.66231 -0.514121 0
M  V30 6946 O 665.291 -1.97347 -0.401994 0
M  V30 6947 C 662.356 -3.44792 -0.363191 0
M  V30 6948 C 661.417 -4.25391 0.578012 0
M  V30 6949 C 660.65 -5.33506 -0.143811 0
M  V30 6950 O 660.873 -5.53786 -1.36665 0
M  V30 6951 O 659.807 -5.99673 0.5173 0
M  V30 6952 H 663.633 -2.77051 1.24405 0
M  V30 6953 H 661.218 -1.33466 0.671346 0
M  V30 6954 H 663.1 -4.139 -0.791503 0
M  V30 6955 H 661.775 -3.01093 -1.18848 0
M  V30 6956 H 660.682 -3.58899 1.05558 0
M  V30 6957 H 662.015 -4.72752 1.36992 0
M  V30 6958 N 663.667 -0.670007 -1.42649 0
M  V30 6959 C 665.083 -0.33911 -1.55956 0
M  V30 6960 C 665.283 1.1558 -1.65056 0
M  V30 6961 O 664.339 1.94111 -1.61485 0
M  V30 6962 C 665.652 -1.06522 -2.812 0
M  V30 6963 C 667.2 -1.04708 -2.94966 0
M  V30 6964 C 667.675 -1.75442 -4.23065 0
M  V30 6965 N 669.166 -1.72286 -4.29967 0
M  V30 6966 C 669.901 -2.23877 -5.27889 0
M  V30 6967 N 669.397 -2.83829 -6.31991 0
M  V30 6968 N 671.19 -2.14279 -5.19654 0
M  V30 6969 H 663.341 -1.6399 -1.34986 0
M  V30 6970 H 665.604 -0.690603 -0.649439 0
M  V30 6971 H 665.31 -2.12033 -2.80597 0
M  V30 6972 H 665.184 -0.627398 -3.71946 0
M  V30 6973 H 667.571 -0.000315966 -2.951 0
M  V30 6974 H 667.652 -1.52374 -2.05465 0
M  V30 6975 H 667.296 -2.80084 -4.23693 0
M  V30 6976 H 667.226 -1.25229 -5.11493 0
M  V30 6977 H 669.717 -1.28554 -3.55362 0
M  V30 6978 H 670.03 -3.20827 -7.03057 0
M  V30 6979 H 668.375 -2.87896 -6.32567 0
M  V30 6980 H 671.566 -1.67135 -4.37245 0
M  V30 6981 H 671.739 -2.54792 -5.95806 0
M  V30 6982 N 665.145 1.52092 -0.413018 0
M  V30 6983 C 666.092 2.27119 0.410558 0
M  V30 6984 C 667.062 1.29692 1.03774 0
M  V30 6985 O 668.247 1.58561 1.06128 0
M  V30 6986 C 665.387 3.09863 1.51918 0
M  V30 6987 C 664.5 4.22252 0.912528 0
M  V30 6988 C 663.635 4.92348 1.99417 0
M  V30 6989 C 662.674 5.96694 1.36466 0
M  V30 6990 N 661.811 6.60292 2.38661 0
M  V30 6991 H 666.651 2.97067 -0.235661 0
M  V30 6992 H 664.188 1.46542 -0.128055 0
M  V30 6993 H 666.146 3.56144 2.17295 0
M  V30 6994 H 664.776 2.42078 2.13537 0
M  V30 6995 H 663.828 3.80113 0.147697 0
M  V30 6996 H 665.14 4.9709 0.412717 0
M  V30 6997 H 664.294 5.42054 2.72512 0
M  V30 6998 H 663.033 4.17087 2.52764 0
M  V30 6999 H 662.038 5.46304 0.61906 0
M  V30 7000 H 663.263 6.73899 0.838827 0
M  V30 7001 H 661.209 5.87858 2.91134 0
M  V30 7002 H 661.126 7.30816 1.93503 0
M  V30 7003 H 662.394 7.14635 3.11314 0
M  V30 7004 N 666.623 0.143563 1.56945 0
M  V30 7005 C 667.87 -0.508407 1.96014 0
M  V30 7006 C 668.198 -1.65099 1.02824 0
M  V30 7007 O 667.453 -1.95618 0.0567764 0
M  V30 7008 C 667.752 -1.05885 3.41355 0
M  V30 7009 C 667.418 -0.0350809 4.50886 0
M  V30 7010 C 666.08 0.246362 4.80569 0
M  V30 7011 C 668.432 0.661282 5.16988 0
M  V30 7012 C 665.76 1.23003 5.73661 0
M  V30 7013 C 668.112 1.63375 6.11139 0
M  V30 7014 C 666.776 1.92292 6.39203 0
M  V30 7015 H 666.046 -0.186039 0.717266 0
M  V30 7016 H 668.693 0.229667 1.90118 0
M  V30 7017 H 666.998 -1.87419 3.44066 0
M  V30 7018 H 668.695 -1.57183 3.6891 0
M  V30 7019 H 665.285 -0.264622 4.27782 0
M  V30 7020 H 669.469 0.457038 4.94191 0
M  V30 7021 H 664.725 1.46056 5.93698 0
M  V30 7022 H 668.899 2.17887 6.61436 0
M  V30 7023 H 666.526 2.68666 7.11142 0
M  V30 7024 N 668.101 -1.57061 -0.130224 0
M  V30 7025 C 669.349 -1.83893 -0.838313 0
M  V30 7026 C 669.67 -0.727046 -1.80939 0
M  V30 7027 O 668.94 0.249927 -1.94299 0
M  V30 7028 H 667.52 -0.67846 -0.312573 0
M  V30 7029 H 670.182 -1.94529 -0.120224 0
M  V30 7030 H 669.278 -2.79419 -1.39038 0
M  V30 7031 N 669.579 0.400081 -1.52437 0
M  V30 7032 C 670.527 1.50851 -1.7705 0
M  V30 7033 C 671.521 1.56928 -0.637969 0
M  V30 7034 O 672.727 1.60226 -0.820212 0
M  V30 7035 H 669.102 0.50186 -0.560036 0
M  V30 7036 H 671.073 1.27281 -2.69893 0
M  V30 7037 C 669.822 2.88117 -1.94638 0
M  V30 7038 H 669.145 2.84187 -2.81208 0
M  V30 7039 H 670.585 3.64942 -2.15855 0
M  V30 7040 C 669.044 3.29206 -0.715899 0
M  V30 7041 O 669.574 4.01544 0.111944 0
M  V30 7042 N 667.78 2.85363 -0.549191 0
M  V30 7043 H 667.327 2.26664 -1.22397 0
M  V30 7044 H 667.285 3.13214 0.27278 0
M  V30 7045 N 671.057 1.43213 0.657864 0
M  V30 7046 C 672.005 1.48271 1.79216 0
M  V30 7047 C 672.999 0.35675 1.65601 0
M  V30 7048 O 674.205 0.530535 1.72004 0
M  V30 7049 H 670.58 0.464729 0.591211 0
M  V30 7050 H 672.551 2.43792 1.7207 0
M  V30 7051 C 671.3 1.41837 3.17455 0
M  V30 7052 H 670.623 2.27781 3.28567 0
M  V30 7053 H 672.063 1.49438 3.96793 0
M  V30 7054 C 670.522 0.135347 3.36628 0
M  V30 7055 O 671.052 -0.805199 3.93547 0
M  V30 7056 N 669.258 0.0470316 2.90562 0
M  V30 7057 H 668.805 0.813221 2.44427 0
M  V30 7058 H 668.763 -0.810737 3.03767 0
M  V30 7059 N 672.536 -0.895792 1.29666 0
M  V30 7060 C 673.782 -1.64908 1.18039 0
M  V30 7061 C 674.115 -1.9236 -0.266682 0
M  V30 7062 O 673.39 -1.53682 -1.19214 0
M  V30 7063 C 673.673 -2.99574 1.99819 0
M  V30 7064 C 673.526 -2.79163 3.52687 0
M  V30 7065 C 674.845 -4.00358 1.82761 0
M  V30 7066 H 671.964 -0.598437 0.430165 0
M  V30 7067 H 674.606 -1.03736 1.59182 0
M  V30 7068 H 672.756 -3.51786 1.64859 0
M  V30 7069 H 674.428 -2.33821 3.9765 0
M  V30 7070 H 672.671 -2.13871 3.77414 0
M  V30 7071 H 673.342 -3.74871 4.05186 0
M  V30 7072 H 675.818 -3.57268 2.13304 0
M  V30 7073 H 674.694 -4.92514 2.42325 0
M  V30 7074 H 674.955 -4.35096 0.783839 0
M  V30 7075 N 674.014 -1.12206 -1.10668 0
M  V30 7076 C 674.977 -0.790867 -2.15123 0
M  V30 7077 C 675.977 0.193618 -1.5963 0
M  V30 7078 O 677.167 -0.0318728 -1.74171 0
M  V30 7079 C 674.299 -0.174797 -3.40452 0
M  V30 7080 H 675.492 -1.7163 -2.45933 0
M  V30 7081 H 673.045 -0.924993 -1.2599 0
M  V30 7082 H 673.78 0.760478 -3.15257 0
M  V30 7083 H 673.565 -0.88358 -3.82015 0
M  V30 7084 H 675.055 0.0405162 -4.1758 0
M  V30 7085 N 675.492 1.28418 -0.913599 0
M  V30 7086 C 676.738 1.9527 -0.547484 0
M  V30 7087 C 677.071 1.71745 0.906486 0
M  V30 7088 O 676.346 1.03834 1.64465 0
M  V30 7089 C 676.629 3.49748 -0.857205 0
M  V30 7090 C 676.482 3.82675 -2.3639 0
M  V30 7091 C 677.801 4.3868 -0.353258 0
M  V30 7092 H 674.92 0.709236 -0.200381 0
M  V30 7093 H 677.562 1.51789 -1.14281 0
M  V30 7094 H 675.712 3.86915 -0.350548 0
M  V30 7095 H 677.384 3.55378 -2.94116 0
M  V30 7096 H 675.627 3.29724 -2.81894 0
M  V30 7097 H 676.298 4.90547 -2.53115 0
M  V30 7098 H 678.774 4.08584 -0.787288 0
M  V30 7099 H 677.65 5.45621 -0.599049 0
M  V30 7100 H 677.911 4.35753 0.746413 0
M  V30 7101 N 676.97 0.677563 1.42291 0
M  V30 7102 C 678.216 0.201272 2.01799 0
M  V30 7103 C 678.549 -1.19004 1.53465 0
M  V30 7104 O 677.824 -1.79953 0.738039 0
M  V30 7105 C 678.107 0.238968 3.59306 0
M  V30 7106 C 677.96 1.66594 4.17812 0
M  V30 7107 C 679.279 -0.411287 4.38174 0
M  V30 7108 H 676.398 0.0746114 0.733214 0
M  V30 7109 H 679.04 0.862872 1.69276 0
M  V30 7110 H 677.19 -0.324368 3.87144 0
M  V30 7111 H 678.862 2.28173 4.00917 0
M  V30 7112 H 677.105 2.20576 3.73536 0
M  V30 7113 H 677.776 1.64398 5.26951 0
M  V30 7114 H 680.252 0.0682804 4.16044 0
M  V30 7115 H 679.128 -0.354286 5.47755 0
M  V30 7116 H 679.389 -1.4893 4.1626 0
M  V30 7117 N 678.448 -1.51871 0.421078 0
M  V30 7118 C 679.411 -2.25914 -0.386712 0
M  V30 7119 C 680.411 -1.28733 -0.963555 0
M  V30 7120 O 681.601 -1.52579 -0.840556 0
M  V30 7121 C 678.733 -3.03853 -1.54551 0
M  V30 7122 H 679.926 -2.98754 0.261978 0
M  V30 7123 H 677.479 -1.5533 0.173862 0
M  V30 7124 H 678.214 -2.35392 -2.23072 0
M  V30 7125 H 677.999 -3.75215 -1.13824 0
M  V30 7126 H 679.489 -3.59984 -2.11663 0
M  V30 7127 N 679.926 -0.151884 -1.56866 0
M  V30 7128 C 681.175 0.497992 -1.95456 0
M  V30 7129 C 681.488 1.6569 -1.03953 0
M  V30 7130 O 682.694 2.37173 -1.32142 0
M  V30 7131 C 681.15 0.93732 -3.4748 0
M  V30 7132 C 680.758 -0.194921 -4.47576 0
M  V30 7133 C 682.502 1.55671 -3.94926 0
M  V30 7134 C 680.409 0.26295 -5.90815 0
M  V30 7135 H 679.339 0.189811 -0.729717 0
M  V30 7136 H 681.99 -0.237011 -1.81963 0
M  V30 7137 H 680.372 1.72773 -3.56322 0
M  V30 7138 H 681.546 -0.971951 -4.50433 0
M  V30 7139 H 679.861 -0.72303 -4.10075 0
M  V30 7140 H 682.458 1.91099 -4.99385 0
M  V30 7141 H 682.801 2.44748 -3.36755 0
M  V30 7142 H 683.334 0.831109 -3.89021 0
M  V30 7143 H 680.073 -0.592568 -6.52816 0
M  V30 7144 H 679.593 1.00575 -5.91308 0
M  V30 7145 H 681.272 0.713333 -6.43056 0
M  V30 7146 N 681.404 1.57128 0.121893 0
M  V30 7147 C 682.352 2.01109 1.16868 0
M  V30 7148 C 683.346 0.907532 1.43039 0
M  V30 7149 O 684.552 1.09274 1.43036 0
M  V30 7150 H 680.927 0.640539 0.393971 0
M  V30 7151 H 682.898 2.88261 0.771224 0
M  V30 7152 C 681.647 2.42887 2.48799 0
M  V30 7153 H 680.97 3.2737 2.29498 0
M  V30 7154 H 682.41 2.77461 3.20611 0
M  V30 7155 C 680.869 1.29137 3.11168 0
M  V30 7156 O 681.399 0.605756 3.97106 0
M  V30 7157 N 679.605 1.04916 2.71 0
M  V30 7158 H 679.152 1.60848 2.01211 0
M  V30 7159 H 679.11 0.290016 3.1306 0
M  V30 7160 N 682.882 -0.391992 1.52647 0
M  V30 7161 C 684.298 -0.731848 1.41831 0
M  V30 7162 C 684.498 -1.9423 0.536361 0
M  V30 7163 O 683.554 -2.52499 0.00866571 0
M  V30 7164 C 684.867 -0.969743 2.84634 0
M  V30 7165 C 686.415 -1.0714 2.94092 0
M  V30 7166 C 686.89 -1.34195 4.37899 0
M  V30 7167 N 688.381 -1.41023 4.41211 0
M  V30 7168 C 689.116 -1.63616 5.49561 0
M  V30 7169 N 688.612 -1.83699 6.68002 0
M  V30 7170 N 690.405 -1.65771 5.371 0
M  V30 7171 H 682.556 0.404547 2.08512 0
M  V30 7172 H 684.819 0.11879 0.940528 0
M  V30 7173 H 684.525 -0.152465 3.51369 0
M  V30 7174 H 684.399 -1.88523 3.26709 0
M  V30 7175 H 686.786 -1.87925 2.27526 0
M  V30 7176 H 686.867 -0.133887 2.55449 0
M  V30 7177 H 686.511 -0.539207 5.0503 0
M  V30 7178 H 686.441 -2.29226 4.74092 0
M  V30 7179 H 688.932 -1.27223 3.55841 0
M  V30 7180 H 689.245 -2.00437 7.46354 0
M  V30 7181 H 687.59 -1.8093 6.71036 0
M  V30 7182 H 690.781 -1.4963 4.43541 0
M  V30 7183 H 690.954 -1.83038 6.21612 0
M  V30 7184 N 684.36 -1.4356 -0.65026 0
M  V30 7185 C 685.308 -1.49219 -1.78427 0
M  V30 7186 C 686.302 -0.365528 -1.65409 0
M  V30 7187 O 687.508 -0.539649 -1.7172 0
M  V30 7188 H 683.883 -0.467858 -0.588738 0
M  V30 7189 H 685.854 -2.44701 -1.70774 0
M  V30 7190 C 684.603 -1.43519 -3.16698 0
M  V30 7191 H 683.926 -2.2952 -3.27354 0
M  V30 7192 H 685.366 -1.5154 -3.95995 0
M  V30 7193 C 683.825 -0.153197 -3.36552 0
M  V30 7194 O 684.355 0.784317 -3.93969 0
M  V30 7195 N 682.561 -0.0624402 -2.90533 0
M  V30 7196 H 682.108 -0.826172 -2.43992 0
M  V30 7197 H 682.066 0.794616 -3.04193 0
M  V30 7198 N 685.838 0.888903 -1.30139 0
M  V30 7199 C 686.771 1.99655 -1.10514 0
M  V30 7200 C 687.749 1.62594 -0.0138934 0
M  V30 7201 O 688.933 1.87762 -0.166689 0
M  V30 7202 C 686.06 3.31708 -0.684655 0
M  V30 7203 C 685.106 3.87755 -1.77619 0
M  V30 7204 S 685.939 4.15532 -3.37777 0
M  V30 7205 C 687.095 5.5061 -2.97622 0
M  V30 7206 H 687.328 2.15996 -2.04287 0
M  V30 7207 H 684.861 1.03682 -1.14409 0
M  V30 7208 H 686.819 4.08039 -0.448782 0
M  V30 7209 H 685.48 3.1323 0.233648 0
M  V30 7210 H 684.673 4.83164 -1.43417 0
M  V30 7211 H 684.275 3.18149 -1.96614 0
M  V30 7212 H 686.567 6.31518 -2.45338 0
M  V30 7213 H 687.51 5.89747 -3.91924 0
M  V30 7214 H 687.918 5.12983 -2.35603 0
M  V30 7215 N 687.317 1.12792 1.10072 0
M  V30 7216 C 688.265 0.794523 2.18609 0
M  V30 7217 C 689.259 -0.220271 1.67962 0
M  V30 7218 O 690.465 -0.0780938 1.79831 0
M  V30 7219 H 686.84 0.239123 0.712969 0
M  V30 7220 H 688.811 1.71823 2.43966 0
M  V30 7221 C 687.56 0.269548 3.46654 0
M  V30 7222 H 686.883 1.04171 3.8599 0
M  V30 7223 H 688.323 0.0746242 4.23934 0
M  V30 7224 C 686.782 -1.00333 3.21613 0
M  V30 7225 O 687.312 -2.08042 3.4363 0
M  V30 7226 N 685.518 -0.931763 2.75257 0
M  V30 7227 H 685.065 -0.0551197 2.57541 0
M  V30 7228 H 685.023 -1.78405 2.58881 0
M  V30 7229 N 688.795 -1.27931 0.920396 0
M  V30 7230 C 690.023 -1.98805 0.573087 0
M  V30 7231 C 690.438 -1.68724 -0.847201 0
M  V30 7232 O 689.795 -0.943699 -1.56207 0
M  V30 7233 C 689.846 -3.52971 0.780633 0
M  V30 7234 O 689.567 -3.81994 2.14504 0
M  V30 7235 C 691.068 -4.411 0.44105 0
M  V30 7236 H 688.288 -0.634651 0.21785 0
M  V30 7237 H 690.832 -1.62965 1.23542 0
M  V30 7238 H 688.987 -3.87048 0.165204 0
M  V30 7239 H 689.401 -4.76609 2.18962 0
M  V30 7240 H 690.875 -5.48312 0.637006 0
M  V30 7241 H 691.352 -4.34758 -0.62306 0
M  V30 7242 H 691.958 -4.12532 1.0343 0
M  V30 7243 N 690.273 -0.685099 -1.4193 0
M  V30 7244 C 691.684 -0.287699 -1.8447 0
M  V30 7245 C 692.035 1.17215 -1.57338 0
M  V30 7246 O 691.16 1.89856 -1.03845 0
M  V30 7247 C 691.755 -0.515385 -3.34857 0
M  V30 7248 C 690.314 -0.172006 -3.76007 0
M  V30 7249 C 689.461 -0.802808 -2.65425 0
M  V30 7250 H 692.412 -0.88652 -1.3163 0
M  V30 7251 H 692.433 0.229251 -3.79809 0
M  V30 7252 H 691.945 -1.57796 -3.54573 0
M  V30 7253 H 690.046 0.886716 -3.61895 0
M  V30 7254 H 690.159 -0.619717 -4.75075 0
M  V30 7255 H 688.523 -0.233267 -2.5363 0
M  V30 7256 H 689.306 -1.86904 -2.87961 0
M  V30 7257 N 691.751 1.51645 -0.429126 0
M  V30 7258 C 692.714 2.26116 0.374726 0
M  V30 7259 C 693.714 1.29242 0.956714 0
M  V30 7260 O 694.904 1.53022 0.832452 0
M  V30 7261 C 692.036 3.04669 1.52937 0
M  V30 7262 H 693.229 2.9861 -0.277818 0
M  V30 7263 H 690.782 1.55236 -0.182097 0
M  V30 7264 H 691.517 2.36571 2.21821 0
M  V30 7265 H 691.302 3.75814 1.11833 0
M  V30 7266 H 692.792 3.61102 2.09751 0
M  V30 7267 N 693.229 0.160201 1.56784 0
M  V30 7268 C 694.454 -0.497373 2.01348 0
M  V30 7269 C 694.879 -1.56757 1.03966 0
M  V30 7270 O 694.237 -1.81292 0.0174455 0
M  V30 7271 C 694.285 -1.0628 3.44582 0
M  V30 7272 O 693.389 -2.17723 3.50244 0
M  V30 7273 H 692.73 -0.120295 0.653012 0
M  V30 7274 H 695.26 0.260821 2.02931 0
M  V30 7275 H 695.27 -1.38819 3.83658 0
M  V30 7276 H 693.945 -0.279166 4.14962 0
M  V30 7277 H 692.522 -1.86313 3.2302 0
M  V30 7278 N 694.707 -1.5719 -0.113559 0
M  V30 7279 C 695.956 -1.84325 -0.818984 0
M  V30 7280 C 696.269 -0.746685 -1.80787 0
M  V30 7281 O 697.475 -0.904596 -2.55987 0
M  V30 7282 C 695.931 -3.26818 -1.50724 0
M  V30 7283 C 695.539 -4.44498 -0.559065 0
M  V30 7284 C 697.283 -3.63196 -2.19748 0
M  V30 7285 C 695.19 -5.7802 -1.25086 0
M  V30 7286 H 694.12 -0.687507 -0.309596 0
M  V30 7287 H 696.771 -1.8336 -0.0717621 0
M  V30 7288 H 695.153 -3.22269 -2.30128 0
M  V30 7289 H 696.327 -4.60356 0.202146 0
M  V30 7290 H 694.642 -4.16393 0.024495 0
M  V30 7291 H 697.239 -4.60226 -2.72206 0
M  V30 7292 H 697.582 -2.90899 -2.97798 0
M  V30 7293 H 698.115 -3.69553 -1.47226 0
M  V30 7294 H 694.854 -6.53501 -0.511539 0
M  V30 7295 H 694.374 -5.66038 -1.98395 0
M  V30 7296 H 696.053 -6.2196 -1.78253 0
M  V30 7297 N 696.185 0.383891 -1.52853 0
M  V30 7298 C 697.413 1.1495 -1.7203 0
M  V30 7299 C 697.828 1.83578 -0.440957 0
M  V30 7300 O 697.185 1.72872 0.584925 0
M  V30 7301 C 697.236 2.19368 -2.87333 0
M  V30 7302 O 696.957 1.53536 -4.10315 0
M  V30 7303 C 698.458 3.08616 -3.18231 0
M  V30 7304 H 695.678 0.344445 -0.575846 0
M  V30 7305 H 698.222 0.448397 -1.99524 0
M  V30 7306 H 696.377 2.85105 -2.62286 0
M  V30 7307 H 696.791 2.2296 -4.74752 0
M  V30 7308 H 698.265 3.77902 -4.02361 0
M  V30 7309 H 698.742 3.72409 -2.32826 0
M  V30 7310 H 699.348 2.48518 -3.45136 0
M  V30 7311 N 697.663 1.43903 0.642637 0
M  V30 7312 C 698.911 1.45791 1.39962 0
M  V30 7313 C 699.232 0.0873144 1.94804 0
M  V30 7314 O 698.502 -0.878825 1.75081 0
M  V30 7315 H 697.082 0.536797 0.519479 0
M  V30 7316 H 699.744 1.7959 0.757189 0
M  V30 7317 H 698.84 2.17665 2.2367 0
M  V30 7318 N 699.141 -0.881989 1.30609 0
M  V30 7319 C 700.071 -2.00413 1.1982 0
M  V30 7320 C 701.052 -1.69871 0.0881538 0
M  V30 7321 O 702.237 -1.92304 0.2707 0
M  V30 7322 C 699.367 -3.35641 0.89233 0
M  V30 7323 C 698.321 -3.80451 1.96064 0
M  V30 7324 C 697.647 -5.13003 1.5077 0
M  V30 7325 C 698.947 -3.98855 3.37213 0
M  V30 7326 H 700.641 -2.09698 2.13699 0
M  V30 7327 H 698.187 -1.00754 1.02882 0
M  V30 7328 H 700.14 -4.13669 0.803497 0
M  V30 7329 H 698.864 -3.26497 -0.0821381 0
M  V30 7330 H 697.523 -3.04654 2.03916 0
M  V30 7331 H 697.171 -5.0029 0.521417 0
M  V30 7332 H 696.871 -5.43956 2.22229 0
M  V30 7333 H 698.395 -5.93554 1.43271 0
M  V30 7334 H 699.809 -4.67312 3.32103 0
M  V30 7335 H 698.206 -4.41188 4.06784 0
M  V30 7336 H 699.276 -3.02614 3.78883 0
M  V30 7337 N 700.619 -1.13374 -1.09472 0
M  V30 7338 C 701.865 -0.896516 -1.81908 0
M  V30 7339 C 702.198 0.575933 -1.85463 0
M  V30 7340 O 701.473 1.42618 -1.32251 0
M  V30 7341 C 701.756 -1.48445 -3.28079 0
M  V30 7342 C 701.609 -3.02598 -3.32798 0
M  V30 7343 C 702.928 -1.15226 -4.24748 0
M  V30 7344 H 700.047 -0.327127 -0.660422 0
M  V30 7345 H 702.689 -1.40195 -1.2824 0
M  V30 7346 H 700.839 -1.0546 -3.73912 0
M  V30 7347 H 702.511 -3.54335 -2.95372 0
M  V30 7348 H 700.754 -3.37613 -2.72397 0
M  V30 7349 H 701.425 -3.38835 -4.3577 0
M  V30 7350 H 703.901 -1.52369 -3.87199 0
M  V30 7351 H 702.777 -1.59012 -5.25363 0
M  V30 7352 H 703.038 -0.0658891 -4.42051 0
M  V30 7353 N 702.098 1.27442 -0.927168 0
M  V30 7354 C 703.326 1.98498 -0.583622 0
M  V30 7355 C 703.741 1.69171 0.838241 0
M  V30 7356 O 703.098 0.951969 1.55704 0
M  V30 7357 C 703.149 3.52552 -0.799341 0
M  V30 7358 O 702.87 3.80851 -2.16527 0
M  V30 7359 C 704.371 4.4086 -0.464436 0
M  V30 7360 H 701.591 0.633487 -0.221213 0
M  V30 7361 H 704.135 1.62308 -1.24404 0
M  V30 7362 H 702.29 3.86955 -0.185728 0
M  V30 7363 H 702.704 4.75441 -2.21487 0
M  V30 7364 H 704.178 5.47967 -0.666075 0
M  V30 7365 H 704.655 4.35082 0.599995 0
M  V30 7366 H 705.261 4.11977 -1.05617 0
M  V30 7367 N 703.576 0.692616 1.41565 0
M  V30 7368 C 704.801 0.229776 2.06123 0
M  V30 7369 C 705.226 -1.11119 1.5177 0
M  V30 7370 O 704.584 -1.69498 0.643444 0
M  V30 7371 C 704.632 0.19469 3.60074 0
M  V30 7372 O 703.736 -0.831366 4.03933 0
M  V30 7373 H 703.077 0.113002 0.654314 0
M  V30 7374 H 705.607 0.946645 1.81383 0
M  V30 7375 H 705.617 0.0245487 4.07993 0
M  V30 7376 H 704.292 1.17339 3.99004 0
M  V30 7377 H 702.869 -0.630819 3.67526 0
M  V30 7378 N 705.054 -1.51416 0.437162 0
M  V30 7379 C 705.984 -2.30631 -0.364922 0
M  V30 7380 C 706.965 -1.36037 -1.02118 0
M  V30 7381 O 708.15 -1.64956 -1.02485 0
M  V30 7382 C 705.28 -3.1482 -1.46648 0
M  V30 7383 C 704.234 -4.17691 -0.933717 0
M  V30 7384 C 703.56 -4.904 -2.13101 0
M  V30 7385 C 704.86 -5.2229 0.0317201 0
M  V30 7386 H 706.554 -2.97932 0.29614 0
M  V30 7387 H 704.1 -1.4328 0.143865 0
M  V30 7388 H 706.053 -3.69017 -2.03481 0
M  V30 7389 H 704.777 -2.4534 -2.15583 0
M  V30 7390 H 703.436 -3.64545 -0.387602 0
M  V30 7391 H 703.084 -4.17423 -2.80654 0
M  V30 7392 H 702.784 -5.59962 -1.78092 0
M  V30 7393 H 704.308 -5.4742 -2.70487 0
M  V30 7394 H 705.722 -5.7156 -0.446302 0
M  V30 7395 H 704.119 -5.99378 0.29437 0
M  V30 7396 H 705.189 -4.75131 0.968447 0
M  V30 7397 N 706.532 -0.168513 -1.56696 0
M  V30 7398 C 707.948 0.187686 -1.58493 0
M  V30 7399 C 708.148 1.63063 -1.18375 0
M  V30 7400 O 707.204 2.36142 -0.894042 0
M  V30 7401 C 708.517 -0.0905858 -3.00564 0
M  V30 7402 C 710.065 -0.028575 -3.12987 0
M  V30 7403 C 710.54 -0.279799 -4.57145 0
M  V30 7404 N 712.031 -0.227476 -4.62641 0
M  V30 7405 C 712.766 -0.396073 -5.7203 0
M  V30 7406 N 712.262 -0.623572 -6.89988 0
M  V30 7407 N 714.055 -0.332173 -5.61118 0
M  V30 7408 H 706.206 -1.11042 -1.81062 0
M  V30 7409 H 708.469 -0.441235 -0.839056 0
M  V30 7410 H 708.175 -1.09006 -3.34381 0
M  V30 7411 H 708.049 0.619078 -3.72085 0
M  V30 7412 H 710.436 0.961471 -2.78998 0
M  V30 7413 H 710.517 -0.770905 -2.43907 0
M  V30 7414 H 710.161 -1.26704 -4.91842 0
M  V30 7415 H 710.091 0.48311 -5.24379 0
M  V30 7416 H 712.582 -0.0571723 -3.77857 0
M  V30 7417 H 712.895 -0.741745 -7.69232 0
M  V30 7418 H 711.24 -0.660153 -6.91858 0
M  V30 7419 H 714.431 -0.155051 -4.67843 0
M  V30 7420 H 714.604 -0.466994 -6.46315 0
M  V30 7421 N 708.01 1.57248 0.105221 0
M  V30 7422 C 709.426 1.52853 0.459153 0
M  V30 7423 C 709.626 0.883674 1.8109 0
M  V30 7424 O 708.682 0.471864 2.48052 0
M  V30 7425 C 709.995 2.97596 0.43096 0
M  V30 7426 C 711.543 3.08758 0.513536 0
M  V30 7427 C 712.018 4.55089 0.515593 0
M  V30 7428 N 713.509 4.59597 0.576639 0
M  V30 7429 C 714.244 5.70253 0.599904 0
M  V30 7430 N 713.74 6.90368 0.579985 0
M  V30 7431 N 715.533 5.58399 0.643953 0
M  V30 7432 H 707.684 1.97547 -0.780306 0
M  V30 7433 H 709.947 0.902758 -0.289363 0
M  V30 7434 H 709.653 3.48201 -0.494903 0
M  V30 7435 H 709.527 3.55756 1.2537 0
M  V30 7436 H 711.914 2.58148 1.42982 0
M  V30 7437 H 711.995 2.53568 -0.337148 0
M  V30 7438 H 711.639 5.06348 -0.396701 0
M  V30 7439 H 711.569 5.08105 1.38335 0
M  V30 7440 H 714.06 3.73144 0.597639 0
M  V30 7441 H 714.373 7.70462 0.600741 0
M  V30 7442 H 712.718 6.92843 0.547191 0
M  V30 7443 H 715.909 4.63467 0.656975 0
M  V30 7444 H 716.082 6.44644 0.658616 0
M  V30 7445 N 709.488 -0.375779 1.53054 0
M  V30 7446 C 710.451 -1.44254 1.7811 0
M  V30 7447 C 711.451 -1.47018 0.651328 0
M  V30 7448 O 712.641 -1.47957 0.919472 0
M  V30 7449 C 709.773 -2.8345 1.89391 0
M  V30 7450 H 710.966 -1.23316 2.73374 0
M  V30 7451 H 708.519 -0.608312 1.43977 0
M  V30 7452 H 709.254 -3.09716 0.961589 0
M  V30 7453 H 709.039 -2.82844 2.71555 0
M  V30 7454 H 710.529 -3.60722 2.10404 0
M  V30 7455 N 710.966 -1.44241 -0.634997 0
M  V30 7456 C 712.191 -1.50516 -1.42687 0
M  V30 7457 C 712.616 -0.129864 -1.87651 0
M  V30 7458 O 711.974 0.880164 -1.58502 0
M  V30 7459 C 712.022 -2.4714 -2.62591 0
M  V30 7460 O 711.126 -1.97025 -3.62291 0
M  V30 7461 H 710.467 -0.50841 -0.427101 0
M  V30 7462 H 712.997 -1.89337 -0.775408 0
M  V30 7463 H 713.007 -2.65048 -3.10183 0
M  V30 7464 H 711.682 -3.47039 -2.29209 0
M  V30 7465 H 710.259 -1.88866 -3.21534 0
M  V30 7466 N 712.444 0.87505 -1.31075 0
M  V30 7467 C 713.674 1.65818 -1.2324 0
M  V30 7468 C 714.082 1.8808 0.205536 0
M  V30 7469 O 713.425 1.43548 1.14628 0
M  V30 7470 C 713.487 3.05131 -1.90093 0
M  V30 7471 C 713.151 3.05999 -3.39432 0
M  V30 7472 C 714.148 2.84328 -4.35263 0
M  V30 7473 C 711.833 3.27281 -3.81041 0
M  V30 7474 C 713.827 2.83912 -5.70678 0
M  V30 7475 C 711.514 3.26493 -5.16571 0
M  V30 7476 C 712.512 3.04834 -6.112 0
M  V30 7477 O 712.2 3.03882 -7.44252 0
M  V30 7478 H 711.932 0.52387 -0.427242 0
M  V30 7479 H 714.486 1.10086 -1.73408 0
M  V30 7480 H 712.716 3.62568 -1.34468 0
M  V30 7481 H 714.405 3.65641 -1.76242 0
M  V30 7482 H 715.171 2.67673 -4.04445 0
M  V30 7483 H 711.05 3.43171 -3.07822 0
M  V30 7484 H 714.594 2.66925 -6.44513 0
M  V30 7485 H 710.491 3.42687 -5.47025 0
M  V30 7486 H 711.259 3.19979 -7.53363 0
M  V30 7487 N 713.922 1.13953 1.08869 0
M  V30 7488 C 714.87 0.817664 2.17754 0
M  V30 7489 C 715.864 -0.202444 1.68186 0
M  V30 7490 O 717.07 -0.0590159 1.79903 0
M  V30 7491 H 713.445 0.246671 0.710392 0
M  V30 7492 H 715.416 1.74401 2.4213 0
M  V30 7493 C 714.165 0.3063 3.46348 0
M  V30 7494 H 713.488 1.08259 3.84864 0
M  V30 7495 H 714.928 0.119584 4.23831 0
M  V30 7496 C 713.387 -0.969158 3.22659 0
M  V30 7497 O 713.917 -2.04386 3.45817 0
M  V30 7498 N 712.123 -0.902516 2.7623 0
M  V30 7499 H 711.67 -0.027801 2.57585 0
M  V30 7500 H 711.628 -1.75649 2.60758 0
M  V30 7501 N 715.4 -1.26948 0.933913 0
M  V30 7502 C 716.677 -1.89212 0.495784 0
M  V30 7503 C 717.057 -1.84469 -1.02637 0
M  V30 7504 O 716.405 -1.29409 -1.88323 0
M  V30 7505 C 716.615 -3.32865 1.0489 0
M  V30 7506 C 717.963 -4.09749 1.11315 0
M  V30 7507 O 718.987 -3.41905 0.998966 0
M  V30 7508 O 717.846 -5.31061 1.28983 0
M  V30 7509 H 714.94 -0.811284 0.160459 0
M  V30 7510 H 717.486 -1.35171 1.02601 0
M  V30 7511 H 716.258 -3.30642 2.09265 0
M  V30 7512 H 715.881 -3.94435 0.500692 0
M  V30 7513 N 716.879 -0.700114 -1.41195 0
M  V30 7514 C 718.125 -0.233351 -2.01453 0
M  V30 7515 C 718.458 1.16548 -1.55339 0
M  V30 7516 O 717.733 1.78756 -0.766575 0
M  V30 7517 C 718.016 -0.2961 -3.58881 0
M  V30 7518 C 717.869 -1.7322 -4.15108 0
M  V30 7519 C 719.188 0.341525 -4.38773 0
M  V30 7520 H 716.307 -0.0862667 -0.731934 0
M  V30 7521 H 718.949 -0.889693 -1.67882 0
M  V30 7522 H 717.099 0.262736 -3.87611 0
M  V30 7523 H 718.771 -2.34523 -3.97236 0
M  V30 7524 H 717.014 -2.2649 -3.69979 0
M  V30 7525 H 717.685 -1.7276 -5.24269 0
M  V30 7526 H 720.161 -0.134461 -4.15883 0
M  V30 7527 H 719.037 0.267098 -5.4825 0
M  V30 7528 H 719.298 1.42289 -4.18577 0
M  V30 7529 N 718.357 1.51182 -0.445186 0
M  V30 7530 C 719.287 2.30821 0.352686 0
M  V30 7531 C 720.268 1.36576 1.01395 0
M  V30 7532 O 721.453 1.65497 1.01609 0
M  V30 7533 C 718.583 3.15593 1.44976 0
M  V30 7534 C 717.537 4.1818 0.911553 0
M  V30 7535 C 716.863 4.91523 2.10497 0
M  V30 7536 C 718.163 5.22266 -0.059418 0
M  V30 7537 H 719.857 2.97771 -0.311936 0
M  V30 7538 H 717.403 1.43201 -0.151461 0
M  V30 7539 H 719.356 3.70091 2.01521 0
M  V30 7540 H 718.08 2.4648 2.14278 0
M  V30 7541 H 716.739 3.64746 0.368264 0
M  V30 7542 H 716.387 4.18906 2.78437 0
M  V30 7543 H 716.087 5.60898 1.7512 0
M  V30 7544 H 717.611 5.48847 2.6758 0
M  V30 7545 H 719.025 5.71789 0.415985 0
M  V30 7546 H 717.422 5.99213 -0.326152 0
M  V30 7547 H 718.492 4.7461 -0.993631 0
M  V30 7548 N 719.835 0.176821 1.56605 0
M  V30 7549 C 721.083 -0.465793 1.96659 0
M  V30 7550 C 721.404 -1.63406 1.06412 0
M  V30 7551 O 720.674 -1.95457 0.131603 0
M  V30 7552 H 719.254 -0.175072 0.726195 0
M  V30 7553 H 721.916 0.25929 1.93168 0
M  V30 7554 H 721.012 -0.822138 3.01077 0
M  V30 7555 N 721.313 -1.57302 -0.09688 0
M  V30 7556 C 722.561 -1.8563 -0.799117 0
M  V30 7557 C 722.882 -0.765263 -1.79356 0
M  V30 7558 O 722.152 0.208657 -1.94786 0
M  V30 7559 H 720.732 -0.684937 -0.298111 0
M  V30 7560 H 723.394 -1.9474 -0.0789341 0
M  V30 7561 H 722.49 -2.82305 -1.3308 0
M  V30 7562 N 722.791 0.367657 -1.53252 0
M  V30 7563 C 724.04 1.10782 -1.68554 0
M  V30 7564 C 724.353 1.90523 -0.442765 0
M  V30 7565 O 725.559 2.6729 -0.47629 0
M  V30 7566 C 724.015 2.01863 -2.97959 0
M  V30 7567 C 723.623 1.27443 -4.29491 0
M  V30 7568 C 725.367 2.75883 -3.22628 0
M  V30 7569 C 723.274 2.17414 -5.49987 0
M  V30 7570 H 722.204 0.417272 -0.628013 0
M  V30 7571 H 724.855 0.368971 -1.79752 0
M  V30 7572 H 723.237 2.7947 -2.80558 0
M  V30 7573 H 724.411 0.549138 -4.57516 0
M  V30 7574 H 722.726 0.652935 -4.11249 0
M  V30 7575 H 725.323 3.43421 -4.09837 0
M  V30 7576 H 725.666 3.41138 -2.38601 0
M  V30 7577 H 726.199 2.0536 -3.40693 0
M  V30 7578 H 722.938 1.5674 -6.36485 0
M  V30 7579 H 722.458 2.87799 -5.26243 0
M  V30 7580 H 724.137 2.77019 -5.84696 0
M  V30 7581 N 724.269 1.44576 0.627338 0
M  V30 7582 C 725.199 1.54562 1.75022 0
M  V30 7583 C 726.18 0.398378 1.65369 0
M  V30 7584 O 727.365 0.61899 1.84071 0
M  V30 7585 C 724.495 1.49309 3.13567 0
M  V30 7586 C 723.449 2.62549 3.38012 0
M  V30 7587 C 722.775 2.42348 4.76625 0
M  V30 7588 C 724.075 4.04678 3.30202 0
M  V30 7589 H 725.769 2.4855 1.66922 0
M  V30 7590 H 723.315 1.19624 0.801636 0
M  V30 7591 H 725.268 1.54895 3.919 0
M  V30 7592 H 723.992 0.518392 3.2246 0
M  V30 7593 H 722.651 2.56358 2.62061 0
M  V30 7594 H 722.299 1.43062 4.82226 0
M  V30 7595 H 721.999 3.18273 4.93939 0
M  V30 7596 H 723.523 2.49758 5.57183 0
M  V30 7597 H 724.937 4.12217 3.98435 0
M  V30 7598 H 723.334 4.80836 3.5905 0
M  V30 7599 H 724.404 4.2798 2.27949 0
M  V30 7600 N 725.747 -0.868086 1.31537 0
M  V30 7601 C 726.695 -1.99688 1.1928 0
M  V30 7602 C 727.689 -1.69101 0.100656 0
M  V30 7603 O 728.895 -1.78073 0.262677 0
M  V30 7604 H 725.27 -0.655032 0.369374 0
M  V30 7605 H 727.241 -2.07157 2.14776 0
M  V30 7606 C 725.99 -3.35338 0.918892 0
M  V30 7607 H 725.313 -3.59396 1.75142 0
M  V30 7608 H 726.753 -4.14909 0.873311 0
M  V30 7609 C 725.212 -3.34769 -0.378366 0
M  V30 7610 O 725.742 -3.76716 -1.39456 0
M  V30 7611 N 723.948 -2.87895 -0.39557 0
M  V30 7612 H 723.495 -2.53954 0.431889 0
M  V30 7613 H 723.453 -2.87897 -1.26344 0
M  V30 7614 N 727.225 -1.14528 -1.08264 0
M  V30 7615 C 728.473 -0.912599 -1.80322 0
M  V30 7616 C 728.794 0.562256 -1.86718 0
M  V30 7617 O 728.064 1.40869 -1.36135 0
M  V30 7618 H 726.644 -0.334645 -0.667849 0
M  V30 7619 H 729.306 -1.44415 -1.30883 0
M  V30 7620 H 728.402 -1.31384 -2.83098 0
M  V30 7621 N 728.703 1.26451 -0.940633 0
M  V30 7622 C 729.651 2.28389 -0.440581 0
M  V30 7623 C 730.645 1.62402 0.481859 0
M  V30 7624 O 731.851 1.76361 0.360132 0
M  V30 7625 H 728.226 0.741716 -0.123938 0
M  V30 7626 H 730.197 2.67967 -1.31288 0
M  V30 7627 C 728.946 3.46576 0.279364 0
M  V30 7628 H 728.269 3.97574 -0.421274 0
M  V30 7629 H 729.709 4.19826 0.59348 0
M  V30 7630 C 728.168 3.01815 1.49697 0
M  V30 7631 O 728.698 3.06607 2.59529 0
M  V30 7632 N 726.904 2.57163 1.35334 0
M  V30 7633 H 726.451 2.53464 0.459743 0
M  V30 7634 H 726.409 2.27578 2.16923 0
M  V30 7635 N 730.181 0.707592 1.40822 0
M  V30 7636 C 731.409 0.253073 2.05346 0
M  V30 7637 C 731.824 -1.10218 1.53289 0
M  V30 7638 O 731.181 -1.69112 0.686105 0
M  V30 7639 C 731.232 0.215411 3.60858 0
M  V30 7640 O 730.953 1.51714 4.10992 0
M  V30 7641 C 732.454 -0.258636 4.42545 0
M  V30 7642 H 729.674 0.115256 0.661027 0
M  V30 7643 H 732.218 0.963555 1.80377 0
M  V30 7644 H 730.373 -0.445978 3.84824 0
M  V30 7645 H 730.787 1.41226 5.05129 0
M  V30 7646 H 732.261 -0.233849 5.51504 0
M  V30 7647 H 732.738 -1.2995 4.19535 0
M  V30 7648 H 733.344 0.372186 4.23668 0
M  V30 7649 N 731.66 -1.50943 0.453197 0
M  V30 7650 C 732.59 -2.31005 -0.34044 0
M  V30 7651 C 733.571 -1.37112 -1.00669 0
M  V30 7652 O 734.756 -1.66033 -1.0073 0
M  V30 7653 C 731.886 -3.16358 -1.433 0
M  V30 7654 C 730.84 -4.18658 -0.889363 0
M  V30 7655 C 730.166 -4.92633 -2.07887 0
M  V30 7656 C 731.466 -5.22227 0.0871142 0
M  V30 7657 H 733.16 -2.97601 0.327723 0
M  V30 7658 H 730.706 -1.43119 0.159054 0
M  V30 7659 H 732.659 -3.71155 -1.99555 0
M  V30 7660 H 731.383 -2.47613 -2.12968 0
M  V30 7661 H 730.042 -3.64936 -0.348915 0
M  V30 7662 H 729.69 -4.20376 -2.76211 0
M  V30 7663 H 729.39 -5.61819 -1.72143 0
M  V30 7664 H 730.914 -5.50258 -2.64666 0
M  V30 7665 H 732.328 -5.72001 -0.385656 0
M  V30 7666 H 730.725 -5.99032 0.357926 0
M  V30 7667 H 731.795 -4.74077 1.01879 0
M  V30 7668 N 733.138 -0.185124 -1.56509 0
M  V30 7669 C 734.366 0.462139 -2.01673 0
M  V30 7670 C 734.781 1.55873 -1.06532 0
M  V30 7671 O 734.138 1.82371 -0.0684805 0
M  V30 7672 C 734.189 1.0277 -3.46584 0
M  V30 7673 O 733.91 -0.0251296 -4.38093 0
M  V30 7674 C 735.411 1.75183 -4.07217 0
M  V30 7675 H 732.631 0.117001 -0.660721 0
M  V30 7676 H 735.175 -0.290905 -2.0242 0
M  V30 7677 H 733.33 1.73118 -3.46568 0
M  V30 7678 H 733.744 0.394387 -5.23015 0
M  V30 7679 H 735.218 2.09999 -5.10494 0
M  V30 7680 H 735.695 2.6519 -3.50101 0
M  V30 7681 H 736.301 1.09445 -4.10977 0
M  V30 7682 N 734.616 1.57351 0.0885366 0
M  V30 7683 C 735.862 1.86696 0.791996 0
M  V30 7684 C 736.195 0.775148 1.78059 0
M  V30 7685 O 735.47 -0.216247 1.93294 0
M  V30 7686 C 735.753 3.26684 1.51491 0
M  V30 7687 C 735.606 4.465 0.543858 0
M  V30 7688 C 736.925 3.64664 2.46391 0
M  V30 7689 H 734.044 0.679049 0.286463 0
M  V30 7690 H 736.686 1.89919 0.0554866 0
M  V30 7691 H 734.836 3.24067 2.14273 0
M  V30 7692 H 736.508 4.61235 -0.0774597 0
M  V30 7693 H 734.751 4.33567 -0.142228 0
M  V30 7694 H 735.422 5.41192 1.08696 0
M  V30 7695 H 737.898 3.68267 1.93698 0
M  V30 7696 H 736.774 4.63534 2.93986 0
M  V30 7697 H 737.035 2.93698 3.30445 0
M  V30 7698 N 736.094 -0.359525 1.53444 0
M  V30 7699 C 737.342 -1.09935 1.69584 0
M  V30 7700 C 737.663 -1.89656 0.453371 0
M  V30 7701 O 736.933 -1.8852 -0.53263 0
M  V30 7702 H 735.513 -0.408843 0.625185 0
M  V30 7703 H 738.175 -0.40467 1.90653 0
M  V30 7704 H 737.271 -1.78575 2.55964 0
M  V30 7705 N 737.572 -1.44907 -0.619662 0
M  V30 7706 C 738.535 -1.52282 -1.71297 0
M  V30 7707 C 739.535 -0.40359 -1.55653 0
M  V30 7708 O 740.725 -0.666638 -1.6094 0
M  V30 7709 C 737.857 -1.40778 -3.10474 0
M  V30 7710 H 739.05 -2.49683 -1.66128 0
M  V30 7711 H 736.603 -1.32168 -0.834339 0
M  V30 7712 H 737.338 -0.445156 -3.2123 0
M  V30 7713 H 737.123 -2.21947 -3.23237 0
M  V30 7714 H 738.613 -1.48946 -3.90135 0
M  V30 7715 N 739.05 0.861098 -1.31996 0
M  V30 7716 C 740.298 1.61162 -1.21947 0
M  V30 7717 C 740.619 1.93751 0.220351 0
M  V30 7718 O 739.889 1.59069 1.14341 0
M  V30 7719 H 738.469 0.597485 -0.448353 0
M  V30 7720 H 741.131 1.03039 -1.65436 0
M  V30 7721 H 740.227 2.55138 -1.79752 0
M  V30 7722 N 740.528 1.15101 1.07655 0
M  V30 7723 C 741.776 0.922149 1.79836 0
M  V30 7724 C 742.097 -0.552346 1.87014 0
M  V30 7725 O 741.367 -1.40145 1.3688 0
M  V30 7726 H 739.947 0.338182 0.666064 0
M  V30 7727 H 742.609 1.45107 1.30115 0
M  V30 7728 H 741.705 1.32883 2.82398 0
M  V30 7729 N 742.006 -1.2595 0.947325 0
M  V30 7730 C 742.969 -2.24407 0.466285 0
M  V30 7731 C 743.969 -1.55054 -0.426005 0
M  V30 7732 O 745.159 -1.7275 -0.224319 0
M  V30 7733 C 742.291 -3.39326 -0.327201 0
M  V30 7734 H 743.484 -2.68477 1.33642 0
M  V30 7735 H 741.037 -1.38211 0.729887 0
M  V30 7736 H 741.772 -3.00667 -1.21532 0
M  V30 7737 H 741.557 -3.9085 0.312839 0
M  V30 7738 H 743.047 -4.12455 -0.653477 0
M  V30 7739 N 743.484 -0.715051 -1.40445 0
M  V30 7740 C 744.447 -0.0708726 -2.2909 0
M  V30 7741 C 745.447 0.687926 -1.45342 0
M  V30 7742 O 746.637 0.519908 -1.66261 0
M  V30 7743 C 743.769 0.909528 -3.28543 0
M  V30 7744 H 744.962 -0.851611 -2.87555 0
M  V30 7745 H 742.515 -0.479674 -1.48758 0
M  V30 7746 H 743.25 1.71734 -2.75096 0
M  V30 7747 H 743.035 0.368318 -3.90366 0
M  V30 7748 H 744.525 1.35744 -3.94922 0
M  V30 7749 N 744.962 1.50701 -0.461195 0
M  V30 7750 C 746.187 2.07171 0.0974773 0
M  V30 7751 C 746.612 1.32391 1.3362 0
M  V30 7752 O 745.97 0.368676 1.77512 0
M  V30 7753 C 746.018 3.58651 0.374409 0
M  V30 7754 O 745.122 3.85816 1.4567 0
M  V30 7755 H 744.463 0.663944 -0.00862047 0
M  V30 7756 H 746.993 1.94021 -0.649394 0
M  V30 7757 H 747.003 4.03295 0.617843 0
M  V30 7758 H 745.678 4.12498 -0.530829 0
M  V30 7759 H 744.255 3.53018 1.20136 0
M  V30 7760 N 746.441 0.193421 1.56409 0
M  V30 7761 C 747.389 -0.744829 2.20352 0
M  V30 7762 C 748.383 -1.22104 1.17418 0
M  V30 7763 O 749.589 -1.18413 1.35567 0
M  V30 7764 H 745.964 -0.258538 0.70616 0
M  V30 7765 H 747.935 -0.181794 2.97846 0
M  V30 7766 C 746.684 -1.95453 2.87565 0
M  V30 7767 H 746.007 -1.59716 3.66512 0
M  V30 7768 H 747.447 -2.58942 3.35745 0
M  V30 7769 C 745.906 -2.79223 1.8851 0
M  V30 7770 O 746.436 -3.77093 1.38434 0
M  V30 7771 N 744.642 -2.44682 1.56777 0
M  V30 7772 H 744.189 -1.65153 1.97692 0
M  V30 7773 H 744.147 -3.01016 0.907573 0
M  V30 7774 N 747.919 -1.57396 -0.0801906 0
M  V30 7775 C 749.166 -1.86836 -0.780927 0
M  V30 7776 C 749.494 -0.784012 -1.77999 0
M  V30 7777 O 748.749 0.220881 -1.94449 0
M  V30 7778 C 749.048 -3.22915 -1.53169 0
M  V30 7779 C 748.714 -4.45843 -0.67339 0
M  V30 7780 C 747.376 -4.79213 -0.436829 0
M  V30 7781 C 749.728 -5.21142 -0.0776786 0
M  V30 7782 C 747.056 -5.853 0.405062 0
M  V30 7783 C 749.408 -6.28119 0.751619 0
M  V30 7784 C 748.072 -6.59995 0.998131 0
M  V30 7785 H 747.342 -0.683682 -0.285761 0
M  V30 7786 H 749.989 -1.91454 -0.0419435 0
M  V30 7787 H 748.294 -3.14049 -2.34265 0
M  V30 7788 H 749.991 -3.42926 -2.07853 0
M  V30 7789 H 746.581 -4.19721 -0.867891 0
M  V30 7790 H 750.765 -4.95682 -0.247572 0
M  V30 7791 H 746.021 -6.084 0.60488 0
M  V30 7792 H 750.195 -6.8563 1.22 0
M  V30 7793 H 747.822 -7.42027 1.65227 0
M  V30 7794 N 749.397 0.351382 -1.53633 0
M  V30 7795 C 750.625 1.11275 -1.74429 0
M  V30 7796 C 751.04 1.82602 -0.479798 0
M  V30 7797 O 750.397 1.74074 0.548125 0
M  V30 7798 C 750.448 2.13223 -2.91921 0
M  V30 7799 O 750.169 1.44798 -4.13479 0
M  V30 7800 C 751.67 3.01797 -3.24706 0
M  V30 7801 H 748.89 0.332153 -0.583023 0
M  V30 7802 H 751.434 0.405974 -2.0043 0
M  V30 7803 H 749.589 2.79477 -2.68274 0
M  V30 7804 H 750.003 2.12839 -4.79374 0
M  V30 7805 H 751.477 3.69282 -4.10286 0
M  V30 7806 H 751.954 3.67387 -2.40673 0
M  V30 7807 H 752.56 2.41141 -3.5033 0
M  V30 7808 N 750.875 1.45233 0.611969 0
M  V30 7809 C 751.805 1.5641 1.73373 0
M  V30 7810 C 752.786 0.415896 1.64937 0
M  V30 7811 O 753.971 0.638478 1.83404 0
M  V30 7812 C 751.101 1.52627 3.11965 0
M  V30 7813 C 750.055 2.66119 3.35208 0
M  V30 7814 C 749.381 2.4739 4.74028 0
M  V30 7815 C 750.681 4.08157 3.25891 0
M  V30 7816 H 752.375 2.50307 1.64277 0
M  V30 7817 H 749.921 1.20467 0.788904 0
M  V30 7818 H 751.874 1.59043 3.90235 0
M  V30 7819 H 750.598 0.552564 3.21892 0
M  V30 7820 H 749.257 2.59123 2.59327 0
M  V30 7821 H 748.905 1.48168 4.80682 0
M  V30 7822 H 748.605 3.23494 4.90536 0
M  V30 7823 H 750.129 2.55653 5.54503 0
M  V30 7824 H 751.543 4.1642 3.9404 0
M  V30 7825 H 749.94 4.84617 3.5393 0
M  V30 7826 H 751.01 4.30374 2.23397 0
M  V30 7827 N 752.353 -0.854086 1.3245 0
M  V30 7828 C 753.316 -1.94427 1.21371 0
M  V30 7829 C 754.316 -1.60219 0.136613 0
M  V30 7830 O 755.506 -1.69846 0.387057 0
M  V30 7831 C 752.638 -3.29698 0.866701 0
M  V30 7832 H 753.831 -2.05679 2.18257 0
M  V30 7833 H 751.384 -1.04434 1.1629 0
M  V30 7834 H 752.119 -3.24145 -0.100319 0
M  V30 7835 H 751.904 -3.55903 1.64545 0
M  V30 7836 H 753.394 -4.09599 0.813515 0
M  V30 7837 N 753.831 -1.1567 -1.07043 0
M  V30 7838 C 755.242 -0.942408 -1.61169 0
M  V30 7839 C 755.593 0.515537 -1.89306 0
M  V30 7840 O 754.718 1.38726 -1.66084 0
M  V30 7841 C 755.313 -1.70431 -2.92812 0
M  V30 7842 C 753.872 -1.53521 -3.43669 0
M  V30 7843 C 753.019 -1.7179 -2.17678 0
M  V30 7844 H 755.97 -1.3065 -0.9009 0
M  V30 7845 H 755.991 -1.17566 -3.61882 0
M  V30 7846 H 755.503 -2.76538 -2.72302 0
M  V30 7847 H 753.604 -0.498224 -3.69254 0
M  V30 7848 H 753.717 -2.31422 -4.19501 0
M  V30 7849 H 752.081 -1.14468 -2.27529 0
M  V30 7850 H 752.864 -2.79269 -1.99659 0
M  V30 7851 N 755.309 1.25446 -0.953992 0
M  V30 7852 C 756.557 1.92762 -0.607227 0
M  V30 7853 C 756.878 1.7509 0.858399 0
M  V30 7854 O 756.148 1.11416 1.61132 0
M  V30 7855 H 754.728 0.713377 -0.221591 0
M  V30 7856 H 757.39 1.52625 -1.21209 0
M  V30 7857 H 756.486 3.00695 -0.835998 0
M  V30 7858 N 756.787 0.722489 1.40064 0
M  V30 7859 C 758.035 0.264455 2.00362 0
M  V30 7860 C 758.356 -1.14847 1.57592 0
M  V30 7861 O 757.626 -1.77982 0.818477 0
M  V30 7862 H 756.206 0.0947846 0.740962 0
M  V30 7863 H 758.868 0.929659 1.71299 0
M  V30 7864 H 757.964 0.302977 3.10626 0
M  V30 7865 N 758.265 -1.50454 0.469181 0
M  V30 7866 C 759.493 -2.06729 -0.0842134 0
M  V30 7867 C 759.908 -1.33326 -1.33677 0
M  V30 7868 O 759.265 -0.401977 -1.78018 0
M  V30 7869 C 759.316 -3.59557 -0.374253 0
M  V30 7870 O 759.037 -4.30192 0.828622 0
M  V30 7871 C 760.538 -4.32449 -0.974824 0
M  V30 7872 H 757.758 -0.670971 0.006231 0
M  V30 7873 H 760.302 -1.93645 0.657415 0
M  V30 7874 H 758.457 -3.7245 -1.06581 0
M  V30 7875 H 758.871 -5.21371 0.572066 0
M  V30 7876 H 760.345 -5.40361 -1.12755 0
M  V30 7877 H 760.822 -3.92819 -1.96442 0
M  V30 7878 H 761.428 -4.24082 -0.321703 0
M  V30 7879 N 759.743 -0.201713 -1.56304 0
M  V30 7880 C 760.706 0.702811 -2.18159 0
M  V30 7881 C 761.706 1.13619 -1.13787 0
M  V30 7882 O 762.896 1.0482 -1.39134 0
M  V30 7883 C 760.028 1.96032 -2.78898 0
M  V30 7884 H 761.221 0.163836 -2.99452 0
M  V30 7885 H 758.774 0.04791 -1.56227 0
M  V30 7886 H 759.509 2.54165 -2.01421 0
M  V30 7887 H 759.294 1.65824 -3.55309 0
M  V30 7888 H 760.784 2.60519 -3.26373 0
M  V30 7889 N 761.222 1.57436 0.0718424 0
M  V30 7890 C 762.468 1.87525 0.772149 0
M  V30 7891 C 762.801 0.79399 1.77227 0
M  V30 7892 O 762.076 -0.195733 1.93513 0
M  V30 7893 C 762.359 3.28272 1.48018 0
M  V30 7894 C 762.212 4.47052 0.49647 0
M  V30 7895 C 763.531 3.67256 2.42509 0
M  V30 7896 H 760.65 0.682049 0.279245 0
M  V30 7897 H 763.292 1.89967 0.03534 0
M  V30 7898 H 761.442 3.26321 2.10824 0
M  V30 7899 H 763.114 4.61127 -0.126375 0
M  V30 7900 H 761.357 4.33392 -0.188205 0
M  V30 7901 H 762.028 5.42315 1.02949 0
M  V30 7902 H 764.504 3.70301 1.89781 0
M  V30 7903 H 763.38 4.66626 2.89053 0
M  V30 7904 H 763.641 2.97186 3.27312 0
M  V30 7905 N 762.7 -0.34323 1.53817 0
M  V30 7906 C 763.946 -1.08137 1.72273 0
M  V30 7907 C 764.301 -1.86311 0.480201 0
M  V30 7908 O 763.594 -1.84204 -0.527192 0
M  V30 7909 C 763.788 -2.05195 2.92626 0
M  V30 7910 C 763.617 -1.36561 4.28464 0
M  V30 7911 C 762.387 -1.11033 4.9295 0
M  V30 7912 C 764.585 -0.791663 5.0817 0
M  V30 7913 N 762.567 -0.389839 6.12661 0
M  V30 7914 C 763.938 -0.201742 6.19672 0
M  V30 7915 C 765.993 -0.692541 4.9306 0
M  V30 7916 C 764.696 0.477661 7.17712 0
M  V30 7917 C 766.722 -0.0268775 5.91394 0
M  V30 7918 C 766.084 0.552072 7.02233 0
M  V30 7919 H 762.183 -0.380078 0.683421 0
M  V30 7920 H 764.767 -0.364925 1.9125 0
M  V30 7921 H 762.938 -2.74131 2.75149 0
M  V30 7922 H 764.67 -2.7185 2.99799 0
M  V30 7923 H 761.425 -1.39752 4.52511 0
M  V30 7924 H 761.849 -0.0443076 6.76986 0
M  V30 7925 H 766.491 -1.12589 4.07534 0
M  V30 7926 H 764.209 0.922895 8.02813 0
M  V30 7927 H 767.795 0.0491921 5.81779 0
M  V30 7928 H 766.675 1.05899 7.77017 0
M  V30 7929 N 764.178 -1.45556 -0.604258 0
M  V30 7930 C 765.11 -1.50494 -1.72871 0
M  V30 7931 C 766.123 -0.395368 -1.57926 0
M  V30 7932 O 767.312 -0.662603 -1.65746 0
M  V30 7933 C 764.412 -1.34874 -3.10906 0
M  V30 7934 C 763.585 -2.59564 -3.52058 0
M  V30 7935 C 762.644 -2.38453 -4.6907 0
M  V30 7936 O 761.67 -3.12082 -4.76018 0
M  V30 7937 N 762.872 -1.43229 -5.62553 0
M  V30 7938 H 765.637 -2.4744 -1.69097 0
M  V30 7939 H 763.198 -1.41338 -0.789636 0
M  V30 7940 H 765.19 -1.18556 -3.86945 0
M  V30 7941 H 763.76 -0.461913 -3.09168 0
M  V30 7942 H 762.98 -2.90974 -2.65946 0
M  V30 7943 H 764.268 -3.42441 -3.76313 0
M  V30 7944 H 763.666 -0.824714 -5.59656 0
M  V30 7945 H 762.223 -1.32882 -6.38111 0
M  V30 7946 N 765.656 0.84705 -1.32902 0
M  V30 7947 C 766.886 1.63166 -1.26729 0
M  V30 7948 C 767.294 1.88474 0.165595 0
M  V30 7949 O 766.637 1.45947 1.11558 0
M  V30 7950 C 766.699 3.0103 -1.96522 0
M  V30 7951 C 766.363 2.9873 -3.45846 0
M  V30 7952 C 767.36 2.75032 -4.41196 0
M  V30 7953 C 765.045 3.19125 -3.87898 0
M  V30 7954 C 767.039 2.71743 -5.76571 0
M  V30 7955 C 764.726 3.15462 -5.2338 0
M  V30 7956 C 765.724 2.91801 -6.17528 0
M  V30 7957 O 765.412 2.88027 -7.5053 0
M  V30 7958 H 765.144 0.51469 -0.438258 0
M  V30 7959 H 767.698 1.06383 -1.75704 0
M  V30 7960 H 765.928 3.59634 -1.42128 0
M  V30 7961 H 767.617 3.61821 -1.83958 0
M  V30 7962 H 768.383 2.59034 -4.10032 0
M  V30 7963 H 764.262 3.36565 -3.15032 0
M  V30 7964 H 767.806 2.53194 -6.5003 0
M  V30 7965 H 763.703 3.31006 -5.54171 0
M  V30 7966 H 764.471 3.03927 -7.59981 0
M  V30 7967 N 767.134 1.16236 1.06428 0
M  V30 7968 C 768.362 0.967184 1.82902 0
M  V30 7969 C 768.777 -0.484601 1.82475 0
M  V30 7970 O 768.134 -1.33631 1.24294 0
M  V30 7971 C 768.185 1.48534 3.29576 0
M  V30 7972 O 767.906 2.88026 3.3011 0
M  V30 7973 C 769.407 1.33298 4.22784 0
M  V30 7974 H 766.627 0.342923 0.576754 0
M  V30 7975 H 769.171 1.54232 1.34286 0
M  V30 7976 H 767.326 0.952513 3.75508 0
M  V30 7977 H 767.74 3.11721 4.21818 0
M  V30 7978 H 769.214 1.74385 5.23731 0
M  V30 7979 H 769.691 0.278356 4.38317 0
M  V30 7980 H 770.297 1.85535 3.82697 0
M  V30 7981 N 768.612 -1.24939 0.960631 0
M  V30 7982 C 769.84 -1.96881 0.636045 0
M  V30 7983 C 770.255 -1.71334 -0.793093 0
M  V30 7984 O 769.612 -0.992917 -1.53125 0
M  V30 7985 C 769.663 -3.50309 0.892533 0
M  V30 7986 O 769.384 -3.74977 2.26548 0
M  V30 7987 C 770.885 -4.39474 0.581159 0
M  V30 7988 H 768.105 -0.627399 0.237931 0
M  V30 7989 H 770.649 -1.58952 1.28664 0
M  V30 7990 H 768.804 -3.86326 0.288257 0
M  V30 7991 H 769.218 -4.69401 2.34014 0
M  V30 7992 H 770.692 -5.46008 0.811125 0
M  V30 7993 H 771.169 -4.3652 -0.48443 0
M  V30 7994 H 771.775 -4.09032 1.16502 0
M  V30 7995 N 770.09 -0.729906 -1.39679 0
M  V30 7996 C 771.367 -0.202149 -1.94553 0
M  V30 7997 C 771.747 1.29507 -1.66707 0
M  V30 7998 O 771.095 2.05819 -0.992517 0
M  V30 7999 C 771.305 -0.530279 -3.44948 0
M  V30 8000 C 772.653 -0.476808 -4.21914 0
M  V30 8001 O 773.677 -0.467171 -3.53123 0
M  V30 8002 O 772.536 -0.466869 -5.44502 0
M  V30 8003 H 769.63 -0.0351644 -0.826252 0
M  V30 8004 H 772.176 -0.808417 -1.49207 0
M  V30 8005 H 770.948 -1.56526 -3.5863 0
M  V30 8006 H 770.571 0.10522 -3.97461 0
M  V30 8007 N 771.568 1.50203 -0.477153 0
M  V30 8008 C 772.531 2.27194 0.302599 0
M  V30 8009 C 773.531 1.32221 0.915112 0
M  V30 8010 O 774.721 1.55593 0.783348 0
M  V30 8011 C 771.853 3.0938 1.43167 0
M  V30 8012 H 773.046 2.97575 -0.372678 0
M  V30 8013 H 770.599 1.54578 -0.231392 0
M  V30 8014 H 771.334 2.43509 2.14182 0
M  V30 8015 H 771.119 3.79181 0.998197 0
M  V30 8016 H 772.609 3.67592 1.98157 0
M  V30 8017 N 773.046 0.209999 1.56195 0
M  V30 8018 C 774.274 -0.429996 2.02382 0
M  V30 8019 C 774.689 -1.54159 1.08998 0
M  V30 8020 O 774.046 -1.82239 0.0974856 0
M  V30 8021 C 774.097 -0.972433 3.48175 0
M  V30 8022 O 773.818 0.0948231 4.37997 0
M  V30 8023 C 775.319 -1.68683 4.09952 0
M  V30 8024 H 772.539 -0.106475 0.662498 0
M  V30 8025 H 775.083 0.323072 2.01932 0
M  V30 8026 H 773.238 -1.67582 3.49278 0
M  V30 8027 H 773.652 -0.31113 5.23576 0
M  V30 8028 H 775.126 -2.01851 5.13771 0
M  V30 8029 H 775.603 -2.59587 3.54276 0
M  V30 8030 H 776.209 -1.02893 4.12666 0
M  V30 8031 N 774.524 -1.57472 -0.0634922 0
M  V30 8032 C 775.752 -1.91887 -0.773767 0
M  V30 8033 C 776.167 -0.806733 -1.70696 0
M  V30 8034 O 775.524 0.219383 -1.81177 0
M  V30 8035 C 775.575 -3.26092 -1.56034 0
M  V30 8036 O 775.296 -4.33029 -0.66464 0
M  V30 8037 C 776.797 -3.74573 -2.37087 0
M  V30 8038 H 774.017 -0.634074 -0.219525 0
M  V30 8039 H 776.561 -2.04476 -0.0312828 0
M  V30 8040 H 774.716 -3.15004 -2.25502 0
M  V30 8041 H 775.13 -5.10291 -1.21258 0
M  V30 8042 H 776.604 -4.71084 -2.87722 0
M  V30 8043 H 777.081 -3.04003 -3.16984 0
M  V30 8044 H 777.687 -3.88631 -1.72759 0
M  V30 8045 N 776.003 0.335068 -1.53997 0
M  V30 8046 C 777.414 0.910191 -1.6301 0
M  V30 8047 C 777.765 1.89271 -0.516809 0
M  V30 8048 O 776.89 2.13516 0.352123 0
M  V30 8049 C 777.485 1.65761 -2.9548 0
M  V30 8050 C 776.044 2.18163 -3.06728 0
M  V30 8051 C 775.191 1.00338 -2.5851 0
M  V30 8052 H 778.142 0.112965 -1.58297 0
M  V30 8053 H 778.163 2.52107 -2.84995 0
M  V30 8054 H 777.675 0.94227 -3.76488 0
M  V30 8055 H 775.776 2.92847 -2.30372 0
M  V30 8056 H 775.889 2.43952 -4.1234 0
M  V30 8057 H 774.253 1.37925 -2.14124 0
M  V30 8058 H 775.036 0.30254 -3.41964 0
M  V30 8059 N 777.481 1.45874 0.596531 0
M  V30 8060 C 778.73 1.49737 1.35135 0
M  V30 8061 C 779.043 0.147755 1.95041 0
M  V30 8062 O 780.249 0.0640984 2.71424 0
M  V30 8063 C 778.705 2.6378 2.44843 0
M  V30 8064 C 778.313 4.05102 1.91301 0
M  V30 8065 C 780.057 2.769 3.21755 0
M  V30 8066 C 777.964 5.10508 2.98557 0
M  V30 8067 H 776.894 0.557219 0.507959 0
M  V30 8068 H 779.545 1.72046 0.638147 0
M  V30 8069 H 777.927 2.34774 3.189 0
M  V30 8070 H 779.101 4.43836 1.2388 0
M  V30 8071 H 777.416 3.96528 1.271 0
M  V30 8072 H 780.013 3.52819 4.01775 0
M  V30 8073 H 780.356 1.83924 3.73467 0
M  V30 8074 H 780.889 3.05485 2.54802 0
M  V30 8075 H 777.628 6.0523 2.51749 0
M  V30 8076 H 777.148 4.76332 3.6451 0
M  V30 8077 H 778.827 5.35745 3.62748 0
M  V30 8078 N 778.959 -0.83999 1.33349 0
M  V30 8079 C 780.208 -1.59011 1.2409 0
M  V30 8080 C 780.521 -1.94655 -0.192029 0
M  V30 8081 O 781.727 -2.68438 -0.406617 0
M  V30 8082 C 780.183 -2.86801 2.17425 0
M  V30 8083 C 779.791 -2.58525 3.65881 0
M  V30 8084 C 781.535 -3.64823 2.17036 0
M  V30 8085 C 779.442 -3.82404 4.51133 0
M  V30 8086 H 778.372 -0.596731 0.460899 0
M  V30 8087 H 781.023 -0.926274 1.58406 0
M  V30 8088 H 779.405 -3.54719 1.7604 0
M  V30 8089 H 780.579 -1.98824 4.15699 0
M  V30 8090 H 778.894 -1.93808 3.68548 0
M  V30 8091 H 781.491 -4.56774 2.7796 0
M  V30 8092 H 781.834 -3.99663 1.16513 0
M  V30 8093 H 782.367 -3.03826 2.56777 0
M  V30 8094 H 779.106 -3.52696 5.52527 0
M  V30 8095 H 778.626 -4.41447 4.0606 0
M  V30 8096 H 780.305 -4.49995 4.6488 0
M  V30 8097 N 780.437 -1.16799 -1.0581 0
M  V30 8098 C 781.685 -0.950642 -1.78346 0
M  V30 8099 C 782.006 0.522524 -1.87869 0
M  V30 8100 O 781.276 1.3795 -1.39092 0
M  V30 8101 H 779.856 -0.348736 -0.6606 0
M  V30 8102 H 782.518 -1.47158 -1.27791 0
M  V30 8103 H 781.614 -1.37359 -2.80248 0
M  V30 8104 N 781.915 1.24427 -0.967243 0
M  V30 8105 C 782.863 2.27403 -0.488927 0
M  V30 8106 C 783.857 1.63388 0.447302 0
M  V30 8107 O 785.063 1.77085 0.322643 0
M  V30 8108 H 781.438 0.738921 -0.139643 0
M  V30 8109 H 783.409 2.65122 -1.36942 0
M  V30 8110 C 782.158 3.4709 0.205787 0
M  V30 8111 H 781.481 3.96591 -0.50551 0
M  V30 8112 H 782.921 4.2099 0.504296 0
M  V30 8113 C 781.38 3.04923 1.43261 0
M  V30 8114 O 781.91 3.12043 2.52967 0
M  V30 8115 N 780.116 2.59976 1.29849 0
M  V30 8116 H 779.663 2.54382 0.405876 0
M  V30 8117 H 779.621 2.32128 2.12047 0
M  V30 8118 N 783.393 0.737304 1.3929 0
M  V30 8119 C 784.639 0.286681 2.00763 0
M  V30 8120 C 784.972 -1.12388 1.58375 0
M  V30 8121 O 784.247 -1.76661 0.813699 0
M  V30 8122 C 784.53 0.391147 3.57969 0
M  V30 8123 C 784.383 1.84165 4.1037 0
M  V30 8124 C 785.702 -0.225072 4.39524 0
M  V30 8125 H 782.821 0.105642 0.729389 0
M  V30 8126 H 785.463 0.933892 1.65464 0
M  V30 8127 H 783.613 -0.159875 3.88171 0
M  V30 8128 H 785.285 2.44972 3.90879 0
M  V30 8129 H 783.528 2.3622 3.63844 0
M  V30 8130 H 784.199 1.866 5.19504 0
M  V30 8131 H 786.675 0.244677 4.1538 0
M  V30 8132 H 785.551 -0.121646 5.48765 0
M  V30 8133 H 785.812 -1.31141 4.22202 0
M  V30 8134 N 784.871 -1.49948 0.485112 0
M  V30 8135 C 786.119 -2.01996 -0.0648775 0
M  V30 8136 C 786.44 -1.36819 -1.38945 0
M  V30 8137 O 785.71 -0.518163 -1.88923 0
M  V30 8138 H 784.29 -0.746513 -0.0269662 0
M  V30 8139 H 786.952 -1.84136 0.638733 0
M  V30 8140 H 786.048 -3.11418 -0.20617 0
M  V30 8141 N 786.349 -0.21828 -1.56081 0
M  V30 8142 C 787.76 0.290166 -1.84431 0
M  V30 8143 C 788.111 1.59712 -1.13958 0
M  V30 8144 O 787.236 2.12516 -0.40815 0
M  V30 8145 C 787.831 0.53325 -3.34577 0
M  V30 8146 C 786.39 0.986011 -3.63256 0
M  V30 8147 C 785.537 0.0472798 -2.7726 0
M  V30 8148 H 788.488 -0.441548 -1.52434 0
M  V30 8149 H 788.509 1.37967 -3.54606 0
M  V30 8150 H 788.021 -0.418137 -3.85841 0
M  V30 8151 H 786.122 1.95087 -3.17446 0
M  V30 8152 H 786.235 0.862684 -4.71269 0
M  V30 8153 H 784.599 0.553471 -2.48614 0
M  V30 8154 H 785.382 -0.898966 -3.31321 0
M  V30 8155 N 787.827 1.57504 0.0551401 0
M  V30 8156 C 788.76 2.00155 1.09604 0
M  V30 8157 C 789.738 0.881274 1.36647 0
M  V30 8158 O 790.922 1.14498 1.49742 0
M  V30 8159 C 788.049 2.35246 2.43674 0
M  V30 8160 C 787.095 3.57452 2.32659 0
M  V30 8161 S 787.928 5.07639 1.7048 0
M  V30 8162 C 789.084 5.45947 3.06093 0
M  V30 8163 H 789.317 2.88131 0.732635 0
M  V30 8164 H 786.85 1.52122 0.264252 0
M  V30 8165 H 788.808 2.56136 3.20787 0
M  V30 8166 H 787.469 1.47769 2.7717 0
M  V30 8167 H 786.662 3.79576 3.31569 0
M  V30 8168 H 786.264 3.36279 1.63685 0
M  V30 8169 H 788.556 5.45036 4.0242 0
M  V30 8170 H 789.499 6.4656 2.88732 0
M  V30 8171 H 789.907 4.73419 3.07466 0
M  V30 8172 N 789.305 -0.326896 1.54172 0
M  V30 8173 C 790.238 -1.42591 1.78166 0
M  V30 8174 C 791.216 -1.49837 0.631484 0
M  V30 8175 O 792.4 -1.67298 0.868544 0
M  V30 8176 C 789.527 -2.8071 1.89524 0
M  V30 8177 C 788.573 -2.91012 3.11792 0
M  V30 8178 S 789.406 -2.55763 4.70474 0
M  V30 8179 C 790.562 -3.9596 4.84733 0
M  V30 8180 H 790.795 -1.22024 2.71104 0
M  V30 8181 H 788.328 -0.523539 1.45253 0
M  V30 8182 H 790.286 -3.60276 1.96753 0
M  V30 8183 H 788.947 -2.98562 0.975696 0
M  V30 8184 H 788.14 -3.92258 3.16464 0
M  V30 8185 H 787.742 -2.19414 3.02876 0
M  V30 8186 H 790.034 -4.90676 4.67166 0
M  V30 8187 H 790.977 -3.96273 5.86833 0
M  V30 8188 H 791.385 -3.8476 4.13062 0
M  V30 8189 N 790.784 -1.46188 -0.588786 0
M  V30 8190 C 791.747 -1.55882 -1.68029 0
M  V30 8191 C 792.747 -0.436515 -1.54762 0
M  V30 8192 O 793.937 -0.700626 -1.59489 0
M  V30 8193 C 791.069 -1.47332 -3.07418 0
M  V30 8194 H 792.262 -2.5315 -1.60795 0
M  V30 8195 H 789.815 -1.33908 -0.806116 0
M  V30 8196 H 790.55 -0.513193 -3.20214 0
M  V30 8197 H 790.335 -2.28753 -3.18456 0
M  V30 8198 H 791.825 -1.57187 -3.86887 0
M  V30 8199 N 792.262 0.832906 -1.33792 0
M  V30 8200 C 793.209 1.94314 -1.24541 0
M  V30 8201 C 794.179 1.65646 -0.122753 0
M  V30 8202 O 795.364 1.88394 -0.30204 0
M  V30 8203 C 792.504 3.30395 -0.996641 0
M  V30 8204 C 791.617 3.71422 -2.20612 0
M  V30 8205 C 790.752 4.96401 -1.89101 0
M  V30 8206 C 789.791 5.2998 -3.06247 0
M  V30 8207 N 788.928 6.46137 -2.74685 0
M  V30 8208 H 793.768 2.01559 -2.19495 0
M  V30 8209 H 791.305 0.986243 -1.09141 0
M  V30 8210 H 793.263 4.08803 -0.832817 0
M  V30 8211 H 791.893 3.22691 -0.0838242 0
M  V30 8212 H 790.945 2.88488 -2.47949 0
M  V30 8213 H 792.257 3.92215 -3.0817 0
M  V30 8214 H 791.411 5.82572 -1.69396 0
M  V30 8215 H 790.15 4.7759 -0.987882 0
M  V30 8216 H 789.155 4.42312 -3.26559 0
M  V30 8217 H 790.38 5.50737 -3.97323 0
M  V30 8218 H 788.326 6.28801 -1.86938 0
M  V30 8219 H 788.243 6.67054 -3.55774 0
M  V30 8220 H 789.511 7.35403 -2.58461 0
M  V30 8221 N 793.74 1.17359 1.05189 0
M  V30 8222 C 795.151 0.96793 1.5965 0
M  V30 8223 C 795.502 -0.485355 1.90102 0
M  V30 8224 O 794.627 -1.36066 1.6827 0
M  V30 8225 C 795.222 1.75068 2.90063 0
M  V30 8226 C 793.781 1.58969 3.41183 0
M  V30 8227 C 792.928 1.75231 2.14917 0
M  V30 8228 H 795.879 1.32067 0.880001 0
M  V30 8229 H 795.9 1.23308 3.59966 0
M  V30 8230 H 795.412 2.80835 2.67868 0
M  V30 8231 H 793.513 0.556906 3.68415 0
M  V30 8232 H 793.626 2.38067 4.15766 0
M  V30 8233 H 791.99 1.18073 2.25679 0
M  V30 8234 H 792.773 2.8241 1.95191 0
M  V30 8235 N 795.218 -1.23913 0.973828 0
M  V30 8236 C 796.466 -1.91771 0.637817 0
M  V30 8237 C 796.787 -1.76434 -0.830435 0
M  V30 8238 O 796.057 -1.13965 -1.59339 0
M  V30 8239 H 794.637 -0.709761 0.232912 0
M  V30 8240 H 797.299 -1.50677 1.23622 0
M  V30 8241 H 796.395 -2.99327 0.883731 0
M  V30 8242 N 796.696 -0.74468 -1.38897 0
M  V30 8243 C 797.942 -0.297324 -2.00609 0
M  V30 8244 C 798.275 1.11547 -1.58968 0
M  V30 8245 O 797.55 1.76227 -0.823057 0
M  V30 8246 C 797.833 -0.410125 -3.57757 0
M  V30 8247 C 797.686 -1.86338 -4.09387 0
M  V30 8248 C 799.005 0.20176 -4.39637 0
M  V30 8249 H 796.124 -0.109509 -0.728819 0
M  V30 8250 H 798.766 -0.942653 -1.64967 0
M  V30 8251 H 796.916 0.139287 -3.8825 0
M  V30 8252 H 798.588 -2.47042 -3.89574 0
M  V30 8253 H 796.831 -2.38146 -3.62586 0
M  V30 8254 H 797.502 -1.89352 -5.18507 0
M  V30 8255 H 799.978 -0.266703 -4.15244 0
M  V30 8256 H 798.854 0.0925415 -5.48822 0
M  V30 8257 H 799.115 1.289 -4.22891 0
M  V30 8258 N 798.174 1.49689 -0.493057 0
M  V30 8259 C 799.402 2.06836 0.0513141 0
M  V30 8260 C 799.817 1.35436 1.31539 0
M  V30 8261 O 799.174 0.430248 1.77356 0
M  V30 8262 C 799.225 3.60107 0.317003 0
M  V30 8263 O 798.946 4.2882 -0.896957 0
M  V30 8264 C 800.447 4.33945 0.905902 0
M  V30 8265 H 797.667 0.670787 -0.0169048 0
M  V30 8266 H 800.211 1.92574 -0.688139 0
M  V30 8267 H 798.366 3.74099 1.00642 0
M  V30 8268 H 798.78 5.20395 -0.654939 0
M  V30 8269 H 800.254 5.42087 1.04144 0
M  V30 8270 H 800.731 3.95895 1.90168 0
M  V30 8271 H 801.337 4.2454 0.254195 0
M  V30 8272 N 799.652 0.226554 1.55963 0
M  V30 8273 C 800.901 -0.40417 1.97609 0
M  V30 8274 C 801.214 -1.60541 1.1174 0
M  V30 8275 O 802.42 -2.30598 1.43307 0
M  V30 8276 C 800.876 -0.770466 3.51556 0
M  V30 8277 C 800.484 0.408244 4.46136 0
M  V30 8278 C 802.228 -1.36651 4.01904 0
M  V30 8279 C 800.135 0.0192347 5.91397 0
M  V30 8280 H 799.065 -0.15478 0.737943 0
M  V30 8281 H 801.716 0.323558 1.80625 0
M  V30 8282 H 800.098 -1.55575 3.6416 0
M  V30 8283 H 801.272 1.18575 4.45283 0
M  V30 8284 H 799.587 0.917859 4.06158 0
M  V30 8285 H 802.184 -1.67055 5.07934 0
M  V30 8286 H 802.527 -2.28403 3.48049 0
M  V30 8287 H 803.06 -0.644556 3.92543 0
M  V30 8288 H 799.799 0.90336 6.49245 0
M  V30 8289 H 799.319 -0.722485 5.95433 0
M  V30 8290 H 800.998 -0.405711 6.45727 0
M  V30 8291 N 801.13 -1.57531 -0.0467866 0
M  V30 8292 C 802.358 -1.92696 -0.753371 0
M  V30 8293 C 802.773 -0.824792 -1.69831 0
M  V30 8294 O 802.13 0.200155 -1.81399 0
M  V30 8295 C 802.181 -3.27728 -1.52566 0
M  V30 8296 O 801.902 -4.3371 -0.618674 0
M  V30 8297 C 803.403 -3.77066 -2.33101 0
M  V30 8298 H 800.623 -0.636367 -0.212788 0
M  V30 8299 H 803.167 -2.04498 -0.00959361 0
M  V30 8300 H 801.322 -3.17378 -2.22148 0
M  V30 8301 H 801.736 -5.11548 -1.15839 0
M  V30 8302 H 803.21 -4.74109 -2.82709 0
M  V30 8303 H 803.687 -3.07348 -3.13741 0
M  V30 8304 H 804.293 -3.90442 -1.68628 0
M  V30 8305 N 802.608 0.318715 -1.54344 0
M  V30 8306 C 803.857 1.05363 -1.71993 0
M  V30 8307 C 804.17 1.89018 -0.503155 0
M  V30 8308 O 805.376 2.65639 -0.561085 0
M  V30 8309 C 803.832 1.92281 -3.0423 0
M  V30 8310 C 803.44 1.13715 -4.33328 0
M  V30 8311 C 805.184 2.65479 -3.31242 0
M  V30 8312 C 803.091 1.99806 -5.56625 0
M  V30 8313 H 802.021 0.397081 -0.64097 0
M  V30 8314 H 804.672 0.311598 -1.80835 0
M  V30 8315 H 803.054 2.70402 -2.89307 0
M  V30 8316 H 804.228 0.403305 -4.59032 0
M  V30 8317 H 802.543 0.521769 -4.13118 0
M  V30 8318 H 805.14 3.30209 -4.20555 0
M  V30 8319 H 805.483 3.33374 -2.49334 0
M  V30 8320 H 806.016 1.94417 -3.47054 0
M  V30 8321 H 802.755 1.36411 -6.41149 0
M  V30 8322 H 802.275 2.70911 -5.35133 0
M  V30 8323 H 803.954 2.58277 -5.93213 0
M  V30 8324 N 804.086 1.46499 0.581025 0
M  V30 8325 C 805.363 1.42372 1.34125 0
M  V30 8326 C 805.743 0.108073 2.10823 0
M  V30 8327 O 805.091 -0.910366 2.09582 0
M  V30 8328 C 805.301 2.65445 2.26583 0
M  V30 8329 C 806.649 3.11664 2.88359 0
M  V30 8330 O 807.673 2.66006 2.36896 0
M  V30 8331 O 806.532 3.90974 3.81839 0
M  V30 8332 H 803.626 0.566262 0.602724 0
M  V30 8333 H 806.172 1.58667 0.601903 0
M  V30 8334 H 804.944 3.52756 1.69348 0
M  V30 8335 H 804.567 2.51618 3.07854 0
M  V30 8336 N 805.565 -0.825799 1.34232 0
M  V30 8337 C 806.813 -1.57873 1.26177 0
M  V30 8338 C 807.134 -1.94267 -0.168904 0
M  V30 8339 O 806.404 -1.62045 -1.10084 0
M  V30 8340 H 804.984 -0.585388 0.464037 0
M  V30 8341 H 807.646 -0.986163 1.6811 0
M  V30 8342 H 806.742 -2.50283 1.86453 0
M  V30 8343 N 807.043 -1.17915 -1.04565 0
M  V30 8344 C 808.459 -0.927761 -1.29864 0
M  V30 8345 C 808.659 0.409536 -1.97294 0
M  V30 8346 O 807.715 1.14505 -2.25044 0
M  V30 8347 C 809.028 -2.08967 -2.16225 0
M  V30 8348 C 810.576 -2.12741 -2.29587 0
M  V30 8349 C 811.051 -3.28335 -3.19312 0
M  V30 8350 N 812.542 -3.28164 -3.26898 0
M  V30 8351 C 813.277 -4.14249 -3.96466 0
M  V30 8352 N 812.773 -5.10457 -4.68407 0
M  V30 8353 N 814.566 -4.02179 -3.92694 0
M  V30 8354 H 806.717 -2.03983 -0.592011 0
M  V30 8355 H 808.98 -0.891023 -0.323701 0
M  V30 8356 H 808.686 -3.05654 -1.73979 0
M  V30 8357 H 808.56 -2.04606 -3.16885 0
M  V30 8358 H 810.947 -1.16636 -2.71072 0
M  V30 8359 H 811.028 -2.21162 -1.28535 0
M  V30 8360 H 810.672 -4.2471 -2.78539 0
M  V30 8361 H 810.602 -3.17151 -4.20384 0
M  V30 8362 H 813.093 -2.58511 -2.75646 0
M  V30 8363 H 813.406 -5.72526 -5.1907 0
M  V30 8364 H 811.751 -5.14422 -4.67328 0
M  V30 8365 H 814.942 -3.26308 -3.3562 0
M  V30 8366 H 815.115 -4.69486 -4.4664 0
M  V30 8367 N 808.521 1.23394 -0.980386 0
M  V30 8368 C 809.769 1.91431 -0.647978 0
M  V30 8369 C 810.09 1.76871 0.821066 0
M  V30 8370 O 809.36 1.14808 1.58732 0
M  V30 8371 H 807.94 0.708516 -0.236673 0
M  V30 8372 H 810.602 1.50019 -1.2442 0
M  V30 8373 H 809.698 2.98854 -0.899592 0
M  V30 8374 N 809.999 0.752036 1.385 0
M  V30 8375 C 811.246 0.307503 2.00152 0
M  V30 8376 C 811.574 -1.11033 1.59693 0
M  V30 8377 O 810.829 -1.77455 0.825125 0
M  V30 8378 C 811.128 0.376155 3.55415 0
M  V30 8379 C 810.794 1.74942 4.15579 0
M  V30 8380 C 809.456 2.12525 4.31725 0
M  V30 8381 C 811.808 2.65031 4.48785 0
M  V30 8382 C 809.136 3.39671 4.78373 0
M  V30 8383 C 811.488 3.91567 4.96848 0
M  V30 8384 C 810.152 4.2922 5.11201 0
M  V30 8385 H 809.422 0.112523 0.732407 0
M  V30 8386 H 812.069 0.962213 1.65571 0
M  V30 8387 H 810.374 -0.362121 3.90123 0
M  V30 8388 H 812.071 0.0138065 4.00998 0
M  V30 8389 H 808.661 1.44726 4.03426 0
M  V30 8390 H 812.845 2.3726 4.35914 0
M  V30 8391 H 808.101 3.68765 4.8767 0
M  V30 8392 H 812.275 4.61517 5.21512 0
M  V30 8393 H 809.902 5.27805 5.47107 0
M  V30 8394 N 811.477 -1.49425 0.500989 0
M  V30 8395 C 812.725 -2.02053 -0.0434495 0
M  V30 8396 C 813.046 -1.38285 -1.37486 0
M  V30 8397 O 812.316 -0.538171 -1.88363 0
M  V30 8398 H 810.896 -0.746757 -0.0190469 0
M  V30 8399 H 813.558 -1.83449 0.658227 0
M  V30 8400 H 812.654 -3.11619 -0.173129 0
M  V30 8401 N 812.955 -0.234822 -1.55841 0
M  V30 8402 C 814.18 0.400741 -2.03492 0
M  V30 8403 C 814.605 1.51618 -1.11327 0
M  V30 8404 O 813.963 1.81002 -0.103922 0
M  V30 8405 C 814.011 0.897184 -3.49261 0
M  V30 8406 O 813.115 2.00764 -3.60233 0
M  V30 8407 H 812.456 0.0890023 -0.658008 0
M  V30 8408 H 814.986 -0.357345 -2.01455 0
M  V30 8409 H 814.996 1.20356 -3.89844 0
M  V30 8410 H 813.671 0.0808639 -4.15821 0
M  V30 8411 H 812.248 1.70689 -3.31541 0
M  V30 8412 N 814.433 1.57553 0.0384317 0
M  V30 8413 C 815.681 1.88468 0.729672 0
M  V30 8414 C 816.002 0.831302 1.76393 0
M  V30 8415 O 815.272 -0.13622 1.95426 0
M  V30 8416 H 813.852 0.695529 0.272485 0
M  V30 8417 H 816.514 1.94899 0.0066032 0
M  V30 8418 H 815.61 2.8705 1.22511 0
M  V30 8419 N 815.911 -0.310526 1.54511 0
M  V30 8420 C 816.858 -1.38264 1.84802 0
M  V30 8421 C 817.828 -1.50808 0.696141 0
M  V30 8422 O 819.013 -1.6582 0.943846 0
M  V30 8423 C 816.153 -2.74422 2.09252 0
M  V30 8424 C 815.266 -2.70405 3.36906 0
M  V30 8425 C 814.401 -3.98495 3.51248 0
M  V30 8426 C 813.44 -3.88836 4.72729 0
M  V30 8427 N 812.577 -5.08683 4.83928 0
M  V30 8428 H 817.417 -1.11732 2.76261 0
M  V30 8429 H 814.954 -0.540609 1.36806 0
M  V30 8430 H 816.912 -3.53593 2.21422 0
M  V30 8431 H 815.542 -2.99235 1.2107 0
M  V30 8432 H 814.594 -1.83151 3.33406 0
M  V30 8433 H 815.906 -2.59155 4.26193 0
M  V30 8434 H 815.06 -4.861 3.63031 0
M  V30 8435 H 813.799 -4.12567 2.60077 0
M  V30 8436 H 812.804 -2.99615 4.60989 0
M  V30 8437 H 814.029 -3.76318 5.65298 0
M  V30 8438 H 811.975 -5.23236 3.95677 0
M  V30 8439 H 811.892 -4.99819 5.67201 0
M  V30 8440 H 813.16 -5.97966 5.00057 0
M  V30 8441 N 817.389 -1.46805 -0.573248 0
M  V30 8442 C 818.637 -1.52302 -1.32847 0
M  V30 8443 C 818.958 -0.180159 -1.94166 0
M  V30 8444 O 818.228 0.794291 -1.79075 0
M  V30 8445 H 816.808 -0.56097 -0.493276 0
M  V30 8446 H 819.47 -1.82998 -0.670642 0
M  V30 8447 H 818.566 -2.28089 -2.13031 0
M  V30 8448 N 818.867 0.818669 -1.34668 0
M  V30 8449 C 820.095 1.60674 -1.30351 0
M  V30 8450 C 820.51 1.88408 0.121546 0
M  V30 8451 O 819.867 1.47849 1.06991 0
M  V30 8452 C 819.918 2.94516 -2.09625 0
M  V30 8453 O 819.639 2.6799 -3.46573 0
M  V30 8454 C 821.14 3.8891 -2.12754 0
M  V30 8455 H 818.36 0.499306 -0.448258 0
M  V30 8456 H 820.904 1.01828 -1.77345 0
M  V30 8457 H 819.059 3.49908 -1.66262 0
M  V30 8458 H 819.473 3.53361 -3.87603 0
M  V30 8459 H 820.947 4.79972 -2.72637 0
M  V30 8460 H 821.424 4.24599 -1.12306 0
M  V30 8461 H 822.03 3.39453 -2.56225 0
M  V30 8462 N 820.346 1.18468 1.03938 0
M  V30 8463 C 821.592 0.982286 1.77423 0
M  V30 8464 C 821.925 -0.48679 1.88 0
M  V30 8465 O 821.2 -1.36146 1.38905 0
M  V30 8466 C 821.483 1.63929 3.20623 0
M  V30 8467 C 821.336 3.18132 3.17982 0
M  V30 8468 C 822.655 1.3536 4.18767 0
M  V30 8469 H 819.774 0.358264 0.644062 0
M  V30 8470 H 822.416 1.46154 1.21405 0
M  V30 8471 H 820.566 1.2318 3.68455 0
M  V30 8472 H 822.238 3.68024 2.78129 0
M  V30 8473 H 820.481 3.50225 2.55978 0
M  V30 8474 H 821.152 3.5924 4.19107 0
M  V30 8475 H 823.628 1.70669 3.79488 0
M  V30 8476 H 822.504 1.83896 5.17178 0
M  V30 8477 H 822.765 0.276722 4.41233 0
M  V30 8478 N 821.824 -1.22873 0.986916 0
M  V30 8479 C 823.054 -1.95204 0.67668 0
M  V30 8480 C 823.462 -1.73193 -0.761641 0
M  V30 8481 O 822.805 -1.0243 -1.52492 0
M  V30 8482 C 822.867 -3.48173 0.895302 0
M  V30 8483 C 822.531 -3.93912 2.31695 0
M  V30 8484 C 823.528 -4.02064 3.29607 0
M  V30 8485 C 821.213 -4.26722 2.64978 0
M  V30 8486 C 823.207 -4.42391 4.58878 0
M  V30 8487 C 820.894 -4.66729 3.94471 0
M  V30 8488 C 821.892 -4.74531 4.91232 0
M  V30 8489 O 821.58 -5.13636 6.18412 0
M  V30 8490 H 821.312 -0.628105 0.24992 0
M  V30 8491 H 823.866 -1.5714 1.32274 0
M  V30 8492 H 822.096 -3.86223 0.192072 0
M  V30 8493 H 823.785 -4.01717 0.581233 0
M  V30 8494 H 824.551 -3.76912 3.05225 0
M  V30 8495 H 820.43 -4.19858 1.9037 0
M  V30 8496 H 823.974 -4.48395 5.34404 0
M  V30 8497 H 819.871 -4.91332 4.18645 0
M  V30 8498 H 820.639 -5.31728 6.2226 0
M  V30 8499 N 823.302 -0.75937 -1.38099 0
M  V30 8500 C 824.549 -0.318113 -1.99986 0
M  V30 8501 C 824.877 1.10184 -1.6028 0
M  V30 8502 O 824.132 1.77015 -0.834524 0
M  V30 8503 C 824.431 -0.394999 -3.55211 0
M  V30 8504 C 824.097 -1.77143 -4.14646 0
M  V30 8505 C 822.759 -2.14811 -4.30592 0
M  V30 8506 C 825.111 -2.67407 -4.47373 0
M  V30 8507 C 822.439 -3.42203 -4.76565 0
M  V30 8508 C 824.791 -3.94196 -4.94765 0
M  V30 8509 C 823.455 -4.31925 -5.08918 0
M  V30 8510 H 822.725 -0.116406 -0.7318 0
M  V30 8511 H 825.372 -0.97098 -1.65058 0
M  V30 8512 H 823.677 0.341426 -3.9031 0
M  V30 8513 H 825.374 -0.0350722 -4.00985 0
M  V30 8514 H 821.964 -1.46864 -4.02652 0
M  V30 8515 H 826.148 -2.39569 -4.3465 0
M  V30 8516 H 821.404 -3.71346 -4.85708 0
M  V30 8517 H 825.578 -4.64276 -5.19057 0
M  V30 8518 H 823.205 -5.30699 -5.443 0
M  V30 8519 N 824.78 1.49157 -0.508906 0
M  V30 8520 C 826.028 2.02073 0.0327335 0
M  V30 8521 C 826.349 1.39012 1.3675 0
M  V30 8522 O 825.619 0.548153 1.88075 0
M  V30 8523 H 824.199 0.746848 0.0150864 0
M  V30 8524 H 826.861 1.83097 -0.667946 0
M  V30 8525 H 825.957 3.11707 0.1566 0
M  V30 8526 N 826.258 0.243083 1.55714 0
M  V30 8527 C 827.486 -0.386971 2.03249 0
M  V30 8528 C 827.901 -1.51812 1.12243 0
M  V30 8529 O 827.258 -1.81992 0.136119 0
M  V30 8530 C 827.309 -0.898361 3.5016 0
M  V30 8531 O 827.03 0.187708 4.37698 0
M  V30 8532 C 828.531 -1.59949 4.13438 0
M  V30 8533 H 825.751 -0.0923981 0.664608 0
M  V30 8534 H 828.295 0.365832 2.01201 0
M  V30 8535 H 826.45 -1.60136 3.52754 0
M  V30 8536 H 826.864 -0.200001 5.24119 0
M  V30 8537 H 828.338 -1.90907 5.17937 0
M  V30 8538 H 828.815 -2.52014 3.59702 0
M  V30 8539 H 829.421 -0.941163 4.14756 0
M  V30 8540 N 827.736 -1.57571 -0.0300757 0
M  V30 8541 C 828.964 -1.93485 -0.732891 0
M  V30 8542 C 829.379 -0.842758 -1.68947 0
M  V30 8543 O 828.736 0.180904 -1.81601 0
M  V30 8544 C 828.787 -3.29328 -1.49082 0
M  V30 8545 O 828.508 -4.34341 -0.572639 0
M  V30 8546 C 830.009 -3.79517 -2.29088 0
M  V30 8547 H 827.229 -0.638588 -0.206026 0
M  V30 8548 H 829.773 -2.04496 0.0120966 0
M  V30 8549 H 827.928 -3.19716 -2.1877 0
M  V30 8550 H 828.342 -5.12748 -1.10406 0
M  V30 8551 H 829.816 -4.77081 -2.77665 0
M  V30 8552 H 830.293 -3.10659 -3.10464 0
M  V30 8553 H 830.899 -3.92208 -1.64477 0
M  V30 8554 N 829.214 0.302327 -1.54673 0
M  V30 8555 C 830.177 1.35592 -1.8479 0
M  V30 8556 C 831.177 1.43743 -0.72073 0
M  V30 8557 O 832.367 1.43402 -0.989017 0
M  V30 8558 C 829.499 2.74091 -2.02699 0
M  V30 8559 H 830.692 1.10132 -2.78946 0
M  V30 8560 H 828.245 0.538926 -1.46715 0
M  V30 8561 H 828.98 3.04775 -1.10826 0
M  V30 8562 H 828.765 2.69565 -2.8474 0
M  V30 8563 H 830.255 3.50272 -2.27374 0
M  V30 8564 N 830.692 1.47107 0.565454 0
M  V30 8565 C 831.938 1.53535 1.32495 0
M  V30 8566 C 832.271 0.193537 1.93233 0
M  V30 8567 O 831.546 -0.796956 1.77423 0
M  V30 8568 C 831.829 2.64712 2.4413 0
M  V30 8569 C 831.682 4.08482 1.88314 0
M  V30 8570 C 833.001 2.71853 3.46098 0
M  V30 8571 H 830.12 0.558926 0.480386 0
M  V30 8572 H 832.762 1.79125 0.633575 0
M  V30 8573 H 830.912 2.43023 3.03104 0
M  V30 8574 H 832.584 4.4151 1.33665 0
M  V30 8575 H 830.827 4.17148 1.19037 0
M  V30 8576 H 831.498 4.82032 2.68978 0
M  V30 8577 H 833.974 2.91397 2.97031 0
M  V30 8578 H 832.85 3.51433 4.21646 0
M  V30 8579 H 833.111 1.78584 4.04426 0
M  V30 8580 N 832.17 -0.811516 1.35101 0
M  V30 8581 C 833.398 -1.59981 1.31201 0
M  V30 8582 C 833.813 -1.8847 -0.111552 0
M  V30 8583 O 833.17 -1.48414 -1.06205 0
M  V30 8584 C 833.221 -2.934 2.11184 0
M  V30 8585 O 832.942 -2.66148 3.4799 0
M  V30 8586 C 834.443 -3.87776 2.14813 0
M  V30 8587 H 831.663 -0.496921 0.450899 0
M  V30 8588 H 834.207 -1.00886 1.77883 0
M  V30 8589 H 832.362 -3.49022 1.68115 0
M  V30 8590 H 832.776 -3.51301 3.89471 0
M  V30 8591 H 834.25 -4.7852 2.75178 0
M  V30 8592 H 834.727 -4.23997 1.14556 0
M  V30 8593 H 835.333 -3.3809 2.58022 0
M  V30 8594 N 833.648 -1.19017 -1.03309 0
M  V30 8595 C 834.896 -0.988258 -1.76289 0
M  V30 8596 C 835.217 0.482557 -1.88935 0
M  V30 8597 O 834.487 1.34969 -1.41987 0
M  V30 8598 H 833.067 -0.36267 -0.653054 0
M  V30 8599 H 835.729 -1.49836 -1.2464 0
M  V30 8600 H 834.825 -1.43273 -2.77271 0
M  V30 8601 N 835.127 1.22348 -0.993418 0
M  V30 8602 C 836.09 2.22522 -0.549251 0
M  V30 8603 C 837.09 1.56529 0.368164 0
M  V30 8604 O 838.28 1.73463 0.16005 0
M  V30 8605 C 835.412 3.40307 0.201037 0
M  V30 8606 H 836.605 2.63332 -1.43515 0
M  V30 8607 H 834.158 1.35407 -0.78068 0
M  V30 8608 H 834.893 3.0497 1.10289 0
M  V30 8609 H 834.678 3.8942 -0.457685 0
M  V30 8610 H 836.168 4.14597 0.499946 0
M  V30 8611 N 836.605 0.766683 1.37694 0
M  V30 8612 C 837.882 0.25366 1.93948 0
M  V30 8613 C 838.262 -1.25041 1.70082 0
M  V30 8614 O 837.61 -2.03115 1.04674 0
M  V30 8615 C 837.82 0.621549 3.43421 0
M  V30 8616 C 839.168 0.588504 4.20502 0
M  V30 8617 O 840.192 0.560632 3.5176 0
M  V30 8618 O 839.051 0.61107 5.43073 0
M  V30 8619 H 836.145 0.0570586 0.825029 0
M  V30 8620 H 838.691 0.847693 1.47011 0
M  V30 8621 H 837.463 1.65979 3.54354 0
M  V30 8622 H 837.086 0.000197027 3.976 0
M  V30 8623 N 838.083 -1.48885 0.516809 0
M  V30 8624 C 839.332 -2.01686 -0.0239899 0
M  V30 8625 C 839.645 -1.40029 -1.3657 0
M  V30 8626 O 840.851 -1.84249 -1.9941 0
M  V30 8627 C 839.307 -3.59779 -0.0931825 0
M  V30 8628 C 838.915 -4.30416 1.24283 0
M  V30 8629 C 840.659 -4.20471 -0.583507 0
M  V30 8630 C 838.566 -5.80408 1.13494 0
M  V30 8631 H 837.496 -0.753892 -0.0127376 0
M  V30 8632 H 840.147 -1.71273 0.65861 0
M  V30 8633 H 838.529 -3.86976 -0.840577 0
M  V30 8634 H 839.703 -4.14905 2.00476 0
M  V30 8635 H 838.018 -3.81539 1.66785 0
M  V30 8636 H 840.615 -5.30333 -0.681987 0
M  V30 8637 H 840.958 -3.84898 -1.58617 0
M  V30 8638 H 841.491 -3.97654 0.107814 0
M  V30 8639 H 838.23 -6.20532 2.11235 0
M  V30 8640 H 837.75 -5.98368 0.414167 0
M  V30 8641 H 839.429 -6.41781 0.820162 0
M  V30 8642 N 839.561 -0.251338 -1.55583 0
M  V30 8643 C 840.807 0.37272 -1.99346 0
M  V30 8644 C 841.14 1.57266 -1.13934 0
M  V30 8645 O 840.415 1.9343 -0.20377 0
M  V30 8646 C 840.698 0.778245 -3.5159 0
M  V30 8647 C 840.551 -0.427394 -4.47765 0
M  V30 8648 C 841.87 1.62358 -4.09057 0
M  V30 8649 H 838.989 0.134002 -0.724715 0
M  V30 8650 H 841.631 -0.353536 -1.86682 0
M  V30 8651 H 839.781 1.39704 -3.62512 0
M  V30 8652 H 841.453 -1.06586 -4.48818 0
M  V30 8653 H 839.696 -1.06972 -4.20404 0
M  V30 8654 H 840.367 -0.10025 -5.51909 0
M  V30 8655 H 842.843 1.1012 -4.01264 0
M  V30 8656 H 841.719 1.87617 -5.1584 0
M  V30 8657 H 841.98 2.59688 -3.57791 0
M  V30 8658 N 841.039 1.57585 0.0217189 0
M  V30 8659 C 842.002 2.06004 1.00474 0
M  V30 8660 C 843.002 0.965461 1.2859 0
M  V30 8661 O 844.192 1.22884 1.23471 0
M  V30 8662 C 841.324 2.48319 2.33561 0
M  V30 8663 H 842.517 2.94112 0.586346 0
M  V30 8664 H 840.07 1.53973 0.268716 0
M  V30 8665 H 840.805 1.63389 2.80133 0
M  V30 8666 H 840.59 3.28239 2.1448 0
M  V30 8667 H 842.08 2.86181 3.04122 0
M  V30 8668 N 842.517 -0.29412 1.54831 0
M  V30 8669 C 843.763 -1.02602 1.75626 0
M  V30 8670 C 844.118 -1.84689 0.539232 0
M  V30 8671 O 843.411 -1.85788 -0.468322 0
M  V30 8672 C 843.605 -1.95782 2.99006 0
M  V30 8673 C 843.434 -1.22861 4.32591 0
M  V30 8674 C 842.204 -0.95294 4.96233 0
M  V30 8675 C 844.402 -0.629592 5.10432 0
M  V30 8676 N 842.384 -0.194728 6.13591 0
M  V30 8677 C 843.755 -0.00449586 6.2 0
M  V30 8678 C 845.81 -0.535327 4.95014 0
M  V30 8679 C 844.513 0.705754 7.15829 0
M  V30 8680 C 846.539 0.161284 5.9118 0
M  V30 8681 C 845.901 0.775203 7.00121 0
M  V30 8682 H 842 -0.358143 0.695167 0
M  V30 8683 H 844.584 -0.303896 1.92314 0
M  V30 8684 H 842.755 -2.65238 2.83731 0
M  V30 8685 H 844.487 -2.62175 3.08296 0
M  V30 8686 H 841.242 -1.25285 4.56728 0
M  V30 8687 H 841.666 0.171093 6.76784 0
M  V30 8688 H 846.308 -0.995662 4.10909 0
M  V30 8689 H 844.026 1.17784 7.9947 0
M  V30 8690 H 847.612 0.234256 5.81328 0
M  V30 8691 H 846.492 1.30566 7.73254 0
M  V30 8692 N 843.995 -1.47404 -0.557645 0
M  V30 8693 C 844.905 -1.62491 -1.69216 0
M  V30 8694 C 845.921 -0.507764 -1.66426 0
M  V30 8695 O 847.097 -0.775241 -1.85882 0
M  V30 8696 C 844.162 -1.63511 -3.05721 0
M  V30 8697 C 843.223 -2.86648 -3.1958 0
M  V30 8698 C 842.456 -2.87609 -4.49574 0
M  V30 8699 O 842.679 -1.97799 -5.35006 0
M  V30 8700 O 841.613 -3.79465 -4.67215 0
M  V30 8701 H 845.439 -2.58487 -1.59431 0
M  V30 8702 H 843.024 -1.30485 -0.7276 0
M  V30 8703 H 844.906 -1.66863 -3.86956 0
M  V30 8704 H 843.581 -0.706812 -3.15889 0
M  V30 8705 H 842.488 -2.8884 -2.37744 0
M  V30 8706 H 843.821 -3.7877 -3.14316 0
M  V30 8707 N 845.473 0.80434 -1.35529 0
M  V30 8708 C 846.75 1.5486 -1.1949 0
M  V30 8709 C 847.13 2.09897 0.22506 0
M  V30 8710 O 846.478 1.92643 1.22886 0
M  V30 8711 C 846.688 2.65535 -2.26478 0
M  V30 8712 C 848.036 3.33814 -2.62399 0
M  V30 8713 O 849.06 2.75807 -2.25409 0
M  V30 8714 O 847.919 4.38612 -3.26009 0
M  V30 8715 H 845.013 0.68433 -0.464351 0
M  V30 8716 H 847.559 0.844107 -1.47217 0
M  V30 8717 H 846.331 2.22754 -3.21709 0
M  V30 8718 H 845.954 3.43617 -2.00033 0
M  V30 8719 N 846.951 1.19563 1.02676 0
M  V30 8720 C 848.179 1.02488 1.79732 0
M  V30 8721 C 848.594 -0.426302 1.83924 0
M  V30 8722 O 847.951 -1.29609 1.28483 0
M  V30 8723 C 848.002 1.58944 3.24683 0
M  V30 8724 O 847.723 2.98382 3.2078 0
M  V30 8725 C 849.224 1.46681 4.1833 0
M  V30 8726 H 846.444 0.361098 0.565552 0
M  V30 8727 H 848.988 1.58426 1.29311 0
M  V30 8728 H 847.143 1.0715 3.72287 0
M  V30 8729 H 847.557 3.24983 4.11687 0
M  V30 8730 H 849.031 1.90959 5.17918 0
M  V30 8731 H 849.508 0.417663 4.3721 0
M  V30 8732 H 850.114 1.97616 3.76601 0
M  V30 8733 N 848.429 -1.21819 0.999893 0
M  V30 8734 C 849.361 -2.23356 0.514256 0
M  V30 8735 C 850.374 -1.5795 -0.394413 0
M  V30 8736 O 851.563 -1.77427 -0.195428 0
M  V30 8737 C 848.663 -3.37797 -0.273207 0
M  V30 8738 C 847.836 -4.32791 0.633293 0
M  V30 8739 C 846.895 -5.26098 -0.103673 0
M  V30 8740 O 845.921 -5.66881 0.513269 0
M  V30 8741 N 847.123 -5.63764 -1.38383 0
M  V30 8742 H 849.888 -2.65653 1.3874 0
M  V30 8743 H 847.449 -1.3619 0.875431 0
M  V30 8744 H 849.441 -3.97209 -0.775053 0
M  V30 8745 H 848.011 -2.94527 -1.0475 0
M  V30 8746 H 847.231 -3.71595 1.31571 0
M  V30 8747 H 848.519 -4.93196 1.25039 0
M  V30 8748 H 847.917 -5.32614 -1.90627 0
M  V30 8749 H 846.474 -6.25562 -1.83073 0
M  V30 8750 N 849.908 -0.773975 -1.37286 0
M  V30 8751 C 851.157 -0.335977 -1.98882 0
M  V30 8752 C 851.47 1.09416 -1.62134 0
M  V30 8753 O 852.676 1.63366 -2.1685 0
M  V30 8754 C 851.132 -0.549756 -3.55676 0
M  V30 8755 C 850.74 -1.9903 -4.01361 0
M  V30 8756 C 852.484 -0.175493 -4.24137 0
M  V30 8757 C 850.391 -2.15156 -5.50874 0
M  V30 8758 H 849.321 -0.121877 -0.744085 0
M  V30 8759 H 851.972 -0.953419 -1.56787 0
M  V30 8760 H 850.354 0.137175 -3.95762 0
M  V30 8761 H 851.528 -2.71237 -3.72515 0
M  V30 8762 H 849.843 -2.32137 -3.4569 0
M  V30 8763 H 852.44 -0.274463 -5.33995 0
M  V30 8764 H 852.783 0.874524 -4.07011 0
M  V30 8765 H 853.316 -0.815058 -3.89361 0
M  V30 8766 H 850.055 -3.18485 -5.72929 0
M  V30 8767 H 849.575 -1.47435 -5.81397 0
M  V30 8768 H 851.254 -1.95124 -6.16876 0
M  V30 8769 N 851.386 1.48609 -0.524698 0
M  V30 8770 C 852.318 2.27508 0.278 0
M  V30 8771 C 853.331 1.35042 0.909258 0
M  V30 8772 O 854.52 1.60136 0.788592 0
M  V30 8773 C 851.62 3.08247 1.40843 0
M  V30 8774 C 850.793 4.28455 0.880083 0
M  V30 8775 C 849.852 4.91048 1.891 0
M  V30 8776 O 848.878 5.5042 1.45005 0
M  V30 8777 N 850.08 4.82816 3.22288 0
M  V30 8778 H 852.845 2.97037 -0.398642 0
M  V30 8779 H 850.406 1.57876 -0.358698 0
M  V30 8780 H 852.398 3.46992 2.08276 0
M  V30 8781 H 850.968 2.41173 1.98883 0
M  V30 8782 H 850.188 3.94189 0.0299228 0
M  V30 8783 H 851.476 5.06279 0.505881 0
M  V30 8784 H 850.874 4.3572 3.60783 0
M  V30 8785 H 849.431 5.25676 3.85368 0
M  V30 8786 N 852.864 0.259585 1.55447 0
M  V30 8787 C 854.11 -0.362143 1.9954 0
M  V30 8788 C 854.443 -1.5666 1.14767 0
M  V30 8789 O 853.718 -1.93319 0.214025 0
M  V30 8790 C 854.001 -0.759588 3.51998 0
M  V30 8791 C 853.854 0.451134 4.47532 0
M  V30 8792 C 855.173 -1.60186 4.09913 0
M  V30 8793 H 852.292 -0.130157 0.725416 0
M  V30 8794 H 854.934 0.363431 1.86492 0
M  V30 8795 H 853.084 -1.3778 3.63248 0
M  V30 8796 H 854.756 1.08965 4.48246 0
M  V30 8797 H 852.999 1.092 4.19831 0
M  V30 8798 H 853.67 0.129518 5.51848 0
M  V30 8799 H 856.146 -1.0799 4.01842 0
M  V30 8800 H 855.022 -1.84879 5.16828 0
M  V30 8801 H 855.283 -2.57787 3.59163 0
M  V30 8802 N 854.342 -1.57594 -0.0133615 0
M  V30 8803 C 855.289 -2.07574 -1.00905 0
M  V30 8804 C 856.259 -0.968231 -1.34961 0
M  V30 8805 O 857.444 -1.23981 -1.45028 0
M  V30 8806 C 854.584 -2.5728 -2.30002 0
M  V30 8807 C 853.697 -3.81881 -2.01967 0
M  V30 8808 C 852.832 -4.20139 -3.25049 0
M  V30 8809 C 851.871 -5.37614 -2.92639 0
M  V30 8810 N 851.008 -5.71229 -4.08218 0
M  V30 8811 H 855.848 -2.92382 -0.575899 0
M  V30 8812 H 853.385 -1.4455 -0.272722 0
M  V30 8813 H 855.343 -2.84171 -3.05454 0
M  V30 8814 H 853.973 -1.75365 -2.71011 0
M  V30 8815 H 853.025 -3.61979 -1.16942 0
M  V30 8816 H 854.337 -4.67441 -1.74069 0
M  V30 8817 H 853.491 -4.48242 -4.08857 0
M  V30 8818 H 852.23 -3.33262 -3.56073 0
M  V30 8819 H 851.235 -5.09248 -2.07235 0
M  V30 8820 H 852.46 -6.26157 -2.62876 0
M  V30 8821 H 850.406 -4.8731 -4.39164 0
M  V30 8822 H 850.323 -6.51333 -3.83799 0
M  V30 8823 H 851.591 -6.03917 -4.92854 0
M  V30 8824 N 855.82 0.285905 -1.54985 0
M  V30 8825 C 857.069 1.01691 -1.74189 0
M  V30 8826 C 857.382 1.87908 -0.543135 0
M  V30 8827 O 858.588 2.64389 -0.617305 0
M  V30 8828 C 857.044 1.85785 -3.0824 0
M  V30 8829 C 856.652 1.04497 -4.35642 0
M  V30 8830 C 858.396 2.58393 -3.36798 0
M  V30 8831 C 856.303 1.87955 -5.60738 0
M  V30 8832 H 855.233 0.383396 -0.649248 0
M  V30 8833 H 857.884 0.27317 -1.81455 0
M  V30 8834 H 856.266 2.64205 -2.94978 0
M  V30 8835 H 857.44 0.305847 -4.59784 0
M  V30 8836 H 855.755 0.434023 -4.14132 0
M  V30 8837 H 858.352 3.21214 -4.27464 0
M  V30 8838 H 858.695 3.28011 -2.56349 0
M  V30 8839 H 859.228 1.87012 -3.511 0
M  V30 8840 H 855.967 1.22781 -6.43898 0
M  V30 8841 H 855.487 2.59499 -5.40759 0
M  V30 8842 H 857.166 2.45636 -5.98558 0
M  V30 8843 N 857.298 1.47698 0.54982 0
M  V30 8844 C 858.709 1.48474 1.13191 0
M  V30 8845 C 859.06 0.243504 1.94683 0
M  V30 8846 O 858.185 -0.651009 2.06375 0
M  V30 8847 C 858.78 2.69022 2.05944 0
M  V30 8848 C 857.339 2.72733 2.5941 0
M  V30 8849 C 856.486 2.41691 1.35944 0
M  V30 8850 H 859.437 1.55101 0.336048 0
M  V30 8851 H 859.458 2.46412 2.89934 0
M  V30 8852 H 858.97 3.59345 1.46605 0
M  V30 8853 H 857.071 1.86568 3.22526 0
M  V30 8854 H 857.184 3.73628 2.99899 0
M  V30 8855 H 855.548 1.92428 1.66864 0
M  V30 8856 H 856.331 3.34231 0.783869 0
M  V30 8857 N 858.776 -0.797141 1.35954 0
M  V30 8858 C 859.739 -1.89104 1.29508 0
M  V30 8859 C 860.739 -1.59495 0.204444 0
M  V30 8860 O 861.929 -1.68051 0.458746 0
M  V30 8861 C 859.061 -3.25726 1.00576 0
M  V30 8862 H 860.254 -1.96237 2.26785 0
M  V30 8863 H 857.807 -0.994075 1.20614 0
M  V30 8864 H 858.542 -3.24279 0.0372519 0
M  V30 8865 H 858.327 -3.48604 1.79492 0
M  V30 8866 H 859.817 -4.0578 0.986508 0
M  V30 8867 N 860.254 -1.20106 -1.0204 0
M  V30 8868 C 861.5 -1.01039 -1.75838 0
M  V30 8869 C 861.833 0.456819 -1.88751 0
M  V30 8870 O 861.108 1.33919 -1.41053 0
M  V30 8871 C 861.391 -1.69009 -3.17975 0
M  V30 8872 C 861.244 -3.2315 -3.1288 0
M  V30 8873 C 862.563 -1.42005 -4.16561 0
M  V30 8874 H 859.682 -0.368465 -0.638281 0
M  V30 8875 H 862.324 -1.48066 -1.19064 0
M  V30 8876 H 860.474 -1.29026 -3.66449 0
M  V30 8877 H 862.146 -3.72402 -2.72239 0
M  V30 8878 H 860.389 -3.54253 -2.50374 0
M  V30 8879 H 861.06 -3.65862 -4.13339 0
M  V30 8880 H 863.536 -1.76685 -3.76725 0
M  V30 8881 H 862.412 -1.92101 -5.14187 0
M  V30 8882 H 862.673 -0.346884 -4.40737 0
M  V30 8883 N 861.732 1.21287 -1.00634 0
M  V30 8884 C 863.143 1.72136 -0.722914 0
M  V30 8885 C 863.494 1.8091 0.759338 0
M  V30 8886 O 862.619 1.46458 1.59308 0
M  V30 8887 C 863.214 3.12633 -1.30561 0
M  V30 8888 C 861.773 3.60833 -1.07127 0
M  V30 8889 C 860.92 2.38326 -1.4176 0
M  V30 8890 H 863.871 1.06445 -1.17708 0
M  V30 8891 H 863.892 3.74174 -0.690937 0
M  V30 8892 H 863.404 3.06215 -2.38441 0
M  V30 8893 H 861.505 3.72599 -0.00968671 0
M  V30 8894 H 861.618 4.46226 -1.74411 0
M  V30 8895 H 859.982 2.40575 -0.836412 0
M  V30 8896 H 860.765 2.34558 -2.50674 0
M  V30 8897 N 863.21 0.781244 1.36873 0
M  V30 8898 C 864.458 0.349198 1.9906 0
M  V30 8899 C 864.779 -1.0806 1.62321 0
M  V30 8900 O 864.049 -1.74351 0.893229 0
M  V30 8901 H 862.629 0.126126 0.736275 0
M  V30 8902 H 865.291 1.00148 1.67202 0
M  V30 8903 H 864.387 0.434451 3.09061 0
M  V30 8904 N 864.689 -1.48329 0.532571 0
M  V30 8905 C 865.937 -2.021 -0.000581206 0
M  V30 8906 C 866.258 -1.4117 -1.34522 0
M  V30 8907 O 865.528 -0.578005 -1.87179 0
M  V30 8908 H 864.108 -0.746993 -0.00320281 0
M  V30 8909 H 866.77 -1.82011 0.696991 0
M  V30 8910 H 865.866 -3.11917 -0.106991 0
M  V30 8911 N 866.167 -0.267825 -1.55308 0
M  V30 8912 C 867.416 0.351635 -1.98611 0
M  V30 8913 C 867.729 1.57522 -1.15957 0
M  V30 8914 O 868.935 2.26717 -1.49371 0
M  V30 8915 C 867.391 0.676986 -3.53475 0
M  V30 8916 C 866.999 -0.526385 -4.44897 0
M  V30 8917 C 868.743 1.25948 -4.05386 0
M  V30 8918 C 866.65 -0.176026 -5.91138 0
M  V30 8919 H 865.58 0.13516 -0.741787 0
M  V30 8920 H 868.231 -0.371333 -1.79704 0
M  V30 8921 H 866.613 1.45866 -3.68156 0
M  V30 8922 H 867.787 -1.30339 -4.41982 0
M  V30 8923 H 866.102 -1.02522 -4.03582 0
M  V30 8924 H 868.699 1.53529 -5.12184 0
M  V30 8925 H 869.042 2.19094 -3.53982 0
M  V30 8926 H 869.575 0.540253 -3.94114 0
M  V30 8927 H 866.314 -1.07518 -6.46622 0
M  V30 8928 H 865.834 0.564363 -5.97139 0
M  V30 8929 H 867.513 0.234365 -6.46575 0
M  V30 8930 N 867.645 1.57599 0.00500368 0
M  V30 8931 C 868.875 1.94344 0.700998 0
M  V30 8932 C 869.283 0.868011 1.68114 0
M  V30 8933 O 868.626 -0.16214 1.82983 0
M  V30 8934 C 868.688 3.27046 1.49268 0
M  V30 8935 C 868.352 4.51992 0.674684 0
M  V30 8936 C 869.349 5.19888 -0.0354833 0
M  V30 8937 C 867.034 4.98432 0.622129 0
M  V30 8938 C 869.028 6.3252 -0.787246 0
M  V30 8939 C 866.715 6.10954 -0.133362 0
M  V30 8940 C 867.713 6.77855 -0.836788 0
M  V30 8941 O 867.401 7.88221 -1.57996 0
M  V30 8942 H 867.133 0.645572 0.20053 0
M  V30 8943 H 869.687 2.0536 -0.040718 0
M  V30 8944 H 867.917 3.12424 2.27877 0
M  V30 8945 H 869.606 3.4894 2.07355 0
M  V30 8946 H 870.372 4.85 -0.00400159 0
M  V30 8947 H 866.251 4.46189 1.15917 0
M  V30 8948 H 869.795 6.84671 -1.33683 0
M  V30 8949 H 865.692 6.45285 -0.166682 0
M  V30 8950 H 866.46 8.0471 -1.49615 0
M  V30 8951 N 869.123 -0.277682 1.55134 0
M  V30 8952 C 870.4 -1.0309 1.66228 0
M  V30 8953 C 870.78 -2.0445 0.525701 0
M  V30 8954 O 870.128 -2.23512 -0.474816 0
M  V30 8955 C 870.338 -1.6919 3.05247 0
M  V30 8956 C 871.686 -2.20526 3.62841 0
M  V30 8957 O 872.71 -1.79185 3.07849 0
M  V30 8958 O 871.569 -2.96342 4.59177 0
M  V30 8959 H 868.663 -0.4779 0.674937 0
M  V30 8960 H 871.209 -0.273912 1.67475 0
M  V30 8961 H 869.981 -0.957163 3.79413 0
M  V30 8962 H 869.604 -2.51587 3.07879 0
M  V30 8963 N 870.601 -1.47988 -0.541979 0
M  V30 8964 C 871.85 -1.5465 -1.29485 0
M  V30 8965 C 872.163 -0.220041 -1.94358 0
M  V30 8966 O 873.369 -0.164792 -2.70999 0
M  V30 8967 C 871.825 -2.72685 -2.34885 0
M  V30 8968 C 871.433 -4.11923 -1.76134 0
M  V30 8969 C 873.177 -2.88651 -3.11257 0
M  V30 8970 C 871.084 -5.21237 -2.79404 0
M  V30 8971 H 870.014 -0.575688 -0.486928 0
M  V30 8972 H 872.665 -1.74296 -0.573853 0
M  V30 8973 H 871.047 -2.46448 -3.09966 0
M  V30 8974 H 872.221 -4.48128 -1.07322 0
M  V30 8975 H 870.536 -4.00972 -1.12295 0
M  V30 8976 H 873.133 -3.67487 -3.88404 0
M  V30 8977 H 873.476 -1.97658 -3.66384 0
M  V30 8978 H 874.009 -3.14731 -2.43288 0
M  V30 8979 H 870.748 -6.14156 -2.29113 0
M  V30 8980 H 870.268 -4.89533 -3.4658 0
M  V30 8981 H 871.947 -5.48839 -3.42615 0
M  V30 8982 N 872.079 0.78992 -1.36375 0
M  V30 8983 C 873.495 1.0879 -1.16777 0
M  V30 8984 C 873.695 2.01498 0.00848236 0
M  V30 8985 O 872.751 2.43338 0.674007 0
M  V30 8986 C 874.064 1.70285 -2.47837 0
M  V30 8987 C 875.612 1.82629 -2.54196 0
M  V30 8988 C 876.087 2.47539 -3.85342 0
M  V30 8989 N 877.578 2.55008 -3.86685 0
M  V30 8990 C 878.313 3.06041 -4.84898 0
M  V30 8991 N 877.809 3.57385 -5.93505 0
M  V30 8992 N 879.602 3.04748 -4.72319 0
M  V30 8993 H 871.753 0.173985 -2.11686 0
M  V30 8994 H 874.016 0.139798 -0.937636 0
M  V30 8995 H 873.722 1.09633 -3.34176 0
M  V30 8996 H 873.596 2.69799 -2.63607 0
M  V30 8997 H 875.983 2.42419 -1.68276 0
M  V30 8998 H 876.064 0.81923 -2.42327 0
M  V30 8999 H 875.708 1.88393 -4.71668 0
M  V30 9000 H 875.638 3.48815 -3.94507 0
M  V30 9001 H 878.129 2.18651 -3.08221 0
M  V30 9002 H 878.442 3.94674 -6.64419 0
M  V30 9003 H 876.787 3.55538 -5.97175 0
M  V30 9004 H 879.978 2.63925 -3.86602 0
M  V30 9005 H 880.151 3.44212 -5.49019 0
M  V30 9006 N 873.557 1.20646 1.01402 0
M  V30 9007 C 874.803 1.0197 1.753 0
M  V30 9008 C 875.136 -0.446803 1.8899 0
M  V30 9009 O 874.411 -1.33169 1.41762 0
M  V30 9010 C 874.694 1.70693 3.17074 0
M  V30 9011 C 874.547 3.24805 3.11162 0
M  V30 9012 C 875.866 1.44212 4.15802 0
M  V30 9013 H 872.985 0.371844 0.636318 0
M  V30 9014 H 875.627 1.48696 1.18277 0
M  V30 9015 H 873.777 1.30968 3.65759 0
M  V30 9016 H 875.449 3.73841 2.70261 0
M  V30 9017 H 873.692 3.55576 2.48492 0
M  V30 9018 H 874.363 3.68049 4.11393 0
M  V30 9019 H 876.839 1.7868 3.75783 0
M  V30 9020 H 875.715 1.94825 5.13161 0
M  V30 9021 H 875.976 0.370252 4.40547 0
M  V30 9022 N 875.035 -1.20752 1.01276 0
M  V30 9023 C 875.998 -2.2162 0.584583 0
M  V30 9024 C 876.998 -1.57094 -0.343215 0
M  V30 9025 O 878.188 -1.73696 -0.132433 0
M  V30 9026 C 875.32 -3.40583 -0.146872 0
M  V30 9027 H 876.513 -2.61015 1.47686 0
M  V30 9028 H 874.066 -1.34148 0.802123 0
M  V30 9029 H 874.801 -3.06686 -1.05424 0
M  V30 9030 H 874.586 -3.88642 0.51958 0
M  V30 9031 H 876.076 -4.15339 -0.433924 0
M  V30 9032 N 876.513 -0.788492 -1.36457 0
M  V30 9033 C 877.461 -0.174192 -2.31947 0
M  V30 9034 C 878.455 0.665974 -1.5576 0
M  V30 9035 O 879.661 0.561161 -1.71029 0
M  V30 9036 H 876.036 -0.0375538 -0.751062 0
M  V30 9037 H 878.007 -0.995011 -2.81322 0
M  V30 9038 C 876.756 0.677276 -3.4104 0
M  V30 9039 H 876.079 0.0401418 -3.9978 0
M  V30 9040 H 877.519 1.07379 -4.10178 0
M  V30 9041 C 875.978 1.83512 -2.82533 0
M  V30 9042 O 876.508 2.93164 -2.74623 0
M  V30 9043 N 874.714 1.64095 -2.39836 0
M  V30 9044 H 874.261 0.749046 -2.46469 0
M  V30 9045 H 874.219 2.41726 -2.01037 0
M  V30 9046 N 877.991 1.48044 -0.54043 0
M  V30 9047 C 878.954 2.28273 0.205966 0
M  V30 9048 C 879.954 1.35983 0.858209 0
M  V30 9049 O 881.144 1.58776 0.716651 0
M  V30 9050 C 878.276 3.15174 1.29917 0
M  V30 9051 H 879.469 2.95727 -0.498555 0
M  V30 9052 H 877.022 1.53457 -0.296745 0
M  V30 9053 H 877.757 2.52374 2.03661 0
M  V30 9054 H 877.542 3.83074 0.836475 0
M  V30 9055 H 879.032 3.75666 1.82387 0
M  V30 9056 N 879.47 0.276058 1.55163 0
M  V30 9057 C 880.433 -0.597924 2.21263 0
M  V30 9058 C 881.433 -1.0806 1.19078 0
M  V30 9059 O 882.623 -0.980626 1.43977 0
M  V30 9060 C 879.755 -1.82503 2.87933 0
M  V30 9061 H 880.948 -0.0207769 2.99893 0
M  V30 9062 H 878.501 0.0266823 1.56277 0
M  V30 9063 H 879.236 -2.44266 2.13318 0
M  V30 9064 H 879.021 -1.48683 3.62816 0
M  V30 9065 H 880.511 -2.44651 3.38431 0
M  V30 9066 N 880.948 -1.576 0.00335426 0
M  V30 9067 C 882.196 -1.90336 -0.679446 0
M  V30 9068 C 882.517 -0.877777 -1.74127 0
M  V30 9069 O 881.787 0.0843585 -1.95718 0
M  V30 9070 H 880.367 -0.702509 -0.253948 0
M  V30 9071 H 883.029 -1.94848 0.0450731 0
M  V30 9072 H 882.125 -2.90197 -1.14857 0
M  V30 9073 N 882.426 0.269451 -1.5528 0
M  V30 9074 C 883.389 1.31642 -1.87625 0
M  V30 9075 C 884.389 1.42182 -0.751058 0
M  V30 9076 O 885.579 1.41272 -1.01921 0
M  V30 9077 C 882.711 2.6973 -2.08467 0
M  V30 9078 H 883.904 1.0419 -2.81219 0
M  V30 9079 H 881.457 0.507685 -1.47825 0
M  V30 9080 H 882.192 3.02356 -1.17266 0
M  V30 9081 H 881.977 2.63465 -2.90394 0
M  V30 9082 H 883.467 3.4537 -2.34753 0
M  V30 9083 N 883.904 1.48273 0.534124 0
M  V30 9084 C 884.867 1.6201 1.62127 0
M  V30 9085 C 885.867 0.493653 1.53035 0
M  V30 9086 O 887.057 0.759337 1.56779 0
M  V30 9087 C 884.189 1.5864 3.01739 0
M  V30 9088 H 885.382 2.58944 1.51288 0
M  V30 9089 H 882.935 1.36808 0.755861 0
M  V30 9090 H 883.67 0.631685 3.18088 0
M  V30 9091 H 883.455 2.40415 3.09747 0
M  V30 9092 H 884.945 1.71438 3.80787 0
M  V30 9093 N 885.382 -0.782676 1.36792 0
M  V30 9094 C 886.607 -1.57676 1.34733 0
M  V30 9095 C 887.032 -1.87979 -0.0675253 0
M  V30 9096 O 886.39 -1.48404 -1.04144 0
M  V30 9097 C 886.438 -2.87047 2.18257 0
M  V30 9098 O 885.542 -3.80946 1.57969 0
M  V30 9099 H 884.883 -0.478034 0.460846 0
M  V30 9100 H 887.413 -0.969578 1.80168 0
M  V30 9101 H 887.423 -3.36254 2.31079 0
M  V30 9102 H 886.098 -2.64319 3.21104 0
M  V30 9103 H 884.675 -3.39558 1.54126 0
M  V30 9104 N 886.86 -1.21182 -1.00761 0
M  V30 9105 C 887.808 -0.965728 -2.11604 0
M  V30 9106 C 888.802 0.0861028 -1.69181 0
M  V30 9107 O 890.008 -0.0650558 -1.79882 0
M  V30 9108 H 886.383 -0.295023 -0.691712 0
M  V30 9109 H 888.354 -1.90667 -2.2954 0
M  V30 9110 C 887.103 -0.544164 -3.43415 0
M  V30 9111 H 886.426 -1.34515 -3.76491 0
M  V30 9112 H 887.866 -0.411268 -4.22001 0
M  V30 9113 C 886.325 0.744583 -3.28569 0
M  V30 9114 O 886.855 1.80078 -3.59075 0
M  V30 9115 N 885.061 0.710083 -2.81791 0
M  V30 9116 H 884.608 -0.14971 -2.57165 0
M  V30 9117 H 884.566 1.57268 -2.72239 0
M  V30 9118 N 888.338 1.20213 -1.01915 0
M  V30 9119 C 889.587 1.88968 -0.705261 0
M  V30 9120 C 889.9 1.79869 0.768531 0
M  V30 9121 O 891.106 2.43783 1.19508 0
M  V30 9122 C 889.562 3.38911 -1.21109 0
M  V30 9123 C 889.17 3.5659 -2.71197 0
M  V30 9124 C 890.914 4.13204 -0.97275 0
M  V30 9125 C 888.821 5.00372 -3.15248 0
M  V30 9126 H 887.751 0.707715 -0.260107 0
M  V30 9127 H 890.402 1.35977 -1.23217 0
M  V30 9128 H 888.784 3.9124 -0.612152 0
M  V30 9129 H 889.958 3.14635 -3.36662 0
M  V30 9130 H 888.273 2.95671 -2.93202 0
M  V30 9131 H 890.87 5.19221 -1.27726 0
M  V30 9132 H 891.213 4.16201 0.09072 0
M  V30 9133 H 891.746 3.66983 -1.5352 0
M  V30 9134 H 888.485 5.02532 -4.20882 0
M  V30 9135 H 888.005 5.43127 -2.54505 0
M  V30 9136 H 889.684 5.68969 -3.08032 0
M  V30 9137 N 889.816 0.795718 1.36037 0
M  V30 9138 C 891.046 0.382597 2.03026 0
M  V30 9139 C 891.454 -1.00779 1.60126 0
M  V30 9140 O 890.797 -1.65884 0.78919 0
M  V30 9141 C 890.859 0.374145 3.57548 0
M  V30 9142 C 890.523 1.71318 4.23673 0
M  V30 9143 C 891.52 2.6697 4.4612 0
M  V30 9144 C 889.205 1.99421 4.61017 0
M  V30 9145 C 891.199 3.88916 5.04998 0
M  V30 9146 C 888.886 3.21632 5.19611 0
M  V30 9147 C 889.884 4.16198 5.41542 0
M  V30 9148 O 889.572 5.36254 5.98905 0
M  V30 9149 H 889.304 0.154944 0.658003 0
M  V30 9150 H 891.858 1.07756 1.74865 0
M  V30 9151 H 890.088 -0.377349 3.84854 0
M  V30 9152 H 891.777 -0.01517 4.05897 0
M  V30 9153 H 892.543 2.46548 4.17659 0
M  V30 9154 H 888.422 1.2663 4.43267 0
M  V30 9155 H 891.966 4.6274 5.22032 0
M  V30 9156 H 887.863 3.4193 5.47498 0
M  V30 9157 H 888.631 5.37403 6.17366 0
M  V30 9158 N 891.294 -1.47756 0.548274 0
M  V30 9159 C 892.571 -1.9555 -0.0443603 0
M  V30 9160 C 892.951 -1.49079 -1.49462 0
M  V30 9161 O 892.299 -0.725538 -2.16675 0
M  V30 9162 C 892.509 -3.48879 0.0918425 0
M  V30 9163 C 893.857 -4.2456 -0.0580879 0
M  V30 9164 O 894.881 -3.56195 0.018946 0
M  V30 9165 O 893.74 -5.46048 -0.222261 0
M  V30 9166 H 890.834 -0.824106 -0.0691235 0
M  V30 9167 H 893.38 -1.58196 0.614166 0
M  V30 9168 H 892.152 -3.7548 1.10137 0
M  V30 9169 H 891.775 -3.92975 -0.604704 0
M  V30 9170 N 892.772 -0.284283 -1.55015 0
M  V30 9171 C 893.72 0.615091 -2.2432 0
M  V30 9172 C 894.714 1.15051 -1.24337 0
M  V30 9173 O 895.92 1.10308 -1.4224 0
M  V30 9174 H 892.295 0.216927 -0.720033 0
M  V30 9175 H 894.266 0.00783216 -2.98399 0
M  V30 9176 C 893.015 1.78355 -2.98471 0
M  V30 9177 H 892.338 1.38076 -3.752 0
M  V30 9178 H 893.778 2.38927 -3.50271 0
M  V30 9179 C 892.237 2.67757 -2.04469 0
M  V30 9180 O 892.767 3.6838 -1.60185 0
M  V30 9181 N 890.973 2.35125 -1.70776 0
M  V30 9182 H 890.52 1.53346 -2.06985 0
M  V30 9183 H 890.478 2.95212 -1.08153 0
M  V30 9184 N 894.251 1.57596 -0.0117121 0
M  V30 9185 C 895.498 1.91071 0.670667 0
M  V30 9186 C 895.826 0.886457 1.73125 0
M  V30 9187 O 895.081 -0.107135 1.95407 0
M  V30 9188 C 895.38 3.31296 1.34082 0
M  V30 9189 C 895.046 4.49011 0.412305 0
M  V30 9190 C 893.708 4.80945 0.156691 0
M  V30 9191 C 896.06 5.20709 -0.226294 0
M  V30 9192 C 893.388 5.81943 -0.745619 0
M  V30 9193 C 895.74 6.22668 -1.11655 0
M  V30 9194 C 894.404 6.53053 -1.38123 0
M  V30 9195 H 893.674 0.69918 0.245415 0
M  V30 9196 H 896.321 1.91373 -0.0697511 0
M  V30 9197 H 894.626 3.27174 2.15557 0
M  V30 9198 H 896.323 3.54461 1.87506 0
M  V30 9199 H 892.913 4.24067 0.621705 0
M  V30 9200 H 897.097 4.96282 -0.0418456 0
M  V30 9201 H 892.353 6.03839 -0.958566 0
M  V30 9202 H 896.527 6.77351 -1.61767 0
M  V30 9203 H 894.154 7.31132 -2.08208 0
M  V30 9204 N 895.729 -0.261212 1.5542 0
M  V30 9205 C 896.639 -1.34493 1.92221 0
M  V30 9206 C 897.655 -1.53421 0.82086 0
M  V30 9207 O 898.831 -1.6732 1.12099 0
M  V30 9208 C 895.896 -2.68209 2.19692 0
M  V30 9209 C 894.957 -2.57927 3.43179 0
M  V30 9210 C 894.19 -3.85266 3.69331 0
M  V30 9211 O 894.413 -4.86493 2.97793 0
M  V30 9212 O 893.347 -3.8476 4.62865 0
M  V30 9213 H 897.173 -1.06278 2.84497 0
M  V30 9214 H 894.758 -0.460752 1.42118 0
M  V30 9215 H 896.64 -3.47252 2.38734 0
M  V30 9216 H 895.315 -2.96186 1.30597 0
M  V30 9217 H 894.222 -1.77219 3.2946 0
M  V30 9218 H 895.555 -2.34898 4.32532 0
M  V30 9219 N 897.207 -1.48554 -0.526253 0
M  V30 9220 C 898.453 -1.56994 -1.28378 0
M  V30 9221 C 898.786 -0.244701 -1.92652 0
M  V30 9222 O 898.061 0.749636 -1.79473 0
M  V30 9223 C 898.344 -2.71092 -2.37026 0
M  V30 9224 C 898.197 -4.13331 -1.77418 0
M  V30 9225 C 899.516 -2.80934 -3.38769 0
M  V30 9226 H 896.635 -0.571466 -0.465398 0
M  V30 9227 H 899.277 -1.80742 -0.585861 0
M  V30 9228 H 897.427 -2.50973 -2.96555 0
M  V30 9229 H 899.099 -4.44899 -1.21912 0
M  V30 9230 H 897.342 -4.20158 -1.07936 0
M  V30 9231 H 898.013 -4.88994 -2.56104 0
M  V30 9232 H 900.489 -2.9917 -2.892 0
M  V30 9233 H 899.365 -3.62489 -4.12181 0
M  V30 9234 H 899.626 -1.89244 -3.99549 0
M  V30 9235 N 898.685 0.775411 -1.37205 0
M  V30 9236 C 899.615 1.90258 -1.35367 0
M  V30 9237 C 900.596 1.68634 -0.222864 0
M  V30 9238 O 901.781 1.89545 -0.422659 0
M  V30 9239 C 898.911 3.27488 -1.15623 0
M  V30 9240 C 897.865 3.63668 -2.25676 0
M  V30 9241 C 897.191 4.994 -1.91059 0
M  V30 9242 C 898.491 3.70797 -3.67841 0
M  V30 9243 H 900.185 1.92053 -2.29687 0
M  V30 9244 H 897.731 0.922597 -1.10563 0
M  V30 9245 H 899.684 4.05976 -1.12968 0
M  V30 9246 H 898.408 3.26117 -0.177573 0
M  V30 9247 H 897.067 2.87486 -2.2748 0
M  V30 9248 H 896.715 4.94565 -0.917324 0
M  V30 9249 H 896.415 5.24576 -2.64751 0
M  V30 9250 H 897.939 5.80291 -1.89985 0
M  V30 9251 H 899.353 4.39444 -3.68187 0
M  V30 9252 H 897.75 4.07468 -4.40556 0
M  V30 9253 H 898.82 2.71549 -4.01732 0
M  V30 9254 N 900.163 1.21714 1.00117 0
M  V30 9255 C 901.391 1.06278 1.77518 0
M  V30 9256 C 901.806 -0.387193 1.84787 0
M  V30 9257 O 901.163 -1.26854 1.31203 0
M  V30 9258 C 901.214 1.65795 3.21239 0
M  V30 9259 O 900.935 3.05119 3.14378 0
M  V30 9260 C 902.436 1.55521 4.15124 0
M  V30 9261 H 899.656 0.373013 0.557765 0
M  V30 9262 H 902.2 1.61133 1.25922 0
M  V30 9263 H 900.355 1.15022 3.69931 0
M  V30 9264 H 900.769 3.33643 4.04701 0
M  V30 9265 H 902.243 2.01902 5.13751 0
M  V30 9266 H 902.72 0.510307 4.36225 0
M  V30 9267 H 903.326 2.0556 3.72324 0
M  V30 9268 N 901.641 -1.19671 1.02551 0
M  V30 9269 C 902.889 -1.88894 0.71858 0
M  V30 9270 C 903.21 -1.79797 -0.754856 0
M  V30 9271 O 902.48 -1.20621 -1.54362 0
M  V30 9272 H 901.06 -0.699244 0.262806 0
M  V30 9273 H 903.722 -1.45298 1.29902 0
M  V30 9274 H 902.818 -2.95309 1.00989 0
M  V30 9275 N 903.119 -0.802921 -1.35613 0
M  V30 9276 C 904.396 -0.304993 -1.93208 0
M  V30 9277 C 904.776 1.20488 -1.73337 0
M  V30 9278 O 904.124 2.00268 -1.10022 0
M  V30 9279 C 904.334 -0.712383 -3.41652 0
M  V30 9280 C 905.682 -0.699785 -4.18794 0
M  V30 9281 O 906.706 -0.653698 -3.5015 0
M  V30 9282 O 905.565 -0.754842 -5.41262 0
M  V30 9283 H 902.659 -0.0789127 -0.823226 0
M  V30 9284 H 905.205 -0.886372 -1.44712 0
M  V30 9285 H 903.977 -1.75316 -3.49829 0
M  V30 9286 H 903.6 -0.105614 -3.9746 0
M  V30 9287 N 904.597 1.47463 -0.556102 0
M  V30 9288 C 905.529 2.28046 0.22968 0
M  V30 9289 C 906.542 1.3694 0.880409 0
M  V30 9290 O 907.731 1.61773 0.754447 0
M  V30 9291 C 904.831 3.11165 1.34273 0
M  V30 9292 C 904.004 4.30225 0.789004 0
M  V30 9293 C 903.063 4.94948 1.78641 0
M  V30 9294 O 902.089 5.53372 1.33297 0
M  V30 9295 N 903.291 4.89543 3.11974 0
M  V30 9296 H 906.056 2.96125 -0.461558 0
M  V30 9297 H 903.617 1.5708 -0.392105 0
M  V30 9298 H 905.609 3.51331 2.00869 0
M  V30 9299 H 904.179 2.45337 1.93722 0
M  V30 9300 H 903.399 3.94163 -0.0536971 0
M  V30 9301 H 904.687 5.07238 0.398378 0
M  V30 9302 H 904.085 4.43275 3.51459 0
M  V30 9303 H 902.642 5.33732 3.74131 0
M  V30 9304 N 906.075 0.2925 1.54862 0
M  V30 9305 C 907.321 -0.319736 2.00264 0
M  V30 9306 C 907.654 -1.5419 1.18064 0
M  V30 9307 O 906.929 -1.92821 0.254983 0
M  V30 9308 C 907.212 -0.684753 3.5353 0
M  V30 9309 C 907.065 0.545961 4.46474 0
M  V30 9310 C 908.384 -1.51456 4.13218 0
M  V30 9311 H 905.503 -0.11474 0.728014 0
M  V30 9312 H 908.145 0.402907 1.85679 0
M  V30 9313 H 906.295 -1.30044 3.66089 0
M  V30 9314 H 907.967 1.18448 4.45834 0
M  V30 9315 H 906.21 1.1808 4.1742 0
M  V30 9316 H 906.881 0.246544 5.51449 0
M  V30 9317 H 909.357 -0.994421 4.04043 0
M  V30 9318 H 908.233 -1.73875 5.20633 0
M  V30 9319 H 908.494 -2.5011 3.64551 0
M  V30 9320 N 907.553 -1.57587 0.0200696 0
M  V30 9321 C 908.781 -1.95718 -0.670964 0
M  V30 9322 C 909.196 -0.896081 -1.6618 0
M  V30 9323 O 908.553 0.123037 -1.82085 0
M  V30 9324 C 908.604 -3.33904 -1.38529 0
M  V30 9325 O 908.325 -4.35943 -0.434167 0
M  V30 9326 C 909.826 -3.86614 -2.16898 0
M  V30 9327 H 907.046 -0.644819 -0.185606 0
M  V30 9328 H 909.59 -2.04354 0.0771495 0
M  V30 9329 H 907.745 -3.26515 -2.08487 0
M  V30 9330 H 908.159 -5.16001 -0.940378 0
M  V30 9331 H 909.633 -4.85673 -2.62346 0
M  V30 9332 H 910.11 -3.20379 -3.00423 0
M  V30 9333 H 910.716 -3.97243 -1.51916 0
M  V30 9334 N 909.032 0.252966 -1.55557 0
M  V30 9335 C 910.278 0.983306 -1.77367 0
M  V30 9336 C 910.611 1.85203 -0.584258 0
M  V30 9337 O 909.886 1.89963 0.417644 0
M  V30 9338 C 910.169 1.84896 -3.09007 0
M  V30 9339 C 910.022 1.00883 -4.38341 0
M  V30 9340 C 911.341 2.83254 -3.36831 0
M  V30 9341 H 908.46 0.356056 -0.645286 0
M  V30 9342 H 911.102 0.254232 -1.88291 0
M  V30 9343 H 909.252 2.47058 -2.99825 0
M  V30 9344 H 910.924 0.40638 -4.59507 0
M  V30 9345 H 909.167 0.31297 -4.3267 0
M  V30 9346 H 909.838 1.64818 -5.2682 0
M  V30 9347 H 912.314 2.31228 -3.45937 0
M  V30 9348 H 911.19 3.40949 -4.30169 0
M  V30 9349 H 911.451 3.59407 -2.57447 0
M  V30 9350 N 910.51 1.48831 0.518367 0
M  V30 9351 C 911.926 1.35209 0.847979 0
M  V30 9352 C 912.126 0.371927 1.98038 0
M  V30 9353 O 911.182 -0.202681 2.51685 0
M  V30 9354 C 912.495 2.7552 1.20455 0
M  V30 9355 C 914.043 2.84094 1.31377 0
M  V30 9356 C 914.518 4.25132 1.70372 0
M  V30 9357 N 916.009 4.27861 1.77453 0
M  V30 9358 C 916.744 5.3394 2.09035 0
M  V30 9359 N 916.24 6.50285 2.3896 0
M  V30 9360 N 918.033 5.21343 2.10139 0
M  V30 9361 H 910.184 2.11166 -0.228624 0
M  V30 9362 H 912.447 0.94717 -0.0396599 0
M  V30 9363 H 912.153 3.48861 0.445991 0
M  V30 9364 H 912.027 3.09785 2.15204 0
M  V30 9365 H 914.414 2.11001 2.06307 0
M  V30 9366 H 914.495 2.53433 0.347203 0
M  V30 9367 H 914.139 4.98745 0.959975 0
M  V30 9368 H 914.069 4.53245 2.68098 0
M  V30 9369 H 916.56 3.43945 1.56557 0
M  V30 9370 H 916.873 7.26961 2.62196 0
M  V30 9371 H 915.218 6.5354 2.36454 0
M  V30 9372 H 918.409 4.29462 1.86225 0
M  V30 9373 H 918.582 6.04112 2.34419 0
M  V30 9374 N 911.988 -0.768124 1.37614 0
M  V30 9375 C 913.235 -1.5268 1.33022 0
M  V30 9376 C 913.563 -1.94318 -0.0841918 0
M  V30 9377 O 912.818 -1.64623 -1.0582 0
M  V30 9378 C 913.117 -2.80204 2.21856 0
M  V30 9379 C 912.783 -2.57602 3.7007 0
M  V30 9380 C 911.445 -2.51146 4.10462 0
M  V30 9381 C 913.797 -2.37482 4.63952 0
M  V30 9382 C 911.125 -2.22566 5.42846 0
M  V30 9383 C 913.477 -2.10425 5.96577 0
M  V30 9384 C 912.141 -2.02416 6.36069 0
M  V30 9385 H 911.411 -0.558697 0.486763 0
M  V30 9386 H 914.058 -0.88447 1.69851 0
M  V30 9387 H 912.363 -3.49014 1.78034 0
M  V30 9388 H 914.06 -3.38099 2.15615 0
M  V30 9389 H 910.65 -2.63491 3.38039 0
M  V30 9390 H 914.834 -2.41457 4.33604 0
M  V30 9391 H 910.09 -2.14863 5.72402 0
M  V30 9392 H 914.264 -1.93857 6.68874 0
M  V30 9393 H 911.891 -1.80034 7.38574 0
M  V30 9394 N 913.466 -1.22244 -0.994698 0
M  V30 9395 C 914.712 -1.04746 -1.73655 0
M  V30 9396 C 915.045 0.41668 -1.89677 0
M  V30 9397 O 914.32 1.30897 -1.43862 0
M  V30 9398 C 914.603 -1.75716 -3.14318 0
M  V30 9399 C 914.456 -3.29714 -3.05955 0
M  V30 9400 C 915.775 -1.50809 -4.13455 0
M  V30 9401 H 912.894 -0.381921 -0.630322 0
M  V30 9402 H 915.536 -1.50559 -1.15897 0
M  V30 9403 H 913.686 -1.3677 -3.63629 0
M  V30 9404 H 915.358 -3.78093 -2.64279 0
M  V30 9405 H 913.601 -3.59484 -2.42804 0
M  V30 9406 H 914.272 -3.74547 -4.05485 0
M  V30 9407 H 916.748 -1.84636 -3.72892 0
M  V30 9408 H 915.624 -2.02964 -5.09997 0
M  V30 9409 H 915.885 -0.440292 -4.39902 0
M  V30 9410 N 914.944 1.19125 -1.03184 0
M  V30 9411 C 916.193 1.8821 -0.725264 0
M  V30 9412 C 916.506 1.80674 0.749411 0
M  V30 9413 O 917.712 2.45037 1.16915 0
M  V30 9414 C 916.168 3.37607 -1.24697 0
M  V30 9415 C 915.776 3.53693 -2.74964 0
M  V30 9416 C 917.52 4.12149 -1.01652 0
M  V30 9417 C 915.427 4.97001 -3.20538 0
M  V30 9418 H 914.357 0.704916 -0.267599 0
M  V30 9419 H 917.008 1.34663 -1.24652 0
M  V30 9420 H 915.39 3.90569 -0.653614 0
M  V30 9421 H 916.564 3.11046 -3.39981 0
M  V30 9422 H 914.879 2.92544 -2.96322 0
M  V30 9423 H 917.476 5.17837 -1.33226 0
M  V30 9424 H 917.819 4.16274 0.0465712 0
M  V30 9425 H 918.352 3.65334 -1.57403 0
M  V30 9426 H 915.091 4.9804 -4.26189 0
M  V30 9427 H 914.611 5.40398 -2.60251 0
M  V30 9428 H 916.29 5.65669 -3.14049 0
M  V30 9429 N 916.422 0.810101 1.35185 0
M  V30 9430 C 917.37 0.211071 2.3164 0
M  V30 9431 C 918.364 -0.641109 1.568 0
M  V30 9432 O 919.57 -0.533881 1.719 0
M  V30 9433 H 915.945 0.0494978 0.750369 0
M  V30 9434 H 917.916 1.03964 2.79703 0
M  V30 9435 C 916.665 -0.622933 3.42074 0
M  V30 9436 H 915.988 0.0234648 3.99793 0
M  V30 9437 H 917.428 -1.0084 4.11834 0
M  V30 9438 C 915.887 -1.78994 2.85417 0
M  V30 9439 O 916.417 -2.88758 2.79252 0
M  V30 9440 N 914.623 -1.60259 2.42416 0
M  V30 9441 H 914.17 -0.70974 2.4763 0
M  V30 9442 H 914.128 -2.38498 2.04857 0
M  V30 9443 N 917.9 -1.47166 0.563914 0
M  V30 9444 C 918.848 -2.31798 -0.193009 0
M  V30 9445 C 919.842 -1.43338 -0.902805 0
M  V30 9446 O 921.048 -1.60067 -0.823328 0
M  V30 9447 H 917.423 -0.747613 -0.0811139 0
M  V30 9448 H 919.394 -2.93476 0.539876 0
M  V30 9449 C 918.143 -3.26131 -1.20555 0
M  V30 9450 H 917.466 -3.94166 -0.668803 0
M  V30 9451 H 918.906 -3.88167 -1.70593 0
M  V30 9452 C 917.365 -2.50132 -2.25689 0
M  V30 9453 O 917.895 -2.25064 -3.3273 0
M  V30 9454 N 916.101 -2.11022 -1.99795 0
M  V30 9455 H 915.648 -2.3161 -1.1276 0
M  V30 9456 H 915.606 -1.60489 -2.70353 0
M  V30 9457 N 919.378 -0.300708 -1.54705 0
M  V30 9458 C 920.341 0.562648 -2.22187 0
M  V30 9459 C 921.341 1.06152 -1.20782 0
M  V30 9460 O 922.531 0.957596 -1.45519 0
M  V30 9461 C 919.663 1.77899 -2.908 0
M  V30 9462 H 920.856 -0.0269361 -2.99888 0
M  V30 9463 H 918.409 -0.0515412 -1.56215 0
M  V30 9464 H 919.144 2.40841 -2.17177 0
M  V30 9465 H 918.929 1.42892 -3.65136 0
M  V30 9466 H 920.419 2.39236 -3.42281 0
M  V30 9467 N 920.856 1.57574 -0.0284266 0
M  V30 9468 C 922.084 1.96071 0.660575 0
M  V30 9469 C 922.499 0.904881 1.65703 0
M  V30 9470 O 921.856 -0.113379 1.82147 0
M  V30 9471 C 921.907 3.34634 1.36756 0
M  V30 9472 O 921.628 4.36167 0.411041 0
M  V30 9473 C 923.129 3.87758 2.14845 0
M  V30 9474 H 920.349 0.645794 0.182183 0
M  V30 9475 H 922.893 2.04311 -0.0879858 0
M  V30 9476 H 921.048 3.27616 2.06753 0
M  V30 9477 H 921.462 5.16493 0.913 0
M  V30 9478 H 922.936 4.87058 2.59767 0
M  V30 9479 H 923.413 3.21967 2.9872 0
M  V30 9480 H 924.019 3.98043 1.49807 0
M  V30 9481 N 922.334 -0.244713 1.55689 0
M  V30 9482 C 923.562 -0.989944 1.8168 0
M  V30 9483 C 923.977 -1.78863 0.604449 0
M  V30 9484 O 923.334 -1.77437 -0.426907 0
M  V30 9485 C 923.385 -1.92607 3.05916 0
M  V30 9486 O 923.106 -1.1597 4.22472 0
M  V30 9487 C 924.607 -2.78711 3.44724 0
M  V30 9488 H 921.827 -0.2912 0.604519 0
M  V30 9489 H 924.371 -0.266938 2.0275 0
M  V30 9490 H 922.526 -2.60333 2.8689 0
M  V30 9491 H 922.94 -1.79311 4.92898 0
M  V30 9492 H 924.414 -3.40141 4.34751 0
M  V30 9493 H 924.891 -3.49935 2.6541 0
M  V30 9494 H 925.497 -2.16435 3.66109 0
M  V30 9495 N 923.813 -1.49104 -0.510467 0
M  V30 9496 C 924.776 -1.64569 -1.59529 0
M  V30 9497 C 925.776 -0.517937 -1.5223 0
M  V30 9498 O 926.966 -0.784183 -1.55551 0
M  V30 9499 C 924.098 -1.6342 -2.99177 0
M  V30 9500 H 925.291 -2.61318 -1.4715 0
M  V30 9501 H 922.844 -1.37993 -0.734001 0
M  V30 9502 H 923.579 -0.68221 -3.17043 0
M  V30 9503 H 923.364 -2.45312 -3.05883 0
M  V30 9504 H 924.854 -1.77474 -3.78011 0
M  V30 9505 N 925.291 0.760815 -1.38019 0
M  V30 9506 C 926.221 1.88811 -1.37377 0
M  V30 9507 C 927.202 1.68388 -0.240737 0
M  V30 9508 O 928.387 1.89086 -0.442739 0
M  V30 9509 C 925.517 3.26244 -1.1909 0
M  V30 9510 C 924.471 3.61254 -2.29521 0
M  V30 9511 C 923.797 4.97346 -1.96345 0
M  V30 9512 C 925.097 3.66874 -3.71753 0
M  V30 9513 H 926.791 1.89606 -2.31711 0
M  V30 9514 H 924.337 0.910818 -1.11535 0
M  V30 9515 H 926.29 4.04755 -1.17267 0
M  V30 9516 H 925.014 3.2591 -0.212152 0
M  V30 9517 H 923.673 2.85057 -2.30517 0
M  V30 9518 H 923.321 4.93564 -0.969728 0
M  V30 9519 H 923.021 5.21739 -2.703 0
M  V30 9520 H 924.545 5.78244 -1.96129 0
M  V30 9521 H 925.959 4.35514 -3.72828 0
M  V30 9522 H 924.356 4.02772 -4.44853 0
M  V30 9523 H 925.426 2.67273 -4.0459 0
M  V30 9524 N 926.769 1.22769 0.988202 0
M  V30 9525 C 928.017 1.05301 1.725 0
M  V30 9526 C 928.338 -0.412103 1.90596 0
M  V30 9527 O 927.608 -1.29606 1.46898 0
M  V30 9528 H 926.188 0.386658 0.639144 0
M  V30 9529 H 928.85 1.54359 1.18993 0
M  V30 9530 H 927.946 1.53465 2.71763 0
M  V30 9531 N 928.247 -1.18576 1.03814 0
M  V30 9532 C 929.179 -2.21607 0.585055 0
M  V30 9533 C 930.192 -1.59125 -0.343963 0
M  V30 9534 O 931.381 -1.77959 -0.138882 0
M  V30 9535 C 928.481 -3.38495 -0.165602 0
M  V30 9536 C 927.654 -4.30557 0.770662 0
M  V30 9537 C 926.713 -5.26161 0.0637534 0
M  V30 9538 O 925.739 -5.64961 0.693359 0
M  V30 9539 N 926.941 -5.67882 -1.20377 0
M  V30 9540 H 929.706 -2.61104 1.47121 0
M  V30 9541 H 927.267 -1.33336 0.918316 0
M  V30 9542 H 929.259 -3.99474 -0.648292 0
M  V30 9543 H 927.829 -2.97711 -0.953268 0
M  V30 9544 H 927.049 -3.67221 1.43326 0
M  V30 9545 H 928.337 -4.88969 1.40667 0
M  V30 9546 H 927.735 -5.38409 -1.73586 0
M  V30 9547 H 926.292 -6.31069 -1.63079 0
M  V30 9548 N 929.725 -0.817259 -1.34754 0
M  V30 9549 C 930.673 -0.223352 -2.31525 0
M  V30 9550 C 931.667 0.632785 -1.57137 0
M  V30 9551 O 932.873 0.524757 -1.72181 0
M  V30 9552 H 929.248 -0.0534765 -0.750096 0
M  V30 9553 H 931.219 -1.05446 -2.79148 0
M  V30 9554 C 929.968 0.604784 -3.424 0
M  V30 9555 H 929.291 -0.0446664 -3.99775 0
M  V30 9556 H 930.731 0.986543 -4.12363 0
M  V30 9557 C 929.19 1.77478 -2.86362 0
M  V30 9558 O 929.72 2.87273 -2.8078 0
M  V30 9559 N 927.926 1.58971 -2.43263 0
M  V30 9560 H 927.473 0.696598 -2.48003 0
M  V30 9561 H 927.431 2.37408 -2.06119 0
M  V30 9562 N 931.203 1.46865 -0.571711 0
M  V30 9563 C 932.449 2.0273 -0.0531858 0
M  V30 9564 C 932.782 1.44353 1.29907 0
M  V30 9565 O 932.057 0.604488 1.84868 0
M  V30 9566 C 932.34 3.60092 0.0243831 0
M  V30 9567 C 932.193 4.28874 -1.35599 0
M  V30 9568 C 933.512 4.33994 0.730563 0
M  V30 9569 H 930.631 0.736706 -0.0208018 0
M  V30 9570 H 933.273 1.75132 -0.736794 0
M  V30 9571 H 931.423 3.83736 0.606565 0
M  V30 9572 H 933.095 4.16527 -1.98249 0
M  V30 9573 H 931.338 3.88664 -1.92674 0
M  V30 9574 H 932.009 5.37561 -1.25429 0
M  V30 9575 H 934.485 4.1543 0.236098 0
M  V30 9576 H 933.361 5.43699 0.753836 0
M  V30 9577 H 933.622 4.04257 1.78967 0
M  V30 9578 N 932.681 0.308908 1.54543 0
M  V30 9579 C 933.928 -0.298036 2.00295 0
M  V30 9580 C 934.256 -1.53285 1.19724 0
M  V30 9581 O 933.511 -1.93917 0.263551 0
M  V30 9582 C 933.81 -0.691522 3.50646 0
M  V30 9583 C 933.476 0.442454 4.48724 0
M  V30 9584 C 932.138 0.753739 4.7526 0
M  V30 9585 C 934.49 1.20488 5.07082 0
M  V30 9586 C 931.818 1.83044 5.57415 0
M  V30 9587 C 934.17 2.27156 5.90409 0
M  V30 9588 C 932.834 2.58882 6.15253 0
M  V30 9589 H 932.104 -0.109059 0.73293 0
M  V30 9590 H 934.751 0.429647 1.86618 0
M  V30 9591 H 933.056 -1.49941 3.61974 0
M  V30 9592 H 934.753 -1.17244 3.83477 0
M  V30 9593 H 931.343 0.189744 4.2818 0
M  V30 9594 H 935.527 0.977653 4.86575 0
M  V30 9595 H 930.783 2.08088 5.749 0
M  V30 9596 H 934.957 2.86687 6.34652 0
M  V30 9597 H 932.584 3.42443 6.78702 0
M  V30 9598 N 934.159 -1.57557 0.0367827 0
M  V30 9599 C 935.089 -2.13712 -0.940719 0
M  V30 9600 C 936.07 -1.05515 -1.33419 0
M  V30 9601 O 937.255 -1.33385 -1.41146 0
M  V30 9602 C 934.385 -2.67043 -2.22048 0
M  V30 9603 C 933.339 -3.80096 -1.96752 0
M  V30 9604 C 932.665 -4.19886 -3.31059 0
M  V30 9605 C 933.965 -5.05848 -1.30058 0
M  V30 9606 H 935.659 -2.9564 -0.473033 0
M  V30 9607 H 933.205 -1.42214 -0.226089 0
M  V30 9608 H 935.158 -3.04964 -2.90818 0
M  V30 9609 H 933.882 -1.82287 -2.70996 0
M  V30 9610 H 932.541 -3.42625 -1.30398 0
M  V30 9611 H 932.189 -3.32101 -3.77781 0
M  V30 9612 H 931.889 -4.96073 -3.14937 0
M  V30 9613 H 933.413 -4.60395 -4.01084 0
M  V30 9614 H 934.827 -5.41306 -1.8884 0
M  V30 9615 H 933.224 -5.87084 -1.24309 0
M  V30 9616 H 934.294 -4.84122 -0.274591 0
M  V30 9617 N 935.637 0.236453 -1.55816 0
M  V30 9618 C 936.865 0.980295 -1.82203 0
M  V30 9619 C 937.28 1.7854 -0.613926 0
M  V30 9620 O 936.637 1.77661 0.417491 0
M  V30 9621 C 936.688 1.90982 -3.06933 0
M  V30 9622 O 936.409 1.13728 -4.23081 0
M  V30 9623 C 937.91 2.76879 -3.46198 0
M  V30 9624 H 935.13 0.28799 -0.606055 0
M  V30 9625 H 937.674 0.256182 -2.02889 0
M  V30 9626 H 935.829 2.58808 -2.88266 0
M  V30 9627 H 936.243 1.76694 -4.93842 0
M  V30 9628 H 937.717 3.37831 -4.36548 0
M  V30 9629 H 938.194 3.48522 -2.67262 0
M  V30 9630 H 938.8 2.1449 -3.67252 0
M  V30 9631 N 937.115 1.49373 0.502552 0
M  V30 9632 C 938.363 1.58467 1.25429 0
M  V30 9633 C 938.684 0.272593 1.93085 0
M  V30 9634 O 937.954 -0.707947 1.82661 0
M  V30 9635 H 936.534 0.583866 0.46595 0
M  V30 9636 H 939.196 1.8599 0.582568 0
M  V30 9637 H 938.292 2.37993 2.01906 0
M  V30 9638 N 938.594 -0.753485 1.38421 0
M  V30 9639 C 939.542 -1.8886 1.35774 0
M  V30 9640 C 940.536 -1.67639 0.243608 0
M  V30 9641 O 941.742 -1.75206 0.412649 0
M  V30 9642 H 938.117 -0.62137 0.42356 0
M  V30 9643 H 940.088 -1.88209 2.3156 0
M  V30 9644 C 938.837 -3.26344 1.19979 0
M  V30 9645 H 938.16 -3.43259 2.04971 0
M  V30 9646 H 939.6 -4.06015 1.22181 0
M  V30 9647 C 938.059 -3.36771 -0.0932867 0
M  V30 9648 O 938.589 -3.8718 -1.07027 0
M  V30 9649 N 936.795 -2.90212 -0.150154 0
M  V30 9650 H 936.342 -2.4938 0.645562 0
M  V30 9651 H 936.3 -2.97569 -1.0149 0
M  V30 9652 N 940.072 -1.23292 -0.981677 0
M  V30 9653 C 941.318 -1.06582 -1.72535 0
M  V30 9654 C 941.651 0.396538 -1.90108 0
M  V30 9655 O 940.926 1.29363 -1.45243 0
M  V30 9656 C 941.209 -1.7904 -3.12437 0
M  V30 9657 C 941.062 -3.32941 -3.02441 0
M  V30 9658 C 942.381 -1.55185 -4.11832 0
M  V30 9659 H 939.5 -0.388585 -0.626236 0
M  V30 9660 H 942.142 -1.51779 -1.14293 0
M  V30 9661 H 940.292 -1.40619 -3.62158 0
M  V30 9662 H 941.964 -3.80875 -2.60254 0
M  V30 9663 H 940.207 -3.62039 -2.38977 0
M  V30 9664 H 940.878 -3.78827 -4.0149 0
M  V30 9665 H 943.354 -1.88581 -3.70913 0
M  V30 9666 H 942.23 -2.08362 -5.07815 0
M  V30 9667 H 942.491 -0.486925 -4.3941 0
M  V30 9668 N 941.55 1.18024 -1.04442 0
M  V30 9669 C 942.775 1.92573 -0.770097 0
M  V30 9670 C 943.2 1.75871 0.667169 0
M  V30 9671 O 942.558 1.07136 1.46258 0
M  V30 9672 C 942.606 3.41904 -1.14602 0
M  V30 9673 O 941.71 4.11491 -0.273712 0
M  V30 9674 H 941.051 0.600636 -0.283076 0
M  V30 9675 H 943.581 1.49645 -1.39526 0
M  V30 9676 H 943.591 3.92623 -1.10956 0
M  V30 9677 H 942.266 3.53382 -2.19304 0
M  V30 9678 H 940.843 3.71059 -0.370124 0
M  V30 9679 N 943.028 0.824394 1.34319 0
M  V30 9680 C 943.938 0.24932 2.33271 0
M  V30 9681 C 944.954 -0.617066 1.62691 0
M  V30 9682 O 946.13 -0.524616 1.94447 0
M  V30 9683 C 943.195 -0.578094 3.41846 0
M  V30 9684 C 942.256 0.310866 4.28173 0
M  V30 9685 C 941.489 -0.477153 5.31563 0
M  V30 9686 O 941.712 -1.71028 5.44156 0
M  V30 9687 O 940.646 0.141287 6.01734 0
M  V30 9688 H 944.472 1.06837 2.84288 0
M  V30 9689 H 942.057 0.58657 1.37403 0
M  V30 9690 H 943.939 -1.04878 4.0814 0
M  V30 9691 H 942.614 -1.37444 2.93071 0
M  V30 9692 H 941.521 0.829081 3.64797 0
M  V30 9693 H 942.854 1.07161 4.80393 0
M  V30 9694 N 944.506 -1.46559 0.579492 0
M  V30 9695 C 945.436 -2.33059 -0.143437 0
M  V30 9696 C 946.417 -1.4515 -0.886868 0
M  V30 9697 O 947.602 -1.73973 -0.862961 0
M  V30 9698 C 944.732 -3.27364 -1.15973 0
M  V30 9699 C 943.686 -4.24689 -0.531348 0
M  V30 9700 C 943.012 -5.08479 -1.65388 0
M  V30 9701 C 944.312 -5.1961 0.529391 0
M  V30 9702 H 946.006 -2.93753 0.578762 0
M  V30 9703 H 943.552 -1.41256 0.279775 0
M  V30 9704 H 945.505 -3.86732 -1.67382 0
M  V30 9705 H 944.229 -2.64771 -1.91217 0
M  V30 9706 H 942.888 -3.6658 -0.0383749 0
M  V30 9707 H 942.536 -4.42273 -2.3959 0
M  V30 9708 H 942.236 -5.74387 -1.23909 0
M  V30 9709 H 943.76 -5.70709 -2.17079 0
M  V30 9710 H 945.174 -5.73212 0.100506 0
M  V30 9711 H 943.571 -5.93843 0.86432 0
M  V30 9712 H 944.641 -4.63737 1.4169 0
M  V30 9713 N 945.984 -0.3171 -1.54377 0
M  V30 9714 C 947.232 0.286842 -2.00054 0
M  V30 9715 C 947.553 1.53161 -1.20692 0
M  V30 9716 O 946.823 1.93479 -0.307045 0
M  V30 9717 H 945.403 0.108979 -0.739008 0
M  V30 9718 H 948.065 -0.432152 -1.90049 0
M  V30 9719 H 947.161 0.547729 -3.07256 0
M  V30 9720 N 947.462 1.57535 -0.0451378 0
M  V30 9721 C 948.41 2.12351 0.949205 0
M  V30 9722 C 949.404 1.05386 1.32628 0
M  V30 9723 O 950.61 1.23802 1.30664 0
M  V30 9724 H 946.985 0.678648 0.323945 0
M  V30 9725 H 948.956 2.94806 0.461718 0
M  V30 9726 C 947.705 2.67862 2.21687 0
M  V30 9727 H 947.028 3.49826 1.93551 0
M  V30 9728 H 948.468 3.09844 2.89435 0
M  V30 9729 C 946.927 1.61353 2.95748 0
M  V30 9730 O 947.457 1.02276 3.88462 0
M  V30 9731 N 945.663 1.33017 2.5837 0
M  V30 9732 H 945.21 1.81246 1.83051 0
M  V30 9733 H 945.168 0.619812 3.0823 0
M  V30 9734 N 948.94 -0.228186 1.55939 0
M  V30 9735 C 950.186 -0.950604 1.7982 0
M  V30 9736 C 950.541 -1.82236 0.617079 0
M  V30 9737 O 949.834 -1.87607 -0.389102 0
M  V30 9738 C 950.028 -1.82924 3.0704 0
M  V30 9739 C 949.857 -1.04403 4.37413 0
M  V30 9740 C 948.627 -0.741613 4.99828 0
M  V30 9741 C 950.825 -0.412534 5.12643 0
M  V30 9742 N 948.807 0.0656922 6.13865 0
M  V30 9743 C 950.178 0.258471 6.19461 0
M  V30 9744 C 952.233 -0.324893 4.96839 0
M  V30 9745 C 950.936 1.00873 7.12192 0
M  V30 9746 C 952.962 0.411878 5.89964 0
M  V30 9747 C 952.324 1.07145 6.96203 0
M  V30 9748 H 948.423 -0.328336 0.709732 0
M  V30 9749 H 951.007 -0.222056 1.9343 0
M  V30 9750 H 949.178 -2.52966 2.94725 0
M  V30 9751 H 950.91 -2.48863 3.19139 0
M  V30 9752 H 947.665 -1.05801 4.61631 0
M  V30 9753 H 948.089 0.457986 6.75449 0
M  V30 9754 H 952.731 -0.820485 4.14762 0
M  V30 9755 H 950.449 1.51586 7.93755 0
M  V30 9756 H 954.035 0.480606 5.79812 0
M  V30 9757 H 952.915 1.63245 7.67021 0
M  V30 9758 N 950.418 -1.49637 -0.494624 0
M  V30 9759 C 951.695 -1.4995 -1.25596 0
M  V30 9760 C 952.075 -0.230805 -2.09834 0
M  V30 9761 O 951.423 0.786625 -2.14533 0
M  V30 9762 C 951.633 -2.78204 -2.10721 0
M  V30 9763 C 952.981 -3.27946 -2.69698 0
M  V30 9764 O 954.005 -2.79365 -2.20984 0
M  V30 9765 O 952.864 -4.12571 -3.58395 0
M  V30 9766 H 949.958 -0.60044 -0.568684 0
M  V30 9767 H 952.504 -1.61906 -0.508371 0
M  V30 9768 H 951.276 -3.62029 -1.48494 0
M  V30 9769 H 950.899 -2.69139 -2.92661 0
M  V30 9770 N 951.896 0.746133 -1.38819 0
M  V30 9771 C 953.307 1.32384 -1.31648 0
M  V30 9772 C 953.658 1.96185 0.0243086 0
M  V30 9773 O 952.783 1.95567 0.92641 0
M  V30 9774 C 953.378 2.40712 -2.38418 0
M  V30 9775 C 951.937 2.94185 -2.34803 0
M  V30 9776 C 951.084 1.67639 -2.20891 0
M  V30 9777 H 954.035 0.544457 -1.49068 0
M  V30 9778 H 954.056 3.20833 -2.04564 0
M  V30 9779 H 953.568 1.94247 -3.3599 0
M  V30 9780 H 951.669 3.44959 -1.40834 0
M  V30 9781 H 951.782 3.48057 -3.29231 0
M  V30 9782 H 950.146 1.9155 -1.67871 0
M  V30 9783 H 950.929 1.23242 -3.20416 0
M  V30 9784 N 953.375 1.23811 0.975125 0
M  V30 9785 C 954.323 1.02149 2.0897 0
M  V30 9786 C 955.317 -0.0412172 1.6935 0
M  V30 9787 O 956.523 0.112726 1.79647 0
M  V30 9788 H 952.898 0.313259 0.683647 0
M  V30 9789 H 954.869 1.96686 2.24404 0
M  V30 9790 C 953.618 0.635023 3.41852 0
M  V30 9791 H 952.941 1.44449 3.72793 0
M  V30 9792 H 954.381 0.52301 4.20762 0
M  V30 9793 C 952.84 -0.657207 3.30428 0
M  V30 9794 O 953.37 -1.70494 3.63723 0
M  V30 9795 N 951.576 -0.635122 2.83575 0
M  V30 9796 H 951.123 0.21784 2.56677 0
M  V30 9797 H 951.081 -1.49995 2.76313 0
M  V30 9798 N 954.853 -1.17469 1.05066 0
M  V30 9799 C 955.801 -2.23495 0.644418 0
M  V30 9800 C 956.795 -1.66081 -0.333685 0
M  V30 9801 O 958.001 -1.78887 -0.199886 0
M  V30 9802 H 954.376 -0.727546 0.190214 0
M  V30 9803 H 956.347 -2.55058 1.5488 0
M  V30 9804 C 955.096 -3.47684 0.0338051 0
M  V30 9805 H 954.419 -3.92167 0.777513 0
M  V30 9806 H 955.859 -4.23464 -0.213086 0
M  V30 9807 C 954.318 -3.14067 -1.21915 0
M  V30 9808 O 954.848 -3.28728 -2.3087 0
M  V30 9809 N 953.054 -2.68304 -1.11631 0
M  V30 9810 H 952.601 -2.56574 -0.229673 0
M  V30 9811 H 952.559 -2.46184 -1.95553 0
M  V30 9812 N 956.331 -0.831506 -1.3388 0
M  V30 9813 C 957.294 -0.264773 -2.27666 0
M  V30 9814 C 958.294 0.562273 -1.50649 0
M  V30 9815 O 959.484 0.377131 -1.70069 0
M  V30 9816 C 956.616 0.627814 -3.35069 0
M  V30 9817 H 957.809 -1.09225 -2.79303 0
M  V30 9818 H 955.362 -0.604021 -1.44157 0
M  V30 9819 H 956.097 1.47802 -2.88661 0
M  V30 9820 H 955.882 0.0361552 -3.92083 0
M  V30 9821 H 957.372 1.01786 -4.05005 0
M  V30 9822 N 957.809 1.4625 -0.587256 0
M  V30 9823 C 959.058 2.01571 -0.0722643 0
M  V30 9824 C 959.371 1.46385 1.29733 0
M  V30 9825 O 960.577 1.93554 1.90392 0
M  V30 9826 C 959.033 3.59814 -0.078579 0
M  V30 9827 C 958.641 4.23996 -1.44678 0
M  V30 9828 C 960.385 4.22776 0.382231 0
M  V30 9829 C 958.292 5.74332 -1.41057 0
M  V30 9830 H 957.222 0.753642 -0.0232461 0
M  V30 9831 H 959.873 1.67936 -0.739577 0
M  V30 9832 H 958.255 3.90546 0.654988 0
M  V30 9833 H 959.429 4.04867 -2.20043 0
M  V30 9834 H 957.744 3.73147 -1.84799 0
M  V30 9835 H 960.341 5.32983 0.428182 0
M  V30 9836 H 960.684 3.92027 1.40072 0
M  V30 9837 H 961.217 3.96687 -0.297417 0
M  V30 9838 H 957.956 6.09747 -2.40601 0
M  V30 9839 H 957.476 5.95711 -0.699185 0
M  V30 9840 H 959.155 6.37137 -1.12543 0
M  V30 9841 N 959.287 0.325282 1.54207 0
M  V30 9842 C 960.535 -0.276229 2.00203 0
M  V30 9843 C 960.856 -1.52519 1.21503 0
M  V30 9844 O 960.126 -1.93313 0.317302 0
M  V30 9845 H 958.706 -0.105059 0.739575 0
M  V30 9846 H 961.368 0.442225 1.89817 0
M  V30 9847 H 960.464 -0.531427 3.07542 0
M  V30 9848 N 960.765 -1.57509 0.0534917 0
M  V30 9849 C 962.176 -1.80374 -0.481867 0
M  V30 9850 C 962.527 -0.965917 -1.70776 0
M  V30 9851 O 961.652 -0.183167 -2.15623 0
M  V30 9852 C 962.247 -3.27146 -0.880978 0
M  V30 9853 C 960.806 -3.50921 -1.3613 0
M  V30 9854 C 959.953 -2.75237 -0.337611 0
M  V30 9855 H 962.904 -1.56222 0.279353 0
M  V30 9856 H 962.925 -3.38193 -1.74373 0
M  V30 9857 H 962.437 -3.88098 0.011441 0
M  V30 9858 H 960.538 -2.95251 -2.27283 0
M  V30 9859 H 960.651 -4.59632 -1.35186 0
M  V30 9860 H 959.015 -2.41444 -0.810991 0
M  V30 9861 H 959.798 -3.38918 0.546763 0
M  V30 9862 N 962.243 0.219913 -1.56058 0
M  V30 9863 C 963.176 1.29978 -1.87566 0
M  V30 9864 C 964.154 1.45131 -0.733203 0
M  V30 9865 O 965.338 1.60917 -0.981729 0
M  V30 9866 C 962.465 2.66988 -2.08411 0
M  V30 9867 C 961.511 2.68842 -3.31099 0
M  V30 9868 S 962.344 2.22745 -4.86975 0
M  V30 9869 C 963.5 3.61627 -5.10859 0
M  V30 9870 H 963.733 1.03059 -2.78866 0
M  V30 9871 H 961.266 0.422233 -1.48514 0
M  V30 9872 H 963.224 3.45866 -2.21104 0
M  V30 9873 H 961.885 2.91131 -1.17905 0
M  V30 9874 H 961.078 3.69526 -3.42734 0
M  V30 9875 H 960.68 1.98028 -3.17271 0
M  V30 9876 H 962.972 4.57328 -4.99857 0
M  V30 9877 H 963.915 3.54906 -6.12737 0
M  V30 9878 H 964.323 3.55391 -4.38586 0
M  V30 9879 N 963.721 1.49897 0.486681 0
M  V30 9880 C 964.951 1.63599 1.2617 0
M  V30 9881 C 965.359 0.312365 1.86604 0
M  V30 9882 O 964.702 -0.713911 1.6926 0
M  V30 9883 C 964.764 2.65736 2.42125 0
M  V30 9884 C 964.428 4.09711 2.0245 0
M  V30 9885 C 965.425 4.9607 1.55596 0
M  V30 9886 C 963.11 4.55534 2.11647 0
M  V30 9887 C 965.104 6.26295 1.18462 0
M  V30 9888 C 962.791 5.85768 1.74124 0
M  V30 9889 C 963.789 6.70973 1.27608 0
M  V30 9890 O 963.477 7.98778 0.905991 0
M  V30 9891 H 963.209 0.55333 0.388332 0
M  V30 9892 H 965.763 1.96768 0.589195 0
M  V30 9893 H 963.993 2.27778 3.12497 0
M  V30 9894 H 965.682 2.68819 3.04123 0
M  V30 9895 H 966.448 4.61891 1.47925 0
M  V30 9896 H 962.327 3.8937 2.46803 0
M  V30 9897 H 965.871 6.92754 0.820839 0
M  V30 9898 H 961.768 6.19473 1.8145 0
M  V30 9899 H 962.536 8.11914 1.03621 0
M  V30 9900 N 965.199 -0.738761 1.39212 0
M  V30 9901 C 966.147 -1.8741 1.3777 0
M  V30 9902 C 967.141 -1.67371 0.261375 0
M  V30 9903 O 968.347 -1.74759 0.431209 0
M  V30 9904 H 964.722 -0.616843 0.430126 0
M  V30 9905 H 966.693 -1.85742 2.33543 0
M  V30 9906 C 965.442 -3.25053 1.23433 0
M  V30 9907 H 964.765 -3.41066 2.086 0
M  V30 9908 H 966.205 -4.04696 1.2648 0
M  V30 9909 C 964.664 -3.36851 -0.0575624 0
M  V30 9910 O 965.194 -3.88293 -1.02915 0
M  V30 9911 N 963.4 -2.90355 -0.119364 0
M  V30 9912 H 962.947 -2.48681 0.671976 0
M  V30 9913 H 962.905 -2.98628 -0.983286 0
M  V30 9914 N 966.677 -1.24326 -0.968545 0
M  V30 9915 C 967.609 -0.992749 -2.06584 0
M  V30 9916 C 968.622 0.0374902 -1.62757 0
M  V30 9917 O 969.811 -0.199448 -1.77382 0
M  V30 9918 C 966.911 -0.476165 -3.35538 0
M  V30 9919 C 966.084 -1.56934 -4.08277 0
M  V30 9920 C 965.143 -1.05555 -5.15504 0
M  V30 9921 O 964.169 -1.74707 -5.41725 0
M  V30 9922 N 965.371 0.110465 -5.80395 0
M  V30 9923 H 968.136 -1.93752 -2.28649 0
M  V30 9924 H 965.697 -1.15344 -1.13611 0
M  V30 9925 H 967.689 -0.117223 -4.0453 0
M  V30 9926 H 966.259 0.374315 -3.10351 0
M  V30 9927 H 965.479 -2.10051 -3.33575 0
M  V30 9928 H 966.767 -2.30415 -4.53637 0
M  V30 9929 H 966.165 0.688614 -5.61493 0
M  V30 9930 H 964.722 0.41056 -6.50506 0
M  V30 9931 N 968.156 1.1691 -1.05688 0
M  V30 9932 C 969.402 1.8757 -0.771071 0
M  V30 9933 C 969.735 1.8113 0.700399 0
M  V30 9934 O 969.01 1.22273 1.5126 0
M  V30 9935 C 969.293 3.37392 -1.25851 0
M  V30 9936 C 969.146 3.52556 -2.79329 0
M  V30 9937 C 970.465 4.31585 -0.861512 0
M  V30 9938 H 967.584 0.681089 -0.281579 0
M  V30 9939 H 970.226 1.37453 -1.31174 0
M  V30 9940 H 968.376 3.80204 -0.798563 0
M  V30 9941 H 970.048 3.18725 -3.33485 0
M  V30 9942 H 968.291 2.94668 -3.1836 0
M  V30 9943 H 968.962 4.57748 -3.08498 0
M  V30 9944 H 971.438 3.96642 -1.25756 0
M  V30 9945 H 970.314 5.34939 -1.23012 0
M  V30 9946 H 970.575 4.4148 0.234089 0
M  V30 9947 N 969.634 0.838594 1.33437 0
M  V30 9948 C 970.88 0.434813 1.98084 0
M  V30 9949 C 971.213 -1.00331 1.66275 0
M  V30 9950 O 970.488 -1.70139 0.942501 0
M  V30 9951 C 970.771 0.655602 3.54082 0
M  V30 9952 C 970.624 2.14097 3.95578 0
M  V30 9953 C 971.943 0.101576 4.39983 0
M  V30 9954 H 969.062 0.159456 0.719544 0
M  V30 9955 H 971.704 1.05406 1.58081 0
M  V30 9956 H 969.854 0.128501 3.88287 0
M  V30 9957 H 971.526 2.73292 3.71631 0
M  V30 9958 H 969.769 2.62558 3.4532 0
M  V30 9959 H 970.44 2.24621 5.04231 0
M  V30 9960 H 972.916 0.552122 4.12421 0
M  V30 9961 H 971.792 0.28575 5.48156 0
M  V30 9962 H 972.053 -0.994616 4.30767 0
M  V30 9963 N 971.112 -1.45937 0.595003 0
M  V30 9964 C 972.342 -2.06399 0.0911607 0
M  V30 9965 C 972.75 -1.44236 -1.22444 0
M  V30 9966 O 972.093 -0.546265 -1.7539 0
M  V30 9967 C 972.155 -3.59242 -0.136079 0
M  V30 9968 C 971.819 -4.43668 1.09579 0
M  V30 9969 C 972.816 -4.79437 2.01088 0
M  V30 9970 C 970.501 -4.84616 1.32109 0
M  V30 9971 C 972.495 -5.54995 3.13464 0
M  V30 9972 C 970.182 -5.5993 2.44788 0
M  V30 9973 C 971.18 -5.95035 3.35294 0
M  V30 9974 O 970.868 -6.68825 4.46014 0
M  V30 9975 H 970.6 -0.673316 0.0601779 0
M  V30 9976 H 973.154 -1.88365 0.819005 0
M  V30 9977 H 971.384 -3.75629 -0.918676 0
M  V30 9978 H 973.073 -4.0159 -0.589954 0
M  V30 9979 H 973.839 -4.48371 1.84902 0
M  V30 9980 H 969.718 -4.56735 0.625662 0
M  V30 9981 H 973.262 -5.82314 3.84131 0
M  V30 9982 H 969.159 -5.90411 2.60931 0
M  V30 9983 H 969.927 -6.87262 4.44537 0
M  V30 9984 N 972.59 -0.333456 -1.54032 0
M  V30 9985 C 973.522 0.562174 -2.22199 0
M  V30 9986 C 974.535 1.07202 -1.22522 0
M  V30 9987 O 975.724 0.983897 -1.48935 0
M  V30 9988 C 972.824 1.78525 -2.88066 0
M  V30 9989 C 971.997 1.41242 -4.13968 0
M  V30 9990 C 971.056 2.49408 -4.63338 0
M  V30 9991 O 970.082 2.13138 -5.27789 0
M  V30 9992 N 971.284 3.805 -4.38406 0
M  V30 9993 H 974.049 -0.0215629 -2.99692 0
M  V30 9994 H 971.61 -0.157111 -1.61136 0
M  V30 9995 H 973.602 2.50298 -3.18014 0
M  V30 9996 H 972.172 2.2766 -2.14219 0
M  V30 9997 H 971.392 0.525887 -3.90676 0
M  V30 9998 H 972.68 1.13916 -4.95884 0
M  V30 9999 H 972.078 4.12761 -3.86839 0
M  V30 10000 H 970.635 4.48474 -4.72984 0
M  V30 10001 N 974.068 1.57479 -0.061844 0
M  V30 10002 C 975.298 1.97142 0.61794 0
M  V30 10003 C 975.706 0.938533 1.64281 0
M  V30 10004 O 975.049 -0.084385 1.83506 0
M  V30 10005 C 975.111 3.33083 1.35263 0
M  V30 10006 C 974.775 4.54447 0.482372 0
M  V30 10007 C 975.772 5.1927 -0.255954 0
M  V30 10008 C 973.457 5.00623 0.410167 0
M  V30 10009 C 975.451 6.28612 -1.05481 0
M  V30 10010 C 973.138 6.09839 -0.392369 0
M  V30 10011 C 974.136 6.73696 -1.12354 0
M  V30 10012 O 973.824 7.80811 -1.91285 0
M  V30 10013 H 973.556 0.653497 0.172969 0
M  V30 10014 H 976.11 2.05002 -0.127781 0
M  V30 10015 H 974.34 3.21808 2.14421 0
M  V30 10016 H 976.029 3.5742 1.92368 0
M  V30 10017 H 976.795 4.84546 -0.209703 0
M  V30 10018 H 972.674 4.50704 0.968883 0
M  V30 10019 H 976.218 6.78385 -1.62602 0
M  V30 10020 H 972.115 6.43997 -0.44022 0
M  V30 10021 H 972.883 7.9764 -1.83611 0
M  V30 10022 N 975.546 -0.211634 1.56173 0
M  V30 10023 C 976.957 -0.777776 1.69728 0
M  V30 10024 C 977.308 -1.84566 0.66558 0
M  V30 10025 O 976.433 -2.15639 -0.181338 0
M  V30 10026 C 977.028 -1.41757 3.07718 0
M  V30 10027 C 975.587 -1.93098 3.23094 0
M  V30 10028 C 974.734 -0.794785 2.65666 0
M  V30 10029 H 977.685 0.0131839 1.58695 0
M  V30 10030 H 977.706 -2.28662 3.04128 0
M  V30 10031 H 977.218 -0.640114 3.82785 0
M  V30 10032 H 975.319 -2.73615 2.52914 0
M  V30 10033 H 975.432 -2.10414 4.30422 0
M  V30 10034 H 973.796 -1.20473 2.24407 0
M  V30 10035 H 974.579 -0.0298408 3.43287 0
M  V30 10036 N 977.024 -1.50153 -0.478725 0
M  V30 10037 C 978.252 -1.64505 -1.25482 0
M  V30 10038 C 978.667 -0.325295 -1.85977 0
M  V30 10039 O 978.024 0.691885 -1.68876 0
M  V30 10040 C 978.075 -2.73052 -2.36906 0
M  V30 10041 O 977.796 -3.99911 -1.78894 0
M  V30 10042 C 979.297 -2.98309 -3.27912 0
M  V30 10043 H 976.517 -0.55318 -0.379781 0
M  V30 10044 H 979.061 -1.96329 -0.57229 0
M  V30 10045 H 977.216 -2.43944 -3.00949 0
M  V30 10046 H 977.63 -4.5988 -2.52211 0
M  V30 10047 H 979.104 -3.77942 -4.02323 0
M  V30 10048 H 979.581 -2.09082 -3.8624 0
M  V30 10049 H 980.187 -3.2892 -2.69614 0
M  V30 10050 N 978.502 0.731368 -1.39602 0
M  V30 10051 C 979.748 1.49211 -1.38231 0
M  V30 10052 C 980.103 1.92389 0.020747 0
M  V30 10053 O 979.396 1.64161 0.988014 0
M  V30 10054 C 979.59 2.74224 -2.29208 0
M  V30 10055 C 979.419 2.4327 -3.78219 0
M  V30 10056 C 978.189 2.35387 -4.47125 0
M  V30 10057 C 980.387 2.08574 -4.70108 0
M  V30 10058 N 978.369 1.96942 -5.81452 0
M  V30 10059 C 979.74 1.80603 -5.93113 0
M  V30 10060 C 981.795 1.95074 -4.58095 0
M  V30 10061 C 980.498 1.40491 -7.05447 0
M  V30 10062 C 982.524 1.56365 -5.70354 0
M  V30 10063 C 981.886 1.29281 -6.92435 0
M  V30 10064 H 977.985 0.544703 -0.56109 0
M  V30 10065 H 980.569 0.849647 -1.75183 0
M  V30 10066 H 978.74 3.36244 -1.94408 0
M  V30 10067 H 980.472 3.40451 -2.18803 0
M  V30 10068 H 977.227 2.52604 -4.0061 0
M  V30 10069 H 977.651 1.80303 -6.52549 0
M  V30 10070 H 982.293 2.1468 -3.64242 0
M  V30 10071 H 980.011 1.19626 -7.99197 0
M  V30 10072 H 983.597 1.4652 -5.63048 0
M  V30 10073 H 982.477 0.997769 -7.77827 0
M  V30 10074 N 979.98 1.24838 0.961938 0
M  V30 10075 C 981.21 1.11709 1.73795 0
M  V30 10076 C 981.618 -0.33263 1.86253 0
M  V30 10077 O 980.961 -1.24101 1.35443 0
M  V30 10078 C 981.023 1.68959 3.17322 0
M  V30 10079 C 980.687 3.17895 3.28316 0
M  V30 10080 C 981.684 4.14975 3.13196 0
M  V30 10081 C 979.369 3.57966 3.52372 0
M  V30 10082 C 981.363 5.50107 3.21965 0
M  V30 10083 C 979.05 4.93237 3.60778 0
M  V30 10084 C 980.048 5.89116 3.45588 0
M  V30 10085 O 979.736 7.21927 3.53662 0
M  V30 10086 H 979.468 0.390726 0.551642 0
M  V30 10087 H 982.022 1.65541 1.21594 0
M  V30 10088 H 980.252 1.09567 3.70853 0
M  V30 10089 H 981.941 1.51036 3.76753 0
M  V30 10090 H 982.707 3.85359 2.94489 0
M  V30 10091 H 978.586 2.83837 3.63259 0
M  V30 10092 H 982.13 6.24924 3.10025 0
M  V30 10093 H 978.027 5.22522 3.79 0
M  V30 10094 H 978.795 7.29925 3.7034 0
M  V30 10095 N 981.458 -1.16348 1.06306 0
M  V30 10096 C 982.688 -1.90505 0.799453 0
M  V30 10097 C 983.096 -1.77686 -0.649955 0
M  V30 10098 O 982.439 -1.11921 -1.45669 0
M  V30 10099 C 982.501 -3.41775 1.11492 0
M  V30 10100 C 982.165 -3.7838 2.56277 0
M  V30 10101 C 983.162 -3.80288 3.54509 0
M  V30 10102 C 980.847 -4.09007 2.9158 0
M  V30 10103 C 982.841 -4.12312 4.86084 0
M  V30 10104 C 980.528 -4.40697 4.23354 0
M  V30 10105 C 981.526 -4.4233 5.20416 0
M  V30 10106 O 981.214 -4.73267 6.49826 0
M  V30 10107 H 980.946 -0.61094 0.289359 0
M  V30 10108 H 983.5 -1.48409 1.41999 0
M  V30 10109 H 981.73 -3.84219 0.437306 0
M  V30 10110 H 983.419 -3.97207 0.835533 0
M  V30 10111 H 984.185 -3.56738 3.28577 0
M  V30 10112 H 980.064 -4.06901 2.16686 0
M  V30 10113 H 983.608 -4.13501 5.61838 0
M  V30 10114 H 979.505 -4.63713 4.49044 0
M  V30 10115 H 980.273 -4.91078 6.54817 0
M  V30 10116 N 982.937 -0.845659 -1.3299 0
M  V30 10117 C 984.214 -0.366306 -1.92139 0
M  V30 10118 C 984.594 1.14912 -1.77083 0
M  V30 10119 O 983.942 1.96667 -1.16338 0
M  V30 10120 C 984.152 -0.820716 -3.39213 0
M  V30 10121 C 985.5 -0.832667 -4.16355 0
M  V30 10122 O 986.524 -0.764764 -3.47893 0
M  V30 10123 O 985.383 -0.926658 -5.38586 0
M  V30 10124 H 982.477 -0.105063 -0.820299 0
M  V30 10125 H 985.023 -0.931962 -1.41819 0
M  V30 10126 H 983.795 -1.86357 -3.44074 0
M  V30 10127 H 983.418 -0.232009 -3.96923 0
M  V30 10128 N 984.415 1.45619 -0.602734 0
M  V30 10129 C 985.661 2.02572 -0.0961759 0
M  V30 10130 C 985.994 1.47076 1.26815 0
M  V30 10131 O 985.269 0.643566 1.83544 0
M  V30 10132 C 985.552 3.60062 -0.0520032 0
M  V30 10133 C 985.405 4.25901 -1.44665 0
M  V30 10134 C 986.724 4.35446 0.638342 0
M  V30 10135 H 983.843 0.736099 -0.0364238 0
M  V30 10136 H 986.485 1.7353 -0.773776 0
M  V30 10137 H 984.635 3.84936 0.525032 0
M  V30 10138 H 986.307 4.12228 -2.0704 0
M  V30 10139 H 984.55 3.84489 -2.00874 0
M  V30 10140 H 985.221 5.34779 -1.36803 0
M  V30 10141 H 987.697 4.15837 0.147926 0
M  V30 10142 H 986.573 5.45176 0.63834 0
M  V30 10143 H 986.834 4.07962 1.70351 0
M  V30 10144 N 985.893 0.34162 1.53853 0
M  V30 10145 C 987.118 -0.259608 2.05769 0
M  V30 10146 C 987.543 -1.43588 1.21507 0
M  V30 10147 O 986.901 -1.79856 0.228364 0
M  V30 10148 C 986.949 -0.654455 3.54611 0
M  V30 10149 O 986.053 -1.75472 3.73207 0
M  V30 10150 H 985.394 -0.0434621 0.662576 0
M  V30 10151 H 987.924 0.495274 1.98515 0
M  V30 10152 H 987.934 -0.932142 3.97209 0
M  V30 10153 H 986.609 0.205779 4.15391 0
M  V30 10154 H 985.186 -1.47444 3.42512 0
M  V30 10155 N 987.371 -1.57444 0.0701946 0
M  V30 10156 C 988.617 -1.93716 -0.600178 0
M  V30 10157 C 988.95 -0.950329 -1.69359 0
M  V30 10158 O 988.225 0.0207123 -1.94489 0
M  V30 10159 C 988.508 -3.40266 -1.17861 0
M  V30 10160 C 988.361 -4.49706 -0.0919575 0
M  V30 10161 C 989.68 -3.87599 -2.08459 0
M  V30 10162 H 986.799 -0.704421 -0.216704 0
M  V30 10163 H 989.441 -1.89514 0.135838 0
M  V30 10164 H 987.591 -3.43977 -1.80587 0
M  V30 10165 H 989.263 -4.58116 0.541031 0
M  V30 10166 H 987.506 -4.29937 0.577639 0
M  V30 10167 H 988.177 -5.49381 -0.537048 0
M  V30 10168 H 990.653 -3.85883 -1.5567 0
M  V30 10169 H 989.529 -4.90755 -2.45867 0
M  V30 10170 H 989.79 -3.25448 -2.99226 0
M  V30 10171 N 988.849 0.203349 -1.56283 0
M  V30 10172 C 990.26 0.768764 -1.70138 0
M  V30 10173 C 990.611 1.8421 -0.675358 0
M  V30 10174 O 989.736 2.15732 0.1699 0
M  V30 10175 C 990.331 1.40123 -3.08466 0
M  V30 10176 C 988.89 1.91382 -3.24114 0
M  V30 10177 C 988.037 0.780685 -2.66084 0
M  V30 10178 H 990.988 -0.0215997 -1.58685 0
M  V30 10179 H 991.009 2.27046 -3.05336 0
M  V30 10180 H 990.521 0.619805 -3.83119 0
M  V30 10181 H 988.622 2.7227 -2.54362 0
M  V30 10182 H 988.735 2.08128 -4.31531 0
M  V30 10183 H 987.099 1.19281 -2.25042 0
M  V30 10184 H 987.882 0.0116351 -3.43298 0
M  V30 10185 N 990.327 1.50405 0.470755 0
M  V30 10186 C 991.29 1.68741 1.5511 0
M  V30 10187 C 992.29 0.558116 1.50804 0
M  V30 10188 O 993.48 0.825149 1.53418 0
M  V30 10189 C 990.612 1.71295 2.94739 0
M  V30 10190 H 991.805 2.65127 1.40169 0
M  V30 10191 H 989.358 1.39891 0.697156 0
M  V30 10192 H 990.093 0.766029 3.15123 0
M  V30 10193 H 989.878 2.53336 2.99271 0
M  V30 10194 H 991.368 1.87434 3.73173 0
M  V30 10195 N 991.805 -0.723954 1.39988 0
M  V30 10196 C 993.053 -1.48078 1.3754 0
M  V30 10197 C 993.374 -1.94985 -0.0243358 0
M  V30 10198 O 992.644 -1.69764 -0.977602 0
M  V30 10199 H 991.224 -0.549354 0.506181 0
M  V30 10200 H 993.886 -0.858746 1.74962 0
M  V30 10201 H 992.982 -2.35763 2.04505 0
M  V30 10202 N 993.283 -1.25346 -0.955304 0
M  V30 10203 C 994.215 -1.0146 -2.0552 0
M  V30 10204 C 995.228 0.0202256 -1.62787 0
M  V30 10205 O 996.417 -0.218251 -1.77161 0
M  V30 10206 C 993.517 -0.511727 -3.35014 0
M  V30 10207 C 992.69 -1.61256 -4.0659 0
M  V30 10208 C 991.749 -1.11017 -5.14356 0
M  V30 10209 O 990.775 -1.80443 -5.39842 0
M  V30 10210 N 991.977 0.0489001 -5.80479 0
M  V30 10211 H 994.742 -1.96166 -2.26581 0
M  V30 10212 H 992.303 -1.16543 -1.12381 0
M  V30 10213 H 994.295 -0.160123 -4.04383 0
M  V30 10214 H 992.865 0.341377 -3.1073 0
M  V30 10215 H 992.085 -2.13577 -3.31328 0
M  V30 10216 H 993.373 -2.35213 -4.51168 0
M  V30 10217 H 992.771 0.629021 -5.62192 0
M  V30 10218 H 991.328 0.341542 -6.50905 0
M  V30 10219 N 994.761 1.15782 -1.06922 0
M  V30 10220 C 995.989 1.90355 -0.81072 0
M  V30 10221 C 996.404 1.77779 0.635614 0
M  V30 10222 O 995.761 1.12675 1.43564 0
M  V30 10223 C 995.812 3.4085 -1.2043 0
M  V30 10224 O 995.533 3.53057 -2.59388 0
M  V30 10225 C 997.034 4.32457 -0.974473 0
M  V30 10226 H 994.254 0.60343 -0.293451 0
M  V30 10227 H 996.798 1.46723 -1.42452 0
M  V30 10228 H 994.953 3.82162 -0.634909 0
M  V30 10229 H 995.367 4.46426 -2.75326 0
M  V30 10230 H 996.841 5.36488 -1.29942 0
M  V30 10231 H 997.318 4.39109 0.0894481 0
M  V30 10232 H 997.924 3.96882 -1.52856 0
M  V30 10233 N 996.239 0.8527 1.3254 0
M  V30 10234 C 997.488 0.45136 1.96585 0
M  V30 10235 C 997.801 -0.997773 1.68237 0
M  V30 10236 O 999.007 -1.50445 2.26006 0
M  V30 10237 C 997.463 0.75619 3.51866 0
M  V30 10238 C 997.071 2.22092 3.89075 0
M  V30 10239 C 998.815 0.422478 4.22392 0
M  V30 10240 C 996.722 2.46908 5.37392 0
M  V30 10241 H 995.652 0.165052 0.735713 0
M  V30 10242 H 998.303 1.04321 1.50962 0
M  V30 10243 H 996.685 0.0937988 3.95889 0
M  V30 10244 H 997.859 2.92494 3.56067 0
M  V30 10245 H 996.174 2.51896 3.31568 0
M  V30 10246 H 998.771 0.58533 5.31487 0
M  V30 10247 H 999.114 -0.635737 4.11417 0
M  V30 10248 H 999.647 1.04068 3.83946 0
M  V30 10249 H 996.386 3.51346 5.53386 0
M  V30 10250 H 995.906 1.81082 5.71812 0
M  V30 10251 H 997.585 2.30758 6.0445 0
M  V30 10252 N 997.718 -1.45297 0.610449 0
M  V30 10253 C 998.628 -2.34349 -0.108475 0
M  V30 10254 C 999.644 -1.51409 -0.857397 0
M  V30 10255 O 1000.82 -1.84202 -0.814337 0
M  V30 10256 C 997.885 -3.29072 -1.09144 0
M  V30 10257 C 996.946 -4.27918 -0.344165 0
M  V30 10258 C 996.179 -5.18116 -1.28031 0
M  V30 10259 O 996.402 -5.11802 -2.51824 0
M  V30 10260 O 995.336 -5.96879 -0.775821 0
M  V30 10261 H 999.162 -2.97232 0.623421 0
M  V30 10262 H 996.747 -1.44728 0.3707 0
M  V30 10263 H 998.629 -3.87433 -1.65751 0
M  V30 10264 H 997.304 -2.68749 -1.80431 0
M  V30 10265 H 996.211 -3.73164 0.264437 0
M  V30 10266 H 997.544 -4.91104 0.328275 0
M  V30 10267 N 999.196 -0.349774 -1.5367 0
M  V30 10268 C 1000.44 0.244827 -2.01015 0
M  V30 10269 C 1000.77 1.50057 -1.23746 0
M  V30 10270 O 1000.03 1.9315 -0.314872 0
M  V30 10271 C 1000.32 0.598311 -3.52356 0
M  V30 10272 C 999.991 -0.56127 -4.47393 0
M  V30 10273 C 998.653 -0.879481 -4.73095 0
M  V30 10274 C 1001 -1.3389 -5.03709 0
M  V30 10275 C 998.333 -1.97758 -5.52366 0
M  V30 10276 C 1000.68 -2.4273 -5.84179 0
M  V30 10277 C 999.349 -2.75103 -6.08173 0
M  V30 10278 H 998.619 0.0895884 -0.735564 0
M  V30 10279 H 1001.27 -0.478975 -1.85413 0
M  V30 10280 H 999.571 1.40291 -3.65822 0
M  V30 10281 H 1001.27 1.07036 -3.86451 0
M  V30 10282 H 997.858 -0.303201 -4.27526 0
M  V30 10283 H 1002.04 -1.10632 -4.83812 0
M  V30 10284 H 997.298 -2.23257 -5.6918 0
M  V30 10285 H 1001.47 -3.03412 -6.26828 0
M  V30 10286 H 999.099 -3.60317 -6.69385 0
M  V30 10287 N 1000.67 1.57404 -0.0785433 0
M  V30 10288 C 1001.62 2.13104 0.88631 0
M  V30 10289 C 1002.59 1.04527 1.29086 0
M  V30 10290 O 1003.78 1.32226 1.37553 0
M  V30 10291 C 1000.92 2.70252 2.14611 0
M  V30 10292 C 1000.03 3.93007 1.79358 0
M  V30 10293 C 999.164 4.38376 3 0
M  V30 10294 C 998.203 5.53761 2.60796 0
M  V30 10295 N 997.34 5.94058 3.74219 0
M  V30 10296 H 1002.18 2.95243 0.404452 0
M  V30 10297 H 999.717 1.45894 0.187982 0
M  V30 10298 H 1001.67 3.01497 2.88367 0
M  V30 10299 H 1000.3 1.90868 2.60326 0
M  V30 10300 H 999.357 3.68181 0.956384 0
M  V30 10301 H 1000.67 4.76795 1.4652 0
M  V30 10302 H 999.823 4.71317 3.82027 0
M  V30 10303 H 998.562 3.53455 3.36037 0
M  V30 10304 H 997.567 5.20464 1.77192 0
M  V30 10305 H 998.792 6.40419 2.25922 0
M  V30 10306 H 996.738 5.12085 4.10005 0
M  V30 10307 H 996.655 6.72602 3.45171 0
M  V30 10308 H 997.923 6.31624 4.56805 0
M  V30 10309 N 1002.15 -0.195058 1.56388 0
M  V30 10310 C 1003.4 -0.915444 1.80626 0
M  V30 10311 C 1003.73 -1.83255 0.651768 0
M  V30 10312 O 1002.98 -1.92314 -0.362464 0
M  V30 10313 C 1003.28 -1.7637 3.10851 0
M  V30 10314 C 1002.95 -0.997572 4.39726 0
M  V30 10315 C 1001.61 -0.786043 4.74737 0
M  V30 10316 C 1003.96 -0.45851 5.19179 0
M  V30 10317 C 1001.29 -0.023972 5.86695 0
M  V30 10318 C 1003.64 0.29035 6.31933 0
M  V30 10319 C 1002.3 0.512895 6.65527 0
M  V30 10320 H 1001.57 -0.334985 0.660959 0
M  V30 10321 H 1004.22 -0.181815 1.90635 0
M  V30 10322 H 1002.53 -2.566 2.9608 0
M  V30 10323 H 1004.22 -2.3237 3.26811 0
M  V30 10324 H 1000.81 -1.17245 4.12252 0
M  V30 10325 H 1005 -0.609334 4.92545 0
M  V30 10326 H 1000.25 0.158421 6.11195 0
M  V30 10327 H 1004.43 0.715429 6.92715 0
M  V30 10328 H 1002.05 1.10531 7.52122 0
M  V30 10329 N 1003.63 -1.50653 -0.462772 0
M  V30 10330 C 1004.56 -1.73056 -1.5676 0
M  V30 10331 C 1005.54 -0.579699 -1.59917 0
M  V30 10332 O 1006.73 -0.819729 -1.76051 0
M  V30 10333 C 1003.86 -1.83234 -2.9503 0
M  V30 10334 C 1002.81 -2.98488 -3.06739 0
M  V30 10335 C 1002.14 -2.93818 -4.46738 0
M  V30 10336 C 1003.44 -4.38869 -2.83181 0
M  V30 10337 H 1005.13 -2.65562 -1.38265 0
M  V30 10338 H 1002.68 -1.27792 -0.663722 0
M  V30 10339 H 1004.63 -1.97491 -3.72257 0
M  V30 10340 H 1003.35 -0.873558 -3.14701 0
M  V30 10341 H 1002.01 -2.83895 -2.31946 0
M  V30 10342 H 1001.66 -1.95769 -4.63339 0
M  V30 10343 H 1001.36 -3.71197 -4.55507 0
M  V30 10344 H 1002.88 -3.10135 -5.25974 0
M  V30 10345 H 1004.3 -4.53945 -3.50153 0
M  V30 10346 H 1002.69 -5.17762 -3.03386 0
M  V30 10347 H 1003.76 -4.50663 -1.78972 0
M  V30 10348 N 1005.11 0.71652 -1.4037 0
M  V30 10349 C 1006.06 1.8306 -1.40562 0
M  V30 10350 C 1007.03 1.64009 -0.262697 0
M  V30 10351 O 1008.21 1.85157 -0.460619 0
M  V30 10352 C 1005.35 3.2076 -1.27307 0
M  V30 10353 C 1004.46 3.51389 -2.51296 0
M  V30 10354 C 1003.6 4.78589 -2.30491 0
M  V30 10355 C 1002.64 5.02119 -3.50061 0
M  V30 10356 N 1001.77 6.20533 -3.28457 0
M  V30 10357 H 1006.61 1.82231 -2.35788 0
M  V30 10358 H 1004.15 0.890198 -1.17106 0
M  V30 10359 H 1006.11 4.00274 -1.17628 0
M  V30 10360 H 1004.74 3.2082 -0.357005 0
M  V30 10361 H 1003.79 2.66436 -2.71507 0
M  V30 10362 H 1005.1 3.64686 -3.40302 0
M  V30 10363 H 1004.26 5.66119 -2.1816 0
M  V30 10364 H 1003 4.67499 -1.38909 0
M  V30 10365 H 1002 4.13044 -3.6287 0
M  V30 10366 H 1003.23 5.15082 -4.42569 0
M  V30 10367 H 1001.17 6.10695 -2.39556 0
M  V30 10368 H 1001.09 6.34502 -4.11027 0
M  V30 10369 H 1002.36 7.10853 -3.19857 0
M  V30 10370 N 1006.59 1.25851 0.948643 0
M  V30 10371 C 1007.53 1.06759 2.04625 0
M  V30 10372 C 1008.5 -0.0251144 1.66081 0
M  V30 10373 O 1009.69 0.133221 1.90334 0
M  V30 10374 C 1006.83 0.698724 3.37952 0
M  V30 10375 C 1005.94 1.8669 3.89578 0
M  V30 10376 C 1005.08 1.44184 5.11258 0
M  V30 10377 C 1004.12 2.57878 5.55126 0
M  V30 10378 N 1003.25 2.16106 6.68014 0
M  V30 10379 H 1008.09 2.00691 2.20289 0
M  V30 10380 H 1005.63 0.999327 1.07944 0
M  V30 10381 H 1007.59 0.465788 4.14592 0
M  V30 10382 H 1006.22 -0.203618 3.22157 0
M  V30 10383 H 1005.27 2.21298 3.09405 0
M  V30 10384 H 1006.58 2.72051 4.18079 0
M  V30 10385 H 1005.74 1.16891 5.95333 0
M  V30 10386 H 1004.47 0.559035 4.84485 0
M  V30 10387 H 1003.48 2.85909 4.69612 0
M  V30 10388 H 1004.7 3.46747 5.83904 0
M  V30 10389 H 1002.65 1.3025 6.42939 0
M  V30 10390 H 1002.57 2.95012 6.96063 0
M  V30 10391 H 1003.84 1.92005 7.55483 0
M  V30 10392 N 1008.06 -1.15214 1.07534 0
M  V30 10393 C 1009 -2.19634 0.655261 0
M  V30 10394 C 1010.01 -1.60139 -0.293165 0
M  V30 10395 O 1011.2 -1.78311 -0.0821957 0
M  V30 10396 C 1008.3 -3.38851 -0.0578281 0
M  V30 10397 C 1007.47 -4.27888 0.90725 0
M  V30 10398 C 1006.53 -5.25692 0.231115 0
M  V30 10399 O 1005.56 -5.62469 0.872746 0
M  V30 10400 N 1006.76 -5.71424 -1.0225 0
M  V30 10401 H 1009.52 -2.56292 1.55353 0
M  V30 10402 H 1007.08 -1.30347 0.960271 0
M  V30 10403 H 1009.08 -4.01334 -0.520874 0
M  V30 10404 H 1007.65 -3.00593 -0.858071 0
M  V30 10405 H 1006.87 -3.62475 1.54937 0
M  V30 10406 H 1008.15 -4.84246 1.56151 0
M  V30 10407 H 1007.55 -5.43659 -1.56369 0
M  V30 10408 H 1006.11 -6.35938 -1.42919 0
M  V30 10409 N 1009.54 -0.859717 -1.32086 0
M  V30 10410 C 1010.79 -0.464662 -1.96686 0
M  V30 10411 C 1011.11 0.98412 -1.68345 0
M  V30 10412 O 1010.38 1.68847 -0.993361 0
M  V30 10413 H 1008.96 -0.168838 -0.727669 0
M  V30 10414 H 1011.62 -1.09726 -1.61079 0
M  V30 10415 H 1010.72 -0.613904 -3.06003 0
M  V30 10416 N 1011.02 1.44971 -0.618145 0
M  V30 10417 C 1012.25 2.07039 -0.122395 0
M  V30 10418 C 1012.67 1.45793 1.18853 0
M  V30 10419 O 1012.03 0.55453 1.72611 0
M  V30 10420 C 1012.08 3.60599 -0.0073864 0
M  V30 10421 O 1011.18 3.99069 1.04007 0
M  V30 10422 H 1010.52 0.6593 -0.0788615 0
M  V30 10423 H 1013.05 1.86055 -0.851147 0
M  V30 10424 H 1013.06 4.07569 0.187417 0
M  V30 10425 H 1011.74 4.04561 -0.964544 0
M  V30 10426 H 1010.31 3.63753 0.820879 0
M  V30 10427 N 1012.5 0.357919 1.53482 0
M  V30 10428 C 1013.73 -0.23514 2.05559 0
M  V30 10429 C 1014.14 -1.43068 1.23195 0
M  V30 10430 O 1013.5 -1.80481 0.270741 0
M  V30 10431 C 1013.55 -0.636147 3.55859 0
M  V30 10432 O 1013.27 0.511864 4.35099 0
M  V30 10433 C 1014.77 -1.28841 4.24164 0
M  V30 10434 H 1011.99 -0.0428446 0.669631 0
M  V30 10435 H 1014.54 0.51407 1.97933 0
M  V30 10436 H 1012.69 -1.33528 3.63661 0
M  V30 10437 H 1013.1 0.189328 5.24158 0
M  V30 10438 H 1014.58 -1.51962 5.30671 0
M  V30 10439 H 1015.06 -2.24638 3.77405 0
M  V30 10440 H 1015.66 -0.630914 4.20594 0
M  V30 10441 N 1013.98 -1.5736 0.0868897 0
M  V30 10442 C 1015.22 -1.94341 -0.579598 0
M  V30 10443 C 1015.56 -0.968238 -1.68341 0
M  V30 10444 O 1014.83 8.29649e-05 -1.945 0
M  V30 10445 C 1015.11 -3.41497 -1.14245 0
M  V30 10446 C 1014.97 -4.49778 -0.044255 0
M  V30 10447 C 1016.29 -3.89788 -2.04336 0
M  V30 10448 H 1013.4 -0.70668 -0.20922 0
M  V30 10449 H 1016.05 -1.89359 0.15593 0
M  V30 10450 H 1014.2 -3.45873 -1.76929 0
M  V30 10451 H 1015.87 -4.57517 0.58959 0
M  V30 10452 H 1014.11 -4.293 0.623207 0
M  V30 10453 H 1014.78 -5.4992 -0.478749 0
M  V30 10454 H 1017.26 -3.87513 -1.51569 0
M  V30 10455 H 1016.13 -4.93335 -2.40648 0
M  V30 10456 H 1016.4 -3.28603 -2.95757 0
M  V30 10457 N 1015.45 0.186762 -1.56489 0
M  V30 10458 C 1016.68 0.921832 -1.85229 0
M  V30 10459 C 1017.1 1.76496 -0.670416 0
M  V30 10460 O 1016.45 1.78899 0.360758 0
M  V30 10461 C 1016.51 1.81121 -3.12854 0
M  V30 10462 O 1016.23 1.00211 -4.26485 0
M  V30 10463 C 1017.73 2.65725 -3.54831 0
M  V30 10464 H 1014.95 0.268563 -0.61491 0
M  V30 10465 H 1017.49 0.191505 -2.03601 0
M  V30 10466 H 1015.65 2.49506 -2.96354 0
M  V30 10467 H 1016.06 1.60893 -4.99213 0
M  V30 10468 H 1017.53 3.23771 -4.47075 0
M  V30 10469 H 1018.01 3.39843 -2.78215 0
M  V30 10470 H 1018.62 2.02698 -3.7389 0
M  V30 10471 N 1016.93 1.50896 0.454776 0
M  V30 10472 C 1018.18 1.63905 1.20444 0
M  V30 10473 C 1018.53 0.342692 1.89323 0
M  V30 10474 O 1017.83 -0.660465 1.79857 0
M  V30 10475 C 1018.02 2.76839 2.26042 0
M  V30 10476 C 1017.85 4.17332 1.67524 0
M  V30 10477 C 1016.62 4.83512 1.46779 0
M  V30 10478 C 1018.82 5.01022 1.1611 0
M  V30 10479 N 1016.8 6.08171 0.83675 0
M  V30 10480 C 1018.17 6.16538 0.654283 0
M  V30 10481 C 1020.23 4.86677 1.05119 0
M  V30 10482 C 1018.93 7.19284 0.0483821 0
M  V30 10483 C 1020.95 5.89614 0.459211 0
M  V30 10484 C 1020.32 7.0439 -0.0371476 0
M  V30 10485 H 1016.42 0.653802 0.42903 0
M  V30 10486 H 1019 1.88069 0.503783 0
M  V30 10487 H 1017.17 2.54369 2.93515 0
M  V30 10488 H 1018.9 2.7912 2.93043 0
M  V30 10489 H 1015.66 4.41082 1.72464 0
M  V30 10490 H 1016.08 6.7485 0.539176 0
M  V30 10491 H 1020.72 3.98211 1.42085 0
M  V30 10492 H 1018.44 8.07412 -0.333438 0
M  V30 10493 H 1022.03 5.80582 0.376315 0
M  V30 10494 H 1020.91 7.8268 -0.488035 0
M  V30 10495 N 1018.41 -0.709066 1.40748 0
M  V30 10496 C 1019.32 -1.85314 1.43861 0
M  V30 10497 C 1020.34 -1.70832 0.330539 0
M  V30 10498 O 1021.51 -1.92983 0.576152 0
M  V30 10499 C 1018.58 -3.21174 1.30568 0
M  V30 10500 C 1017.64 -3.47863 2.51574 0
M  V30 10501 C 1016.87 -4.77241 2.38906 0
M  V30 10502 O 1017.09 -5.52791 1.40636 0
M  V30 10503 O 1016.03 -5.04413 3.28407 0
M  V30 10504 H 1019.85 -1.85644 2.40354 0
M  V30 10505 H 1017.44 -0.860352 1.2214 0
M  V30 10506 H 1019.32 -4.02313 1.25388 0
M  V30 10507 H 1018 -3.21557 0.371841 0
M  V30 10508 H 1016.9 -2.66708 2.62331 0
M  V30 10509 H 1018.24 -3.52283 3.43741 0
M  V30 10510 N 1019.89 -1.26353 -0.941956 0
M  V30 10511 C 1021.14 -1.1163 -1.68473 0
M  V30 10512 C 1021.46 0.34108 -1.91994 0
M  V30 10513 O 1020.73 1.24065 -1.51607 0
M  V30 10514 H 1019.31 -0.410113 -0.624353 0
M  V30 10515 H 1021.97 -1.58669 -1.13182 0
M  V30 10516 H 1021.07 -1.63445 -2.6588 0
M  V30 10517 N 1021.37 1.14642 -1.08144 0
M  V30 10518 C 1022.62 1.8525 -0.807885 0
M  V30 10519 C 1022.94 1.83194 0.668213 0
M  V30 10520 O 1022.21 1.27848 1.48431 0
M  V30 10521 H 1020.79 0.685909 -0.295868 0
M  V30 10522 H 1023.45 1.38935 -1.36686 0
M  V30 10523 H 1022.54 2.90155 -1.14964 0
M  V30 10524 N 1022.85 0.866709 1.31628 0
M  V30 10525 C 1023.81 0.325041 2.26883 0
M  V30 10526 C 1024.81 -0.522133 1.52087 0
M  V30 10527 O 1026 -0.331908 1.71009 0
M  V30 10528 C 1023.13 -0.538756 3.36616 0
M  V30 10529 H 1024.32 1.16592 2.76308 0
M  V30 10530 H 1021.88 0.642029 1.42505 0
M  V30 10531 H 1022.61 -1.40096 2.92478 0
M  V30 10532 H 1022.4 0.0678115 3.92041 0
M  V30 10533 H 1023.89 -0.910123 4.07562 0
M  V30 10534 N 1024.32 -1.44642 0.625825 0
M  V30 10535 C 1025.27 -2.32408 -0.0945221 0
M  V30 10536 C 1026.27 -1.47038 -0.841198 0
M  V30 10537 O 1027.47 -1.63415 -0.754698 0
M  V30 10538 H 1023.85 -0.75038 -0.0493321 0
M  V30 10539 H 1025.82 -2.90922 0.663863 0
M  V30 10540 C 1024.57 -3.30951 -1.06615 0
M  V30 10541 H 1023.89 -3.96648 -0.501021 0
M  V30 10542 H 1025.33 -3.95054 -1.53976 0
M  V30 10543 C 1023.79 -2.59479 -2.14877 0
M  V30 10544 O 1024.32 -2.38974 -3.22885 0
M  V30 10545 N 1022.52 -2.19307 -1.90665 0
M  V30 10546 H 1022.07 -2.36184 -1.02835 0
M  V30 10547 H 1022.03 -1.71811 -2.63303 0
M  V30 10548 N 1025.8 -0.366053 -1.5329 0
M  V30 10549 C 1027.22 -0.0150149 -1.59593 0
M  V30 10550 C 1027.42 1.46719 -1.38116 0
M  V30 10551 O 1026.47 2.22884 -1.18656 0
M  V30 10552 C 1027.79 -0.471374 -2.96982 0
M  V30 10553 C 1029.33 -0.425634 -3.10092 0
M  V30 10554 C 1029.81 -0.857812 -4.49895 0
M  V30 10555 N 1031.3 -0.81289 -4.56011 0
M  V30 10556 C 1032.04 -1.11898 -5.62376 0
M  V30 10557 N 1031.53 -1.49436 -6.76491 0
M  V30 10558 N 1033.32 -1.04174 -5.52362 0
M  V30 10559 H 1025.48 -1.33127 -1.65502 0
M  V30 10560 H 1027.74 -0.544172 -0.776261 0
M  V30 10561 H 1027.44 -1.50569 -3.1784 0
M  V30 10562 H 1027.32 0.141764 -3.76934 0
M  V30 10563 H 1029.71 0.599548 -2.88945 0
M  V30 10564 H 1029.79 -1.07427 -2.32149 0
M  V30 10565 H 1029.43 -1.88111 -4.7178 0
M  V30 10566 H 1029.36 -0.186419 -5.2627 0
M  V30 10567 H 1031.85 -0.536343 -3.74075 0
M  V30 10568 H 1032.16 -1.71217 -7.53594 0
M  V30 10569 H 1030.51 -1.53302 -6.77882 0
M  V30 10570 H 1033.7 -0.747654 -4.62091 0
M  V30 10571 H 1033.87 -1.28362 -6.35159 0
M  V30 10572 N 1027.28 1.57312 -0.0952337 0
M  V30 10573 C 1028.51 1.98697 0.57682 0
M  V30 10574 C 1028.92 0.974347 1.61716 0
M  V30 10575 O 1028.28 -0.036022 1.82464 0
M  V30 10576 C 1028.33 3.40133 1.2244 0
M  V30 10577 O 1028.05 4.37518 0.225678 0
M  V30 10578 C 1029.55 3.96522 1.98205 0
M  V30 10579 H 1026.77 0.65294 0.154629 0
M  V30 10580 H 1029.32 2.03754 -0.174562 0
M  V30 10581 H 1027.47 3.3609 1.92671 0
M  V30 10582 H 1027.89 5.199 0.693116 0
M  V30 10583 H 1029.36 4.97637 2.38875 0
M  V30 10584 H 1029.84 3.34347 2.84796 0
M  V30 10585 H 1030.44 4.04038 1.3279 0
M  V30 10586 N 1028.76 -0.17846 1.56586 0
M  V30 10587 C 1030 -0.896235 1.81587 0
M  V30 10588 C 1030.33 -1.82553 0.671168 0
M  V30 10589 O 1029.59 -1.92688 -0.342046 0
M  V30 10590 C 1029.89 -1.73063 3.12704 0
M  V30 10591 C 1029.55 -0.950877 4.4076 0
M  V30 10592 C 1028.21 -0.735647 4.75544 0
M  V30 10593 C 1030.57 -0.403419 5.19636 0
M  V30 10594 C 1027.89 0.0382562 5.86688 0
M  V30 10595 C 1030.25 0.357359 6.3159 0
M  V30 10596 C 1028.91 0.583455 6.64945 0
M  V30 10597 H 1028.18 -0.327956 0.664474 0
M  V30 10598 H 1030.83 -0.161586 1.90817 0
M  V30 10599 H 1029.13 -2.53446 2.98785 0
M  V30 10600 H 1030.83 -2.28891 3.29257 0
M  V30 10601 H 1027.42 -1.12866 4.13472 0
M  V30 10602 H 1031.6 -0.557059 4.93164 0
M  V30 10603 H 1026.86 0.223237 6.10992 0
M  V30 10604 H 1031.03 0.788861 6.91918 0
M  V30 10605 H 1028.66 1.18502 7.50907 0
M  V30 10606 N 1030.24 -1.51135 -0.446768 0
M  V30 10607 C 1031.46 -1.67129 -1.21965 0
M  V30 10608 C 1031.88 -0.36467 -1.85245 0
M  V30 10609 O 1031.24 0.655908 -1.70306 0
M  V30 10610 C 1031.29 -2.78016 -2.31061 0
M  V30 10611 O 1031.01 -4.03615 -1.70371 0
M  V30 10612 C 1032.51 -3.05197 -3.21511 0
M  V30 10613 H 1029.73 -0.561111 -0.367961 0
M  V30 10614 H 1032.27 -1.97499 -0.530517 0
M  V30 10615 H 1030.43 -2.50272 -2.95707 0
M  V30 10616 H 1030.84 -4.65126 -2.424 0
M  V30 10617 H 1032.32 -3.8639 -3.94216 0
M  V30 10618 H 1032.79 -2.17228 -3.81718 0
M  V30 10619 H 1033.4 -3.34565 -2.62577 0
M  V30 10620 N 1031.71 0.701592 -1.41122 0
M  V30 10621 C 1032.94 1.49049 -1.43499 0
M  V30 10622 C 1033.36 1.88761 -0.0385684 0
M  V30 10623 O 1032.71 1.56384 0.940755 0
M  V30 10624 C 1032.76 2.7569 -2.33832 0
M  V30 10625 O 1032.49 2.37653 -3.68039 0
M  V30 10626 C 1033.99 3.69479 -2.44949 0
M  V30 10627 H 1031.21 0.459519 -0.488961 0
M  V30 10628 H 1033.75 0.864318 -1.85337 0
M  V30 10629 H 1031.91 3.34559 -1.95318 0
M  V30 10630 H 1032.32 3.19241 -4.16156 0
M  V30 10631 H 1033.79 4.55139 -3.12334 0
M  V30 10632 H 1034.27 4.13553 -1.47887 0
M  V30 10633 H 1034.88 3.16517 -2.84072 0
M  V30 10634 N 1033.19 1.2685 0.935242 0
M  V30 10635 C 1034.6 1.11569 1.49697 0
M  V30 10636 C 1034.95 -0.301952 1.93863 0
M  V30 10637 O 1034.08 -1.19408 1.80473 0
M  V30 10638 C 1034.67 2.01918 2.72056 0
M  V30 10639 C 1033.23 1.90765 3.24477 0
M  V30 10640 C 1032.38 1.94918 1.97237 0
M  V30 10641 H 1035.33 1.39853 0.750116 0
M  V30 10642 H 1035.35 1.57056 3.46574 0
M  V30 10643 H 1034.86 3.05088 2.39881 0
M  V30 10644 H 1032.96 0.905521 3.61429 0
M  V30 10645 H 1033.08 2.76611 3.91182 0
M  V30 10646 H 1031.44 1.39046 2.13397 0
M  V30 10647 H 1032.22 2.99729 1.67385 0
M  V30 10648 N 1034.67 -1.14067 1.0875 0
M  V30 10649 C 1035.9 -1.89041 0.840902 0
M  V30 10650 C 1036.31 -1.78768 -0.60725 0
M  V30 10651 O 1035.67 -1.14945 -1.41753 0
M  V30 10652 C 1035.72 -3.38891 1.25838 0
M  V30 10653 O 1035.44 -3.48886 2.64972 0
M  V30 10654 C 1036.94 -4.30852 1.04315 0
M  V30 10655 H 1034.16 -0.598685 0.303014 0
M  V30 10656 H 1036.71 -1.44438 1.44769 0
M  V30 10657 H 1034.86 -3.81103 0.695627 0
M  V30 10658 H 1035.28 -4.41989 2.82393 0
M  V30 10659 H 1036.75 -5.34353 1.38461 0
M  V30 10660 H 1037.23 -4.39196 -0.0195784 0
M  V30 10661 H 1037.83 -3.944 1.59151 0
M  V30 10662 N 1036.15 -0.873678 -1.31166 0
M  V30 10663 C 1037.37 -0.500242 -2.01277 0
M  V30 10664 C 1037.8 0.900811 -1.65127 0
M  V30 10665 O 1037.16 1.59504 -0.861862 0
M  V30 10666 C 1037.2 -0.668976 -3.5434 0
M  V30 10667 O 1036.31 0.290096 -4.11378 0
M  V30 10668 H 1035.65 -0.198507 -0.633633 0
M  V30 10669 H 1038.18 -1.17811 -1.67277 0
M  V30 10670 H 1038.19 -0.563673 -4.04088 0
M  V30 10671 H 1036.86 -1.69055 -3.79991 0
M  V30 10672 H 1035.44 0.139437 -3.72639 0
M  V30 10673 N 1037.63 1.44308 -0.633487 0
M  V30 10674 C 1038.87 2.01624 -0.138643 0
M  V30 10675 C 1039.2 1.50101 1.24477 0
M  V30 10676 O 1038.47 0.705575 1.82752 0
M  V30 10677 H 1037.05 0.745439 -0.0482636 0
M  V30 10678 H 1039.71 1.76777 -0.820719 0
M  V30 10679 H 1038.8 3.11913 -0.108136 0
M  V30 10680 N 1039.1 0.374177 1.53094 0
M  V30 10681 C 1040.33 -0.213325 2.05797 0
M  V30 10682 C 1040.75 -1.41753 1.24706 0
M  V30 10683 O 1040.1 -1.80183 0.289868 0
M  V30 10684 C 1040.16 -0.598367 3.56513 0
M  V30 10685 O 1039.88 0.557983 4.34532 0
M  V30 10686 C 1041.38 -1.24334 4.25507 0
M  V30 10687 H 1038.6 -0.0357398 0.670048 0
M  V30 10688 H 1041.14 0.535035 1.97377 0
M  V30 10689 H 1039.3 -1.29663 3.65056 0
M  V30 10690 H 1039.71 0.244911 5.23928 0
M  V30 10691 H 1041.18 -1.46325 5.32253 0
M  V30 10692 H 1041.66 -2.20622 3.79766 0
M  V30 10693 H 1042.27 -0.586269 4.2124 0
M  V30 10694 N 1040.58 -1.57259 0.103575 0
M  V30 10695 C 1041.55 -2.13337 -0.837859 0
M  V30 10696 C 1042.55 -1.06459 -1.20512 0
M  V30 10697 O 1043.74 -1.32307 -1.13316 0
M  V30 10698 C 1040.87 -2.66093 -2.13089 0
M  V30 10699 H 1042.06 -2.97842 -0.350775 0
M  V30 10700 H 1039.61 -1.55621 -0.145511 0
M  V30 10701 H 1040.35 -1.85133 -2.66264 0
M  V30 10702 H 1040.13 -3.44244 -1.87719 0
M  V30 10703 H 1041.62 -3.09443 -2.80419 0
M  V30 10704 N 1042.06 0.170153 -1.56679 0
M  V30 10705 C 1043.29 0.902134 -1.86197 0
M  V30 10706 C 1043.7 1.75775 -0.689098 0
M  V30 10707 O 1043.06 1.79271 0.341763 0
M  V30 10708 C 1043.11 1.77792 -3.14757 0
M  V30 10709 O 1042.83 0.956817 -4.27524 0
M  V30 10710 C 1044.33 2.61947 -3.57629 0
M  V30 10711 H 1041.55 0.262026 -0.617724 0
M  V30 10712 H 1044.1 0.169899 -2.03793 0
M  V30 10713 H 1042.25 2.46348 -2.98984 0
M  V30 10714 H 1042.67 1.5559 -5.00891 0
M  V30 10715 H 1044.14 3.19011 -4.50484 0
M  V30 10716 H 1044.62 3.36873 -2.81803 0
M  V30 10717 H 1045.22 1.98721 -3.76019 0
M  V30 10718 N 1043.54 1.5137 0.438746 0
M  V30 10719 C 1044.78 1.64211 1.19006 0
M  V30 10720 C 1045.12 0.356607 1.90898 0
M  V30 10721 O 1044.39 -0.643722 1.83539 0
M  V30 10722 C 1044.68 2.8445 2.20817 0
M  V30 10723 C 1044.53 4.22972 1.53018 0
M  V30 10724 C 1045.85 3.00207 3.21813 0
M  V30 10725 H 1042.97 0.597628 0.431288 0
M  V30 10726 H 1045.61 1.8385 0.479487 0
M  V30 10727 H 1043.76 2.67836 2.81418 0
M  V30 10728 H 1045.43 4.5125 0.957654 0
M  V30 10729 H 1043.67 4.25736 0.832556 0
M  V30 10730 H 1044.34 5.03094 2.27158 0
M  V30 10731 H 1046.82 3.15522 2.71266 0
M  V30 10732 H 1045.7 3.85904 3.90345 0
M  V30 10733 H 1045.96 2.12216 3.87836 0
M  V30 10734 N 1045.02 -0.694098 1.41492 0
M  V30 10735 C 1045.96 -1.82932 1.43662 0
M  V30 10736 C 1046.96 -1.66455 0.31449 0
M  V30 10737 O 1048.16 -1.73298 0.486589 0
M  V30 10738 H 1044.54 -0.602847 0.449533 0
M  V30 10739 H 1046.51 -1.78218 2.39334 0
M  V30 10740 C 1045.26 -3.20962 1.33712 0
M  V30 10741 H 1044.58 -3.34257 2.19345 0
M  V30 10742 H 1046.02 -4.00467 1.39291 0
M  V30 10743 C 1044.48 -3.36863 0.0496332 0
M  V30 10744 O 1045.01 -3.91371 -0.905093 0
M  V30 10745 N 1043.22 -2.90588 -0.0269299 0
M  V30 10746 H 1042.76 -2.46417 0.750752 0
M  V30 10747 H 1042.72 -3.01605 -0.887781 0
M  V30 10748 N 1046.49 -1.27344 -0.928501 0
M  V30 10749 C 1047.74 -1.13804 -1.67859 0
M  V30 10750 C 1048.07 0.31555 -1.91619 0
M  V30 10751 O 1047.35 1.23087 -1.50599 0
M  V30 10752 C 1047.63 -1.9213 -3.04562 0
M  V30 10753 C 1047.48 -3.45468 -2.88048 0
M  V30 10754 C 1048.8 -1.72513 -4.04879 0
M  V30 10755 H 1045.92 -0.414796 -0.609191 0
M  V30 10756 H 1048.56 -1.5649 -1.07753 0
M  V30 10757 H 1046.71 -1.55853 -3.55868 0
M  V30 10758 H 1048.39 -3.9157 -2.43865 0
M  V30 10759 H 1046.63 -3.71849 -2.23407 0
M  V30 10760 H 1047.3 -3.95515 -3.85061 0
M  V30 10761 H 1049.78 -2.04143 -3.62581 0
M  V30 10762 H 1048.65 -2.29713 -4.98521 0
M  V30 10763 H 1048.91 -0.672856 -4.3695 0
M  V30 10764 N 1047.97 1.13488 -1.09353 0
M  V30 10765 C 1048.92 2.20949 -0.726923 0
M  V30 10766 C 1049.91 1.67205 0.271816 0
M  V30 10767 O 1051.12 1.79505 0.133356 0
M  V30 10768 H 1047.5 0.719985 -0.217086 0
M  V30 10769 H 1049.47 2.49134 -1.6424 0
M  V30 10770 C 1048.22 3.47319 -0.162822 0
M  V30 10771 H 1047.54 3.89011 -0.922527 0
M  V30 10772 H 1048.98 4.23963 0.0557734 0
M  V30 10773 C 1047.44 3.18376 1.10175 0
M  V30 10774 O 1047.97 3.3707 2.18511 0
M  V30 10775 N 1046.17 2.72262 1.01597 0
M  V30 10776 H 1045.72 2.5725 0.134289 0
M  V30 10777 H 1045.68 2.53272 1.86281 0
M  V30 10778 N 1049.45 0.880621 1.30701 0
M  V30 10779 C 1050.7 0.506967 1.96981 0
M  V30 10780 C 1051.05 -0.932694 1.68281 0
M  V30 10781 O 1050.35 -1.64954 0.974709 0
M  V30 10782 C 1050.54 0.713203 3.50212 0
M  V30 10783 C 1050.37 2.17136 3.93805 0
M  V30 10784 C 1049.14 2.81508 4.19621 0
M  V30 10785 C 1051.34 3.14473 4.06954 0
M  V30 10786 N 1049.32 4.17965 4.49643 0
M  V30 10787 C 1050.69 4.3599 4.40809 0
M  V30 10788 C 1052.74 3.1032 3.89366 0
M  V30 10789 C 1051.45 5.53889 4.58911 0
M  V30 10790 C 1053.47 4.27487 4.08667 0
M  V30 10791 C 1052.84 5.47769 4.42864 0
M  V30 10792 H 1048.93 0.234756 0.745931 0
M  V30 10793 H 1051.52 1.13745 1.5802 0
M  V30 10794 H 1049.69 0.112239 3.88238 0
M  V30 10795 H 1051.42 0.30688 4.03535 0
M  V30 10796 H 1048.18 2.32399 4.12659 0
M  V30 10797 H 1048.6 4.88425 4.68796 0
M  V30 10798 H 1053.24 2.18428 3.62007 0
M  V30 10799 H 1050.96 6.46289 4.85114 0
M  V30 10800 H 1054.55 4.25738 3.96533 0
M  V30 10801 H 1053.43 6.36922 4.57493 0
M  V30 10802 N 1050.93 -1.4397 0.641131 0
M  V30 10803 C 1051.86 -2.28997 -0.0963315 0
M  V30 10804 C 1052.87 -1.4184 -0.799071 0
M  V30 10805 O 1054.06 -1.65896 -0.658846 0
M  V30 10806 C 1051.16 -3.18465 -1.15903 0
M  V30 10807 C 1050.34 -4.34093 -0.536828 0
M  V30 10808 C 1049.4 -5.04522 -1.4948 0
M  V30 10809 O 1048.42 -5.60202 -1.00807 0
M  V30 10810 N 1049.62 -5.06899 -2.82901 0
M  V30 10811 H 1052.39 -2.9293 0.633422 0
M  V30 10812 H 1049.95 -1.54527 0.48302 0
M  V30 10813 H 1051.94 -3.62445 -1.80044 0
M  V30 10814 H 1050.51 -2.56214 -1.79089 0
M  V30 10815 H 1049.73 -3.9318 0.283414 0
M  V30 10816 H 1051.02 -5.08698 -0.101966 0
M  V30 10817 H 1050.42 -4.63012 -3.25017 0
M  V30 10818 H 1048.97 -5.54637 -3.42376 0
M  V30 10819 N 1052.41 -0.382291 -1.52893 0
M  V30 10820 C 1053.82 0.0932841 -1.86467 0
M  V30 10821 C 1054.17 1.4675 -1.30226 0
M  V30 10822 O 1053.29 2.07001 -0.63084 0
M  V30 10823 C 1053.89 0.176048 -3.38342 0
M  V30 10824 C 1052.45 0.595904 -3.71653 0
M  V30 10825 C 1051.6 -0.246511 -2.76202 0
M  V30 10826 H 1054.55 -0.600443 -1.46903 0
M  V30 10827 H 1054.57 0.996512 -3.67219 0
M  V30 10828 H 1054.08 -0.824264 -3.79246 0
M  V30 10829 H 1052.18 1.60384 -3.36315 0
M  V30 10830 H 1052.29 0.358919 -4.77754 0
M  V30 10831 H 1050.66 0.287162 -2.53076 0
M  V30 10832 H 1051.44 -1.24467 -3.19942 0
M  V30 10833 O 1053.92 1.59518 -0.252213 0
M  V30 10834 H 1054.62 1.90999 0.322339 0
M  V30 END ATOM
M  V30 BEGIN BOND
M  V30 END BOND
M  V30 END CTAB
M  END
$$$$
